drugbank_target|Q8N5S9 Calcium/calmodulin-dependent protein kinase kinase 1 (DB12010)
 OpenBabel12092121143D

  0  0  0     0  0            999 V3000
M  V30 BEGIN CTAB
M  V30 COUNTS 7842 7931 0 0 0
M  V30 BEGIN ATOM
M  V30 1 H -0.908 1.98254 -0.117106 0
M  V30 2 N 0 1.576 0 0
M  V30 3 C 0.933 2.03868 1.02534 0
M  V30 4 C 1.911 0.928543 1.3348 0
M  V30 5 O 3.095 1.19667 1.45644 0
M  V30 6 C 0.222 2.43627 2.35294 0
M  V30 7 C -0.732 3.65373 2.2001 0
M  V30 8 S 0.101 5.13292 1.52614 0
M  V30 9 C 1.257 5.56322 2.86805 0
M  V30 10 H 1.49 2.90518 0.631377 0
M  V30 11 H -0.977 1.52953 0.210867 0
M  V30 12 H 0.981 2.67203 3.11629 0
M  V30 13 H -0.358 1.57376 2.7183 0
M  V30 14 H -1.165 3.90944 3.18086 0
M  V30 15 H -1.563 3.418 1.51819 0
M  V30 16 H 0.729 5.58782 3.83104 0
M  V30 17 H 1.672 6.56266 2.65933 0
M  V30 18 H 2.08 4.83886 2.90714 0
M  V30 19 N 1.4781 -0.272755 1.55222 0
M  V30 20 C 2.3881 -1.35918 1.91216 0
M  V30 21 C 3.4041 -1.54026 0.809436 0
M  V30 22 O 4.5801 -1.68148 1.10852 0
M  V30 23 C 1.6451 -2.69834 2.17693 0
M  V30 24 C 0.7061 -2.6047 3.41253 0
M  V30 25 C -0.0609 -3.88 3.66458 0
M  V30 26 O 0.1621 -4.88693 2.94169 0
M  V30 27 O -0.9039 -3.88189 4.59992 0
M  V30 28 H 2.9221 -1.0839 2.83699 0
M  V30 29 H 0.5071 -0.471301 1.41771 0
M  V30 30 H 2.3891 -3.49017 2.36147 0
M  V30 31 H 1.0641 -2.97148 1.28392 0
M  V30 32 H -0.0289 -1.79663 3.28134 0
M  V30 33 H 1.3041 -2.38106 4.30774 0
M  V30 34 N 2.9562 -1.48159 -0.537278 0
M  V30 35 C 4.2042 -1.55497 -1.29094 0
M  V30 36 C 4.5252 -0.227454 -1.93669 0
M  V30 37 O 3.7952 0.750386 -1.80959 0
M  V30 38 H 2.3752 -0.572832 -0.47945 0
M  V30 39 H 5.0372 -1.84579 -0.625818 0
M  V30 40 H 4.1332 -2.33216 -2.07405 0
M  V30 41 N 4.4343 0.785586 -1.36625 0
M  V30 42 C 5.6823 1.54057 -1.30808 0
M  V30 43 C 6.0033 1.94683 0.111157 0
M  V30 44 O 5.2733 1.65241 1.05224 0
M  V30 45 H 3.8533 0.571354 -0.481211 0
M  V30 46 H 6.5153 0.935821 -1.70963 0
M  V30 47 H 5.6113 2.44637 -1.93801 0
M  V30 48 N 5.9124 1.20967 1.01018 0
M  V30 49 C 7.3234 1.02319 1.56165 0
M  V30 50 C 7.6744 -0.418546 1.91684 0
M  V30 51 O 6.7994 -1.30096 1.72928 0
M  V30 52 C 7.3944 1.85109 2.8376 0
M  V30 53 C 5.9534 1.70809 3.35412 0
M  V30 54 C 5.1004 1.82643 2.08655 0
M  V30 55 H 8.0514 1.35065 0.833255 0
M  V30 56 H 8.0724 1.35827 3.55431 0
M  V30 57 H 7.5844 2.90035 2.57878 0
M  V30 58 H 5.6854 0.685464 3.66241 0
M  V30 59 H 5.7984 2.52467 4.07182 0
M  V30 60 H 4.1624 1.25896 2.21409 0
M  V30 61 H 4.9454 2.89066 1.85191 0
M  V30 62 N 7.3905 -1.2043 1.01659 0
M  V30 63 C 8.3535 -2.21433 0.591616 0
M  V30 64 C 9.3535 -1.57203 -0.338226 0
M  V30 65 O 10.5435 -1.73737 -0.126918 0
M  V30 66 C 7.6755 -3.40628 -0.136058 0
M  V30 67 H 8.8685 -2.60545 1.48514 0
M  V30 68 H 6.4215 -1.33893 0.806379 0
M  V30 69 H 7.1565 -3.07019 -1.04449 0
M  V30 70 H 6.9415 -3.88475 0.531917 0
M  V30 71 H 8.4315 -4.15475 -0.420735 0
M  V30 72 N 8.8686 -0.792821 -1.36206 0
M  V30 73 C 10.1146 -0.36733 -1.99446 0
M  V30 74 C 10.4476 1.05917 -1.62774 0
M  V30 75 O 9.7226 1.7324 -0.88421 0
M  V30 76 C 10.0056 -0.535044 -3.56103 0
M  V30 77 C 9.8586 -2.00548 -4.02617 0
M  V30 78 C 11.1776 0.0478191 -4.40074 0
M  V30 79 H 8.2966 -0.134941 -0.724541 0
M  V30 80 H 10.9386 -0.999794 -1.61568 0
M  V30 81 H 9.0886 0.00336329 -3.885 0
M  V30 82 H 10.7606 -2.60521 -3.80692 0
M  V30 83 H 9.0036 -2.50686 -3.54032 0
M  V30 84 H 9.6746 -2.07377 -5.11565 0
M  V30 85 H 12.1506 -0.411822 -4.14057 0
M  V30 86 H 11.0266 -0.0995336 -5.4881 0
M  V30 87 H 11.2876 1.14025 -4.27142 0
M  V30 88 N 10.3467 1.47872 -0.545128 0
M  V30 89 C 11.5867 2.04391 -0.0187854 0
M  V30 90 C 11.9507 1.41162 1.30144 0
M  V30 91 O 13.1517 1.88656 1.91474 0
M  V30 92 C 11.4227 3.57299 0.0850867 0
M  V30 93 S 12.9817 4.35221 0.559302 0
M  V30 94 H 9.7997 0.710737 -0.0193301 0
M  V30 95 H 12.4017 1.81395 -0.729125 0
M  V30 96 H 11.1057 4.00847 -0.880351 0
M  V30 97 H 10.6367 3.84773 0.819348 0
M  V30 98 H 12.6517 4.61571 1.82118 0
M  V30 99 N 11.8248 0.280983 1.55075 0
M  V30 100 C 13.0648 -0.335234 2.01632 0
M  V30 101 C 13.4288 -1.5261 1.16508 0
M  V30 102 O 14.6298 -2.21235 1.52672 0
M  V30 103 C 12.9008 -0.702172 3.50434 0
M  V30 104 S 14.4598 -1.30409 4.18974 0
M  V30 105 H 11.2778 -0.103967 0.703358 0
M  V30 106 H 13.8798 0.404187 1.91276 0
M  V30 107 H 12.5838 0.17333 4.10034 0
M  V30 108 H 12.1148 -1.4729 3.64786 0
M  V30 109 H 14.1298 -2.59253 4.23087 0
M  V30 110 N 13.3029 -1.57598 0.00835791 0
M  V30 111 C 14.2349 -2.05811 -1.00868 0
M  V30 112 C 15.2479 -0.977579 -1.30182 0
M  V30 113 O 16.4369 -1.25421 -1.27011 0
M  V30 114 C 13.5369 -2.45016 -2.34137 0
M  V30 115 C 12.7099 -3.75903 -2.23643 0
M  V30 116 C 11.7689 -4.01884 -3.3967 0
M  V30 117 O 10.7949 -4.72433 -3.17483 0
M  V30 118 N 11.9969 -3.50432 -4.62793 0
M  V30 119 H 14.7619 -2.93684 -0.597458 0
M  V30 120 H 12.3229 -1.60909 -0.178852 0
M  V30 121 H 14.3149 -2.59506 -3.10546 0
M  V30 122 H 12.8849 -1.62618 -2.66972 0
M  V30 123 H 12.1049 -3.7141 -1.32091 0
M  V30 124 H 13.3929 -4.61695 -2.13812 0
M  V30 125 H 12.7909 -2.93317 -4.83716 0
M  V30 126 H 11.3479 -3.70236 -5.3644 0
M  V30 127 N 14.781 0.264519 -1.55364 0
M  V30 128 C 16.058 1.01677 -1.67096 0
M  V30 129 C 16.438 2.03996 -0.543015 0
M  V30 130 O 15.786 2.23907 0.45585 0
M  V30 131 C 15.996 1.66596 -3.0667 0
M  V30 132 C 17.344 2.17442 -3.64697 0
M  V30 133 O 18.368 1.76568 -3.09358 0
M  V30 134 O 17.227 2.92439 -4.61673 0
M  V30 135 H 14.321 0.472161 -0.678965 0
M  V30 136 H 16.867 0.259703 -1.67701 0
M  V30 137 H 15.639 0.924962 -3.80211 0
M  V30 138 H 15.262 2.48968 -3.10001 0
M  V30 139 N 16.2591 1.48442 0.529413 0
M  V30 140 C 17.6701 1.5002 1.11134 0
M  V30 141 C 18.0211 0.27031 1.94329 0
M  V30 142 O 17.1461 -0.622507 2.07253 0
M  V30 143 C 17.7411 2.71834 2.02217 0
M  V30 144 C 16.3001 2.76283 2.55627 0
M  V30 145 C 15.4471 2.43542 1.326 0
M  V30 146 H 18.3981 1.5555 0.314641 0
M  V30 147 H 18.4191 2.50384 2.8651 0
M  V30 148 H 17.9311 3.61331 1.41639 0
M  V30 149 H 16.0321 1.90995 3.19924 0
M  V30 150 H 16.1451 3.77725 2.94721 0
M  V30 151 H 14.5091 1.94709 1.64196 0
M  V30 152 H 15.2921 3.3528 0.737734 0
M  V30 153 N 17.7372 -0.778329 1.37039 0
M  V30 154 C 19.1532 -1.07796 1.17695 0
M  V30 155 C 19.3532 -2.01498 0.00860115 0
M  V30 156 O 18.4092 -2.43901 -0.653352 0
M  V30 157 C 19.7222 -1.68178 2.49272 0
M  V30 158 C 21.2702 -1.80467 2.55735 0
M  V30 159 C 21.7452 -2.44263 3.87427 0
M  V30 160 N 23.2362 -2.51721 3.88833 0
M  V30 161 C 23.9712 -3.01919 4.87476 0
M  V30 162 N 23.4672 -3.5234 5.96513 0
M  V30 163 N 25.2602 -3.00733 4.74885 0
M  V30 164 H 17.4112 -0.156032 2.11826 0
M  V30 165 H 19.6742 -0.131844 0.938787 0
M  V30 166 H 19.3802 -1.06796 3.35093 0
M  V30 167 H 19.2542 -2.67554 2.65885 0
M  V30 168 H 21.6412 -2.40984 1.70325 0
M  V30 169 H 21.7222 -0.798656 2.43013 0
M  V30 170 H 21.3662 -1.84388 4.73248 0
M  V30 171 H 21.2962 -3.45458 3.9745 0
M  V30 172 H 23.7872 -2.1603 3.10063 0
M  V30 173 H 24.1002 -3.89027 6.67741 0
M  V30 174 H 22.4452 -3.50462 6.00168 0
M  V30 175 H 25.6362 -2.60638 3.88826 0
M  V30 176 H 25.8092 -3.39545 5.51918 0
M  V30 177 N 19.2153 -1.21501 -1.00376 0
M  V30 178 C 20.1783 -0.976927 -2.07337 0
M  V30 179 C 21.1783 0.0525322 -1.60714 0
M  V30 180 O 22.3683 -0.184869 -1.73216 0
M  V30 181 C 19.5003 -0.473423 -3.37597 0
M  V30 182 H 20.6933 -1.92587 -2.29892 0
M  V30 183 H 18.2463 -1.03217 -1.17371 0
M  V30 184 H 18.9813 0.480379 -3.20722 0
M  V30 185 H 18.7663 -1.216 -3.72768 0
M  V30 186 H 20.2563 -0.32675 -4.1632 0
M  V30 187 N 20.6934 1.19889 -1.02296 0
M  V30 188 C 21.6034 2.26571 -0.608508 0
M  V30 189 C 22.6194 1.70299 0.356964 0
M  V30 190 O 23.7954 2.00235 0.216326 0
M  V30 191 C 20.8604 3.46677 0.0402814 0
M  V30 192 C 19.9214 4.18153 -0.97194 0
M  V30 193 C 19.1544 5.32525 -0.354016 0
M  V30 194 O 19.3774 5.64112 0.844604 0
M  V30 195 O 18.3114 5.92242 -1.07391 0
M  V30 196 H 22.1374 2.64251 -1.49684 0
M  V30 197 H 19.7224 1.26629 -0.792809 0
M  V30 198 H 21.6044 4.19475 0.402324 0
M  V30 199 H 20.2794 3.10858 0.902707 0
M  V30 200 H 19.1864 3.47499 -1.38546 0
M  V30 201 H 20.5194 4.57927 -1.80454 0
M  V30 202 N 22.1715 0.800033 1.35784 0
M  V30 203 C 23.1015 0.220184 2.3246 0
M  V30 204 C 24.0825 -0.65073 1.57161 0
M  V30 205 O 25.2675 -0.582359 1.85263 0
M  V30 206 C 22.3975 -0.637353 3.41402 0
M  V30 207 C 21.3515 0.134531 4.27789 0
M  V30 208 C 20.6775 -0.844285 5.27992 0
M  V30 209 C 21.9775 1.32979 5.05088 0
M  V30 210 H 23.6715 1.02787 2.81203 0
M  V30 211 H 21.2175 0.495717 1.35199 0
M  V30 212 H 23.1705 -1.05302 4.08031 0
M  V30 213 H 21.8945 -1.47785 2.91251 0
M  V30 214 H 20.5535 0.531296 3.6273 0
M  V30 215 H 20.2015 -1.68011 4.74111 0
M  V30 216 H 19.9015 -0.332184 5.8666 0
M  V30 217 H 21.4255 -1.2583 5.97494 0
M  V30 218 H 22.8395 0.98934 5.64699 0
M  V30 219 H 21.2365 1.77593 5.7322 0
M  V30 220 H 22.3065 2.11978 4.36111 0
M  V30 221 N 23.6496 -1.47581 0.552962 0
M  V30 222 C 24.8956 -2.02782 0.0273648 0
M  V30 223 C 25.2286 -1.42687 -1.31734 0
M  V30 224 O 24.5036 -0.580897 -1.85623 0
M  V30 225 C 24.7866 -3.60031 -0.0702371 0
M  V30 226 C 24.6396 -4.30566 1.30126 0
M  V30 227 C 25.9586 -4.33028 -0.785771 0
M  V30 228 H 23.0776 -0.736912 0.0114185 0
M  V30 229 H 25.7196 -1.76056 0.714432 0
M  V30 230 H 23.8696 -3.82932 -0.655382 0
M  V30 231 H 25.5416 -4.19018 1.92929 0
M  V30 232 H 23.7846 -3.91086 1.87709 0
M  V30 233 H 24.4556 -5.39114 1.18573 0
M  V30 234 H 26.9316 -4.15095 -0.288982 0
M  V30 235 H 25.8076 -5.42695 -0.823013 0
M  V30 236 H 26.0686 -4.01945 -1.841 0
M  V30 237 N 25.1277 -0.289203 -1.54924 0
M  V30 238 C 26.0377 0.601863 -2.26748 0
M  V30 239 C 27.0537 1.15834 -1.2984 0
M  V30 240 O 28.2297 1.18564 -1.62802 0
M  V30 241 C 25.2947 1.76299 -2.98529 0
M  V30 242 C 24.3557 1.24178 -4.10948 0
M  V30 243 C 23.5887 2.34757 -4.79296 0
M  V30 244 O 23.8117 3.54411 -4.46933 0
M  V30 245 O 22.7457 2.02115 -5.66951 0
M  V30 246 H 26.5717 0.0195879 -3.03694 0
M  V30 247 H 24.1567 -0.0560868 -1.49295 0
M  V30 248 H 26.0387 2.43973 -3.43592 0
M  V30 249 H 24.7137 2.33209 -2.24488 0
M  V30 250 H 23.6207 0.531104 -3.70311 0
M  V30 251 H 24.9537 0.718252 -4.86931 0
M  V30 252 N 26.6058 1.57591 -0.0167156 0
M  V30 253 C 28.0218 1.55946 0.339557 0
M  V30 254 C 28.2218 1.02109 1.73713 0
M  V30 255 O 27.2778 0.662303 2.43659 0
M  V30 256 C 28.5908 3.00037 0.199499 0
M  V30 257 C 30.1388 3.11805 0.273193 0
M  V30 258 C 30.6138 4.57713 0.162068 0
M  V30 259 N 32.1048 4.6268 0.219444 0
M  V30 260 C 32.8398 5.73185 0.157054 0
M  V30 261 N 32.3358 6.92786 0.0442936 0
M  V30 262 N 34.1288 5.61707 0.21014 0
M  V30 263 H 26.2798 1.90921 -0.930758 0
M  V30 264 H 28.5428 0.877674 -0.358319 0
M  V30 265 H 28.2488 3.4333 -0.76273 0
M  V30 266 H 28.1228 3.64387 0.974786 0
M  V30 267 H 30.5098 2.68433 1.22587 0
M  V30 268 H 30.5908 2.50201 -0.532256 0
M  V30 269 H 30.2348 5.01763 -0.78714 0
M  V30 270 H 30.1648 5.17283 0.986222 0
M  V30 271 H 32.6558 3.76649 0.307246 0
M  V30 272 H 32.9688 7.728 0.00304069 0
M  V30 273 H 31.3138 6.94999 0.00968457 0
M  V30 274 H 34.5048 4.6716 0.296546 0
M  V30 275 H 34.6778 6.47807 0.158054 0
M  V30 276 N 28.0839 -0.256276 1.55502 0
M  V30 277 C 29.3299 -0.987079 1.77157 0
M  V30 278 C 29.6629 -1.85327 0.580315 0
M  V30 279 O 28.9379 -1.89874 -0.421686 0
M  V30 280 C 29.2209 -1.85553 3.08613 0
M  V30 281 C 29.0739 -1.01816 4.38125 0
M  V30 282 C 30.3929 -2.8397 3.36228 0
M  V30 283 H 27.5119 -0.357428 0.644526 0
M  V30 284 H 30.1539 -0.258239 1.88237 0
M  V30 285 H 28.3039 -2.47695 2.99298 0
M  V30 286 H 29.9759 -0.416159 4.59419 0
M  V30 287 H 28.2189 -0.322178 4.32602 0
M  V30 288 H 28.8899 -1.65939 5.26468 0
M  V30 289 H 31.3659 -2.31964 3.45445 0
M  V30 290 H 30.2419 -3.41864 4.29442 0
M  V30 291 H 30.5029 -3.59955 2.56681 0
M  V30 292 N 29.562 -1.4872 -0.521534 0
M  V30 293 C 30.525 -1.63379 -1.60748 0
M  V30 294 C 31.525 -0.50661 -1.52611 0
M  V30 295 O 32.715 -0.772601 -1.5613 0
M  V30 296 C 29.847 -1.61192 -3.00383 0
M  V30 297 H 31.04 -2.60217 -1.49087 0
M  V30 298 H 28.593 -1.37444 -0.744235 0
M  V30 299 H 29.328 -0.65863 -3.17541 0
M  V30 300 H 29.113 -2.43032 -3.07698 0
M  V30 301 H 30.603 -1.7466 -3.7932 0
M  V30 302 N 31.0401 0.771051 -1.3745 0
M  V30 303 C 32.0031 1.86598 -1.33093 0
M  V30 304 C 33.0031 1.59076 -0.234845 0
M  V30 305 O 34.1931 1.67145 -0.490732 0
M  V30 306 C 31.3251 3.23747 -1.06773 0
M  V30 307 H 32.5181 1.91873 -2.30488 0
M  V30 308 H 30.0711 0.970876 -1.2249 0
M  V30 309 H 30.8061 3.24148 -0.099129 0
M  V30 310 H 30.5911 3.45115 -1.86112 0
M  V30 311 H 32.0811 4.03824 -1.06377 0
M  V30 312 N 32.5182 1.22032 0.997298 0
M  V30 313 C 33.7672 1.03637 1.73038 0
M  V30 314 C 34.0802 -0.429475 1.90827 0
M  V30 315 O 35.2862 -0.732995 2.61418 0
M  V30 316 C 33.7422 1.80582 3.11317 0
M  V30 317 C 33.3502 3.31387 3.01474 0
M  V30 318 C 35.0942 1.70621 3.88701 0
M  V30 319 C 33.0012 4.00791 4.3488 0
M  V30 320 H 31.9312 0.384179 0.648785 0
M  V30 321 H 34.5822 1.4584 1.11368 0
M  V30 322 H 32.9642 1.31175 3.73643 0
M  V30 323 H 34.1382 3.88155 2.4834 0
M  V30 324 H 32.4532 3.41976 2.37575 0
M  V30 325 H 35.0502 2.19799 4.87434 0
M  V30 326 H 35.3932 0.665823 4.10941 0
M  V30 327 H 35.9262 2.17547 3.33044 0
M  V30 328 H 32.6652 5.05064 4.1784 0
M  V30 329 H 32.1852 3.48811 4.87945 0
M  V30 330 H 33.8642 4.06139 5.03647 0
M  V30 331 N 33.9963 -1.19345 1.0293 0
M  V30 332 C 35.2733 -1.84811 0.640642 0
M  V30 333 C 35.6533 -1.91855 -0.88062 0
M  V30 334 O 35.0013 -1.43587 -1.7775 0
M  V30 335 C 35.2113 -3.23755 1.30321 0
M  V30 336 C 36.5593 -3.99912 1.42673 0
M  V30 337 O 37.5833 -3.33155 1.26041 0
M  V30 338 O 36.4423 -5.19494 1.6967 0
M  V30 339 H 33.5363 -0.796443 0.222726 0
M  V30 340 H 36.0823 -1.26831 1.12748 0
M  V30 341 H 34.8543 -3.13466 2.34211 0
M  V30 342 H 34.4773 -3.89381 0.804261 0
M  V30 343 N 35.4744 -0.807222 -1.35358 0
M  V30 344 C 36.7204 -0.388463 -1.99045 0
M  V30 345 C 37.0534 1.04184 -1.63888 0
M  V30 346 O 36.3284 1.72292 -0.902535 0
M  V30 347 C 36.6114 -0.572783 -3.55515 0
M  V30 348 C 36.4644 -2.04807 -4.00468 0
M  V30 349 C 37.7834 0.00114064 -4.401 0
M  V30 350 H 34.9024 -0.142619 -0.723069 0
M  V30 351 H 37.5444 -1.01687 -1.60498 0
M  V30 352 H 35.6944 -0.0378425 -3.88482 0
M  V30 353 H 37.3664 -2.64544 -3.77908 0
M  V30 354 H 35.6094 -2.54427 -3.51353 0
M  V30 355 H 36.2804 -2.12792 -5.09337 0
M  V30 356 H 38.7564 -0.455716 -4.13597 0
M  V30 357 H 37.6324 -0.157737 -5.48673 0
M  V30 358 H 37.8934 1.09488 -4.28328 0
M  V30 359 N 36.9525 1.47285 -0.560781 0
M  V30 360 C 38.1805 2.06855 -0.0430262 0
M  V30 361 C 38.5955 1.41291 1.25229 0
M  V30 362 O 37.9525 0.510648 1.7521 0
M  V30 363 C 38.0035 3.61178 0.152518 0
M  V30 364 O 37.7245 4.24285 -1.0915 0
M  V30 365 C 39.2255 4.37624 0.707145 0
M  V30 366 H 36.4455 0.669319 -0.0474652 0
M  V30 367 H 38.9895 1.89237 -0.77521 0
M  V30 368 H 37.1445 3.78298 0.834843 0
M  V30 369 H 37.5585 5.16868 -0.891482 0
M  V30 370 H 39.0325 5.46271 0.793244 0
M  V30 371 H 39.5095 4.04152 1.71923 0
M  V30 372 H 40.1155 4.25257 0.0604027 0
M  V30 373 N 38.4306 0.297415 1.54768 0
M  V30 374 C 39.3806 -0.595275 2.20092 0
M  V30 375 C 40.3646 -1.10163 1.17273 0
M  V30 376 O 41.5566 -1.043 1.43006 0
M  V30 377 C 38.6856 -1.7684 2.94249 0
M  V30 378 C 37.7716 -1.27818 4.0438 0
M  V30 379 N 38.1626 -0.505695 5.03266 0
M  V30 380 C 36.4606 -1.55923 4.17857 0
M  V30 381 C 37.1616 -0.245094 5.81183 0
M  V30 382 N 36.1376 -0.823881 5.3732 0
M  V30 383 H 39.9396 0.00250837 2.939 0
M  V30 384 H 37.4536 0.102007 1.62079 0
M  V30 385 H 39.4506 -2.41944 3.39513 0
M  V30 386 H 38.1106 -2.36992 2.21957 0
M  V30 387 H 39.1216 -0.150928 5.1768 0
M  V30 388 H 35.7986 -2.16849 3.56767 0
M  V30 389 H 37.1886 0.375084 6.70852 0
M  V30 390 N 39.9087 -1.5758 0.0250728 0
M  V30 391 C 40.8387 -2.13007 -0.956575 0
M  V30 392 C 41.8197 -1.0452 -1.342 0
M  V30 393 O 43.0047 -1.32332 -1.42133 0
M  V30 394 C 40.1347 -2.65386 -2.24026 0
M  V30 395 C 39.0887 -3.78623 -1.99571 0
M  V30 396 C 38.4147 -4.17414 -3.3417 0
M  V30 397 C 39.7147 -5.04867 -1.33814 0
M  V30 398 H 41.4087 -2.9528 -0.494991 0
M  V30 399 H 38.9547 -1.42042 -0.236651 0
M  V30 400 H 40.9077 -3.02794 -2.93076 0
M  V30 401 H 39.6317 -1.80268 -2.72343 0
M  V30 402 H 38.2907 -3.41646 -1.32941 0
M  V30 403 H 37.9387 -3.29284 -3.80238 0
M  V30 404 H 37.6387 -4.93719 -3.18615 0
M  V30 405 H 39.1627 -4.57402 -4.04495 0
M  V30 406 H 40.5767 -5.39888 -1.92857 0
M  V30 407 H 38.9737 -5.86144 -1.28669 0
M  V30 408 H 40.0437 -4.83904 -0.310561 0
M  V30 409 N 41.3868 0.248026 -1.55636 0
M  V30 410 C 42.2968 1.32859 -1.93354 0
M  V30 411 C 43.3128 1.52719 -0.833838 0
M  V30 412 O 44.4888 1.66363 -1.13513 0
M  V30 413 C 41.5538 2.66337 -2.21958 0
M  V30 414 C 40.6148 2.55008 -3.45354 0
M  V30 415 C 39.8478 3.82121 -3.72584 0
M  V30 416 O 40.0708 4.83951 -3.01907 0
M  V30 417 O 39.0048 3.80822 -4.6611 0
M  V30 418 H 42.8308 1.03862 -2.85388 0
M  V30 419 H 40.4158 0.448686 -1.42503 0
M  V30 420 H 42.2978 3.45216 -2.4167 0
M  V30 421 H 40.9728 2.95068 -1.33103 0
M  V30 422 H 39.8798 1.7442 -3.30951 0
M  V30 423 H 41.2128 2.31222 -4.34508 0
M  V30 424 N 42.8649 1.48995 0.513639 0
M  V30 425 C 43.7749 1.67443 1.64317 0
M  V30 426 C 44.7909 0.556947 1.64846 0
M  V30 427 O 45.9669 0.830082 1.83498 0
M  V30 428 C 43.0319 1.72515 3.00732 0
M  V30 429 C 42.0929 2.96009 3.1093 0
M  V30 430 C 41.3259 3.00829 4.40837 0
M  V30 431 O 41.5489 2.13594 5.28898 0
M  V30 432 O 40.4829 3.93168 4.55744 0
M  V30 433 H 44.3089 2.63106 1.51687 0
M  V30 434 H 41.8939 1.32588 0.688543 0
M  V30 435 H 43.7759 1.78277 3.81831 0
M  V30 436 H 42.4509 0.800278 3.13651 0
M  V30 437 H 41.3579 2.9577 2.29065 0
M  V30 438 H 42.6909 3.87934 3.02933 0
M  V30 439 N 44.343 -0.763751 1.37857 0
M  V30 440 C 45.306 -1.85889 1.34081 0
M  V30 441 C 46.306 -1.58949 0.243277 0
M  V30 442 O 47.496 -1.66882 0.499589 0
M  V30 443 C 44.628 -3.23176 1.08489 0
M  V30 444 H 45.821 -1.90648 2.31502 0
M  V30 445 H 43.374 -0.964367 1.23003 0
M  V30 446 H 44.109 -3.24091 0.116318 0
M  V30 447 H 43.894 -3.44124 1.8794 0
M  V30 448 H 45.384 -4.03254 1.08517 0
M  V30 449 N 45.8211 -1.22559 -0.990812 0
M  V30 450 C 47.0981 -0.959875 -1.70428 0
M  V30 451 C 47.4781 0.524455 -2.04481 0
M  V30 452 O 46.8261 1.49302 -1.72977 0
M  V30 453 C 47.0361 -1.85955 -2.95333 0
M  V30 454 C 48.3841 -2.11687 -3.68068 0
M  V30 455 O 49.4081 -1.8342 -3.05345 0
M  V30 456 O 48.2671 -2.59572 -4.80921 0
M  V30 457 H 45.3611 -0.361154 -0.743974 0
M  V30 458 H 47.9071 -1.33554 -1.04697 0
M  V30 459 H 46.6791 -2.86346 -2.66687 0
M  V30 460 H 46.3021 -1.4856 -3.68803 0
M  V30 461 N 47.2992 1.18797 -1.03562 0
M  V30 462 C 48.5472 1.88278 -0.734569 0
M  V30 463 C 48.8682 1.8043 0.739586 0
M  V30 464 O 48.1382 1.21925 1.53333 0
M  V30 465 H 46.7182 0.696991 -0.268725 0
M  V30 466 H 49.3802 1.44192 -1.31129 0
M  V30 467 H 48.4762 2.94443 -1.03489 0
M  V30 468 N 48.7773 0.814389 1.34928 0
M  V30 469 C 50.0253 0.397636 1.9815 0
M  V30 470 C 50.3463 -1.04069 1.64908 0
M  V30 471 O 49.6163 -1.72121 0.93548 0
M  V30 472 H 48.1963 0.144043 0.732981 0
M  V30 473 H 50.8583 1.04195 1.6471 0
M  V30 474 H 49.9543 0.509688 3.0791 0
M  V30 475 N 50.2554 -1.46986 0.568584 0
M  V30 476 C 51.6664 -1.86188 0.138219 0
M  V30 477 C 52.0174 -1.47388 -1.29504 0
M  V30 478 O 51.1424 -0.88219 -1.97602 0
M  V30 479 C 51.7374 -3.3792 0.244065 0
M  V30 480 C 50.2964 -3.76171 -0.131335 0
M  V30 481 C 49.4434 -2.71027 0.586465 0
M  V30 482 H 52.3944 -1.38342 0.777645 0
M  V30 483 H 52.4154 -3.76729 -0.534351 0
M  V30 484 H 51.9274 -3.66128 1.28731 0
M  V30 485 H 50.0284 -3.5358 -1.17526 0
M  V30 486 H 50.1414 -4.78523 0.235146 0
M  V30 487 H 48.5054 -2.54684 0.0282722 0
M  V30 488 H 49.2884 -3.02077 1.63109 0
M  V30 489 N 51.7335 -0.305618 -1.54608 0
M  V30 490 C 52.6435 0.57778 -2.27374 0
M  V30 491 C 53.6595 1.14451 -1.31061 0
M  V30 492 O 54.8355 1.16831 -1.6405 0
M  V30 493 C 51.9005 1.73123 -3.00382 0
M  V30 494 C 50.9615 1.19812 -4.12242 0
M  V30 495 C 50.1945 2.2966 -4.81759 0
M  V30 496 O 50.4175 3.49651 -4.50666 0
M  V30 497 O 49.3515 1.96091 -5.69062 0
M  V30 498 H 53.1775 -0.012624 -3.03697 0
M  V30 499 H 50.7625 -0.0719184 -1.49227 0
M  V30 500 H 52.6445 2.40315 -3.4616 0
M  V30 501 H 51.3195 2.30815 -2.26949 0
M  V30 502 H 50.2265 0.491798 -3.70853 0
M  V30 503 H 51.5595 0.666566 -4.87666 0
M  V30 504 N 53.2116 1.57565 -0.0334293 0
M  V30 505 C 54.6226 1.79746 0.504798 0
M  V30 506 C 54.9736 0.944091 1.71992 0
M  V30 507 O 54.0986 0.155694 2.15839 0
M  V30 508 C 54.6936 3.25997 0.922567 0
M  V30 509 C 53.2526 3.49159 1.40588 0
M  V30 510 C 52.3996 2.74785 0.372633 0
M  V30 511 H 55.3506 1.56565 -0.259436 0
M  V30 512 H 55.3716 3.35945 1.78666 0
M  V30 513 H 54.8836 3.88081 0.0379825 0
M  V30 514 H 52.9846 2.92332 2.31025 0
M  V30 515 H 53.0976 4.57873 1.41028 0
M  V30 516 H 51.4616 2.40391 0.841672 0
M  V30 517 H 52.2446 3.39587 -0.503559 0
M  V30 518 N 54.6897 -0.239769 1.55765 0
M  V30 519 C 55.9177 -0.98417 1.81994 0
M  V30 520 C 56.3327 -1.7867 0.610124 0
M  V30 521 O 55.6897 -1.77571 -0.421271 0
M  V30 522 C 55.7407 -1.91635 3.06526 0
M  V30 523 O 55.4617 -1.14629 4.22838 0
M  V30 524 C 56.9627 -2.77616 3.45607 0
M  V30 525 H 54.1827 -0.28928 0.605441 0
M  V30 526 H 56.7267 -0.260499 2.02834 0
M  V30 527 H 54.8817 -2.5942 2.87715 0
M  V30 528 H 55.2957 -1.77745 4.93464 0
M  V30 529 H 56.7697 -3.38759 4.35828 0
M  V30 530 H 57.2467 -3.4909 2.6652 0
M  V30 531 H 57.8527 -2.15271 3.66795 0
M  V30 532 N 56.1678 -1.49265 -0.50573 0
M  V30 533 C 57.5838 -1.35923 -0.836486 0
M  V30 534 C 57.7838 -0.388704 -1.97715 0
M  V30 535 O 56.8398 0.181336 -2.51848 0
M  V30 536 C 58.1528 -2.76531 -1.18115 0
M  V30 537 C 59.7008 -2.85197 -1.28964 0
M  V30 538 C 60.1758 -4.26561 -1.66761 0
M  V30 539 N 61.6668 -4.2935 -1.73819 0
M  V30 540 C 62.4018 -5.35693 -2.045 0
M  V30 541 N 61.8978 -6.52287 -2.33438 0
M  V30 542 N 63.6908 -5.23105 -2.05711 0
M  V30 543 H 55.8418 -2.10965 0.246519 0
M  V30 544 H 58.1048 -0.9468 0.0476887 0
M  V30 545 H 57.8108 -3.49226 -0.416398 0
M  V30 546 H 57.6848 -3.11599 -2.1257 0
M  V30 547 H 60.0718 -2.12742 -2.04511 0
M  V30 548 H 60.1528 -2.53718 -0.325704 0
M  V30 549 H 59.7968 -4.99541 -0.917656 0
M  V30 550 H 59.7268 -4.55502 -2.64246 0
M  V30 551 H 62.2178 -3.4526 -1.53635 0
M  V30 552 H 62.5308 -7.29158 -2.56024 0
M  V30 553 H 60.8758 -6.55521 -2.30905 0
M  V30 554 H 64.0668 -4.31026 -1.82577 0
M  V30 555 H 64.2398 -6.06078 -2.29289 0
M  V30 556 N 57.6459 0.756429 -1.3826 0
M  V30 557 C 58.5939 1.89149 -1.35372 0
M  V30 558 C 59.5879 1.67691 -0.24004 0
M  V30 559 O 60.7939 1.75294 -0.408919 0
M  V30 560 H 57.1689 0.622271 -0.422236 0
M  V30 561 H 59.1399 1.88701 -2.31159 0
M  V30 562 C 57.8889 3.26599 -1.19284 0
M  V30 563 H 57.2119 3.43695 -2.0424 0
M  V30 564 H 58.6519 4.06274 -1.21316 0
M  V30 565 C 57.1109 3.3675 0.100454 0
M  V30 566 O 57.6409 3.86951 1.07851 0
M  V30 567 N 55.8469 2.90179 0.15633 0
M  V30 568 H 55.3939 2.49517 -0.640253 0
M  V30 569 H 55.3519 2.97352 1.02123 0
M  V30 570 N 59.124 1.23083 0.984299 0
M  V30 571 C 60.372 1.05848 1.72165 0
M  V30 572 C 60.693 -0.406049 1.90726 0
M  V30 573 O 59.963 -1.29139 1.47309 0
M  V30 574 H 58.543 0.388685 0.637913 0
M  V30 575 H 61.205 1.54736 1.18503 0
M  V30 576 H 60.301 1.54327 2.71274 0
M  V30 577 N 60.6021 -1.18246 1.0419 0
M  V30 578 C 61.8481 -1.88536 0.747122 0
M  V30 579 C 62.1811 -1.80223 -0.723409 0
M  V30 580 O 61.4561 -1.20337 -1.52804 0
M  V30 581 C 61.7391 -3.38968 1.21544 0
M  V30 582 C 61.5921 -3.56084 2.74816 0
M  V30 583 C 62.9111 -4.32648 0.806482 0
M  V30 584 H 60.0301 -0.684619 0.272883 0
M  V30 585 H 62.6721 -1.39113 1.29413 0
M  V30 586 H 60.8221 -3.8119 0.750081 0
M  V30 587 H 62.4941 -3.22946 3.29399 0
M  V30 588 H 60.7371 -2.98699 3.14582 0
M  V30 589 H 61.4081 -4.61639 3.02644 0
M  V30 590 H 63.8841 -3.98211 1.20695 0
M  V30 591 H 62.7601 -5.36462 1.1619 0
M  V30 592 H 63.0211 -4.41146 -0.29029 0
M  V30 593 N 62.0802 -0.821533 -1.34494 0
M  V30 594 C 63.3572 -0.33159 -1.92769 0
M  V30 595 C 63.7372 1.18088 -1.74981 0
M  V30 596 O 63.0852 1.98733 -1.12772 0
M  V30 597 C 63.2952 -0.759398 -3.40638 0
M  V30 598 C 64.6432 -0.757433 -4.1779 0
M  V30 599 O 65.6672 -0.70189 -3.49216 0
M  V30 600 O 64.5262 -0.829361 -5.4017 0
M  V30 601 H 61.6202 -0.0902502 -0.822061 0
M  V30 602 H 64.1662 -0.906231 -1.43477 0
M  V30 603 H 62.9382 -1.8012 -3.47379 0
M  V30 604 H 62.5612 -0.160378 -3.97276 0
M  V30 605 N 63.5583 1.46682 -0.576371 0
M  V30 606 C 64.9693 1.86112 -0.148091 0
M  V30 607 C 65.3203 1.48073 1.2872 0
M  V30 608 O 64.4453 0.892656 1.97131 0
M  V30 609 C 65.0403 3.37786 -0.261982 0
M  V30 610 C 63.5993 3.76235 0.111384 0
M  V30 611 C 62.7463 2.70713 -0.60083 0
M  V30 612 H 65.6973 1.37927 -0.78497 0
M  V30 613 H 65.7183 3.77007 0.514364 0
M  V30 614 H 65.2303 3.6544 -1.30671 0
M  V30 615 H 63.3313 3.54198 1.15649 0
M  V30 616 H 63.4443 4.78391 -0.26052 0
M  V30 617 H 61.8083 2.54666 -0.0417783 0
M  V30 618 H 62.5913 3.01208 -1.64708 0
M  V30 619 N 65.0364 0.313813 1.54444 0
M  V30 620 C 66.4474 -0.176243 1.85866 0
M  V30 621 C 66.7984 -1.52405 1.23561 0
M  V30 622 O 65.9234 -2.09605 0.538016 0
M  V30 623 C 66.5184 -0.32657 3.37222 0
M  V30 624 C 65.0774 -0.760846 3.6863 0
M  V30 625 C 64.2244 0.123247 2.77026 0
M  V30 626 H 67.1754 0.534418 1.49431 0
M  V30 627 H 67.1964 -1.15908 3.62416 0
M  V30 628 H 66.7084 0.654531 3.82541 0
M  V30 629 H 64.8094 -1.75204 3.28838 0
M  V30 630 H 64.9224 -0.571353 4.75681 0
M  V30 631 H 63.2864 -0.399597 2.51546 0
M  V30 632 H 64.0694 1.10094 3.25168 0
M  V30 633 N 66.5145 -1.57545 0.0417849 0
M  V30 634 C 67.9255 -1.80011 -0.495259 0
M  V30 635 C 68.2765 -0.953199 -1.71489 0
M  V30 636 O 67.4015 -0.167138 -2.15754 0
M  V30 637 C 67.9965 -3.26482 -0.905265 0
M  V30 638 C 66.5555 -3.499 -1.38734 0
M  V30 639 C 65.7025 -2.74979 -0.358056 0
M  V30 640 H 68.6535 -1.56425 0.267736 0
M  V30 641 H 68.6745 -3.36887 -1.76882 0
M  V30 642 H 68.1865 -3.88096 -0.017401 0
M  V30 643 H 66.2875 -2.93553 -2.29471 0
M  V30 644 H 66.4005 -4.58615 -1.38598 0
M  V30 645 H 64.7645 -2.40834 -0.828912 0
M  V30 646 H 65.5475 -3.39315 0.521561 0
M  V30 647 N 67.9926 0.231505 -1.5589 0
M  V30 648 C 69.4086 0.580748 -1.48659 0
M  V30 649 C 69.6086 1.87617 -0.73498 0
M  V30 650 O 68.6646 2.51046 -0.270586 0
M  V30 651 C 69.9776 0.669202 -2.93159 0
M  V30 652 C 71.5256 0.760499 -3.03621 0
M  V30 653 C 72.0006 0.880383 -4.49459 0
M  V30 654 N 73.4916 0.944861 -4.53461 0
M  V30 655 C 74.2266 1.05716 -5.63571 0
M  V30 656 N 73.7226 1.13403 -6.83456 0
M  V30 657 N 75.5156 1.09152 -5.514 0
M  V30 658 H 67.6666 -0.618695 -2.03189 0
M  V30 659 H 69.9296 -0.215728 -0.923128 0
M  V30 660 H 69.6356 -0.212904 -3.51055 0
M  V30 661 H 69.5096 1.5361 -3.44505 0
M  V30 662 H 71.8966 1.63305 -2.45796 0
M  V30 663 H 71.9776 -0.131864 -2.5546 0
M  V30 664 H 71.6216 0.0123284 -5.07899 0
M  V30 665 H 71.5516 1.78802 -4.95316 0
M  V30 666 H 74.0426 0.896176 -3.6712 0
M  V30 667 H 74.3556 1.21921 -7.63122 0
M  V30 668 H 72.7006 1.10333 -6.86186 0
M  V30 669 H 75.8916 1.02805 -4.56671 0
M  V30 670 H 76.0646 1.17558 -6.37247 0
M  V30 671 N 69.4707 1.49531 0.497807 0
M  V30 672 C 70.4337 1.65916 1.58128 0
M  V30 673 C 71.4337 0.530825 1.51786 0
M  V30 674 O 72.6237 0.797342 1.54881 0
M  V30 675 C 69.7557 1.65951 2.9778 0
M  V30 676 H 70.9487 2.62556 1.44929 0
M  V30 677 H 68.5017 1.38611 0.722275 0
M  V30 678 H 69.2367 0.709065 3.16453 0
M  V30 679 H 69.0217 2.47897 3.03792 0
M  V30 680 H 70.5117 1.80673 3.76493 0
M  V30 681 N 70.9488 -0.749086 1.3866 0
M  V30 682 C 72.3648 -1.05276 1.19955 0
M  V30 683 C 72.5648 -2.01435 0.05134 0
M  V30 684 O 71.6208 -2.45232 -0.60147 0
M  V30 685 C 72.9338 -1.62853 2.52783 0
M  V30 686 C 74.4818 -1.75002 2.59506 0
M  V30 687 C 74.9568 -2.35991 3.92521 0
M  V30 688 N 76.4478 -2.43416 3.94085 0
M  V30 689 C 77.1828 -2.91511 4.9377 0
M  V30 690 N 76.6788 -3.39608 6.03853 0
M  V30 691 N 78.4718 -2.90592 4.81157 0
M  V30 692 H 70.6228 -0.111066 2.12109 0
M  V30 693 H 72.8858 -0.111901 0.941373 0
M  V30 694 H 72.5918 -0.99664 3.37283 0
M  V30 695 H 72.4658 -2.61854 2.715 0
M  V30 696 H 74.8528 -2.37317 1.75398 0
M  V30 697 H 74.9338 -0.74693 2.44652 0
M  V30 698 H 74.5778 -1.74308 4.77053 0
M  V30 699 H 74.5078 -3.3695 4.04688 0
M  V30 700 H 76.9988 -2.09405 3.14576 0
M  V30 701 H 77.3118 -3.74775 6.75843 0
M  V30 702 H 75.6568 -3.37653 6.07466 0
M  V30 703 H 78.8478 -2.52332 3.94267 0
M  V30 704 H 79.0208 -3.27762 5.58996 0
M  V30 705 N 72.4269 -1.23603 -0.977757 0
M  V30 706 C 73.3899 -1.02069 -2.05218 0
M  V30 707 C 74.3899 0.0184305 -1.60789 0
M  V30 708 O 75.5799 -0.221569 -1.72785 0
M  V30 709 C 72.7119 -0.544926 -3.36517 0
M  V30 710 H 73.9049 -1.9742 -2.25755 0
M  V30 711 H 71.4579 -1.05684 -1.15155 0
M  V30 712 H 72.1929 0.412241 -3.21669 0
M  V30 713 H 71.9779 -1.2948 -3.70105 0
M  V30 714 H 73.4679 -0.414985 -4.15533 0
M  V30 715 N 73.905 1.17692 -1.04816 0
M  V30 716 C 74.868 2.19787 -0.650117 0
M  V30 717 C 75.868 1.58044 0.296427 0
M  V30 718 O 77.058 1.74012 0.0808097 0
M  V30 719 C 74.19 3.40869 0.0456987 0
M  V30 720 H 75.383 2.56516 -1.5537 0
M  V30 721 H 72.936 1.31708 -0.841594 0
M  V30 722 H 73.671 3.09681 0.962726 0
M  V30 723 H 73.456 3.86928 -0.634727 0
M  V30 724 H 74.946 4.16445 0.310432 0
M  V30 725 N 75.3831 0.828654 1.34056 0
M  V30 726 C 76.6081 0.431637 2.02859 0
M  V30 727 C 77.0331 -0.956339 1.61975 0
M  V30 728 O 76.3911 -1.62338 0.807228 0
M  V30 729 C 76.4391 0.548323 3.56407 0
M  V30 730 O 75.5431 -0.429556 4.10157 0
M  V30 731 H 74.8841 0.176886 0.640006 0
M  V30 732 H 77.4141 1.12066 1.71179 0
M  V30 733 H 77.4241 0.426196 4.05768 0
M  V30 734 H 76.0991 1.5606 3.8551 0
M  V30 735 H 74.6761 -0.265836 3.71951 0
M  V30 736 N 76.8612 -1.46375 0.584142 0
M  V30 737 C 78.1072 -2.02678 0.0703716 0
M  V30 738 C 78.4402 -1.4545 -1.28678 0
M  V30 739 O 77.7152 -0.62014 -1.84349 0
M  V30 740 C 77.9982 -3.60099 0.00614674 0
M  V30 741 C 77.8512 -4.27709 1.3923 0
M  V30 742 C 79.1702 -4.34598 -0.693742 0
M  V30 743 H 76.2892 -0.736504 0.027047 0
M  V30 744 H 78.9312 -1.74501 0.751615 0
M  V30 745 H 77.0812 -3.84236 -0.574009 0
M  V30 746 H 78.7532 -4.14832 2.01773 0
M  V30 747 H 76.9962 -3.87016 1.95962 0
M  V30 748 H 77.6672 -5.36478 1.29982 0
M  V30 749 H 80.1432 -4.15615 -0.200869 0
M  V30 750 H 79.0192 -5.44318 -0.707714 0
M  V30 751 H 79.2802 -4.05759 -1.75533 0
M  V30 752 N 78.3393 -0.321999 -1.54275 0
M  V30 753 C 79.5883 0.281931 -1.9972 0
M  V30 754 C 79.9013 1.53369 -1.21397 0
M  V30 755 O 81.1073 2.21352 -1.57211 0
M  V30 756 C 79.5633 0.5529 -3.55628 0
M  V30 757 C 79.1713 -0.681721 -4.42783 0
M  V30 758 C 80.9153 1.11687 -4.09544 0
M  V30 759 C 78.8223 -0.382742 -5.9016 0
M  V30 760 H 77.7523 0.109124 -0.746062 0
M  V30 761 H 80.4033 -0.43398 -1.78294 0
M  V30 762 H 78.7853 1.32896 -3.73035 0
M  V30 763 H 79.9593 -1.45723 -4.37151 0
M  V30 764 H 78.2743 -1.1658 -3.99748 0
M  V30 765 H 80.8713 1.35515 -5.17242 0
M  V30 766 H 81.2143 2.06575 -3.61431 0
M  V30 767 H 81.7473 0.402032 -3.95763 0
M  V30 768 H 78.4863 -1.30076 -6.42464 0
M  V30 769 H 78.0063 0.355094 -5.98748 0
M  V30 770 H 79.6853 0.00800157 -6.47 0
M  V30 771 N 79.8174 1.5752 -0.0501392 0
M  V30 772 C 81.2284 1.80271 0.485705 0
M  V30 773 C 81.5794 0.96228 1.70981 0
M  V30 774 O 80.7044 0.178578 2.15662 0
M  V30 775 C 81.2994 3.26957 0.887938 0
M  V30 776 C 79.8584 3.5063 1.36877 0
M  V30 777 C 79.0054 2.75165 0.343468 0
M  V30 778 H 81.9564 1.56281 -0.276028 0
M  V30 779 H 81.9774 3.37821 1.75093 0
M  V30 780 H 81.4894 3.881 -0.0031809 0
M  V30 781 H 79.5904 2.94766 2.27911 0
M  V30 782 H 79.7034 4.59343 1.36164 0
M  V30 783 H 78.0674 2.4127 0.816128 0
M  V30 784 H 78.8504 3.39034 -0.539548 0
M  V30 785 N 81.2955 -0.223234 1.56011 0
M  V30 786 C 82.5435 -0.946003 1.78592 0
M  V30 787 C 82.8645 -1.84936 0.618349 0
M  V30 788 O 82.1345 -1.92473 -0.364833 0
M  V30 789 H 80.7145 -0.352298 0.658707 0
M  V30 790 H 83.3765 -0.235494 1.93472 0
M  V30 791 H 82.4725 -1.55381 2.70672 0
M  V30 792 N 82.7736 -1.49793 -0.48987 0
M  V30 793 C 83.9986 -1.63836 -1.27172 0
M  V30 794 C 84.4236 -0.31402 -1.8546 0
M  V30 795 O 83.7816 0.719803 -1.66399 0
M  V30 796 C 83.8296 -2.71797 -2.36978 0
M  V30 797 O 82.9336 -2.31744 -3.41128 0
M  V30 798 H 82.2746 -0.547997 -0.37496 0
M  V30 799 H 84.8046 -1.96053 -0.585191 0
M  V30 800 H 84.8146 -2.94305 -2.82575 0
M  V30 801 H 83.4896 -3.67923 -1.93921 0
M  V30 802 H 82.0666 -2.1961 -3.01373 0
M  V30 803 N 84.2517 0.741722 -1.39055 0
M  V30 804 C 85.4797 1.53098 -1.39171 0
M  V30 805 C 85.8947 1.88794 0.0155099 0
M  V30 806 O 85.2517 1.53626 0.985159 0
M  V30 807 C 85.3027 2.82274 -2.2584 0
M  V30 808 O 85.0237 2.48097 -3.61081 0
M  V30 809 C 86.5247 3.76343 -2.34266 0
M  V30 810 H 83.7447 0.473335 -0.4756 0
M  V30 811 H 86.2887 0.917045 -1.82785 0
M  V30 812 H 84.4437 3.40015 -1.85656 0
M  V30 813 H 84.8577 3.31029 -4.06842 0
M  V30 814 H 86.3317 4.63898 -2.9917 0
M  V30 815 H 86.8087 4.17619 -1.35982 0
M  V30 816 H 87.4147 3.24523 -2.74891 0
M  V30 817 N 85.7298 1.2412 0.971189 0
M  V30 818 C 86.9548 1.10667 1.75407 0
M  V30 819 C 87.3798 -0.337048 1.85056 0
M  V30 820 O 86.7378 -1.24396 1.31892 0
M  V30 821 C 86.7858 1.74726 3.15441 0
M  V30 822 O 85.8898 1.01566 3.99697 0
M  V30 823 H 85.2308 0.387341 0.539317 0
M  V30 824 H 87.7608 1.64358 1.2185 0
M  V30 825 H 87.7708 1.80341 3.6598 0
M  V30 826 H 86.4458 2.79773 3.07734 0
M  V30 827 H 85.0228 1.03713 3.58187 0
M  V30 828 N 87.2079 -1.17134 1.05439 0
M  V30 829 C 88.6239 -1.39454 0.776201 0
M  V30 830 C 88.8239 -1.91454 -0.628307 0
M  V30 831 O 87.8799 -2.10777 -1.39031 0
M  V30 832 C 89.1929 -2.38305 1.83388 0
M  V30 833 C 90.7409 -2.52006 1.85639 0
M  V30 834 C 91.2159 -3.54133 2.90437 0
M  V30 835 N 92.7069 -3.61653 2.89415 0
M  V30 836 C 93.4419 -4.4044 3.67152 0
M  V30 837 N 92.9379 -5.22721 4.54681 0
M  V30 838 N 94.7309 -4.35337 3.55581 0
M  V30 839 H 86.8819 -0.817134 1.96053 0
M  V30 840 H 89.1449 -0.421626 0.849079 0
M  V30 841 H 88.8509 -2.07173 2.84204 0
M  V30 842 H 88.7249 -3.37841 1.67761 0
M  V30 843 H 91.1119 -2.82447 0.85486 0
M  V30 844 H 91.1929 -1.52537 2.05344 0
M  V30 845 H 90.8369 -3.24431 3.90777 0
M  V30 846 H 90.7669 -4.53313 2.67983 0
M  V30 847 H 93.2579 -3.02909 2.25952 0
M  V30 848 H 93.5709 -5.80027 5.10674 0
M  V30 849 H 91.9159 -5.22093 4.58741 0
M  V30 850 H 95.1069 -3.70112 2.86592 0
M  V30 851 H 95.2799 -4.96494 4.1641 0
M  V30 852 N 88.686 -0.835752 -1.33615 0
M  V30 853 C 89.616 -0.281739 -2.31794 0
M  V30 854 C 90.597 0.608833 -1.58831 0
M  V30 855 O 91.782 0.533035 -1.86741 0
M  V30 856 C 88.912 0.546612 -3.42971 0
M  V30 857 C 87.866 -0.247904 -4.27281 0
M  V30 858 C 87.192 0.704001 -5.30045 0
M  V30 859 C 88.492 -1.46324 -5.01385 0
M  V30 860 H 90.186 -1.10206 -2.78379 0
M  V30 861 H 87.732 -0.531388 -1.33837 0
M  V30 862 H 89.685 0.944467 -4.1068 0
M  V30 863 H 88.409 1.40011 -2.95067 0
M  V30 864 H 87.068 -0.627281 -3.61194 0
M  V30 865 H 86.716 1.55381 -4.78399 0
M  V30 866 H 86.416 0.176524 -5.87335 0
M  V30 867 H 87.94 1.09944 -6.0062 0
M  V30 868 H 89.354 -1.13871 -5.61877 0
M  V30 869 H 87.751 -1.92728 -5.6831 0
M  V30 870 H 88.821 -2.23467 -4.30338 0
M  V30 871 N 90.1641 1.46063 -0.591896 0
M  V30 872 C 91.0941 2.33172 0.123673 0
M  V30 873 C 92.0751 1.45897 0.87453 0
M  V30 874 O 93.2601 1.74698 0.848181 0
M  V30 875 C 90.3901 3.28336 1.13194 0
M  V30 876 C 89.3441 4.25124 0.495324 0
M  V30 877 C 88.6701 5.09863 1.61071 0
M  V30 878 C 89.9701 5.19143 -0.573425 0
M  V30 879 H 91.6641 2.93252 -0.603646 0
M  V30 880 H 89.2101 1.41014 -0.291741 0
M  V30 881 H 91.1631 3.88137 1.64097 0
M  V30 882 H 89.8871 2.66383 1.88965 0
M  V30 883 H 88.5461 3.66599 0.00729452 0
M  V30 884 H 88.1941 4.44288 2.35832 0
M  V30 885 H 87.8941 5.75417 1.19035 0
M  V30 886 H 89.4181 5.72529 2.12233 0
M  V30 887 H 90.8321 5.73106 -0.1491 0
M  V30 888 H 89.2291 5.93089 -0.914636 0
M  V30 889 H 90.2991 4.62519 -1.45617 0
M  V30 890 N 91.6422 0.330177 1.54103 0
M  V30 891 C 93.0532 -0.15652 1.86043 0
M  V30 892 C 93.4042 -1.51086 1.2517 0
M  V30 893 O 92.5292 -2.09023 0.560217 0
M  V30 894 C 93.1242 -0.290784 3.3755 0
M  V30 895 C 91.6832 -0.721705 3.69416 0
M  V30 896 C 90.8302 0.152622 2.7688 0
M  V30 897 H 93.7812 0.550237 1.48856 0
M  V30 898 H 93.8022 -1.12058 3.63625 0
M  V30 899 H 93.3142 0.695068 3.81825 0
M  V30 900 H 91.4152 -1.71706 3.30678 0
M  V30 901 H 91.5282 -0.520869 4.7626 0
M  V30 902 H 89.8922 -0.372894 2.51956 0
M  V30 903 H 90.6752 1.13536 3.23982 0
M  V30 904 N 93.1203 -1.57491 0.0584922 0
M  V30 905 C 94.0833 -2.1085 -0.898617 0
M  V30 906 C 95.0833 -1.02964 -1.23511 0
M  V30 907 O 96.2733 -1.29007 -1.17059 0
M  V30 908 C 93.4053 -2.59881 -2.20623 0
M  V30 909 H 94.5983 -2.96715 -0.435936 0
M  V30 910 H 92.1513 -1.55141 -0.190023 0
M  V30 911 H 92.8863 -1.77431 -2.71457 0
M  V30 912 H 92.6713 -3.38727 -1.97501 0
M  V30 913 H 94.1613 -3.01285 -2.89166 0
M  V30 914 N 94.5984 0.214957 -1.56127 0
M  V30 915 C 96.0144 0.564948 -1.49267 0
M  V30 916 C 96.2144 1.86827 -0.754838 0
M  V30 917 O 95.2704 2.50745 -0.297198 0
M  V30 918 C 96.5834 0.638071 -2.93852 0
M  V30 919 C 98.1314 0.728253 -3.0441 0
M  V30 920 C 98.6064 0.832663 -4.50367 0
M  V30 921 N 100.097 0.896712 -4.54437 0
M  V30 922 C 100.832 0.997324 -5.6466 0
M  V30 923 N 100.328 1.06147 -6.8462 0
M  V30 924 N 102.121 1.03297 -5.52527 0
M  V30 925 H 94.2724 -0.640211 -2.02522 0
M  V30 926 H 96.5354 -0.225507 -0.920788 0
M  V30 927 H 96.2414 -0.250126 -3.50809 0
M  V30 928 H 96.1154 1.49947 -3.46115 0
M  V30 929 H 98.5024 1.60689 -2.47514 0
M  V30 930 H 98.5834 -0.158952 -2.55306 0
M  V30 931 H 98.2274 -0.0415417 -5.07883 0
M  V30 932 H 98.1574 1.73538 -4.97184 0
M  V30 933 H 100.648 0.857188 -3.6805 0
M  V30 934 H 100.961 1.1382 -7.64372 0
M  V30 935 H 99.3064 1.03049 -6.87318 0
M  V30 936 H 102.497 0.979558 -4.57736 0
M  V30 937 H 102.67 1.10793 -6.38458 0
M  V30 938 N 96.0765 1.50051 0.48192 0
M  V30 939 C 97.4875 1.5348 1.06305 0
M  V30 940 C 97.8385 0.331997 1.93371 0
M  V30 941 O 96.9635 -0.556256 2.09129 0
M  V30 942 C 97.5585 2.7813 1.93466 0
M  V30 943 C 96.1175 2.84275 2.46707 0
M  V30 944 C 95.2645 2.47637 1.24785 0
M  V30 945 H 98.2155 1.56472 0.264995 0
M  V30 946 H 98.2365 2.59372 2.78399 0
M  V30 947 H 97.7485 3.65654 1.30072 0
M  V30 948 H 95.8495 2.01077 3.13686 0
M  V30 949 H 95.9625 3.8691 2.82555 0
M  V30 950 H 94.3265 1.99835 1.57918 0
M  V30 951 H 95.1095 3.37457 0.630694 0
M  V30 952 N 97.5546 -0.734337 1.39446 0
M  V30 953 C 98.7796 -1.52866 1.40167 0
M  V30 954 C 99.2046 -1.881 -0.00171513 0
M  V30 955 O 98.5626 -1.51957 -0.988879 0
M  V30 956 C 98.6106 -2.79235 2.28167 0
M  V30 957 O 97.7146 -3.75185 1.71201 0
M  V30 958 H 97.0556 -0.461618 0.477289 0
M  V30 959 H 99.5856 -0.905949 1.8345 0
M  V30 960 H 99.5956 -3.27963 2.42702 0
M  V30 961 H 98.2706 -2.52923 3.30156 0
M  V30 962 H 96.8476 -3.33958 1.65912 0
M  V30 963 N 99.0327 -1.24633 -0.964593 0
M  V30 964 C 99.9627 -1.06611 -2.07741 0
M  V30 965 C 100.944 0.0218666 -1.70086 0
M  V30 966 O 102.129 -0.145793 -1.93652 0
M  V30 967 C 99.2587 -0.673444 -3.40708 0
M  V30 968 C 98.2127 -1.71054 -3.92332 0
M  V30 969 C 97.5387 -1.17285 -5.21678 0
M  V30 970 C 98.8387 -3.10718 -4.19824 0
M  V30 971 H 100.533 -1.99693 -2.23076 0
M  V30 972 H 98.0787 -0.96152 -1.07195 0
M  V30 973 H 100.032 -0.534345 -4.17998 0
M  V30 974 H 98.7557 0.293073 -3.25282 0
M  V30 975 H 97.4147 -1.83791 -3.17201 0
M  V30 976 H 97.0627 -0.196847 -5.02615 0
M  V30 977 H 96.7627 -1.86592 -5.57187 0
M  V30 978 H 98.2867 -1.04593 -6.01575 0
M  V30 979 H 99.7007 -3.01192 -4.87808 0
M  V30 980 H 98.0977 -3.77406 -4.66567 0
M  V30 981 H 99.1677 -3.58524 -3.26479 0
M  V30 982 N 100.511 1.16574 -1.06058 0
M  V30 983 C 101.736 1.91493 -0.796562 0
M  V30 984 C 102.161 1.76773 0.642868 0
M  V30 985 O 101.519 1.09142 1.44768 0
M  V30 986 C 101.567 3.40293 -1.19303 0
M  V30 987 O 100.671 4.11074 -0.330394 0
M  V30 988 H 100.012 0.596678 -0.291326 0
M  V30 989 H 102.542 1.47708 -1.41575 0
M  V30 990 H 102.552 3.91057 -1.16356 0
M  V30 991 H 101.227 3.50326 -2.24153 0
M  V30 992 H 99.8038 3.70513 -0.421225 0
M  V30 993 N 101.989 0.842826 1.3317 0
M  V30 994 C 102.952 0.284065 2.27433 0
M  V30 995 C 103.952 -0.54948 1.5112 0
M  V30 996 O 105.142 -0.362699 1.70382 0
M  V30 997 C 102.274 -0.599384 3.35589 0
M  V30 998 H 103.467 1.11589 2.78366 0
M  V30 999 H 101.02 0.616221 1.4364 0
M  V30 1000 H 101.755 -1.45349 2.89904 0
M  V30 1001 H 101.54 -0.00291266 3.921 0
M  V30 1002 H 103.03 -0.983488 4.05854 0
M  V30 1003 N 103.467 -1.45747 0.599634 0
M  V30 1004 C 104.883 -1.57424 0.26264 0
M  V30 1005 C 105.083 -1.59222 -1.23493 0
M  V30 1006 O 104.139 -1.51825 -2.01756 0
M  V30 1007 C 105.452 -2.86061 0.926795 0
M  V30 1008 C 107 -2.99722 0.901967 0
M  V30 1009 C 107.475 -4.31119 1.54598 0
M  V30 1010 N 108.966 -4.37858 1.5111 0
M  V30 1011 C 109.701 -5.3818 1.97863 0
M  V30 1012 N 109.197 -6.45083 2.52666 0
M  V30 1013 N 110.99 -5.29487 1.88679 0
M  V30 1014 H 103.141 -1.42823 1.57211 0
M  V30 1015 H 105.404 -0.68235 0.658105 0
M  V30 1016 H 105.11 -2.90605 1.98095 0
M  V30 1017 H 104.984 -3.74563 0.445238 0
M  V30 1018 H 107.371 -2.9475 -0.143617 0
M  V30 1019 H 107.452 -2.12652 1.42171 0
M  V30 1020 H 107.096 -4.36849 2.59085 0
M  V30 1021 H 107.026 -5.16992 1.00132 0
M  V30 1022 H 109.517 -3.61209 1.11068 0
M  V30 1023 H 109.83 -7.17869 2.86155 0
M  V30 1024 H 108.175 -6.45856 2.56701 0
M  V30 1025 H 111.366 -4.44877 1.4561 0
M  V30 1026 H 111.539 -6.07524 2.25429 0
M  V30 1027 N 104.945 -0.338344 -1.53925 0
M  V30 1028 C 105.892 0.520845 -2.24846 0
M  V30 1029 C 106.862 1.09976 -1.24477 0
M  V30 1030 O 108.047 1.13735 -1.53196 0
M  V30 1031 C 105.187 1.6685 -3.02084 0
M  V30 1032 C 104.3 1.11739 -4.17299 0
M  V30 1033 C 103.435 2.23193 -4.82036 0
M  V30 1034 C 102.474 1.65407 -5.89328 0
M  V30 1035 N 101.611 2.70582 -6.47866 0
M  V30 1036 H 106.451 -0.0904881 -2.97863 0
M  V30 1037 H 103.988 -0.0564282 -1.46992 0
M  V30 1038 H 105.946 2.34407 -3.45122 0
M  V30 1039 H 104.576 2.2509 -2.31375 0
M  V30 1040 H 103.628 0.332919 -3.7894 0
M  V30 1041 H 104.94 0.654677 -4.94485 0
M  V30 1042 H 104.094 2.98626 -5.28117 0
M  V30 1043 H 102.833 2.72807 -4.04262 0
M  V30 1044 H 101.838 0.884779 -5.42634 0
M  V30 1045 H 103.063 1.16652 -6.69006 0
M  V30 1046 H 101.009 3.1946 -5.72959 0
M  V30 1047 H 100.926 2.28917 -7.20509 0
M  V30 1048 H 102.194 3.45799 -6.98601 0
M  V30 1049 N 106.423 1.57458 -0.0668435 0
M  V30 1050 C 107.353 2.15468 0.899764 0
M  V30 1051 C 108.334 1.08042 1.31381 0
M  V30 1052 O 109.519 1.36054 1.38574 0
M  V30 1053 C 106.649 2.71232 2.16911 0
M  V30 1054 C 105.603 3.83781 1.89463 0
M  V30 1055 C 104.929 4.26127 3.22986 0
M  V30 1056 C 106.229 5.08238 1.20381 0
M  V30 1057 H 107.923 2.96488 0.416529 0
M  V30 1058 H 105.469 1.4262 0.198908 0
M  V30 1059 H 107.422 3.10458 2.84945 0
M  V30 1060 H 106.146 1.87426 2.67468 0
M  V30 1061 H 104.805 3.45051 1.23836 0
M  V30 1062 H 104.453 3.39249 3.71374 0
M  V30 1063 H 104.153 5.01993 3.05413 0
M  V30 1064 H 105.677 4.67966 3.92225 0
M  V30 1065 H 107.091 5.44811 1.78475 0
M  V30 1066 H 105.488 5.89349 1.13083 0
M  V30 1067 H 106.558 4.84558 0.182153 0
M  V30 1068 N 107.901 -0.206675 1.56239 0
M  V30 1069 C 109.126 -0.949474 1.8439 0
M  V30 1070 C 109.551 -1.76549 0.649016 0
M  V30 1071 O 108.909 -1.76782 -0.402231 0
M  V30 1072 C 108.957 -1.83078 3.10668 0
M  V30 1073 O 108.061 -2.9281 2.90407 0
M  V30 1074 H 107.402 -0.268033 0.607499 0
M  V30 1075 H 109.932 -0.215488 2.03462 0
M  V30 1076 H 109.942 -2.2377 3.41161 0
M  V30 1077 H 108.617 -1.23112 3.97261 0
M  V30 1078 H 107.194 -2.55956 2.71184 0
M  V30 1079 N 109.379 -1.50304 -0.473955 0
M  V30 1080 C 110.309 -1.71886 -1.58042 0
M  V30 1081 C 111.29 -0.567799 -1.60344 0
M  V30 1082 O 112.475 -0.806623 -1.76656 0
M  V30 1083 C 109.605 -1.81036 -2.96384 0
M  V30 1084 C 108.559 -2.962 -3.08949 0
M  V30 1085 C 107.885 -2.9049 -4.48909 0
M  V30 1086 C 109.185 -4.36752 -2.86434 0
M  V30 1087 H 110.879 -2.64527 -1.40234 0
M  V30 1088 H 108.425 -1.27295 -0.673201 0
M  V30 1089 H 110.378 -1.94719 -3.73714 0
M  V30 1090 H 109.102 -0.850147 -3.15341 0
M  V30 1091 H 107.761 -2.82164 -2.3405 0
M  V30 1092 H 107.409 -1.92321 -4.64781 0
M  V30 1093 H 107.109 -3.67802 -4.58253 0
M  V30 1094 H 108.633 -3.06218 -5.28264 0
M  V30 1095 H 110.047 -4.5133 -3.53517 0
M  V30 1096 H 108.444 -5.15493 -3.07225 0
M  V30 1097 H 109.514 -4.49321 -1.82316 0
M  V30 1098 N 110.857 0.726932 -1.39834 0
M  V30 1099 C 111.789 1.85147 -1.35104 0
M  V30 1100 C 112.802 1.60736 -0.258392 0
M  V30 1101 O 113.991 1.70821 -0.517931 0
M  V30 1102 C 111.091 3.21332 -1.07697 0
M  V30 1103 C 110.264 3.73033 -2.28396 0
M  V30 1104 C 109.323 4.87802 -1.97322 0
M  V30 1105 O 108.349 5.01043 -2.70083 0
M  V30 1106 N 109.551 5.72768 -0.944273 0
M  V30 1107 H 112.316 1.89706 -2.32017 0
M  V30 1108 H 109.877 0.908006 -1.3404 0
M  V30 1109 H 111.869 3.95691 -0.849144 0
M  V30 1110 H 110.439 3.11992 -0.194909 0
M  V30 1111 H 109.659 2.89934 -2.6708 0
M  V30 1112 H 110.947 4.0431 -3.08887 0
M  V30 1113 H 110.345 5.64669 -0.341427 0
M  V30 1114 H 108.902 6.4716 -0.776346 0
M  V30 1115 N 112.336 1.25143 0.95797 0
M  V30 1116 C 113.246 1.06968 2.08794 0
M  V30 1117 C 114.262 0.00773911 1.73998 0
M  V30 1118 O 115.438 0.207972 2.00323 0
M  V30 1119 C 112.503 0.68691 3.39827 0
M  V30 1120 C 111.564 1.82641 3.88511 0
M  V30 1121 C 110.797 1.46181 5.1329 0
M  V30 1122 O 111.02 0.355971 5.69288 0
M  V30 1123 O 109.954 2.29085 5.566 0
M  V30 1124 H 113.78 2.01723 2.27027 0
M  V30 1125 H 111.365 1.04051 1.07209 0
M  V30 1126 H 113.247 0.485417 4.18595 0
M  V30 1127 H 111.922 -0.231417 3.22872 0
M  V30 1128 H 110.829 2.08274 3.10762 0
M  V30 1129 H 112.162 2.72386 4.09959 0
M  V30 1130 N 113.814 -1.1601 1.06675 0
M  V30 1131 C 115.23 -1.38622 0.790948 0
M  V30 1132 C 115.43 -1.92109 -0.607965 0
M  V30 1133 O 114.486 -2.12239 -1.36787 0
M  V30 1134 C 115.799 -2.36347 1.85905 0
M  V30 1135 C 117.347 -2.50023 1.88301 0
M  V30 1136 C 117.822 -3.51033 2.94176 0
M  V30 1137 N 119.313 -3.58563 2.93235 0
M  V30 1138 C 120.048 -4.36521 3.71803 0
M  V30 1139 N 119.544 -5.17869 4.602 0
M  V30 1140 N 121.337 -4.31541 3.60178 0
M  V30 1141 H 113.488 -0.796294 1.96908 0
M  V30 1142 H 115.751 -0.412597 0.853503 0
M  V30 1143 H 115.457 -2.04147 2.86386 0
M  V30 1144 H 115.331 -3.36042 1.71334 0
M  V30 1145 H 117.718 -2.81524 0.884769 0
M  V30 1146 H 117.799 -1.5035 2.06951 0
M  V30 1147 H 117.443 -3.20268 3.94196 0
M  V30 1148 H 117.373 -4.50445 2.72776 0
M  V30 1149 H 119.864 -3.00496 2.29152 0
M  V30 1150 H 120.177 -5.74578 5.16797 0
M  V30 1151 H 118.522 -5.17199 4.64253 0
M  V30 1152 H 121.713 -3.67051 2.90502 0
M  V30 1153 H 121.886 -4.9205 4.21653 0
M  V30 1154 N 115.292 -0.849877 -1.32721 0
M  V30 1155 C 116.703 -0.506188 -1.79707 0
M  V30 1156 C 117.054 0.975627 -1.70223 0
M  V30 1157 O 116.179 1.76078 -1.25799 0
M  V30 1158 C 116.774 -0.912044 -3.26293 0
M  V30 1159 C 115.333 -0.620326 -3.71253 0
M  V30 1160 C 114.48 -1.11439 -2.53922 0
M  V30 1161 H 117.431 -1.03754 -1.20087 0
M  V30 1162 H 117.452 -0.226493 -3.79825 0
M  V30 1163 H 116.964 -1.99057 -3.33164 0
M  V30 1164 H 115.065 0.447674 -3.69901 0
M  V30 1165 H 115.178 -1.18327 -4.64258 0
M  V30 1166 H 113.542 -0.534834 -2.49021 0
M  V30 1167 H 114.325 -2.19992 -2.6355 0
M  V30 1168 N 116.77 1.45427 -0.607355 0
M  V30 1169 C 117.733 2.28974 0.101693 0
M  V30 1170 C 118.733 1.39754 0.795329 0
M  V30 1171 O 119.923 1.61878 0.643527 0
M  V30 1172 C 117.055 3.20768 1.15414 0
M  V30 1173 H 118.248 2.93147 -0.632844 0
M  V30 1174 H 115.801 1.51945 -0.366391 0
M  V30 1175 H 116.536 2.61395 1.91945 0
M  V30 1176 H 116.321 3.86489 0.66098 0
M  V30 1177 H 117.811 3.83589 1.65073 0
M  V30 1178 N 118.248 0.346503 1.53744 0
M  V30 1179 C 119.496 -0.248612 2.00565 0
M  V30 1180 C 119.817 -1.5083 1.23593 0
M  V30 1181 O 119.087 -1.92858 0.343912 0
M  V30 1182 H 117.667 -0.0948564 0.740953 0
M  V30 1183 H 120.329 0.468341 1.89189 0
M  V30 1184 H 119.425 -0.488994 3.08245 0
M  V30 1185 N 119.726 -1.57421 0.075193 0
M  V30 1186 C 120.951 -1.98364 -0.605515 0
M  V30 1187 C 121.376 -0.953383 -1.62149 0
M  V30 1188 O 120.734 0.0806053 -1.81121 0
M  V30 1189 C 120.782 -3.38332 -1.24756 0
M  V30 1190 O 119.886 -3.37959 -2.36342 0
M  V30 1191 H 119.227 -0.645553 -0.155428 0
M  V30 1192 H 121.757 -2.04044 0.150714 0
M  V30 1193 H 121.767 -3.75591 -1.5936 0
M  V30 1194 H 120.442 -4.12846 -0.503129 0
M  V30 1195 H 119.019 -3.12474 -2.03506 0
M  V30 1196 N 121.204 0.198386 -1.56346 0
M  V30 1197 C 122.434 0.934215 -1.84271 0
M  V30 1198 C 122.842 1.77496 -0.655125 0
M  V30 1199 O 122.185 1.7961 0.385488 0
M  V30 1200 C 122.247 1.88278 -3.06254 0
M  V30 1201 C 121.911 1.22431 -4.40295 0
M  V30 1202 C 122.908 0.602839 -5.16393 0
M  V30 1203 C 120.593 1.22915 -4.87029 0
M  V30 1204 C 122.587 -0.0050083 -6.374 0
M  V30 1205 C 120.274 0.617465 -6.07973 0
M  V30 1206 C 121.272 0.00146341 -6.83 0
M  V30 1207 O 120.96 -0.600642 -8.01653 0
M  V30 1208 H 120.692 0.278245 -0.616081 0
M  V30 1209 H 123.246 0.211626 -2.04307 0
M  V30 1210 H 121.476 2.64498 -2.82095 0
M  V30 1211 H 123.165 2.48612 -3.20853 0
M  V30 1212 H 123.931 0.591265 -4.81382 0
M  V30 1213 H 119.81 1.69801 -4.28589 0
M  V30 1214 H 123.354 -0.48643 -6.95902 0
M  V30 1215 H 119.251 0.62653 -6.42452 0
M  V30 1216 H 120.019 -0.497225 -8.16988 0
M  V30 1217 N 122.682 1.50554 0.465978 0
M  V30 1218 C 123.612 1.72722 1.57128 0
M  V30 1219 C 124.593 0.576294 1.6004 0
M  V30 1220 O 125.778 0.81598 1.76225 0
M  V30 1221 C 122.908 1.82605 2.95419 0
M  V30 1222 C 121.862 2.97835 3.07373 0
M  V30 1223 C 121.188 2.92867 4.47363 0
M  V30 1224 C 122.488 4.38265 2.84114 0
M  V30 1225 H 124.182 2.65267 1.38829 0
M  V30 1226 H 121.728 1.2765 0.666441 0
M  V30 1227 H 123.681 1.96698 3.72677 0
M  V30 1228 H 122.405 0.866858 3.14886 0
M  V30 1229 H 121.064 2.83401 2.3255 0
M  V30 1230 H 120.712 1.94783 4.63755 0
M  V30 1231 H 120.412 3.70227 4.56296 0
M  V30 1232 H 121.936 3.09015 5.26633 0
M  V30 1233 H 123.35 4.53198 3.51118 0
M  V30 1234 H 121.747 5.17115 3.04487 0
M  V30 1235 H 122.817 4.50281 1.7993 0
M  V30 1236 N 124.16 -0.719506 1.40217 0
M  V30 1237 C 125.07 -1.86378 1.42479 0
M  V30 1238 C 126.086 -1.71073 0.317834 0
M  V30 1239 O 127.262 -1.93406 0.561794 0
M  V30 1240 C 124.327 -3.22136 1.28178 0
M  V30 1241 C 123.388 -3.49723 2.48982 0
M  V30 1242 C 122.621 -4.79004 2.35353 0
M  V30 1243 O 122.844 -5.53821 1.36524 0
M  V30 1244 O 121.778 -5.06839 3.2465 0
M  V30 1245 H 125.604 -1.87425 2.38968 0
M  V30 1246 H 123.189 -0.869405 1.21498 0
M  V30 1247 H 125.071 -4.03234 1.22395 0
M  V30 1248 H 123.746 -3.21825 0.347934 0
M  V30 1249 H 122.653 -2.6865 2.60342 0
M  V30 1250 H 123.986 -3.54828 3.41113 0
M  V30 1251 N 125.638 -1.25649 -0.95132 0
M  V30 1252 C 126.601 -1.06399 -2.03007 0
M  V30 1253 C 127.601 -0.0156794 -1.60792 0
M  V30 1254 O 128.791 -0.25817 -1.72276 0
M  V30 1255 C 125.923 -0.616184 -3.35285 0
M  V30 1256 H 127.116 -2.02164 -2.21517 0
M  V30 1257 H 124.669 -1.08103 -1.12887 0
M  V30 1258 H 125.404 0.343917 -3.22471 0
M  V30 1259 H 125.189 -1.37301 -3.67275 0
M  V30 1260 H 126.679 -0.503032 -4.14559 0
M  V30 1261 N 127.117 1.15442 -1.07289 0
M  V30 1262 C 128.049 2.19773 -0.650585 0
M  V30 1263 C 129.062 1.60076 0.296572 0
M  V30 1264 O 130.251 1.78293 0.0859905 0
M  V30 1265 C 127.351 3.38838 0.0650398 0
M  V30 1266 C 126.524 4.2808 -0.898141 0
M  V30 1267 C 125.583 5.2574 -0.219926 0
M  V30 1268 O 124.609 5.62654 -0.860773 0
M  V30 1269 N 125.811 5.71205 1.03466 0
M  V30 1270 H 128.576 2.56622 -1.54808 0
M  V30 1271 H 126.137 1.30551 -0.957494 0
M  V30 1272 H 128.129 4.01222 0.529415 0
M  V30 1273 H 126.699 3.00409 0.864466 0
M  V30 1274 H 125.919 3.62804 -1.54165 0
M  V30 1275 H 127.207 4.84577 -1.5512 0
M  V30 1276 H 126.605 5.43325 1.57526 0
M  V30 1277 H 125.162 6.35633 1.44272 0
M  V30 1278 N 128.595 0.856903 1.32268 0
M  V30 1279 C 129.558 0.308171 2.27119 0
M  V30 1280 C 130.558 -0.533421 1.51695 0
M  V30 1281 O 131.748 -0.344607 1.70757 0
M  V30 1282 C 128.88 -0.563757 3.36206 0
M  V30 1283 H 130.073 1.14535 2.77167 0
M  V30 1284 H 127.626 0.631421 1.42978 0
M  V30 1285 H 128.361 -1.42266 2.91429 0
M  V30 1286 H 128.146 0.0386749 3.92081 0
M  V30 1287 H 129.636 -0.940386 4.06874 0
M  V30 1288 N 130.073 -1.45103 0.615059 0
M  V30 1289 C 131.321 -2.01784 0.112955 0
M  V30 1290 C 131.642 -1.48504 -1.26378 0
M  V30 1291 O 130.912 -0.682245 -1.83636 0
M  V30 1292 H 129.492 -0.745993 0.0387668 0
M  V30 1293 H 132.154 -1.77808 0.798141 0
M  V30 1294 H 131.25 -3.12025 0.0684069 0
M  V30 1295 N 131.551 -0.354651 -1.53558 0
M  V30 1296 C 132.962 0.126902 -1.86268 0
M  V30 1297 C 133.313 1.49075 -1.27558 0
M  V30 1298 O 132.438 2.08105 -0.5934 0
M  V30 1299 C 133.033 0.237046 -3.3797 0
M  V30 1300 C 131.592 0.662842 -3.70518 0
M  V30 1301 C 130.739 -0.196652 -2.76602 0
M  V30 1302 H 133.69 -0.573849 -1.47962 0
M  V30 1303 H 133.711 1.06259 -3.65362 0
M  V30 1304 H 133.223 -0.755725 -3.80671 0
M  V30 1305 H 131.324 1.66424 -3.33367 0
M  V30 1306 H 131.437 0.445034 -4.77029 0
M  V30 1307 H 129.801 0.332763 -2.52517 0
M  V30 1308 H 130.584 -1.18676 -3.22135 0
M  V30 1309 N 133.029 1.57378 -0.0835403 0
M  V30 1310 C 134.259 1.97975 0.590713 0
M  V30 1311 C 134.667 0.961083 1.62972 0
M  V30 1312 O 134.01 -0.0590879 1.83605 0
M  V30 1313 C 134.072 3.34915 1.3066 0
M  V30 1314 C 133.736 4.55069 0.419698 0
M  V30 1315 C 134.733 5.18868 -0.32749 0
M  V30 1316 C 132.418 5.0114 0.341137 0
M  V30 1317 C 134.412 6.27098 -1.14134 0
M  V30 1318 C 132.099 6.0924 -0.476374 0
M  V30 1319 C 133.097 6.72083 -1.21627 0
M  V30 1320 O 132.785 7.781 -2.02028 0
M  V30 1321 H 132.517 0.655818 0.163947 0
M  V30 1322 H 135.071 2.04807 -0.156021 0
M  V30 1323 H 133.301 3.24733 2.09966 0
M  V30 1324 H 134.99 3.60037 1.87424 0
M  V30 1325 H 135.756 4.84211 -0.276459 0
M  V30 1326 H 131.635 4.51996 0.90668 0
M  V30 1327 H 135.179 6.7608 -1.71935 0
M  V30 1328 H 131.076 6.43329 -0.528927 0
M  V30 1329 H 131.844 7.95034 -1.94586 0
M  V30 1330 N 134.507 -0.190092 1.56449 0
M  V30 1331 C 135.47 -1.21925 1.9408 0
M  V30 1332 C 136.47 -1.38176 0.822431 0
M  V30 1333 O 137.66 -1.35903 1.08977 0
M  V30 1334 C 134.792 -2.58773 2.21922 0
M  V30 1335 H 135.985 -0.897464 2.86157 0
M  V30 1336 H 133.538 -0.43181 1.50217 0
M  V30 1337 H 134.273 -2.95998 1.32499 0
M  V30 1338 H 134.058 -2.48348 3.03424 0
M  V30 1339 H 135.548 -3.32978 2.52022 0
M  V30 1340 N 135.985 -1.50799 -0.457987 0
M  V30 1341 C 137.213 -1.66218 -1.23203 0
M  V30 1342 C 137.628 -0.350894 -1.85511 0
M  V30 1343 O 136.985 0.668546 -1.69814 0
M  V30 1344 C 137.036 -2.76291 -2.33121 0
M  V30 1345 O 136.757 -4.02338 -1.73366 0
M  V30 1346 C 138.258 -3.028 -3.2377 0
M  V30 1347 H 135.478 -0.558361 -0.372121 0
M  V30 1348 H 138.022 -1.97099 -0.545179 0
M  V30 1349 H 136.177 -2.48068 -2.97558 0
M  V30 1350 H 136.591 -4.63312 -2.4585 0
M  V30 1351 H 138.065 -3.8345 -3.97077 0
M  V30 1352 H 138.542 -2.14385 -3.83322 0
M  V30 1353 H 139.148 -3.32604 -2.65056 0
M  V30 1354 N 137.463 0.71206 -1.40597 0
M  V30 1355 C 138.711 1.46907 -1.38791 0
M  V30 1356 C 139.032 1.94998 0.00780391 0
M  V30 1357 O 138.302 1.70587 0.963174 0
M  V30 1358 H 136.882 0.545043 -0.51082 0
M  V30 1359 H 139.544 0.843882 -1.75683 0
M  V30 1360 H 138.64 2.34021 -2.06496 0
M  V30 1361 N 138.941 1.26152 0.944643 0
M  V30 1362 C 140.352 1.10454 1.50522 0
M  V30 1363 C 140.703 -0.31635 1.93633 0
M  V30 1364 O 139.828 -1.20746 1.79581 0
M  V30 1365 C 140.423 1.99891 2.73549 0
M  V30 1366 C 138.982 1.88348 3.25886 0
M  V30 1367 C 138.129 1.93447 1.9868 0
M  V30 1368 H 141.08 1.39292 0.760489 0
M  V30 1369 H 141.101 1.54477 3.47732 0
M  V30 1370 H 140.613 3.03297 2.42141 0
M  V30 1371 H 138.714 0.878636 3.62092 0
M  V30 1372 H 138.827 2.73696 3.93227 0
M  V30 1373 H 137.191 1.37456 2.14425 0
M  V30 1374 H 137.974 2.98476 1.69607 0
M  V30 1375 N 140.419 -1.14872 1.07899 0
M  V30 1376 C 141.382 -2.17986 0.708161 0
M  V30 1377 C 142.382 -1.58775 -0.25442 0
M  V30 1378 O 143.572 -1.74166 -0.034645 0
M  V30 1379 C 140.704 -3.40871 0.0446929 0
M  V30 1380 H 141.897 -2.52306 1.62116 0
M  V30 1381 H 139.45 -1.2943 0.876218 0
M  V30 1382 H 140.185 -3.12124 -0.880281 0
M  V30 1383 H 139.97 -3.8511 0.737091 0
M  V30 1384 H 141.46 -4.17121 -0.19991 0
M  V30 1385 N 141.898 -0.863906 -1.31812 0
M  V30 1386 C 143.123 -0.48527 -2.01643 0
M  V30 1387 C 143.548 0.913058 -1.64453 0
M  V30 1388 O 142.906 1.6014 -0.849985 0
M  V30 1389 C 142.954 -0.642625 -3.54828 0
M  V30 1390 O 142.058 0.320659 -4.11151 0
M  V30 1391 H 141.399 -0.193793 -0.635091 0
M  V30 1392 H 143.929 -1.16565 -1.68148 0
M  V30 1393 H 143.939 -0.533628 -4.04495 0
M  V30 1394 H 142.614 -1.66227 -3.81237 0
M  V30 1395 H 141.191 0.167126 -3.72525 0
M  V30 1396 N 143.376 1.44774 -0.622745 0
M  V30 1397 C 144.326 2.2774 0.108889 0
M  V30 1398 C 145.31 1.38189 0.824175 0
M  V30 1399 O 146.502 1.62063 0.711664 0
M  V30 1400 C 143.631 3.25353 1.09546 0
M  V30 1401 C 142.717 4.22392 0.380232 0
M  V30 1402 N 143.108 5.02388 -0.586535 0
M  V30 1403 C 141.406 4.41588 0.625792 0
M  V30 1404 C 142.107 5.72894 -1.00834 0
M  V30 1405 N 141.083 5.42479 -0.348878 0
M  V30 1406 H 144.885 2.86993 -0.63341 0
M  V30 1407 H 142.399 1.5611 -0.447589 0
M  V30 1408 H 144.396 3.83538 1.63414 0
M  V30 1409 H 143.056 2.6766 1.83815 0
M  V30 1410 H 144.067 5.0885 -0.963975 0
M  V30 1411 H 140.744 3.95003 1.352 0
M  V30 1412 H 142.134 6.47158 -1.80656 0
M  V30 1413 N 144.854 0.36279 1.53368 0
M  V30 1414 C 146.103 -0.22888 2.00397 0
M  V30 1415 C 146.416 -1.50096 1.25421 0
M  V30 1416 O 147.622 -2.17106 1.63025 0
M  V30 1417 C 146.078 -0.458417 3.56969 0
M  V30 1418 C 145.686 0.798877 4.4082 0
M  V30 1419 C 147.43 -1.00789 4.12361 0
M  V30 1420 C 145.337 0.539078 5.88938 0
M  V30 1421 H 144.267 -0.089305 0.748693 0
M  V30 1422 H 146.918 0.481099 1.77081 0
M  V30 1423 H 145.3 -1.22959 3.76427 0
M  V30 1424 H 146.474 1.57262 4.33134 0
M  V30 1425 H 144.789 1.27137 3.96516 0
M  V30 1426 H 147.386 -1.21754 5.20653 0
M  V30 1427 H 147.729 -1.9692 3.66781 0
M  V30 1428 H 148.262 -0.296961 3.9669 0
M  V30 1429 H 145.001 1.47064 6.3879 0
M  V30 1430 H 144.521 -0.196222 5.99479 0
M  V30 1431 H 146.2 0.163542 6.46793 0
M  V30 1432 N 146.332 -1.57332 0.0918853 0
M  V30 1433 C 147.557 -1.98995 -0.584442 0
M  V30 1434 C 147.982 -0.970528 -1.61128 0
M  V30 1435 O 147.34 0.0613904 -1.81196 0
M  V30 1436 C 147.388 -3.39636 -1.21161 0
M  V30 1437 O 146.492 -3.40447 -2.32744 0
M  V30 1438 H 145.833 -0.647165 -0.148572 0
M  V30 1439 H 148.363 -2.03873 0.172347 0
M  V30 1440 H 148.373 -3.7726 -1.55367 0
M  V30 1441 H 147.048 -4.13356 -0.459313 0
M  V30 1442 H 145.625 -3.14614 -2.0018 0
M  V30 1443 N 147.81 0.181792 -1.56548 0
M  V30 1444 C 149.221 0.745244 -1.71181 0
M  V30 1445 C 149.572 1.83262 -0.70068 0
M  V30 1446 O 148.697 2.15946 0.140154 0
M  V30 1447 C 149.292 1.35859 -3.10367 0
M  V30 1448 C 147.851 1.86898 -3.2672 0
M  V30 1449 C 146.998 0.743942 -2.67134 0
M  V30 1450 H 149.949 -0.0434661 -1.5864 0
M  V30 1451 H 149.97 2.22817 -3.08436 0
M  V30 1452 H 149.482 0.566948 -3.83937 0
M  V30 1453 H 147.583 2.68738 -2.5809 0
M  V30 1454 H 147.696 2.02162 -4.34359 0
M  V30 1455 H 146.06 1.16169 -2.26665 0
M  V30 1456 H 146.843 -0.035676 -3.43281 0
M  V30 1457 N 149.288 1.51039 0.449983 0
M  V30 1458 C 150.704 1.38934 0.785462 0
M  V30 1459 C 150.904 0.461817 1.96136 0
M  V30 1460 O 149.96 -0.0877389 2.52348 0
M  V30 1461 C 151.273 2.80724 1.0777 0
M  V30 1462 C 152.821 2.89787 1.1829 0
M  V30 1463 C 153.296 4.32457 1.50815 0
M  V30 1464 N 154.787 4.35505 1.57764 0
M  V30 1465 C 155.522 5.42914 1.84477 0
M  V30 1466 N 155.018 6.60502 2.09068 0
M  V30 1467 N 156.811 5.3038 1.86155 0
M  V30 1468 H 148.962 2.09904 -0.324647 0
M  V30 1469 H 151.225 0.944378 -0.0827957 0
M  V30 1470 H 150.931 3.50531 0.286498 0
M  V30 1471 H 150.805 3.19273 2.00859 0
M  V30 1472 H 153.192 2.20186 1.96474 0
M  V30 1473 H 153.273 2.54752 0.231314 0
M  V30 1474 H 152.917 5.02603 0.731622 0
M  V30 1475 H 152.847 4.64995 2.47158 0
M  V30 1476 H 155.338 3.50724 1.40715 0
M  V30 1477 H 155.651 7.38158 2.28785 0
M  V30 1478 H 153.996 6.63639 2.06416 0
M  V30 1479 H 157.187 4.37505 1.66454 0
M  V30 1480 H 157.36 6.1417 2.06637 0
M  V30 1481 N 150.766 -0.704594 1.40972 0
M  V30 1482 C 151.729 -1.80035 1.41845 0
M  V30 1483 C 152.729 -1.57774 0.310474 0
M  V30 1484 O 153.919 -1.64613 0.56992 0
M  V30 1485 C 151.051 -3.18284 1.22098 0
M  V30 1486 H 152.244 -1.80658 2.3938 0
M  V30 1487 H 149.797 -0.911329 1.26982 0
M  V30 1488 H 150.532 -3.23306 0.253672 0
M  V30 1489 H 150.317 -3.35843 2.02366 0
M  V30 1490 H 151.807 -3.98289 1.25522 0
M  V30 1491 N 152.244 -1.26651 -0.937939 0
M  V30 1492 C 153.49 -1.13562 -1.68746 0
M  V30 1493 C 153.845 0.317241 -1.89767 0
M  V30 1494 O 153.138 1.22939 -1.46957 0
M  V30 1495 C 153.332 -1.84168 -3.06295 0
M  V30 1496 C 153.161 -3.36171 -2.98696 0
M  V30 1497 C 151.931 -4.05468 -3.01535 0
M  V30 1498 C 154.129 -4.32312 -2.78588 0
M  V30 1499 N 152.111 -5.44118 -2.84269 0
M  V30 1500 C 153.482 -5.58159 -2.69924 0
M  V30 1501 C 155.537 -4.22524 -2.63396 0
M  V30 1502 C 154.24 -6.75335 -2.47618 0
M  V30 1503 C 156.266 -5.39411 -2.42466 0
M  V30 1504 C 155.628 -6.64208 -2.34536 0
M  V30 1505 H 151.727 -0.470361 -0.624728 0
M  V30 1506 H 154.311 -1.59982 -1.10968 0
M  V30 1507 H 152.482 -1.40219 -3.62206 0
M  V30 1508 H 154.214 -1.63674 -3.70126 0
M  V30 1509 H 150.969 -3.56854 -3.11372 0
M  V30 1510 H 151.393 -6.1693 -2.78795 0
M  V30 1511 H 156.035 -3.26771 -2.68292 0
M  V30 1512 H 153.753 -7.71182 -2.41463 0
M  V30 1513 H 157.339 -5.33711 -2.31611 0
M  V30 1514 H 156.219 -7.53129 -2.18555 0
M  V30 1515 N 153.722 1.14298 -1.08507 0
M  V30 1516 C 155.138 1.37347 -0.812901 0
M  V30 1517 C 155.338 1.93052 0.577325 0
M  V30 1518 O 154.394 2.14389 1.33393 0
M  V30 1519 C 155.707 2.33359 -1.89642 0
M  V30 1520 C 157.255 2.46996 -1.92255 0
M  V30 1521 C 157.73 3.46309 -2.99724 0
M  V30 1522 N 159.221 3.53853 -2.98902 0
M  V30 1523 C 159.956 4.3055 -3.787 0
M  V30 1524 N 159.452 5.10482 -4.6838 0
M  V30 1525 N 161.245 4.25757 -3.66998 0
M  V30 1526 H 153.396 0.764867 -1.9815 0
M  V30 1527 H 155.659 0.398966 -0.859959 0
M  V30 1528 H 155.365 1.99565 -2.89597 0
M  V30 1529 H 155.239 3.33274 -1.76659 0
M  V30 1530 H 157.626 2.80081 -0.929445 0
M  V30 1531 H 157.707 1.47039 -2.09316 0
M  V30 1532 H 157.351 3.13957 -3.99241 0
M  V30 1533 H 157.281 4.46049 -2.79907 0
M  V30 1534 H 159.772 2.96812 -2.33904 0
M  V30 1535 H 160.085 5.66284 -5.25873 0
M  V30 1536 H 158.43 5.09747 -4.72422 0
M  V30 1537 H 161.621 3.62383 -2.96304 0
M  V30 1538 H 161.794 4.85279 -4.29427 0
M  V30 1539 N 155.201 0.870884 1.31352 0
M  V30 1540 C 156.617 0.562932 1.49343 0
M  V30 1541 C 156.817 -0.902725 1.80148 0
M  V30 1542 O 155.873 -1.68484 1.88067 0
M  V30 1543 C 157.186 1.46393 2.62659 0
M  V30 1544 C 158.734 1.46607 2.76542 0
M  V30 1545 C 159.209 2.35266 3.92955 0
M  V30 1546 N 160.7 2.33151 4.00243 0
M  V30 1547 C 161.435 2.98471 4.89594 0
M  V30 1548 N 160.931 3.72964 5.8384 0
M  V30 1549 N 162.724 2.87775 4.82848 0
M  V30 1550 H 154.875 1.81923 1.09626 0
M  V30 1551 H 157.138 0.777934 0.541777 0
M  V30 1552 H 156.844 2.50689 2.46674 0
M  V30 1553 H 156.718 1.16314 3.58819 0
M  V30 1554 H 159.105 0.43069 2.9194 0
M  V30 1555 H 159.186 1.8071 1.81046 0
M  V30 1556 H 158.83 3.38881 3.78315 0
M  V30 1557 H 158.76 1.98487 4.87761 0
M  V30 1558 H 161.251 1.79006 3.32814 0
M  V30 1559 H 161.564 4.19932 6.4875 0
M  V30 1560 H 159.909 3.77073 5.83816 0
M  V30 1561 H 163.1 2.29116 4.08195 0
M  V30 1562 H 163.273 3.38961 5.52277 0
M  V30 1563 N 156.679 -1.44442 0.630414 0
M  V30 1564 C 158.09 -1.85434 0.217063 0
M  V30 1565 C 158.441 -1.52748 -1.23136 0
M  V30 1566 O 157.566 -0.965205 -1.93682 0
M  V30 1567 C 158.161 -3.36581 0.387168 0
M  V30 1568 C 156.72 -3.76389 0.0283297 0
M  V30 1569 C 155.867 -2.68296 0.700889 0
M  V30 1570 H 158.818 -1.34919 0.83562 0
M  V30 1571 H 158.839 -3.78657 -0.374086 0
M  V30 1572 H 158.351 -3.60339 1.44144 0
M  V30 1573 H 156.452 -3.58246 -1.02423 0
M  V30 1574 H 156.565 -4.77095 0.437892 0
M  V30 1575 H 154.929 -2.54335 0.136267 0
M  V30 1576 H 155.712 -2.94887 1.75774 0
M  V30 1577 N 158.157 -0.370918 -1.53173 0
M  V30 1578 C 159.385 0.217704 -2.05751 0
M  V30 1579 C 159.8 1.42018 -1.24404 0
M  V30 1580 O 159.157 1.80245 -0.286033 0
M  V30 1581 C 159.208 0.605954 -3.56385 0
M  V30 1582 O 158.929 -0.548734 -4.3465 0
M  V30 1583 C 160.43 1.2524 -4.25241 0
M  V30 1584 H 157.65 0.0371659 -0.66997 0
M  V30 1585 H 160.194 -0.530832 -1.9749 0
M  V30 1586 H 158.349 1.3044 -3.6478 0
M  V30 1587 H 158.763 -0.23376 -5.23979 0
M  V30 1588 H 160.237 1.47458 -5.3194 0
M  V30 1589 H 160.714 2.2143 -3.79296 0
M  V30 1590 H 161.32 0.595233 -4.21114 0
M  V30 1591 N 159.635 1.57281 -0.100228 0
M  V30 1592 C 160.884 1.93713 0.561984 0
M  V30 1593 C 161.197 0.984492 1.69018 0
M  V30 1594 O 162.403 1.24273 2.41389 0
M  V30 1595 C 160.859 3.4421 1.05106 0
M  V30 1596 C 160.467 4.47975 -0.0476628 0
M  V30 1597 C 162.211 3.89595 1.68571 0
M  V30 1598 C 160.118 5.89631 0.457055 0
M  V30 1599 H 159.048 0.723082 0.2137 0
M  V30 1600 H 161.699 1.82644 -0.177057 0
M  V30 1601 H 160.081 3.50449 1.84395 0
M  V30 1602 H 161.255 4.53385 -0.823333 0
M  V30 1603 H 159.57 4.1223 -0.587816 0
M  V30 1604 H 162.167 4.92832 2.07414 0
M  V30 1605 H 162.51 3.28526 2.55688 0
M  V30 1606 H 163.043 3.86078 0.958562 0
M  V30 1607 H 159.782 6.54411 -0.377616 0
M  V30 1608 H 159.302 5.87681 1.19962 0
M  V30 1609 H 160.981 6.40363 0.92437 0
M  V30 1610 N 161.113 -0.173488 1.56642 0
M  V30 1611 C 162.023 -1.23482 1.99473 0
M  V30 1612 C 163.039 -1.48567 0.905752 0
M  V30 1613 O 164.215 -1.60758 1.21321 0
M  V30 1614 C 161.28 -2.55444 2.34413 0
M  V30 1615 C 160.341 -2.38241 3.57127 0
M  V30 1616 C 159.574 -3.63909 3.90392 0
M  V30 1617 O 159.797 -4.68996 3.24653 0
M  V30 1618 O 158.731 -3.58149 4.83749 0
M  V30 1619 H 162.557 -0.901279 2.90018 0
M  V30 1620 H 160.142 -0.380185 1.44482 0
M  V30 1621 H 162.024 -3.33292 2.57865 0
M  V30 1622 H 160.699 -2.88382 1.4703 0
M  V30 1623 H 159.606 -1.58431 3.38896 0
M  V30 1624 H 160.939 -2.10228 4.45045 0
M  V30 1625 N 162.591 -1.51276 -0.441967 0
M  V30 1626 C 163.816 -1.67799 -1.21895 0
M  V30 1627 C 164.241 -0.372864 -1.84367 0
M  V30 1628 O 163.599 0.666501 -1.68604 0
M  V30 1629 C 163.647 -2.79199 -2.28211 0
M  V30 1630 O 162.751 -2.42479 -3.33583 0
M  V30 1631 H 162.092 -0.559649 -0.357336 0
M  V30 1632 H 164.622 -1.97815 -0.522522 0
M  V30 1633 H 164.632 -3.03146 -2.73069 0
M  V30 1634 H 163.307 -3.73906 -1.82118 0
M  V30 1635 H 161.884 -2.29087 -2.94234 0
M  V30 1636 N 164.069 0.697108 -1.41344 0
M  V30 1637 C 165.019 1.80313 -1.39539 0
M  V30 1638 C 166.003 1.58618 -0.270001 0
M  V30 1639 O 167.195 1.69477 -0.510551 0
M  V30 1640 C 164.324 3.18606 -1.27848 0
M  V30 1641 C 163.41 3.46001 -2.45244 0
M  V30 1642 N 163.801 3.44103 -3.70711 0
M  V30 1643 C 162.099 3.76542 -2.39023 0
M  V30 1644 C 162.8 3.7036 -4.48563 0
M  V30 1645 N 161.776 3.90027 -3.78655 0
M  V30 1646 H 165.578 1.77207 -2.34468 0
M  V30 1647 H 163.092 0.897031 -1.35378 0
M  V30 1648 H 165.089 3.97833 -1.24637 0
M  V30 1649 H 163.749 3.22925 -0.339032 0
M  V30 1650 H 164.76 3.2452 -4.03618 0
M  V30 1651 H 161.437 3.88241 -1.53542 0
M  V30 1652 H 162.827 3.75042 -5.57488 0
M  V30 1653 N 165.547 1.27147 0.931209 0
M  V30 1654 C 166.497 1.06227 2.01742 0
M  V30 1655 C 167.481 -0.00859065 1.60898 0
M  V30 1656 O 168.673 0.209537 1.75755 0
M  V30 1657 C 165.802 0.707787 3.35924 0
M  V30 1658 C 164.888 1.81661 3.83223 0
M  V30 1659 N 165.279 3.05564 4.03069 0
M  V30 1660 C 163.577 1.70249 4.12227 0
M  V30 1661 C 164.278 3.77697 4.42403 0
M  V30 1662 N 163.254 3.0544 4.49675 0
M  V30 1663 H 167.056 2.00261 2.15111 0
M  V30 1664 H 164.57 1.1781 1.11779 0
M  V30 1665 H 166.567 0.539043 4.134 0
M  V30 1666 H 165.227 -0.224964 3.2392 0
M  V30 1667 H 166.238 3.41363 3.89476 0
M  V30 1668 H 162.915 0.840329 4.08956 0
M  V30 1669 H 164.305 4.84168 4.65866 0
M  V30 1670 N 167.025 -1.13721 1.09112 0
M  V30 1671 C 168.271 -1.85198 0.826414 0
M  V30 1672 C 168.604 -1.83129 -0.646319 0
M  V30 1673 O 167.879 -1.2671 -1.47563 0
M  V30 1674 C 168.162 -3.33507 1.35812 0
M  V30 1675 C 168.015 -3.44108 2.89672 0
M  V30 1676 C 169.334 -4.28838 0.989256 0
M  V30 1677 H 166.453 -0.67243 0.301675 0
M  V30 1678 H 169.095 -1.33499 1.35197 0
M  V30 1679 H 167.245 -3.77666 0.911082 0
M  V30 1680 H 168.917 -3.08684 3.428 0
M  V30 1681 H 167.16 -2.85087 3.26967 0
M  V30 1682 H 167.831 -4.48388 3.21951 0
M  V30 1683 H 170.307 -3.92734 1.37475 0
M  V30 1684 H 169.183 -5.31051 1.38838 0
M  V30 1685 H 169.444 -4.4198 -0.102924 0
M  V30 1686 N 168.503 -0.877838 -1.30888 0
M  V30 1687 C 169.466 -0.344265 -2.266 0
M  V30 1688 C 170.466 0.50922 -1.52524 0
M  V30 1689 O 171.656 0.317398 -1.71284 0
M  V30 1690 C 168.788 0.510198 -3.37061 0
M  V30 1691 H 169.981 -1.1893 -2.7531 0
M  V30 1692 H 167.534 -0.654088 -1.41956 0
M  V30 1693 H 168.269 1.37612 -2.93655 0
M  V30 1694 H 168.054 -0.101047 -3.9197 0
M  V30 1695 H 169.544 0.875537 -4.08319 0
M  V30 1696 N 169.982 1.44106 -0.638065 0
M  V30 1697 C 171.231 2.01194 -0.142744 0
M  V30 1698 C 171.544 1.50835 1.24532 0
M  V30 1699 O 172.75 2.00096 1.83504 0
M  V30 1700 C 171.206 3.59319 -0.20442 0
M  V30 1701 C 170.814 4.18674 -1.59423 0
M  V30 1702 C 172.558 4.23854 0.234079 0
M  V30 1703 C 170.465 5.69045 -1.61065 0
M  V30 1704 H 169.395 0.752367 -0.0495998 0
M  V30 1705 H 172.046 1.65246 -0.797881 0
M  V30 1706 H 170.428 3.92598 0.517946 0
M  V30 1707 H 171.602 3.96921 -2.34074 0
M  V30 1708 H 169.917 3.66453 -1.97741 0
M  V30 1709 H 172.514 5.34155 0.241443 0
M  V30 1710 H 172.857 3.96688 1.2627 0
M  V30 1711 H 173.39 3.95403 -0.436025 0
M  V30 1712 H 170.129 6.00956 -2.61787 0
M  V30 1713 H 169.649 5.929 -0.90718 0
M  V30 1714 H 171.328 6.32809 -1.34766 0
M  V30 1715 N 171.46 0.379036 1.52974 0
M  V30 1716 C 172.685 -0.209353 2.06341 0
M  V30 1717 C 173.11 -1.40583 1.24972 0
M  V30 1718 O 172.468 -1.79246 0.272155 0
M  V30 1719 C 172.516 -0.567786 3.56102 0
M  V30 1720 O 171.62 -1.66318 3.77375 0
M  V30 1721 H 170.961 -0.0272919 0.663439 0
M  V30 1722 H 173.491 0.543536 1.97248 0
M  V30 1723 H 173.501 -0.835003 3.99364 0
M  V30 1724 H 172.176 0.307013 4.14765 0
M  V30 1725 H 170.753 -1.39048 3.46006 0
M  V30 1726 N 172.938 -1.57226 0.108567 0
M  V30 1727 C 174.215 -1.86333 -0.594939 0
M  V30 1728 C 174.595 -1.00788 -1.85486 0
M  V30 1729 O 173.943 -0.0839293 -2.28346 0
M  V30 1730 C 174.153 -3.37265 -0.897405 0
M  V30 1731 C 175.501 -4.05629 -1.25501 0
M  V30 1732 O 176.525 -3.42224 -0.987998 0
M  V30 1733 O 175.384 -5.17531 -1.75567 0
M  V30 1734 H 172.478 -0.771018 -0.2991 0
M  V30 1735 H 175.024 -1.69102 0.142283 0
M  V30 1736 H 173.796 -3.913 -0.00413806 0
M  V30 1737 H 173.419 -3.59889 -1.69014 0
M  V30 1738 N 174.416 0.165178 -1.56732 0
M  V30 1739 C 175.379 1.18822 -1.95995 0
M  V30 1740 C 176.379 1.3685 -0.84431 0
M  V30 1741 O 177.569 1.34152 -1.11126 0
M  V30 1742 C 174.701 2.5521 -2.26011 0
M  V30 1743 H 175.894 0.851825 -2.87548 0
M  V30 1744 H 173.447 0.407857 -1.50885 0
M  V30 1745 H 174.182 2.93852 -1.37191 0
M  V30 1746 H 173.967 2.43489 -3.07336 0
M  V30 1747 H 175.457 3.28927 -2.57288 0
M  V30 1748 N 175.894 1.51508 0.433938 0
M  V30 1749 C 176.804 1.75917 1.5521 0
M  V30 1750 C 177.82 0.643545 1.61662 0
M  V30 1751 O 178.996 0.926183 1.7884 0
M  V30 1752 C 176.061 1.88213 2.91164 0
M  V30 1753 C 175.122 3.12074 2.94802 0
M  V30 1754 C 174.355 3.23774 4.24271 0
M  V30 1755 O 174.578 2.4133 5.16833 0
M  V30 1756 O 173.512 4.16774 4.34262 0
M  V30 1757 H 177.338 2.70777 1.37527 0
M  V30 1758 H 174.923 1.36051 0.617293 0
M  V30 1759 H 176.805 1.98267 3.71845 0
M  V30 1760 H 175.48 0.965413 3.08968 0
M  V30 1761 H 174.387 3.07497 2.13065 0
M  V30 1762 H 175.72 4.03446 2.81943 0
M  V30 1763 N 177.372 -0.689602 1.41712 0
M  V30 1764 C 178.649 -1.44457 1.31877 0
M  V30 1765 C 179.029 -2.11039 -0.0508537 0
M  V30 1766 O 178.377 -2.02138 -1.06547 0
M  V30 1767 C 178.587 -2.45913 2.47645 0
M  V30 1768 C 179.935 -3.10991 2.89084 0
M  V30 1769 O 180.959 -2.56238 2.47428 0
M  V30 1770 O 179.818 -4.10174 3.61137 0
M  V30 1771 H 176.912 -0.64362 0.519309 0
M  V30 1772 H 179.458 -0.719576 1.53689 0
M  V30 1773 H 178.23 -1.95409 3.39015 0
M  V30 1774 H 177.853 -3.25913 2.27742 0
M  V30 1775 N 178.85 -1.27639 -0.924453 0
M  V30 1776 C 180.09 -1.15407 -1.68703 0
M  V30 1777 C 180.454 0.294581 -1.89727 0
M  V30 1778 O 181.655 0.539385 -2.63333 0
M  V30 1779 C 179.926 -1.9195 -3.0148 0
M  V30 1780 S 181.485 -1.95969 -3.92609 0
M  V30 1781 H 178.303 -0.411937 -0.579507 0
M  V30 1782 H 180.905 -1.61592 -1.10038 0
M  V30 1783 H 179.609 -2.96387 -2.83871 0
M  V30 1784 H 179.14 -1.46272 -3.65196 0
M  V30 1785 H 181.155 -1.05846 -4.84779 0
M  V30 1786 N 180.328 1.1314 -1.09713 0
M  V30 1787 C 181.574 1.84757 -0.836224 0
M  V30 1788 C 181.907 1.8347 0.636598 0
M  V30 1789 O 181.182 1.27491 1.46889 0
M  V30 1790 C 181.465 3.32782 -1.37578 0
M  V30 1791 C 181.318 3.42567 -2.91493 0
M  V30 1792 C 182.637 4.28307 -1.01198 0
M  V30 1793 H 179.756 0.67082 -0.305236 0
M  V30 1794 H 182.398 1.3278 -1.35903 0
M  V30 1795 H 180.548 3.77177 -0.931097 0
M  V30 1796 H 182.22 3.06862 -3.44432 0
M  V30 1797 H 180.463 2.83349 -3.28475 0
M  V30 1798 H 181.134 4.46674 -3.24324 0
M  V30 1799 H 183.61 3.91999 -1.39556 0
M  V30 1800 H 182.486 5.30307 -1.41653 0
M  V30 1801 H 182.747 4.42029 0.0794833 0
M  V30 1802 N 181.806 0.884767 1.30421 0
M  V30 1803 C 182.738 0.308655 2.27112 0
M  V30 1804 C 183.751 -0.536655 1.53701 0
M  V30 1805 O 184.94 -0.35624 1.74909 0
M  V30 1806 C 182.04 -0.579782 3.33904 0
M  V30 1807 C 181.213 0.236417 4.36761 0
M  V30 1808 C 180.272 -0.582482 5.22966 0
M  V30 1809 O 179.298 -0.00525502 5.692 0
M  V30 1810 N 180.5 -1.89163 5.48815 0
M  V30 1811 H 183.265 1.13964 2.77186 0
M  V30 1812 H 180.826 0.747731 1.43599 0
M  V30 1813 H 182.818 -1.13366 3.88497 0
M  V30 1814 H 181.388 -1.31144 2.83761 0
M  V30 1815 H 180.608 0.97174 3.82035 0
M  V30 1816 H 181.896 0.795924 5.02536 0
M  V30 1817 H 181.294 -2.38352 5.13035 0
M  V30 1818 H 179.851 -2.39296 6.06284 0
M  V30 1819 N 183.284 -1.43765 0.645699 0
M  V30 1820 C 184.214 -2.33471 -0.0370477 0
M  V30 1821 C 185.195 -1.49042 -0.819779 0
M  V30 1822 O 186.38 -1.77726 -0.782758 0
M  V30 1823 C 183.51 -3.32311 -1.0093 0
M  V30 1824 C 182.464 -4.2667 -0.337201 0
M  V30 1825 C 181.79 -5.1549 -1.42037 0
M  V30 1826 C 183.09 -5.16657 0.765706 0
M  V30 1827 H 184.784 -2.90809 0.712069 0
M  V30 1828 H 182.33 -1.39834 0.343876 0
M  V30 1829 H 184.283 -3.9396 -1.49578 0
M  V30 1830 H 183.007 -2.73213 -1.78948 0
M  V30 1831 H 181.666 -3.66374 0.128771 0
M  V30 1832 H 181.314 -4.52735 -2.1918 0
M  V30 1833 H 181.014 -5.79438 -0.975966 0
M  V30 1834 H 182.538 -5.80012 -1.90838 0
M  V30 1835 H 183.952 -5.72158 0.361702 0
M  V30 1836 H 182.349 -5.89286 1.13413 0
M  V30 1837 H 183.419 -4.56796 1.62683 0
M  V30 1838 N 184.763 -0.387143 -1.52771 0
M  V30 1839 C 185.711 0.463953 -2.27926 0
M  V30 1840 C 186.705 1.06493 -1.31741 0
M  V30 1841 O 187.911 1.00565 -1.49287 0
M  V30 1842 H 184.286 0.16837 -0.732909 0
M  V30 1843 H 186.257 -0.19141 -2.97785 0
M  V30 1844 C 185.006 1.5803 -3.09713 0
M  V30 1845 H 184.329 1.12718 -3.83581 0
M  V30 1846 H 185.769 2.15008 -3.65442 0
M  V30 1847 C 184.228 2.53509 -2.2189 0
M  V30 1848 O 184.758 3.56863 -1.84422 0
M  V30 1849 N 182.964 2.23199 -1.86093 0
M  V30 1850 H 182.511 1.39185 -2.16761 0
M  V30 1851 H 182.469 2.87333 -1.27621 0
M  V30 1852 N 186.241 1.57166 -0.116904 0
M  V30 1853 C 187.173 2.12271 0.864507 0
M  V30 1854 C 188.186 1.06494 1.23138 0
M  V30 1855 O 189.375 1.33873 1.18069 0
M  V30 1856 C 186.475 2.60564 2.16702 0
M  V30 1857 C 185.648 3.90416 1.97216 0
M  V30 1858 C 184.707 4.24329 3.11178 0
M  V30 1859 O 183.733 4.93182 2.84184 0
M  V30 1860 N 184.935 3.8148 4.37554 0
M  V30 1861 H 187.7 2.97102 0.393726 0
M  V30 1862 H 185.261 1.61759 0.0675805 0
M  V30 1863 H 187.253 2.80282 2.91932 0
M  V30 1864 H 185.823 1.80623 2.55135 0
M  V30 1865 H 185.043 3.79627 1.06192 0
M  V30 1866 H 186.331 4.75327 1.81499 0
M  V30 1867 H 185.729 3.25943 4.62361 0
M  V30 1868 H 184.286 4.06311 5.09661 0
M  V30 1869 N 187.719 -0.156864 1.56817 0
M  V30 1870 C 188.949 -0.885031 1.86684 0
M  V30 1871 C 189.357 -1.75696 0.701954 0
M  V30 1872 O 188.7 -1.80569 -0.337732 0
M  V30 1873 C 188.762 -1.80092 3.11138 0
M  V30 1874 C 188.426 -1.10714 4.43386 0
M  V30 1875 C 189.423 -0.465714 5.1781 0
M  V30 1876 C 187.108 -1.09959 4.90117 0
M  V30 1877 C 189.102 0.174002 6.37162 0
M  V30 1878 C 186.789 -0.456055 6.09396 0
M  V30 1879 C 187.787 0.179622 6.82764 0
M  V30 1880 O 187.475 0.812975 7.99779 0
M  V30 1881 H 187.207 -0.261813 0.623242 0
M  V30 1882 H 189.761 -0.157383 2.04796 0
M  V30 1883 H 187.991 -2.56926 2.89009 0
M  V30 1884 H 189.68 -2.40018 3.27332 0
M  V30 1885 H 190.446 -0.463427 4.82781 0
M  V30 1886 H 186.325 -1.58378 4.3294 0
M  V30 1887 H 189.869 0.670765 6.94368 0
M  V30 1888 H 185.766 -0.455975 6.43888 0
M  V30 1889 H 186.534 0.71366 8.15383 0
M  V30 1890 N 189.197 -1.51736 -0.425897 0
M  V30 1891 C 190.144 -1.73875 -1.51776 0
M  V30 1892 C 191.114 -0.580702 -1.55618 0
M  V30 1893 O 192.299 -0.81641 -1.72451 0
M  V30 1894 C 189.439 -1.88012 -2.89388 0
M  V30 1895 C 188.552 -3.15606 -2.94986 0
M  V30 1896 C 187.687 -3.20271 -4.23793 0
M  V30 1897 C 186.726 -4.42134 -4.23302 0
M  V30 1898 N 185.863 -4.44284 -5.43651 0
M  V30 1899 H 190.703 -2.67071 -1.32201 0
M  V30 1900 H 188.24 -1.32351 -0.642008 0
M  V30 1901 H 190.198 -1.9419 -3.69251 0
M  V30 1902 H 188.828 -0.98213 -3.07496 0
M  V30 1903 H 187.88 -3.18681 -2.07717 0
M  V30 1904 H 189.192 -4.05486 -2.90486 0
M  V30 1905 H 188.346 -3.25428 -5.12036 0
M  V30 1906 H 187.085 -2.28299 -4.30965 0
M  V30 1907 H 186.09 -4.3714 -3.3345 0
M  V30 1908 H 187.315 -5.35382 -4.17783 0
M  V30 1909 H 185.261 -3.55188 -5.51523 0
M  V30 1910 H 185.178 -5.27988 -5.41078 0
M  V30 1911 H 186.446 -4.53649 -6.33895 0
M  V30 1912 N 190.675 0.682077 -1.42076 0
M  V30 1913 C 191.605 1.80796 -1.47767 0
M  V30 1914 C 192.586 1.6677 -0.334954 0
M  V30 1915 O 193.771 1.863 -0.548264 0
M  V30 1916 C 190.901 3.19038 -1.37229 0
M  V30 1917 C 189.855 3.47789 -2.49453 0
M  V30 1918 C 189.181 4.8553 -2.23975 0
M  V30 1919 C 190.481 3.45411 -3.91776 0
M  V30 1920 H 192.175 1.7629 -2.41997 0
M  V30 1921 H 189.721 0.846721 -1.16476 0
M  V30 1922 H 191.674 3.97528 -1.39821 0
M  V30 1923 H 190.398 3.24204 -0.394907 0
M  V30 1924 H 189.057 2.71657 -2.46166 0
M  V30 1925 H 188.705 4.87337 -1.24547 0
M  V30 1926 H 188.405 5.0573 -2.99184 0
M  V30 1927 H 189.929 5.66312 -2.28304 0
M  V30 1928 H 191.343 4.13882 -3.96705 0
M  V30 1929 H 189.74 3.77145 -4.66778 0
M  V30 1930 H 190.81 2.44122 -4.18966 0
M  V30 1931 N 192.153 1.28127 0.917671 0
M  V30 1932 C 193.085 1.07517 2.02417 0
M  V30 1933 C 194.098 0.0281099 1.62776 0
M  V30 1934 O 195.287 0.270748 1.76435 0
M  V30 1935 C 192.387 0.610957 3.33347 0
M  V30 1936 C 191.56 1.73255 4.01624 0
M  V30 1937 C 190.619 1.26238 5.10833 0
M  V30 1938 O 189.645 1.96389 5.34247 0
M  V30 1939 N 190.847 0.123448 5.80369 0
M  V30 1940 H 193.612 2.02806 2.20658 0
M  V30 1941 H 191.173 1.19827 1.08871 0
M  V30 1942 H 193.165 0.280101 4.0373 0
M  V30 1943 H 191.735 -0.24898 3.11607 0
M  V30 1944 H 190.955 2.23319 3.24842 0
M  V30 1945 H 192.243 2.48503 4.43986 0
M  V30 1946 H 191.641 -0.461847 5.63812 0
M  V30 1947 H 190.198 -0.148158 6.51632 0
M  V30 1948 N 193.631 -1.12557 1.10312 0
M  V30 1949 C 194.856 -1.88405 0.867085 0
M  V30 1950 C 195.281 -1.79038 -0.576817 0
M  V30 1951 O 194.639 -1.14439 -1.40618 0
M  V30 1952 C 194.687 -3.3563 1.31851 0
M  V30 1953 O 193.791 -4.09565 0.482734 0
M  V30 1954 H 193.132 -0.585455 0.313271 0
M  V30 1955 H 195.662 -1.42352 1.4696 0
M  V30 1956 H 195.672 -3.86469 1.3079 0
M  V30 1957 H 194.347 -3.41765 2.37001 0
M  V30 1958 H 192.924 -3.68695 0.558448 0
M  V30 1959 N 195.109 -0.891671 -1.2995 0
M  V30 1960 C 196.019 -0.367691 -2.31701 0
M  V30 1961 C 197.035 0.533486 -1.6562 0
M  V30 1962 O 198.211 0.424997 -1.96865 0
M  V30 1963 C 195.276 0.403406 -3.44345 0
M  V30 1964 C 194.337 -0.528328 -4.26037 0
M  V30 1965 C 193.57 0.206063 -5.33302 0
M  V30 1966 O 193.793 1.43119 -5.52153 0
M  V30 1967 O 192.727 -0.447281 -6.00236 0
M  V30 1968 H 196.553 -1.21163 -2.78484 0
M  V30 1969 H 194.138 -0.655725 -1.34241 0
M  V30 1970 H 196.02 0.839753 -4.12948 0
M  V30 1971 H 194.695 1.22354 -2.99685 0
M  V30 1972 H 193.602 -1.01362 -3.60106 0
M  V30 1973 H 194.935 -1.31465 -4.74318 0
M  V30 1974 N 196.587 1.43421 -0.653314 0
M  V30 1975 C 197.836 2.01032 -0.164076 0
M  V30 1976 C 198.149 1.52147 1.22926 0
M  V30 1977 O 199.355 2.02031 1.81371 0
M  V30 1978 C 197.811 3.59082 -0.24252 0
M  V30 1979 C 197.419 4.1696 -1.63855 0
M  V30 1980 C 199.163 4.24079 0.18911 0
M  V30 1981 C 197.07 5.67304 -1.67092 0
M  V30 1982 H 196 0.751798 -0.0575769 0
M  V30 1983 H 198.651 1.6439 -0.815362 0
M  V30 1984 H 197.033 3.93125 0.476276 0
M  V30 1985 H 198.207 3.94416 -2.38271 0
M  V30 1986 H 196.522 3.64335 -2.01616 0
M  V30 1987 H 199.119 5.34381 0.184775 0
M  V30 1988 H 199.462 3.98005 1.22056 0
M  V30 1989 H 199.995 3.94918 -0.477938 0
M  V30 1990 H 196.734 5.98145 -2.68146 0
M  V30 1991 H 196.254 5.91904 -0.970014 0
M  V30 1992 H 197.933 6.31344 -1.4147 0
M  V30 1993 N 198.065 0.39524 1.52563 0
M  V30 1994 C 199.313 -0.184678 2.01254 0
M  V30 1995 C 199.634 -1.46822 1.28329 0
M  V30 1996 O 198.904 -1.91666 0.405094 0
M  V30 1997 H 197.484 -0.0712355 0.743596 0
M  V30 1998 H 200.146 0.528293 1.87603 0
M  V30 1999 H 199.242 -0.390681 3.09645 0
M  V30 2000 N 199.544 -1.57102 0.125237 0
M  V30 2001 C 200.491 -2.15641 -0.822655 0
M  V30 2002 C 201.461 -1.08313 -1.25927 0
M  V30 2003 O 202.646 -1.36251 -1.33567 0
M  V30 2004 C 199.786 -2.76504 -2.06494 0
M  V30 2005 C 198.899 -3.98158 -1.67612 0
M  V30 2006 C 198.034 -4.47088 -2.86854 0
M  V30 2007 C 197.073 -5.6126 -2.44242 0
M  V30 2008 N 196.21 -6.04905 -3.56419 0
M  V30 2009 H 201.05 -2.96313 -0.316625 0
M  V30 2010 H 198.587 -1.46388 -0.144588 0
M  V30 2011 H 200.545 -3.09925 -2.79289 0
M  V30 2012 H 199.175 -1.98512 -2.54545 0
M  V30 2013 H 198.227 -3.70858 -0.846661 0
M  V30 2014 H 199.539 -4.80934 -1.32301 0
M  V30 2015 H 198.693 -4.82451 -3.67867 0
M  V30 2016 H 197.432 -3.63275 -3.25396 0
M  V30 2017 H 196.437 -5.25495 -1.61663 0
M  V30 2018 H 197.662 -6.46843 -2.0681 0
M  V30 2019 H 195.608 -5.24032 -3.94623 0
M  V30 2020 H 195.525 -6.82552 -3.25051 0
M  V30 2021 H 196.793 -6.44907 -4.37853 0
M  V30 2022 N 201.022 0.148545 -1.56898 0
M  V30 2023 C 202.27 0.859717 -1.82902 0
M  V30 2024 C 202.591 1.81775 -0.70588 0
M  V30 2025 O 201.861 1.93994 0.272586 0
M  V30 2026 H 200.441 0.320469 -0.674766 0
M  V30 2027 H 203.103 0.142918 -1.94375 0
M  V30 2028 H 202.199 1.4229 -2.77777 0
M  V30 2029 N 202.5 1.5196 0.417844 0
M  V30 2030 C 203.463 1.74065 1.49111 0
M  V30 2031 C 204.463 0.610537 1.48758 0
M  V30 2032 O 205.653 0.87832 1.50437 0
M  V30 2033 C 202.785 1.81502 2.88565 0
M  V30 2034 H 203.978 2.69869 1.30807 0
M  V30 2035 H 201.531 1.42244 0.647785 0
M  V30 2036 H 202.266 0.875813 3.1225 0
M  V30 2037 H 202.051 2.63651 2.90225 0
M  V30 2038 H 203.541 2.00376 3.66387 0
M  V30 2039 N 203.978 -0.674533 1.42435 0
M  V30 2040 C 205.208 -1.46071 1.46105 0
M  V30 2041 C 205.616 -1.89067 0.0709605 0
M  V30 2042 O 204.959 -1.58731 -0.924677 0
M  V30 2043 C 205.021 -2.74145 2.32561 0
M  V30 2044 C 204.685 -2.53224 3.8043 0
M  V30 2045 C 205.682 -2.17809 4.72075 0
M  V30 2046 C 203.367 -2.6821 4.24698 0
M  V30 2047 C 205.361 -1.97648 6.05982 0
M  V30 2048 C 203.048 -2.47665 5.58664 0
M  V30 2049 C 204.046 -2.12437 6.49122 0
M  V30 2050 O 203.734 -1.9209 7.80613 0
M  V30 2051 H 203.466 -0.455959 0.499076 0
M  V30 2052 H 206.02 -0.836193 1.87609 0
M  V30 2053 H 204.25 -3.3908 1.85908 0
M  V30 2054 H 205.939 -3.36028 2.27683 0
M  V30 2055 H 206.705 -2.05826 4.39159 0
M  V30 2056 H 202.584 -2.94609 3.54579 0
M  V30 2057 H 206.128 -1.70075 6.7655 0
M  V30 2058 H 202.025 -2.59244 5.91154 0
M  V30 2059 H 202.793 -2.06686 7.91974 0
M  V30 2060 N 205.456 -1.28612 -0.910864 0
M  V30 2061 C 206.704 -1.15705 -1.65701 0
M  V30 2062 C 207.025 0.29416 -1.92769 0
M  V30 2063 O 206.295 1.20331 -1.54588 0
M  V30 2064 H 204.875 -0.425216 -0.614167 0
M  V30 2065 H 207.537 -1.61381 -1.0928 0
M  V30 2066 H 206.633 -1.6988 -2.61815 0
M  V30 2067 N 206.934 1.1197 -1.10907 0
M  V30 2068 C 208.18 1.8386 -0.855773 0
M  V30 2069 C 208.513 1.84134 0.617103 0
M  V30 2070 O 207.788 1.29041 1.45529 0
M  V30 2071 C 208.071 3.31305 -1.411 0
M  V30 2072 C 207.924 3.39456 -2.9511 0
M  V30 2073 C 209.243 4.2721 -1.05736 0
M  V30 2074 H 206.362 0.667545 -0.312334 0
M  V30 2075 H 209.004 1.31331 -1.37303 0
M  V30 2076 H 207.154 3.76169 -0.97105 0
M  V30 2077 H 208.826 3.03191 -3.47668 0
M  V30 2078 H 207.069 2.79849 -3.31462 0
M  V30 2079 H 207.74 4.43209 -3.29044 0
M  V30 2080 H 210.216 3.90497 -1.43706 0
M  V30 2081 H 209.092 5.28775 -1.47269 0
M  V30 2082 H 209.353 4.42088 0.0325958 0
M  V30 2083 N 208.412 0.89855 1.29475 0
M  V30 2084 C 209.658 0.524658 1.95896 0
M  V30 2085 C 209.991 -0.926468 1.70676 0
M  V30 2086 O 209.266 -1.65665 1.01908 0
M  V30 2087 C 209.549 0.81633 3.50725 0
M  V30 2088 C 209.402 2.31907 3.85408 0
M  V30 2089 C 210.721 0.302038 4.39062 0
M  V30 2090 H 207.84 0.19209 0.711527 0
M  V30 2091 H 210.482 1.12502 1.53112 0
M  V30 2092 H 208.632 0.305369 3.87298 0
M  V30 2093 H 210.304 2.89949 3.58786 0
M  V30 2094 H 208.547 2.78027 3.32992 0
M  V30 2095 H 209.218 2.47373 4.93468 0
M  V30 2096 H 211.694 0.739551 4.09475 0
M  V30 2097 H 210.57 0.535331 5.46283 0
M  V30 2098 H 210.831 -0.797216 4.34853 0
M  V30 2099 N 209.89 -1.43072 0.660911 0
M  V30 2100 C 211.306 -1.56169 0.329173 0
M  V30 2101 C 211.506 -1.64317 -1.16629 0
M  V30 2102 O 210.562 -1.60245 -1.95135 0
M  V30 2103 C 211.875 -2.81873 1.04729 0
M  V30 2104 C 213.423 -2.95627 1.02828 0
M  V30 2105 C 213.898 -4.24174 1.72744 0
M  V30 2106 N 215.389 -4.31055 1.69545 0
M  V30 2107 C 216.124 -5.29304 2.20511 0
M  V30 2108 N 215.62 -6.33786 2.79799 0
M  V30 2109 N 217.413 -5.21008 2.10966 0
M  V30 2110 H 209.564 -1.36027 1.63127 0
M  V30 2111 H 211.827 -0.653823 0.686454 0
M  V30 2112 H 211.533 -2.81942 2.10242 0
M  V30 2113 H 211.407 -3.72338 0.603702 0
M  V30 2114 H 213.794 -2.95094 -0.0184742 0
M  V30 2115 H 213.875 -2.06431 1.51063 0
M  V30 2116 H 213.519 -4.25467 2.7738 0
M  V30 2117 H 213.449 -5.1228 1.2197 0
M  V30 2118 H 215.94 -3.56174 1.26288 0
M  V30 2119 H 216.253 -7.05086 3.16344 0
M  V30 2120 H 214.598 -6.34387 2.83863 0
M  V30 2121 H 217.789 -4.38301 1.64347 0
M  V30 2122 H 217.962 -5.97416 2.50993 0
M  V30 2123 N 211.368 -0.403325 -1.52352 0
M  V30 2124 C 212.298 0.416205 -2.29761 0
M  V30 2125 C 213.279 1.05123 -1.33728 0
M  V30 2126 O 214.464 1.06134 -1.62632 0
M  V30 2127 C 211.594 1.53624 -3.11475 0
M  V30 2128 C 210.548 1.02653 -4.15507 0
M  V30 2129 C 209.874 2.23971 -4.85532 0
M  V30 2130 C 211.174 0.08463 -5.22231 0
M  V30 2131 H 212.868 -0.229701 -2.98518 0
M  V30 2132 H 210.414 -0.111913 -1.43564 0
M  V30 2133 H 212.367 2.1165 -3.64393 0
M  V30 2134 H 211.091 2.20994 -2.40477 0
M  V30 2135 H 209.75 0.46871 -3.63591 0
M  V30 2136 H 209.398 2.89883 -4.11068 0
M  V30 2137 H 209.098 1.90521 -5.55856 0
M  V30 2138 H 210.622 2.82614 -5.41259 0
M  V30 2139 H 212.036 0.573509 -5.70424 0
M  V30 2140 H 210.433 -0.160783 -5.99885 0
M  V30 2141 H 211.503 -0.86237 -4.7717 0
M  V30 2142 N 212.846 1.57033 -0.133567 0
M  V30 2143 C 213.809 2.14897 0.796995 0
M  V30 2144 C 214.809 1.0874 1.18458 0
M  V30 2145 O 215.999 1.34446 1.1077 0
M  V30 2146 C 213.131 2.70112 2.07973 0
M  V30 2147 H 214.324 2.98457 0.293873 0
M  V30 2148 H 211.877 1.55871 0.115787 0
M  V30 2149 H 212.612 1.9018 2.62682 0
M  V30 2150 H 212.397 3.47764 1.81115 0
M  V30 2151 H 213.887 3.14738 2.74462 0
M  V30 2152 N 214.325 -0.140222 1.56975 0
M  V30 2153 C 215.555 -0.865181 1.87612 0
M  V30 2154 C 215.963 -1.74942 0.72055 0
M  V30 2155 O 215.306 -1.80917 -0.318561 0
M  V30 2156 C 215.368 -1.76782 3.13031 0
M  V30 2157 C 215.032 -1.06005 4.44536 0
M  V30 2158 C 216.029 -0.410768 5.18275 0
M  V30 2159 C 213.714 -1.04754 4.91255 0
M  V30 2160 C 215.708 0.241572 6.36942 0
M  V30 2161 C 213.395 -0.391394 6.09845 0
M  V30 2162 C 214.393 0.252029 6.82535 0
M  V30 2163 O 214.081 0.897757 7.98871 0
M  V30 2164 H 213.813 -0.255188 0.625983 0
M  V30 2165 H 216.367 -0.135653 2.04952 0
M  V30 2166 H 214.597 -2.53846 2.91718 0
M  V30 2167 H 216.286 -2.36533 3.29859 0
M  V30 2168 H 217.052 -0.412195 4.83245 0
M  V30 2169 H 212.931 -1.53777 4.34596 0
M  V30 2170 H 216.475 0.744375 6.93617 0
M  V30 2171 H 212.372 -0.387656 6.44335 0
M  V30 2172 H 213.14 0.800102 8.1458 0
M  V30 2173 N 215.803 -1.52179 -0.40978 0
M  V30 2174 C 216.751 -1.76086 -1.51975 0
M  V30 2175 C 217.745 -0.627964 -1.57331 0
M  V30 2176 O 218.951 -0.809993 -1.60745 0
M  V30 2177 H 215.326 -0.556829 -0.505416 0
M  V30 2178 H 217.297 -2.69077 -1.28996 0
M  V30 2179 C 216.046 -1.92799 -2.8935 0
M  V30 2180 H 215.369 -2.79392 -2.85972 0
M  V30 2181 H 216.809 -2.13527 -3.66309 0
M  V30 2182 C 215.268 -0.694923 -3.29655 0
M  V30 2183 O 215.798 0.13751 -4.01465 0
M  V30 2184 N 214.004 -0.53101 -2.85707 0
M  V30 2185 H 213.551 -1.20952 -2.27439 0
M  V30 2186 H 213.509 0.292718 -3.13034 0
M  V30 2187 N 217.281 0.66697 -1.42791 0
M  V30 2188 C 218.191 1.80962 -1.49299 0
M  V30 2189 C 219.207 1.69775 -0.381108 0
M  V30 2190 O 220.383 1.91188 -0.633188 0
M  V30 2191 C 217.448 3.17156 -1.40045 0
M  V30 2192 C 216.509 3.40242 -2.6179 0
M  V30 2193 C 215.742 4.69939 -2.52969 0
M  V30 2194 O 215.965 5.48372 -1.56985 0
M  V30 2195 O 214.899 4.94441 -3.43237 0
M  V30 2196 H 218.725 1.78427 -2.45759 0
M  V30 2197 H 216.31 0.823713 -1.24641 0
M  V30 2198 H 218.192 3.98413 -1.37276 0
M  V30 2199 H 216.867 3.20312 -0.467138 0
M  V30 2200 H 215.774 2.58802 -2.70134 0
M  V30 2201 H 217.107 3.41923 -3.54047 0
M  V30 2202 N 218.759 1.29093 0.90403 0
M  V30 2203 C 219.984 1.19809 1.69294 0
M  V30 2204 C 220.409 -0.238481 1.86582 0
M  V30 2205 O 219.767 -1.1723 1.383 0
M  V30 2206 C 219.815 1.91202 3.05736 0
M  V30 2207 O 218.919 1.22611 3.93752 0
M  V30 2208 H 218.26 0.415385 0.518027 0
M  V30 2209 H 220.79 1.70586 1.12967 0
M  V30 2210 H 220.8 1.99487 3.55906 0
M  V30 2211 H 219.475 2.95692 2.92471 0
M  V30 2212 H 218.052 1.22554 3.52186 0
M  V30 2213 N 220.237 -1.11381 1.11499 0
M  V30 2214 C 221.147 -2.21019 0.786628 0
M  V30 2215 C 222.163 -1.72597 -0.220507 0
M  V30 2216 O 223.339 -2.01321 -0.0565251 0
M  V30 2217 C 220.404 -3.459 0.235333 0
M  V30 2218 C 219.465 -4.09107 1.30115 0
M  V30 2219 C 218.698 -5.28027 0.776068 0
M  V30 2220 O 218.921 -5.6904 -0.393661 0
M  V30 2221 O 217.855 -5.81835 1.54114 0
M  V30 2222 H 221.681 -2.51521 1.70209 0
M  V30 2223 H 219.266 -1.19928 0.890928 0
M  V30 2224 H 221.148 -4.21346 -0.067715 0
M  V30 2225 H 219.823 -3.17049 -0.652828 0
M  V30 2226 H 218.73 -3.35391 1.65722 0
M  V30 2227 H 220.063 -4.42139 2.16273 0
M  V30 2228 N 221.715 -0.905404 -1.28997 0
M  V30 2229 C 222.992 -0.453513 -1.9027 0
M  V30 2230 C 223.372 1.06721 -1.82137 0
M  V30 2231 O 222.72 1.91159 -1.25182 0
M  V30 2232 C 222.93 -0.974494 -3.35119 0
M  V30 2233 C 224.278 -1.0216 -4.12127 0
M  V30 2234 O 225.302 -0.922557 -3.44046 0
M  V30 2235 O 224.161 -1.17121 -5.33802 0
M  V30 2236 H 221.255 -0.142347 -0.814657 0
M  V30 2237 H 223.801 -0.995642 -1.37423 0
M  V30 2238 H 222.573 -2.01848 -3.35221 0
M  V30 2239 H 222.196 -0.412706 -3.95452 0
M  V30 2240 N 223.193 1.4272 -0.668489 0
M  V30 2241 C 224.609 1.55992 -0.33745 0
M  V30 2242 C 224.809 1.64933 1.15756 0
M  V30 2243 O 223.865 1.61278 1.94282 0
M  V30 2244 C 225.178 2.81314 -1.06222 0
M  V30 2245 C 226.726 2.95078 -1.04394 0
M  V30 2246 C 227.201 4.23252 -1.74991 0
M  V30 2247 N 228.692 4.3015 -1.71829 0
M  V30 2248 C 229.427 5.28127 -2.23315 0
M  V30 2249 N 228.923 6.32293 -2.83156 0
M  V30 2250 N 230.716 5.19882 -2.13726 0
M  V30 2251 H 222.867 1.3516 -1.63846 0
M  V30 2252 H 225.13 0.650174 -0.689912 0
M  V30 2253 H 224.836 2.80823 -2.11734 0
M  V30 2254 H 224.71 3.72012 -0.62344 0
M  V30 2255 H 227.097 2.951 0.0028244 0
M  V30 2256 H 227.178 2.05627 -1.52155 0
M  V30 2257 H 226.822 4.2399 -2.79633 0
M  V30 2258 H 226.752 5.11626 -1.24685 0
M  V30 2259 H 229.243 3.55499 -1.28175 0
M  V30 2260 H 229.556 7.03398 -3.20079 0
M  V30 2261 H 227.901 6.32873 -2.87223 0
M  V30 2262 H 231.092 4.37423 -1.66669 0
M  V30 2263 H 231.265 5.96077 -2.54158 0
M  V30 2264 N 224.671 0.411399 1.52136 0
M  V30 2265 C 225.621 -0.430376 2.23901 0
M  V30 2266 C 226.605 -1.0116 1.25121 0
M  V30 2267 O 227.797 -0.934044 1.50348 0
M  V30 2268 C 224.926 -1.54527 3.06556 0
M  V30 2269 C 224.012 -0.9747 4.12747 0
M  V30 2270 N 224.403 -0.130991 5.0563 0
M  V30 2271 C 222.701 -1.24497 4.28271 0
M  V30 2272 C 223.402 0.186689 5.814 0
M  V30 2273 N 222.378 -0.42304 5.41951 0
M  V30 2274 H 226.18 0.220509 2.93072 0
M  V30 2275 H 223.694 0.221952 1.60876 0
M  V30 2276 H 225.691 -2.16093 3.56524 0
M  V30 2277 H 224.351 -2.19875 2.38925 0
M  V30 2278 H 225.362 0.23349 5.17373 0
M  V30 2279 H 222.039 -1.89787 3.7187 0
M  V30 2280 H 223.429 0.871673 6.66222 0
M  V30 2281 N 226.149 -1.5696 0.141893 0
M  V30 2282 C 227.379 -2.00031 -0.516828 0
M  V30 2283 C 227.787 -1.02091 -1.59293 0
M  V30 2284 O 227.13 -0.00909657 -1.83698 0
M  V30 2285 C 227.192 -3.39534 -1.1814 0
M  V30 2286 C 226.856 -4.56313 -0.250513 0
M  V30 2287 C 227.853 -5.17295 0.519839 0
M  V30 2288 C 225.538 -5.02061 -0.154907 0
M  V30 2289 C 227.532 -6.2243 1.3733 0
M  V30 2290 C 225.219 -6.07053 0.702161 0
M  V30 2291 C 226.217 -6.67106 1.46487 0
M  V30 2292 O 225.905 -7.70066 2.30767 0
M  V30 2293 H 225.637 -0.661451 -0.139493 0
M  V30 2294 H 228.191 -2.04086 0.231926 0
M  V30 2295 H 226.421 -3.32302 -1.97769 0
M  V30 2296 H 228.11 -3.66745 -1.73933 0
M  V30 2297 H 228.876 -4.82852 0.45598 0
M  V30 2298 H 224.755 -4.5505 -0.7383 0
M  V30 2299 H 228.299 -6.69233 1.96909 0
M  V30 2300 H 224.196 -6.40923 0.76733 0
M  V30 2301 H 224.964 -7.87264 2.23959 0
M  V30 2302 N 227.627 0.131896 -1.57047 0
M  V30 2303 C 228.59 1.14638 -1.98471 0
M  V30 2304 C 229.59 1.35029 -0.873148 0
M  V30 2305 O 230.78 1.31764 -1.13946 0
M  V30 2306 C 227.912 2.50358 -2.31373 0
M  V30 2307 H 229.105 0.79064 -2.8929 0
M  V30 2308 H 226.658 0.375761 -1.51716 0
M  V30 2309 H 227.393 2.90876 -1.43393 0
M  V30 2310 H 227.178 2.36915 -3.12432 0
M  V30 2311 H 228.668 3.23395 -2.64207 0
M  V30 2312 N 229.106 1.52395 0.401703 0
M  V30 2313 C 230.039 1.70999 1.51111 0
M  V30 2314 C 231.017 0.55765 1.52738 0
M  V30 2315 O 232.201 0.785912 1.71335 0
M  V30 2316 C 229.328 1.75607 2.8962 0
M  V30 2317 C 228.374 2.97227 3.05873 0
M  V30 2318 S 229.207 4.57439 2.78405 0
M  V30 2319 C 230.363 4.64844 4.19131 0
M  V30 2320 H 230.596 2.6483 1.35102 0
M  V30 2321 H 228.129 1.42527 0.593762 0
M  V30 2322 H 230.087 1.78947 3.69443 0
M  V30 2323 H 228.748 0.828914 3.02965 0
M  V30 2324 H 227.941 2.96955 4.07227 0
M  V30 2325 H 227.543 2.91813 2.33925 0
M  V30 2326 H 229.835 4.42677 5.12877 0
M  V30 2327 H 230.778 5.66807 4.24424 0
M  V30 2328 H 231.186 3.93804 4.04448 0
M  V30 2329 N 230.584 -0.659388 1.43143 0
M  V30 2330 C 231.531 -1.77249 1.47822 0
M  V30 2331 C 232.501 -1.62818 0.328558 0
M  V30 2332 O 233.686 -1.83151 0.534838 0
M  V30 2333 C 230.826 -3.15371 1.40126 0
M  V30 2334 C 229.939 -3.4098 2.65249 0
M  V30 2335 C 229.074 -4.68915 2.49584 0
M  V30 2336 C 228.113 -4.87608 3.70006 0
M  V30 2337 N 227.25 -6.06796 3.53189 0
M  V30 2338 H 232.09 -1.72584 2.42938 0
M  V30 2339 H 229.627 -0.842297 1.20598 0
M  V30 2340 H 231.585 -3.9521 1.33659 0
M  V30 2341 H 230.215 -3.19121 0.485964 0
M  V30 2342 H 229.267 -2.55282 2.8202 0
M  V30 2343 H 230.579 -3.50681 3.54717 0
M  V30 2344 H 229.733 -5.56871 2.4079 0
M  V30 2345 H 228.472 -4.61524 1.5763 0
M  V30 2346 H 227.477 -3.9809 3.79215 0
M  V30 2347 H 228.702 -4.96834 4.62961 0
M  V30 2348 H 226.648 -6.00549 2.63965 0
M  V30 2349 H 226.565 -6.17428 4.36255 0
M  V30 2350 H 227.833 -6.9739 3.48236 0
M  V30 2351 N 232.062 -1.29571 -0.897171 0
M  V30 2352 C 233.308 -1.17863 -1.65034 0
M  V30 2353 C 233.641 0.268729 -1.92332 0
M  V30 2354 O 232.916 1.19378 -1.53555 0
M  V30 2355 C 233.199 -1.995 -2.99786 0
M  V30 2356 C 233.052 -3.5239 -2.79538 0
M  V30 2357 C 234.371 -1.82335 -4.00552 0
M  V30 2358 H 231.49 -0.429528 -0.598895 0
M  V30 2359 H 234.132 -1.59072 -1.03905 0
M  V30 2360 H 232.282 -1.64485 -3.51962 0
M  V30 2361 H 233.954 -3.97401 -2.34244 0
M  V30 2362 H 232.197 -3.77187 -2.14273 0
M  V30 2363 H 232.868 -4.04787 -3.75302 0
M  V30 2364 H 235.344 -2.12924 -3.57495 0
M  V30 2365 H 234.22 -2.41801 -4.92771 0
M  V30 2366 H 234.481 -0.779209 -4.35179 0
M  V30 2367 N 233.54 1.10788 -1.12088 0
M  V30 2368 C 234.47 2.19083 -0.807755 0
M  V30 2369 C 235.451 1.6858 0.226859 0
M  V30 2370 O 236.636 1.93997 0.0888475 0
M  V30 2371 C 233.766 3.46344 -0.257576 0
M  V30 2372 C 232.72 4.101 -1.22483 0
M  V30 2373 C 232.046 5.32016 -0.535052 0
M  V30 2374 C 233.346 4.54236 -2.57811 0
M  V30 2375 H 235.04 2.45534 -1.71328 0
M  V30 2376 H 232.586 1.1801 -0.825205 0
M  V30 2377 H 234.539 4.21392 -0.0262679 0
M  V30 2378 H 233.263 3.19373 0.683278 0
M  V30 2379 H 231.922 3.37054 -1.44189 0
M  V30 2380 H 231.57 5.01319 0.410827 0
M  V30 2381 H 231.27 5.75625 -1.18024 0
M  V30 2382 H 232.794 6.09799 -0.312695 0
M  V30 2383 H 234.208 5.20575 -2.40155 0
M  V30 2384 H 232.605 5.08682 -3.18375 0
M  V30 2385 H 233.675 3.6734 -3.16528 0
M  V30 2386 N 235.018 0.912232 1.28515 0
M  V30 2387 C 236.243 0.559774 1.99703 0
M  V30 2388 C 236.668 -0.851393 1.67729 0
M  V30 2389 O 236.026 -1.56875 0.908834 0
M  V30 2390 C 236.074 0.773874 3.52198 0
M  V30 2391 O 235.178 -0.167842 4.12058 0
M  V30 2392 H 234.519 0.21723 0.627461 0
M  V30 2393 H 237.049 1.22725 1.63706 0
M  V30 2394 H 237.059 0.683386 4.02236 0
M  V30 2395 H 235.734 1.80261 3.74805 0
M  V30 2396 H 234.311 -0.0287509 3.72889 0
M  V30 2397 N 236.496 -1.42363 0.676048 0
M  V30 2398 C 237.443 -2.308 -0.00150904 0
M  V30 2399 C 238.413 -1.46032 -0.791444 0
M  V30 2400 O 239.598 -1.74861 -0.76344 0
M  V30 2401 C 236.738 -3.31883 -0.945919 0
M  V30 2402 C 235.851 -4.31741 -0.149675 0
M  V30 2403 C 234.986 -5.19898 -1.08995 0
M  V30 2404 C 234.025 -6.11434 -0.285465 0
M  V30 2405 N 233.162 -6.92138 -1.17851 0
M  V30 2406 H 238.002 -2.88187 0.758455 0
M  V30 2407 H 235.539 -1.41952 0.38576 0
M  V30 2408 H 237.497 -3.89019 -1.50731 0
M  V30 2409 H 236.127 -2.76093 -1.6725 0
M  V30 2410 H 235.179 -3.76713 0.528359 0
M  V30 2411 H 236.491 -4.96534 0.474866 0
M  V30 2412 H 235.645 -5.81772 -1.72123 0
M  V30 2413 H 234.384 -4.55284 -1.74837 0
M  V30 2414 H 233.389 -5.48627 0.359018 0
M  V30 2415 H 234.614 -6.78097 0.368883 0
M  V30 2416 H 232.56 -6.30152 -1.82332 0
M  V30 2417 H 232.477 -7.53542 -0.609082 0
M  V30 2418 H 233.745 -7.58499 -1.79722 0
M  V30 2419 N 237.974 -0.419461 -1.51915 0
M  V30 2420 C 238.921 0.400927 -2.27291 0
M  V30 2421 C 239.891 1.03224 -1.30131 0
M  V30 2422 O 241.076 1.05455 -1.59009 0
M  V30 2423 C 238.216 1.50603 -3.10504 0
M  V30 2424 C 237.329 0.89462 -4.22635 0
M  V30 2425 C 236.464 1.97328 -4.93189 0
M  V30 2426 C 235.503 1.33935 -5.97267 0
M  V30 2427 N 234.64 2.3586 -6.61298 0
M  V30 2428 H 239.48 -0.248251 -2.96964 0
M  V30 2429 H 237.017 -0.134266 -1.46486 0
M  V30 2430 H 238.975 2.15783 -3.57062 0
M  V30 2431 H 237.605 2.12509 -2.42981 0
M  V30 2432 H 236.657 0.131583 -3.80172 0
M  V30 2433 H 237.969 0.391641 -4.9726 0
M  V30 2434 H 237.123 2.70211 -5.43204 0
M  V30 2435 H 235.862 2.50994 -4.18155 0
M  V30 2436 H 234.867 0.595896 -5.46561 0
M  V30 2437 H 236.092 0.810252 -6.74249 0
M  V30 2438 H 234.038 2.88639 -5.89087 0
M  V30 2439 H 233.955 1.90403 -7.3163 0
M  V30 2440 H 235.223 3.08282 -7.15949 0
M  V30 2441 N 239.452 1.56882 -0.150215 0
M  V30 2442 C 240.399 2.16922 0.788244 0
M  V30 2443 C 241.369 1.10303 1.24187 0
M  V30 2444 O 242.554 1.38359 1.31383 0
M  V30 2445 C 239.694 2.79754 2.02068 0
M  V30 2446 C 238.807 4.00775 1.61257 0
M  V30 2447 C 237.942 4.51595 2.79705 0
M  V30 2448 C 236.981 5.65074 2.35282 0
M  V30 2449 N 236.118 6.10499 3.4675 0
M  V30 2450 H 240.958 2.96779 0.269444 0
M  V30 2451 H 238.495 1.46599 0.12128 0
M  V30 2452 H 240.453 3.14329 2.74323 0
M  V30 2453 H 239.083 2.02536 2.51354 0
M  V30 2454 H 238.135 3.72158 0.787553 0
M  V30 2455 H 239.447 4.82978 1.24633 0
M  V30 2456 H 238.601 4.88242 3.60145 0
M  V30 2457 H 237.34 3.68406 3.19576 0
M  V30 2458 H 236.345 5.28 1.53283 0
M  V30 2459 H 237.57 6.50052 1.96493 0
M  V30 2460 H 235.516 5.30243 3.86236 0
M  V30 2461 H 235.433 6.87637 3.14152 0
M  V30 2462 H 236.701 6.51791 4.27537 0
M  V30 2463 N 240.93 -0.123565 1.57115 0
M  V30 2464 C 241.86 -1.15309 2.03042 0
M  V30 2465 C 242.841 -1.43454 0.914061 0
M  V30 2466 O 244.026 -1.53973 1.18347 0
M  V30 2467 C 241.156 -2.48043 2.43089 0
M  V30 2468 C 240.11 -2.3437 3.58127 0
M  V30 2469 C 239.436 -3.72026 3.84059 0
M  V30 2470 C 240.736 -1.80804 4.90007 0
M  V30 2471 H 242.43 -0.771102 2.893 0
M  V30 2472 H 239.976 -0.369479 1.39179 0
M  V30 2473 H 241.929 -3.20311 2.73823 0
M  V30 2474 H 240.653 -2.88122 1.53796 0
M  V30 2475 H 239.312 -1.64551 3.27595 0
M  V30 2476 H 238.96 -4.09582 2.91979 0
M  V30 2477 H 238.66 -3.63732 4.6149 0
M  V30 2478 H 240.184 -4.45806 4.1724 0
M  V30 2479 H 241.598 -2.42886 5.19307 0
M  V30 2480 H 239.995 -1.83343 5.71407 0
M  V30 2481 H 241.065 -0.76528 4.78823 0
M  V30 2482 N 242.408 -1.52605 -0.393616 0
M  V30 2483 C 243.338 -1.80022 -1.48709 0
M  V30 2484 C 244.319 -0.651995 -1.57108 0
M  V30 2485 O 245.504 -0.89913 -1.72132 0
M  V30 2486 C 242.634 -1.96492 -2.86371 0
M  V30 2487 C 241.588 -3.12161 -2.92813 0
M  V30 2488 C 240.914 -3.13877 -4.3288 0
M  V30 2489 C 242.214 -4.51322 -2.6288 0
M  V30 2490 H 243.908 -2.71589 -1.26015 0
M  V30 2491 H 241.454 -1.30684 -0.604778 0
M  V30 2492 H 243.407 -2.14255 -3.62867 0
M  V30 2493 H 242.131 -1.01611 -3.10391 0
M  V30 2494 H 240.79 -2.94173 -2.18764 0
M  V30 2495 H 240.438 -2.16687 -4.53933 0
M  V30 2496 H 240.138 -3.91576 -4.38112 0
M  V30 2497 H 241.662 -3.33789 -5.1129 0
M  V30 2498 H 243.076 -4.69435 -3.29096 0
M  V30 2499 H 241.473 -5.31053 -2.79468 0
M  V30 2500 H 242.543 -4.58353 -1.58242 0
M  V30 2501 N 243.887 0.651787 -1.4349 0
M  V30 2502 C 244.834 1.76462 -1.4876 0
M  V30 2503 C 245.804 1.62641 -0.337189 0
M  V30 2504 O 246.989 1.82864 -0.544544 0
M  V30 2505 C 244.129 3.14623 -1.41796 0
M  V30 2506 C 243.242 3.39568 -2.67053 0
M  V30 2507 C 242.377 4.67585 -2.52068 0
M  V30 2508 C 241.416 4.85639 -3.72587 0
M  V30 2509 N 240.553 6.04915 -3.56402 0
M  V30 2510 H 245.393 1.71293 -2.43849 0
M  V30 2511 H 242.93 0.835889 -1.21043 0
M  V30 2512 H 244.888 3.94496 -1.35753 0
M  V30 2513 H 243.518 3.18859 -0.50288 0
M  V30 2514 H 242.57 2.53783 -2.8337 0
M  V30 2515 H 243.882 3.48795 -3.56572 0
M  V30 2516 H 243.036 5.55586 -2.4374 0
M  V30 2517 H 241.775 4.60681 -1.60075 0
M  V30 2518 H 240.78 3.96073 -3.81321 0
M  V30 2519 H 242.005 4.94372 -4.65589 0
M  V30 2520 H 239.951 5.9914 -2.67146 0
M  V30 2521 H 239.868 6.15106 -4.39524 0
M  V30 2522 H 241.136 6.95533 -3.51929 0
M  V30 2523 N 245.365 1.30045 0.890287 0
M  V30 2524 C 246.297 1.11786 2.00091 0
M  V30 2525 C 247.31 0.0626307 1.62679 0
M  V30 2526 O 248.499 0.308112 1.75821 0
M  V30 2527 C 245.599 0.681527 3.31977 0
M  V30 2528 C 244.772 1.81735 3.97858 0
M  V30 2529 C 243.831 1.37045 5.08041 0
M  V30 2530 O 242.857 2.07677 5.29961 0
M  V30 2531 N 244.059 0.246525 5.79976 0
M  V30 2532 H 246.824 2.07441 2.16306 0
M  V30 2533 H 244.385 1.2211 1.06305 0
M  V30 2534 H 246.377 0.365675 4.03045 0
M  V30 2535 H 244.947 -0.182828 3.12065 0
M  V30 2536 H 244.167 2.30159 3.20032 0
M  V30 2537 H 245.455 2.57865 4.38615 0
M  V30 2538 H 244.853 -0.34215 5.64664 0
M  V30 2539 H 243.41 -0.00990438 6.51799 0
M  V30 2540 N 246.843 -1.10192 1.12674 0
M  V30 2541 C 248.073 -1.85713 0.905213 0
M  V30 2542 C 248.481 -1.81056 -0.549108 0
M  V30 2543 O 247.824 -1.19927 -1.39151 0
M  V30 2544 C 247.886 -3.34972 1.30516 0
M  V30 2545 C 247.55 -3.63385 2.77129 0
M  V30 2546 C 248.547 -3.59772 3.75313 0
M  V30 2547 C 246.232 -3.91981 3.14096 0
M  V30 2548 C 248.226 -3.84354 5.08479 0
M  V30 2549 C 245.913 -4.16218 4.47443 0
M  V30 2550 C 246.911 -4.12395 5.44444 0
M  V30 2551 O 246.599 -4.36014 6.75387 0
M  V30 2552 H 246.331 -0.593719 0.323223 0
M  V30 2553 H 248.885 -1.40198 1.50112 0
M  V30 2554 H 247.115 -3.81156 0.652463 0
M  V30 2555 H 248.804 -3.91886 1.05736 0
M  V30 2556 H 249.57 -3.37716 3.48099 0
M  V30 2557 H 245.449 -3.94085 2.39202 0
M  V30 2558 H 248.993 -3.81285 5.84181 0
M  V30 2559 H 244.89 -4.37754 4.74386 0
M  V30 2560 H 245.658 -4.53516 6.8137 0
M  V30 2561 N 248.321 -0.919034 -1.28029 0
M  V30 2562 C 249.569 -0.553838 -1.94363 0
M  V30 2563 C 249.89 0.906357 -1.72656 0
M  V30 2564 O 249.16 1.64143 -1.0693 0
M  V30 2565 H 247.74 -0.201834 -0.719216 0
M  V30 2566 H 250.402 -1.16954 -1.55909 0
M  V30 2567 H 249.498 -0.752758 -3.02886 0
M  V30 2568 N 249.799 1.42003 -0.683588 0
M  V30 2569 C 251.046 2.01413 -0.209514 0
M  V30 2570 C 251.374 1.54088 1.1869 0
M  V30 2571 O 250.629 0.737591 1.81268 0
M  V30 2572 C 250.928 3.56827 -0.202357 0
M  V30 2573 C 250.594 4.23617 -1.54464 0
M  V30 2574 C 249.256 4.41577 -1.91215 0
M  V30 2575 C 251.608 4.61178 -2.42826 0
M  V30 2576 C 248.936 4.9437 -3.15935 0
M  V30 2577 C 251.288 5.15355 -3.66867 0
M  V30 2578 C 249.952 5.31528 -4.03776 0
M  V30 2579 H 249.222 0.737023 -0.0766668 0
M  V30 2580 H 251.869 1.70067 -0.880312 0
M  V30 2581 H 250.174 3.87892 0.551969 0
M  V30 2582 H 251.871 4.00588 0.181793 0
M  V30 2583 H 248.461 4.10004 -1.24877 0
M  V30 2584 H 252.645 4.46968 -2.15717 0
M  V30 2585 H 247.901 5.05076 -3.44541 0
M  V30 2586 H 252.075 5.43402 -4.35531 0
M  V30 2587 H 249.702 5.72199 -5.00492 0
M  V30 2588 N 251.277 0.427512 1.51691 0
M  V30 2589 C 252.688 -0.0378867 1.86662 0
M  V30 2590 C 253.039 -1.42819 1.34525 0
M  V30 2591 O 252.164 -2.05037 0.692014 0
M  V30 2592 C 252.759 -0.0755266 3.38716 0
M  V30 2593 C 251.318 -0.485309 3.73258 0
M  V30 2594 C 250.465 0.328399 2.75349 0
M  V30 2595 H 253.416 0.64379 1.45055 0
M  V30 2596 H 253.437 -0.887056 3.70016 0
M  V30 2597 H 252.949 0.936487 3.76632 0
M  V30 2598 H 251.05 -1.50329 3.40928 0
M  V30 2599 H 251.163 -0.21693 4.78609 0
M  V30 2600 H 249.527 -0.211905 2.53817 0
M  V30 2601 H 250.31 1.3391 3.16106 0
M  V30 2602 N 252.755 -1.56801 0.158532 0
M  V30 2603 C 254.171 -1.5837 -0.197774 0
M  V30 2604 C 254.371 -1.17334 -1.63814 0
M  V30 2605 O 253.427 -0.878988 -2.36707 0
M  V30 2606 C 254.74 -3.00615 0.0714459 0
M  V30 2607 C 256.288 -3.12999 0.00864533 0
M  V30 2608 C 256.763 -4.57313 0.250685 0
M  V30 2609 N 258.254 -4.62777 0.198014 0
M  V30 2610 C 258.989 -5.72271 0.359642 0
M  V30 2611 N 258.485 -6.90371 0.579625 0
M  V30 2612 N 260.278 -5.61318 0.296438 0
M  V30 2613 H 252.429 -1.81765 1.09887 0
M  V30 2614 H 254.692 -0.841849 0.435884 0
M  V30 2615 H 254.398 -3.35068 1.06874 0
M  V30 2616 H 254.272 -3.71683 -0.642757 0
M  V30 2617 H 256.659 -2.7838 -0.979217 0
M  V30 2618 H 256.74 -2.44393 0.755359 0
M  V30 2619 H 256.384 -4.92639 1.2357 0
M  V30 2620 H 256.314 -5.24061 -0.516489 0
M  V30 2621 H 258.805 -3.77885 0.0331115 0
M  V30 2622 H 259.118 -7.69689 0.69275 0
M  V30 2623 H 257.463 -6.92264 0.616087 0
M  V30 2624 H 260.654 -4.67932 0.125258 0
M  V30 2625 H 260.827 -6.46599 0.425831 0
M  V30 2626 N 254.233 0.115231 -1.57178 0
M  V30 2627 C 255.649 0.468877 -1.52557 0
M  V30 2628 C 255.849 1.81649 -0.872125 0
M  V30 2629 O 254.905 2.48347 -0.45606 0
M  V30 2630 C 256.218 0.4499 -2.97315 0
M  V30 2631 C 257.766 0.533185 -3.08425 0
M  V30 2632 C 258.241 0.54456 -4.54751 0
M  V30 2633 N 259.732 0.605892 -4.5922 0
M  V30 2634 C 260.467 0.636203 -5.6986 0
M  V30 2635 N 259.963 0.623931 -6.89985 0
M  V30 2636 N 261.756 0.679496 -5.57978 0
M  V30 2637 H 253.907 -0.767712 -1.9804 0
M  V30 2638 H 256.17 -0.283609 -0.904583 0
M  V30 2639 H 255.876 -0.472721 -3.48509 0
M  V30 2640 H 255.75 1.27632 -3.5495 0
M  V30 2641 H 258.137 1.44623 -2.57232 0
M  V30 2642 H 258.218 -0.320995 -2.53778 0
M  V30 2643 H 257.862 -0.364452 -5.06591 0
M  V30 2644 H 257.792 1.41568 -5.07214 0
M  V30 2645 H 260.283 0.621386 -3.72756 0
M  V30 2646 H 260.596 0.649787 -7.70063 0
M  V30 2647 H 258.941 0.591296 -6.9248 0
M  V30 2648 H 262.132 0.686472 -4.63039 0
M  V30 2649 H 262.305 0.69965 -6.44212 0
M  V30 2650 N 255.711 1.52812 0.385517 0
M  V30 2651 C 257.122 1.5993 0.963293 0
M  V30 2652 C 257.473 0.454302 1.90868 0
M  V30 2653 O 256.598 -0.422132 2.12243 0
M  V30 2654 C 257.193 2.89871 1.75387 0
M  V30 2655 C 255.752 2.99389 2.28129 0
M  V30 2656 C 254.899 2.55071 1.08783 0
M  V30 2657 H 257.85 1.5784 0.164948 0
M  V30 2658 H 257.871 2.76553 2.61341 0
M  V30 2659 H 257.383 3.73186 1.06554 0
M  V30 2660 H 255.484 2.20619 3.00263 0
M  V30 2661 H 255.597 4.04096 2.57377 0
M  V30 2662 H 253.961 2.09473 1.4489 0
M  V30 2663 H 254.744 3.40785 0.414807 0
M  V30 2664 N 257.189 -0.644168 1.43834 0
M  V30 2665 C 258.6 -1.22554 1.40845 0
M  V30 2666 C 258.951 -1.9585 0.117115 0
M  V30 2667 O 258.076 -2.01734 -0.783086 0
M  V30 2668 C 258.671 -2.22907 2.55143 0
M  V30 2669 C 257.23 -2.76501 2.5539 0
M  V30 2670 C 256.377 -1.51287 2.32396 0
M  V30 2671 H 259.328 -0.43563 1.52604 0
M  V30 2672 H 259.349 -3.05259 2.2715 0
M  V30 2673 H 258.861 -1.69533 3.49114 0
M  V30 2674 H 256.962 -3.33914 1.65324 0
M  V30 2675 H 257.075 -3.23429 3.53455 0
M  V30 2676 H 255.439 -1.78957 1.81236 0
M  V30 2677 H 256.222 -0.998336 3.28463 0
M  V30 2678 N 258.668 -1.30515 -0.883378 0
M  V30 2679 C 260.079 -1.17509 -1.45081 0
M  V30 2680 C 260.43 0.223605 -1.94922 0
M  V30 2681 O 259.555 1.12041 -1.85137 0
M  V30 2682 C 260.15 -2.12715 -2.63701 0
M  V30 2683 C 258.709 -2.03682 -3.16529 0
M  V30 2684 C 257.856 -2.02706 -1.89224 0
M  V30 2685 H 260.807 -1.42762 -0.693165 0
M  V30 2686 H 260.828 -1.70891 -3.39965 0
M  V30 2687 H 260.34 -3.14505 -2.27395 0
M  V30 2688 H 258.441 -1.05039 -3.57488 0
M  V30 2689 H 258.554 -2.92146 -3.7972 0
M  V30 2690 H 256.918 -1.4753 -2.07622 0
M  V30 2691 H 257.701 -3.06229 -1.55174 0
M  V30 2692 N 260.146 1.09593 -1.13257 0
M  V30 2693 C 261.562 1.33775 -0.870423 0
M  V30 2694 C 261.762 1.95327 0.494926 0
M  V30 2695 O 260.818 2.19853 1.2418 0
M  V30 2696 C 262.131 2.25106 -1.99369 0
M  V30 2697 C 263.679 2.3862 -2.02558 0
M  V30 2698 C 264.154 3.33285 -3.14142 0
M  V30 2699 N 265.645 3.40857 -3.13641 0
M  V30 2700 C 266.38 4.14101 -3.96621 0
M  V30 2701 N 265.876 4.90157 -4.8961 0
M  V30 2702 N 267.669 4.09808 -3.84726 0
M  V30 2703 H 259.82 0.680136 -2.01216 0
M  V30 2704 H 262.083 0.362133 -0.876107 0
M  V30 2705 H 261.789 1.87103 -2.97801 0
M  V30 2706 H 261.663 3.25481 -1.90635 0
M  V30 2707 H 264.05 2.75887 -1.0474 0
M  V30 2708 H 264.131 1.38028 -2.15364 0
M  V30 2709 H 263.775 2.96741 -4.12198 0
M  V30 2710 H 263.705 4.33776 -2.98574 0
M  V30 2711 H 266.196 2.86624 -2.46282 0
M  V30 2712 H 266.509 5.4347 -5.49418 0
M  V30 2713 H 264.854 4.89251 -4.93617 0
M  V30 2714 H 268.045 3.4949 -3.11408 0
M  V30 2715 H 268.218 4.66629 -4.49623 0
M  V30 2716 N 261.624 0.925811 1.2754 0
M  V30 2717 C 262.872 0.564138 1.94067 0
M  V30 2718 C 263.193 -0.897188 1.73134 0
M  V30 2719 O 262.463 -1.63573 1.07799 0
M  V30 2720 H 261.043 0.205645 0.718136 0
M  V30 2721 H 263.705 1.1778 1.55287 0
M  V30 2722 H 262.801 0.76881 3.02483 0
M  V30 2723 N 263.102 -1.41638 0.69111 0
M  V30 2724 C 264.327 -2.06148 0.227583 0
M  V30 2725 C 264.752 -1.51652 -1.11281 0
M  V30 2726 O 264.11 -0.64164 -1.69566 0
M  V30 2727 C 264.158 -3.60095 0.190858 0
M  V30 2728 O 263.262 -4.03845 -0.835664 0
M  V30 2729 H 262.603 -0.654434 0.112306 0
M  V30 2730 H 265.133 -1.81484 0.944714 0
M  V30 2731 H 265.143 -4.07995 0.020207 0
M  V30 2732 H 263.818 -3.99129 1.16915 0
M  V30 2733 H 262.395 -3.67458 -0.63473 0
M  V30 2734 N 264.58 -0.43555 -1.51462 0
M  V30 2735 C 265.512 0.41257 -2.25456 0
M  V30 2736 C 266.525 0.987822 -1.29406 0
M  V30 2737 O 267.714 0.882266 -1.55172 0
M  V30 2738 C 264.814 1.58894 -2.99342 0
M  V30 2739 C 263.987 1.13288 -4.22474 0
M  V30 2740 C 263.046 2.17917 -4.78956 0
M  V30 2741 O 262.072 1.77425 -5.40841 0
M  V30 2742 N 263.274 3.50382 -4.62832 0
M  V30 2743 H 266.039 -0.221603 -2.9888 0
M  V30 2744 H 263.6 -0.264342 -1.59727 0
M  V30 2745 H 265.592 2.28508 -3.34015 0
M  V30 2746 H 264.162 2.12849 -2.28941 0
M  V30 2747 H 263.382 0.263881 -3.93316 0
M  V30 2748 H 264.67 0.805542 -5.02383 0
M  V30 2749 H 264.068 3.86013 -4.13534 0
M  V30 2750 H 262.625 4.15895 -5.01871 0
M  V30 2751 N 266.058 1.56714 -0.166846 0
M  V30 2752 C 267.021 2.16539 0.751232 0
M  V30 2753 C 268.021 1.11228 1.16125 0
M  V30 2754 O 269.211 1.36765 1.07894 0
M  V30 2755 C 266.343 2.74462 2.02196 0
M  V30 2756 H 267.536 2.99013 0.230499 0
M  V30 2757 H 265.089 1.56081 0.0826982 0
M  V30 2758 H 265.824 1.95709 2.58589 0
M  V30 2759 H 265.609 3.51527 1.73698 0
M  V30 2760 H 267.099 3.20489 2.67725 0
M  V30 2761 N 267.536 -0.106894 1.57237 0
M  V30 2762 C 268.499 -1.11466 2.0027 0
M  V30 2763 C 269.499 -1.33623 0.894519 0
M  V30 2764 O 270.689 -1.29935 1.16028 0
M  V30 2765 C 267.821 -2.46646 2.35327 0
M  V30 2766 H 269.014 -0.744516 2.90512 0
M  V30 2767 H 266.567 -0.351576 1.52295 0
M  V30 2768 H 267.302 -2.88558 1.48003 0
M  V30 2769 H 267.087 -2.31915 3.16161 0
M  V30 2770 H 268.577 -3.19151 2.69318 0
M  V30 2771 N 269.014 -1.53014 -0.377408 0
M  V30 2772 C 269.946 -1.74884 -1.48149 0
M  V30 2773 C 270.959 -0.629433 -1.5014 0
M  V30 2774 O 272.148 -0.905416 -1.53833 0
M  V30 2775 C 269.248 -1.80299 -2.86959 0
M  V30 2776 C 268.421 -3.09776 -3.08801 0
M  V30 2777 C 267.48 -3.06586 -4.27658 0
M  V30 2778 O 266.506 -3.80419 -4.23403 0
M  V30 2779 N 267.708 -2.26578 -5.34455 0
M  V30 2780 H 270.473 -2.70147 -1.29771 0
M  V30 2781 H 268.034 -1.51646 -0.56703 0
M  V30 2782 H 270.026 -1.75657 -3.64591 0
M  V30 2783 H 268.596 -0.92372 -2.98641 0
M  V30 2784 H 267.816 -3.27815 -2.18931 0
M  V30 2785 H 269.104 -3.95366 -3.20255 0
M  V30 2786 H 268.502 -1.66081 -5.40771 0
M  V30 2787 H 267.059 -2.27766 -6.10709 0
M  V30 2788 N 270.492 0.636531 -1.44174 0
M  V30 2789 C 271.74 1.39343 -1.46383 0
M  V30 2790 C 272.061 1.94766 -0.0955715 0
M  V30 2791 O 271.331 1.75452 0.871395 0
M  V30 2792 H 269.911 0.517199 -0.538994 0
M  V30 2793 H 272.573 0.74957 -1.7991 0
M  V30 2794 H 271.669 2.22746 -2.18611 0
M  V30 2795 N 271.97 1.30982 0.876444 0
M  V30 2796 C 273.218 1.20058 1.62575 0
M  V30 2797 C 273.539 -0.242947 1.93481 0
M  V30 2798 O 272.809 -1.1619 1.57724 0
M  V30 2799 H 271.389 0.44135 0.602677 0
M  V30 2800 H 274.051 1.64222 1.04962 0
M  V30 2801 H 273.147 1.76762 2.57219 0
M  V30 2802 N 273.449 -1.08991 1.13837 0
M  V30 2803 C 274.86 -1.62746 0.914917 0
M  V30 2804 C 275.211 -1.88403 -0.547594 0
M  V30 2805 O 274.336 -1.63706 -1.41525 0
M  V30 2806 C 274.931 -2.95662 1.65437 0
M  V30 2807 C 273.49 -3.46225 1.47666 0
M  V30 2808 C 272.637 -2.20562 1.6807 0
M  V30 2809 H 275.588 -0.922946 1.29102 0
M  V30 2810 H 275.609 -3.63825 1.11407 0
M  V30 2811 H 275.121 -2.76956 2.71877 0
M  V30 2812 H 273.222 -3.70046 0.435478 0
M  V30 2813 H 273.335 -4.23368 2.24268 0
M  V30 2814 H 271.699 -2.29439 1.10589 0
M  V30 2815 H 272.482 -2.0437 2.7584 0
M  V30 2816 N 274.927 -0.932562 -1.27047 0
M  V30 2817 C 275.89 -0.440064 -2.24936 0
M  V30 2818 C 276.89 0.444071 -1.54547 0
M  V30 2819 O 278.08 0.244465 -1.72476 0
M  V30 2820 C 275.212 0.36678 -3.38921 0
M  V30 2821 H 276.405 -1.305 -2.70018 0
M  V30 2822 H 273.958 -0.713707 -1.39054 0
M  V30 2823 H 274.693 1.25033 -2.99228 0
M  V30 2824 H 274.478 -0.267204 -3.91188 0
M  V30 2825 H 275.968 0.701567 -4.11665 0
M  V30 2826 N 276.405 1.4127 -0.698611 0
M  V30 2827 C 277.352 2.30773 -0.0352094 0
M  V30 2828 C 278.322 1.47273 0.768111 0
M  V30 2829 O 279.507 1.76053 0.735524 0
M  V30 2830 C 276.647 3.33346 0.893 0
M  V30 2831 C 275.76 4.31924 0.0809695 0
M  V30 2832 C 274.895 5.21566 1.0071 0
M  V30 2833 C 273.934 6.11811 0.188155 0
M  V30 2834 N 273.071 6.93926 1.06825 0
M  V30 2835 H 277.911 2.86943 -0.804207 0
M  V30 2836 H 275.448 1.4132 -0.408294 0
M  V30 2837 H 277.406 3.91368 1.44523 0
M  V30 2838 H 276.036 2.78719 1.62836 0
M  V30 2839 H 275.088 3.75825 -0.588224 0
M  V30 2840 H 276.4 4.95716 -0.553801 0
M  V30 2841 H 275.554 5.84437 1.62845 0
M  V30 2842 H 274.293 4.58008 1.67572 0
M  V30 2843 H 273.298 5.47986 -0.446254 0
M  V30 2844 H 274.523 6.77425 -0.476716 0
M  V30 2845 H 272.469 6.32973 1.72283 0
M  V30 2846 H 272.386 7.54416 0.489123 0
M  V30 2847 H 273.654 7.61262 1.67632 0
M  V30 2848 N 277.883 0.443576 1.51229 0
M  V30 2849 C 278.815 -0.400608 2.25672 0
M  V30 2850 C 279.828 -0.980945 1.29928 0
M  V30 2851 O 281.017 -0.874024 1.55638 0
M  V30 2852 C 278.117 -1.57304 3.00181 0
M  V30 2853 C 277.29 -1.11046 4.23069 0
M  V30 2854 C 276.349 -2.15374 4.80105 0
M  V30 2855 O 275.375 -1.74554 5.41774 0
M  V30 2856 N 276.577 -3.47922 4.64683 0
M  V30 2857 H 279.342 0.23745 2.98758 0
M  V30 2858 H 276.903 0.272809 1.59585 0
M  V30 2859 H 278.895 -2.26733 3.35223 0
M  V30 2860 H 277.465 -2.11632 2.30066 0
M  V30 2861 H 276.685 -0.243019 3.9345 0
M  V30 2862 H 277.973 -0.778888 5.02803 0
M  V30 2863 H 277.371 -3.83815 4.15575 0
M  V30 2864 H 275.928 -4.13228 5.0407 0
M  V30 2865 N 279.361 -1.56624 0.175154 0
M  V30 2866 C 280.291 -2.21155 -0.749195 0
M  V30 2867 C 281.272 -1.16836 -1.23626 0
M  V30 2868 O 282.457 -1.45277 -1.28873 0
M  V30 2869 C 279.587 -2.8553 -1.97711 0
M  V30 2870 C 278.541 -3.95921 -1.62575 0
M  V30 2871 C 277.867 -4.47365 -2.92864 0
M  V30 2872 C 279.167 -5.15323 -0.850838 0
M  V30 2873 H 280.861 -2.98653 -0.211295 0
M  V30 2874 H 278.407 -1.43651 -0.100188 0
M  V30 2875 H 280.36 -3.2935 -2.62881 0
M  V30 2876 H 279.084 -2.05406 -2.53921 0
M  V30 2877 H 277.743 -3.52762 -0.997719 0
M  V30 2878 H 277.391 -3.64027 -3.47122 0
M  V30 2879 H 277.091 -5.21839 -2.70106 0
M  V30 2880 H 278.615 -4.93873 -3.59056 0
M  V30 2881 H 280.029 -5.55812 -1.40521 0
M  V30 2882 H 278.426 -5.95739 -0.722154 0
M  V30 2883 H 279.496 -4.84661 0.152082 0
M  V30 2884 N 280.839 0.0985539 -1.57292 0
M  V30 2885 C 281.769 1.12064 -2.04851 0
M  V30 2886 C 282.75 1.41981 -0.936767 0
M  V30 2887 O 283.935 1.52071 -1.20781 0
M  V30 2888 C 281.065 2.44144 -2.47004 0
M  V30 2889 C 280.019 2.28643 -3.6181 0
M  V30 2890 C 279.345 3.65869 -3.89929 0
M  V30 2891 C 280.645 1.72986 -4.92822 0
M  V30 2892 H 282.339 0.724979 -2.9049 0
M  V30 2893 H 279.885 0.34729 -1.39749 0
M  V30 2894 H 281.838 3.15914 -2.78884 0
M  V30 2895 H 280.562 2.85639 -1.5836 0
M  V30 2896 H 279.221 1.59318 -3.30172 0
M  V30 2897 H 278.869 4.04885 -2.98458 0
M  V30 2898 H 278.569 3.56344 -4.67218 0
M  V30 2899 H 280.093 4.39112 -4.2428 0
M  V30 2900 H 281.507 2.34593 -5.23105 0
M  V30 2901 H 279.904 1.74229 -5.74251 0
M  V30 2902 H 280.974 0.689007 -4.7998 0
M  V30 2903 N 282.317 1.53212 0.369288 0
M  V30 2904 C 283.728 1.60943 0.946276 0
M  V30 2905 C 284.079 0.47452 1.90375 0
M  V30 2906 O 283.204 -0.399597 2.12679 0
M  V30 2907 C 283.799 2.91715 1.72302 0
M  V30 2908 C 282.358 3.01792 2.24941 0
M  V30 2909 C 281.505 2.56211 1.06072 0
M  V30 2910 H 284.456 1.58007 0.148198 0
M  V30 2911 H 284.477 2.79309 2.58393 0
M  V30 2912 H 283.989 3.74295 1.0259 0
M  V30 2913 H 282.09 2.23791 2.97906 0
M  V30 2914 H 282.203 4.06803 2.53077 0
M  V30 2915 H 280.567 2.10998 1.4266 0
M  V30 2916 H 281.35 3.41206 0.378639 0
M  V30 2917 N 283.795 -0.628877 1.44509 0
M  V30 2918 C 284.725 -1.75187 1.54376 0
M  V30 2919 C 285.706 -1.65411 0.396618 0
M  V30 2920 O 286.891 -1.84137 0.617031 0
M  V30 2921 C 284.021 -3.13725 1.48976 0
M  V30 2922 C 282.975 -3.38291 2.62189 0
M  V30 2923 C 282.301 -4.76883 2.41841 0
M  V30 2924 C 283.601 -3.30632 4.04326 0
M  V30 2925 H 285.295 -1.67187 2.48373 0
M  V30 2926 H 282.841 -0.802909 1.19538 0
M  V30 2927 H 284.794 -3.92064 1.54478 0
M  V30 2928 H 283.518 -3.22515 0.514961 0
M  V30 2929 H 282.177 -2.62334 2.56079 0
M  V30 2930 H 281.825 -4.82378 1.42548 0
M  V30 2931 H 281.525 -4.94278 3.17747 0
M  V30 2932 H 283.049 -5.57449 2.49165 0
M  V30 2933 H 284.463 -3.98873 4.11793 0
M  V30 2934 H 282.86 -3.59561 4.80454 0
M  V30 2935 H 283.93 -2.28404 4.27738 0
M  V30 2936 N 285.273 -1.31445 -0.869486 0
M  V30 2937 C 286.183 -1.21097 -2.0093 0
M  V30 2938 C 287.199 -0.127584 -1.73532 0
M  V30 2939 O 288.375 -0.345477 -1.98415 0
M  V30 2940 C 285.44 -0.919378 -3.34288 0
M  V30 2941 C 284.501 -2.08971 -3.75006 0
M  V30 2942 C 283.734 -1.81194 -5.02001 0
M  V30 2943 O 283.957 -0.747296 -5.65484 0
M  V30 2944 O 282.891 -2.66883 -5.39497 0
M  V30 2945 H 286.717 -2.16883 -2.12592 0
M  V30 2946 H 284.302 -1.11189 -0.997868 0
M  V30 2947 H 286.184 -0.772625 -4.14257 0
M  V30 2948 H 284.859 0.00844772 -3.23699 0
M  V30 2949 H 283.766 -2.29187 -2.95676 0
M  V30 2950 H 285.099 -2.9998 -3.90221 0
M  V30 2951 N 286.751 1.08385 -1.14413 0
M  V30 2952 C 288.167 1.32844 -0.884563 0
M  V30 2953 C 288.367 1.95841 0.474181 0
M  V30 2954 O 287.423 2.21158 1.21842 0
M  V30 2955 C 288.736 2.22978 -2.01745 0
M  V30 2956 C 290.284 2.36458 -2.05077 0
M  V30 2957 C 290.759 3.29934 -3.1766 0
M  V30 2958 N 292.25 3.37511 -3.17239 0
M  V30 2959 C 292.985 4.09871 -4.0099 0
M  V30 2960 N 292.481 4.84936 -4.94781 0
M  V30 2961 N 294.274 4.05704 -3.89051 0
M  V30 2962 H 286.425 0.658756 -2.01926 0
M  V30 2963 H 288.688 0.352821 -0.879899 0
M  V30 2964 H 288.394 1.83934 -2.99769 0
M  V30 2965 H 288.268 3.23441 -1.94077 0
M  V30 2966 H 290.655 2.7476 -1.0766 0
M  V30 2967 H 290.736 1.35736 -2.16816 0
M  V30 2968 H 290.38 2.92352 -4.15322 0
M  V30 2969 H 290.31 4.30584 -3.03158 0
M  V30 2970 H 292.801 2.83996 -2.49308 0
M  V30 2971 H 293.114 5.37612 -5.55151 0
M  V30 2972 H 291.459 4.83988 -4.98779 0
M  V30 2973 H 294.65 3.46167 -3.15097 0
M  V30 2974 H 294.823 4.61834 -4.54547 0
M  V30 2975 N 288.23 0.939286 1.26551 0
M  V30 2976 C 289.476 0.586715 1.94128 0
M  V30 2977 C 289.809 -0.8717 1.73537 0
M  V30 2978 O 289.084 -1.62339 1.07127 0
M  V30 2979 C 289.367 0.927497 3.4795 0
M  V30 2980 C 289.22 2.44052 3.77834 0
M  V30 2981 C 290.539 0.441569 4.37879 0
M  V30 2982 H 287.658 0.21463 0.705055 0
M  V30 2983 H 290.3 1.17316 1.49455 0
M  V30 2984 H 288.45 0.428431 3.8613 0
M  V30 2985 H 290.122 3.01216 3.4938 0
M  V30 2986 H 288.365 2.8848 3.23978 0
M  V30 2987 H 289.036 2.62947 4.85348 0
M  V30 2988 H 291.512 0.869448 4.06915 0
M  V30 2989 H 290.388 0.708856 5.44304 0
M  V30 2990 H 290.649 -0.658467 4.37169 0
M  V30 2991 N 289.708 -1.40897 0.706093 0
M  V30 2992 C 290.938 -2.05075 0.250523 0
M  V30 2993 C 291.346 -1.53275 -1.10921 0
M  V30 2994 O 290.689 -0.680281 -1.7064 0
M  V30 2995 C 290.751 -3.59219 0.142178 0
M  V30 2996 C 290.415 -4.33864 1.43566 0
M  V30 2997 C 291.412 -4.62448 2.37566 0
M  V30 2998 C 289.097 -4.72946 1.69195 0
M  V30 2999 C 291.091 -5.29088 3.5545 0
M  V30 3000 C 288.778 -5.3932 2.87362 0
M  V30 3001 C 289.776 -5.6732 3.80312 0
M  V30 3002 O 289.464 -6.32325 4.96408 0
M  V30 3003 H 289.196 -0.666645 0.112074 0
M  V30 3004 H 291.75 -1.81467 0.962239 0
M  V30 3005 H 289.98 -3.81609 -0.6254 0
M  V30 3006 H 291.669 -4.0495 -0.277584 0
M  V30 3007 H 292.435 -4.32727 2.19027 0
M  V30 3008 H 288.314 -4.50527 0.977042 0
M  V30 3009 H 291.858 -5.50859 4.28018 0
M  V30 3010 H 287.755 -5.68461 3.05814 0
M  V30 3011 H 288.523 -6.50821 4.9636 0
M  V30 3012 N 291.186 -0.45159 -1.50991 0
M  V30 3013 C 292.118 0.388634 -2.25881 0
M  V30 3014 C 293.131 0.974041 -1.30446 0
M  V30 3015 O 294.32 0.865758 -1.56099 0
M  V30 3016 C 291.42 1.5571 -3.01011 0
M  V30 3017 C 290.593 1.08801 -4.23652 0
M  V30 3018 C 289.652 2.12825 -4.8124 0
M  V30 3019 O 288.678 1.71678 -5.42693 0
M  V30 3020 N 289.88 3.45453 -4.66522 0
M  V30 3021 H 292.645 -0.25329 -2.98628 0
M  V30 3022 H 290.206 -0.281268 -1.59438 0
M  V30 3023 H 292.198 2.24952 -3.3642 0
M  V30 3024 H 290.768 2.10409 -2.31186 0
M  V30 3025 H 289.988 0.22215 -3.93574 0
M  V30 3026 H 291.276 0.752213 -5.03209 0
M  V30 3027 H 290.674 3.81605 -4.17605 0
M  V30 3028 H 289.231 4.10549 -5.06254 0
M  V30 3029 N 292.664 1.56529 -0.183458 0
M  V30 3030 C 293.574 2.22144 0.754272 0
M  V30 3031 C 294.59 1.21684 1.24374 0
M  V30 3032 O 295.766 1.54385 1.29333 0
M  V30 3033 C 292.831 2.85884 1.96141 0
M  V30 3034 C 291.892 4.01579 1.51765 0
M  V30 3035 C 291.125 4.6227 2.66725 0
M  V30 3036 O 291.348 4.21865 3.83909 0
M  V30 3037 O 290.282 5.51936 2.40104 0
M  V30 3038 H 294.108 3.02861 0.225527 0
M  V30 3039 H 291.693 1.49331 0.0453032 0
M  V30 3040 H 293.575 3.26253 2.66715 0
M  V30 3041 H 292.25 2.08154 2.47899 0
M  V30 3042 H 291.157 3.65856 0.781049 0
M  V30 3043 H 292.49 4.80938 1.04686 0
M  V30 3044 N 294.142 -0.090211 1.57342 0
M  V30 3045 C 295.391 -0.791531 1.8552 0
M  V30 3046 C 295.704 -1.79659 0.773441 0
M  V30 3047 O 296.91 -2.54616 0.942497 0
M  V30 3048 C 295.366 -1.45856 3.2902 0
M  V30 3049 C 294.974 -0.493017 4.45279 0
M  V30 3050 C 296.718 -2.14332 3.66418 0
M  V30 3051 C 294.625 -1.16491 5.79814 0
M  V30 3052 H 293.555 -0.299356 0.692027 0
M  V30 3053 H 296.206 -0.0445343 1.83446 0
M  V30 3054 H 294.588 -2.25318 3.2565 0
M  V30 3055 H 295.762 0.270464 4.60006 0
M  V30 3056 H 294.077 0.0863061 4.16311 0
M  V30 3057 H 296.674 -2.65344 4.64216 0
M  V30 3058 H 297.017 -2.93447 2.95287 0
M  V30 3059 H 297.55 -1.41724 3.71698 0
M  V30 3060 H 294.289 -0.41447 6.54188 0
M  V30 3061 H 293.809 -1.8997 5.68921 0
M  V30 3062 H 295.488 -1.69001 6.24538 0
M  V30 3063 N 295.62 -1.53406 -0.361157 0
M  V30 3064 C 296.583 -1.79479 -1.42548 0
M  V30 3065 C 297.583 -0.665327 -1.4639 0
M  V30 3066 O 298.773 -0.933549 -1.47073 0
M  V30 3067 C 295.905 -1.92087 -2.8163 0
M  V30 3068 H 297.098 -2.74538 -1.20701 0
M  V30 3069 H 294.651 -1.4455 -0.594546 0
M  V30 3070 H 295.386 -0.991099 -3.08784 0
M  V30 3071 H 295.171 -2.74241 -2.80239 0
M  V30 3072 H 296.661 -2.13836 -3.58697 0
M  V30 3073 N 297.098 0.621204 -1.44841 0
M  V30 3074 C 298.347 1.37658 -1.47422 0
M  V30 3075 C 298.66 1.95264 -0.114629 0
M  V30 3076 O 299.866 2.71494 -0.0180199 0
M  V30 3077 C 298.322 2.49285 -2.59586 0
M  V30 3078 C 297.93 1.98149 -4.01797 0
M  V30 3079 C 299.674 3.26409 -2.71399 0
M  V30 3080 C 297.581 3.07178 -5.05367 0
M  V30 3081 H 296.511 0.517344 -0.548517 0
M  V30 3082 H 299.162 0.667257 -1.70938 0
M  V30 3083 H 297.544 3.22839 -2.29328 0
M  V30 3084 H 298.718 1.31395 -4.41669 0
M  V30 3085 H 297.033 1.33812 -3.94314 0
M  V30 3086 H 299.63 4.07706 -3.45948 0
M  V30 3087 H 299.973 3.76535 -1.77559 0
M  V30 3088 H 300.506 2.5995 -3.01116 0
M  V30 3089 H 297.245 2.61985 -6.00869 0
M  V30 3090 H 296.765 3.72542 -4.70077 0
M  V30 3091 H 298.444 3.71789 -5.29511 0
M  V30 3092 N 298.576 1.31904 0.862503 0
M  V30 3093 C 299.506 1.22782 1.98612 0
M  V30 3094 C 300.487 0.113362 1.69722 0
M  V30 3095 O 301.672 0.299218 1.91881 0
M  V30 3096 C 298.802 0.942058 3.34279 0
M  V30 3097 C 297.756 2.0169 3.77499 0
M  V30 3098 C 297.082 1.58369 5.10709 0
M  V30 3099 C 298.382 3.43096 3.93805 0
M  V30 3100 H 300.076 2.16788 2.06502 0
M  V30 3101 H 297.622 1.04366 0.992154 0
M  V30 3102 H 299.575 0.864818 4.1243 0
M  V30 3103 H 298.299 -0.0336603 3.26583 0
M  V30 3104 H 296.958 2.08416 3.01593 0
M  V30 3105 H 296.606 0.595628 4.99461 0
M  V30 3106 H 296.306 2.30279 5.40597 0
M  V30 3107 H 297.83 1.52067 5.91361 0
M  V30 3108 H 299.244 3.39003 4.62331 0
M  V30 3109 H 297.641 4.13288 4.35101 0
M  V30 3110 H 298.711 3.83334 2.96957 0
M  V30 3111 N 300.054 -1.07777 1.14986 0
M  V30 3112 C 301.001 -2.14867 0.842672 0
M  V30 3113 C 301.971 -1.6486 -0.202552 0
M  V30 3114 O 303.156 -1.90668 -0.0710568 0
M  V30 3115 C 300.296 -3.43486 0.333363 0
M  V30 3116 C 299.409 -4.07306 1.43965 0
M  V30 3117 C 298.544 -5.23744 0.886914 0
M  V30 3118 C 297.583 -5.79517 1.97043 0
M  V30 3119 N 296.72 -6.87291 1.4344 0
M  V30 3120 H 301.56 -2.40485 1.75986 0
M  V30 3121 H 299.097 -1.1801 0.878179 0
M  V30 3122 H 301.055 -4.17195 0.0198163 0
M  V30 3123 H 299.685 -3.18133 -0.546916 0
M  V30 3124 H 298.737 -3.31293 1.86946 0
M  V30 3125 H 300.049 -4.44771 2.25788 0
M  V30 3126 H 299.203 -6.04419 0.525651 0
M  V30 3127 H 297.942 -4.87685 0.0377957 0
M  V30 3128 H 296.947 -4.97491 2.34057 0
M  V30 3129 H 298.172 -6.17632 2.82325 0
M  V30 3130 H 296.118 -6.5318 0.607567 0
M  V30 3131 H 296.035 -7.23617 2.18895 0
M  V30 3132 H 297.303 -7.71682 1.10124 0
M  V30 3133 N 301.532 -0.945985 -1.26051 0
M  V30 3134 C 302.479 -0.45809 -2.26208 0
M  V30 3135 C 303.449 0.484816 -1.58867 0
M  V30 3136 O 304.634 0.399969 -1.86561 0
M  V30 3137 C 301.774 0.266131 -3.44072 0
M  V30 3138 C 300.887 -0.713005 -4.26075 0
M  V30 3139 C 300.022 0.0329013 -5.3119 0
M  V30 3140 C 299.061 -0.93774 -6.04874 0
M  V30 3141 N 298.198 -0.223274 -7.01745 0
M  V30 3142 H 303.038 -1.3171 -2.67313 0
M  V30 3143 H 300.575 -0.66069 -1.31428 0
M  V30 3144 H 302.533 0.702514 -4.11243 0
M  V30 3145 H 301.163 1.08925 -3.03867 0
M  V30 3146 H 300.215 -1.26789 -3.58648 0
M  V30 3147 H 301.527 -1.45406 -4.77136 0
M  V30 3148 H 300.681 0.528335 -6.04395 0
M  V30 3149 H 299.42 0.806801 -4.8098 0
M  V30 3150 H 298.425 -1.44425 -5.30492 0
M  V30 3151 H 299.65 -1.71172 -6.57173 0
M  V30 3152 H 297.596 0.532046 -6.53839 0
M  V30 3153 H 297.513 -0.90357 -7.50581 0
M  V30 3154 H 298.781 0.250907 -7.79096 0
M  V30 3155 N 303.011 1.40521 -0.713556 0
M  V30 3156 C 303.941 2.33381 -0.0743864 0
M  V30 3157 C 304.922 1.52784 0.747735 0
M  V30 3158 O 306.107 1.81258 0.697071 0
M  V30 3159 C 303.237 3.36748 0.849598 0
M  V30 3160 C 302.191 4.27793 0.133247 0
M  V30 3161 C 301.517 5.21679 1.17281 0
M  V30 3162 C 302.817 5.12415 -1.01134 0
M  V30 3163 H 304.511 2.87081 -0.850007 0
M  V30 3164 H 302.057 1.38034 -0.410201 0
M  V30 3165 H 304.01 4.00648 1.30612 0
M  V30 3166 H 302.734 2.81439 1.65709 0
M  V30 3167 H 301.393 3.65342 -0.303426 0
M  V30 3168 H 301.041 4.62677 1.9733 0
M  V30 3169 H 300.741 5.83435 0.698397 0
M  V30 3170 H 302.265 5.88456 1.62947 0
M  V30 3171 H 303.679 5.69781 -0.634274 0
M  V30 3172 H 302.076 5.83203 -1.41399 0
M  V30 3173 H 303.146 4.48514 -1.84292 0
M  V30 3174 N 304.489 0.459591 1.5075 0
M  V30 3175 C 305.766 -0.160371 1.94941 0
M  V30 3176 C 306.146 -1.58048 1.39943 0
M  V30 3177 O 305.494 -2.206 0.595629 0
M  V30 3178 C 305.704 -0.115432 3.48809 0
M  V30 3179 C 307.052 -0.310026 4.23467 0
M  V30 3180 O 308.076 -0.192543 3.55679 0
M  V30 3181 O 306.935 -0.546031 5.43765 0
M  V30 3182 H 304.029 -0.117925 0.818549 0
M  V30 3183 H 306.575 0.519169 1.61563 0
M  V30 3184 H 305.347 0.87652 3.81357 0
M  V30 3185 H 304.97 -0.836928 3.88692 0
M  V30 3186 N 305.967 -1.56429 0.191757 0
M  V30 3187 C 306.917 -2.15548 -0.743184 0
M  V30 3188 C 307.901 -1.09531 -1.17863 0
M  V30 3189 O 309.093 -1.35602 -1.13759 0
M  V30 3190 C 306.222 -2.81577 -1.96391 0
M  V30 3191 C 305.308 -3.9478 -1.54951 0
M  V30 3192 N 305.699 -4.98677 -0.845876 0
M  V30 3193 C 303.997 -4.06319 -1.83905 0
M  V30 3194 C 304.698 -5.78183 -0.638724 0
M  V30 3195 N 303.674 -5.30495 -1.18643 0
M  V30 3196 H 307.476 -2.9324 -0.196839 0
M  V30 3197 H 304.99 -1.62398 -0.0081603 0
M  V30 3198 H 306.987 -3.22321 -2.64415 0
M  V30 3199 H 305.647 -2.05371 -2.51501 0
M  V30 3200 H 306.658 -5.15464 -0.501704 0
M  V30 3201 H 303.335 -3.41238 -2.40548 0
M  V30 3202 H 304.725 -6.71851 -0.0807929 0
M  V30 3203 N 307.445 0.0818655 -1.57387 0
M  V30 3204 C 308.691 0.784074 -1.8703 0
M  V30 3205 C 309.024 1.77729 -0.782689 0
M  V30 3206 O 308.299 1.93384 0.208051 0
M  V30 3207 C 308.582 1.50105 -3.27323 0
M  V30 3208 C 308.435 0.524925 -4.46727 0
M  V30 3209 C 309.754 2.44843 -3.65705 0
M  V30 3210 H 306.873 0.283582 -0.680257 0
M  V30 3211 H 309.515 0.0474352 -1.89941 0
M  V30 3212 H 307.665 2.12897 -3.24972 0
M  V30 3213 H 309.337 -0.0970111 -4.61198 0
M  V30 3214 H 307.58 -0.160606 -4.33503 0
M  V30 3215 H 308.251 1.064 -5.41648 0
M  V30 3216 H 310.727 1.92135 -3.69085 0
M  V30 3217 H 309.603 2.92018 -4.64776 0
M  V30 3218 H 309.864 3.29197 -2.95096 0
M  V30 3219 N 308.923 1.53595 0.353017 0
M  V30 3220 C 309.871 1.81605 1.45335 0
M  V30 3221 C 310.865 0.685923 1.54892 0
M  V30 3222 O 312.071 0.869095 1.57628 0
M  V30 3223 H 308.446 0.575204 0.484401 0
M  V30 3224 H 310.417 2.73679 1.18921 0
M  V30 3225 C 309.166 2.03406 2.81995 0
M  V30 3226 H 308.489 2.89814 2.75405 0
M  V30 3227 H 309.929 2.26975 3.58132 0
M  V30 3228 C 308.388 0.816794 3.26849 0
M  V30 3229 O 308.918 0.0115856 4.01698 0
M  V30 3230 N 307.124 0.636682 2.8354 0
M  V30 3231 H 306.671 1.2931 2.22793 0
M  V30 3232 H 306.629 -0.176336 3.13905 0
M  V30 3233 N 310.401 -0.613514 1.45168 0
M  V30 3234 C 311.647 -1.37471 1.49096 0
M  V30 3235 C 311.98 -1.93765 0.129901 0
M  V30 3236 O 311.255 -1.74707 -0.854858 0
M  V30 3237 C 311.538 -2.52701 2.56542 0
M  V30 3238 C 311.391 -2.01643 4.0207 0
M  V30 3239 C 312.71 -3.54849 2.60327 0
M  V30 3240 H 309.829 -0.498502 0.54283 0
M  V30 3241 H 312.471 -0.692125 1.76945 0
M  V30 3242 H 310.621 -3.10931 2.32926 0
M  V30 3243 H 312.293 -1.48108 4.36877 0
M  V30 3244 H 310.536 -1.32688 4.13009 0
M  V30 3245 H 311.207 -2.84681 4.72928 0
M  V30 3246 H 313.683 -3.0645 2.81474 0
M  V30 3247 H 312.559 -4.32973 3.37381 0
M  V30 3248 H 312.82 -4.10079 1.6519 0
M  V30 3249 N 311.879 -1.3236 -0.855495 0
M  V30 3250 C 313.125 -1.23054 -1.612 0
M  V30 3251 C 313.458 0.207404 -1.93089 0
M  V30 3252 O 312.733 1.14432 -1.57275 0
M  V30 3253 C 313.016 -2.08937 -2.93287 0
M  V30 3254 C 312.869 -3.61105 -2.68185 0
M  V30 3255 C 314.188 -1.94986 -3.94549 0
M  V30 3256 H 311.307 -0.448364 -0.584926 0
M  V30 3257 H 313.949 -1.62297 -0.987917 0
M  V30 3258 H 312.099 -1.75599 -3.46551 0
M  V30 3259 H 313.771 -4.04652 -2.21483 0
M  V30 3260 H 312.014 -3.83813 -2.02164 0
M  V30 3261 H 312.685 -4.16522 -3.62234 0
M  V30 3262 H 315.161 -2.24189 -3.5054 0
M  V30 3263 H 314.037 -2.57356 -4.84829 0
M  V30 3264 H 314.298 -0.917263 -4.3248 0
M  V30 3265 N 313.357 1.07166 -1.15556 0
M  V30 3266 C 314.304 2.14417 -0.854055 0
M  V30 3267 C 315.274 1.64965 0.193806 0
M  V30 3268 O 316.459 1.90703 0.0609443 0
M  V30 3269 C 313.599 3.43304 -0.351574 0
M  V30 3270 C 312.712 4.06537 -1.46123 0
M  V30 3271 C 311.847 5.23266 -0.914677 0
M  V30 3272 C 310.886 5.78464 -2.00114 0
M  V30 3273 N 310.023 6.86521 -1.47083 0
M  V30 3274 H 314.863 2.39548 -1.77259 0
M  V30 3275 H 312.4 1.17543 -0.884425 0
M  V30 3276 H 314.358 4.17179 -0.0419409 0
M  V30 3277 H 312.988 3.18419 0.530037 0
M  V30 3278 H 312.04 3.30297 -1.88701 0
M  V30 3279 H 313.352 4.43567 -2.28144 0
M  V30 3280 H 312.506 6.04131 -0.557698 0
M  V30 3281 H 311.245 4.87658 -0.0636583 0
M  V30 3282 H 310.25 4.96243 -2.36692 0
M  V30 3283 H 311.475 6.16126 -2.85597 0
M  V30 3284 H 309.421 6.52849 -0.642198 0
M  V30 3285 H 309.338 7.22446 -2.22729 0
M  V30 3286 H 310.606 7.71087 -1.14215 0
M  V30 3287 N 314.835 0.952656 1.25548 0
M  V30 3288 C 315.765 0.489287 2.28316 0
M  V30 3289 C 316.746 -0.463359 1.63667 0
M  V30 3290 O 317.931 -0.36274 1.90782 0
M  V30 3291 C 315.061 -0.235603 3.465 0
M  V30 3292 C 314.015 0.631593 4.23314 0
M  V30 3293 C 313.341 -0.223923 5.34231 0
M  V30 3294 C 314.641 1.90871 4.86174 0
M  V30 3295 H 316.335 1.34822 2.67326 0
M  V30 3296 H 313.881 0.649728 1.28509 0
M  V30 3297 H 315.834 -0.570882 4.17515 0
M  V30 3298 H 314.558 -1.12877 3.06474 0
M  V30 3299 H 313.217 0.949929 3.54079 0
M  V30 3300 H 312.865 -1.11678 4.90446 0
M  V30 3301 H 312.565 0.35299 5.86539 0
M  V30 3302 H 314.089 -0.554214 6.0808 0
M  V30 3303 H 315.503 1.63997 5.49343 0
M  V30 3304 H 313.9 2.43112 5.4865 0
M  V30 3305 H 314.97 2.61304 4.08471 0
M  V30 3306 N 316.313 -1.40141 0.720998 0
M  V30 3307 C 317.562 -2.0002 0.259804 0
M  V30 3308 C 317.875 -1.57839 -1.15526 0
M  V30 3309 O 319.081 -2.10455 -1.71525 0
M  V30 3310 C 317.537 -3.57516 0.413566 0
M  V30 3311 C 317.145 -4.08667 1.83562 0
M  V30 3312 C 318.889 -4.24498 0.0134387 0
M  V30 3313 C 316.796 -5.58686 1.93968 0
M  V30 3314 H 315.726 -0.748195 0.0933806 0
M  V30 3315 H 318.377 -1.60313 0.892866 0
M  V30 3316 H 316.759 -3.9495 -0.288169 0
M  V30 3317 H 317.933 -3.82598 2.56817 0
M  V30 3318 H 316.248 -3.543 2.1877 0
M  V30 3319 H 318.845 -5.34654 0.0703954 0
M  V30 3320 H 319.188 -4.03375 -1.02927 0
M  V30 3321 H 319.721 -3.92188 0.665815 0
M  V30 3322 H 316.46 -5.8467 2.96379 0
M  V30 3323 H 315.98 -5.86602 1.25131 0
M  V30 3324 H 317.659 -6.23875 1.71431 0
M  V30 3325 N 317.792 -0.46758 -1.50504 0
M  V30 3326 C 318.702 0.33382 -2.32213 0
M  V30 3327 C 319.718 0.999323 -1.42441 0
M  V30 3328 O 320.894 0.988068 -1.75497 0
M  V30 3329 C 317.959 1.4035 -3.17022 0
M  V30 3330 C 317.02 0.754961 -4.2261 0
M  V30 3331 C 316.253 1.77367 -5.03365 0
M  V30 3332 O 316.476 2.99976 -4.8515 0
M  V30 3333 O 315.41 1.34744 -5.86624 0
M  V30 3334 H 319.236 -0.334067 -3.01857 0
M  V30 3335 H 316.821 -0.229496 -1.47627 0
M  V30 3336 H 318.703 2.02318 -3.69656 0
M  V30 3337 H 317.378 2.05492 -2.5011 0
M  V30 3338 H 316.285 0.0964244 -3.73976 0
M  V30 3339 H 317.618 0.146545 -4.91982 0
M  V30 3340 N 319.27 1.56325 -0.20005 0
M  V30 3341 C 320.516 1.98012 0.438059 0
M  V30 3342 C 320.849 1.08702 1.60927 0
M  V30 3343 O 320.124 0.140064 1.93995 0
M  V30 3344 C 320.407 3.48841 0.893419 0
M  V30 3345 C 320.26 4.48928 -0.279947 0
M  V30 3346 C 321.579 4.03498 1.75719 0
M  V30 3347 H 318.698 0.719918 0.157757 0
M  V30 3348 H 321.34 1.87743 -0.291968 0
M  V30 3349 H 319.49 3.57723 1.51547 0
M  V30 3350 H 321.162 4.52079 -0.91772 0
M  V30 3351 H 319.405 4.23694 -0.930919 0
M  V30 3352 H 320.076 5.5194 0.0812601 0
M  V30 3353 H 322.552 3.97427 1.23253 0
M  V30 3354 H 321.428 5.09393 2.04476 0
M  V30 3355 H 321.689 3.4906 2.71311 0
M  V30 3356 N 320.748 -0.0735177 1.57428 0
M  V30 3357 C 321.678 -1.0879 2.06608 0
M  V30 3358 C 322.659 -1.40473 0.959237 0
M  V30 3359 O 323.844 -1.5013 1.23185 0
M  V30 3360 C 320.974 -2.40183 2.50857 0
M  V30 3361 C 319.928 -2.22858 3.65402 0
M  V30 3362 C 319.254 -3.59619 3.957 0
M  V30 3363 C 320.554 -1.65123 4.95511 0
M  V30 3364 H 322.248 -0.678673 2.91607 0
M  V30 3365 H 319.794 -0.325013 1.40284 0
M  V30 3366 H 321.747 -3.11437 2.83874 0
M  V30 3367 H 320.471 -2.83083 1.62885 0
M  V30 3368 H 319.13 -1.54045 3.32664 0
M  V30 3369 H 318.778 -4.00086 3.04861 0
M  V30 3370 H 318.478 -3.48866 4.72828 0
M  V30 3371 H 320.002 -4.32306 4.31212 0
M  V30 3372 H 321.416 -2.26241 5.26771 0
M  V30 3373 H 319.813 -1.65071 5.7695 0
M  V30 3374 H 320.883 -0.612559 4.81015 0
M  V30 3375 N 322.226 -1.5378 -0.344866 0
M  V30 3376 C 323.503 -1.61589 -1.10219 0
M  V30 3377 C 323.883 -0.436316 -2.06542 0
M  V30 3378 O 323.231 0.571543 -2.21237 0
M  V30 3379 C 323.441 -2.97602 -1.82301 0
M  V30 3380 C 324.789 -3.5291 -2.36093 0
M  V30 3381 O 325.813 -2.99768 -1.924 0
M  V30 3382 O 324.672 -4.45859 -3.16026 0
M  V30 3383 H 321.766 -0.653522 -0.506792 0
M  V30 3384 H 324.312 -1.66126 -0.346465 0
M  V30 3385 H 323.084 -3.74893 -1.12121 0
M  V30 3386 H 322.707 -2.9665 -2.64735 0
M  V30 3387 N 323.704 0.605807 -1.45491 0
M  V30 3388 C 324.981 1.36522 -1.40075 0
M  V30 3389 C 325.361 2.10976 -0.0722744 0
M  V30 3390 O 324.709 2.08007 0.945808 0
M  V30 3391 C 324.919 2.31056 -2.61561 0
M  V30 3392 C 326.267 2.93608 -3.06724 0
M  V30 3393 O 327.291 2.41376 -2.61946 0
M  V30 3394 O 326.15 3.88421 -3.84437 0
M  V30 3395 H 323.244 0.612248 -0.555951 0
M  V30 3396 H 325.79 0.628747 -1.57623 0
M  V30 3397 H 324.562 1.75311 -3.49831 0
M  V30 3398 H 324.185 3.12081 -2.46356 0
M  V30 3399 N 325.182 1.32811 0.848464 0
M  V30 3400 C 326.593 1.21315 1.41914 0
M  V30 3401 C 326.944 -0.171847 1.95446 0
M  V30 3402 O 326.069 -1.07093 1.88043 0
M  V30 3403 C 326.664 2.19631 2.57968 0
M  V30 3404 C 325.223 2.12003 3.11017 0
M  V30 3405 C 324.37 2.07651 1.83783 0
M  V30 3406 H 327.321 1.44549 0.655071 0
M  V30 3407 H 327.342 1.79845 3.35315 0
M  V30 3408 H 326.854 3.20423 2.18976 0
M  V30 3409 H 324.955 1.14481 3.54577 0
M  V30 3410 H 325.068 3.02111 3.71841 0
M  V30 3411 H 323.432 1.52983 2.03638 0
M  V30 3412 H 324.215 3.10235 1.47 0
M  V30 3413 N 326.66 -1.06551 1.16123 0
M  V30 3414 C 327.623 -2.12132 0.867906 0
M  V30 3415 C 328.623 -1.60224 -0.135944 0
M  V30 3416 O 329.813 -1.73943 0.0946422 0
M  V30 3417 C 326.945 -3.396 0.297419 0
M  V30 3418 H 328.138 -2.39586 1.80385 0
M  V30 3419 H 325.691 -1.22574 0.969812 0
M  V30 3420 H 326.426 -3.17794 -0.64633 0
M  V30 3421 H 326.211 -3.78581 1.02073 0
M  V30 3422 H 327.701 -4.17455 0.110052 0
M  V30 3423 N 328.138 -0.959301 -1.25041 0
M  V30 3424 C 329.048 -0.489994 -2.29426 0
M  V30 3425 C 330.064 0.444944 -1.68215 0
M  V30 3426 O 331.24 0.320046 -1.98841 0
M  V30 3427 C 328.305 0.220309 -3.45999 0
M  V30 3428 C 327.366 -0.753418 -4.22637 0
M  V30 3429 C 326.599 -0.076918 -5.33645 0
M  V30 3430 O 326.822 1.13649 -5.58963 0
M  V30 3431 O 325.756 -0.764824 -5.97021 0
M  V30 3432 H 329.582 -1.35755 -2.71669 0
M  V30 3433 H 327.167 -0.725961 -1.30576 0
M  V30 3434 H 329.049 0.619677 -4.16819 0
M  V30 3435 H 327.724 1.06296 -3.0575 0
M  V30 3436 H 326.631 -1.20308 -3.54227 0
M  V30 3437 H 327.964 -1.56423 -4.66683 0
M  V30 3438 N 329.616 1.39756 -0.72842 0
M  V30 3439 C 330.893 1.94574 -0.200079 0
M  V30 3440 C 331.273 1.66569 1.29684 0
M  V30 3441 O 330.621 0.990326 2.05924 0
M  V30 3442 C 330.831 3.45004 -0.526608 0
M  V30 3443 C 332.179 4.21965 -0.472318 0
M  V30 3444 O 333.203 3.53173 -0.463413 0
M  V30 3445 O 332.062 5.44552 -0.461075 0
M  V30 3446 H 329.156 0.826289 -0.0342851 0
M  V30 3447 H 331.702 1.49293 -0.806829 0
M  V30 3448 H 330.474 3.58796 -1.56144 0
M  V30 3449 H 330.097 3.97449 0.109449 0
M  V30 3450 N 331.094 0.475555 1.50254 0
M  V30 3451 C 332.042 -0.330276 2.30243 0
M  V30 3452 C 333.036 -0.986306 1.37726 0
M  V30 3453 O 334.242 -0.9169 1.54897 0
M  V30 3454 H 330.617 -0.125353 0.741479 0
M  V30 3455 H 332.588 0.364702 2.96163 0
M  V30 3456 C 331.337 -1.39704 3.18399 0
M  V30 3457 H 330.66 -0.901621 3.89501 0
M  V30 3458 H 332.1 -1.93336 3.77355 0
M  V30 3459 C 330.559 -2.4014 2.36293 0
M  V30 3460 O 331.089 -3.45504 2.04914 0
M  V30 3461 N 329.295 -2.1197 1.98789 0
M  V30 3462 H 328.842 -1.2631 2.24507 0
M  V30 3463 H 328.8 -2.79403 1.44157 0
M  V30 3464 N 332.573 -1.56217 0.208337 0
M  V30 3465 C 333.503 -2.22694 -0.702116 0
M  V30 3466 C 334.484 -1.19432 -1.2112 0
M  V30 3467 O 335.669 -1.47978 -1.25762 0
M  V30 3468 C 332.799 -2.8966 -1.9161 0
M  V30 3469 C 331.753 -3.9928 -1.5414 0
M  V30 3470 C 331.079 -4.53476 -2.83308 0
M  V30 3471 C 332.379 -5.17012 -0.741339 0
M  V30 3472 H 334.073 -2.99034 -0.147898 0
M  V30 3473 H 331.619 -1.43831 -0.0696951 0
M  V30 3474 H 333.572 -3.34852 -2.55836 0
M  V30 3475 H 332.296 -2.10746 -2.49507 0
M  V30 3476 H 330.955 -3.54799 -0.922668 0
M  V30 3477 H 330.603 -3.71308 -3.39322 0
M  V30 3478 H 330.303 -5.27451 -2.58976 0
M  V30 3479 H 331.827 -5.01378 -3.485 0
M  V30 3480 H 333.241 -5.58667 -1.28699 0
M  V30 3481 H 331.638 -5.97137 -0.595627 0
M  V30 3482 H 332.708 -4.8423 0.254851 0
M  V30 3483 N 334.051 0.0651679 -1.57465 0
M  V30 3484 C 335.281 0.774683 -1.91526 0
M  V30 3485 C 335.689 1.71305 -0.803196 0
M  V30 3486 O 335.032 1.82231 0.231881 0
M  V30 3487 C 335.094 1.61645 -3.21109 0
M  V30 3488 C 334.758 0.846753 -4.49087 0
M  V30 3489 C 335.755 0.163024 -5.19644 0
M  V30 3490 C 333.44 0.811966 -4.95694 0
M  V30 3491 C 335.434 -0.54519 -6.35064 0
M  V30 3492 C 333.121 0.0999836 -6.11018 0
M  V30 3493 C 334.119 -0.577388 -6.80555 0
M  V30 3494 O 333.807 -1.27789 -7.93678 0
M  V30 3495 H 333.539 0.225031 -0.637446 0
M  V30 3496 H 336.093 0.0377134 -2.05365 0
M  V30 3497 H 334.323 2.39638 -3.03497 0
M  V30 3498 H 336.012 2.20525 -3.40769 0
M  V30 3499 H 336.778 0.181163 -4.84662 0
M  V30 3500 H 332.657 1.32867 -4.41438 0
M  V30 3501 H 336.201 -1.07446 -6.89276 0
M  V30 3502 H 332.098 0.0797945 -6.45451 0
M  V30 3503 H 332.866 -1.18784 -8.09835 0
M  V30 3504 N 335.529 1.53961 0.336706 0
M  V30 3505 C 336.459 1.85417 1.41925 0
M  V30 3506 C 337.44 0.709856 1.5458 0
M  V30 3507 O 338.625 0.962396 1.68676 0
M  V30 3508 C 335.755 2.06985 2.78881 0
M  V30 3509 C 334.709 3.22813 2.81026 0
M  V30 3510 C 334.035 3.29727 4.20932 0
M  V30 3511 C 335.335 4.60767 2.45949 0
M  V30 3512 H 337.029 2.76079 1.15848 0
M  V30 3513 H 334.575 1.32839 0.555859 0
M  V30 3514 H 336.528 2.27575 3.54665 0
M  V30 3515 H 335.252 1.13061 3.06406 0
M  V30 3516 H 333.911 3.0209 2.07695 0
M  V30 3517 H 333.559 2.33385 4.45579 0
M  V30 3518 H 333.259 4.07566 4.23277 0
M  V30 3519 H 334.783 3.52536 4.98549 0
M  V30 3520 H 336.197 4.81325 3.11446 0
M  V30 3521 H 334.594 5.4106 2.59566 0
M  V30 3522 H 335.664 4.6391 1.41122 0
M  V30 3523 N 337.007 -0.598083 1.45811 0
M  V30 3524 C 338.253 -1.35882 1.50545 0
M  V30 3525 C 338.586 -1.93616 0.150445 0
M  V30 3526 O 337.861 -1.75604 -0.83628 0
M  V30 3527 C 338.144 -2.49966 2.59208 0
M  V30 3528 C 337.997 -1.97367 4.04186 0
M  V30 3529 C 339.316 -3.52068 2.64076 0
M  V30 3530 H 336.435 -0.492717 0.548087 0
M  V30 3531 H 339.077 -0.673319 1.77669 0
M  V30 3532 H 337.227 -3.08443 2.3621 0
M  V30 3533 H 338.899 -1.43466 4.38423 0
M  V30 3534 H 337.142 -1.283 4.14393 0
M  V30 3535 H 337.813 -2.79649 4.75921 0
M  V30 3536 H 340.289 -3.03448 2.84708 0
M  V30 3537 H 339.165 -4.2937 3.41954 0
M  V30 3538 H 339.426 -4.08304 1.69531 0
M  V30 3539 N 338.485 -1.33259 -0.841409 0
M  V30 3540 C 339.732 -1.24572 -1.5965 0
M  V30 3541 C 340.06 0.189137 -1.93578 0
M  V30 3542 O 339.315 1.14566 -1.5866 0
M  V30 3543 C 339.614 -2.06381 -2.9179 0
M  V30 3544 C 339.28 -3.556 -2.77235 0
M  V30 3545 C 337.942 -3.96282 -2.72973 0
M  V30 3546 C 340.294 -4.50433 -2.62221 0
M  V30 3547 C 337.622 -5.30017 -2.51592 0
M  V30 3548 C 339.974 -5.84327 -2.42374 0
M  V30 3549 C 338.638 -6.24194 -2.36512 0
M  V30 3550 H 337.908 -0.455842 -0.5842 0
M  V30 3551 H 340.555 -1.6482 -0.975016 0
M  V30 3552 H 338.86 -1.58903 -3.5813 0
M  V30 3553 H 340.557 -1.97019 -3.49263 0
M  V30 3554 H 337.147 -3.23298 -2.81384 0
M  V30 3555 H 341.331 -4.19914 -2.64549 0
M  V30 3556 H 336.587 -5.59947 -2.45499 0
M  V30 3557 H 340.761 -6.57414 -2.29739 0
M  V30 3558 H 338.388 -7.27759 -2.19706 0
M  V30 3559 N 339.963 1.05934 -1.16686 0
M  V30 3560 C 341.24 1.75643 -0.860747 0
M  V30 3561 C 341.62 2.01144 0.640641 0
M  V30 3562 O 340.968 1.64147 1.58959 0
M  V30 3563 C 341.178 3.05493 -1.68745 0
M  V30 3564 C 342.526 3.79581 -1.90271 0
M  V30 3565 O 343.55 3.15344 -1.65641 0
M  V30 3566 O 342.409 4.9499 -2.31618 0
M  V30 3567 H 339.503 0.763426 -0.317977 0
M  V30 3568 H 342.049 1.1217 -1.27342 0
M  V30 3569 H 340.821 2.8264 -2.70611 0
M  V30 3570 H 340.444 3.76702 -1.27206 0
M  V30 3571 N 341.441 0.965919 1.2453 0
M  V30 3572 C 342.371 0.513476 2.27784 0
M  V30 3573 C 343.352 -0.445974 1.6415 0
M  V30 3574 O 344.537 -0.342485 1.91156 0
M  V30 3575 C 341.667 -0.198839 3.4673 0
M  V30 3576 C 340.621 0.676456 4.2262 0
M  V30 3577 C 339.947 -0.167248 5.34438 0
M  V30 3578 C 341.247 1.96017 4.84123 0
M  V30 3579 H 342.941 1.3765 2.65881 0
M  V30 3580 H 340.487 0.663321 1.27813 0
M  V30 3581 H 342.44 -0.526567 4.18097 0
M  V30 3582 H 341.164 -1.0962 3.07654 0
M  V30 3583 H 339.823 0.98743 3.53052 0
M  V30 3584 H 339.471 -1.0647 4.91603 0
M  V30 3585 H 339.171 0.415181 5.86131 0
M  V30 3586 H 340.695 -0.489688 6.08633 0
M  V30 3587 H 342.109 1.69814 5.47573 0
M  V30 3588 H 340.506 2.48918 5.4604 0
M  V30 3589 H 341.576 2.65622 4.05676 0
M  V30 3590 N 342.919 -1.39368 0.735821 0
M  V30 3591 C 343.849 -2.33234 0.111506 0
M  V30 3592 C 344.83 -1.53954 -0.723334 0
M  V30 3593 O 346.015 -1.82344 -0.668147 0
M  V30 3594 C 343.145 -3.38057 -0.795917 0
M  V30 3595 C 342.099 -4.2795 -0.065172 0
M  V30 3596 C 341.425 -5.23479 -1.08967 0
M  V30 3597 C 342.725 -5.10741 1.09273 0
M  V30 3598 H 344.419 -2.85692 0.895571 0
M  V30 3599 H 341.965 -1.37364 0.432109 0
M  V30 3600 H 343.918 -4.02675 -1.24221 0
M  V30 3601 H 342.642 -2.8404 -1.61211 0
M  V30 3602 H 341.301 -3.64813 0.361511 0
M  V30 3603 H 340.949 -4.65758 -1.89944 0
M  V30 3604 H 340.649 -5.84472 -0.605489 0
M  V30 3605 H 342.173 -5.90974 -1.53565 0
M  V30 3606 H 343.587 -5.68699 0.724841 0
M  V30 3607 H 341.984 -5.8088 1.50659 0
M  V30 3608 H 343.054 -4.45525 1.91404 0
M  V30 3609 N 344.397 -0.483516 -1.5 0
M  V30 3610 C 345.813 -0.138404 -1.58999 0
M  V30 3611 C 346.013 1.35597 -1.4905 0
M  V30 3612 O 345.069 2.13039 -1.35539 0
M  V30 3613 C 346.382 -0.699658 -2.92447 0
M  V30 3614 C 347.93 -0.664195 -3.05872 0
M  V30 3615 C 348.405 -1.20321 -4.41913 0
M  V30 3616 N 349.896 -1.16315 -4.48358 0
M  V30 3617 C 350.631 -1.55058 -5.52037 0
M  V30 3618 N 350.127 -2.01311 -6.62907 0
M  V30 3619 N 351.92 -1.46584 -5.42651 0
M  V30 3620 H 344.071 -1.45529 -1.5471 0
M  V30 3621 H 346.334 -0.60258 -0.731848 0
M  V30 3622 H 346.04 -1.747 -3.05242 0
M  V30 3623 H 345.914 -0.150194 -3.76901 0
M  V30 3624 H 348.301 0.374272 -2.92717 0
M  V30 3625 H 348.382 -1.25061 -2.23144 0
M  V30 3626 H 348.026 -2.24037 -4.55818 0
M  V30 3627 H 347.956 -0.592896 -5.23252 0
M  V30 3628 H 350.447 -0.824058 -3.68806 0
M  V30 3629 H 350.76 -2.2899 -7.38095 0
M  V30 3630 H 349.105 -2.05273 -6.63994 0
M  V30 3631 H 352.296 -1.10281 -4.54924 0
M  V30 3632 H 352.469 -1.77103 -6.23329 0
M  V30 3633 N 345.875 1.56104 -0.216619 0
M  V30 3634 C 346.822 2.2007 0.695531 0
M  V30 3635 C 347.792 1.15471 1.19397 0
M  V30 3636 O 348.977 1.43807 1.25396 0
M  V30 3637 C 346.117 2.88073 1.90021 0
M  V30 3638 C 345.23 4.07253 1.44113 0
M  V30 3639 C 344.365 4.63052 2.603 0
M  V30 3640 C 343.404 5.74545 2.11103 0
M  V30 3641 N 342.541 6.24656 3.20545 0
M  V30 3642 H 347.381 2.97655 0.143327 0
M  V30 3643 H 344.918 1.46982 0.0589934 0
M  V30 3644 H 346.876 3.25681 2.60745 0
M  V30 3645 H 345.506 2.13015 2.42538 0
M  V30 3646 H 344.558 3.75164 0.628999 0
M  V30 3647 H 345.87 4.8783 1.04036 0
M  V30 3648 H 345.024 5.03078 3.39113 0
M  V30 3649 H 343.763 3.81628 3.03663 0
M  V30 3650 H 342.768 5.34027 1.3075 0
M  V30 3651 H 343.993 6.57801 1.68746 0
M  V30 3652 H 341.939 5.46148 3.63399 0
M  V30 3653 H 341.856 7.00343 2.84704 0
M  V30 3654 H 343.124 6.69338 3.99508 0
M  V30 3655 N 347.353 -0.0568162 1.57498 0
M  V30 3656 C 348.601 -0.751617 1.87604 0
M  V30 3657 C 348.922 -1.77351 0.81066 0
M  V30 3658 O 348.192 -1.95254 -0.159018 0
M  V30 3659 H 346.772 -0.280583 0.692302 0
M  V30 3660 H 349.434 -0.0293483 1.94878 0
M  V30 3661 H 348.53 -1.25852 2.856 0
M  V30 3662 N 348.832 -1.54138 -0.328536 0
M  V30 3663 C 350.243 -1.63395 -0.903272 0
M  V30 3664 C 350.594 -0.524828 -1.8905 0
M  V30 3665 O 349.719 0.343068 -2.13663 0
M  V30 3666 C 350.314 -2.9618 -1.64507 0
M  V30 3667 C 348.873 -3.0765 -2.1686 0
M  V30 3668 C 348.02 -2.58933 -0.992416 0
M  V30 3669 H 350.971 -1.58344 -0.106253 0
M  V30 3670 H 350.992 -2.86061 -2.50897 0
M  V30 3671 H 350.504 -3.76884 -0.926302 0
M  V30 3672 H 348.605 -2.31611 -2.91868 0
M  V30 3673 H 348.718 -4.1337 -2.42202 0
M  V30 3674 H 347.082 -2.14706 -1.37016 0
M  V30 3675 H 347.865 -3.42089 -0.288041 0
M  V30 3676 N 350.31 0.590341 -1.46126 0
M  V30 3677 C 351.556 1.35082 -1.51264 0
M  V30 3678 C 351.889 1.93534 -0.160711 0
M  V30 3679 O 351.164 1.76045 0.826956 0
M  V30 3680 C 351.447 2.48588 -2.6053 0
M  V30 3681 C 351.3 1.95221 -4.05227 0
M  V30 3682 C 352.619 3.50662 -2.6594 0
M  V30 3683 H 349.738 0.489803 -0.550692 0
M  V30 3684 H 352.38 0.663887 -1.78024 0
M  V30 3685 H 350.53 3.07186 -2.37843 0
M  V30 3686 H 352.202 1.41139 -4.39178 0
M  V30 3687 H 350.445 1.26101 -4.15068 0
M  V30 3688 H 351.116 2.77121 -4.77397 0
M  V30 3689 H 353.592 3.01934 -2.86313 0
M  V30 3690 H 352.468 4.27551 -3.44226 0
M  V30 3691 H 352.729 4.07399 -1.71694 0
M  V30 3692 N 351.788 1.33704 0.83433 0
M  V30 3693 C 352.721 1.18675 1.94914 0
M  V30 3694 C 353.699 0.0811145 1.62398 0
M  V30 3695 O 354.883 0.244186 1.86912 0
M  V30 3696 C 352.01 0.821231 3.28593 0
M  V30 3697 C 351.056 1.93501 3.80079 0
M  V30 3698 S 351.889 3.54671 4.01209 0
M  V30 3699 C 353.045 3.20136 5.37833 0
M  V30 3700 H 353.278 2.13043 2.07364 0
M  V30 3701 H 350.811 1.18598 0.988624 0
M  V30 3702 H 352.769 0.617123 4.05835 0
M  V30 3703 H 351.43 -0.103927 3.13928 0
M  V30 3704 H 350.623 1.63273 4.76821 0
M  V30 3705 H 350.225 2.09601 3.09747 0
M  V30 3706 H 352.517 2.71242 6.20833 0
M  V30 3707 H 353.46 4.15975 5.73036 0
M  V30 3708 H 353.868 2.56613 5.02802 0
M  V30 3709 N 353.266 -1.05314 1.17247 0
M  V30 3710 C 354.176 -2.16538 0.90268 0
M  V30 3711 C 355.192 -1.73523 -0.128707 0
M  V30 3712 O 356.368 -2.01337 0.0502701 0
M  V30 3713 C 353.433 -3.44167 0.418356 0
M  V30 3714 C 352.494 -4.01635 1.51618 0
M  V30 3715 C 351.727 -5.23171 1.05487 0
M  V30 3716 O 351.95 -5.70327 -0.0914715 0
M  V30 3717 O 350.884 -5.72848 1.8474 0
M  V30 3718 H 354.71 -2.42145 1.83302 0
M  V30 3719 H 352.295 -1.15037 0.953246 0
M  V30 3720 H 354.177 -4.21112 0.155726 0
M  V30 3721 H 352.852 -3.20063 -0.48385 0
M  V30 3722 H 351.759 -3.26135 1.83268 0
M  V30 3723 H 353.092 -4.30053 2.39405 0
M  V30 3724 N 354.744 -0.972509 -1.24016 0
M  V30 3725 C 355.99 -0.637978 -1.92504 0
M  V30 3726 C 356.323 0.825383 -1.75787 0
M  V30 3727 O 355.598 1.59442 -1.11393 0
M  V30 3728 C 355.881 -1.01942 -3.45369 0
M  V30 3729 C 355.734 -2.53983 -3.71231 0
M  V30 3730 C 357.053 -0.55751 -4.36555 0
M  V30 3731 H 354.172 -0.233248 -0.699117 0
M  V30 3732 H 356.814 -1.21238 -1.46292 0
M  V30 3733 H 354.964 -0.530656 -3.84859 0
M  V30 3734 H 356.636 -3.10374 -3.41271 0
M  V30 3735 H 354.879 -2.96968 -3.16216 0
M  V30 3736 H 355.55 -2.75723 -4.78206 0
M  V30 3737 H 358.026 -0.977029 -4.04467 0
M  V30 3738 H 356.902 -0.85292 -5.42233 0
M  V30 3739 H 357.163 0.542328 -4.38761 0
M  V30 3740 N 356.222 1.38976 -0.743202 0
M  V30 3741 C 357.633 1.83123 -0.363732 0
M  V30 3742 C 357.984 1.6205 1.10609 0
M  V30 3743 O 357.109 1.11606 1.854 0
M  V30 3744 C 357.704 3.32439 -0.653408 0
M  V30 3745 C 356.263 3.74974 -0.327338 0
M  V30 3746 C 355.41 2.61878 -0.911875 0
M  V30 3747 H 358.361 1.27852 -0.940191 0
M  V30 3748 H 358.382 3.80432 0.0720031 0
M  V30 3749 H 357.894 3.47745 -1.72323 0
M  V30 3750 H 355.995 3.65252 0.736314 0
M  V30 3751 H 356.108 4.72106 -0.815631 0
M  V30 3752 H 354.472 2.52448 -0.337944 0
M  V30 3753 H 355.255 2.79987 -1.98651 0
M  V30 3754 N 357.7 0.491464 1.49741 0
M  V30 3755 C 358.94 -0.0549118 2.04326 0
M  V30 3756 C 359.304 -1.35148 1.36378 0
M  V30 3757 O 360.505 -1.9815 1.81631 0
M  V30 3758 C 358.776 -0.213841 3.5676 0
M  V30 3759 S 360.335 -0.715839 4.32922 0
M  V30 3760 H 357.153 -0.00630513 0.710972 0
M  V30 3761 H 359.755 0.663257 1.83905 0
M  V30 3762 H 358.459 0.73527 4.0376 0
M  V30 3763 H 357.99 -0.957529 3.81569 0
M  V30 3764 H 360.005 -1.9864 4.54705 0
M  V30 3765 N 359.178 -1.55987 0.224894 0
M  V30 3766 C 360.455 -1.90232 -0.455083 0
M  V30 3767 C 360.835 -1.14269 -1.77499 0
M  V30 3768 O 360.183 -0.253079 -2.27094 0
M  V30 3769 C 360.393 -3.42993 -0.644758 0
M  V30 3770 C 361.741 -4.13821 -0.950669 0
M  V30 3771 O 362.765 -3.4861 -0.731423 0
M  V30 3772 O 361.624 -5.29128 -1.36695 0
M  V30 3773 H 358.718 -0.79108 -0.241084 0
M  V30 3774 H 361.264 -1.67581 0.267327 0
M  V30 3775 H 360.036 -3.90252 0.28613 0
M  V30 3776 H 359.659 -3.71434 -1.41853 0
M  V30 3777 N 360.656 0.0484629 -1.57525 0
M  V30 3778 C 361.603 1.05504 -2.05275 0
M  V30 3779 C 362.573 1.37084 -0.937927 0
M  V30 3780 O 363.758 1.47754 -1.2072 0
M  V30 3781 C 360.898 2.35676 -2.52093 0
M  V30 3782 C 360.011 2.10423 -3.77288 0
M  V30 3783 C 359.146 3.34327 -4.12794 0
M  V30 3784 C 358.185 3.04542 -5.30962 0
M  V30 3785 N 357.322 4.20841 -5.61994 0
M  V30 3786 H 362.162 0.640885 -2.91027 0
M  V30 3787 H 359.699 0.304854 -1.43906 0
M  V30 3788 H 361.657 3.11709 -2.77297 0
M  V30 3789 H 360.287 2.7485 -1.69285 0
M  V30 3790 H 359.339 1.24976 -3.59284 0
M  V30 3791 H 360.651 1.84438 -4.63448 0
M  V30 3792 H 359.805 4.1874 -4.39024 0
M  V30 3793 H 358.544 3.63408 -3.25247 0
M  V30 3794 H 357.549 2.18528 -5.04505 0
M  V30 3795 H 358.774 2.76758 -6.20146 0
M  V30 3796 H 356.72 4.4991 -4.77406 0
M  V30 3797 H 356.637 3.98212 -6.42622 0
M  V30 3798 H 357.905 5.06184 -5.92789 0
M  V30 3799 N 362.134 1.5431 0.320358 0
M  V30 3800 C 363.545 1.63872 0.894594 0
M  V30 3801 C 363.896 0.534847 1.88769 0
M  V30 3802 O 363.021 -0.331732 2.13842 0
M  V30 3803 C 363.616 2.97049 1.62934 0
M  V30 3804 C 362.175 3.08796 2.15226 0
M  V30 3805 C 361.322 2.59456 0.978671 0
M  V30 3806 H 364.273 1.58398 0.0978544 0
M  V30 3807 H 364.294 2.87388 2.49376 0
M  V30 3808 H 363.806 3.7737 0.906302 0
M  V30 3809 H 361.907 2.33156 2.90636 0
M  V30 3810 H 362.02 4.14649 2.40006 0
M  V30 3811 H 360.384 2.1543 1.35875 0
M  V30 3812 H 361.167 3.42237 0.269895 0
M  V30 3813 N 363.613 -0.582584 1.46437 0
M  V30 3814 C 364.86 -1.34079 1.51753 0
M  V30 3815 C 365.188 -1.93762 0.169299 0
M  V30 3816 O 364.443 -1.76989 -0.835062 0
M  V30 3817 C 364.742 -2.48964 2.56421 0
M  V30 3818 C 364.408 -2.07273 4.00436 0
M  V30 3819 C 363.07 -1.95618 4.39644 0
M  V30 3820 C 365.422 -1.75111 4.90903 0
M  V30 3821 C 362.75 -1.5006 5.67185 0
M  V30 3822 C 365.102 -1.31032 6.18881 0
M  V30 3823 C 363.766 -1.17954 6.56996 0
M  V30 3824 H 363.036 -0.49063 0.555304 0
M  V30 3825 H 365.683 -0.656007 1.79913 0
M  V30 3826 H 363.988 -3.22889 2.21923 0
M  V30 3827 H 365.685 -3.07178 2.57765 0
M  V30 3828 H 362.275 -2.17279 3.69443 0
M  V30 3829 H 366.459 -1.83001 4.61329 0
M  V30 3830 H 361.715 -1.38577 5.95488 0
M  V30 3831 H 365.889 -1.052 6.88408 0
M  V30 3832 H 363.516 -0.824279 7.55718 0
M  V30 3833 N 365.091 -1.34144 -0.827227 0
M  V30 3834 C 366.316 -1.29476 -1.62021 0
M  V30 3835 C 366.741 0.129292 -1.87655 0
M  V30 3836 O 366.099 1.08967 -1.449 0
M  V30 3837 C 366.147 -2.08702 -2.94068 0
M  V30 3838 O 365.251 -1.45359 -3.85933 0
M  V30 3839 H 364.592 -0.444881 -0.492927 0
M  V30 3840 H 367.122 -1.76882 -1.02829 0
M  V30 3841 H 367.132 -2.19898 -3.43669 0
M  V30 3842 H 365.807 -3.12241 -2.74734 0
M  V30 3843 H 364.384 -1.42879 -3.44442 0
M  V30 3844 N 366.569 1.04691 -1.17803 0
M  V30 3845 C 367.479 2.16057 -0.914151 0
M  V30 3846 C 368.495 1.73589 0.119503 0
M  V30 3847 O 369.671 2.01308 -0.0609468 0
M  V30 3848 C 366.736 3.4394 -0.436603 0
M  V30 3849 C 365.797 4.00825 -1.53746 0
M  V30 3850 C 365.03 5.22604 -1.0826 0
M  V30 3851 O 365.253 5.70367 0.0612244 0
M  V30 3852 O 364.187 5.7186 -1.87775 0
M  V30 3853 H 368.013 2.41169 -1.84584 0
M  V30 3854 H 365.598 1.1453 -0.959334 0
M  V30 3855 H 367.48 4.21024 -0.178057 0
M  V30 3856 H 366.155 3.20316 0.466869 0
M  V30 3857 H 365.062 3.25158 -1.84995 0
M  V30 3858 H 366.395 4.28778 -2.41683 0
M  V30 3859 N 368.047 0.979072 1.23499 0
M  V30 3860 C 368.957 0.526431 2.28617 0
M  V30 3861 C 369.973 -0.418126 1.68901 0
M  V30 3862 O 371.149 -0.288372 1.99325 0
M  V30 3863 C 368.214 -0.165235 3.46306 0
M  V30 3864 C 367.275 0.82056 4.21385 0
M  V30 3865 C 366.508 0.161807 5.33455 0
M  V30 3866 O 366.731 -1.04742 5.60701 0
M  V30 3867 O 365.665 0.859708 5.95729 0
M  V30 3868 H 369.491 1.4006 2.69475 0
M  V30 3869 H 367.076 0.746643 1.29405 0
M  V30 3870 H 368.958 -0.553287 4.17752 0
M  V30 3871 H 367.633 -1.01419 3.07402 0
M  V30 3872 H 366.54 1.25929 3.52268 0
M  V30 3873 H 367.873 1.63828 4.64135 0
M  V30 3874 N 369.525 -1.3858 0.750561 0
M  V30 3875 C 370.457 -2.29057 0.0810714 0
M  V30 3876 C 371.47 -1.47596 -0.686973 0
M  V30 3877 O 372.659 -1.70495 -0.528563 0
M  V30 3878 C 369.759 -3.26475 -0.909247 0
M  V30 3879 C 368.932 -4.36945 -0.199478 0
M  V30 3880 C 367.991 -5.14572 -1.10011 0
M  V30 3881 O 367.017 -5.66321 -0.57177 0
M  V30 3882 N 368.219 -5.27262 -2.42849 0
M  V30 3883 H 370.984 -2.87153 0.858087 0
M  V30 3884 H 368.545 -1.50328 0.60109 0
M  V30 3885 H 370.537 -3.75285 -1.51471 0
M  V30 3886 H 369.107 -2.69298 -1.58736 0
M  V30 3887 H 368.327 -3.8981 0.586664 0
M  V30 3888 H 369.615 -5.07963 0.291783 0
M  V30 3889 H 369.013 -4.86763 -2.88233 0
M  V30 3890 H 367.57 -5.79456 -2.98453 0
M  V30 3891 N 371.003 -0.499398 -1.49478 0
M  V30 3892 C 371.966 0.268838 -2.27618 0
M  V30 3893 C 372.966 0.895383 -1.33565 0
M  V30 3894 O 374.156 0.760164 -1.56739 0
M  V30 3895 C 371.288 1.38559 -3.11471 0
M  V30 3896 H 372.481 -0.416812 -2.96989 0
M  V30 3897 H 370.034 -0.254313 -1.54217 0
M  V30 3898 H 370.769 2.10544 -2.46661 0
M  V30 3899 H 370.554 0.941797 -3.80621 0
M  V30 3900 H 372.044 1.92678 -3.70493 0
M  V30 3901 N 372.481 1.55866 -0.233164 0
M  V30 3902 C 373.897 1.59133 0.121988 0
M  V30 3903 C 374.097 1.25016 1.58029 0
M  V30 3904 O 373.153 0.990922 2.32243 0
M  V30 3905 C 374.466 2.99932 -0.214792 0
M  V30 3906 C 376.014 3.12601 -0.157971 0
M  V30 3907 C 376.489 4.55597 -0.46859 0
M  V30 3908 N 377.98 4.61305 -0.418585 0
M  V30 3909 C 378.715 5.69903 -0.63227 0
M  V30 3910 N 378.211 6.86819 -0.90835 0
M  V30 3911 N 380.004 5.59264 -0.563913 0
M  V30 3912 H 372.155 1.76315 -1.18434 0
M  V30 3913 H 374.418 0.820093 -0.475553 0
M  V30 3914 H 374.124 3.29588 -1.22739 0
M  V30 3915 H 373.998 3.74327 0.464691 0
M  V30 3916 H 376.385 2.82735 0.845283 0
M  V30 3917 H 376.466 2.40511 -0.871102 0
M  V30 3918 H 376.11 4.86182 -1.46934 0
M  V30 3919 H 376.04 5.25928 0.265865 0
M  V30 3920 H 378.531 3.77297 -0.213368 0
M  V30 3921 H 378.844 7.65507 -1.05919 0
M  V30 3922 H 377.189 6.88536 -0.945673 0
M  V30 3923 H 380.38 4.66802 -0.348372 0
M  V30 3924 H 380.553 6.43831 -0.733847 0
M  V30 3925 N 373.959 -0.0401083 1.57549 0
M  V30 3926 C 374.889 -1.04384 2.08869 0
M  V30 3927 C 375.87 -1.38407 0.988817 0
M  V30 3928 O 377.055 -1.47483 1.26342 0
M  V30 3929 C 374.185 -2.34808 2.55895 0
M  V30 3930 C 373.139 -2.15057 3.70047 0
M  V30 3931 C 372.465 -3.51145 4.03239 0
M  V30 3932 C 373.765 -1.54576 4.98902 0
M  V30 3933 H 375.459 -0.616666 2.92981 0
M  V30 3934 H 373.005 -0.295184 1.40942 0
M  V30 3935 H 374.958 -3.05346 2.90417 0
M  V30 3936 H 373.682 -2.79565 1.68853 0
M  V30 3937 H 372.341 -1.46954 3.35857 0
M  V30 3938 H 371.989 -3.93529 3.13279 0
M  V30 3939 H 371.689 -3.38758 4.80122 0
M  V30 3940 H 373.213 -4.23062 4.40285 0
M  V30 3941 H 374.627 -2.15017 5.31451 0
M  V30 3942 H 373.024 -1.52796 5.80322 0
M  V30 3943 H 374.094 -0.51039 4.82206 0
M  V30 3944 N 375.437 -1.54477 -0.31217 0
M  V30 3945 C 376.667 -1.76948 -1.06645 0
M  V30 3946 C 377.075 -0.523593 -1.81811 0
M  V30 3947 O 376.418 0.51578 -1.76311 0
M  V30 3948 C 376.48 -2.91668 -2.10166 0
M  V30 3949 C 376.144 -4.30165 -1.54296 0
M  V30 3950 C 377.141 -5.10603 -0.978793 0
M  V30 3951 C 374.826 -4.76738 -1.58196 0
M  V30 3952 C 376.82 -6.3573 -0.461048 0
M  V30 3953 C 374.507 -6.01831 -1.06034 0
M  V30 3954 C 375.505 -6.81161 -0.500844 0
M  V30 3955 O 375.193 -8.03899 0.0128958 0
M  V30 3956 H 374.925 -0.594088 -0.322546 0
M  V30 3957 H 377.479 -2.02213 -0.360441 0
M  V30 3958 H 375.709 -2.62001 -2.84416 0
M  V30 3959 H 377.398 -3.01817 -2.71406 0
M  V30 3960 H 378.164 -4.75771 -0.941651 0
M  V30 3961 H 374.043 -4.15027 -2.00683 0
M  V30 3962 H 377.587 -6.97596 -0.0236894 0
M  V30 3963 H 373.484 -6.36152 -1.09459 0
M  V30 3964 H 374.252 -8.18437 -0.101457 0
M  V30 3965 N 376.915 0.57481 -1.46744 0
M  V30 3966 C 377.845 1.69337 -1.60771 0
M  V30 3967 C 378.826 1.63825 -0.457736 0
M  V30 3968 O 380.011 1.8172 -0.684947 0
M  V30 3969 C 377.141 3.0798 -1.60517 0
M  V30 3970 C 376.095 3.28327 -2.74564 0
M  V30 3971 C 375.421 4.67578 -2.59373 0
M  V30 3972 C 376.721 3.15398 -4.16319 0
M  V30 3973 H 378.415 1.57853 -2.54407 0
M  V30 3974 H 375.961 0.75799 -1.22436 0
M  V30 3975 H 377.914 3.86061 -1.68923 0
M  V30 3976 H 376.638 3.20381 -0.634305 0
M  V30 3977 H 375.297 2.52649 -2.65639 0
M  V30 3978 H 374.945 4.76755 -1.60353 0
M  V30 3979 H 374.645 4.82144 -3.35873 0
M  V30 3980 H 376.169 5.47817 -2.69682 0
M  V30 3981 H 377.583 3.83315 -4.26313 0
M  V30 3982 H 375.98 3.41482 -4.93468 0
M  V30 3983 H 377.05 2.12372 -4.3592 0
M  V30 3984 N 378.394 1.34581 0.820102 0
M  V30 3985 C 379.81 1.14325 1.11364 0
M  V30 3986 C 380.01 -0.0533648 2.01429 0
M  V30 3987 O 379.066 -0.728044 2.41776 0
M  V30 3988 C 380.379 2.43983 1.75764 0
M  V30 3989 C 381.927 2.50065 1.88246 0
M  V30 3990 C 382.402 3.79732 2.56061 0
M  V30 3991 N 383.893 3.80908 2.63558 0
M  V30 3992 C 384.628 4.77961 3.16766 0
M  V30 3993 N 384.124 5.85397 3.70517 0
M  V30 3994 N 385.917 4.65413 3.15194 0
M  V30 3995 H 378.068 2.11246 0.221096 0
M  V30 3996 H 380.331 0.934289 0.160649 0
M  V30 3997 H 380.037 3.31651 1.1705 0
M  V30 3998 H 379.911 2.57531 2.75604 0
M  V30 3999 H 382.298 1.62834 2.46108 0
M  V30 4000 H 382.379 2.40442 0.873006 0
M  V30 4001 H 382.023 4.67354 1.98853 0
M  V30 4002 H 381.953 3.86639 3.57516 0
M  V30 4003 H 384.444 3.03274 2.25463 0
M  V30 4004 H 384.757 6.55463 4.09376 0
M  V30 4005 H 383.102 5.89107 3.68752 0
M  V30 4006 H 386.293 3.80627 2.72471 0
M  V30 4007 H 386.466 5.41216 3.56356 0
M  V30 4008 N 379.872 -1.04064 1.18357 0
M  V30 4009 C 381.149 -1.74252 0.888581 0
M  V30 4010 C 381.529 -2.02138 -0.60856 0
M  V30 4011 O 380.877 -1.66656 -1.56327 0
M  V30 4012 C 381.087 -3.0277 1.73584 0
M  V30 4013 C 382.435 -3.76506 1.96286 0
M  V30 4014 O 383.459 -3.12668 1.70637 0
M  V30 4015 O 382.318 -4.91243 2.39464 0
M  V30 4016 H 379.412 -0.758271 0.330082 0
M  V30 4017 H 381.958 -1.1013 1.2911 0
M  V30 4018 H 380.73 -2.78299 2.75073 0
M  V30 4019 H 380.353 -3.74631 1.33183 0
M  V30 4020 N 381.35 -0.985608 -1.22978 0
M  V30 4021 C 382.596 -0.65836 -1.91816 0
M  V30 4022 C 382.929 0.806692 -1.76653 0
M  V30 4023 O 382.204 1.58252 -1.13078 0
M  V30 4024 C 382.487 -1.056 -3.44268 0
M  V30 4025 C 382.34 -2.57906 -3.68516 0
M  V30 4026 C 383.659 -0.603781 -4.35939 0
M  V30 4027 H 380.778 -0.24065 -0.696604 0
M  V30 4028 H 383.42 -1.22783 -1.44998 0
M  V30 4029 H 381.57 -0.571445 -3.84274 0
M  V30 4030 H 383.242 -3.13976 -3.3796 0
M  V30 4031 H 381.485 -3.00305 -3.13048 0
M  V30 4032 H 382.156 -2.80779 -4.75255 0
M  V30 4033 H 384.632 -1.01987 -4.03408 0
M  V30 4034 H 383.508 -0.910383 -5.41298 0
M  V30 4035 H 383.769 0.495761 -4.39312 0
M  V30 4036 N 382.828 1.3818 -0.7579 0
M  V30 4037 C 384.077 1.99261 -0.312744 0
M  V30 4038 C 384.39 1.60846 1.11301 0
M  V30 4039 O 385.596 2.14929 1.65885 0
M  V30 4040 C 384.052 3.56294 -0.50821 0
M  V30 4041 C 383.66 4.03657 -1.94333 0
M  V30 4042 C 385.404 4.24313 -0.125982 0
M  V30 4043 C 383.311 5.53347 -2.08712 0
M  V30 4044 H 382.241 0.745456 -0.113185 0
M  V30 4045 H 384.892 1.57889 -0.935056 0
M  V30 4046 H 383.274 3.95575 0.183353 0
M  V30 4047 H 384.448 3.75655 -2.66871 0
M  V30 4048 H 382.763 3.48376 -2.28086 0
M  V30 4049 H 385.36 5.34279 -0.212125 0
M  V30 4050 H 385.703 4.05962 0.921964 0
M  V30 4051 H 386.236 3.90285 -0.769563 0
M  V30 4052 H 382.975 5.76607 -3.11777 0
M  V30 4053 H 382.495 5.83078 -1.4064 0
M  V30 4054 H 384.174 6.19111 -1.87912 0
M  V30 4055 N 384.306 0.507319 1.49211 0
M  V30 4056 C 385.236 -0.256939 2.32082 0
M  V30 4057 C 386.217 -0.956609 1.40652 0
M  V30 4058 O 387.402 -0.946788 1.69557 0
M  V30 4059 C 384.532 -1.31802 3.21318 0
M  V30 4060 C 383.486 -0.737855 4.21592 0
M  V30 4061 C 382.812 -1.89992 4.99807 0
M  V30 4062 C 384.112 0.275325 5.21574 0
M  V30 4063 H 385.806 0.434798 2.96226 0
M  V30 4064 H 383.352 0.210546 1.42452 0
M  V30 4065 H 385.305 -1.86045 3.78107 0
M  V30 4066 H 384.029 -2.03903 2.5513 0
M  V30 4067 H 382.688 -0.217126 3.65956 0
M  V30 4068 H 382.336 -2.60877 4.30061 0
M  V30 4069 H 382.036 -1.51777 5.6766 0
M  V30 4070 H 383.56 -2.44657 5.59442 0
M  V30 4071 H 384.974 -0.179193 5.7302 0
M  V30 4072 H 383.371 0.573649 5.97352 0
M  V30 4073 H 384.441 1.18903 4.70096 0
M  V30 4074 N 385.784 -1.5574 0.241426 0
M  V30 4075 C 387.032 -1.98417 -0.384075 0
M  V30 4076 C 387.353 -1.13078 -1.58866 0
M  V30 4077 O 386.623 -0.212312 -1.94746 0
M  V30 4078 H 385.203 -0.732813 -0.144894 0
M  V30 4079 H 387.865 -1.9193 0.338943 0
M  V30 4080 H 386.961 -3.04219 -0.696939 0
M  V30 4081 N 387.262 0.0317525 -1.57568 0
M  V30 4082 C 388.192 1.03274 -2.0942 0
M  V30 4083 C 389.173 1.3788 -0.996143 0
M  V30 4084 O 390.358 1.46811 -1.27122 0
M  V30 4085 C 387.488 2.33448 -2.57137 0
M  V30 4086 C 386.442 2.13091 -3.71182 0
M  V30 4087 C 385.768 3.49001 -4.05095 0
M  V30 4088 C 387.068 1.51928 -4.99715 0
M  V30 4089 H 388.762 0.60112 -2.93303 0
M  V30 4090 H 386.308 0.287705 -1.41097 0
M  V30 4091 H 388.261 3.03802 -2.92032 0
M  V30 4092 H 386.985 2.78665 -1.70333 0
M  V30 4093 H 385.644 1.45171 -3.36632 0
M  V30 4094 H 385.292 3.91862 -3.15362 0
M  V30 4095 H 384.992 3.36207 -4.81911 0
M  V30 4096 H 386.516 4.20721 -4.42522 0
M  V30 4097 H 387.93 2.12196 -5.32584 0
M  V30 4098 H 386.327 1.49716 -5.81124 0
M  V30 4099 H 387.397 0.484811 -4.8247 0
M  V30 4100 N 388.74 1.54641 0.303973 0
M  V30 4101 C 389.65 1.88439 1.39743 0
M  V30 4102 C 390.666 0.778239 1.55626 0
M  V30 4103 O 391.842 1.07442 1.70347 0
M  V30 4104 C 388.907 2.12212 2.74166 0
M  V30 4105 C 387.968 3.35936 2.67293 0
M  V30 4106 C 387.201 3.58566 3.95305 0
M  V30 4107 O 387.424 2.84263 4.9452 0
M  V30 4108 O 386.358 4.52078 3.97378 0
M  V30 4109 H 390.184 2.81458 1.14083 0
M  V30 4110 H 387.769 1.40793 0.499768 0
M  V30 4111 H 389.651 2.29067 3.53704 0
M  V30 4112 H 388.326 1.22379 2.99675 0
M  V30 4113 H 387.233 3.24448 1.86237 0
M  V30 4114 H 388.566 4.2589 2.46736 0
M  V30 4115 N 390.218 -0.567019 1.47046 0
M  V30 4116 C 391.448 -1.34831 1.56538 0
M  V30 4117 C 391.856 -1.8802 0.21101 0
M  V30 4118 O 391.199 -1.65152 -0.804387 0
M  V30 4119 C 391.261 -2.56139 2.52256 0
M  V30 4120 C 390.925 -2.24307 3.98165 0
M  V30 4121 C 391.922 -1.82192 4.86931 0
M  V30 4122 C 389.607 -2.35968 4.43423 0
M  V30 4123 C 391.601 -1.52153 6.18973 0
M  V30 4124 C 389.288 -2.05542 5.75496 0
M  V30 4125 C 390.286 -1.63701 6.63092 0
M  V30 4126 O 389.974 -1.33657 7.92711 0
M  V30 4127 H 389.706 -0.417683 0.531523 0
M  V30 4128 H 392.26 -0.694726 1.93294 0
M  V30 4129 H 390.49 -3.24356 2.10548 0
M  V30 4130 H 392.179 -3.18214 2.51982 0
M  V30 4131 H 392.945 -1.72684 4.53217 0
M  V30 4132 H 388.824 -2.67495 3.75456 0
M  V30 4133 H 392.368 -1.19421 6.87302 0
M  V30 4134 H 388.265 -2.14679 6.08755 0
M  V30 4135 H 389.033 -1.4737 8.05124 0
M  V30 4136 N 391.696 -1.35014 -0.812953 0
M  V30 4137 C 392.626 -1.30069 -1.93919 0
M  V30 4138 C 393.607 -0.176275 -1.69184 0
M  V30 4139 O 394.792 -0.370227 -1.90638 0
M  V30 4140 C 391.922 -1.06547 -3.30552 0
M  V30 4141 C 390.876 -2.15561 -3.69753 0
M  V30 4142 C 390.202 -1.77214 -5.04479 0
M  V30 4143 C 391.502 -3.57476 -3.808 0
M  V30 4144 H 393.196 -2.24303 -1.98314 0
M  V30 4145 H 390.742 -1.07977 -0.952736 0
M  V30 4146 H 392.695 -1.01729 -4.08937 0
M  V30 4147 H 391.419 -0.0875719 -3.26483 0
M  V30 4148 H 390.078 -2.19466 -2.9365 0
M  V30 4149 H 389.726 -0.780589 -4.96906 0
M  V30 4150 H 389.426 -2.50184 -5.31678 0
M  V30 4151 H 390.95 -1.7391 -5.8531 0
M  V30 4152 H 392.364 -3.55929 -4.4943 0
M  V30 4153 H 390.761 -4.29152 -4.19462 0
M  V30 4154 H 391.831 -3.94091 -2.82525 0
M  V30 4155 N 393.175 1.03435 -1.18907 0
M  V30 4156 C 394.125 2.09924 -0.889706 0
M  V30 4157 C 395.109 1.60261 0.143216 0
M  V30 4158 O 396.301 1.76892 -0.0617122 0
M  V30 4159 C 393.43 3.40669 -0.424168 0
M  V30 4160 C 392.516 3.97082 -1.48952 0
M  V30 4161 N 392.907 4.27227 -2.70759 0
M  V30 4162 C 391.205 4.25029 -1.35152 0
M  V30 4163 C 391.906 4.7246 -3.39347 0
M  V30 4164 N 390.882 4.7366 -2.66735 0
M  V30 4165 H 394.684 2.31116 -1.81555 0
M  V30 4166 H 392.198 1.21246 -1.08042 0
M  V30 4167 H 394.195 4.16461 -0.191176 0
M  V30 4168 H 392.855 3.20901 0.495263 0
M  V30 4169 H 393.866 4.16678 -3.0757 0
M  V30 4170 H 390.543 4.14554 -0.495126 0
M  V30 4171 H 391.933 5.04751 -4.43481 0
M  V30 4172 N 394.653 0.992116 1.22453 0
M  V30 4173 C 395.893 0.675727 1.92907 0
M  V30 4174 C 396.257 -0.777762 1.75542 0
M  V30 4175 O 397.458 -1.20553 2.40251 0
M  V30 4176 C 395.729 1.0696 3.4102 0
M  V30 4177 S 397.288 0.871456 4.30059 0
M  V30 4178 H 394.106 0.247089 0.666684 0
M  V30 4179 H 396.708 1.27423 1.48269 0
M  V30 4180 H 395.412 2.12383 3.51172 0
M  V30 4181 H 394.943 0.462858 3.90668 0
M  V30 4182 H 396.958 -0.238436 4.95627 0
M  V30 4183 N 396.131 -1.37776 0.765217 0
M  V30 4184 C 397.063 -2.28958 0.105361 0
M  V30 4185 C 398.076 -1.48316 -0.67128 0
M  V30 4186 O 399.265 -1.71046 -0.51045 0
M  V30 4187 C 396.365 -3.27421 -0.874569 0
M  V30 4188 C 395.538 -4.37132 -0.153123 0
M  V30 4189 C 394.597 -5.1571 -1.04547 0
M  V30 4190 O 393.623 -5.66896 -0.511672 0
M  V30 4191 N 394.825 -5.29808 -2.37243 0
M  V30 4192 H 397.59 -2.86227 0.888495 0
M  V30 4193 H 395.151 -1.49682 0.617 0
M  V30 4194 H 397.143 -3.7687 -1.47483 0
M  V30 4195 H 395.713 -2.70967 -1.55871 0
M  V30 4196 H 394.933 -3.89166 0.627975 0
M  V30 4197 H 396.221 -5.07625 0.345643 0
M  V30 4198 H 395.619 -4.89793 -2.83054 0
M  V30 4199 H 394.176 -5.82589 -2.9229 0
M  V30 4200 N 397.609 -0.515225 -1.4894 0
M  V30 4201 C 398.556 0.255567 -2.29381 0
M  V30 4202 C 399.526 0.947387 -1.36432 0
M  V30 4203 O 400.711 0.951288 -1.65394 0
M  V30 4204 C 397.851 1.30551 -3.19453 0
M  V30 4205 C 396.964 0.624029 -4.27469 0
M  V30 4206 C 396.099 1.65563 -5.0474 0
M  V30 4207 C 395.138 0.956802 -6.04576 0
M  V30 4208 N 394.275 1.93326 -6.74959 0
M  V30 4209 H 399.115 -0.436607 -2.94784 0
M  V30 4210 H 396.652 -0.227154 -1.45336 0
M  V30 4211 H 398.61 1.92639 -3.70062 0
M  V30 4212 H 397.24 1.96626 -2.56004 0
M  V30 4213 H 396.292 -0.110459 -3.8024 0
M  V30 4214 H 397.604 0.0746092 -4.98744 0
M  V30 4215 H 396.758 2.35119 -5.59289 0
M  V30 4216 H 395.497 2.23893 -4.3327 0
M  V30 4217 H 394.502 0.247097 -5.49244 0
M  V30 4218 H 395.727 0.379814 -6.78037 0
M  V30 4219 H 393.673 2.50591 -6.06251 0
M  V30 4220 H 393.59 1.43489 -7.42258 0
M  V30 4221 H 394.858 2.62126 -7.34105 0
M  V30 4222 N 399.087 1.5561 -0.249682 0
M  V30 4223 C 400.336 1.98187 0.37479 0
M  V30 4224 C 400.649 1.14111 1.58865 0
M  V30 4225 O 401.855 1.46714 2.28445 0
M  V30 4226 C 400.311 3.52661 0.718192 0
M  V30 4227 C 399.919 4.45481 -0.474428 0
M  V30 4228 C 401.663 4.03888 1.3067 0
M  V30 4229 C 399.57 5.91303 -0.107026 0
M  V30 4230 H 398.5 0.740159 0.143808 0
M  V30 4231 H 401.151 1.80125 -0.350336 0
M  V30 4232 H 399.533 3.66429 1.50152 0
M  V30 4233 H 400.707 4.43473 -1.25172 0
M  V30 4234 H 399.022 4.04751 -0.978052 0
M  V30 4235 H 401.619 5.10358 1.59496 0
M  V30 4236 H 401.962 3.51401 2.23211 0
M  V30 4237 H 402.495 3.93457 0.586211 0
M  V30 4238 H 399.234 6.47833 -0.999642 0
M  V30 4239 H 398.754 5.9644 0.634013 0
M  V30 4240 H 400.433 6.46258 0.309807 0
M  V30 4241 N 400.565 -0.0233959 1.57583 0
M  V30 4242 C 401.811 -0.714119 1.89811 0
M  V30 4243 C 402.144 -1.74702 0.848113 0
M  V30 4244 O 401.419 -1.94023 -0.136135 0
M  V30 4245 C 401.702 -1.37853 3.32669 0
M  V30 4246 C 401.555 -0.358764 4.48367 0
M  V30 4247 C 402.874 -2.31101 3.7454 0
M  V30 4248 H 399.993 -0.25814 0.690314 0
M  V30 4249 H 402.635 0.0230927 1.89986 0
M  V30 4250 H 400.785 -2.00689 3.3265 0
M  V30 4251 H 402.457 0.268115 4.6052 0
M  V30 4252 H 400.7 0.321387 4.32608 0
M  V30 4253 H 401.371 -0.862242 5.45224 0
M  V30 4254 H 403.847 -1.78304 3.75961 0
M  V30 4255 H 402.723 -2.74567 4.75294 0
M  V30 4256 H 402.984 -3.18018 3.0711 0
M  V30 4257 N 402.043 -1.548 -0.295768 0
M  V30 4258 C 402.993 -1.82497 -1.3667 0
M  V30 4259 C 403.977 -0.682434 -1.45711 0
M  V30 4260 O 405.169 -0.943207 -1.49775 0
M  V30 4261 C 402.298 -2.08036 -2.73086 0
M  V30 4262 C 401.384 -3.28488 -2.68247 0
M  V30 4263 N 401.775 -4.48924 -2.33025 0
M  V30 4264 C 400.073 -3.3062 -2.99343 0
M  V30 4265 C 400.774 -5.30956 -2.37613 0
M  V30 4266 N 399.75 -4.68805 -2.75178 0
M  V30 4267 H 403.552 -2.73175 -1.0841 0
M  V30 4268 H 401.066 -1.5437 -0.504361 0
M  V30 4269 H 403.063 -2.26027 -3.5031 0
M  V30 4270 H 401.723 -1.18629 -3.02254 0
M  V30 4271 H 402.734 -4.75432 -2.05389 0
M  V30 4272 H 399.411 -2.51336 -3.33371 0
M  V30 4273 H 400.801 -6.37199 -2.13135 0
M  V30 4274 N 403.521 0.559213 -1.47345 0
M  V30 4275 C 404.937 0.884943 -1.32819 0
M  V30 4276 C 405.137 1.98988 -0.317173 0
M  V30 4277 O 404.193 2.51031 0.272011 0
M  V30 4278 C 405.506 1.28007 -2.72093 0
M  V30 4279 C 407.054 1.39161 -2.80363 0
M  V30 4280 C 407.529 1.82031 -4.20272 0
M  V30 4281 N 409.02 1.89185 -4.22804 0
M  V30 4282 C 409.755 2.2368 -5.27973 0
M  V30 4283 N 409.251 2.56802 -6.43447 0
M  V30 4284 N 411.044 2.24436 -5.15349 0
M  V30 4285 H 403.195 -0.170304 -2.11716 0
M  V30 4286 H 405.458 -0.0135247 -0.947904 0
M  V30 4287 H 405.164 0.542027 -3.47498 0
M  V30 4288 H 405.038 2.23665 -3.03733 0
M  V30 4289 H 407.425 2.12048 -2.05231 0
M  V30 4290 H 407.506 0.41696 -2.52379 0
M  V30 4291 H 407.15 1.09715 -4.95908 0
M  V30 4292 H 407.08 2.80495 -4.45679 0
M  V30 4293 H 409.571 1.65982 -3.39497 0
M  V30 4294 H 409.884 2.82144 -7.19454 0
M  V30 4295 H 408.229 2.54387 -6.46771 0
M  V30 4296 H 411.42 1.97998 -4.24163 0
M  V30 4297 H 411.593 2.50989 -5.97418 0
M  V30 4298 N 404.999 1.35443 0.805782 0
M  V30 4299 C 406.276 1.19325 1.54987 0
M  V30 4300 C 406.656 -0.227294 2.09873 0
M  V30 4301 O 406.004 -1.2309 1.92512 0
M  V30 4302 C 406.214 2.26196 2.65775 0
M  V30 4303 C 407.562 2.62043 3.34094 0
M  V30 4304 O 408.586 2.25115 2.76046 0
M  V30 4305 O 407.445 3.25542 4.38958 0
M  V30 4306 H 404.539 0.463623 0.684823 0
M  V30 4307 H 407.085 1.47127 0.845674 0
M  V30 4308 H 405.857 3.21471 2.23096 0
M  V30 4309 H 405.48 1.99667 3.43829 0
M  V30 4310 N 406.477 -1.02803 1.19454 0
M  V30 4311 C 407.726 -1.7562 0.991996 0
M  V30 4312 C 408.039 -1.89672 -0.477901 0
M  V30 4313 O 409.245 -2.59468 -0.799287 0
M  V30 4314 C 407.701 -3.15812 1.72601 0
M  V30 4315 C 407.309 -3.0981 3.23607 0
M  V30 4316 C 409.053 -3.92918 1.60674 0
M  V30 4317 C 406.96 -4.44939 3.89594 0
M  V30 4318 H 405.89 -0.658352 0.367543 0
M  V30 4319 H 408.541 -1.15044 1.42959 0
M  V30 4320 H 406.923 -3.7686 1.21624 0
M  V30 4321 H 408.097 -2.58138 3.81709 0
M  V30 4322 H 406.412 -2.46201 3.35819 0
M  V30 4323 H 409.009 -4.9287 2.07323 0
M  V30 4324 H 409.352 -4.12502 0.561025 0
M  V30 4325 H 409.885 -3.38472 2.09001 0
M  V30 4326 H 406.624 -4.30559 4.94267 0
M  V30 4327 H 406.144 -4.96664 3.36281 0
M  V30 4328 H 407.823 -5.1382 3.93189 0
M  V30 4329 N 407.956 -0.998596 -1.21925 0
M  V30 4330 C 408.903 -0.553621 -2.24062 0
M  V30 4331 C 409.873 0.416999 -1.6078 0
M  V30 4332 O 411.058 0.320482 -1.88089 0
M  V30 4333 C 408.198 0.119959 -3.44891 0
M  V30 4334 C 407.311 -0.893077 -4.22668 0
M  V30 4335 C 406.446 -0.192424 -5.30851 0
M  V30 4336 C 405.485 -1.19344 -6.00353 0
M  V30 4337 N 404.622 -0.520707 -7.00166 0
M  V30 4338 H 409.462 -1.4293 -2.61486 0
M  V30 4339 H 406.999 -0.715838 -1.28507 0
M  V30 4340 H 408.957 0.527459 -4.13852 0
M  V30 4341 H 407.587 0.959389 -3.08214 0
M  V30 4342 H 406.639 -1.41886 -3.52948 0
M  V30 4343 H 407.951 -1.65512 -4.70539 0
M  V30 4344 H 407.105 0.271515 -6.06092 0
M  V30 4345 H 405.844 0.602075 -4.83969 0
M  V30 4346 H 404.849 -1.66795 -5.23889 0
M  V30 4347 H 406.074 -1.98891 -6.49322 0
M  V30 4348 H 404.02 0.254252 -6.55507 0
M  V30 4349 H 403.937 -1.2211 -7.46073 0
M  V30 4350 H 405.205 -0.0797596 -7.79459 0
M  V30 4351 N 409.434 1.37368 -0.772513 0
M  V30 4352 C 410.845 1.8231 -0.402493 0
M  V30 4353 C 411.196 1.6436 1.07146 0
M  V30 4354 O 410.321 1.15514 1.82991 0
M  V30 4355 C 410.916 3.30979 -0.723776 0
M  V30 4356 C 409.475 3.74195 -0.406802 0
M  V30 4357 C 408.622 2.59885 -0.967218 0
M  V30 4358 H 411.573 1.25829 -0.967099 0
M  V30 4359 H 411.594 3.80499 -0.00870832 0
M  V30 4360 H 411.106 3.44011 -1.7966 0
M  V30 4361 H 409.207 3.66732 0.658673 0
M  V30 4362 H 409.32 4.7027 -0.915588 0
M  V30 4363 H 407.684 2.51674 -0.391416 0
M  V30 4364 H 408.467 2.7571 -2.04546 0
M  V30 4365 N 410.912 0.523116 1.48665 0
M  V30 4366 C 412.137 -0.0117284 2.07397 0
M  V30 4367 C 412.562 -1.28031 1.37803 0
M  V30 4368 O 411.92 -1.75836 0.441762 0
M  V30 4369 C 411.968 -0.225786 3.59892 0
M  V30 4370 O 411.072 -1.29592 3.91509 0
M  V30 4371 H 410.413 0.0360673 0.66302 0
M  V30 4372 H 412.943 0.729066 1.9117 0
M  V30 4373 H 412.953 -0.450552 4.05505 0
M  V30 4374 H 411.628 0.700944 4.09951 0
M  V30 4375 H 410.205 -1.05436 3.57684 0
M  V30 4376 N 412.39 -1.55475 0.257931 0
M  V30 4377 C 413.338 -2.23244 -0.653076 0
M  V30 4378 C 414.332 -1.22366 -1.17144 0
M  V30 4379 O 415.538 -1.40347 -1.12706 0
M  V30 4380 H 411.913 -0.716247 -0.229117 0
M  V30 4381 H 413.884 -2.98343 -0.0584788 0
M  V30 4382 C 412.633 -2.95401 -1.83395 0
M  V30 4383 H 411.956 -3.72802 -1.44424 0
M  V30 4384 H 413.396 -3.46165 -2.44838 0
M  V30 4385 C 411.855 -1.99895 -2.71189 0
M  V30 4386 O 412.385 -1.53909 -3.71046 0
M  V30 4387 N 410.591 -1.6676 -2.3799 0
M  V30 4388 H 410.138 -2.04352 -1.56837 0
M  V30 4389 H 410.096 -1.03127 -2.97005 0
M  V30 4390 N 413.868 0.0150385 -1.57593 0
M  V30 4391 C 414.798 1.01047 -2.10503 0
M  V30 4392 C 415.779 1.36816 -1.01071 0
M  V30 4393 O 416.964 1.45455 -1.28672 0
M  V30 4394 C 414.094 2.30708 -2.59598 0
M  V30 4395 C 413.048 2.09142 -3.73421 0
M  V30 4396 C 412.374 3.44685 -4.08774 0
M  V30 4397 C 413.674 1.46619 -5.01298 0
M  V30 4398 H 415.368 0.569978 -2.93925 0
M  V30 4399 H 412.914 0.272724 -1.41394 0
M  V30 4400 H 414.867 3.00687 -2.95238 0
M  V30 4401 H 413.591 2.76843 -1.73279 0
M  V30 4402 H 412.25 1.41592 -3.38153 0
M  V30 4403 H 411.898 3.88495 -3.195 0
M  V30 4404 H 411.598 3.31077 -4.8545 0
M  V30 4405 H 413.122 4.16004 -4.4696 0
M  V30 4406 H 414.536 2.06535 -5.34805 0
M  V30 4407 H 412.933 1.43544 -5.82679 0
M  V30 4408 H 414.003 0.433611 -4.82957 0
M  V30 4409 N 415.346 1.54954 0.287554 0
M  V30 4410 C 416.276 1.89839 1.35954 0
M  V30 4411 C 417.257 0.758675 1.52244 0
M  V30 4412 O 418.442 1.01557 1.65529 0
M  V30 4413 C 415.572 2.15753 2.72154 0
M  V30 4414 C 414.526 3.3159 2.70614 0
M  V30 4415 C 413.852 3.42952 4.10229 0
M  V30 4416 C 415.152 4.68359 2.31165 0
M  V30 4417 H 416.846 2.79625 1.07007 0
M  V30 4418 H 414.392 1.3454 0.513316 0
M  V30 4419 H 416.345 2.38743 3.47246 0
M  V30 4420 H 415.069 1.22752 3.02654 0
M  V30 4421 H 413.728 3.08545 1.97979 0
M  V30 4422 H 413.376 2.47443 4.37928 0
M  V30 4423 H 413.076 4.20826 4.10097 0
M  V30 4424 H 414.6 3.68218 4.87081 0
M  V30 4425 H 416.014 4.9099 2.95976 0
M  V30 4426 H 414.411 5.49044 2.42221 0
M  V30 4427 H 415.481 4.68165 1.26291 0
M  V30 4428 N 416.824 -0.551391 1.4764 0
M  V30 4429 C 417.754 -1.66757 1.63445 0
M  V30 4430 C 418.735 -1.63077 0.483742 0
M  V30 4431 O 419.92 -1.80607 0.71377 0
M  V30 4432 C 417.05 -3.05387 1.65396 0
M  V30 4433 C 416.004 -3.23918 2.79752 0
M  V30 4434 C 415.33 -4.63393 2.66779 0
M  V30 4435 C 416.63 -3.08735 4.21284 0
M  V30 4436 H 418.324 -1.53786 2.56886 0
M  V30 4437 H 415.87 -0.738415 1.23626 0
M  V30 4438 H 417.823 -3.83325 1.75043 0
M  V30 4439 H 416.547 -3.19332 0.685195 0
M  V30 4440 H 415.206 -2.48391 2.69625 0
M  V30 4441 H 414.854 -4.74144 1.67918 0
M  V30 4442 H 414.554 -4.7674 3.43501 0
M  V30 4443 H 416.078 -5.43458 2.78364 0
M  V30 4444 H 417.492 -3.76484 4.32357 0
M  V30 4445 H 415.889 -3.33588 4.98838 0
M  V30 4446 H 416.959 -2.0541 4.39243 0
M  V30 4447 N 418.302 -1.35869 -0.798587 0
M  V30 4448 C 419.55 -1.29332 -1.55298 0
M  V30 4449 C 419.871 0.129729 -1.94568 0
M  V30 4450 O 419.141 1.06796 -1.6423 0
M  V30 4451 H 417.721 -0.475737 -0.57592 0
M  V30 4452 H 420.383 -1.70062 -0.952093 0
M  V30 4453 H 419.479 -1.91458 -2.46476 0
M  V30 4454 N 419.78 1.02168 -1.19998 0
M  V30 4455 C 421.057 1.72816 -0.916191 0
M  V30 4456 C 421.437 2.03081 0.576325 0
M  V30 4457 O 420.785 1.69122 1.53656 0
M  V30 4458 C 420.995 2.9997 -1.78378 0
M  V30 4459 C 422.343 3.73336 -2.02251 0
M  V30 4460 O 423.367 3.09914 -1.75589 0
M  V30 4461 O 422.226 4.87371 -2.47249 0
M  V30 4462 H 419.32 0.752924 -0.342103 0
M  V30 4463 H 421.866 1.08062 -1.30846 0
M  V30 4464 H 420.638 2.73888 -2.79466 0
M  V30 4465 H 420.261 3.72464 -1.39126 0
M  V30 4466 N 421.258 1.00505 1.21394 0
M  V30 4467 C 422.535 0.603277 1.86064 0
M  V30 4468 C 422.915 -0.919095 1.90042 0
M  V30 4469 O 422.263 -1.80607 1.39977 0
M  V30 4470 C 422.473 1.23772 3.26315 0
M  V30 4471 C 423.821 1.34586 4.02705 0
M  V30 4472 O 424.845 1.19304 3.35626 0
M  V30 4473 O 423.704 1.59169 5.22807 0
M  V30 4474 H 420.798 0.206634 0.800769 0
M  V30 4475 H 423.344 1.1017 1.29076 0
M  V30 4476 H 422.116 2.27848 3.18121 0
M  V30 4477 H 421.739 0.725648 3.90922 0
M  V30 4478 N 422.737 -1.36956 0.779787 0
M  V30 4479 C 423.985 -1.99097 0.347079 0
M  V30 4480 C 424.306 -1.62206 -1.08232 0
M  V30 4481 O 423.576 -0.891373 -1.74446 0
M  V30 4482 H 422.156 -0.736409 0.125342 0
M  V30 4483 H 424.818 -1.67308 0.999696 0
M  V30 4484 H 423.914 -3.09107 0.431162 0
M  V30 4485 N 424.215 -0.530993 -1.48385 0
M  V30 4486 C 425.165 0.251092 -2.26613 0
M  V30 4487 C 426.149 0.908977 -1.32765 0
M  V30 4488 O 427.341 0.811616 -1.57295 0
M  V30 4489 C 424.47 1.29677 -3.17866 0
M  V30 4490 C 423.556 0.643627 -4.19188 0
M  V30 4491 N 423.947 -0.271223 -5.05072 0
M  V30 4492 C 422.245 0.900711 -4.3681 0
M  V30 4493 C 422.946 -0.648109 -5.78078 0
M  V30 4494 N 421.922 -0.00895987 -5.43599 0
M  V30 4495 H 425.724 -0.452702 -2.90393 0
M  V30 4496 H 423.238 -0.349091 -1.58604 0
M  V30 4497 H 425.235 1.87079 -3.72568 0
M  V30 4498 H 423.895 2.00193 -2.55642 0
M  V30 4499 H 424.906 -0.643883 -5.13882 0
M  V30 4500 H 421.583 1.59636 -3.85775 0
M  V30 4501 H 422.973 -1.39833 -6.57188 0
M  V30 4502 N 425.693 1.55336 -0.266172 0
M  V30 4503 C 426.939 1.99692 0.353681 0
M  V30 4504 C 427.272 1.1543 1.56172 0
M  V30 4505 O 426.547 0.222218 1.93226 0
M  V30 4506 C 426.83 3.52316 0.74466 0
M  V30 4507 C 426.683 4.47337 -0.470101 0
M  V30 4508 C 428.002 4.10588 1.58447 0
M  V30 4509 H 425.121 0.725961 0.12708 0
M  V30 4510 H 427.763 1.86336 -0.371333 0
M  V30 4511 H 425.913 3.63829 1.36239 0
M  V30 4512 H 427.585 4.4778 -1.10864 0
M  V30 4513 H 425.828 4.19364 -1.10978 0
M  V30 4514 H 426.499 5.51788 -0.15291 0
M  V30 4515 H 428.975 4.02297 1.06286 0
M  V30 4516 H 427.851 5.17607 1.82686 0
M  V30 4517 H 428.112 3.60253 2.56262 0
M  V30 4518 N 427.171 -0.0066808 1.57599 0
M  V30 4519 C 428.118 -1.00024 2.08 0
M  V30 4520 C 429.088 -1.34549 0.973943 0
M  V30 4521 O 430.273 -1.44502 1.24595 0
M  V30 4522 C 427.413 -2.2891 2.58252 0
M  V30 4523 C 426.526 -2.00346 3.82734 0
M  V30 4524 C 425.661 -3.23265 4.21513 0
M  V30 4525 C 424.7 -2.90357 5.3885 0
M  V30 4526 N 423.837 -4.05793 5.72954 0
M  V30 4527 H 428.677 -0.563499 2.92624 0
M  V30 4528 H 426.214 -0.266592 1.44664 0
M  V30 4529 H 428.172 -3.04247 2.85464 0
M  V30 4530 H 426.802 -2.70265 1.76512 0
M  V30 4531 H 425.854 -1.15406 3.62471 0
M  V30 4532 H 427.166 -1.72086 4.68175 0
M  V30 4533 H 426.32 -4.06953 4.49971 0
M  V30 4534 H 425.059 -3.54657 3.34768 0
M  V30 4535 H 424.064 -2.05075 5.10122 0
M  V30 4536 H 425.289 -2.60219 6.27266 0
M  V30 4537 H 423.235 -4.37094 4.89167 0
M  V30 4538 H 423.152 -3.81034 6.52954 0
M  V30 4539 H 424.42 -4.90289 6.06001 0
M  V30 4540 N 428.649 -1.55105 -0.279332 0
M  V30 4541 C 429.898 -1.74618 -1.00952 0
M  V30 4542 C 430.211 -0.551096 -1.87676 0
M  V30 4543 O 431.417 -0.628507 -2.64125 0
M  V30 4544 C 429.873 -3.09025 -1.84476 0
M  V30 4545 C 429.481 -4.36081 -1.0265 0
M  V30 4546 C 431.225 -3.37891 -2.56963 0
M  V30 4547 C 429.132 -5.6153 -1.85576 0
M  V30 4548 H 428.062 -0.650868 -0.38064 0
M  V30 4549 H 430.713 -1.81569 -0.265475 0
M  V30 4550 H 429.095 -2.96095 -2.62952 0
M  V30 4551 H 430.269 -4.59909 -0.286354 0
M  V30 4552 H 428.584 -4.14312 -0.416464 0
M  V30 4553 H 431.181 -4.28822 -3.19399 0
M  V30 4554 H 431.524 -2.57737 -3.26921 0
M  V30 4555 H 432.057 -3.5189 -1.85522 0
M  V30 4556 H 428.796 -6.44413 -1.2005 0
M  V30 4557 H 428.316 -5.41854 -2.57204 0
M  V30 4558 H 429.995 -5.99594 -2.43096 0
M  V30 4559 N 430.127 0.543554 -1.4793 0
M  V30 4560 C 431.09 1.63156 -1.60975 0
M  V30 4561 C 432.09 1.53346 -0.483899 0
M  V30 4562 O 433.28 1.5726 -0.749339 0
M  V30 4563 C 430.412 3.02743 -1.56716 0
M  V30 4564 H 431.605 1.52934 -2.57975 0
M  V30 4565 H 429.158 0.764557 -1.36324 0
M  V30 4566 H 429.893 3.18484 -0.611418 0
M  V30 4567 H 429.678 3.11272 -2.38438 0
M  V30 4568 H 431.168 3.81871 -1.6901 0
M  V30 4569 N 431.605 1.3629 0.791371 0
M  V30 4570 C 432.882 1.20962 1.53712 0
M  V30 4571 C 433.262 -0.205021 2.10102 0
M  V30 4572 O 432.61 -1.21042 1.93807 0
M  V30 4573 C 432.82 2.29002 2.63361 0
M  V30 4574 C 434.168 2.65572 3.31295 0
M  V30 4575 O 435.192 2.2803 2.73643 0
M  V30 4576 O 434.051 3.3018 4.35481 0
M  V30 4577 H 431.145 0.47086 0.679867 0
M  V30 4578 H 433.691 1.48016 0.830021 0
M  V30 4579 H 432.463 3.2382 2.19674 0
M  V30 4580 H 432.086 2.03303 3.41692 0
M  V30 4581 N 433.083 -1.0153 1.20538 0
M  V30 4582 C 434.33 -1.75149 1.01633 0
M  V30 4583 C 434.658 -1.89189 -0.451399 0
M  V30 4584 O 433.913 -1.41551 -1.35136 0
M  V30 4585 C 434.212 -3.17213 1.64654 0
M  V30 4586 C 433.878 -3.23146 3.14464 0
M  V30 4587 C 432.54 -3.24472 3.55347 0
M  V30 4588 C 434.892 -3.21207 4.10458 0
M  V30 4589 C 432.22 -3.21532 4.90748 0
M  V30 4590 C 434.572 -3.19808 5.45807 0
M  V30 4591 C 433.236 -3.19439 5.86102 0
M  V30 4592 H 432.506 -0.640914 0.3719 0
M  V30 4593 H 435.153 -1.19071 1.49981 0
M  V30 4594 H 433.458 -3.76457 1.08571 0
M  V30 4595 H 435.155 -3.72871 1.4754 0
M  V30 4596 H 431.745 -3.2285 2.81897 0
M  V30 4597 H 435.929 -3.19351 3.79906 0
M  V30 4598 H 431.185 -3.19578 5.21229 0
M  V30 4599 H 435.359 -3.1726 6.19935 0
M  V30 4600 H 432.986 -3.16915 6.90991 0
M  V30 4601 N 434.561 -1.01147 -1.20859 0
M  V30 4602 C 435.809 -0.696486 -1.89719 0
M  V30 4603 C 436.13 0.775788 -1.78904 0
M  V30 4604 O 435.4 1.55759 -1.18811 0
M  V30 4605 H 433.98 -0.254628 -0.702263 0
M  V30 4606 H 436.642 -1.28197 -1.46804 0
M  V30 4607 H 435.738 -0.975357 -2.96468 0
M  V30 4608 N 436.039 1.36541 -0.78704 0
M  V30 4609 C 437.285 1.99599 -0.358872 0
M  V30 4610 C 437.618 1.62323 1.06606 0
M  V30 4611 O 436.893 0.876858 1.73613 0
M  V30 4612 C 437.176 3.56327 -0.519944 0
M  V30 4613 C 437.029 4.03464 -1.98839 0
M  V30 4614 C 438.348 4.4005 0.0664737 0
M  V30 4615 H 435.467 0.725107 -0.131869 0
M  V30 4616 H 438.109 1.6199 -0.992936 0
M  V30 4617 H 436.259 3.88495 0.0198321 0
M  V30 4618 H 437.931 3.81793 -2.58905 0
M  V30 4619 H 436.174 3.55092 -2.49183 0
M  V30 4620 H 436.845 5.12439 -2.05207 0
M  V30 4621 H 439.321 4.14228 -0.394267 0
M  V30 4622 H 438.197 5.48847 -0.0762682 0
M  V30 4623 H 438.458 4.26655 1.15835 0
M  V30 4624 N 437.518 0.538854 1.48102 0
M  V30 4625 C 438.743 0.0102694 2.07397 0
M  V30 4626 C 439.168 -1.26562 1.39153 0
M  V30 4627 O 438.526 -1.75357 0.460387 0
M  V30 4628 C 438.574 -0.187602 3.60112 0
M  V30 4629 O 437.678 -1.25432 3.92862 0
M  V30 4630 H 437.019 0.0430975 0.6626 0
M  V30 4631 H 439.549 0.749301 1.90385 0
M  V30 4632 H 439.559 -0.407517 4.0596 0
M  V30 4633 H 438.234 0.744386 4.09184 0
M  V30 4634 H 436.811 -1.01636 3.58782 0
M  V30 4635 N 438.996 -1.55193 0.274407 0
M  V30 4636 C 439.944 -2.23924 -0.629362 0
M  V30 4637 C 440.938 -1.23602 -1.1584 0
M  V30 4638 O 442.144 -1.41535 -1.11211 0
M  V30 4639 H 438.519 -0.718637 -0.221507 0
M  V30 4640 H 440.49 -2.98388 -0.0268322 0
M  V30 4641 C 439.239 -2.97329 -1.80252 0
M  V30 4642 H 438.562 -3.74313 -1.40462 0
M  V30 4643 H 440.002 -3.48743 -2.41152 0
M  V30 4644 C 438.461 -2.0276 -2.69054 0
M  V30 4645 O 438.991 -1.57836 -3.69392 0
M  V30 4646 N 437.197 -1.69275 -2.36208 0
M  V30 4647 H 436.744 -2.06004 -1.54661 0
M  V30 4648 H 436.702 -1.06271 -2.95895 0
M  V30 4649 N 440.474 -0.00167713 -1.576 0
M  V30 4650 C 441.406 1.0174 -2.05382 0
M  V30 4651 C 442.419 1.30595 -0.972052 0
M  V30 4652 O 443.608 1.27542 -1.24882 0
M  V30 4653 C 440.708 2.35174 -2.44022 0
M  V30 4654 C 439.881 2.25234 -3.74951 0
M  V30 4655 C 438.94 3.4137 -4.00441 0
M  V30 4656 O 437.966 3.19483 -4.71083 0
M  V30 4657 N 439.168 4.64275 -3.48467 0
M  V30 4658 H 441.933 0.609902 -2.93428 0
M  V30 4659 H 439.494 0.185672 -1.60832 0
M  V30 4660 H 441.486 3.11643 -2.58187 0
M  V30 4661 H 440.056 2.67659 -1.61485 0
M  V30 4662 H 439.276 1.33664 -3.70847 0
M  V30 4663 H 440.564 2.15767 -4.60784 0
M  V30 4664 H 439.962 4.84955 -2.91264 0
M  V30 4665 H 438.519 5.38005 -3.67959 0
M  V30 4666 N 441.952 1.55251 0.271103 0
M  V30 4667 C 443.199 1.75946 1.00245 0
M  V30 4668 C 443.527 0.561611 1.86215 0
M  V30 4669 O 442.782 -0.455832 1.90317 0
M  V30 4670 C 443.081 3.01879 1.91321 0
M  V30 4671 C 442.747 4.34337 1.21086 0
M  V30 4672 C 441.409 4.70338 1.01666 0
M  V30 4673 C 443.761 5.16325 0.71119 0
M  V30 4674 C 441.089 5.8588 0.310099 0
M  V30 4675 C 443.441 6.32597 0.0182157 0
M  V30 4676 C 442.105 6.67236 -0.18768 0
M  V30 4677 H 441.375 0.643833 0.366824 0
M  V30 4678 H 444.022 1.89521 0.27458 0
M  V30 4679 H 442.327 2.83212 2.70736 0
M  V30 4680 H 444.024 3.15088 2.48033 0
M  V30 4681 H 440.614 4.06043 1.37213 0
M  V30 4682 H 444.798 4.88987 0.848844 0
M  V30 4683 H 440.054 6.1124 0.139873 0
M  V30 4684 H 444.228 6.9538 -0.376711 0
M  V30 4685 H 441.855 7.56618 -0.73715 0
M  V30 4686 N 443.43 -0.535701 1.48216 0
M  V30 4687 C 444.34 -1.66785 1.64985 0
M  V30 4688 C 445.356 -1.65654 0.532414 0
M  V30 4689 O 446.532 -1.8471 0.80275 0
M  V30 4690 C 443.597 -3.0326 1.68031 0
M  V30 4691 C 442.658 -3.1529 2.9136 0
M  V30 4692 C 441.891 -4.45255 2.94252 0
M  V30 4693 O 442.114 -5.32011 2.05719 0
M  V30 4694 O 441.048 -4.6153 3.86359 0
M  V30 4695 H 444.874 -1.55576 2.60825 0
M  V30 4696 H 442.459 -0.70815 1.31551 0
M  V30 4697 H 444.341 -3.84436 1.72589 0
M  V30 4698 H 443.016 -3.14805 0.753628 0
M  V30 4699 H 441.923 -2.3343 2.92337 0
M  V30 4700 H 443.256 -3.08658 3.83394 0
M  V30 4701 N 444.908 -1.36708 -0.784132 0
M  V30 4702 C 446.156 -1.30972 -1.53918 0
M  V30 4703 C 446.477 0.109086 -1.94695 0
M  V30 4704 O 445.747 1.05048 -1.65353 0
M  V30 4705 H 444.327 -0.481819 -0.570841 0
M  V30 4706 H 446.989 -1.71063 -0.934002 0
M  V30 4707 H 446.085 -1.94061 -2.44431 0
M  V30 4708 N 446.386 1.0089 -1.21074 0
M  V30 4709 C 447.334 2.11707 -0.963476 0
M  V30 4710 C 448.328 1.69172 0.0879032 0
M  V30 4711 O 449.534 1.79889 -0.0631415 0
M  V30 4712 H 445.909 0.692026 -0.294287 0
M  V30 4713 H 447.88 2.29743 -1.90422 0
M  V30 4714 C 446.629 3.43473 -0.540509 0
M  V30 4715 H 445.952 3.76634 -1.34114 0
M  V30 4716 H 447.392 4.22044 -0.406777 0
M  V30 4717 C 445.851 3.2849 0.748079 0
M  V30 4718 O 446.381 3.58883 1.8046 0
M  V30 4719 N 444.587 2.81715 0.713081 0
M  V30 4720 H 444.134 2.5718 -0.146973 0
M  V30 4721 H 444.092 2.72071 1.57558 0
M  V30 4722 N 447.864 1.01787 1.20321 0
M  V30 4723 C 449.141 0.622978 1.85414 0
M  V30 4724 C 449.521 -0.898887 1.91006 0
M  V30 4725 O 448.869 -1.79112 1.41884 0
M  V30 4726 C 449.079 1.27226 3.24984 0
M  V30 4727 C 450.427 1.3885 4.01255 0
M  V30 4728 O 451.451 1.22857 3.34342 0
M  V30 4729 O 450.31 1.64705 5.2109 0
M  V30 4730 H 447.404 0.215116 0.798533 0
M  V30 4731 H 449.95 1.11533 1.27901 0
M  V30 4732 H 448.722 2.31209 3.15687 0
M  V30 4733 H 448.345 0.767069 3.90131 0
M  V30 4734 N 449.342 -1.36122 0.79427 0
M  V30 4735 C 450.305 -2.28309 0.201889 0
M  V30 4736 C 451.305 -1.49041 -0.603603 0
M  V30 4737 O 452.495 -1.68964 -0.423888 0
M  V30 4738 C 449.627 -3.3321 -0.719978 0
M  V30 4739 H 450.82 -2.82208 1.01481 0
M  V30 4740 H 448.373 -1.45768 0.564037 0
M  V30 4741 H 449.108 -2.84475 -1.55706 0
M  V30 4742 H 448.893 -3.91835 -0.144266 0
M  V30 4743 H 450.383 -4.02044 -1.12916 0
M  V30 4744 N 450.82 -0.546701 -1.47814 0
M  V30 4745 C 451.752 0.244196 -2.27895 0
M  V30 4746 C 452.765 0.88911 -1.36377 0
M  V30 4747 O 453.954 0.764733 -1.61289 0
M  V30 4748 C 451.054 1.36252 -3.10304 0
M  V30 4749 C 450.227 0.816382 -4.29714 0
M  V30 4750 C 449.286 1.81789 -4.93801 0
M  V30 4751 O 448.312 1.36818 -5.52512 0
M  V30 4752 N 449.514 3.15085 -4.87547 0
M  V30 4753 H 452.279 -0.442694 -2.96412 0
M  V30 4754 H 449.84 -0.382095 -1.57327 0
M  V30 4755 H 451.832 2.03102 -3.50045 0
M  V30 4756 H 450.402 1.95281 -2.44099 0
M  V30 4757 H 449.622 -0.0285981 -3.9419 0
M  V30 4758 H 450.91 0.430668 -5.06974 0
M  V30 4759 H 450.308 3.54275 -4.41028 0
M  V30 4760 H 448.865 3.77522 -5.31339 0
M  V30 4761 N 452.299 1.55045 -0.282633 0
M  V30 4762 C 453.229 2.2579 0.595066 0
M  V30 4763 C 454.21 1.25074 1.15284 0
M  V30 4764 O 455.395 1.5381 1.18559 0
M  V30 4765 C 452.525 2.98472 1.77572 0
M  V30 4766 C 451.479 4.0618 1.34914 0
M  V30 4767 C 450.805 4.66477 2.6135 0
M  V30 4768 C 452.105 5.1996 0.493821 0
M  V30 4769 H 453.799 2.994 0.00505653 0
M  V30 4770 H 451.345 1.44 0.000992001 0
M  V30 4771 H 453.298 3.46677 2.39568 0
M  V30 4772 H 452.022 2.2241 2.39168 0
M  V30 4773 H 450.681 3.58797 0.752338 0
M  V30 4774 H 450.329 3.87074 3.2122 0
M  V30 4775 H 450.029 5.39207 2.33516 0
M  V30 4776 H 451.553 5.17435 3.24181 0
M  V30 4777 H 452.967 5.64172 1.01898 0
M  V30 4778 H 451.364 5.99299 0.310047 0
M  V30 4779 H 452.434 4.82462 -0.485593 0
M  V30 4780 N 453.777 0.010035 1.57597 0
M  V30 4781 C 455.002 -0.687021 1.95691 0
M  V30 4782 C 455.427 -1.65952 0.885519 0
M  V30 4783 O 454.785 -1.80633 -0.15543 0
M  V30 4784 C 454.833 -1.3864 3.32884 0
M  V30 4785 O 453.937 -2.50115 3.27897 0
M  V30 4786 H 453.278 -0.181989 0.638573 0
M  V30 4787 H 455.808 0.0662122 2.04493 0
M  V30 4788 H 455.818 -1.74754 3.6868 0
M  V30 4789 H 454.493 -0.673411 4.10412 0
M  V30 4790 H 453.07 -2.16253 3.03791 0
M  V30 4791 N 455.255 -1.55392 -0.262866 0
M  V30 4792 C 456.48 -1.80847 -1.01533 0
M  V30 4793 C 456.905 -0.584946 -1.78774 0
M  V30 4794 O 456.263 0.465701 -1.75217 0
M  V30 4795 C 456.311 -3.03866 -1.94159 0
M  V30 4796 O 455.415 -2.79662 -3.03089 0
M  V30 4797 H 454.756 -0.597441 -0.289759 0
M  V30 4798 H 457.286 -2.02553 -0.288698 0
M  V30 4799 H 457.296 -3.32872 -2.35924 0
M  V30 4800 H 455.971 -3.92564 -1.37354 0
M  V30 4801 H 454.548 -2.61781 -2.65566 0
M  V30 4802 N 456.733 0.527833 -1.48498 0
M  V30 4803 C 457.961 1.30823 -1.6029 0
M  V30 4804 C 458.376 1.86945 -0.263974 0
M  V30 4805 O 457.733 1.6651 0.747034 0
M  V30 4806 C 457.784 2.45756 -2.65116 0
M  V30 4807 O 457.505 1.91946 -3.93813 0
M  V30 4808 C 459.006 3.37543 -2.87367 0
M  V30 4809 H 456.226 0.397763 -0.540394 0
M  V30 4810 H 458.77 0.636529 -1.94341 0
M  V30 4811 H 456.925 3.08806 -2.33917 0
M  V30 4812 H 457.339 2.67195 -4.51339 0
M  V30 4813 H 458.813 4.14532 -3.6451 0
M  V30 4814 H 459.29 3.92905 -1.9627 0
M  V30 4815 H 459.896 2.80283 -3.19878 0
M  V30 4816 N 458.211 1.37122 0.776871 0
M  V30 4817 C 459.174 1.32301 1.8716 0
M  V30 4818 C 460.174 0.228099 1.59174 0
M  V30 4819 O 461.364 0.483642 1.67352 0
M  V30 4820 C 458.496 1.054 3.24197 0
M  V30 4821 H 459.689 2.29673 1.92848 0
M  V30 4822 H 457.242 1.22077 0.97606 0
M  V30 4823 H 457.977 0.0853872 3.24188 0
M  V30 4824 H 457.762 1.84648 3.45901 0
M  V30 4825 H 459.252 1.04664 4.04271 0
M  V30 4826 N 459.689 -1.00246 1.21608 0
M  V30 4827 C 460.937 -1.73717 1.0328 0
M  V30 4828 C 461.258 -1.90102 -0.434318 0
M  V30 4829 O 460.528 -1.45376 -1.31311 0
M  V30 4830 H 459.108 -0.643613 0.379172 0
M  V30 4831 H 461.77 -1.20787 1.52959 0
M  V30 4832 H 460.866 -2.73535 1.50283 0
M  V30 4833 N 461.167 -1.02423 -1.1978 0
M  V30 4834 C 462.395 -0.737456 -1.93311 0
M  V30 4835 C 462.81 0.703023 -1.75223 0
M  V30 4836 O 462.167 1.47761 -1.07112 0
M  V30 4837 C 462.218 -1.0733 -3.45199 0
M  V30 4838 O 461.939 -2.4572 -3.62702 0
M  V30 4839 C 463.44 -0.80866 -4.35862 0
M  V30 4840 H 460.66 -0.2702 -0.614193 0
M  V30 4841 H 463.204 -1.36747 -1.52054 0
M  V30 4842 H 461.359 -0.488545 -3.84307 0
M  V30 4843 H 461.773 -2.58081 -4.56612 0
M  V30 4844 H 463.247 -1.09365 -5.41057 0
M  V30 4845 H 463.724 0.257025 -4.38447 0
M  V30 4846 H 464.33 -1.37592 -4.02428 0
M  V30 4847 N 462.645 1.35699 -0.801477 0
M  V30 4848 C 464.056 1.81415 -0.441073 0
M  V30 4849 C 464.407 1.66595 1.03636 0
M  V30 4850 O 463.532 1.19369 1.80499 0
M  V30 4851 C 464.127 3.29369 -0.793819 0
M  V30 4852 C 462.686 3.73248 -0.486083 0
M  V30 4853 C 461.833 2.57775 -1.02213 0
M  V30 4854 H 464.784 1.23749 -0.993572 0
M  V30 4855 H 464.805 3.80395 -0.0894158 0
M  V30 4856 H 464.317 3.40123 -1.86917 0
M  V30 4857 H 462.418 3.68046 0.580735 0
M  V30 4858 H 462.531 4.68222 -1.01513 0
M  V30 4859 H 460.895 2.50788 -0.444712 0
M  V30 4860 H 461.678 2.71309 -2.10348 0
M  V30 4861 N 464.123 0.554532 1.47522 0
M  V30 4862 C 465.086 -0.184174 2.28459 0
M  V30 4863 C 466.086 -0.845195 1.36796 0
M  V30 4864 O 467.276 -0.701467 1.59452 0
M  V30 4865 C 464.408 -1.26903 3.16399 0
M  V30 4866 H 465.601 0.526751 2.95238 0
M  V30 4867 H 463.154 0.311375 1.53167 0
M  V30 4868 H 463.889 -2.01244 2.54306 0
M  V30 4869 H 463.674 -0.799883 3.83854 0
M  V30 4870 H 465.164 -1.78794 3.77389 0
M  V30 4871 N 465.601 -1.54893 0.290851 0
M  V30 4872 C 466.848 -1.99933 -0.321391 0
M  V30 4873 C 467.176 -1.17927 -1.54672 0
M  V30 4874 O 466.431 -0.240902 -1.94212 0
M  V30 4875 C 466.73 -3.49815 -0.732397 0
M  V30 4876 C 466.396 -4.4921 0.390056 0
M  V30 4877 C 465.058 -4.76107 0.698223 0
M  V30 4878 C 467.41 -5.08453 1.14562 0
M  V30 4879 C 464.738 -5.59514 1.76526 0
M  V30 4880 C 467.09 -5.9302 2.2025 0
M  V30 4881 C 465.754 -6.18232 2.51684 0
M  V30 4882 H 465.024 -0.731608 -0.117605 0
M  V30 4883 H 467.671 -1.87107 0.407839 0
M  V30 4884 H 465.976 -3.60199 -1.54155 0
M  V30 4885 H 467.673 -3.82083 -1.21712 0
M  V30 4886 H 464.263 -4.28372 0.13976 0
M  V30 4887 H 468.447 -4.87683 0.920801 0
M  V30 4888 H 463.703 -5.77289 2.01364 0
M  V30 4889 H 467.877 -6.37955 2.7926 0
M  V30 4890 H 465.504 -6.82653 3.34499 0
M  V30 4891 N 467.08 -0.0183926 -1.57589 0
M  V30 4892 C 468.013 1.00148 -2.0505 0
M  V30 4893 C 468.991 1.32387 -0.944058 0
M  V30 4894 O 470.175 1.44237 -1.21358 0
M  V30 4895 C 467.302 2.32435 -2.46357 0
M  V30 4896 C 466.348 2.15731 -3.67916 0
M  V30 4897 S 467.181 1.46613 -5.15039 0
M  V30 4898 C 468.337 2.80293 -5.59631 0
M  V30 4899 H 468.57 0.597429 -2.91235 0
M  V30 4900 H 466.103 0.193002 -1.53189 0
M  V30 4901 H 468.061 3.0849 -2.70822 0
M  V30 4902 H 466.722 2.69975 -1.60537 0
M  V30 4903 H 465.915 3.13502 -3.9463 0
M  V30 4904 H 465.517 1.4782 -3.43548 0
M  V30 4905 H 467.809 3.76557 -5.63215 0
M  V30 4906 H 468.752 2.58256 -6.59325 0
M  V30 4907 H 469.16 2.85047 -4.87246 0
M  V30 4908 N 468.558 1.5553 0.254621 0
M  V30 4909 C 469.521 1.88872 1.29846 0
M  V30 4910 C 470.521 0.764591 1.41459 0
M  V30 4911 O 471.711 1.03265 1.40293 0
M  V30 4912 C 468.843 2.11032 2.67728 0
M  V30 4913 H 470.036 2.82201 1.01502 0
M  V30 4914 H 467.589 1.48303 0.493556 0
M  V30 4915 H 468.324 1.20146 3.01223 0
M  V30 4916 H 468.109 2.92895 2.60682 0
M  V30 4917 H 469.599 2.38038 3.43115 0
M  V30 4918 N 470.036 -0.519951 1.48776 0
M  V30 4919 C 471.447 -1.10177 1.50725 0
M  V30 4920 C 471.798 -1.94153 0.282678 0
M  V30 4921 O 470.923 -2.07645 -0.609298 0
M  V30 4922 C 471.518 -2.00482 2.73116 0
M  V30 4923 C 470.077 -2.53862 2.77905 0
M  V30 4924 C 469.224 -1.31047 2.44381 0
M  V30 4925 H 472.175 -0.30473 1.55747 0
M  V30 4926 H 472.196 -2.8491 2.52203 0
M  V30 4927 H 471.708 -1.39335 3.62225 0
M  V30 4928 H 469.809 -3.18702 1.93029 0
M  V30 4929 H 469.922 -2.9231 3.79594 0
M  V30 4930 H 468.286 -1.62953 1.95751 0
M  V30 4931 H 469.069 -0.71637 3.35743 0
M  V30 4932 N 471.514 -1.37532 -0.769588 0
M  V30 4933 C 472.424 -1.35668 -1.91393 0
M  V30 4934 C 473.44 -0.255954 -1.72107 0
M  V30 4935 O 474.616 -0.491704 -1.95305 0
M  V30 4936 C 471.681 -1.16481 -3.26547 0
M  V30 4937 C 470.742 -2.36212 -3.58472 0
M  V30 4938 C 469.975 -2.17932 -4.87177 0
M  V30 4939 O 470.198 -1.1647 -5.58382 0
M  V30 4940 O 469.132 -3.06167 -5.18214 0
M  V30 4941 H 472.958 -2.32055 -1.95918 0
M  V30 4942 H 470.543 -1.18284 -0.912641 0
M  V30 4943 H 472.425 -1.07778 -4.07384 0
M  V30 4944 H 471.1 -0.231687 -3.2287 0
M  V30 4945 H 470.007 -2.50488 -2.77861 0
M  V30 4946 H 471.34 -3.281 -3.66894 0
M  V30 4947 N 472.992 0.995999 -1.22138 0
M  V30 4948 C 473.955 2.06711 -0.990109 0
M  V30 4949 C 474.955 1.60744 0.0422978 0
M  V30 4950 O 476.145 1.73095 -0.195895 0
M  V30 4951 C 473.277 3.37288 -0.49491 0
M  V30 4952 H 474.47 2.28661 -1.94047 0
M  V30 4953 H 472.023 1.16711 -1.03963 0
M  V30 4954 H 472.758 3.21022 0.459948 0
M  V30 4955 H 472.543 3.71986 -1.23971 0
M  V30 4956 H 474.033 4.16103 -0.353253 0
M  V30 4957 N 474.47 1.03057 1.19235 0
M  V30 4958 C 475.719 0.72326 1.88287 0
M  V30 4959 C 476.032 -0.751333 1.80594 0
M  V30 4960 O 477.238 -1.17176 2.44912 0
M  V30 4961 C 475.694 1.24338 3.3774 0
M  V30 4962 C 475.302 2.74587 3.53986 0
M  V30 4963 C 477.046 1.01213 4.12257 0
M  V30 4964 C 474.953 3.20009 4.97341 0
M  V30 4965 H 473.883 0.266848 0.705201 0
M  V30 4966 H 476.534 1.24509 1.34795 0
M  V30 4967 H 474.916 0.649457 3.90638 0
M  V30 4968 H 476.09 3.39649 3.11408 0
M  V30 4969 H 474.405 2.9601 2.9286 0
M  V30 4970 H 477.002 1.32675 5.17978 0
M  V30 4971 H 477.345 -0.051001 4.16269 0
M  V30 4972 H 477.878 1.57014 3.65501 0
M  V30 4973 H 474.617 4.25659 4.98493 0
M  V30 4974 H 474.137 2.59676 5.40674 0
M  V30 4975 H 475.816 3.13447 5.66003 0
M  V30 4976 N 475.948 -1.35272 0.808662 0
M  V30 4977 C 477.173 -2.03477 0.401475 0
M  V30 4978 C 477.598 -1.60537 -0.980279 0
M  V30 4979 O 476.956 -0.78304 -1.63518 0
M  V30 4980 C 477.004 -3.57181 0.495354 0
M  V30 4981 O 476.108 -4.09474 -0.490397 0
M  V30 4982 H 475.449 -0.642561 0.167366 0
M  V30 4983 H 477.979 -1.72824 1.09512 0
M  V30 4984 H 477.989 -4.06356 0.365912 0
M  V30 4985 H 476.664 -3.87784 1.5032 0
M  V30 4986 H 475.241 -3.71516 -0.321023 0
M  V30 4987 N 477.426 -0.562348 -1.47226 0
M  V30 4988 C 478.703 0.0256985 -1.95583 0
M  V30 4989 C 479.083 1.48032 -1.50498 0
M  V30 4990 O 478.431 2.15973 -0.746181 0
M  V30 4991 C 478.641 -0.125129 -3.48776 0
M  V30 4992 C 479.989 0.0175728 -4.24596 0
M  V30 4993 O 481.013 -0.0529341 -3.56161 0
M  V30 4994 O 479.872 0.170145 -5.46235 0
M  V30 4995 H 476.966 0.0612565 -0.824728 0
M  V30 4996 H 479.512 -0.629233 -1.57603 0
M  V30 4997 H 478.284 -1.13715 -3.74412 0
M  V30 4998 H 477.907 0.567178 -3.93534 0
M  V30 4999 N 478.904 1.54736 -0.299062 0
M  V30 5000 C 480.129 2.04975 0.316254 0
M  V30 5001 C 480.554 1.17501 1.46885 0
M  V30 5002 O 479.912 0.178678 1.80417 0
M  V30 5003 C 479.96 3.52672 0.751997 0
M  V30 5004 O 479.064 3.68226 1.85697 0
M  V30 5005 H 478.405 0.661126 0.0617175 0
M  V30 5006 H 480.935 1.99805 -0.440341 0
M  V30 5007 H 480.945 3.94488 1.04133 0
M  V30 5008 H 479.62 4.158 -0.0911482 0
M  V30 5009 H 478.197 3.38316 1.56834 0
M  V30 5010 N 480.382 0.0267497 1.57577 0
M  V30 5011 C 481.63 -0.651116 1.91324 0
M  V30 5012 C 481.951 -1.72804 0.90353 0
M  V30 5013 O 481.221 -1.95822 -0.0552946 0
M  V30 5014 H 479.801 -0.243491 0.706202 0
M  V30 5015 H 482.463 0.0739935 1.94759 0
M  V30 5016 H 481.559 -1.10536 2.9187 0
M  V30 5017 N 481.861 -1.55662 -0.24637 0
M  V30 5018 C 482.793 -1.86811 -1.32794 0
M  V30 5019 C 483.806 -0.754413 -1.44265 0
M  V30 5020 O 484.995 -1.03253 -1.45606 0
M  V30 5021 C 482.095 -2.0397 -2.70646 0
M  V30 5022 C 481.268 -3.34832 -2.81436 0
M  V30 5023 C 480.327 -3.41727 -4.00136 0
M  V30 5024 O 479.353 -4.14934 -3.89639 0
M  V30 5025 N 480.555 -2.71058 -5.1333 0
M  V30 5026 H 483.32 -2.80174 -1.06409 0
M  V30 5027 H 480.881 -1.55906 -0.43647 0
M  V30 5028 H 482.873 -2.05924 -3.48393 0
M  V30 5029 H 481.443 -1.1735 -2.89738 0
M  V30 5030 H 480.663 -3.4519 -1.90361 0
M  V30 5031 H 481.951 -4.21085 -2.85595 0
M  V30 5032 H 481.349 -2.11314 -5.2475 0
M  V30 5033 H 479.906 -2.78704 -5.89209 0
M  V30 5034 N 483.339 0.512053 -1.4905 0
M  V30 5035 C 484.564 1.2959 -1.6193 0
M  V30 5036 C 484.989 1.85906 -0.286454 0
M  V30 5037 O 484.347 1.65312 0.744426 0
M  V30 5038 C 484.395 2.40987 -2.68249 0
M  V30 5039 O 483.499 3.44531 -2.26654 0
M  V30 5040 H 482.84 0.383053 -0.542371 0
M  V30 5041 H 485.37 0.614231 -1.95162 0
M  V30 5042 H 485.38 2.86913 -2.90078 0
M  V30 5043 H 484.055 1.99361 -3.65004 0
M  V30 5044 H 482.632 3.046 -2.15112 0
M  V30 5045 N 484.817 1.37938 0.762283 0
M  V30 5046 C 486.064 1.33668 1.52115 0
M  V30 5047 C 486.392 -0.0759538 1.94352 0
M  V30 5048 O 485.647 -1.05121 1.6507 0
M  V30 5049 C 485.946 2.23042 2.79261 0
M  V30 5050 C 485.612 3.71159 2.56031 0
M  V30 5051 C 484.274 4.11523 2.49404 0
M  V30 5052 C 486.626 4.64955 2.35513 0
M  V30 5053 C 483.954 5.43784 2.20263 0
M  V30 5054 C 486.306 5.97464 2.07894 0
M  V30 5055 C 484.97 6.36922 1.99718 0
M  V30 5056 H 484.24 0.489127 0.556629 0
M  V30 5057 H 486.887 1.70224 0.877262 0
M  V30 5058 H 485.192 1.79512 3.48256 0
M  V30 5059 H 486.889 2.17047 3.37182 0
M  V30 5060 H 483.479 3.39153 2.62056 0
M  V30 5061 H 487.663 4.34623 2.39617 0
M  V30 5062 H 482.919 5.73307 2.12435 0
M  V30 5063 H 487.093 6.6969 1.91019 0
M  V30 5064 H 484.72 7.39331 1.76902 0
M  V30 5065 N 486.295 -0.989507 1.22664 0
M  V30 5066 C 487.52 -1.77031 1.08051 0
M  V30 5067 C 487.945 -1.84535 -0.364483 0
M  V30 5068 O 487.303 -1.3003 -1.2634 0
M  V30 5069 C 487.351 -3.18 1.70024 0
M  V30 5070 O 486.455 -4.01161 0.956216 0
M  V30 5071 H 485.796 -0.545008 0.379292 0
M  V30 5072 H 488.326 -1.24277 1.62531 0
M  V30 5073 H 488.336 -3.68616 1.74888 0
M  V30 5074 H 487.011 -3.11853 2.75174 0
M  V30 5075 H 485.588 -3.59687 0.98384 0
M  V30 5076 N 487.773 -1.03688 -1.18687 0
M  V30 5077 C 489.021 -0.736572 -1.88199 0
M  V30 5078 C 489.342 0.737665 -1.80509 0
M  V30 5079 O 488.612 1.53204 -1.22088 0
M  V30 5080 H 487.192 -0.269466 -0.696704 0
M  V30 5081 H 489.854 -1.31282 -1.44052 0
M  V30 5082 H 488.95 -1.03802 -2.94332 0
M  V30 5083 N 489.251 1.34841 -0.815825 0
M  V30 5084 C 490.198 2.29644 -0.230664 0
M  V30 5085 C 491.168 1.53253 0.640533 0
M  V30 5086 O 492.353 1.81653 0.583672 0
M  V30 5087 C 489.493 3.39715 0.607275 0
M  V30 5088 C 488.606 4.31056 -0.28538 0
M  V30 5089 C 487.741 5.28225 0.561446 0
M  V30 5090 C 486.78 6.11204 -0.331035 0
M  V30 5091 N 485.917 7.00483 0.476302 0
M  V30 5092 H 490.757 2.79095 -1.0445 0
M  V30 5093 H 488.294 1.37351 -0.526595 0
M  V30 5094 H 490.252 4.02208 1.10835 0
M  V30 5095 H 488.882 2.91517 1.38629 0
M  V30 5096 H 487.934 3.69487 -0.904621 0
M  V30 5097 H 489.246 4.89239 -0.97193 0
M  V30 5098 H 488.4 5.96135 1.12728 0
M  V30 5099 H 487.139 4.70562 1.28153 0
M  V30 5100 H 486.144 5.42232 -0.909069 0
M  V30 5101 H 487.369 6.70947 -1.04912 0
M  V30 5102 H 485.315 6.45296 1.18019 0
M  V30 5103 H 485.232 7.55847 -0.152008 0
M  V30 5104 H 486.5 7.7273 1.02512 0
M  V30 5105 N 490.729 0.570148 1.46925 0
M  V30 5106 C 491.692 -0.159933 2.28641 0
M  V30 5107 C 492.692 -0.830638 1.37685 0
M  V30 5108 O 493.882 -0.684516 1.60187 0
M  V30 5109 C 491.014 -1.2354 3.17727 0
M  V30 5110 H 492.207 0.558035 2.94662 0
M  V30 5111 H 489.76 0.327603 1.52828 0
M  V30 5112 H 490.495 -1.98535 2.56426 0
M  V30 5113 H 490.28 -0.759125 3.84681 0
M  V30 5114 H 491.77 -1.74782 3.79264 0
M  V30 5115 N 492.207 -1.54576 0.307264 0
M  V30 5116 C 493.137 -2.26708 -0.55907 0
M  V30 5117 C 494.118 -1.26893 -1.1328 0
M  V30 5118 O 495.303 -1.55677 -1.16097 0
M  V30 5119 C 492.433 -3.01259 -1.72801 0
M  V30 5120 C 491.387 -4.08275 -1.28435 0
M  V30 5121 C 490.713 -4.70575 -2.53895 0
M  V30 5122 C 492.013 -5.2068 -0.411038 0
M  V30 5123 H 493.707 -2.9937 0.042576 0
M  V30 5124 H 491.253 -1.43983 0.0219173 0
M  V30 5125 H 493.206 -3.50444 -2.34023 0
M  V30 5126 H 491.93 -2.26187 -2.356 0
M  V30 5127 H 490.589 -3.59949 -0.695161 0
M  V30 5128 H 490.237 -3.92136 -3.15021 0
M  V30 5129 H 489.937 -5.42854 -2.24908 0
M  V30 5130 H 491.461 -5.22527 -3.15908 0
M  V30 5131 H 492.875 -5.65721 -0.929097 0
M  V30 5132 H 491.272 -5.99716 -0.214664 0
M  V30 5133 H 492.342 -4.81629 0.562287 0
M  V30 5134 N 493.685 -0.035106 -1.57561 0
M  V30 5135 C 494.962 0.681212 -1.83354 0
M  V30 5136 C 495.342 1.89986 -0.920252 0
M  V30 5137 O 494.69 2.28489 0.0226815 0
M  V30 5138 C 494.9 1.05376 -3.32712 0
M  V30 5139 C 496.248 1.44286 -3.99333 0
M  V30 5140 O 497.272 1.14656 -3.37242 0
M  V30 5141 O 496.131 1.99518 -5.08778 0
M  V30 5142 H 493.225 0.334741 -0.756226 0
M  V30 5143 H 495.771 -0.0632448 -1.69582 0
M  V30 5144 H 494.543 0.186668 -3.90854 0
M  V30 5145 H 494.166 1.85619 -3.51613 0
M  V30 5146 N 495.163 1.55791 0.238111 0
M  V30 5147 C 496.409 1.78297 0.966337 0
M  V30 5148 C 496.742 0.601903 1.84637 0
M  V30 5149 O 496.017 -0.399499 1.90353 0
M  V30 5150 C 496.3 3.10758 1.81939 0
M  V30 5151 C 496.153 4.39283 0.966958 0
M  V30 5152 C 497.472 3.39519 2.80027 0
M  V30 5153 H 494.591 0.648654 0.349882 0
M  V30 5154 H 497.233 1.88525 0.236253 0
M  V30 5155 H 495.383 3.02168 2.44185 0
M  V30 5156 H 497.055 4.59873 0.362514 0
M  V30 5157 H 495.298 4.32948 0.271669 0
M  V30 5158 H 495.969 5.28368 1.59784 0
M  V30 5159 H 498.445 3.48128 2.27917 0
M  V30 5160 H 497.321 4.33402 3.36829 0
M  V30 5161 H 497.582 2.60864 3.56934 0
M  V30 5162 N 496.642 -0.504142 1.49319 0
M  V30 5163 C 497.888 -1.25767 1.59857 0
M  V30 5164 C 498.243 -1.90348 0.280262 0
M  V30 5165 O 497.536 -1.77588 -0.719241 0
M  V30 5166 C 497.73 -2.35021 2.69258 0
M  V30 5167 C 497.559 -1.81154 4.11598 0
M  V30 5168 C 496.329 -1.62596 4.78425 0
M  V30 5169 C 498.527 -1.3252 4.96934 0
M  V30 5170 N 496.509 -1.03625 6.05091 0
M  V30 5171 C 497.88 -0.856633 6.14054 0
M  V30 5172 C 499.935 -1.21063 4.82958 0
M  V30 5173 C 498.638 -0.284841 7.18736 0
M  V30 5174 C 500.664 -0.652815 5.87786 0
M  V30 5175 C 500.026 -0.194461 7.04132 0
M  V30 5176 H 496.125 -0.450293 0.639343 0
M  V30 5177 H 498.709 -0.565344 1.86311 0
M  V30 5178 H 496.88 -3.01719 2.44581 0
M  V30 5179 H 498.612 -3.02061 2.69335 0
M  V30 5180 H 495.367 -1.86873 4.35173 0
M  V30 5181 H 495.791 -0.76076 6.72712 0
M  V30 5182 H 500.433 -1.551 3.93324 0
M  V30 5183 H 498.151 0.0677979 8.08072 0
M  V30 5184 H 501.737 -0.566994 5.79031 0
M  V30 5185 H 500.617 0.230442 7.83861 0
M  V30 5186 N 498.12 -1.38341 -0.754957 0
M  V30 5187 C 499.083 -1.35262 -1.85032 0
M  V30 5188 C 500.083 -0.253393 -1.58791 0
M  V30 5189 O 501.273 -0.510205 -1.66561 0
M  V30 5190 C 498.405 -1.10544 -3.22479 0
M  V30 5191 H 499.598 -2.32712 -1.8917 0
M  V30 5192 H 497.151 -1.23614 -0.956515 0
M  V30 5193 H 497.886 -0.136952 -3.24011 0
M  V30 5194 H 497.671 -1.90127 -3.4292 0
M  V30 5195 H 499.161 -1.11082 -4.02555 0
M  V30 5196 N 499.598 0.982988 -1.23187 0
M  V30 5197 C 500.826 1.75921 -1.08901 0
M  V30 5198 C 501.241 1.85341 0.359719 0
M  V30 5199 O 500.598 1.33072 1.24892 0
M  V30 5200 C 500.649 3.18742 -1.70545 0
M  V30 5201 O 500.37 3.09814 -3.09753 0
M  V30 5202 C 501.871 4.1277 -1.61667 0
M  V30 5203 H 499.091 0.552166 -0.381252 0
M  V30 5204 H 501.635 1.23516 -1.62985 0
M  V30 5205 H 499.79 3.68182 -1.20501 0
M  V30 5206 H 500.204 3.99703 -3.39614 0
M  V30 5207 H 501.678 5.10697 -2.09506 0
M  V30 5208 H 502.155 4.3542 -0.575009 0
M  V30 5209 H 502.761 3.69232 -2.11064 0
M  V30 5210 N 501.076 1.04316 1.18135 0
M  V30 5211 C 502.324 0.746542 1.87806 0
M  V30 5212 C 502.645 -0.728082 1.80898 0
M  V30 5213 O 501.915 -1.52554 1.22899 0
M  V30 5214 H 500.495 0.273157 0.695265 0
M  V30 5215 H 503.157 1.32044 1.43354 0
M  V30 5216 H 502.253 1.05362 2.93778 0
M  V30 5217 N 502.554 -1.34406 0.822964 0
M  V30 5218 C 503.8 -1.98578 0.411666 0
M  V30 5219 C 504.133 -1.65093 -1.02264 0
M  V30 5220 O 503.408 -0.92258 -1.71227 0
M  V30 5221 C 503.691 -3.54823 0.614235 0
M  V30 5222 C 503.544 -3.9805 2.09466 0
M  V30 5223 C 504.863 -4.40071 0.050221 0
M  V30 5224 H 501.982 -0.721355 0.151047 0
M  V30 5225 H 504.624 -1.59301 1.03554 0
M  V30 5226 H 502.774 -3.88411 0.0831774 0
M  V30 5227 H 504.446 -3.74795 2.68936 0
M  V30 5228 H 502.689 -3.4836 2.5851 0
M  V30 5229 H 503.36 -5.06819 2.18721 0
M  V30 5230 H 505.836 -4.13037 0.503953 0
M  V30 5231 H 504.712 -5.48452 0.221759 0
M  V30 5232 H 504.973 -4.29576 -1.04482 0
M  V30 5233 N 504.032 -0.577932 -1.46621 0
M  V30 5234 C 505.26 -0.0671642 -2.06791 0
M  V30 5235 C 505.675 1.23571 -1.42743 0
M  V30 5236 O 505.032 1.74602 -0.531062 0
M  V30 5237 C 505.083 0.110357 -3.61332 0
M  V30 5238 O 504.804 -1.14095 -4.22982 0
M  V30 5239 C 506.305 0.656025 -4.38419 0
M  V30 5240 H 503.525 -0.0552732 -0.66872 0
M  V30 5241 H 506.069 -0.797242 -1.8832 0
M  V30 5242 H 504.224 0.790637 -3.79246 0
M  V30 5243 H 504.638 -0.951742 -5.15793 0
M  V30 5244 H 506.112 0.729438 -5.47159 0
M  V30 5245 H 506.589 1.67195 -4.06131 0
M  V30 5246 H 507.195 0.0107692 -4.25299 0
M  V30 5247 N 505.51 1.54411 -0.315457 0
M  V30 5248 C 506.44 2.27002 0.547039 0
M  V30 5249 C 507.421 1.27492 1.12605 0
M  V30 5250 O 508.606 1.5629 1.15269 0
M  V30 5251 C 505.736 3.02171 1.71201 0
M  V30 5252 C 504.69 4.0895 1.26268 0
M  V30 5253 C 504.016 4.71915 2.51396 0
M  V30 5254 C 505.316 5.20891 0.383419 0
M  V30 5255 H 507.01 2.99343 -0.0584517 0
M  V30 5256 H 504.556 1.4397 -0.0295527 0
M  V30 5257 H 506.509 3.51681 2.32161 0
M  V30 5258 H 505.233 2.27433 2.34397 0
M  V30 5259 H 503.892 3.60312 0.676062 0
M  V30 5260 H 503.54 3.93801 3.12937 0
M  V30 5261 H 503.24 5.44039 2.22026 0
M  V30 5262 H 504.764 5.24195 3.13133 0
M  V30 5263 H 506.178 5.66206 0.899082 0
M  V30 5264 H 504.575 5.99821 0.182857 0
M  V30 5265 H 505.645 4.81324 -0.587821 0
M  V30 5266 N 506.988 0.0434614 1.5754 0
M  V30 5267 C 508.218 -0.640905 1.96408 0
M  V30 5268 C 508.626 -1.65365 0.919297 0
M  V30 5269 O 507.969 -1.83395 -0.105795 0
M  V30 5270 C 508.031 -1.39141 3.31482 0
M  V30 5271 C 507.695 -0.535375 4.53853 0
M  V30 5272 C 508.692 0.195335 5.19533 0
M  V30 5273 C 506.377 -0.468564 5.0011 0
M  V30 5274 C 508.371 0.981377 6.298 0
M  V30 5275 C 506.058 0.321171 6.10255 0
M  V30 5276 C 507.056 1.04484 6.74961 0
M  V30 5277 O 506.744 1.8216 7.8299 0
M  V30 5278 H 506.476 -0.180584 0.651433 0
M  V30 5279 H 509.03 0.103848 2.05137 0
M  V30 5280 H 507.26 -2.18162 3.19284 0
M  V30 5281 H 508.949 -1.96526 3.55151 0
M  V30 5282 H 509.715 0.15314 4.84758 0
M  V30 5283 H 505.594 -1.02142 4.49542 0
M  V30 5284 H 509.138 1.54674 6.80237 0
M  V30 5285 H 505.035 0.365032 6.44467 0
M  V30 5286 H 505.803 1.74289 7.99728 0
M  V30 5287 N 508.466 -1.55915 -0.229846 0
M  V30 5288 C 509.706 -1.80314 -0.962614 0
M  V30 5289 C 510.07 -0.61568 -1.81861 0
M  V30 5290 O 511.271 -0.738795 -2.58448 0
M  V30 5291 C 509.542 -3.0956 -1.78627 0
M  V30 5292 S 511.101 -3.55243 -2.57581 0
M  V30 5293 H 507.919 -0.633142 -0.323499 0
M  V30 5294 H 510.521 -1.94155 -0.228919 0
M  V30 5295 H 509.225 -3.94033 -1.14742 0
M  V30 5296 H 508.756 -2.98503 -2.56241 0
M  V30 5297 H 510.771 -3.17924 -3.80971 0
M  V30 5298 N 509.944 0.496216 -1.49584 0
M  V30 5299 C 511.191 1.25003 -1.59312 0
M  V30 5300 C 511.519 1.92445 -0.28198 0
M  V30 5301 O 510.774 1.81557 0.730452 0
M  V30 5302 C 511.073 2.3359 -2.705 0
M  V30 5303 C 510.739 1.83574 -4.11839 0
M  V30 5304 C 509.401 1.69653 -4.50302 0
M  V30 5305 C 511.753 1.46193 -5.00277 0
M  V30 5306 C 509.081 1.16736 -5.74969 0
M  V30 5307 C 511.433 0.947265 -6.25468 0
M  V30 5308 C 510.097 0.794485 -6.62755 0
M  V30 5309 H 509.367 0.45742 -0.582965 0
M  V30 5310 H 512.014 0.549996 -1.83432 0
M  V30 5311 H 510.319 3.09401 -2.40371 0
M  V30 5312 H 512.016 2.91627 -2.75235 0
M  V30 5313 H 508.606 1.9537 -3.81482 0
M  V30 5314 H 512.79 1.55793 -4.71214 0
M  V30 5315 H 508.046 1.03623 -6.02555 0
M  V30 5316 H 512.22 0.648846 -6.93371 0
M  V30 5317 H 509.847 0.382271 -7.59238 0
M  V30 5318 N 511.423 1.38739 0.74761 0
M  V30 5319 C 512.669 1.35475 1.50912 0
M  V30 5320 C 513.002 -0.0533093 1.94127 0
M  V30 5321 O 512.277 -1.01572 1.65871 0
M  V30 5322 C 512.56 2.31582 2.75757 0
M  V30 5323 C 512.413 3.81274 2.38642 0
M  V30 5324 C 513.732 2.25722 3.77806 0
M  V30 5325 H 510.851 0.493427 0.547447 0
M  V30 5326 H 513.493 1.69634 0.855823 0
M  V30 5327 H 511.643 2.02582 3.31501 0
M  V30 5328 H 513.315 4.20972 1.88626 0
M  V30 5329 H 511.558 3.98664 1.71025 0
M  V30 5330 H 512.229 4.4399 3.27989 0
M  V30 5331 H 514.705 2.51336 3.31616 0
M  V30 5332 H 513.581 2.95069 4.62845 0
M  V30 5333 H 513.842 1.25803 4.23823 0
M  V30 5334 N 512.901 -0.976442 1.23707 0
M  V30 5335 C 514.131 -1.75087 1.09673 0
M  V30 5336 C 514.539 -1.85852 -0.354344 0
M  V30 5337 O 513.882 -1.33985 -1.25673 0
M  V30 5338 C 513.944 -3.19272 1.65245 0
M  V30 5339 C 513.608 -3.32004 3.14042 0
M  V30 5340 C 514.605 -3.18017 4.11292 0
M  V30 5341 C 512.29 -3.56525 3.53829 0
M  V30 5342 C 514.284 -3.28363 5.46312 0
M  V30 5343 C 511.971 -3.6651 4.88993 0
M  V30 5344 C 512.969 -3.52439 5.85043 0
M  V30 5345 O 512.657 -3.62063 7.1775 0
M  V30 5346 H 512.389 -0.556164 0.384262 0
M  V30 5347 H 514.943 -1.23518 1.64111 0
M  V30 5348 H 513.173 -3.72107 1.05231 0
M  V30 5349 H 514.862 -3.7849 1.46629 0
M  V30 5350 H 515.628 -2.98966 3.81896 0
M  V30 5351 H 511.507 -3.66547 2.79579 0
M  V30 5352 H 515.051 -3.17297 6.21263 0
M  V30 5353 H 510.948 -3.85072 5.18063 0
M  V30 5354 H 511.716 -3.78833 7.25553 0
M  V30 5355 N 514.379 -1.04941 -1.1758 0
M  V30 5356 C 515.627 -0.756492 -1.87408 0
M  V30 5357 C 515.948 0.718478 -1.81281 0
M  V30 5358 O 515.218 1.519 -1.23706 0
M  V30 5359 H 513.798 -0.276841 -0.693807 0
M  V30 5360 H 516.46 -1.32803 -1.42652 0
M  V30 5361 H 515.556 -1.06918 -2.93215 0
M  V30 5362 N 515.857 1.33968 -0.830081 0
M  V30 5363 C 516.804 2.29387 -0.255008 0
M  V30 5364 C 517.774 1.53923 0.624243 0
M  V30 5365 O 518.959 1.82262 0.564372 0
M  V30 5366 C 516.099 3.4034 0.571209 0
M  V30 5367 C 515.212 4.30729 -0.331083 0
M  V30 5368 C 514.347 5.2879 0.505389 0
M  V30 5369 C 513.386 6.10819 -0.395843 0
M  V30 5370 N 512.523 7.00948 0.401979 0
M  V30 5371 H 517.363 2.77972 -1.07404 0
M  V30 5372 H 514.9 1.36785 -0.541133 0
M  V30 5373 H 516.858 4.03361 1.06562 0
M  V30 5374 H 515.488 2.9297 1.35529 0
M  V30 5375 H 514.54 3.68507 -0.943759 0
M  V30 5376 H 515.852 4.88181 -1.02377 0
M  V30 5377 H 515.006 5.97297 1.06399 0
M  V30 5378 H 513.745 4.71894 1.23155 0
M  V30 5379 H 512.75 5.41238 -0.966529 0
M  V30 5380 H 513.975 6.69797 -1.12023 0
M  V30 5381 H 511.921 6.46512 1.11168 0
M  V30 5382 H 511.838 7.55643 -0.232167 0
M  V30 5383 H 513.106 7.73774 0.943102 0
M  V30 5384 N 517.335 0.585699 1.46312 0
M  V30 5385 C 518.575 0.0751432 2.04262 0
M  V30 5386 C 518.939 -1.26201 1.44697 0
M  V30 5387 O 520.14 -1.86198 1.93865 0
M  V30 5388 C 518.411 0.013478 3.57397 0
M  V30 5389 S 519.97 -0.439068 4.36598 0
M  V30 5390 H 516.788 0.0389228 0.709934 0
M  V30 5391 H 519.39 0.778871 1.79315 0
M  V30 5392 H 518.094 0.990558 3.98266 0
M  V30 5393 H 517.625 -0.712927 3.86886 0
M  V30 5394 H 519.64 -1.6932 4.66417 0
M  V30 5395 N 518.813 -1.54241 0.323641 0
M  V30 5396 C 520.224 -1.85975 -0.164405 0
M  V30 5397 C 520.575 -1.24529 -1.51615 0
M  V30 5398 O 519.7 -0.551351 -2.09258 0
M  V30 5399 C 520.295 -3.37424 -0.305091 0
M  V30 5400 C 518.854 -3.69107 -0.737358 0
M  V30 5401 C 518.001 -2.76942 0.140884 0
M  V30 5402 H 520.952 -1.49088 0.543922 0
M  V30 5403 H 520.973 -3.63147 -1.13598 0
M  V30 5404 H 520.485 -3.82116 0.678876 0
M  V30 5405 H 518.586 -3.29947 -1.73107 0
M  V30 5406 H 518.699 -4.76035 -0.541053 0
M  V30 5407 H 517.063 -2.51795 -0.383572 0
M  V30 5408 H 517.846 -3.24461 1.12162 0
M  V30 5409 N 520.291 -0.0518155 -1.57515 0
M  V30 5410 C 521.538 0.621823 -1.92716 0
M  V30 5411 C 521.866 1.70813 -0.930229 0
M  V30 5412 O 521.121 1.95616 0.0573708 0
M  V30 5413 C 521.42 1.25607 -3.34601 0
M  V30 5414 C 521.086 0.297901 -4.49915 0
M  V30 5415 C 519.748 0.034243 -4.81188 0
M  V30 5416 C 522.1 -0.358738 -5.19964 0
M  V30 5417 C 519.428 -0.893479 -5.79857 0
M  V30 5418 C 521.78 -1.27466 -6.19625 0
M  V30 5419 C 520.444 -1.54698 -6.49326 0
M  V30 5420 H 519.714 0.227541 -0.705199 0
M  V30 5421 H 522.361 -0.118432 -1.91133 0
M  V30 5422 H 520.666 2.07161 -3.32553 0
M  V30 5423 H 522.363 1.78424 -3.59118 0
M  V30 5424 H 518.953 0.513581 -4.25512 0
M  V30 5425 H 523.137 -0.168133 -4.96015 0
M  V30 5426 H 518.393 -1.11193 -6.01204 0
M  V30 5427 H 522.567 -1.78953 -6.73015 0
M  V30 5428 H 520.194 -2.26748 -7.25596 0
M  V30 5429 N 521.769 1.56035 0.221574 0
M  V30 5430 C 523.018 1.78245 0.944016 0
M  V30 5431 C 523.331 0.620371 1.85501 0
M  V30 5432 O 524.537 0.726103 2.6161 0
M  V30 5433 C 522.993 3.15659 1.7288 0
M  V30 5434 C 522.601 4.39591 0.863942 0
M  V30 5435 C 524.345 3.47195 2.44246 0
M  V30 5436 C 522.252 5.6803 1.64607 0
M  V30 5437 H 521.182 0.664547 0.356222 0
M  V30 5438 H 523.833 1.8243 0.197904 0
M  V30 5439 H 522.215 3.0565 2.51781 0
M  V30 5440 H 523.389 4.60655 0.115464 0
M  V30 5441 H 521.704 4.15572 0.262407 0
M  V30 5442 H 524.301 4.40381 3.03263 0
M  V30 5443 H 524.644 2.69693 3.1713 0
M  V30 5444 H 525.177 3.58533 1.72334 0
M  V30 5445 H 521.916 6.48425 0.960507 0
M  V30 5446 H 521.436 5.51027 2.36917 0
M  V30 5447 H 523.115 6.08203 2.20675 0
M  V30 5448 N 523.247 -0.488276 1.49845 0
M  V30 5449 C 524.524 -1.24959 1.50481 0
M  V30 5450 C 524.904 -2.09735 0.239698 0
M  V30 5451 O 524.252 -2.14865 -0.777524 0
M  V30 5452 C 524.462 -2.0954 2.79095 0
M  V30 5453 C 525.81 -2.68305 3.29086 0
M  V30 5454 O 526.834 -2.19797 2.80299 0
M  V30 5455 O 525.693 -3.56643 4.14087 0
M  V30 5456 H 522.787 -0.566133 0.602845 0
M  V30 5457 H 525.333 -0.501504 1.6212 0
M  V30 5458 H 524.105 -1.46958 3.62656 0
M  V30 5459 H 523.728 -2.91517 2.70377 0
M  V30 5460 N 524.725 -1.39134 -0.740242 0
M  V30 5461 C 526.002 -1.26584 -1.49117 0
M  V30 5462 C 526.382 0.126902 -2.10718 0
M  V30 5463 O 525.73 1.13765 -1.98166 0
M  V30 5464 C 525.94 -2.38619 -2.54681 0
M  V30 5465 C 527.288 -2.77685 -3.21211 0
M  V30 5466 O 528.312 -2.38029 -2.64991 0
M  V30 5467 O 527.171 -3.46115 -4.22926 0
M  V30 5468 H 524.265 -0.495769 -0.661923 0
M  V30 5469 H 526.811 -1.50995 -0.774514 0
M  V30 5470 H 525.583 -3.3175 -2.07504 0
M  V30 5471 H 525.206 -2.15845 -3.33911 0
M  V30 5472 N 526.204 0.969867 -1.24223 0
M  V30 5473 C 527.451 1.71256 -1.08063 0
M  V30 5474 C 527.779 1.90734 0.380872 0
M  V30 5475 O 527.034 1.46469 1.29789 0
M  V30 5476 C 527.333 3.10883 -1.76314 0
M  V30 5477 C 526.999 3.11252 -3.26241 0
M  V30 5478 C 525.661 3.1106 -3.67144 0
M  V30 5479 C 528.013 3.05751 -4.22097 0
M  V30 5480 C 525.341 3.03097 -5.02344 0
M  V30 5481 C 527.693 2.9933 -5.57301 0
M  V30 5482 C 526.357 2.97466 -5.97554 0
M  V30 5483 H 525.627 0.62667 -0.395431 0
M  V30 5484 H 528.274 1.13422 -1.54297 0
M  V30 5485 H 526.579 3.72168 -1.22468 0
M  V30 5486 H 528.276 3.67138 -1.61277 0
M  V30 5487 H 524.866 3.12165 -2.93685 0
M  V30 5488 H 529.05 3.05031 -3.91497 0
M  V30 5489 H 524.306 3.00013 -5.32731 0
M  V30 5490 H 528.48 2.94033 -6.31283 0
M  V30 5491 H 526.107 2.91051 -7.02277 0
M  V30 5492 N 527.682 1.05563 1.17022 0
M  V30 5493 C 528.931 0.763036 1.8671 0
M  V30 5494 C 529.244 -0.712857 1.82147 0
M  V30 5495 O 530.45 -1.11955 2.47343 0
M  V30 5496 C 528.906 1.31474 3.35026 0
M  V30 5497 C 528.514 2.82034 3.48081 0
M  V30 5498 C 530.258 1.09935 4.10018 0
M  V30 5499 C 528.165 3.30486 4.90442 0
M  V30 5500 H 527.095 0.281747 0.699382 0
M  V30 5501 H 529.746 1.2734 1.32124 0
M  V30 5502 H 528.128 0.732171 3.89173 0
M  V30 5503 H 529.302 3.46178 3.04133 0
M  V30 5504 H 527.617 3.02156 2.86515 0
M  V30 5505 H 530.214 1.43632 5.15048 0
M  V30 5506 H 530.557 0.0373072 4.16283 0
M  V30 5507 H 531.09 1.64732 3.62089 0
M  V30 5508 H 527.829 4.36137 4.89352 0
M  V30 5509 H 527.349 2.71086 5.35044 0
M  V30 5510 H 529.028 3.25382 5.59227 0
M  V30 5511 N 529.16 -1.33526 0.837174 0
M  V30 5512 C 530.09 -2.31764 0.284206 0
M  V30 5513 C 531.071 -1.58896 -0.607142 0
M  V30 5514 O 532.256 -1.86798 -0.531047 0
M  V30 5515 C 529.386 -3.43029 -0.542962 0
M  V30 5516 C 528.34 -4.27255 0.252451 0
M  V30 5517 C 527.666 -5.3012 -0.69836 0
M  V30 5518 C 528.966 -5.01229 1.46858 0
M  V30 5519 H 530.66 -2.78262 1.10502 0
M  V30 5520 H 528.206 -1.3378 0.532812 0
M  V30 5521 H 530.159 -4.1078 -0.940096 0
M  V30 5522 H 528.883 -2.95216 -1.39697 0
M  V30 5523 H 527.542 -3.61127 0.631124 0
M  V30 5524 H 527.19 -4.78564 -1.54872 0
M  V30 5525 H 526.89 -5.87353 -0.170274 0
M  V30 5526 H 528.414 -6.00737 -1.09305 0
M  V30 5527 H 529.828 -5.61756 1.14469 0
M  V30 5528 H 528.225 -5.68104 1.93333 0
M  V30 5529 H 529.295 -4.301 2.23924 0
M  V30 5530 N 530.638 -0.59345 -1.46 0
M  V30 5531 C 531.601 0.123538 -2.28867 0
M  V30 5532 C 532.601 0.808628 -1.38989 0
M  V30 5533 O 533.791 0.658945 -1.61256 0
M  V30 5534 C 530.923 1.1847 -3.19653 0
M  V30 5535 H 532.116 -0.604843 -2.93737 0
M  V30 5536 H 529.669 -0.351875 -1.52288 0
M  V30 5537 H 530.404 1.94431 -2.59552 0
M  V30 5538 H 530.189 0.69783 -3.8584 0
M  V30 5539 H 531.679 1.68726 -3.81997 0
M  V30 5540 N 532.116 1.54067 -0.331816 0
M  V30 5541 C 533.046 2.27569 0.522932 0
M  V30 5542 C 534.027 1.28679 1.11247 0
M  V30 5543 O 535.212 1.57504 1.13605 0
M  V30 5544 C 532.342 3.0397 1.67987 0
M  V30 5545 C 531.296 4.10267 1.21924 0
M  V30 5546 C 530.622 4.74555 2.46377 0
M  V30 5547 C 531.922 5.21268 0.32815 0
M  V30 5548 H 533.616 2.99264 -0.0901977 0
M  V30 5549 H 531.162 1.4393 -0.044821 0
M  V30 5550 H 533.115 3.54123 2.28418 0
M  V30 5551 H 531.839 2.29906 2.31971 0
M  V30 5552 H 530.498 3.61009 0.637809 0
M  V30 5553 H 530.146 3.97098 3.08743 0
M  V30 5554 H 529.846 5.46363 2.16243 0
M  V30 5555 H 531.37 5.27487 3.07555 0
M  V30 5556 H 532.784 5.67128 0.838978 0
M  V30 5557 H 531.181 5.99982 0.119228 0
M  V30 5558 H 532.251 4.80673 -0.638839 0
M  V30 5559 N 533.594 0.0601682 1.57485 0
M  V30 5560 C 534.544 -0.920969 2.08572 0
M  V30 5561 C 535.528 -1.26617 0.992827 0
M  V30 5562 O 536.72 -1.24708 1.25606 0
M  V30 5563 C 533.849 -2.19267 2.64153 0
M  V30 5564 C 532.935 -1.87447 3.80427 0
M  V30 5565 N 533.326 -1.26025 4.89848 0
M  V30 5566 C 531.624 -2.17265 3.89502 0
M  V30 5567 C 532.325 -1.12036 5.70809 0
M  V30 5568 N 531.301 -1.62624 5.18705 0
M  V30 5569 H 535.103 -0.441561 2.90564 0
M  V30 5570 H 532.617 -0.144043 1.6176 0
M  V30 5571 H 534.614 -2.90462 2.99061 0
M  V30 5572 H 533.274 -2.67806 1.83603 0
M  V30 5573 H 534.285 -0.931336 5.09457 0
M  V30 5574 H 530.962 -2.68262 3.19909 0
M  V30 5575 H 532.352 -0.642783 6.68818 0
M  V30 5576 N 535.072 -1.5615 -0.213296 0
M  V30 5577 C 536.488 -1.49327 -0.56336 0
M  V30 5578 C 536.688 -0.756826 -1.86747 0
M  V30 5579 O 535.744 -0.299866 -2.50713 0
M  V30 5580 C 537.057 -2.9392 -0.634944 0
M  V30 5581 C 538.605 -3.04487 -0.725013 0
M  V30 5582 C 539.08 -4.50456 -0.82787 0
M  V30 5583 N 540.571 -4.54533 -0.891876 0
M  V30 5584 C 541.306 -5.64766 -0.991315 0
M  V30 5585 N 540.802 -6.84733 -1.05419 0
M  V30 5586 N 542.595 -5.52637 -1.02709 0
M  V30 5587 H 534.746 -2.02453 0.642366 0
M  V30 5588 H 537.009 -0.920548 0.226487 0
M  V30 5589 H 536.715 -3.50783 0.253859 0
M  V30 5590 H 536.589 -3.46274 -1.49579 0
M  V30 5591 H 538.976 -2.47685 -1.60425 0
M  V30 5592 H 539.057 -2.55289 0.161669 0
M  V30 5593 H 538.701 -5.07878 0.0469464 0
M  V30 5594 H 538.631 -4.97369 -1.73009 0
M  V30 5595 H 541.122 -3.68141 -0.85327 0
M  V30 5596 H 541.435 -7.64493 -1.13007 0
M  V30 5597 H 539.78 -6.87427 -1.02318 0
M  V30 5598 H 542.971 -4.5784 -0.974687 0
M  V30 5599 H 543.144 -6.38576 -1.10113 0
M  V30 5600 N 536.55 0.480323 -1.50102 0
M  V30 5601 C 537.497 1.57946 -1.6829 0
M  V30 5602 C 538.467 1.57611 -0.524223 0
M  V30 5603 O 539.652 1.75282 -0.753709 0
M  V30 5604 C 536.792 2.95978 -1.77457 0
M  V30 5605 C 535.905 3.06173 -3.04766 0
M  V30 5606 C 535.04 4.35063 -3.04784 0
M  V30 5607 C 534.079 4.38966 -4.26586 0
M  V30 5608 N 533.216 5.59314 -4.24396 0
M  V30 5609 H 538.056 1.41743 -2.62131 0
M  V30 5610 H 535.593 0.689304 -1.2995 0
M  V30 5611 H 537.551 3.76011 -1.80752 0
M  V30 5612 H 536.181 3.10837 -0.870637 0
M  V30 5613 H 535.233 2.19071 -3.10986 0
M  V30 5614 H 536.545 3.04916 -3.9475 0
M  V30 5615 H 535.699 5.23436 -3.06757 0
M  V30 5616 H 534.438 4.38915 -2.12614 0
M  V30 5617 H 533.443 3.48992 -4.24835 0
M  V30 5618 H 534.668 4.36813 -5.19972 0
M  V30 5619 H 532.614 5.63969 -3.35074 0
M  V30 5620 H 532.531 5.5976 -5.08138 0
M  V30 5621 H 533.799 6.49837 -4.30502 0
M  V30 5622 N 538.028 1.39524 0.732853 0
M  V30 5623 C 539.277 1.36175 1.48792 0
M  V30 5624 C 539.59 -0.0388195 1.95561 0
M  V30 5625 O 540.796 -0.194899 2.708 0
M  V30 5626 C 539.252 2.39242 2.68871 0
M  V30 5627 C 538.86 3.85024 2.29042 0
M  V30 5628 C 540.604 2.44972 3.46683 0
M  V30 5629 C 538.511 4.79727 3.45856 0
M  V30 5630 H 537.441 0.506267 0.558757 0
M  V30 5631 H 540.092 1.65181 0.799226 0
M  V30 5632 H 538.474 2.0331 3.39825 0
M  V30 5633 H 539.648 4.30008 1.6562 0
M  V30 5634 H 537.963 3.82609 1.64316 0
M  V30 5635 H 540.56 3.12918 4.33574 0
M  V30 5636 H 540.903 1.4749 3.89297 0
M  V30 5637 H 541.436 2.79808 2.82759 0
M  V30 5638 H 538.175 5.78479 3.08289 0
M  V30 5639 H 537.695 4.39421 4.08251 0
M  V30 5640 H 539.374 4.98731 4.12161 0
M  V30 5641 N 539.506 -0.963266 1.24736 0
M  V30 5642 C 540.453 -2.05857 1.04363 0
M  V30 5643 C 541.423 -1.6604 -0.0444951 0
M  V30 5644 O 542.608 -1.90477 0.110999 0
M  V30 5645 C 539.748 -3.38745 0.659235 0
M  V30 5646 C 538.861 -3.9173 1.82131 0
M  V30 5647 C 537.996 -5.12906 1.38208 0
M  V30 5648 C 537.035 -5.58098 2.51382 0
M  V30 5649 N 536.172 -6.7049 2.08295 0
M  V30 5650 H 541.012 -2.22616 1.98107 0
M  V30 5651 H 538.549 -1.09103 0.986661 0
M  V30 5652 H 540.507 -4.15107 0.417371 0
M  V30 5653 H 539.137 -3.21898 -0.241201 0
M  V30 5654 H 538.189 -3.11966 2.17672 0
M  V30 5655 H 539.501 -4.21225 2.67153 0
M  V30 5656 H 538.655 -5.96657 1.09935 0
M  V30 5657 H 537.394 -4.85105 0.502456 0
M  V30 5658 H 536.399 -4.72917 2.80409 0
M  V30 5659 H 537.624 -5.87911 3.39909 0
M  V30 5660 H 535.57 -6.44416 1.22737 0
M  V30 5661 H 535.487 -6.99458 2.86869 0
M  V30 5662 H 536.755 -7.57672 1.83175 0
M  V30 5663 N 540.985 -1.06182 -1.16461 0
M  V30 5664 C 541.933 -0.665716 -2.2287 0
M  V30 5665 C 542.927 0.317822 -1.66392 0
M  V30 5666 O 544.133 0.182807 -1.79069 0
M  V30 5667 H 540.508 -0.197148 -0.725697 0
M  V30 5668 H 542.479 -1.57307 -2.53569 0
M  V30 5669 C 541.228 -0.0669803 -3.47635 0
M  V30 5670 H 540.551 -0.814899 -3.91407 0
M  V30 5671 H 541.991 0.172669 -4.23648 0
M  V30 5672 C 540.45 1.18913 -3.15216 0
M  V30 5673 O 540.98 2.27723 -3.30916 0
M  V30 5674 N 539.186 1.09066 -2.69357 0
M  V30 5675 H 538.733 0.20518 -2.56782 0
M  V30 5676 H 538.691 1.93195 -2.48039 0
M  V30 5677 N 542.463 1.3308 -0.844243 0
M  V30 5678 C 543.373 2.32876 -0.283922 0
M  V30 5679 C 544.389 1.63589 0.592846 0
M  V30 5680 O 545.565 1.95205 0.495693 0
M  V30 5681 C 542.63 3.42667 0.527283 0
M  V30 5682 C 541.691 4.27664 -0.374394 0
M  V30 5683 C 540.924 5.32212 0.39819 0
M  V30 5684 O 541.147 5.46635 1.62932 0
M  V30 5685 O 540.081 6.01458 -0.2306 0
M  V30 5686 H 543.907 2.82671 -1.11045 0
M  V30 5687 H 541.492 1.36518 -0.606903 0
M  V30 5688 H 543.374 4.09652 0.988078 0
M  V30 5689 H 542.049 2.95079 1.33078 0
M  V30 5690 H 540.956 3.63526 -0.883144 0
M  V30 5691 H 542.289 4.78749 -1.1428 0
M  V30 5692 N 543.941 0.601185 1.45683 0
M  V30 5693 C 545.352 0.179659 1.85834 0
M  V30 5694 C 545.703 -1.26189 1.50236 0
M  V30 5695 O 544.828 -1.95587 0.925987 0
M  V30 5696 C 545.423 0.319277 3.37292 0
M  V30 5697 C 543.982 -0.0475092 3.7637 0
M  V30 5698 C 543.129 0.646692 2.69654 0
M  V30 5699 H 546.08 0.808268 1.36575 0
M  V30 5700 H 546.101 -0.4503 3.77826 0
M  V30 5701 H 545.613 1.36855 3.6317 0
M  V30 5702 H 543.714 -1.0962 3.5611 0
M  V30 5703 H 543.827 0.34168 4.7788 0
M  V30 5704 H 542.191 0.0849971 2.54558 0
M  V30 5705 H 542.974 1.69797 2.98369 0
M  V30 5706 N 545.419 -1.53889 0.339982 0
M  V30 5707 C 546.665 -2.01152 -0.258003 0
M  V30 5708 C 546.998 -1.22749 -1.50487 0
M  V30 5709 O 546.273 -0.314156 -1.91946 0
M  V30 5710 C 546.556 -3.55468 -0.575717 0
M  V30 5711 C 546.409 -4.44584 0.682996 0
M  V30 5712 C 547.728 -4.1768 -1.38677 0
M  V30 5713 H 544.847 -0.731198 -0.0922992 0
M  V30 5714 H 547.489 -1.84352 0.459814 0
M  V30 5715 H 545.639 -3.69914 -1.18725 0
M  V30 5716 H 547.311 -4.41981 1.32102 0
M  V30 5717 H 545.554 -4.13592 1.3086 0
M  V30 5718 H 546.225 -5.5043 0.416001 0
M  V30 5719 H 548.701 -4.0691 -0.869705 0
M  V30 5720 H 547.577 -5.25734 -1.57783 0
M  V30 5721 H 547.838 -3.72069 -2.38782 0
M  V30 5722 N 546.897 -0.0685191 -1.57451 0
M  V30 5723 C 548.143 0.602239 -1.93652 0
M  V30 5724 C 548.476 1.6946 -0.948526 0
M  V30 5725 O 547.751 1.94487 0.022782 0
M  V30 5726 C 548.034 1.18223 -3.4014 0
M  V30 5727 C 547.887 0.0967431 -4.49696 0
M  V30 5728 C 549.206 2.08872 -3.87377 0
M  V30 5729 H 546.325 0.217453 -0.70419 0
M  V30 5730 H 548.967 -0.133821 -1.89528 0
M  V30 5731 H 547.117 1.80953 -3.43785 0
M  V30 5732 H 548.789 -0.536155 -4.58174 0
M  V30 5733 H 547.032 -0.573063 -4.29998 0
M  V30 5734 H 547.703 0.542894 -5.49324 0
M  V30 5735 H 550.179 1.56081 -3.85717 0
M  V30 5736 H 549.055 2.46389 -4.90493 0
M  V30 5737 H 549.316 2.99572 -3.25129 0
M  V30 5738 N 548.375 1.56261 0.205012 0
M  V30 5739 C 549.622 1.8004 0.926927 0
M  V30 5740 C 549.95 0.640086 1.83666 0
M  V30 5741 O 549.205 -0.374702 1.92079 0
M  V30 5742 C 549.504 3.09722 1.78345 0
M  V30 5743 C 549.17 4.39082 1.02555 0
M  V30 5744 C 547.832 4.74226 0.816256 0
M  V30 5745 C 550.184 5.18877 0.491559 0
M  V30 5746 C 547.512 5.86668 0.0613287 0
M  V30 5747 C 549.864 6.32105 -0.250107 0
M  V30 5748 C 548.528 6.6584 -0.470508 0
M  V30 5749 H 547.798 0.658812 0.339187 0
M  V30 5750 H 550.445 1.90515 0.19395 0
M  V30 5751 H 548.75 2.9444 2.5848 0
M  V30 5752 H 550.447 3.25324 2.34446 0
M  V30 5753 H 547.037 4.11497 1.19868 0
M  V30 5754 H 551.221 4.92147 0.640684 0
M  V30 5755 H 546.477 6.11283 -0.119501 0
M  V30 5756 H 550.651 6.93157 -0.671307 0
M  V30 5757 H 548.278 7.5281 -1.05739 0
M  V30 5758 N 549.853 -0.472356 1.50355 0
M  V30 5759 C 551.264 -1.05326 1.54154 0
M  V30 5760 C 551.615 -1.93155 0.344303 0
M  V30 5761 O 550.74 -2.09479 -0.542928 0
M  V30 5762 C 551.335 -1.91691 2.79356 0
M  V30 5763 C 549.894 -2.44892 2.8584 0
M  V30 5764 C 549.041 -1.23205 2.48426 0
M  V30 5765 H 551.992 -0.255027 1.56637 0
M  V30 5766 H 552.013 -2.76742 2.6114 0
M  V30 5767 H 551.525 -1.27741 3.66475 0
M  V30 5768 H 549.626 -3.12399 2.0307 0
M  V30 5769 H 549.739 -2.80086 3.88701 0
M  V30 5770 H 548.103 -1.56643 2.00836 0
M  V30 5771 H 548.886 -0.609194 3.37852 0
M  V30 5772 N 551.331 -1.39911 -0.725443 0
M  V30 5773 C 552.241 -1.41688 -1.8698 0
M  V30 5774 C 553.257 -0.310579 -1.71206 0
M  V30 5775 O 554.433 -0.55359 -1.93642 0
M  V30 5776 C 551.498 -1.26811 -3.22676 0
M  V30 5777 C 550.559 -2.47497 -3.50776 0
M  V30 5778 C 549.792 -2.3332 -4.79997 0
M  V30 5779 O 550.015 -1.34175 -5.54394 0
M  V30 5780 O 548.949 -3.22498 -5.08211 0
M  V30 5781 H 552.775 -2.38171 -1.88436 0
M  V30 5782 H 550.36 -1.21128 -0.874548 0
M  V30 5783 H 552.242 -1.20684 -4.03749 0
M  V30 5784 H 550.917 -0.334289 -3.21969 0
M  V30 5785 H 549.824 -2.59201 -2.69751 0
M  V30 5786 H 551.157 -3.39606 -3.5627 0
M  V30 5787 N 552.809 0.956637 -1.25245 0
M  V30 5788 C 553.719 2.0868 -1.0719 0
M  V30 5789 C 554.735 1.73997 -0.00959074 0
M  V30 5790 O 555.911 2.00301 -0.210104 0
M  V30 5791 C 552.976 3.39754 -0.690526 0
M  V30 5792 C 552.037 3.88316 -1.83055 0
M  V30 5793 C 551.27 5.13134 -1.46728 0
M  V30 5794 O 551.493 5.6925 -0.362029 0
M  V30 5795 O 550.427 5.56356 -2.29677 0
M  V30 5796 H 554.253 2.26813 -2.01965 0
M  V30 5797 H 551.838 1.07098 -1.04165 0
M  V30 5798 H 553.72 4.18543 -0.489871 0
M  V30 5799 H 552.395 3.22896 0.227981 0
M  V30 5800 H 551.302 3.1054 -2.08604 0
M  V30 5801 H 552.635 4.09669 -2.72822 0
M  V30 5802 N 554.287 1.06798 1.15896 0
M  V30 5803 C 555.698 0.811355 1.68149 0
M  V30 5804 C 556.049 -0.664339 1.8461 0
M  V30 5805 O 555.174 -1.51485 1.54535 0
M  V30 5806 C 555.769 1.46624 3.05429 0
M  V30 5807 C 554.328 1.25726 3.54781 0
M  V30 5808 C 553.475 1.53949 2.3064 0
M  V30 5809 H 556.426 1.23078 1.00187 0
M  V30 5810 H 556.447 0.88437 3.7008 0
M  V30 5811 H 555.959 2.54025 2.93416 0
M  V30 5812 H 554.06 0.20322 3.72045 0
M  V30 5813 H 554.173 1.97354 4.36564 0
M  V30 5814 H 552.537 0.96025 2.35905 0
M  V30 5815 H 553.32 2.6252 2.2122 0
M  V30 5816 N 555.766 -1.3263 0.851289 0
M  V30 5817 C 556.676 -2.32722 0.296268 0
M  V30 5818 C 557.692 -1.63901 -0.584162 0
M  V30 5819 O 558.868 -1.95465 -0.485334 0
M  V30 5820 C 555.933 -3.42942 -0.509103 0
M  V30 5821 C 554.994 -4.2746 0.397069 0
M  V30 5822 C 554.227 -5.32416 -0.36996 0
M  V30 5823 O 554.45 -5.47491 -1.6003 0
M  V30 5824 O 553.384 -6.01327 0.262493 0
M  V30 5825 H 557.21 -2.82078 1.12543 0
M  V30 5826 H 554.795 -1.36194 0.614135 0
M  V30 5827 H 556.677 -4.1017 -0.96634 0
M  V30 5828 H 555.352 -2.95781 -1.31512 0
M  V30 5829 H 554.259 -3.63053 0.902411 0
M  V30 5830 H 555.592 -4.78136 1.16818 0
M  V30 5831 N 557.244 -0.608902 -1.45362 0
M  V30 5832 C 558.493 -0.10218 -2.01441 0
M  V30 5833 C 558.806 1.27546 -1.48295 0
M  V30 5834 O 560.012 1.87498 -1.96359 0
M  V30 5835 C 558.468 -0.131985 -3.59658 0
M  V30 5836 C 558.076 -1.50956 -4.21801 0
M  V30 5837 C 559.82 0.319427 -4.23296 0
M  V30 5838 C 557.727 -1.49568 -5.72174 0
M  V30 5839 H 556.657 -0.0344314 -0.753213 0
M  V30 5840 H 559.308 -0.764426 -1.6682 0
M  V30 5841 H 557.69 0.596939 -3.91475 0
M  V30 5842 H 558.864 -2.26029 -4.01556 0
M  V30 5843 H 557.179 -1.90318 -3.70362 0
M  V30 5844 H 559.776 0.349013 -5.3356 0
M  V30 5845 H 560.119 1.34237 -3.94064 0
M  V30 5846 H 560.652 -0.356273 -3.96201 0
M  V30 5847 H 557.391 -2.49626 -6.06108 0
M  V30 5848 H 556.911 -0.787542 -5.94607 0
M  V30 5849 H 558.59 -1.21989 -6.35396 0
M  V30 5850 N 558.722 1.53707 -0.348139 0
M  V30 5851 C 559.947 2.05877 0.250883 0
M  V30 5852 C 560.372 1.22115 1.43072 0
M  V30 5853 O 559.73 0.235986 1.79758 0
M  V30 5854 C 559.778 3.54886 0.639416 0
M  V30 5855 O 558.882 3.73948 1.73888 0
M  V30 5856 H 558.223 0.662754 0.040653 0
M  V30 5857 H 560.753 1.98303 -0.503685 0
M  V30 5858 H 560.763 3.97601 0.915295 0
M  V30 5859 H 559.438 4.153 -0.223386 0
M  V30 5860 H 558.015 3.43134 1.45991 0
M  V30 5861 N 560.2 0.0768682 1.57412 0
M  V30 5862 C 561.11 -0.903207 2.16516 0
M  V30 5863 C 562.126 -1.32341 1.12968 0
M  V30 5864 O 563.302 -1.39507 1.45258 0
M  V30 5865 C 560.367 -2.1508 2.71922 0
M  V30 5866 C 559.428 -1.78653 3.90361 0
M  V30 5867 C 558.661 -2.97465 4.43114 0
M  V30 5868 O 558.884 -4.11638 3.94854 0
M  V30 5869 O 557.818 -2.76987 5.3438 0
M  V30 5870 H 561.644 -0.430427 3.00634 0
M  V30 5871 H 559.229 -0.146485 1.4868 0
M  V30 5872 H 561.111 -2.8823 3.07411 0
M  V30 5873 H 559.786 -2.61446 1.9086 0
M  V30 5874 H 558.693 -1.0274 3.59716 0
M  V30 5875 H 560.026 -1.37066 4.7273 0
M  V30 5876 N 561.678 -1.56367 -0.196722 0
M  V30 5877 C 562.588 -1.97617 -1.2643 0
M  V30 5878 C 563.604 -0.883598 -1.49895 0
M  V30 5879 O 564.78 -1.18921 -1.62541 0
M  V30 5880 C 561.845 -2.30595 -2.58895 0
M  V30 5881 C 560.906 -3.53551 -2.43516 0
M  V30 5882 C 560.139 -3.84946 -3.69665 0
M  V30 5883 O 560.362 -3.17655 -4.73763 0
M  V30 5884 O 559.296 -4.78379 -3.65291 0
M  V30 5885 H 563.122 -2.88648 -0.944233 0
M  V30 5886 H 560.707 -1.43901 -0.401592 0
M  V30 5887 H 562.589 -2.52889 -3.37083 0
M  V30 5888 H 561.264 -1.42732 -2.90533 0
M  V30 5889 H 560.171 -3.36507 -1.63445 0
M  V30 5890 H 561.504 -4.41875 -2.16812 0
M  V30 5891 N 563.156 0.464375 -1.50603 0
M  V30 5892 C 564.086 1.56944 -1.72889 0
M  V30 5893 C 565.067 1.59979 -0.577997 0
M  V30 5894 O 566.252 1.76138 -0.817855 0
M  V30 5895 C 563.382 2.95225 -1.8292 0
M  V30 5896 C 562.336 3.07056 -2.98162 0
M  V30 5897 C 561.662 4.47051 -2.93343 0
M  V30 5898 C 562.962 2.83648 -4.38567 0
M  V30 5899 H 564.656 1.38547 -2.65415 0
M  V30 5900 H 562.202 0.665082 -1.27721 0
M  V30 5901 H 564.155 3.72467 -1.97095 0
M  V30 5902 H 562.879 3.14793 -0.870209 0
M  V30 5903 H 561.538 2.32248 -2.83648 0
M  V30 5904 H 561.186 4.63547 -1.95276 0
M  V30 5905 H 560.886 4.55902 -3.70712 0
M  V30 5906 H 562.41 5.26304 -3.09575 0
M  V30 5907 H 563.824 3.50636 -4.53572 0
M  V30 5908 H 562.221 3.03937 -5.17438 0
M  V30 5909 H 563.291 1.79451 -4.50472 0
M  V30 5910 N 564.634 1.40294 0.718013 0
M  V30 5911 C 565.581 1.40367 1.8321 0
M  V30 5912 C 566.551 0.260952 1.64037 0
M  V30 5913 O 567.736 0.458648 1.85205 0
M  V30 5914 C 564.876 1.26965 3.20895 0
M  V30 5915 C 563.989 2.50922 3.51656 0
M  V30 5916 C 563.124 2.29981 4.78834 0
M  V30 5917 C 562.163 3.49527 5.02491 0
M  V30 5918 N 561.3 3.27796 6.20882 0
M  V30 5919 H 566.14 2.35593 1.82482 0
M  V30 5920 H 563.677 1.17012 0.891444 0
M  V30 5921 H 565.635 1.17202 4.00399 0
M  V30 5922 H 564.265 0.353591 3.20858 0
M  V30 5923 H 563.317 2.71223 2.66725 0
M  V30 5924 H 564.629 3.39913 3.65048 0
M  V30 5925 H 563.783 2.17558 5.66351 0
M  V30 5926 H 562.522 1.38411 4.67647 0
M  V30 5927 H 561.527 3.6243 4.1343 0
M  V30 5928 H 562.752 4.42021 5.15553 0
M  V30 5929 H 560.698 2.38906 6.1095 0
M  V30 5930 H 560.615 4.10351 6.34939 0
M  V30 5931 H 561.883 3.19101 7.11193 0
M  V30 5932 N 566.112 -0.949982 1.2575 0
M  V30 5933 C 567.389 -1.6718 1.01539 0
M  V30 5934 C 567.769 -2.06095 -0.456942 0
M  V30 5935 O 567.117 -1.77792 -1.43534 0
M  V30 5936 C 567.327 -2.8906 1.95564 0
M  V30 5937 C 568.675 -3.60909 2.23673 0
M  V30 5938 O 569.699 -2.9915 1.9336 0
M  V30 5939 O 568.558 -4.72127 2.75243 0
M  V30 5940 H 565.652 -0.731697 0.385419 0
M  V30 5941 H 568.198 -1.00249 1.36924 0
M  V30 5942 H 566.97 -2.57128 2.94959 0
M  V30 5943 H 566.593 -3.63719 1.60605 0
M  V30 5944 N 567.59 -1.07411 -1.15328 0
M  V30 5945 C 568.52 -0.716472 -2.22236 0
M  V30 5946 C 569.501 0.296373 -1.67498 0
M  V30 5947 O 570.686 0.168989 -1.93463 0
M  V30 5948 C 567.816 -0.114142 -3.47112 0
M  V30 5949 C 566.77 -1.05421 -4.14814 0
M  V30 5950 C 566.096 -0.314604 -5.33774 0
M  V30 5951 C 567.396 -2.38808 -4.64508 0
M  V30 5952 H 569.09 -1.61029 -2.52408 0
M  V30 5953 H 566.636 -0.775702 -1.21321 0
M  V30 5954 H 568.589 0.148001 -4.2114 0
M  V30 5955 H 567.313 0.814755 -3.16274 0
M  V30 5956 H 565.972 -1.30128 -3.42728 0
M  V30 5957 H 565.62 0.617772 -4.99192 0
M  V30 5958 H 565.32 -0.941209 -5.80013 0
M  V30 5959 H 566.844 -0.0602747 -6.1057 0
M  V30 5960 H 568.258 -2.18424 -5.3006 0
M  V30 5961 H 566.655 -2.97069 -5.21412 0
M  V30 5962 H 567.725 -3.01067 -3.80114 0
M  V30 5963 N 569.068 1.32177 -0.85831 0
M  V30 5964 C 570.317 1.96392 -0.459689 0
M  V30 5965 C 570.63 1.68659 0.990632 0
M  V30 5966 O 571.836 2.26641 1.49485 0
M  V30 5967 C 570.292 3.51542 -0.7711 0
M  V30 5968 C 569.9 3.8813 -2.2374 0
M  V30 5969 C 571.644 4.2221 -0.44038 0
M  V30 5970 C 569.551 5.36341 -2.49183 0
M  V30 5971 H 568.481 0.735007 -0.168169 0
M  V30 5972 H 571.132 1.50518 -1.0496 0
M  V30 5973 H 569.514 3.95846 -0.11058 0
M  V30 5974 H 570.688 3.54824 -2.94001 0
M  V30 5975 H 569.003 3.30497 -2.533 0
M  V30 5976 H 571.6 5.31234 -0.607855 0
M  V30 5977 H 571.943 4.11683 0.618291 0
M  V30 5978 H 572.476 3.83502 -1.05695 0
M  V30 5979 H 569.215 5.51892 -3.53689 0
M  V30 5980 H 568.735 5.7104 -1.83504 0
M  V30 5981 H 570.414 6.03466 -2.33318 0
M  V30 5982 N 570.547 0.616602 1.45037 0
M  V30 5983 C 571.477 -0.0840787 2.33349 0
M  V30 5984 C 572.458 -0.849641 1.4736 0
M  V30 5985 O 573.643 -0.818407 1.76113 0
M  V30 5986 C 570.773 -1.07604 3.3021 0
M  V30 5987 C 569.727 -0.423096 4.25904 0
M  V30 5988 C 569.053 -1.52394 5.12523 0
M  V30 5989 C 570.353 0.661457 5.18095 0
M  V30 5990 H 572.047 0.653333 2.92185 0
M  V30 5991 H 569.593 0.315634 1.40498 0
M  V30 5992 H 571.546 -1.57485 3.90866 0
M  V30 5993 H 570.27 -1.84416 2.69552 0
M  V30 5994 H 568.929 0.05493 3.66559 0
M  V30 5995 H 568.577 -2.28257 4.48227 0
M  V30 5996 H 568.277 -1.09251 5.77354 0
M  V30 5997 H 569.801 -2.02485 5.76049 0
M  V30 5998 H 571.215 0.246353 5.7277 0
M  V30 5999 H 569.612 1.01517 5.91451 0
M  V30 6000 H 570.682 1.53446 4.59981 0
M  V30 6001 N 572.025 -1.5352 0.356285 0
M  V30 6002 C 572.972 -2.25439 -0.494569 0
M  V30 6003 C 573.942 -1.25752 -1.08516 0
M  V30 6004 O 575.127 -1.54513 -1.1194 0
M  V30 6005 C 572.267 -3.04011 -1.63313 0
M  V30 6006 C 571.38 -4.18574 -1.06862 0
M  V30 6007 C 570.515 -4.84607 -2.17552 0
M  V30 6008 C 569.554 -5.91218 -1.58518 0
M  V30 6009 N 568.691 -6.50979 -2.63003 0
M  V30 6010 H 573.531 -2.97737 0.125244 0
M  V30 6011 H 571.068 -1.46916 0.0735789 0
M  V30 6012 H 573.026 -3.47834 -2.30363 0
M  V30 6013 H 571.656 -2.33986 -2.22374 0
M  V30 6014 H 570.708 -3.79303 -0.288672 0
M  V30 6015 H 572.02 -4.95215 -0.596924 0
M  V30 6016 H 571.174 -5.31566 -2.92442 0
M  V30 6017 H 569.913 -4.07418 -2.6807 0
M  V30 6018 H 568.918 -5.4363 -0.821391 0
M  V30 6019 H 570.143 -6.70322 -1.08836 0
M  V30 6020 H 568.089 -5.76648 -3.12751 0
M  V30 6021 H 568.006 -7.23131 -2.20493 0
M  V30 6022 H 569.274 -7.02589 -3.37623 0
M  V30 6023 N 573.503 -0.0852151 -1.57369 0
M  V30 6024 C 574.436 0.913608 -2.09113 0
M  V30 6025 C 575.414 1.28264 -0.999358 0
M  V30 6026 O 576.598 1.3896 -1.27367 0
M  V30 6027 C 573.725 2.21777 -2.55993 0
M  V30 6028 C 572.771 1.99932 -3.76735 0
M  V30 6029 S 573.604 1.24637 -5.20794 0
M  V30 6030 C 574.76 2.56304 -5.71016 0
M  V30 6031 H 574.993 0.473369 -2.93507 0
M  V30 6032 H 572.526 0.127856 -1.5387 0
M  V30 6033 H 574.484 2.96726 -2.83662 0
M  V30 6034 H 573.145 2.62923 -1.71843 0
M  V30 6035 H 572.338 2.96482 -4.07571 0
M  V30 6036 H 571.94 1.33116 -3.49509 0
M  V30 6037 H 574.232 3.5233 -5.78679 0
M  V30 6038 H 575.175 2.3006 -6.69685 0
M  V30 6039 H 575.583 2.64125 -4.98897 0
M  V30 6040 N 574.981 1.5647 0.188427 0
M  V30 6041 C 575.911 1.98101 1.23606 0
M  V30 6042 C 576.892 0.853961 1.47111 0
M  V30 6043 O 578.077 1.11879 1.58735 0
M  V30 6044 C 575.207 2.32624 2.57882 0
M  V30 6045 C 574.161 3.48129 2.48978 0
M  V30 6046 C 573.487 3.68347 3.87588 0
M  V30 6047 C 574.787 4.82112 2.00911 0
M  V30 6048 H 576.481 2.85864 0.890068 0
M  V30 6049 H 574.027 1.37532 0.426714 0
M  V30 6050 H 575.98 2.60343 3.3136 0
M  V30 6051 H 574.704 1.41751 2.94235 0
M  V30 6052 H 573.363 3.20511 1.77956 0
M  V30 6053 H 573.011 2.74793 4.21305 0
M  V30 6054 H 572.711 4.46055 3.82503 0
M  V30 6055 H 574.235 3.98449 4.62678 0
M  V30 6056 H 575.649 5.08819 2.64151 0
M  V30 6057 H 574.046 5.63337 2.06814 0
M  V30 6058 H 575.116 4.75249 0.96262 0
M  V30 6059 N 576.459 -0.456382 1.50847 0
M  V30 6060 C 577.736 -1.21739 1.53098 0
M  V30 6061 C 578.116 -2.09179 0.284132 0
M  V30 6062 O 577.464 -2.16466 -0.731773 0
M  V30 6063 C 577.674 -2.03573 2.83477 0
M  V30 6064 C 579.022 -2.61264 3.34703 0
M  V30 6065 O 580.046 -2.13802 2.84898 0
M  V30 6066 O 578.905 -3.47779 4.21559 0
M  V30 6067 H 575.999 -0.553219 0.614718 0
M  V30 6068 H 578.545 -0.467003 1.63148 0
M  V30 6069 H 577.317 -1.39232 3.65691 0
M  V30 6070 H 576.94 -2.85716 2.76499 0
M  V30 6071 N 577.937 -1.40673 -0.710563 0
M  V30 6072 C 578.884 -1.41336 -1.82463 0
M  V30 6073 C 579.854 -0.269648 -1.63897 0
M  V30 6074 O 581.039 -0.468463 -1.8496 0
M  V30 6075 C 578.179 -1.28665 -3.20218 0
M  V30 6076 C 577.292 -2.52784 -3.5032 0
M  V30 6077 C 576.427 -2.32517 -4.77608 0
M  V30 6078 C 575.466 -3.52187 -5.0063 0
M  V30 6079 N 574.603 -3.31084 -6.19135 0
M  V30 6080 H 579.443 -2.36558 -1.8123 0
M  V30 6081 H 576.98 -1.17483 -0.885226 0
M  V30 6082 H 578.938 -1.19324 -3.99772 0
M  V30 6083 H 577.568 -0.370602 -3.20666 0
M  V30 6084 H 576.62 -2.72634 -2.65283 0
M  V30 6085 H 577.932 -3.41845 -3.63241 0
M  V30 6086 H 577.086 -2.20558 -5.65189 0
M  V30 6087 H 575.825 -1.40889 -4.66906 0
M  V30 6088 H 574.83 -3.64617 -4.11502 0
M  V30 6089 H 576.055 -4.44749 -5.13201 0
M  V30 6090 H 574.001 -2.42143 -6.09674 0
M  V30 6091 H 573.918 -4.13713 -6.32754 0
M  V30 6092 H 575.186 -3.22868 -7.0949 0
M  V30 6093 N 579.415 0.9433 -1.26252 0
M  V30 6094 C 580.363 2.06302 -1.07434 0
M  V30 6095 C 581.357 1.694 -0.00189471 0
M  V30 6096 O 582.563 1.79302 -0.158408 0
M  V30 6097 H 578.938 0.675453 -0.330556 0
M  V30 6098 H 580.909 2.19326 -2.02333 0
M  V30 6099 C 579.658 3.40125 -0.721817 0
M  V30 6100 H 578.981 3.68996 -1.5389 0
M  V30 6101 H 580.421 4.19295 -0.629922 0
M  V30 6102 C 578.88 3.31993 0.572902 0
M  V30 6103 O 579.41 3.67945 1.61182 0
M  V30 6104 N 577.616 2.85099 0.562748 0
M  V30 6105 H 577.163 2.5604 -0.283092 0
M  V30 6106 H 577.121 2.80041 1.42915 0
M  V30 6107 N 580.893 1.08022 1.14757 0
M  V30 6108 C 582.304 0.829144 1.67279 0
M  V30 6109 C 582.655 -0.644721 1.85305 0
M  V30 6110 O 581.78 -1.49838 1.56133 0
M  V30 6111 C 582.375 1.49855 3.03857 0
M  V30 6112 C 580.934 1.29482 3.53428 0
M  V30 6113 C 580.081 1.56386 2.28995 0
M  V30 6114 H 583.032 1.24134 0.988762 0
M  V30 6115 H 583.053 0.923572 3.69121 0
M  V30 6116 H 582.565 2.57123 2.90705 0
M  V30 6117 H 580.666 0.242669 3.71809 0
M  V30 6118 H 580.779 2.01974 4.34446 0
M  V30 6119 H 579.143 0.985217 2.34874 0
M  V30 6120 H 579.926 2.64851 2.18423 0
M  V30 6121 N 582.371 -1.3172 0.865308 0
M  V30 6122 C 583.281 -2.32394 0.320935 0
M  V30 6123 C 584.297 -1.64511 -0.566746 0
M  V30 6124 O 585.473 -1.95969 -0.464575 0
M  V30 6125 C 582.538 -3.43462 -0.472701 0
M  V30 6126 C 581.599 -4.27015 0.442385 0
M  V30 6127 C 580.832 -5.32779 -0.313469 0
M  V30 6128 O 581.055 -5.49158 -1.54214 0
M  V30 6129 O 579.989 -6.01015 0.326257 0
M  V30 6130 H 583.815 -2.80868 1.15528 0
M  V30 6131 H 581.4 -1.35535 0.628545 0
M  V30 6132 H 583.282 -4.11172 -0.922781 0
M  V30 6133 H 581.957 -2.97159 -1.28367 0
M  V30 6134 H 580.864 -3.62075 0.940866 0
M  V30 6135 H 582.197 -4.76871 1.21882 0
M  V30 6136 N 583.85 -0.624285 -1.44708 0
M  V30 6137 C 585.077 -0.132919 -2.06473 0
M  V30 6138 C 585.493 1.18967 -1.46602 0
M  V30 6139 O 584.85 1.72824 -0.586341 0
M  V30 6140 C 584.901 -0.00465418 -3.615 0
M  V30 6141 O 584.622 -1.27494 -4.19138 0
M  V30 6142 C 586.123 0.516213 -4.40284 0
M  V30 6143 H 583.343 -0.0765201 -0.666623 0
M  V30 6144 H 585.887 -0.856751 -1.85688 0
M  V30 6145 H 584.042 0.669583 -3.8157 0
M  V30 6146 H 584.456 -1.11536 -5.12504 0
M  V30 6147 H 585.93 0.554994 -5.49203 0
M  V30 6148 H 586.407 1.5419 -4.11245 0
M  V30 6149 H 587.013 -0.124542 -4.25118 0
M  V30 6150 N 585.328 1.53329 -0.364422 0
M  V30 6151 C 586.744 1.59594 -0.0133165 0
M  V30 6152 C 586.944 1.37959 1.46865 0
M  V30 6153 O 586 1.18418 2.2301 0
M  V30 6154 C 587.313 2.97032 -0.468213 0
M  V30 6155 C 588.861 3.10138 -0.422334 0
M  V30 6156 C 589.336 4.49986 -0.853024 0
M  V30 6157 N 590.827 4.56098 -0.808037 0
M  V30 6158 C 591.562 5.62495 -1.11299 0
M  V30 6159 N 591.058 6.7665 -1.48717 0
M  V30 6160 N 592.851 5.52473 -1.03586 0
M  V30 6161 H 585.002 1.65644 -1.32951 0
M  V30 6162 H 587.265 0.77684 -0.543345 0
M  V30 6163 H 586.971 3.18 -1.5023 0
M  V30 6164 H 586.845 3.76918 0.145775 0
M  V30 6165 H 589.232 2.88881 0.602622 0
M  V30 6166 H 589.313 2.32263 -1.0718 0
M  V30 6167 H 588.957 4.7198 -1.87609 0
M  V30 6168 H 588.887 5.26289 -0.180819 0
M  V30 6169 H 591.378 3.74131 -0.532361 0
M  V30 6170 H 591.691 7.53776 -1.70415 0
M  V30 6171 H 590.036 6.78044 -1.52581 0
M  V30 6172 H 593.227 4.6217 -0.742736 0
M  V30 6173 H 593.4 6.35295 -1.27686 0
M  V30 6174 N 586.806 0.0935595 1.57322 0
M  V30 6175 C 588.055 -0.570191 1.93473 0
M  V30 6176 C 588.368 -1.69434 0.977318 0
M  V30 6177 O 589.574 -2.41914 1.23248 0
M  V30 6178 C 588.03 -1.06564 3.43762 0
M  V30 6179 C 587.638 0.0286723 4.47991 0
M  V30 6180 C 589.382 -1.70221 3.88877 0
M  V30 6181 C 587.289 -0.482046 5.89432 0
M  V30 6182 H 586.219 -0.216764 0.72217 0
M  V30 6183 H 588.87 0.169313 1.82717 0
M  V30 6184 H 587.252 -1.85878 3.49664 0
M  V30 6185 H 588.426 0.804106 4.5373 0
M  V30 6186 H 586.741 0.570336 4.12476 0
M  V30 6187 H 589.338 -2.09502 4.91948 0
M  V30 6188 H 589.681 -2.57078 3.27439 0
M  V30 6189 H 590.214 -0.974919 3.85668 0
M  V30 6190 H 586.953 0.349871 6.54566 0
M  V30 6191 H 586.473 -1.22452 5.87167 0
M  V30 6192 H 588.152 -0.951508 6.39965 0
M  V30 6193 N 588.284 -1.56567 -0.180126 0
M  V30 6194 C 589.532 -1.81133 -0.896392 0
M  V30 6195 C 589.853 -0.669114 -1.83161 0
M  V30 6196 O 589.123 0.311616 -1.93406 0
M  V30 6197 H 587.703 -0.668172 -0.333999 0
M  V30 6198 H 590.365 -1.94048 -0.182051 0
M  V30 6199 H 589.461 -2.74854 -1.47857 0
M  V30 6200 N 589.762 0.448376 -1.51087 0
M  V30 6201 C 591.008 1.20049 -1.6345 0
M  V30 6202 C 591.341 1.91121 -0.344444 0
M  V30 6203 O 590.616 1.83125 0.655396 0
M  V30 6204 C 590.899 2.22624 -2.83038 0
M  V30 6205 C 590.752 1.55708 -4.21989 0
M  V30 6206 C 592.071 3.23718 -2.98152 0
M  V30 6207 H 589.19 0.435085 -0.59487 0
M  V30 6208 H 591.832 0.491183 -1.83541 0
M  V30 6209 H 589.982 2.83117 -2.66039 0
M  V30 6210 H 591.654 0.986367 -4.50631 0
M  V30 6211 H 589.897 0.859647 -4.25197 0
M  V30 6212 H 590.568 2.30357 -5.01637 0
M  V30 6213 H 593.044 2.73269 -3.13788 0
M  V30 6214 H 591.92 3.92795 -3.83411 0
M  V30 6215 H 592.181 3.89179 -2.09743 0
M  V30 6216 N 591.24 1.41047 0.703093 0
M  V30 6217 C 592.651 1.35657 1.28274 0
M  V30 6218 C 593.002 0.0360309 1.96167 0
M  V30 6219 O 592.127 -0.865833 1.98324 0
M  V30 6220 C 592.722 2.45707 2.33267 0
M  V30 6221 C 591.281 2.43738 2.86825 0
M  V30 6222 C 590.428 2.25941 1.60767 0
M  V30 6223 H 593.379 1.50672 0.49836 0
M  V30 6224 H 593.4 2.14333 3.14391 0
M  V30 6225 H 592.912 3.41805 1.83824 0
M  V30 6226 H 591.013 1.51375 3.40465 0
M  V30 6227 H 591.126 3.39779 3.37768 0
M  V30 6228 H 589.49 1.73681 1.86298 0
M  V30 6229 H 590.273 3.24054 1.1333 0
M  V30 6230 N 592.718 -0.936591 1.26751 0
M  V30 6231 C 593.995 -1.66094 1.03306 0
M  V30 6232 C 594.375 -2.06568 -0.435058 0
M  V30 6233 O 593.723 -1.79305 -1.41641 0
M  V30 6234 C 593.933 -2.86969 1.98619 0
M  V30 6235 C 595.281 -3.58516 2.27489 0
M  V30 6236 O 596.305 -2.97082 1.96522 0
M  V30 6237 O 595.164 -4.69181 2.80235 0
M  V30 6238 H 592.258 -0.727568 0.393158 0
M  V30 6239 H 594.804 -0.987914 1.3798 0
M  V30 6240 H 593.576 -2.53985 2.9767 0
M  V30 6241 H 593.199 -3.61996 1.64454 0
M  V30 6242 N 594.196 -1.08629 -1.14182 0
M  V30 6243 C 595.445 -0.812271 -1.84621 0
M  V30 6244 C 595.758 0.664313 -1.83973 0
M  V30 6245 O 596.964 1.05357 -2.50224 0
M  V30 6246 C 595.42 -1.4031 -3.31423 0
M  V30 6247 C 595.028 -2.91164 -3.40481 0
M  V30 6248 C 596.772 -1.20767 -4.06959 0
M  V30 6249 C 594.679 -3.43373 -4.81507 0
M  V30 6250 H 593.609 -0.30019 -0.691666 0
M  V30 6251 H 596.26 -1.30798 -1.28701 0
M  V30 6252 H 594.642 -0.835096 -3.87094 0
M  V30 6253 H 595.816 -3.5412 -2.94848 0
M  V30 6254 H 594.131 -3.09646 -2.78403 0
M  V30 6255 H 596.728 -1.57237 -5.11058 0
M  V30 6256 H 597.071 -0.147664 -4.16038 0
M  V30 6257 H 597.604 -1.74274 -3.57594 0
M  V30 6258 H 594.343 -4.48958 -4.77616 0
M  V30 6259 H 593.863 -2.85176 -5.27669 0
M  V30 6260 H 595.542 -3.40095 -5.50404 0
M  V30 6261 N 595.674 1.31259 -0.872281 0
M  V30 6262 C 596.621 2.28459 -0.327857 0
M  V30 6263 C 597.591 1.55831 0.574957 0
M  V30 6264 O 598.776 1.83965 0.506101 0
M  V30 6265 C 595.916 3.41985 0.462644 0
M  V30 6266 C 595.029 4.29458 -0.467949 0
M  V30 6267 C 594.164 5.30131 0.336903 0
M  V30 6268 C 593.203 6.0925 -0.58997 0
M  V30 6269 N 592.34 7.01872 0.178775 0
M  V30 6270 H 597.18 2.74414 -1.16193 0
M  V30 6271 H 594.717 1.34994 -0.584376 0
M  V30 6272 H 596.675 4.06547 0.936759 0
M  V30 6273 H 595.305 2.97134 1.2614 0
M  V30 6274 H 594.357 3.65318 -1.06052 0
M  V30 6275 H 595.669 4.84677 -1.17856 0
M  V30 6276 H 594.823 6.0038 0.873427 0
M  V30 6277 H 593.562 4.75573 1.08079 0
M  V30 6278 H 592.567 5.37889 -1.13823 0
M  V30 6279 H 593.792 6.65894 -1.33275 0
M  V30 6280 H 591.738 6.49721 0.905435 0
M  V30 6281 H 591.655 7.54522 -0.472452 0
M  V30 6282 H 592.923 7.76382 0.696454 0
M  V30 6283 N 597.152 0.631951 1.44375 0
M  V30 6284 C 598.082 -0.0593243 2.33425 0
M  V30 6285 C 599.063 -0.833964 1.48253 0
M  V30 6286 O 600.248 -0.799682 1.76971 0
M  V30 6287 C 597.378 -1.04096 3.31333 0
M  V30 6288 C 596.332 -0.377899 4.26328 0
M  V30 6289 C 595.658 -1.4695 5.14111 0
M  V30 6290 C 596.958 0.716371 5.17364 0
M  V30 6291 H 598.652 0.684287 2.91475 0
M  V30 6292 H 596.198 0.330518 1.40156 0
M  V30 6293 H 598.151 -1.53331 3.92514 0
M  V30 6294 H 596.875 -1.81547 2.71493 0
M  V30 6295 H 595.534 0.0938054 3.6648 0
M  V30 6296 H 595.182 -2.2349 4.50623 0
M  V30 6297 H 594.882 -1.03121 5.78481 0
M  V30 6298 H 596.406 -1.96363 5.78164 0
M  V30 6299 H 597.82 0.307089 5.72477 0
M  V30 6300 H 596.217 1.07784 5.90341 0
M  V30 6301 H 597.287 1.58316 4.58327 0
M  V30 6302 N 598.631 -1.53133 0.372548 0
M  V30 6303 C 599.581 -2.22733 -0.487218 0
M  V30 6304 C 600.565 -1.22506 -1.04312 0
M  V30 6305 O 601.757 -1.47923 -0.972005 0
M  V30 6306 C 598.886 -3.02524 -1.62278 0
M  V30 6307 C 597.972 -4.10133 -1.07943 0
M  V30 6308 N 598.363 -5.05133 -0.259629 0
M  V30 6309 C 596.661 -4.24964 -1.35356 0
M  V30 6310 C 597.362 -5.81687 0.0386656 0
M  V30 6311 N 596.338 -5.40699 -0.560827 0
M  V30 6312 H 600.14 -2.93538 0.145853 0
M  V30 6313 H 597.654 -1.61389 0.180938 0
M  V30 6314 H 599.651 -3.50909 -2.25096 0
M  V30 6315 H 598.311 -2.33252 -2.25884 0
M  V30 6316 H 599.322 -5.178 0.101746 0
M  V30 6317 H 595.999 -3.66919 -1.9919 0
M  V30 6318 H 597.389 -6.68224 0.701841 0
M  V30 6319 N 600.109 -0.101901 -1.5727 0
M  V30 6320 C 601.52 0.426173 -1.81771 0
M  V30 6321 C 601.871 1.67725 -1.01797 0
M  V30 6322 O 600.996 2.14958 -0.249386 0
M  V30 6323 C 601.591 0.779962 -3.297 0
M  V30 6324 C 600.15 1.25275 -3.54941 0
M  V30 6325 C 599.297 0.252814 -2.76145 0
M  V30 6326 H 602.248 -0.32726 -1.55289 0
M  V30 6327 H 602.269 1.63891 -3.43395 0
M  V30 6328 H 601.781 -0.130778 -3.8788 0
M  V30 6329 H 599.882 2.18097 -3.021 0
M  V30 6330 H 599.995 1.20988 -4.63572 0
M  V30 6331 H 598.359 0.736362 -2.43823 0
M  V30 6332 H 599.142 -0.650724 -3.37076 0
M  V30 6333 N 601.587 1.56661 0.17182 0
M  V30 6334 C 602.833 1.8313 0.88516 0
M  V30 6335 C 603.188 0.682376 1.79893 0
M  V30 6336 O 602.481 -0.321215 1.88888 0
M  V30 6337 C 602.675 3.13435 1.71736 0
M  V30 6338 C 602.504 4.40892 0.885659 0
M  V30 6339 C 601.274 5.02177 0.560939 0
M  V30 6340 C 603.472 5.13797 0.227454 0
M  V30 6341 N 601.454 6.13229 -0.286953 0
M  V30 6342 C 602.825 6.18127 -0.481625 0
M  V30 6343 C 604.88 4.97687 0.145567 0
M  V30 6344 C 603.583 7.08092 -1.26482 0
M  V30 6345 C 605.609 5.88096 -0.624298 0
M  V30 6346 C 604.971 6.91888 -1.32174 0
M  V30 6347 H 601.07 0.721107 0.302536 0
M  V30 6348 H 603.654 1.94104 0.152178 0
M  V30 6349 H 601.825 3.03653 2.42176 0
M  V30 6350 H 603.557 3.27903 2.37196 0
M  V30 6351 H 600.312 4.65145 0.890902 0
M  V30 6352 H 600.736 6.73359 -0.701193 0
M  V30 6353 H 605.378 4.17451 0.670426 0
M  V30 6354 H 603.096 7.87774 -1.80103 0
M  V30 6355 H 606.682 5.77702 -0.689321 0
M  V30 6356 H 605.562 7.60637 -1.90791 0
M  V30 6357 N 603.065 -0.440357 1.51323 0
M  V30 6358 C 604.311 -1.19181 1.64085 0
M  V30 6359 C 604.644 -1.90936 0.354575 0
M  V30 6360 O 603.919 -1.8347 -0.645675 0
M  V30 6361 C 604.202 -2.2112 2.84215 0
M  V30 6362 C 604.055 -1.53468 4.22809 0
M  V30 6363 C 605.374 -3.22133 2.99864 0
M  V30 6364 H 602.493 -0.431924 0.597169 0
M  V30 6365 H 605.135 -0.481443 1.83799 0
M  V30 6366 H 603.285 -2.81703 2.67537 0
M  V30 6367 H 604.957 -0.962455 4.51148 0
M  V30 6368 H 603.2 -0.837086 4.25647 0
M  V30 6369 H 603.871 -2.27694 5.02852 0
M  V30 6370 H 606.347 -2.71601 3.15233 0
M  V30 6371 H 605.223 -3.90756 3.85488 0
M  V30 6372 H 605.484 -3.88061 2.11804 0
M  V30 6373 N 604.543 -1.41418 -0.695603 0
M  V30 6374 C 605.771 -1.4413 -1.48439 0
M  V30 6375 C 606.186 -0.0465698 -1.88743 0
M  V30 6376 O 605.543 0.934117 -1.56782 0
M  V30 6377 C 605.594 -2.34998 -2.74696 0
M  V30 6378 O 605.315 -3.69043 -2.36091 0
M  V30 6379 C 606.816 -2.46513 -3.68438 0
M  V30 6380 H 604.036 -0.490905 -0.457442 0
M  V30 6381 H 606.58 -1.85702 -0.856454 0
M  V30 6382 H 604.735 -1.96735 -3.33728 0
M  V30 6383 H 605.149 -4.17505 -3.17474 0
M  V30 6384 H 606.623 -3.1426 -4.53811 0
M  V30 6385 H 607.1 -1.49638 -4.12922 0
M  V30 6386 H 607.706 -2.85412 -3.1531 0
M  V30 6387 N 606.021 0.929856 -1.27246 0
M  V30 6388 C 606.968 2.03017 -1.09785 0
M  V30 6389 C 607.938 1.661 0.000456744 0
M  V30 6390 O 609.123 1.90116 -0.161462 0
M  V30 6391 C 606.263 3.36878 -0.748816 0
M  V30 6392 C 605.376 3.86763 -1.92453 0
M  V30 6393 C 604.511 5.09061 -1.51758 0
M  V30 6394 C 603.55 5.51237 -2.66091 0
M  V30 6395 N 602.687 6.64732 -2.25999 0
M  V30 6396 H 607.527 2.17285 -2.03939 0
M  V30 6397 H 605.064 1.06448 -1.01524 0
M  V30 6398 H 607.022 4.13855 -0.527283 0
M  V30 6399 H 605.652 3.22424 0.155771 0
M  V30 6400 H 604.704 3.06086 -2.25867 0
M  V30 6401 H 606.016 4.13994 -2.78227 0
M  V30 6402 H 605.17 5.93532 -1.25716 0
M  V30 6403 H 603.909 4.83602 -0.630896 0
M  V30 6404 H 602.914 4.65316 -2.92849 0
M  V30 6405 H 604.139 5.78692 -3.55377 0
M  V30 6406 H 602.085 6.40935 -1.3978 0
M  V30 6407 H 602.002 6.91607 -3.05313 0
M  V30 6408 H 603.27 7.52549 -2.03199 0
M  V30 6409 N 607.499 1.09233 1.13605 0
M  V30 6410 C 608.447 0.724572 2.21027 0
M  V30 6411 C 609.441 -0.273595 1.67176 0
M  V30 6412 O 610.647 -0.135266 1.79491 0
M  V30 6413 H 607.022 0.216319 0.720215 0
M  V30 6414 H 608.993 1.63975 2.49309 0
M  V30 6415 C 607.742 0.159126 3.47336 0
M  V30 6416 H 607.065 0.918387 3.89109 0
M  V30 6417 H 608.505 -0.0602851 4.23957 0
M  V30 6418 C 606.964 -1.10514 3.18258 0
M  V30 6419 O 607.494 -2.18869 3.36837 0
M  V30 6420 N 605.7 -1.01886 2.72154 0
M  V30 6421 H 605.247 -0.137027 2.57235 0
M  V30 6422 H 605.205 -1.8655 2.53074 0
M  V30 6423 N 608.977 -1.30795 0.87923 0
M  V30 6424 C 610.225 -1.95974 0.493809 0
M  V30 6425 C 610.546 -1.69787 -0.959021 0
M  V30 6426 O 609.816 -1.01832 -1.67353 0
M  V30 6427 H 608.396 -0.725083 0.179622 0
M  V30 6428 H 611.058 -1.59432 1.12105 0
M  V30 6429 H 610.154 -3.05058 0.659263 0
M  V30 6430 N 610.455 -0.639598 -1.44038 0
M  V30 6431 C 611.365 0.0612377 -2.3452 0
M  V30 6432 C 612.381 0.826717 -1.53106 0
M  V30 6433 O 613.557 0.777059 -1.85806 0
M  V30 6434 C 610.622 1.02492 -3.31204 0
M  V30 6435 C 609.683 0.25788 -4.28525 0
M  V30 6436 C 608.916 1.17566 -5.2059 0
M  V30 6437 O 609.139 2.41461 -5.16771 0
M  V30 6438 O 608.073 0.655407 -5.98321 0
M  V30 6439 H 611.899 -0.68318 -2.95916 0
M  V30 6440 H 609.484 -0.399784 -1.43952 0
M  V30 6441 H 611.366 1.57911 -3.90694 0
M  V30 6442 H 610.041 1.7498 -2.7233 0
M  V30 6443 H 608.948 -0.339566 -3.72556 0
M  V30 6444 H 610.281 -0.427154 -4.90343 0
M  V30 6445 N 611.933 1.52934 -0.380664 0
M  V30 6446 C 612.843 2.29921 0.466192 0
M  V30 6447 C 613.859 1.36488 1.07922 0
M  V30 6448 O 615.035 1.69553 1.0869 0
M  V30 6449 C 612.1 3.08468 1.58266 0
M  V30 6450 C 611.161 4.17595 0.995627 0
M  V30 6451 C 610.394 4.92387 2.05889 0
M  V30 6452 O 610.617 4.67184 3.27254 0
M  V30 6453 O 609.551 5.77949 1.68102 0
M  V30 6454 H 613.377 3.03274 -0.160735 0
M  V30 6455 H 610.962 1.48698 -0.144617 0
M  V30 6456 H 612.844 3.57469 2.23145 0
M  V30 6457 H 611.519 2.37937 2.19471 0
M  V30 6458 H 610.426 3.72811 0.310332 0
M  V30 6459 H 611.759 4.90336 0.427918 0
M  V30 6460 N 613.412 0.11024 1.57214 0
M  V30 6461 C 614.823 -0.416527 1.81994 0
M  V30 6462 C 615.174 -1.67183 1.02686 0
M  V30 6463 O 614.299 -2.14823 0.260782 0
M  V30 6464 C 614.894 -0.762466 3.30109 0
M  V30 6465 C 613.453 -1.23391 3.556 0
M  V30 6466 C 612.6 -0.238166 2.76275 0
M  V30 6467 H 615.551 0.335491 1.55113 0
M  V30 6468 H 615.572 -1.62068 3.44259 0
M  V30 6469 H 615.084 0.151346 3.87805 0
M  V30 6470 H 613.185 -2.16492 3.03253 0
M  V30 6471 H 613.298 -1.18528 4.64207 0
M  V30 6472 H 611.662 -0.723421 2.4421 0
M  V30 6473 H 612.445 0.668591 3.36727 0
M  V30 6474 N 614.89 -1.56749 -0.16351 0
M  V30 6475 C 615.82 -2.00042 -1.20438 0
M  V30 6476 C 616.801 -0.877256 -1.45733 0
M  V30 6477 O 617.986 -1.1439 -1.56935 0
M  V30 6478 C 615.116 -2.36697 -2.54149 0
M  V30 6479 C 614.07 -3.52046 -2.43408 0
M  V30 6480 C 613.396 -3.74466 -3.81679 0
M  V30 6481 C 614.696 -4.85247 -1.93216 0
M  V30 6482 H 616.39 -2.87244 -0.844477 0
M  V30 6483 H 613.936 -1.38194 -0.40478 0
M  V30 6484 H 615.889 -2.65582 -3.27176 0
M  V30 6485 H 614.613 -1.46414 -2.91943 0
M  V30 6486 H 613.272 -3.23301 -1.72834 0
M  V30 6487 H 612.92 -2.81461 -4.1688 0
M  V30 6488 H 612.62 -4.52084 -3.75359 0
M  V30 6489 H 614.144 -4.0576 -4.5628 0
M  V30 6490 H 615.558 -5.12957 -2.56023 0
M  V30 6491 H 613.955 -5.66556 -1.97825 0
M  V30 6492 H 615.025 -4.7672 -0.88689 0
M  V30 6493 N 616.368 0.432326 -1.51554 0
M  V30 6494 C 617.779 1.01202 -1.56892 0
M  V30 6495 C 618.13 1.92175 -0.395394 0
M  V30 6496 O 617.255 2.10844 0.487198 0
M  V30 6497 C 617.85 1.84217 -2.8434 0
M  V30 6498 C 616.409 2.37228 -2.92233 0
M  V30 6499 C 615.556 1.16576 -2.51606 0
M  V30 6500 H 618.507 0.213407 -1.57259 0
M  V30 6501 H 618.528 2.69721 -2.68385 0
M  V30 6502 H 618.04 1.17979 -3.69733 0
M  V30 6503 H 616.141 3.06905 -2.11282 0
M  V30 6504 H 616.254 2.69682 -3.95991 0
M  V30 6505 H 614.618 1.51263 -2.04919 0
M  V30 6506 H 615.401 0.519404 -3.39348 0
M  V30 6507 N 617.846 1.41785 0.688094 0
M  V30 6508 C 619.071 1.45117 1.48175 0
M  V30 6509 C 619.496 0.060129 1.88004 0
M  V30 6510 O 618.854 -0.938385 1.55126 0
M  V30 6511 C 618.902 2.37224 2.71583 0
M  V30 6512 O 618.006 1.83443 3.69354 0
M  V30 6513 H 617.347 0.492208 0.445676 0
M  V30 6514 H 619.877 1.86329 0.845145 0
M  V30 6515 H 619.887 2.53353 3.19806 0
M  V30 6516 H 618.562 3.38293 2.41931 0
M  V30 6517 H 617.139 1.76802 3.28322 0
M  V30 6518 N 619.324 -0.923095 1.27737 0
M  V30 6519 C 620.234 -2.05765 1.12685 0
M  V30 6520 C 621.25 -1.73911 0.0557197 0
M  V30 6521 O 622.426 -1.99674 0.263137 0
M  V30 6522 C 619.491 -3.37804 0.780363 0
M  V30 6523 C 618.552 -3.83326 1.93286 0
M  V30 6524 C 617.785 -5.09064 1.60281 0
M  V30 6525 O 618.008 -5.6809 0.512828 0
M  V30 6526 O 616.942 -5.50071 2.44347 0
M  V30 6527 H 620.768 -2.21378 2.07907 0
M  V30 6528 H 618.353 -1.04299 1.06968 0
M  V30 6529 H 620.235 -4.17097 0.600668 0
M  V30 6530 H 618.91 -3.23387 -0.142291 0
M  V30 6531 H 617.817 -3.049 2.16764 0
M  V30 6532 H 619.15 -4.02292 2.83588 0
M  V30 6533 N 620.802 -1.09834 -1.13024 0
M  V30 6534 C 621.712 -0.753731 -2.22162 0
M  V30 6535 C 622.728 0.246105 -1.72251 0
M  V30 6536 O 623.904 0.0864051 -2.01215 0
M  V30 6537 C 620.969 -0.183958 -3.46212 0
M  V30 6538 C 620.03 -1.24028 -4.10993 0
M  V30 6539 C 619.263 -0.697597 -5.29121 0
M  V30 6540 O 619.486 0.478092 -5.68393 0
M  V30 6541 O 618.42 -1.4546 -5.84059 0
M  V30 6542 H 622.246 -1.66456 -2.5402 0
M  V30 6543 H 619.831 -0.873026 -1.21238 0
M  V30 6544 H 621.713 0.130257 -4.21199 0
M  V30 6545 H 620.388 0.699823 -3.16045 0
M  V30 6546 H 619.295 -1.60725 -3.37814 0
M  V30 6547 H 620.628 -2.09685 -4.45301 0
M  V30 6548 N 622.28 1.30327 -0.886154 0
M  V30 6549 C 623.19 2.31854 -0.357866 0
M  V30 6550 C 624.206 1.65392 0.540502 0
M  V30 6551 O 625.382 1.96683 0.433339 0
M  V30 6552 C 622.447 3.44171 0.417999 0
M  V30 6553 C 621.508 4.26257 -0.510263 0
M  V30 6554 C 620.741 5.3321 0.228669 0
M  V30 6555 O 620.964 5.51542 1.45458 0
M  V30 6556 O 619.898 6.0042 -0.421832 0
M  V30 6557 H 623.724 2.78995 -1.19982 0
M  V30 6558 H 621.309 1.34518 -0.650028 0
M  V30 6559 H 623.191 4.12588 0.857251 0
M  V30 6560 H 621.866 2.99164 1.23623 0
M  V30 6561 H 620.773 3.60533 -0.99835 0
M  V30 6562 H 622.106 4.74871 -1.29454 0
M  V30 6563 N 623.758 0.647228 1.43697 0
M  V30 6564 C 624.708 -0.0702191 2.27892 0
M  V30 6565 C 625.692 -0.800601 1.39568 0
M  V30 6566 O 626.884 -0.684055 1.63247 0
M  V30 6567 C 624.013 -1.04008 3.27165 0
M  V30 6568 C 623.099 -0.308484 4.22977 0
M  V30 6569 N 623.49 0.671721 5.0132 0
M  V30 6570 C 621.788 -0.550751 4.42586 0
M  V30 6571 C 622.489 1.10543 5.711 0
M  V30 6572 N 621.465 0.440903 5.41809 0
M  V30 6573 H 625.267 0.682031 2.85877 0
M  V30 6574 H 622.781 0.474022 1.55328 0
M  V30 6575 H 624.778 -1.56881 3.86256 0
M  V30 6576 H 623.438 -1.79246 2.70742 0
M  V30 6577 H 624.449 1.0502 5.0714 0
M  V30 6578 H 621.126 -1.28476 3.97241 0
M  V30 6579 H 622.516 1.91614 6.43998 0
M  V30 6580 N 625.236 -1.5273 0.388769 0
M  V30 6581 C 626.476 -2.03483 -0.193372 0
M  V30 6582 C 626.84 -1.26897 -1.44087 0
M  V30 6583 O 628.041 -1.67773 -2.10014 0
M  V30 6584 C 626.312 -3.54488 -0.455325 0
M  V30 6585 S 627.871 -4.27069 -1.00783 0
M  V30 6586 H 624.689 -0.708907 -0.0545131 0
M  V30 6587 H 627.291 -1.8798 0.536993 0
M  V30 6588 H 625.995 -4.07817 0.459722 0
M  V30 6589 H 625.526 -3.74196 -1.21413 0
M  V30 6590 H 627.541 -4.40185 -2.29023 0
M  V30 6591 N 626.714 -0.118576 -1.57153 0
M  V30 6592 C 627.939 0.550582 -1.99958 0
M  V30 6593 C 628.364 1.59458 -0.997736 0
M  V30 6594 O 627.722 1.81274 0.0306269 0
M  V30 6595 C 627.77 1.15379 -3.41643 0
M  V30 6596 O 626.874 2.26932 -3.44348 0
M  V30 6597 H 626.215 0.137567 -0.649593 0
M  V30 6598 H 628.745 -0.206926 -2.03551 0
M  V30 6599 H 628.755 1.48942 -3.79843 0
M  V30 6600 H 627.43 0.389087 -4.14076 0
M  V30 6601 H 626.007 1.94812 -3.17967 0
M  V30 6602 N 628.193 1.56834 0.155195 0
M  V30 6603 C 629.439 1.83169 0.870467 0
M  V30 6604 C 629.772 0.698929 1.81187 0
M  V30 6605 O 629.047 -0.298035 1.92203 0
M  V30 6606 C 629.33 3.19965 1.65211 0
M  V30 6607 C 629.183 4.43792 0.732744 0
M  V30 6608 C 630.502 3.53885 2.61636 0
M  V30 6609 H 627.621 0.666288 0.315006 0
M  V30 6610 H 630.263 1.89513 0.135988 0
M  V30 6611 H 628.413 3.14687 2.27825 0
M  V30 6612 H 630.085 4.61148 0.118236 0
M  V30 6613 H 628.328 4.3378 0.0417906 0
M  V30 6614 H 628.999 5.36095 1.31552 0
M  V30 6615 H 631.475 3.5972 2.09143 0
M  V30 6616 H 630.351 4.50648 3.13381 0
M  V30 6617 H 630.612 2.79418 3.42605 0
M  V30 6618 N 629.671 -0.424282 1.51781 0
M  V30 6619 C 630.917 -1.17434 1.6534 0
M  V30 6620 C 631.25 -1.90549 0.374806 0
M  V30 6621 O 630.525 -1.84145 -0.626179 0
M  V30 6622 C 630.808 -2.18093 2.86544 0
M  V30 6623 C 630.661 -1.48975 4.24413 0
M  V30 6624 C 631.98 -3.18934 3.03264 0
M  V30 6625 H 629.099 -0.425566 0.601716 0
M  V30 6626 H 631.741 -0.461921 1.84299 0
M  V30 6627 H 629.891 -2.78849 2.7051 0
M  V30 6628 H 631.563 -0.914551 4.52143 0
M  V30 6629 H 629.806 -0.791893 4.26511 0
M  V30 6630 H 630.477 -2.22347 5.05238 0
M  V30 6631 H 632.953 -2.68243 3.18096 0
M  V30 6632 H 631.829 -3.86645 3.89611 0
M  V30 6633 H 632.09 -3.85793 2.15908 0
M  V30 6634 N 631.149 -1.42148 -0.680565 0
M  V30 6635 C 632.059 -1.47565 -1.82378 0
M  V30 6636 C 633.075 -0.36489 -1.70131 0
M  V30 6637 O 634.251 -0.614916 -1.91783 0
M  V30 6638 C 631.316 -1.37013 -3.18478 0
M  V30 6639 C 630.377 -2.58532 -3.42724 0
M  V30 6640 C 629.61 -2.48473 -4.72331 0
M  V30 6641 O 629.833 -1.51745 -5.49845 0
M  V30 6642 O 628.767 -3.38503 -4.97694 0
M  V30 6643 H 632.593 -2.44045 -1.80764 0
M  V30 6644 H 630.178 -1.23849 -0.835569 0
M  V30 6645 H 632.06 -1.33468 -3.99705 0
M  V30 6646 H 630.735 -0.436552 -3.20743 0
M  V30 6647 H 629.642 -2.67652 -2.61368 0
M  V30 6648 H 630.975 -3.50769 -3.45286 0
M  V30 6649 N 632.627 0.916307 -1.28225 0
M  V30 6650 C 633.873 1.66765 -1.154 0
M  V30 6651 C 634.206 1.91912 0.297251 0
M  V30 6652 O 633.481 1.51766 1.21644 0
M  V30 6653 C 633.764 3.02715 -1.95028 0
M  V30 6654 C 633.617 2.84738 -3.48201 0
M  V30 6655 C 634.936 4.03215 -1.76369 0
M  V30 6656 H 632.055 0.605205 -0.42059 0
M  V30 6657 H 634.697 1.06255 -1.57512 0
M  V30 6658 H 632.847 3.54365 -1.59242 0
M  V30 6659 H 634.519 2.40118 -3.9388 0
M  V30 6660 H 632.762 2.19848 -3.73964 0
M  V30 6661 H 633.433 3.8127 -3.99171 0
M  V30 6662 H 635.909 3.60617 -2.07593 0
M  V30 6663 H 634.785 4.96306 -2.34459 0
M  V30 6664 H 635.046 4.36288 -0.71452 0
M  V30 6665 N 634.105 1.10431 1.1244 0
M  V30 6666 C 635.333 0.868872 1.87772 0
M  V30 6667 C 635.748 -0.580645 1.7965 0
M  V30 6668 O 635.105 -1.40031 1.17036 0
M  V30 6669 C 635.156 1.30855 3.36986 0
M  V30 6670 O 634.877 2.70123 3.44914 0
M  V30 6671 C 636.378 1.107 4.29256 0
M  V30 6672 H 633.598 0.311868 0.59412 0
M  V30 6673 H 636.142 1.46897 1.42273 0
M  V30 6674 H 634.297 0.752126 3.80029 0
M  V30 6675 H 634.711 2.88923 4.37748 0
M  V30 6676 H 636.185 1.46378 5.32238 0
M  V30 6677 H 636.662 0.0456228 4.39176 0
M  V30 6678 H 637.268 1.64988 3.91994 0
M  V30 6679 N 635.583 -1.29855 0.893053 0
M  V30 6680 C 636.493 -2.31661 0.370157 0
M  V30 6681 C 637.509 -1.65677 -0.531723 0
M  V30 6682 O 638.685 -1.9691 -0.422902 0
M  V30 6683 C 635.75 -3.44388 -0.399741 0
M  V30 6684 C 634.811 -4.2598 0.532861 0
M  V30 6685 C 634.044 -5.33324 -0.200388 0
M  V30 6686 O 634.267 -5.52305 -1.42531 0
M  V30 6687 O 633.201 -6.00188 0.453668 0
M  V30 6688 H 637.027 -2.78354 1.2146 0
M  V30 6689 H 634.612 -1.34171 0.657153 0
M  V30 6690 H 636.494 -4.13037 -0.835358 0
M  V30 6691 H 635.169 -2.99815 -1.22035 0
M  V30 6692 H 634.076 -3.59998 1.01746 0
M  V30 6693 H 635.409 -4.74178 1.3197 0
M  V30 6694 N 637.061 -0.65484 -1.43351 0
M  V30 6695 C 637.971 0.0363603 -2.34572 0
M  V30 6696 C 638.987 0.810432 -1.53974 0
M  V30 6697 O 640.163 0.757308 -1.86619 0
M  V30 6698 C 637.228 0.989733 -3.32273 0
M  V30 6699 C 636.289 0.212414 -4.28774 0
M  V30 6700 C 635.522 1.12038 -5.21808 0
M  V30 6701 O 635.745 2.35967 -5.19303 0
M  V30 6702 O 634.679 0.59191 -5.98982 0
M  V30 6703 H 638.505 -0.714527 -2.95175 0
M  V30 6704 H 636.09 -0.415029 -1.4352 0
M  V30 6705 H 637.972 1.53759 -3.92347 0
M  V30 6706 H 636.647 1.72082 -2.74171 0
M  V30 6707 H 635.554 -0.379062 -3.72175 0
M  V30 6708 H 636.887 -0.479138 -4.89862 0
M  V30 6709 N 638.539 1.52521 -0.396863 0
M  V30 6710 C 639.449 2.30403 0.44178 0
M  V30 6711 C 640.465 1.37625 1.06468 0
M  V30 6712 O 641.641 1.70697 1.06886 0
M  V30 6713 C 638.706 3.1013 1.54986 0
M  V30 6714 C 637.767 4.18628 0.951279 0
M  V30 6715 C 637 4.94543 2.00655 0
M  V30 6716 O 637.223 4.70629 3.22281 0
M  V30 6717 O 636.157 5.797 1.61962 0
M  V30 6718 H 639.983 3.03087 -0.192892 0
M  V30 6719 H 637.568 1.48537 -0.16038 0
M  V30 6720 H 639.45 3.59816 2.19341 0
M  V30 6721 H 638.125 2.40251 2.16935 0
M  V30 6722 H 637.032 3.73119 0.270773 0
M  V30 6723 H 638.365 4.90763 0.375887 0
M  V30 6724 N 640.017 0.126909 1.57088 0
M  V30 6725 C 641.263 -0.529952 1.95753 0
M  V30 6726 C 641.596 -1.65823 1.01077 0
M  V30 6727 O 640.871 -1.94437 0.0494162 0
M  V30 6728 C 641.154 -1.05517 3.44294 0
M  V30 6729 C 641.007 0.0702253 4.49745 0
M  V30 6730 C 642.326 -1.9435 3.94862 0
M  V30 6731 H 639.445 -0.191168 0.711775 0
M  V30 6732 H 642.087 0.204071 1.88901 0
M  V30 6733 H 640.237 -1.68069 3.50264 0
M  V30 6734 H 641.909 0.705834 4.55868 0
M  V30 6735 H 640.152 0.732259 4.27575 0
M  V30 6736 H 640.823 -0.338642 5.5096 0
M  V30 6737 H 643.299 -1.41658 3.91244 0
M  V30 6738 H 642.175 -2.28015 4.993 0
M  V30 6739 H 642.436 -2.87299 3.36024 0
M  V30 6740 N 641.495 -1.56914 -0.146875 0
M  V30 6741 C 642.442 -1.98275 -1.18134 0
M  V30 6742 C 643.412 -0.850367 -1.42681 0
M  V30 6743 O 644.597 -1.11244 -1.55014 0
M  V30 6744 C 641.737 -2.36861 -2.5098 0
M  V30 6745 C 640.85 -3.63391 -2.33605 0
M  V30 6746 C 639.985 -3.91079 -3.59486 0
M  V30 6747 C 639.024 -5.10879 -3.37149 0
M  V30 6748 N 638.161 -5.34577 -4.55161 0
M  V30 6749 H 643.001 -2.8645 -0.821622 0
M  V30 6750 H 640.538 -1.41718 -0.394248 0
M  V30 6751 H 642.496 -2.57262 -3.28439 0
M  V30 6752 H 641.126 -1.51766 -2.84898 0
M  V30 6753 H 640.178 -3.50766 -1.47199 0
M  V30 6754 H 641.49 -4.51007 -2.13059 0
M  V30 6755 H 640.644 -4.11979 -4.45374 0
M  V30 6756 H 639.383 -3.01885 -3.83036 0
M  V30 6757 H 638.388 -4.89853 -2.49649 0
M  V30 6758 H 639.613 -6.01626 -3.14997 0
M  V30 6759 H 637.559 -4.48337 -4.78884 0
M  V30 6760 H 637.476 -6.16463 -4.37618 0
M  V30 6761 H 638.744 -5.59975 -5.42263 0
M  V30 6762 N 642.974 0.416227 -1.52004 0
M  V30 6763 C 643.922 1.5272 -1.7544 0
M  V30 6764 C 644.916 1.57596 -0.621289 0
M  V30 6765 O 646.122 1.61087 -0.803172 0
M  V30 6766 H 642.497 0.507772 -0.554682 0
M  V30 6767 H 644.468 1.30136 -2.68528 0
M  V30 6768 C 643.217 2.90165 -1.91571 0
M  V30 6769 H 642.54 2.87154 -2.78178 0
M  V30 6770 H 643.98 3.67211 -2.11972 0
M  V30 6771 C 642.439 3.29947 -0.680942 0
M  V30 6772 O 642.969 4.01403 0.154527 0
M  V30 6773 N 641.175 2.8593 -0.518894 0
M  V30 6774 H 640.722 2.2795 -1.19986 0
M  V30 6775 H 640.68 3.12907 0.305985 0
M  V30 6776 N 644.452 1.42507 0.673017 0
M  V30 6777 C 645.677 1.4668 1.46627 0
M  V30 6778 C 646.102 0.080066 1.8793 0
M  V30 6779 O 645.46 -0.921879 1.56112 0
M  V30 6780 C 645.508 2.40091 2.69051 0
M  V30 6781 O 644.612 1.8735 3.67387 0
M  V30 6782 H 643.953 0.496908 0.44043 0
M  V30 6783 H 646.483 1.87215 0.825334 0
M  V30 6784 H 646.493 2.56731 3.17101 0
M  V30 6785 H 645.168 3.4084 2.3833 0
M  V30 6786 H 643.745 1.80274 3.26429 0
M  V30 6787 N 645.93 -0.909495 1.28709 0
M  V30 6788 C 647.176 -1.66151 1.16283 0
M  V30 6789 C 647.509 -1.92067 -0.287069 0
M  V30 6790 O 646.784 -1.52409 -1.20837 0
M  V30 6791 C 647.067 -3.01676 1.9663 0
M  V30 6792 C 646.92 -2.82888 3.49707 0
M  V30 6793 C 648.239 -4.02274 1.78504 0
M  V30 6794 H 645.358 -0.602966 0.423793 0
M  V30 6795 H 648 -1.05418 1.58073 0
M  V30 6796 H 646.15 -3.53515 1.61119 0
M  V30 6797 H 647.822 -2.38026 3.95147 0
M  V30 6798 H 646.065 -2.17862 3.75125 0
M  V30 6799 H 646.736 -3.79147 4.01187 0
M  V30 6800 H 649.212 -3.59511 2.09503 0
M  V30 6801 H 648.088 -4.95056 2.37088 0
M  V30 6802 H 648.349 -4.35903 0.737647 0
M  V30 6803 N 647.408 -1.11026 -1.11852 0
M  V30 6804 C 648.824 -0.843294 -1.35502 0
M  V30 6805 C 649.024 0.534179 -1.9429 0
M  V30 6806 O 648.08 1.28585 -2.17307 0
M  V30 6807 C 649.393 -1.94793 -2.29077 0
M  V30 6808 C 650.941 -1.97709 -2.42652 0
M  V30 6809 C 651.416 -3.07364 -3.39546 0
M  V30 6810 N 652.907 -3.0671 -3.47107 0
M  V30 6811 C 653.642 -3.88197 -4.22008 0
M  V30 6812 N 653.138 -4.79635 -4.99922 0
M  V30 6813 N 654.931 -3.76391 -4.17476 0
M  V30 6814 H 647.082 -1.99805 -0.720538 0
M  V30 6815 H 649.345 -0.868633 -0.379711 0
M  V30 6816 H 649.051 -2.93971 -1.93065 0
M  V30 6817 H 648.925 -1.84039 -3.29256 0
M  V30 6818 H 651.312 -0.991604 -2.77941 0
M  V30 6819 H 651.393 -2.1254 -1.4234 0
M  V30 6820 H 651.037 -4.06136 -3.04985 0
M  V30 6821 H 650.967 -2.89774 -4.39703 0
M  V30 6822 H 653.458 -2.40457 -2.91528 0
M  V30 6823 H 653.771 -5.38357 -5.54429 0
M  V30 6824 H 652.116 -4.8366 -4.99097 0
M  V30 6825 H 655.307 -3.04303 -3.55693 0
M  V30 6826 H 655.48 -4.40131 -4.75593 0
M  V30 6827 N 648.886 1.2938 -0.899927 0
M  V30 6828 C 649.816 2.30144 -0.39446 0
M  V30 6829 C 650.797 1.61611 0.530639 0
M  V30 6830 O 651.982 1.89119 0.441319 0
M  V30 6831 C 649.112 3.45229 0.37868 0
M  V30 6832 C 648.066 4.25564 -0.456012 0
M  V30 6833 C 647.392 5.32848 0.444637 0
M  V30 6834 C 648.692 4.93651 -1.70605 0
M  V30 6835 H 650.386 2.72673 -1.23653 0
M  V30 6836 H 647.932 1.31086 -0.596034 0
M  V30 6837 H 649.885 4.14797 0.743037 0
M  V30 6838 H 648.609 3.01545 1.25453 0
M  V30 6839 H 647.268 3.57704 -0.802704 0
M  V30 6840 H 646.916 4.85408 1.31863 0
M  V30 6841 H 646.616 5.87497 -0.110154 0
M  V30 6842 H 648.14 6.05268 0.805182 0
M  V30 6843 H 649.554 5.55655 -1.41141 0
M  V30 6844 H 647.951 5.58233 -2.20217 0
M  V30 6845 H 649.021 4.18926 -2.4419 0
M  V30 6846 N 650.364 0.662433 1.43002 0
M  V30 6847 C 651.613 0.176873 2.00923 0
M  V30 6848 C 651.926 -1.21954 1.52927 0
M  V30 6849 O 653.132 -1.80081 2.03182 0
M  V30 6850 C 651.588 0.265379 3.5892 0
M  V30 6851 C 651.196 1.66507 4.15908 0
M  V30 6852 C 652.94 -0.162103 4.2419 0
M  V30 6853 C 650.847 1.707 5.66229 0
M  V30 6854 H 649.777 0.0623627 0.751417 0
M  V30 6855 H 652.428 0.825813 1.63868 0
M  V30 6856 H 650.81 -0.451235 3.93421 0
M  V30 6857 H 651.984 2.40777 3.92891 0
M  V30 6858 H 650.299 2.03932 3.63044 0
M  V30 6859 H 652.896 -0.150745 5.34487 0
M  V30 6860 H 653.239 -1.19519 3.98774 0
M  V30 6861 H 653.772 0.503075 3.94606 0
M  V30 6862 H 650.511 2.7195 5.96426 0
M  V30 6863 H 650.031 1.00768 5.91275 0
M  V30 6864 H 651.71 1.45487 6.3043 0
M  V30 6865 N 651.842 -1.52309 0.404946 0
M  V30 6866 C 653.253 -1.86585 -0.0655926 0
M  V30 6867 C 653.604 -1.3239 -1.44801 0
M  V30 6868 O 652.729 -0.6615 -2.06042 0
M  V30 6869 C 653.324 -3.38566 -0.125801 0
M  V30 6870 C 651.883 -3.72497 -0.540666 0
M  V30 6871 C 651.03 -2.75806 0.287487 0
M  V30 6872 H 653.981 -1.45995 0.622185 0
M  V30 6873 H 654.002 -3.68658 -0.941888 0
M  V30 6874 H 653.514 -3.77981 0.880473 0
M  V30 6875 H 651.615 -3.38659 -1.55373 0
M  V30 6876 H 651.728 -4.78234 -0.287956 0
M  V30 6877 H 650.092 -2.53474 -0.249561 0
M  V30 6878 H 650.875 -3.18059 1.29203 0
M  V30 6879 N 653.32 -0.135238 -1.57019 0
M  V30 6880 C 654.545 0.529343 -2.00531 0
M  V30 6881 C 654.97 1.58391 -1.01459 0
M  V30 6882 O 654.328 1.81296 0.0113986 0
M  V30 6883 C 654.376 1.11748 -3.42848 0
M  V30 6884 O 653.48 2.23267 -3.46736 0
M  V30 6885 H 652.821 0.130669 -0.651016 0
M  V30 6886 H 655.351 -0.228503 -2.0332 0
M  V30 6887 H 655.361 1.44905 -3.81401 0
M  V30 6888 H 654.036 0.345147 -4.14465 0
M  V30 6889 H 652.613 1.91428 -3.20015 0
M  V30 6890 N 654.798 1.5699 0.138552 0
M  V30 6891 C 656.044 1.84966 0.846116 0
M  V30 6892 C 656.399 0.72038 1.78405 0
M  V30 6893 O 655.692 -0.281076 1.89527 0
M  V30 6894 C 655.886 3.17007 1.65049 0
M  V30 6895 C 655.715 4.42672 0.79194 0
M  V30 6896 C 654.485 5.03254 0.454293 0
M  V30 6897 C 656.683 5.14164 0.118419 0
M  V30 6898 N 654.665 6.12482 -0.416964 0
M  V30 6899 C 656.036 6.16966 -0.61263 0
M  V30 6900 C 658.091 4.97884 0.0399671 0
M  V30 6901 C 656.794 7.0525 -1.41473 0
M  V30 6902 C 658.82 5.86639 -0.748901 0
M  V30 6903 C 658.182 6.88929 -1.4682 0
M  V30 6904 H 654.281 0.727362 0.287172 0
M  V30 6905 H 656.865 1.94383 0.110972 0
M  V30 6906 H 655.036 3.08722 2.35681 0
M  V30 6907 H 656.768 3.3286 2.30187 0
M  V30 6908 H 653.523 4.6693 0.792038 0
M  V30 6909 H 653.947 6.7172 -0.843865 0
M  V30 6910 H 658.589 4.18779 0.581728 0
M  V30 6911 H 656.307 7.83777 -1.96772 0
M  V30 6912 H 659.893 5.7611 -0.811705 0
M  V30 6913 H 658.773 7.56419 -2.06882 0
M  V30 6914 N 656.276 -0.40816 1.52223 0
M  V30 6915 C 657.504 -1.17672 1.70179 0
M  V30 6916 C 657.919 -1.84257 0.411696 0
M  V30 6917 O 657.276 -1.7192 -0.612354 0
M  V30 6918 C 657.327 -2.23911 2.83806 0
M  V30 6919 O 657.048 -1.60044 4.0782 0
M  V30 6920 C 658.549 -3.1364 3.13281 0
M  V30 6921 H 655.769 -0.353562 0.570293 0
M  V30 6922 H 658.313 -0.480083 1.98785 0
M  V30 6923 H 656.468 -2.89242 2.57717 0
M  V30 6924 H 656.882 -2.30484 4.71145 0
M  V30 6925 H 658.356 -3.84255 3.96298 0
M  V30 6926 H 658.833 -3.76066 2.26872 0
M  V30 6927 H 659.439 -2.53977 3.41139 0
M  V30 6928 N 657.755 -1.42862 -0.66545 0
M  V30 6929 C 658.983 -1.47246 -1.45349 0
M  V30 6930 C 659.398 -0.0865944 -1.88601 0
M  V30 6931 O 658.755 0.900652 -1.58728 0
M  V30 6932 C 658.806 -2.40772 -2.6965 0
M  V30 6933 O 658.527 -3.73968 -2.2821 0
M  V30 6934 C 660.028 -2.54272 -3.63126 0
M  V30 6935 H 657.248 -0.500497 -0.446927 0
M  V30 6936 H 659.792 -1.87477 -0.816871 0
M  V30 6937 H 657.947 -2.0377 -3.29479 0
M  V30 6938 H 658.361 -4.24146 -3.08546 0
M  V30 6939 H 659.835 -3.23815 -4.47043 0
M  V30 6940 H 660.312 -1.58364 -4.09656 0
M  V30 6941 H 660.918 -2.92036 -3.09185 0
M  V30 6942 N 659.233 0.902656 -1.29189 0
M  V30 6943 C 660.479 1.65532 -1.17163 0
M  V30 6944 C 660.812 1.92216 0.276879 0
M  V30 6945 O 660.087 1.53048 1.20027 0
M  V30 6946 C 660.37 3.00629 -1.98228 0
M  V30 6947 C 660.223 2.81029 -3.51202 0
M  V30 6948 C 661.542 4.01321 -1.80635 0
M  V30 6949 H 658.661 0.60071 -0.426985 0
M  V30 6950 H 661.303 1.04578 -1.5863 0
M  V30 6951 H 659.453 3.52656 -1.62991 0
M  V30 6952 H 661.125 2.35927 -3.96404 0
M  V30 6953 H 659.368 2.1587 -3.76275 0
M  V30 6954 H 660.039 3.77014 -4.03192 0
M  V30 6955 H 662.515 3.58394 -2.11406 0
M  V30 6956 H 661.391 4.93792 -2.3971 0
M  V30 6957 H 661.652 4.35505 -0.760754 0
M  V30 6958 N 660.711 1.11618 1.11262 0
M  V30 6959 C 661.96 0.860934 1.82403 0
M  V30 6960 C 662.273 -0.615303 1.8567 0
M  V30 6961 O 663.479 -0.986861 2.52929 0
M  V30 6962 C 661.935 1.49048 3.27586 0
M  V30 6963 C 661.543 3.00089 3.32642 0
M  V30 6964 C 663.287 1.31515 4.03614 0
M  V30 6965 C 661.194 3.56019 4.72234 0
M  V30 6966 H 660.124 0.318423 0.683464 0
M  V30 6967 H 662.775 1.34165 1.25188 0
M  V30 6968 H 661.157 0.937434 3.84744 0
M  V30 6969 H 662.331 3.61813 2.85356 0
M  V30 6970 H 660.646 3.16919 2.70096 0
M  V30 6971 H 663.243 1.70732 5.0671 0
M  V30 6972 H 663.586 0.257917 4.155 0
M  V30 6973 H 664.119 1.83694 3.52848 0
M  V30 6974 H 660.858 4.61463 4.65545 0
M  V30 6975 H 660.378 2.99066 5.19923 0
M  V30 6976 H 662.057 3.54568 5.41193 0
M  V30 6977 N 662.189 -1.289 0.906776 0
M  V30 6978 C 663.119 -2.29932 0.406659 0
M  V30 6979 C 664.1 -1.6189 -0.522061 0
M  V30 6980 O 665.285 -1.8935 -0.431283 0
M  V30 6981 C 662.415 -3.45425 -0.360366 0
M  V30 6982 C 661.369 -4.25316 0.478574 0
M  V30 6983 C 660.695 -5.33076 -0.416373 0
M  V30 6984 C 661.995 -4.92739 1.7322 0
M  V30 6985 H 663.689 -2.72013 1.25097 0
M  V30 6986 H 661.235 -1.30768 0.602977 0
M  V30 6987 H 663.188 -4.15186 -0.721029 0
M  V30 6988 H 661.912 -3.02206 -1.23852 0
M  V30 6989 H 660.571 -3.57273 0.821662 0
M  V30 6990 H 660.219 -4.86101 -1.29287 0
M  V30 6991 H 659.919 -5.8743 0.141309 0
M  V30 6992 H 661.443 -6.05686 -0.773072 0
M  V30 6993 H 662.857 -5.54898 1.44086 0
M  V30 6994 H 661.254 -5.57057 2.23175 0
M  V30 6995 H 662.324 -4.17625 2.46408 0
M  V30 6996 N 663.667 -0.670007 -1.42649 0
M  V30 6997 C 664.913 -0.190568 -2.01903 0
M  V30 6998 C 665.246 1.19817 -1.52832 0
M  V30 6999 O 664.521 1.80342 -0.728485 0
M  V30 7000 C 664.804 -0.21991 -3.59428 0
M  V30 7001 C 664.657 -1.64376 -4.18689 0
M  V30 7002 C 665.976 0.434519 -4.3795 0
M  V30 7003 H 663.095 -0.0707219 -0.733599 0
M  V30 7004 H 665.737 -0.853883 -1.69732 0
M  V30 7005 H 663.887 0.344894 -3.86966 0
M  V30 7006 H 665.559 -2.26044 -4.02122 0
M  V30 7007 H 663.802 -2.18591 -3.747 0
M  V30 7008 H 664.473 -1.61601 -5.27815 0
M  V30 7009 H 666.949 -0.0462156 -4.16074 0
M  V30 7010 H 665.825 0.38333 -5.4756 0
M  V30 7011 H 666.086 1.51135 -4.15464 0
M  V30 7012 N 665.145 1.52092 -0.413018 0
M  V30 7013 C 666.092 2.27119 0.410558 0
M  V30 7014 C 667.062 1.29692 1.03774 0
M  V30 7015 O 668.247 1.58561 1.06128 0
M  V30 7016 C 665.387 3.09863 1.51918 0
M  V30 7017 C 664.5 4.22252 0.912528 0
M  V30 7018 C 663.635 4.92348 1.99417 0
M  V30 7019 C 662.674 5.96694 1.36466 0
M  V30 7020 N 661.811 6.60292 2.38661 0
M  V30 7021 H 666.651 2.97067 -0.235661 0
M  V30 7022 H 664.188 1.46542 -0.128055 0
M  V30 7023 H 666.146 3.56144 2.17295 0
M  V30 7024 H 664.776 2.42078 2.13537 0
M  V30 7025 H 663.828 3.80113 0.147697 0
M  V30 7026 H 665.14 4.9709 0.412717 0
M  V30 7027 H 664.294 5.42054 2.72512 0
M  V30 7028 H 663.033 4.17087 2.52764 0
M  V30 7029 H 662.038 5.46304 0.61906 0
M  V30 7030 H 663.263 6.73899 0.838827 0
M  V30 7031 H 661.209 5.87858 2.91134 0
M  V30 7032 H 661.126 7.30816 1.93503 0
M  V30 7033 H 662.394 7.14635 3.11314 0
M  V30 7034 N 666.623 0.143563 1.56945 0
M  V30 7035 C 667.848 -0.518701 2.00809 0
M  V30 7036 C 668.273 -1.5785 1.02298 0
M  V30 7037 O 667.631 -1.813 -0.0017839 0
M  V30 7038 C 667.679 -1.09929 3.43436 0
M  V30 7039 O 666.783 -2.21425 3.47915 0
M  V30 7040 H 666.124 -0.127215 0.6517 0
M  V30 7041 H 668.654 0.239283 2.03196 0
M  V30 7042 H 668.664 -1.4288 3.82164 0
M  V30 7043 H 667.339 -0.323162 4.14643 0
M  V30 7044 H 665.916 -1.89728 3.21026 0
M  V30 7045 N 668.101 -1.57061 -0.130224 0
M  V30 7046 C 669.034 -1.94698 -1.19029 0
M  V30 7047 C 670.012 -0.815074 -1.40696 0
M  V30 7048 O 671.196 -1.07223 -1.55034 0
M  V30 7049 C 668.323 -2.23352 -2.5462 0
M  V30 7050 C 667.369 -3.45945 -2.49448 0
M  V30 7051 S 668.202 -4.98927 -1.94505 0
M  V30 7052 C 669.358 -5.30721 -3.31792 0
M  V30 7053 H 669.591 -2.84308 -0.869272 0
M  V30 7054 H 667.124 -1.50688 -0.336531 0
M  V30 7055 H 669.082 -2.40539 -3.32643 0
M  V30 7056 H 667.743 -1.34376 -2.83905 0
M  V30 7057 H 666.936 -3.63324 -3.49302 0
M  V30 7058 H 666.538 -3.28086 -1.79543 0
M  V30 7059 H 668.83 -5.25215 -4.27966 0
M  V30 7060 H 669.773 -6.32048 -3.19251 0
M  V30 7061 H 670.181 -4.5821 -3.29703 0
M  V30 7062 N 669.579 0.400081 -1.52437 0
M  V30 7063 C 670.509 1.4947 -1.7939 0
M  V30 7064 C 671.49 1.57383 -0.645329 0
M  V30 7065 O 672.675 1.72511 -0.891826 0
M  V30 7066 C 669.805 2.87201 -1.95276 0
M  V30 7067 C 668.759 2.94134 -3.10917 0
M  V30 7068 C 668.085 4.34207 -3.1204 0
M  V30 7069 C 669.385 2.64791 -4.50203 0
M  V30 7070 H 671.079 1.27165 -2.71052 0
M  V30 7071 H 668.625 0.610312 -1.30427 0
M  V30 7072 H 670.578 3.63772 -2.12715 0
M  V30 7073 H 669.302 3.10819 -1.00294 0
M  V30 7074 H 667.961 2.20009 -2.93243 0
M  V30 7075 H 667.609 4.54848 -2.14761 0
M  V30 7076 H 667.309 4.39768 -3.89715 0
M  V30 7077 H 668.833 5.127 -3.31619 0
M  V30 7078 H 670.247 3.31083 -4.68035 0
M  V30 7079 H 668.644 2.81717 -5.29864 0
M  V30 7080 H 669.714 1.60184 -4.57678 0
M  V30 7081 N 671.057 1.43213 0.657864 0
M  V30 7082 C 672.473 1.26511 0.972992 0
M  V30 7083 C 672.673 0.181477 2.00681 0
M  V30 7084 O 671.729 -0.441649 2.48608 0
M  V30 7085 C 673.042 2.62784 1.46168 0
M  V30 7086 C 674.59 2.70278 1.57857 0
M  V30 7087 C 675.065 4.06958 2.10117 0
M  V30 7088 N 676.556 4.08999 2.17426 0
M  V30 7089 C 677.291 5.11585 2.58975 0
M  V30 7090 N 676.787 6.24548 2.99853 0
M  V30 7091 N 678.58 4.9894 2.58873 0
M  V30 7092 H 670.731 2.12384 -0.0263129 0
M  V30 7093 H 672.994 0.946638 0.0507992 0
M  V30 7094 H 672.7 3.43022 0.776474 0
M  V30 7095 H 672.574 2.87863 2.43751 0
M  V30 7096 H 674.961 1.90376 2.25479 0
M  V30 7097 H 675.042 2.4897 0.587179 0
M  V30 7098 H 674.686 4.87325 1.43098 0
M  V30 7099 H 674.616 4.25628 3.10078 0
M  V30 7100 H 677.107 3.27457 1.88627 0
M  V30 7101 H 677.42 6.98661 3.30292 0
M  V30 7102 H 675.765 6.28027 2.97669 0
M  V30 7103 H 678.956 4.09757 2.26311 0
M  V30 7104 H 679.129 5.79019 2.90932 0
M  V30 7105 N 672.536 -0.895792 1.29666 0
M  V30 7106 C 673.483 -2.00035 1.15129 0
M  V30 7107 C 674.453 -1.66043 0.0435819 0
M  V30 7108 O 675.638 -1.89621 0.211811 0
M  V30 7109 C 672.778 -3.34774 0.83787 0
M  V30 7110 C 671.891 -3.81525 2.0264 0
M  V30 7111 C 671.026 -5.04858 1.65201 0
M  V30 7112 C 670.065 -5.43988 2.80612 0
M  V30 7113 N 669.202 -6.58507 2.43544 0
M  V30 7114 H 674.042 -2.11802 2.09628 0
M  V30 7115 H 671.579 -1.03719 1.04311 0
M  V30 7116 H 673.537 -4.12311 0.636824 0
M  V30 7117 H 672.167 -3.22724 -0.0702314 0
M  V30 7118 H 671.219 -2.9999 2.33903 0
M  V30 7119 H 672.531 -4.06472 2.89106 0
M  V30 7120 H 671.685 -5.8999 1.41408 0
M  V30 7121 H 670.424 -4.81759 0.758893 0
M  V30 7122 H 669.429 -4.57388 3.05083 0
M  V30 7123 H 670.654 -5.69066 3.70595 0
M  V30 7124 H 668.6 -6.37004 1.56724 0
M  V30 7125 H 668.517 -6.83269 3.23542 0
M  V30 7126 H 669.785 -7.46897 2.2308 0
M  V30 7127 N 674.014 -1.12206 -1.10668 0
M  V30 7128 C 675.43 -0.857619 -1.346 0
M  V30 7129 C 675.63 0.513542 -1.94846 0
M  V30 7130 O 674.686 1.26273 -2.18658 0
M  V30 7131 C 675.999 -1.97212 -2.26998 0
M  V30 7132 C 677.547 -2.00272 -2.40542 0
M  V30 7133 C 678.022 -3.10948 -3.36267 0
M  V30 7134 N 679.513 -3.10375 -3.43834 0
M  V30 7135 C 680.248 -3.92651 -4.17867 0
M  V30 7136 N 679.744 -4.84911 -4.94807 0
M  V30 7137 N 681.537 -3.80798 -4.1346 0
M  V30 7138 H 673.688 -2.00558 -0.699306 0
M  V30 7139 H 675.951 -0.872612 -0.370477 0
M  V30 7140 H 675.657 -2.96002 -1.89936 0
M  V30 7141 H 675.531 -1.87521 -3.27286 0
M  V30 7142 H 677.918 -1.02103 -2.76874 0
M  V30 7143 H 677.999 -2.14037 -1.40077 0
M  V30 7144 H 677.643 -4.09348 -3.00661 0
M  V30 7145 H 677.573 -2.94421 -4.36605 0
M  V30 7146 H 680.064 -2.43536 -2.88961 0
M  V30 7147 H 680.377 -5.44207 -5.48688 0
M  V30 7148 H 678.722 -4.88926 -4.93939 0
M  V30 7149 H 681.913 -3.08058 -3.52445 0
M  V30 7150 H 682.086 -4.4515 -4.70898 0
M  V30 7151 N 675.492 1.28418 -0.913599 0
M  V30 7152 C 676.717 1.99643 -0.561899 0
M  V30 7153 C 677.142 1.67819 0.849608 0
M  V30 7154 O 676.5 0.910503 1.56779 0
M  V30 7155 C 676.548 3.52116 -0.777622 0
M  V30 7156 O 675.652 4.12076 0.163457 0
M  V30 7157 H 674.993 0.627229 -0.217898 0
M  V30 7158 H 677.523 1.63575 -1.229 0
M  V30 7159 H 677.533 4.02163 -0.687666 0
M  V30 7160 H 676.208 3.74613 -1.8066 0
M  V30 7161 H 674.785 3.72892 0.0247827 0
M  V30 7162 N 676.97 0.677563 1.42291 0
M  V30 7163 C 678.217 0.200975 2.015 0
M  V30 7164 C 678.545 -1.19342 1.53583 0
M  V30 7165 O 677.8 -1.81579 0.7299 0
M  V30 7166 C 678.099 0.187229 3.56909 0
M  V30 7167 C 677.765 1.52667 4.24268 0
M  V30 7168 C 676.427 1.89341 4.42384 0
M  V30 7169 C 678.779 2.40869 4.62203 0
M  V30 7170 C 676.107 3.13836 4.95705 0
M  V30 7171 C 678.459 3.64679 5.16906 0
M  V30 7172 C 677.123 4.01519 5.33234 0
M  V30 7173 H 676.393 0.0735418 0.737342 0
M  V30 7174 H 679.04 0.873095 1.70439 0
M  V30 7175 H 677.345 -0.568407 3.87655 0
M  V30 7176 H 679.042 -0.198773 4.00507 0
M  V30 7177 H 675.632 1.23138 4.1053 0
M  V30 7178 H 679.816 2.1382 4.47878 0
M  V30 7179 H 675.072 3.42396 5.06532 0
M  V30 7180 H 679.246 4.33224 5.45243 0
M  V30 7181 H 676.873 4.98062 5.74316 0
M  V30 7182 N 678.448 -1.51871 0.421078 0
M  V30 7183 C 679.696 -2.01539 -0.150492 0
M  V30 7184 C 680.017 -1.30803 -1.44623 0
M  V30 7185 O 679.287 -0.437568 -1.90951 0
M  V30 7186 H 677.867 -0.744698 -0.0586041 0
M  V30 7187 H 680.529 -1.8668 0.560059 0
M  V30 7188 H 679.625 -3.10264 -0.338068 0
M  V30 7189 N 679.926 -0.151884 -1.56866 0
M  V30 7190 C 680.874 0.80299 -2.183 0
M  V30 7191 C 681.868 1.25174 -1.14139 0
M  V30 7192 O 683.074 1.21966 -1.3238 0
M  V30 7193 H 679.449 0.277169 -0.699057 0
M  V30 7194 H 681.42 0.260699 -2.97259 0
M  V30 7195 C 680.169 2.03009 -2.82281 0
M  V30 7196 H 679.492 1.69377 -3.62148 0
M  V30 7197 H 680.932 2.67753 -3.28762 0
M  V30 7198 C 679.391 2.84123 -1.81041 0
M  V30 7199 O 679.921 3.8063 -1.28388 0
M  V30 7200 N 678.127 2.48753 -1.50234 0
M  V30 7201 H 677.674 1.70337 -1.93244 0
M  V30 7202 H 677.632 3.03316 -0.827445 0
M  V30 7203 N 681.404 1.57128 0.121893 0
M  V30 7204 C 682.815 1.73902 0.679348 0
M  V30 7205 C 683.166 0.770135 1.80453 0
M  V30 7206 O 682.291 -0.0576083 2.16323 0
M  V30 7207 C 682.886 3.15328 1.2391 0
M  V30 7208 C 681.445 3.33618 1.74288 0
M  V30 7209 C 680.592 2.6978 0.641414 0
M  V30 7210 H 683.543 1.58359 -0.104 0
M  V30 7211 H 683.564 3.16718 2.10879 0
M  V30 7212 H 683.076 3.85821 0.419957 0
M  V30 7213 H 681.177 2.68162 2.58689 0
M  V30 7214 H 681.29 4.4176 1.85432 0
M  V30 7215 H 679.654 2.30935 1.0743 0
M  V30 7216 H 680.437 3.42895 -0.166707 0
M  V30 7217 N 682.882 -0.391992 1.52647 0
M  V30 7218 C 684.129 -1.13732 1.67545 0
M  V30 7219 C 684.457 -1.90045 0.413881 0
M  V30 7220 O 683.712 -1.86157 -0.603646 0
M  V30 7221 C 684.011 -2.14401 2.85949 0
M  V30 7222 C 683.677 -1.54767 4.23507 0
M  V30 7223 C 682.339 -1.38229 4.60919 0
M  V30 7224 C 684.691 -1.11382 5.0916 0
M  V30 7225 C 682.019 -0.7685 5.81645 0
M  V30 7226 C 684.371 -0.514143 6.30507 0
M  V30 7227 C 683.035 -0.33604 6.66654 0
M  V30 7228 H 682.305 -0.416174 0.613091 0
M  V30 7229 H 684.952 -0.422327 1.86785 0
M  V30 7230 H 683.257 -2.92108 2.61114 0
M  V30 7231 H 684.954 -2.71974 2.94671 0
M  V30 7232 H 681.544 -1.68626 3.94035 0
M  V30 7233 H 685.728 -1.22962 4.80826 0
M  V30 7234 H 680.984 -0.618681 6.08262 0
M  V30 7235 H 685.158 -0.169657 6.96193 0
M  V30 7236 H 682.785 0.14166 7.60068 0
M  V30 7237 N 684.36 -1.4356 -0.65026 0
M  V30 7238 C 685.27 -1.514 -1.79207 0
M  V30 7239 C 686.286 -0.400895 -1.69319 0
M  V30 7240 O 687.462 -0.655458 -1.90436 0
M  V30 7241 C 684.527 -1.43737 -3.155 0
M  V30 7242 C 683.588 -2.65743 -3.37163 0
M  V30 7243 C 682.821 -2.58436 -4.66954 0
M  V30 7244 O 683.044 -1.63374 -5.46503 0
M  V30 7245 O 681.978 -3.48984 -4.90402 0
M  V30 7246 H 685.804 -2.47825 -1.75547 0
M  V30 7247 H 683.389 -1.25594 -0.809111 0
M  V30 7248 H 685.271 -1.41916 -3.96784 0
M  V30 7249 H 683.946 -0.504488 -3.19745 0
M  V30 7250 H 682.853 -2.73136 -2.55632 0
M  V30 7251 H 684.186 -3.58014 -3.37768 0
M  V30 7252 N 685.838 0.888903 -1.30139 0
M  V30 7253 C 687.249 1.45578 -1.16893 0
M  V30 7254 C 687.6 1.94825 0.231866 0
M  V30 7255 O 686.725 1.84661 1.12824 0
M  V30 7256 C 687.32 2.646 -2.11595 0
M  V30 7257 C 685.879 3.17389 -2.02339 0
M  V30 7258 C 685.026 1.90081 -2.01902 0
M  V30 7259 H 687.977 0.69921 -1.42467 0
M  V30 7260 H 687.998 3.40687 -1.69449 0
M  V30 7261 H 687.51 2.28726 -3.13538 0
M  V30 7262 H 685.611 3.5793 -1.03523 0
M  V30 7263 H 685.724 3.80955 -2.90534 0
M  V30 7264 H 684.088 2.08246 -1.46648 0
M  V30 7265 H 684.871 1.5647 -3.05568 0
M  V30 7266 N 687.317 1.12792 1.10072 0
M  V30 7267 C 688.249 0.757003 2.16338 0
M  V30 7268 C 689.262 -0.218144 1.61332 0
M  V30 7269 O 690.451 0.0010727 1.785 0
M  V30 7270 C 687.551 0.100303 3.38752 0
M  V30 7271 C 686.724 1.10586 4.2319 0
M  V30 7272 C 685.783 0.47609 5.24042 0
M  V30 7273 O 684.809 1.13418 5.57786 0
M  V30 7274 N 686.011 -0.754823 5.75572 0
M  V30 7275 H 688.776 1.6714 2.48766 0
M  V30 7276 H 686.337 1.02003 1.25726 0
M  V30 7277 H 688.329 -0.333092 4.03327 0
M  V30 7278 H 686.899 -0.716915 3.04268 0
M  V30 7279 H 686.119 1.71677 3.54853 0
M  V30 7280 H 687.407 1.78571 4.76435 0
M  V30 7281 H 686.805 -1.30838 5.50362 0
M  V30 7282 H 685.362 -1.13098 6.41913 0
M  V30 7283 N 688.795 -1.27931 0.920396 0
M  V30 7284 C 689.758 -2.25345 0.41858 0
M  V30 7285 C 690.758 -1.54116 -0.458798 0
M  V30 7286 O 691.948 -1.72235 -0.260912 0
M  V30 7287 C 689.08 -3.38556 -0.399104 0
M  V30 7288 H 690.273 -2.71251 1.27918 0
M  V30 7289 H 687.826 -1.39728 0.700406 0
M  V30 7290 H 688.561 -2.98021 -1.27882 0
M  V30 7291 H 688.346 -3.91426 0.229863 0
M  V30 7292 H 689.836 -4.10976 -0.740817 0
M  V30 7293 N 690.273 -0.685099 -1.4193 0
M  V30 7294 C 691.689 -0.355632 -1.55587 0
M  V30 7295 C 691.889 1.13823 -1.66273 0
M  V30 7296 O 690.945 1.92387 -1.63534 0
M  V30 7297 C 692.258 -1.09498 -2.80055 0
M  V30 7298 C 693.806 -1.07831 -2.93839 0
M  V30 7299 C 694.281 -1.79919 -4.21181 0
M  V30 7300 N 695.772 -1.76837 -4.28115 0
M  V30 7301 C 696.507 -2.29463 -5.25485 0
M  V30 7302 N 696.003 -2.90516 -6.28945 0
M  V30 7303 N 697.796 -2.19779 -5.17353 0
M  V30 7304 H 689.947 -1.65412 -1.33239 0
M  V30 7305 H 692.21 -0.697453 -0.642078 0
M  V30 7306 H 691.916 -2.14997 -2.78333 0
M  V30 7307 H 691.79 -0.666813 -3.71259 0
M  V30 7308 H 694.177 -0.0316152 -2.95083 0
M  V30 7309 H 694.258 -1.54545 -2.03837 0
M  V30 7310 H 693.902 -2.84562 -4.20698 0
M  V30 7311 H 693.832 -1.30647 -5.10136 0
M  V30 7312 H 696.323 -1.32315 -3.53979 0
M  V30 7313 H 696.636 -3.28266 -6.99615 0
M  V30 7314 H 694.981 -2.94589 -6.29478 0
M  V30 7315 H 698.172 -1.71763 -4.35448 0
M  V30 7316 H 698.345 -2.61097 -5.9307 0
M  V30 7317 N 691.751 1.51645 -0.429126 0
M  V30 7318 C 693.167 1.59394 -0.080994 0
M  V30 7319 C 693.367 1.44064 1.40882 0
M  V30 7320 O 692.423 1.27771 2.17786 0
M  V30 7321 C 693.736 2.94779 -0.593773 0
M  V30 7322 C 695.284 3.08067 -0.553494 0
M  V30 7323 C 695.759 4.45963 -1.04311 0
M  V30 7324 N 697.25 4.5226 -1.00076 0
M  V30 7325 C 697.985 5.57268 -1.35056 0
M  V30 7326 N 697.481 6.69734 -1.77282 0
M  V30 7327 N 699.274 5.47582 -1.26925 0
M  V30 7328 H 691.425 1.59856 -1.39857 0
M  V30 7329 H 693.688 0.753095 -0.575805 0
M  V30 7330 H 693.394 3.11342 -1.63583 0
M  V30 7331 H 693.268 3.77197 -0.0142202 0
M  V30 7332 H 695.655 2.91177 0.479556 0
M  V30 7333 H 695.736 2.27508 -1.16935 0
M  V30 7334 H 695.38 4.63598 -2.07459 0
M  V30 7335 H 695.31 5.25049 -0.403873 0
M  V30 7336 H 697.801 3.71537 -0.690564 0
M  V30 7337 H 698.114 7.4587 -2.02232 0
M  V30 7338 H 696.459 6.70963 -1.81202 0
M  V30 7339 H 699.65 4.58604 -0.93809 0
M  V30 7340 H 699.823 6.29308 -1.54516 0
M  V30 7341 N 693.229 0.160201 1.56784 0
M  V30 7342 C 694.139 -0.787167 2.21 0
M  V30 7343 C 695.155 -1.26167 1.19825 0
M  V30 7344 O 696.331 -1.31611 1.52448 0
M  V30 7345 C 693.396 -2.00364 2.8294 0
M  V30 7346 C 692.457 -1.5771 3.99282 0
M  V30 7347 C 691.69 -2.73558 4.58259 0
M  V30 7348 O 691.913 -3.90129 4.16119 0
M  V30 7349 O 690.847 -2.48271 5.48311 0
M  V30 7350 H 694.673 -0.270462 3.02493 0
M  V30 7351 H 692.258 -0.0674666 1.49248 0
M  V30 7352 H 694.14 -2.71529 3.22257 0
M  V30 7353 H 692.815 -2.50961 2.04451 0
M  V30 7354 H 691.722 -0.835274 3.64656 0
M  V30 7355 H 693.055 -1.11815 4.79331 0
M  V30 7356 N 694.707 -1.5719 -0.113559 0
M  V30 7357 C 695.617 -2.04041 -1.15777 0
M  V30 7358 C 696.633 -0.961812 -1.45001 0
M  V30 7359 O 697.809 -1.2737 -1.56009 0
M  V30 7360 C 694.874 -2.43994 -2.46308 0
M  V30 7361 C 693.935 -3.65962 -2.24433 0
M  V30 7362 C 693.168 -4.04 -3.4874 0
M  V30 7363 O 693.391 -3.42321 -4.56259 0
M  V30 7364 O 692.325 -4.97069 -3.3942 0
M  V30 7365 H 696.151 -2.93248 -0.789899 0
M  V30 7366 H 693.736 -1.45828 -0.324748 0
M  V30 7367 H 695.618 -2.70401 -3.23204 0
M  V30 7368 H 694.293 -1.57932 -2.82558 0
M  V30 7369 H 693.2 -3.44697 -1.45377 0
M  V30 7370 H 694.533 -4.52746 -1.93084 0
M  V30 7371 N 696.185 0.383891 -1.52853 0
M  V30 7372 C 697.601 0.724316 -1.42218 0
M  V30 7373 C 697.801 1.93943 -0.546654 0
M  V30 7374 O 696.857 2.5249 -0.0220562 0
M  V30 7375 C 698.17 0.954635 -2.85144 0
M  V30 7376 C 699.718 1.05579 -2.94656 0
M  V30 7377 C 700.193 1.3187 -4.38605 0
M  V30 7378 N 701.684 1.38681 -4.41952 0
M  V30 7379 C 702.419 1.60699 -5.50421 0
M  V30 7380 N 701.915 1.80154 -6.68967 0
M  V30 7381 N 703.708 1.6292 -5.37972 0
M  V30 7382 H 695.859 -0.4156 -2.08294 0
M  V30 7383 H 698.122 -0.123776 -0.939885 0
M  V30 7384 H 697.828 0.133829 -3.51445 0
M  V30 7385 H 697.702 1.86788 -3.27704 0
M  V30 7386 H 700.089 1.86716 -2.2852 0
M  V30 7387 H 700.17 0.120338 -2.55517 0
M  V30 7388 H 699.814 0.512416 -5.05309 0
M  V30 7389 H 699.744 2.26708 -4.75301 0
M  V30 7390 H 702.235 1.25334 -3.56511 0
M  V30 7391 H 702.548 1.96476 -7.47407 0
M  V30 7392 H 700.893 1.77368 -6.71986 0
M  V30 7393 H 704.084 1.47276 -4.44328 0
M  V30 7394 H 704.257 1.79739 -6.22574 0
M  V30 7395 N 697.663 1.43903 0.642637 0
M  V30 7396 C 698.888 1.49758 1.43483 0
M  V30 7397 C 699.313 0.119911 1.87717 0
M  V30 7398 O 698.671 -0.888558 1.58033 0
M  V30 7399 C 698.719 2.45744 2.63898 0
M  V30 7400 O 697.823 1.95101 3.63331 0
M  V30 7401 H 697.164 0.506138 0.429791 0
M  V30 7402 H 699.694 1.88923 0.785438 0
M  V30 7403 H 699.704 2.63399 3.11584 0
M  V30 7404 H 698.379 3.45818 2.31046 0
M  V30 7405 H 696.956 1.87158 3.22531 0
M  V30 7406 N 699.141 -0.881989 1.30609 0
M  V30 7407 C 700.074 -1.99066 1.11571 0
M  V30 7408 C 701.052 -1.62584 0.022516 0
M  V30 7409 O 702.236 -1.87671 0.176644 0
M  V30 7410 C 699.363 -3.3134 0.702237 0
M  V30 7411 C 698.409 -3.86807 1.79673 0
M  V30 7412 S 699.242 -4.13735 3.39976 0
M  V30 7413 C 700.398 -5.49024 3.00538 0
M  V30 7414 H 700.631 -2.1491 2.05429 0
M  V30 7415 H 698.164 -1.03074 1.14957 0
M  V30 7416 H 700.122 -4.07796 0.470415 0
M  V30 7417 H 698.783 -3.13349 -0.217034 0
M  V30 7418 H 697.976 -4.82397 1.45977 0
M  V30 7419 H 697.578 -3.17102 1.98298 0
M  V30 7420 H 699.87 -6.30208 2.48684 0
M  V30 7421 H 700.813 -5.8766 3.95046 0
M  V30 7422 H 701.221 -5.11726 2.3832 0
M  V30 7423 N 700.619 -1.13374 -1.09472 0
M  V30 7424 C 701.844 -0.918711 -1.85942 0
M  V30 7425 C 702.269 0.527225 -1.8056 0
M  V30 7426 O 701.627 1.37408 -1.18274 0
M  V30 7427 C 701.675 -1.41056 -3.31867 0
M  V30 7428 O 700.779 -0.595496 -4.08078 0
M  V30 7429 H 700.12 -0.329297 -0.576593 0
M  V30 7430 H 702.65 -1.50829 -1.38245 0
M  V30 7431 H 702.66 -1.41398 -3.82715 0
M  V30 7432 H 701.335 -2.46335 -3.35099 0
M  V30 7433 H 699.912 -0.659911 -3.67014 0
M  V30 7434 N 702.098 1.27442 -0.927168 0
M  V30 7435 C 703.061 2.2512 -0.430525 0
M  V30 7436 C 704.061 1.54357 0.450619 0
M  V30 7437 O 705.251 1.72371 0.251774 0
M  V30 7438 C 702.383 3.38763 0.381144 0
M  V30 7439 H 703.576 2.70569 -1.29354 0
M  V30 7440 H 701.129 1.39355 -0.707806 0
M  V30 7441 H 701.864 2.98695 1.263 0
M  V30 7442 H 701.649 3.91298 -0.250618 0
M  V30 7443 H 703.139 4.11364 0.719012 0
M  V30 7444 N 703.576 0.692616 1.41565 0
M  V30 7445 C 704.987 0.297478 1.84315 0
M  V30 7446 C 705.338 -1.16379 1.57957 0
M  V30 7447 O 704.463 -1.89303 1.0485 0
M  V30 7448 C 705.058 0.533136 3.34579 0
M  V30 7449 C 703.617 0.191944 3.7591 0
M  V30 7450 C 702.764 0.816873 2.64995 0
M  V30 7451 H 705.715 0.893488 1.31158 0
M  V30 7452 H 705.736 -0.209105 3.79925 0
M  V30 7453 H 705.248 1.59674 3.53731 0
M  V30 7454 H 703.349 -0.867512 3.6236 0
M  V30 7455 H 703.462 0.644902 4.7474 0
M  V30 7456 H 701.826 0.246715 2.53502 0
M  V30 7457 H 702.609 1.88429 2.86966 0
M  V30 7458 N 705.054 -1.51416 0.437162 0
M  V30 7459 C 706.302 -2.01687 -0.129108 0
M  V30 7460 C 706.623 -1.32329 -1.43227 0
M  V30 7461 O 705.893 -0.457796 -1.90476 0
M  V30 7462 H 704.473 -0.745277 -0.0507023 0
M  V30 7463 H 707.135 -1.86075 0.579828 0
M  V30 7464 H 706.231 -3.10605 -0.305141 0
M  V30 7465 N 706.532 -0.168513 -1.56696 0
M  V30 7466 C 707.48 0.779791 -2.19139 0
M  V30 7467 C 708.474 1.23957 -1.1546 0
M  V30 7468 O 709.68 1.20555 -1.33666 0
M  V30 7469 H 706.055 0.269739 -0.701958 0
M  V30 7470 H 708.026 0.229156 -2.97519 0
M  V30 7471 C 706.775 2.00003 -2.84419 0
M  V30 7472 H 706.098 1.65527 -3.63924 0
M  V30 7473 H 707.538 2.64251 -3.31583 0
M  V30 7474 C 705.997 2.82187 -1.84044 0
M  V30 7475 O 706.527 3.79247 -1.32418 0
M  V30 7476 N 704.733 2.47145 -1.52864 0
M  V30 7477 H 704.28 1.68277 -1.9504 0
M  V30 7478 H 704.238 3.02422 -0.859569 0
M  V30 7479 N 708.01 1.57248 0.105221 0
M  V30 7480 C 708.94 2.04374 1.12931 0
M  V30 7481 C 709.921 0.93074 1.42377 0
M  V30 7482 O 711.106 1.20136 1.52581 0
M  V30 7483 C 708.236 2.45967 2.45189 0
M  V30 7484 C 707.19 3.60838 2.30174 0
M  V30 7485 C 706.516 3.88374 3.67518 0
M  V30 7486 C 707.816 4.92084 1.75073 0
M  V30 7487 H 709.51 2.9018 0.737287 0
M  V30 7488 H 707.056 1.39601 0.353211 0
M  V30 7489 H 709.009 2.77542 3.17094 0
M  V30 7490 H 707.733 1.57148 2.86308 0
M  V30 7491 H 706.392 3.29493 1.60716 0
M  V30 7492 H 706.04 2.96739 4.06147 0
M  V30 7493 H 705.74 4.65703 3.58321 0
M  V30 7494 H 707.264 4.22415 4.40906 0
M  V30 7495 H 708.678 5.22106 2.36809 0
M  V30 7496 H 707.075 5.73507 1.76662 0
M  V30 7497 H 708.145 4.79684 0.709347 0
M  V30 7498 N 709.488 -0.375779 1.53054 0
M  V30 7499 C 710.418 -1.46598 1.81745 0
M  V30 7500 C 711.399 -1.56337 0.670286 0
M  V30 7501 O 712.584 -1.71071 0.919158 0
M  V30 7502 C 709.714 -2.84058 1.99821 0
M  V30 7503 C 708.668 -2.8915 3.15557 0
M  V30 7504 C 707.994 -4.29187 3.18908 0
M  V30 7505 C 709.294 -2.57595 4.54359 0
M  V30 7506 H 710.988 -1.22837 2.73041 0
M  V30 7507 H 708.534 -0.589485 1.31381 0
M  V30 7508 H 710.487 -3.60342 2.18475 0
M  V30 7509 H 709.211 -3.09184 1.05226 0
M  V30 7510 H 707.87 -2.15316 2.96706 0
M  V30 7511 H 707.518 -4.51374 2.2197 0
M  V30 7512 H 707.218 -4.33512 3.96662 0
M  V30 7513 H 708.742 -5.07359 3.39734 0
M  V30 7514 H 710.156 -3.23595 4.73243 0
M  V30 7515 H 708.553 -2.73252 5.34279 0
M  V30 7516 H 709.623 -1.52882 4.60169 0
M  V30 7517 N 710.966 -1.44241 -0.634997 0
M  V30 7518 C 712.212 -1.47038 -1.39669 0
M  V30 7519 C 712.545 -0.101122 -1.93937 0
M  V30 7520 O 711.82 0.880699 -1.73418 0
M  V30 7521 C 712.103 -2.52763 -2.56482 0
M  V30 7522 C 711.956 -3.99032 -2.07589 0
M  V30 7523 C 713.275 -2.55031 -3.58674 0
M  V30 7524 H 710.394 -0.53537 -0.506506 0
M  V30 7525 H 713.036 -1.75898 -0.718317 0
M  V30 7526 H 711.186 -2.28284 -3.14354 0
M  V30 7527 H 712.858 -4.3463 -1.54577 0
M  V30 7528 H 711.101 -4.10994 -1.38804 0
M  V30 7529 H 711.772 -4.68649 -2.91671 0
M  V30 7530 H 714.248 -2.76893 -3.10595 0
M  V30 7531 H 713.124 -3.30916 -4.37934 0
M  V30 7532 H 713.385 -1.59085 -4.12486 0
M  V30 7533 N 712.444 0.87505 -1.31075 0
M  V30 7534 C 713.391 1.98178 -1.18296 0
M  V30 7535 C 714.361 1.65952 -0.0699923 0
M  V30 7536 O 715.546 1.8926 -0.241951 0
M  V30 7537 C 712.686 3.33399 -0.891024 0
M  V30 7538 C 711.799 3.78253 -2.08684 0
M  V30 7539 C 710.934 5.02166 -1.73212 0
M  V30 7540 C 709.973 5.39455 -2.89231 0
M  V30 7541 N 709.11 6.54549 -2.53989 0
M  V30 7542 H 713.95 2.0844 -2.12971 0
M  V30 7543 H 711.487 1.02047 -1.05948 0
M  V30 7544 H 713.445 4.11246 -0.702338 0
M  V30 7545 H 712.075 3.22794 0.0188799 0
M  V30 7546 H 711.127 2.9623 -2.38646 0
M  V30 7547 H 712.439 4.01821 -2.95536 0
M  V30 7548 H 711.593 5.87666 -1.50777 0
M  V30 7549 H 710.332 4.80491 -0.83544 0
M  V30 7550 H 709.337 4.52477 -3.12321 0
M  V30 7551 H 710.562 5.63098 -3.79601 0
M  V30 7552 H 708.508 6.3443 -1.66838 0
M  V30 7553 H 708.425 6.78035 -3.34372 0
M  V30 7554 H 709.693 7.43254 -2.34934 0
M  V30 7555 N 713.922 1.13953 1.08869 0
M  V30 7556 C 714.832 0.835666 2.19212 0
M  V30 7557 C 715.848 -0.182005 1.73045 0
M  V30 7558 O 717.024 -0.0116661 2.01397 0
M  V30 7559 C 714.089 0.312325 3.4529 0
M  V30 7560 C 713.15 1.39196 4.06107 0
M  V30 7561 C 712.383 0.893496 5.26168 0
M  V30 7562 O 712.606 -0.266807 5.69776 0
M  V30 7563 O 711.54 1.67037 5.78258 0
M  V30 7564 H 715.366 1.75769 2.47667 0
M  V30 7565 H 712.951 0.917421 1.17914 0
M  V30 7566 H 714.833 0.0261582 4.21392 0
M  V30 7567 H 713.508 -0.582042 3.18424 0
M  V30 7568 H 712.415 1.73152 3.31616 0
M  V30 7569 H 713.748 2.26068 4.37212 0
M  V30 7570 N 715.4 -1.26948 0.933913 0
M  V30 7571 C 716.648 -1.93704 0.576484 0
M  V30 7572 C 716.969 -1.73702 -0.886145 0
M  V30 7573 O 716.239 -1.08838 -1.62884 0
M  V30 7574 H 714.819 -0.716812 0.210214 0
M  V30 7575 H 717.481 -1.54534 1.18766 0
M  V30 7576 H 716.577 -3.01987 0.788055 0
M  V30 7577 N 716.879 -0.700114 -1.41195 0
M  V30 7578 C 718.126 -0.233006 -2.01155 0
M  V30 7579 C 718.454 1.16883 -1.55462 0
M  V30 7580 O 717.709 1.80395 -0.758695 0
M  V30 7581 C 718.008 -0.243986 -3.56566 0
M  V30 7582 C 717.674 -1.59397 -4.21786 0
M  V30 7583 C 716.336 -1.96355 -4.39316 0
M  V30 7584 C 718.688 -2.48192 -4.58312 0
M  V30 7585 C 716.016 -3.21683 -4.9065 0
M  V30 7586 C 718.368 -3.72857 -5.11039 0
M  V30 7587 C 717.032 -4.09951 -5.26779 0
M  V30 7588 H 716.302 -0.085263 -0.736078 0
M  V30 7589 H 718.949 -0.9001 -1.69028 0
M  V30 7590 H 717.254 0.506663 -3.8851 0
M  V30 7591 H 718.951 0.135031 -4.00773 0
M  V30 7592 H 715.541 -1.29654 -4.08519 0
M  V30 7593 H 719.725 -2.20918 -4.4442 0
M  V30 7594 H 714.981 -3.50412 -5.01021 0
M  V30 7595 H 719.155 -4.41844 -5.38282 0
M  V30 7596 H 716.782 -5.07136 -5.66319 0
M  V30 7597 N 718.357 1.51182 -0.445186 0
M  V30 7598 C 719.605 2.01753 0.11841 0
M  V30 7599 C 719.926 1.33087 1.42523 0
M  V30 7600 O 719.196 0.467891 1.9023 0
M  V30 7601 H 717.776 0.745536 0.0467492 0
M  V30 7602 H 720.438 1.85765 -0.589688 0
M  V30 7603 H 719.534 3.10762 0.288665 0
M  V30 7604 N 719.835 0.176821 1.56605 0
M  V30 7605 C 720.745 -0.763682 2.21822 0
M  V30 7606 C 721.761 -1.24889 1.21156 0
M  V30 7607 O 722.937 -1.29987 1.53836 0
M  V30 7608 C 720.002 -1.97352 2.8505 0
M  V30 7609 C 719.063 -1.53466 4.00932 0
M  V30 7610 C 718.296 -2.68682 4.61135 0
M  V30 7611 O 718.519 -3.85694 4.20234 0
M  V30 7612 O 717.453 -2.42442 5.50913 0
M  V30 7613 H 721.279 -0.238363 3.02763 0
M  V30 7614 H 718.864 -0.0516331 1.49311 0
M  V30 7615 H 720.746 -2.68096 3.25119 0
M  V30 7616 H 719.421 -2.48779 2.07101 0
M  V30 7617 H 718.328 -0.796551 3.65521 0
M  V30 7618 H 719.661 -1.06724 4.8049 0
M  V30 7619 N 721.313 -1.57302 -0.09688 0
M  V30 7620 C 722.561 -1.8563 -0.799117 0
M  V30 7621 C 722.882 -0.765263 -1.79356 0
M  V30 7622 O 722.152 0.208657 -1.94786 0
M  V30 7623 H 720.732 -0.684937 -0.298111 0
M  V30 7624 H 723.394 -1.9474 -0.0789341 0
M  V30 7625 H 722.49 -2.82305 -1.3308 0
M  V30 7626 N 722.791 0.367657 -1.53252 0
M  V30 7627 C 724.039 1.10832 -1.68999 0
M  V30 7628 C 724.36 1.89894 -0.443306 0
M  V30 7629 O 723.63 1.88235 0.54262 0
M  V30 7630 H 722.21 0.412153 -0.623008 0
M  V30 7631 H 724.872 0.414775 -1.90435 0
M  V30 7632 H 723.968 1.7993 -2.55013 0
M  V30 7633 N 724.269 1.44576 0.627338 0
M  V30 7634 C 725.216 1.51734 1.73912 0
M  V30 7635 C 726.186 0.364745 1.62046 0
M  V30 7636 O 727.371 0.575503 1.81914 0
M  V30 7637 C 724.511 1.47116 3.12171 0
M  V30 7638 C 723.624 2.72778 3.34986 0
M  V30 7639 C 722.759 2.59968 4.63239 0
M  V30 7640 C 721.798 3.80776 4.79245 0
M  V30 7641 N 720.935 3.66618 5.98778 0
M  V30 7642 H 725.775 2.46722 1.6713 0
M  V30 7643 H 723.312 1.22444 0.815224 0
M  V30 7644 H 725.27 1.42429 3.92135 0
M  V30 7645 H 723.9 0.556928 3.17959 0
M  V30 7646 H 722.952 2.87637 2.48936 0
M  V30 7647 H 724.264 3.62441 3.42692 0
M  V30 7648 H 723.418 2.53135 5.51369 0
M  V30 7649 H 722.157 1.67872 4.57898 0
M  V30 7650 H 721.162 3.87989 3.89544 0
M  V30 7651 H 722.387 4.73913 4.86398 0
M  V30 7652 H 720.333 2.77277 5.9452 0
M  V30 7653 H 720.25 4.499 6.07557 0
M  V30 7654 H 721.518 3.63684 6.89459 0
M  V30 7655 N 725.747 -0.868086 1.31537 0
M  V30 7656 C 726.972 -1.65926 1.24432 0
M  V30 7657 C 727.397 -1.87169 -0.186936 0
M  V30 7658 O 726.755 -1.4148 -1.13371 0
M  V30 7659 C 726.803 -3.00347 1.9956 0
M  V30 7660 O 725.907 -3.90221 1.33422 0
M  V30 7661 H 725.248 -0.506375 0.429512 0
M  V30 7662 H 727.778 -1.0822 1.73637 0
M  V30 7663 H 727.788 -3.50269 2.09226 0
M  V30 7664 H 726.463 -2.84205 3.03645 0
M  V30 7665 H 725.04 -3.48672 1.32219 0
M  V30 7666 N 727.225 -1.14528 -1.08264 0
M  V30 7667 C 728.636 -0.925261 -1.6216 0
M  V30 7668 C 728.987 0.535587 -1.88748 0
M  V30 7669 O 728.112 1.4048 -1.64604 0
M  V30 7670 C 728.707 -1.67316 -2.94603 0
M  V30 7671 C 727.266 -1.49868 -3.45278 0
M  V30 7672 C 726.413 -1.69471 -2.19487 0
M  V30 7673 H 729.364 -1.29687 -0.914707 0
M  V30 7674 H 729.385 -1.13721 -3.63109 0
M  V30 7675 H 728.897 -2.73635 -2.75219 0
M  V30 7676 H 726.998 -0.459032 -3.69762 0
M  V30 7677 H 727.111 -2.2696 -4.21931 0
M  V30 7678 H 725.475 -1.12048 -2.2873 0
M  V30 7679 H 726.258 -2.77136 -2.0261 0
M  V30 7680 N 728.703 1.26451 -0.940633 0
M  V30 7681 C 729.613 2.30128 -0.455881 0
M  V30 7682 C 730.629 1.67536 0.469867 0
M  V30 7683 O 731.805 1.98344 0.349529 0
M  V30 7684 C 728.87 3.45634 0.271648 0
M  V30 7685 C 727.931 4.23709 -0.690594 0
M  V30 7686 C 727.164 5.337 0.00231047 0
M  V30 7687 O 727.387 5.57215 1.21935 0
M  V30 7688 O 726.321 5.98091 -0.676111 0
M  V30 7689 H 730.147 2.73655 -1.31707 0
M  V30 7690 H 727.732 1.3164 -0.706497 0
M  V30 7691 H 729.614 4.15853 0.681486 0
M  V30 7692 H 728.289 3.04138 1.10824 0
M  V30 7693 H 727.196 3.55974 -1.15037 0
M  V30 7694 H 728.529 4.68953 -1.49478 0
M  V30 7695 N 730.181 0.707592 1.40822 0
M  V30 7696 C 731.111 0.0644925 2.33411 0
M  V30 7697 C 732.092 -0.754205 1.52466 0
M  V30 7698 O 733.277 -0.704749 1.80961 0
M  V30 7699 C 730.407 -0.863865 3.36385 0
M  V30 7700 C 729.361 -0.15138 4.27732 0
M  V30 7701 C 728.687 -1.19491 5.21177 0
M  V30 7702 C 729.987 0.989607 5.12839 0
M  V30 7703 H 731.681 0.837829 2.87438 0
M  V30 7704 H 729.227 0.404346 1.38207 0
M  V30 7705 H 731.18 -1.32309 4.0009 0
M  V30 7706 H 729.904 -1.66901 2.80734 0
M  V30 7707 H 728.563 0.287937 3.65467 0
M  V30 7708 H 728.211 -1.9929 4.61836 0
M  V30 7709 H 727.911 -0.723123 5.83134 0
M  V30 7710 H 729.435 -1.6544 5.8776 0
M  V30 7711 H 730.849 0.610114 5.70044 0
M  V30 7712 H 729.246 1.38926 5.83798 0
M  V30 7713 H 730.316 1.82389 4.49291 0
M  V30 7714 N 731.66 -1.50943 0.453197 0
M  V30 7715 C 733.071 -1.86699 -0.00619892 0
M  V30 7716 C 733.422 -1.3693 -1.40515 0
M  V30 7717 O 732.547 -0.726715 -2.03833 0
M  V30 7718 C 733.142 -3.38795 -0.018025 0
M  V30 7719 C 731.701 -3.74028 -0.421885 0
M  V30 7720 C 730.848 -2.74752 0.375087 0
M  V30 7721 H 733.799 -1.43942 0.668317 0
M  V30 7722 H 733.82 -3.71468 -0.824125 0
M  V30 7723 H 733.332 -3.74988 1.00028 0
M  V30 7724 H 731.433 -3.43431 -1.44521 0
M  V30 7725 H 731.546 -4.78908 -0.135664 0
M  V30 7726 H 729.91 -2.5414 -0.168794 0
M  V30 7727 H 730.693 -3.13787 1.39256 0
M  V30 7728 N 733.138 -0.185124 -1.56509 0
M  V30 7729 C 734.386 0.455357 -1.96903 0
M  V30 7730 C 734.707 1.62839 -1.07277 0
M  V30 7731 O 733.977 1.95385 -0.141966 0
M  V30 7732 H 732.557 0.171218 -0.727113 0
M  V30 7733 H 735.219 -0.26953 -1.93027 0
M  V30 7734 H 734.315 0.80616 -3.01509 0
M  V30 7735 N 734.616 1.57351 0.0885366 0
M  V30 7736 C 735.862 1.86696 0.791996 0
M  V30 7737 C 736.195 0.775148 1.78059 0
M  V30 7738 O 735.47 -0.216247 1.93294 0
M  V30 7739 C 735.753 3.26684 1.51491 0
M  V30 7740 C 735.606 4.465 0.543858 0
M  V30 7741 C 736.925 3.64664 2.46391 0
M  V30 7742 H 734.044 0.679049 0.286463 0
M  V30 7743 H 736.686 1.89919 0.0554866 0
M  V30 7744 H 734.836 3.24067 2.14273 0
M  V30 7745 H 736.508 4.61235 -0.0774597 0
M  V30 7746 H 734.751 4.33567 -0.142228 0
M  V30 7747 H 735.422 5.41192 1.08696 0
M  V30 7748 H 737.898 3.68267 1.93698 0
M  V30 7749 H 736.774 4.63534 2.93986 0
M  V30 7750 H 737.035 2.93698 3.30445 0
M  V30 7751 N 736.094 -0.359525 1.53444 0
M  V30 7752 C 737.026 -1.46098 1.76602 0
M  V30 7753 C 738.039 -1.49395 0.646912 0
M  V30 7754 O 739.228 -1.52765 0.923307 0
M  V30 7755 C 736.328 -2.84836 1.83635 0
M  V30 7756 C 735.501 -3.05164 3.13358 0
M  V30 7757 C 734.56 -4.24051 3.11556 0
M  V30 7758 O 733.586 -4.18935 3.85334 0
M  V30 7759 N 734.788 -5.31775 2.328 0
M  V30 7760 H 737.553 -1.2661 2.71643 0
M  V30 7761 H 735.114 -0.549294 1.52297 0
M  V30 7762 H 737.106 -3.62516 1.799 0
M  V30 7763 H 735.676 -2.97542 0.958509 0
M  V30 7764 H 734.896 -2.15091 3.30348 0
M  V30 7765 H 736.184 -3.15619 3.99076 0
M  V30 7766 H 735.582 -5.38796 1.7238 0
M  V30 7767 H 734.139 -6.0801 2.34877 0
M  V30 7768 N 737.572 -1.44907 -0.619662 0
M  V30 7769 C 738.482 -1.55168 -1.75955 0
M  V30 7770 C 739.498 -0.43672 -1.6843 0
M  V30 7771 O 740.674 -0.695704 -1.89002 0
M  V30 7772 C 737.739 -1.50397 -3.12381 0
M  V30 7773 C 736.8 -2.72835 -3.31451 0
M  V30 7774 C 736.033 -2.68283 -4.61368 0
M  V30 7775 O 736.256 -1.74929 -5.42914 0
M  V30 7776 O 735.19 -3.59308 -4.82889 0
M  V30 7777 H 739.016 -2.51493 -1.7025 0
M  V30 7778 H 736.601 -1.27282 -0.782289 0
M  V30 7779 H 738.483 -1.50301 -3.93685 0
M  V30 7780 H 737.158 -0.572197 -3.18603 0
M  V30 7781 H 736.065 -2.78496 -2.49781 0
M  V30 7782 H 737.398 -3.65098 -3.30098 0
M  V30 7783 N 739.05 0.861098 -1.31996 0
M  V30 7784 C 740.327 1.59788 -1.12814 0
M  V30 7785 C 740.707 2.08753 0.313882 0
M  V30 7786 O 740.055 1.87258 1.30946 0
M  V30 7787 C 740.265 2.74901 -2.15012 0
M  V30 7788 C 741.613 3.44643 -2.48004 0
M  V30 7789 O 742.637 2.85119 -2.13508 0
M  V30 7790 O 741.496 4.52044 -3.07113 0
M  V30 7791 H 738.59 0.703408 -0.434909 0
M  V30 7792 H 741.136 0.905788 -1.43505 0
M  V30 7793 H 739.908 2.36198 -3.11971 0
M  V30 7794 H 739.531 3.51792 -1.85279 0
M  V30 7795 N 740.528 1.15101 1.07655 0
M  V30 7796 C 741.438 0.858869 2.18313 0
M  V30 7797 C 742.454 -0.163641 1.73229 0
M  V30 7798 O 743.63 0.00969541 2.01398 0
M  V30 7799 C 740.695 0.34893 3.4494 0
M  V30 7800 C 739.756 1.43495 4.04608 0
M  V30 7801 C 738.989 0.949253 5.2519 0
M  V30 7802 O 739.212 -0.20636 5.70027 0
M  V30 7803 O 738.146 1.73161 5.76454 0
M  V30 7804 H 741.972 1.78386 2.45788 0
M  V30 7805 H 739.557 0.929876 1.16934 0
M  V30 7806 H 741.439 0.070851 4.2134 0
M  V30 7807 H 740.114 -0.548237 3.19024 0
M  V30 7808 H 739.021 1.7666 3.29761 0
M  V30 7809 H 740.354 2.30692 4.3479 0
M  V30 7810 N 742.006 -1.2595 0.947325 0
M  V30 7811 C 742.969 -2.24407 0.466285 0
M  V30 7812 C 743.969 -1.55054 -0.426005 0
M  V30 7813 O 745.159 -1.7275 -0.224319 0
M  V30 7814 C 742.291 -3.39326 -0.327201 0
M  V30 7815 H 743.484 -2.68477 1.33642 0
M  V30 7816 H 741.037 -1.38211 0.729887 0
M  V30 7817 H 741.772 -3.00667 -1.21532 0
M  V30 7818 H 741.557 -3.9085 0.312839 0
M  V30 7819 H 743.047 -4.12455 -0.653477 0
M  V30 7820 N 743.484 -0.715051 -1.40445 0
M  V30 7821 C 744.447 -0.0708726 -2.2909 0
M  V30 7822 C 745.447 0.687926 -1.45342 0
M  V30 7823 O 746.637 0.519908 -1.66261 0
M  V30 7824 C 743.769 0.909528 -3.28543 0
M  V30 7825 H 744.962 -0.851611 -2.87555 0
M  V30 7826 H 742.515 -0.479674 -1.48758 0
M  V30 7827 H 743.25 1.71734 -2.75096 0
M  V30 7828 H 743.035 0.368318 -3.90366 0
M  V30 7829 H 744.525 1.35744 -3.94922 0
M  V30 7830 N 744.962 1.50701 -0.461195 0
M  V30 7831 C 746.187 2.07171 0.0974773 0
M  V30 7832 C 746.612 1.32391 1.3362 0
M  V30 7833 O 745.97 0.368676 1.77512 0
M  V30 7834 C 746.018 3.58651 0.374409 0
M  V30 7835 O 745.122 3.85816 1.4567 0
M  V30 7836 H 744.463 0.663944 -0.00862047 0
M  V30 7837 H 746.993 1.94021 -0.649394 0
M  V30 7838 H 747.003 4.03295 0.617843 0
M  V30 7839 H 745.678 4.12498 -0.530829 0
M  V30 7840 H 744.255 3.53018 1.20136 0
M  V30 7841 O 746.479 0.334734 1.57993 0
M  V30 7842 H 747.17 -0.222689 1.92416 0
M  V30 END ATOM
M  V30 BEGIN BOND
M  V30 END BOND
M  V30 END CTAB
M  END
$$$$
