drugbank_target|Q8N8N7 Prostaglandin reductase 2 (DB00328; DB07177)
 OpenBabel12092120343D

  0  0  0     0  0            999 V3000
M  V30 BEGIN CTAB
M  V30 COUNTS 5384 5434 0 0 0
M  V30 BEGIN ATOM
M  V30 1 H -0.908 1.98254 -0.117106 0
M  V30 2 N 0 1.576 0 0
M  V30 3 C 0.933 2.03868 1.02534 0
M  V30 4 C 1.911 0.928543 1.3348 0
M  V30 5 O 3.095 1.19667 1.45644 0
M  V30 6 C 0.222 2.43627 2.35294 0
M  V30 7 C -0.732 3.65373 2.2001 0
M  V30 8 S 0.101 5.13292 1.52614 0
M  V30 9 C 1.257 5.56322 2.86805 0
M  V30 10 H 1.49 2.90518 0.631377 0
M  V30 11 H -0.977 1.52953 0.210867 0
M  V30 12 H 0.981 2.67203 3.11629 0
M  V30 13 H -0.358 1.57376 2.7183 0
M  V30 14 H -1.165 3.90944 3.18086 0
M  V30 15 H -1.563 3.418 1.51819 0
M  V30 16 H 0.729 5.58782 3.83104 0
M  V30 17 H 1.672 6.56266 2.65933 0
M  V30 18 H 2.08 4.83886 2.90714 0
M  V30 19 N 1.4781 -0.272755 1.55222 0
M  V30 20 C 2.7271 -1.00211 1.75045 0
M  V30 21 C 3.0401 -1.87441 0.559046 0
M  V30 22 O 4.2461 -2.63856 0.639698 0
M  V30 23 C 2.7021 -1.83165 3.09804 0
M  V30 24 C 2.3101 -1.008 4.36513 0
M  V30 25 C 4.0541 -2.55529 3.38977 0
M  V30 26 C 1.9611 -1.83194 5.62311 0
M  V30 27 H 0.8911 -0.377878 0.652476 0
M  V30 28 H 3.5421 -0.257776 1.8168 0
M  V30 29 H 1.9241 -2.61694 2.97207 0
M  V30 30 H 3.0981 -0.266855 4.60027 0
M  V30 31 H 1.4131 -0.398897 4.14485 0
M  V30 32 H 4.0101 -3.17578 4.30172 0
M  V30 33 H 4.3531 -3.25825 2.59121 0
M  V30 34 H 4.8861 -1.84029 3.52673 0
M  V30 35 H 1.6251 -1.17318 6.44916 0
M  V30 36 H 1.1451 -2.54905 5.4294 0
M  V30 37 H 2.8241 -2.40552 6.00619 0
M  V30 38 N 2.9562 -1.48159 -0.537278 0
M  V30 39 C 4.2022 -1.56035 -1.29541 0
M  V30 40 C 4.5352 -0.230377 -1.92829 0
M  V30 41 O 3.8102 0.762952 -1.78911 0
M  V30 42 C 4.0932 -2.69323 -2.39034 0
M  V30 43 C 3.9462 -4.12002 -1.80485 0
M  V30 44 C 5.2652 -2.78408 -3.40847 0
M  V30 45 H 2.3842 -0.567992 -0.469632 0
M  V30 46 H 5.0262 -1.80302 -0.599277 0
M  V30 47 H 3.1762 -2.48763 -2.98412 0
M  V30 48 H 4.8482 -4.43981 -1.25215 0
M  V30 49 H 3.0912 -4.19344 -1.11055 0
M  V30 50 H 3.7622 -4.87077 -2.59731 0
M  V30 51 H 6.2382 -2.97012 -2.91416 0
M  V30 52 H 5.1142 -3.59416 -4.14863 0
M  V30 53 H 5.3752 -1.86269 -4.00944 0
M  V30 54 N 4.4343 0.785586 -1.36625 0
M  V30 55 C 5.3663 1.90711 -1.2713 0
M  V30 56 C 6.3793 1.61688 -0.189986 0
M  V30 57 O 7.5683 1.72864 -0.445014 0
M  V30 58 C 4.6683 3.25611 -0.939713 0
M  V30 59 C 3.8413 3.82385 -2.12369 0
M  V30 60 C 2.9003 4.95732 -1.76456 0
M  V30 61 O 1.9263 5.12047 -2.48589 0
M  V30 62 N 3.1283 5.76258 -0.700492 0
M  V30 63 H 5.8933 1.99376 -2.23762 0
M  V30 64 H 3.4543 0.964041 -1.30069 0
M  V30 65 H 5.4463 3.98937 -0.680554 0
M  V30 66 H 4.0163 3.12538 -0.0624074 0
M  V30 67 H 3.2363 3.01001 -2.54543 0
M  V30 68 H 4.5243 4.17047 -2.9146 0
M  V30 69 H 3.9223 5.65609 -0.101624 0
M  V30 70 H 2.4793 6.4987 -0.501165 0
M  V30 71 N 5.9124 1.20967 1.01018 0
M  V30 72 C 7.3284 0.965905 1.27053 0
M  V30 73 C 7.5284 -0.350785 1.98423 0
M  V30 74 O 6.5844 -1.07773 2.28344 0
M  V30 75 C 7.8974 2.15294 2.09926 0
M  V30 76 C 9.4454 2.19463 2.23171 0
M  V30 77 C 9.9204 3.3767 3.09424 0
M  V30 78 N 11.4114 3.37724 3.17012 0
M  V30 79 C 12.1464 4.25837 3.83993 0
M  V30 80 N 11.6424 5.24138 4.53047 0
M  V30 81 N 13.4354 4.1366 3.80581 0
M  V30 82 H 5.5864 2.0565 0.531194 0
M  V30 83 H 7.8494 0.90024 0.297106 0
M  V30 84 H 7.5554 3.10684 1.64828 0
M  V30 85 H 7.4294 2.13923 3.10672 0
M  V30 86 H 9.8164 1.24632 2.6749 0
M  V30 87 H 9.8974 2.2488 1.21912 0
M  V30 88 H 9.5414 4.32791 2.65808 0
M  V30 89 H 9.4714 3.29491 4.10784 0
M  V30 90 H 11.9624 2.6658 2.6785 0
M  V30 91 H 12.2754 5.87684 5.01844 0
M  V30 92 H 10.6204 5.28068 4.5185 0
M  V30 93 H 13.8114 3.36127 3.25785 0
M  V30 94 H 13.9844 4.82538 4.32505 0
M  V30 95 N 7.3905 -1.2043 1.01659 0
M  V30 96 C 8.6365 -1.90079 0.706963 0
M  V30 97 C 8.9695 -1.78648 -0.761474 0
M  V30 98 O 8.2445 -1.17069 -1.55323 0
M  V30 99 C 8.5275 -3.41469 1.14327 0
M  V30 100 C 8.3805 -3.61833 2.67201 0
M  V30 101 C 9.6995 -4.34261 0.714529 0
M  V30 102 H 6.8185 -0.690254 0.2583 0
M  V30 103 H 9.4605 -1.41826 1.26433 0
M  V30 104 H 7.6105 -3.82696 0.669056 0
M  V30 105 H 9.2825 -3.2986 3.22475 0
M  V30 106 H 7.5255 -3.05304 3.08175 0
M  V30 107 H 8.1965 -4.67955 2.92783 0
M  V30 108 H 10.6725 -4.00682 1.12221 0
M  V30 109 H 9.5485 -5.38806 1.04784 0
M  V30 110 H 9.8095 -4.40431 -0.383799 0
M  V30 111 N 8.8686 -0.792821 -1.36206 0
M  V30 112 C 10.1146 -0.36733 -1.99446 0
M  V30 113 C 10.4476 1.05917 -1.62774 0
M  V30 114 O 9.7226 1.7324 -0.88421 0
M  V30 115 C 10.0056 -0.535044 -3.56103 0
M  V30 116 C 9.8586 -2.00548 -4.02617 0
M  V30 117 C 11.1776 0.0478191 -4.40074 0
M  V30 118 H 8.2966 -0.134941 -0.724541 0
M  V30 119 H 10.9386 -0.999794 -1.61568 0
M  V30 120 H 9.0886 0.00336329 -3.885 0
M  V30 121 H 10.7606 -2.60521 -3.80692 0
M  V30 122 H 9.0036 -2.50686 -3.54032 0
M  V30 123 H 9.6746 -2.07377 -5.11565 0
M  V30 124 H 12.1506 -0.411822 -4.14057 0
M  V30 125 H 11.0266 -0.0995336 -5.4881 0
M  V30 126 H 11.2876 1.14025 -4.27142 0
M  V30 127 N 10.3467 1.47872 -0.545128 0
M  V30 128 C 11.2767 2.32661 0.197793 0
M  V30 129 C 12.2577 1.43041 0.920504 0
M  V30 130 O 13.4427 1.71912 0.90333 0
M  V30 131 C 10.5727 3.24569 1.23582 0
M  V30 132 C 9.5267 4.23333 0.630323 0
M  V30 133 C 8.8527 5.0448 1.77211 0
M  V30 134 C 10.1527 5.20704 -0.407974 0
M  V30 135 H 11.8467 2.95024 -0.510045 0
M  V30 136 H 9.3927 1.4187 -0.246731 0
M  V30 137 H 11.3457 3.8272 1.76362 0
M  V30 138 H 10.0697 2.60236 1.97344 0
M  V30 139 H 8.7287 3.6639 0.123922 0
M  V30 140 H 8.3767 4.36561 2.49847 0
M  V30 141 H 8.0767 5.71339 1.37281 0
M  V30 142 H 9.6007 5.65487 2.3034 0
M  V30 143 H 11.0147 5.7329 0.033305 0
M  V30 144 H 9.4117 5.95699 -0.725486 0
M  V30 145 H 10.4817 4.66917 -1.30828 0
M  V30 146 N 11.8248 0.280983 1.55075 0
M  V30 147 C 12.7728 -0.619864 2.24188 0
M  V30 148 C 13.7668 -1.15315 1.24092 0
M  V30 149 O 14.9728 -1.1061 1.42005 0
M  V30 150 H 11.3478 -0.218459 0.719569 0
M  V30 151 H 13.3188 -0.0141831 2.98397 0
M  V30 152 C 12.0678 -1.7899 2.98091 0
M  V30 153 H 11.3908 -1.38874 3.74905 0
M  V30 154 H 12.8308 -2.39672 3.49762 0
M  V30 155 C 11.2898 -2.68192 2.03899 0
M  V30 156 O 11.8198 -3.6872 1.594 0
M  V30 157 N 10.0258 -2.35488 1.70275 0
M  V30 158 H 9.5728 -1.53787 2.06658 0
M  V30 159 H 9.5308 -2.95442 1.07524 0
M  V30 160 N 13.3029 -1.57598 0.00835791 0
M  V30 161 C 14.5279 -1.95617 -0.689103 0
M  V30 162 C 14.9529 -0.883753 -1.66046 0
M  V30 163 O 14.3109 0.157352 -1.80616 0
M  V30 164 C 14.3589 -3.32736 -1.38994 0
M  V30 165 O 13.4629 -3.27631 -2.50463 0
M  V30 166 H 12.8039 -0.638379 -0.182668 0
M  V30 167 H 15.3339 -2.045 0.064036 0
M  V30 168 H 15.3439 -3.68494 -1.75147 0
M  V30 169 H 14.0189 -4.1034 -0.677778 0
M  V30 170 H 12.5959 -3.03561 -2.16576 0
M  V30 171 N 14.781 0.264519 -1.55364 0
M  V30 172 C 16.197 0.61215 -1.47394 0
M  V30 173 C 16.397 1.89134 -0.695018 0
M  V30 174 O 15.453 2.51563 -0.217275 0
M  V30 175 C 16.766 0.731235 -2.91674 0
M  V30 176 C 18.314 0.82473 -3.01939 0
M  V30 177 C 18.789 0.975522 -4.4749 0
M  V30 178 N 20.28 1.04083 -4.51354 0
M  V30 179 C 21.015 1.17646 -5.61201 0
M  V30 180 N 20.511 1.27874 -6.80896 0
M  V30 181 N 22.304 1.20823 -5.48961 0
M  V30 182 H 14.455 -0.575456 -2.04456 0
M  V30 183 H 16.718 -0.196099 -0.927496 0
M  V30 184 H 16.424 -0.138392 -3.51428 0
M  V30 185 H 16.298 1.60883 -3.41169 0
M  V30 186 H 18.685 1.68482 -2.42276 0
M  V30 187 H 18.766 -0.0776479 -2.55682 0
M  V30 188 H 18.41 0.120058 -5.07758 0
M  V30 189 H 18.34 1.89268 -4.91412 0
M  V30 190 H 20.831 0.973846 -3.65136 0
M  V30 191 H 21.144 1.38081 -7.60364 0
M  V30 192 H 19.489 1.24863 -6.83692 0
M  V30 193 H 22.68 1.12469 -4.54388 0
M  V30 194 H 22.853 1.31049 -6.3461 0
M  V30 195 N 16.2591 1.48442 0.529413 0
M  V30 196 C 17.6701 1.5002 1.11134 0
M  V30 197 C 18.0211 0.27031 1.94329 0
M  V30 198 O 17.1461 -0.622507 2.07253 0
M  V30 199 C 17.7411 2.71834 2.02217 0
M  V30 200 C 16.3001 2.76283 2.55627 0
M  V30 201 C 15.4471 2.43542 1.326 0
M  V30 202 H 18.3981 1.5555 0.314641 0
M  V30 203 H 18.4191 2.50384 2.8651 0
M  V30 204 H 17.9311 3.61331 1.41639 0
M  V30 205 H 16.0321 1.90995 3.19924 0
M  V30 206 H 16.1451 3.77725 2.94721 0
M  V30 207 H 14.5091 1.94709 1.64196 0
M  V30 208 H 15.2921 3.3528 0.737734 0
M  V30 209 N 17.7372 -0.778329 1.37039 0
M  V30 210 C 18.9852 -1.53361 1.31623 0
M  V30 211 C 19.3062 -1.94739 -0.100831 0
M  V30 212 O 18.5762 -1.65797 -1.04347 0
M  V30 213 H 17.1562 -0.568794 0.484234 0
M  V30 214 H 19.8182 -0.926742 1.71457 0
M  V30 215 H 18.9142 -2.43606 1.95096 0
M  V30 216 N 19.2153 -1.21501 -1.00376 0
M  V30 217 C 20.1623 -0.975387 -2.09177 0
M  V30 218 C 21.1323 0.0990615 -1.65804 0
M  V30 219 O 22.3173 -0.0483147 -1.90739 0
M  V30 220 C 19.4573 -0.547507 -3.40729 0
M  V30 221 C 18.5703 -1.69153 -3.97506 0
M  V30 222 C 17.7053 -1.2127 -5.17172 0
M  V30 223 C 16.7443 -2.32897 -5.66061 0
M  V30 224 N 15.8813 -1.86138 -6.76976 0
M  V30 225 H 20.7213 -1.9068 -2.29009 0
M  V30 226 H 18.2583 -0.950257 -1.12288 0
M  V30 227 H 20.2163 -0.280667 -4.16255 0
M  V30 228 H 18.8463 0.346904 -3.20931 0
M  V30 229 H 17.8983 -2.07298 -3.18954 0
M  V30 230 H 19.2103 -2.5316 -4.29781 0
M  V30 231 H 18.3643 -0.902591 -5.99948 0
M  V30 232 H 17.1033 -0.342692 -4.86495 0
M  V30 233 H 16.1083 -2.64709 -4.81881 0
M  V30 234 H 17.3333 -3.20396 -5.98768 0
M  V30 235 H 15.2793 -1.01484 -6.48103 0
M  V30 236 H 15.1963 -2.63717 -7.08512 0
M  V30 237 H 16.4643 -1.58165 -7.63285 0
M  V30 238 N 20.6934 1.19889 -1.02296 0
M  V30 239 C 21.6414 2.24938 -0.592081 0
M  V30 240 C 22.6354 1.65257 0.372357 0
M  V30 241 O 23.8414 1.78371 0.241583 0
M  V30 242 H 20.2164 0.731787 -0.173182 0
M  V30 243 H 22.1874 2.58603 -1.48885 0
M  V30 244 C 20.9364 3.47668 0.047351 0
M  V30 245 H 20.2594 3.93875 -0.685772 0
M  V30 246 H 21.6994 4.22852 0.311862 0
M  V30 247 C 20.1584 3.11136 1.29212 0
M  V30 248 O 20.6884 3.2325 2.38479 0
M  V30 249 N 18.8944 2.65625 1.17863 0
M  V30 250 H 18.4414 2.55968 0.289493 0
M  V30 251 H 18.3994 2.41553 2.01245 0
M  V30 252 N 22.1715 0.800033 1.35784 0
M  V30 253 C 23.4195 0.376597 1.9856 0
M  V30 254 C 23.7405 -1.05812 1.63795 0
M  V30 255 O 23.0105 -1.73103 0.917171 0
M  V30 256 H 21.5905 0.136261 0.734467 0
M  V30 257 H 24.2525 1.02442 1.65806 0
M  V30 258 H 23.3485 0.477002 3.08433 0
M  V30 259 N 23.6496 -1.47581 0.552962 0
M  V30 260 C 24.5976 -2.31648 -0.21023 0
M  V30 261 C 25.5916 -1.42663 -0.913432 0
M  V30 262 O 26.7976 -1.5945 -0.835201 0
M  V30 263 H 23.1726 -0.746989 -0.0866676 0
M  V30 264 H 25.1436 -2.93869 0.518051 0
M  V30 265 C 23.8926 -3.25226 -1.22976 0
M  V30 266 H 23.2156 -3.93658 -0.698077 0
M  V30 267 H 24.6556 -3.86889 -1.73473 0
M  V30 268 C 23.1146 -2.48448 -2.27542 0
M  V30 269 O 23.6446 -2.22585 -3.34393 0
M  V30 270 N 21.8506 -2.09532 -2.01357 0
M  V30 271 H 21.3976 -2.30765 -1.14478 0
M  V30 272 H 21.3556 -1.58476 -2.71538 0
M  V30 273 N 25.1277 -0.289203 -1.54924 0
M  V30 274 C 26.5387 0.205791 -1.85562 0
M  V30 275 C 26.8897 1.54351 -1.2112 0
M  V30 276 O 26.0147 2.10435 -0.504601 0
M  V30 277 C 26.6097 0.380177 -3.3666 0
M  V30 278 C 25.1687 0.819395 -3.67373 0
M  V30 279 C 24.3157 -0.079159 -2.77187 0
M  V30 280 H 27.2667 -0.510577 -1.50262 0
M  V30 281 H 27.2877 1.21659 -3.60526 0
M  V30 282 H 26.7997 -0.593589 -3.83534 0
M  V30 283 H 24.9007 1.80413 -3.26009 0
M  V30 284 H 25.0137 0.646957 -4.74712 0
M  V30 285 H 23.3777 0.439565 -2.50878 0
M  V30 286 H 24.1607 -1.04906 -3.26878 0
M  V30 287 N 26.6058 1.57591 -0.0167156 0
M  V30 288 C 27.8518 1.91567 0.665582 0
M  V30 289 C 28.1848 0.892298 1.72487 0
M  V30 290 O 27.4598 -0.0867127 1.94307 0
M  V30 291 C 27.7428 3.36069 1.29342 0
M  V30 292 C 27.5958 4.49135 0.244541 0
M  V30 293 C 28.9148 3.803 2.21495 0
M  V30 294 H 26.0338 0.69666 0.240488 0
M  V30 295 H 28.6758 1.89866 -0.0714356 0
M  V30 296 H 26.8258 3.3765 1.92158 0
M  V30 297 H 28.4978 4.59689 -0.385228 0
M  V30 298 H 26.7408 4.3165 -0.431379 0
M  V30 299 H 27.4118 5.47242 0.723207 0
M  V30 300 H 29.8878 3.80377 1.68678 0
M  V30 301 H 28.7638 4.82127 2.62382 0
M  V30 302 H 29.0248 3.15104 3.101 0
M  V30 303 N 28.0839 -0.256276 1.55502 0
M  V30 304 C 29.0469 -1.30047 1.88734 0
M  V30 305 C 30.0469 -1.4154 0.763086 0
M  V30 306 O 31.2369 -1.40403 1.03115 0
M  V30 307 C 28.3689 -2.67953 2.10747 0
M  V30 308 H 29.5619 -1.01802 2.82093 0
M  V30 309 H 27.1149 -0.495134 1.4825 0
M  V30 310 H 27.8499 -3.01351 1.19825 0
M  V30 311 H 27.6349 -2.60993 2.92617 0
M  V30 312 H 29.1249 -3.43368 2.37673 0
M  V30 313 N 29.562 -1.4872 -0.521534 0
M  V30 314 C 30.472 -1.66569 -1.65203 0
M  V30 315 C 31.488 -0.548197 -1.65139 0
M  V30 316 O 32.664 -0.820339 -1.83936 0
M  V30 317 C 29.729 -1.70917 -3.01642 0
M  V30 318 C 28.79 -2.94356 -3.12495 0
M  V30 319 C 28.023 -2.98487 -4.42426 0
M  V30 320 O 28.246 -2.10786 -5.30024 0
M  V30 321 O 27.18 -3.90746 -4.57822 0
M  V30 322 H 31.006 -2.62298 -1.5308 0
M  V30 323 H 28.591 -1.3222 -0.695565 0
M  V30 324 H 30.473 -1.7625 -3.82771 0
M  V30 325 H 29.148 -0.783633 -3.14071 0
M  V30 326 H 28.055 -2.94552 -2.3063 0
M  V30 327 H 29.388 -3.86322 -3.04986 0
M  V30 328 N 31.0401 0.771051 -1.3745 0
M  V30 329 C 31.9881 1.90574 -1.33358 0
M  V30 330 C 32.9821 1.67936 -0.22224 0
M  V30 331 O 34.1881 1.75717 -0.390304 0
M  V30 332 H 30.5631 0.626714 -0.415612 0
M  V30 333 H 32.5341 1.91142 -2.29144 0
M  V30 334 C 31.2831 3.27845 -1.15813 0
M  V30 335 H 30.6061 3.45842 -2.00583 0
M  V30 336 H 32.0461 4.07538 -1.17 0
M  V30 337 C 30.5051 3.36625 0.136165 0
M  V30 338 O 31.0351 3.85785 1.11949 0
M  V30 339 N 29.2411 2.89997 0.187099 0
M  V30 340 H 28.7881 2.50182 -0.613753 0
M  V30 341 H 28.7461 2.96252 1.05272 0
M  V30 342 N 32.5182 1.22032 0.997298 0
M  V30 343 C 33.7652 1.04222 1.73621 0
M  V30 344 C 34.0932 -0.423264 1.89839 0
M  V30 345 O 33.3482 -1.3302 1.43542 0
M  V30 346 C 33.6472 1.69345 3.14733 0
M  V30 347 C 33.3132 3.19226 3.18442 0
M  V30 348 C 31.9752 3.60124 3.19161 0
M  V30 349 C 34.3272 4.15181 3.15078 0
M  V30 350 C 31.6552 4.95467 3.14212 0
M  V30 351 C 34.0072 5.50495 3.1167 0
M  V30 352 C 32.6712 5.90779 3.10703 0
M  V30 353 H 31.9412 0.381374 0.635323 0
M  V30 354 H 34.5882 1.51732 1.16831 0
M  V30 355 H 32.8932 1.14147 3.74803 0
M  V30 356 H 34.5902 1.53059 3.7064 0
M  V30 357 H 31.1802 2.86659 3.18629 0
M  V30 358 H 35.3642 3.84605 3.13676 0
M  V30 359 H 30.6202 5.25916 3.11805 0
M  V30 360 H 34.7942 6.24576 3.08022 0
M  V30 361 H 32.4212 6.9562 3.06622 0
M  V30 362 N 33.9963 -1.19345 1.0293 0
M  V30 363 C 35.4123 -1.41069 0.746446 0
M  V30 364 C 35.6123 -1.90078 -0.668776 0
M  V30 365 O 34.6683 -2.0778 -1.4347 0
M  V30 366 C 35.9813 -2.42141 1.78292 0
M  V30 367 C 37.5293 -2.55887 1.80252 0
M  V30 368 C 38.0043 -3.60214 2.8286 0
M  V30 369 N 39.4953 -3.67711 2.81679 0
M  V30 370 C 40.2303 -4.48128 3.57727 0
M  V30 371 N 39.7263 -5.32248 4.43491 0
M  V30 372 N 41.5193 -4.42782 3.46267 0
M  V30 373 H 33.6703 -0.858536 1.94275 0
M  V30 374 H 35.9333 -0.439541 0.839945 0
M  V30 375 H 35.6393 -2.13155 2.79746 0
M  V30 376 H 35.5133 -3.41323 1.60557 0
M  V30 377 H 37.9003 -2.84196 0.794757 0
M  V30 378 H 37.9813 -1.56858 2.02062 0
M  V30 379 H 37.6253 -3.32647 3.83807 0
M  V30 380 H 37.5553 -4.58895 2.58307 0
M  V30 381 H 40.0463 -3.07634 2.19476 0
M  V30 382 H 40.3593 -5.90729 4.98256 0
M  V30 383 H 38.7043 -5.31707 4.47564 0
M  V30 384 H 41.8953 -3.76107 2.78677 0
M  V30 385 H 42.0683 -5.05215 4.05785 0
M  V30 386 N 35.4744 -0.807222 -1.35358 0
M  V30 387 C 36.4074 -0.163572 -2.27613 0
M  V30 388 C 37.3854 0.670817 -1.48118 0
M  V30 389 O 38.5694 0.63796 -1.77376 0
M  V30 390 C 35.6964 0.773015 -3.29761 0
M  V30 391 C 34.7424 0.0181653 -4.26496 0
M  V30 392 S 35.5754 -1.31831 -5.19019 0
M  V30 393 C 36.7314 -0.38619 -6.24707 0
M  V30 394 H 36.9644 -0.945757 -2.81856 0
M  V30 395 H 34.4974 -0.602315 -1.42167 0
M  V30 396 H 36.4554 1.30788 -3.89108 0
M  V30 397 H 35.1164 1.52859 -2.74396 0
M  V30 398 H 34.3094 0.729534 -4.98692 0
M  V30 399 H 33.9114 -0.446761 -3.71322 0
M  V30 400 H 36.2034 0.428295 -6.76145 0
M  V30 401 H 37.1464 -1.07736 -6.99856 0
M  V30 402 H 37.5544 0.018398 -5.64497 0
M  V30 403 N 36.9525 1.47285 -0.560781 0
M  V30 404 C 37.8625 2.33846 0.187954 0
M  V30 405 C 38.8785 1.48412 0.908293 0
M  V30 406 O 40.0545 1.81332 0.876388 0
M  V30 407 C 37.1195 3.25178 1.2025 0
M  V30 408 C 36.1805 4.26504 0.489208 0
M  V30 409 C 35.4135 5.13472 1.45542 0
M  V30 410 O 35.6365 5.02959 2.6905 0
M  V30 411 O 34.5705 5.93902 0.977963 0
M  V30 412 H 38.3965 2.99177 -0.522177 0
M  V30 413 H 35.9815 1.45903 -0.321364 0
M  V30 414 H 37.8635 3.81584 1.78805 0
M  V30 415 H 36.5385 2.6247 1.89449 0
M  V30 416 H 35.4455 3.73847 -0.137627 0
M  V30 417 H 36.7785 4.91935 -0.161399 0
M  V30 418 N 38.4306 0.297415 1.54768 0
M  V30 419 C 39.3406 -0.58983 2.27064 0
M  V30 420 C 40.3566 -1.15144 1.30453 0
M  V30 421 O 41.5326 -1.17699 1.63428 0
M  V30 422 C 38.5976 -1.74714 2.9946 0
M  V30 423 C 37.6586 -1.21997 4.11601 0
M  V30 424 C 36.8916 -2.32212 4.80535 0
M  V30 425 O 37.1146 -3.52036 4.48806 0
M  V30 426 O 36.0486 -1.99106 5.68014 0
M  V30 427 H 39.8746 -0.00348199 3.037 0
M  V30 428 H 37.4596 0.0640035 1.49263 0
M  V30 429 H 39.3416 -2.42147 3.44881 0
M  V30 430 H 38.0166 -2.32016 2.25722 0
M  V30 431 H 36.9236 -0.511458 3.70587 0
M  V30 432 H 38.2566 -0.692419 4.87305 0
M  V30 433 N 39.9087 -1.5758 0.0250728 0
M  V30 434 C 41.1547 -1.91917 -0.655413 0
M  V30 435 C 41.4877 -0.901433 -1.72011 0
M  V30 436 O 40.7627 0.0764069 -1.9435 0
M  V30 437 C 41.0457 -3.36751 -1.27558 0
M  V30 438 C 40.8987 -4.49258 -0.220719 0
M  V30 439 C 42.2177 -3.81469 -2.19475 0
M  V30 440 H 39.3367 -0.697925 -0.23679 0
M  V30 441 H 41.9787 -1.89825 0.0815036 0
M  V30 442 H 40.1287 -3.38664 -1.90365 0
M  V30 443 H 41.8007 -4.59478 0.409601 0
M  V30 444 H 40.0437 -4.31415 0.454264 0
M  V30 445 H 40.7147 -5.47618 -0.694175 0
M  V30 446 H 43.1907 -3.81266 -1.66659 0
M  V30 447 H 42.0667 -4.83512 -2.59822 0
M  V30 448 H 42.3277 -3.16744 -3.08424 0
M  V30 449 N 41.3868 0.248026 -1.55636 0
M  V30 450 C 42.6168 0.992367 -1.81206 0
M  V30 451 C 43.0248 1.7949 -0.598324 0
M  V30 452 O 42.3678 1.78292 0.442434 0
M  V30 453 C 42.4298 1.97926 -3.00109 0
M  V30 454 C 42.0938 1.36377 -4.36177 0
M  V30 455 C 43.0908 0.76682 -5.14214 0
M  V30 456 C 40.7758 1.38347 -4.82872 0
M  V30 457 C 42.7698 0.197778 -6.37093 0
M  V30 458 C 40.4568 0.810574 -6.057 0
M  V30 459 C 41.4548 0.218754 -6.8265 0
M  V30 460 O 41.1428 -0.345298 -8.03158 0
M  V30 461 H 40.8748 0.297704 -0.606917 0
M  V30 462 H 43.4288 0.276517 -2.0353 0
M  V30 463 H 41.6588 2.73339 -2.73538 0
M  V30 464 H 43.3478 2.58694 -3.12781 0
M  V30 465 H 44.1138 0.744114 -4.79258 0
M  V30 466 H 39.9928 1.8335 -4.2297 0
M  V30 467 H 43.5368 -0.264788 -6.97097 0
M  V30 468 H 39.4338 0.830604 -6.40134 0
M  V30 469 H 40.2018 -0.237055 -8.18157 0
M  V30 470 N 42.8649 1.48995 0.513639 0
M  V30 471 C 43.7949 1.67636 1.62544 0
M  V30 472 C 44.7759 0.525087 1.61793 0
M  V30 473 O 45.9609 0.759502 1.78732 0
M  V30 474 C 43.0909 1.73114 3.01079 0
M  V30 475 C 42.0449 2.87905 3.16693 0
M  V30 476 C 41.3709 2.78486 4.56453 0
M  V30 477 C 42.6709 4.29005 2.97913 0
M  V30 478 H 44.3649 2.60716 1.47198 0
M  V30 479 H 41.9109 1.25465 0.706714 0
M  V30 480 H 43.8639 1.84742 3.78746 0
M  V30 481 H 42.5879 0.766241 3.17484 0
M  V30 482 H 41.2469 2.75859 2.41448 0
M  V30 483 H 40.8949 1.7993 4.69717 0
M  V30 484 H 40.5949 3.55523 4.67843 0
M  V30 485 H 42.1189 2.92104 5.36197 0
M  V30 486 H 43.5329 4.41798 3.65359 0
M  V30 487 H 41.9299 5.07166 3.20785 0
M  V30 488 H 42.9999 4.44329 1.94165 0
M  V30 489 N 44.343 -0.763751 1.37857 0
M  V30 490 C 45.754 -1.3405 1.29952 0
M  V30 491 C 46.105 -1.96138 -0.0492898 0
M  V30 492 O 45.23 -1.94372 -0.951239 0
M  V30 493 C 45.825 -2.43729 2.35333 0
M  V30 494 C 44.384 -2.97151 2.31037 0
M  V30 495 C 43.531 -1.70438 2.18738 0
M  V30 496 H 46.482 -0.563396 1.48363 0
M  V30 497 H 46.503 -3.23412 2.00462 0
M  V30 498 H 46.015 -1.9851 3.33489 0
M  V30 499 H 44.116 -3.46724 1.3643 0
M  V30 500 H 44.229 -3.52221 3.24772 0
M  V30 501 H 42.593 -1.93673 1.65418 0
M  V30 502 H 43.376 -1.27312 3.18821 0
M  V30 503 N 45.8211 -1.22559 -0.990812 0
M  V30 504 C 47.0981 -0.959875 -1.70428 0
M  V30 505 C 47.4781 0.524455 -2.04481 0
M  V30 506 O 46.8261 1.49302 -1.72977 0
M  V30 507 C 47.0361 -1.85955 -2.95333 0
M  V30 508 C 48.3841 -2.11687 -3.68068 0
M  V30 509 O 49.4081 -1.8342 -3.05345 0
M  V30 510 O 48.2671 -2.59572 -4.80921 0
M  V30 511 H 45.3611 -0.361154 -0.743974 0
M  V30 512 H 47.9071 -1.33554 -1.04697 0
M  V30 513 H 46.6791 -2.86346 -2.66687 0
M  V30 514 H 46.3021 -1.4856 -3.68803 0
M  V30 515 N 47.2992 1.18797 -1.03562 0
M  V30 516 C 48.2472 2.24297 -0.615905 0
M  V30 517 C 49.2412 1.65643 0.354808 0
M  V30 518 O 50.4472 1.78618 0.22265 0
M  V30 519 H 46.8222 0.729909 -0.180934 0
M  V30 520 H 48.7932 2.5701 -1.5162 0
M  V30 521 C 47.5422 3.47698 0.0104735 0
M  V30 522 H 46.8652 3.93125 -0.727509 0
M  V30 523 H 48.3052 4.23159 0.266995 0
M  V30 524 C 46.7642 3.12489 1.25905 0
M  V30 525 O 47.2942 3.25761 2.35038 0
M  V30 526 N 45.5002 2.6686 1.15039 0
M  V30 527 H 45.0472 2.56261 0.262328 0
M  V30 528 H 45.0052 2.43674 1.98672 0
M  V30 529 N 48.7773 0.814389 1.34928 0
M  V30 530 C 50.0263 0.394871 1.97797 0
M  V30 531 C 50.3393 -1.04555 1.65311 0
M  V30 532 O 51.5453 -1.56856 2.21604 0
M  V30 533 C 50.0013 0.655103 3.53888 0
M  V30 534 C 49.6093 2.10858 3.95276 0
M  V30 535 C 51.3533 0.301329 4.23429 0
M  V30 536 C 49.2603 2.31415 5.44244 0
M  V30 537 H 48.1903 0.143913 0.740139 0
M  V30 538 H 50.8413 0.999544 1.53888 0
M  V30 539 H 49.2233 -0.0196253 3.95995 0
M  V30 540 H 50.3973 2.82176 3.64298 0
M  V30 541 H 48.7123 2.42297 3.38646 0
M  V30 542 H 51.3093 0.432869 5.32945 0
M  V30 543 H 51.6523 -0.75331 4.09428 0
M  V30 544 H 52.1853 0.930288 3.86769 0
M  V30 545 H 48.9243 3.35353 5.63222 0
M  V30 546 H 48.4443 1.6463 5.76764 0
M  V30 547 H 50.1233 2.13352 6.10811 0
M  V30 548 N 50.2554 -1.46986 0.568584 0
M  V30 549 C 51.2034 -2.31858 -0.185649 0
M  V30 550 C 52.1974 -1.43624 -0.898249 0
M  V30 551 O 53.4034 -1.60327 -0.818242 0
M  V30 552 H 49.7784 -0.747866 -0.0787399 0
M  V30 553 H 51.7494 -2.93303 0.549191 0
M  V30 554 C 50.4984 -3.26513 -1.19519 0
M  V30 555 H 49.8214 -3.94377 -0.656285 0
M  V30 556 H 51.2614 -3.88707 -1.6936 0
M  V30 557 C 49.7204 -2.50847 -2.24894 0
M  V30 558 O 50.2504 -2.26119 -3.32014 0
M  V30 559 N 48.4564 -2.11656 -1.99124 0
M  V30 560 H 48.0034 -2.31966 -1.12024 0
M  V30 561 H 47.9614 -1.61347 -2.69842 0
M  V30 562 N 51.7335 -0.305618 -1.54608 0
M  V30 563 C 52.6435 0.57778 -2.27374 0
M  V30 564 C 53.6595 1.14451 -1.31061 0
M  V30 565 O 54.8355 1.16831 -1.6405 0
M  V30 566 C 51.9005 1.73123 -3.00382 0
M  V30 567 C 50.9615 1.19812 -4.12242 0
M  V30 568 C 50.1945 2.2966 -4.81759 0
M  V30 569 O 50.4175 3.49651 -4.50666 0
M  V30 570 O 49.3515 1.96091 -5.69062 0
M  V30 571 H 53.1775 -0.012624 -3.03697 0
M  V30 572 H 50.7625 -0.0719184 -1.49227 0
M  V30 573 H 52.6445 2.40315 -3.4616 0
M  V30 574 H 51.3195 2.30815 -2.26949 0
M  V30 575 H 50.2265 0.491798 -3.70853 0
M  V30 576 H 51.5595 0.666566 -4.87666 0
M  V30 577 N 53.2116 1.57565 -0.0334293 0
M  V30 578 C 54.4596 1.91598 0.642999 0
M  V30 579 C 54.7806 0.910847 1.7242 0
M  V30 580 O 54.0506 -0.0469931 1.95844 0
M  V30 581 H 52.6306 0.707228 0.240496 0
M  V30 582 H 55.2926 1.94726 -0.0822488 0
M  V30 583 H 54.3886 2.92336 1.09298 0
M  V30 584 N 54.6897 -0.239769 1.55765 0
M  V30 585 C 55.6217 -1.32001 1.87372 0
M  V30 586 C 56.6347 -1.43944 0.760522 0
M  V30 587 O 57.8237 -1.45167 1.0387 0
M  V30 588 C 54.9237 -2.69779 2.05115 0
M  V30 589 C 54.0967 -2.80014 3.36022 0
M  V30 590 C 53.1557 -3.98684 3.4342 0
M  V30 591 O 52.1817 -3.87877 4.16582 0
M  V30 592 N 53.3837 -5.12176 2.73232 0
M  V30 593 H 56.1487 -1.0522 2.80622 0
M  V30 594 H 53.7097 -0.429857 1.56089 0
M  V30 595 H 55.7017 -3.47517 2.07399 0
M  V30 596 H 54.2717 -2.89237 1.18577 0
M  V30 597 H 53.4917 -1.88896 3.45994 0
M  V30 598 H 54.7797 -2.83808 4.22292 0
M  V30 599 H 54.1777 -5.2385 2.13536 0
M  V30 600 H 52.7347 -5.88022 2.81199 0
M  V30 601 N 56.1678 -1.49265 -0.50573 0
M  V30 602 C 57.4138 -1.58748 -1.26202 0
M  V30 603 C 57.7468 -0.271227 -1.92297 0
M  V30 604 O 57.0218 0.724831 -1.80489 0
M  V30 605 C 57.3048 -2.74332 -2.33268 0
M  V30 606 C 57.1578 -4.15737 -1.71705 0
M  V30 607 C 58.4768 -2.85576 -3.34865 0
M  V30 608 H 55.5958 -0.577826 -0.457478 0
M  V30 609 H 58.2378 -1.81532 -0.560897 0
M  V30 610 H 56.3878 -2.55036 -2.93068 0
M  V30 611 H 58.0598 -4.46537 -1.15769 0
M  V30 612 H 56.3028 -4.21605 -1.02135 0
M  V30 613 H 56.9738 -4.92477 -2.49341 0
M  V30 614 H 59.4498 -3.03127 -2.8505 0
M  V30 615 H 58.3258 -3.68135 -4.07146 0
M  V30 616 H 58.5868 -1.94732 -3.96903 0
M  V30 617 N 57.6459 0.756429 -1.3826 0
M  V30 618 C 58.5779 1.87971 -1.31147 0
M  V30 619 C 59.5909 1.61248 -0.224239 0
M  V30 620 O 60.7799 1.71881 -0.481581 0
M  V30 621 C 57.8799 3.23545 -1.00857 0
M  V30 622 C 57.0529 3.77794 -2.20432 0
M  V30 623 C 56.1119 4.91877 -1.86931 0
M  V30 624 O 55.1379 5.06659 -2.59395 0
M  V30 625 N 56.3399 5.74643 -0.822568 0
M  V30 626 H 59.1049 1.94585 -2.2794 0
M  V30 627 H 56.6659 0.936234 -1.32084 0
M  V30 628 H 58.6579 3.97403 -0.765021 0
M  V30 629 H 57.2279 3.12335 -0.128687 0
M  V30 630 H 56.4479 2.95534 -2.6087 0
M  V30 631 H 57.7359 4.10771 -3.00241 0
M  V30 632 H 57.1339 5.65266 -0.221575 0
M  V30 633 H 55.6909 6.48661 -0.638899 0
M  V30 634 N 59.124 1.23083 0.984299 0
M  V30 635 C 60.37 1.06214 1.72761 0
M  V30 636 C 60.703 -0.400584 1.90024 0
M  V30 637 O 59.978 -1.29672 1.44967 0
M  V30 638 C 60.261 1.78375 3.12817 0
M  V30 639 C 60.114 3.32296 3.03149 0
M  V30 640 C 61.433 1.54309 4.12161 0
M  V30 641 H 58.552 0.387251 0.627061 0
M  V30 642 H 61.194 1.51536 1.14616 0
M  V30 643 H 59.344 1.39848 3.62457 0
M  V30 644 H 61.016 3.8032 2.61064 0
M  V30 645 H 59.259 3.6153 2.39747 0
M  V30 646 H 59.93 3.77972 4.02295 0
M  V30 647 H 62.406 1.87791 3.71314 0
M  V30 648 H 61.282 2.07281 5.08258 0
M  V30 649 H 61.543 0.477572 4.39513 0
M  V30 650 N 60.6021 -1.18246 1.0419 0
M  V30 651 C 62.0181 -1.40269 0.761366 0
M  V30 652 C 62.2181 -1.90777 -0.648578 0
M  V30 653 O 61.2741 -2.0929 -1.41258 0
M  V30 654 C 62.5871 -2.40237 1.8085 0
M  V30 655 C 64.1351 -2.53961 1.82955 0
M  V30 656 C 64.6101 -3.57194 2.86664 0
M  V30 657 N 66.1011 -3.64702 2.85563 0
M  V30 658 C 66.8361 -4.44309 3.6246 0
M  V30 659 N 66.3321 -5.27514 4.49111 0
M  V30 660 N 68.1251 -4.39084 3.50944 0
M  V30 661 H 60.2761 -0.837882 1.95175 0
M  V30 662 H 62.5391 -0.430608 0.84456 0
M  V30 663 H 62.2451 -2.10176 2.81991 0
M  V30 664 H 62.1191 -3.39601 1.64168 0
M  V30 665 H 64.5061 -2.83338 0.824855 0
M  V30 666 H 64.5871 -1.54706 2.03715 0
M  V30 667 H 64.2311 -3.28558 3.87314 0
M  V30 668 H 64.1611 -4.5613 2.6316 0
M  V30 669 H 66.6521 -3.05289 2.22727 0
M  V30 670 H 66.9651 -5.85411 5.04493 0
M  V30 671 H 65.3101 -5.2693 4.53178 0
M  V30 672 H 68.5011 -3.7313 2.82651 0
M  V30 673 H 68.6741 -5.00883 4.11121 0
M  V30 674 N 62.0802 -0.821533 -1.34494 0
M  V30 675 C 63.3082 -0.421884 -2.02553 0
M  V30 676 C 63.7232 0.971745 -1.61872 0
M  V30 677 O 63.0802 1.62864 -0.823496 0
M  V30 678 C 63.1312 -0.51285 -3.57844 0
M  V30 679 O 62.8522 -1.85155 -3.97051 0
M  V30 680 C 64.3532 -0.107921 -4.43169 0
M  V30 681 H 61.5732 -0.169482 -0.649243 0
M  V30 682 H 64.1172 -1.1093 -1.71798 0
M  V30 683 H 62.2722 0.126474 -3.87193 0
M  V30 684 H 62.6862 -1.82482 -4.91732 0
M  V30 685 H 64.1602 -0.222657 -5.51551 0
M  V30 686 H 64.6372 0.948401 -4.28838 0
M  V30 687 H 65.2432 -0.720989 -4.19144 0
M  V30 688 N 63.5583 1.46682 -0.576371 0
M  V30 689 C 64.4883 2.33028 0.148397 0
M  V30 690 C 65.4693 1.44961 0.889956 0
M  V30 691 O 66.6543 1.73789 0.866662 0
M  V30 692 C 63.7843 3.27117 1.1667 0
M  V30 693 C 62.7383 4.24575 0.540386 0
M  V30 694 C 62.0643 5.08126 1.6647 0
M  V30 695 C 63.3643 5.19722 -0.518331 0
M  V30 696 H 65.0583 2.93875 -0.572509 0
M  V30 697 H 62.6043 1.41315 -0.276768 0
M  V30 698 H 64.5573 3.86374 1.68204 0
M  V30 699 H 63.2813 2.64364 1.9178 0
M  V30 700 H 61.9403 3.66571 0.0461769 0
M  V30 701 H 61.5883 4.41762 2.40531 0
M  V30 702 H 61.2883 5.74122 1.25131 0
M  V30 703 H 62.8123 5.70246 2.18293 0
M  V30 704 H 64.2263 5.73232 -0.0883058 0
M  V30 705 H 62.6233 5.94026 -0.851679 0
M  V30 706 H 63.6933 4.64037 -1.40703 0
M  V30 707 N 65.0364 0.313813 1.54444 0
M  V30 708 C 66.2664 -0.293491 2.04505 0
M  V30 709 C 66.6744 -1.47086 1.19005 0
M  V30 710 O 66.0174 -1.82481 0.211257 0
M  V30 711 C 66.0794 -0.800455 3.50475 0
M  V30 712 C 65.7434 0.253322 4.56297 0
M  V30 713 C 66.7404 1.08612 5.08428 0
M  V30 714 C 64.4254 0.398708 5.00715 0
M  V30 715 C 66.4194 2.05013 6.0353 0
M  V30 716 C 64.1064 1.36614 5.95634 0
M  V30 717 C 65.1044 2.19033 6.46926 0
M  V30 718 O 64.7924 3.14134 7.39983 0
M  V30 719 H 64.5244 -0.0658325 0.672787 0
M  V30 720 H 67.0784 0.455177 2.00293 0
M  V30 721 H 65.3084 -1.59987 3.52053 0
M  V30 722 H 66.9974 -1.32504 3.83663 0
M  V30 723 H 67.7634 0.984736 4.74898 0
M  V30 724 H 63.6424 -0.23289 4.60411 0
M  V30 725 H 67.1864 2.69382 6.4349 0
M  V30 726 H 63.0834 1.4682 6.28581 0
M  V30 727 H 63.8514 3.0926 7.57826 0
M  V30 728 N 66.5145 -1.57545 0.0417849 0
M  V30 729 C 67.4445 -2.14009 -0.933929 0
M  V30 730 C 68.4255 -1.05938 -1.33083 0
M  V30 731 O 69.6105 -1.33833 -1.40721 0
M  V30 732 C 66.7405 -2.67747 -2.21199 0
M  V30 733 C 65.6945 -3.80718 -1.95544 0
M  V30 734 C 65.0205 -4.20935 -3.29724 0
M  V30 735 C 66.3205 -5.06258 -1.28452 0
M  V30 736 H 68.0145 -2.95788 -0.463645 0
M  V30 737 H 65.5605 -1.42285 -0.221573 0
M  V30 738 H 67.5135 -3.05886 -2.89848 0
M  V30 739 H 66.2375 -1.83147 -2.70416 0
M  V30 740 H 64.8965 -3.43037 -1.2931 0
M  V30 741 H 64.5445 -3.33298 -3.76724 0
M  V30 742 H 64.2445 -4.9707 -3.13361 0
M  V30 743 H 65.7685 -4.61666 -3.9962 0
M  V30 744 H 67.1825 -5.41903 -1.8712 0
M  V30 745 H 65.5795 -5.87475 -1.22445 0
M  V30 746 H 66.6495 -4.84207 -0.259219 0
M  V30 747 N 67.9926 0.231505 -1.5589 0
M  V30 748 C 69.2176 0.978689 -1.82856 0
M  V30 749 C 69.6426 1.77559 -0.620846 0
M  V30 750 O 69.0006 1.76119 0.430305 0
M  V30 751 C 69.0486 1.87997 -3.07716 0
M  V30 752 O 68.1526 2.97393 -2.85712 0
M  V30 753 H 67.4936 0.277663 -0.603158 0
M  V30 754 H 70.0236 0.24783 -2.03093 0
M  V30 755 H 70.0336 2.2917 -3.37558 0
M  V30 756 H 68.7086 1.29417 -3.95252 0
M  V30 757 H 67.2856 2.60238 -2.67078 0
M  V30 758 N 69.4707 1.49531 0.497807 0
M  V30 759 C 70.7167 1.59415 1.25358 0
M  V30 760 C 71.0497 0.281422 1.9215 0
M  V30 761 O 70.3247 -0.715249 1.80871 0
M  V30 762 C 70.6077 2.75566 2.3181 0
M  V30 763 C 70.4607 4.16642 1.69498 0
M  V30 764 C 71.7797 2.87347 3.33346 0
M  V30 765 H 68.8987 0.580244 0.454408 0
M  V30 766 H 71.5407 1.81827 0.551262 0
M  V30 767 H 69.6907 2.56587 2.91711 0
M  V30 768 H 71.3627 4.47145 1.13399 0
M  V30 769 H 69.6057 4.22141 0.998978 0
M  V30 770 H 70.2767 4.93792 2.46725 0
M  V30 771 H 72.7527 3.04634 2.83438 0
M  V30 772 H 71.6287 3.70289 4.05188 0
M  V30 773 H 71.8897 1.96834 3.95865 0
M  V30 774 N 70.9488 -0.749086 1.3866 0
M  V30 775 C 72.2258 -1.4992 1.25632 0
M  V30 776 C 72.6058 -2.10633 -0.140317 0
M  V30 777 O 71.9538 -1.97437 -1.15025 0
M  V30 778 C 72.1638 -2.56195 2.36992 0
M  V30 779 C 73.5118 -3.22972 2.75634 0
M  V30 780 O 74.5358 -2.66502 2.36337 0
M  V30 781 O 73.3948 -4.25122 3.43415 0
M  V30 782 H 70.4888 -0.665067 0.491544 0
M  V30 783 H 73.0348 -0.784113 1.50498 0
M  V30 784 H 71.8068 -2.09612 3.30422 0
M  V30 785 H 71.4298 -3.35279 2.13714 0
M  V30 786 N 72.4269 -1.23603 -0.977757 0
M  V30 787 C 73.8379 -1.06424 -1.53398 0
M  V30 788 C 74.1889 0.367578 -1.92726 0
M  V30 789 O 73.3139 1.25465 -1.76316 0
M  V30 790 C 73.9089 -1.92568 -2.78753 0
M  V30 791 C 72.4679 -1.79642 -3.30765 0
M  V30 792 C 71.6149 -1.88111 -2.03739 0
M  V30 793 H 74.5659 -1.37227 -0.797152 0
M  V30 794 H 74.5869 -1.45203 -3.51705 0
M  V30 795 H 74.0989 -2.96771 -2.50098 0
M  V30 796 H 72.1999 -0.782325 -3.64294 0
M  V30 797 H 72.3129 -2.63174 -4.00345 0
M  V30 798 H 70.6769 -1.31723 -2.17994 0
M  V30 799 H 71.4599 -2.93875 -1.77461 0
M  V30 800 N 73.905 1.17692 -1.04816 0
M  V30 801 C 75.135 1.91508 -0.775128 0
M  V30 802 C 75.543 1.76844 0.67253 0
M  V30 803 O 74.886 1.10057 1.47082 0
M  V30 804 C 74.948 3.43167 -1.0713 0
M  V30 805 C 74.612 3.81612 -2.51438 0
M  V30 806 C 75.609 3.84772 -3.49638 0
M  V30 807 C 73.294 4.12687 -2.86348 0
M  V30 808 C 75.288 4.18469 -4.80794 0
M  V30 809 C 72.975 4.46053 -4.17708 0
M  V30 810 C 73.973 4.48921 -5.14741 0
M  V30 811 O 73.661 4.81504 -6.43746 0
M  V30 812 H 73.393 0.614575 -0.281555 0
M  V30 813 H 75.947 1.50206 -1.40098 0
M  V30 814 H 74.177 3.84745 -0.388342 0
M  V30 815 H 75.866 3.98239 -0.784883 0
M  V30 816 H 76.632 3.60893 -3.24008 0
M  V30 817 H 72.511 4.09627 -2.11486 0
M  V30 818 H 76.055 4.20623 -5.56527 0
M  V30 819 H 71.952 4.69393 -4.43103 0
M  V30 820 H 72.72 4.99377 -6.4851 0
M  V30 821 N 75.3831 0.828654 1.34056 0
M  V30 822 C 76.3161 0.199763 2.27324 0
M  V30 823 C 77.2941 -0.647168 1.49166 0
M  V30 824 O 78.4781 -0.609661 1.78369 0
M  V30 825 C 75.6051 -0.720455 3.30949 0
M  V30 826 C 74.6511 0.0496888 4.26471 0
M  V30 827 S 75.4841 1.40072 5.16856 0
M  V30 828 C 76.6401 0.485527 6.24014 0
M  V30 829 H 76.8731 0.990478 2.80316 0
M  V30 830 H 74.4061 0.624857 1.41191 0
M  V30 831 H 76.3641 -1.24581 3.91139 0
M  V30 832 H 75.0251 -1.48474 2.76793 0
M  V30 833 H 74.2181 -0.650104 4.9979 0
M  V30 834 H 73.8201 0.505779 3.70564 0
M  V30 835 H 76.1121 -0.320672 6.76741 0
M  V30 836 H 77.0551 1.18856 6.98054 0
M  V30 837 H 77.4631 0.0714109 5.64455 0
M  V30 838 N 76.8612 -1.46375 0.584142 0
M  V30 839 C 78.2772 -1.57694 0.245929 0
M  V30 840 C 78.4772 -1.57903 -1.25175 0
M  V30 841 O 77.5332 -1.49676 -2.03355 0
M  V30 842 C 78.8462 -2.87028 0.896402 0
M  V30 843 C 80.3942 -3.00662 0.870127 0
M  V30 844 C 80.8692 -4.32734 1.50017 0
M  V30 845 N 82.3602 -4.39436 1.46458 0
M  V30 846 C 83.0952 -5.40248 1.92144 0
M  V30 847 N 82.5912 -6.47726 2.4581 0
M  V30 848 N 84.3842 -5.31459 1.83052 0
M  V30 849 H 76.5352 -1.44483 1.55687 0
M  V30 850 H 78.7982 -0.689291 0.650831 0
M  V30 851 H 78.5042 -2.9269 1.95002 0
M  V30 852 H 78.3782 -3.75014 0.405486 0
M  V30 853 H 80.7652 -2.94581 -0.174871 0
M  V30 854 H 80.8462 -2.14148 1.39908 0
M  V30 855 H 80.4902 -4.39573 2.54437 0
M  V30 856 H 80.4202 -5.18025 0.946432 0
M  V30 857 H 82.9112 -3.62367 1.07231 0
M  V30 858 H 83.2242 -7.20863 2.78525 0
M  V30 859 H 81.5692 -6.48542 2.49836 0
M  V30 860 H 84.7602 -4.46396 1.40883 0
M  V30 861 H 84.9332 -6.09881 2.18973 0
M  V30 862 N 78.3393 -0.321999 -1.54275 0
M  V30 863 C 79.5793 0.281657 -2.0245 0
M  V30 864 C 79.9433 1.49468 -1.20513 0
M  V30 865 O 81.1443 2.17109 -1.58484 0
M  V30 866 C 79.4153 0.609014 -3.52173 0
M  V30 867 S 80.9743 1.19255 -4.22284 0
M  V30 868 H 77.7923 0.0852825 -0.705867 0
M  V30 869 H 80.3943 -0.454758 -1.90137 0
M  V30 870 H 79.0983 -0.281982 -4.0943 0
M  V30 871 H 78.6293 1.37567 -3.68563 0
M  V30 872 H 80.6443 2.47944 -4.29812 0
M  V30 873 N 79.8174 1.5752 -0.0501392 0
M  V30 874 C 81.2334 1.56631 0.306402 0
M  V30 875 C 81.4334 1.0577 1.71508 0
M  V30 876 O 80.4894 0.713837 2.422 0
M  V30 877 C 81.8024 3.00393 0.135811 0
M  V30 878 C 83.3504 3.12315 0.206993 0
M  V30 879 C 83.8254 4.57954 0.064944 0
M  V30 880 N 85.3164 4.63041 0.121254 0
M  V30 881 C 86.0514 5.73389 0.0354381 0
M  V30 882 N 85.5474 6.92724 -0.102666 0
M  V30 883 N 87.3404 5.62026 0.090946 0
M  V30 884 H 79.4914 1.88903 -0.971046 0
M  V30 885 H 81.7544 0.869876 -0.376855 0
M  V30 886 H 81.4604 3.41635 -0.835384 0
M  V30 887 H 81.3344 3.66373 0.897275 0
M  V30 888 H 83.7214 2.70973 1.16866 0
M  V30 889 H 83.8024 2.49016 -0.585208 0
M  V30 890 H 83.4464 4.99981 -0.893394 0
M  V30 891 H 83.3764 5.19258 0.876277 0
M  V30 892 H 85.8674 3.77216 0.227284 0
M  V30 893 H 86.1804 7.72633 -0.160882 0
M  V30 894 H 84.5254 6.94864 -0.137737 0
M  V30 895 H 87.7164 4.67684 0.197388 0
M  V30 896 H 87.8894 6.47997 0.0206089 0
M  V30 897 N 81.2955 -0.223234 1.56011 0
M  V30 898 C 82.2285 -1.30377 1.87289 0
M  V30 899 C 83.2065 -1.45286 0.730112 0
M  V30 900 O 84.3905 -1.61126 0.978302 0
M  V30 901 C 81.5175 -2.67431 2.07843 0
M  V30 902 C 80.5635 -2.69546 3.30526 0
M  V30 903 S 81.3965 -2.23781 4.865 0
M  V30 904 C 82.5525 -3.62714 5.10088 0
M  V30 905 H 82.7855 -1.03652 2.78646 0
M  V30 906 H 80.3185 -0.425393 1.48424 0
M  V30 907 H 82.2765 -3.46336 2.20368 0
M  V30 908 H 80.9375 -2.91381 1.17285 0
M  V30 909 H 80.1305 -3.70255 3.41947 0
M  V30 910 H 79.7325 -1.98703 3.16849 0
M  V30 911 H 82.0245 -4.58391 4.98883 0
M  V30 912 H 82.9675 -3.5621 6.11981 0
M  V30 913 H 83.3755 -3.56323 4.37829 0
M  V30 914 N 82.7736 -1.49793 -0.48987 0
M  V30 915 C 83.7216 -1.67783 -1.61095 0
M  V30 916 C 84.7156 -0.543683 -1.60438 0
M  V30 917 O 85.9216 -0.723647 -1.64813 0
M  V30 918 H 82.2966 -0.529255 -0.534222 0
M  V30 919 H 84.2676 -2.61861 -1.43078 0
M  V30 920 C 83.0166 -1.77191 -2.99164 0
M  V30 921 H 82.3396 -2.63841 -3.0038 0
M  V30 922 H 83.7796 -1.93809 -3.77113 0
M  V30 923 C 82.2386 -0.519203 -3.32875 0
M  V30 924 O 82.7686 0.350124 -4.00171 0
M  V30 925 N 80.9746 -0.378816 -2.8812 0
M  V30 926 H 80.5216 -1.08725 -2.33531 0
M  V30 927 H 80.4796 0.458239 -3.11043 0
M  V30 928 N 84.2517 0.741722 -1.39055 0
M  V30 929 C 85.1617 1.88621 -1.39496 0
M  V30 930 C 86.1777 1.71557 -0.290578 0
M  V30 931 O 87.3537 1.94275 -0.530954 0
M  V30 932 C 84.4187 3.24134 -1.23037 0
M  V30 933 C 83.4797 3.5364 -2.43387 0
M  V30 934 C 82.7127 4.82687 -2.27703 0
M  V30 935 O 82.9357 5.55922 -1.27696 0
M  V30 936 O 81.8697 5.1194 -3.16545 0
M  V30 937 H 85.6957 1.91203 -2.35956 0
M  V30 938 H 83.2807 0.888625 -1.20099 0
M  V30 939 H 85.1627 4.0513 -1.15964 0
M  V30 940 H 83.8377 3.22337 -0.296691 0
M  V30 941 H 82.7447 2.72758 -2.56035 0
M  V30 942 H 84.0777 3.60209 -3.35425 0
M  V30 943 N 85.7298 1.2412 0.971189 0
M  V30 944 C 87.0068 0.986867 1.6888 0
M  V30 945 C 87.3868 -0.491857 2.0529 0
M  V30 946 O 86.7348 -1.46531 1.75331 0
M  V30 947 C 86.9448 1.9063 2.92338 0
M  V30 948 C 88.2928 2.17515 3.64654 0
M  V30 949 O 89.3168 1.88254 3.02388 0
M  V30 950 O 88.1758 2.6719 4.7673 0
M  V30 951 H 85.2698 0.372944 0.738134 0
M  V30 952 H 87.8158 1.35203 1.02559 0
M  V30 953 H 86.5878 2.90552 2.62097 0
M  V30 954 H 86.2108 1.54408 3.66393 0
M  V30 955 N 87.2079 -1.17134 1.05439 0
M  V30 956 C 88.4359 -1.91372 0.786414 0
M  V30 957 C 88.8509 -1.76955 -0.658202 0
M  V30 958 O 88.2079 -1.10838 -1.44987 0
M  V30 959 C 88.2589 -3.42356 1.1608 0
M  V30 960 O 87.9799 -3.56332 2.54871 0
M  V30 961 C 89.4809 -4.33663 0.919322 0
M  V30 962 H 86.7009 -0.607118 0.285743 0
M  V30 963 H 89.2449 -1.48525 1.40572 0
M  V30 964 H 87.3999 -3.82939 0.586191 0
M  V30 965 H 87.8139 -4.49896 2.69618 0
M  V30 966 H 89.2879 -5.38099 1.231 0
M  V30 967 H 89.7649 -4.38959 -0.145359 0
M  V30 968 H 90.3709 -3.98796 1.47789 0
M  V30 969 N 88.686 -0.835752 -1.33615 0
M  V30 970 C 89.934 -0.429109 -1.97492 0
M  V30 971 C 90.255 1.01433 -1.66543 0
M  V30 972 O 89.525 1.70611 -0.962744 0
M  V30 973 H 88.105 -0.155686 -0.730596 0
M  V30 974 H 90.767 -1.06802 -1.63031 0
M  V30 975 H 89.863 -0.55861 -3.0706 0
M  V30 976 N 90.1641 1.46063 -0.591896 0
M  V30 977 C 91.3921 2.06717 -0.0868936 0
M  V30 978 C 91.8071 1.43916 1.22203 0
M  V30 979 O 91.1641 0.547698 1.74088 0
M  V30 980 C 91.2151 3.6142 0.0758725 0
M  V30 981 O 90.9361 4.21874 -1.18126 0
M  V30 982 C 92.4371 4.39025 0.61416 0
M  V30 983 H 89.6571 0.668162 -0.0616518 0
M  V30 984 H 92.2011 1.8755 -0.815175 0
M  V30 985 H 90.3561 3.79983 0.754413 0
M  V30 986 H 90.7701 5.14861 -1.00092 0
M  V30 987 H 92.2441 5.4783 0.677193 0
M  V30 988 H 92.7211 4.07708 1.63312 0
M  V30 989 H 93.3271 4.2529 -0.0298142 0
M  V30 990 N 91.6422 0.330177 1.54103 0
M  V30 991 C 92.9192 -0.325007 1.92881 0
M  V30 992 C 93.2992 -1.6934 1.26045 0
M  V30 993 O 92.6472 -2.24855 0.406526 0
M  V30 994 C 92.8572 -0.410634 3.46576 0
M  V30 995 C 94.2052 -0.667801 4.19316 0
M  V30 996 O 95.2292 -0.49329 3.52768 0
M  V30 997 O 94.0882 -1.00491 5.37181 0
M  V30 998 H 91.1822 -0.186873 0.80561 0
M  V30 999 H 93.7282 0.380376 1.65382 0
M  V30 1000 H 92.5002 0.550164 3.87413 0
M  V30 1001 H 92.1232 -1.16333 3.802 0
M  V30 1002 N 93.1203 -1.57491 0.0584922 0
M  V30 1003 C 94.3503 -1.9701 -0.622134 0
M  V30 1004 C 94.7583 -0.935034 -1.6448 0
M  V30 1005 O 94.1013 0.0882904 -1.83488 0
M  V30 1006 C 94.1633 -3.32794 -1.35972 0
M  V30 1007 C 93.8273 -4.54343 -0.492043 0
M  V30 1008 C 94.8243 -5.19323 0.244901 0
M  V30 1009 C 92.5093 -5.00534 -0.420821 0
M  V30 1010 C 94.5033 -6.28835 1.04143 0
M  V30 1011 C 92.1903 -6.09921 0.379389 0
M  V30 1012 C 93.1883 -6.73933 1.10919 0
M  V30 1013 O 92.8763 -7.81216 1.89623 0
M  V30 1014 H 92.6083 -0.653127 -0.174359 0
M  V30 1015 H 95.1623 -2.05029 0.123418 0
M  V30 1016 H 93.3923 -3.21351 -2.15105 0
M  V30 1017 H 95.0813 -3.5701 -1.93129 0
M  V30 1018 H 95.8473 -4.8459 0.19939 0
M  V30 1019 H 91.7263 -4.50496 -0.978474 0
M  V30 1020 H 95.2703 -6.7873 1.61157 0
M  V30 1021 H 91.1673 -6.44089 0.426512 0
M  V30 1022 H 91.9353 -7.98029 1.81913 0
M  V30 1023 N 94.5984 0.214957 -1.56127 0
M  V30 1024 C 95.8474 0.936451 -1.78643 0
M  V30 1025 C 96.1604 1.85237 -0.628229 0
M  V30 1026 O 97.3664 2.613 -0.737186 0
M  V30 1027 C 95.8224 1.7154 -3.16389 0
M  V30 1028 C 95.4304 0.845299 -4.39953 0
M  V30 1029 C 97.1744 2.42772 -3.48227 0
M  V30 1030 C 95.0814 1.62198 -5.68723 0
M  V30 1031 H 94.0114 0.353401 -0.666051 0
M  V30 1032 H 96.6624 0.190169 -1.82512 0
M  V30 1033 H 95.0444 2.50484 -3.06715 0
M  V30 1034 H 96.2184 0.0959353 -4.607 0
M  V30 1035 H 94.5334 0.244789 -4.1568 0
M  V30 1036 H 97.1304 3.01394 -4.41663 0
M  V30 1037 H 97.4734 3.15984 -2.71035 0
M  V30 1038 H 98.0064 1.70813 -3.5926 0
M  V30 1039 H 94.7454 0.933011 -6.48826 0
M  V30 1040 H 94.2654 2.34579 -5.52026 0
M  V30 1041 H 95.9444 2.18095 -6.09133 0
M  V30 1042 N 96.0765 1.50051 0.48192 0
M  V30 1043 C 97.3045 1.64237 1.25832 0
M  V30 1044 C 97.7195 0.321336 1.86045 0
M  V30 1045 O 97.0765 -0.695478 1.68729 0
M  V30 1046 C 97.1275 2.72548 2.37487 0
M  V30 1047 O 96.8485 3.99529 1.79745 0
M  V30 1048 C 98.3495 2.9761 3.28547 0
M  V30 1049 H 95.5695 0.55237 0.380957 0
M  V30 1050 H 98.1135 1.96207 0.576467 0
M  V30 1051 H 96.2685 2.43303 3.01467 0
M  V30 1052 H 96.6825 4.59342 2.5319 0
M  V30 1053 H 98.1565 3.77084 4.03127 0
M  V30 1054 H 98.6335 2.0826 3.86684 0
M  V30 1055 H 99.2395 3.28345 2.70314 0
M  V30 1056 N 97.5546 -0.734337 1.39446 0
M  V30 1057 C 98.9656 -1.31264 1.32766 0
M  V30 1058 C 99.3166 -1.96198 -0.00767497 0
M  V30 1059 O 98.4416 -1.96346 -0.909796 0
M  V30 1060 C 99.0366 -2.38682 2.4045 0
M  V30 1061 C 97.5956 -2.92184 2.37288 0
M  V30 1062 C 96.7426 -1.6576 2.22304 0
M  V30 1063 H 99.6936 -0.531799 1.49525 0
M  V30 1064 H 99.7146 -3.19087 2.07276 0
M  V30 1065 H 99.2266 -1.91392 3.37625 0
M  V30 1066 H 97.3276 -3.43752 1.43754 0
M  V30 1067 H 97.4406 -3.45253 3.3217 0
M  V30 1068 H 95.8046 -1.9012 1.69489 0
M  V30 1069 H 96.5876 -1.20521 3.21449 0
M  V30 1070 N 99.0327 -1.24633 -0.964593 0
M  V30 1071 C 100.279 -1.09957 -1.71117 0
M  V30 1072 C 100.634 0.357422 -1.89051 0
M  V30 1073 O 99.9267 1.26029 -1.44317 0
M  V30 1074 C 100.121 -1.7763 -3.10133 0
M  V30 1075 C 99.9497 -3.29759 -3.05759 0
M  V30 1076 C 98.7197 -3.98981 -3.10068 0
M  V30 1077 C 100.918 -4.26305 -2.87695 0
M  V30 1078 N 98.8997 -5.37966 -2.95747 0
M  V30 1079 C 100.271 -5.52308 -2.81702 0
M  V30 1080 C 102.326 -4.16842 -2.72299 0
M  V30 1081 C 101.029 -6.69931 -2.61887 0
M  V30 1082 C 103.055 -5.34147 -2.53853 0
M  V30 1083 C 102.417 -6.59084 -2.48572 0
M  V30 1084 H 98.5157 -0.457003 -0.634564 0
M  V30 1085 H 101.1 -1.57592 -1.14337 0
M  V30 1086 H 99.2707 -1.32504 -3.65099 0
M  V30 1087 H 101.003 -1.55786 -3.73514 0
M  V30 1088 H 97.7577 -3.50169 -3.18871 0
M  V30 1089 H 98.1817 -6.10877 -2.91818 0
M  V30 1090 H 102.824 -3.21007 -2.75163 0
M  V30 1091 H 100.542 -7.65886 -2.57767 0
M  V30 1092 H 104.128 -5.28678 -2.4288 0
M  V30 1093 H 103.008 -7.48324 -2.34481 0
M  V30 1094 N 100.511 1.16574 -1.06058 0
M  V30 1095 C 101.443 2.2045 -0.627239 0
M  V30 1096 C 102.456 1.59752 0.313534 0
M  V30 1097 O 103.645 1.78192 0.104896 0
M  V30 1098 C 100.745 3.3875 0.100974 0
M  V30 1099 C 99.9178 4.29008 -0.852687 0
M  V30 1100 C 98.9768 5.25944 -0.164152 0
M  V30 1101 O 98.0028 5.63535 -0.801047 0
M  V30 1102 N 99.2048 5.70075 1.09518 0
M  V30 1103 H 101.97 2.58249 -1.52077 0
M  V30 1104 H 99.5308 1.3156 -0.943594 0
M  V30 1105 H 101.523 4.00638 0.57194 0
M  V30 1106 H 100.093 2.99476 0.89628 0
M  V30 1107 H 99.3128 3.64419 -1.50308 0
M  V30 1108 H 100.601 4.86195 -1.49972 0
M  V30 1109 H 99.9988 5.41624 1.6328 0
M  V30 1110 H 98.5558 6.34067 1.51006 0
M  V30 1111 N 101.989 0.842826 1.3317 0
M  V30 1112 C 102.919 0.294028 2.31641 0
M  V30 1113 C 103.9 -0.600401 1.59151 0
M  V30 1114 O 105.085 -0.523124 1.87022 0
M  V30 1115 C 102.215 -0.528416 3.43257 0
M  V30 1116 C 101.169 0.27056 4.27144 0
M  V30 1117 C 100.495 -0.675881 5.30411 0
M  V30 1118 C 101.795 1.48981 5.00602 0
M  V30 1119 H 103.489 1.11681 2.77791 0
M  V30 1120 H 101.035 0.538478 1.33553 0
M  V30 1121 H 102.988 -0.922674 4.11175 0
M  V30 1122 H 101.712 -1.38445 2.95805 0
M  V30 1123 H 100.371 0.646427 3.60856 0
M  V30 1124 H 100.019 -1.52842 4.79216 0
M  V30 1125 H 99.7189 -0.145374 5.8742 0
M  V30 1126 H 101.243 -1.06757 6.01195 0
M  V30 1127 H 102.657 1.16849 5.61266 0
M  V30 1128 H 101.054 1.95739 5.6728 0
M  V30 1129 H 102.124 2.25746 4.29147 0
M  V30 1130 N 103.467 -1.45747 0.599634 0
M  V30 1131 C 104.692 -2.07178 0.0960198 0
M  V30 1132 C 105.117 -1.44268 -1.207 0
M  V30 1133 O 104.475 -0.532503 -1.73303 0
M  V30 1134 C 104.523 -3.60579 -0.0385348 0
M  V30 1135 O 103.627 -3.97713 -1.0908 0
M  V30 1136 H 102.968 -0.660251 0.0704593 0
M  V30 1137 H 105.498 -1.87124 0.827385 0
M  V30 1138 H 105.508 -4.07298 -0.239304 0
M  V30 1139 H 104.183 -4.05756 0.912947 0
M  V30 1140 H 102.76 -3.62678 -0.867135 0
M  V30 1141 N 104.945 -0.338344 -1.53925 0
M  V30 1142 C 105.877 0.555117 -2.22376 0
M  V30 1143 C 106.89 1.06812 -1.22862 0
M  V30 1144 O 108.079 0.979163 -1.49247 0
M  V30 1145 C 105.179 1.77609 -2.88631 0
M  V30 1146 C 104.352 1.39927 -4.14414 0
M  V30 1147 C 103.411 2.47936 -4.64127 0
M  V30 1148 O 102.437 2.11461 -5.28463 0
M  V30 1149 N 103.639 3.79107 -4.39612 0
M  V30 1150 H 106.404 -0.0310778 -2.99684 0
M  V30 1151 H 103.965 -0.162226 -1.61085 0
M  V30 1152 H 105.957 2.49287 -3.18807 0
M  V30 1153 H 104.527 2.26978 -2.14941 0
M  V30 1154 H 103.747 0.513481 -3.90841 0
M  V30 1155 H 105.035 1.12341 -4.96243 0
M  V30 1156 H 104.433 4.11531 -3.88148 0
M  V30 1157 H 102.99 4.4697 -4.74406 0
M  V30 1158 N 106.423 1.57458 -0.0668435 0
M  V30 1159 C 107.669 1.93587 0.6043 0
M  V30 1160 C 108.002 0.946722 1.69561 0
M  V30 1161 O 107.277 -0.0248516 1.94484 0
M  V30 1162 C 107.56 3.40014 1.18585 0
M  V30 1163 C 107.413 4.49685 0.101529 0
M  V30 1164 C 108.732 3.87154 2.09284 0
M  V30 1165 H 105.851 0.703958 0.218202 0
M  V30 1166 H 108.493 1.89542 -0.131804 0
M  V30 1167 H 106.643 3.43592 1.81319 0
M  V30 1168 H 108.315 4.5823 -0.531279 0
M  V30 1169 H 106.558 4.30059 -0.568487 0
M  V30 1170 H 107.229 5.49266 0.54874 0
M  V30 1171 H 109.705 3.85551 1.56491 0
M  V30 1172 H 108.581 4.90231 2.46911 0
M  V30 1173 H 108.842 3.2481 2.99918 0
M  V30 1174 N 107.901 -0.206675 1.56239 0
M  V30 1175 C 109.147 -0.930218 1.80208 0
M  V30 1176 C 109.48 -1.83387 0.638981 0
M  V30 1177 O 108.755 -1.91119 -0.361066 0
M  V30 1178 C 109.038 -1.75641 3.1436 0
M  V30 1179 C 108.891 -0.878257 4.41142 0
M  V30 1180 C 110.21 -2.73129 3.45092 0
M  V30 1181 H 107.329 -0.336742 0.655571 0
M  V30 1182 H 109.971 -0.198222 1.88963 0
M  V30 1183 H 108.121 -2.38048 3.07027 0
M  V30 1184 H 109.793 -0.269787 4.6051 0
M  V30 1185 H 108.036 -0.184385 4.33408 0
M  V30 1186 H 108.707 -1.49106 5.3148 0
M  V30 1187 H 111.183 -2.20856 3.52649 0
M  V30 1188 H 110.059 -3.28028 4.40101 0
M  V30 1189 H 110.32 -3.51606 2.68003 0
M  V30 1190 N 109.379 -1.50304 -0.473955 0
M  V30 1191 C 110.656 -1.51667 -1.23518 0
M  V30 1192 C 111.036 -0.259701 -2.09496 0
M  V30 1193 O 110.384 0.756986 -2.15597 0
M  V30 1194 C 110.594 -2.81082 -2.06868 0
M  V30 1195 C 111.942 -3.31631 -2.65153 0
M  V30 1196 O 112.966 -2.82384 -2.17113 0
M  V30 1197 O 111.825 -4.17471 -3.52675 0
M  V30 1198 H 108.919 -0.60822 -0.560355 0
M  V30 1199 H 111.465 -1.62592 -0.486011 0
M  V30 1200 H 110.237 -3.64041 -1.4349 0
M  V30 1201 H 109.86 -2.73146 -2.88924 0
M  V30 1202 N 110.857 0.726932 -1.39834 0
M  V30 1203 C 112.105 1.4837 -1.37225 0
M  V30 1204 C 112.426 1.94979 0.0284857 0
M  V30 1205 O 111.696 1.69555 0.981213 0
M  V30 1206 H 110.276 0.55043 -0.505011 0
M  V30 1207 H 112.938 0.862468 -1.74778 0
M  V30 1208 H 112.034 2.36198 -2.04003 0
M  V30 1209 N 112.336 1.25143 0.95797 0
M  V30 1210 C 113.584 1.09476 1.69881 0
M  V30 1211 C 113.905 -0.365502 1.91544 0
M  V30 1212 O 113.175 -1.25985 1.50015 0
M  V30 1213 H 111.755 0.402128 0.629525 0
M  V30 1214 H 114.417 1.57214 1.15194 0
M  V30 1215 H 113.513 1.60046 2.6794 0
M  V30 1216 N 113.814 -1.1601 1.06675 0
M  V30 1217 C 115.062 -1.86264 0.784229 0
M  V30 1218 C 115.383 -1.82328 -0.691488 0
M  V30 1219 O 114.653 -1.25947 -1.50047 0
M  V30 1220 H 113.233 -0.689621 0.28711 0
M  V30 1221 H 115.895 -1.40664 1.34906 0
M  V30 1222 H 114.991 -2.91595 1.11259 0
M  V30 1223 N 115.292 -0.849877 -1.32721 0
M  V30 1224 C 116.541 -0.447175 -1.96681 0
M  V30 1225 C 116.854 1.00135 -1.68025 0
M  V30 1226 O 118.06 1.50926 -2.25685 0
M  V30 1227 C 116.516 -0.7487 -3.52026 0
M  V30 1228 C 116.124 -2.21264 -3.89546 0
M  V30 1229 C 117.868 -0.413487 -4.22481 0
M  V30 1230 C 115.775 -2.45763 -5.37917 0
M  V30 1231 H 114.705 -0.163486 -0.736063 0
M  V30 1232 H 117.356 -1.03999 -1.51183 0
M  V30 1233 H 115.738 -0.0853727 -3.95908 0
M  V30 1234 H 116.912 -2.91736 -3.56689 0
M  V30 1235 H 115.227 -2.5119 -3.32103 0
M  V30 1236 H 117.824 -0.574017 -5.3161 0
M  V30 1237 H 118.167 0.644492 -4.11281 0
M  V30 1238 H 118.7 -1.03251 -3.84167 0
M  V30 1239 H 115.439 -3.50168 -5.54132 0
M  V30 1240 H 114.959 -1.79864 -5.72197 0
M  V30 1241 H 116.638 -2.29471 -6.0494 0
M  V30 1242 N 116.77 1.45427 -0.607355 0
M  V30 1243 C 118.018 2.01841 -0.102253 0
M  V30 1244 C 118.339 1.47832 1.27164 0
M  V30 1245 O 117.609 0.672497 1.83995 0
M  V30 1246 H 116.189 0.746188 -0.0348101 0
M  V30 1247 H 118.851 1.78229 -0.7887 0
M  V30 1248 H 117.947 3.12057 -0.0518585 0
M  V30 1249 N 118.248 0.346503 1.53744 0
M  V30 1250 C 119.497 -0.250122 2.00143 0
M  V30 1251 C 119.81 -1.51418 1.23822 0
M  V30 1252 O 121.016 -2.18823 1.60713 0
M  V30 1253 C 119.472 -0.496252 3.56462 0
M  V30 1254 C 119.08 0.752077 4.41642 0
M  V30 1255 C 120.824 -1.05157 4.11269 0
M  V30 1256 C 118.731 0.476583 5.89477 0
M  V30 1257 H 117.661 -0.0972409 0.747703 0
M  V30 1258 H 120.312 0.46229 1.77581 0
M  V30 1259 H 118.694 -1.26944 3.75102 0
M  V30 1260 H 119.868 1.5266 4.34778 0
M  V30 1261 H 118.183 1.22925 3.97842 0
M  V30 1262 H 120.78 -1.27269 5.19333 0
M  V30 1263 H 121.123 -2.00799 3.64672 0
M  V30 1264 H 121.656 -0.339019 3.96353 0
M  V30 1265 H 118.395 1.4028 6.40314 0
M  V30 1266 H 117.915 -0.259794 5.99237 0
M  V30 1267 H 119.594 0.0949315 6.4693 0
M  V30 1268 N 119.726 -1.57421 0.075193 0
M  V30 1269 C 120.975 -1.92794 -0.592731 0
M  V30 1270 C 121.288 -0.957478 -1.70563 0
M  V30 1271 O 122.494 -1.20417 -2.43335 0
M  V30 1272 C 120.95 -3.42495 -1.10569 0
M  V30 1273 C 120.558 -4.47994 -0.0236121 0
M  V30 1274 C 122.302 -3.86864 -1.74748 0
M  V30 1275 C 120.209 -5.88829 -0.550803 0
M  V30 1276 H 119.139 -0.719591 -0.225177 0
M  V30 1277 H 121.79 -1.82902 0.147978 0
M  V30 1278 H 120.172 -3.47471 -1.89947 0
M  V30 1279 H 121.346 -4.54637 0.751099 0
M  V30 1280 H 119.661 -4.13113 0.522159 0
M  V30 1281 H 122.258 -4.8947 -2.15229 0
M  V30 1282 H 122.601 -3.24417 -2.60882 0
M  V30 1283 H 123.134 -3.84504 -1.01986 0
M  V30 1284 H 119.873 -6.54929 0.273457 0
M  V30 1285 H 119.393 -5.85698 -1.29296 0
M  V30 1286 H 121.072 -6.38811 -1.02613 0
M  V30 1287 N 121.204 0.198386 -1.56346 0
M  V30 1288 C 122.114 1.2664 -1.97483 0
M  V30 1289 C 123.13 1.49989 -0.882002 0
M  V30 1290 O 124.306 1.62668 -1.18748 0
M  V30 1291 C 121.371 2.59141 -2.30319 0
M  V30 1292 C 120.432 2.43892 -3.53292 0
M  V30 1293 C 119.665 3.70074 -3.84553 0
M  V30 1294 O 119.888 4.74101 -3.1715 0
M  V30 1295 O 118.822 3.658 -4.7799 0
M  V30 1296 H 122.648 0.947304 -2.88548 0
M  V30 1297 H 120.233 0.403123 -1.43859 0
M  V30 1298 H 122.115 3.37352 -2.5253 0
M  V30 1299 H 120.79 2.90684 -1.42423 0
M  V30 1300 H 119.697 1.63803 -3.36332 0
M  V30 1301 H 121.03 2.17282 -4.41644 0
M  V30 1302 N 122.682 1.50554 0.465978 0
M  V30 1303 C 123.592 1.72585 1.58907 0
M  V30 1304 C 124.608 0.60911 1.6299 0
M  V30 1305 O 125.784 0.88804 1.80765 0
M  V30 1306 C 122.849 1.81995 2.95091 0
M  V30 1307 C 121.91 3.05751 3.01355 0
M  V30 1308 C 121.143 3.14702 4.31043 0
M  V30 1309 O 121.366 2.30313 5.21835 0
M  V30 1310 O 120.3 4.07468 4.43005 0
M  V30 1311 H 124.126 2.67799 1.43239 0
M  V30 1312 H 121.711 1.34711 0.646013 0
M  V30 1313 H 123.593 1.90335 3.75966 0
M  V30 1314 H 122.268 0.899659 3.10947 0
M  V30 1315 H 121.175 3.02908 2.19539 0
M  V30 1316 H 122.508 3.97375 2.90437 0
M  V30 1317 N 124.16 -0.719506 1.40217 0
M  V30 1318 C 125.385 -1.51371 1.4178 0
M  V30 1319 C 125.81 -1.88091 0.0182355 0
M  V30 1320 O 125.168 -1.52997 -0.972707 0
M  V30 1321 C 125.216 -2.768 2.31115 0
M  V30 1322 O 124.32 -3.73349 1.7517 0
M  V30 1323 H 123.661 -0.456529 0.482159 0
M  V30 1324 H 126.191 -0.88644 1.844 0
M  V30 1325 H 126.201 -3.25371 2.46167 0
M  V30 1326 H 124.876 -2.49407 3.3282 0
M  V30 1327 H 123.453 -3.32179 1.69444 0
M  V30 1328 N 125.638 -1.25649 -0.95132 0
M  V30 1329 C 126.585 -1.06323 -2.04851 0
M  V30 1330 C 127.555 0.0286491 -1.66075 0
M  V30 1331 O 128.74 -0.12917 -1.90362 0
M  V30 1332 C 125.88 -0.691529 -3.381 0
M  V30 1333 C 124.993 -1.85861 -3.89974 0
M  V30 1334 C 124.128 -1.43096 -5.11563 0
M  V30 1335 C 123.167 -2.56696 -5.55674 0
M  V30 1336 N 122.304 -2.14684 -6.68472 0
M  V30 1337 H 127.144 -2.00222 -2.20715 0
M  V30 1338 H 124.681 -0.997027 -1.08156 0
M  V30 1339 H 126.639 -0.456963 -4.1469 0
M  V30 1340 H 125.269 0.210474 -3.22113 0
M  V30 1341 H 124.321 -2.20639 -3.09875 0
M  V30 1342 H 125.633 -2.71161 -4.18657 0
M  V30 1343 H 124.787 -1.15624 -5.9558 0
M  V30 1344 H 123.526 -0.548722 -4.84603 0
M  V30 1345 H 122.531 -2.84909 -4.7022 0
M  V30 1346 H 123.756 -3.45503 -5.8464 0
M  V30 1347 H 121.702 -1.28881 -6.43215 0
M  V30 1348 H 121.619 -2.9353 -6.96689 0
M  V30 1349 H 122.887 -1.90397 -7.5589 0
M  V30 1350 N 127.117 1.15442 -1.07289 0
M  V30 1351 C 128.067 2.18164 -0.662467 0
M  V30 1352 C 129.051 1.57845 0.312074 0
M  V30 1353 O 130.243 1.76552 0.125905 0
M  V30 1354 C 127.372 3.43246 -0.0611295 0
M  V30 1355 C 126.458 4.1062 -1.06077 0
M  V30 1356 N 126.849 4.53491 -2.24008 0
M  V30 1357 C 125.147 4.36949 -0.893964 0
M  V30 1358 C 125.848 5.05731 -2.87422 0
M  V30 1359 N 124.824 4.99236 -2.15091 0
M  V30 1360 H 128.626 2.49038 -1.56068 0
M  V30 1361 H 126.14 1.32003 -0.945988 0
M  V30 1362 H 128.137 4.16145 0.250792 0
M  V30 1363 H 126.797 3.13854 0.832207 0
M  V30 1364 H 127.808 4.46898 -2.6173 0
M  V30 1365 H 124.485 4.17466 -0.0534693 0
M  V30 1366 H 125.875 5.48865 -3.87553 0
M  V30 1367 N 128.595 0.856903 1.32268 0
M  V30 1368 C 129.823 0.475439 2.01363 0
M  V30 1369 C 130.238 -0.928486 1.64392 0
M  V30 1370 O 129.595 -1.60624 0.866387 0
M  V30 1371 C 129.646 0.607545 3.56358 0
M  V30 1372 O 129.367 1.95617 3.92002 0
M  V30 1373 C 130.868 0.225382 4.42727 0
M  V30 1374 H 128.088 0.186636 0.644521 0
M  V30 1375 H 130.632 1.15446 1.68797 0
M  V30 1376 H 128.787 -0.0237719 3.87393 0
M  V30 1377 H 129.201 1.95455 4.86721 0
M  V30 1378 H 130.675 0.368813 5.50767 0
M  V30 1379 H 131.152 -0.834369 4.31202 0
M  V30 1380 H 131.758 0.831864 4.17085 0
M  V30 1381 N 130.073 -1.45103 0.615059 0
M  V30 1382 C 131.021 -2.32331 -0.111791 0
M  V30 1383 C 132.015 -1.46409 -0.852102 0
M  V30 1384 O 133.221 -1.62849 -0.766821 0
M  V30 1385 H 129.596 -0.749993 -0.0549072 0
M  V30 1386 H 131.567 -2.91407 0.642225 0
M  V30 1387 C 130.316 -3.3015 -1.09071 0
M  V30 1388 H 129.639 -3.96265 -0.530485 0
M  V30 1389 H 131.079 -3.93898 -1.56908 0
M  V30 1390 C 129.538 -2.57875 -2.168 0
M  V30 1391 O 130.068 -2.36567 -3.24652 0
M  V30 1392 N 128.274 -2.17884 -1.92289 0
M  V30 1393 H 127.821 -2.35413 -1.04587 0
M  V30 1394 H 127.779 -1.6985 -2.64572 0
M  V30 1395 N 131.551 -0.354651 -1.53558 0
M  V30 1396 C 132.481 0.489091 -2.2832 0
M  V30 1397 C 133.462 1.09324 -1.30316 0
M  V30 1398 O 134.647 1.11255 -1.59173 0
M  V30 1399 C 131.777 1.63456 -3.0643 0
M  V30 1400 C 130.731 1.1582 -4.12031 0
M  V30 1401 C 130.057 2.39305 -4.7816 0
M  V30 1402 C 131.357 0.250731 -5.21698 0
M  V30 1403 H 133.051 -0.134614 -2.99097 0
M  V30 1404 H 130.597 -0.0661826 -1.43848 0
M  V30 1405 H 132.55 2.23136 -3.57475 0
M  V30 1406 H 131.274 2.28533 -2.33325 0
M  V30 1407 H 129.933 0.584146 -3.61916 0
M  V30 1408 H 129.581 3.02814 -4.01637 0
M  V30 1409 H 129.281 2.08109 -5.49513 0
M  V30 1410 H 130.805 2.99691 -5.31994 0
M  V30 1411 H 132.219 0.754695 -5.68311 0
M  V30 1412 H 130.616 0.0301468 -6.00092 0
M  V30 1413 H 131.686 -0.710125 -4.79672 0
M  V30 1414 N 133.029 1.57378 -0.0835403 0
M  V30 1415 C 134.257 1.98263 0.59157 0
M  V30 1416 C 134.672 0.962302 1.62435 0
M  V30 1417 O 134.029 -0.049581 1.82433 0
M  V30 1418 C 134.08 3.39214 1.24965 0
M  V30 1419 O 133.801 4.37339 0.258186 0
M  V30 1420 C 135.302 3.95038 2.01147 0
M  V30 1421 H 132.522 0.651773 0.159477 0
M  V30 1422 H 135.066 2.03878 -0.159415 0
M  V30 1423 H 133.221 3.34649 1.95164 0
M  V30 1424 H 133.635 5.19371 0.731734 0
M  V30 1425 H 135.109 4.95848 2.42567 0
M  V30 1426 H 135.586 3.32222 2.87272 0
M  V30 1427 H 136.192 4.0304 1.35789 0
M  V30 1428 N 134.507 -0.190092 1.56449 0
M  V30 1429 C 135.454 -1.23557 1.94942 0
M  V30 1430 C 136.424 -1.44972 0.810696 0
M  V30 1431 O 137.609 -1.58023 1.06927 0
M  V30 1432 C 134.749 -2.57416 2.2985 0
M  V30 1433 C 133.862 -2.43537 3.5681 0
M  V30 1434 C 132.997 -3.70134 3.81017 0
M  V30 1435 C 132.036 -3.51109 5.01387 0
M  V30 1436 N 131.173 -4.6973 5.21822 0
M  V30 1437 H 136.013 -0.900304 2.84075 0
M  V30 1438 H 133.55 -0.43318 1.40577 0
M  V30 1439 H 135.508 -3.35409 2.48106 0
M  V30 1440 H 134.138 -2.88975 1.43852 0
M  V30 1441 H 133.19 -1.56816 3.46573 0
M  V30 1442 H 134.502 -2.25415 4.4496 0
M  V30 1443 H 133.656 -4.56566 3.9954 0
M  V30 1444 H 132.395 -3.91215 2.91207 0
M  V30 1445 H 131.4 -2.63063 4.82782 0
M  V30 1446 H 132.625 -3.31468 5.9271 0
M  V30 1447 H 130.571 -4.91065 4.34961 0
M  V30 1448 H 130.488 -4.54452 6.0416 0
M  V30 1449 H 131.756 -5.57499 5.44808 0
M  V30 1450 N 135.985 -1.50799 -0.457987 0
M  V30 1451 C 137.233 -1.62121 -1.2067 0
M  V30 1452 C 137.554 -0.329793 -1.92191 0
M  V30 1453 O 136.824 0.653409 -1.84682 0
M  V30 1454 H 135.404 -0.597441 -0.448411 0
M  V30 1455 H 138.066 -1.87637 -0.527096 0
M  V30 1456 H 137.162 -2.43882 -1.94751 0
M  V30 1457 N 137.463 0.71206 -1.40597 0
M  V30 1458 C 138.74 1.46536 -1.29563 0
M  V30 1459 C 139.12 2.10931 0.0844217 0
M  V30 1460 O 138.468 2.00418 1.0975 0
M  V30 1461 C 138.678 2.49821 -2.43701 0
M  V30 1462 C 140.026 3.15551 -2.841 0
M  V30 1463 O 141.05 2.60142 -2.4332 0
M  V30 1464 O 139.909 4.15867 -3.54566 0
M  V30 1465 H 137.003 0.651801 -0.509004 0
M  V30 1466 H 139.549 0.743935 -1.52524 0
M  V30 1467 H 138.321 2.00778 -3.35863 0
M  V30 1468 H 137.944 3.29495 -2.22528 0
M  V30 1469 N 138.941 1.26152 0.944643 0
M  V30 1470 C 140.188 1.11492 1.69044 0
M  V30 1471 C 140.516 -0.342366 1.91463 0
M  V30 1472 O 139.771 -1.26812 1.49054 0
M  V30 1473 C 140.07 1.82541 3.07268 0
M  V30 1474 C 139.736 3.32445 3.04616 0
M  V30 1475 C 138.398 3.73337 3.036 0
M  V30 1476 C 140.75 4.28171 2.97185 0
M  V30 1477 C 138.078 5.08348 2.92915 0
M  V30 1478 C 140.43 5.63218 2.88041 0
M  V30 1479 C 139.094 6.03426 2.85366 0
M  V30 1480 H 138.364 0.407977 0.618576 0
M  V30 1481 H 141.011 1.56551 1.10291 0
M  V30 1482 H 139.316 1.29941 3.69625 0
M  V30 1483 H 141.013 1.68642 3.63815 0
M  V30 1484 H 137.603 2.99915 3.06185 0
M  V30 1485 H 141.787 3.97563 2.97081 0
M  V30 1486 H 137.043 5.38667 2.89219 0
M  V30 1487 H 141.217 6.37078 2.81254 0
M  V30 1488 H 138.844 7.07999 2.76842 0
M  V30 1489 N 140.419 -1.14872 1.07899 0
M  V30 1490 C 141.665 -1.86064 0.806725 0
M  V30 1491 C 141.998 -1.82434 -0.665706 0
M  V30 1492 O 141.273 -1.25138 -1.48899 0
M  V30 1493 C 141.556 -3.34929 1.32267 0
M  V30 1494 C 141.409 -3.47161 2.86006 0
M  V30 1495 C 142.728 -4.29863 0.943717 0
M  V30 1496 H 139.847 -0.675591 0.294526 0
M  V30 1497 H 142.489 -1.34925 1.33773 0
M  V30 1498 H 140.639 -3.78611 0.870974 0
M  V30 1499 H 142.311 -3.12302 3.39507 0
M  V30 1500 H 140.554 -2.88539 3.23925 0
M  V30 1501 H 141.225 -4.51777 3.17177 0
M  V30 1502 H 143.701 -3.9417 1.33302 0
M  V30 1503 H 142.577 -5.32494 1.33198 0
M  V30 1504 H 142.838 -4.41846 -0.149796 0
M  V30 1505 N 141.898 -0.863906 -1.31812 0
M  V30 1506 C 143.126 -0.486111 -2.01108 0
M  V30 1507 C 143.541 0.919755 -1.64882 0
M  V30 1508 O 142.898 1.60162 -0.874893 0
M  V30 1509 C 142.949 -0.626435 -3.56031 0
M  V30 1510 O 142.67 -1.97693 -3.90959 0
M  V30 1511 C 144.171 -0.248857 -4.42601 0
M  V30 1512 H 141.391 -0.190052 -0.643523 0
M  V30 1513 H 143.935 -1.1634 -1.68182 0
M  V30 1514 H 142.09 0.00322717 -3.874 0
M  V30 1515 H 142.504 -1.98034 -4.85678 0
M  V30 1516 H 143.978 -0.398016 -5.50563 0
M  V30 1517 H 144.455 0.811489 -4.31638 0
M  V30 1518 H 145.061 -0.853971 -4.16638 0
M  V30 1519 N 143.376 1.44774 -0.622745 0
M  V30 1520 C 144.601 2.06999 -0.128968 0
M  V30 1521 C 145.026 1.4617 1.1839 0
M  V30 1522 O 144.384 0.560007 1.72434 0
M  V30 1523 C 144.432 3.60595 -0.0188351 0
M  V30 1524 O 143.536 3.99398 1.02739 0
M  V30 1525 H 142.877 0.659047 -0.0809544 0
M  V30 1526 H 145.407 1.85784 -0.85705 0
M  V30 1527 H 145.417 4.07627 0.174476 0
M  V30 1528 H 144.092 4.04252 -0.977384 0
M  V30 1529 H 142.669 3.64011 0.809326 0
M  V30 1530 N 144.854 0.36279 1.53368 0
M  V30 1531 C 146.101 -0.227776 2.01215 0
M  V30 1532 C 146.429 -1.49003 1.25014 0
M  V30 1533 O 145.684 -1.92876 0.331236 0
M  V30 1534 C 145.983 -0.568417 3.52851 0
M  V30 1535 C 145.649 0.59918 4.46901 0
M  V30 1536 C 144.311 0.919559 4.72332 0
M  V30 1537 C 146.663 1.38156 5.02556 0
M  V30 1538 C 143.991 2.02434 5.5067 0
M  V30 1539 C 146.343 2.47674 5.821 0
M  V30 1540 C 145.007 2.8025 6.05819 0
M  V30 1541 H 144.277 -0.083349 0.736297 0
M  V30 1542 H 146.924 0.494677 1.85001 0
M  V30 1543 H 145.229 -1.37185 3.66998 0
M  V30 1544 H 146.926 -1.03756 3.87344 0
M  V30 1545 H 143.516 0.339437 4.27254 0
M  V30 1546 H 147.7 1.14729 4.82857 0
M  V30 1547 H 142.956 2.28075 5.67267 0
M  V30 1548 H 147.13 3.08716 6.24234 0
M  V30 1549 H 144.757 3.65979 6.66306 0
M  V30 1550 N 146.332 -1.57332 0.0918853 0
M  V30 1551 C 147.562 -1.98286 -0.580205 0
M  V30 1552 C 147.97 -0.969713 -1.6246 0
M  V30 1553 O 147.313 0.0493501 -1.83634 0
M  V30 1554 C 147.375 -3.35603 -1.28882 0
M  V30 1555 C 147.039 -4.55285 -0.395559 0
M  V30 1556 C 148.036 -5.18687 0.355002 0
M  V30 1557 C 145.721 -5.01314 -0.314556 0
M  V30 1558 C 147.715 -6.26484 1.17458 0
M  V30 1559 C 145.402 -6.08979 0.508677 0
M  V30 1560 C 146.4 -6.71429 1.2519 0
M  V30 1561 O 146.088 -7.77018 2.06151 0
M  V30 1562 H 145.82 -0.656678 -0.160466 0
M  V30 1563 H 148.374 -2.04721 0.16688 0
M  V30 1564 H 146.604 -3.25842 -2.08241 0
M  V30 1565 H 148.293 -3.61026 -1.85512 0
M  V30 1566 H 149.059 -4.84058 0.302134 0
M  V30 1567 H 144.938 -4.5247 -0.882697 0
M  V30 1568 H 148.482 -6.75159 1.75518 0
M  V30 1569 H 144.379 -6.4304 0.563037 0
M  V30 1570 H 145.147 -7.93991 1.98799 0
M  V30 1571 N 147.81 0.181792 -1.56548 0
M  V30 1572 C 149.056 0.896803 -1.82562 0
M  V30 1573 C 149.411 1.80324 -0.670908 0
M  V30 1574 O 148.704 1.8868 0.333235 0
M  V30 1575 C 148.898 1.73728 -3.12335 0
M  V30 1576 C 148.727 0.913714 -4.4032 0
M  V30 1577 C 147.497 0.592903 -5.01809 0
M  V30 1578 C 149.695 0.260164 -5.13642 0
M  V30 1579 N 147.677 -0.247901 -6.13399 0
M  V30 1580 C 149.048 -0.442256 -6.18421 0
M  V30 1581 C 151.103 0.177253 -4.97584 0
M  V30 1582 C 149.806 -1.21971 -7.08883 0
M  V30 1583 C 151.832 -0.586839 -5.88481 0
M  V30 1584 C 151.194 -1.27766 -6.92716 0
M  V30 1585 H 147.293 0.307122 -0.719166 0
M  V30 1586 H 149.877 0.164535 -1.94004 0
M  V30 1587 H 148.048 2.44105 -3.02105 0
M  V30 1588 H 149.78 2.39279 -3.26386 0
M  V30 1589 H 146.535 0.920502 -4.64568 0
M  V30 1590 H 146.959 -0.658304 -6.73792 0
M  V30 1591 H 151.601 0.696993 -4.17015 0
M  V30 1592 H 149.319 -1.75083 -7.88905 0
M  V30 1593 H 152.905 -0.652522 -5.78129 0
M  V30 1594 H 151.785 -1.85943 -7.61836 0
M  V30 1595 N 149.288 1.51039 0.449983 0
M  V30 1596 C 150.699 1.557 1.03026 0
M  V30 1597 C 151.05 0.372939 1.92623 0
M  V30 1598 O 150.175 -0.511771 2.10261 0
M  V30 1599 C 150.77 2.82171 1.87523 0
M  V30 1600 C 149.329 2.89444 2.40622 0
M  V30 1601 C 148.476 2.50228 1.19504 0
M  V30 1602 H 151.427 1.56999 0.231745 0
M  V30 1603 H 151.448 2.65219 2.72835 0
M  V30 1604 H 150.96 3.68331 1.22286 0
M  V30 1605 H 149.061 2.07685 3.0935 0
M  V30 1606 H 149.174 3.92816 2.74285 0
M  V30 1607 H 147.538 2.03139 1.53644 0
M  V30 1608 H 148.321 3.38719 0.558972 0
M  V30 1609 N 150.766 -0.704594 1.40972 0
M  V30 1610 C 152.012 -1.46546 1.41053 0
M  V30 1611 C 152.367 -1.92393 0.0159714 0
M  V30 1612 O 151.66 -1.66017 -0.956506 0
M  V30 1613 C 151.854 -2.698 2.34399 0
M  V30 1614 C 151.683 -2.36008 3.82793 0
M  V30 1615 C 150.453 -2.26812 4.51536 0
M  V30 1616 C 152.651 -1.99565 4.74003 0
M  V30 1617 N 150.633 -1.8581 5.85105 0
M  V30 1618 C 152.004 -1.69251 5.96451 0
M  V30 1619 C 154.059 -1.86296 4.61734 0
M  V30 1620 C 152.762 -1.27003 7.07999 0
M  V30 1621 C 154.788 -1.45452 5.73234 0
M  V30 1622 C 154.15 -1.16043 6.94776 0
M  V30 1623 H 150.249 -0.533896 0.571383 0
M  V30 1624 H 152.833 -0.816061 1.76773 0
M  V30 1625 H 151.004 -3.32473 2.00789 0
M  V30 1626 H 152.736 -3.36214 2.25261 0
M  V30 1627 H 149.491 -2.44913 4.05357 0
M  V30 1628 H 149.915 -1.67817 6.55871 0
M  V30 1629 H 154.557 -2.0769 3.68273 0
M  V30 1630 H 152.275 -1.04353 8.01334 0
M  V30 1631 H 155.861 -1.35748 5.65742 0
M  V30 1632 H 154.741 -0.84915 7.79589 0
M  V30 1633 N 152.244 -1.26651 -0.937939 0
M  V30 1634 C 153.176 -1.04283 -2.04102 0
M  V30 1635 C 154.189 -0.00221014 -1.628 0
M  V30 1636 O 155.378 -0.242645 -1.76843 0
M  V30 1637 C 152.478 -0.557846 -3.34277 0
M  V30 1638 C 151.651 -1.66843 -4.04329 0
M  V30 1639 C 150.71 -1.18095 -5.12777 0
M  V30 1640 O 149.736 -1.87865 -5.37304 0
M  V30 1641 N 150.938 -0.0311006 -5.80492 0
M  V30 1642 H 153.703 -1.9927 -2.23856 0
M  V30 1643 H 151.264 -1.1808 -1.10764 0
M  V30 1644 H 153.256 -0.215836 -4.04124 0
M  V30 1645 H 151.826 0.298523 -3.11171 0
M  V30 1646 H 151.046 -2.18123 -3.28353 0
M  V30 1647 H 152.334 -2.41408 -4.47883 0
M  V30 1648 H 151.732 0.551486 -5.63005 0
M  V30 1649 H 150.289 0.251809 -6.51313 0
M  V30 1650 N 153.722 1.14298 -1.08507 0
M  V30 1651 C 154.95 1.89219 -0.836876 0
M  V30 1652 C 155.365 1.78638 0.611054 0
M  V30 1653 O 154.722 1.14643 1.41998 0
M  V30 1654 C 154.773 3.39158 -1.25116 0
M  V30 1655 O 154.494 3.49449 -2.64229 0
M  V30 1656 C 155.995 4.31073 -1.03398 0
M  V30 1657 H 153.215 0.599328 -0.301739 0
M  V30 1658 H 155.759 1.44746 -1.44461 0
M  V30 1659 H 153.914 3.81251 -0.687514 0
M  V30 1660 H 154.328 4.42589 -2.81452 0
M  V30 1661 H 155.802 5.34646 -1.37323 0
M  V30 1662 H 156.279 4.3919 0.0289259 0
M  V30 1663 H 156.885 3.94738 -1.58311 0
M  V30 1664 N 155.201 0.870884 1.31352 0
M  V30 1665 C 156.148 0.325425 2.28494 0
M  V30 1666 C 157.118 -0.576615 1.5577 0
M  V30 1667 O 158.303 -0.508059 1.83911 0
M  V30 1668 C 155.443 -0.466283 3.41935 0
M  V30 1669 C 154.556 0.463378 4.29508 0
M  V30 1670 C 153.691 -0.342544 5.30094 0
M  V30 1671 C 152.73 0.583486 6.09313 0
M  V30 1672 N 151.867 -0.186244 7.01853 0
M  V30 1673 H 156.707 1.15901 2.74538 0
M  V30 1674 H 154.244 0.58294 1.35056 0
M  V30 1675 H 156.202 -0.941085 4.06447 0
M  V30 1676 H 154.832 -1.26456 2.97 0
M  V30 1677 H 153.884 1.05663 3.65431 0
M  V30 1678 H 155.196 1.1734 4.84802 0
M  V30 1679 H 154.35 -0.879816 6.00287 0
M  V30 1680 H 153.089 -1.08585 4.75458 0
M  V30 1681 H 152.094 1.13251 5.3801 0
M  V30 1682 H 153.319 1.32566 6.66035 0
M  V30 1683 H 151.265 -0.912348 6.49625 0
M  V30 1684 H 151.182 0.464422 7.54572 0
M  V30 1685 H 152.45 -0.704716 7.76308 0
M  V30 1686 N 156.679 -1.44442 0.630414 0
M  V30 1687 C 157.925 -2.02351 0.134816 0
M  V30 1688 C 158.258 -1.4947 -1.23986 0
M  V30 1689 O 157.533 -0.678475 -1.82283 0
M  V30 1690 C 157.816 -3.59898 0.120707 0
M  V30 1691 C 157.669 -4.23063 1.52767 0
M  V30 1692 C 158.988 -4.36585 -0.555127 0
M  V30 1693 H 156.107 -0.73527 0.0504646 0
M  V30 1694 H 158.749 -1.72022 0.806751 0
M  V30 1695 H 156.899 -3.85868 -0.451477 0
M  V30 1696 H 158.571 -4.08202 2.14869 0
M  V30 1697 H 156.814 -3.80586 2.08175 0
M  V30 1698 H 157.485 -5.32071 1.46984 0
M  V30 1699 H 159.961 -4.16044 -0.0685429 0
M  V30 1700 H 158.837 -5.46294 -0.534185 0
M  V30 1701 H 159.098 -4.11138 -1.62535 0
M  V30 1702 N 158.157 -0.370918 -1.53173 0
M  V30 1703 C 159.406 0.218249 -2.00516 0
M  V30 1704 C 159.719 1.49429 -1.26215 0
M  V30 1705 O 160.925 2.16239 -1.64174 0
M  V30 1706 C 159.381 0.43948 -3.57207 0
M  V30 1707 C 158.989 -0.822244 -4.4039 0
M  V30 1708 C 160.733 0.986012 -4.1289 0
M  V30 1709 C 158.64 -0.570304 -5.88644 0
M  V30 1710 H 157.57 0.0853333 -0.749156 0
M  V30 1711 H 160.221 -0.490483 -1.76823 0
M  V30 1712 H 158.603 1.20961 -3.77074 0
M  V30 1713 H 159.777 -1.59557 -4.32294 0
M  V30 1714 H 158.092 -1.29238 -3.95836 0
M  V30 1715 H 160.689 1.18991 -5.21292 0
M  V30 1716 H 161.032 1.94972 -3.6782 0
M  V30 1717 H 161.565 0.27592 -3.96842 0
M  V30 1718 H 158.304 -1.50449 -6.38001 0
M  V30 1719 H 157.824 0.164427 -5.99575 0
M  V30 1720 H 159.503 -0.19784 -6.46697 0
M  V30 1721 N 159.635 1.57281 -0.100228 0
M  V30 1722 C 160.565 2.17328 0.853857 0
M  V30 1723 C 161.546 1.10804 1.2906 0
M  V30 1724 O 162.731 1.38963 1.35657 0
M  V30 1725 C 159.861 2.75772 2.11109 0
M  V30 1726 C 158.815 3.87713 1.81279 0
M  V30 1727 C 158.141 4.32882 3.13874 0
M  V30 1728 C 159.441 5.10677 1.09574 0
M  V30 1729 H 161.135 2.97305 0.353545 0
M  V30 1730 H 158.681 1.43009 0.168612 0
M  V30 1731 H 160.634 3.16433 2.78296 0
M  V30 1732 H 159.358 1.93057 2.63432 0
M  V30 1733 H 158.017 3.476 1.16489 0
M  V30 1734 H 157.665 3.47051 3.64095 0
M  V30 1735 H 157.365 5.08358 2.94696 0
M  V30 1736 H 158.889 4.7618 3.82211 0
M  V30 1737 H 160.303 5.48474 1.66879 0
M  V30 1738 H 158.7 5.91615 1.00557 0
M  V30 1739 H 159.77 4.84835 0.0793299 0
M  V30 1740 N 161.113 -0.173488 1.56642 0
M  V30 1741 C 162.39 -0.917617 1.7274 0
M  V30 1742 C 162.77 -2.00484 0.661027 0
M  V30 1743 O 162.118 -2.26184 -0.32453 0
M  V30 1744 C 162.328 -1.48433 3.15862 0
M  V30 1745 C 163.676 -1.95809 3.76754 0
M  V30 1746 O 164.7 -1.58231 3.19126 0
M  V30 1747 O 163.559 -2.65024 4.77938 0
M  V30 1748 H 160.653 -0.431772 0.705338 0
M  V30 1749 H 163.199 -0.161487 1.6893 0
M  V30 1750 H 161.971 -0.701715 3.84957 0
M  V30 1751 H 161.594 -2.30471 3.23989 0
M  V30 1752 N 162.591 -1.51276 -0.441967 0
M  V30 1753 C 163.839 -1.63392 -1.18943 0
M  V30 1754 C 164.16 -0.350159 -1.9183 0
M  V30 1755 O 163.43 0.633784 -1.85364 0
M  V30 1756 H 162.01 -0.602164 -0.442049 0
M  V30 1757 H 164.672 -1.88186 -0.507165 0
M  V30 1758 H 163.768 -2.45934 -1.92154 0
M  V30 1759 N 164.069 0.697108 -1.41344 0
M  V30 1760 C 165.017 1.83237 -1.43272 0
M  V30 1761 C 166.011 1.66522 -0.310947 0
M  V30 1762 O 167.217 1.73402 -0.482899 0
M  V30 1763 H 163.592 0.603802 -0.448249 0
M  V30 1764 H 165.563 1.78727 -2.38954 0
M  V30 1765 C 164.312 3.21245 -1.33029 0
M  V30 1766 H 163.635 3.34723 -2.18633 0
M  V30 1767 H 165.075 4.00763 -1.38439 0
M  V30 1768 C 163.534 3.36873 -0.0424635 0
M  V30 1769 O 164.064 3.91177 0.913421 0
M  V30 1770 N 162.27 2.90581 0.0331145 0
M  V30 1771 H 161.817 2.46577 -0.745506 0
M  V30 1772 H 161.775 3.01416 0.894199 0
M  V30 1773 N 165.547 1.27147 0.931209 0
M  V30 1774 C 166.772 1.16191 1.71797 0
M  V30 1775 C 167.197 -0.278004 1.86034 0
M  V30 1776 O 166.555 -1.20137 1.35782 0
M  V30 1777 C 166.603 1.84673 3.09723 0
M  V30 1778 O 165.707 1.14231 3.96264 0
M  V30 1779 H 165.048 0.404303 0.526721 0
M  V30 1780 H 167.578 1.68152 1.1656 0
M  V30 1781 H 167.588 1.91893 3.60057 0
M  V30 1782 H 166.263 2.89421 2.98677 0
M  V30 1783 H 164.84 1.15056 3.54706 0
M  V30 1784 N 167.025 -1.13721 1.09112 0
M  V30 1785 C 167.955 -2.21148 0.749385 0
M  V30 1786 C 168.936 -1.6792 -0.271475 0
M  V30 1787 O 170.121 -1.93693 -0.140251 0
M  V30 1788 C 167.251 -3.46905 0.165659 0
M  V30 1789 C 166.205 -4.13203 1.11567 0
M  V30 1790 C 165.531 -5.33248 0.393809 0
M  V30 1791 C 166.831 -4.60912 2.45678 0
M  V30 1792 H 168.525 -2.4999 1.64758 0
M  V30 1793 H 166.071 -1.20156 0.793626 0
M  V30 1794 H 168.024 -4.21313 -0.085466 0
M  V30 1795 H 166.748 -3.17449 -0.767714 0
M  V30 1796 H 165.407 -3.40758 1.35202 0
M  V30 1797 H 165.055 -5.00054 -0.543599 0
M  V30 1798 H 164.755 -5.78552 1.02721 0
M  V30 1799 H 166.279 -6.10413 0.150908 0
M  V30 1800 H 167.693 -5.26759 2.26269 0
M  V30 1801 H 166.09 -5.16944 3.04776 0
M  V30 1802 H 167.16 -3.75603 3.06677 0
M  V30 1803 N 168.503 -0.877838 -1.30888 0
M  V30 1804 C 169.413 -0.343096 -2.32078 0
M  V30 1805 C 170.429 0.551022 -1.65045 0
M  V30 1806 O 171.605 0.445854 -1.96403 0
M  V30 1807 C 168.67 0.439905 -3.43898 0
M  V30 1808 C 167.731 -0.483111 -4.26573 0
M  V30 1809 C 166.964 0.262616 -5.33053 0
M  V30 1810 O 167.187 1.48967 -5.50604 0
M  V30 1811 O 166.121 -0.383593 -6.00676 0
M  V30 1812 H 169.947 -1.18203 -2.79753 0
M  V30 1813 H 167.532 -0.64145 -1.34929 0
M  V30 1814 H 169.414 0.883504 -4.12034 0
M  V30 1815 H 168.089 1.25526 -2.98371 0
M  V30 1816 H 166.996 -0.975374 -3.61161 0
M  V30 1817 H 168.329 -1.26427 -4.75686 0
M  V30 1818 N 169.982 1.44106 -0.638065 0
M  V30 1819 C 170.929 2.30715 0.062701 0
M  V30 1820 C 171.899 1.43882 0.829883 0
M  V30 1821 O 173.084 1.72775 0.809532 0
M  V30 1822 C 170.224 3.29258 1.03358 0
M  V30 1823 C 169.337 4.31192 0.26409 0
M  V30 1824 C 168.472 5.16825 1.22741 0
M  V30 1825 C 167.511 6.10462 0.447475 0
M  V30 1826 N 166.648 6.8877 1.36161 0
M  V30 1827 H 171.488 2.90096 -0.681781 0
M  V30 1828 H 169.025 1.42925 -0.347988 0
M  V30 1829 H 170.983 3.84886 1.60992 0
M  V30 1830 H 169.613 2.71562 1.74511 0
M  V30 1831 H 168.665 3.77981 -0.428295 0
M  V30 1832 H 169.977 4.97619 -0.343052 0
M  V30 1833 H 169.131 5.77004 1.87487 0
M  V30 1834 H 167.87 4.50488 1.86847 0
M  V30 1835 H 166.875 5.49386 -0.213433 0
M  V30 1836 H 168.1 6.78837 -0.188968 0
M  V30 1837 H 166.046 6.25096 1.98975 0
M  V30 1838 H 165.963 7.51663 0.808656 0
M  V30 1839 H 167.231 7.53467 1.99769 0
M  V30 1840 N 171.46 0.379036 1.52974 0
M  V30 1841 C 172.706 -0.206727 2.01744 0
M  V30 1842 C 173.039 -1.47314 1.26539 0
M  V30 1843 O 172.314 -1.91084 0.362903 0
M  V30 1844 C 172.597 -0.485066 3.56818 0
M  V30 1845 C 172.45 0.795919 4.42702 0
M  V30 1846 C 173.769 -1.28003 4.21074 0
M  V30 1847 H 170.888 -0.0736607 0.73331 0
M  V30 1848 H 173.53 0.506581 1.83122 0
M  V30 1849 H 171.68 -1.09272 3.72816 0
M  V30 1850 H 173.352 1.43307 4.38476 0
M  V30 1851 H 171.595 1.41344 4.10127 0
M  V30 1852 H 172.266 0.555947 5.49193 0
M  V30 1853 H 174.742 -0.765867 4.08991 0
M  V30 1854 H 173.618 -1.44352 5.29579 0
M  V30 1855 H 173.879 -2.29236 3.78026 0
M  V30 1856 N 172.938 -1.57226 0.108567 0
M  V30 1857 C 174.215 -1.86333 -0.594939 0
M  V30 1858 C 174.595 -1.00788 -1.85486 0
M  V30 1859 O 173.943 -0.0839293 -2.28346 0
M  V30 1860 C 174.153 -3.37265 -0.897405 0
M  V30 1861 C 175.501 -4.05629 -1.25501 0
M  V30 1862 O 176.525 -3.42224 -0.987998 0
M  V30 1863 O 175.384 -5.17531 -1.75567 0
M  V30 1864 H 172.478 -0.771018 -0.2991 0
M  V30 1865 H 175.024 -1.69102 0.142283 0
M  V30 1866 H 173.796 -3.913 -0.00413806 0
M  V30 1867 H 173.419 -3.59889 -1.69014 0
M  V30 1868 N 174.416 0.165178 -1.56732 0
M  V30 1869 C 175.827 0.727046 -1.71962 0
M  V30 1870 C 176.178 1.82508 -0.720078 0
M  V30 1871 O 175.303 2.16082 0.117242 0
M  V30 1872 C 175.898 1.32559 -3.11791 0
M  V30 1873 C 174.457 1.83422 -3.28684 0
M  V30 1874 C 173.604 0.715567 -2.67908 0
M  V30 1875 H 176.555 -0.0602896 -1.58585 0
M  V30 1876 H 176.576 2.19533 -3.10782 0
M  V30 1877 H 176.088 0.526195 -3.84516 0
M  V30 1878 H 174.189 2.65986 -2.60926 0
M  V30 1879 H 174.302 1.97543 -4.36478 0
M  V30 1880 H 172.666 1.13758 -2.27884 0
M  V30 1881 H 173.449 -0.0720836 -3.43224 0
M  V30 1882 N 175.894 1.51508 0.433938 0
M  V30 1883 C 176.826 1.69266 1.54537 0
M  V30 1884 C 177.839 0.573276 1.52373 0
M  V30 1885 O 179.028 0.847698 1.57087 0
M  V30 1886 C 176.128 1.69524 2.93453 0
M  V30 1887 C 175.301 2.98101 3.20085 0
M  V30 1888 C 174.36 2.90502 4.38742 0
M  V30 1889 O 173.386 3.64442 4.3723 0
M  V30 1890 N 174.588 2.06586 5.42496 0
M  V30 1891 H 177.353 2.65145 1.39708 0
M  V30 1892 H 174.914 1.49437 0.622922 0
M  V30 1893 H 176.906 1.62004 3.70859 0
M  V30 1894 H 175.476 0.812245 3.01863 0
M  V30 1895 H 174.696 3.19464 2.30947 0
M  V30 1896 H 175.984 3.83207 3.34708 0
M  V30 1897 H 175.382 1.45896 5.46563 0
M  V30 1898 H 173.939 2.04943 6.18742 0
M  V30 1899 N 177.372 -0.689602 1.41712 0
M  V30 1900 C 178.302 -1.81577 1.46806 0
M  V30 1901 C 179.283 -1.66945 0.326105 0
M  V30 1902 O 180.468 -1.86588 0.538377 0
M  V30 1903 C 177.598 -3.19762 1.35535 0
M  V30 1904 C 176.552 -3.49107 2.47605 0
M  V30 1905 C 175.878 -4.86711 2.21397 0
M  V30 1906 C 177.178 -3.47483 3.89939 0
M  V30 1907 H 178.872 -1.7757 2.41058 0
M  V30 1908 H 176.418 -0.852887 1.16025 0
M  V30 1909 H 178.371 -3.98263 1.3771 0
M  V30 1910 H 177.095 -3.24409 0.377708 0
M  V30 1911 H 175.754 -2.72959 2.44722 0
M  V30 1912 H 175.402 -4.8799 1.21961 0
M  V30 1913 H 175.102 -5.0731 2.96497 0
M  V30 1914 H 176.626 -5.67515 2.25297 0
M  V30 1915 H 178.04 -4.1598 3.94505 0
M  V30 1916 H 176.437 -3.79615 4.64771 0
M  V30 1917 H 177.507 -2.46341 4.17665 0
M  V30 1918 N 178.85 -1.27639 -0.924453 0
M  V30 1919 C 180.096 -1.14336 -1.67497 0
M  V30 1920 C 180.429 0.309465 -1.91718 0
M  V30 1921 O 179.704 1.22608 -1.50989 0
M  V30 1922 C 179.987 -1.93096 -3.0395 0
M  V30 1923 C 179.84 -3.46381 -2.8695 0
M  V30 1924 C 181.159 -1.73798 -4.0433 0
M  V30 1925 H 178.278 -0.416728 -0.607871 0
M  V30 1926 H 180.92 -1.56832 -1.07256 0
M  V30 1927 H 179.07 -1.56982 -3.55372 0
M  V30 1928 H 180.742 -3.92343 -2.42621 0
M  V30 1929 H 178.985 -3.72557 -2.22225 0
M  V30 1930 H 179.656 -3.96735 -3.83804 0
M  V30 1931 H 182.132 -2.05293 -3.61931 0
M  V30 1932 H 181.008 -2.31294 -4.97789 0
M  V30 1933 H 181.269 -0.686725 -4.36734 0
M  V30 1934 N 180.328 1.1314 -1.09713 0
M  V30 1935 C 181.605 1.80762 -0.747302 0
M  V30 1936 C 181.985 1.96663 0.767265 0
M  V30 1937 O 181.333 1.53706 1.69076 0
M  V30 1938 C 181.543 3.15606 -1.48975 0
M  V30 1939 C 182.891 3.90914 -1.65746 0
M  V30 1940 O 183.915 3.25239 -1.45251 0
M  V30 1941 O 182.774 5.08718 -1.9967 0
M  V30 1942 H 179.868 0.782103 -0.268782 0
M  V30 1943 H 182.414 1.20041 -1.19951 0
M  V30 1944 H 181.186 2.99278 -2.52088 0
M  V30 1945 H 180.809 3.84029 -1.02991 0
M  V30 1946 N 181.806 0.884767 1.30421 0
M  V30 1947 C 183.054 0.502112 1.95763 0
M  V30 1948 C 183.375 -0.951815 1.70192 0
M  V30 1949 O 182.645 -1.6692 1.0254 0
M  V30 1950 H 181.225 0.182694 0.724315 0
M  V30 1951 H 183.887 1.1278 1.58955 0
M  V30 1952 H 182.983 0.672188 3.04775 0
M  V30 1953 N 183.284 -1.43765 0.645699 0
M  V30 1954 C 184.234 -2.27884 -0.0726442 0
M  V30 1955 C 185.218 -1.39483 -0.802086 0
M  V30 1956 O 186.41 -1.63174 -0.685791 0
M  V30 1957 C 183.539 -3.27055 -1.04356 0
M  V30 1958 C 182.625 -4.22944 -0.312985 0
M  V30 1959 N 183.016 -5.01391 0.666386 0
M  V30 1960 C 181.314 -4.42528 -0.55546 0
M  V30 1961 C 182.015 -5.71217 1.09935 0
M  V30 1962 N 180.991 -5.41856 0.435137 0
M  V30 1963 H 184.793 -2.85949 0.678988 0
M  V30 1964 H 182.307 -1.55378 0.472368 0
M  V30 1965 H 184.304 -3.86089 -1.57292 0
M  V30 1966 H 182.964 -2.70551 -1.79534 0
M  V30 1967 H 183.975 -5.07252 1.04481 0
M  V30 1968 H 180.652 -3.97104 -1.28899 0
M  V30 1969 H 182.042 -6.44202 1.90929 0
M  V30 1970 N 184.763 -0.387143 -1.52771 0
M  V30 1971 C 185.693 0.440551 -2.29306 0
M  V30 1972 C 186.674 1.06535 -1.32606 0
M  V30 1973 O 187.859 1.07853 -1.61497 0
M  V30 1974 C 184.989 1.56919 -3.09829 0
M  V30 1975 C 183.943 1.07054 -4.14395 0
M  V30 1976 C 183.269 2.29109 -4.83129 0
M  V30 1977 C 184.569 0.140015 -5.22112 0
M  V30 1978 H 186.263 -0.198026 -2.98744 0
M  V30 1979 H 183.809 -0.09668 -1.43675 0
M  V30 1980 H 185.762 2.15503 -3.62128 0
M  V30 1981 H 184.486 2.23532 -2.3812 0
M  V30 1982 H 183.145 0.507247 -3.63074 0
M  V30 1983 H 182.793 2.94227 -4.0797 0
M  V30 1984 H 182.493 1.96406 -5.53804 0
M  V30 1985 H 184.017 2.88339 -5.38231 0
M  V30 1986 H 185.431 0.633978 -5.69784 0
M  V30 1987 H 183.828 -0.0971485 -6.00021 0
M  V30 1988 H 184.898 -0.811711 -4.78058 0
M  V30 1989 N 186.241 1.57166 -0.116904 0
M  V30 1990 C 187.466 1.999 0.55271 0
M  V30 1991 C 187.891 0.996039 1.59564 0
M  V30 1992 O 187.249 -0.032556 1.81271 0
M  V30 1993 C 187.297 3.4152 1.15742 0
M  V30 1994 O 186.401 3.44106 2.27299 0
M  V30 1995 H 185.742 0.649447 0.138258 0
M  V30 1996 H 188.272 2.03573 -0.204759 0
M  V30 1997 H 188.282 3.79684 1.49346 0
M  V30 1998 H 186.957 4.14034 0.393493 0
M  V30 1999 H 185.534 3.17759 1.9515 0
M  V30 2000 N 187.719 -0.156864 1.56817 0
M  V30 2001 C 188.949 -0.885031 1.86684 0
M  V30 2002 C 189.357 -1.75696 0.701954 0
M  V30 2003 O 188.7 -1.80569 -0.337732 0
M  V30 2004 C 188.762 -1.80092 3.11138 0
M  V30 2005 C 188.426 -1.10714 4.43386 0
M  V30 2006 C 189.423 -0.465714 5.1781 0
M  V30 2007 C 187.108 -1.09959 4.90117 0
M  V30 2008 C 189.102 0.174002 6.37162 0
M  V30 2009 C 186.789 -0.456055 6.09396 0
M  V30 2010 C 187.787 0.179622 6.82764 0
M  V30 2011 O 187.475 0.812975 7.99779 0
M  V30 2012 H 187.207 -0.261813 0.623242 0
M  V30 2013 H 189.761 -0.157383 2.04796 0
M  V30 2014 H 187.991 -2.56926 2.89009 0
M  V30 2015 H 189.68 -2.40018 3.27332 0
M  V30 2016 H 190.446 -0.463427 4.82781 0
M  V30 2017 H 186.325 -1.58378 4.3294 0
M  V30 2018 H 189.869 0.670765 6.94368 0
M  V30 2019 H 185.766 -0.455975 6.43888 0
M  V30 2020 H 186.534 0.71366 8.15383 0
M  V30 2021 N 189.197 -1.51736 -0.425897 0
M  V30 2022 C 190.444 -1.6497 -1.17436 0
M  V30 2023 C 190.772 -0.371445 -1.9092 0
M  V30 2024 O 190.027 0.644963 -1.84767 0
M  V30 2025 C 190.326 -2.81103 -2.20717 0
M  V30 2026 C 189.992 -4.19954 -1.64162 0
M  V30 2027 C 188.654 -4.57725 -1.48462 0
M  V30 2028 C 191.006 -5.06552 -1.22696 0
M  V30 2029 C 188.334 -5.79789 -0.897873 0
M  V30 2030 C 190.686 -6.29205 -0.654464 0
M  V30 2031 C 189.35 -6.6574 -0.484456 0
M  V30 2032 H 188.62 -0.603668 -0.429727 0
M  V30 2033 H 191.267 -1.85798 -0.463829 0
M  V30 2034 H 189.572 -2.54542 -2.97852 0
M  V30 2035 H 191.269 -2.8854 -2.78471 0
M  V30 2036 H 187.859 -3.90181 -1.77361 0
M  V30 2037 H 192.043 -4.77968 -1.33642 0
M  V30 2038 H 187.299 -6.06733 -0.75402 0
M  V30 2039 H 191.473 -6.95643 -0.324694 0
M  V30 2040 H 189.1 -7.60195 -0.0276833 0
M  V30 2041 N 190.675 0.682077 -1.42076 0
M  V30 2042 C 191.605 1.80796 -1.47767 0
M  V30 2043 C 192.586 1.6677 -0.334954 0
M  V30 2044 O 193.771 1.863 -0.548264 0
M  V30 2045 C 190.901 3.19038 -1.37229 0
M  V30 2046 C 189.855 3.47789 -2.49453 0
M  V30 2047 C 189.181 4.8553 -2.23975 0
M  V30 2048 C 190.481 3.45411 -3.91776 0
M  V30 2049 H 192.175 1.7629 -2.41997 0
M  V30 2050 H 189.721 0.846721 -1.16476 0
M  V30 2051 H 191.674 3.97528 -1.39821 0
M  V30 2052 H 190.398 3.24204 -0.394907 0
M  V30 2053 H 189.057 2.71657 -2.46166 0
M  V30 2054 H 188.705 4.87337 -1.24547 0
M  V30 2055 H 188.405 5.0573 -2.99184 0
M  V30 2056 H 189.929 5.66312 -2.28304 0
M  V30 2057 H 191.343 4.13882 -3.96705 0
M  V30 2058 H 189.74 3.77145 -4.66778 0
M  V30 2059 H 190.81 2.44122 -4.18966 0
M  V30 2060 N 192.153 1.28127 0.917671 0
M  V30 2061 C 193.401 1.14825 1.66312 0
M  V30 2062 C 193.722 -0.304379 1.9261 0
M  V30 2063 O 192.992 -1.21149 1.53947 0
M  V30 2064 H 191.572 0.421953 0.616413 0
M  V30 2065 H 194.234 1.608 1.10134 0
M  V30 2066 H 193.33 1.68489 2.62712 0
M  V30 2067 N 193.631 -1.12557 1.10312 0
M  V30 2068 C 194.594 -2.16434 0.75424 0
M  V30 2069 C 195.594 -1.59278 -0.220685 0
M  V30 2070 O 196.784 -1.742 0.00230591 0
M  V30 2071 C 193.916 -3.40699 0.116987 0
M  V30 2072 H 195.109 -2.48811 1.67431 0
M  V30 2073 H 192.662 -1.27542 0.903475 0
M  V30 2074 H 193.397 -3.13921 -0.813877 0
M  V30 2075 H 193.182 -3.83459 0.818613 0
M  V30 2076 H 194.672 -4.17451 -0.111387 0
M  V30 2077 N 195.109 -0.891671 -1.2995 0
M  V30 2078 C 196.358 -0.509521 -1.95158 0
M  V30 2079 C 196.671 0.947388 -1.71125 0
M  V30 2080 O 197.877 1.43669 -2.30372 0
M  V30 2081 C 196.333 -0.860315 -3.49466 0
M  V30 2082 C 195.941 -2.33545 -3.8231 0
M  V30 2083 C 197.685 -0.547687 -4.20952 0
M  V30 2084 C 195.592 -2.62752 -5.29826 0
M  V30 2085 H 194.522 -0.18682 -0.730489 0
M  V30 2086 H 197.173 -1.08756 -1.47798 0
M  V30 2087 H 195.555 -0.211285 -3.95436 0
M  V30 2088 H 196.729 -3.02936 -3.47227 0
M  V30 2089 H 195.044 -2.61629 -3.23944 0
M  V30 2090 H 197.641 -0.742854 -5.29515 0
M  V30 2091 H 197.984 0.51332 -4.13123 0
M  V30 2092 H 198.517 -1.1542 -3.80688 0
M  V30 2093 H 195.256 -3.6762 -5.42712 0
M  V30 2094 H 194.776 -1.97977 -5.66185 0
M  V30 2095 H 196.455 -2.48601 -5.97333 0
M  V30 2096 N 196.587 1.43421 -0.653314 0
M  V30 2097 C 197.835 2.01414 -0.166415 0
M  V30 2098 C 198.156 1.51803 1.22397 0
M  V30 2099 O 197.426 0.730693 1.81763 0
M  V30 2100 H 196.006 0.744703 -0.0585319 0
M  V30 2101 H 198.668 1.75629 -0.845003 0
M  V30 2102 H 197.764 3.11734 -0.151111 0
M  V30 2103 N 198.065 0.39524 1.52563 0
M  V30 2104 C 198.998 -0.4813 2.23067 0
M  V30 2105 C 199.976 -1.05927 1.23362 0
M  V30 2106 O 201.16 -1.10979 1.52368 0
M  V30 2107 C 198.287 -1.66676 2.9485 0
M  V30 2108 C 197.333 -1.21348 4.08873 0
M  V30 2109 S 198.166 -0.190102 5.35162 0
M  V30 2110 C 199.322 -1.38121 6.1047 0
M  V30 2111 H 199.555 0.117381 2.97068 0
M  V30 2112 H 197.088 0.179458 1.53354 0
M  V30 2113 H 199.046 -2.3466 3.36816 0
M  V30 2114 H 197.707 -2.23676 2.20518 0
M  V30 2115 H 196.9 -2.09877 4.58222 0
M  V30 2116 H 196.502 -0.612486 3.68951 0
M  V30 2117 H 198.794 -2.30726 6.37002 0
M  V30 2118 H 199.737 -0.928521 7.01986 0
M  V30 2119 H 200.145 -1.60071 5.41329 0
M  V30 2120 N 199.544 -1.57102 0.125237 0
M  V30 2121 C 200.955 -1.82384 -0.399142 0
M  V30 2122 C 201.306 -1.04276 -1.66195 0
M  V30 2123 O 200.431 -0.281269 -2.14564 0
M  V30 2124 C 201.026 -3.30821 -0.730932 0
M  V30 2125 C 199.585 -3.56762 -1.19992 0
M  V30 2126 C 198.732 -2.7649 -0.211792 0
M  V30 2127 H 201.683 -1.54786 0.350277 0
M  V30 2128 H 201.704 -3.4579 -1.58775 0
M  V30 2129 H 201.216 -3.87643 0.188345 0
M  V30 2130 H 199.317 -3.05305 -2.13588 0
M  V30 2131 H 199.43 -4.65317 -1.14093 0
M  V30 2132 H 197.794 -2.4489 -0.700085 0
M  V30 2133 H 198.577 -3.36073 0.700691 0
M  V30 2134 N 201.022 0.148545 -1.56898 0
M  V30 2135 C 202.27 0.859717 -1.82902 0
M  V30 2136 C 202.591 1.81775 -0.70588 0
M  V30 2137 O 201.861 1.93994 0.272586 0
M  V30 2138 H 200.441 0.320469 -0.674766 0
M  V30 2139 H 203.103 0.142918 -1.94375 0
M  V30 2140 H 202.199 1.4229 -2.77777 0
M  V30 2141 N 202.5 1.5196 0.417844 0
M  V30 2142 C 203.43 1.77634 1.51554 0
M  V30 2143 C 204.411 0.626918 1.58126 0
M  V30 2144 O 205.596 0.871632 1.7354 0
M  V30 2145 C 202.726 1.91911 2.8946 0
M  V30 2146 C 201.68 3.07463 2.97743 0
M  V30 2147 C 201.006 3.06951 4.37819 0
M  V30 2148 C 202.306 4.47082 2.70027 0
M  V30 2149 H 204 2.6955 1.3032 0
M  V30 2150 H 201.546 1.29706 0.625492 0
M  V30 2151 H 203.499 2.08455 3.6623 0
M  V30 2152 H 202.223 0.966598 3.11969 0
M  V30 2153 H 200.882 2.90656 2.23416 0
M  V30 2154 H 200.53 2.09438 4.57323 0
M  V30 2155 H 200.23 3.84556 4.44286 0
M  V30 2156 H 201.754 3.25613 5.16535 0
M  V30 2157 H 203.168 4.6414 3.36522 0
M  V30 2158 H 201.565 5.2654 2.87881 0
M  V30 2159 H 202.635 4.55777 1.65514 0
M  V30 2160 N 203.978 -0.674533 1.42435 0
M  V30 2161 C 205.206 -1.46283 1.46317 0
M  V30 2162 C 205.621 -1.88653 0.0745836 0
M  V30 2163 O 204.978 -1.58151 -0.91074 0
M  V30 2164 C 205.029 -2.71178 2.3905 0
M  V30 2165 O 204.75 -2.30586 3.72507 0
M  V30 2166 C 206.251 -3.64738 2.51955 0
M  V30 2167 H 203.471 -0.450104 0.497642 0
M  V30 2168 H 206.015 -0.828792 1.86953 0
M  V30 2169 H 204.17 -3.3077 2.01667 0
M  V30 2170 H 204.584 -3.11241 4.22172 0
M  V30 2171 H 206.058 -4.49096 3.20962 0
M  V30 2172 H 206.535 -4.10656 1.55752 0
M  V30 2173 H 207.141 -3.11038 2.90061 0
M  V30 2174 N 205.456 -1.28612 -0.910864 0
M  V30 2175 C 206.681 -1.1891 -1.69927 0
M  V30 2176 C 207.106 0.248372 -1.86453 0
M  V30 2177 O 206.464 1.17961 -1.37676 0
M  V30 2178 C 206.512 -1.89578 -3.06745 0
M  V30 2179 O 205.616 -1.20521 -3.94396 0
M  V30 2180 H 204.957 -0.412632 -0.520222 0
M  V30 2181 H 207.487 -1.69985 -1.1387 0
M  V30 2182 H 207.497 -1.97597 -3.56958 0
M  V30 2183 H 206.172 -2.94136 -2.94035 0
M  V30 2184 H 204.749 -1.20684 -3.52831 0
M  V30 2185 N 206.934 1.1197 -1.10907 0
M  V30 2186 C 207.864 2.19928 -0.784473 0
M  V30 2187 C 208.845 1.6833 0.244726 0
M  V30 2188 O 210.03 1.93892 0.109418 0
M  V30 2189 C 207.16 3.46597 -0.220827 0
M  V30 2190 C 206.114 4.11376 -1.18127 0
M  V30 2191 C 205.44 5.32554 -0.478594 0
M  V30 2192 C 206.74 4.56945 -2.52979 0
M  V30 2193 H 208.434 2.47337 -1.68715 0
M  V30 2194 H 205.98 1.18879 -0.812642 0
M  V30 2195 H 207.933 4.21396 0.0184278 0
M  V30 2196 H 206.657 3.1863 0.717113 0
M  V30 2197 H 205.316 3.38564 -1.40606 0
M  V30 2198 H 204.964 5.00856 0.463976 0
M  V30 2199 H 204.664 5.76844 -1.11912 0
M  V30 2200 H 206.188 6.10096 -0.248 0
M  V30 2201 H 207.602 5.23093 -2.3462 0
M  V30 2202 H 205.999 5.1203 -3.12962 0
M  V30 2203 H 207.069 3.70676 -3.12614 0
M  V30 2204 N 208.412 0.89855 1.29475 0
M  V30 2205 C 209.661 0.519863 1.94885 0
M  V30 2206 C 209.974 -0.9383 1.71625 0
M  V30 2207 O 211.18 -1.42445 2.31131 0
M  V30 2208 C 209.636 0.878836 3.49005 0
M  V30 2209 C 209.244 2.35569 3.81066 0
M  V30 2210 C 210.988 0.570004 4.20656 0
M  V30 2211 C 208.895 2.65558 5.28425 0
M  V30 2212 H 207.825 0.190692 0.729488 0
M  V30 2213 H 210.476 1.09539 1.47219 0
M  V30 2214 H 208.858 0.232253 3.95318 0
M  V30 2215 H 210.032 3.04773 3.45616 0
M  V30 2216 H 208.347 2.63343 3.22552 0
M  V30 2217 H 210.944 0.770925 5.29113 0
M  V30 2218 H 211.287 -0.491404 4.1339 0
M  V30 2219 H 211.82 1.17438 3.8007 0
M  V30 2220 H 208.559 3.70493 5.40754 0
M  V30 2221 H 208.079 2.00977 5.65127 0
M  V30 2222 H 209.758 2.51765 5.96006 0
M  V30 2223 N 209.89 -1.43072 0.660911 0
M  V30 2224 C 211.138 -2.01323 0.177094 0
M  V30 2225 C 211.459 -1.5245 -1.2159 0
M  V30 2226 O 210.729 -0.740322 -1.81373 0
M  V30 2227 H 209.309 -0.744382 0.0624804 0
M  V30 2228 H 211.971 -1.75179 0.854305 0
M  V30 2229 H 211.067 -3.11649 0.167641 0
M  V30 2230 N 211.368 -0.403325 -1.52352 0
M  V30 2231 C 212.617 0.175668 -2.00934 0
M  V30 2232 C 212.93 1.46718 -1.29356 0
M  V30 2233 O 214.136 2.12708 -1.68724 0
M  V30 2234 C 212.592 0.363612 -3.58058 0
M  V30 2235 C 212.2 -0.915472 -4.38547 0
M  V30 2236 C 213.944 0.89821 -4.14888 0
M  V30 2237 C 211.851 -0.695035 -5.87302 0
M  V30 2238 H 210.781 0.0694234 -0.750797 0
M  V30 2239 H 213.432 -0.527879 -1.75743 0
M  V30 2240 H 211.814 1.12935 -3.79555 0
M  V30 2241 H 212.988 -1.68691 -4.28812 0
M  V30 2242 H 211.303 -1.37606 -3.93006 0
M  V30 2243 H 213.9 1.07907 -5.23699 0
M  V30 2244 H 214.243 1.87126 -3.71873 0
M  V30 2245 H 214.776 0.191681 -3.97338 0
M  V30 2246 H 211.515 -1.63948 -6.34666 0
M  V30 2247 H 211.035 0.0372116 -5.99788 0
M  V30 2248 H 212.714 -0.33497 -6.46132 0
M  V30 2249 N 212.846 1.57033 -0.133567 0
M  V30 2250 C 213.778 2.13176 0.841944 0
M  V30 2251 C 214.791 1.07794 1.22001 0
M  V30 2252 O 215.98 1.35117 1.16643 0
M  V30 2253 C 213.08 2.62847 2.13926 0
M  V30 2254 C 212.253 3.92486 1.93064 0
M  V30 2255 C 211.312 4.27605 3.0666 0
M  V30 2256 O 210.338 4.96168 2.78937 0
M  V30 2257 N 211.54 3.861 4.33483 0
M  V30 2258 H 214.305 2.97503 0.362192 0
M  V30 2259 H 211.866 1.61821 0.05042 0
M  V30 2260 H 213.858 2.83363 2.88942 0
M  V30 2261 H 212.428 1.83319 2.53205 0
M  V30 2262 H 211.648 3.80732 1.02159 0
M  V30 2263 H 212.936 4.77225 1.76447 0
M  V30 2264 H 212.334 3.30828 4.58878 0
M  V30 2265 H 210.891 4.11694 5.05323 0
M  V30 2266 N 214.325 -0.140222 1.56975 0
M  V30 2267 C 215.235 -1.19223 2.02047 0
M  V30 2268 C 216.251 -1.46612 0.937062 0
M  V30 2269 O 217.427 -1.58148 1.24704 0
M  V30 2270 C 214.492 -2.50414 2.39778 0
M  V30 2271 C 213.553 -2.30612 3.621 0
M  V30 2272 C 212.786 -3.55547 3.98023 0
M  V30 2273 O 213.009 -4.62004 3.34528 0
M  V30 2274 O 211.943 -3.47808 4.91237 0
M  V30 2275 H 215.769 -0.839559 2.91865 0
M  V30 2276 H 213.354 -0.349453 1.45256 0
M  V30 2277 H 215.236 -3.27747 2.64877 0
M  V30 2278 H 213.911 -2.85198 1.53114 0
M  V30 2279 H 212.818 -1.51207 3.4218 0
M  V30 2280 H 214.151 -2.00741 4.49404 0
M  V30 2281 N 215.803 -1.52179 -0.40978 0
M  V30 2282 C 216.75 -1.75475 -1.49924 0
M  V30 2283 C 217.72 -0.597175 -1.54994 0
M  V30 2284 O 218.905 -0.834655 -1.71575 0
M  V30 2285 C 216.045 -1.9107 -2.87378 0
M  V30 2286 C 215.158 -3.18717 -2.91622 0
M  V30 2287 C 214.293 -3.24747 -4.20372 0
M  V30 2288 C 213.332 -4.46598 -4.18588 0
M  V30 2289 N 212.469 -4.50025 -5.38908 0
M  V30 2290 H 217.309 -2.68458 -1.29361 0
M  V30 2291 H 214.846 -1.33024 -0.627934 0
M  V30 2292 H 216.804 -1.98096 -3.6717 0
M  V30 2293 H 215.434 -1.01469 -3.06437 0
M  V30 2294 H 214.486 -3.20866 -2.04326 0
M  V30 2295 H 215.798 -4.08544 -2.86169 0
M  V30 2296 H 214.952 -3.30841 -5.08556 0
M  V30 2297 H 213.691 -2.32857 -4.28519 0
M  V30 2298 H 212.696 -4.40652 -3.28794 0
M  V30 2299 H 213.921 -5.39783 -4.12081 0
M  V30 2300 H 211.867 -3.61017 -5.47725 0
M  V30 2301 H 211.784 -5.33697 -5.35447 0
M  V30 2302 H 213.052 -4.60347 -6.29048 0
M  V30 2303 N 217.281 0.66697 -1.42791 0
M  V30 2304 C 218.529 1.42417 -1.43394 0
M  V30 2305 C 218.85 1.94925 -0.0542373 0
M  V30 2306 O 218.12 1.73564 0.908415 0
M  V30 2307 H 216.7 0.528515 -0.527902 0
M  V30 2308 H 219.362 0.787562 -1.78279 0
M  V30 2309 H 218.458 2.27333 -2.13837 0
M  V30 2310 N 218.759 1.29093 0.90403 0
M  V30 2311 C 219.709 1.10482 1.99443 0
M  V30 2312 C 220.693 0.0255401 1.6088 0
M  V30 2313 O 221.885 0.24677 1.75271 0
M  V30 2314 C 219.014 0.778882 3.34348 0
M  V30 2315 C 218.1 1.89749 3.79284 0
M  V30 2316 N 218.491 3.14045 3.96497 0
M  V30 2317 C 216.789 1.78955 4.08523 0
M  V30 2318 C 217.49 3.86996 4.34292 0
M  V30 2319 N 216.466 3.14909 4.43095 0
M  V30 2320 H 220.268 2.04778 2.10815 0
M  V30 2321 H 217.782 1.20155 1.09255 0
M  V30 2322 H 219.779 0.62661 4.12164 0
M  V30 2323 H 218.439 -0.156205 3.24324 0
M  V30 2324 H 219.45 3.49548 3.82148 0
M  V30 2325 H 216.127 0.926886 4.07081 0
M  V30 2326 H 217.517 4.93941 4.55491 0
M  V30 2327 N 220.237 -1.11381 1.11499 0
M  V30 2328 C 221.486 -1.82494 0.858993 0
M  V30 2329 C 221.799 -1.85605 -0.617278 0
M  V30 2330 O 223.005 -2.52824 -0.989552 0
M  V30 2331 C 221.461 -3.27745 1.48699 0
M  V30 2332 C 221.069 -3.32961 2.99735 0
M  V30 2333 C 222.813 -4.03754 1.31085 0
M  V30 2334 C 220.72 -4.72612 3.55516 0
M  V30 2335 H 219.65 -0.683802 0.317696 0
M  V30 2336 H 222.301 -1.25331 1.34031 0
M  V30 2337 H 220.683 -3.84844 0.933339 0
M  V30 2338 H 221.857 -2.85741 3.61509 0
M  V30 2339 H 220.172 -2.70433 3.16631 0
M  V30 2340 H 222.769 -5.06891 1.70192 0
M  V30 2341 H 223.112 -4.15527 0.253496 0
M  V30 2342 H 223.645 -3.53043 1.83318 0
M  V30 2343 H 220.384 -4.66036 4.60967 0
M  V30 2344 H 219.904 -5.2024 2.98513 0
M  V30 2345 H 221.583 -5.4157 3.53992 0
M  V30 2346 N 221.715 -0.905404 -1.28997 0
M  V30 2347 C 222.943 -0.549846 -1.9946 0
M  V30 2348 C 223.358 0.866834 -1.67724 0
M  V30 2349 O 222.715 1.57298 -0.925404 0
M  V30 2350 C 222.766 -0.739387 -3.53858 0
M  V30 2351 O 222.487 -2.10031 -3.84472 0
M  V30 2352 C 223.988 -0.389541 -4.41585 0
M  V30 2353 H 221.208 -0.210429 -0.637151 0
M  V30 2354 H 223.752 -1.21632 -1.64396 0
M  V30 2355 H 221.907 -0.120023 -3.87214 0
M  V30 2356 H 222.321 -2.13385 -4.79132 0
M  V30 2357 H 223.795 -0.572972 -5.49018 0
M  V30 2358 H 224.272 0.673756 -4.34001 0
M  V30 2359 H 224.878 -0.986089 -4.1371 0
M  V30 2360 N 223.193 1.4272 -0.668489 0
M  V30 2361 C 224.156 2.292 0.00448567 0
M  V30 2362 C 225.156 1.43001 0.735339 0
M  V30 2363 O 226.346 1.64461 0.57429 0
M  V30 2364 C 223.478 3.25375 1.01705 0
M  V30 2365 H 224.671 2.90199 -0.756608 0
M  V30 2366 H 222.224 1.50254 -0.430506 0
M  V30 2367 H 222.959 2.69301 1.80686 0
M  V30 2368 H 222.744 3.88944 0.496463 0
M  V30 2369 H 224.234 3.90245 1.48655 0
M  V30 2370 N 224.671 0.411399 1.52136 0
M  V30 2371 C 225.919 -0.163322 2.01439 0
M  V30 2372 C 226.24 -1.45453 1.29879 0
M  V30 2373 O 225.51 -1.91225 0.4254 0
M  V30 2374 H 224.09 -0.0633447 0.744309 0
M  V30 2375 H 226.752 0.548161 1.87033 0
M  V30 2376 H 225.848 -0.357817 3.10042 0
M  V30 2377 N 226.149 -1.5696 0.141893 0
M  V30 2378 C 227.374 -2.00754 -0.520838 0
M  V30 2379 C 227.799 -1.0213 -1.57959 0
M  V30 2380 O 227.157 0.00371324 -1.813 0
M  V30 2381 C 227.205 -3.43318 -1.10294 0
M  V30 2382 O 226.309 -3.47679 -2.21795 0
M  V30 2383 H 225.65 -0.651564 -0.127908 0
M  V30 2384 H 228.18 -2.03221 0.23712 0
M  V30 2385 H 228.19 -3.82012 -1.43287 0
M  V30 2386 H 226.865 -4.14608 -0.327574 0
M  V30 2387 H 225.442 -3.20824 -1.9007 0
M  V30 2388 N 227.627 0.131896 -1.57047 0
M  V30 2389 C 228.575 1.18146 -2.0036 0
M  V30 2390 C 229.569 1.43614 -0.898406 0
M  V30 2391 O 230.775 1.43729 -1.08361 0
M  V30 2392 H 227.15 0.398042 -0.638018 0
M  V30 2393 H 229.121 0.789564 -2.87765 0
M  V30 2394 C 227.87 2.50341 -2.41298 0
M  V30 2395 H 227.193 2.31578 -3.25902 0
M  V30 2396 H 228.633 3.22371 -2.75414 0
M  V30 2397 C 227.092 3.11984 -1.27153 0
M  V30 2398 O 227.622 3.97484 -0.580459 0
M  V30 2399 N 225.828 2.71662 -1.03189 0
M  V30 2400 H 225.375 2.02231 -1.59564 0
M  V30 2401 H 225.333 3.13238 -0.270077 0
M  V30 2402 N 229.106 1.52395 0.401703 0
M  V30 2403 C 230.053 1.76268 1.48991 0
M  V30 2404 C 231.023 0.605386 1.54675 0
M  V30 2405 O 232.208 0.843742 1.7113 0
M  V30 2406 C 229.348 1.92592 2.86361 0
M  V30 2407 C 228.461 3.20259 2.89928 0
M  V30 2408 C 227.596 3.26972 4.18644 0
M  V30 2409 C 226.635 4.48812 4.16214 0
M  V30 2410 N 225.772 4.52877 5.36514 0
M  V30 2411 H 230.612 2.6914 1.27935 0
M  V30 2412 H 228.149 1.33355 0.620871 0
M  V30 2413 H 230.107 2.0004 3.66115 0
M  V30 2414 H 228.737 1.03093 3.05895 0
M  V30 2415 H 227.789 3.21945 2.02621 0
M  V30 2416 H 229.101 4.10056 2.83999 0
M  V30 2417 H 228.255 3.33533 5.06794 0
M  V30 2418 H 226.994 2.35126 4.27278 0
M  V30 2419 H 225.999 4.4239 3.26453 0
M  V30 2420 H 227.224 5.41961 4.09213 0
M  V30 2421 H 225.17 3.63917 5.45802 0
M  V30 2422 H 225.087 5.36529 5.32609 0
M  V30 2423 H 226.355 4.63676 6.26597 0
M  V30 2424 N 230.584 -0.659388 1.43143 0
M  V30 2425 C 231.812 -1.44723 1.47861 0
M  V30 2426 C 232.227 -1.88563 0.0945886 0
M  V30 2427 O 231.584 -1.59108 -0.893915 0
M  V30 2428 C 231.635 -2.68627 2.41913 0
M  V30 2429 O 231.356 -2.26623 3.74932 0
M  V30 2430 C 232.857 -3.62045 2.55809 0
M  V30 2431 H 230.077 -0.444801 0.502387 0
M  V30 2432 H 232.621 -0.808916 1.87821 0
M  V30 2433 H 230.776 -3.28613 2.05164 0
M  V30 2434 H 231.19 -3.06745 4.2545 0
M  V30 2435 H 232.664 -4.45666 3.25708 0
M  V30 2436 H 233.141 -4.08981 1.60099 0
M  V30 2437 H 233.747 -3.07944 2.93344 0
M  V30 2438 N 232.062 -1.29571 -0.897171 0
M  V30 2439 C 232.995 -1.0924 -2.00354 0
M  V30 2440 C 233.973 -0.00354011 -1.626 0
M  V30 2441 O 235.157 -0.15473 -1.87864 0
M  V30 2442 C 232.284 -0.66352 -3.32137 0
M  V30 2443 C 231.33 -1.75146 -3.88878 0
M  V30 2444 S 232.163 -3.35124 -4.17674 0
M  V30 2445 C 233.319 -2.9411 -5.52494 0
M  V30 2446 H 233.552 -2.02907 -2.17292 0
M  V30 2447 H 231.085 -1.13746 -1.04408 0
M  V30 2448 H 233.043 -0.422791 -4.08317 0
M  V30 2449 H 231.704 0.253588 -3.13075 0
M  V30 2450 H 230.897 -1.40337 -4.84068 0
M  V30 2451 H 230.499 -1.94584 -3.19395 0
M  V30 2452 H 232.791 -2.41312 -6.33068 0
M  V30 2453 H 233.734 -3.88161 -5.9223 0
M  V30 2454 H 234.142 -2.32332 -5.14473 0
M  V30 2455 N 233.54 1.10788 -1.12088 0
M  V30 2456 C 234.786 1.82942 -0.875226 0
M  V30 2457 C 235.119 1.84779 0.597538 0
M  V30 2458 O 234.394 1.30578 1.44152 0
M  V30 2459 C 234.677 3.29789 -1.44606 0
M  V30 2460 C 234.53 3.36307 -2.98693 0
M  V30 2461 C 235.849 4.26064 -1.10261 0
M  V30 2462 H 232.968 0.664195 -0.319397 0
M  V30 2463 H 235.61 1.29867 -1.38689 0
M  V30 2464 H 233.76 3.75118 -1.01089 0
M  V30 2465 H 235.432 2.99487 -3.50864 0
M  V30 2466 H 233.675 2.76318 -3.34411 0
M  V30 2467 H 234.346 4.39694 -3.33726 0
M  V30 2468 H 236.822 3.88951 -1.4784 0
M  V30 2469 H 235.698 5.27183 -1.52869 0
M  V30 2470 H 235.959 4.42098 -0.0142953 0
M  V30 2471 N 235.018 0.912232 1.28515 0
M  V30 2472 C 236.264 0.545405 1.95328 0
M  V30 2473 C 236.597 -0.908313 1.71649 0
M  V30 2474 O 235.872 -1.64575 1.03659 0
M  V30 2475 C 236.155 0.853483 3.4984 0
M  V30 2476 C 236.008 2.35982 3.82926 0
M  V30 2477 C 237.327 0.348589 4.38717 0
M  V30 2478 H 234.446 0.199626 0.709449 0
M  V30 2479 H 237.088 1.1412 1.5191 0
M  V30 2480 H 235.238 0.34643 3.86952 0
M  V30 2481 H 236.91 2.93738 3.55691 0
M  V30 2482 H 235.153 2.81543 3.30024 0
M  V30 2483 H 235.824 2.52593 4.90816 0
M  V30 2484 H 238.3 0.78294 4.08668 0
M  V30 2485 H 237.176 0.593242 5.45685 0
M  V30 2486 H 237.437 -0.751049 4.35674 0
M  V30 2487 N 236.496 -1.42363 0.676048 0
M  V30 2488 C 237.721 -2.06377 0.205705 0
M  V30 2489 C 238.146 -1.50463 -1.12883 0
M  V30 2490 O 237.504 -0.623619 -1.70237 0
M  V30 2491 C 237.552 -3.60277 0.152655 0
M  V30 2492 O 236.656 -4.02935 -0.87845 0
M  V30 2493 H 235.997 -0.655588 0.105359 0
M  V30 2494 H 238.527 -1.82475 0.925412 0
M  V30 2495 H 238.537 -4.07993 -0.0230675 0
M  V30 2496 H 237.212 -4.00346 1.12675 0
M  V30 2497 H 235.789 -3.66764 -0.673668 0
M  V30 2498 N 237.974 -0.419461 -1.51915 0
M  V30 2499 C 239.222 0.152637 -2.01523 0
M  V30 2500 C 239.543 1.44762 -1.30649 0
M  V30 2501 O 238.813 1.90997 -0.435535 0
M  V30 2502 H 237.393 0.0593966 -0.744635 0
M  V30 2503 H 240.055 -0.558073 -1.86739 0
M  V30 2504 H 239.151 0.341369 -3.10227 0
M  V30 2505 N 239.452 1.56882 -0.150215 0
M  V30 2506 C 240.415 2.1573 0.774157 0
M  V30 2507 C 241.415 1.0999 1.17298 0
M  V30 2508 O 242.605 1.35613 1.09338 0
M  V30 2509 C 239.737 2.72302 2.05096 0
M  V30 2510 H 240.93 2.98752 0.262201 0
M  V30 2511 H 238.483 1.55985 0.099248 0
M  V30 2512 H 239.218 1.92956 2.6065 0
M  V30 2513 H 239.003 3.49665 1.77416 0
M  V30 2514 H 240.493 3.17632 2.71109 0
M  V30 2515 N 240.93 -0.123565 1.57115 0
M  V30 2516 C 241.893 -1.13583 1.99076 0
M  V30 2517 C 242.893 -1.34564 0.880296 0
M  V30 2518 O 244.083 -1.31158 1.14644 0
M  V30 2519 C 241.215 -2.49128 2.32698 0
M  V30 2520 H 242.408 -0.775287 2.89706 0
M  V30 2521 H 239.961 -0.36771 1.51913 0
M  V30 2522 H 240.696 -2.90111 1.44934 0
M  V30 2523 H 240.481 -2.35255 3.13684 0
M  V30 2524 H 241.971 -3.2199 2.65918 0
M  V30 2525 N 242.408 -1.52605 -0.393616 0
M  V30 2526 C 243.656 -1.67093 -1.13685 0
M  V30 2527 C 243.977 -0.411011 -1.90619 0
M  V30 2528 O 243.247 0.574491 -1.87287 0
M  V30 2529 H 241.827 -0.615923 -0.422668 0
M  V30 2530 H 244.489 -1.89704 -0.447039 0
M  V30 2531 H 243.585 -2.51922 -1.84232 0
M  V30 2532 N 243.887 0.651787 -1.4349 0
M  V30 2533 C 244.85 1.74647 -1.48429 0
M  V30 2534 C 245.85 1.56513 -0.368817 0
M  V30 2535 O 247.04 1.62385 -0.630623 0
M  V30 2536 C 244.172 3.13533 -1.33827 0
M  V30 2537 H 245.365 1.71649 -2.4592 0
M  V30 2538 H 242.918 0.863573 -1.30277 0
M  V30 2539 H 243.653 3.22142 -0.37349 0
M  V30 2540 H 243.438 3.28101 -2.14691 0
M  V30 2541 H 244.928 3.93356 -1.40218 0
M  V30 2542 N 245.365 1.30045 0.890287 0
M  V30 2543 C 246.605 1.19839 1.65584 0
M  V30 2544 C 246.969 -0.244175 1.90441 0
M  V30 2545 O 248.17 -0.469378 2.6467 0
M  V30 2546 C 246.441 1.99876 2.96284 0
M  V30 2547 S 248 2.06309 3.87275 0
M  V30 2548 H 244.818 0.427157 0.568382 0
M  V30 2549 H 247.42 1.64453 1.05715 0
M  V30 2550 H 246.124 3.03809 2.75913 0
M  V30 2551 H 245.655 1.55903 3.61189 0
M  V30 2552 H 247.67 1.18661 4.81803 0
M  V30 2553 N 246.843 -1.10192 1.12674 0
M  V30 2554 C 248.091 -1.81845 0.881861 0
M  V30 2555 C 248.412 -1.85737 -0.593867 0
M  V30 2556 O 247.682 -1.33724 -1.4316 0
M  V30 2557 H 246.262 -0.673432 0.323261 0
M  V30 2558 H 248.924 -1.33316 1.42172 0
M  V30 2559 H 248.02 -2.85288 1.2656 0
M  V30 2560 N 248.321 -0.919034 -1.28029 0
M  V30 2561 C 249.546 -0.570357 -1.99403 0
M  V30 2562 C 249.971 0.842486 -1.68178 0
M  V30 2563 O 249.329 1.56391 -0.917141 0
M  V30 2564 C 249.377 -0.792541 -3.51783 0
M  V30 2565 O 248.481 0.145988 -4.12142 0
M  V30 2566 H 247.822 -0.220555 -0.6263 0
M  V30 2567 H 250.352 -1.23592 -1.63053 0
M  V30 2568 H 250.362 -0.704708 -4.01868 0
M  V30 2569 H 249.037 -1.82247 -3.73844 0
M  V30 2570 H 247.614 0.00897528 -3.72899 0
M  V30 2571 N 249.799 1.42003 -0.683588 0
M  V30 2572 C 251.045 2.01712 -0.209825 0
M  V30 2573 C 251.378 1.53968 1.18353 0
M  V30 2574 O 250.653 0.745661 1.79639 0
M  V30 2575 C 250.936 3.59202 -0.254197 0
M  V30 2576 C 250.789 4.17102 -1.68363 0
M  V30 2577 C 252.108 4.38344 0.392709 0
M  V30 2578 H 249.227 0.732891 -0.0777189 0
M  V30 2579 H 251.869 1.68909 -0.87004 0
M  V30 2580 H 250.019 3.87278 0.307954 0
M  V30 2581 H 251.691 3.99946 -2.29871 0
M  V30 2582 H 249.934 3.72597 -2.22157 0
M  V30 2583 H 250.605 5.26249 -1.6663 0
M  V30 2584 H 253.081 4.16011 -0.0859162 0
M  V30 2585 H 251.957 5.47901 0.331063 0
M  V30 2586 H 252.218 4.16887 1.47164 0
M  V30 2587 N 251.277 0.427512 1.51691 0
M  V30 2588 C 252.24 -0.377132 2.26076 0
M  V30 2589 C 253.24 -0.958089 1.29141 0
M  V30 2590 O 254.43 -0.83408 1.52934 0
M  V30 2591 C 251.562 -1.53262 3.04506 0
M  V30 2592 H 252.755 0.27464 2.9864 0
M  V30 2593 H 250.308 0.180445 1.55255 0
M  V30 2594 H 251.043 -2.22072 2.36335 0
M  V30 2595 H 250.828 -1.12232 3.75694 0
M  V30 2596 H 252.318 -2.10135 3.60878 0
M  V30 2597 N 252.755 -1.56801 0.158532 0
M  V30 2598 C 254.003 -1.96102 -0.488712 0
M  V30 2599 C 254.324 -1.04498 -1.64636 0
M  V30 2600 O 253.594 -0.108783 -1.95598 0
M  V30 2601 H 252.174 -0.724102 -0.183535 0
M  V30 2602 H 254.836 -1.93457 0.236728 0
M  V30 2603 H 253.932 -3.00097 -0.857219 0
M  V30 2604 N 254.233 0.115231 -1.57178 0
M  V30 2605 C 255.165 1.16694 -1.97269 0
M  V30 2606 C 256.178 1.37445 -0.872502 0
M  V30 2607 O 257.367 1.36454 -1.15077 0
M  V30 2608 C 254.467 2.52627 -2.25905 0
M  V30 2609 C 253.64 2.52427 -3.57211 0
M  V30 2610 C 252.699 3.70134 -3.74016 0
M  V30 2611 O 251.725 3.53546 -4.46087 0
M  V30 2612 N 252.927 4.88844 -3.13068 0
M  V30 2613 H 255.692 0.82588 -2.88096 0
M  V30 2614 H 253.253 0.304461 -1.59011 0
M  V30 2615 H 255.245 3.29937 -2.34359 0
M  V30 2616 H 253.815 2.789 -1.41186 0
M  V30 2617 H 253.035 1.60805 -3.5991 0
M  V30 2618 H 254.323 2.49353 -4.43509 0
M  V30 2619 H 253.721 5.05225 -2.54489 0
M  V30 2620 H 252.278 5.63817 -3.27037 0
M  V30 2621 N 255.711 1.52812 0.385517 0
M  V30 2622 C 256.96 1.67249 1.12741 0
M  V30 2623 C 257.273 0.4205 1.91027 0
M  V30 2624 O 258.479 0.445064 2.67827 0
M  V30 2625 C 256.935 2.95583 2.05326 0
M  V30 2626 C 256.543 4.27974 1.32447 0
M  V30 2627 C 258.287 3.19386 2.7963 0
M  V30 2628 C 256.194 5.47412 2.23818 0
M  V30 2629 H 255.124 0.6231 0.424573 0
M  V30 2630 H 257.775 1.79309 0.389924 0
M  V30 2631 H 256.157 2.77277 2.82725 0
M  V30 2632 H 257.331 4.56844 0.602495 0
M  V30 2633 H 255.646 4.10459 0.700885 0
M  V30 2634 H 258.243 4.05801 3.48181 0
M  V30 2635 H 258.586 2.34604 3.43899 0
M  V30 2636 H 259.119 3.38274 2.09322 0
M  V30 2637 H 255.858 6.34612 1.64157 0
M  V30 2638 H 255.378 5.22849 2.93921 0
M  V30 2639 H 257.057 5.81423 2.83824 0
M  V30 2640 N 257.189 -0.644168 1.43834 0
M  V30 2641 C 258.437 -1.40117 1.45642 0
M  V30 2642 C 258.758 -1.94814 0.0852413 0
M  V30 2643 O 258.028 -1.74988 -0.880688 0
M  V30 2644 H 256.608 -0.52005 0.536243 0
M  V30 2645 H 259.27 -0.7591 1.7951 0
M  V30 2646 H 258.366 -2.23902 2.17427 0
M  V30 2647 N 258.668 -1.30515 -0.883378 0
M  V30 2648 C 259.618 -1.13641 -1.9766 0
M  V30 2649 C 260.602 -0.0511314 -1.60819 0
M  V30 2650 O 261.794 -0.274623 -1.74857 0
M  V30 2651 C 258.923 -0.831976 -3.33066 0
M  V30 2652 C 258.009 -1.95759 -3.76217 0
M  V30 2653 N 258.4 -3.20313 -3.9145 0
M  V30 2654 C 256.698 -1.85431 -4.05625 0
M  V30 2655 C 257.399 -3.93856 -4.2808 0
M  V30 2656 N 256.375 -3.21919 -4.38029 0
M  V30 2657 H 260.177 -2.08106 -2.07531 0
M  V30 2658 H 257.691 -1.21877 -1.0733 0
M  V30 2659 H 259.688 -0.692102 -4.11115 0
M  V30 2660 H 258.348 0.104588 -3.24532 0
M  V30 2661 H 259.359 -3.55583 -3.76538 0
M  V30 2662 H 256.036 -0.991531 -4.05555 0
M  V30 2663 H 257.426 -5.01125 -4.47575 0
M  V30 2664 N 260.146 1.09593 -1.13257 0
M  V30 2665 C 261.393 1.81734 -0.893257 0
M  V30 2666 C 261.721 1.8563 0.580656 0
M  V30 2667 O 260.976 1.31906 1.44566 0
M  V30 2668 C 261.275 3.27802 -1.42411 0
M  V30 2669 C 260.941 3.44041 -2.91456 0
M  V30 2670 C 259.603 3.48181 -3.3215 0
M  V30 2671 C 261.955 3.48719 -3.87356 0
M  V30 2672 C 259.283 3.54575 -4.67433 0
M  V30 2673 C 261.635 3.56648 -5.2248 0
M  V30 2674 C 260.299 3.59055 -5.62704 0
M  V30 2675 H 259.569 0.665011 -0.326866 0
M  V30 2676 H 262.216 1.2912 -1.41422 0
M  V30 2677 H 260.521 3.83042 -0.823795 0
M  V30 2678 H 262.218 3.82149 -1.21503 0
M  V30 2679 H 258.808 3.41502 -2.58987 0
M  V30 2680 H 262.992 3.44763 -3.57004 0
M  V30 2681 H 258.248 3.54725 -4.97976 0
M  V30 2682 H 262.422 3.59212 -5.96607 0
M  V30 2683 H 260.049 3.63763 -6.67518 0
M  V30 2684 N 261.624 0.925811 1.2754 0
M  V30 2685 C 262.554 0.440748 2.29303 0
M  V30 2686 C 263.535 -0.497971 1.62648 0
M  V30 2687 O 264.72 -0.403126 1.8997 0
M  V30 2688 C 261.85 -0.309048 3.45922 0
M  V30 2689 C 260.804 0.54166 4.24559 0
M  V30 2690 C 260.13 -0.337191 5.33636 0
M  V30 2691 C 261.43 1.80516 4.90114 0
M  V30 2692 H 263.124 1.29121 2.70126 0
M  V30 2693 H 260.67 0.622323 1.29858 0
M  V30 2694 H 262.623 -0.659315 4.1621 0
M  V30 2695 H 261.347 -1.19352 3.04011 0
M  V30 2696 H 260.006 0.874609 3.56014 0
M  V30 2697 H 259.654 -1.22056 4.87966 0
M  V30 2698 H 259.354 0.228497 5.87156 0
M  V30 2699 H 260.878 -0.683072 6.06767 0
M  V30 2700 H 262.292 1.52307 5.52698 0
M  V30 2701 H 260.689 2.3142 5.53683 0
M  V30 2702 H 261.759 2.52581 4.13921 0
M  V30 2703 N 263.102 -1.41638 0.69111 0
M  V30 2704 C 264.35 -2.00902 0.219758 0
M  V30 2705 C 264.671 -1.54994 -1.18329 0
M  V30 2706 O 263.941 -0.778628 -1.79762 0
M  V30 2707 H 262.521 -0.74289 0.0782558 0
M  V30 2708 H 265.183 -1.73327 0.891271 0
M  V30 2709 H 264.279 -3.11224 0.233708 0
M  V30 2710 N 264.58 -0.43555 -1.51462 0
M  V30 2711 C 265.82 0.130708 -2.03982 0
M  V30 2712 C 266.184 1.40117 -1.31268 0
M  V30 2713 O 267.385 2.04755 -1.74152 0
M  V30 2714 C 265.656 0.346102 -3.5572 0
M  V30 2715 S 267.215 0.876022 -4.29967 0
M  V30 2716 H 264.033 0.0326881 -0.710248 0
M  V30 2717 H 266.635 -0.594544 -1.8624 0
M  V30 2718 H 265.339 -0.584911 -4.0621 0
M  V30 2719 H 264.87 1.09849 -3.77752 0
M  V30 2720 H 266.885 2.15379 -4.47019 0
M  V30 2721 N 266.058 1.56714 -0.166846 0
M  V30 2722 C 267.283 2.01557 0.488833 0
M  V30 2723 C 267.708 1.0463 1.56314 0
M  V30 2724 O 267.066 0.0251304 1.81283 0
M  V30 2725 C 267.114 3.4503 1.04818 0
M  V30 2726 O 266.218 3.51163 2.16236 0
M  V30 2727 H 265.559 0.653516 0.117526 0
M  V30 2728 H 268.089 2.02818 -0.269421 0
M  V30 2729 H 268.099 3.84243 1.37191 0
M  V30 2730 H 266.774 4.15077 0.261572 0
M  V30 2731 H 265.351 3.23807 1.84942 0
M  V30 2732 N 267.536 -0.106894 1.57237 0
M  V30 2733 C 268.952 -0.46078 1.52804 0
M  V30 2734 C 269.152 -1.81184 0.881746 0
M  V30 2735 O 268.208 -2.48102 0.469224 0
M  V30 2736 C 269.521 -0.434127 2.9755 0
M  V30 2737 C 271.069 -0.516821 3.08704 0
M  V30 2738 C 271.544 -0.520436 4.55033 0
M  V30 2739 N 273.035 -0.58153 4.59535 0
M  V30 2740 C 273.77 -0.605973 5.70189 0
M  V30 2741 N 273.266 -0.587331 6.90306 0
M  V30 2742 N 275.059 -0.649895 5.5833 0
M  V30 2743 H 267.21 0.778203 1.9763 0
M  V30 2744 H 269.473 0.288403 0.903066 0
M  V30 2745 H 269.179 0.491197 3.48253 0
M  V30 2746 H 269.053 -1.25748 3.55622 0
M  V30 2747 H 271.44 -1.43256 2.57995 0
M  V30 2748 H 271.521 0.334449 2.53604 0
M  V30 2749 H 271.165 0.391313 5.0639 0
M  V30 2750 H 271.095 -1.38876 5.07958 0
M  V30 2751 H 273.586 -0.60161 3.73081 0
M  V30 2752 H 273.899 -0.60894 7.70397 0
M  V30 2753 H 272.244 -0.554564 6.92784 0
M  V30 2754 H 275.435 -0.661907 4.63397 0
M  V30 2755 H 275.608 -0.665476 6.44574 0
M  V30 2756 N 269.014 -1.53014 -0.377408 0
M  V30 2757 C 270.26 -1.68872 -1.12294 0
M  V30 2758 C 270.593 -0.433224 -1.89306 0
M  V30 2759 O 269.868 0.569258 -1.85983 0
M  V30 2760 C 270.151 -2.93115 -2.09179 0
M  V30 2761 C 270.004 -4.28794 -1.35853 0
M  V30 2762 C 271.323 -3.12928 -3.09458 0
M  V30 2763 H 268.442 -0.614518 -0.406862 0
M  V30 2764 H 271.084 -1.85633 -0.40503 0
M  V30 2765 H 269.234 -2.78956 -2.70399 0
M  V30 2766 H 270.906 -4.54742 -0.775082 0
M  V30 2767 H 269.149 -4.28744 -0.660364 0
M  V30 2768 H 269.82 -5.11837 -2.06706 0
M  V30 2769 H 272.296 -3.26194 -2.58334 0
M  V30 2770 H 271.172 -4.01316 -3.74482 0
M  V30 2771 H 271.433 -2.27669 -3.78971 0
M  V30 2772 N 270.492 0.636531 -1.44174 0
M  V30 2773 C 271.738 1.39826 -1.4689 0
M  V30 2774 C 272.071 1.93947 -0.0990585 0
M  V30 2775 O 271.346 1.73325 0.882544 0
M  V30 2776 C 271.629 2.56751 -2.5249 0
M  V30 2777 C 271.482 2.08014 -3.98811 0
M  V30 2778 C 272.801 3.58946 -2.54649 0
M  V30 2779 H 269.92 0.507075 -0.53483 0
M  V30 2780 H 272.562 0.720188 -1.75822 0
M  V30 2781 H 270.712 3.14597 -2.2795 0
M  V30 2782 H 272.384 1.5504 -4.34466 0
M  V30 2783 H 270.627 1.39242 -4.10846 0
M  V30 2784 H 271.298 2.92169 -4.68339 0
M  V30 2785 H 273.774 3.1089 -2.76563 0
M  V30 2786 H 272.65 4.38286 -3.3045 0
M  V30 2787 H 272.911 4.12655 -1.58646 0
M  V30 2788 N 271.97 1.30982 0.876444 0
M  V30 2789 C 273.218 1.20058 1.62575 0
M  V30 2790 C 273.539 -0.242947 1.93481 0
M  V30 2791 O 272.809 -1.1619 1.57724 0
M  V30 2792 H 271.389 0.44135 0.602677 0
M  V30 2793 H 274.051 1.64222 1.04962 0
M  V30 2794 H 273.147 1.76762 2.57219 0
M  V30 2795 N 273.449 -1.08991 1.13837 0
M  V30 2796 C 274.698 -1.80631 0.897509 0
M  V30 2797 C 275.011 -1.86872 -0.57777 0
M  V30 2798 O 276.217 -2.54866 -0.935701 0
M  V30 2799 C 274.673 -3.24517 1.55618 0
M  V30 2800 C 274.281 -3.26529 3.0673 0
M  V30 2801 C 276.025 -4.00882 1.3962 0
M  V30 2802 C 273.932 -4.64965 3.65461 0
M  V30 2803 H 272.862 -0.67691 0.332129 0
M  V30 2804 H 275.513 -1.2246 1.3666 0
M  V30 2805 H 273.895 -3.82778 1.01476 0
M  V30 2806 H 275.069 -2.78008 3.67489 0
M  V30 2807 H 273.384 -2.63656 3.22296 0
M  V30 2808 H 275.981 -5.03167 1.80906 0
M  V30 2809 H 276.324 -4.14896 0.341578 0
M  V30 2810 H 276.857 -3.49075 1.90766 0
M  V30 2811 H 273.596 -4.56153 4.70749 0
M  V30 2812 H 273.116 -5.13792 3.09481 0
M  V30 2813 H 274.795 -5.3394 3.654 0
M  V30 2814 N 274.927 -0.932562 -1.27047 0
M  V30 2815 C 276.167 -0.582919 -1.95912 0
M  V30 2816 C 276.531 0.860629 -1.71631 0
M  V30 2817 O 277.732 1.31878 -2.34225 0
M  V30 2818 C 276.003 -0.905673 -3.45734 0
M  V30 2819 S 277.562 -0.665277 -4.33727 0
M  V30 2820 H 274.38 -0.215 -0.677714 0
M  V30 2821 H 276.982 -1.20204 -1.54179 0
M  V30 2822 H 275.686 -1.95386 -3.60905 0
M  V30 2823 H 275.217 -0.275939 -3.92431 0
M  V30 2824 H 277.232 0.474635 -4.93925 0
M  V30 2825 N 276.405 1.4127 -0.698611 0
M  V30 2826 C 277.653 2.00782 -0.230409 0
M  V30 2827 C 277.974 1.5562 1.17505 0
M  V30 2828 O 277.244 0.78815 1.79346 0
M  V30 2829 H 275.824 0.742464 -0.0821944 0
M  V30 2830 H 278.486 1.72852 -0.90045 0
M  V30 2831 H 277.582 3.11095 -0.25021 0
M  V30 2832 N 277.883 0.443576 1.51229 0
M  V30 2833 C 279.111 -0.11929 2.06556 0
M  V30 2834 C 279.526 -1.35921 1.31038 0
M  V30 2835 O 278.883 -1.78675 0.371704 0
M  V30 2836 C 278.934 -0.435228 3.5887 0
M  V30 2837 O 278.655 0.755486 4.31537 0
M  V30 2838 C 280.156 -1.04808 4.30732 0
M  V30 2839 H 277.376 -0.0051584 0.67098 0
M  V30 2840 H 279.92 0.624453 1.94733 0
M  V30 2841 H 278.075 -1.12887 3.70588 0
M  V30 2842 H 278.489 0.483491 5.22267 0
M  V30 2843 H 279.963 -1.2191 5.3837 0
M  V30 2844 H 280.44 -2.03081 3.89429 0
M  V30 2845 H 281.046 -0.393637 4.23474 0
M  V30 2846 N 279.361 -1.56624 0.175154 0
M  V30 2847 C 280.311 -2.14747 -0.766004 0
M  V30 2848 C 281.295 -1.08275 -1.19018 0
M  V30 2849 O 282.487 -1.34388 -1.15191 0
M  V30 2850 C 279.616 -2.79478 -1.99366 0
M  V30 2851 C 278.702 -3.93114 -1.5913 0
M  V30 2852 N 279.093 -4.97752 -0.89872 0
M  V30 2853 C 277.391 -4.04345 -1.88204 0
M  V30 2854 C 278.092 -5.77473 -0.700012 0
M  V30 2855 N 277.068 -5.29207 -1.24263 0
M  V30 2856 H 280.87 -2.93015 -0.22793 0
M  V30 2857 H 278.384 -1.6238 -0.0253843 0
M  V30 2858 H 280.381 -3.19498 -2.67818 0
M  V30 2859 H 279.041 -2.02692 -2.53665 0
M  V30 2860 H 280.052 -5.14903 -0.556347 0
M  V30 2861 H 276.729 -3.38667 -2.44153 0
M  V30 2862 H 278.119 -6.71728 -0.152047 0
M  V30 2863 N 280.839 0.0985539 -1.57292 0
M  V30 2864 C 281.749 1.13824 -2.05137 0
M  V30 2865 C 282.765 1.44076 -0.975604 0
M  V30 2866 O 283.941 1.54786 -1.28853 0
M  V30 2867 C 281.006 2.43969 -2.46333 0
M  V30 2868 C 280.067 2.2093 -3.68087 0
M  V30 2869 C 279.3 3.44869 -4.0731 0
M  V30 2870 O 279.523 4.52972 -3.46659 0
M  V30 2871 O 278.457 3.34661 -5.00285 0
M  V30 2872 H 282.283 0.761881 -2.93988 0
M  V30 2873 H 279.868 0.310818 -1.46131 0
M  V30 2874 H 281.75 3.20609 -2.73473 0
M  V30 2875 H 280.425 2.81038 -1.60621 0
M  V30 2876 H 279.332 1.42081 -3.46069 0
M  V30 2877 H 280.665 1.88755 -4.54568 0
M  V30 2878 N 282.317 1.53212 0.369288 0
M  V30 2879 C 283.264 1.79388 1.45219 0
M  V30 2880 C 284.234 0.638059 1.53356 0
M  V30 2881 O 285.419 0.879852 1.69302 0
M  V30 2882 C 282.559 1.98623 2.82211 0
M  V30 2883 C 281.672 3.26337 2.8307 0
M  V30 2884 C 280.807 3.35779 4.11614 0
M  V30 2885 C 279.846 4.5754 4.06601 0
M  V30 2886 N 278.983 4.64155 5.26787 0
M  V30 2887 H 283.823 2.71794 1.22198 0
M  V30 2888 H 281.36 1.34642 0.592444 0
M  V30 2889 H 283.318 2.07761 3.61789 0
M  V30 2890 H 281.948 1.09558 3.03639 0
M  V30 2891 H 281 3.26171 1.95747 0
M  V30 2892 H 282.312 4.15988 2.75237 0
M  V30 2893 H 281.466 3.44208 4.99606 0
M  V30 2894 H 280.205 2.44137 4.22195 0
M  V30 2895 H 279.21 4.49215 3.16996 0
M  V30 2896 H 280.435 5.50519 3.97625 0
M  V30 2897 H 278.381 3.75413 5.3796 0
M  V30 2898 H 278.298 5.47706 5.21109 0
M  V30 2899 H 279.566 4.76863 6.16621 0
M  V30 2900 N 283.795 -0.628877 1.44509 0
M  V30 2901 C 285.035 -1.39993 1.48934 0
M  V30 2902 C 285.399 -1.91627 0.119604 0
M  V30 2903 O 286.6 -2.68772 0.0385283 0
M  V30 2904 C 284.871 -2.53241 2.52198 0
M  V30 2905 S 286.43 -3.41383 2.75687 0
M  V30 2906 H 283.248 -0.477558 0.526744 0
M  V30 2907 H 285.85 -0.727804 1.81448 0
M  V30 2908 H 284.554 -2.13622 3.50419 0
M  V30 2909 H 284.085 -3.25278 2.21264 0
M  V30 2910 H 286.1 -4.50752 2.07453 0
M  V30 2911 N 285.273 -1.31445 -0.869486 0
M  V30 2912 C 286.522 -1.20517 -1.61736 0
M  V30 2913 C 286.835 0.235341 -1.94179 0
M  V30 2914 O 288.041 0.466312 -2.67465 0
M  V30 2915 C 286.497 -2.10982 -2.91573 0
M  V30 2916 C 286.105 -3.60032 -2.66611 0
M  V30 2917 C 287.849 -2.08856 -3.69567 0
M  V30 2918 C 285.756 -4.42503 -3.92358 0
M  V30 2919 H 284.686 -0.447493 -0.606849 0
M  V30 2920 H 287.337 -1.56303 -0.96133 0
M  V30 2921 H 285.719 -1.68095 -3.58553 0
M  V30 2922 H 286.893 -4.11167 -2.08035 0
M  V30 2923 H 285.208 -3.64139 -2.0197 0
M  V30 2924 H 287.805 -2.67716 -4.62852 0
M  V30 2925 H 288.148 -1.07582 -4.02159 0
M  V30 2926 H 288.681 -2.49945 -3.09471 0
M  V30 2927 H 285.42 -5.44533 -3.64916 0
M  V30 2928 H 284.94 -3.96125 -4.50383 0
M  V30 2929 H 286.619 -4.54741 -4.60238 0
M  V30 2930 N 286.751 1.08385 -1.14413 0
M  V30 2931 C 287.681 2.17321 -0.854044 0
M  V30 2932 C 288.662 1.69024 0.191049 0
M  V30 2933 O 289.847 1.94141 0.0476779 0
M  V30 2934 C 286.977 3.45719 -0.330983 0
M  V30 2935 C 285.931 4.07409 -1.31155 0
M  V30 2936 C 285.257 5.30762 -0.64778 0
M  V30 2937 C 286.557 4.48665 -2.67388 0
M  V30 2938 H 288.251 2.41845 -1.76498 0
M  V30 2939 H 285.797 1.16233 -0.850051 0
M  V30 2940 H 287.75 4.21241 -0.115645 0
M  V30 2941 H 286.474 3.2075 0.615381 0
M  V30 2942 H 285.133 3.33919 -1.51306 0
M  V30 2943 H 284.781 5.02078 0.304398 0
M  V30 2944 H 284.481 5.72992 -1.30207 0
M  V30 2945 H 286.005 6.08998 -0.441972 0
M  V30 2946 H 287.419 5.15364 -2.51143 0
M  V30 2947 H 285.816 5.01814 -3.29093 0
M  V30 2948 H 286.886 3.60543 -3.24248 0
M  V30 2949 N 288.23 0.939286 1.26551 0
M  V30 2950 C 289.16 0.465044 2.28822 0
M  V30 2951 C 290.141 -0.480692 1.63167 0
M  V30 2952 O 291.326 -0.382955 1.90387 0
M  V30 2953 C 288.456 -0.27234 3.46231 0
M  V30 2954 C 287.41 0.58666 4.2396 0
M  V30 2955 C 286.736 -0.280573 5.33963 0
M  V30 2956 C 288.036 1.85704 4.88171 0
M  V30 2957 H 289.73 1.31979 2.68741 0
M  V30 2958 H 287.276 0.636061 1.29191 0
M  V30 2959 H 289.229 -0.615133 4.16886 0
M  V30 2960 H 287.953 -1.16121 3.0526 0
M  V30 2961 H 286.612 0.91232 3.55067 0
M  V30 2962 H 286.26 -1.16874 4.89234 0
M  V30 2963 H 285.96 0.29076 5.8688 0
M  V30 2964 H 287.484 -0.618678 6.07458 0
M  V30 2965 H 288.898 1.58161 5.51052 0
M  V30 2966 H 287.295 2.37279 5.51197 0
M  V30 2967 H 288.365 2.56957 4.11219 0
M  V30 2968 N 289.708 -1.40897 0.706093 0
M  V30 2969 C 290.936 -2.05373 0.250887 0
M  V30 2970 C 291.351 -1.53172 -1.10381 0
M  V30 2971 O 290.708 -0.684305 -1.69185 0
M  V30 2972 C 290.759 -3.6088 0.211571 0
M  V30 2973 O 290.48 -4.11153 1.51276 0
M  V30 2974 C 291.981 -4.42517 -0.263346 0
M  V30 2975 H 289.201 -0.66115 0.114552 0
M  V30 2976 H 291.745 -1.80479 0.961635 0
M  V30 2977 H 289.9 -3.84777 -0.450073 0
M  V30 2978 H 290.314 -5.05279 1.40689 0
M  V30 2979 H 291.788 -5.51479 -0.239718 0
M  V30 2980 H 292.265 -4.19396 -1.30397 0
M  V30 2981 H 292.871 -4.23708 0.367677 0
M  V30 2982 N 291.186 -0.45159 -1.50991 0
M  V30 2983 C 292.411 0.110667 -2.07105 0
M  V30 2984 C 292.836 1.3446 -1.31538 0
M  V30 2985 O 292.194 1.77743 -0.357365 0
M  V30 2986 C 292.242 0.397238 -3.58405 0
M  V30 2987 O 291.346 1.48124 -3.84881 0
M  V30 2988 H 290.687 -0.00439271 -0.663985 0
M  V30 2989 H 293.217 -0.637026 -1.9443 0
M  V30 2990 H 293.227 0.64351 -4.02893 0
M  V30 2991 H 291.902 -0.504553 -4.12828 0
M  V30 2992 H 290.479 1.22381 -3.52246 0
M  V30 2993 N 292.664 1.56529 -0.183458 0
M  V30 2994 C 293.574 2.22144 0.754272 0
M  V30 2995 C 294.59 1.21684 1.24374 0
M  V30 2996 O 295.766 1.54385 1.29333 0
M  V30 2997 C 292.831 2.85884 1.96141 0
M  V30 2998 C 291.892 4.01579 1.51765 0
M  V30 2999 C 291.125 4.6227 2.66725 0
M  V30 3000 O 291.348 4.21865 3.83909 0
M  V30 3001 O 290.282 5.51936 2.40104 0
M  V30 3002 H 294.108 3.02861 0.225527 0
M  V30 3003 H 291.693 1.49331 0.0453032 0
M  V30 3004 H 293.575 3.26253 2.66715 0
M  V30 3005 H 292.25 2.08154 2.47899 0
M  V30 3006 H 291.157 3.65856 0.781049 0
M  V30 3007 H 292.49 4.80938 1.04686 0
M  V30 3008 N 294.142 -0.090211 1.57342 0
M  V30 3009 C 295.072 -1.10976 2.05443 0
M  V30 3010 C 296.053 -1.41482 0.944284 0
M  V30 3011 O 297.238 -1.51428 1.21586 0
M  V30 3012 C 294.368 -2.42831 2.48295 0
M  V30 3013 C 293.322 -2.26721 3.63018 0
M  V30 3014 C 292.648 -3.63796 3.91863 0
M  V30 3015 C 293.948 -1.7037 4.93732 0
M  V30 3016 H 295.642 -0.709564 2.9087 0
M  V30 3017 H 293.188 -0.339874 1.39932 0
M  V30 3018 H 295.141 -3.14431 2.80555 0
M  V30 3019 H 293.865 -2.84795 1.59873 0
M  V30 3020 H 292.524 -1.57565 3.31012 0
M  V30 3021 H 292.172 -4.03297 3.00601 0
M  V30 3022 H 291.872 -3.53861 4.69101 0
M  V30 3023 H 293.396 -4.36855 4.26603 0
M  V30 3024 H 294.81 -2.31816 5.24342 0
M  V30 3025 H 293.207 -1.71181 5.75167 0
M  V30 3026 H 294.277 -0.663542 4.80339 0
M  V30 3027 N 295.62 -1.53406 -0.361157 0
M  V30 3028 C 296.868 -1.69467 -1.10115 0
M  V30 3029 C 297.189 -0.451352 -1.89705 0
M  V30 3030 O 296.459 0.534636 -1.88463 0
M  V30 3031 H 295.039 -0.624749 -0.409508 0
M  V30 3032 H 297.701 -1.90609 -0.406699 0
M  V30 3033 H 296.797 -2.55774 -1.78847 0
M  V30 3034 N 297.098 0.621204 -1.44841 0
M  V30 3035 C 298.345 1.38055 -1.48145 0
M  V30 3036 C 298.673 1.94143 -0.117867 0
M  V30 3037 O 297.928 1.74713 0.881694 0
M  V30 3038 C 298.227 2.55675 -2.4973 0
M  V30 3039 C 297.893 2.17817 -3.94799 0
M  V30 3040 C 296.555 2.07205 -4.34303 0
M  V30 3041 C 298.907 1.88065 -4.86087 0
M  V30 3042 C 296.235 1.65045 -5.63007 0
M  V30 3043 C 298.587 1.47394 -6.15189 0
M  V30 3044 C 297.251 1.35331 -6.53637 0
M  V30 3045 H 296.521 0.505181 -0.542101 0
M  V30 3046 H 299.168 0.703477 -1.78111 0
M  V30 3047 H 297.473 3.2866 -2.13284 0
M  V30 3048 H 299.17 3.13904 -2.4953 0
M  V30 3049 H 295.76 2.26998 -3.63552 0
M  V30 3050 H 299.944 1.95168 -4.56315 0
M  V30 3051 H 295.2 1.54317 -5.91605 0
M  V30 3052 H 299.374 1.23415 -6.85377 0
M  V30 3053 H 297.001 1.02435 -7.53267 0
M  V30 3054 N 298.576 1.31904 0.862503 0
M  V30 3055 C 299.853 1.12644 1.59908 0
M  V30 3056 C 300.233 -0.316104 2.0872 0
M  V30 3057 O 299.581 -1.31145 1.87118 0
M  V30 3058 C 299.791 2.1472 2.7513 0
M  V30 3059 C 301.139 2.47637 3.44907 0
M  V30 3060 O 302.163 2.13205 2.85346 0
M  V30 3061 O 301.022 3.06632 4.52371 0
M  V30 3062 H 298.116 0.43416 0.703871 0
M  V30 3063 H 300.662 1.43408 0.907314 0
M  V30 3064 H 299.434 3.1172 2.3653 0
M  V30 3065 H 299.057 1.84905 3.51989 0
M  V30 3066 N 300.054 -1.07777 1.14986 0
M  V30 3067 C 301.017 -2.13041 0.845358 0
M  V30 3068 C 302.017 -1.60071 -0.152931 0
M  V30 3069 O 303.207 -1.74033 0.0761879 0
M  V30 3070 C 300.339 -3.39896 0.261383 0
M  V30 3071 H 301.532 -2.41485 1.77834 0
M  V30 3072 H 299.085 -1.23595 0.956757 0
M  V30 3073 H 299.82 -3.17091 -0.68 0
M  V30 3074 H 299.605 -3.79642 0.980514 0
M  V30 3075 H 301.095 -4.17548 0.0657687 0
M  V30 3076 N 301.532 -0.945985 -1.26051 0
M  V30 3077 C 302.495 -0.463897 -2.24456 0
M  V30 3078 C 303.495 0.427655 -1.55009 0
M  V30 3079 O 304.685 0.226157 -1.72726 0
M  V30 3080 C 301.817 0.330812 -3.39291 0
M  V30 3081 H 303.01 -1.33357 -2.68619 0
M  V30 3082 H 300.563 -0.728416 -1.38289 0
M  V30 3083 H 301.298 1.21852 -3.00537 0
M  V30 3084 H 301.083 -0.308679 -3.90883 0
M  V30 3085 H 302.573 0.657865 -4.12386 0
M  V30 3086 N 303.011 1.40521 -0.713556 0
M  V30 3087 C 304.26 2.00155 -0.249192 0
M  V30 3088 C 304.573 1.57224 1.16362 0
M  V30 3089 O 305.779 2.09542 1.72639 0
M  V30 3090 C 304.235 3.5773 -0.3946 0
M  V30 3091 C 303.843 4.09635 -1.81392 0
M  V30 3092 C 305.587 4.24499 0.00907364 0
M  V30 3093 C 303.494 5.59707 -1.91003 0
M  V30 3094 H 302.424 0.74868 -0.0894114 0
M  V30 3095 H 305.075 1.60784 -0.884352 0
M  V30 3096 H 303.457 3.94792 0.30911 0
M  V30 3097 H 304.631 3.83955 -2.54785 0
M  V30 3098 H 302.946 3.55456 -2.16888 0
M  V30 3099 H 305.543 5.34683 -0.0420404 0
M  V30 3100 H 305.886 4.02824 1.05065 0
M  V30 3101 H 306.419 3.92536 -0.645007 0
M  V30 3102 H 303.158 5.86234 -2.93275 0
M  V30 3103 H 302.678 5.87258 -1.22019 0
M  V30 3104 H 304.357 6.24776 -1.6812 0
M  V30 3105 N 304.489 0.459591 1.5075 0
M  V30 3106 C 305.437 -0.354678 2.2988 0
M  V30 3107 C 306.431 -1.00086 1.36672 0
M  V30 3108 O 307.637 -0.933277 1.53915 0
M  V30 3109 H 304.012 -0.13321 0.740107 0
M  V30 3110 H 305.983 0.333269 2.96533 0
M  V30 3111 C 304.732 -1.43073 3.169 0
M  V30 3112 H 304.055 -0.942882 3.88523 0
M  V30 3113 H 305.495 -1.97328 3.75284 0
M  V30 3114 C 303.954 -2.42633 2.33732 0
M  V30 3115 O 304.484 -3.47658 2.01238 0
M  V30 3116 N 302.69 -2.14066 1.9653 0
M  V30 3117 H 302.237 -1.28685 2.23155 0
M  V30 3118 H 302.195 -2.80917 1.41185 0
M  V30 3119 N 305.967 -1.56429 0.191757 0
M  V30 3120 C 307.197 -2.01574 -0.452928 0
M  V30 3121 C 307.605 -1.07107 -1.55964 0
M  V30 3122 O 306.948 -0.067534 -1.83576 0
M  V30 3123 C 307.01 -3.43121 -1.07278 0
M  V30 3124 C 306.674 -4.56879 -0.105214 0
M  V30 3125 C 307.671 -5.15379 0.684149 0
M  V30 3126 C 305.356 -5.023 0.00489824 0
M  V30 3127 C 307.35 -6.17746 1.57062 0
M  V30 3128 C 305.037 -6.04511 0.894935 0
M  V30 3129 C 306.035 -6.62108 1.67637 0
M  V30 3130 O 305.723 -7.62335 2.55149 0
M  V30 3131 H 305.455 -0.665554 -0.118379 0
M  V30 3132 H 308.009 -2.03245 0.296737 0
M  V30 3133 H 306.239 -3.38425 -1.87097 0
M  V30 3134 H 307.928 -3.72093 -1.62177 0
M  V30 3135 H 308.694 -4.81157 0.609365 0
M  V30 3136 H 304.573 -4.57168 -0.593156 0
M  V30 3137 H 308.117 -6.6263 2.181 0
M  V30 3138 H 304.014 -6.38157 0.970847 0
M  V30 3139 H 304.782 -7.79741 2.48892 0
M  V30 3140 N 307.445 0.0818655 -1.57387 0
M  V30 3141 C 308.392 1.09834 -2.0299 0
M  V30 3142 C 309.362 1.39043 -0.908639 0
M  V30 3143 O 310.547 1.50282 -1.17559 0
M  V30 3144 C 307.687 2.40971 -2.47037 0
M  V30 3145 C 306.8 2.18379 -3.7274 0
M  V30 3146 C 305.935 3.43008 -4.0561 0
M  V30 3147 C 304.974 3.15736 -5.24383 0
M  V30 3148 N 304.111 4.32667 -5.52941 0
M  V30 3149 H 308.951 0.702472 -2.89602 0
M  V30 3150 H 306.488 0.33531 -1.43227 0
M  V30 3151 H 308.446 3.1752 -2.70623 0
M  V30 3152 H 307.076 2.78379 -1.63417 0
M  V30 3153 H 306.128 1.32569 -3.56552 0
M  V30 3154 H 307.44 1.94227 -4.59431 0
M  V30 3155 H 306.594 4.27958 -4.30043 0
M  V30 3156 H 305.333 3.70225 -3.17466 0
M  V30 3157 H 304.338 2.2918 -4.99757 0
M  V30 3158 H 305.563 2.8985 -6.14136 0
M  V30 3159 H 303.509 4.59935 -4.67756 0
M  V30 3160 H 303.426 4.11753 -6.34031 0
M  V30 3161 H 304.694 5.18644 -5.81918 0
M  V30 3162 N 308.923 1.53595 0.353017 0
M  V30 3163 C 309.87 1.80919 1.43308 0
M  V30 3164 C 310.84 0.654288 1.5267 0
M  V30 3165 O 312.025 0.897759 1.6836 0
M  V30 3166 C 309.165 2.01605 2.80089 0
M  V30 3167 C 308.278 3.29321 2.79593 0
M  V30 3168 C 307.413 3.40125 4.0803 0
M  V30 3169 C 306.452 4.61826 4.01725 0
M  V30 3170 N 305.589 4.69716 5.21834 0
M  V30 3171 H 310.429 2.73074 1.19308 0
M  V30 3172 H 307.966 1.35263 0.578131 0
M  V30 3173 H 309.924 2.11586 3.59565 0
M  V30 3174 H 308.554 1.12772 3.0246 0
M  V30 3175 H 307.606 3.28229 1.92276 0
M  V30 3176 H 308.918 4.18884 2.70809 0
M  V30 3177 H 308.072 3.49488 4.95927 0
M  V30 3178 H 306.811 2.48601 4.19582 0
M  V30 3179 H 305.816 4.52552 3.12213 0
M  V30 3180 H 307.041 5.54705 3.91764 0
M  V30 3181 H 304.987 3.81097 5.33948 0
M  V30 3182 H 304.904 5.53202 5.1527 0
M  V30 3183 H 306.172 4.83376 6.11529 0
M  V30 3184 N 310.401 -0.613514 1.45168 0
M  V30 3185 C 311.678 -1.37263 1.39349 0
M  V30 3186 C 312.058 -2.11012 0.0610848 0
M  V30 3187 O 311.406 -2.07502 -0.956825 0
M  V30 3188 C 311.616 -2.3244 2.60332 0
M  V30 3189 C 312.964 -2.9523 3.05163 0
M  V30 3190 O 313.988 -2.42762 2.60663 0
M  V30 3191 O 312.847 -3.90454 3.82372 0
M  V30 3192 H 309.941 -0.615188 0.552696 0
M  V30 3193 H 312.487 -0.637097 1.57287 0
M  V30 3194 H 311.259 -1.77164 3.48896 0
M  V30 3195 H 310.882 -3.13383 2.44698 0
M  V30 3196 N 311.879 -1.3236 -0.855495 0
M  V30 3197 C 312.827 -1.2118 -1.9854 0
M  V30 3198 C 313.821 -0.116788 -1.68997 0
M  V30 3199 O 315.027 -0.279657 -1.77814 0
M  V30 3200 H 311.402 -0.375608 -0.651477 0
M  V30 3201 H 313.373 -2.16743 -2.05098 0
M  V30 3202 C 312.122 -0.950849 -3.34446 0
M  V30 3203 H 311.445 -1.78563 -3.57708 0
M  V30 3204 H 312.885 -0.912863 -4.14057 0
M  V30 3205 C 311.344 0.346404 -3.35114 0
M  V30 3206 O 311.874 1.35855 -3.7803 0
M  V30 3207 N 310.08 0.36808 -2.88259 0
M  V30 3208 H 309.627 -0.456102 -2.5353 0
M  V30 3209 H 309.585 1.23591 -2.89089 0
M  V30 3210 N 313.357 1.07166 -1.15556 0
M  V30 3211 C 314.603 1.80065 -0.932984 0
M  V30 3212 C 314.936 1.86586 0.53845 0
M  V30 3213 O 314.211 1.35098 1.39924 0
M  V30 3214 C 314.494 3.25022 -1.55025 0
M  V30 3215 C 314.347 3.26634 -3.09242 0
M  V30 3216 C 315.666 4.22341 -1.2376 0
M  V30 3217 H 312.785 0.653697 -0.340366 0
M  V30 3218 H 315.427 1.25389 -1.4275 0
M  V30 3219 H 313.577 3.71712 -1.12972 0
M  V30 3220 H 315.249 2.88173 -3.60214 0
M  V30 3221 H 313.492 2.65539 -3.43033 0
M  V30 3222 H 314.163 4.28854 -3.47546 0
M  V30 3223 H 316.639 3.8405 -1.60139 0
M  V30 3224 H 315.515 5.22053 -1.69564 0
M  V30 3225 H 315.776 4.41828 -0.154938 0
M  V30 3226 N 314.835 0.952656 1.25548 0
M  V30 3227 C 315.798 0.475794 2.24207 0
M  V30 3228 C 316.798 -0.419428 1.55234 0
M  V30 3229 O 317.988 -0.216994 1.72843 0
M  V30 3230 C 315.12 -0.312814 3.39462 0
M  V30 3231 H 316.313 1.34779 2.67908 0
M  V30 3232 H 313.866 0.735739 1.37901 0
M  V30 3233 H 314.601 -1.20257 3.01179 0
M  V30 3234 H 314.386 0.329404 3.90714 0
M  V30 3235 H 315.876 -0.635986 4.12729 0
M  V30 3236 N 316.313 -1.40141 0.720998 0
M  V30 3237 C 317.223 -2.34486 0.0731031 0
M  V30 3238 C 318.239 -1.57587 -0.737723 0
M  V30 3239 O 319.415 -1.89949 -0.669429 0
M  V30 3240 C 316.48 -3.36528 -0.833656 0
M  V30 3241 C 315.541 -4.29298 -0.0121673 0
M  V30 3242 C 314.774 -5.26466 -0.875742 0
M  V30 3243 O 314.997 -5.29745 -2.11485 0
M  V30 3244 O 313.931 -6.01092 -0.31185 0
M  V30 3245 H 317.757 -2.9152 0.851444 0
M  V30 3246 H 315.342 -1.41427 0.481527 0
M  V30 3247 H 317.224 -3.99093 -1.35289 0
M  V30 3248 H 315.899 -2.81899 -1.59105 0
M  V30 3249 H 314.806 -3.70001 0.552262 0
M  V30 3250 H 316.139 -4.87094 0.707129 0
M  V30 3251 N 317.792 -0.46758 -1.50504 0
M  V30 3252 C 318.724 0.364655 -2.26281 0
M  V30 3253 C 319.737 0.960151 -1.31472 0
M  V30 3254 O 320.926 0.849153 -1.57008 0
M  V30 3255 C 318.026 1.52509 -3.02645 0
M  V30 3256 C 317.199 1.04302 -4.24782 0
M  V30 3257 C 316.258 2.07709 -4.8347 0
M  V30 3258 O 315.284 1.65913 -5.44483 0
M  V30 3259 N 316.486 3.40485 -4.70159 0
M  V30 3260 H 319.251 -0.28495 -2.98342 0
M  V30 3261 H 316.812 -0.298163 -1.59131 0
M  V30 3262 H 318.804 2.21371 -3.38787 0
M  V30 3263 H 317.374 2.07945 -2.33404 0
M  V30 3264 H 316.594 0.180393 -3.93787 0
M  V30 3265 H 317.882 0.698798 -5.03978 0
M  V30 3266 H 317.28 3.77155 -4.21629 0
M  V30 3267 H 315.837 4.05156 -5.1058 0
M  V30 3268 N 319.27 1.56325 -0.20005 0
M  V30 3269 C 320.2 2.22318 0.713916 0
M  V30 3270 C 321.181 1.18788 1.21752 0
M  V30 3271 O 322.366 1.47309 1.26545 0
M  V30 3272 C 319.496 2.88639 1.93144 0
M  V30 3273 C 318.45 3.98457 1.56255 0
M  V30 3274 C 317.776 4.51967 2.85709 0
M  V30 3275 C 319.076 5.16612 0.768747 0
M  V30 3276 H 320.77 2.98952 0.163755 0
M  V30 3277 H 318.316 1.43792 0.0773219 0
M  V30 3278 H 320.269 3.33491 2.57608 0
M  V30 3279 H 318.993 2.09419 2.50621 0
M  V30 3280 H 317.652 3.54305 0.941471 0
M  V30 3281 H 317.3 3.69503 3.41287 0
M  V30 3282 H 317 5.26071 2.6177 0
M  V30 3283 H 318.524 4.99523 3.51154 0
M  V30 3284 H 319.938 5.57977 1.3166 0
M  V30 3285 H 318.335 5.96812 0.627286 0
M  V30 3286 H 319.405 4.84358 -0.229168 0
M  V30 3287 N 320.748 -0.0735177 1.57428 0
M  V30 3288 C 322.164 -0.428264 1.53747 0
M  V30 3289 C 322.364 -1.79272 0.91998 0
M  V30 3290 O 321.42 -2.47051 0.521745 0
M  V30 3291 C 322.733 -0.370914 2.98404 0
M  V30 3292 C 324.281 -0.451224 3.0973 0
M  V30 3293 C 324.756 -0.4238 4.56035 0
M  V30 3294 N 326.247 -0.483925 4.60665 0
M  V30 3295 C 326.982 -0.484891 5.71346 0
M  V30 3296 N 326.478 -0.440775 6.91396 0
M  V30 3297 N 328.271 -0.531319 5.59583 0
M  V30 3298 H 320.422 0.819949 1.95935 0
M  V30 3299 H 322.685 0.307493 0.896745 0
M  V30 3300 H 322.391 0.564956 3.47133 0
M  V30 3301 H 322.265 -1.18176 3.5821 0
M  V30 3302 H 324.652 -1.37752 2.60976 0
M  V30 3303 H 324.733 0.388167 2.52838 0
M  V30 3304 H 324.377 0.498638 5.05446 0
M  V30 3305 H 324.307 -1.2807 5.10789 0
M  V30 3306 H 326.798 -0.522338 3.74273 0
M  V30 3307 H 327.111 -0.44539 7.71515 0
M  V30 3308 H 325.456 -0.40749 6.93804 0
M  V30 3309 H 328.647 -0.563464 4.64696 0
M  V30 3310 H 328.82 -0.528603 6.4584 0
M  V30 3311 N 322.226 -1.5378 -0.344866 0
M  V30 3312 C 323.136 -1.84667 -1.4469 0
M  V30 3313 C 324.152 -0.736704 -1.57635 0
M  V30 3314 O 325.328 -1.02888 -1.73136 0
M  V30 3315 C 322.393 -2.04869 -2.79696 0
M  V30 3316 C 321.454 -3.28731 -2.76106 0
M  V30 3317 C 320.687 -3.4796 -4.04673 0
M  V30 3318 O 320.91 -2.71052 -5.01883 0
M  V30 3319 O 319.844 -4.41383 -4.09224 0
M  V30 3320 H 323.67 -2.78334 -1.21506 0
M  V30 3321 H 321.255 -1.39418 -0.536921 0
M  V30 3322 H 323.137 -2.19609 -3.59652 0
M  V30 3323 H 321.812 -1.14391 -3.02814 0
M  V30 3324 H 320.719 -3.19396 -1.94774 0
M  V30 3325 H 322.052 -4.19198 -2.57941 0
M  V30 3326 N 323.704 0.605807 -1.45491 0
M  V30 3327 C 324.929 1.39625 -1.53361 0
M  V30 3328 C 325.354 1.87351 -0.167645 0
M  V30 3329 O 324.712 1.60243 0.848051 0
M  V30 3330 C 324.76 2.57559 -2.5238 0
M  V30 3331 O 323.864 3.58248 -2.04285 0
M  V30 3332 H 323.205 0.416771 -0.516912 0
M  V30 3333 H 325.735 0.737103 -1.90861 0
M  V30 3334 H 325.745 3.0478 -2.71244 0
M  V30 3335 H 324.42 2.22171 -3.51586 0
M  V30 3336 H 322.997 3.17664 -1.95305 0
M  V30 3337 N 325.182 1.32811 0.848464 0
M  V30 3338 C 326.422 1.25046 1.61687 0
M  V30 3339 C 326.786 -0.183464 1.91121 0
M  V30 3340 O 327.987 -0.384937 2.66029 0
M  V30 3341 C 326.258 2.09201 2.89775 0
M  V30 3342 S 327.817 2.18526 3.80515 0
M  V30 3343 H 324.635 0.445023 0.554505 0
M  V30 3344 H 327.237 1.67733 1.00429 0
M  V30 3345 H 325.941 3.12433 2.66108 0
M  V30 3346 H 325.472 1.67315 3.56047 0
M  V30 3347 H 327.487 1.3393 4.77784 0
M  V30 3348 N 326.66 -1.06551 1.16123 0
M  V30 3349 C 328.071 -1.60768 0.949232 0
M  V30 3350 C 328.422 -1.89523 -0.507508 0
M  V30 3351 O 327.547 -1.66671 -1.38021 0
M  V30 3352 C 328.142 -2.92086 1.71671 0
M  V30 3353 C 326.701 -3.43015 1.54977 0
M  V30 3354 C 325.848 -2.16947 1.72711 0
M  V30 3355 H 328.799 -0.895354 1.31031 0
M  V30 3356 H 328.82 -3.6138 1.19099 0
M  V30 3357 H 328.332 -2.71127 2.7769 0
M  V30 3358 H 326.433 -3.69039 0.513873 0
M  V30 3359 H 326.546 -4.18516 2.33198 0
M  V30 3360 H 324.91 -2.27041 1.15431 0
M  V30 3361 H 325.693 -1.98473 2.80113 0
M  V30 3362 N 328.138 -0.959301 -1.25041 0
M  V30 3363 C 329.101 -0.487677 -2.23952 0
M  V30 3364 C 330.101 0.41119 -1.55454 0
M  V30 3365 O 331.291 0.207825 -1.72956 0
M  V30 3366 C 328.423 0.294807 -3.39623 0
M  V30 3367 H 329.616 -1.36198 -2.67189 0
M  V30 3368 H 327.169 -0.743042 -1.37508 0
M  V30 3369 H 327.904 1.18658 -3.01813 0
M  V30 3370 H 327.689 -0.35012 -3.90534 0
M  V30 3371 H 329.179 0.614089 -4.1306 0
M  V30 3372 N 329.616 1.39756 -0.72842 0
M  V30 3373 C 330.864 2.00248 -0.272946 0
M  V30 3374 C 331.185 1.58077 1.14178 0
M  V30 3375 O 330.455 0.826014 1.77634 0
M  V30 3376 H 329.035 0.740554 -0.0979247 0
M  V30 3377 H 331.697 1.70903 -0.936912 0
M  V30 3378 H 330.793 3.10495 -0.316142 0
M  V30 3379 N 331.094 0.475555 1.50254 0
M  V30 3380 C 332.34 -0.0780073 2.0265 0
M  V30 3381 C 332.673 -1.38968 1.35652 0
M  V30 3382 O 331.948 -1.8839 0.483691 0
M  V30 3383 C 332.231 -0.257161 3.59181 0
M  V30 3384 C 332.084 1.07585 4.36744 0
M  V30 3385 C 333.403 -1.00965 4.28362 0
M  V30 3386 H 330.522 -0.0268758 0.73651 0
M  V30 3387 H 333.164 0.622015 1.7953 0
M  V30 3388 H 331.314 -0.853412 3.79011 0
M  V30 3389 H 332.986 1.70902 4.28474 0
M  V30 3390 H 331.229 1.6714 4.00308 0
M  V30 3391 H 331.9 0.904088 5.44546 0
M  V30 3392 H 334.376 -0.504214 4.13034 0
M  V30 3393 H 333.252 -1.10381 5.37687 0
M  V30 3394 H 333.513 -2.04731 3.91839 0
M  V30 3395 N 332.573 -1.56217 0.208337 0
M  V30 3396 C 333.85 -1.89739 -0.475234 0
M  V30 3397 C 334.23 -1.1238 -1.78701 0
M  V30 3398 O 333.578 -0.228979 -2.2735 0
M  V30 3399 C 333.788 -3.42289 -0.681101 0
M  V30 3400 C 335.136 -4.12789 -0.994507 0
M  V30 3401 O 336.16 -3.47814 -0.768357 0
M  V30 3402 O 335.019 -5.27649 -1.42299 0
M  V30 3403 H 332.113 -0.788478 -0.249461 0
M  V30 3404 H 334.659 -1.67855 0.249538 0
M  V30 3405 H 333.431 -3.90534 0.244722 0
M  V30 3406 H 333.054 -3.69909 -1.45785 0
M  V30 3407 N 334.051 0.0651679 -1.57465 0
M  V30 3408 C 335.297 0.764193 -1.87851 0
M  V30 3409 C 335.63 1.76889 -0.801495 0
M  V30 3410 O 334.905 1.93594 0.187528 0
M  V30 3411 C 335.188 1.46625 -3.28897 0
M  V30 3412 C 335.041 0.477515 -4.47258 0
M  V30 3413 C 336.36 2.4095 -3.68281 0
M  V30 3414 H 333.479 0.276351 -0.683227 0
M  V30 3415 H 336.121 0.0272868 -1.8998 0
M  V30 3416 H 334.271 2.09438 -3.27212 0
M  V30 3417 H 335.943 -0.145922 -4.61069 0
M  V30 3418 H 334.186 -0.206576 -4.33308 0
M  V30 3419 H 334.857 1.0065 -5.42746 0
M  V30 3420 H 337.333 1.88209 -3.71102 0
M  V30 3421 H 336.209 2.87072 -4.67847 0
M  V30 3422 H 336.47 3.26049 -2.98571 0
M  V30 3423 N 335.529 1.53961 0.336706 0
M  V30 3424 C 336.759 1.75229 1.09446 0
M  V30 3425 C 337.167 0.494602 1.82621 0
M  V30 3426 O 336.51 -0.543764 1.75468 0
M  V30 3427 C 336.572 2.88288 2.1478 0
M  V30 3428 C 336.236 4.27656 1.6112 0
M  V30 3429 C 337.233 5.08981 1.0599 0
M  V30 3430 C 334.918 4.74161 1.6576 0
M  V30 3431 C 336.912 6.34916 0.562129 0
M  V30 3432 C 334.599 6.00067 1.15595 0
M  V30 3433 C 335.597 6.80278 0.609147 0
M  V30 3434 O 335.285 8.03818 0.114999 0
M  V30 3435 H 335.017 0.588881 0.331956 0
M  V30 3436 H 337.571 2.01614 0.392566 0
M  V30 3437 H 335.801 2.57443 2.88548 0
M  V30 3438 H 337.49 2.97461 2.76174 0
M  V30 3439 H 338.256 4.74213 1.01722 0
M  V30 3440 H 334.135 4.11781 2.07261 0
M  V30 3441 H 337.679 6.9747 0.134668 0
M  V30 3442 H 333.576 6.3433 1.19566 0
M  V30 3443 H 334.344 8.18172 0.231651 0
M  V30 3444 N 337.007 -0.598083 1.45811 0
M  V30 3445 C 338.254 -1.35681 1.50323 0
M  V30 3446 C 338.582 -1.9393 0.148739 0
M  V30 3447 O 337.837 -1.76094 -0.853787 0
M  V30 3448 C 338.136 -2.51669 2.53766 0
M  V30 3449 C 337.802 -2.11508 3.98215 0
M  V30 3450 C 336.464 -2.0027 4.37545 0
M  V30 3451 C 338.816 -1.80308 4.89018 0
M  V30 3452 C 336.144 -1.56067 5.65562 0
M  V30 3453 C 338.496 -1.37589 6.17456 0
M  V30 3454 C 337.16 -1.24916 6.55708 0
M  V30 3455 H 336.43 -0.496492 0.550069 0
M  V30 3456 H 339.077 -0.675052 1.79207 0
M  V30 3457 H 337.382 -3.25225 2.18486 0
M  V30 3458 H 339.079 -3.09895 2.54492 0
M  V30 3459 H 335.669 -2.21185 3.67117 0
M  V30 3460 H 339.853 -1.87884 4.59362 0
M  V30 3461 H 335.109 -1.44886 5.93985 0
M  V30 3462 H 339.283 -1.12495 6.87254 0
M  V30 3463 H 336.91 -0.904386 7.54801 0
M  V30 3464 N 338.485 -1.33259 -0.841409 0
M  V30 3465 C 339.762 -1.15174 -1.58096 0
M  V30 3466 C 340.142 0.282858 -2.09196 0
M  V30 3467 O 339.49 1.28151 -1.89181 0
M  V30 3468 C 339.7 -2.1907 -2.71679 0
M  V30 3469 C 341.048 -2.53093 -3.40924 0
M  V30 3470 O 342.072 -2.17717 -2.81918 0
M  V30 3471 O 340.931 -3.1379 -4.47435 0
M  V30 3472 H 338.025 -0.445303 -0.696875 0
M  V30 3473 H 340.571 -1.44833 -0.884385 0
M  V30 3474 H 339.343 -3.15443 -2.31541 0
M  V30 3475 H 338.966 -1.90481 -3.49002 0
M  V30 3476 N 339.963 1.05934 -1.16686 0
M  V30 3477 C 340.911 2.15603 -0.872817 0
M  V30 3478 C 341.905 1.68647 0.159576 0
M  V30 3479 O 343.111 1.79995 0.0132125 0
M  V30 3480 H 339.486 0.703885 -0.264671 0
M  V30 3481 H 341.457 2.37613 -1.80507 0
M  V30 3482 C 340.206 3.45457 -0.394344 0
M  V30 3483 H 339.529 3.81984 -1.18019 0
M  V30 3484 H 340.969 4.2339 -0.227408 0
M  V30 3485 C 339.428 3.25021 0.88673 0
M  V30 3486 O 339.958 3.50906 1.95519 0
M  V30 3487 N 338.164 2.78437 0.831925 0
M  V30 3488 H 337.711 2.57572 -0.0377619 0
M  V30 3489 H 337.669 2.65144 1.68956 0
M  V30 3490 N 341.441 0.965919 1.2453 0
M  V30 3491 C 342.687 0.62776 1.92839 0
M  V30 3492 C 343.02 -0.834694 1.75347 0
M  V30 3493 O 342.295 -1.60031 1.10546 0
M  V30 3494 C 342.578 1.00109 3.45905 0
M  V30 3495 C 342.431 2.52011 3.72573 0
M  V30 3496 C 343.75 0.53435 4.36844 0
M  V30 3497 H 340.869 0.229537 0.700344 0
M  V30 3498 H 343.511 1.2046 1.46933 0
M  V30 3499 H 341.661 0.510238 3.85135 0
M  V30 3500 H 343.333 3.08559 3.42912 0
M  V30 3501 H 341.576 2.95287 3.17786 0
M  V30 3502 H 342.247 2.73183 4.79661 0
M  V30 3503 H 344.723 0.955565 4.04979 0
M  V30 3504 H 343.599 0.824152 5.42678 0
M  V30 3505 H 343.86 -0.565589 4.38467 0
M  V30 3506 N 342.919 -1.39368 0.735821 0
M  V30 3507 C 344.167 -2.00101 0.283562 0
M  V30 3508 C 344.488 -1.5868 -1.13338 0
M  V30 3509 O 343.758 -0.835423 -1.77193 0
M  V30 3510 H 342.338 -0.740024 0.101851 0
M  V30 3511 H 345 -1.70404 0.945962 0
M  V30 3512 H 344.096 -3.10323 0.332604 0
M  V30 3513 N 344.397 -0.483516 -1.5 0
M  V30 3514 C 345.645 0.067027 -2.01989 0
M  V30 3515 C 345.966 1.3909 -1.36671 0
M  V30 3516 O 345.236 1.88978 -0.516152 0
M  V30 3517 H 343.816 0.0277606 -0.746484 0
M  V30 3518 H 346.478 -0.636773 -1.84204 0
M  V30 3519 H 345.574 0.209484 -3.11396 0
M  V30 3520 N 345.875 1.56104 -0.216619 0
M  V30 3521 C 346.823 2.21434 0.712036 0
M  V30 3522 C 347.817 1.19218 1.20348 0
M  V30 3523 O 349.023 1.3731 1.16387 0
M  V30 3524 H 345.398 0.70992 0.248026 0
M  V30 3525 H 347.369 2.98083 0.137558 0
M  V30 3526 C 346.118 2.90434 1.91163 0
M  V30 3527 H 345.441 3.68842 1.54258 0
M  V30 3528 H 346.881 3.39552 2.5393 0
M  V30 3529 C 345.34 1.92635 2.76394 0
M  V30 3530 O 345.87 1.44017 3.74996 0
M  V30 3531 N 344.076 1.60392 2.42328 0
M  V30 3532 H 343.623 2.00122 1.622 0
M  V30 3533 H 343.581 0.952159 2.99635 0
M  V30 3534 N 347.353 -0.0568162 1.57498 0
M  V30 3535 C 348.602 -0.752001 1.87157 0
M  V30 3536 C 348.915 -1.77978 0.811375 0
M  V30 3537 O 350.121 -2.52559 0.996293 0
M  V30 3538 C 348.577 -1.38844 3.3204 0
M  V30 3539 C 348.185 -0.398456 4.46225 0
M  V30 3540 C 349.929 -2.06512 3.70882 0
M  V30 3541 C 347.836 -1.04166 5.82154 0
M  V30 3542 H 346.766 -0.28461 0.698222 0
M  V30 3543 H 349.417 -0.00561272 1.83499 0
M  V30 3544 H 347.799 -2.1836 3.30356 0
M  V30 3545 H 348.973 0.367977 4.59328 0
M  V30 3546 H 347.288 0.174592 4.16034 0
M  V30 3547 H 349.885 -2.55437 4.6974 0
M  V30 3548 H 350.228 -2.87117 3.01445 0
M  V30 3549 H 350.761 -1.33808 3.7462 0
M  V30 3550 H 347.5 -0.275614 6.5492 0
M  V30 3551 H 347.02 -1.7786 5.72823 0
M  V30 3552 H 348.699 -1.55715 6.27982 0
M  V30 3553 N 348.832 -1.54138 -0.328536 0
M  V30 3554 C 350.057 -1.76378 -1.09112 0
M  V30 3555 C 350.482 -0.508596 -1.81094 0
M  V30 3556 O 349.84 0.539598 -1.73084 0
M  V30 3557 C 349.888 -2.95358 -2.06872 0
M  V30 3558 O 348.992 -2.66556 -3.14677 0
M  V30 3559 H 348.333 -0.584614 -0.314838 0
M  V30 3560 H 350.863 -2.01146 -0.374348 0
M  V30 3561 H 350.873 -3.22566 -2.4983 0
M  V30 3562 H 349.548 -3.86385 -1.5388 0
M  V30 3563 H 348.125 -2.50282 -2.7643 0
M  V30 3564 N 350.31 0.590341 -1.46126 0
M  V30 3565 C 351.587 1.35029 -1.41515 0
M  V30 3566 C 351.967 2.10888 -0.0946472 0
M  V30 3567 O 351.315 2.08998 0.923693 0
M  V30 3568 C 351.525 2.28269 -2.63997 0
M  V30 3569 C 352.873 2.90338 -3.09821 0
M  V30 3570 O 353.897 2.38585 -2.64492 0
M  V30 3571 O 352.756 3.84321 -3.88535 0
M  V30 3572 H 349.85 0.606317 -0.562413 0
M  V30 3573 H 352.396 0.611994 -1.58281 0
M  V30 3574 H 351.168 1.71591 -3.51671 0
M  V30 3575 H 350.791 3.0945 -2.49652 0
M  V30 3576 N 351.788 1.33704 0.83433 0
M  V30 3577 C 353.016 1.28467 1.62185 0
M  V30 3578 C 353.431 -0.143526 1.88254 0
M  V30 3579 O 352.788 -1.08709 1.4659 0
M  V30 3580 C 352.839 2.06174 2.96942 0
M  V30 3581 O 352.56 3.43422 2.72016 0
M  V30 3582 C 354.061 2.08201 3.91366 0
M  V30 3583 H 351.281 0.4424 0.504503 0
M  V30 3584 H 353.825 1.76145 1.03891 0
M  V30 3585 H 351.98 1.62167 3.51825 0
M  V30 3586 H 352.394 3.83453 3.57861 0
M  V30 3587 H 353.868 2.67017 4.83121 0
M  V30 3588 H 354.345 1.07343 4.2588 0
M  V30 3589 H 354.951 2.52246 3.42421 0
M  V30 3590 N 353.266 -1.05314 1.17247 0
M  V30 3591 C 354.512 -1.78557 0.961513 0
M  V30 3592 C 354.845 -1.87419 -0.508697 0
M  V30 3593 O 354.12 -1.37307 -1.37757 0
M  V30 3594 C 354.403 -3.22514 1.60176 0
M  V30 3595 C 354.256 -3.21673 3.14399 0
M  V30 3596 C 355.575 -4.20318 1.30463 0
M  V30 3597 H 352.694 -0.6482 0.350723 0
M  V30 3598 H 355.336 -1.23102 1.44727 0
M  V30 3599 H 353.486 -3.69867 1.18871 0
M  V30 3600 H 355.158 -2.82405 3.64753 0
M  V30 3601 H 353.401 -2.60048 3.47214 0
M  V30 3602 H 354.072 -4.23271 3.54324 0
M  V30 3603 H 356.548 -3.81454 1.66229 0
M  V30 3604 H 355.424 -5.19289 1.77848 0
M  V30 3605 H 355.685 -4.41526 0.22521 0
M  V30 3606 N 354.744 -0.972509 -1.24016 0
M  V30 3607 C 355.993 -0.632603 -1.91523 0
M  V30 3608 C 356.306 0.836641 -1.76804 0
M  V30 3609 O 357.512 1.28728 -2.39043 0
M  V30 3610 C 355.968 -1.08082 -3.43287 0
M  V30 3611 C 355.576 -2.57386 -3.66683 0
M  V30 3612 C 357.32 -0.814288 -4.16617 0
M  V30 3613 C 355.227 -2.95915 -5.12043 0
M  V30 3614 H 354.157 -0.232898 -0.717129 0
M  V30 3615 H 356.808 -1.17936 -1.40582 0
M  V30 3616 H 355.19 -0.462339 -3.93292 0
M  V30 3617 H 356.364 -3.24405 -3.27258 0
M  V30 3618 H 354.679 -2.81701 -3.06649 0
M  V30 3619 H 357.276 -1.0781 -5.23718 0
M  V30 3620 H 357.619 0.24955 -4.15551 0
M  V30 3621 H 358.152 -1.39397 -3.72577 0
M  V30 3622 H 354.891 -4.0139 -5.18234 0
M  V30 3623 H 354.411 -2.33584 -5.52448 0
M  V30 3624 H 356.09 -2.86086 -5.80314 0
M  V30 3625 N 356.222 1.38976 -0.743202 0
M  V30 3626 C 357.447 2.05161 -0.303936 0
M  V30 3627 C 357.872 1.55677 1.05576 0
M  V30 3628 O 357.23 0.704131 1.67068 0
M  V30 3629 C 357.278 3.59138 -0.324373 0
M  V30 3630 O 356.382 4.06668 0.685204 0
M  V30 3631 H 355.723 0.649815 -0.136518 0
M  V30 3632 H 358.253 1.77852 -1.01142 0
M  V30 3633 H 358.263 4.07639 -0.171618 0
M  V30 3634 H 356.938 3.94515 -1.31647 0
M  V30 3635 H 355.515 3.69561 0.497913 0
M  V30 3636 N 357.7 0.491464 1.49741 0
M  V30 3637 C 358.632 -0.328609 2.26832 0
M  V30 3638 C 359.645 -0.939113 1.32983 0
M  V30 3639 O 360.834 -0.824067 1.58339 0
M  V30 3640 C 357.934 -1.47675 3.05033 0
M  V30 3641 C 357.107 -0.975305 4.26388 0
M  V30 3642 C 356.166 -1.99991 4.86714 0
M  V30 3643 O 355.192 -1.57229 5.47054 0
M  V30 3644 N 356.394 -3.32962 4.75517 0
M  V30 3645 H 359.159 0.332377 2.97851 0
M  V30 3646 H 356.72 0.323441 1.58636 0
M  V30 3647 H 358.712 -2.15954 3.42266 0
M  V30 3648 H 357.282 -2.04206 2.36683 0
M  V30 3649 H 356.502 -0.117723 3.94024 0
M  V30 3650 H 357.79 -0.618531 5.05026 0
M  V30 3651 H 357.188 -3.70399 4.27576 0
M  V30 3652 H 355.745 -3.96982 5.16961 0
M  V30 3653 N 359.178 -1.55987 0.224894 0
M  V30 3654 C 360.111 -2.16413 -0.723929 0
M  V30 3655 C 361.089 -1.10952 -1.18863 0
M  V30 3656 O 362.273 -1.39225 -1.27077 0
M  V30 3657 C 359.4 -2.74711 -1.98121 0
M  V30 3658 C 358.446 -3.9303 -1.6562 0
M  V30 3659 S 359.279 -5.29817 -0.778058 0
M  V30 3660 C 360.435 -5.91555 -2.04483 0
M  V30 3661 H 360.668 -2.96555 -0.210347 0
M  V30 3662 H 358.201 -1.54397 0.00955457 0
M  V30 3663 H 360.159 -3.08938 -2.70311 0
M  V30 3664 H 358.82 -1.94555 -2.46591 0
M  V30 3665 H 358.013 -4.32334 -2.59043 0
M  V30 3666 H 357.615 -3.59966 -1.01491 0
M  V30 3667 H 359.907 -6.07732 -2.99446 0
M  V30 3668 H 360.85 -6.87498 -1.69563 0
M  V30 3669 H 361.258 -5.20419 -2.18688 0
M  V30 3670 N 360.656 0.0484629 -1.57525 0
M  V30 3671 C 361.604 1.07359 -2.06341 0
M  V30 3672 C 362.598 1.3865 -0.973269 0
M  V30 3673 O 363.804 1.37783 -1.15827 0
M  V30 3674 H 360.179 0.363662 -0.65822 0
M  V30 3675 H 362.15 0.635916 -2.91545 0
M  V30 3676 C 360.899 2.37198 -2.54229 0
M  V30 3677 H 360.222 2.13977 -3.37719 0
M  V30 3678 H 361.662 3.07319 -2.92115 0
M  V30 3679 C 360.121 3.04805 -1.43511 0
M  V30 3680 O 360.651 3.93848 -0.79034 0
M  V30 3681 N 358.857 2.65811 -1.17444 0
M  V30 3682 H 358.404 1.93488 -1.70059 0
M  V30 3683 H 358.362 3.11366 -0.435737 0
M  V30 3684 N 362.134 1.5431 0.320358 0
M  V30 3685 C 363.044 1.86946 1.41734 0
M  V30 3686 C 364.06 0.761689 1.56443 0
M  V30 3687 O 365.236 1.05629 1.71477 0
M  V30 3688 C 362.301 2.09293 2.76401 0
M  V30 3689 C 361.362 3.33082 2.70841 0
M  V30 3690 C 360.595 3.54353 3.99086 0
M  V30 3691 O 360.818 2.79002 4.97508 0
M  V30 3692 O 359.752 4.47838 4.0215 0
M  V30 3693 H 363.578 2.80232 1.17062 0
M  V30 3694 H 361.163 1.40255 0.514673 0
M  V30 3695 H 363.045 2.25303 3.56113 0
M  V30 3696 H 361.72 1.19194 3.00956 0
M  V30 3697 H 360.627 3.22454 1.89668 0
M  V30 3698 H 361.96 4.23249 2.5124 0
M  V30 3699 N 363.613 -0.582584 1.46437 0
M  V30 3700 C 364.561 -1.71272 1.5738 0
M  V30 3701 C 365.555 -1.63524 0.44229 0
M  V30 3702 O 366.761 -1.69016 0.619166 0
M  V30 3703 H 363.136 -0.566273 0.494813 0
M  V30 3704 H 365.107 -1.59174 2.52401 0
M  V30 3705 C 363.856 -3.09658 1.58136 0
M  V30 3706 H 363.179 -3.16291 2.44541 0
M  V30 3707 H 364.619 -3.88494 1.69847 0
M  V30 3708 C 363.078 -3.3547 0.310026 0
M  V30 3709 O 363.608 -3.97199 -0.599683 0
M  V30 3710 N 361.814 -2.89925 0.197901 0
M  V30 3711 H 361.361 -2.39873 0.93909 0
M  V30 3712 H 361.319 -3.07568 -0.65185 0
M  V30 3713 N 365.091 -1.34144 -0.827227 0
M  V30 3714 C 366.316 -1.29476 -1.62021 0
M  V30 3715 C 366.741 0.129292 -1.87655 0
M  V30 3716 O 366.099 1.08967 -1.449 0
M  V30 3717 C 366.147 -2.08702 -2.94068 0
M  V30 3718 O 365.251 -1.45359 -3.85933 0
M  V30 3719 H 364.592 -0.444881 -0.492927 0
M  V30 3720 H 367.122 -1.76882 -1.02829 0
M  V30 3721 H 367.132 -2.19898 -3.43669 0
M  V30 3722 H 365.807 -3.12241 -2.74734 0
M  V30 3723 H 364.384 -1.42879 -3.44442 0
M  V30 3724 N 366.569 1.04691 -1.17803 0
M  V30 3725 C 367.519 2.10856 -0.867391 0
M  V30 3726 C 368.503 1.601 0.160206 0
M  V30 3727 O 369.695 1.76948 -0.042947 0
M  V30 3728 C 366.824 3.411 -0.388012 0
M  V30 3729 C 365.91 3.9864 -1.44732 0
M  V30 3730 N 366.301 4.30075 -2.66212 0
M  V30 3731 C 364.599 4.26439 -1.30637 0
M  V30 3732 C 365.3 4.76033 -3.34317 0
M  V30 3733 N 364.276 4.76462 -2.61696 0
M  V30 3734 H 368.078 2.33029 -1.79094 0
M  V30 3735 H 365.592 1.22386 -1.0675 0
M  V30 3736 H 367.589 4.16641 -0.146994 0
M  V30 3737 H 366.249 3.20357 0.529271 0
M  V30 3738 H 367.26 4.19917 -3.03134 0
M  V30 3739 H 363.937 4.15056 -0.451129 0
M  V30 3740 H 365.327 5.09427 -4.38103 0
M  V30 3741 N 368.047 0.979072 1.23499 0
M  V30 3742 C 369.296 0.642751 1.91185 0
M  V30 3743 C 369.609 -0.827253 1.77245 0
M  V30 3744 O 370.815 -1.27458 2.39722 0
M  V30 3745 C 369.271 1.09901 3.42709 0
M  V30 3746 C 368.879 2.59327 3.65313 0
M  V30 3747 C 370.623 0.836371 4.16179 0
M  V30 3748 C 368.53 2.98627 5.10467 0
M  V30 3749 H 367.46 0.236698 0.715884 0
M  V30 3750 H 370.111 1.1868 1.39955 0
M  V30 3751 H 368.493 0.48319 3.93041 0
M  V30 3752 H 369.667 3.26136 3.25533 0
M  V30 3753 H 367.982 2.83323 3.05151 0
M  V30 3754 H 370.579 1.10586 5.23139 0
M  V30 3755 H 370.922 -0.227509 4.15678 0
M  V30 3756 H 371.455 1.41371 3.71832 0
M  V30 3757 H 368.194 4.04133 5.16098 0
M  V30 3758 H 367.714 2.3651 5.51201 0
M  V30 3759 H 369.393 2.89159 5.78788 0
M  V30 3760 N 369.525 -1.3858 0.750561 0
M  V30 3761 C 370.774 -1.99424 0.302172 0
M  V30 3762 C 371.087 -1.60254 -1.12152 0
M  V30 3763 O 372.293 -2.14046 -1.67023 0
M  V30 3764 C 370.749 -3.56558 0.489307 0
M  V30 3765 C 370.357 -4.04682 1.92189 0
M  V30 3766 C 372.101 -4.24374 0.103478 0
M  V30 3767 C 370.008 -5.54446 2.05775 0
M  V30 3768 H 368.938 -0.746046 0.10923 0
M  V30 3769 H 371.589 -1.58383 0.92667 0
M  V30 3770 H 369.971 -3.95472 -0.204329 0
M  V30 3771 H 371.145 -3.77065 2.64875 0
M  V30 3772 H 369.46 -3.4958 2.26236 0
M  V30 3773 H 372.057 -5.34384 0.183787 0
M  V30 3774 H 372.4 -4.05468 -0.943481 0
M  V30 3775 H 372.933 -3.90688 0.748854 0
M  V30 3776 H 369.672 -5.78252 3.08714 0
M  V30 3777 H 369.192 -5.83816 1.37546 0
M  V30 3778 H 370.871 -6.20099 1.84626 0
M  V30 3779 N 371.003 -0.499398 -1.49478 0
M  V30 3780 C 371.933 0.269244 -2.31943 0
M  V30 3781 C 372.914 0.964054 -1.40143 0
M  V30 3782 O 374.099 0.955767 -1.69052 0
M  V30 3783 C 371.229 1.33504 -3.20615 0
M  V30 3784 C 370.183 0.760202 -4.21195 0
M  V30 3785 C 369.509 1.9264 -4.98792 0
M  V30 3786 C 370.809 -0.247661 -5.21712 0
M  V30 3787 H 372.503 -0.419082 -2.96452 0
M  V30 3788 H 370.049 -0.202988 -1.42562 0
M  V30 3789 H 372.002 1.88048 -3.77115 0
M  V30 3790 H 370.726 2.05253 -2.54045 0
M  V30 3791 H 369.385 0.23653 -3.65836 0
M  V30 3792 H 369.033 2.63154 -4.28671 0
M  V30 3793 H 368.733 1.54785 -5.66847 0
M  V30 3794 H 370.257 2.4762 -5.58137 0
M  V30 3795 H 371.671 0.209579 -5.72917 0
M  V30 3796 H 370.068 -0.541962 -5.97648 0
M  V30 3797 H 371.138 -1.16409 -4.7072 0
M  V30 3798 N 372.481 1.55866 -0.233164 0
M  V30 3799 C 373.721 2.00506 0.397078 0
M  V30 3800 C 374.085 1.1176 1.56121 0
M  V30 3801 O 375.286 1.45796 2.25825 0
M  V30 3802 C 373.557 3.4811 0.809601 0
M  V30 3803 S 375.116 4.14765 1.43231 0
M  V30 3804 H 371.934 0.699828 0.125547 0
M  V30 3805 H 374.536 1.92429 -0.345177 0
M  V30 3806 H 373.24 4.10373 -0.0471601 0
M  V30 3807 H 372.771 3.60085 1.58438 0
M  V30 3808 H 374.786 4.14914 2.7214 0
M  V30 3809 N 373.959 -0.0401083 1.57549 0
M  V30 3810 C 375.207 -0.731677 1.8839 0
M  V30 3811 C 375.528 -1.76481 0.829425 0
M  V30 3812 O 374.798 -1.95411 -0.1383 0
M  V30 3813 H 373.378 -0.273225 0.695239 0
M  V30 3814 H 376.04 -0.00867725 1.94898 0
M  V30 3815 H 375.136 -1.22816 2.86919 0
M  V30 3816 N 375.437 -1.54477 -0.31217 0
M  V30 3817 C 376.369 -1.81011 -1.40598 0
M  V30 3818 C 377.382 -0.692546 -1.47335 0
M  V30 3819 O 378.571 -0.969847 -1.49854 0
M  V30 3820 C 375.671 -1.92307 -2.79054 0
M  V30 3821 C 374.844 -3.22594 -2.95384 0
M  V30 3822 C 373.903 -3.24448 -4.1427 0
M  V30 3823 O 372.929 -3.98035 -4.06887 0
M  V30 3824 N 374.131 -2.49042 -5.24365 0
M  V30 3825 H 376.896 -2.75408 -1.18196 0
M  V30 3826 H 374.457 -1.53914 -0.502202 0
M  V30 3827 H 376.449 -1.90962 -3.56813 0
M  V30 3828 H 375.019 -1.04955 -2.94454 0
M  V30 3829 H 374.239 -3.36806 -2.04831 0
M  V30 3830 H 375.527 -4.08593 -3.03198 0
M  V30 3831 H 374.925 -1.88867 -5.33241 0
M  V30 3832 H 373.482 -2.53463 -6.005 0
M  V30 3833 N 376.915 0.57481 -1.46744 0
M  V30 3834 C 378.164 1.32898 -1.51727 0
M  V30 3835 C 378.477 1.948 -0.176692 0
M  V30 3836 O 379.683 2.71299 -0.104385 0
M  V30 3837 C 378.139 2.40901 -2.67385 0
M  V30 3838 C 377.747 1.85266 -4.07898 0
M  V30 3839 C 379.491 3.17609 -2.81646 0
M  V30 3840 C 377.398 2.90945 -5.14883 0
M  V30 3841 H 376.328 0.499631 -0.564699 0
M  V30 3842 H 378.979 0.612536 -1.72975 0
M  V30 3843 H 377.361 3.15379 -2.39483 0
M  V30 3844 H 378.535 1.17278 -4.45626 0
M  V30 3845 H 376.85 1.21199 -3.98371 0
M  V30 3846 H 379.447 3.96493 -3.58744 0
M  V30 3847 H 379.79 3.70696 -1.89448 0
M  V30 3848 H 380.323 2.50239 -3.09233 0
M  V30 3849 H 377.062 2.42736 -6.089 0
M  V30 3850 H 376.582 3.57398 -4.81691 0
M  V30 3851 H 378.261 3.54755 -5.41071 0
M  V30 3852 N 378.394 1.34581 0.820102 0
M  V30 3853 C 379.619 1.30333 1.61332 0
M  V30 3854 C 380.044 -0.119339 1.87721 0
M  V30 3855 O 379.402 -1.08197 1.45475 0
M  V30 3856 C 379.45 2.10258 2.92957 0
M  V30 3857 O 378.554 1.47404 3.85157 0
M  V30 3858 H 377.895 0.447488 0.490561 0
M  V30 3859 H 380.425 1.77425 1.01889 0
M  V30 3860 H 380.435 2.21718 3.42498 0
M  V30 3861 H 379.11 3.13693 2.73074 0
M  V30 3862 H 377.687 1.44703 3.43679 0
M  V30 3863 N 379.872 -1.04064 1.18357 0
M  V30 3864 C 380.804 -2.12114 0.868358 0
M  V30 3865 C 381.817 -1.62247 -0.134045 0
M  V30 3866 O 383.006 -1.78253 0.0937933 0
M  V30 3867 C 380.106 -3.37773 0.276132 0
M  V30 3868 C 379.279 -4.16874 1.3242 0
M  V30 3869 C 378.338 -5.20861 0.747662 0
M  V30 3870 O 377.364 -5.51141 1.42239 0
M  V30 3871 N 378.566 -5.78715 -0.454823 0
M  V30 3872 H 381.331 -2.39748 1.79836 0
M  V30 3873 H 378.892 -1.20258 1.08396 0
M  V30 3874 H 380.884 -4.04513 -0.123133 0
M  V30 3875 H 379.454 -3.07581 -0.557895 0
M  V30 3876 H 378.674 -3.45456 1.89878 0
M  V30 3877 H 379.962 -4.66516 2.03078 0
M  V30 3878 H 379.36 -5.56415 -1.02073 0
M  V30 3879 H 377.917 -6.46921 -0.79601 0
M  V30 3880 N 381.35 -0.985608 -1.22978 0
M  V30 3881 C 382.58 -0.674603 -1.95276 0
M  V30 3882 C 382.988 0.763483 -1.73111 0
M  V30 3883 O 382.331 1.52601 -1.02268 0
M  V30 3884 C 382.393 -0.891597 -3.48268 0
M  V30 3885 C 382.057 -2.31275 -3.94158 0
M  V30 3886 C 383.054 -3.29179 -4.02415 0
M  V30 3887 C 380.739 -2.64524 -4.27004 0
M  V30 3888 C 382.733 -4.58407 -4.42879 0
M  V30 3889 C 380.42 -3.93974 -4.67149 0
M  V30 3890 C 381.418 -4.90727 -4.75053 0
M  V30 3891 O 381.106 -6.17865 -5.14294 0
M  V30 3892 H 380.838 -0.249251 -0.628371 0
M  V30 3893 H 383.392 -1.32106 -1.5728 0
M  V30 3894 H 381.622 -0.187962 -3.86243 0
M  V30 3895 H 383.311 -0.576957 -4.01779 0
M  V30 3896 H 384.077 -3.04823 -3.77237 0
M  V30 3897 H 379.956 -1.89923 -4.2006 0
M  V30 3898 H 383.5 -5.33926 -4.48964 0
M  V30 3899 H 379.397 -4.18122 -4.91777 0
M  V30 3900 H 380.165 -6.21694 -5.32389 0
M  V30 3901 N 382.828 1.3818 -0.7579 0
M  V30 3902 C 383.776 2.32277 -0.122482 0
M  V30 3903 C 384.77 1.54238 0.700505 0
M  V30 3904 O 385.976 1.69737 0.599119 0
M  V30 3905 H 382.351 0.751712 -0.0208143 0
M  V30 3906 H 384.322 2.83469 -0.932099 0
M  V30 3907 C 383.071 3.39447 0.753076 0
M  V30 3908 H 382.394 3.99591 0.129184 0
M  V30 3909 H 383.834 4.07684 1.16489 0
M  V30 3910 C 382.293 2.78375 1.8976 0
M  V30 3911 O 382.823 2.68025 2.99208 0
M  V30 3912 N 381.029 2.36121 1.69397 0
M  V30 3913 H 380.576 2.4474 0.803762 0
M  V30 3914 H 380.534 1.95602 2.46145 0
M  V30 3915 N 384.306 0.507319 1.49211 0
M  V30 3916 C 385.253 -0.267728 2.29242 0
M  V30 3917 C 386.223 -0.954609 1.35928 0
M  V30 3918 O 387.408 -0.960046 1.64887 0
M  V30 3919 C 384.548 -1.32243 3.18756 0
M  V30 3920 C 383.661 -0.64669 4.27132 0
M  V30 3921 C 382.796 -1.68238 5.03855 0
M  V30 3922 C 381.835 -0.98885 6.0406 0
M  V30 3923 N 380.972 -1.96903 6.73924 0
M  V30 3924 H 385.812 0.420968 2.95012 0
M  V30 3925 H 383.349 0.219443 1.45454 0
M  V30 3926 H 385.307 -1.94599 3.69036 0
M  V30 3927 H 383.937 -1.97981 2.54958 0
M  V30 3928 H 382.989 0.0902926 3.80293 0
M  V30 3929 H 384.301 -0.101058 4.98698 0
M  V30 3930 H 383.455 -2.38081 5.58034 0
M  V30 3931 H 382.194 -2.26187 4.32077 0
M  V30 3932 H 381.199 -0.276222 5.49106 0
M  V30 3933 H 382.424 -0.415767 6.77826 0
M  V30 3934 H 380.37 -2.53803 6.04913 0
M  V30 3935 H 380.287 -1.47423 7.41487 0
M  V30 3936 H 381.555 -2.66015 7.32705 0
M  V30 3937 N 385.784 -1.5574 0.241426 0
M  V30 3938 C 387.061 -1.90704 -0.434881 0
M  V30 3939 C 387.441 -1.16145 -1.76277 0
M  V30 3940 O 386.789 -0.277152 -2.26813 0
M  V30 3941 C 386.999 -3.43657 -0.608343 0
M  V30 3942 C 388.347 -4.14806 -0.906725 0
M  V30 3943 O 389.371 -3.49366 -0.694408 0
M  V30 3944 O 388.23 -5.30548 -1.31075 0
M  V30 3945 H 385.324 -0.793592 -0.23268 0
M  V30 3946 H 387.87 -1.67288 0.285086 0
M  V30 3947 H 386.642 -3.89927 0.327505 0
M  V30 3948 H 386.265 -3.72918 -1.37906 0
M  V30 3949 N 387.262 0.0317525 -1.57568 0
M  V30 3950 C 388.508 0.724175 -1.8943 0
M  V30 3951 C 388.841 1.75149 -0.838836 0
M  V30 3952 O 388.116 1.93948 0.146422 0
M  V30 3953 C 388.399 1.39615 -3.31933 0
M  V30 3954 C 388.252 0.382537 -4.4817 0
M  V30 3955 C 389.571 2.33084 -3.73309 0
M  V30 3956 H 386.69 0.261797 -0.688935 0
M  V30 3957 H 389.332 -0.013017 -1.89996 0
M  V30 3958 H 387.482 2.02451 -3.31581 0
M  V30 3959 H 389.154 -0.243689 -4.60656 0
M  V30 3960 H 387.397 -0.29844 -4.32772 0
M  V30 3961 H 388.068 0.891145 -5.44759 0
M  V30 3962 H 390.544 1.80295 -3.7501 0
M  V30 3963 H 389.42 2.77084 -4.73831 0
M  V30 3964 H 389.681 3.19643 -3.05419 0
M  V30 3965 N 388.74 1.54641 0.303973 0
M  V30 3966 C 390.151 1.64811 0.877163 0
M  V30 3967 C 390.502 0.554838 1.88191 0
M  V30 3968 O 389.627 -0.309033 2.14182 0
M  V30 3969 C 390.222 2.9876 1.59775 0
M  V30 3970 C 388.781 3.11061 2.11938 0
M  V30 3971 C 387.928 2.60479 0.951097 0
M  V30 3972 H 390.879 1.58493 0.0810486 0
M  V30 3973 H 390.9 2.90017 2.46314 0
M  V30 3974 H 390.412 3.7831 0.866226 0
M  V30 3975 H 388.513 2.36225 2.88146 0
M  V30 3976 H 388.626 4.17171 2.35595 0
M  V30 3977 H 386.99 2.16859 1.33583 0
M  V30 3978 H 387.773 3.42504 0.233581 0
M  V30 3979 N 390.218 -0.567019 1.47046 0
M  V30 3980 C 391.448 -1.34831 1.56538 0
M  V30 3981 C 391.856 -1.8802 0.21101 0
M  V30 3982 O 391.199 -1.65152 -0.804387 0
M  V30 3983 C 391.261 -2.56139 2.52256 0
M  V30 3984 C 390.925 -2.24307 3.98165 0
M  V30 3985 C 391.922 -1.82192 4.86931 0
M  V30 3986 C 389.607 -2.35968 4.43423 0
M  V30 3987 C 391.601 -1.52153 6.18973 0
M  V30 3988 C 389.288 -2.05542 5.75496 0
M  V30 3989 C 390.286 -1.63701 6.63092 0
M  V30 3990 O 389.974 -1.33657 7.92711 0
M  V30 3991 H 389.706 -0.417683 0.531523 0
M  V30 3992 H 392.26 -0.694726 1.93294 0
M  V30 3993 H 390.49 -3.24356 2.10548 0
M  V30 3994 H 392.179 -3.18214 2.51982 0
M  V30 3995 H 392.945 -1.72684 4.53217 0
M  V30 3996 H 388.824 -2.67495 3.75456 0
M  V30 3997 H 392.368 -1.19421 6.87302 0
M  V30 3998 H 388.265 -2.14679 6.08755 0
M  V30 3999 H 389.033 -1.4737 8.05124 0
M  V30 4000 N 391.696 -1.35014 -0.812953 0
M  V30 4001 C 393.107 -1.25035 -1.38648 0
M  V30 4002 C 393.458 0.119967 -1.95833 0
M  V30 4003 O 392.583 1.02069 -1.90816 0
M  V30 4004 C 393.178 -2.26394 -2.52054 0
M  V30 4005 C 391.737 -2.20175 -3.05287 0
M  V30 4006 C 390.884 -2.12451 -1.78213 0
M  V30 4007 H 393.835 -1.46235 -0.616516 0
M  V30 4008 H 393.856 -1.88672 -3.30429 0
M  V30 4009 H 393.368 -3.26116 -2.10404 0
M  V30 4010 H 391.469 -1.23841 -3.51417 0
M  V30 4011 H 391.582 -3.11863 -3.63701 0
M  V30 4012 H 389.946 -1.58328 -1.9951 0
M  V30 4013 H 390.729 -3.14024 -1.38723 0
M  V30 4014 N 393.175 1.03435 -1.18907 0
M  V30 4015 C 394.586 1.58195 -0.991523 0
M  V30 4016 C 394.937 1.90801 0.457081 0
M  V30 4017 O 394.062 1.70272 1.33553 0
M  V30 4018 C 394.657 2.87432 -1.79355 0
M  V30 4019 C 393.216 3.38785 -1.64017 0
M  V30 4020 C 392.363 2.12292 -1.78402 0
M  V30 4021 H 395.314 0.860299 -1.33359 0
M  V30 4022 H 395.335 3.58096 -1.28638 0
M  V30 4023 H 394.847 2.63669 -2.84781 0
M  V30 4024 H 392.948 3.67547 -0.611536 0
M  V30 4025 H 393.061 4.12186 -2.44212 0
M  V30 4026 H 391.425 2.23901 -1.2141 0
M  V30 4027 H 392.208 1.90977 -2.85277 0
M  V30 4028 N 394.653 0.992116 1.22453 0
M  V30 4029 C 396.064 0.702776 1.72968 0
M  V30 4030 C 396.415 -0.780399 1.80012 0
M  V30 4031 O 395.54 -1.61007 1.44589 0
M  V30 4032 C 396.135 1.26903 3.14135 0
M  V30 4033 C 394.694 1.02909 3.62059 0
M  V30 4034 C 393.841 1.38969 2.39964 0
M  V30 4035 H 396.792 1.16457 1.07812 0
M  V30 4036 H 396.813 0.647223 3.74955 0
M  V30 4037 H 396.325 2.34851 3.08977 0
M  V30 4038 H 394.426 -0.0337979 3.72585 0
M  V30 4039 H 394.539 1.69191 4.48231 0
M  V30 4040 H 392.903 0.808279 2.41535 0
M  V30 4041 H 393.686 2.4792 2.37467 0
M  V30 4042 N 396.131 -1.37776 0.765217 0
M  V30 4043 C 397.061 -2.32945 0.160953 0
M  V30 4044 C 398.042 -1.55454 -0.690516 0
M  V30 4045 O 399.227 -1.83721 -0.629318 0
M  V30 4046 C 396.357 -3.39669 -0.724031 0
M  V30 4047 C 395.311 -4.27992 0.0256173 0
M  V30 4048 C 394.637 -5.25673 -0.978383 0
M  V30 4049 C 395.937 -5.08309 1.20082 0
M  V30 4050 H 397.631 -2.83728 0.955969 0
M  V30 4051 H 395.177 -1.36416 0.461149 0
M  V30 4052 H 397.13 -4.05219 -1.15652 0
M  V30 4053 H 395.854 -2.87396 -1.5515 0
M  V30 4054 H 394.513 -3.63964 0.438812 0
M  V30 4055 H 394.161 -4.69682 -1.80022 0
M  V30 4056 H 393.861 -5.85625 -0.481378 0
M  V30 4057 H 395.385 -5.94098 -1.40995 0
M  V30 4058 H 396.799 -5.67034 0.845307 0
M  V30 4059 H 395.196 -5.77554 1.62947 0
M  V30 4060 H 396.266 -4.41365 2.00811 0
M  V30 4061 N 397.609 -0.515225 -1.4894 0
M  V30 4062 C 398.834 0.022727 -2.07388 0
M  V30 4063 C 399.259 1.2876 -1.37122 0
M  V30 4064 O 398.617 1.76067 -0.432431 0
M  V30 4065 C 398.665 0.244869 -3.59768 0
M  V30 4066 O 397.769 1.31667 -3.90817 0
M  V30 4067 H 397.11 -0.0325506 -0.663202 0
M  V30 4068 H 399.64 -0.718918 -1.91553 0
M  V30 4069 H 399.65 0.47205 -4.0526 0
M  V30 4070 H 398.325 -0.679194 -4.10317 0
M  V30 4071 H 396.902 1.07331 -3.5712 0
M  V30 4072 N 399.087 1.5561 -0.249682 0
M  V30 4073 C 400.498 1.84979 0.252949 0
M  V30 4074 C 400.849 1.17153 1.57384 0
M  V30 4075 O 399.974 0.450884 2.11651 0
M  V30 4076 C 400.569 3.35584 0.465732 0
M  V30 4077 C 399.128 3.65169 0.912624 0
M  V30 4078 C 398.275 2.77299 -0.00859085 0
M  V30 4079 H 401.226 1.51513 -0.47217 0
M  V30 4080 H 401.247 3.57313 1.30795 0
M  V30 4081 H 400.759 3.8492 -0.49579 0
M  V30 4082 H 398.86 3.21312 1.88652 0
M  V30 4083 H 398.973 4.72912 0.767559 0
M  V30 4084 H 397.337 2.49678 0.50327 0
M  V30 4085 H 398.12 3.29442 -0.965537 0
M  V30 4086 N 400.565 -0.0233959 1.57583 0
M  V30 4087 C 401.528 -1.00693 2.05897 0
M  V30 4088 C 402.528 -1.28693 0.964092 0
M  V30 4089 O 403.718 -1.23602 1.22753 0
M  V30 4090 C 400.85 -2.33825 2.4807 0
M  V30 4091 H 402.043 -0.589476 2.9405 0
M  V30 4092 H 399.596 -0.270354 1.53944 0
M  V30 4093 H 400.331 -2.80307 1.6309 0
M  V30 4094 H 400.116 -2.1483 3.2801 0
M  V30 4095 H 401.606 -3.04426 2.85857 0
M  V30 4096 N 402.043 -1.548 -0.295768 0
M  V30 4097 C 403.292 -1.73538 -1.02798 0
M  V30 4098 C 403.605 -0.531159 -1.8825 0
M  V30 4099 O 404.811 -0.600458 -2.64777 0
M  V30 4100 C 403.267 -3.07051 -1.87744 0
M  V30 4101 C 402.875 -4.34968 -1.07269 0
M  V30 4102 C 404.619 -3.35146 -2.60533 0
M  V30 4103 C 402.526 -5.5953 -1.91521 0
M  V30 4104 H 401.456 -0.646794 -0.387522 0
M  V30 4105 H 404.107 -1.81278 -0.284718 0
M  V30 4106 H 402.489 -2.93289 -2.66078 0
M  V30 4107 H 403.663 -4.5958 -0.335117 0
M  V30 4108 H 401.978 -4.13847 -0.460384 0
M  V30 4109 H 404.575 -4.2541 -3.23929 0
M  V30 4110 H 404.918 -2.54255 -3.29636 0
M  V30 4111 H 405.451 -3.49902 -1.89244 0
M  V30 4112 H 402.19 -6.43103 -1.26878 0
M  V30 4113 H 401.71 -5.39096 -2.62937 0
M  V30 4114 H 403.389 -5.96982 -2.49442 0
M  V30 4115 N 403.521 0.559213 -1.47345 0
M  V30 4116 C 404.431 1.69388 -1.62311 0
M  V30 4117 C 405.447 1.6648 -0.505993 0
M  V30 4118 O 406.623 1.85964 -0.773262 0
M  V30 4119 C 403.688 3.05894 -1.63185 0
M  V30 4120 C 402.749 3.19885 -2.86307 0
M  V30 4121 C 401.982 4.49879 -2.87131 0
M  V30 4122 O 402.205 5.35217 -1.97229 0
M  V30 4123 O 401.139 4.67618 -3.78968 0
M  V30 4124 H 404.965 1.59706 -2.58317 0
M  V30 4125 H 402.55 0.728989 -1.30407 0
M  V30 4126 H 404.432 3.87133 -1.66451 0
M  V30 4127 H 403.107 3.15964 -0.70345 0
M  V30 4128 H 402.014 2.38052 -2.88587 0
M  V30 4129 H 403.347 3.14718 -3.78435 0
M  V30 4130 N 404.999 1.35443 0.805782 0
M  V30 4131 C 405.962 1.28301 1.89925 0
M  V30 4132 C 406.962 0.194285 1.59622 0
M  V30 4133 O 408.152 0.448036 1.6834 0
M  V30 4134 C 405.284 0.984997 3.2636 0
M  V30 4135 H 406.477 2.2553 1.97677 0
M  V30 4136 H 404.03 1.19979 1.00173 0
M  V30 4137 H 404.765 0.016603 3.24296 0
M  V30 4138 H 404.55 1.77269 3.4974 0
M  V30 4139 H 406.04 0.960651 4.064 0
M  V30 4140 N 406.477 -1.02803 1.19454 0
M  V30 4141 C 407.726 -1.7562 0.991996 0
M  V30 4142 C 408.039 -1.89672 -0.477901 0
M  V30 4143 O 409.245 -2.59468 -0.799287 0
M  V30 4144 C 407.701 -3.15812 1.72601 0
M  V30 4145 C 407.309 -3.0981 3.23607 0
M  V30 4146 C 409.053 -3.92918 1.60674 0
M  V30 4147 C 406.96 -4.44939 3.89594 0
M  V30 4148 H 405.89 -0.658352 0.367543 0
M  V30 4149 H 408.541 -1.15044 1.42959 0
M  V30 4150 H 406.923 -3.7686 1.21624 0
M  V30 4151 H 408.097 -2.58138 3.81709 0
M  V30 4152 H 406.412 -2.46201 3.35819 0
M  V30 4153 H 409.009 -4.9287 2.07323 0
M  V30 4154 H 409.352 -4.12502 0.561025 0
M  V30 4155 H 409.885 -3.38472 2.09001 0
M  V30 4156 H 406.624 -4.30559 4.94267 0
M  V30 4157 H 406.144 -4.96664 3.36281 0
M  V30 4158 H 407.823 -5.1382 3.93189 0
M  V30 4159 N 407.956 -0.998596 -1.21925 0
M  V30 4160 C 408.888 -0.511879 -2.23411 0
M  V30 4161 C 409.901 0.396094 -1.57908 0
M  V30 4162 O 411.09 0.197316 -1.77406 0
M  V30 4163 C 408.19 0.276802 -3.37768 0
M  V30 4164 C 407.363 -0.628687 -4.32858 0
M  V30 4165 C 406.422 0.109272 -5.26087 0
M  V30 4166 O 405.448 -0.507237 -5.66935 0
M  V30 4167 N 406.65 1.38983 -5.63617 0
M  V30 4168 H 409.415 -1.38457 -2.658 0
M  V30 4169 H 406.976 -0.873981 -1.36283 0
M  V30 4170 H 408.968 0.77928 -3.97126 0
M  V30 4171 H 407.538 1.05063 -2.94415 0
M  V30 4172 H 406.758 -1.31175 -3.71735 0
M  V30 4173 H 408.046 -1.24514 -4.93329 0
M  V30 4174 H 407.444 1.91194 -5.32411 0
M  V30 4175 H 406.001 1.83739 -6.25367 0
M  V30 4176 N 409.434 1.37368 -0.772513 0
M  V30 4177 C 410.381 2.30262 -0.157488 0
M  V30 4178 C 411.351 1.51137 0.688965 0
M  V30 4179 O 412.536 1.79704 0.641168 0
M  V30 4180 C 409.676 3.37611 0.715045 0
M  V30 4181 C 408.789 4.31746 -0.148098 0
M  V30 4182 C 407.924 5.26171 0.729213 0
M  V30 4183 C 406.963 6.11948 -0.136418 0
M  V30 4184 N 406.1 6.98613 0.698914 0
M  V30 4185 H 410.94 2.82277 -0.955179 0
M  V30 4186 H 408.477 1.38957 -0.482631 0
M  V30 4187 H 410.435 3.98479 1.23575 0
M  V30 4188 H 409.065 2.86959 1.47833 0
M  V30 4189 H 408.117 3.72178 -0.786613 0
M  V30 4190 H 409.429 4.92084 -0.81579 0
M  V30 4191 H 408.583 5.92247 1.31637 0
M  V30 4192 H 407.322 4.66246 1.43059 0
M  V30 4193 H 406.327 5.4485 -0.736102 0
M  V30 4194 H 407.552 6.73945 -0.835134 0
M  V30 4195 H 405.498 6.41215 1.38489 0
M  V30 4196 H 405.415 7.55948 0.0885358 0
M  V30 4197 H 406.683 7.69077 1.27044 0
M  V30 4198 N 410.912 0.523116 1.48665 0
M  V30 4199 C 411.822 -0.247406 2.33292 0
M  V30 4200 C 412.838 -0.945769 1.46052 0
M  V30 4201 O 414.014 -0.922253 1.79043 0
M  V30 4202 C 411.079 -1.28487 3.22012 0
M  V30 4203 C 410.14 -0.597592 4.2512 0
M  V30 4204 C 409.373 -1.58563 5.09601 0
M  V30 4205 O 409.596 -2.81763 4.95949 0
M  V30 4206 O 408.53 -1.12879 5.91221 0
M  V30 4207 H 412.356 0.445869 3.00409 0
M  V30 4208 H 409.941 0.284128 1.46673 0
M  V30 4209 H 411.823 -1.88459 3.7691 0
M  V30 4210 H 410.498 -1.96068 2.57564 0
M  V30 4211 H 409.405 0.0424407 3.74076 0
M  V30 4212 H 410.738 0.0361517 4.92187 0
M  V30 4213 N 412.39 -1.55475 0.257931 0
M  V30 4214 C 413.806 -1.59307 -0.0966563 0
M  V30 4215 C 414.006 -1.27514 -1.5602 0
M  V30 4216 O 413.062 -1.02774 -2.30637 0
M  V30 4217 C 414.375 -2.99552 0.262481 0
M  V30 4218 C 415.923 -3.1231 0.207683 0
M  V30 4219 C 416.398 -4.54793 0.541012 0
M  V30 4220 N 417.889 -4.6058 0.491921 0
M  V30 4221 C 418.624 -5.68825 0.722857 0
M  V30 4222 N 418.12 -6.85287 1.0175 0
M  V30 4223 N 419.913 -5.58296 0.652815 0
M  V30 4224 H 412.064 -1.74409 1.21224 0
M  V30 4225 H 414.327 -0.812424 0.48854 0
M  V30 4226 H 414.033 -3.27593 1.27967 0
M  V30 4227 H 413.907 -3.75019 -0.40508 0
M  V30 4228 H 416.294 -2.84044 -0.800195 0
M  V30 4229 H 416.375 -2.39095 0.909255 0
M  V30 4230 H 416.019 -4.83783 1.5465 0
M  V30 4231 H 415.949 -5.26285 -0.18216 0
M  V30 4232 H 418.44 -3.7691 0.273366 0
M  V30 4233 H 418.753 -7.63725 1.18084 0
M  V30 4234 H 417.098 -6.86945 1.05509 0
M  V30 4235 H 420.289 -4.66189 0.422592 0
M  V30 4236 H 420.462 -6.42582 0.836182 0
M  V30 4237 N 413.868 0.0150385 -1.57593 0
M  V30 4238 C 414.816 1.02958 -2.08572 0
M  V30 4239 C 415.81 1.36554 -1.00246 0
M  V30 4240 O 417.016 1.35295 -1.18724 0
M  V30 4241 H 413.391 0.349619 -0.665786 0
M  V30 4242 H 415.362 0.573932 -2.92829 0
M  V30 4243 C 414.111 2.31752 -2.59203 0
M  V30 4244 H 413.434 2.06765 -3.42182 0
M  V30 4245 H 414.874 3.01053 -2.98568 0
M  V30 4246 C 413.333 3.01692 -1.49945 0
M  V30 4247 O 413.863 3.92083 -0.873704 0
M  V30 4248 N 412.069 2.6326 -1.23056 0
M  V30 4249 H 411.616 1.89838 -1.74125 0
M  V30 4250 H 411.574 3.10372 -0.501685 0
M  V30 4251 N 415.346 1.54954 0.287554 0
M  V30 4252 C 416.595 1.74081 1.01877 0
M  V30 4253 C 416.908 0.541135 1.87966 0
M  V30 4254 O 418.114 0.614491 2.64455 0
M  V30 4255 C 416.57 3.08042 1.86113 0
M  V30 4256 C 416.178 4.35531 1.04961 0
M  V30 4257 C 417.922 3.36523 2.58752 0
M  V30 4258 C 415.829 5.60538 1.88551 0
M  V30 4259 H 414.759 0.64884 0.384087 0
M  V30 4260 H 417.41 1.81426 0.275101 0
M  V30 4261 H 415.792 2.94696 2.64519 0
M  V30 4262 H 416.966 4.59751 0.31074 0
M  V30 4263 H 415.281 4.14085 0.43843 0
M  V30 4264 H 417.878 4.27122 3.21668 0
M  V30 4265 H 418.221 2.56 3.28283 0
M  V30 4266 H 418.754 3.50901 1.87386 0
M  V30 4267 H 415.493 6.43767 1.23466 0
M  V30 4268 H 415.013 5.40483 2.60074 0
M  V30 4269 H 416.692 5.98297 2.46273 0
M  V30 4270 N 416.824 -0.551391 1.4764 0
M  V30 4271 C 418.052 -1.33357 1.58189 0
M  V30 4272 C 418.467 -1.87342 0.234199 0
M  V30 4273 O 417.824 -1.65301 -0.77343 0
M  V30 4274 C 417.875 -2.49942 2.61173 0
M  V30 4275 O 417.596 -1.98187 3.90709 0
M  V30 4276 C 419.097 -3.42072 2.8196 0
M  V30 4277 H 416.317 -0.40631 0.533998 0
M  V30 4278 H 418.861 -0.667367 1.93304 0
M  V30 4279 H 417.016 -3.12489 2.28975 0
M  V30 4280 H 417.43 -2.74342 4.47031 0
M  V30 4281 H 418.904 -4.20278 3.57869 0
M  V30 4282 H 419.381 -3.95978 1.89995 0
M  V30 4283 H 419.987 -2.85336 3.15378 0
M  V30 4284 N 418.302 -1.35869 -0.798587 0
M  V30 4285 C 419.718 -1.16082 -1.09532 0
M  V30 4286 C 419.918 0.0213124 -2.01489 0
M  V30 4287 O 418.974 0.689488 -2.42904 0
M  V30 4288 C 420.287 -2.46748 -1.7186 0
M  V30 4289 C 421.835 -2.53028 -1.84244 0
M  V30 4290 C 422.31 -3.83758 -2.49988 0
M  V30 4291 N 423.801 -3.85053 -2.57465 0
M  V30 4292 C 424.536 -4.8294 -3.09122 0
M  V30 4293 N 424.032 -5.91217 -3.61157 0
M  V30 4294 N 425.825 -4.70369 -3.0775 0
M  V30 4295 H 417.976 -2.11571 -0.187461 0
M  V30 4296 H 420.239 -0.936726 -0.145765 0
M  V30 4297 H 419.945 -3.33471 -1.11759 0
M  V30 4298 H 419.819 -2.61883 -2.71472 0
M  V30 4299 H 422.206 -1.66729 -2.43486 0
M  V30 4300 H 422.287 -2.418 -0.834643 0
M  V30 4301 H 421.931 -4.70459 -1.91393 0
M  V30 4302 H 421.861 -3.92278 -3.5132 0
M  V30 4303 H 424.352 -3.06822 -2.20609 0
M  V30 4304 H 424.665 -6.61892 -3.98896 0
M  V30 4305 H 423.01 -5.94899 -3.59333 0
M  V30 4306 H 426.201 -3.84914 -2.66381 0
M  V30 4307 H 426.374 -5.46816 -3.47701 0
M  V30 4308 N 419.78 1.02168 -1.19998 0
M  V30 4309 C 420.69 2.14069 -0.959774 0
M  V30 4310 C 421.706 1.73804 0.082655 0
M  V30 4311 O 422.882 2.01133 -0.103633 0
M  V30 4312 C 419.947 3.42936 -0.509459 0
M  V30 4313 C 419.008 3.97474 -1.62213 0
M  V30 4314 C 418.241 5.2019 -1.19321 0
M  V30 4315 O 418.464 5.70369 -0.0597726 0
M  V30 4316 O 417.398 5.67749 -1.99863 0
M  V30 4317 H 421.224 2.37199 -1.89658 0
M  V30 4318 H 418.809 1.12469 -0.983411 0
M  V30 4319 H 420.691 4.20551 -0.267322 0
M  V30 4320 H 419.366 3.21234 0.398821 0
M  V30 4321 H 418.273 3.21161 -1.9185 0
M  V30 4322 H 419.606 4.23555 -2.50723 0
M  V30 4323 N 421.258 1.00505 1.21394 0
M  V30 4324 C 422.674 0.717873 1.42544 0
M  V30 4325 C 422.874 -0.706936 1.88692 0
M  V30 4326 O 421.93 -1.47627 2.04847 0
M  V30 4327 C 423.243 1.73377 2.45684 0
M  V30 4328 C 424.791 1.75059 2.59467 0
M  V30 4329 C 425.266 2.75545 3.6584 0
M  V30 4330 N 426.757 2.74213 3.73311 0
M  V30 4331 C 427.492 3.48626 4.55245 0
M  V30 4332 N 426.988 4.32678 5.41075 0
M  V30 4333 N 428.781 3.37276 4.49668 0
M  V30 4334 H 420.932 1.92506 0.897503 0
M  V30 4335 H 423.195 0.830919 0.456375 0
M  V30 4336 H 422.901 2.75395 2.18748 0
M  V30 4337 H 422.775 1.53647 3.44489 0
M  V30 4338 H 425.162 0.737337 2.8574 0
M  V30 4339 H 425.243 1.98861 1.60897 0
M  V30 4340 H 424.887 3.77028 3.40313 0
M  V30 4341 H 424.817 2.49009 4.64007 0
M  V30 4342 H 427.308 2.13234 3.11993 0
M  V30 4343 H 427.621 4.86253 6.00648 0
M  V30 4344 H 425.966 4.3676 5.40616 0
M  V30 4345 H 429.157 2.71043 3.81646 0
M  V30 4346 H 429.33 3.95524 5.13288 0
M  V30 4347 N 422.737 -1.36956 0.779787 0
M  V30 4348 C 423.984 -1.99491 0.347766 0
M  V30 4349 C 424.312 -1.61898 -1.07793 0
M  V30 4350 O 423.567 -0.86071 -1.75756 0
M  V30 4351 C 423.866 -3.54585 0.447686 0
M  V30 4352 C 423.532 -4.1197 1.83279 0
M  V30 4353 C 422.194 -4.27356 2.2118 0
M  V30 4354 C 424.546 -4.43354 2.74019 0
M  V30 4355 C 421.874 -4.71432 3.4924 0
M  V30 4356 C 424.226 -4.88858 4.01497 0
M  V30 4357 C 422.89 -5.0245 4.39432 0
M  V30 4358 H 422.16 -0.729991 0.127257 0
M  V30 4359 H 424.807 -1.63599 0.995376 0
M  V30 4360 H 423.112 -3.90773 -0.283447 0
M  V30 4361 H 424.809 -4.00888 0.0945948 0
M  V30 4362 H 421.399 -4.00428 1.52825 0
M  V30 4363 H 425.583 -4.31045 2.45995 0
M  V30 4364 H 420.839 -4.80141 3.78516 0
M  V30 4365 H 425.013 -5.12108 4.71931 0
M  V30 4366 H 422.64 -5.36362 5.38721 0
M  V30 4367 N 424.215 -0.530993 -1.48385 0
M  V30 4368 C 425.145 0.219985 -2.32461 0
M  V30 4369 C 426.126 0.934111 -1.42156 0
M  V30 4370 O 427.311 0.919694 -1.71042 0
M  V30 4371 C 424.441 1.26674 -3.23375 0
M  V30 4372 C 423.395 0.67069 -4.22712 0
M  V30 4373 C 422.721 1.82017 -5.02766 0
M  V30 4374 C 424.021 -0.358268 -5.2107 0
M  V30 4375 H 425.715 -0.48187 -2.95497 0
M  V30 4376 H 423.261 -0.233182 -1.42099 0
M  V30 4377 H 425.214 1.80006 -3.81019 0
M  V30 4378 H 423.938 1.99818 -2.58341 0
M  V30 4379 H 422.597 0.158878 -3.66256 0
M  V30 4380 H 422.245 2.54002 -4.34157 0
M  V30 4381 H 421.945 1.42727 -5.70003 0
M  V30 4382 H 423.469 2.35725 -5.63264 0
M  V30 4383 H 424.883 0.0880081 -5.73232 0
M  V30 4384 H 423.28 -0.66861 -5.96364 0
M  V30 4385 H 424.35 -1.26367 -4.68145 0
M  V30 4386 N 425.693 1.55336 -0.266172 0
M  V30 4387 C 426.939 1.99692 0.353681 0
M  V30 4388 C 427.272 1.1543 1.56172 0
M  V30 4389 O 426.547 0.222218 1.93226 0
M  V30 4390 C 426.83 3.52316 0.74466 0
M  V30 4391 C 426.683 4.47337 -0.470101 0
M  V30 4392 C 428.002 4.10588 1.58447 0
M  V30 4393 H 425.121 0.725961 0.12708 0
M  V30 4394 H 427.763 1.86336 -0.371333 0
M  V30 4395 H 425.913 3.63829 1.36239 0
M  V30 4396 H 427.585 4.4778 -1.10864 0
M  V30 4397 H 425.828 4.19364 -1.10978 0
M  V30 4398 H 426.499 5.51788 -0.15291 0
M  V30 4399 H 428.975 4.02297 1.06286 0
M  V30 4400 H 427.851 5.17607 1.82686 0
M  V30 4401 H 428.112 3.60253 2.56262 0
M  V30 4402 N 427.171 -0.0066808 1.57599 0
M  V30 4403 C 428.101 -0.999296 2.11036 0
M  V30 4404 C 429.082 -1.36278 1.01795 0
M  V30 4405 O 430.267 -1.4477 1.29442 0
M  V30 4406 C 427.397 -2.29328 2.60818 0
M  V30 4407 C 426.351 -2.07159 3.74525 0
M  V30 4408 C 425.677 -3.42512 4.10596 0
M  V30 4409 C 426.977 -1.43959 5.02069 0
M  V30 4410 H 428.671 -0.554382 2.94223 0
M  V30 4411 H 426.217 -0.265221 1.41536 0
M  V30 4412 H 428.17 -2.99117 2.96828 0
M  V30 4413 H 426.894 -2.7592 1.74745 0
M  V30 4414 H 425.553 -1.39797 3.38899 0
M  V30 4415 H 425.201 -3.86795 3.21556 0
M  V30 4416 H 424.901 -3.28498 4.87199 0
M  V30 4417 H 426.425 -4.13628 4.4916 0
M  V30 4418 H 427.839 -2.03696 5.35893 0
M  V30 4419 H 426.236 -1.40452 5.83432 0
M  V30 4420 H 427.306 -0.407992 4.83181 0
M  V30 4421 N 428.649 -1.55105 -0.279332 0
M  V30 4422 C 429.597 -1.88333 -1.36505 0
M  V30 4423 C 430.591 -0.759043 -1.51443 0
M  V30 4424 O 431.797 -0.943312 -1.53302 0
M  V30 4425 H 428.172 -0.59766 -0.456406 0
M  V30 4426 H 430.143 -2.79041 -1.05728 0
M  V30 4427 C 428.892 -2.16628 -2.7197 0
M  V30 4428 H 428.215 -3.02624 -2.61264 0
M  V30 4429 H 429.655 -2.43803 -3.46895 0
M  V30 4430 C 428.114 -0.971807 -3.22579 0
M  V30 4431 O 428.644 -0.203228 -4.01186 0
M  V30 4432 N 426.85 -0.771238 -2.80179 0
M  V30 4433 H 426.397 -1.39792 -2.1637 0
M  V30 4434 H 426.355 0.0263667 -3.14389 0
M  V30 4435 N 430.127 0.543554 -1.4793 0
M  V30 4436 C 431.357 1.32324 -1.58663 0
M  V30 4437 C 431.765 1.8766 -0.240896 0
M  V30 4438 O 431.108 1.66411 0.778011 0
M  V30 4439 C 431.17 2.52094 -2.56299 0
M  V30 4440 C 430.834 2.17944 -4.01683 0
M  V30 4441 C 431.831 1.74422 -4.89768 0
M  V30 4442 C 429.516 2.28884 -4.47121 0
M  V30 4443 C 431.51 1.42287 -6.21316 0
M  V30 4444 C 429.197 1.96361 -5.78693 0
M  V30 4445 C 430.195 1.53132 -6.65612 0
M  V30 4446 O 429.883 1.21029 -7.94737 0
M  V30 4447 H 429.615 0.409174 -0.538101 0
M  V30 4448 H 432.169 0.663887 -1.94375 0
M  V30 4449 H 430.399 3.20965 -2.15681 0
M  V30 4450 H 432.088 3.14165 -2.57012 0
M  V30 4451 H 432.854 1.65452 -4.55907 0
M  V30 4452 H 428.733 2.61488 -3.79664 0
M  V30 4453 H 432.277 1.08472 -6.89115 0
M  V30 4454 H 428.174 2.04967 -6.12094 0
M  V30 4455 H 428.942 1.34543 -8.07366 0
M  V30 4456 N 431.605 1.3629 0.791371 0
M  V30 4457 C 432.552 1.30458 1.90393 0
M  V30 4458 C 433.522 0.173632 1.6519 0
M  V30 4459 O 434.707 0.35983 1.87376 0
M  V30 4460 C 431.847 1.09777 3.27174 0
M  V30 4461 C 430.96 2.31929 3.64462 0
M  V30 4462 C 430.095 2.04276 4.90352 0
M  V30 4463 C 429.134 3.224 5.20312 0
M  V30 4464 N 428.271 2.94424 6.37385 0
M  V30 4465 H 433.111 2.25589 1.94714 0
M  V30 4466 H 430.648 1.12122 0.952216 0
M  V30 4467 H 432.606 0.958133 4.06049 0
M  V30 4468 H 431.236 0.183014 3.22281 0
M  V30 4469 H 430.288 2.56703 2.80727 0
M  V30 4470 H 431.6 3.20085 3.82553 0
M  V30 4471 H 430.754 1.87231 5.77087 0
M  V30 4472 H 429.493 1.13428 4.74326 0
M  V30 4473 H 428.498 3.40005 4.32061 0
M  V30 4474 H 429.723 4.14071 5.38258 0
M  V30 4475 H 427.669 2.06185 6.22755 0
M  V30 4476 H 427.586 3.76118 6.55798 0
M  V30 4477 H 428.854 2.80953 7.27108 0
M  V30 4478 N 433.083 -1.0153 1.20538 0
M  V30 4479 C 434.36 -1.72327 0.925343 0
M  V30 4480 C 434.74 -2.03383 -0.565547 0
M  V30 4481 O 434.088 -1.69934 -1.52757 0
M  V30 4482 C 434.298 -2.9902 1.79967 0
M  V30 4483 C 435.646 -3.72258 2.04228 0
M  V30 4484 O 436.67 -3.08979 1.77231 0
M  V30 4485 O 435.529 -4.86053 2.4983 0
M  V30 4486 H 432.623 -0.751099 0.346092 0
M  V30 4487 H 435.169 -1.07366 1.31417 0
M  V30 4488 H 433.941 -2.72402 2.80915 0
M  V30 4489 H 433.564 -3.71721 1.41099 0
M  V30 4490 N 434.561 -1.01147 -1.20859 0
M  V30 4491 C 435.508 -0.577354 -2.23462 0
M  V30 4492 C 436.478 0.399922 -1.61214 0
M  V30 4493 O 437.663 0.300515 -1.88419 0
M  V30 4494 C 434.803 0.083372 -3.44999 0
M  V30 4495 C 433.916 -0.937856 -4.21697 0
M  V30 4496 C 433.051 -0.248717 -5.30617 0
M  V30 4497 C 432.09 -1.25705 -5.99053 0
M  V30 4498 N 431.227 -0.594939 -6.99575 0
M  V30 4499 H 436.067 -1.45695 -2.59956 0
M  V30 4500 H 433.604 -0.729428 -1.27741 0
M  V30 4501 H 435.562 0.483535 -4.14388 0
M  V30 4502 H 434.192 0.926645 -3.09214 0
M  V30 4503 H 433.244 -1.45622 -3.51423 0
M  V30 4504 H 434.556 -1.70493 -4.68757 0
M  V30 4505 H 433.71 0.207215 -6.06346 0
M  V30 4506 H 432.449 0.55071 -4.84581 0
M  V30 4507 H 431.454 -1.72343 -5.2209 0
M  V30 4508 H 432.679 -2.05767 -6.47176 0
M  V30 4509 H 430.625 0.184713 -6.5574 0
M  V30 4510 H 430.542 -1.30017 -7.44736 0
M  V30 4511 H 431.81 -0.162427 -7.79331 0
M  V30 4512 N 436.039 1.36541 -0.78704 0
M  V30 4513 C 437.286 1.99304 -0.358341 0
M  V30 4514 C 437.614 1.62467 1.06933 0
M  V30 4515 O 436.869 0.870019 1.75297 0
M  V30 4516 C 437.168 3.54343 -0.466485 0
M  V30 4517 C 436.834 4.10993 -1.85461 0
M  V30 4518 C 435.496 4.26177 -2.23443 0
M  V30 4519 C 437.848 4.41895 -2.76366 0
M  V30 4520 C 435.176 4.69573 -3.51736 0
M  V30 4521 C 437.528 4.86722 -4.04084 0
M  V30 4522 C 436.192 5.00112 -4.42091 0
M  V30 4523 H 435.462 0.729306 -0.131126 0
M  V30 4524 H 438.109 1.63068 -1.00404 0
M  V30 4525 H 436.414 3.90918 0.262719 0
M  V30 4526 H 438.111 4.00833 -0.115854 0
M  V30 4527 H 434.701 3.99612 -1.54946 0
M  V30 4528 H 438.885 4.29735 -2.48277 0
M  V30 4529 H 434.141 4.78127 -3.81057 0
M  V30 4530 H 438.315 5.09598 -4.7464 0
M  V30 4531 H 435.942 5.33498 -5.41557 0
M  V30 4532 N 437.518 0.538854 1.48102 0
M  V30 4533 C 438.428 -0.222648 2.33541 0
M  V30 4534 C 439.444 -0.930225 1.47047 0
M  V30 4535 O 440.62 -0.903211 1.80011 0
M  V30 4536 C 437.685 -1.25064 3.23357 0
M  V30 4537 C 436.746 -0.552469 4.2573 0
M  V30 4538 C 435.979 -1.53149 5.11254 0
M  V30 4539 O 436.202 -2.76487 4.9891 0
M  V30 4540 O 435.136 -1.06602 5.92385 0
M  V30 4541 H 438.962 0.477707 2.99919 0
M  V30 4542 H 436.547 0.299669 1.46364 0
M  V30 4543 H 438.429 -1.8445 3.78888 0
M  V30 4544 H 437.104 -1.93325 2.59629 0
M  V30 4545 H 436.011 0.082114 3.7401 0
M  V30 4546 H 437.344 0.0883526 4.92121 0
M  V30 4547 N 438.996 -1.55193 0.274407 0
M  V30 4548 C 440.407 -1.85358 -0.223488 0
M  V30 4549 C 440.758 -1.19642 -1.555 0
M  V30 4550 O 439.883 -0.484498 -2.10907 0
M  V30 4551 C 440.478 -3.36282 -0.412285 0
M  V30 4552 C 439.037 -3.66574 -0.854413 0
M  V30 4553 C 438.184 -2.7725 0.0527056 0
M  V30 4554 H 441.135 -1.50743 0.496215 0
M  V30 4555 H 441.156 -3.59349 -1.25094 0
M  V30 4556 H 440.668 -3.84083 0.556965 0
M  V30 4557 H 438.769 -3.24273 -1.83516 0
M  V30 4558 H 438.882 -4.74073 -0.692226 0
M  V30 4559 H 437.246 -2.50447 -0.463484 0
M  V30 4560 H 438.029 -3.27865 1.01783 0
M  V30 4561 N 440.474 -0.00167713 -1.576 0
M  V30 4562 C 441.722 0.681471 -1.90264 0
M  V30 4563 C 442.043 1.7422 -0.875924 0
M  V30 4564 O 441.313 1.95709 0.0864412 0
M  V30 4565 H 439.893 0.254696 -0.702239 0
M  V30 4566 H 442.555 -0.0429996 -1.94853 0
M  V30 4567 H 441.651 1.15166 -2.90075 0
M  V30 4568 N 441.952 1.55251 0.271103 0
M  V30 4569 C 443.201 1.75151 1.00025 0
M  V30 4570 C 443.514 0.561041 1.87381 0
M  V30 4571 O 444.72 0.642506 2.63788 0
M  V30 4572 C 443.176 3.09999 1.82835 0
M  V30 4573 C 442.784 4.3662 1.00336 0
M  V30 4574 C 444.528 3.39249 2.55168 0
M  V30 4575 C 442.435 5.62506 1.82595 0
M  V30 4576 H 441.365 0.652877 0.377183 0
M  V30 4577 H 444.016 1.81708 0.255843 0
M  V30 4578 H 442.398 2.97485 2.61378 0
M  V30 4579 H 443.572 4.60055 0.261959 0
M  V30 4580 H 441.887 4.14527 0.394486 0
M  V30 4581 H 444.484 4.3051 3.1712 0
M  V30 4582 H 444.827 2.59467 3.2555 0
M  V30 4583 H 445.36 3.52869 1.83653 0
M  V30 4584 H 442.099 6.45041 1.16631 0
M  V30 4585 H 441.619 5.43211 2.54327 0
M  V30 4586 H 443.298 6.00875 2.39913 0
M  V30 4587 N 443.43 -0.535701 1.48216 0
M  V30 4588 C 444.36 -1.65014 1.65204 0
M  V30 4589 C 445.341 -1.62554 0.501011 0
M  V30 4590 O 446.526 -1.7984 0.732886 0
M  V30 4591 C 443.656 -3.03616 1.68626 0
M  V30 4592 C 442.61 -3.20932 2.83172 0
M  V30 4593 C 441.936 -4.60537 2.71679 0
M  V30 4594 C 443.236 -3.04249 4.24535 0
M  V30 4595 H 444.93 -1.51053 2.58502 0
M  V30 4596 H 442.476 -0.725262 1.24402 0
M  V30 4597 H 444.429 -3.81446 1.79099 0
M  V30 4598 H 443.153 -3.18587 0.719026 0
M  V30 4599 H 441.812 -2.45517 2.72244 0
M  V30 4600 H 441.46 -4.72336 1.72937 0
M  V30 4601 H 441.16 -4.73069 3.48538 0
M  V30 4602 H 442.684 -5.40475 2.84112 0
M  V30 4603 H 444.098 -3.71877 4.36326 0
M  V30 4604 H 442.495 -3.28278 5.02348 0
M  V30 4605 H 443.565 -2.00739 4.41397 0
M  V30 4606 N 444.908 -1.36708 -0.784132 0
M  V30 4607 C 445.84 -1.27333 -1.90575 0
M  V30 4608 C 446.853 -0.191706 -1.61667 0
M  V30 4609 O 448.042 -0.446854 -1.72816 0
M  V30 4610 C 445.142 -0.943177 -3.25511 0
M  V30 4611 C 444.315 -2.12776 -3.82158 0
M  V30 4612 C 443.374 -1.76983 -4.95544 0
M  V30 4613 O 442.4 -2.49134 -5.11782 0
M  V30 4614 N 443.602 -0.706624 -5.76183 0
M  V30 4615 H 446.367 -2.23974 -1.99138 0
M  V30 4616 H 443.928 -1.30171 -0.962656 0
M  V30 4617 H 445.92 -0.684799 -3.98864 0
M  V30 4618 H 444.49 -0.0657333 -3.12531 0
M  V30 4619 H 443.71 -2.54863 -3.0073 0
M  V30 4620 H 444.998 -2.91904 -4.16737 0
M  V30 4621 H 444.396 -0.107643 -5.65598 0
M  V30 4622 H 442.953 -0.50808 -6.49817 0
M  V30 4623 N 446.386 1.0089 -1.21074 0
M  V30 4624 C 447.316 2.1145 -0.990523 0
M  V30 4625 C 448.297 1.69897 0.0831699 0
M  V30 4626 O 449.482 1.94052 -0.0758853 0
M  V30 4627 C 446.612 3.42914 -0.550177 0
M  V30 4628 C 445.566 3.98244 -1.56799 0
M  V30 4629 C 444.892 5.25568 -0.984013 0
M  V30 4630 C 446.192 4.30752 -2.95381 0
M  V30 4631 H 447.886 2.3013 -1.91521 0
M  V30 4632 H 445.432 1.10592 -0.92225 0
M  V30 4633 H 447.385 4.19653 -0.383305 0
M  V30 4634 H 446.109 3.24014 0.41015 0
M  V30 4635 H 444.768 3.23621 -1.72236 0
M  V30 4636 H 444.416 5.02998 -0.0155216 0
M  V30 4637 H 444.116 5.63551 -1.66384 0
M  V30 4638 H 445.64 6.04955 -0.828378 0
M  V30 4639 H 447.054 4.98349 -2.8341 0
M  V30 4640 H 445.451 4.79869 -3.60341 0
M  V30 4641 H 446.521 3.39192 -3.46521 0
M  V30 4642 N 447.864 1.01787 1.20321 0
M  V30 4643 C 449.089 0.727009 1.9424 0
M  V30 4644 C 449.514 -0.706179 1.74341 0
M  V30 4645 O 448.872 -1.48609 1.03852 0
M  V30 4646 C 448.92 1.06958 3.44372 0
M  V30 4647 O 448.024 0.181983 4.11998 0
M  V30 4648 H 447.365 0.269626 0.606793 0
M  V30 4649 H 449.895 1.36158 1.52716 0
M  V30 4650 H 449.905 1.02182 3.94997 0
M  V30 4651 H 448.58 2.11378 3.58179 0
M  V30 4652 H 447.157 0.287378 3.71791 0
M  V30 4653 N 449.342 -1.36122 0.79427 0
M  V30 4654 C 450.274 -2.28683 0.153903 0
M  V30 4655 C 451.287 -1.49707 -0.639669 0
M  V30 4656 O 452.476 -1.7209 -0.474054 0
M  V30 4657 C 449.576 -3.29202 -0.804921 0
M  V30 4658 C 448.749 -4.37358 -0.060366 0
M  V30 4659 C 447.808 -5.17811 -0.935849 0
M  V30 4660 O 446.834 -5.67853 -0.391309 0
M  V30 4661 N 448.036 -5.34721 -2.25951 0
M  V30 4662 H 450.801 -2.84278 0.949008 0
M  V30 4663 H 448.362 -1.4834 0.648611 0
M  V30 4664 H 450.354 -3.79914 -1.39455 0
M  V30 4665 H 448.924 -2.74212 -1.50088 0
M  V30 4666 H 448.144 -3.87746 0.710382 0
M  V30 4667 H 449.432 -5.06777 0.45324 0
M  V30 4668 H 448.83 -4.95687 -2.72601 0
M  V30 4669 H 447.387 -5.88657 -2.79867 0
M  V30 4670 N 450.82 -0.546701 -1.47814 0
M  V30 4671 C 452.066 -0.0269594 -2.03382 0
M  V30 4672 C 452.421 1.30406 -1.41464 0
M  V30 4673 O 451.714 1.8332 -0.557151 0
M  V30 4674 C 451.908 0.134869 -3.57145 0
M  V30 4675 C 451.737 -1.17891 -4.33972 0
M  V30 4676 C 450.507 -1.74336 -4.74273 0
M  V30 4677 C 452.705 -2.09361 -4.69758 0
M  V30 4678 N 450.687 -2.99829 -5.35701 0
M  V30 4679 C 452.058 -3.19431 -5.31379 0
M  V30 4680 C 454.113 -2.09484 -4.51687 0
M  V30 4681 C 452.816 -4.2971 -5.76838 0
M  V30 4682 C 454.842 -3.18767 -4.98138 0
M  V30 4683 C 454.204 -4.27557 -5.59799 0
M  V30 4684 H 450.303 -0.0517733 -0.780284 0
M  V30 4685 H 452.887 -0.731673 -1.80429 0
M  V30 4686 H 451.058 0.80869 -3.79888 0
M  V30 4687 H 452.79 0.655726 -3.99352 0
M  V30 4688 H 449.545 -1.28265 -4.559 0
M  V30 4689 H 449.969 -3.63765 -5.70968 0
M  V30 4690 H 454.611 -1.26663 -4.03381 0
M  V30 4691 H 452.329 -5.13297 -6.24141 0
M  V30 4692 H 455.915 -3.19937 -4.85934 0
M  V30 4693 H 454.795 -5.10725 -5.95088 0
M  V30 4694 N 452.299 1.55045 -0.282633 0
M  V30 4695 C 453.546 1.9976 0.33199 0
M  V30 4696 C 453.874 1.17105 1.55295 0
M  V30 4697 O 453.129 0.230599 1.94337 0
M  V30 4698 C 453.428 3.49422 0.750938 0
M  V30 4699 C 453.094 4.4941 -0.366228 0
M  V30 4700 C 451.756 4.76471 -0.672964 0
M  V30 4701 C 454.108 5.09054 -1.11864 0
M  V30 4702 C 451.436 5.60442 -1.73556 0
M  V30 4703 C 453.788 5.9418 -2.17102 0
M  V30 4704 C 452.452 6.19558 -2.48402 0
M  V30 4705 H 451.722 0.730974 0.121484 0
M  V30 4706 H 454.369 1.8732 -0.39791 0
M  V30 4707 H 452.674 3.59377 1.56063 0
M  V30 4708 H 454.371 3.81432 1.23736 0
M  V30 4709 H 450.961 4.2844 -0.117041 0
M  V30 4710 H 455.145 4.88165 -0.894925 0
M  V30 4711 H 450.401 5.78349 -1.983 0
M  V30 4712 H 454.575 6.39427 -2.75873 0
M  V30 4713 H 452.202 6.84417 -3.30874 0
M  V30 4714 N 453.777 0.010035 1.57597 0
M  V30 4715 C 454.724 -0.978122 2.09049 0
M  V30 4716 C 455.694 -1.33509 0.988159 0
M  V30 4717 O 456.879 -1.43172 1.26121 0
M  V30 4718 C 454.019 -2.26158 2.60666 0
M  V30 4719 C 453.132 -1.96275 3.84838 0
M  V30 4720 C 452.267 -3.18776 4.24918 0
M  V30 4721 C 451.306 -2.84625 5.41899 0
M  V30 4722 N 450.443 -3.99693 5.77226 0
M  V30 4723 H 455.283 -0.532431 2.93205 0
M  V30 4724 H 452.82 -0.251234 1.44939 0
M  V30 4725 H 454.778 -3.01202 2.88675 0
M  V30 4726 H 453.408 -2.68378 1.79369 0
M  V30 4727 H 452.46 -1.11555 3.63675 0
M  V30 4728 H 453.772 -1.67111 4.69974 0
M  V30 4729 H 452.926 -4.02157 4.54262 0
M  V30 4730 H 451.665 -3.51087 3.38511 0
M  V30 4731 H 450.67 -1.99653 5.12268 0
M  V30 4732 H 451.895 -2.53551 6.29991 0
M  V30 4733 H 449.841 -4.31882 4.93776 0
M  V30 4734 H 449.758 -3.74087 6.56959 0
M  V30 4735 H 451.026 -4.83834 6.11167 0
M  V30 4736 N 455.255 -1.55392 -0.262866 0
M  V30 4737 C 456.165 -1.92077 -1.34698 0
M  V30 4738 C 457.181 -0.819227 -1.53508 0
M  V30 4739 O 458.357 -1.11921 -1.67439 0
M  V30 4740 C 455.422 -2.19407 -2.68443 0
M  V30 4741 C 454.483 -3.42905 -2.58292 0
M  V30 4742 C 453.716 -3.68921 -3.85659 0
M  V30 4743 O 453.939 -2.97275 -4.8681 0
M  V30 4744 O 452.873 -4.62455 -3.85252 0
M  V30 4745 H 456.699 -2.84384 -1.06581 0
M  V30 4746 H 454.284 -1.42069 -0.462264 0
M  V30 4747 H 456.166 -2.38365 -3.47506 0
M  V30 4748 H 454.841 -1.30282 -2.96325 0
M  V30 4749 H 453.748 -3.29272 -1.7757 0
M  V30 4750 H 455.081 -4.32282 -2.35358 0
M  V30 4751 N 456.733 0.527833 -1.48498 0
M  V30 4752 C 457.981 1.28101 -1.56316 0
M  V30 4753 C 458.302 1.9352 -0.239781 0
M  V30 4754 O 457.572 1.81433 0.738849 0
M  V30 4755 H 456.152 0.475793 -0.575873 0
M  V30 4756 H 458.814 0.614052 -1.84974 0
M  V30 4757 H 457.91 2.05916 -2.34532 0
M  V30 4758 N 458.211 1.37122 0.776871 0
M  V30 4759 C 459.158 1.3247 1.88998 0
M  V30 4760 C 460.128 0.191143 1.64997 0
M  V30 4761 O 461.313 0.379683 1.86984 0
M  V30 4762 C 458.453 1.13241 3.25992 0
M  V30 4763 C 457.566 2.35782 3.61982 0
M  V30 4764 C 456.701 2.09465 4.88158 0
M  V30 4765 C 455.74 3.279 5.16864 0
M  V30 4766 N 454.877 3.01167 6.34226 0
M  V30 4767 H 459.717 2.27642 1.9231 0
M  V30 4768 H 457.254 1.13125 0.94027 0
M  V30 4769 H 459.212 1.00115 4.0501 0
M  V30 4770 H 457.842 0.217186 3.22069 0
M  V30 4771 H 456.894 2.59666 2.77989 0
M  V30 4772 H 458.206 3.24125 3.79137 0
M  V30 4773 H 457.36 1.93341 5.75069 0
M  V30 4774 H 456.099 1.18452 4.73097 0
M  V30 4775 H 455.104 3.44569 4.2843 0
M  V30 4776 H 456.329 4.19757 5.33836 0
M  V30 4777 H 454.275 2.12779 6.20533 0
M  V30 4778 H 454.192 3.83052 6.51772 0
M  V30 4779 H 455.46 2.88649 7.24087 0
M  V30 4780 N 459.689 -1.00246 1.21608 0
M  V30 4781 C 460.619 -2.10921 1.00172 0
M  V30 4782 C 461.6 -1.69938 -0.0741587 0
M  V30 4783 O 462.785 -1.94009 0.0861753 0
M  V30 4784 C 459.915 -3.42618 0.568355 0
M  V30 4785 C 458.869 -3.97407 1.58909 0
M  V30 4786 C 458.195 -5.25038 1.01187 0
M  V30 4787 C 459.495 -4.2918 2.97661 0
M  V30 4788 H 461.189 -2.29112 1.92739 0
M  V30 4789 H 458.735 -1.10101 0.928102 0
M  V30 4790 H 460.688 -4.19444 0.405555 0
M  V30 4791 H 459.412 -3.24227 -0.392961 0
M  V30 4792 H 458.071 -3.22703 1.73949 0
M  V30 4793 H 457.719 -5.02982 0.0421965 0
M  V30 4794 H 457.419 -5.62661 1.6937 0
M  V30 4795 H 458.943 -6.04507 0.860448 0
M  V30 4796 H 460.357 -4.96839 2.86049 0
M  V30 4797 H 458.754 -4.77952 3.6288 0
M  V30 4798 H 459.824 -3.3735 3.48315 0
M  V30 4799 N 461.167 -1.02423 -1.1978 0
M  V30 4800 C 462.114 -0.601023 -2.22837 0
M  V30 4801 C 463.084 0.382801 -1.61629 0
M  V30 4802 O 464.269 0.280514 -1.88727 0
M  V30 4803 C 461.409 0.0467755 -3.45068 0
M  V30 4804 C 460.522 -0.98253 -4.20678 0
M  V30 4805 C 459.657 -0.304982 -5.30324 0
M  V30 4806 C 458.696 -1.32052 -5.97686 0
M  V30 4807 N 457.833 -0.669105 -6.98904 0
M  V30 4808 H 462.673 -1.48444 -2.58396 0
M  V30 4809 H 460.21 -0.742936 -1.2696 0
M  V30 4810 H 462.168 0.439556 -4.14878 0
M  V30 4811 H 460.798 0.893796 -3.10179 0
M  V30 4812 H 459.85 -1.49341 -3.49859 0
M  V30 4813 H 461.162 -1.75455 -4.66923 0
M  V30 4814 H 460.316 0.142893 -6.06532 0
M  V30 4815 H 459.055 0.499283 -4.85138 0
M  V30 4816 H 458.06 -1.7787 -5.20233 0
M  V30 4817 H 459.285 -2.1262 -6.44957 0
M  V30 4818 H 457.231 0.115152 -6.55899 0
M  V30 4819 H 457.148 -1.37908 -7.43315 0
M  V30 4820 H 458.416 -0.245076 -7.79115 0
M  V30 4821 N 462.645 1.35699 -0.801477 0
M  V30 4822 C 463.894 1.98165 -0.375979 0
M  V30 4823 C 464.207 1.64306 1.06127 0
M  V30 4824 O 465.413 2.20097 1.58964 0
M  V30 4825 C 463.869 3.54497 -0.621305 0
M  V30 4826 C 463.477 3.9727 -2.07076 0
M  V30 4827 C 465.221 4.23697 -0.26091 0
M  V30 4828 C 463.128 5.46427 -2.26211 0
M  V30 4829 H 462.058 0.741478 -0.136844 0
M  V30 4830 H 464.709 1.54834 -0.984814 0
M  V30 4831 H 463.091 3.95958 0.0574112 0
M  V30 4832 H 464.265 3.66974 -2.78687 0
M  V30 4833 H 462.58 3.40943 -2.39054 0
M  V30 4834 H 465.177 5.33334 -0.381994 0
M  V30 4835 H 465.52 4.0869 0.792344 0
M  V30 4836 H 466.053 3.87639 -0.893339 0
M  V30 4837 H 462.792 5.66396 -3.29963 0
M  V30 4838 H 462.312 5.78309 -1.59119 0
M  V30 4839 H 463.991 6.12819 -2.07513 0
M  V30 4840 N 464.123 0.554532 1.47522 0
M  V30 4841 C 465.07 -0.19466 2.29978 0
M  V30 4842 C 466.04 -0.910882 1.38896 0
M  V30 4843 O 467.225 -0.907102 1.67858 0
M  V30 4844 C 464.365 -1.22035 3.22802 0
M  V30 4845 C 463.478 -0.510474 4.28973 0
M  V30 4846 C 462.613 -1.52123 5.08952 0
M  V30 4847 C 461.652 -0.796173 6.069 0
M  V30 4848 N 460.789 -1.75363 6.79847 0
M  V30 4849 H 465.629 0.51461 2.93523 0
M  V30 4850 H 463.166 0.265607 1.44682 0
M  V30 4851 H 465.124 -1.8276 3.7504 0
M  V30 4852 H 463.754 -1.89769 2.61127 0
M  V30 4853 H 462.806 0.211234 3.79813 0
M  V30 4854 H 464.118 0.0576503 4.98767 0
M  V30 4855 H 463.272 -2.20207 5.65326 0
M  V30 4856 H 462.011 -2.12327 4.39054 0
M  V30 4857 H 461.016 -0.101388 5.49707 0
M  V30 4858 H 462.241 -0.199911 6.78806 0
M  V30 4859 H 460.187 -2.3443 6.12682 0
M  V30 4860 H 460.104 -1.23759 7.45801 0
M  V30 4861 H 461.372 -2.4257 7.40797 0
M  V30 4862 N 465.601 -1.54893 0.290851 0
M  V30 4863 C 466.511 -2.26812 -0.59945 0
M  V30 4864 C 467.527 -1.29963 -1.15696 0
M  V30 4865 O 468.703 -1.62928 -1.18391 0
M  V30 4866 C 465.768 -2.98716 -1.75982 0
M  V30 4867 C 464.829 -4.1108 -1.2374 0
M  V30 4868 C 464.062 -4.79546 -2.34246 0
M  V30 4869 O 464.285 -4.47309 -3.53936 0
M  V30 4870 O 463.219 -5.67165 -2.01512 0
M  V30 4871 H 467.045 -3.03696 -0.0163561 0
M  V30 4872 H 464.63 -1.49289 0.0576755 0
M  V30 4873 H 466.512 -3.43851 -2.43607 0
M  V30 4874 H 465.187 -2.24737 -2.3297 0
M  V30 4875 H 464.094 -3.70367 -0.527163 0
M  V30 4876 H 465.427 -4.87007 -0.71307 0
M  V30 4877 N 467.08 -0.0183926 -1.57589 0
M  V30 4878 C 468.308 0.673046 -1.95647 0
M  V30 4879 C 468.723 1.66275 -0.894312 0
M  V30 4880 O 468.08 1.82072 0.124975 0
M  V30 4881 C 468.131 1.38884 -3.33756 0
M  V30 4882 O 467.852 0.438806 -4.35897 0
M  V30 4883 C 469.353 2.1731 -3.86383 0
M  V30 4884 H 466.573 0.186292 -0.644621 0
M  V30 4885 H 469.117 -0.0749748 -2.04363 0
M  V30 4886 H 467.272 2.08835 -3.26293 0
M  V30 4887 H 467.686 0.945869 -5.15901 0
M  V30 4888 H 469.16 2.62863 -4.85394 0
M  V30 4889 H 469.637 3.00764 -3.20059 0
M  V30 4890 H 470.243 1.52339 -3.97081 0
M  V30 4891 N 468.558 1.5553 0.254621 0
M  V30 4892 C 469.804 1.77262 0.985193 0
M  V30 4893 C 470.137 0.582286 1.85265 0
M  V30 4894 O 469.412 -0.419666 1.89919 0
M  V30 4895 C 469.695 3.0881 1.85225 0
M  V30 4896 C 469.548 4.38233 1.0135 0
M  V30 4897 C 470.867 3.3653 2.83612 0
M  V30 4898 H 467.986 0.644906 0.356742 0
M  V30 4899 H 470.628 1.88264 0.256236 0
M  V30 4900 H 468.778 2.99562 2.47376 0
M  V30 4901 H 470.45 4.59463 0.411269 0
M  V30 4902 H 468.693 4.32636 0.317574 0
M  V30 4903 H 469.364 5.26644 1.65379 0
M  V30 4904 H 471.84 3.45691 2.31596 0
M  V30 4905 H 470.716 4.29805 3.41407 0
M  V30 4906 H 470.977 2.57064 3.59681 0
M  V30 4907 N 470.036 -0.519951 1.48776 0
M  V30 4908 C 471.285 -1.27175 1.56555 0
M  V30 4909 C 471.598 -1.9401 0.248869 0
M  V30 4910 O 472.804 -2.70725 0.205004 0
M  V30 4911 C 471.26 -2.30811 2.76142 0
M  V30 4912 C 470.868 -1.7 4.14493 0
M  V30 4913 C 472.612 -3.06937 2.9324 0
M  V30 4914 C 470.519 -2.71635 5.25327 0
M  V30 4915 H 469.449 -0.478329 0.582853 0
M  V30 4916 H 472.1 -0.547916 1.75129 0
M  V30 4917 H 470.482 -3.06274 2.51023 0
M  V30 4918 H 471.656 -1.00658 4.49672 0
M  V30 4919 H 469.971 -1.06331 4.02595 0
M  V30 4920 H 472.568 -3.82905 3.73213 0
M  V30 4921 H 472.911 -3.63409 2.03075 0
M  V30 4922 H 473.444 -2.38589 3.18308 0
M  V30 4923 H 470.183 -2.1997 6.1749 0
M  V30 4924 H 469.703 -3.39275 4.94624 0
M  V30 4925 H 471.382 -3.34429 5.53865 0
M  V30 4926 N 471.514 -1.37532 -0.769588 0
M  V30 4927 C 472.462 -1.33561 -1.90432 0
M  V30 4928 C 473.456 -0.224027 -1.67912 0
M  V30 4929 O 474.662 -0.392174 -1.75676 0
M  V30 4930 H 471.037 -0.416279 -0.626271 0
M  V30 4931 H 473.008 -2.29348 -1.90899 0
M  V30 4932 C 471.757 -1.16162 -3.27722 0
M  V30 4933 H 471.08 -2.00951 -3.45628 0
M  V30 4934 H 472.52 -1.17434 -4.07413 0
M  V30 4935 C 470.979 0.132583 -3.36639 0
M  V30 4936 O 471.509 1.11539 -3.85904 0
M  V30 4937 N 469.715 0.184013 -2.90017 0
M  V30 4938 H 469.262 -0.616415 -2.50116 0
M  V30 4939 H 469.22 1.04956 -2.96364 0
M  V30 4940 N 472.992 0.995999 -1.22138 0
M  V30 4941 C 474.24 1.73167 -1.042 0
M  V30 4942 C 474.561 1.90329 0.42423 0
M  V30 4943 O 473.831 1.4607 1.30539 0
M  V30 4944 H 472.411 0.641593 -0.38258 0
M  V30 4945 H 475.073 1.19974 -1.53598 0
M  V30 4946 H 474.169 2.72734 -1.51731 0
M  V30 4947 N 474.47 1.03057 1.19235 0
M  V30 4948 C 475.4 0.633497 2.24742 0
M  V30 4949 C 476.381 -0.358335 1.66283 0
M  V30 4950 O 477.566 -0.240676 1.92703 0
M  V30 4951 C 474.696 -0.0147648 3.47297 0
M  V30 4952 C 473.65 0.899527 4.18441 0
M  V30 4953 C 472.976 0.116281 5.34574 0
M  V30 4954 C 474.276 2.21404 4.73051 0
M  V30 4955 H 475.97 1.5155 2.58211 0
M  V30 4956 H 473.516 0.73014 1.24117 0
M  V30 4957 H 475.469 -0.304202 4.20301 0
M  V30 4958 H 474.193 -0.931577 3.13032 0
M  V30 4959 H 472.852 1.17319 3.47321 0
M  V30 4960 H 472.5 -0.802619 4.96555 0
M  V30 4961 H 472.2 0.725293 5.83107 0
M  V30 4962 H 473.724 -0.166376 6.10373 0
M  V30 4963 H 475.138 1.98601 5.37802 0
M  V30 4964 H 473.535 2.77512 5.32078 0
M  V30 4965 H 474.605 2.86752 3.91026 0
M  V30 4966 N 475.948 -1.35272 0.808662 0
M  V30 4967 C 476.858 -2.33546 0.222079 0
M  V30 4968 C 477.874 -1.6196 -0.636011 0
M  V30 4969 O 479.05 -1.93822 -0.547274 0
M  V30 4970 C 476.115 -3.41148 -0.61795 0
M  V30 4971 C 475.176 -4.28507 0.260875 0
M  V30 4972 C 474.409 -5.3097 -0.539156 0
M  V30 4973 O 474.632 -5.42123 -1.77367 0
M  V30 4974 O 473.566 -6.01858 0.0710526 0
M  V30 4975 H 477.392 -2.85515 1.03512 0
M  V30 4976 H 474.977 -1.38079 0.570495 0
M  V30 4977 H 476.859 -4.06889 -1.09634 0
M  V30 4978 H 475.534 -2.91447 -1.40855 0
M  V30 4979 H 474.441 -3.6574 0.786451 0
M  V30 4980 H 475.774 -4.81611 1.01547 0
M  V30 4981 N 477.426 -0.562348 -1.47226 0
M  V30 4982 C 478.374 0.195476 -2.31777 0
M  V30 4983 C 479.368 0.90433 -1.43242 0
M  V30 4984 O 480.574 0.825031 -1.59979 0
M  V30 4985 H 476.949 0.0819095 -0.747526 0
M  V30 4986 H 478.92 -0.536753 -2.93533 0
M  V30 4987 C 477.669 1.20902 -3.26003 0
M  V30 4988 H 476.992 0.672997 -3.94095 0
M  V30 4989 H 478.432 1.71006 -3.87986 0
M  V30 4990 C 476.891 2.25955 -2.49891 0
M  V30 4991 O 477.421 3.32969 -2.2471 0
M  V30 4992 N 475.627 2.00019 -2.1081 0
M  V30 4993 H 475.174 1.13006 -2.31489 0
M  V30 4994 H 475.132 2.70523 -1.60201 0
M  V30 4995 N 478.904 1.54736 -0.299062 0
M  V30 4996 C 479.837 2.1962 0.619851 0
M  V30 4997 C 480.815 1.16496 1.13434 0
M  V30 4998 O 481.999 1.4513 1.2029 0
M  V30 4999 C 479.126 2.8385 1.84788 0
M  V30 5000 C 478.172 4.00484 1.46679 0
M  V30 5001 S 479.005 5.32926 0.524389 0
M  V30 5002 C 480.161 6.00638 1.76026 0
M  V30 5003 H 480.394 2.97221 0.0686177 0
M  V30 5004 H 477.927 1.54176 -0.0832085 0
M  V30 5005 H 479.885 3.21483 2.55263 0
M  V30 5006 H 478.546 2.06099 2.37028 0
M  V30 5007 H 477.739 4.44201 2.38121 0
M  V30 5008 H 477.341 3.64398 0.842008 0
M  V30 5009 H 479.633 6.21327 2.70109 0
M  V30 5010 H 480.576 6.94805 1.36569 0
M  V30 5011 H 480.984 5.3026 1.93609 0
M  V30 5012 N 480.382 0.0267497 1.57577 0
M  V30 5013 C 481.63 -0.651116 1.91324 0
M  V30 5014 C 481.951 -1.72804 0.90353 0
M  V30 5015 O 481.221 -1.95822 -0.0552946 0
M  V30 5016 H 479.801 -0.243491 0.706202 0
M  V30 5017 H 482.463 0.0739935 1.94759 0
M  V30 5018 H 481.559 -1.10536 2.9187 0
M  V30 5019 N 481.861 -1.55662 -0.24637 0
M  V30 5020 C 482.824 -1.89558 -1.28842 0
M  V30 5021 C 483.824 -0.772082 -1.41052 0
M  V30 5022 O 485.014 -1.04007 -1.39743 0
M  V30 5023 C 482.146 -2.12449 -2.66605 0
M  V30 5024 H 483.339 -2.82735 -1.00004 0
M  V30 5025 H 480.892 -1.48562 -0.485684 0
M  V30 5026 H 481.627 -1.21742 -3.00582 0
M  V30 5027 H 481.412 -2.94273 -2.59125 0
M  V30 5028 H 482.902 -2.39854 -3.41847 0
M  V30 5029 N 483.339 0.512053 -1.4905 0
M  V30 5030 C 484.302 1.59704 -1.64399 0
M  V30 5031 C 485.302 1.52285 -0.516317 0
M  V30 5032 O 486.492 1.55635 -0.782527 0
M  V30 5033 C 483.624 2.9935 -1.63102 0
M  V30 5034 H 484.817 1.47428 -2.61161 0
M  V30 5035 H 482.37 0.735469 -1.37915 0
M  V30 5036 H 483.105 3.17116 -0.678836 0
M  V30 5037 H 482.89 3.06144 -2.44986 0
M  V30 5038 H 484.38 3.782 -1.77072 0
M  V30 5039 N 484.817 1.37938 0.762283 0
M  V30 5040 C 486.064 1.33668 1.52115 0
M  V30 5041 C 486.392 -0.0759538 1.94352 0
M  V30 5042 O 485.647 -1.05121 1.6507 0
M  V30 5043 C 485.946 2.23042 2.79261 0
M  V30 5044 C 485.612 3.71159 2.56031 0
M  V30 5045 C 484.274 4.11523 2.49404 0
M  V30 5046 C 486.626 4.64955 2.35513 0
M  V30 5047 C 483.954 5.43784 2.20263 0
M  V30 5048 C 486.306 5.97464 2.07894 0
M  V30 5049 C 484.97 6.36922 1.99718 0
M  V30 5050 H 484.24 0.489127 0.556629 0
M  V30 5051 H 486.887 1.70224 0.877262 0
M  V30 5052 H 485.192 1.79512 3.48256 0
M  V30 5053 H 486.889 2.17047 3.37182 0
M  V30 5054 H 483.479 3.39153 2.62056 0
M  V30 5055 H 487.663 4.34623 2.39617 0
M  V30 5056 H 482.919 5.73307 2.12435 0
M  V30 5057 H 487.093 6.6969 1.91019 0
M  V30 5058 H 484.72 7.39331 1.76902 0
M  V30 5059 N 486.295 -0.989507 1.22664 0
M  V30 5060 C 487.227 -2.0824 0.957542 0
M  V30 5061 C 488.24 -1.6267 -0.0651098 0
M  V30 5062 O 489.429 -1.77695 0.169312 0
M  V30 5063 C 486.529 -3.36298 0.419145 0
M  V30 5064 C 485.702 -4.10882 1.49982 0
M  V30 5065 C 484.761 -5.17221 0.967904 0
M  V30 5066 O 483.787 -5.44613 1.65487 0
M  V30 5067 N 484.989 -5.80124 -0.20896 0
M  V30 5068 H 487.754 -2.31904 1.89843 0
M  V30 5069 H 485.315 -1.15552 1.13399 0
M  V30 5070 H 487.307 -4.04671 0.0485451 0
M  V30 5071 H 485.877 -3.09671 -0.426937 0
M  V30 5072 H 485.097 -3.37092 2.04359 0
M  V30 5073 H 486.385 -4.57482 2.22682 0
M  V30 5074 H 485.783 -5.60244 -0.783818 0
M  V30 5075 H 484.34 -6.49715 -0.520913 0
M  V30 5076 N 487.773 -1.03688 -1.18687 0
M  V30 5077 C 488.998 -0.757819 -1.93059 0
M  V30 5078 C 489.423 0.678353 -1.75442 0
M  V30 5079 O 488.781 1.46938 -1.06203 0
M  V30 5080 C 488.829 -1.12423 -3.42627 0
M  V30 5081 O 487.933 -0.247505 -4.11657 0
M  V30 5082 H 487.274 -0.279245 -0.602427 0
M  V30 5083 H 489.804 -1.3857 -1.5053 0
M  V30 5084 H 489.814 -1.08454 -3.93322 0
M  V30 5085 H 488.489 -2.17049 -3.54771 0
M  V30 5086 H 487.066 -0.34649 -3.71287 0
M  V30 5087 N 489.251 1.34841 -0.815825 0
M  V30 5088 C 490.184 2.27504 -0.178062 0
M  V30 5089 C 491.162 1.48542 0.661373 0
M  V30 5090 O 492.346 1.77779 0.626653 0
M  V30 5091 C 489.473 3.30246 0.752002 0
M  V30 5092 C 488.519 4.26499 -0.00899172 0
M  V30 5093 S 489.352 5.18169 -1.35134 0
M  V30 5094 C 490.508 6.24449 -0.42596 0
M  V30 5095 H 490.741 2.81248 -0.963684 0
M  V30 5096 H 488.274 1.41781 -0.611355 0
M  V30 5097 H 490.232 3.89933 1.28308 0
M  V30 5098 H 488.893 2.75363 1.51109 0
M  V30 5099 H 488.086 4.99146 0.697766 0
M  V30 5100 H 487.688 3.7103 -0.470396 0
M  V30 5101 H 489.98 6.76404 0.385234 0
M  V30 5102 H 490.923 6.99156 -1.1219 0
M  V30 5103 H 491.331 5.64497 -0.0175461 0
M  V30 5104 N 490.729 0.570148 1.46925 0
M  V30 5105 C 491.662 -0.218362 2.27153 0
M  V30 5106 C 492.64 -0.90847 1.34854 0
M  V30 5107 O 493.824 -0.924875 1.64251 0
M  V30 5108 C 490.951 -1.3122 3.12248 0
M  V30 5109 C 489.997 -0.729277 4.20219 0
M  V30 5110 S 490.83 0.434159 5.33737 0
M  V30 5111 C 491.986 -0.661188 6.22398 0
M  V30 5112 H 492.219 0.462393 2.93682 0
M  V30 5113 H 489.752 0.356753 1.50222 0
M  V30 5114 H 491.71 -1.93856 3.61842 0
M  V30 5115 H 490.371 -1.96485 2.45056 0
M  V30 5116 H 489.564 -1.5511 4.79538 0
M  V30 5117 H 489.166 -0.178836 3.73572 0
M  V30 5118 H 491.458 -1.55006 6.5953 0
M  V30 5119 H 492.401 -0.105046 7.08022 0
M  V30 5120 H 492.809 -0.959682 5.56283 0
M  V30 5121 N 492.207 -1.54576 0.307264 0
M  V30 5122 C 493.435 -2.04675 -0.302597 0
M  V30 5123 C 493.85 -1.18425 -1.47041 0
M  V30 5124 O 493.207 -0.211257 -1.81273 0
M  V30 5125 C 493.258 -3.53575 -0.752801 0
M  V30 5126 O 492.979 -4.36547 0.368536 0
M  V30 5127 C 494.48 -4.19699 -1.42717 0
M  V30 5128 H 491.7 -0.66786 -0.0648374 0
M  V30 5129 H 494.244 -1.99516 0.448716 0
M  V30 5130 H 492.399 -3.59074 -1.45412 0
M  V30 5131 H 492.813 -5.24497 0.0168937 0
M  V30 5132 H 494.287 -5.25388 -1.69327 0
M  V30 5133 H 494.764 -3.69815 -2.36925 0
M  V30 5134 H 495.37 -4.18293 -0.768856 0
M  V30 5135 N 493.685 -0.035106 -1.57561 0
M  V30 5136 C 494.933 0.64096 -1.91667 0
M  V30 5137 C 495.254 1.72323 -0.912681 0
M  V30 5138 O 494.524 1.95849 0.0449089 0
M  V30 5139 H 493.104 0.239743 -0.707483 0
M  V30 5140 H 495.766 -0.084321 -1.94718 0
M  V30 5141 H 494.862 1.08987 -2.92452 0
M  V30 5142 N 495.163 1.55791 0.238111 0
M  V30 5143 C 496.411 1.77681 0.963001 0
M  V30 5144 C 496.732 0.600674 1.85518 0
M  V30 5145 O 496.002 -0.383182 1.92116 0
M  V30 5146 H 494.582 0.655315 0.358568 0
M  V30 5147 H 497.244 1.93239 0.253945 0
M  V30 5148 H 496.34 2.69177 1.57956 0
M  V30 5149 N 496.642 -0.504142 1.49319 0
M  V30 5150 C 497.59 -1.62689 1.66238 0
M  V30 5151 C 498.584 -1.6095 0.528349 0
M  V30 5152 O 499.79 -1.65496 0.707887 0
M  V30 5153 H 496.165 -0.539247 0.524134 0
M  V30 5154 H 498.136 -1.45571 2.60484 0
M  V30 5155 C 496.885 -3.00841 1.74328 0
M  V30 5156 H 496.208 -3.02884 2.60963 0
M  V30 5157 H 497.648 -3.78945 1.90202 0
M  V30 5158 C 496.107 -3.33355 0.487416 0
M  V30 5159 O 496.637 -3.99819 -0.388294 0
M  V30 5160 N 494.843 -2.88469 0.351306 0
M  V30 5161 H 494.39 -2.34557 1.06492 0
M  V30 5162 H 494.348 -3.10591 -0.487899 0
M  V30 5163 N 498.12 -1.38341 -0.754957 0
M  V30 5164 C 499.369 -1.33791 -1.5094 0
M  V30 5165 C 499.682 0.0699267 -1.95475 0
M  V30 5166 O 500.888 0.237956 -2.70455 0
M  V30 5167 C 499.344 -2.34934 -2.72643 0
M  V30 5168 C 498.952 -3.81332 -2.35138 0
M  V30 5169 C 500.696 -2.39425 -3.50536 0
M  V30 5170 C 498.603 -4.74164 -3.53444 0
M  V30 5171 H 497.533 -0.497314 -0.566741 0
M  V30 5172 H 500.184 -1.63888 -0.825403 0
M  V30 5173 H 498.566 -1.97878 -3.43017 0
M  V30 5174 H 499.74 -4.27319 -1.7244 0
M  V30 5175 H 498.055 -3.79946 -1.70382 0
M  V30 5176 H 500.652 -3.0598 -4.38498 0
M  V30 5177 H 500.995 -1.41278 -3.91594 0
M  V30 5178 H 501.528 -2.75274 -2.87174 0
M  V30 5179 H 498.267 -5.73501 -3.17453 0
M  V30 5180 H 497.787 -4.3287 -4.15191 0
M  V30 5181 H 499.466 -4.92111 -4.20043 0
M  V30 5182 N 499.598 0.982988 -1.23187 0
M  V30 5183 C 500.846 1.72052 -1.06031 0
M  V30 5184 C 501.167 1.90769 0.404019 0
M  V30 5185 O 500.437 1.47446 1.28982 0
M  V30 5186 H 499.017 0.637499 -0.389363 0
M  V30 5187 H 501.679 1.18338 -1.54862 0
M  V30 5188 H 500.775 2.7111 -1.54615 0
M  V30 5189 N 501.076 1.04316 1.18135 0
M  V30 5190 C 502.023 0.636398 2.21853 0
M  V30 5191 C 502.993 -0.357039 1.62217 0
M  V30 5192 O 504.178 -0.250453 1.89149 0
M  V30 5193 C 501.318 0.00812779 3.45099 0
M  V30 5194 C 500.431 1.04933 4.19062 0
M  V30 5195 C 499.566 0.389313 5.29771 0
M  V30 5196 C 498.605 1.41544 5.9551 0
M  V30 5197 N 497.742 0.78021 6.97751 0
M  V30 5198 H 502.582 1.52536 2.56002 0
M  V30 5199 H 500.119 0.76304 1.25762 0
M  V30 5200 H 502.077 -0.373497 4.15525 0
M  V30 5201 H 500.707 -0.844336 3.11562 0
M  V30 5202 H 499.759 1.54888 3.47439 0
M  V30 5203 H 501.071 1.82862 4.64072 0
M  V30 5204 H 500.225 -0.0463805 6.06682 0
M  V30 5205 H 498.964 -0.422038 4.8587 0
M  V30 5206 H 497.969 1.86124 5.17337 0
M  V30 5207 H 499.194 2.22854 6.41493 0
M  V30 5208 H 497.14 -0.0107899 6.55999 0
M  V30 5209 H 497.057 1.49716 7.41027 0
M  V30 5210 H 498.325 0.368996 7.78626 0
M  V30 5211 N 502.554 -1.34406 0.822964 0
M  V30 5212 C 503.486 -2.28305 0.202375 0
M  V30 5213 C 504.499 -1.5103 -0.60777 0
M  V30 5214 O 505.688 -1.73057 -0.437444 0
M  V30 5215 C 502.788 -3.30836 -0.734911 0
M  V30 5216 C 501.961 -4.37388 0.0324177 0
M  V30 5217 C 501.02 -5.1968 -0.825803 0
M  V30 5218 O 500.046 -5.68556 -0.270771 0
M  V30 5219 N 501.248 -5.39393 -2.14558 0
M  V30 5220 H 504.013 -2.82201 1.00909 0
M  V30 5221 H 501.574 -1.4693 0.67993 0
M  V30 5222 H 503.566 -3.82786 -1.31365 0
M  V30 5223 H 502.136 -2.77334 -1.44238 0
M  V30 5224 H 501.356 -3.86152 0.792469 0
M  V30 5225 H 502.644 -5.05702 0.560633 0
M  V30 5226 H 502.042 -5.01357 -2.62025 0
M  V30 5227 H 500.599 -5.94461 -2.67318 0
M  V30 5228 N 504.032 -0.577932 -1.46621 0
M  V30 5229 C 505.281 -0.0594281 -2.01612 0
M  V30 5230 C 505.594 1.30663 -1.45556 0
M  V30 5231 O 506.8 1.91621 -1.92337 0
M  V30 5232 C 505.256 -0.0556666 -3.59857 0
M  V30 5233 C 504.864 -1.41975 -4.24908 0
M  V30 5234 C 506.608 0.409143 -4.22524 0
M  V30 5235 C 504.515 -1.37397 -5.75218 0
M  V30 5236 H 503.445 -0.0184469 -0.753774 0
M  V30 5237 H 506.096 -0.728869 -1.68404 0
M  V30 5238 H 504.478 0.679843 -3.90121 0
M  V30 5239 H 505.652 -2.17461 -4.0626 0
M  V30 5240 H 503.967 -1.82419 -3.74316 0
M  V30 5241 H 506.564 0.46211 -5.32699 0
M  V30 5242 H 506.907 1.42565 -3.91128 0
M  V30 5243 H 507.44 -0.272152 -3.96868 0
M  V30 5244 H 504.179 -2.36714 -6.11267 0
M  V30 5245 H 503.699 -0.661239 -5.96144 0
M  V30 5246 H 505.378 -1.08484 -6.3784 0
M  V30 5247 N 505.51 1.54411 -0.315457 0
M  V30 5248 C 506.756 2.00716 0.289972 0
M  V30 5249 C 507.089 1.2034 1.5242 0
M  V30 5250 O 506.364 0.283579 1.92422 0
M  V30 5251 C 506.647 3.54507 0.632196 0
M  V30 5252 C 506.5 4.45615 -0.61218 0
M  V30 5253 C 507.819 4.15421 1.45305 0
M  V30 5254 H 504.938 0.729637 0.10392 0
M  V30 5255 H 507.58 1.8506 -0.430427 0
M  V30 5256 H 505.73 3.67979 1.24595 0
M  V30 5257 H 507.402 4.44026 -1.25053 0
M  V30 5258 H 505.645 4.15621 -1.24264 0
M  V30 5259 H 506.316 5.51022 -0.328379 0
M  V30 5260 H 508.792 4.05474 0.934331 0
M  V30 5261 H 507.668 5.23157 1.66127 0
M  V30 5262 H 507.929 3.68223 2.44671 0
M  V30 5263 N 506.988 0.0434614 1.5754 0
M  V30 5264 C 508.228 -0.636023 1.94253 0
M  V30 5265 C 508.592 -1.68461 0.921132 0
M  V30 5266 O 509.793 -2.41762 1.17494 0
M  V30 5267 C 508.064 -1.22357 3.35803 0
M  V30 5268 S 509.623 -1.92213 3.94461 0
M  V30 5269 H 506.441 -0.209041 0.679575 0
M  V30 5270 H 509.043 0.110556 1.95187 0
M  V30 5271 H 507.747 -0.448162 4.07946 0
M  V30 5272 H 507.278 -2.00713 3.38346 0
M  V30 5273 H 509.293 -3.20199 3.79061 0
M  V30 5274 N 508.466 -1.55915 -0.229846 0
M  V30 5275 C 509.715 -1.77742 -0.953455 0
M  V30 5276 C 510.028 -0.610524 -1.85828 0
M  V30 5277 O 511.234 -0.712219 -2.61992 0
M  V30 5278 C 509.69 -3.14738 -1.74551 0
M  V30 5279 C 509.298 -4.39126 -0.887242 0
M  V30 5280 C 511.042 -3.45895 -2.46084 0
M  V30 5281 C 508.949 -5.67149 -1.67617 0
M  V30 5282 H 507.879 -0.662648 -0.359741 0
M  V30 5283 H 510.53 -1.82322 -0.207576 0
M  V30 5284 H 508.912 -3.04311 -2.53399 0
M  V30 5285 H 510.086 -4.60588 -0.139892 0
M  V30 5286 H 508.401 -4.15427 -0.284443 0
M  V30 5287 H 510.998 -4.38767 -3.05594 0
M  V30 5288 H 511.341 -2.68007 -3.18556 0
M  V30 5289 H 511.874 -3.57614 -1.74233 0
M  V30 5290 H 508.613 -6.47906 -0.994881 0
M  V30 5291 H 508.133 -5.49763 -2.39836 0
M  V30 5292 H 509.812 -6.07025 -2.23898 0
M  V30 5293 N 509.944 0.496216 -1.49584 0
M  V30 5294 C 511.169 1.27865 -1.63295 0
M  V30 5295 C 511.594 1.85592 -0.306156 0
M  V30 5296 O 510.952 1.66092 0.726851 0
M  V30 5297 C 511 2.38128 -2.7079 0
M  V30 5298 O 510.104 3.42108 -2.30296 0
M  V30 5299 H 509.445 0.377279 -0.546403 0
M  V30 5300 H 511.975 0.593497 -1.95803 0
M  V30 5301 H 511.985 2.8382 -2.93104 0
M  V30 5302 H 510.66 1.95479 -3.67098 0
M  V30 5303 H 509.237 3.02301 -2.18331 0
M  V30 5304 N 511.423 1.38739 0.74761 0
M  V30 5305 C 512.333 1.38696 1.89211 0
M  V30 5306 C 513.349 0.283303 1.71678 0
M  V30 5307 O 514.525 0.522713 1.94498 0
M  V30 5308 C 511.59 1.21662 3.24653 0
M  V30 5309 C 510.651 2.41886 3.54669 0
M  V30 5310 C 509.884 2.25655 4.83648 0
M  V30 5311 O 510.107 1.25339 5.56459 0
M  V30 5312 O 509.041 3.14372 5.13277 0
M  V30 5313 H 512.867 2.35143 1.92202 0
M  V30 5314 H 510.452 1.19721 0.893708 0
M  V30 5315 H 512.334 1.14246 4.05618 0
M  V30 5316 H 511.009 0.283024 3.2246 0
M  V30 5317 H 509.916 2.54877 2.73841 0
M  V30 5318 H 511.249 3.33895 3.61628 0
M  V30 5319 N 512.901 -0.976442 1.23707 0
M  V30 5320 C 513.811 -2.10359 1.03856 0
M  V30 5321 C 514.827 -1.73991 -0.0180919 0
M  V30 5322 O 516.003 -2.0061 0.178211 0
M  V30 5323 C 513.068 -3.40809 0.636387 0
M  V30 5324 C 512.129 -3.91179 1.76854 0
M  V30 5325 C 511.362 -5.15404 1.38546 0
M  V30 5326 O 511.585 -5.69754 0.27142 0
M  V30 5327 O 510.519 -5.5994 2.20797 0
M  V30 5328 H 514.345 -2.29997 1.98331 0
M  V30 5329 H 511.93 -1.08742 1.02448 0
M  V30 5330 H 513.812 -4.19269 0.423223 0
M  V30 5331 H 512.487 -3.22493 -0.279322 0
M  V30 5332 H 511.394 -3.13819 2.03638 0
M  V30 5333 H 512.727 -4.13958 2.6627 0
M  V30 5334 N 514.379 -1.04941 -1.1758 0
M  V30 5335 C 515.628 -0.753124 -1.87112 0
M  V30 5336 C 515.941 0.722507 -1.81767 0
M  V30 5337 O 517.147 1.13265 -2.46746 0
M  V30 5338 C 515.603 -1.29695 -3.35719 0
M  V30 5339 C 515.211 -2.80184 -3.49572 0
M  V30 5340 C 516.955 -1.07759 -4.10595 0
M  V30 5341 C 514.862 -3.2788 -4.92187 0
M  V30 5342 H 513.792 -0.278034 -0.700866 0
M  V30 5343 H 516.443 -1.26637 -1.32798 0
M  V30 5344 H 514.825 -0.711522 -3.89555 0
M  V30 5345 H 515.999 -3.44561 -3.05965 0
M  V30 5346 H 514.314 -3.00632 -2.88113 0
M  V30 5347 H 516.911 -1.40899 -5.15802 0
M  V30 5348 H 517.254 -0.0152302 -4.16297 0
M  V30 5349 H 517.787 -1.62809 -3.62957 0
M  V30 5350 H 514.526 -4.33535 -4.91658 0
M  V30 5351 H 514.046 -2.68245 -5.36475 0
M  V30 5352 H 515.725 -3.22412 -5.60945 0
M  V30 5353 N 515.857 1.33968 -0.830081 0
M  V30 5354 C 517.082 2.02813 -0.433796 0
M  V30 5355 C 517.507 1.62076 0.954614 0
M  V30 5356 O 516.865 0.808955 1.62252 0
M  V30 5357 C 516.913 3.56348 -0.552115 0
M  V30 5358 O 516.017 4.10202 0.425191 0
M  V30 5359 H 515.358 0.639817 -0.177567 0
M  V30 5360 H 517.888 1.7106 -1.12248 0
M  V30 5361 H 517.898 4.05722 -0.430513 0
M  V30 5362 H 516.573 3.85344 -1.56471 0
M  V30 5363 H 515.15 3.71979 0.261878 0
M  V30 5364 N 517.335 0.585699 1.46312 0
M  V30 5365 C 518.265 -0.133556 2.33118 0
M  V30 5366 C 519.246 -0.880707 1.45525 0
M  V30 5367 O 520.431 -0.855579 1.74337 0
M  V30 5368 C 517.561 -1.14585 3.27853 0
M  V30 5369 C 516.515 -0.513341 4.2491 0
M  V30 5370 C 515.841 -1.63231 5.09175 0
M  V30 5371 C 517.141 0.551413 5.19381 0
M  V30 5372 H 518.835 0.59121 2.93505 0
M  V30 5373 H 516.381 0.285761 1.41136 0
M  V30 5374 H 518.334 -1.65741 3.87438 0
M  V30 5375 H 517.058 -1.90093 2.65579 0
M  V30 5376 H 515.717 -0.0228349 3.66593 0
M  V30 5377 H 515.365 -2.37713 4.43285 0
M  V30 5378 H 515.065 -1.21473 5.74907 0
M  V30 5379 H 516.589 -2.14658 5.71624 0
M  V30 5380 H 518.003 0.124804 5.73164 0
M  V30 5381 H 516.4 0.889486 5.93471 0
M  V30 5382 H 517.47 1.43655 4.63132 0
M  V30 5383 O 518.852 -1.54637 0.465785 0
M  V30 5384 H 519.543 -1.93604 -0.0608748 0
M  V30 END ATOM
M  V30 BEGIN BOND
M  V30 END BOND
M  V30 END CTAB
M  END
$$$$
