drugbank_target|Q8N8Y2 V-type proton ATPase subunit d 2 (DB01133)
 OpenBabel12092121233D

  0  0  0     0  0            999 V3000
M  V30 BEGIN CTAB
M  V30 COUNTS 5645 5706 0 0 0
M  V30 BEGIN ATOM
M  V30 1 H -0.908 1.98254 -0.117106 0
M  V30 2 N 0 1.576 0 0
M  V30 3 C 0.933 2.03868 1.02534 0
M  V30 4 C 1.911 0.928543 1.3348 0
M  V30 5 O 3.095 1.19667 1.45644 0
M  V30 6 C 0.222 2.43627 2.35294 0
M  V30 7 C -0.732 3.65373 2.2001 0
M  V30 8 S 0.101 5.13292 1.52614 0
M  V30 9 C 1.257 5.56322 2.86805 0
M  V30 10 H 1.49 2.90518 0.631377 0
M  V30 11 H -0.977 1.52953 0.210867 0
M  V30 12 H 0.981 2.67203 3.11629 0
M  V30 13 H -0.358 1.57376 2.7183 0
M  V30 14 H -1.165 3.90944 3.18086 0
M  V30 15 H -1.563 3.418 1.51819 0
M  V30 16 H 0.729 5.58782 3.83104 0
M  V30 17 H 1.672 6.56266 2.65933 0
M  V30 18 H 2.08 4.83886 2.90714 0
M  V30 19 N 1.4781 -0.272755 1.55222 0
M  V30 20 C 2.4081 -1.34136 1.91127 0
M  V30 21 C 3.3891 -1.51513 0.773168 0
M  V30 22 O 4.5741 -1.64552 1.03132 0
M  V30 23 C 1.7041 -2.70083 2.1834 0
M  V30 24 C 0.6581 -2.67437 3.34158 0
M  V30 25 C -0.0159 -4.06938 3.46851 0
M  V30 26 C 1.2841 -2.26686 4.70543 0
M  V30 27 H 2.9781 -1.04333 2.80633 0
M  V30 28 H 0.5241 -0.500454 1.35024 0
M  V30 29 H 2.4771 -3.44952 2.42046 0
M  V30 30 H 1.2011 -3.01469 1.25634 0
M  V30 31 H -0.1399 -1.95026 3.1042 0
M  V30 32 H -0.4919 -4.35547 2.51611 0
M  V30 33 H -0.7919 -4.06062 4.2472 0
M  V30 34 H 0.7321 -4.83545 3.72849 0
M  V30 35 H 2.1461 -2.91277 4.93792 0
M  V30 36 H 0.5431 -2.36971 5.5133 0
M  V30 37 H 1.6131 -1.21818 4.69349 0
M  V30 38 N 2.9562 -1.48159 -0.537278 0
M  V30 39 C 3.8662 -1.64807 -1.6696 0
M  V30 40 C 4.8822 -0.530651 -1.65711 0
M  V30 41 O 6.0582 -0.800784 -1.84796 0
M  V30 42 C 3.1232 -1.67708 -3.03438 0
M  V30 43 C 2.1842 -2.91025 -3.156 0
M  V30 44 C 1.4172 -2.93778 -4.45567 0
M  V30 45 O 1.6402 -2.05153 -5.3223 0
M  V30 46 O 0.5742 -3.85868 -4.61941 0
M  V30 47 H 4.4002 -2.6066 -1.55853 0
M  V30 48 H 1.9852 -1.31475 -0.709549 0
M  V30 49 H 3.8672 -1.7218 -3.84619 0
M  V30 50 H 2.5422 -0.750278 -3.14885 0
M  V30 51 H 1.4492 -2.92089 -2.33741 0
M  V30 52 H 2.7822 -3.83065 -3.09066 0
M  V30 53 N 4.4343 0.785586 -1.36625 0
M  V30 54 C 5.6823 1.54057 -1.30808 0
M  V30 55 C 6.0033 1.94683 0.111157 0
M  V30 56 O 5.2733 1.65241 1.05224 0
M  V30 57 H 3.8533 0.571354 -0.481211 0
M  V30 58 H 6.5153 0.935821 -1.70963 0
M  V30 59 H 5.6113 2.44637 -1.93801 0
M  V30 60 N 5.9124 1.20967 1.01018 0
M  V30 61 C 6.8754 0.965918 2.07853 0
M  V30 62 C 7.8754 -0.0610545 1.60684 0
M  V30 63 O 9.0654 0.175681 1.73312 0
M  V30 64 C 6.1974 0.455513 3.37843 0
M  V30 65 H 7.3904 1.91365 2.3091 0
M  V30 66 H 4.9434 1.02594 1.17916 0
M  V30 67 H 5.6784 -0.497381 3.20463 0
M  V30 68 H 5.4634 1.19622 3.73407 0
M  V30 69 H 6.9534 0.304667 4.16487 0
M  V30 70 N 7.3905 -1.2043 1.01659 0
M  V30 71 C 8.3005 -2.2689 0.596484 0
M  V30 72 C 9.3165 -1.70107 -0.36599 0
M  V30 73 O 10.4925 -2.00117 -0.226942 0
M  V30 74 C 7.5575 -3.4665 -0.0586659 0
M  V30 75 C 6.6185 -4.18662 0.949751 0
M  V30 76 C 5.8515 -5.32705 0.32577 0
M  V30 77 O 6.0745 -5.63656 -0.874509 0
M  V30 78 O 5.0085 -5.92803 1.04249 0
M  V30 79 H 8.8345 -2.65041 1.4828 0
M  V30 80 H 6.4195 -1.27048 0.786082 0
M  V30 81 H 8.3015 -4.19256 -0.424564 0
M  V30 82 H 6.9765 -3.10375 -0.91918 0
M  V30 83 H 5.8835 -3.48229 1.36702 0
M  V30 84 H 7.2165 -4.58878 1.78023 0
M  V30 85 N 8.8686 -0.792821 -1.36206 0
M  V30 86 C 9.7986 -0.207853 -2.32573 0
M  V30 87 C 10.7796 0.659055 -1.56813 0
M  V30 88 O 11.9646 0.592176 -1.84951 0
M  V30 89 C 9.0946 0.655449 -3.41059 0
M  V30 90 C 8.0486 -0.111842 -4.27854 0
M  V30 91 C 7.3746 0.872274 -5.27537 0
M  V30 92 C 8.6746 -1.30299 -5.05786 0
M  V30 93 H 10.3686 -1.01294 -2.81744 0
M  V30 94 H 7.9146 -0.48854 -1.3546 0
M  V30 95 H 9.8676 1.07464 -4.07467 0
M  V30 96 H 8.5916 1.49328 -2.90463 0
M  V30 97 H 7.2506 -0.512053 -3.63006 0
M  V30 98 H 6.8986 1.70523 -4.73214 0
M  V30 99 H 6.5986 0.363291 -5.86476 0
M  V30 100 H 8.1226 1.28996 -5.96818 0
M  V30 101 H 9.5366 -0.959379 -5.65216 0
M  V30 102 H 7.9336 -1.7455 -5.74154 0
M  V30 103 H 9.0036 -2.09663 -4.37229 0
M  V30 104 N 10.3467 1.47872 -0.545128 0
M  V30 105 C 11.5767 2.06589 -0.0210534 0
M  V30 106 C 11.9847 1.39997 1.27269 0
M  V30 107 O 11.3277 0.486421 1.77143 0
M  V30 108 C 11.3897 3.58574 0.257933 0
M  V30 109 C 11.0537 4.47132 -0.944573 0
M  V30 110 C 12.0507 4.85986 -1.84699 0
M  V30 111 C 9.7357 4.88821 -1.15584 0
M  V30 112 C 11.7297 5.65314 -2.94446 0
M  V30 113 C 9.4167 5.67916 -2.25642 0
M  V30 114 C 10.4147 6.06073 -3.14905 0
M  V30 115 O 10.1027 6.83578 -4.23057 0
M  V30 116 H 9.8347 0.674971 -0.0372899 0
M  V30 117 H 12.3887 1.91037 -0.754599 0
M  V30 118 H 10.6187 3.72295 1.04564 0
M  V30 119 H 12.3077 3.99356 0.72592 0
M  V30 120 H 13.0737 4.54388 -1.69577 0
M  V30 121 H 8.9527 4.58595 -0.470279 0
M  V30 122 H 12.4967 5.95016 -3.64145 0
M  V30 123 H 8.3937 5.98927 -2.40742 0
M  V30 124 H 9.1617 7.01954 -4.20954 0
M  V30 125 N 11.8248 0.280983 1.55075 0
M  V30 126 C 13.0718 -0.334115 1.99725 0
M  V30 127 C 13.3998 -1.5542 1.1694 0
M  V30 128 O 12.6548 -1.94361 0.228531 0
M  V30 129 C 12.9538 -0.754656 3.49342 0
M  V30 130 C 12.6198 0.361445 4.49449 0
M  V30 131 C 11.2818 0.667893 4.76542 0
M  V30 132 C 13.6338 1.11322 5.09173 0
M  V30 133 C 10.9618 1.7296 5.60626 0
M  V30 134 C 13.3138 2.1647 5.9441 0
M  V30 135 C 11.9778 2.47742 6.19822 0
M  V30 136 H 11.2478 -0.122261 0.730844 0
M  V30 137 H 13.8948 0.395917 1.87363 0
M  V30 138 H 12.1998 -1.56446 3.5921 0
M  V30 139 H 13.8968 -1.24142 3.813 0
M  V30 140 H 10.4868 0.112481 4.28452 0
M  V30 141 H 14.6708 0.88973 4.8826 0
M  V30 142 H 9.9268 1.97684 5.78559 0
M  V30 143 H 14.1008 2.75193 6.3972 0
M  V30 144 H 11.7278 3.30145 6.84769 0
M  V30 145 N 13.3029 -1.57598 0.00835791 0
M  V30 146 C 14.2509 -2.10078 -0.998508 0
M  V30 147 C 15.2449 -1.02262 -1.35051 0
M  V30 148 O 16.4509 -1.20719 -1.33518 0
M  V30 149 H 12.8259 -0.670903 -0.339696 0
M  V30 150 H 14.7969 -2.93648 -0.530398 0
M  V30 151 C 13.5459 -2.62615 -2.27879 0
M  V30 152 H 12.8689 -3.45213 -2.01662 0
M  V30 153 H 14.3089 -3.03004 -2.96588 0
M  V30 154 C 12.7679 -1.54407 -2.99433 0
M  V30 155 O 13.2979 -0.931812 -3.90743 0
M  V30 156 N 11.5039 -1.2695 -2.61404 0
M  V30 157 H 11.0509 -1.76924 -1.87232 0
M  V30 158 H 11.0089 -0.547704 -3.09593 0
M  V30 159 N 14.781 0.264519 -1.55364 0
M  V30 160 C 16.027 0.99646 -1.76631 0
M  V30 161 C 16.36 1.85632 -0.570478 0
M  V30 162 O 15.635 1.89647 0.43175 0
M  V30 163 C 15.918 1.87187 -3.07625 0
M  V30 164 C 15.771 1.04138 -4.37579 0
M  V30 165 C 17.09 2.85749 -3.34717 0
M  V30 166 H 14.209 0.360841 -0.642622 0
M  V30 167 H 16.851 0.268218 -1.88097 0
M  V30 168 H 15.001 2.49279 -2.9798 0
M  V30 169 H 16.673 0.440517 -4.59192 0
M  V30 170 H 14.916 0.345115 -4.32425 0
M  V30 171 H 15.587 1.68729 -5.2558 0
M  V30 172 H 18.063 2.33793 -3.4421 0
M  V30 173 H 16.939 3.44136 -4.27623 0
M  V30 174 H 17.2 3.61311 -2.54768 0
M  V30 175 N 16.2591 1.48442 0.529413 0
M  V30 176 C 17.5361 1.46978 1.29062 0
M  V30 177 C 17.9161 0.181769 2.10316 0
M  V30 178 O 17.2641 -0.836481 2.12639 0
M  V30 179 C 17.4741 2.7321 2.17157 0
M  V30 180 C 18.8221 3.21562 2.77278 0
M  V30 181 O 19.8461 2.74131 2.27444 0
M  V30 182 O 18.7051 4.04094 3.67927 0
M  V30 183 H 15.7991 0.587003 0.582543 0
M  V30 184 H 18.3451 1.60676 0.546021 0
M  V30 185 H 17.1171 3.58465 1.56903 0
M  V30 186 H 16.7401 2.62235 2.98862 0
M  V30 187 N 17.7372 -0.778329 1.37039 0
M  V30 188 C 18.6872 -1.88142 1.28789 0
M  V30 189 C 19.6712 -1.59923 0.177063 0
M  V30 190 O 20.8632 -1.72165 0.410873 0
M  V30 191 C 17.9922 -3.25518 1.09055 0
M  V30 192 C 17.0782 -3.5971 2.24654 0
M  V30 193 N 17.4692 -3.65131 3.50018 0
M  V30 194 C 15.7672 -3.89837 2.16663 0
M  V30 195 C 16.4682 -3.95882 4.26207 0
M  V30 196 N 15.4442 -4.11441 3.55271 0
M  V30 197 H 19.2462 -1.90575 2.23737 0
M  V30 198 H 16.7602 -0.974435 1.29917 0
M  V30 199 H 18.7572 -4.04423 1.0123 0
M  V30 200 H 17.4172 -3.24353 0.15018 0
M  V30 201 H 18.4282 -3.475 3.84011 0
M  V30 202 H 15.1052 -3.96533 1.30645 0
M  V30 203 H 16.4952 -4.06907 5.34674 0
M  V30 204 N 19.2153 -1.21501 -1.00376 0
M  V30 205 C 20.4633 -1.03095 -1.73827 0
M  V30 206 C 20.7843 0.436341 -1.90055 0
M  V30 207 O 20.0543 1.31466 -1.45236 0
M  V30 208 H 18.6343 -0.378487 -0.644016 0
M  V30 209 H 21.2963 -1.52831 -1.20949 0
M  V30 210 H 20.3923 -1.49991 -2.73695 0
M  V30 211 N 20.6934 1.19889 -1.02296 0
M  V30 212 C 21.9234 1.93109 -0.734332 0
M  V30 213 C 22.3314 1.75377 0.709889 0
M  V30 214 O 21.6744 1.06912 1.49384 0
M  V30 215 C 21.7364 3.45362 -0.99827 0
M  V30 216 C 21.4004 3.8686 -2.43287 0
M  V30 217 C 22.3974 3.92102 -3.41397 0
M  V30 218 C 20.0824 4.18668 -2.77529 0
M  V30 219 C 22.0764 4.28573 -4.71809 0
M  V30 220 C 19.7634 4.54813 -4.08153 0
M  V30 221 C 20.7614 4.59739 -5.05103 0
M  V30 222 O 20.4494 4.95051 -6.33388 0
M  V30 223 H 20.1814 0.620409 -0.268456 0
M  V30 224 H 22.7354 1.53144 -1.3688 0
M  V30 225 H 20.9654 3.85482 -0.306645 0
M  V30 226 H 22.6544 3.99814 -0.700234 0
M  V30 227 H 23.4204 3.67685 -3.1628 0
M  V30 228 H 19.2994 4.14021 -2.0275 0
M  V30 229 H 22.8434 4.32333 -5.4748 0
M  V30 230 H 18.7404 4.78687 -4.33047 0
M  V30 231 H 19.5084 5.1302 -6.37772 0
M  V30 232 N 22.1715 0.800033 1.35784 0
M  V30 233 C 23.1015 0.220184 2.3246 0
M  V30 234 C 24.0825 -0.65073 1.57161 0
M  V30 235 O 25.2675 -0.582359 1.85263 0
M  V30 236 C 22.3975 -0.637353 3.41402 0
M  V30 237 C 21.3515 0.134531 4.27789 0
M  V30 238 C 20.6775 -0.844285 5.27992 0
M  V30 239 C 21.9775 1.32979 5.05088 0
M  V30 240 H 23.6715 1.02787 2.81203 0
M  V30 241 H 21.2175 0.495717 1.35199 0
M  V30 242 H 23.1705 -1.05302 4.08031 0
M  V30 243 H 21.8945 -1.47785 2.91251 0
M  V30 244 H 20.5535 0.531296 3.6273 0
M  V30 245 H 20.2015 -1.68011 4.74111 0
M  V30 246 H 19.9015 -0.332184 5.8666 0
M  V30 247 H 21.4255 -1.2583 5.97494 0
M  V30 248 H 22.8395 0.98934 5.64699 0
M  V30 249 H 21.2365 1.77593 5.7322 0
M  V30 250 H 22.3065 2.11978 4.36111 0
M  V30 251 N 23.6496 -1.47581 0.552962 0
M  V30 252 C 24.5596 -2.33743 -0.200353 0
M  V30 253 C 25.5756 -1.47928 -0.916151 0
M  V30 254 O 26.7516 -1.80865 -0.885993 0
M  V30 255 C 23.8166 -3.24536 -1.21973 0
M  V30 256 C 22.8776 -4.26238 -0.511819 0
M  V30 257 C 22.1106 -5.12693 -1.48263 0
M  V30 258 O 22.3336 -5.01525 -2.71714 0
M  V30 259 O 21.2676 -5.93375 -1.00945 0
M  V30 260 H 25.0936 -2.9945 0.506304 0
M  V30 261 H 22.6786 -1.46071 0.313622 0
M  V30 262 H 24.5606 -3.80631 -1.80827 0
M  V30 263 H 23.2356 -2.61462 -1.90839 0
M  V30 264 H 22.1426 -3.73914 0.117799 0
M  V30 265 H 23.4756 -4.92014 0.135308 0
M  V30 266 N 25.1277 -0.289203 -1.54924 0
M  V30 267 C 26.3757 0.322879 -1.99504 0
M  V30 268 C 26.6967 1.55313 -1.1791 0
M  V30 269 O 25.9667 1.94001 -0.272097 0
M  V30 270 H 24.5467 0.122291 -0.736922 0
M  V30 271 H 27.2087 -0.397802 -1.90797 0
M  V30 272 H 26.3047 0.603061 -3.06218 0
M  V30 273 N 26.6058 1.57591 -0.0167156 0
M  V30 274 C 27.5358 2.12496 0.967858 0
M  V30 275 C 28.5168 1.03807 1.34752 0
M  V30 276 O 29.7018 1.31577 1.42833 0
M  V30 277 C 26.8318 2.64194 2.25431 0
M  V30 278 C 25.7858 3.77559 2.01576 0
M  V30 279 C 25.1118 4.15636 3.36379 0
M  V30 280 C 26.4118 5.04151 1.36489 0
M  V30 281 H 28.1058 2.95013 0.510643 0
M  V30 282 H 25.6518 1.41915 0.244181 0
M  V30 283 H 27.6048 3.01236 2.94678 0
M  V30 284 H 26.3288 1.78821 2.73296 0
M  V30 285 H 24.9878 3.40937 1.34751 0
M  V30 286 H 24.6358 3.27263 3.81979 0
M  V30 287 H 24.3358 4.92022 3.21229 0
M  V30 288 H 25.8598 4.5525 4.06915 0
M  V30 289 H 27.2738 5.38857 1.95718 0
M  V30 290 H 25.6708 5.85453 1.31776 0
M  V30 291 H 26.7408 4.83733 0.336219 0
M  V30 292 N 28.0839 -0.256276 1.55502 0
M  V30 293 C 29.3299 -0.987079 1.77157 0
M  V30 294 C 29.6629 -1.85327 0.580315 0
M  V30 295 O 28.9379 -1.89874 -0.421686 0
M  V30 296 C 29.2209 -1.85553 3.08613 0
M  V30 297 C 29.0739 -1.01816 4.38125 0
M  V30 298 C 30.3929 -2.8397 3.36228 0
M  V30 299 H 27.5119 -0.357428 0.644526 0
M  V30 300 H 30.1539 -0.258239 1.88237 0
M  V30 301 H 28.3039 -2.47695 2.99298 0
M  V30 302 H 29.9759 -0.416159 4.59419 0
M  V30 303 H 28.2189 -0.322178 4.32602 0
M  V30 304 H 28.8899 -1.65939 5.26468 0
M  V30 305 H 31.3659 -2.31964 3.45445 0
M  V30 306 H 30.2419 -3.41864 4.29442 0
M  V30 307 H 30.5029 -3.59955 2.56681 0
M  V30 308 N 29.562 -1.4872 -0.521534 0
M  V30 309 C 30.978 -1.35028 -0.850855 0
M  V30 310 C 31.178 -0.367712 -1.98116 0
M  V30 311 O 30.234 0.208037 -2.51642 0
M  V30 312 C 31.547 -2.75263 -1.21041 0
M  V30 313 C 33.095 -2.83813 -1.31981 0
M  V30 314 C 33.57 -4.24769 -1.71276 0
M  V30 315 N 35.061 -4.27482 -1.78363 0
M  V30 316 C 35.796 -5.33494 -2.1017 0
M  V30 317 N 35.292 -6.49775 -2.40343 0
M  V30 318 N 37.085 -5.20894 -2.11248 0
M  V30 319 H 29.236 -2.11214 0.22413 0
M  V30 320 H 31.499 -0.947252 0.0376439 0
M  V30 321 H 31.205 -3.48765 -0.453415 0
M  V30 322 H 31.079 -3.09327 -2.15863 0
M  V30 323 H 33.466 -2.10561 -2.06756 0
M  V30 324 H 33.547 -2.53358 -0.352596 0
M  V30 325 H 33.191 -4.9854 -0.970588 0
M  V30 326 H 33.121 -4.52673 -2.69062 0
M  V30 327 H 35.612 -3.43611 -1.57288 0
M  V30 328 H 35.925 -7.26402 -2.63743 0
M  V30 329 H 34.27 -6.53035 -2.37844 0
M  V30 330 H 37.461 -4.29065 -1.87139 0
M  V30 331 H 37.634 -6.03612 -2.35704 0
M  V30 332 N 31.0401 0.771051 -1.3745 0
M  V30 333 C 32.2881 1.52661 -1.32435 0
M  V30 334 C 32.6091 1.9479 0.0905024 0
M  V30 335 O 31.8791 1.66348 1.03466 0
M  V30 336 H 30.4591 0.566218 -0.487244 0
M  V30 337 H 33.1211 0.917636 -1.71946 0
M  V30 338 H 32.2171 2.42568 -1.96385 0
M  V30 339 N 32.5182 1.22032 0.997298 0
M  V30 340 C 33.7582 1.05375 1.75144 0
M  V30 341 C 34.1222 -0.404696 1.87686 0
M  V30 342 O 35.3232 -0.691998 2.5974 0
M  V30 343 C 33.5942 1.74046 3.12158 0
M  V30 344 S 35.1532 1.72745 4.03366 0
M  V30 345 H 31.9712 0.377449 0.602539 0
M  V30 346 H 34.5732 1.54902 1.19272 0
M  V30 347 H 33.2772 2.79332 3.00669 0
M  V30 348 H 32.8082 1.24731 3.73103 0
M  V30 349 H 34.8232 0.774015 4.90126 0
M  V30 350 N 33.9963 -1.19345 1.0293 0
M  V30 351 C 34.9433 -2.2258 0.610464 0
M  V30 352 C 35.9133 -1.6179 -0.375946 0
M  V30 353 O 37.0983 -1.88844 -0.272511 0
M  V30 354 C 34.2383 -3.45085 -0.0321473 0
M  V30 355 C 33.3513 -4.20258 1.00035 0
M  V30 356 C 32.4863 -5.3019 0.32746 0
M  V30 357 C 31.5253 -5.97121 1.34584 0
M  V30 358 N 30.6623 -6.98615 0.698726 0
M  V30 359 H 35.5023 -2.57764 1.49538 0
M  V30 360 H 33.0393 -1.26644 0.748311 0
M  V30 361 H 34.9973 -4.15061 -0.421966 0
M  V30 362 H 33.6273 -3.10555 -0.88064 0
M  V30 363 H 32.6793 -3.49223 1.50823 0
M  V30 364 H 33.9913 -4.66175 1.77433 0
M  V30 365 H 33.1453 -6.06587 -0.11718 0
M  V30 366 H 31.8843 -4.85345 -0.478713 0
M  V30 367 H 30.8893 -5.19474 1.80074 0
M  V30 368 H 32.1143 -6.4405 2.15352 0
M  V30 369 H 30.0603 -6.55942 -0.0873471 0
M  V30 370 H 29.9773 -7.42724 1.41058 0
M  V30 371 H 31.2453 -7.79004 0.278102 0
M  V30 372 N 35.4744 -0.807222 -1.35358 0
M  V30 373 C 36.4374 -0.223665 -2.28106 0
M  V30 374 C 37.4374 0.589354 -1.4961 0
M  V30 375 O 38.6274 0.407745 -1.69361 0
M  V30 376 C 35.7594 0.688149 -3.33882 0
M  V30 377 H 36.9524 -1.04169 -2.81227 0
M  V30 378 H 34.5054 -0.577921 -1.45223 0
M  V30 379 H 35.2404 1.52984 -2.85948 0
M  V30 380 H 35.0254 0.10687 -3.91954 0
M  V30 381 H 36.5154 1.09075 -4.03104 0
M  V30 382 N 36.9525 1.47285 -0.560781 0
M  V30 383 C 38.1775 2.07359 -0.0410566 0
M  V30 384 C 38.6025 1.41017 1.24483 0
M  V30 385 O 37.9605 0.486368 1.74654 0
M  V30 386 C 38.0085 3.6035 0.134123 0
M  V30 387 O 37.1125 3.94681 1.19587 0
M  V30 388 H 36.4535 0.661887 -0.0529291 0
M  V30 389 H 38.9835 1.89252 -0.777482 0
M  V30 390 H 38.9935 4.0652 0.347207 0
M  V30 391 H 37.6685 4.08034 -0.805047 0
M  V30 392 H 36.2455 3.60251 0.962987 0
M  V30 393 N 38.4306 0.297415 1.54768 0
M  V30 394 C 39.3606 -0.573494 2.26348 0
M  V30 395 C 40.3416 -1.14085 1.26169 0
M  V30 396 O 41.5266 -1.17086 1.54934 0
M  V30 397 C 38.6566 -1.74716 3.00153 0
M  V30 398 C 37.6106 -1.31032 4.07449 0
M  V30 399 C 36.9366 -2.56887 4.68949 0
M  V30 400 C 38.2366 -0.444183 5.20408 0
M  V30 401 H 39.9306 0.0235131 2.99391 0
M  V30 402 H 37.4766 0.0127488 1.43994 0
M  V30 403 H 39.4296 -2.3625 3.48947 0
M  V30 404 H 38.1536 -2.37035 2.24682 0
M  V30 405 H 36.8126 -0.718066 3.59499 0
M  V30 406 H 36.4606 -3.17512 3.90122 0
M  V30 407 H 36.1606 -2.2836 5.41411 0
M  V30 408 H 37.6846 -3.19229 5.20505 0
M  V30 409 H 39.0986 -0.9651 5.65118 0
M  V30 410 H 37.4956 -0.252846 5.99567 0
M  V30 411 H 38.5656 0.531609 4.81977 0
M  V30 412 N 39.9087 -1.5758 0.0250728 0
M  V30 413 C 40.8387 -2.13007 -0.956575 0
M  V30 414 C 41.8197 -1.0452 -1.342 0
M  V30 415 O 43.0047 -1.32332 -1.42133 0
M  V30 416 C 40.1347 -2.65386 -2.24026 0
M  V30 417 C 39.0887 -3.78623 -1.99571 0
M  V30 418 C 38.4147 -4.17414 -3.3417 0
M  V30 419 C 39.7147 -5.04867 -1.33814 0
M  V30 420 H 41.4087 -2.9528 -0.494991 0
M  V30 421 H 38.9547 -1.42042 -0.236651 0
M  V30 422 H 40.9077 -3.02794 -2.93076 0
M  V30 423 H 39.6317 -1.80268 -2.72343 0
M  V30 424 H 38.2907 -3.41646 -1.32941 0
M  V30 425 H 37.9387 -3.29284 -3.80238 0
M  V30 426 H 37.6387 -4.93719 -3.18615 0
M  V30 427 H 39.1627 -4.57402 -4.04495 0
M  V30 428 H 40.5767 -5.39888 -1.92857 0
M  V30 429 H 38.9737 -5.86144 -1.28669 0
M  V30 430 H 40.0437 -4.83904 -0.310561 0
M  V30 431 N 41.3868 0.248026 -1.55636 0
M  V30 432 C 42.6148 0.993808 -1.81469 0
M  V30 433 C 43.0298 1.78991 -0.60064 0
M  V30 434 O 42.3868 1.77345 0.430682 0
M  V30 435 C 42.4378 1.93258 -3.05506 0
M  V30 436 O 42.1588 1.16869 -4.22224 0
M  V30 437 C 43.6598 2.79444 -3.4413 0
M  V30 438 H 40.8798 0.292486 -0.603898 0
M  V30 439 H 43.4238 0.271253 -2.02693 0
M  V30 440 H 41.5788 2.60943 -2.86335 0
M  V30 441 H 41.9928 1.80359 -4.92515 0
M  V30 442 H 43.4668 3.41066 -4.34026 0
M  V30 443 H 43.9438 3.50499 -2.64665 0
M  V30 444 H 44.5498 2.17214 -3.65648 0
M  V30 445 N 42.8649 1.48995 0.513639 0
M  V30 446 C 43.7969 1.60836 1.63293 0
M  V30 447 C 44.8099 0.491701 1.55197 0
M  V30 448 O 45.9989 0.763238 1.6136 0
M  V30 449 C 43.0989 1.53731 3.02027 0
M  V30 450 C 42.2719 2.80715 3.35437 0
M  V30 451 C 41.3309 2.66837 4.53525 0
M  V30 452 O 40.3569 3.40753 4.55934 0
M  V30 453 N 41.5589 1.77539 5.52684 0
M  V30 454 H 44.3239 2.57366 1.53566 0
M  V30 455 H 41.8849 1.45925 0.701259 0
M  V30 456 H 43.8769 1.42118 3.78926 0
M  V30 457 H 42.4469 0.651092 3.05744 0
M  V30 458 H 41.6669 3.06772 2.47557 0
M  V30 459 H 42.9549 3.64927 3.54551 0
M  V30 460 H 42.3529 1.16719 5.53528 0
M  V30 461 H 40.9099 1.71856 6.28736 0
M  V30 462 N 44.343 -0.763751 1.37857 0
M  V30 463 C 45.275 -1.88664 1.30148 0
M  V30 464 C 46.288 -1.61365 0.215685 0
M  V30 465 O 47.477 -1.72134 0.472459 0
M  V30 466 C 44.577 -3.24075 0.991396 0
M  V30 467 C 43.75 -3.78958 2.18426 0
M  V30 468 C 42.809 -4.92862 1.8432 0
M  V30 469 O 41.835 -5.08027 2.56704 0
M  V30 470 N 43.037 -5.75071 0.792081 0
M  V30 471 H 45.802 -1.95791 2.26905 0
M  V30 472 H 43.363 -0.943226 1.31586 0
M  V30 473 H 45.355 -3.97804 0.743935 0
M  V30 474 H 43.925 -3.12399 0.112122 0
M  V30 475 H 43.145 -2.96913 2.59299 0
M  V30 476 H 44.433 -4.12357 2.98058 0
M  V30 477 H 43.831 -5.65375 0.191595 0
M  V30 478 H 42.388 -6.48991 0.60449 0
M  V30 479 N 45.8211 -1.22559 -0.990812 0
M  V30 480 C 47.0981 -0.959875 -1.70428 0
M  V30 481 C 47.4781 0.524455 -2.04481 0
M  V30 482 O 46.8261 1.49302 -1.72977 0
M  V30 483 C 47.0361 -1.85955 -2.95333 0
M  V30 484 C 48.3841 -2.11687 -3.68068 0
M  V30 485 O 49.4081 -1.8342 -3.05345 0
M  V30 486 O 48.2671 -2.59572 -4.80921 0
M  V30 487 H 45.3611 -0.361154 -0.743974 0
M  V30 488 H 47.9071 -1.33554 -1.04697 0
M  V30 489 H 46.6791 -2.86346 -2.66687 0
M  V30 490 H 46.3021 -1.4856 -3.68803 0
M  V30 491 N 47.2992 1.18797 -1.03562 0
M  V30 492 C 48.5292 1.92319 -0.754773 0
M  V30 493 C 48.9372 1.7612 0.691248 0
M  V30 494 O 48.2802 1.08491 1.48241 0
M  V30 495 C 48.3422 3.44284 -1.03484 0
M  V30 496 C 48.0062 3.84258 -2.47376 0
M  V30 497 C 49.0032 3.88459 -3.45537 0
M  V30 498 C 46.6882 4.15701 -2.81954 0
M  V30 499 C 48.6822 4.23545 -4.76328 0
M  V30 500 C 46.3692 4.50458 -4.12954 0
M  V30 501 C 47.3672 4.54356 -5.09951 0
M  V30 502 O 47.0552 4.88305 -6.38603 0
M  V30 503 H 46.7872 0.617527 -0.275021 0
M  V30 504 H 49.3412 1.51683 -1.38497 0
M  V30 505 H 47.5712 3.85135 -0.347513 0
M  V30 506 H 49.2602 3.99049 -0.7426 0
M  V30 507 H 50.0262 3.6431 -3.20162 0
M  V30 508 H 45.9052 4.11847 -2.0713 0
M  V30 509 H 49.4492 4.26502 -5.52035 0
M  V30 510 H 45.3462 4.74067 -4.38099 0
M  V30 511 H 46.1142 5.06227 -6.43177 0
M  V30 512 N 48.7773 0.814389 1.34928 0
M  V30 513 C 50.0263 0.394871 1.97797 0
M  V30 514 C 50.3393 -1.04555 1.65311 0
M  V30 515 O 51.5453 -1.56856 2.21604 0
M  V30 516 C 50.0013 0.655103 3.53888 0
M  V30 517 C 49.6093 2.10858 3.95276 0
M  V30 518 C 51.3533 0.301329 4.23429 0
M  V30 519 C 49.2603 2.31415 5.44244 0
M  V30 520 H 48.1903 0.143913 0.740139 0
M  V30 521 H 50.8413 0.999544 1.53888 0
M  V30 522 H 49.2233 -0.0196253 3.95995 0
M  V30 523 H 50.3973 2.82176 3.64298 0
M  V30 524 H 48.7123 2.42297 3.38646 0
M  V30 525 H 51.3093 0.432869 5.32945 0
M  V30 526 H 51.6523 -0.75331 4.09428 0
M  V30 527 H 52.1853 0.930288 3.86769 0
M  V30 528 H 48.9243 3.35353 5.63222 0
M  V30 529 H 48.4443 1.6463 5.76764 0
M  V30 530 H 50.1233 2.13352 6.10811 0
M  V30 531 N 50.2554 -1.46986 0.568584 0
M  V30 532 C 51.2034 -2.31858 -0.185649 0
M  V30 533 C 52.1974 -1.43624 -0.898249 0
M  V30 534 O 53.4034 -1.60327 -0.818242 0
M  V30 535 H 49.7784 -0.747866 -0.0787399 0
M  V30 536 H 51.7494 -2.93303 0.549191 0
M  V30 537 C 50.4984 -3.26513 -1.19519 0
M  V30 538 H 49.8214 -3.94377 -0.656285 0
M  V30 539 H 51.2614 -3.88707 -1.6936 0
M  V30 540 C 49.7204 -2.50847 -2.24894 0
M  V30 541 O 50.2504 -2.26119 -3.32014 0
M  V30 542 N 48.4564 -2.11656 -1.99124 0
M  V30 543 H 48.0034 -2.31966 -1.12024 0
M  V30 544 H 47.9614 -1.61347 -2.69842 0
M  V30 545 N 51.7335 -0.305618 -1.54608 0
M  V30 546 C 52.6635 0.561482 -2.26649 0
M  V30 547 C 53.6445 1.13415 -1.26772 0
M  V30 548 O 54.8295 1.16262 -1.55553 0
M  V30 549 C 51.9595 1.73122 -3.01075 0
M  V30 550 C 50.9135 1.2887 -4.08138 0
M  V30 551 C 50.2395 2.54396 -4.70305 0
M  V30 552 C 51.5395 0.416578 -5.20636 0
M  V30 553 H 53.2335 -0.0393902 -2.99374 0
M  V30 554 H 50.7795 -0.020385 -1.43986 0
M  V30 555 H 52.7325 2.34396 -3.50195 0
M  V30 556 H 51.4565 2.3584 -2.25936 0
M  V30 557 H 50.1155 0.698991 -3.59875 0
M  V30 558 H 49.7635 3.15439 -3.918 0
M  V30 559 H 49.4635 2.25486 -5.42614 0
M  V30 560 H 50.9875 3.16464 -5.2219 0
M  V30 561 H 52.4015 0.935116 -5.65622 0
M  V30 562 H 50.7985 0.221046 -5.99693 0
M  V30 563 H 51.8685 -0.557162 -4.81688 0
M  V30 564 N 53.2116 1.57565 -0.0334293 0
M  V30 565 C 54.4576 1.92262 0.645226 0
M  V30 566 C 54.7906 0.910543 1.71531 0
M  V30 567 O 54.0656 -0.066099 1.94388 0
M  V30 568 C 54.3486 3.37422 1.2577 0
M  V30 569 C 54.2016 4.49369 0.196891 0
M  V30 570 C 55.5206 3.82628 2.17449 0
M  V30 571 H 52.6396 0.699171 0.233085 0
M  V30 572 H 55.2816 1.89779 -0.0915694 0
M  V30 573 H 53.4316 3.39669 1.88566 0
M  V30 574 H 55.1036 4.59254 -0.433962 0
M  V30 575 H 53.3466 4.31168 -0.477137 0
M  V30 576 H 54.0176 5.47978 0.665124 0
M  V30 577 H 56.4936 3.82145 1.64634 0
M  V30 578 H 55.3696 4.84883 2.57254 0
M  V30 579 H 55.6306 3.18376 3.0674 0
M  V30 580 N 54.6897 -0.239769 1.55765 0
M  V30 581 C 55.6217 -1.32001 1.87372 0
M  V30 582 C 56.6347 -1.43944 0.760522 0
M  V30 583 O 57.8237 -1.45167 1.0387 0
M  V30 584 C 54.9237 -2.69779 2.05115 0
M  V30 585 C 54.0967 -2.80014 3.36022 0
M  V30 586 C 53.1557 -3.98684 3.4342 0
M  V30 587 O 52.1817 -3.87877 4.16582 0
M  V30 588 N 53.3837 -5.12176 2.73232 0
M  V30 589 H 56.1487 -1.0522 2.80622 0
M  V30 590 H 53.7097 -0.429857 1.56089 0
M  V30 591 H 55.7017 -3.47517 2.07399 0
M  V30 592 H 54.2717 -2.89237 1.18577 0
M  V30 593 H 53.4917 -1.88896 3.45994 0
M  V30 594 H 54.7797 -2.83808 4.22292 0
M  V30 595 H 54.1777 -5.2385 2.13536 0
M  V30 596 H 52.7347 -5.88022 2.81199 0
M  V30 597 N 56.1678 -1.49265 -0.50573 0
M  V30 598 C 57.4078 -1.60128 -1.27038 0
M  V30 599 C 57.7718 -0.279557 -1.89954 0
M  V30 600 O 58.9728 -0.263329 -2.67507 0
M  V30 601 C 57.2438 -2.72507 -2.31246 0
M  V30 602 S 58.8028 -3.0329 -3.17113 0
M  V30 603 H 55.6208 -0.564863 -0.4318 0
M  V30 604 H 58.2228 -1.86902 -0.573397 0
M  V30 605 H 56.9268 -3.67068 -1.83546 0
M  V30 606 H 56.4578 -2.4771 -3.05619 0
M  V30 607 H 58.4728 -2.44448 -4.31809 0
M  V30 608 N 57.6459 0.756429 -1.3826 0
M  V30 609 C 58.5559 1.9009 -1.37488 0
M  V30 610 C 59.5719 1.71855 -0.272366 0
M  V30 611 O 60.7479 1.94827 -0.510318 0
M  V30 612 C 57.8129 3.25421 -1.19592 0
M  V30 613 C 56.8739 3.56202 -2.39622 0
M  V30 614 C 56.1069 4.85075 -2.2257 0
M  V30 615 O 56.3299 5.57246 -1.21793 0
M  V30 616 O 55.2639 5.15269 -3.11098 0
M  V30 617 H 59.0899 1.93695 -2.33914 0
M  V30 618 H 56.6749 0.901313 -1.1915 0
M  V30 619 H 58.5569 4.06337 -1.11661 0
M  V30 620 H 57.2319 3.22634 -0.262486 0
M  V30 621 H 56.1389 2.75458 -2.53128 0
M  V30 622 H 57.4719 3.63747 -3.31586 0
M  V30 623 N 59.124 1.23083 0.984299 0
M  V30 624 C 60.352 1.08714 1.76037 0
M  V30 625 C 60.767 -0.361691 1.85303 0
M  V30 626 O 60.124 -1.25034 1.32939 0
M  V30 627 C 60.175 1.70206 3.18923 0
M  V30 628 O 59.896 3.09423 3.10144 0
M  V30 629 C 61.397 1.61227 4.12941 0
M  V30 630 H 58.617 0.380664 0.552572 0
M  V30 631 H 61.161 1.62853 1.23689 0
M  V30 632 H 59.316 1.20109 3.6831 0
M  V30 633 H 59.73 3.39188 4.00065 0
M  V30 634 H 61.204 2.08962 5.10919 0
M  V30 635 H 61.681 0.570375 4.35481 0
M  V30 636 H 62.287 2.10671 3.69456 0
M  V30 637 N 60.6021 -1.18246 1.0419 0
M  V30 638 C 61.5321 -2.24127 0.654914 0
M  V30 639 C 62.5131 -1.66617 -0.342451 0
M  V30 640 O 63.6981 -1.92924 -0.222277 0
M  V30 641 C 60.8281 -3.47295 0.0183757 0
M  V30 642 C 59.7821 -4.17563 0.939414 0
M  V30 643 C 59.1081 -5.34438 0.167286 0
M  V30 644 C 60.4081 -4.70917 2.25908 0
M  V30 645 H 62.1021 -2.56753 1.54007 0
M  V30 646 H 59.6481 -1.23414 0.74195 0
M  V30 647 H 61.6011 -4.20572 -0.264082 0
M  V30 648 H 60.3251 -3.13907 -0.901664 0
M  V30 649 H 58.9841 -3.46186 1.20628 0
M  V30 650 H 58.6321 -4.97298 -0.7552 0
M  V30 651 H 58.3321 -5.82388 0.780901 0
M  V30 652 H 59.8561 -6.10504 -0.108125 0
M  V30 653 H 61.2701 -5.35882 2.03724 0
M  V30 654 H 59.6671 -5.29406 2.82577 0
M  V30 655 H 60.7371 -3.88272 2.9047 0
M  V30 656 N 62.0802 -0.821533 -1.34494 0
M  V30 657 C 62.9902 -0.244355 -2.33324 0
M  V30 658 C 64.0062 0.620527 -1.62559 0
M  V30 659 O 65.1822 0.528754 -1.94335 0
M  V30 660 C 62.2472 0.585368 -3.41723 0
M  V30 661 C 61.3082 -0.301752 -4.28238 0
M  V30 662 C 60.5412 0.488466 -5.3146 0
M  V30 663 O 60.7642 1.72186 -5.4379 0
M  V30 664 O 59.6982 -0.12848 -6.01763 0
M  V30 665 H 63.5242 -1.06231 -2.84515 0
M  V30 666 H 61.1092 -0.583645 -1.37528 0
M  V30 667 H 62.9912 1.05747 -4.07916 0
M  V30 668 H 61.6662 1.38068 -2.92778 0
M  V30 669 H 60.5732 -0.821315 -3.64973 0
M  V30 670 H 61.9062 -1.06138 -4.8062 0
M  V30 671 N 63.5583 1.46682 -0.576371 0
M  V30 672 C 64.8353 1.95599 0.00703437 0
M  V30 673 C 65.2153 1.51904 1.46589 0
M  V30 674 O 64.5633 0.766755 2.15251 0
M  V30 675 C 64.7733 3.4864 -0.158404 0
M  V30 676 C 66.1213 4.24594 -0.0229439 0
M  V30 677 O 67.1453 3.56094 -0.0869173 0
M  V30 678 O 66.0043 5.46373 0.118015 0
M  V30 679 H 63.0983 0.825275 0.053384 0
M  V30 680 H 65.6443 1.56996 -0.644244 0
M  V30 681 H 64.4163 3.7331 -1.17282 0
M  V30 682 H 64.0393 3.94057 0.5296 0
M  V30 683 N 65.0364 0.313813 1.54444 0
M  V30 684 C 65.9664 -0.549454 2.26943 0
M  V30 685 C 66.9474 -1.12741 1.27372 0
M  V30 686 O 68.1324 -1.15436 1.56167 0
M  V30 687 C 65.2624 -1.71523 3.01989 0
M  V30 688 C 64.2164 -1.26703 4.08816 0
M  V30 689 C 63.5424 -2.51898 4.71647 0
M  V30 690 C 64.8424 -0.388962 5.2085 0
M  V30 691 H 66.5364 0.0552661 2.99349 0
M  V30 692 H 64.0824 0.0280207 1.43973 0
M  V30 693 H 66.0354 -2.32535 3.51433 0
M  V30 694 H 64.7594 -2.34639 2.27183 0
M  V30 695 H 63.4184 -0.679896 3.6024 0
M  V30 696 H 63.0664 -3.13356 3.93468 0
M  V30 697 H 62.7664 -2.22605 5.43802 0
M  V30 698 H 64.2904 -3.1369 5.23861 0
M  V30 699 H 65.7044 -0.905107 5.6611 0
M  V30 700 H 64.1014 -0.18924 5.99802 0
M  V30 701 H 65.1714 0.582699 4.81386 0
M  V30 702 N 66.5145 -1.57545 0.0417849 0
M  V30 703 C 67.4615 -2.10977 -0.935805 0
M  V30 704 C 68.4315 -1.01486 -1.31491 0
M  V30 705 O 69.6165 -1.2898 -1.40602 0
M  V30 706 C 66.7565 -2.65169 -2.2086 0
M  V30 707 C 65.8695 -3.88714 -1.88482 0
M  V30 708 C 65.0045 -4.31254 -3.1015 0
M  V30 709 C 64.0435 -5.47524 -2.7365 0
M  V30 710 N 63.1805 -5.85162 -3.87982 0
M  V30 711 H 68.0205 -2.94218 -0.473249 0
M  V30 712 H 65.5575 -1.45415 -0.221981 0
M  V30 713 H 67.5155 -2.94685 -2.95325 0
M  V30 714 H 66.1455 -1.8474 -2.64709 0
M  V30 715 H 65.1975 -3.65849 -1.04205 0
M  V30 716 H 66.5095 -4.73245 -1.57608 0
M  V30 717 H 65.6635 -4.62273 -3.92923 0
M  V30 718 H 64.4025 -3.45516 -3.44195 0
M  V30 719 H 63.4075 -5.16187 -1.89291 0
M  V30 720 H 64.6325 -6.34971 -2.40807 0
M  V30 721 H 62.5785 -5.02377 -4.21846 0
M  V30 722 H 62.4955 -6.64362 -3.60775 0
M  V30 723 H 63.7635 -6.20791 -4.71422 0
M  V30 724 N 67.9926 0.231505 -1.5589 0
M  V30 725 C 69.2416 0.955346 -1.7764 0
M  V30 726 C 69.5546 1.85893 -0.608546 0
M  V30 727 O 70.7606 2.62067 -0.70943 0
M  V30 728 C 69.2166 1.74886 -3.14552 0
M  V30 729 C 68.8246 0.891915 -4.39032 0
M  V30 730 C 70.5686 2.46452 -3.45633 0
M  V30 731 C 68.4756 1.68221 -5.66971 0
M  V30 732 H 67.4056 0.360446 -0.662265 0
M  V30 733 H 70.0566 0.209516 -1.823 0
M  V30 734 H 68.4386 2.53723 -3.04041 0
M  V30 735 H 69.6126 0.144793 -4.60572 0
M  V30 736 H 67.9276 0.288863 -4.15397 0
M  V30 737 H 70.5246 3.06061 -4.38441 0
M  V30 738 H 70.8676 3.18841 -2.67668 0
M  V30 739 H 71.4006 1.74613 -3.57428 0
M  V30 740 H 68.1396 1.00178 -6.478 0
M  V30 741 H 67.6596 2.4042 -5.49507 0
M  V30 742 H 69.3386 2.24544 -6.06786 0
M  V30 743 N 69.4707 1.49531 0.497807 0
M  V30 744 C 70.4207 1.62829 1.59596 0
M  V30 745 C 71.4047 0.483824 1.53453 0
M  V30 746 O 72.5967 0.736937 1.60929 0
M  V30 747 C 69.7257 1.7011 2.98191 0
M  V30 748 C 68.8117 2.90144 3.09317 0
M  V30 749 N 69.2027 4.1418 2.90324 0
M  V30 750 C 67.5007 2.88148 3.40422 0
M  V30 751 C 68.2017 4.94886 3.05717 0
M  V30 752 N 67.1777 4.28314 3.34736 0
M  V30 753 H 70.9797 2.56446 1.4357 0
M  V30 754 H 68.4937 1.46347 0.704001 0
M  V30 755 H 70.4907 1.77735 3.77115 0
M  V30 756 H 69.1507 0.776315 3.15283 0
M  V30 757 H 70.1617 4.44109 2.66436 0
M  V30 758 H 66.8387 2.05061 3.63671 0
M  V30 759 H 68.2287 6.03432 2.95499 0
M  V30 760 N 70.9488 -0.749086 1.3866 0
M  V30 761 C 71.8788 -1.8764 1.38973 0
M  V30 762 C 72.8598 -1.68178 0.255004 0
M  V30 763 O 74.0448 -1.88704 0.458754 0
M  V30 764 C 71.1748 -3.25222 1.21851 0
M  V30 765 C 70.1288 -3.59295 2.32575 0
M  V30 766 C 69.4548 -4.95663 2.00555 0
M  V30 767 C 70.7548 -3.63709 3.7485 0
M  V30 768 H 72.4488 -1.87635 2.3331 0
M  V30 769 H 69.9948 -0.901329 1.12303 0
M  V30 770 H 71.9478 -4.03746 1.20695 0
M  V30 771 H 70.6718 -3.25719 0.239775 0
M  V30 772 H 69.3308 -2.83093 2.32925 0
M  V30 773 H 68.9788 -4.92724 1.01154 0
M  V30 774 H 68.6788 -5.19429 2.74714 0
M  V30 775 H 70.2028 -5.7656 2.01024 0
M  V30 776 H 71.6168 -4.32338 3.76506 0
M  V30 777 H 70.0138 -3.98986 4.48252 0
M  V30 778 H 71.0838 -2.63834 4.06841 0
M  V30 779 N 72.4269 -1.23603 -0.977757 0
M  V30 780 C 73.3589 -0.977369 -2.07317 0
M  V30 781 C 74.3719 0.0495845 -1.62724 0
M  V30 782 O 75.5609 -0.186261 -1.77526 0
M  V30 783 C 72.6609 -0.451216 -3.35883 0
M  V30 784 C 71.8339 -1.53896 -4.09432 0
M  V30 785 C 70.8929 -1.01721 -5.16274 0
M  V30 786 O 69.9189 -1.70676 -5.43009 0
M  V30 787 N 71.1209 0.153594 -5.80297 0
M  V30 788 H 73.8859 -1.92047 -2.30082 0
M  V30 789 H 71.4469 -1.14497 -1.14465 0
M  V30 790 H 73.4389 -0.0871574 -4.04606 0
M  V30 791 H 72.0089 0.397368 -3.10064 0
M  V30 792 H 71.2289 -2.07566 -3.35127 0
M  V30 793 H 72.5169 -2.27037 -4.55337 0
M  V30 794 H 71.9149 0.730323 -5.60966 0
M  V30 795 H 70.4719 0.458892 -6.50183 0
M  V30 796 N 73.905 1.17692 -1.04816 0
M  V30 797 C 75.133 1.91786 -0.776254 0
M  V30 798 C 75.548 1.76604 0.667577 0
M  V30 799 O 74.905 1.10067 1.45573 0
M  V30 800 C 74.956 3.42967 -1.14263 0
M  V30 801 O 74.677 3.57678 -2.52978 0
M  V30 802 C 76.178 4.34144 -0.896311 0
M  V30 803 H 73.398 0.608624 -0.282519 0
M  V30 804 H 75.942 1.49268 -1.39783 0
M  V30 805 H 74.097 3.83245 -0.565874 0
M  V30 806 H 74.511 4.51319 -2.67229 0
M  V30 807 H 75.985 5.38744 -1.20244 0
M  V30 808 H 76.462 4.38876 0.168636 0
M  V30 809 H 77.068 3.99574 -1.45672 0
M  V30 810 N 75.3831 0.828654 1.34056 0
M  V30 811 C 76.6111 0.43262 2.02326 0
M  V30 812 C 77.0261 -0.963147 1.62385 0
M  V30 813 O 76.3831 -1.62425 0.832121 0
M  V30 814 C 76.4341 0.53182 3.57567 0
M  V30 815 O 76.1551 1.87258 3.96063 0
M  V30 816 C 77.6561 0.131422 4.43105 0
M  V30 817 H 74.8761 0.172923 0.648335 0
M  V30 818 H 77.4201 1.1184 1.71208 0
M  V30 819 H 75.5751 -0.105938 3.87255 0
M  V30 820 H 75.9891 1.85087 4.90758 0
M  V30 821 H 77.4631 0.251904 5.51425 0
M  V30 822 H 77.9401 -0.925645 4.29335 0
M  V30 823 H 78.5461 0.743207 4.18756 0
M  V30 824 N 76.8612 -1.46375 0.584142 0
M  V30 825 C 78.1382 -1.956 0.0033388 0
M  V30 826 C 78.5182 -1.52679 -1.45782 0
M  V30 827 O 77.8662 -0.77816 -2.14842 0
M  V30 828 C 78.0762 -3.48551 0.176891 0
M  V30 829 C 79.4242 -4.24576 0.0454609 0
M  V30 830 O 80.4482 -3.56043 0.105801 0
M  V30 831 O 79.3072 -5.46427 -0.0890376 0
M  V30 832 H 76.4012 -0.825547 -0.0490066 0
M  V30 833 H 78.9472 -1.56652 0.65256 0
M  V30 834 H 77.7192 -3.72683 1.1926 0
M  V30 835 H 77.3422 -3.94332 -0.508695 0
M  V30 836 N 78.3393 -0.321999 -1.54275 0
M  V30 837 C 79.5693 0.282642 -2.04658 0
M  V30 838 C 79.9773 1.46453 -1.19784 0
M  V30 839 O 79.3203 1.82367 -0.220932 0
M  V30 840 C 79.3823 0.781857 -3.50895 0
M  V30 841 C 79.0463 -0.277517 -4.56157 0
M  V30 842 C 80.0433 -1.11307 -5.07845 0
M  V30 843 C 77.7283 -0.425256 -5.00497 0
M  V30 844 C 79.7223 -2.08211 -6.02434 0
M  V30 845 C 77.4093 -1.39771 -5.94901 0
M  V30 846 C 78.4073 -2.2246 -6.45756 0
M  V30 847 O 78.0953 -3.18054 -7.38307 0
M  V30 848 H 77.8273 0.0622636 -0.673126 0
M  V30 849 H 80.3813 -0.465792 -2.00049 0
M  V30 850 H 78.6113 1.58118 -3.52896 0
M  V30 851 H 80.3003 1.30467 -3.84361 0
M  V30 852 H 81.0663 -1.00991 -4.74369 0
M  V30 853 H 76.9453 0.20847 -4.60528 0
M  V30 854 H 80.4893 -2.72791 -6.42052 0
M  V30 855 H 76.3863 -1.50152 -6.27794 0
M  V30 856 H 77.1543 -3.13275 -7.56175 0
M  V30 857 N 79.8174 1.5752 -0.0501392 0
M  V30 858 C 81.0654 1.9227 0.622642 0
M  V30 859 C 81.3864 0.929083 1.71444 0
M  V30 860 O 80.6564 -0.0262186 1.95882 0
M  V30 861 H 79.2364 0.709739 0.232981 0
M  V30 862 H 81.8984 1.94628 -0.102898 0
M  V30 863 H 80.9944 2.93479 1.06191 0
M  V30 864 N 81.2955 -0.223234 1.56011 0
M  V30 865 C 82.2435 -1.29627 1.93131 0
M  V30 866 C 83.2375 -1.48608 0.813146 0
M  V30 867 O 84.4435 -1.49802 0.997966 0
M  V30 868 H 80.8185 -0.434563 0.613726 0
M  V30 869 H 82.7895 -0.955995 2.82672 0
M  V30 870 C 81.5385 -2.63983 2.26292 0
M  V30 871 H 80.8615 -2.50185 3.11846 0
M  V30 872 H 82.3015 -3.3788 2.56151 0
M  V30 873 C 80.7605 -3.18866 1.08747 0
M  V30 874 O 81.2905 -4.00192 0.347727 0
M  V30 875 N 79.4965 -2.77217 0.871743 0
M  V30 876 H 79.0435 -2.1119 1.47501 0
M  V30 877 H 79.0015 -3.1428 0.0869905 0
M  V30 878 N 82.7736 -1.49793 -0.48987 0
M  V30 879 C 84.0206 -1.59841 -1.24327 0
M  V30 880 C 84.3486 -0.290135 -1.92324 0
M  V30 881 O 83.6036 0.722749 -1.81865 0
M  V30 882 C 83.9026 -2.71488 -2.32441 0
M  V30 883 C 83.5686 -4.12614 -1.81826 0
M  V30 884 C 82.2306 -4.51017 -1.67742 0
M  V30 885 C 84.5826 -5.00892 -1.4407 0
M  V30 886 C 81.9106 -5.75459 -1.14297 0
M  V30 887 C 84.2626 -6.25863 -0.920742 0
M  V30 888 C 82.9266 -6.63086 -0.766383 0
M  V30 889 H 82.1966 -0.584899 -0.454944 0
M  V30 890 H 84.8436 -1.83663 -0.542215 0
M  V30 891 H 83.1486 -2.4168 -3.0838 0
M  V30 892 H 84.8456 -2.76469 -2.90458 0
M  V30 893 H 81.4356 -3.82307 -1.93751 0
M  V30 894 H 85.6196 -4.7187 -1.53794 0
M  V30 895 H 80.8756 -6.02989 -1.01068 0
M  V30 896 H 85.0496 -6.9364 -0.619448 0
M  V30 897 H 82.6766 -7.59393 -0.350083 0
M  V30 898 N 84.2517 0.741722 -1.39055 0
M  V30 899 C 85.1817 1.869 -1.39966 0
M  V30 900 C 86.1627 1.6804 -0.26392 0
M  V30 901 O 87.3477 1.88458 -0.468755 0
M  V30 902 C 84.4777 3.24572 -1.23574 0
M  V30 903 C 83.4317 3.58056 -2.34477 0
M  V30 904 C 82.7577 4.94593 -2.0318 0
M  V30 905 C 84.0577 3.61716 -3.76774 0
M  V30 906 H 85.7517 1.86395 -2.34302 0
M  V30 907 H 83.2977 0.895361 -1.1278 0
M  V30 908 H 85.2507 4.031 -1.22834 0
M  V30 909 H 83.9747 3.25587 -0.257045 0
M  V30 910 H 82.6337 2.81854 -2.34423 0
M  V30 911 H 82.2817 4.92181 -1.03765 0
M  V30 912 H 81.9817 5.17964 -2.77465 0
M  V30 913 H 83.5057 5.75486 -2.04079 0
M  V30 914 H 84.9197 4.30335 -3.78794 0
M  V30 915 H 83.3167 3.96603 -4.50362 0
M  V30 916 H 84.3867 2.61672 -4.08235 0
M  V30 917 N 85.7298 1.2412 0.971189 0
M  V30 918 C 86.6928 1.03156 2.04674 0
M  V30 919 C 87.6928 -0.00990322 1.60797 0
M  V30 920 O 88.8828 0.230729 1.72665 0
M  V30 921 C 86.0148 0.562765 3.36223 0
M  V30 922 H 87.2078 1.98614 2.24705 0
M  V30 923 H 84.7608 1.06293 1.14593 0
M  V30 924 H 85.4958 -0.395176 3.21883 0
M  V30 925 H 85.2808 1.31441 3.69413 0
M  V30 926 H 86.7708 0.437015 4.15307 0
M  V30 927 N 87.2079 -1.17134 1.05439 0
M  V30 928 C 88.1559 -2.23289 0.651511 0
M  V30 929 C 89.1499 -1.66186 -0.328411 0
M  V30 930 O 90.3559 -1.78949 -0.194206 0
M  V30 931 H 86.7309 -0.726938 0.192523 0
M  V30 932 H 88.7019 -2.54565 1.55689 0
M  V30 933 C 87.4509 -3.47671 0.0448436 0
M  V30 934 H 86.7739 -3.91918 0.78996 0
M  V30 935 H 88.2139 -4.2353 -0.19964 0
M  V30 936 C 86.6729 -3.14453 -1.20918 0
M  V30 937 O 87.2029 -3.29459 -2.29825 0
M  V30 938 N 85.4089 -2.68657 -1.10779 0
M  V30 939 H 84.9559 -2.56646 -0.221526 0
M  V30 940 H 84.9139 -2.46804 -1.9477 0
M  V30 941 N 88.686 -0.835752 -1.33615 0
M  V30 942 C 89.636 -0.238856 -2.26745 0
M  V30 943 C 90.62 0.604343 -1.49119 0
M  V30 944 O 91.812 0.456822 -1.71003 0
M  V30 945 C 88.941 0.587725 -3.38232 0
M  V30 946 C 88.027 -0.266811 -4.2326 0
M  V30 947 N 88.418 -1.34403 -4.87616 0
M  V30 948 C 86.716 -0.0533131 -4.45968 0
M  V30 949 C 87.417 -1.86819 -5.50884 0
M  V30 950 N 86.393 -1.17013 -5.30857 0
M  V30 951 H 90.195 -1.06266 -2.74016 0
M  V30 952 H 87.709 -0.679881 -1.47483 0
M  V30 953 H 89.706 1.03161 -4.03935 0
M  V30 954 H 88.366 1.40954 -2.9251 0
M  V30 955 H 89.377 -1.7269 -4.88261 0
M  V30 956 H 86.054 0.735312 -4.10974 0
M  V30 957 H 87.444 -2.7701 -6.1214 0
M  V30 958 N 90.1641 1.46063 -0.591896 0
M  V30 959 C 91.3921 2.06717 -0.0868936 0
M  V30 960 C 91.8071 1.43916 1.22203 0
M  V30 961 O 91.1641 0.547698 1.74088 0
M  V30 962 C 91.2151 3.6142 0.0758725 0
M  V30 963 O 90.9361 4.21874 -1.18126 0
M  V30 964 C 92.4371 4.39025 0.61416 0
M  V30 965 H 89.6571 0.668162 -0.0616518 0
M  V30 966 H 92.2011 1.8755 -0.815175 0
M  V30 967 H 90.3561 3.79983 0.754413 0
M  V30 968 H 90.7701 5.14861 -1.00092 0
M  V30 969 H 92.2441 5.4783 0.677193 0
M  V30 970 H 92.7211 4.07708 1.63312 0
M  V30 971 H 93.3271 4.2529 -0.0298142 0
M  V30 972 N 91.6422 0.330177 1.54103 0
M  V30 973 C 92.5902 -0.548226 2.26047 0
M  V30 974 C 93.5842 -1.11309 1.27698 0
M  V30 975 O 94.7902 -1.06036 1.45452 0
M  V30 976 H 91.1652 -0.195456 0.726155 0
M  V30 977 H 93.1362 0.0807567 2.98291 0
M  V30 978 C 91.8852 -1.69415 3.03634 0
M  V30 979 H 91.2082 -1.26876 3.79134 0
M  V30 980 H 92.6482 -2.28423 3.5721 0
M  V30 981 C 91.1072 -2.61569 2.12328 0
M  V30 982 O 91.6372 -3.63462 1.7105 0
M  V30 983 N 89.8432 -2.29952 1.77681 0
M  V30 984 H 89.3902 -1.47134 2.11446 0
M  V30 985 H 89.3482 -2.91871 1.16869 0
M  V30 986 N 93.1203 -1.57491 0.0584922 0
M  V30 987 C 94.5313 -1.80526 -0.476138 0
M  V30 988 C 94.8823 -0.971334 -1.70469 0
M  V30 989 O 94.0073 -0.190012 -2.15564 0
M  V30 990 C 94.6023 -3.27424 -0.870587 0
M  V30 991 C 93.1613 -3.51351 -1.35015 0
M  V30 992 C 92.3083 -2.75343 -0.32887 0
M  V30 993 H 95.2593 -1.56133 0.284312 0
M  V30 994 H 95.2803 -3.38745 -1.73299 0
M  V30 995 H 94.7923 -3.88093 0.0237627 0
M  V30 996 H 92.8933 -2.95971 -2.26345 0
M  V30 997 H 93.0063 -4.60059 -1.33726 0
M  V30 998 H 91.3703 -2.417 -0.803321 0
M  V30 999 H 92.1533 -3.38743 0.557521 0
M  V30 1000 N 94.5984 0.214957 -1.56127 0
M  V30 1001 C 95.5284 1.2695 -1.95974 0
M  V30 1002 C 96.5094 1.48539 -0.828868 0
M  V30 1003 O 97.6944 1.60611 -1.09168 0
M  V30 1004 C 94.8244 2.61794 -2.28214 0
M  V30 1005 C 93.7784 2.54851 -3.43853 0
M  V30 1006 C 93.1044 3.93785 -3.61715 0
M  V30 1007 C 94.4044 2.09065 -4.78632 0
M  V30 1008 H 96.0984 0.93846 -2.84312 0
M  V30 1009 H 93.6444 0.449996 -1.36788 0
M  V30 1010 H 95.5974 3.35731 -2.54682 0
M  V30 1011 H 94.3214 2.96599 -1.36736 0
M  V30 1012 H 92.9804 1.8337 -3.17444 0
M  V30 1013 H 92.6284 4.25908 -2.67602 0
M  V30 1014 H 92.3284 3.90019 -4.39498 0
M  V30 1015 H 93.8524 4.69374 -3.90539 0
M  V30 1016 H 95.2664 2.7275 -5.04262 0
M  V30 1017 H 93.6634 2.16346 -5.59745 0
M  V30 1018 H 94.7334 1.04315 -4.73547 0
M  V30 1019 N 96.0765 1.50051 0.48192 0
M  V30 1020 C 97.3045 1.64237 1.25832 0
M  V30 1021 C 97.7195 0.321336 1.86045 0
M  V30 1022 O 97.0765 -0.695478 1.68729 0
M  V30 1023 C 97.1275 2.72548 2.37487 0
M  V30 1024 O 96.8485 3.99529 1.79745 0
M  V30 1025 C 98.3495 2.9761 3.28547 0
M  V30 1026 H 95.5695 0.55237 0.380957 0
M  V30 1027 H 98.1135 1.96207 0.576467 0
M  V30 1028 H 96.2685 2.43303 3.01467 0
M  V30 1029 H 96.6825 4.59342 2.5319 0
M  V30 1030 H 98.1565 3.77084 4.03127 0
M  V30 1031 H 98.6335 2.0826 3.86684 0
M  V30 1032 H 99.2395 3.28345 2.70314 0
M  V30 1033 N 97.5546 -0.734337 1.39446 0
M  V30 1034 C 98.8006 -1.49613 1.36908 0
M  V30 1035 C 99.1336 -1.94169 -0.0347829 0
M  V30 1036 O 98.4086 -1.66833 -0.999847 0
M  V30 1037 C 98.6916 -2.73534 2.34203 0
M  V30 1038 C 98.5446 -2.34993 3.83534 0
M  V30 1039 C 99.8636 -3.75635 2.29317 0
M  V30 1040 H 96.9826 -0.542714 0.498629 0
M  V30 1041 H 99.6246 -0.839597 1.70443 0
M  V30 1042 H 97.7746 -3.29553 2.05736 0
M  V30 1043 H 99.4466 -1.84601 4.22753 0
M  V30 1044 H 97.6896 -1.67213 4.00278 0
M  V30 1045 H 98.3606 -3.23738 4.47099 0
M  V30 1046 H 100.837 -3.29203 2.54489 0
M  V30 1047 H 99.7126 -4.60008 2.99472 0
M  V30 1048 H 99.9736 -4.22603 1.29842 0
M  V30 1049 N 99.0327 -1.24633 -0.964593 0
M  V30 1050 C 100.258 -1.11596 -1.74818 0
M  V30 1051 C 100.683 0.32723 -1.85232 0
M  V30 1052 O 100.041 1.23695 -1.32549 0
M  V30 1053 C 100.089 -1.76397 -3.1451 0
M  V30 1054 O 99.1927 -1.03685 -3.99153 0
M  V30 1055 H 98.5337 -0.390196 -0.537255 0
M  V30 1056 H 101.064 -1.65002 -1.20977 0
M  V30 1057 H 101.074 -1.8228 -3.65018 0
M  V30 1058 H 99.7487 -2.81401 -3.06246 0
M  V30 1059 H 98.3257 -1.05611 -3.57632 0
M  V30 1060 N 100.511 1.16574 -1.06058 0
M  V30 1061 C 101.458 2.20883 -0.669263 0
M  V30 1062 C 102.428 1.62729 0.332918 0
M  V30 1063 O 103.613 1.895 0.222346 0
M  V30 1064 C 100.753 3.45049 -0.0593572 0
M  V30 1065 C 99.8658 4.17458 -1.11143 0
M  V30 1066 C 99.0008 5.29135 -0.467916 0
M  V30 1067 C 98.0398 5.93343 -1.50369 0
M  V30 1068 N 97.1768 6.96516 -0.883706 0
M  V30 1069 H 102.017 2.53709 -1.5632 0
M  V30 1070 H 99.5538 1.24616 -0.781625 0
M  V30 1071 H 101.512 4.16033 0.311771 0
M  V30 1072 H 100.142 3.12781 0.797992 0
M  V30 1073 H 99.1938 3.45101 -1.60029 0
M  V30 1074 H 100.506 4.61307 -1.89731 0
M  V30 1075 H 99.6598 6.06684 -0.0436871 0
M  V30 1076 H 98.3988 4.86443 0.349864 0
M  V30 1077 H 97.4038 5.14517 -1.93784 0
M  V30 1078 H 98.6288 6.38114 -2.32352 0
M  V30 1079 H 96.5748 6.55943 -0.086595 0
M  V30 1080 H 96.4918 7.38723 -1.607 0
M  V30 1081 H 97.7598 7.77993 -0.484543 0
M  V30 1082 N 101.989 0.842826 1.3317 0
M  V30 1083 C 103.238 0.436738 1.96915 0
M  V30 1084 C 103.551 -1.01025 1.67491 0
M  V30 1085 O 104.757 -1.5212 2.24881 0
M  V30 1086 C 103.213 0.730021 3.52418 0
M  V30 1087 C 102.821 2.19195 3.90714 0
M  V30 1088 C 104.565 0.391076 4.22695 0
M  V30 1089 C 102.472 2.42907 5.39212 0
M  V30 1090 H 101.402 0.15958 0.736919 0
M  V30 1091 H 104.053 1.03196 1.51733 0
M  V30 1092 H 102.435 0.0643755 3.95948 0
M  V30 1093 H 103.609 2.8984 3.58231 0
M  V30 1094 H 101.924 2.49425 3.33431 0
M  V30 1095 H 104.521 0.545817 5.31907 0
M  V30 1096 H 104.864 -0.666294 4.10933 0
M  V30 1097 H 105.397 1.01212 3.84709 0
M  V30 1098 H 102.136 3.47224 5.55982 0
M  V30 1099 H 101.656 1.76827 5.73142 0
M  V30 1100 H 103.335 2.2626 6.06148 0
M  V30 1101 N 103.467 -1.45747 0.599634 0
M  V30 1102 C 104.744 -1.95585 0.0240846 0
M  V30 1103 C 105.124 -1.54217 -1.44154 0
M  V30 1104 O 104.472 -0.800903 -2.14004 0
M  V30 1105 C 104.682 -3.48344 0.21385 0
M  V30 1106 C 106.03 -4.24504 0.0904902 0
M  V30 1107 O 107.054 -3.55911 0.143558 0
M  V30 1108 O 105.913 -5.46491 -0.0310766 0
M  V30 1109 H 103.007 -0.82602 -0.0402478 0
M  V30 1110 H 105.553 -1.55951 0.669139 0
M  V30 1111 H 104.325 -3.71397 1.23206 0
M  V30 1112 H 103.948 -3.9485 -0.466842 0
M  V30 1113 N 104.945 -0.338344 -1.53925 0
M  V30 1114 C 106.173 0.261298 -2.05243 0
M  V30 1115 C 106.588 1.44625 -1.21363 0
M  V30 1116 O 105.945 1.80811 -0.247736 0
M  V30 1117 C 105.996 0.681412 -3.5502 0
M  V30 1118 O 105.717 -0.456414 -4.35716 0
M  V30 1119 C 107.218 1.34232 -4.22489 0
M  V30 1120 H 104.438 0.0513685 -0.669031 0
M  V30 1121 H 106.982 -0.488822 -1.98572 0
M  V30 1122 H 105.137 1.38148 -3.61931 0
M  V30 1123 H 105.551 -0.122564 -5.24357 0
M  V30 1124 H 107.025 1.58708 -5.28693 0
M  V30 1125 H 107.502 2.29426 -3.74514 0
M  V30 1126 H 108.108 0.684424 -4.19757 0
M  V30 1127 N 106.423 1.57458 -0.0668435 0
M  V30 1128 C 107.333 2.15937 0.916975 0
M  V30 1129 C 108.349 1.12123 1.33058 0
M  V30 1130 O 109.525 1.44366 1.40429 0
M  V30 1131 C 106.59 2.70547 2.16807 0
M  V30 1132 C 105.651 3.89215 1.81135 0
M  V30 1133 C 104.884 4.41211 3.0028 0
M  V30 1134 O 105.107 3.92225 4.14144 0
M  V30 1135 O 104.041 5.32605 2.80384 0
M  V30 1136 H 107.867 3.00354 0.449561 0
M  V30 1137 H 105.452 1.48584 0.155949 0
M  V30 1138 H 107.334 3.0557 2.90181 0
M  V30 1139 H 106.009 1.89192 2.62656 0
M  V30 1140 H 104.916 3.59054 1.05028 0
M  V30 1141 H 106.249 4.71848 1.40073 0
M  V30 1142 N 107.901 -0.206675 1.56239 0
M  V30 1143 C 108.834 -1.28383 1.88661 0
M  V30 1144 C 109.812 -1.44504 0.745481 0
M  V30 1145 O 110.996 -1.60079 0.995336 0
M  V30 1146 C 108.123 -2.65211 2.10667 0
M  V30 1147 C 107.169 -2.66025 3.33366 0
M  V30 1148 S 108.002 -2.18609 4.88846 0
M  V30 1149 C 109.158 -3.57283 5.13906 0
M  V30 1150 H 109.391 -1.00691 2.7973 0
M  V30 1151 H 106.924 -0.409627 1.48867 0
M  V30 1152 H 108.882 -3.43979 2.24029 0
M  V30 1153 H 107.543 -2.90121 1.20369 0
M  V30 1154 H 106.736 -3.66607 3.45855 0
M  V30 1155 H 106.338 -1.95331 3.18938 0
M  V30 1156 H 108.63 -4.53074 5.03717 0
M  V30 1157 H 109.573 -3.49699 6.15724 0
M  V30 1158 H 109.981 -3.51659 4.41583 0
M  V30 1159 N 109.379 -1.50304 -0.473955 0
M  V30 1160 C 110.795 -1.37667 -0.807466 0
M  V30 1161 C 110.995 -0.430555 -1.96846 0
M  V30 1162 O 110.051 0.127874 -2.52176 0
M  V30 1163 C 111.364 -2.78974 -1.12223 0
M  V30 1164 C 112.912 -2.87868 -1.22885 0
M  V30 1165 C 113.387 -4.30003 -1.57676 0
M  V30 1166 N 114.878 -4.3294 -1.64673 0
M  V30 1167 C 115.613 -5.3991 -1.93091 0
M  V30 1168 N 115.109 -6.57092 -2.1955 0
M  V30 1169 N 116.902 -5.27351 -1.94569 0
M  V30 1170 H 109.053 -2.10394 0.291212 0
M  V30 1171 H 111.316 -0.945575 0.0677609 0
M  V30 1172 H 111.022 -3.50031 -0.342229 0
M  V30 1173 H 110.896 -3.16038 -2.05913 0
M  V30 1174 H 113.283 -2.17032 -1.99953 0
M  V30 1175 H 113.364 -2.54352 -0.271814 0
M  V30 1176 H 113.008 -5.01375 -0.81149 0
M  V30 1177 H 112.938 -4.61004 -2.54525 0
M  V30 1178 H 115.429 -3.48441 -1.46277 0
M  V30 1179 H 115.742 -7.34425 -2.405 0
M  V30 1180 H 114.087 -6.60272 -2.16948 0
M  V30 1181 H 117.278 -4.34801 -1.73394 0
M  V30 1182 H 117.451 -6.10805 -2.16381 0
M  V30 1183 N 110.857 0.726932 -1.39834 0
M  V30 1184 C 111.804 1.841 -1.39197 0
M  V30 1185 C 112.774 1.642 -0.250502 0
M  V30 1186 O 113.959 1.85494 -0.446846 0
M  V30 1187 C 111.099 3.21697 -1.24919 0
M  V30 1188 C 110.212 3.53247 -2.48678 0
M  V30 1189 C 109.347 4.80289 -2.26928 0
M  V30 1190 C 108.386 5.04707 -3.4632 0
M  V30 1191 N 107.523 6.22956 -3.23836 0
M  V30 1192 H 112.363 1.83979 -2.34427 0
M  V30 1193 H 109.9 0.898876 -1.16442 0
M  V30 1194 H 111.858 4.01137 -1.1465 0
M  V30 1195 H 110.488 3.21076 -0.333153 0
M  V30 1196 H 109.54 2.68447 -2.69519 0
M  V30 1197 H 110.852 3.67205 -3.37582 0
M  V30 1198 H 110.006 5.67725 -2.13947 0
M  V30 1199 H 108.745 4.68519 -1.35431 0
M  V30 1200 H 107.75 4.1573 -3.5979 0
M  V30 1201 H 108.975 5.18357 -4.38729 0
M  V30 1202 H 106.921 6.12459 -2.35011 0
M  V30 1203 H 106.838 6.37539 -4.063 0
M  V30 1204 H 108.106 7.1321 -3.14566 0
M  V30 1205 N 112.336 1.25143 0.95797 0
M  V30 1206 C 113.752 1.01892 1.22842 0
M  V30 1207 C 113.952 -0.266311 1.99732 0
M  V30 1208 O 113.008 -0.979913 2.3271 0
M  V30 1209 C 114.321 2.24004 2.00606 0
M  V30 1210 C 115.869 2.28731 2.13662 0
M  V30 1211 C 116.344 3.5049 2.94823 0
M  V30 1212 N 117.835 3.50866 3.02403 0
M  V30 1213 C 118.57 4.4174 3.65586 0
M  V30 1214 N 118.066 5.42882 4.30408 0
M  V30 1215 N 119.859 4.29429 3.62694 0
M  V30 1216 H 112.01 2.07718 0.443493 0
M  V30 1217 H 114.273 0.912031 0.258657 0
M  V30 1218 H 113.979 3.17395 1.51503 0
M  V30 1219 H 113.853 2.26907 3.01319 0
M  V30 1220 H 116.24 1.35865 2.61963 0
M  V30 1221 H 116.321 2.29848 1.12265 0
M  V30 1222 H 115.965 4.43676 2.47213 0
M  V30 1223 H 115.895 3.46617 3.96439 0
M  V30 1224 H 118.386 2.777 2.56302 0
M  V30 1225 H 118.699 6.0844 4.76467 0
M  V30 1226 H 117.044 5.46758 4.29047 0
M  V30 1227 H 120.235 3.49643 3.11236 0
M  V30 1228 H 120.408 5.00448 4.1165 0
M  V30 1229 N 113.814 -1.1601 1.06675 0
M  V30 1230 C 114.744 -2.22688 0.702307 0
M  V30 1231 C 115.725 -1.67306 -0.307032 0
M  V30 1232 O 116.91 -1.93352 -0.181305 0
M  V30 1233 C 114.04 -3.47178 0.092038 0
M  V30 1234 C 112.994 -4.15477 1.02777 0
M  V30 1235 C 112.32 -5.33963 0.28061 0
M  V30 1236 C 113.62 -4.66019 2.35846 0
M  V30 1237 H 115.314 -2.53429 1.59419 0
M  V30 1238 H 112.86 -1.21813 0.767961 0
M  V30 1239 H 114.813 -4.21037 -0.174814 0
M  V30 1240 H 113.537 -3.15749 -0.834877 0
M  V30 1241 H 112.196 -3.43549 1.27944 0
M  V30 1242 H 111.844 -4.98788 -0.649545 0
M  V30 1243 H 111.544 -5.806 0.904258 0
M  V30 1244 H 113.068 -6.10596 0.021396 0
M  V30 1245 H 114.482 -5.3144 2.15045 0
M  V30 1246 H 112.879 -5.23293 2.93743 0
M  V30 1247 H 113.949 -3.82023 2.98641 0
M  V30 1248 N 115.292 -0.849877 -1.32721 0
M  V30 1249 C 116.532 -0.457146 -1.99222 0
M  V30 1250 C 116.896 0.968038 -1.6581 0
M  V30 1251 O 118.097 1.46507 -2.25364 0
M  V30 1252 C 116.368 -0.683966 -3.50794 0
M  V30 1253 S 117.927 -0.388095 -4.3708 0
M  V30 1254 H 114.745 -0.171464 -0.690015 0
M  V30 1255 H 117.347 -1.10155 -1.61512 0
M  V30 1256 H 116.051 -1.72038 -3.726 0
M  V30 1257 H 115.582 -0.0258086 -3.93392 0
M  V30 1258 H 117.597 0.787791 -4.89906 0
M  V30 1259 N 116.77 1.45427 -0.607355 0
M  V30 1260 C 118.018 2.01841 -0.102253 0
M  V30 1261 C 118.339 1.47832 1.27164 0
M  V30 1262 O 117.609 0.672497 1.83995 0
M  V30 1263 H 116.189 0.746188 -0.0348101 0
M  V30 1264 H 118.851 1.78229 -0.7887 0
M  V30 1265 H 117.947 3.12057 -0.0518585 0
M  V30 1266 N 118.248 0.346503 1.53744 0
M  V30 1267 C 119.158 -0.517293 2.28826 0
M  V30 1268 C 120.174 -1.10935 1.3405 0
M  V30 1269 O 121.35 -1.1244 1.6709 0
M  V30 1270 C 118.415 -1.65098 3.04866 0
M  V30 1271 C 117.476 -1.0884 4.15274 0
M  V30 1272 C 116.709 -2.16806 4.87679 0
M  V30 1273 O 116.932 -3.3758 4.59778 0
M  V30 1274 O 115.866 -1.80934 5.74061 0
M  V30 1275 H 119.692 0.0931396 3.03557 0
M  V30 1276 H 117.277 0.111458 1.48984 0
M  V30 1277 H 119.159 -2.31053 3.5241 0
M  V30 1278 H 117.834 -2.24717 2.32989 0
M  V30 1279 H 116.741 -0.3933 3.72027 0
M  V30 1280 H 118.074 -0.537036 4.89261 0
M  V30 1281 N 119.726 -1.57421 0.075193 0
M  V30 1282 C 120.973 -1.93618 -0.593146 0
M  V30 1283 C 121.301 -0.955484 -1.69413 0
M  V30 1284 O 120.556 0.0283251 -1.9568 0
M  V30 1285 C 120.855 -3.36428 -1.20626 0
M  V30 1286 C 120.521 -4.50307 -0.231078 0
M  V30 1287 C 119.183 -4.81186 0.0371936 0
M  V30 1288 C 121.535 -5.19374 0.435888 0
M  V30 1289 C 118.863 -5.78466 0.979461 0
M  V30 1290 C 121.215 -6.17665 1.3665 0
M  V30 1291 C 119.879 -6.46958 1.6432 0
M  V30 1292 H 119.149 -0.708499 -0.217047 0
M  V30 1293 H 121.796 -1.90937 0.146793 0
M  V30 1294 H 120.101 -3.35592 -2.02201 0
M  V30 1295 H 121.798 -3.61727 -1.73073 0
M  V30 1296 H 118.388 -4.26227 -0.450357 0
M  V30 1297 H 122.572 -4.95711 0.241748 0
M  V30 1298 H 117.828 -5.99487 1.20106 0
M  V30 1299 H 122.002 -6.70284 1.88924 0
M  V30 1300 H 119.629 -7.2215 2.37494 0
M  V30 1301 N 121.204 0.198386 -1.56346 0
M  V30 1302 C 122.114 1.2664 -1.97483 0
M  V30 1303 C 123.13 1.49989 -0.882002 0
M  V30 1304 O 124.306 1.62668 -1.18748 0
M  V30 1305 C 121.371 2.59141 -2.30319 0
M  V30 1306 C 120.432 2.43892 -3.53292 0
M  V30 1307 C 119.665 3.70074 -3.84553 0
M  V30 1308 O 119.888 4.74101 -3.1715 0
M  V30 1309 O 118.822 3.658 -4.7799 0
M  V30 1310 H 122.648 0.947304 -2.88548 0
M  V30 1311 H 120.233 0.403123 -1.43859 0
M  V30 1312 H 122.115 3.37352 -2.5253 0
M  V30 1313 H 120.79 2.90684 -1.42423 0
M  V30 1314 H 119.697 1.63803 -3.36332 0
M  V30 1315 H 121.03 2.17282 -4.41644 0
M  V30 1316 N 122.682 1.50554 0.465978 0
M  V30 1317 C 123.912 1.65323 1.23903 0
M  V30 1318 C 124.32 0.338051 1.86155 0
M  V30 1319 O 123.663 -0.690518 1.70228 0
M  V30 1320 C 123.725 2.69048 2.3844 0
M  V30 1321 C 123.389 4.12462 1.96784 0
M  V30 1322 C 124.386 4.98168 1.48745 0
M  V30 1323 C 122.071 4.58407 2.05349 0
M  V30 1324 C 124.065 6.27868 1.0982 0
M  V30 1325 C 121.752 5.88112 1.66035 0
M  V30 1326 C 122.75 6.72668 1.18349 0
M  V30 1327 O 122.438 7.99951 0.795825 0
M  V30 1328 H 122.17 0.558629 0.38067 0
M  V30 1329 H 124.724 1.97561 0.562022 0
M  V30 1330 H 122.954 2.32062 3.09328 0
M  V30 1331 H 124.643 2.72985 3.0039 0
M  V30 1332 H 125.409 4.63885 1.41546 0
M  V30 1333 H 121.288 3.92735 2.41414 0
M  V30 1334 H 124.832 6.93819 0.725293 0
M  V30 1335 H 120.729 6.21914 1.72895 0
M  V30 1336 H 121.497 8.13265 0.924222 0
M  V30 1337 N 124.16 -0.719506 1.40217 0
M  V30 1338 C 125.407 -1.47933 1.38283 0
M  V30 1339 C 125.735 -1.94493 -0.0161536 0
M  V30 1340 O 124.99 -1.68224 -0.999956 0
M  V30 1341 C 125.289 -2.72271 2.31524 0
M  V30 1342 C 124.955 -2.44496 3.78857 0
M  V30 1343 C 123.617 -2.36631 4.18998 0
M  V30 1344 C 125.969 -2.21104 4.71977 0
M  V30 1345 C 123.297 -2.03437 5.503 0
M  V30 1346 C 125.649 -1.89423 6.03574 0
M  V30 1347 C 124.313 -1.80038 6.42762 0
M  V30 1348 H 123.583 -0.541325 0.506012 0
M  V30 1349 H 126.23 -0.824502 1.72842 0
M  V30 1350 H 124.535 -3.42572 1.90137 0
M  V30 1351 H 126.232 -3.30348 2.27313 0
M  V30 1352 H 122.822 -2.51503 3.47051 0
M  V30 1353 H 127.006 -2.26139 4.41786 0
M  V30 1354 H 122.262 -1.94705 5.79569 0
M  V30 1355 H 126.436 -1.70336 6.75247 0
M  V30 1356 H 124.063 -1.54083 7.44421 0
M  V30 1357 N 125.638 -1.25649 -0.95132 0
M  V30 1358 C 127.054 -1.02542 -1.223 0
M  V30 1359 C 127.254 0.255715 -1.99871 0
M  V30 1360 O 126.31 0.967558 -2.33226 0
M  V30 1361 C 127.623 -2.25065 -1.99415 0
M  V30 1362 C 129.171 -2.29861 -2.12446 0
M  V30 1363 C 129.646 -3.52048 -2.92961 0
M  V30 1364 N 131.137 -3.52465 -3.00538 0
M  V30 1365 C 131.872 -4.43672 -3.63239 0
M  V30 1366 N 131.368 -5.45157 -4.27523 0
M  V30 1367 N 133.161 -4.31346 -3.60412 0
M  V30 1368 H 125.312 -2.07951 -0.432471 0
M  V30 1369 H 127.575 -0.91339 -0.253816 0
M  V30 1370 H 127.281 -3.18194 -1.49817 0
M  V30 1371 H 127.155 -2.28502 -3.00111 0
M  V30 1372 H 129.542 -1.37252 -2.61239 0
M  V30 1373 H 129.623 -2.3044 -1.11044 0
M  V30 1374 H 129.267 -4.44981 -2.44856 0
M  V30 1375 H 129.197 -3.48715 -3.94596 0
M  V30 1376 H 131.688 -2.79056 -2.54826 0
M  V30 1377 H 132.001 -6.10958 -4.73234 0
M  V30 1378 H 130.346 -5.49025 -4.26141 0
M  V30 1379 H 133.537 -3.51288 -3.09377 0
M  V30 1380 H 133.71 -5.02624 -4.0899 0
M  V30 1381 N 127.117 1.15442 -1.07289 0
M  V30 1382 C 128.065 2.22225 -0.686952 0
M  V30 1383 C 129.059 1.66688 0.30193 0
M  V30 1384 O 130.265 1.79236 0.165712 0
M  V30 1385 H 126.64 0.723783 -0.204064 0
M  V30 1386 H 128.611 2.52056 -1.5972 0
M  V30 1387 C 127.36 3.47556 -0.100149 0
M  V30 1388 H 126.683 3.90612 -0.852211 0
M  V30 1389 H 128.123 4.23794 0.132235 0
M  V30 1390 C 126.582 3.16337 1.159 0
M  V30 1391 O 127.112 3.33074 2.24555 0
M  V30 1392 N 125.318 2.70385 1.06491 0
M  V30 1393 H 124.865 2.56966 0.180668 0
M  V30 1394 H 124.823 2.49871 1.90819 0
M  V30 1395 N 128.595 0.856903 1.32268 0
M  V30 1396 C 129.545 0.274899 2.26337 0
M  V30 1397 C 130.529 -0.580543 1.50062 0
M  V30 1398 O 131.721 -0.429559 1.71708 0
M  V30 1399 C 128.85 -0.533841 3.39124 0
M  V30 1400 C 127.936 0.334114 4.22782 0
M  V30 1401 N 128.327 1.42143 4.85416 0
M  V30 1402 C 126.625 0.124256 4.45827 0
M  V30 1403 C 127.326 1.95559 5.47843 0
M  V30 1404 N 126.302 1.25444 5.28928 0
M  V30 1405 H 130.104 1.10612 2.72291 0
M  V30 1406 H 127.618 0.703258 1.46383 0
M  V30 1407 H 129.615 -0.96722 4.05525 0
M  V30 1408 H 128.275 -1.36283 2.94715 0
M  V30 1409 H 129.286 1.80436 4.85451 0
M  V30 1410 H 125.963 -0.669837 4.12092 0
M  V30 1411 H 127.353 2.86714 6.07655 0
M  V30 1412 N 130.073 -1.45103 0.615059 0
M  V30 1413 C 131.298 -2.07064 0.117988 0
M  V30 1414 C 131.723 -1.4554 -1.19163 0
M  V30 1415 O 131.081 -0.550855 -1.72729 0
M  V30 1416 C 131.129 -3.606 -0.000288387 0
M  V30 1417 O 130.233 -3.98847 -1.04856 0
M  V30 1418 H 129.574 -0.659467 0.0774581 0
M  V30 1419 H 132.104 -1.86236 0.847186 0
M  V30 1420 H 132.114 -4.07529 -0.196091 0
M  V30 1421 H 130.789 -4.04765 0.955932 0
M  V30 1422 H 129.366 -3.63577 -0.828619 0
M  V30 1423 N 131.551 -0.354651 -1.53558 0
M  V30 1424 C 132.481 0.489091 -2.2832 0
M  V30 1425 C 133.462 1.09324 -1.30316 0
M  V30 1426 O 134.647 1.11255 -1.59173 0
M  V30 1427 C 131.777 1.63456 -3.0643 0
M  V30 1428 C 130.731 1.1582 -4.12031 0
M  V30 1429 C 130.057 2.39305 -4.7816 0
M  V30 1430 C 131.357 0.250731 -5.21698 0
M  V30 1431 H 133.051 -0.134614 -2.99097 0
M  V30 1432 H 130.597 -0.0661826 -1.43848 0
M  V30 1433 H 132.55 2.23136 -3.57475 0
M  V30 1434 H 131.274 2.28533 -2.33325 0
M  V30 1435 H 129.933 0.584146 -3.61916 0
M  V30 1436 H 129.581 3.02814 -4.01637 0
M  V30 1437 H 129.281 2.08109 -5.49513 0
M  V30 1438 H 130.805 2.99691 -5.31994 0
M  V30 1439 H 132.219 0.754695 -5.68311 0
M  V30 1440 H 130.616 0.0301468 -6.00092 0
M  V30 1441 H 131.686 -0.710125 -4.79672 0
M  V30 1442 N 133.029 1.57378 -0.0835403 0
M  V30 1443 C 133.939 2.16897 0.894021 0
M  V30 1444 C 134.955 1.13528 1.31861 0
M  V30 1445 O 136.131 1.45848 1.3889 0
M  V30 1446 C 133.196 2.72831 2.13925 0
M  V30 1447 C 132.257 3.91115 1.76997 0
M  V30 1448 C 131.49 4.44371 2.95584 0
M  V30 1449 O 131.713 3.96596 4.09961 0
M  V30 1450 O 130.647 5.35549 2.74719 0
M  V30 1451 H 134.473 3.00814 0.417679 0
M  V30 1452 H 132.058 1.48741 0.140181 0
M  V30 1453 H 133.94 3.0863 2.86924 0
M  V30 1454 H 132.615 1.91967 2.60635 0
M  V30 1455 H 131.522 3.60148 1.01214 0
M  V30 1456 H 132.855 4.73307 1.3506 0
M  V30 1457 N 134.507 -0.190092 1.56449 0
M  V30 1458 C 135.918 -0.754312 1.70784 0
M  V30 1459 C 136.269 -1.83631 0.690951 0
M  V30 1460 O 135.394 -2.15868 -0.151604 0
M  V30 1461 C 135.989 -1.37503 3.09642 0
M  V30 1462 C 134.548 -1.88628 3.25725 0
M  V30 1463 C 133.695 -0.758098 2.66736 0
M  V30 1464 H 136.646 0.0350524 1.58661 0
M  V30 1465 H 136.667 -2.2445 3.0725 0
M  V30 1466 H 136.179 -0.587302 3.83631 0
M  V30 1467 H 134.28 -2.70103 2.56661 0
M  V30 1468 H 134.393 -2.04462 4.3328 0
M  V30 1469 H 132.757 -1.17369 2.26046 0
M  V30 1470 H 133.54 0.0174705 3.43296 0
M  V30 1471 N 135.985 -1.50799 -0.457987 0
M  V30 1472 C 136.915 -1.73553 -1.5621 0
M  V30 1473 C 137.896 -0.584774 -1.59732 0
M  V30 1474 O 139.081 -0.825314 -1.7579 0
M  V30 1475 C 136.211 -1.84169 -2.94447 0
M  V30 1476 C 135.165 -2.99461 -3.0579 0
M  V30 1477 C 134.491 -2.95235 -4.45803 0
M  V30 1478 C 135.791 -4.39766 -2.81786 0
M  V30 1479 H 137.485 -2.66 -1.37421 0
M  V30 1480 H 135.031 -1.28002 -0.659662 0
M  V30 1481 H 136.984 -1.98672 -3.71628 0
M  V30 1482 H 135.708 -0.883545 -3.14422 0
M  V30 1483 H 134.367 -2.8463 -2.31044 0
M  V30 1484 H 134.015 -1.97239 -4.62715 0
M  V30 1485 H 133.715 -3.72642 -4.54326 0
M  V30 1486 H 135.239 -3.11803 -5.24987 0
M  V30 1487 H 136.653 -4.55054 -3.4871 0
M  V30 1488 H 135.05 -5.18722 -3.0174 0
M  V30 1489 H 136.12 -4.51229 -1.7754 0
M  V30 1490 N 137.463 0.71206 -1.40597 0
M  V30 1491 C 138.688 1.50617 -1.42581 0
M  V30 1492 C 139.113 1.88079 -0.0282102 0
M  V30 1493 O 138.471 1.53511 0.964579 0
M  V30 1494 C 138.519 2.7557 -2.3258 0
M  V30 1495 O 137.623 3.72414 -1.77148 0
M  V30 1496 H 136.964 0.453966 -0.484573 0
M  V30 1497 H 139.494 0.876649 -1.84868 0
M  V30 1498 H 139.504 3.2406 -2.47889 0
M  V30 1499 H 138.179 2.47639 -3.34138 0
M  V30 1500 H 136.756 3.31276 -1.71204 0
M  V30 1501 N 138.941 1.26152 0.944643 0
M  V30 1502 C 140.169 1.14259 1.72489 0
M  V30 1503 C 140.584 -0.302555 1.8636 0
M  V30 1504 O 139.941 -1.20741 1.36849 0
M  V30 1505 C 139.992 1.80266 3.13347 0
M  V30 1506 O 139.713 3.19133 3.00143 0
M  V30 1507 C 141.214 1.74283 4.07603 0
M  V30 1508 H 138.434 0.398051 0.540181 0
M  V30 1509 H 140.978 1.66706 1.18446 0
M  V30 1510 H 139.133 1.31766 3.64303 0
M  V30 1511 H 139.547 3.51744 3.89071 0
M  V30 1512 H 141.021 2.25111 5.04013 0
M  V30 1513 H 141.498 0.708631 4.33446 0
M  V30 1514 H 142.104 2.22319 3.62567 0
M  V30 1515 N 140.419 -1.14872 1.07899 0
M  V30 1516 C 141.666 -1.85789 0.805532 0
M  V30 1517 C 141.994 -1.82649 -0.668561 0
M  V30 1518 O 141.249 -1.24858 -1.50695 0
M  V30 1519 C 141.548 -3.34223 1.26609 0
M  V30 1520 C 141.214 -3.57555 2.74709 0
M  V30 1521 C 139.876 -3.63631 3.1516 0
M  V30 1522 C 142.228 -3.66803 3.70277 0
M  V30 1523 C 139.556 -3.76473 4.49983 0
M  V30 1524 C 141.908 -3.8117 5.04869 0
M  V30 1525 C 140.572 -3.85494 5.44932 0
M  V30 1526 H 139.842 -0.679849 0.294765 0
M  V30 1527 H 142.489 -1.3572 1.35101 0
M  V30 1528 H 140.794 -3.86536 0.640103 0
M  V30 1529 H 142.491 -3.87511 1.03132 0
M  V30 1530 H 139.081 -3.5347 2.42398 0
M  V30 1531 H 143.265 -3.61404 3.40149 0
M  V30 1532 H 138.521 -3.7808 4.80484 0
M  V30 1533 H 142.695 -3.87268 5.78789 0
M  V30 1534 H 140.322 -3.95197 6.49403 0
M  V30 1535 N 141.898 -0.863906 -1.31812 0
M  V30 1536 C 142.828 -0.330843 -2.31144 0
M  V30 1537 C 143.809 0.575005 -1.60087 0
M  V30 1538 O 144.994 0.493304 -1.8783 0
M  V30 1539 C 142.124 0.47374 -3.44054 0
M  V30 1540 C 141.078 -0.338481 -4.26659 0
M  V30 1541 C 140.404 0.591412 -5.31419 0
M  V30 1542 C 141.704 -1.56926 -4.98168 0
M  V30 1543 H 143.398 -1.16086 -2.75979 0
M  V30 1544 H 140.944 -0.559657 -1.32679 0
M  V30 1545 H 142.897 0.857143 -4.12591 0
M  V30 1546 H 141.621 1.33721 -2.9797 0
M  V30 1547 H 140.28 -0.703754 -3.59782 0
M  V30 1548 H 139.928 1.45199 -4.81587 0
M  V30 1549 H 139.628 0.0519022 -5.87577 0
M  V30 1550 H 141.152 0.97179 -6.02817 0
M  V30 1551 H 142.566 -1.25764 -5.59336 0
M  V30 1552 H 140.963 -2.04739 -5.64094 0
M  V30 1553 H 142.033 -2.32544 -4.25501 0
M  V30 1554 N 143.376 1.44774 -0.622745 0
M  V30 1555 C 144.604 2.06487 -0.130722 0
M  V30 1556 C 145.019 1.46476 1.19123 0
M  V30 1557 O 144.376 0.584502 1.72887 0
M  V30 1558 C 144.427 3.615 -0.000807207 0
M  V30 1559 O 144.148 4.19274 -1.27048 0
M  V30 1560 C 145.649 4.40229 0.520898 0
M  V30 1561 H 142.869 0.666704 -0.0758106 0
M  V30 1562 H 145.413 1.85779 -0.854774 0
M  V30 1563 H 143.568 3.81498 0.673643 0
M  V30 1564 H 143.982 5.12622 -1.1099 0
M  V30 1565 H 145.456 5.49144 0.560838 0
M  V30 1566 H 145.933 4.1108 1.54627 0
M  V30 1567 H 146.539 4.25131 -0.120018 0
M  V30 1568 N 144.854 0.36279 1.53368 0
M  V30 1569 C 146.084 -0.228281 2.05335 0
M  V30 1570 C 146.492 -1.43226 1.23625 0
M  V30 1571 O 145.835 -1.81717 0.269206 0
M  V30 1572 C 145.897 -0.688549 3.52845 0
M  V30 1573 C 145.561 0.398362 4.5526 0
M  V30 1574 C 146.558 1.24732 5.04716 0
M  V30 1575 C 144.243 0.557805 4.99193 0
M  V30 1576 C 146.237 2.2411 5.96702 0
M  V30 1577 C 143.924 1.55495 5.90986 0
M  V30 1578 C 144.922 2.39503 6.39631 0
M  V30 1579 O 144.61 3.37517 7.29615 0
M  V30 1580 H 144.342 -0.044395 0.674541 0
M  V30 1581 H 146.896 0.518668 1.98744 0
M  V30 1582 H 145.126 -1.48706 3.56964 0
M  V30 1583 H 146.815 -1.20231 3.87685 0
M  V30 1584 H 147.581 1.13532 4.71525 0
M  V30 1585 H 143.46 -0.0862959 4.60919 0
M  V30 1586 H 147.004 2.89718 6.34594 0
M  V30 1587 H 142.901 1.66744 6.23592 0
M  V30 1588 H 143.669 3.33213 7.47604 0
M  V30 1589 N 146.332 -1.57332 0.0918853 0
M  V30 1590 C 147.265 -2.09499 -0.904735 0
M  V30 1591 C 148.243 -1.00479 -1.27839 0
M  V30 1592 O 149.427 -1.27954 -1.38419 0
M  V30 1593 C 146.554 -2.56931 -2.2069 0
M  V30 1594 C 145.6 -3.77579 -1.98334 0
M  V30 1595 S 146.433 -5.21317 -1.22428 0
M  V30 1596 C 147.589 -5.72097 -2.53882 0
M  V30 1597 H 147.822 -2.93705 -0.460922 0
M  V30 1598 H 145.355 -1.53923 -0.121332 0
M  V30 1599 H 147.313 -2.84917 -2.95521 0
M  V30 1600 H 145.974 -1.72956 -2.62192 0
M  V30 1601 H 145.167 -4.08824 -2.94752 0
M  V30 1602 H 144.769 -3.5007 -1.31633 0
M  V30 1603 H 147.061 -5.80168 -3.49874 0
M  V30 1604 H 148.004 -6.70654 -2.27219 0
M  V30 1605 H 148.412 -5.00012 -2.62007 0
M  V30 1606 N 147.81 0.181792 -1.56548 0
M  V30 1607 C 149.038 0.915947 -1.85521 0
M  V30 1608 C 149.453 1.76282 -0.676016 0
M  V30 1609 O 148.81 1.79012 0.355077 0
M  V30 1610 C 148.861 1.80126 -3.13427 0
M  V30 1611 O 148.582 0.988562 -4.26801 0
M  V30 1612 C 150.083 2.64597 -3.55673 0
M  V30 1613 H 147.303 0.26661 -0.61576 0
M  V30 1614 H 149.847 0.185039 -2.03661 0
M  V30 1615 H 148.002 2.48563 -2.97145 0
M  V30 1616 H 148.416 1.59308 -4.99721 0
M  V30 1617 H 149.89 3.2235 -4.48101 0
M  V30 1618 H 150.367 3.38958 -2.79292 0
M  V30 1619 H 150.973 2.0151 -3.74532 0
M  V30 1620 N 149.288 1.51039 0.449983 0
M  V30 1621 C 150.528 1.64732 1.21007 0
M  V30 1622 C 150.892 0.349865 1.88785 0
M  V30 1623 O 152.093 0.362431 2.66345 0
M  V30 1624 C 150.364 2.80902 2.20973 0
M  V30 1625 S 151.923 3.14851 3.05638 0
M  V30 1626 H 148.741 0.5805 0.410538 0
M  V30 1627 H 151.343 1.88901 0.503634 0
M  V30 1628 H 150.047 3.73627 1.69796 0
M  V30 1629 H 149.578 2.58882 2.96215 0
M  V30 1630 H 151.593 2.60306 4.22439 0
M  V30 1631 N 150.766 -0.704594 1.40972 0
M  V30 1632 C 151.991 -1.49858 1.43378 0
M  V30 1633 C 152.416 -1.88061 0.038184 0
M  V30 1634 O 151.774 -1.5402 -0.956425 0
M  V30 1635 C 151.822 -2.74333 2.34038 0
M  V30 1636 O 150.926 -3.7147 1.7912 0
M  V30 1637 H 150.267 -0.45139 0.486974 0
M  V30 1638 H 152.797 -0.866832 1.8533 0
M  V30 1639 H 152.807 -3.22741 2.49604 0
M  V30 1640 H 151.482 -2.45863 3.35446 0
M  V30 1641 H 150.059 -3.30363 1.72958 0
M  V30 1642 N 152.244 -1.26651 -0.937939 0
M  V30 1643 C 153.474 -1.15006 -1.71631 0
M  V30 1644 C 153.882 0.297026 -1.86854 0
M  V30 1645 O 153.225 1.21493 -1.37786 0
M  V30 1646 C 153.287 -1.74984 -3.14039 0
M  V30 1647 C 152.951 -3.24103 -3.2219 0
M  V30 1648 C 153.948 -4.20877 -3.05219 0
M  V30 1649 C 151.633 -3.64625 -3.45476 0
M  V30 1650 C 153.627 -5.56151 -3.11408 0
M  V30 1651 C 151.314 -5.00032 -3.513 0
M  V30 1652 C 152.312 -5.95604 -3.34282 0
M  V30 1653 O 152 -7.28545 -3.3982 0
M  V30 1654 H 151.732 -0.401183 -0.544085 0
M  V30 1655 H 154.286 -1.67832 -1.18413 0
M  V30 1656 H 152.516 -1.16624 -3.68695 0
M  V30 1657 H 154.205 -1.58199 -3.73802 0
M  V30 1658 H 154.971 -3.90908 -2.87081 0
M  V30 1659 H 150.85 -2.90718 -3.57777 0
M  V30 1660 H 154.394 -6.30727 -2.98043 0
M  V30 1661 H 150.291 -5.29659 -3.68959 0
M  V30 1662 H 151.059 -7.3686 -3.56343 0
M  V30 1663 N 153.722 1.14298 -1.08507 0
M  V30 1664 C 154.655 2.18447 -0.660004 0
M  V30 1665 C 155.633 1.59242 0.328749 0
M  V30 1666 O 156.817 1.87062 0.232367 0
M  V30 1667 C 153.944 3.38688 0.0290807 0
M  V30 1668 C 152.99 4.1646 -0.919982 0
M  V30 1669 S 153.823 4.77334 -2.42718 0
M  V30 1670 C 154.979 6.00931 -1.75024 0
M  V30 1671 H 155.212 2.54166 -1.54231 0
M  V30 1672 H 152.745 1.25446 -0.900149 0
M  V30 1673 H 154.703 4.08342 0.420378 0
M  V30 1674 H 153.364 3.01289 0.887895 0
M  V30 1675 H 152.557 5.02529 -0.384751 0
M  V30 1676 H 152.159 3.52414 -1.25223 0
M  V30 1677 H 154.451 6.69017 -1.06877 0
M  V30 1678 H 155.394 6.59044 -2.58971 0
M  V30 1679 H 155.802 5.51089 -1.22317 0
M  V30 1680 N 155.201 0.870884 1.31352 0
M  V30 1681 C 156.45 0.478408 1.95944 0
M  V30 1682 C 156.763 -0.974493 1.69597 0
M  V30 1683 O 157.969 -1.47316 2.28058 0
M  V30 1684 C 156.425 0.804609 3.50791 0
M  V30 1685 C 156.033 2.27433 3.85977 0
M  V30 1686 C 157.777 0.480648 4.2177 0
M  V30 1687 C 155.684 2.5429 5.33939 0
M  V30 1688 H 154.614 0.175175 0.733369 0
M  V30 1689 H 157.265 1.06391 1.4951 0
M  V30 1690 H 155.647 0.148347 3.95722 0
M  V30 1691 H 156.821 2.97373 3.52002 0
M  V30 1692 H 155.136 2.56442 3.28065 0
M  V30 1693 H 157.733 0.658519 5.30629 0
M  V30 1694 H 158.076 -0.578979 4.12254 0
M  V30 1695 H 158.609 1.09349 3.82476 0
M  V30 1696 H 155.348 3.58939 5.48491 0
M  V30 1697 H 154.868 1.88945 5.69263 0
M  V30 1698 H 156.547 2.39066 6.01212 0
M  V30 1699 N 156.679 -1.44442 0.630414 0
M  V30 1700 C 157.956 -1.9549 0.0655657 0
M  V30 1701 C 158.336 -1.5724 -1.40851 0
M  V30 1702 O 157.684 -0.846116 -2.12257 0
M  V30 1703 C 157.894 -3.47812 0.287691 0
M  V30 1704 C 159.242 -4.24216 0.180513 0
M  V30 1705 O 160.266 -3.55526 0.219019 0
M  V30 1706 O 159.125 -5.46434 0.0848493 0
M  V30 1707 H 156.219 -0.826688 -0.0227177 0
M  V30 1708 H 158.765 -1.54496 0.702068 0
M  V30 1709 H 157.537 -3.687 1.31056 0
M  V30 1710 H 157.16 -3.95751 -0.382984 0
M  V30 1711 N 158.157 -0.370918 -1.53173 0
M  V30 1712 C 159.105 0.488101 -2.27421 0
M  V30 1713 C 160.099 1.07884 -1.30604 0
M  V30 1714 O 161.305 1.02143 -1.48212 0
M  V30 1715 H 157.68 0.176134 -0.731082 0
M  V30 1716 H 159.651 -0.159815 -2.97972 0
M  V30 1717 C 158.4 1.61306 -3.08019 0
M  V30 1718 H 157.723 1.1678 -3.82364 0
M  V30 1719 H 159.163 2.18872 -3.63141 0
M  V30 1720 C 157.622 2.55848 -2.19188 0
M  V30 1721 O 158.152 3.58799 -1.80626 0
M  V30 1722 N 156.358 2.2516 -1.83715 0
M  V30 1723 H 155.905 1.41476 -2.15273 0
M  V30 1724 H 155.863 2.8867 -1.24567 0
M  V30 1725 N 159.635 1.57281 -0.100228 0
M  V30 1726 C 160.881 1.94826 0.563101 0
M  V30 1727 C 161.214 0.982475 1.67514 0
M  V30 1728 O 160.489 0.0164069 1.94493 0
M  V30 1729 C 160.772 3.42453 1.11346 0
M  V30 1730 C 160.625 4.498 0.00612081 0
M  V30 1731 C 161.944 3.91506 2.01024 0
M  V30 1732 H 159.063 0.708428 0.203221 0
M  V30 1733 H 161.705 1.8922 -0.171979 0
M  V30 1734 H 159.855 3.47361 1.7399 0
M  V30 1735 H 161.527 4.57 -0.628357 0
M  V30 1736 H 159.77 4.28756 -0.659581 0
M  V30 1737 H 160.441 5.50306 0.432109 0
M  V30 1738 H 162.917 3.88784 1.48278 0
M  V30 1739 H 161.793 4.95358 2.36457 0
M  V30 1740 H 162.054 3.31099 2.92961 0
M  V30 1741 N 161.113 -0.173488 1.56642 0
M  V30 1742 C 162.362 -0.888758 1.81063 0
M  V30 1743 C 162.675 -1.83506 0.67712 0
M  V30 1744 O 163.881 -2.59254 0.806206 0
M  V30 1745 C 162.337 -1.63091 3.20826 0
M  V30 1746 C 161.945 -0.728357 4.4204 0
M  V30 1747 C 163.689 -2.33454 3.54541 0
M  V30 1748 C 161.596 -1.47062 5.72823 0
M  V30 1749 H 160.526 -0.335618 0.675186 0
M  V30 1750 H 163.177 -0.141712 1.82952 0
M  V30 1751 H 161.559 -2.42263 3.13248 0
M  V30 1752 H 162.733 0.0262449 4.60793 0
M  V30 1753 H 161.048 -0.134492 4.16183 0
M  V30 1754 H 163.645 -2.89578 4.49498 0
M  V30 1755 H 163.988 -3.08687 2.79317 0
M  V30 1756 H 164.521 -1.61227 3.63663 0
M  V30 1757 H 161.26 -0.760658 6.51072 0
M  V30 1758 H 160.78 -2.1986 5.58052 0
M  V30 1759 H 162.459 -2.01868 6.14702 0
M  V30 1760 N 162.591 -1.51276 -0.441967 0
M  V30 1761 C 163.521 -1.752 -1.54361 0
M  V30 1762 C 164.502 -0.601682 -1.59103 0
M  V30 1763 O 165.687 -0.843913 -1.74905 0
M  V30 1764 C 162.817 -1.87282 -2.92477 0
M  V30 1765 C 161.771 -3.02687 -3.02596 0
M  V30 1766 C 161.097 -2.99947 -4.42647 0
M  V30 1767 C 162.397 -4.4273 -2.77106 0
M  V30 1768 H 164.091 -2.67442 -1.34592 0
M  V30 1769 H 161.637 -1.28694 -0.646048 0
M  V30 1770 H 163.59 -2.02602 -3.695 0
M  V30 1771 H 162.314 -0.916844 -3.13467 0
M  V30 1772 H 160.973 -2.87065 -2.28012 0
M  V30 1773 H 160.621 -2.02136 -4.60597 0
M  V30 1774 H 160.321 -3.77439 -4.50348 0
M  V30 1775 H 161.845 -3.17354 -5.2165 0
M  V30 1776 H 163.259 -4.58727 -3.43864 0
M  V30 1777 H 161.656 -5.21893 -2.96222 0
M  V30 1778 H 162.726 -4.53087 -1.72744 0
M  V30 1779 N 164.069 0.697108 -1.41344 0
M  V30 1780 C 164.999 1.82353 -1.45841 0
M  V30 1781 C 165.98 1.67115 -0.317247 0
M  V30 1782 O 167.165 1.86871 -0.528474 0
M  V30 1783 C 164.295 3.20476 -1.33838 0
M  V30 1784 C 163.249 3.50415 -2.4575 0
M  V30 1785 C 162.575 4.87878 -2.18813 0
M  V30 1786 C 163.875 3.49546 -3.88091 0
M  V30 1787 H 165.569 1.78846 -2.40113 0
M  V30 1788 H 163.115 0.859028 -1.15571 0
M  V30 1789 H 165.068 3.98988 -1.35596 0
M  V30 1790 H 163.792 3.24604 -0.360498 0
M  V30 1791 H 162.451 2.74253 -2.43271 0
M  V30 1792 H 162.099 4.8863 -1.19371 0
M  V30 1793 H 161.799 5.08875 -2.93803 0
M  V30 1794 H 163.323 5.68702 -2.22284 0
M  V30 1795 H 164.737 4.18066 -3.92293 0
M  V30 1796 H 163.134 3.82075 -4.62751 0
M  V30 1797 H 164.204 2.48552 -4.16353 0
M  V30 1798 N 165.547 1.27147 0.931209 0
M  V30 1799 C 166.48 1.0389 2.0318 0
M  V30 1800 C 167.458 -0.0395716 1.62552 0
M  V30 1801 O 168.642 0.104867 1.88208 0
M  V30 1802 C 165.769 0.575227 3.3378 0
M  V30 1803 C 164.815 1.64774 3.93385 0
M  V30 1804 S 165.648 3.23933 4.26413 0
M  V30 1805 C 166.804 2.79358 5.60098 0
M  V30 1806 H 167.037 1.97075 2.22596 0
M  V30 1807 H 164.57 1.10938 1.07387 0
M  V30 1808 H 166.528 0.314385 4.09294 0
M  V30 1809 H 165.189 -0.336505 3.12292 0
M  V30 1810 H 164.382 1.27454 4.87618 0
M  V30 1811 H 163.984 1.86048 3.24441 0
M  V30 1812 H 166.276 2.24443 6.39243 0
M  V30 1813 H 167.219 3.72322 6.02314 0
M  V30 1814 H 167.627 2.1861 5.20452 0
M  V30 1815 N 167.025 -1.13721 1.09112 0
M  V30 1816 C 167.973 -2.21103 0.722219 0
M  V30 1817 C 168.967 -1.67147 -0.275374 0
M  V30 1818 O 170.173 -1.79477 -0.137176 0
M  V30 1819 H 166.548 -0.720445 0.215553 0
M  V30 1820 H 168.519 -2.49483 1.63709 0
M  V30 1821 C 167.268 -3.47352 0.15543 0
M  V30 1822 H 166.591 -3.89206 0.914246 0
M  V30 1823 H 168.031 -4.2395 -0.0647967 0
M  V30 1824 C 166.49 -3.1814 -1.10852 0
M  V30 1825 O 167.02 -3.36604 -2.19227 0
M  V30 1826 N 165.226 -2.72045 -1.02176 0
M  V30 1827 H 164.773 -2.57221 -0.139764 0
M  V30 1828 H 164.731 -2.52875 -1.8682 0
M  V30 1829 N 168.503 -0.877838 -1.30888 0
M  V30 1830 C 169.751 -0.491723 -1.96027 0
M  V30 1831 C 170.072 0.960827 -1.69685 0
M  V30 1832 O 169.342 1.67462 -1.01654 0
M  V30 1833 H 167.922 -0.17885 -0.725273 0
M  V30 1834 H 170.584 -1.11935 -1.59551 0
M  V30 1835 H 169.68 -0.656016 -3.05128 0
M  V30 1836 N 169.982 1.44106 -0.638065 0
M  V30 1837 C 170.945 2.29138 0.0531013 0
M  V30 1838 C 171.945 1.41409 0.765506 0
M  V30 1839 O 173.135 1.63206 0.609046 0
M  V30 1840 C 170.267 3.23144 1.08584 0
M  V30 1841 H 171.46 2.91739 -0.694883 0
M  V30 1842 H 169.013 1.51134 -0.398538 0
M  V30 1843 H 169.748 2.65408 1.86357 0
M  V30 1844 H 169.533 3.87804 0.578852 0
M  V30 1845 H 171.023 3.87004 1.56899 0
M  V30 1846 N 171.46 0.379036 1.52974 0
M  V30 1847 C 172.39 -0.452706 2.29069 0
M  V30 1848 C 173.371 -1.07237 1.32039 0
M  V30 1849 O 174.556 -1.08708 1.60923 0
M  V30 1850 C 171.686 -1.5856 3.08992 0
M  V30 1851 C 170.64 -1.0925 4.13822 0
M  V30 1852 C 169.966 -2.31668 4.81907 0
M  V30 1853 C 171.266 -0.167702 5.22031 0
M  V30 1854 H 172.96 0.182181 2.98845 0
M  V30 1855 H 170.506 0.0890592 1.43724 0
M  V30 1856 H 172.459 -2.1742 3.6098 0
M  V30 1857 H 171.183 -2.24792 2.36931 0
M  V30 1858 H 169.842 -0.526494 3.628 0
M  V30 1859 H 169.49 -2.96386 4.06404 0
M  V30 1860 H 169.19 -1.9934 5.52754 0
M  V30 1861 H 170.714 -2.91189 5.36695 0
M  V30 1862 H 172.128 -0.664186 5.6944 0
M  V30 1863 H 170.525 0.0653265 6.00064 0
M  V30 1864 H 171.595 0.786347 4.78482 0
M  V30 1865 N 172.938 -1.57226 0.108567 0
M  V30 1866 C 173.87 -2.11809 -0.875752 0
M  V30 1867 C 174.883 -1.05839 -1.23701 0
M  V30 1868 O 176.072 -1.33245 -1.18778 0
M  V30 1869 C 173.172 -2.59411 -2.18081 0
M  V30 1870 C 172.345 -3.89364 -1.99284 0
M  V30 1871 C 171.404 -4.22672 -3.13424 0
M  V30 1872 O 170.43 -4.91668 -2.86795 0
M  V30 1873 N 171.632 -3.79154 -4.3957 0
M  V30 1874 H 174.397 -2.9689 -0.409477 0
M  V30 1875 H 171.958 -1.61721 -0.076158 0
M  V30 1876 H 173.95 -2.7873 -2.93414 0
M  V30 1877 H 172.52 -1.79268 -2.5609 0
M  V30 1878 H 171.74 -3.79059 -1.08203 0
M  V30 1879 H 173.028 -4.74358 -1.84017 0
M  V30 1880 H 172.426 -3.23486 -4.64083 0
M  V30 1881 H 170.983 -4.03602 -5.11809 0
M  V30 1882 N 174.416 0.165178 -1.56732 0
M  V30 1883 C 175.363 1.2044 -1.96883 0
M  V30 1884 C 176.333 1.43664 -0.833657 0
M  V30 1885 O 177.518 1.56302 -1.09427 0
M  V30 1886 C 174.658 2.53727 -2.33916 0
M  V30 1887 C 173.771 2.3783 -3.6064 0
M  V30 1888 C 172.906 3.64026 -3.86857 0
M  V30 1889 C 171.945 3.43088 -5.06909 0
M  V30 1890 N 171.082 4.61369 -5.29229 0
M  V30 1891 H 175.922 0.854996 -2.85471 0
M  V30 1892 H 173.459 0.41076 -1.41249 0
M  V30 1893 H 175.417 3.31419 -2.53411 0
M  V30 1894 H 174.047 2.8665 -1.48431 0
M  V30 1895 H 173.099 1.51282 -3.49024 0
M  V30 1896 H 174.411 2.18308 -4.4849 0
M  V30 1897 H 173.565 4.50152 -4.06753 0
M  V30 1898 H 172.304 3.86533 -2.97394 0
M  V30 1899 H 171.309 2.55349 -4.86906 0
M  V30 1900 H 172.534 3.21997 -5.97909 0
M  V30 1901 H 170.48 4.84084 -4.42718 0
M  V30 1902 H 170.397 4.44783 -6.11313 0
M  V30 1903 H 171.665 5.48761 -5.53608 0
M  V30 1904 N 175.894 1.51508 0.433938 0
M  V30 1905 C 176.841 1.73068 1.52696 0
M  V30 1906 C 177.811 0.572441 1.55924 0
M  V30 1907 O 178.996 0.807253 1.72882 0
M  V30 1908 C 176.136 1.86474 2.90381 0
M  V30 1909 C 175.249 3.14037 2.96656 0
M  V30 1910 C 174.384 3.18019 4.25485 0
M  V30 1911 C 173.423 4.39882 4.2564 0
M  V30 1912 N 172.56 4.41394 5.45999 0
M  V30 1913 H 177.4 2.66366 1.33615 0
M  V30 1914 H 174.937 1.32008 0.649018 0
M  V30 1915 H 176.895 1.92229 3.70275 0
M  V30 1916 H 175.525 0.965809 3.08013 0
M  V30 1917 H 174.577 3.17575 2.09404 0
M  V30 1918 H 175.889 4.0394 2.92633 0
M  V30 1919 H 175.043 3.22708 5.13755 0
M  V30 1920 H 173.782 2.2601 4.3217 0
M  V30 1921 H 172.787 4.35366 3.35763 0
M  V30 1922 H 174.012 5.33159 4.20617 0
M  V30 1923 H 171.958 3.52258 5.53399 0
M  V30 1924 H 171.875 5.25111 5.4387 0
M  V30 1925 H 173.143 4.50281 6.36292 0
M  V30 1926 N 177.372 -0.689602 1.41712 0
M  V30 1927 C 178.597 -1.48329 1.44959 0
M  V30 1928 C 179.022 -1.8801 0.0581283 0
M  V30 1929 O 178.38 -1.55026 -0.940035 0
M  V30 1930 C 178.428 -2.71835 2.36935 0
M  V30 1931 O 177.532 -3.69549 1.8305 0
M  V30 1932 H 176.873 -0.446199 0.491734 0
M  V30 1933 H 179.403 -0.847127 1.86239 0
M  V30 1934 H 179.413 -3.20076 2.53013 0
M  V30 1935 H 178.088 -2.42291 3.38035 0
M  V30 1936 H 176.665 -3.2851 1.76452 0
M  V30 1937 N 178.85 -1.27639 -0.924453 0
M  V30 1938 C 180.096 -1.14336 -1.67497 0
M  V30 1939 C 180.429 0.309465 -1.91718 0
M  V30 1940 O 179.704 1.22608 -1.50989 0
M  V30 1941 C 179.987 -1.93096 -3.0395 0
M  V30 1942 C 179.84 -3.46381 -2.8695 0
M  V30 1943 C 181.159 -1.73798 -4.0433 0
M  V30 1944 H 178.278 -0.416728 -0.607871 0
M  V30 1945 H 180.92 -1.56832 -1.07256 0
M  V30 1946 H 179.07 -1.56982 -3.55372 0
M  V30 1947 H 180.742 -3.92343 -2.42621 0
M  V30 1948 H 178.985 -3.72557 -2.22225 0
M  V30 1949 H 179.656 -3.96735 -3.83804 0
M  V30 1950 H 182.132 -2.05293 -3.61931 0
M  V30 1951 H 181.008 -2.31294 -4.97789 0
M  V30 1952 H 181.269 -0.686725 -4.36734 0
M  V30 1953 N 180.328 1.1314 -1.09713 0
M  V30 1954 C 181.275 2.18642 -0.739196 0
M  V30 1955 C 182.245 1.63706 0.280978 0
M  V30 1956 O 183.43 1.90111 0.161946 0
M  V30 1957 C 180.57 3.44685 -0.169102 0
M  V30 1958 C 179.683 4.13711 -1.24367 0
M  V30 1959 C 178.818 5.27379 -0.636019 0
M  V30 1960 C 177.857 5.88259 -1.69169 0
M  V30 1961 N 176.994 6.93352 -1.10485 0
M  V30 1962 H 181.834 2.48607 -1.64312 0
M  V30 1963 H 179.371 1.22066 -0.820875 0
M  V30 1964 H 181.329 4.16815 0.179256 0
M  V30 1965 H 179.959 3.15161 0.698079 0
M  V30 1966 H 179.011 3.39835 -1.70927 0
M  V30 1967 H 180.323 4.55037 -2.04311 0
M  V30 1968 H 179.477 6.06238 -0.236677 0
M  V30 1969 H 178.216 4.8731 0.194928 0
M  V30 1970 H 177.221 5.08092 -2.10055 0
M  V30 1971 H 178.446 6.30399 -2.52536 0
M  V30 1972 H 176.392 6.55335 -0.295234 0
M  V30 1973 H 176.309 7.33236 -1.84121 0
M  V30 1974 H 177.577 7.76057 -0.73181 0
M  V30 1975 N 181.806 0.884767 1.30421 0
M  V30 1976 C 182.716 0.355398 2.31892 0
M  V30 1977 C 183.732 -0.542261 1.65335 0
M  V30 1978 O 184.908 -0.435432 1.96637 0
M  V30 1979 C 181.973 -0.421661 3.44126 0
M  V30 1980 C 181.034 0.505727 4.26311 0
M  V30 1981 C 180.267 -0.234343 5.33185 0
M  V30 1982 O 180.49 -1.46045 5.51386 0
M  V30 1983 O 179.424 0.415443 6.00465 0
M  V30 1984 H 183.25 1.19685 2.79122 0
M  V30 1985 H 180.835 0.648596 1.34587 0
M  V30 1986 H 182.717 -0.861641 4.12497 0
M  V30 1987 H 181.392 -1.23942 2.99032 0
M  V30 1988 H 180.299 0.994513 3.60639 0
M  V30 1989 H 181.632 1.28948 4.75009 0
M  V30 1990 N 183.284 -1.43765 0.645699 0
M  V30 1991 C 184.533 -2.01116 0.153412 0
M  V30 1992 C 184.846 -1.51493 -1.23731 0
M  V30 1993 O 186.052 -2.01067 -1.8244 0
M  V30 1994 C 184.508 -3.59206 0.223473 0
M  V30 1995 C 184.116 -4.17823 1.61642 0
M  V30 1996 C 185.86 -4.23972 -0.211597 0
M  V30 1997 C 183.767 -5.68183 1.64081 0
M  V30 1998 H 182.697 -0.752093 0.0535891 0
M  V30 1999 H 185.348 -1.6482 0.806633 0
M  V30 2000 H 183.73 -3.92867 -0.497118 0
M  V30 2001 H 184.904 -3.95674 2.36176 0
M  V30 2002 H 183.219 -3.65399 1.99681 0
M  V30 2003 H 185.816 -5.34275 -0.213112 0
M  V30 2004 H 186.159 -3.97352 -1.24165 0
M  V30 2005 H 186.692 -3.95166 0.456988 0
M  V30 2006 H 183.431 -5.99559 2.64971 0
M  V30 2007 H 182.951 -5.9241 0.938611 0
M  V30 2008 H 184.63 -6.32085 1.3812 0
M  V30 2009 N 184.763 -0.387143 -1.52771 0
M  V30 2010 C 185.693 0.440551 -2.29306 0
M  V30 2011 C 186.674 1.06535 -1.32606 0
M  V30 2012 O 187.859 1.07853 -1.61497 0
M  V30 2013 C 184.989 1.56919 -3.09829 0
M  V30 2014 C 183.943 1.07054 -4.14395 0
M  V30 2015 C 183.269 2.29109 -4.83129 0
M  V30 2016 C 184.569 0.140015 -5.22112 0
M  V30 2017 H 186.263 -0.198026 -2.98744 0
M  V30 2018 H 183.809 -0.09668 -1.43675 0
M  V30 2019 H 185.762 2.15503 -3.62128 0
M  V30 2020 H 184.486 2.23532 -2.3812 0
M  V30 2021 H 183.145 0.507247 -3.63074 0
M  V30 2022 H 182.793 2.94227 -4.0797 0
M  V30 2023 H 182.493 1.96406 -5.53804 0
M  V30 2024 H 184.017 2.88339 -5.38231 0
M  V30 2025 H 185.431 0.633978 -5.69784 0
M  V30 2026 H 183.828 -0.0971485 -6.00021 0
M  V30 2027 H 184.898 -0.811711 -4.78058 0
M  V30 2028 N 186.241 1.57166 -0.116904 0
M  V30 2029 C 187.489 1.94737 0.540533 0
M  V30 2030 C 187.81 1.00096 1.67349 0
M  V30 2031 O 187.08 0.0568854 1.95817 0
M  V30 2032 H 185.66 0.718981 0.202669 0
M  V30 2033 H 188.322 1.94017 -0.185353 0
M  V30 2034 H 187.418 2.97719 0.936483 0
M  V30 2035 N 187.719 -0.156864 1.56817 0
M  V30 2036 C 188.666 -1.19394 1.97519 0
M  V30 2037 C 189.636 -1.4322 0.841265 0
M  V30 2038 O 190.821 -1.55719 1.10255 0
M  V30 2039 C 187.961 -2.52483 2.35258 0
M  V30 2040 C 187.074 -2.35914 3.61896 0
M  V30 2041 C 186.209 -3.61969 3.88782 0
M  V30 2042 C 185.248 -3.40395 5.08722 0
M  V30 2043 N 184.385 -4.58556 5.31668 0
M  V30 2044 H 189.225 -0.839845 2.85921 0
M  V30 2045 H 186.762 -0.403264 1.41464 0
M  V30 2046 H 188.72 -3.30071 2.55165 0
M  V30 2047 H 187.35 -2.85859 1.49949 0
M  V30 2048 H 186.402 -1.49429 3.49821 0
M  V30 2049 H 187.714 -2.15926 4.49641 0
M  V30 2050 H 186.868 -4.47989 4.09135 0
M  V30 2051 H 185.607 -3.84951 2.9944 0
M  V30 2052 H 184.612 -2.52763 4.88253 0
M  V30 2053 H 185.837 -3.18822 5.99608 0
M  V30 2054 H 183.783 -4.81729 4.45279 0
M  V30 2055 H 183.7 -4.41535 6.13664 0
M  V30 2056 H 184.968 -5.45817 5.5651 0
M  V30 2057 N 189.197 -1.51736 -0.425897 0
M  V30 2058 C 190.437 -1.66636 -1.18371 0
M  V30 2059 C 190.801 -0.379854 -1.88205 0
M  V30 2060 O 192.002 -0.404758 -2.65735 0
M  V30 2061 C 190.273 -2.84382 -2.16476 0
M  V30 2062 S 191.832 -3.19673 -3.0059 0
M  V30 2063 H 188.65 -0.586957 -0.40125 0
M  V30 2064 H 191.252 -1.89679 -0.473518 0
M  V30 2065 H 189.956 -3.76281 -1.63831 0
M  V30 2066 H 189.487 -2.63562 -2.92059 0
M  V30 2067 H 191.502 -2.66994 -4.18245 0
M  V30 2068 N 190.675 0.682077 -1.42076 0
M  V30 2069 C 191.625 1.78823 -1.41444 0
M  V30 2070 C 192.609 1.58323 -0.28681 0
M  V30 2071 O 193.801 1.68926 -0.528498 0
M  V30 2072 C 190.93 3.17232 -1.3122 0
M  V30 2073 C 190.016 3.4338 -2.489 0
M  V30 2074 N 190.407 3.40152 -3.7434 0
M  V30 2075 C 188.705 3.73986 -2.43003 0
M  V30 2076 C 189.406 3.65581 -4.52466 0
M  V30 2077 N 188.382 3.85989 -3.8277 0
M  V30 2078 H 192.184 1.7471 -2.36334 0
M  V30 2079 H 189.698 0.882622 -1.36321 0
M  V30 2080 H 191.695 3.96489 -1.2885 0
M  V30 2081 H 190.355 3.22547 -0.373263 0
M  V30 2082 H 191.366 3.20221 -4.07037 0
M  V30 2083 H 188.043 3.86591 -1.57651 0
M  V30 2084 H 189.433 3.69108 -5.61435 0
M  V30 2085 N 192.153 1.28127 0.917671 0
M  V30 2086 C 193.564 1.13622 1.48145 0
M  V30 2087 C 193.915 -0.275207 1.9426 0
M  V30 2088 O 193.04 -1.1691 1.82102 0
M  V30 2089 C 193.635 2.05648 2.69248 0
M  V30 2090 C 192.194 1.95219 3.21818 0
M  V30 2091 C 191.341 1.97618 1.94532 0
M  V30 2092 H 194.292 1.40874 0.730772 0
M  V30 2093 H 194.313 1.61818 3.44377 0
M  V30 2094 H 193.825 3.08365 2.35653 0
M  V30 2095 H 191.926 0.955244 3.60147 0
M  V30 2096 H 192.039 2.81976 3.87333 0
M  V30 2097 H 190.403 1.41973 2.11461 0
M  V30 2098 H 191.186 3.02007 1.63238 0
M  V30 2099 N 193.631 -1.12557 1.10312 0
M  V30 2100 C 194.561 -2.20341 0.772798 0
M  V30 2101 C 195.542 -1.68198 -0.25365 0
M  V30 2102 O 196.727 -1.93831 -0.119699 0
M  V30 2103 C 193.857 -3.46709 0.202443 0
M  V30 2104 C 192.811 -4.11996 1.15943 0
M  V30 2105 C 192.137 -5.328 0.450345 0
M  V30 2106 C 193.437 -4.5828 2.50552 0
M  V30 2107 H 195.131 -2.48229 1.674 0
M  V30 2108 H 192.677 -1.19308 0.806326 0
M  V30 2109 H 194.63 -4.2138 -0.0407752 0
M  V30 2110 H 193.354 -3.18245 -0.734001 0
M  V30 2111 H 192.013 -3.39305 1.38808 0
M  V30 2112 H 191.661 -5.00602 -0.490531 0
M  V30 2113 H 191.361 -5.7743 1.08851 0
M  V30 2114 H 192.885 -6.10219 0.215642 0
M  V30 2115 H 194.299 -5.2433 2.31843 0
M  V30 2116 H 192.696 -5.13683 3.10242 0
M  V30 2117 H 193.766 -3.72329 3.10643 0
M  V30 2118 N 195.109 -0.891671 -1.2995 0
M  V30 2119 C 196.357 -0.512486 -1.95494 0
M  V30 2120 C 196.678 0.942776 -1.70695 0
M  V30 2121 O 195.948 1.66374 -1.03424 0
M  V30 2122 H 194.528 -0.186533 -0.723336 0
M  V30 2123 H 197.19 -1.13621 -1.58355 0
M  V30 2124 H 196.286 -0.688342 -3.04415 0
M  V30 2125 N 196.587 1.43421 -0.653314 0
M  V30 2126 C 198.003 1.56341 -0.320886 0
M  V30 2127 C 198.203 1.63696 1.17499 0
M  V30 2128 O 197.259 1.59208 1.95982 0
M  V30 2129 C 198.572 2.82424 -1.03233 0
M  V30 2130 C 200.12 2.96168 -1.01259 0
M  V30 2131 C 200.595 4.25084 -1.70492 0
M  V30 2132 N 202.086 4.31948 -1.67257 0
M  V30 2133 C 202.821 5.30466 -2.17701 0
M  V30 2134 N 202.317 6.35261 -2.76434 0
M  V30 2135 N 204.11 5.2212 -2.082 0
M  V30 2136 H 196.261 1.3689 -1.62403 0
M  V30 2137 H 198.524 0.657455 -0.682977 0
M  V30 2138 H 198.23 2.83053 -2.08744 0
M  V30 2139 H 198.104 3.72653 -0.583948 0
M  V30 2140 H 200.491 2.9508 0.0341235 0
M  V30 2141 H 200.572 2.07229 -1.49966 0
M  V30 2142 H 200.216 4.26932 -2.7512 0
M  V30 2143 H 200.146 5.1292 -1.19251 0
M  V30 2144 H 202.637 3.56838 -1.24398 0
M  V30 2145 H 202.95 7.06754 -3.12601 0
M  V30 2146 H 201.295 6.35884 -2.80495 0
M  V30 2147 H 204.486 4.39166 -1.62021 0
M  V30 2148 H 204.659 5.98739 -2.47822 0
M  V30 2149 N 198.065 0.39524 1.52563 0
M  V30 2150 C 199.312 -0.185044 2.01653 0
M  V30 2151 C 199.64 -1.46317 1.28146 0
M  V30 2152 O 198.895 -1.9213 0.372074 0
M  V30 2153 C 199.194 -0.493444 3.53977 0
M  V30 2154 C 198.86 0.69384 4.4553 0
M  V30 2155 C 197.522 1.01954 4.70275 0
M  V30 2156 C 199.874 1.48785 4.99512 0
M  V30 2157 C 197.202 2.14069 5.46252 0
M  V30 2158 C 199.554 2.59965 5.76716 0
M  V30 2159 C 198.218 2.93037 5.99738 0
M  V30 2160 H 197.488 -0.0677123 0.7379 0
M  V30 2161 H 200.135 0.533807 1.8391 0
M  V30 2162 H 198.44 -1.29369 3.69825 0
M  V30 2163 H 200.137 -0.955163 3.89458 0
M  V30 2164 H 196.727 0.429987 4.26438 0
M  V30 2165 H 200.911 1.24946 4.80315 0
M  V30 2166 H 196.167 2.40056 5.62302 0
M  V30 2167 H 200.341 3.21887 6.17545 0
M  V30 2168 H 197.968 3.8003 6.58393 0
M  V30 2169 N 199.544 -1.57102 0.125237 0
M  V30 2170 C 200.772 -1.99761 -0.538797 0
M  V30 2171 C 201.187 -1.00503 -1.59827 0
M  V30 2172 O 200.544 0.00119474 -1.825 0
M  V30 2173 C 200.595 -3.42408 -1.15927 0
M  V30 2174 O 200.316 -4.37869 -0.142143 0
M  V30 2175 C 201.817 -4.00232 -1.90602 0
M  V30 2176 H 199.037 -0.655772 -0.14214 0
M  V30 2177 H 201.581 -2.03383 0.213413 0
M  V30 2178 H 199.736 -3.39706 -1.86223 0
M  V30 2179 H 200.15 -5.21128 -0.593775 0
M  V30 2180 H 201.624 -5.02105 -2.29335 0
M  V30 2181 H 202.101 -3.39721 -2.78363 0
M  V30 2182 H 202.707 -4.06499 -1.25055 0
M  V30 2183 N 201.022 0.148545 -1.56898 0
M  V30 2184 C 201.932 1.20293 -2.01412 0
M  V30 2185 C 202.948 1.47107 -0.929273 0
M  V30 2186 O 204.124 1.58807 -1.23863 0
M  V30 2187 C 201.189 2.51682 -2.38447 0
M  V30 2188 C 200.25 2.32529 -3.60872 0
M  V30 2189 C 199.483 3.57653 -3.96132 0
M  V30 2190 O 199.706 4.63771 -3.32073 0
M  V30 2191 O 198.64 3.50408 -4.89385 0
M  V30 2192 H 202.466 0.855025 -2.91416 0
M  V30 2193 H 200.051 0.357151 -1.45068 0
M  V30 2194 H 201.933 3.29147 -2.63135 0
M  V30 2195 H 200.608 2.86006 -1.51599 0
M  V30 2196 H 199.515 1.53019 -3.41373 0
M  V30 2197 H 200.848 2.03121 -4.48333 0
M  V30 2198 N 202.5 1.5196 0.417844 0
M  V30 2199 C 203.433 1.69387 1.52916 0
M  V30 2200 C 204.411 0.541419 1.53321 0
M  V30 2201 O 205.595 0.767695 1.72159 0
M  V30 2202 C 202.722 1.72525 2.91467 0
M  V30 2203 C 201.768 2.93967 3.09008 0
M  V30 2204 S 202.601 4.54461 2.83242 0
M  V30 2205 C 203.757 4.60372 4.24038 0
M  V30 2206 H 203.99 2.63382 1.37903 0
M  V30 2207 H 201.523 1.41889 0.608845 0
M  V30 2208 H 203.481 1.75018 3.7132 0
M  V30 2209 H 202.142 0.796733 3.03827 0
M  V30 2210 H 201.335 2.92619 4.10353 0
M  V30 2211 H 200.937 2.89316 2.37007 0
M  V30 2212 H 203.229 4.37213 5.17544 0
M  V30 2213 H 204.172 5.62273 4.30412 0
M  V30 2214 H 204.58 3.89492 4.08602 0
M  V30 2215 N 203.978 -0.674533 1.42435 0
M  V30 2216 C 204.888 -1.81751 1.48337 0
M  V30 2217 C 205.904 -1.69975 0.372099 0
M  V30 2218 O 207.08 -1.91521 0.62304 0
M  V30 2219 C 204.145 -3.17895 1.38361 0
M  V30 2220 C 203.206 -3.41625 2.59982 0
M  V30 2221 C 202.439 -4.71274 2.50473 0
M  V30 2222 O 202.662 -5.49197 1.54075 0
M  V30 2223 O 201.596 -4.96254 3.4061 0
M  V30 2224 H 205.422 -1.79728 2.44809 0
M  V30 2225 H 203.007 -0.830312 1.24202 0
M  V30 2226 H 204.889 -3.99136 1.35161 0
M  V30 2227 H 203.564 -3.20555 0.450144 0
M  V30 2228 H 202.471 -2.60231 2.68757 0
M  V30 2229 H 203.804 -3.43796 3.52229 0
M  V30 2230 N 205.456 -1.28612 -0.910864 0
M  V30 2231 C 206.419 -1.12803 -1.9952 0
M  V30 2232 C 207.419 -0.0668264 -1.60661 0
M  V30 2233 O 208.609 -0.312847 -1.71368 0
M  V30 2234 C 205.741 -0.72254 -3.33155 0
M  V30 2235 H 206.934 -2.09109 -2.14973 0
M  V30 2236 H 204.487 -1.11639 -1.09391 0
M  V30 2237 H 205.222 0.241152 -3.23402 0
M  V30 2238 H 205.007 -1.48916 -3.62721 0
M  V30 2239 H 206.497 -0.634666 -4.12749 0
M  V30 2240 N 206.934 1.1197 -1.10907 0
M  V30 2241 C 208.18 1.8386 -0.855773 0
M  V30 2242 C 208.513 1.84134 0.617103 0
M  V30 2243 O 207.788 1.29041 1.45529 0
M  V30 2244 C 208.071 3.31305 -1.411 0
M  V30 2245 C 207.924 3.39456 -2.9511 0
M  V30 2246 C 209.243 4.2721 -1.05736 0
M  V30 2247 H 206.362 0.667545 -0.312334 0
M  V30 2248 H 209.004 1.31331 -1.37303 0
M  V30 2249 H 207.154 3.76169 -0.97105 0
M  V30 2250 H 208.826 3.03191 -3.47668 0
M  V30 2251 H 207.069 2.79849 -3.31462 0
M  V30 2252 H 207.74 4.43209 -3.29044 0
M  V30 2253 H 210.216 3.90497 -1.43706 0
M  V30 2254 H 209.092 5.28775 -1.47269 0
M  V30 2255 H 209.353 4.42088 0.0325958 0
M  V30 2256 N 208.412 0.89855 1.29475 0
M  V30 2257 C 209.36 0.365253 2.29714 0
M  V30 2258 C 210.354 -0.534993 1.6073 0
M  V30 2259 O 211.56 -0.417921 1.75081 0
M  V30 2260 H 207.935 0.0994853 0.74539 0
M  V30 2261 H 209.906 1.22406 2.72138 0
M  V30 2262 C 208.655 -0.393159 3.4547 0
M  V30 2263 H 207.978 0.290332 3.98744 0
M  V30 2264 H 209.418 -0.731189 4.17648 0
M  V30 2265 C 207.877 -1.59539 2.9673 0
M  V30 2266 O 208.407 -2.69469 2.97908 0
M  V30 2267 N 206.613 -1.43716 2.52575 0
M  V30 2268 H 206.16 -0.542828 2.51816 0
M  V30 2269 H 206.118 -2.24288 2.20323 0
M  V30 2270 N 209.89 -1.43072 0.660911 0
M  V30 2271 C 211.139 -2.00942 0.174735 0
M  V30 2272 C 211.452 -1.52797 -1.22117 0
M  V30 2273 O 212.658 -2.02991 -1.80297 0
M  V30 2274 C 211.114 -3.58948 0.261559 0
M  V30 2275 C 210.722 -4.16085 1.66064 0
M  V30 2276 C 212.466 -4.24173 -0.166617 0
M  V30 2277 C 210.373 -5.6641 1.70098 0
M  V30 2278 H 209.303 -0.751483 0.0615631 0
M  V30 2279 H 211.954 -1.63955 0.824069 0
M  V30 2280 H 210.336 -3.93372 -0.455421 0
M  V30 2281 H 211.51 -3.93147 2.40359 0
M  V30 2282 H 209.825 -3.6326 2.03546 0
M  V30 2283 H 212.422 -5.34471 -0.156433 0
M  V30 2284 H 212.765 -3.98647 -1.19943 0
M  V30 2285 H 213.298 -3.94659 0.498875 0
M  V30 2286 H 210.037 -5.96715 2.71315 0
M  V30 2287 H 209.557 -5.91382 1.00139 0
M  V30 2288 H 211.236 -6.30585 1.44816 0
M  V30 2289 N 211.368 -0.403325 -1.52352 0
M  V30 2290 C 212.331 0.413051 -2.25447 0
M  V30 2291 C 213.331 0.978513 -1.276 0
M  V30 2292 O 214.521 0.858305 -1.51587 0
M  V30 2293 C 211.653 1.58087 -3.02029 0
M  V30 2294 H 212.846 -0.227094 -2.99039 0
M  V30 2295 H 210.399 -0.155722 -1.55522 0
M  V30 2296 H 211.134 2.25804 -2.32772 0
M  V30 2297 H 210.919 1.18195 -3.73861 0
M  V30 2298 H 212.409 2.1585 -3.57489 0
M  V30 2299 N 212.846 1.57033 -0.133567 0
M  V30 2300 C 213.756 2.19632 0.824564 0
M  V30 2301 C 214.772 1.17666 1.28182 0
M  V30 2302 O 215.948 1.50193 1.3418 0
M  V30 2303 C 213.013 2.79499 2.05137 0
M  V30 2304 C 212.074 3.96548 1.64464 0
M  V30 2305 C 211.307 4.5355 2.81297 0
M  V30 2306 O 211.53 4.09438 3.97136 0
M  V30 2307 O 210.464 5.44018 2.57542 0
M  V30 2308 H 214.29 3.01991 0.321766 0
M  V30 2309 H 211.875 1.49112 0.0927889 0
M  V30 2310 H 213.757 3.17602 2.7696 0
M  V30 2311 H 212.432 2.00162 2.54395 0
M  V30 2312 H 211.339 3.63186 0.897048 0
M  V30 2313 H 212.672 4.77364 1.19934 0
M  V30 2314 N 214.325 -0.140222 1.56975 0
M  V30 2315 C 215.553 -0.866437 1.87884 0
M  V30 2316 C 215.968 -1.74428 0.722517 0
M  V30 2317 O 215.325 -1.79891 -0.30749 0
M  V30 2318 C 215.376 -1.71753 3.18093 0
M  V30 2319 O 215.097 -0.875056 4.29272 0
M  V30 2320 C 216.598 -2.55074 3.62563 0
M  V30 2321 H 213.818 -0.25019 0.622612 0
M  V30 2322 H 216.362 -0.130977 2.0408 0
M  V30 2323 H 214.517 -2.40598 3.03631 0
M  V30 2324 H 214.931 -1.46002 5.03769 0
M  V30 2325 H 216.405 -3.10356 4.5649 0
M  V30 2326 H 216.882 -3.31434 2.88181 0
M  V30 2327 H 217.488 -1.91509 3.79743 0
M  V30 2328 N 215.803 -1.52179 -0.40978 0
M  V30 2329 C 217.214 -1.58377 -0.988615 0
M  V30 2330 C 217.565 -0.423879 -1.91566 0
M  V30 2331 O 216.69 0.455844 -2.11544 0
M  V30 2332 C 217.285 -2.87044 -1.79976 0
M  V30 2333 C 215.844 -2.95722 -2.32863 0
M  V30 2334 C 214.991 -2.53309 -1.12828 0
M  V30 2335 H 217.942 -1.57558 -0.190039 0
M  V30 2336 H 217.963 -2.7236 -2.65707 0
M  V30 2337 H 217.475 -3.71444 -1.12478 0
M  V30 2338 H 215.576 -2.15814 -3.03735 0
M  V30 2339 H 215.689 -3.99951 -2.63773 0
M  V30 2340 H 214.053 -2.07142 -1.48204 0
M  V30 2341 H 214.836 -3.40082 -0.46897 0
M  V30 2342 N 217.281 0.66697 -1.42791 0
M  V30 2343 C 218.506 1.46004 -1.47301 0
M  V30 2344 C 218.931 1.87894 -0.0880317 0
M  V30 2345 O 218.289 1.56502 0.915253 0
M  V30 2346 C 218.337 2.68031 -2.41229 0
M  V30 2347 O 217.441 3.6659 -1.88906 0
M  V30 2348 H 216.782 0.43832 -0.49877 0
M  V30 2349 H 219.312 0.817391 -1.87563 0
M  V30 2350 H 219.322 3.1601 -2.58073 0
M  V30 2351 H 217.997 2.36883 -3.41847 0
M  V30 2352 H 216.574 3.25661 -1.81656 0
M  V30 2353 N 218.759 1.29093 0.90403 0
M  V30 2354 C 220.036 1.075 1.63411 0
M  V30 2355 C 220.416 -0.382346 2.07609 0
M  V30 2356 O 219.764 -1.37031 1.82851 0
M  V30 2357 C 219.974 2.05858 2.81822 0
M  V30 2358 C 221.322 2.36539 3.52611 0
M  V30 2359 O 222.346 2.04019 2.91984 0
M  V30 2360 O 221.205 2.92085 4.61897 0
M  V30 2361 H 218.299 0.411547 0.717327 0
M  V30 2362 H 220.845 1.40449 0.952479 0
M  V30 2363 H 219.617 3.04037 2.46327 0
M  V30 2364 H 219.24 1.73613 3.57693 0
M  V30 2365 N 220.237 -1.11381 1.11499 0
M  V30 2366 C 221.167 -2.19509 0.796125 0
M  V30 2367 C 222.148 -1.68458 -0.235796 0
M  V30 2368 O 223.333 -1.93947 -0.0991344 0
M  V30 2369 C 220.463 -3.46475 0.239205 0
M  V30 2370 C 219.417 -4.10744 1.20307 0
M  V30 2371 C 218.743 -5.32293 0.50683 0
M  V30 2372 C 220.043 -4.55597 2.55399 0
M  V30 2373 H 221.737 -2.46439 1.70024 0
M  V30 2374 H 219.283 -1.18446 0.818935 0
M  V30 2375 H 221.236 -4.214 0.00392006 0
M  V30 2376 H 219.96 -3.19006 -0.700206 0
M  V30 2377 H 218.619 -3.37813 1.42399 0
M  V30 2378 H 218.267 -5.01095 -0.437408 0
M  V30 2379 H 217.967 -5.76243 1.1497 0
M  V30 2380 H 219.491 -6.09956 0.280351 0
M  V30 2381 H 220.905 -5.21841 2.37391 0
M  V30 2382 H 219.302 -5.10363 3.15673 0
M  V30 2383 H 220.372 -3.69013 3.14575 0
M  V30 2384 N 221.715 -0.905404 -1.28997 0
M  V30 2385 C 222.962 -0.534248 -1.95325 0
M  V30 2386 C 223.29 0.920535 -1.71337 0
M  V30 2387 O 222.545 1.66861 -1.02254 0
M  V30 2388 C 222.844 -0.779906 -3.48787 0
M  V30 2389 C 222.51 -2.21293 -3.92861 0
M  V30 2390 C 221.172 -2.60475 -4.04606 0
M  V30 2391 C 223.524 -3.14587 -4.15553 0
M  V30 2392 C 220.852 -3.9212 -4.36416 0
M  V30 2393 C 223.204 -4.45787 -4.48839 0
M  V30 2394 C 221.868 -4.84834 -4.58794 0
M  V30 2395 H 221.138 -0.195495 -0.714747 0
M  V30 2396 H 223.785 -1.14514 -1.53488 0
M  V30 2397 H 222.09 -0.0861365 -3.91705 0
M  V30 2398 H 223.787 -0.472029 -3.98212 0
M  V30 2399 H 220.377 -1.89887 -3.84241 0
M  V30 2400 H 224.561 -2.85528 -4.0594 0
M  V30 2401 H 219.817 -4.22086 -4.42327 0
M  V30 2402 H 223.991 -5.18098 -4.65346 0
M  V30 2403 H 221.618 -5.86877 -4.83197 0
M  V30 2404 N 223.193 1.4272 -0.668489 0
M  V30 2405 C 224.141 2.32586 0.0254857 0
M  V30 2406 C 225.135 1.49471 0.797176 0
M  V30 2407 O 226.341 1.65583 0.705853 0
M  V30 2408 H 222.716 0.751514 0.0270339 0
M  V30 2409 H 224.687 2.88823 -0.749936 0
M  V30 2410 C 223.436 3.3397 0.967427 0
M  V30 2411 H 222.759 3.97961 0.383048 0
M  V30 2412 H 224.199 3.9945 1.42181 0
M  V30 2413 C 222.658 2.65744 2.0708 0
M  V30 2414 O 223.188 2.48454 3.15648 0
M  V30 2415 N 221.394 2.2487 1.8407 0
M  V30 2416 H 220.941 2.39132 0.95778 0
M  V30 2417 H 220.899 1.79552 2.58086 0
M  V30 2418 N 224.671 0.411399 1.52136 0
M  V30 2419 C 225.634 -0.401089 2.25663 0
M  V30 2420 C 226.634 -0.971732 1.28117 0
M  V30 2421 O 227.824 -0.850254 1.52041 0
M  V30 2422 C 224.956 -1.56483 3.02863 0
M  V30 2423 H 226.149 0.24295 2.98914 0
M  V30 2424 H 223.702 0.163968 1.55438 0
M  V30 2425 H 224.437 -2.24567 2.33967 0
M  V30 2426 H 224.222 -1.16211 3.74483 0
M  V30 2427 H 225.712 -2.13951 3.58629 0
M  V30 2428 N 226.149 -1.5696 0.141893 0
M  V30 2429 C 227.398 -1.95135 -0.510427 0
M  V30 2430 C 227.711 -1.02896 -1.66348 0
M  V30 2431 O 228.917 -1.30629 -2.38009 0
M  V30 2432 C 227.373 -3.46876 -0.959427 0
M  V30 2433 C 226.981 -4.47691 0.166419 0
M  V30 2434 C 228.725 -3.93927 -1.58183 0
M  V30 2435 C 226.632 -5.90636 -0.300565 0
M  V30 2436 H 225.562 -0.728494 -0.194454 0
M  V30 2437 H 228.213 -1.8211 0.22542 0
M  V30 2438 H 226.595 -3.55215 -1.75038 0
M  V30 2439 H 227.769 -4.51043 0.94325 0
M  V30 2440 H 226.084 -4.10527 0.696905 0
M  V30 2441 H 228.681 -4.98158 -1.94275 0
M  V30 2442 H 229.024 -3.3519 -2.46888 0
M  V30 2443 H 229.557 -3.88484 -0.855863 0
M  V30 2444 H 226.296 -6.5318 0.550989 0
M  V30 2445 H 225.816 -5.90655 -1.04338 0
M  V30 2446 H 227.495 -6.42588 -0.754265 0
M  V30 2447 N 227.627 0.131896 -1.57047 0
M  V30 2448 C 228.557 1.16384 -2.02428 0
M  V30 2449 C 229.538 1.43936 -0.90644 0
M  V30 2450 O 230.723 1.54599 -1.17528 0
M  V30 2451 C 227.853 2.49328 -2.4177 0
M  V30 2452 C 226.807 2.36266 -3.56879 0
M  V30 2453 C 226.133 3.74057 -3.8208 0
M  V30 2454 C 227.433 1.834 -4.89042 0
M  V30 2455 H 229.127 0.786433 -2.88887 0
M  V30 2456 H 226.673 0.376855 -1.38981 0
M  V30 2457 H 228.626 3.21759 -2.7212 0
M  V30 2458 H 227.35 2.88934 -1.52266 0
M  V30 2459 H 226.009 1.66286 -3.26718 0
M  V30 2460 H 225.657 4.11125 -2.89803 0
M  V30 2461 H 225.357 3.66174 -4.59554 0
M  V30 2462 H 226.881 4.48012 -4.1487 0
M  V30 2463 H 228.295 2.45636 -5.18011 0
M  V30 2464 H 226.692 1.8637 -5.70426 0
M  V30 2465 H 227.762 0.790662 -4.7841 0
M  V30 2466 N 229.106 1.52395 0.401703 0
M  V30 2467 C 230.355 1.66044 1.14509 0
M  V30 2468 C 230.668 0.400216 1.91462 0
M  V30 2469 O 231.874 0.416632 2.68284 0
M  V30 2470 C 230.33 2.93388 2.0845 0
M  V30 2471 C 229.938 4.26545 1.36978 0
M  V30 2472 C 231.682 3.16402 2.83001 0
M  V30 2473 C 229.589 5.45007 2.29611 0
M  V30 2474 H 228.519 0.618562 0.431158 0
M  V30 2475 H 231.17 1.78886 0.40892 0
M  V30 2476 H 229.552 2.74263 2.8565 0
M  V30 2477 H 230.726 4.56179 0.650916 0
M  V30 2478 H 229.041 4.09692 0.74438 0
M  V30 2479 H 231.638 4.02085 3.52465 0
M  V30 2480 H 231.981 2.30943 3.46368 0
M  V30 2481 H 232.514 3.36034 2.12898 0
M  V30 2482 H 229.253 6.32835 1.70879 0
M  V30 2483 H 228.773 5.19702 2.9945 0
M  V30 2484 H 230.452 5.7838 2.89974 0
M  V30 2485 N 230.584 -0.659388 1.43143 0
M  V30 2486 C 231.494 -1.80167 1.50256 0
M  V30 2487 C 232.51 -1.69571 0.390106 0
M  V30 2488 O 233.686 -1.90849 0.643319 0
M  V30 2489 C 230.751 -3.16409 1.41725 0
M  V30 2490 C 229.812 -3.38848 2.63591 0
M  V30 2491 C 229.045 -4.68591 2.55458 0
M  V30 2492 O 229.268 -5.47532 1.59891 0
M  V30 2493 O 228.202 -4.92614 3.45854 0
M  V30 2494 H 232.028 -1.77121 2.46702 0
M  V30 2495 H 229.613 -0.817092 1.25076 0
M  V30 2496 H 231.495 -3.9768 1.39387 0
M  V30 2497 H 230.17 -3.20059 0.484118 0
M  V30 2498 H 229.077 -2.57366 2.71502 0
M  V30 2499 H 230.41 -3.4004 3.55856 0
M  V30 2500 N 232.062 -1.29571 -0.897171 0
M  V30 2501 C 233.29 -1.20583 -1.68129 0
M  V30 2502 C 233.705 0.233181 -1.87354 0
M  V30 2503 O 233.062 1.15579 -1.41236 0
M  V30 2504 C 233.113 -1.91772 -3.06441 0
M  V30 2505 O 232.834 -3.30053 -2.88091 0
M  V30 2506 C 234.335 -1.89291 -4.00854 0
M  V30 2507 H 231.555 -0.417826 -0.525036 0
M  V30 2508 H 234.099 -1.70987 -1.12177 0
M  V30 2509 H 232.254 -1.45196 -3.59161 0
M  V30 2510 H 232.668 -3.65942 -3.75748 0
M  V30 2511 H 234.142 -2.43662 -4.95311 0
M  V30 2512 H 234.619 -0.869014 -4.30517 0
M  V30 2513 H 235.225 -2.35622 -3.54066 0
M  V30 2514 N 233.54 1.10788 -1.12088 0
M  V30 2515 C 234.951 1.64181 -0.88891 0
M  V30 2516 C 235.302 1.87508 0.577498 0
M  V30 2517 O 234.427 1.61434 1.44112 0
M  V30 2518 C 235.022 2.98257 -1.60712 0
M  V30 2519 C 233.581 3.4853 -1.42139 0
M  V30 2520 C 232.728 2.23208 -1.6454 0
M  V30 2521 H 235.679 0.943368 -1.27618 0
M  V30 2522 H 235.7 3.65552 -1.05604 0
M  V30 2523 H 235.212 2.81246 -2.67436 0
M  V30 2524 H 233.313 3.70692 -0.376552 0
M  V30 2525 H 233.426 4.26882 -2.17505 0
M  V30 2526 H 231.79 2.31169 -1.06925 0
M  V30 2527 H 232.573 2.08733 -2.72554 0
M  V30 2528 N 235.018 0.912232 1.28515 0
M  V30 2529 C 235.948 0.416403 2.29757 0
M  V30 2530 C 236.929 -0.515194 1.6211 0
M  V30 2531 O 238.114 -0.423253 1.89532 0
M  V30 2532 C 235.244 -0.34572 3.45575 0
M  V30 2533 C 234.198 0.496599 4.25109 0
M  V30 2534 C 233.524 -0.393771 5.33248 0
M  V30 2535 C 234.824 1.75307 4.92001 0
M  V30 2536 H 236.518 1.26249 2.7148 0
M  V30 2537 H 234.064 0.608515 1.30511 0
M  V30 2538 H 236.017 -0.703422 4.15488 0
M  V30 2539 H 234.741 -1.2257 3.02728 0
M  V30 2540 H 233.4 0.8368 3.56922 0
M  V30 2541 H 233.048 -1.27225 4.86644 0
M  V30 2542 H 232.748 0.166209 5.87365 0
M  V30 2543 H 234.272 -0.747389 6.06009 0
M  V30 2544 H 235.686 1.46437 5.54283 0
M  V30 2545 H 234.083 2.25534 5.56106 0
M  V30 2546 H 235.153 2.48176 4.16577 0
M  V30 2547 N 236.496 -1.42363 0.676048 0
M  V30 2548 C 237.459 -2.29199 0.00766941 0
M  V30 2549 C 238.459 -1.43389 -0.727745 0
M  V30 2550 O 239.649 -1.64764 -0.56556 0
M  V30 2551 C 236.781 -3.2591 -0.999785 0
M  V30 2552 H 237.974 -2.89794 0.771988 0
M  V30 2553 H 235.527 -1.50024 0.438468 0
M  V30 2554 H 236.262 -2.70256 -1.79255 0
M  V30 2555 H 236.047 -3.89202 -0.475829 0
M  V30 2556 H 237.537 -3.91028 -1.46583 0
M  V30 2557 N 237.974 -0.419461 -1.51915 0
M  V30 2558 C 239.385 0.0477853 -1.86639 0
M  V30 2559 C 239.736 1.43531 -1.33766 0
M  V30 2560 O 238.861 2.05401 -0.68113 0
M  V30 2561 C 239.456 0.0934885 -3.38671 0
M  V30 2562 C 238.015 0.505097 -3.72996 0
M  V30 2563 C 237.162 -0.313792 -2.75519 0
M  V30 2564 H 240.113 -0.636088 -1.45395 0
M  V30 2565 H 240.134 0.906667 -3.6954 0
M  V30 2566 H 239.646 -0.916501 -3.77123 0
M  V30 2567 H 237.747 1.52135 -3.40126 0
M  V30 2568 H 237.86 0.242309 -4.78487 0
M  V30 2569 H 236.224 0.225363 -2.53701 0
M  V30 2570 H 237.007 -1.32232 -3.16812 0
M  V30 2571 N 239.452 1.56882 -0.150215 0
M  V30 2572 C 240.699 1.96228 0.500093 0
M  V30 2573 C 241.027 1.03522 1.64661 0
M  V30 2574 O 240.282 0.0650683 1.95592 0
M  V30 2575 C 240.581 3.41801 1.04437 0
M  V30 2576 C 240.247 4.50897 0.0159671 0
M  V30 2577 C 238.909 4.8046 -0.266731 0
M  V30 2578 C 241.261 5.16703 -0.683192 0
M  V30 2579 C 238.589 5.73135 -1.25434 0
M  V30 2580 C 240.941 6.10441 -1.65964 0
M  V30 2581 C 239.605 6.38382 -1.95 0
M  V30 2582 H 238.875 0.718048 0.182997 0
M  V30 2583 H 241.522 1.90019 -0.237724 0
M  V30 2584 H 239.827 3.44857 1.85959 0
M  V30 2585 H 241.524 3.69573 1.55618 0
M  V30 2586 H 238.114 4.27891 0.246485 0
M  V30 2587 H 242.298 4.93993 -0.477983 0
M  V30 2588 H 237.554 5.93074 -1.48571 0
M  V30 2589 H 241.728 6.60507 -2.20689 0
M  V30 2590 H 239.355 7.09996 -2.71679 0
M  V30 2591 N 240.93 -0.123565 1.57115 0
M  V30 2592 C 242.177 -0.832153 1.84612 0
M  V30 2593 C 242.505 -1.80093 0.734627 0
M  V30 2594 O 241.76 -1.93766 -0.27442 0
M  V30 2595 C 242.059 -1.62016 3.18568 0
M  V30 2596 C 241.725 -0.796084 4.43817 0
M  V30 2597 C 240.387 -0.568816 4.77826 0
M  V30 2598 C 242.739 -0.221364 5.2073 0
M  V30 2599 C 240.067 0.243499 5.86194 0
M  V30 2600 C 242.419 0.578117 6.29953 0
M  V30 2601 C 241.083 0.815744 6.62497 0
M  V30 2602 H 240.353 -0.304507 0.675542 0
M  V30 2603 H 243 -0.0947248 1.91266 0
M  V30 2604 H 241.305 -2.42837 3.0747 0
M  V30 2605 H 243.002 -2.17231 3.37064 0
M  V30 2606 H 239.592 -0.983307 4.17168 0
M  V30 2607 H 243.776 -0.384173 4.94811 0
M  V30 2608 H 239.032 0.436871 6.09837 0
M  V30 2609 H 243.206 1.03046 6.88734 0
M  V30 2610 H 240.833 1.44701 7.46301 0
M  V30 2611 N 242.408 -1.52605 -0.393616 0
M  V30 2612 C 243.34 -1.73303 -1.49995 0
M  V30 2613 C 244.353 -0.613473 -1.50799 0
M  V30 2614 O 245.542 -0.889049 -1.54784 0
M  V30 2615 C 242.642 -1.77245 -2.88855 0
M  V30 2616 C 241.815 -3.06483 -3.12069 0
M  V30 2617 C 240.874 -3.02033 -4.30886 0
M  V30 2618 O 239.9 -3.75907 -4.27414 0
M  V30 2619 N 241.102 -2.20897 -5.36828 0
M  V30 2620 H 243.867 -2.68756 -1.32629 0
M  V30 2621 H 241.428 -1.51036 -0.583083 0
M  V30 2622 H 243.42 -1.7178 -3.66434 0
M  V30 2623 H 241.99 -0.891993 -2.99603 0
M  V30 2624 H 241.21 -3.25474 -2.22396 0
M  V30 2625 H 242.498 -3.91947 -3.2443 0
M  V30 2626 H 241.896 -1.60336 -5.42502 0
M  V30 2627 H 240.453 -2.21275 -6.13091 0
M  V30 2628 N 243.887 0.651787 -1.4349 0
M  V30 2629 C 245.164 1.40909 -1.35661 0
M  V30 2630 C 245.544 2.11099 -0.00511733 0
M  V30 2631 O 244.892 2.04892 1.0115 0
M  V30 2632 C 245.102 2.3926 -2.54078 0
M  V30 2633 C 246.45 3.03217 -2.97228 0
M  V30 2634 O 247.474 2.49588 -2.54135 0
M  V30 2635 O 246.333 4.00455 -3.71885 0
M  V30 2636 H 243.427 0.629625 -0.536191 0
M  V30 2637 H 245.973 0.678575 -1.55542 0
M  V30 2638 H 244.745 1.86352 -3.44076 0
M  V30 2639 H 244.368 3.1976 -2.36303 0
M  V30 2640 N 245.365 1.30045 0.890287 0
M  V30 2641 C 246.605 1.19839 1.65584 0
M  V30 2642 C 246.969 -0.244175 1.90441 0
M  V30 2643 O 248.17 -0.469378 2.6467 0
M  V30 2644 C 246.441 1.99876 2.96284 0
M  V30 2645 S 248 2.06309 3.87275 0
M  V30 2646 H 244.818 0.427157 0.568382 0
M  V30 2647 H 247.42 1.64453 1.05715 0
M  V30 2648 H 246.124 3.03809 2.75913 0
M  V30 2649 H 245.655 1.55903 3.61189 0
M  V30 2650 H 247.67 1.18661 4.81803 0
M  V30 2651 N 246.843 -1.10192 1.12674 0
M  V30 2652 C 247.776 -2.15847 0.740625 0
M  V30 2653 C 248.754 -1.60352 -0.269421 0
M  V30 2654 O 249.938 -1.87796 -0.16278 0
M  V30 2655 C 247.065 -3.38562 0.096641 0
M  V30 2656 C 246.111 -4.12758 1.07391 0
M  V30 2657 S 246.944 -4.67997 2.60267 0
M  V30 2658 C 248.1 -5.94021 1.97206 0
M  V30 2659 H 248.333 -2.48266 1.63558 0
M  V30 2660 H 245.866 -1.22019 0.946087 0
M  V30 2661 H 247.824 -4.09621 -0.268535 0
M  V30 2662 H 246.485 -3.04377 -0.775462 0
M  V30 2663 H 245.678 -5.00755 0.570997 0
M  V30 2664 H 245.28 -3.47523 1.38216 0
M  V30 2665 H 247.572 -6.64589 1.31634 0
M  V30 2666 H 248.515 -6.48979 2.83253 0
M  V30 2667 H 248.923 -5.46169 1.42686 0
M  V30 2668 N 248.321 -0.919034 -1.28029 0
M  V30 2669 C 249.546 -0.570357 -1.99403 0
M  V30 2670 C 249.971 0.842486 -1.68178 0
M  V30 2671 O 249.329 1.56391 -0.917141 0
M  V30 2672 C 249.377 -0.792541 -3.51783 0
M  V30 2673 O 248.481 0.145988 -4.12142 0
M  V30 2674 H 247.822 -0.220555 -0.6263 0
M  V30 2675 H 250.352 -1.23592 -1.63053 0
M  V30 2676 H 250.362 -0.704708 -4.01868 0
M  V30 2677 H 249.037 -1.82247 -3.73844 0
M  V30 2678 H 247.614 0.00897528 -3.72899 0
M  V30 2679 N 249.799 1.42003 -0.683588 0
M  V30 2680 C 250.709 2.34597 -0.0109075 0
M  V30 2681 C 251.725 1.55576 0.779245 0
M  V30 2682 O 252.901 1.88107 0.719555 0
M  V30 2683 C 249.966 3.34199 0.922588 0
M  V30 2684 C 249.027 4.29115 0.125984 0
M  V30 2685 C 248.26 5.23959 1.01502 0
M  V30 2686 O 248.483 5.23952 2.25456 0
M  V30 2687 O 247.417 6.00053 0.47111 0
M  V30 2688 H 251.243 2.93675 -0.773853 0
M  V30 2689 H 248.828 1.42654 -0.443861 0
M  V30 2690 H 250.71 3.95365 1.45823 0
M  V30 2691 H 249.385 2.77582 1.66523 0
M  V30 2692 H 248.292 3.71335 -0.453969 0
M  V30 2693 H 249.625 4.88798 -0.577736 0
M  V30 2694 N 251.277 0.427512 1.51691 0
M  V30 2695 C 252.225 -0.403359 2.29076 0
M  V30 2696 C 253.219 -1.02962 1.34518 0
M  V30 2697 O 254.425 -0.965715 1.51901 0
M  V30 2698 H 250.8 -0.148879 0.737115 0
M  V30 2699 H 252.771 0.270295 2.97173 0
M  V30 2700 C 251.52 -1.49763 3.13794 0
M  V30 2701 H 250.843 -1.02508 3.86435 0
M  V30 2702 H 252.283 -2.05244 3.71014 0
M  V30 2703 C 250.742 -2.47536 2.28533 0
M  V30 2704 O 251.272 -3.51848 1.93819 0
M  V30 2705 N 249.478 -2.18187 1.91945 0
M  V30 2706 H 249.025 -1.33389 2.20375 0
M  V30 2707 H 248.983 -2.83848 1.35195 0
M  V30 2708 N 252.755 -1.56801 0.158532 0
M  V30 2709 C 253.718 -2.16138 -0.762705 0
M  V30 2710 C 254.718 -1.1061 -1.16713 0
M  V30 2711 O 255.908 -1.36191 -1.08617 0
M  V30 2712 C 253.04 -2.73386 -2.03649 0
M  V30 2713 H 254.233 -2.98886 -0.246354 0
M  V30 2714 H 251.786 -1.56035 -0.0909744 0
M  V30 2715 H 252.521 -1.94335 -2.59623 0
M  V30 2716 H 252.306 -3.50601 -1.75559 0
M  V30 2717 H 253.796 -3.19065 -2.6942 0
M  V30 2718 N 254.233 0.115231 -1.57178 0
M  V30 2719 C 255.163 1.1423 -2.03651 0
M  V30 2720 C 256.144 1.42967 -0.921655 0
M  V30 2721 O 257.329 1.53343 -1.19162 0
M  V30 2722 C 254.459 2.4675 -2.44401 0
M  V30 2723 C 253.413 2.32467 -3.59365 0
M  V30 2724 C 252.739 3.69984 -3.86026 0
M  V30 2725 C 254.039 1.78203 -4.90959 0
M  V30 2726 H 255.733 0.755749 -2.89705 0
M  V30 2727 H 253.279 0.362093 -1.39373 0
M  V30 2728 H 255.232 3.18854 -2.75517 0
M  V30 2729 H 253.956 2.87302 -1.55322 0
M  V30 2730 H 252.615 1.62811 -3.28463 0
M  V30 2731 H 252.263 4.08028 -2.94147 0
M  V30 2732 H 251.963 3.61279 -4.63412 0
M  V30 2733 H 253.487 4.43587 -4.19599 0
M  V30 2734 H 254.901 2.40128 -5.20587 0
M  V30 2735 H 253.298 1.8031 -5.72371 0
M  V30 2736 H 254.368 0.739876 -4.79222 0
M  V30 2737 N 255.711 1.52812 0.385517 0
M  V30 2738 C 256.988 1.5861 1.14465 0
M  V30 2739 C 257.368 0.381402 2.07626 0
M  V30 2740 O 256.716 -0.629999 2.19643 0
M  V30 2741 C 256.926 2.92664 1.90128 0
M  V30 2742 C 258.274 3.46526 2.45367 0
M  V30 2743 O 259.298 2.94562 2.0028 0
M  V30 2744 O 258.157 4.37323 3.27736 0
M  V30 2745 H 255.251 0.639855 0.523941 0
M  V30 2746 H 257.797 1.65149 0.390389 0
M  V30 2747 H 256.569 3.71788 1.22022 0
M  V30 2748 H 256.192 2.89527 2.72507 0
M  V30 2749 N 257.189 -0.644168 1.43834 0
M  V30 2750 C 258.099 -1.78563 1.52159 0
M  V30 2751 C 259.115 -1.69147 0.408069 0
M  V30 2752 O 260.291 -1.90156 0.663524 0
M  V30 2753 C 257.356 -3.14888 1.45073 0
M  V30 2754 C 256.417 -3.36034 2.6717 0
M  V30 2755 C 255.65 -4.65855 2.60413 0
M  V30 2756 O 255.873 -5.45805 1.65689 0
M  V30 2757 O 254.807 -4.88918 3.5106 0
M  V30 2758 H 258.633 -1.74494 2.48567 0
M  V30 2759 H 256.218 -0.80378 1.25935 0
M  V30 2760 H 258.1 -3.96179 1.43597 0
M  V30 2761 H 256.775 -3.19528 0.518037 0
M  V30 2762 H 255.682 -2.54472 2.74217 0
M  V30 2763 H 257.015 -3.36247 3.59442 0
M  V30 2764 N 258.668 -1.30515 -0.883378 0
M  V30 2765 C 259.598 -1.19607 -2.00541 0
M  V30 2766 C 260.579 -0.086346 -1.69881 0
M  V30 2767 O 261.764 -0.268654 -1.92333 0
M  V30 2768 C 258.894 -0.888758 -3.35736 0
M  V30 2769 C 257.848 -1.95659 -3.8066 0
M  V30 2770 C 257.174 -1.50224 -5.13164 0
M  V30 2771 C 258.474 -3.36788 -3.99213 0
M  V30 2772 H 260.168 -2.13476 -2.09925 0
M  V30 2773 H 257.714 -1.02775 -1.00863 0
M  V30 2774 H 259.667 -0.799094 -4.13754 0
M  V30 2775 H 258.391 0.0856125 -3.26488 0
M  V30 2776 H 257.05 -2.03591 -3.04871 0
M  V30 2777 H 256.698 -0.516092 -5.00345 0
M  V30 2778 H 256.398 -2.2165 -5.44192 0
M  V30 2779 H 257.922 -1.42639 -5.93706 0
M  V30 2780 H 259.336 -3.31605 -4.67665 0
M  V30 2781 H 257.733 -4.06314 -4.41621 0
M  V30 2782 H 258.803 -3.78561 -3.03017 0
M  V30 2783 N 260.146 1.09593 -1.13257 0
M  V30 2784 C 261.094 2.18271 -0.803783 0
M  V30 2785 C 262.088 1.68054 0.213148 0
M  V30 2786 O 263.294 1.79862 0.0704699 0
M  V30 2787 H 259.669 0.711949 -0.242143 0
M  V30 2788 H 261.64 2.43235 -1.72856 0
M  V30 2789 C 260.389 3.46536 -0.28424 0
M  V30 2790 H 259.712 3.85545 -1.05807 0
M  V30 2791 H 261.152 4.23899 -0.0925945 0
M  V30 2792 C 259.611 3.22036 0.989684 0
M  V30 2793 O 260.141 3.44509 2.06584 0
M  V30 2794 N 258.347 2.7565 0.920086 0
M  V30 2795 H 257.894 2.57562 0.0442019 0
M  V30 2796 H 257.852 2.59635 1.77306 0
M  V30 2797 N 261.624 0.925811 1.2754 0
M  V30 2798 C 262.873 0.561084 1.93739 0
M  V30 2799 C 263.186 -0.901685 1.73577 0
M  V30 2800 O 264.392 -1.37511 2.34101 0
M  V30 2801 C 262.848 0.952668 3.47062 0
M  V30 2802 C 262.456 2.43599 3.75983 0
M  V30 2803 C 264.2 0.659103 4.19352 0
M  V30 2804 C 262.107 2.76707 5.22673 0
M  V30 2805 H 261.037 0.206122 0.725279 0
M  V30 2806 H 263.688 1.12637 1.44863 0
M  V30 2807 H 262.07 0.316053 3.94737 0
M  V30 2808 H 263.244 3.12035 3.39073 0
M  V30 2809 H 261.559 2.70125 3.16893 0
M  V30 2810 H 264.156 0.882985 5.27359 0
M  V30 2811 H 264.499 -0.403607 4.14339 0
M  V30 2812 H 265.032 1.25473 3.77494 0
M  V30 2813 H 261.771 3.8188 5.32774 0
M  V30 2814 H 261.291 2.12919 5.60737 0
M  V30 2815 H 262.97 2.6435 5.90532 0
M  V30 2816 N 263.102 -1.41638 0.69111 0
M  V30 2817 C 264.012 -2.34588 0.0233487 0
M  V30 2818 C 265.028 -1.55987 -0.770984 0
M  V30 2819 O 266.204 -1.88486 -0.709569 0
M  V30 2820 C 263.269 -3.34684 -0.904851 0
M  V30 2821 C 262.33 -4.29176 -0.103225 0
M  V30 2822 C 261.563 -5.2449 -0.987216 0
M  V30 2823 O 261.786 -5.2514 -2.22674 0
M  V30 2824 O 260.72 -6.00295 -0.439281 0
M  V30 2825 H 264.546 -2.93261 0.789416 0
M  V30 2826 H 262.131 -1.42417 0.45142 0
M  V30 2827 H 264.013 -3.96133 -1.43724 0
M  V30 2828 H 262.688 -2.78461 -1.65049 0
M  V30 2829 H 261.595 -3.71089 0.473655 0
M  V30 2830 H 262.928 -4.88484 0.60365 0
M  V30 2831 N 264.58 -0.43555 -1.51462 0
M  V30 2832 C 265.51 0.367376 -2.30592 0
M  V30 2833 C 266.491 1.02263 -1.35928 0
M  V30 2834 O 267.676 1.02661 -1.64847 0
M  V30 2835 C 264.806 1.46983 -3.14664 0
M  V30 2836 C 263.76 0.938161 -4.17591 0
M  V30 2837 C 263.086 2.13622 -4.90173 0
M  V30 2838 C 264.386 -0.0261621 -5.22293 0
M  V30 2839 H 266.08 -0.292969 -2.97963 0
M  V30 2840 H 263.626 -0.14234 -1.43295 0
M  V30 2841 H 265.579 2.03873 -3.688 0
M  V30 2842 H 264.303 2.15843 -2.4511 0
M  V30 2843 H 262.962 0.391481 -3.64504 0
M  V30 2844 H 262.61 2.81098 -4.17124 0
M  V30 2845 H 262.31 1.78688 -5.59772 0
M  V30 2846 H 263.834 2.7107 -5.47132 0
M  V30 2847 H 265.248 0.452384 -5.71512 0
M  V30 2848 H 263.645 -0.287992 -5.99409 0
M  V30 2849 H 264.715 -0.963391 -4.75233 0
M  V30 2850 N 266.058 1.56714 -0.166846 0
M  V30 2851 C 266.988 2.20754 0.760913 0
M  V30 2852 C 267.969 1.16178 1.24244 0
M  V30 2853 O 269.154 1.44592 1.29641 0
M  V30 2854 C 266.284 2.84478 1.99223 0
M  V30 2855 C 265.238 3.95053 1.64672 0
M  V30 2856 C 264.564 4.45805 2.95232 0
M  V30 2857 C 265.864 5.14865 0.878155 0
M  V30 2858 H 267.558 2.98537 0.22713 0
M  V30 2859 H 265.104 1.43596 0.107805 0
M  V30 2860 H 267.057 3.27951 2.64624 0
M  V30 2861 H 265.781 2.04056 2.55007 0
M  V30 2862 H 264.44 3.52228 1.01641 0
M  V30 2863 H 264.088 3.62181 3.49047 0
M  V30 2864 H 263.788 5.204 2.7287 0
M  V30 2865 H 265.312 4.91962 3.6167 0
M  V30 2866 H 266.726 5.55059 1.43466 0
M  V30 2867 H 265.123 5.95348 0.753738 0
M  V30 2868 H 266.193 4.84735 -0.126377 0
M  V30 2869 N 267.536 -0.106894 1.57237 0
M  V30 2870 C 268.952 -0.46078 1.52804 0
M  V30 2871 C 269.152 -1.81184 0.881746 0
M  V30 2872 O 268.208 -2.48102 0.469224 0
M  V30 2873 C 269.521 -0.434127 2.9755 0
M  V30 2874 C 271.069 -0.516821 3.08704 0
M  V30 2875 C 271.544 -0.520436 4.55033 0
M  V30 2876 N 273.035 -0.58153 4.59535 0
M  V30 2877 C 273.77 -0.605973 5.70189 0
M  V30 2878 N 273.266 -0.587331 6.90306 0
M  V30 2879 N 275.059 -0.649895 5.5833 0
M  V30 2880 H 267.21 0.778203 1.9763 0
M  V30 2881 H 269.473 0.288403 0.903066 0
M  V30 2882 H 269.179 0.491197 3.48253 0
M  V30 2883 H 269.053 -1.25748 3.55622 0
M  V30 2884 H 271.44 -1.43256 2.57995 0
M  V30 2885 H 271.521 0.334449 2.53604 0
M  V30 2886 H 271.165 0.391313 5.0639 0
M  V30 2887 H 271.095 -1.38876 5.07958 0
M  V30 2888 H 273.586 -0.60161 3.73081 0
M  V30 2889 H 273.899 -0.60894 7.70397 0
M  V30 2890 H 272.244 -0.554564 6.92784 0
M  V30 2891 H 275.435 -0.661907 4.63397 0
M  V30 2892 H 275.608 -0.665476 6.44574 0
M  V30 2893 N 269.014 -1.53014 -0.377408 0
M  V30 2894 C 269.962 -1.7927 -1.48206 0
M  V30 2895 C 270.956 -0.661195 -1.55963 0
M  V30 2896 O 272.162 -0.843908 -1.58991 0
M  V30 2897 H 268.537 -0.567425 -0.493491 0
M  V30 2898 H 270.508 -2.71753 -1.2326 0
M  V30 2899 C 269.257 -1.98894 -2.85196 0
M  V30 2900 H 268.58 -2.85395 -2.79981 0
M  V30 2901 H 270.02 -2.21249 -3.61698 0
M  V30 2902 C 268.479 -0.764691 -3.28107 0
M  V30 2903 O 269.009 0.0523226 -4.01666 0
M  V30 2904 N 267.215 -0.591493 -2.84517 0
M  V30 2905 H 266.762 -1.25749 -2.24822 0
M  V30 2906 H 266.72 0.226253 -3.13585 0
M  V30 2907 N 270.492 0.636531 -1.44174 0
M  V30 2908 C 271.439 1.74875 -1.50624 0
M  V30 2909 C 272.409 1.62275 -0.35442 0
M  V30 2910 O 273.594 1.82276 -0.563908 0
M  V30 2911 C 270.734 3.13102 -1.45125 0
M  V30 2912 C 269.847 3.36717 -2.7064 0
M  V30 2913 C 268.982 4.64885 -2.57013 0
M  V30 2914 C 268.021 4.8166 -3.77717 0
M  V30 2915 N 267.158 6.01101 -3.62798 0
M  V30 2916 H 271.998 1.68697 -2.45653 0
M  V30 2917 H 269.535 0.823004 -1.21922 0
M  V30 2918 H 271.493 3.93034 -1.39929 0
M  V30 2919 H 270.123 3.18308 -0.536671 0
M  V30 2920 H 269.175 2.50763 -2.86046 0
M  V30 2921 H 270.487 3.44993 -3.60252 0
M  V30 2922 H 269.641 5.52969 -2.49619 0
M  V30 2923 H 268.38 4.58957 -1.64953 0
M  V30 2924 H 267.385 3.92007 -3.85501 0
M  V30 2925 H 268.61 4.89406 -4.70807 0
M  V30 2926 H 266.556 5.96273 -2.73486 0
M  V30 2927 H 266.473 6.10409 -4.46023 0
M  V30 2928 H 267.741 6.91761 -3.59286 0
M  V30 2929 N 271.97 1.30982 0.876444 0
M  V30 2930 C 272.9 1.20668 1.99903 0
M  V30 2931 C 273.881 0.095354 1.69833 0
M  V30 2932 O 275.066 0.27885 1.92188 0
M  V30 2933 C 272.196 0.90655 3.3526 0
M  V30 2934 C 271.15 1.97675 3.79617 0
M  V30 2935 C 270.476 1.52943 5.1236 0
M  V30 2936 C 271.776 3.389 3.97422 0
M  V30 2937 H 273.47 2.14586 2.0879 0
M  V30 2938 H 271.016 1.03308 1.00317 0
M  V30 2939 H 272.969 0.821025 4.13324 0
M  V30 2940 H 271.693 -0.0682969 3.26529 0
M  V30 2941 H 270.352 2.05205 3.03787 0
M  V30 2942 H 270 0.54262 5.00065 0
M  V30 2943 H 269.7 2.24532 5.43009 0
M  V30 2944 H 271.224 1.45786 5.92941 0
M  V30 2945 H 272.638 3.34081 4.659 0
M  V30 2946 H 271.035 4.0865 4.3946 0
M  V30 2947 H 272.105 3.80163 3.01006 0
M  V30 2948 N 273.449 -1.08991 1.13837 0
M  V30 2949 C 274.679 -1.84743 0.924859 0
M  V30 2950 C 275.087 -1.81629 -0.529874 0
M  V30 2951 O 274.43 -1.21397 -1.37872 0
M  V30 2952 C 274.492 -3.33568 1.34061 0
M  V30 2953 C 274.156 -3.60425 2.80968 0
M  V30 2954 C 275.153 -3.55771 3.79108 0
M  V30 2955 C 272.838 -3.88627 3.18236 0
M  V30 2956 C 274.832 -3.78939 5.12527 0
M  V30 2957 C 272.519 -4.11449 4.51833 0
M  V30 2958 C 273.517 -4.06598 5.48787 0
M  V30 2959 O 273.205 -4.28826 6.79973 0
M  V30 2960 H 272.937 -0.590258 0.329502 0
M  V30 2961 H 275.491 -1.38598 1.51591 0
M  V30 2962 H 273.721 -3.80442 0.692853 0
M  V30 2963 H 275.41 -3.90743 1.09886 0
M  V30 2964 H 276.176 -3.34005 3.51661 0
M  V30 2965 H 272.055 -3.91526 2.43369 0
M  V30 2966 H 275.599 -3.75068 5.88192 0
M  V30 2967 H 271.496 -4.32698 4.79002 0
M  V30 2968 H 272.264 -4.46264 6.86142 0
M  V30 2969 N 274.927 -0.932562 -1.27047 0
M  V30 2970 C 275.874 -0.434072 -2.26681 0
M  V30 2971 C 276.844 0.501639 -1.58344 0
M  V30 2972 O 278.029 0.419734 -1.86126 0
M  V30 2973 C 275.169 0.30261 -3.43771 0
M  V30 2974 C 274.282 -0.667774 -4.26808 0
M  V30 2975 C 273.417 0.0892393 -5.31125 0
M  V30 2976 C 272.456 -0.873532 -6.05835 0
M  V30 2977 N 271.593 -0.148832 -7.01942 0
M  V30 2978 H 276.433 -1.28868 -2.68695 0
M  V30 2979 H 273.97 -0.646713 -1.32121 0
M  V30 2980 H 275.928 0.746092 -4.10474 0
M  V30 2981 H 274.558 1.12142 -3.02695 0
M  V30 2982 H 273.61 -1.22978 -3.59973 0
M  V30 2983 H 274.922 -1.40337 -4.78651 0
M  V30 2984 H 274.076 0.592409 -6.03801 0
M  V30 2985 H 272.815 0.85777 -4.80097 0
M  V30 2986 H 271.82 -1.38791 -5.31994 0
M  V30 2987 H 273.045 -1.64193 -6.58952 0
M  V30 2988 H 270.991 0.601365 -6.53238 0
M  V30 2989 H 270.908 -0.82391 -7.51497 0
M  V30 2990 H 272.176 0.333527 -7.78786 0
M  V30 2991 N 276.405 1.4127 -0.698611 0
M  V30 2992 C 277.63 2.06024 -0.238512 0
M  V30 2993 C 278.055 1.5224 1.10475 0
M  V30 2994 O 277.413 0.650623 1.69223 0
M  V30 2995 C 277.461 3.59988 -0.209952 0
M  V30 2996 O 276.565 4.04282 0.814235 0
M  V30 2997 H 275.906 0.653829 -0.115775 0
M  V30 2998 H 278.436 1.8098 -0.954326 0
M  V30 2999 H 278.446 4.07979 -0.0418436 0
M  V30 3000 H 277.121 3.98503 -1.1903 0
M  V30 3001 H 275.698 3.6779 0.615234 0
M  V30 3002 N 277.883 0.443576 1.51229 0
M  V30 3003 C 279.113 -0.119117 2.06256 0
M  V30 3004 C 279.521 -1.36471 1.31043 0
M  V30 3005 O 278.864 -1.80034 0.365151 0
M  V30 3006 C 278.926 -0.500546 3.55998 0
M  V30 3007 C 278.59 0.639125 4.52509 0
M  V30 3008 C 279.587 1.51311 4.97394 0
M  V30 3009 C 277.272 0.821632 4.95535 0
M  V30 3010 C 279.266 2.55425 5.83984 0
M  V30 3011 C 276.953 1.86603 5.81913 0
M  V30 3012 C 277.951 2.73072 6.26036 0
M  V30 3013 O 277.639 3.75718 7.10698 0
M  V30 3014 H 277.371 -0.00857665 0.675946 0
M  V30 3015 H 279.925 0.623288 1.95715 0
M  V30 3016 H 278.155 -1.29575 3.64345 0
M  V30 3017 H 279.844 -0.995116 3.93513 0
M  V30 3018 H 280.61 1.38367 4.64844 0
M  V30 3019 H 276.489 0.158149 4.60729 0
M  V30 3020 H 280.033 3.22949 6.18344 0
M  V30 3021 H 275.93 1.99564 6.13876 0
M  V30 3022 H 276.698 3.72374 7.2889 0
M  V30 3023 N 279.361 -1.56624 0.175154 0
M  V30 3024 C 280.291 -2.21155 -0.749195 0
M  V30 3025 C 281.272 -1.16836 -1.23626 0
M  V30 3026 O 282.457 -1.45277 -1.28873 0
M  V30 3027 C 279.587 -2.8553 -1.97711 0
M  V30 3028 C 278.541 -3.95921 -1.62575 0
M  V30 3029 C 277.867 -4.47365 -2.92864 0
M  V30 3030 C 279.167 -5.15323 -0.850838 0
M  V30 3031 H 280.861 -2.98653 -0.211295 0
M  V30 3032 H 278.407 -1.43651 -0.100188 0
M  V30 3033 H 280.36 -3.2935 -2.62881 0
M  V30 3034 H 279.084 -2.05406 -2.53921 0
M  V30 3035 H 277.743 -3.52762 -0.997719 0
M  V30 3036 H 277.391 -3.64027 -3.47122 0
M  V30 3037 H 277.091 -5.21839 -2.70106 0
M  V30 3038 H 278.615 -4.93873 -3.59056 0
M  V30 3039 H 280.029 -5.55812 -1.40521 0
M  V30 3040 H 278.426 -5.95739 -0.722154 0
M  V30 3041 H 279.496 -4.84661 0.152082 0
M  V30 3042 N 280.839 0.0985539 -1.57292 0
M  V30 3043 C 281.749 1.13824 -2.05137 0
M  V30 3044 C 282.765 1.44076 -0.975604 0
M  V30 3045 O 283.941 1.54786 -1.28853 0
M  V30 3046 C 281.006 2.43969 -2.46333 0
M  V30 3047 C 280.067 2.2093 -3.68087 0
M  V30 3048 C 279.3 3.44869 -4.0731 0
M  V30 3049 O 279.523 4.52972 -3.46659 0
M  V30 3050 O 278.457 3.34661 -5.00285 0
M  V30 3051 H 282.283 0.761881 -2.93988 0
M  V30 3052 H 279.868 0.310818 -1.46131 0
M  V30 3053 H 281.75 3.20609 -2.73473 0
M  V30 3054 H 280.425 2.81038 -1.60621 0
M  V30 3055 H 279.332 1.42081 -3.46069 0
M  V30 3056 H 280.665 1.88755 -4.54568 0
M  V30 3057 N 282.317 1.53212 0.369288 0
M  V30 3058 C 283.28 1.7872 1.43498 0
M  V30 3059 C 284.28 0.657554 1.46741 0
M  V30 3060 O 285.47 0.925736 1.47566 0
M  V30 3061 C 282.602 1.90591 2.82645 0
M  V30 3062 H 283.795 2.73894 1.22156 0
M  V30 3063 H 281.348 1.44233 0.602203 0
M  V30 3064 H 282.083 0.974709 3.09306 0
M  V30 3065 H 281.868 2.72751 2.8169 0
M  V30 3066 H 283.358 2.11931 3.59826 0
M  V30 3067 N 283.795 -0.628877 1.44509 0
M  V30 3068 C 285.042 -1.38839 1.47411 0
M  V30 3069 C 285.37 -1.94202 0.10757 0
M  V30 3070 O 284.625 -1.74243 -0.890947 0
M  V30 3071 C 284.924 -2.56995 2.48371 0
M  V30 3072 C 284.59 -2.19908 3.93639 0
M  V30 3073 C 283.252 -2.09506 4.33198 0
M  V30 3074 C 285.604 -1.9064 4.85083 0
M  V30 3075 C 282.932 -1.68028 5.62124 0
M  V30 3076 C 285.284 -1.50655 6.14399 0
M  V30 3077 C 283.948 -1.38796 6.5291 0
M  V30 3078 H 283.218 -0.508048 0.539414 0
M  V30 3079 H 285.865 -0.712913 1.77735 0
M  V30 3080 H 284.17 -3.29786 2.11538 0
M  V30 3081 H 285.867 -3.15223 2.47861 0
M  V30 3082 H 282.457 -2.28922 3.62343 0
M  V30 3083 H 286.641 -1.97585 4.55273 0
M  V30 3084 H 281.897 -1.57452 5.90778 0
M  V30 3085 H 286.071 -1.27048 6.84713 0
M  V30 3086 H 283.698 -1.06429 7.52713 0
M  V30 3087 N 285.273 -1.31445 -0.869486 0
M  V30 3088 C 286.503 -1.23942 -1.65294 0
M  V30 3089 C 286.911 0.197561 -1.88166 0
M  V30 3090 O 286.254 1.14019 -1.44033 0
M  V30 3091 C 286.316 -1.91385 -3.04322 0
M  V30 3092 C 285.98 -3.40726 -3.04557 0
M  V30 3093 C 286.977 -4.36464 -2.82481 0
M  V30 3094 C 284.662 -3.82425 -3.25663 0
M  V30 3095 C 286.656 -5.71876 -2.8149 0
M  V30 3096 C 284.343 -5.1795 -3.243 0
M  V30 3097 C 285.341 -6.12486 -3.02241 0
M  V30 3098 O 285.029 -7.45534 -3.00724 0
M  V30 3099 H 284.761 -0.429459 -0.522054 0
M  V30 3100 H 287.315 -1.73873 -1.0935 0
M  V30 3101 H 285.545 -1.36004 -3.61994 0
M  V30 3102 H 287.234 -1.77791 -3.64891 0
M  V30 3103 H 288 -4.05576 -2.65956 0
M  V30 3104 H 283.879 -3.09274 -3.41863 0
M  V30 3105 H 287.423 -6.45638 -2.64191 0
M  V30 3106 H 283.32 -5.48473 -3.40365 0
M  V30 3107 H 284.088 -7.54713 -3.16782 0
M  V30 3108 N 286.751 1.08385 -1.14413 0
M  V30 3109 C 287.698 2.15311 -0.831265 0
M  V30 3110 C 288.668 1.64751 0.211292 0
M  V30 3111 O 289.853 1.90627 0.0811674 0
M  V30 3112 C 286.993 3.43658 -0.315143 0
M  V30 3113 C 286.106 4.08064 -1.41802 0
M  V30 3114 C 285.241 5.24207 -0.859126 0
M  V30 3115 C 284.28 5.80554 -1.93967 0
M  V30 3116 N 283.417 6.88042 -1.39793 0
M  V30 3117 H 288.257 2.41415 -1.74708 0
M  V30 3118 H 285.794 1.18474 -0.871909 0
M  V30 3119 H 287.752 4.172 0.00230884 0
M  V30 3120 H 286.382 3.17839 0.56378 0
M  V30 3121 H 285.434 3.3228 -1.85187 0
M  V30 3122 H 286.746 4.45962 -2.23427 0
M  V30 3123 H 285.9 6.04689 -0.49359 0
M  V30 3124 H 284.639 4.87699 -0.011932 0
M  V30 3125 H 283.644 4.98725 -2.31415 0
M  V30 3126 H 284.869 6.19121 -2.79046 0
M  V30 3127 H 282.815 6.53493 -0.572919 0
M  V30 3128 H 282.732 7.24767 -2.15054 0
M  V30 3129 H 284 7.72255 -1.0603 0
M  V30 3130 N 288.23 0.939286 1.26551 0
M  V30 3131 C 289.477 0.585847 1.9384 0
M  V30 3132 C 289.805 -0.874784 1.73718 0
M  V30 3133 O 289.06 -1.64092 1.06642 0
M  V30 3134 C 289.359 0.872106 3.46596 0
M  V30 3135 C 289.025 2.31632 3.86856 0
M  V30 3136 C 287.687 2.71111 3.97558 0
M  V30 3137 C 290.039 3.25494 4.07066 0
M  V30 3138 C 287.367 4.03553 4.25866 0
M  V30 3139 C 289.719 4.57531 4.36862 0
M  V30 3140 C 288.383 4.96828 4.45778 0
M  V30 3141 H 287.653 0.214377 0.709312 0
M  V30 3142 H 290.3 1.18544 1.50398 0
M  V30 3143 H 288.605 0.18996 3.91339 0
M  V30 3144 H 290.302 0.577442 3.96821 0
M  V30 3145 H 286.892 2.00008 3.79071 0
M  V30 3146 H 291.076 2.9619 3.98227 0
M  V30 3147 H 286.332 4.33665 4.30981 0
M  V30 3148 H 290.506 5.30254 4.51446 0
M  V30 3149 H 288.133 5.99482 4.67468 0
M  V30 3150 N 289.708 -1.40897 0.706093 0
M  V30 3151 C 290.948 -2.02916 0.245827 0
M  V30 3152 C 291.312 -1.54751 -1.13649 0
M  V30 3153 O 292.513 -2.08768 -1.69321 0
M  V30 3154 C 290.784 -3.56031 0.312537 0
M  V30 3155 S 292.343 -4.38741 -0.0721388 0
M  V30 3156 H 289.161 -0.704186 0.0982007 0
M  V30 3157 H 291.763 -1.72168 0.926207 0
M  V30 3158 H 290.467 -3.88579 1.32039 0
M  V30 3159 H 289.998 -3.91495 -0.386641 0
M  V30 3160 H 292.013 -4.78952 -1.29692 0
M  V30 3161 N 291.186 -0.45159 -1.50991 0
M  V30 3162 C 292.133 0.352625 -2.2809 0
M  V30 3163 C 293.103 1.0044 -1.32291 0
M  V30 3164 O 294.288 1.02058 -1.6121 0
M  V30 3165 C 291.428 1.43983 -3.13629 0
M  V30 3166 C 290.541 0.804772 -4.24438 0
M  V30 3167 C 289.676 1.86822 -4.97263 0
M  V30 3168 C 288.715 1.21236 -5.99973 0
M  V30 3169 N 287.852 2.2178 -6.66152 0
M  V30 3170 H 292.692 -0.311186 -2.96371 0
M  V30 3171 H 290.229 -0.165308 -1.46168 0
M  V30 3172 H 292.187 2.08161 -3.61559 0
M  V30 3173 H 290.817 2.07307 -2.47434 0
M  V30 3174 H 289.869 0.0509129 -3.80366 0
M  V30 3175 H 291.181 0.286076 -4.97979 0
M  V30 3176 H 290.335 2.58628 -5.48813 0
M  V30 3177 H 289.074 2.42068 -4.23385 0
M  V30 3178 H 288.079 0.479828 -5.47702 0
M  V30 3179 H 289.304 0.667051 -6.75816 0
M  V30 3180 H 287.25 2.76079 -5.95077 0
M  V30 3181 H 287.167 1.74841 -7.35504 0
M  V30 3182 H 288.435 2.93026 -7.22327 0
M  V30 3183 N 292.664 1.56529 -0.183458 0
M  V30 3184 C 293.612 2.19873 0.758845 0
M  V30 3185 C 294.606 1.16638 1.22849 0
M  V30 3186 O 295.812 1.3481 1.19274 0
M  V30 3187 H 292.187 0.7045 0.263029 0
M  V30 3188 H 294.158 2.97724 0.200755 0
M  V30 3189 C 292.907 2.86314 1.9728 0
M  V30 3190 H 292.23 3.65487 1.62047 0
M  V30 3191 H 293.67 3.3409 2.61075 0
M  V30 3192 C 292.129 1.86729 2.80418 0
M  V30 3193 O 292.659 1.36031 3.77966 0
M  V30 3194 N 290.865 1.55216 2.45675 0
M  V30 3195 H 290.412 1.96636 1.66409 0
M  V30 3196 H 290.37 0.888388 3.01588 0
M  V30 3197 N 294.142 -0.090211 1.57342 0
M  V30 3198 C 295.092 -1.11557 1.98844 0
M  V30 3199 C 296.076 -1.35503 0.867624 0
M  V30 3200 O 297.268 -1.36113 1.13148 0
M  V30 3201 C 294.397 -2.43446 2.42051 0
M  V30 3202 C 293.483 -2.22853 3.60828 0
M  V30 3203 N 293.874 -1.72141 4.75606 0
M  V30 3204 C 292.172 -2.53401 3.67021 0
M  V30 3205 C 292.873 -1.65932 5.57531 0
M  V30 3206 N 291.849 -2.11323 5.00843 0
M  V30 3207 H 295.651 -0.716499 2.85032 0
M  V30 3208 H 293.165 -0.297567 1.59651 0
M  V30 3209 H 295.162 -3.17644 2.70014 0
M  V30 3210 H 293.822 -2.84087 1.57241 0
M  V30 3211 H 294.833 -1.41268 4.98261 0
M  V30 3212 H 291.51 -2.97532 2.92884 0
M  V30 3213 H 292.9 -1.27733 6.59647 0
M  V30 3214 N 295.62 -1.53406 -0.361157 0
M  V30 3215 C 296.868 -1.69467 -1.10115 0
M  V30 3216 C 297.189 -0.451352 -1.89705 0
M  V30 3217 O 296.459 0.534636 -1.88463 0
M  V30 3218 H 295.039 -0.624749 -0.409508 0
M  V30 3219 H 297.701 -1.90609 -0.406699 0
M  V30 3220 H 296.797 -2.55774 -1.78847 0
M  V30 3221 N 297.098 0.621204 -1.44841 0
M  V30 3222 C 298.375 1.38 -1.38619 0
M  V30 3223 C 298.755 2.11041 -0.0498935 0
M  V30 3224 O 298.103 2.06992 0.967816 0
M  V30 3225 C 298.313 2.33817 -2.59096 0
M  V30 3226 C 299.661 2.96844 -3.03593 0
M  V30 3227 O 300.685 2.44141 -2.59371 0
M  V30 3228 O 299.544 3.92476 -3.80296 0
M  V30 3229 H 296.638 0.61811 -0.549426 0
M  V30 3230 H 299.184 0.645429 -1.56947 0
M  V30 3231 H 297.956 1.79012 -3.47952 0
M  V30 3232 H 297.579 3.14676 -2.43032 0
M  V30 3233 N 298.576 1.31904 0.862503 0
M  V30 3234 C 299.822 1.22197 1.61851 0
M  V30 3235 C 300.155 -0.217641 1.92977 0
M  V30 3236 O 299.43 -1.15264 1.56666 0
M  V30 3237 C 299.713 2.07378 2.94391 0
M  V30 3238 C 299.566 3.59678 2.70096 0
M  V30 3239 C 300.885 1.92891 3.95577 0
M  V30 3240 H 298.004 0.445255 0.587296 0
M  V30 3241 H 300.646 1.6177 0.99651 0
M  V30 3242 H 298.796 1.73758 3.47477 0
M  V30 3243 H 300.468 4.03472 2.23625 0
M  V30 3244 H 298.711 3.82735 2.04197 0
M  V30 3245 H 299.382 4.14595 3.64438 0
M  V30 3246 H 301.858 2.22327 3.51724 0
M  V30 3247 H 300.734 2.54781 4.86187 0
M  V30 3248 H 300.995 0.894315 4.3296 0
M  V30 3249 N 300.054 -1.07777 1.14986 0
M  V30 3250 C 301.282 -1.84018 0.945773 0
M  V30 3251 C 301.697 -1.81897 -0.505863 0
M  V30 3252 O 301.054 -1.22726 -1.35072 0
M  V30 3253 C 301.105 -3.31287 1.44677 0
M  V30 3254 O 300.826 -3.33449 2.84154 0
M  V30 3255 C 302.327 -4.24311 1.28355 0
M  V30 3256 H 299.547 -0.580716 0.336169 0
M  V30 3257 H 302.091 -1.36077 1.52654 0
M  V30 3258 H 300.246 -3.76594 0.908625 0
M  V30 3259 H 300.66 -4.25427 3.06777 0
M  V30 3260 H 302.134 -5.2573 1.68261 0
M  V30 3261 H 302.611 -4.38612 0.227184 0
M  V30 3262 H 303.217 -3.84836 1.81056 0
M  V30 3263 N 301.532 -0.945985 -1.26051 0
M  V30 3264 C 302.495 -0.463897 -2.24456 0
M  V30 3265 C 303.495 0.427655 -1.55009 0
M  V30 3266 O 304.685 0.226157 -1.72726 0
M  V30 3267 C 301.817 0.330812 -3.39291 0
M  V30 3268 H 303.01 -1.33357 -2.68619 0
M  V30 3269 H 300.563 -0.728416 -1.38289 0
M  V30 3270 H 301.298 1.21852 -3.00537 0
M  V30 3271 H 301.083 -0.308679 -3.90883 0
M  V30 3272 H 302.573 0.657865 -4.12386 0
M  V30 3273 N 303.011 1.40521 -0.713556 0
M  V30 3274 C 303.921 2.34522 -0.0606667 0
M  V30 3275 C 304.937 1.57193 0.74607 0
M  V30 3276 O 306.113 1.89591 0.679493 0
M  V30 3277 C 303.178 3.36081 0.851491 0
M  V30 3278 C 302.239 4.29286 0.0349339 0
M  V30 3279 C 301.472 5.25994 0.903649 0
M  V30 3280 O 301.695 5.28616 2.14292 0
M  V30 3281 O 300.629 6.00918 0.343723 0
M  V30 3282 H 304.455 2.91968 -0.835972 0
M  V30 3283 H 302.04 1.41681 -0.47402 0
M  V30 3284 H 303.922 3.98369 1.37404 0
M  V30 3285 H 302.597 2.81052 1.60598 0
M  V30 3286 H 301.504 3.70289 -0.532633 0
M  V30 3287 H 302.837 4.87462 -0.681287 0
M  V30 3288 N 304.489 0.459591 1.5075 0
M  V30 3289 C 305.735 -0.0994966 2.02556 0
M  V30 3290 C 306.068 -1.40399 1.3417 0
M  V30 3291 O 305.343 -1.88892 0.463683 0
M  V30 3292 C 305.626 -0.295242 3.58888 0
M  V30 3293 C 305.479 1.02947 4.37861 0
M  V30 3294 C 306.798 -1.05502 4.27267 0
M  V30 3295 H 303.917 -0.034686 0.736183 0
M  V30 3296 H 306.559 0.602938 1.8018 0
M  V30 3297 H 304.709 -0.893563 3.78084 0
M  V30 3298 H 306.381 1.66348 4.30263 0
M  V30 3299 H 304.624 1.62885 4.02058 0
M  V30 3300 H 305.295 0.846281 5.45474 0
M  V30 3301 H 307.771 -0.547993 4.12476 0
M  V30 3302 H 306.647 -1.16077 5.36486 0
M  V30 3303 H 306.908 -2.08875 3.89645 0
M  V30 3304 N 305.967 -1.56429 0.191757 0
M  V30 3305 C 306.9 -2.14829 -0.76967 0
M  V30 3306 C 307.878 -1.08405 -1.2119 0
M  V30 3307 O 309.062 -1.36498 -1.30002 0
M  V30 3308 C 306.189 -2.70446 -2.03903 0
M  V30 3309 C 305.235 -3.89428 -1.7392 0
M  V30 3310 S 306.068 -5.28048 -0.890265 0
M  V30 3311 C 307.224 -5.87085 -2.16984 0
M  V30 3312 H 307.457 -2.96042 -0.273204 0
M  V30 3313 H 304.99 -1.54383 -0.0231975 0
M  V30 3314 H 306.948 -3.03134 -2.76803 0
M  V30 3315 H 305.609 -1.89281 -2.50662 0
M  V30 3316 H 304.802 -4.26742 -2.68155 0
M  V30 3317 H 304.404 -3.57732 -1.09103 0
M  V30 3318 H 306.696 -6.01244 -3.12269 0
M  V30 3319 H 307.639 -6.83747 -1.84108 0
M  V30 3320 H 308.047 -5.15663 -2.29678 0
M  V30 3321 N 307.445 0.0818655 -1.57387 0
M  V30 3322 C 308.685 0.788375 -1.88584 0
M  V30 3323 C 309.049 1.75248 -0.784351 0
M  V30 3324 O 310.25 2.50334 -0.979105 0
M  V30 3325 C 308.521 1.48654 -3.25018 0
M  V30 3326 S 310.08 2.22951 -3.7794 0
M  V30 3327 H 306.898 0.262383 -0.660815 0
M  V30 3328 H 309.5 0.0448995 -1.95448 0
M  V30 3329 H 308.204 0.770919 -4.03094 0
M  V30 3330 H 307.735 2.26965 -3.21326 0
M  V30 3331 H 309.75 3.49309 -3.52417 0
M  V30 3332 N 308.923 1.53595 0.353017 0
M  V30 3333 C 310.334 1.61937 0.929153 0
M  V30 3334 C 310.685 0.494686 1.89861 0
M  V30 3335 O 309.81 -0.377017 2.1309 0
M  V30 3336 C 310.405 2.93526 1.69199 0
M  V30 3337 C 308.964 3.04161 2.21727 0
M  V30 3338 C 308.111 2.57322 1.03348 0
M  V30 3339 H 311.062 1.58155 0.131431 0
M  V30 3340 H 311.083 2.82034 2.55416 0
M  V30 3341 H 310.595 3.75362 0.986144 0
M  V30 3342 H 308.696 2.26938 2.95516 0
M  V30 3343 H 308.809 4.09465 2.48748 0
M  V30 3344 H 307.173 2.12499 1.40414 0
M  V30 3345 H 307.956 3.41588 0.342428 0
M  V30 3346 N 310.401 -0.613514 1.45168 0
M  V30 3347 C 311.65 -1.36874 1.4815 0
M  V30 3348 C 311.963 -1.952 0.124982 0
M  V30 3349 O 313.169 -2.71481 0.0324176 0
M  V30 3350 C 311.625 -2.47905 2.60904 0
M  V30 3351 C 311.233 -1.96016 4.02842 0
M  V30 3352 C 312.977 -3.24965 2.73126 0
M  V30 3353 C 310.884 -3.04494 5.06988 0
M  V30 3354 H 309.814 -0.514428 0.551253 0
M  V30 3355 H 312.465 -0.658182 1.7129 0
M  V30 3356 H 310.847 -3.21618 2.31037 0
M  V30 3357 H 312.021 -1.29051 4.4236 0
M  V30 3358 H 310.336 -1.31719 3.95018 0
M  V30 3359 H 312.933 -4.05865 3.48106 0
M  V30 3360 H 313.276 -3.75588 1.79553 0
M  V30 3361 H 313.809 -2.5835 3.0249 0
M  V30 3362 H 310.548 -2.58795 6.0225 0
M  V30 3363 H 310.068 -3.70044 4.72046 0
M  V30 3364 H 311.747 -3.68976 5.31475 0
M  V30 3365 N 311.879 -1.3236 -0.855495 0
M  V30 3366 C 312.809 -1.23833 -1.97958 0
M  V30 3367 C 313.79 -0.122361 -1.69659 0
M  V30 3368 O 314.975 -0.30939 -1.9172 0
M  V30 3369 C 312.105 -0.959772 -3.33775 0
M  V30 3370 C 311.059 -2.03689 -3.76424 0
M  V30 3371 C 310.385 -1.61075 -5.09862 0
M  V30 3372 C 311.685 -3.4518 -3.9198 0
M  V30 3373 H 313.379 -2.1788 -2.0535 0
M  V30 3374 H 310.925 -1.04891 -0.986605 0
M  V30 3375 H 312.878 -0.886678 -4.11966 0
M  V30 3376 H 311.602 0.0163404 -3.26596 0
M  V30 3377 H 310.261 -2.10012 -3.00484 0
M  V30 3378 H 309.909 -0.622107 -4.99138 0
M  V30 3379 H 309.609 -2.33143 -5.39368 0
M  V30 3380 H 311.133 -1.55201 -5.90546 0
M  V30 3381 H 312.547 -3.4145 -4.60526 0
M  V30 3382 H 310.944 -4.1559 -4.32903 0
M  V30 3383 H 312.014 -3.84903 -2.94919 0
M  V30 3384 N 313.357 1.07166 -1.15556 0
M  V30 3385 C 314.267 2.17947 -0.868116 0
M  V30 3386 C 315.283 1.73297 0.156297 0
M  V30 3387 O 316.459 2.01392 -0.0182327 0
M  V30 3388 C 313.524 3.44789 -0.36355 0
M  V30 3389 C 312.585 4.03996 -1.45209 0
M  V30 3390 C 311.818 5.24783 -0.971508 0
M  V30 3391 O 312.041 5.70109 0.182194 0
M  V30 3392 O 310.975 5.75715 -1.75603 0
M  V30 3393 H 314.801 2.4503 -1.79427 0
M  V30 3394 H 312.386 1.16539 -0.934824 0
M  V30 3395 H 314.268 4.21307 -0.0887113 0
M  V30 3396 H 312.943 3.19253 0.534708 0
M  V30 3397 H 311.85 3.29009 -1.78056 0
M  V30 3398 H 313.183 4.33808 -2.32533 0
M  V30 3399 N 314.835 0.952656 1.25548 0
M  V30 3400 C 316.082 0.606373 1.93208 0
M  V30 3401 C 316.41 -0.85631 1.74636 0
M  V30 3402 O 315.665 -1.62951 1.08376 0
M  V30 3403 C 315.964 0.908818 3.45652 0
M  V30 3404 C 315.63 2.35722 3.84378 0
M  V30 3405 C 314.292 2.75312 3.9466 0
M  V30 3406 C 316.644 3.29793 4.03591 0
M  V30 3407 C 313.972 4.08047 4.21562 0
M  V30 3408 C 316.324 4.62138 4.31985 0
M  V30 3409 C 314.988 5.01528 4.40484 0
M  V30 3410 H 314.258 0.221888 0.706998 0
M  V30 3411 H 316.905 1.20132 1.49133 0
M  V30 3412 H 315.21 0.231456 3.91116 0
M  V30 3413 H 316.907 0.619498 3.96186 0
M  V30 3414 H 313.497 2.04017 3.76928 0
M  V30 3415 H 317.681 3.00397 3.95064 0
M  V30 3416 H 312.937 4.38212 4.26357 0
M  V30 3417 H 317.111 5.35012 4.45797 0
M  V30 3418 H 314.738 6.04406 4.61083 0
M  V30 3419 N 316.313 -1.40141 0.720998 0
M  V30 3420 C 317.223 -2.34486 0.0731031 0
M  V30 3421 C 318.239 -1.57587 -0.737723 0
M  V30 3422 O 319.415 -1.89949 -0.669429 0
M  V30 3423 C 316.48 -3.36528 -0.833656 0
M  V30 3424 C 315.541 -4.29298 -0.0121673 0
M  V30 3425 C 314.774 -5.26466 -0.875742 0
M  V30 3426 O 314.997 -5.29745 -2.11485 0
M  V30 3427 O 313.931 -6.01092 -0.31185 0
M  V30 3428 H 317.757 -2.9152 0.851444 0
M  V30 3429 H 315.342 -1.41427 0.481527 0
M  V30 3430 H 317.224 -3.99093 -1.35289 0
M  V30 3431 H 315.899 -2.81899 -1.59105 0
M  V30 3432 H 314.806 -3.70001 0.552262 0
M  V30 3433 H 316.139 -4.87094 0.707129 0
M  V30 3434 N 317.792 -0.46758 -1.50504 0
M  V30 3435 C 318.755 0.317059 -2.26996 0
M  V30 3436 C 319.755 0.923513 -1.31635 0
M  V30 3437 O 320.945 0.793239 -1.55091 0
M  V30 3438 C 318.077 1.45134 -3.08462 0
M  V30 3439 H 319.27 -0.353723 -2.97807 0
M  V30 3440 H 316.823 -0.221545 -1.54722 0
M  V30 3441 H 317.558 2.15728 -2.4214 0
M  V30 3442 H 317.343 1.02232 -3.78538 0
M  V30 3443 H 318.833 2.00493 -3.66323 0
M  V30 3444 N 319.27 1.56325 -0.20005 0
M  V30 3445 C 320.547 1.89484 0.48529 0
M  V30 3446 C 320.927 1.1143 1.79294 0
M  V30 3447 O 320.275 0.216919 2.27468 0
M  V30 3448 C 320.485 3.41923 0.699243 0
M  V30 3449 C 321.833 4.12256 1.01638 0
M  V30 3450 O 322.857 3.47402 0.786792 0
M  V30 3451 O 321.716 5.26887 1.45095 0
M  V30 3452 H 318.81 0.787144 0.253639 0
M  V30 3453 H 321.356 1.67985 -0.240633 0
M  V30 3454 H 320.128 3.90658 -0.224008 0
M  V30 3455 H 319.751 3.69131 1.47744 0
M  V30 3456 N 320.748 -0.0735177 1.57428 0
M  V30 3457 C 322.164 -0.428264 1.53747 0
M  V30 3458 C 322.364 -1.79272 0.91998 0
M  V30 3459 O 321.42 -2.47051 0.521745 0
M  V30 3460 C 322.733 -0.370914 2.98404 0
M  V30 3461 C 324.281 -0.451224 3.0973 0
M  V30 3462 C 324.756 -0.4238 4.56035 0
M  V30 3463 N 326.247 -0.483925 4.60665 0
M  V30 3464 C 326.982 -0.484891 5.71346 0
M  V30 3465 N 326.478 -0.440775 6.91396 0
M  V30 3466 N 328.271 -0.531319 5.59583 0
M  V30 3467 H 320.422 0.819949 1.95935 0
M  V30 3468 H 322.685 0.307493 0.896745 0
M  V30 3469 H 322.391 0.564956 3.47133 0
M  V30 3470 H 322.265 -1.18176 3.5821 0
M  V30 3471 H 324.652 -1.37752 2.60976 0
M  V30 3472 H 324.733 0.388167 2.52838 0
M  V30 3473 H 324.377 0.498638 5.05446 0
M  V30 3474 H 324.307 -1.2807 5.10789 0
M  V30 3475 H 326.798 -0.522338 3.74273 0
M  V30 3476 H 327.111 -0.44539 7.71515 0
M  V30 3477 H 325.456 -0.40749 6.93804 0
M  V30 3478 H 328.647 -0.563464 4.64696 0
M  V30 3479 H 328.82 -0.528603 6.4584 0
M  V30 3480 N 322.226 -1.5378 -0.344866 0
M  V30 3481 C 323.642 -1.44015 -0.687888 0
M  V30 3482 C 323.842 -0.595834 -1.92489 0
M  V30 3483 O 322.898 -0.0863064 -2.52352 0
M  V30 3484 C 324.211 -2.87481 -0.881758 0
M  V30 3485 C 325.759 -2.97247 -0.980459 0
M  V30 3486 C 326.234 -4.41819 -1.20665 0
M  V30 3487 N 327.725 -4.45339 -1.27389 0
M  V30 3488 C 328.46 -5.54333 -1.46639 0
M  V30 3489 N 327.956 -6.73335 -1.63071 0
M  V30 3490 N 329.749 -5.41944 -1.49176 0
M  V30 3491 H 321.9 -2.07169 0.468475 0
M  V30 3492 H 324.163 -0.93643 0.147655 0
M  V30 3493 H 323.869 -3.51672 -0.0443444 0
M  V30 3494 H 323.743 -3.32352 -1.78388 0
M  V30 3495 H 326.13 -2.33197 -1.8084 0
M  V30 3496 H 326.211 -2.5574 -0.0552713 0
M  V30 3497 H 325.855 -5.06449 -0.383652 0
M  V30 3498 H 325.785 -4.80917 -2.14539 0
M  V30 3499 H 328.276 -3.59585 -1.1622 0
M  V30 3500 H 328.589 -7.52165 -1.77391 0
M  V30 3501 H 326.934 -6.76282 -1.60209 0
M  V30 3502 H 330.125 -4.47932 -1.3592 0
M  V30 3503 H 330.298 -6.26946 -1.63837 0
M  V30 3504 N 323.704 0.605807 -1.45491 0
M  V30 3505 C 324.667 1.69836 -1.5391 0
M  V30 3506 C 325.667 1.55261 -0.418424 0
M  V30 3507 O 326.857 1.60296 -0.681965 0
M  V30 3508 C 323.989 3.09117 -1.43734 0
M  V30 3509 H 325.182 1.63738 -2.51257 0
M  V30 3510 H 322.735 0.821689 -1.32959 0
M  V30 3511 H 323.47 3.20791 -0.475788 0
M  V30 3512 H 323.255 3.21104 -2.25021 0
M  V30 3513 H 324.745 3.88696 -1.52661 0
M  V30 3514 N 325.182 1.32811 0.848464 0
M  V30 3515 C 326.429 1.23724 1.60308 0
M  V30 3516 C 326.757 -0.1994 1.93475 0
M  V30 3517 O 326.012 -1.15406 1.5805 0
M  V30 3518 C 326.311 2.04831 2.92881 0
M  V30 3519 C 325.977 3.54125 2.79117 0
M  V30 3520 C 324.639 3.94829 2.7507 0
M  V30 3521 C 326.991 4.49036 2.64606 0
M  V30 3522 C 324.319 5.28675 2.544 0
M  V30 3523 C 326.671 5.83033 2.4547 0
M  V30 3524 C 325.335 6.22931 2.39819 0
M  V30 3525 H 324.605 0.452737 0.586609 0
M  V30 3526 H 327.252 1.64301 0.983743 0
M  V30 3527 H 325.557 1.57001 3.58968 0
M  V30 3528 H 327.254 1.95164 3.50303 0
M  V30 3529 H 323.844 3.21801 2.83094 0
M  V30 3530 H 328.028 4.18505 2.66772 0
M  V30 3531 H 323.284 5.58637 2.48465 0
M  V30 3532 H 327.458 6.56186 2.33222 0
M  V30 3533 H 325.085 7.26584 2.23562 0
M  V30 3534 N 326.66 -1.06551 1.16123 0
M  V30 3535 C 327.909 -1.78687 0.935622 0
M  V30 3536 C 328.222 -1.88056 -0.538001 0
M  V30 3537 O 329.428 -2.56794 -0.88143 0
M  V30 3538 C 327.884 -3.21143 1.62466 0
M  V30 3539 C 327.492 -3.19949 3.13587 0
M  V30 3540 C 329.236 -3.9783 1.48092 0
M  V30 3541 C 327.143 -4.57108 3.75241 0
M  V30 3542 H 326.073 -0.669712 0.346412 0
M  V30 3543 H 328.724 -1.19534 1.39226 0
M  V30 3544 H 327.106 -3.80539 1.09572 0
M  V30 3545 H 328.28 -2.70151 3.73303 0
M  V30 3546 H 326.595 -2.5676 3.27816 0
M  V30 3547 H 329.192 -4.99217 1.91538 0
M  V30 3548 H 329.535 -4.14078 0.429507 0
M  V30 3549 H 330.068 -3.4495 1.98127 0
M  V30 3550 H 326.807 -4.46065 4.80319 0
M  V30 3551 H 326.327 -5.07111 3.20309 0
M  V30 3552 H 328.006 -5.26069 3.76644 0
M  V30 3553 N 328.138 -0.959301 -1.25041 0
M  V30 3554 C 329.387 -0.612254 -1.92183 0
M  V30 3555 C 329.7 0.855347 -1.75907 0
M  V30 3556 O 330.906 1.31256 -2.37664 0
M  V30 3557 C 329.362 -1.04435 -3.44414 0
M  V30 3558 C 328.97 -2.53482 -3.69393 0
M  V30 3559 C 330.714 -0.770055 -4.17457 0
M  V30 3560 C 328.621 -2.90468 -5.15153 0
M  V30 3561 H 327.551 -0.225279 -0.719559 0
M  V30 3562 H 330.202 -1.16438 -1.41825 0
M  V30 3563 H 328.584 -0.4206 -3.9376 0
M  V30 3564 H 329.758 -3.20916 -3.30681 0
M  V30 3565 H 328.073 -2.78432 -3.0962 0
M  V30 3566 H 330.67 -1.02249 -5.24832 0
M  V30 3567 H 331.013 0.293611 -4.15263 0
M  V30 3568 H 331.546 -1.35437 -3.74034 0
M  V30 3569 H 328.285 -3.95871 -5.22462 0
M  V30 3570 H 327.805 -2.27711 -5.54894 0
M  V30 3571 H 329.484 -2.79914 -5.83315 0
M  V30 3572 N 329.616 1.39756 -0.72842 0
M  V30 3573 C 330.844 2.04948 -0.283528 0
M  V30 3574 C 331.259 1.54908 1.0793 0
M  V30 3575 O 330.616 0.711135 1.68075 0
M  V30 3576 C 330.667 3.60498 -0.268957 0
M  V30 3577 O 330.388 4.08695 -1.57798 0
M  V30 3578 C 331.889 4.4288 0.192912 0
M  V30 3579 H 329.109 0.659243 -0.125056 0
M  V30 3580 H 331.653 1.78927 -0.990226 0
M  V30 3581 H 329.808 3.85444 0.388801 0
M  V30 3582 H 330.222 5.02977 -1.48709 0
M  V30 3583 H 331.696 5.51791 0.151952 0
M  V30 3584 H 332.173 4.21418 1.23708 0
M  V30 3585 H 332.779 4.23069 -0.435039 0
M  V30 3586 N 331.094 0.475555 1.50254 0
M  V30 3587 C 332.024 -0.30611 2.31485 0
M  V30 3588 C 333.005 -0.986228 1.38591 0
M  V30 3589 O 334.19 -0.982541 1.67511 0
M  V30 3590 C 331.32 -1.38588 3.1845 0
M  V30 3591 C 330.274 -0.827115 4.19932 0
M  V30 3592 C 329.6 -2.00551 4.95665 0
M  V30 3593 C 330.9 0.16463 5.2204 0
M  V30 3594 H 332.594 0.371866 2.97082 0
M  V30 3595 H 330.14 0.180282 1.42867 0
M  V30 3596 H 332.093 -1.94023 3.74076 0
M  V30 3597 H 330.817 -2.09269 2.50747 0
M  V30 3598 H 329.476 -0.294702 3.65414 0
M  V30 3599 H 329.124 -2.6994 4.2443 0
M  V30 3600 H 328.824 -1.63784 5.64313 0
M  V30 3601 H 330.348 -2.56468 5.54127 0
M  V30 3602 H 331.762 -0.300699 5.72511 0
M  V30 3603 H 330.159 0.446813 5.98434 0
M  V30 3604 H 331.229 1.08905 4.72512 0
M  V30 3605 N 332.573 -1.56217 0.208337 0
M  V30 3606 C 333.521 -2.21053 -0.723769 0
M  V30 3607 C 334.515 -1.18578 -1.20978 0
M  V30 3608 O 335.721 -1.36691 -1.17114 0
M  V30 3609 H 332.096 -0.708595 -0.251788 0
M  V30 3610 H 334.067 -2.98006 -0.153365 0
M  V30 3611 C 332.816 -2.89417 -1.927 0
M  V30 3612 H 332.139 -3.68019 -1.56212 0
M  V30 3613 H 333.579 -3.38201 -2.55727 0
M  V30 3614 C 332.038 -1.91166 -2.77411 0
M  V30 3615 O 332.568 -1.42026 -3.75754 0
M  V30 3616 N 330.774 -1.59105 -2.43175 0
M  V30 3617 H 330.321 -1.99259 -1.63259 0
M  V30 3618 H 330.279 -0.936255 -3.00136 0
M  V30 3619 N 334.051 0.0651679 -1.57465 0
M  V30 3620 C 335.276 0.779605 -1.9219 0
M  V30 3621 C 335.701 1.69988 -0.805333 0
M  V30 3622 O 335.059 1.79685 0.241435 0
M  V30 3623 C 335.107 1.54364 -3.2589 0
M  V30 3624 O 334.211 2.65474 -3.1559 0
M  V30 3625 H 333.552 0.212249 -0.629163 0
M  V30 3626 H 336.082 0.0314294 -2.04576 0
M  V30 3627 H 336.092 1.92146 -3.59922 0
M  V30 3628 H 334.767 0.868457 -4.06732 0
M  V30 3629 H 333.344 2.30501 -2.93128 0
M  V30 3630 N 335.529 1.53961 0.336706 0
M  V30 3631 C 336.776 1.71536 1.07618 0
M  V30 3632 C 337.104 0.482125 1.8843 0
M  V30 3633 O 336.359 -0.536142 1.88213 0
M  V30 3634 C 336.658 2.93493 2.03953 0
M  V30 3635 C 336.324 4.28811 1.39399 0
M  V30 3636 C 334.986 4.65602 1.21523 0
M  V30 3637 C 337.338 5.12844 0.929541 0
M  V30 3638 C 334.666 5.84037 0.558312 0
M  V30 3639 C 337.018 6.31951 0.286505 0
M  V30 3640 C 335.682 6.67432 0.0954869 0
M  V30 3641 H 334.952 0.627696 0.393801 0
M  V30 3642 H 337.599 1.88186 0.354715 0
M  V30 3643 H 335.904 2.71475 2.82504 0
M  V30 3644 H 337.601 3.04285 2.61174 0
M  V30 3645 H 334.191 3.99858 1.54311 0
M  V30 3646 H 338.375 4.84947 1.05548 0
M  V30 3647 H 333.631 6.10097 0.398995 0
M  V30 3648 H 337.805 6.96352 -0.0814376 0
M  V30 3649 H 335.432 7.59063 -0.415579 0
M  V30 3650 N 337.007 -0.598083 1.45811 0
M  V30 3651 C 338.255 -1.35413 1.50026 0
M  V30 3652 C 338.576 -1.94444 0.147177 0
M  V30 3653 O 337.846 -1.77701 -0.824571 0
M  V30 3654 H 336.426 -0.502727 0.552517 0
M  V30 3655 H 339.088 -0.701606 1.81834 0
M  V30 3656 H 338.184 -2.16871 2.2444 0
M  V30 3657 N 338.485 -1.33259 -0.841409 0
M  V30 3658 C 339.713 -1.27605 -1.62864 0
M  V30 3659 C 340.128 0.153507 -1.88175 0
M  V30 3660 O 339.485 1.09485 -1.46011 0
M  V30 3661 C 339.536 -2.04596 -2.98031 0
M  V30 3662 O 339.257 -3.41975 -2.73834 0
M  V30 3663 C 340.758 -2.06122 -3.92465 0
M  V30 3664 H 337.978 -0.439718 -0.506842 0
M  V30 3665 H 340.522 -1.75591 -1.04824 0
M  V30 3666 H 338.677 -1.60299 -3.5268 0
M  V30 3667 H 339.091 -3.81549 -3.59889 0
M  V30 3668 H 340.565 -2.64451 -4.84531 0
M  V30 3669 H 341.042 -1.05083 -4.26444 0
M  V30 3670 H 341.648 -2.50427 -3.43753 0
M  V30 3671 N 339.963 1.05934 -1.16686 0
M  V30 3672 C 340.873 2.17014 -0.891183 0
M  V30 3673 C 341.889 1.73453 0.137907 0
M  V30 3674 O 343.065 2.01361 -0.039592 0
M  V30 3675 C 340.13 3.44384 -0.400099 0
M  V30 3676 C 339.191 4.02433 -1.49486 0
M  V30 3677 C 338.424 5.23723 -1.02711 0
M  V30 3678 O 338.647 5.7027 0.121716 0
M  V30 3679 O 337.581 5.7382 -1.81699 0
M  V30 3680 H 341.407 2.43113 -1.82015 0
M  V30 3681 H 338.992 1.15541 -0.947132 0
M  V30 3682 H 340.874 4.21189 -0.133392 0
M  V30 3683 H 339.549 3.19802 0.500817 0
M  V30 3684 H 338.456 3.27102 -1.81535 0
M  V30 3685 H 339.789 4.31317 -2.37121 0
M  V30 3686 N 341.441 0.965919 1.2453 0
M  V30 3687 C 342.371 0.513476 2.27784 0
M  V30 3688 C 343.352 -0.445974 1.6415 0
M  V30 3689 O 344.537 -0.342485 1.91156 0
M  V30 3690 C 341.667 -0.198839 3.4673 0
M  V30 3691 C 340.621 0.676456 4.2262 0
M  V30 3692 C 339.947 -0.167248 5.34438 0
M  V30 3693 C 341.247 1.96017 4.84123 0
M  V30 3694 H 342.941 1.3765 2.65881 0
M  V30 3695 H 340.487 0.663321 1.27813 0
M  V30 3696 H 342.44 -0.526567 4.18097 0
M  V30 3697 H 341.164 -1.0962 3.07654 0
M  V30 3698 H 339.823 0.98743 3.53052 0
M  V30 3699 H 339.471 -1.0647 4.91603 0
M  V30 3700 H 339.171 0.415181 5.86131 0
M  V30 3701 H 340.695 -0.489688 6.08633 0
M  V30 3702 H 342.109 1.69814 5.47573 0
M  V30 3703 H 340.506 2.48918 5.4604 0
M  V30 3704 H 341.576 2.65622 4.05676 0
M  V30 3705 N 342.919 -1.39368 0.735821 0
M  V30 3706 C 344.144 -2.05319 0.293052 0
M  V30 3707 C 344.569 -1.55115 -1.064 0
M  V30 3708 O 343.927 -0.695261 -1.67439 0
M  V30 3709 C 343.975 -3.59305 0.305323 0
M  V30 3710 O 343.079 -4.06299 -0.706761 0
M  V30 3711 H 342.42 -0.650529 0.13307 0
M  V30 3712 H 344.95 -1.78386 1.00197 0
M  V30 3713 H 344.96 -4.07724 0.149997 0
M  V30 3714 H 343.635 -3.95207 1.29553 0
M  V30 3715 H 342.212 -3.69292 -0.517504 0
M  V30 3716 N 344.397 -0.483516 -1.5 0
M  V30 3717 C 345.344 0.304164 -2.28787 0
M  V30 3718 C 346.314 0.976114 -1.34392 0
M  V30 3719 O 347.499 0.986156 -1.63339 0
M  V30 3720 C 344.639 1.37298 -3.16612 0
M  V30 3721 C 343.752 0.714561 -4.26049 0
M  V30 3722 C 342.887 1.76232 -5.01114 0
M  V30 3723 C 341.926 1.08483 -6.0241 0
M  V30 3724 N 341.063 2.076 -6.70706 0
M  V30 3725 H 345.903 -0.373981 -2.95644 0
M  V30 3726 H 343.44 -0.196275 -1.45785 0
M  V30 3727 H 345.398 2.00445 -3.65893 0
M  V30 3728 H 344.028 2.02012 -2.51776 0
M  V30 3729 H 343.08 -0.0297798 -3.80388 0
M  V30 3730 H 344.392 0.180383 -4.98474 0
M  V30 3731 H 343.546 2.46929 -5.54176 0
M  V30 3732 H 342.285 2.33033 -4.28424 0
M  V30 3733 H 341.29 0.363545 -5.48597 0
M  V30 3734 H 342.515 0.523551 -6.77079 0
M  V30 3735 H 340.461 2.63394 -6.00799 0
M  V30 3736 H 340.378 1.59201 -7.39047 0
M  V30 3737 H 341.646 2.77639 -7.2838 0
M  V30 3738 N 345.875 1.56104 -0.216619 0
M  V30 3739 C 346.785 2.23694 0.706982 0
M  V30 3740 C 347.801 1.24295 1.21765 0
M  V30 3741 O 348.977 1.57094 1.2603 0
M  V30 3742 C 346.042 2.8998 1.90033 0
M  V30 3743 C 345.103 4.04708 1.43213 0
M  V30 3744 C 344.336 4.67824 2.56859 0
M  V30 3745 O 344.559 4.29913 3.74874 0
M  V30 3746 O 343.493 5.56905 2.28343 0
M  V30 3747 H 347.319 3.03272 0.161235 0
M  V30 3748 H 344.904 1.49394 0.0136177 0
M  V30 3749 H 346.786 3.31837 2.59735 0
M  V30 3750 H 345.461 2.13365 2.43428 0
M  V30 3751 H 344.368 3.6743 0.70327 0
M  V30 3752 H 345.701 4.83051 0.944615 0
M  V30 3753 N 347.353 -0.0568162 1.57498 0
M  V30 3754 C 348.63 -0.786954 1.79071 0
M  V30 3755 C 349.01 -1.95028 0.80792 0
M  V30 3756 O 348.358 -2.27968 -0.155858 0
M  V30 3757 C 348.568 -1.24594 3.26002 0
M  V30 3758 C 349.916 -1.67323 3.90241 0
M  V30 3759 O 350.94 -1.34124 3.29984 0
M  V30 3760 O 349.799 -2.28842 4.9628 0
M  V30 3761 H 346.893 -0.378262 0.735423 0
M  V30 3762 H 349.439 -0.035734 1.69662 0
M  V30 3763 H 348.211 -0.41423 3.89101 0
M  V30 3764 H 347.834 -2.05803 3.40192 0
M  V30 3765 N 348.832 -1.54138 -0.328536 0
M  V30 3766 C 350.248 -1.44736 -0.672574 0
M  V30 3767 C 350.448 -0.616217 -1.91846 0
M  V30 3768 O 349.504 -0.113067 -2.52247 0
M  V30 3769 C 350.817 -2.884 -0.851217 0
M  V30 3770 C 352.365 -2.98271 -0.948877 0
M  V30 3771 C 352.84 -4.43074 -1.15973 0
M  V30 3772 N 354.331 -4.46665 -1.22658 0
M  V30 3773 C 355.066 -5.55857 -1.40751 0
M  V30 3774 N 354.562 -6.75026 -1.5592 0
M  V30 3775 N 356.355 -5.43495 -1.4342 0
M  V30 3776 H 348.506 -2.06661 0.490421 0
M  V30 3777 H 350.769 -0.934812 0.157579 0
M  V30 3778 H 350.475 -3.51699 -0.00704236 0
M  V30 3779 H 350.349 -3.34225 -1.74853 0
M  V30 3780 H 352.736 -2.35102 -1.78356 0
M  V30 3781 H 352.817 -2.55785 -0.0281435 0
M  V30 3782 H 352.461 -5.06827 -0.329915 0
M  V30 3783 H 352.391 -4.83165 -2.09426 0
M  V30 3784 H 354.882 -3.60797 -1.124 0
M  V30 3785 H 355.195 -7.54004 -1.69404 0
M  V30 3786 H 353.54 -6.77944 -1.53027 0
M  V30 3787 H 356.731 -4.49349 -1.31162 0
M  V30 3788 H 356.904 -6.28649 -1.57178 0
M  V30 3789 N 350.31 0.590341 -1.46126 0
M  V30 3790 C 351.22 1.72793 -1.58681 0
M  V30 3791 C 352.236 1.67516 -0.470566 0
M  V30 3792 O 353.412 1.87562 -0.733642 0
M  V30 3793 C 350.477 3.09287 -1.5666 0
M  V30 3794 C 349.538 3.25886 -2.79458 0
M  V30 3795 C 348.771 4.55869 -2.77524 0
M  V30 3796 O 348.994 5.3928 -1.85832 0
M  V30 3797 O 347.928 4.75552 -3.68964 0
M  V30 3798 H 351.754 1.65149 -2.54872 0
M  V30 3799 H 349.339 0.756486 -1.28832 0
M  V30 3800 H 351.221 3.90577 -1.58202 0
M  V30 3801 H 349.896 3.17385 -0.636271 0
M  V30 3802 H 348.803 2.44119 -2.83472 0
M  V30 3803 H 350.136 3.22675 -3.71674 0
M  V30 3804 N 351.788 1.33704 0.83433 0
M  V30 3805 C 353.016 1.28467 1.62185 0
M  V30 3806 C 353.431 -0.143526 1.88254 0
M  V30 3807 O 352.788 -1.08709 1.4659 0
M  V30 3808 C 352.839 2.06174 2.96942 0
M  V30 3809 O 352.56 3.43422 2.72016 0
M  V30 3810 C 354.061 2.08201 3.91366 0
M  V30 3811 H 351.281 0.4424 0.504503 0
M  V30 3812 H 353.825 1.76145 1.03891 0
M  V30 3813 H 351.98 1.62167 3.51825 0
M  V30 3814 H 352.394 3.83453 3.57861 0
M  V30 3815 H 353.868 2.67017 4.83121 0
M  V30 3816 H 354.345 1.07343 4.2588 0
M  V30 3817 H 354.951 2.52246 3.42421 0
M  V30 3818 N 353.266 -1.05314 1.17247 0
M  V30 3819 C 354.196 -2.1498 0.911362 0
M  V30 3820 C 355.177 -1.69471 -0.146169 0
M  V30 3821 O 356.362 -1.942 0.003812 0
M  V30 3822 C 353.492 -3.4472 0.422528 0
M  V30 3823 C 352.446 -4.03789 1.4191 0
M  V30 3824 C 351.772 -5.28858 0.788274 0
M  V30 3825 C 353.072 -4.41418 2.7919 0
M  V30 3826 H 354.766 -2.3708 1.82848 0
M  V30 3827 H 352.312 -1.13938 0.880569 0
M  V30 3828 H 354.265 -4.20787 0.227289 0
M  V30 3829 H 352.989 -3.22269 -0.530123 0
M  V30 3830 H 351.648 -3.2979 1.60106 0
M  V30 3831 H 351.296 -5.02709 -0.171173 0
M  V30 3832 H 350.996 -5.69338 1.45353 0
M  V30 3833 H 352.52 -6.07612 0.603282 0
M  V30 3834 H 353.934 -5.08524 2.64719 0
M  V30 3835 H 352.331 -4.92913 3.42282 0
M  V30 3836 H 353.401 -3.51819 3.33693 0
M  V30 3837 N 354.744 -0.972509 -1.24016 0
M  V30 3838 C 355.974 -0.653853 -1.9598 0
M  V30 3839 C 356.382 0.781801 -1.72292 0
M  V30 3840 O 355.725 1.53677 -1.00644 0
M  V30 3841 C 355.787 -0.854608 -3.49194 0
M  V30 3842 C 355.451 -2.27082 -3.96589 0
M  V30 3843 C 356.448 -3.24892 -4.05883 0
M  V30 3844 C 354.133 -2.5998 -4.29786 0
M  V30 3845 C 356.127 -4.53684 -4.47716 0
M  V30 3846 C 353.814 -3.88997 -4.71301 0
M  V30 3847 C 354.812 -4.85661 -4.80232 0
M  V30 3848 O 354.5 -6.12376 -5.20818 0
M  V30 3849 H 354.232 -0.242572 -0.630979 0
M  V30 3850 H 356.786 -1.30431 -1.58673 0
M  V30 3851 H 355.016 -0.146985 -3.86421 0
M  V30 3852 H 356.705 -0.534311 -4.02368 0
M  V30 3853 H 357.471 -3.00805 -3.80449 0
M  V30 3854 H 353.35 -1.85457 -4.22051 0
M  V30 3855 H 356.894 -5.29135 -4.54601 0
M  V30 3856 H 352.791 -4.12882 -4.96184 0
M  V30 3857 H 353.559 -6.16013 -5.38953 0
M  V30 3858 N 356.222 1.38976 -0.743202 0
M  V30 3859 C 357.633 1.83123 -0.363732 0
M  V30 3860 C 357.984 1.6205 1.10609 0
M  V30 3861 O 357.109 1.11606 1.854 0
M  V30 3862 C 357.704 3.32439 -0.653408 0
M  V30 3863 C 356.263 3.74974 -0.327338 0
M  V30 3864 C 355.41 2.61878 -0.911875 0
M  V30 3865 H 358.361 1.27852 -0.940191 0
M  V30 3866 H 358.382 3.80432 0.0720031 0
M  V30 3867 H 357.894 3.47745 -1.72323 0
M  V30 3868 H 355.995 3.65252 0.736314 0
M  V30 3869 H 356.108 4.72106 -0.815631 0
M  V30 3870 H 354.472 2.52448 -0.337944 0
M  V30 3871 H 355.255 2.79987 -1.98651 0
M  V30 3872 N 357.7 0.491464 1.49741 0
M  V30 3873 C 358.928 -0.0535151 2.06831 0
M  V30 3874 C 359.343 -1.31683 1.35296 0
M  V30 3875 O 358.7 -1.77402 0.42836 0
M  V30 3876 C 358.751 -0.320835 3.60073 0
M  V30 3877 O 358.472 0.892394 4.28915 0
M  V30 3878 C 359.973 -0.910519 4.33848 0
M  V30 3879 H 357.193 0.0161909 0.670805 0
M  V30 3880 H 359.737 0.68609 1.92647 0
M  V30 3881 H 357.892 -1.0104 3.73991 0
M  V30 3882 H 358.306 0.649401 5.20464 0
M  V30 3883 H 359.78 -1.04721 5.41976 0
M  V30 3884 H 360.257 -1.90589 3.95692 0
M  V30 3885 H 360.863 -0.258712 4.24512 0
M  V30 3886 N 359.178 -1.55987 0.224894 0
M  V30 3887 C 360.425 -1.9839 -0.4059 0
M  V30 3888 C 360.753 -1.11261 -1.59535 0
M  V30 3889 O 360.008 -0.158314 -1.95059 0
M  V30 3890 C 360.307 -3.46394 -0.880106 0
M  V30 3891 C 359.973 -4.5046 0.19918 0
M  V30 3892 C 358.635 -4.7864 0.495661 0
M  V30 3893 C 360.987 -5.12855 0.928939 0
M  V30 3894 C 358.315 -5.66497 1.52636 0
M  V30 3895 C 360.667 -6.01828 1.949 0
M  V30 3896 C 359.331 -6.28351 2.25236 0
M  V30 3897 H 358.601 -0.725961 -0.148529 0
M  V30 3898 H 361.248 -1.88668 0.328113 0
M  V30 3899 H 359.553 -3.53337 -1.69294 0
M  V30 3900 H 361.25 -3.76577 -1.37808 0
M  V30 3901 H 357.84 -4.28579 -0.0420526 0
M  V30 3902 H 362.024 -4.9115 0.713129 0
M  V30 3903 H 357.28 -5.8531 1.76698 0
M  V30 3904 H 361.454 -6.49225 2.51951 0
M  V30 3905 H 359.081 -6.96226 3.05244 0
M  V30 3906 N 360.656 0.0484629 -1.57525 0
M  V30 3907 C 361.904 0.741657 -1.88 0
M  V30 3908 C 362.225 1.76918 -0.820054 0
M  V30 3909 O 361.495 1.95335 0.148661 0
M  V30 3910 H 360.075 0.276908 -0.69378 0
M  V30 3911 H 362.737 0.019013 -1.94891 0
M  V30 3912 H 361.833 1.24336 -2.86264 0
M  V30 3913 N 362.134 1.5431 0.320358 0
M  V30 3914 C 363.081 1.83918 1.39438 0
M  V30 3915 C 364.051 0.686525 1.51248 0
M  V30 3916 O 365.236 0.933269 1.66417 0
M  V30 3917 C 362.376 2.075 2.75749 0
M  V30 3918 C 361.489 3.35177 2.72544 0
M  V30 3919 C 360.624 3.48704 4.00723 0
M  V30 3920 C 359.663 4.70244 3.91838 0
M  V30 3921 N 358.8 4.80679 5.11754 0
M  V30 3922 H 363.64 2.75544 1.13489 0
M  V30 3923 H 361.177 1.36459 0.549309 0
M  V30 3924 H 363.135 2.19166 3.54996 0
M  V30 3925 H 361.765 1.19163 3 0
M  V30 3926 H 360.817 3.32233 1.85271 0
M  V30 3927 H 362.129 4.24534 2.61863 0
M  V30 3928 H 361.283 3.59928 4.88402 0
M  V30 3929 H 360.022 2.57445 4.14214 0
M  V30 3930 H 359.027 4.59072 3.02544 0
M  V30 3931 H 360.252 5.6289 3.7991 0
M  V30 3932 H 358.198 3.92337 5.25745 0
M  V30 3933 H 358.115 5.64007 5.0342 0
M  V30 3934 H 359.383 4.96239 6.01138 0
M  V30 3935 N 363.613 -0.582584 1.46437 0
M  V30 3936 C 364.543 -1.70187 1.59871 0
M  V30 3937 C 365.524 -1.64066 0.449042 0
M  V30 3938 O 366.709 -1.82081 0.6753 0
M  V30 3939 C 363.839 -3.08827 1.58881 0
M  V30 3940 C 362.793 -3.29779 2.72819 0
M  V30 3941 C 362.119 -4.68947 2.5689 0
M  V30 3942 C 363.419 -3.17601 4.1464 0
M  V30 3943 H 365.113 -1.592 2.53566 0
M  V30 3944 H 362.659 -0.764472 1.22032 0
M  V30 3945 H 364.612 -3.86951 1.66873 0
M  V30 3946 H 363.336 -3.20713 0.617306 0
M  V30 3947 H 361.995 -2.54054 2.64296 0
M  V30 3948 H 361.643 -4.77599 1.57823 0
M  V30 3949 H 361.343 -4.83919 3.33312 0
M  V30 3950 H 362.867 -5.4924 2.66773 0
M  V30 3951 H 364.281 -3.8557 4.24274 0
M  V30 3952 H 362.678 -3.44094 4.9165 0
M  V30 3953 H 363.748 -2.14681 4.34788 0
M  V30 3954 N 365.091 -1.34144 -0.827227 0
M  V30 3955 C 366.321 -1.29138 -1.61267 0
M  V30 3956 C 366.729 0.137597 -1.88699 0
M  V30 3957 O 366.072 1.09379 -1.47587 0
M  V30 3958 C 366.134 -2.0097 -2.9808 0
M  V30 3959 C 365.798 -3.50242 -2.93563 0
M  V30 3960 C 366.795 -4.4523 -2.68452 0
M  V30 3961 C 364.48 -3.92592 -3.13331 0
M  V30 3962 C 366.474 -5.80542 -2.63154 0
M  V30 3963 C 364.161 -5.28005 -3.07658 0
M  V30 3964 C 365.159 -6.21792 -2.82602 0
M  V30 3965 O 364.847 -7.54723 -2.76853 0
M  V30 3966 H 364.579 -0.445851 -0.508127 0
M  V30 3967 H 367.133 -1.77263 -1.03763 0
M  V30 3968 H 365.363 -1.47451 -3.57484 0
M  V30 3969 H 367.052 -1.89309 -3.5905 0
M  V30 3970 H 367.818 -4.13832 -2.52919 0
M  V30 3971 H 363.697 -3.19994 -3.31851 0
M  V30 3972 H 367.241 -6.53717 -2.43516 0
M  V30 3973 H 363.138 -5.59023 -3.22743 0
M  V30 3974 H 363.906 -7.64409 -2.92611 0
M  V30 3975 N 366.569 1.04691 -1.17803 0
M  V30 3976 C 367.98 1.59238 -0.974689 0
M  V30 3977 C 368.331 1.90306 0.477292 0
M  V30 3978 O 367.456 1.68846 1.35352 0
M  V30 3979 C 368.051 2.89318 -1.76296 0
M  V30 3980 C 366.61 3.40506 -1.60414 0
M  V30 3981 C 365.757 2.14172 -1.76141 0
M  V30 3982 H 368.708 0.874395 -1.32439 0
M  V30 3983 H 368.729 3.5944 -1.24833 0
M  V30 3984 H 368.241 2.66675 -2.81968 0
M  V30 3985 H 366.342 3.68175 -0.572519 0
M  V30 3986 H 366.455 4.14753 -2.39827 0
M  V30 3987 H 364.819 2.25176 -1.19028 0
M  V30 3988 H 365.602 1.93992 -2.83235 0
M  V30 3989 N 368.047 0.979072 1.23499 0
M  V30 3990 C 368.957 0.526431 2.28617 0
M  V30 3991 C 369.973 -0.418126 1.68901 0
M  V30 3992 O 371.149 -0.288372 1.99325 0
M  V30 3993 C 368.214 -0.165235 3.46306 0
M  V30 3994 C 367.275 0.82056 4.21385 0
M  V30 3995 C 366.508 0.161807 5.33455 0
M  V30 3996 O 366.731 -1.04742 5.60701 0
M  V30 3997 O 365.665 0.859708 5.95729 0
M  V30 3998 H 369.491 1.4006 2.69475 0
M  V30 3999 H 367.076 0.746643 1.29405 0
M  V30 4000 H 368.958 -0.553287 4.17752 0
M  V30 4001 H 367.633 -1.01419 3.07402 0
M  V30 4002 H 366.54 1.25929 3.52268 0
M  V30 4003 H 367.873 1.63828 4.64135 0
M  V30 4004 N 369.525 -1.3858 0.750561 0
M  V30 4005 C 370.773 -1.99789 0.30477 0
M  V30 4006 C 371.094 -1.59874 -1.11649 0
M  V30 4007 O 370.364 -0.85417 -1.76297 0
M  V30 4008 H 368.944 -0.738902 0.109694 0
M  V30 4009 H 371.606 -1.69391 0.963983 0
M  V30 4010 H 370.702 -3.09952 0.365499 0
M  V30 4011 N 371.003 -0.499398 -1.49478 0
M  V30 4012 C 371.933 0.269244 -2.31943 0
M  V30 4013 C 372.914 0.964054 -1.40143 0
M  V30 4014 O 374.099 0.955767 -1.69052 0
M  V30 4015 C 371.229 1.33504 -3.20615 0
M  V30 4016 C 370.183 0.760202 -4.21195 0
M  V30 4017 C 369.509 1.9264 -4.98792 0
M  V30 4018 C 370.809 -0.247661 -5.21712 0
M  V30 4019 H 372.503 -0.419082 -2.96452 0
M  V30 4020 H 370.049 -0.202988 -1.42562 0
M  V30 4021 H 372.002 1.88048 -3.77115 0
M  V30 4022 H 370.726 2.05253 -2.54045 0
M  V30 4023 H 369.385 0.23653 -3.65836 0
M  V30 4024 H 369.033 2.63154 -4.28671 0
M  V30 4025 H 368.733 1.54785 -5.66847 0
M  V30 4026 H 370.257 2.4762 -5.58137 0
M  V30 4027 H 371.671 0.209579 -5.72917 0
M  V30 4028 H 370.068 -0.541962 -5.97648 0
M  V30 4029 H 371.138 -1.16409 -4.7072 0
M  V30 4030 N 372.481 1.55866 -0.233164 0
M  V30 4031 C 373.897 1.59133 0.121988 0
M  V30 4032 C 374.097 1.25016 1.58029 0
M  V30 4033 O 373.153 0.990922 2.32243 0
M  V30 4034 C 374.466 2.99932 -0.214792 0
M  V30 4035 C 376.014 3.12601 -0.157971 0
M  V30 4036 C 376.489 4.55597 -0.46859 0
M  V30 4037 N 377.98 4.61305 -0.418585 0
M  V30 4038 C 378.715 5.69903 -0.63227 0
M  V30 4039 N 378.211 6.86819 -0.90835 0
M  V30 4040 N 380.004 5.59264 -0.563913 0
M  V30 4041 H 372.155 1.76315 -1.18434 0
M  V30 4042 H 374.418 0.820093 -0.475553 0
M  V30 4043 H 374.124 3.29588 -1.22739 0
M  V30 4044 H 373.998 3.74327 0.464691 0
M  V30 4045 H 376.385 2.82735 0.845283 0
M  V30 4046 H 376.466 2.40511 -0.871102 0
M  V30 4047 H 376.11 4.86182 -1.46934 0
M  V30 4048 H 376.04 5.25928 0.265865 0
M  V30 4049 H 378.531 3.77297 -0.213368 0
M  V30 4050 H 378.844 7.65507 -1.05919 0
M  V30 4051 H 377.189 6.88536 -0.945673 0
M  V30 4052 H 380.38 4.66802 -0.348372 0
M  V30 4053 H 380.553 6.43831 -0.733847 0
M  V30 4054 N 373.959 -0.0401083 1.57549 0
M  V30 4055 C 374.889 -1.04384 2.08869 0
M  V30 4056 C 375.87 -1.38407 0.988817 0
M  V30 4057 O 377.055 -1.47483 1.26342 0
M  V30 4058 C 374.185 -2.34808 2.55895 0
M  V30 4059 C 373.139 -2.15057 3.70047 0
M  V30 4060 C 372.465 -3.51145 4.03239 0
M  V30 4061 C 373.765 -1.54576 4.98902 0
M  V30 4062 H 375.459 -0.616666 2.92981 0
M  V30 4063 H 373.005 -0.295184 1.40942 0
M  V30 4064 H 374.958 -3.05346 2.90417 0
M  V30 4065 H 373.682 -2.79565 1.68853 0
M  V30 4066 H 372.341 -1.46954 3.35857 0
M  V30 4067 H 371.989 -3.93529 3.13279 0
M  V30 4068 H 371.689 -3.38758 4.80122 0
M  V30 4069 H 373.213 -4.23062 4.40285 0
M  V30 4070 H 374.627 -2.15017 5.31451 0
M  V30 4071 H 373.024 -1.52796 5.80322 0
M  V30 4072 H 374.094 -0.51039 4.82206 0
M  V30 4073 N 375.437 -1.54477 -0.31217 0
M  V30 4074 C 376.367 -1.87652 -1.38957 0
M  V30 4075 C 377.348 -0.734358 -1.53431 0
M  V30 4076 O 378.533 -0.98911 -1.67123 0
M  V30 4077 C 375.663 -2.11396 -2.75552 0
M  V30 4078 C 374.617 -3.27243 -2.75855 0
M  V30 4079 C 373.943 -3.36382 -4.15633 0
M  V30 4080 C 375.243 -4.64622 -2.38587 0
M  V30 4081 H 376.937 -2.77887 -1.11442 0
M  V30 4082 H 374.483 -1.33707 -0.534655 0
M  V30 4083 H 376.436 -2.33189 -3.51 0
M  V30 4084 H 375.16 -1.17921 -3.04569 0
M  V30 4085 H 373.819 -3.05356 -2.02863 0
M  V30 4086 H 373.467 -2.40445 -4.41809 0
M  V30 4087 H 373.167 -4.14249 -4.1674 0
M  V30 4088 H 374.691 -3.60422 -4.92877 0
M  V30 4089 H 376.105 -4.86219 -3.03749 0
M  V30 4090 H 374.502 -5.45121 -2.50925 0
M  V30 4091 H 375.572 -4.66097 -1.33723 0
M  V30 4092 N 376.915 0.57481 -1.46744 0
M  V30 4093 C 377.878 1.66533 -1.57478 0
M  V30 4094 C 378.878 1.54338 -0.451263 0
M  V30 4095 O 380.068 1.58814 -0.715813 0
M  V30 4096 C 377.2 3.05999 -1.50259 0
M  V30 4097 H 378.393 1.58372 -2.54673 0
M  V30 4098 H 375.946 0.793301 -1.34672 0
M  V30 4099 H 376.681 3.19709 -0.543725 0
M  V30 4100 H 376.466 3.16259 -2.31781 0
M  V30 4101 H 377.956 3.8537 -1.60872 0
M  V30 4102 N 378.394 1.34581 0.820102 0
M  V30 4103 C 379.326 1.22236 1.93884 0
M  V30 4104 C 380.339 0.148776 1.62119 0
M  V30 4105 O 381.528 0.400877 1.7394 0
M  V30 4106 C 378.628 0.856542 3.27897 0
M  V30 4107 C 377.801 2.02569 3.87666 0
M  V30 4108 C 376.86 1.63782 5.00062 0
M  V30 4109 O 375.886 2.35477 5.18208 0
M  V30 4110 N 377.088 0.553611 5.77854 0
M  V30 4111 H 379.853 2.18615 2.05006 0
M  V30 4112 H 377.414 1.27573 0.99683 0
M  V30 4113 H 379.406 0.578806 4.0054 0
M  V30 4114 H 377.976 -0.0171518 3.12595 0
M  V30 4115 H 377.196 2.468 3.07382 0
M  V30 4116 H 378.484 2.80752 4.24329 0
M  V30 4117 H 377.882 -0.0423528 5.65684 0
M  V30 4118 H 376.439 0.335614 6.50935 0
M  V30 4119 N 379.872 -1.04064 1.18357 0
M  V30 4120 C 380.835 -2.10243 0.912707 0
M  V30 4121 C 381.835 -1.60477 -0.101928 0
M  V30 4122 O 383.025 -1.73703 0.131517 0
M  V30 4123 C 380.157 -3.38893 0.369387 0
M  V30 4124 H 381.35 -2.35706 1.85426 0
M  V30 4125 H 378.903 -1.20489 0.995594 0
M  V30 4126 H 379.638 -3.19094 -0.578776 0
M  V30 4127 H 379.423 -3.76331 1.1008 0
M  V30 4128 H 380.913 -4.17128 0.198575 0
M  V30 4129 N 381.35 -0.985608 -1.22978 0
M  V30 4130 C 382.26 -0.538548 -2.28335 0
M  V30 4131 C 383.276 0.409163 -1.69121 0
M  V30 4132 O 384.452 0.277797 -1.99475 0
M  V30 4133 C 381.517 0.146867 -3.46389 0
M  V30 4134 C 380.578 -0.842896 -4.20944 0
M  V30 4135 C 379.811 -0.190095 -5.33361 0
M  V30 4136 O 380.034 1.01767 -5.61248 0
M  V30 4137 O 378.968 -0.891289 -5.95264 0
M  V30 4138 H 382.794 -1.41487 -2.68729 0
M  V30 4139 H 380.379 -0.753495 -1.29007 0
M  V30 4140 H 382.261 0.531125 -4.1804 0
M  V30 4141 H 380.936 0.997871 -3.07935 0
M  V30 4142 H 379.843 -1.27795 -3.51595 0
M  V30 4143 H 381.176 -1.66287 -4.6326 0
M  V30 4144 N 382.828 1.3818 -0.7579 0
M  V30 4145 C 384.105 1.94106 -0.241306 0
M  V30 4146 C 384.485 1.69282 1.26122 0
M  V30 4147 O 383.833 1.03378 2.03777 0
M  V30 4148 C 384.043 3.43809 -0.59967 0
M  V30 4149 C 385.391 4.20868 -0.561717 0
M  V30 4150 O 386.415 3.5211 -0.538222 0
M  V30 4151 O 385.274 5.43451 -0.576478 0
M  V30 4152 H 382.368 0.825376 -0.0518042 0
M  V30 4153 H 384.914 1.47548 -0.838315 0
M  V30 4154 H 383.686 3.55403 -1.6372 0
M  V30 4155 H 383.309 3.97592 0.0251197 0
M  V30 4156 N 384.306 0.507319 1.49211 0
M  V30 4157 C 385.553 -0.0349529 2.0247 0
M  V30 4158 C 385.881 -1.36409 1.38647 0
M  V30 4159 O 385.136 -1.88841 0.513566 0
M  V30 4160 C 385.435 -0.229513 3.56662 0
M  V30 4161 C 385.101 1.02241 4.39156 0
M  V30 4162 C 383.763 1.36557 4.61417 0
M  V30 4163 C 386.115 1.85428 4.871 0
M  V30 4164 C 383.443 2.53999 5.28868 0
M  V30 4165 C 385.795 3.02028 5.55843 0
M  V30 4166 C 384.459 3.36717 5.76349 0
M  V30 4167 H 383.729 -0.0127902 0.74089 0
M  V30 4168 H 386.376 0.668756 1.79443 0
M  V30 4169 H 384.681 -1.0158 3.78403 0
M  V30 4170 H 386.378 -0.663641 3.9547 0
M  V30 4171 H 382.968 0.745124 4.22073 0
M  V30 4172 H 387.152 1.6023 4.69723 0
M  V30 4173 H 382.408 2.81105 5.42946 0
M  V30 4174 H 386.582 3.66808 5.91967 0
M  V30 4175 H 384.209 4.27821 6.28389 0
M  V30 4176 N 385.784 -1.5574 0.241426 0
M  V30 4177 C 387.061 -1.90704 -0.434881 0
M  V30 4178 C 387.441 -1.16145 -1.76277 0
M  V30 4179 O 386.789 -0.277152 -2.26813 0
M  V30 4180 C 386.999 -3.43657 -0.608343 0
M  V30 4181 C 388.347 -4.14806 -0.906725 0
M  V30 4182 O 389.371 -3.49366 -0.694408 0
M  V30 4183 O 388.23 -5.30548 -1.31075 0
M  V30 4184 H 385.324 -0.793592 -0.23268 0
M  V30 4185 H 387.87 -1.67288 0.285086 0
M  V30 4186 H 386.642 -3.89927 0.327505 0
M  V30 4187 H 386.265 -3.72918 -1.37906 0
M  V30 4188 N 387.262 0.0317525 -1.57568 0
M  V30 4189 C 388.194 1.06073 -2.03178 0
M  V30 4190 C 389.207 1.32627 -0.944132 0
M  V30 4191 O 390.396 1.30162 -1.22148 0
M  V30 4192 C 387.496 2.40297 -2.38978 0
M  V30 4193 C 386.669 2.33137 -3.70089 0
M  V30 4194 C 385.728 3.49787 -3.9311 0
M  V30 4195 O 384.754 3.29403 -4.64201 0
M  V30 4196 N 385.956 4.71562 -3.38541 0
M  V30 4197 H 388.721 0.672006 -2.92069 0
M  V30 4198 H 386.282 0.219745 -1.60402 0
M  V30 4199 H 388.274 3.1705 -2.51518 0
M  V30 4200 H 386.844 2.71024 -1.55771 0
M  V30 4201 H 386.064 1.415 -3.67928 0
M  V30 4202 H 387.352 2.25493 -4.56104 0
M  V30 4203 H 386.75 4.91024 -2.80912 0
M  V30 4204 H 385.307 5.45689 -3.56464 0
M  V30 4205 N 388.74 1.54641 0.303973 0
M  V30 4206 C 389.673 1.80263 1.3993 0
M  V30 4207 C 390.651 0.653657 1.48883 0
M  V30 4208 O 391.835 0.893284 1.6599 0
M  V30 4209 C 388.962 1.9367 2.77866 0
M  V30 4210 C 388.008 3.16078 2.86351 0
M  V30 4211 S 388.841 4.74219 2.4875 0
M  V30 4212 C 389.997 4.90558 3.88721 0
M  V30 4213 H 390.23 2.72886 1.17986 0
M  V30 4214 H 387.763 1.46014 0.501918 0
M  V30 4215 H 389.721 2.0208 3.57315 0
M  V30 4216 H 388.382 1.01991 2.9708 0
M  V30 4217 H 387.575 3.22252 3.87517 0
M  V30 4218 H 387.177 3.06099 2.14893 0
M  V30 4219 H 389.469 4.74398 4.83687 0
M  V30 4220 H 390.412 5.92651 3.87518 0
M  V30 4221 H 390.82 4.18728 3.78585 0
M  V30 4222 N 390.218 -0.567019 1.47046 0
M  V30 4223 C 391.165 -1.67489 1.58796 0
M  V30 4224 C 392.135 -1.60399 0.43144 0
M  V30 4225 O 393.32 -1.79378 0.650233 0
M  V30 4226 C 390.46 -3.05821 1.59899 0
M  V30 4227 C 389.573 -3.2342 2.86397 0
M  V30 4228 C 388.708 -4.52093 2.789 0
M  V30 4229 C 387.747 -4.6309 4.00267 0
M  V30 4230 N 386.884 -5.83106 3.91064 0
M  V30 4231 H 391.724 -1.56785 2.53422 0
M  V30 4232 H 389.261 -0.763896 1.2571 0
M  V30 4233 H 391.219 -3.8591 1.58522 0
M  V30 4234 H 389.849 -3.15384 0.687929 0
M  V30 4235 H 388.901 -2.3683 2.97684 0
M  V30 4236 H 390.213 -3.27412 3.76301 0
M  V30 4237 H 389.367 -5.4043 2.75718 0
M  V30 4238 H 388.106 -4.50565 1.86662 0
M  V30 4239 H 387.111 -3.73168 4.03765 0
M  V30 4240 H 388.336 -4.66386 4.93621 0
M  V30 4241 H 386.282 -5.82546 3.01623 0
M  V30 4242 H 386.199 -5.88434 4.74638 0
M  V30 4243 H 387.467 -6.73831 3.91882 0
M  V30 4244 N 391.696 -1.35014 -0.812953 0
M  V30 4245 C 392.644 -1.27435 -1.94585 0
M  V30 4246 C 393.638 -0.170494 -1.6854 0
M  V30 4247 O 394.844 -0.336085 -1.76835 0
M  V30 4248 H 391.219 -0.396144 -0.639198 0
M  V30 4249 H 393.19 -2.23158 -1.98098 0
M  V30 4250 C 391.939 -1.05677 -3.31252 0
M  V30 4251 H 391.262 -1.89853 -3.51846 0
M  V30 4252 H 392.702 -1.04413 -4.10943 0
M  V30 4253 C 391.161 0.239615 -3.36047 0
M  V30 4254 O 391.691 1.23759 -3.8216 0
M  V30 4255 N 389.897 0.276186 -2.89285 0
M  V30 4256 H 389.444 -0.53653 -2.51951 0
M  V30 4257 H 389.402 1.14332 -2.92875 0
M  V30 4258 N 393.175 1.03435 -1.18907 0
M  V30 4259 C 394.421 1.77005 -0.989798 0
M  V30 4260 C 394.754 1.88205 0.478816 0
M  V30 4261 O 394.029 1.39481 1.35556 0
M  V30 4262 C 394.312 3.19925 -1.65287 0
M  V30 4263 C 394.165 3.1663 -3.19477 0
M  V30 4264 C 395.484 4.18189 -1.37134 0
M  V30 4265 H 392.603 0.642538 -0.360991 0
M  V30 4266 H 395.245 1.20784 -1.46667 0
M  V30 4267 H 393.395 3.67929 -1.24741 0
M  V30 4268 H 395.067 2.76567 -3.692 0
M  V30 4269 H 393.31 2.54491 -3.51307 0
M  V30 4270 H 393.981 4.1758 -3.61013 0
M  V30 4271 H 396.457 3.78761 -1.72276 0
M  V30 4272 H 395.333 5.16394 -1.86087 0
M  V30 4273 H 395.594 4.41112 -0.295424 0
M  V30 4274 N 394.653 0.992116 1.22453 0
M  V30 4275 C 395.616 0.546883 2.2258 0
M  V30 4276 C 396.616 -0.369829 1.56489 0
M  V30 4277 O 397.806 -0.161896 1.73446 0
M  V30 4278 C 394.938 -0.204659 3.40285 0
M  V30 4279 H 396.131 1.43234 2.63484 0
M  V30 4280 H 393.684 0.779239 1.3549 0
M  V30 4281 H 394.419 -1.10614 3.04853 0
M  V30 4282 H 394.204 0.45354 3.89468 0
M  V30 4283 H 395.694 -0.504358 4.14543 0
M  V30 4284 N 396.131 -1.37776 0.765217 0
M  V30 4285 C 397.408 -1.93975 0.251596 0
M  V30 4286 C 397.788 -1.69949 -1.25222 0
M  V30 4287 O 397.136 -1.04457 -2.03226 0
M  V30 4288 C 397.346 -3.43487 0.617895 0
M  V30 4289 C 398.694 -4.20564 0.584029 0
M  V30 4290 O 399.718 -3.5182 0.556888 0
M  V30 4291 O 398.577 -5.43138 0.605291 0
M  V30 4292 H 395.671 -0.82509 0.0561806 0
M  V30 4293 H 398.217 -1.47101 0.846128 0
M  V30 4294 H 396.989 -3.5453 1.65602 0
M  V30 4295 H 396.612 -3.976 -0.00403411 0
M  V30 4296 N 397.609 -0.515225 -1.4894 0
M  V30 4297 C 398.559 0.275113 -2.26334 0
M  V30 4298 C 399.543 0.923007 -1.31793 0
M  V30 4299 O 400.735 0.828254 -1.56426 0
M  V30 4300 C 397.864 1.33041 -3.16473 0
M  V30 4301 C 396.95 0.688051 -4.18481 0
M  V30 4302 N 397.341 -0.217638 -5.05332 0
M  V30 4303 C 395.639 0.94699 -4.3583 0
M  V30 4304 C 396.34 -0.58676 -5.78733 0
M  V30 4305 N 395.316 0.0486966 -5.43578 0
M  V30 4306 H 399.118 -0.421876 -2.90856 0
M  V30 4307 H 396.632 -0.332249 -1.58965 0
M  V30 4308 H 398.629 1.9102 -3.70563 0
M  V30 4309 H 397.289 2.02894 -2.53504 0
M  V30 4310 H 398.3 -0.589343 -5.14536 0
M  V30 4311 H 394.977 1.63719 -3.8406 0
M  V30 4312 H 396.367 -1.32855 -6.58634 0
M  V30 4313 N 399.087 1.5561 -0.249682 0
M  V30 4314 C 400.317 2.03116 0.377803 0
M  V30 4315 C 400.725 1.12822 1.51881 0
M  V30 4316 O 400.068 0.13562 1.83199 0
M  V30 4317 C 400.13 3.46866 0.944693 0
M  V30 4318 C 399.794 4.56955 -0.0644259 0
M  V30 4319 C 400.791 5.12485 -0.874957 0
M  V30 4320 C 398.476 5.01936 -0.19132 0
M  V30 4321 C 400.47 6.11491 -1.79881 0
M  V30 4322 C 398.157 6.00773 -1.11868 0
M  V30 4323 C 399.155 6.5543 -1.92095 0
M  V30 4324 O 398.843 7.5234 -2.83267 0
M  V30 4325 H 398.575 0.669489 0.0935961 0
M  V30 4326 H 401.129 2.02004 -0.371966 0
M  V30 4327 H 399.359 3.45136 1.74407 0
M  V30 4328 H 401.048 3.77856 1.48255 0
M  V30 4329 H 401.814 4.78564 -0.787523 0
M  V30 4330 H 397.693 4.59055 0.423072 0
M  V30 4331 H 401.237 6.54078 -2.42543 0
M  V30 4332 H 397.134 6.34114 -1.20703 0
M  V30 4333 H 397.902 7.69966 -2.7766 0
M  V30 4334 N 400.565 -0.0233959 1.57583 0
M  V30 4335 C 401.813 -0.711654 1.89156 0
M  V30 4336 C 402.134 -1.75591 0.848096 0
M  V30 4337 O 401.404 -1.95547 -0.117566 0
M  V30 4338 H 399.984 -0.265835 0.698098 0
M  V30 4339 H 402.646 0.0119948 1.94896 0
M  V30 4340 H 401.742 -1.19766 2.88206 0
M  V30 4341 N 402.043 -1.548 -0.295768 0
M  V30 4342 C 403.289 -1.74588 -1.03184 0
M  V30 4343 C 403.622 -0.532962 -1.86744 0
M  V30 4344 O 402.897 0.469872 -1.88739 0
M  V30 4345 C 403.18 -3.03791 -1.93347 0
M  V30 4346 C 403.033 -4.35392 -1.12933 0
M  V30 4347 C 404.352 -3.28892 -2.92435 0
M  V30 4348 H 401.471 -0.635221 -0.373715 0
M  V30 4349 H 404.113 -1.87519 -0.30606 0
M  V30 4350 H 402.263 -2.92898 -2.55232 0
M  V30 4351 H 403.935 -4.58211 -0.532943 0
M  V30 4352 H 402.178 -4.31642 -0.432168 0
M  V30 4353 H 402.849 -5.22074 -1.79284 0
M  V30 4354 H 405.325 -3.39429 -2.4068 0
M  V30 4355 H 404.201 -4.20603 -3.52682 0
M  V30 4356 H 404.462 -2.47437 -3.6637 0
M  V30 4357 N 403.521 0.559213 -1.47345 0
M  V30 4358 C 404.751 1.33999 -1.57251 0
M  V30 4359 C 405.159 1.87905 -0.220978 0
M  V30 4360 O 404.502 1.65577 0.795617 0
M  V30 4361 C 404.564 2.54798 -2.53611 0
M  V30 4362 C 404.228 2.22192 -3.99349 0
M  V30 4363 C 405.225 1.79607 -4.87891 0
M  V30 4364 C 402.91 2.33613 -4.44669 0
M  V30 4365 C 404.904 1.48868 -6.19772 0
M  V30 4366 C 402.591 2.02487 -5.76578 0
M  V30 4367 C 403.589 1.60183 -6.63951 0
M  V30 4368 O 403.277 1.29451 -7.93409 0
M  V30 4369 H 403.009 0.414858 -0.533731 0
M  V30 4370 H 405.563 0.684465 -1.9366 0
M  V30 4371 H 403.793 3.23235 -2.12265 0
M  V30 4372 H 405.482 3.16873 -2.53666 0
M  V30 4373 H 406.248 1.70278 -4.54126 0
M  V30 4374 H 402.127 2.65501 -3.76869 0
M  V30 4375 H 405.671 1.15775 -6.87926 0
M  V30 4376 H 401.568 2.11448 -6.09885 0
M  V30 4377 H 402.336 1.43098 -8.05894 0
M  V30 4378 N 404.999 1.35443 0.805782 0
M  V30 4379 C 405.946 1.28431 1.91766 0
M  V30 4380 C 406.916 0.156102 1.65365 0
M  V30 4381 O 408.101 0.339936 1.87747 0
M  V30 4382 C 405.241 1.06301 3.2832 0
M  V30 4383 C 404.354 2.2805 3.66902 0
M  V30 4384 C 403.489 1.99064 4.92491 0
M  V30 4385 C 402.528 3.16863 5.23703 0
M  V30 4386 N 401.665 2.87647 6.40471 0
M  V30 4387 H 406.505 2.23511 1.97096 0
M  V30 4388 H 404.042 1.11105 0.964054 0
M  V30 4389 H 406 0.915012 4.07042 0
M  V30 4390 H 404.63 0.148822 3.22457 0
M  V30 4391 H 403.682 2.53711 2.83434 0
M  V30 4392 H 404.994 3.1601 3.85927 0
M  V30 4393 H 404.148 1.81099 5.7904 0
M  V30 4394 H 402.887 1.0839 4.75503 0
M  V30 4395 H 401.892 3.35404 4.35642 0
M  V30 4396 H 403.117 4.08339 5.4262 0
M  V30 4397 H 401.063 1.99568 6.24907 0
M  V30 4398 H 400.98 3.69141 6.59751 0
M  V30 4399 H 402.248 2.73226 7.30047 0
M  V30 4400 N 406.477 -1.02803 1.19454 0
M  V30 4401 C 407.888 -1.57667 0.999899 0
M  V30 4402 C 408.239 -1.91041 -0.446956 0
M  V30 4403 O 407.364 -1.70978 -1.32648 0
M  V30 4404 C 407.959 -2.86477 1.80877 0
M  V30 4405 C 406.518 -3.37911 1.65811 0
M  V30 4406 C 405.665 -2.11343 1.79526 0
M  V30 4407 H 408.616 -0.853214 1.33813 0
M  V30 4408 H 408.637 -3.57408 1.30536 0
M  V30 4409 H 408.149 -2.62155 2.86175 0
M  V30 4410 H 406.25 -3.67218 0.63102 0
M  V30 4411 H 406.363 -4.10885 2.46395 0
M  V30 4412 H 404.727 -2.23254 1.22596 0
M  V30 4413 H 405.51 -1.89461 2.86285 0
M  V30 4414 N 407.956 -0.998596 -1.21925 0
M  V30 4415 C 408.886 -0.573688 -2.26343 0
M  V30 4416 C 409.867 0.402296 -1.65274 0
M  V30 4417 O 411.052 0.291683 -1.91997 0
M  V30 4418 C 408.182 0.106839 -3.47136 0
M  V30 4419 C 407.136 -0.788269 -4.20678 0
M  V30 4420 C 406.462 0.0254927 -5.34694 0
M  V30 4421 C 407.762 -2.08784 -4.78755 0
M  V30 4422 H 409.456 -1.44651 -2.62138 0
M  V30 4423 H 407.002 -0.696975 -1.26009 0
M  V30 4424 H 408.955 0.415531 -4.19346 0
M  V30 4425 H 407.679 1.01424 -3.10452 0
M  V30 4426 H 406.338 -1.08069 -3.50309 0
M  V30 4427 H 405.986 0.933989 -4.94253 0
M  V30 4428 H 405.686 -0.570437 -5.84825 0
M  V30 4429 H 407.21 0.328147 -6.09718 0
M  V30 4430 H 408.624 -1.84272 -5.42878 0
M  V30 4431 H 407.021 -2.63307 -5.39249 0
M  V30 4432 H 408.091 -2.76284 -3.98491 0
M  V30 4433 N 409.434 1.37368 -0.772513 0
M  V30 4434 C 410.681 1.99673 -0.337182 0
M  V30 4435 C 411.009 1.61324 1.0865 0
M  V30 4436 O 410.264 0.851377 1.7621 0
M  V30 4437 C 410.563 3.54817 -0.428876 0
M  V30 4438 C 410.229 4.12936 -1.81092 0
M  V30 4439 C 408.891 4.28523 -2.1891 0
M  V30 4440 C 411.243 4.44801 -2.71664 0
M  V30 4441 C 408.571 4.73277 -3.46735 0
M  V30 4442 C 410.923 4.90981 -3.98899 0
M  V30 4443 C 409.587 5.04773 -4.36761 0
M  V30 4444 H 408.857 0.730656 -0.123384 0
M  V30 4445 H 411.504 1.64124 -0.986686 0
M  V30 4446 H 409.809 3.90618 0.304167 0
M  V30 4447 H 411.506 4.00933 -0.0733334 0
M  V30 4448 H 408.096 4.01233 -1.50699 0
M  V30 4449 H 412.28 4.32344 -2.43706 0
M  V30 4450 H 407.536 4.82142 -3.75964 0
M  V30 4451 H 411.71 5.14603 -4.69208 0
M  V30 4452 H 409.337 5.39211 -5.35868 0
M  V30 4453 N 410.912 0.523116 1.48665 0
M  V30 4454 C 411.822 -0.247406 2.33292 0
M  V30 4455 C 412.838 -0.945769 1.46052 0
M  V30 4456 O 414.014 -0.922253 1.79043 0
M  V30 4457 C 411.079 -1.28487 3.22012 0
M  V30 4458 C 410.14 -0.597592 4.2512 0
M  V30 4459 C 409.373 -1.58563 5.09601 0
M  V30 4460 O 409.596 -2.81763 4.95949 0
M  V30 4461 O 408.53 -1.12879 5.91221 0
M  V30 4462 H 412.356 0.445869 3.00409 0
M  V30 4463 H 409.941 0.284128 1.46673 0
M  V30 4464 H 411.823 -1.88459 3.7691 0
M  V30 4465 H 410.498 -1.96068 2.57564 0
M  V30 4466 H 409.405 0.0424407 3.74076 0
M  V30 4467 H 410.738 0.0361517 4.92187 0
M  V30 4468 N 412.39 -1.55475 0.257931 0
M  V30 4469 C 413.353 -2.20551 -0.623706 0
M  V30 4470 C 414.353 -1.17809 -1.09443 0
M  V30 4471 O 415.543 -1.42823 -0.997362 0
M  V30 4472 C 412.675 -2.85784 -1.8585 0
M  V30 4473 H 413.868 -2.99848 -0.0557743 0
M  V30 4474 H 411.421 -1.56298 0.0084422 0
M  V30 4475 H 412.156 -2.10453 -2.46739 0
M  V30 4476 H 411.941 -3.61057 -1.52907 0
M  V30 4477 H 413.431 -3.35553 -2.48584 0
M  V30 4478 N 413.868 0.0150385 -1.57593 0
M  V30 4479 C 415.114 0.704043 -1.90187 0
M  V30 4480 C 415.447 1.74249 -0.857366 0
M  V30 4481 O 414.722 1.94092 0.125843 0
M  V30 4482 C 415.005 1.36087 -3.33395 0
M  V30 4483 C 414.858 0.334981 -4.48551 0
M  V30 4484 C 416.177 2.29112 -3.7576 0
M  V30 4485 H 413.296 0.254475 -0.691673 0
M  V30 4486 H 415.938 -0.0331678 -1.89971 0
M  V30 4487 H 414.088 1.98922 -3.3371 0
M  V30 4488 H 415.76 -0.292534 -4.60372 0
M  V30 4489 H 414.003 -0.344325 -4.32431 0
M  V30 4490 H 414.674 0.833316 -5.45674 0
M  V30 4491 H 417.15 1.76308 -3.76902 0
M  V30 4492 H 416.026 2.72043 -4.76743 0
M  V30 4493 H 416.287 3.16385 -3.08793 0
M  V30 4494 N 415.346 1.54954 0.287554 0
M  V30 4495 C 416.594 1.74528 1.01904 0
M  V30 4496 C 416.915 0.541349 1.87335 0
M  V30 4497 O 416.185 -0.444108 1.908 0
M  V30 4498 H 414.765 0.643576 0.379235 0
M  V30 4499 H 417.427 1.92333 0.315294 0
M  V30 4500 H 416.523 2.64015 1.6644 0
M  V30 4501 N 416.824 -0.551391 1.4764 0
M  V30 4502 C 418.072 -1.30572 1.54258 0
M  V30 4503 C 418.393 -1.93877 0.208963 0
M  V30 4504 O 417.663 -1.80234 -0.767619 0
M  V30 4505 H 416.243 -0.484894 0.568231 0
M  V30 4506 H 418.905 -0.643402 1.83974 0
M  V30 4507 H 418.001 -2.09621 2.31226 0
M  V30 4508 N 418.302 -1.35869 -0.798587 0
M  V30 4509 C 419.527 -1.32883 -1.59238 0
M  V30 4510 C 419.952 0.0894587 -1.87887 0
M  V30 4511 O 419.31 1.05869 -1.47178 0
M  V30 4512 C 419.358 -2.14892 -2.89575 0
M  V30 4513 O 418.462 -1.53512 -3.82763 0
M  V30 4514 H 417.803 -0.455236 -0.48338 0
M  V30 4515 H 420.333 -1.79024 -0.990539 0
M  V30 4516 H 420.343 -2.27139 -3.38928 0
M  V30 4517 H 419.018 -3.17998 -2.68049 0
M  V30 4518 H 417.595 -1.50153 -3.41334 0
M  V30 4519 N 419.78 1.02168 -1.19998 0
M  V30 4520 C 421.028 1.75338 -1.00504 0
M  V30 4521 C 421.349 1.89387 0.464506 0
M  V30 4522 O 420.619 1.43268 1.33608 0
M  V30 4523 H 419.199 0.649564 -0.368885 0
M  V30 4524 H 421.861 1.23205 -1.51018 0
M  V30 4525 H 420.957 2.75892 -1.45912 0
M  V30 4526 N 421.258 1.00505 1.21394 0
M  V30 4527 C 422.506 0.686415 1.90086 0
M  V30 4528 C 422.827 -0.785264 1.7849 0
M  V30 4529 O 422.097 -1.56387 1.17983 0
M  V30 4530 H 420.677 0.2509 0.703604 0
M  V30 4531 H 423.339 1.27417 1.47482 0
M  V30 4532 H 422.435 0.959621 2.96981 0
M  V30 4533 N 422.737 -1.36956 0.779787 0
M  V30 4534 C 423.684 -2.30175 0.169697 0
M  V30 4535 C 424.654 -1.51501 -0.68094 0
M  V30 4536 O 425.839 -1.80042 -0.631629 0
M  V30 4537 C 422.979 -3.37985 -0.697131 0
M  V30 4538 C 422.092 -4.31661 0.170992 0
M  V30 4539 C 421.227 -5.2655 -0.701298 0
M  V30 4540 C 420.266 -6.11867 0.168869 0
M  V30 4541 N 419.403 -6.98973 -0.661855 0
M  V30 4542 H 424.243 -2.81767 0.970135 0
M  V30 4543 H 421.78 -1.38699 0.489994 0
M  V30 4544 H 423.738 -3.99128 -1.2146 0
M  V30 4545 H 422.368 -2.87739 -1.46309 0
M  V30 4546 H 421.42 -3.71756 0.80634 0
M  V30 4547 H 422.732 -4.91644 0.841875 0
M  V30 4548 H 421.886 -5.92937 -1.28494 0
M  V30 4549 H 420.625 -4.66998 -1.40584 0
M  V30 4550 H 419.63 -5.44452 0.764986 0
M  V30 4551 H 420.855 -6.73493 0.870863 0
M  V30 4552 H 418.801 -6.41941 -1.35086 0
M  V30 4553 H 418.718 -7.55984 -0.0484447 0
M  V30 4554 H 419.986 -7.6974 -1.22963 0
M  V30 4555 N 424.215 -0.530993 -1.48385 0
M  V30 4556 C 425.443 -0.00134122 -2.069 0
M  V30 4557 C 425.858 1.2805 -1.3874 0
M  V30 4558 O 425.215 1.76204 -0.475244 0
M  V30 4559 C 425.266 0.225256 -3.60798 0
M  V30 4560 O 424.987 -1.0058 -4.26398 0
M  V30 4561 C 426.488 0.795172 -4.3611 0
M  V30 4562 H 423.708 -0.0339704 -0.67014 0
M  V30 4563 H 426.252 -0.736926 -1.90761 0
M  V30 4564 H 424.407 0.910891 -3.76539 0
M  V30 4565 H 424.821 -0.787165 -5.1856 0
M  V30 4566 H 426.295 0.903143 -5.44562 0
M  V30 4567 H 426.772 1.80031 -4.00606 0
M  V30 4568 H 427.378 0.146069 -4.25049 0
M  V30 4569 N 425.693 1.55336 -0.266172 0
M  V30 4570 C 426.623 2.25146 0.618981 0
M  V30 4571 C 427.604 1.23845 1.16604 0
M  V30 4572 O 428.789 1.52544 1.20183 0
M  V30 4573 C 425.919 2.96572 1.80728 0
M  V30 4574 C 424.873 4.04726 1.39215 0
M  V30 4575 C 424.199 4.63678 2.66283 0
M  V30 4576 C 425.499 5.19407 0.548942 0
M  V30 4577 H 427.193 2.99377 0.0368116 0
M  V30 4578 H 424.739 1.43991 0.0162651 0
M  V30 4579 H 426.692 3.44116 2.43232 0
M  V30 4580 H 425.416 2.19861 2.41514 0
M  V30 4581 H 424.075 3.57979 0.790351 0
M  V30 4582 H 423.723 3.83646 3.25308 0
M  V30 4583 H 423.423 5.367 2.39222 0
M  V30 4584 H 424.947 5.13967 3.29651 0
M  V30 4585 H 426.361 5.63059 1.07876 0
M  V30 4586 H 424.758 5.98936 0.373593 0
M  V30 4587 H 425.828 4.8295 -0.434394 0
M  V30 4588 N 427.171 -0.0066808 1.57599 0
M  V30 4589 C 428.081 -1.01671 2.11424 0
M  V30 4590 C 429.097 -1.38143 1.05795 0
M  V30 4591 O 430.273 -1.47011 1.37658 0
M  V30 4592 C 427.338 -2.29192 2.60139 0
M  V30 4593 C 426.399 -1.99094 3.80342 0
M  V30 4594 C 425.632 -3.20535 4.26724 0
M  V30 4595 O 425.855 -4.3199 3.72479 0
M  V30 4596 O 424.789 -3.04924 5.18946 0
M  V30 4597 H 428.615 -0.589181 2.9793 0
M  V30 4598 H 426.2 -0.225091 1.47695 0
M  V30 4599 H 428.082 -3.0412 2.917 0
M  V30 4600 H 426.757 -2.71195 1.76733 0
M  V30 4601 H 425.664 -1.21663 3.53764 0
M  V30 4602 H 426.997 -1.61931 4.648 0
M  V30 4603 N 428.649 -1.55105 -0.279332 0
M  V30 4604 C 429.926 -1.66119 -1.03267 0
M  V30 4605 C 430.306 -0.523525 -2.04505 0
M  V30 4606 O 429.654 0.477194 -2.23462 0
M  V30 4607 C 429.864 -3.05067 -1.69515 0
M  V30 4608 C 431.212 -3.62606 -2.20912 0
M  V30 4609 O 432.236 -3.07659 -1.79512 0
M  V30 4610 O 431.095 -4.58861 -2.96831 0
M  V30 4611 H 428.189 -0.674429 -0.478618 0
M  V30 4612 H 430.735 -1.67446 -0.275694 0
M  V30 4613 H 429.507 -3.79311 -0.9612 0
M  V30 4614 H 429.13 -3.07611 -2.51915 0
M  V30 4615 N 430.127 0.543554 -1.4793 0
M  V30 4616 C 431.373 1.30201 -1.55485 0
M  V30 4617 C 431.706 1.92925 -0.222201 0
M  V30 4618 O 430.981 1.78586 0.77053 0
M  V30 4619 C 431.264 2.40174 -2.68307 0
M  V30 4620 C 431.117 1.8223 -4.11233 0
M  V30 4621 C 432.436 3.42024 -2.76961 0
M  V30 4622 H 429.555 0.472036 -0.565996 0
M  V30 4623 H 432.197 0.606914 -1.80046 0
M  V30 4624 H 430.347 2.99463 -2.47495 0
M  V30 4625 H 432.019 1.27096 -4.43446 0
M  V30 4626 H 430.262 1.12832 -4.18869 0
M  V30 4627 H 430.933 2.61793 -4.85972 0
M  V30 4628 H 433.409 2.92672 -2.95774 0
M  V30 4629 H 432.285 4.16383 -3.57654 0
M  V30 4630 H 432.546 4.0173 -1.84568 0
M  V30 4631 N 431.605 1.3629 0.791371 0
M  V30 4632 C 432.852 1.30412 1.54916 0
M  V30 4633 C 433.18 -0.117162 1.94147 0
M  V30 4634 O 432.435 -1.08599 1.62803 0
M  V30 4635 C 432.734 2.17068 2.8393 0
M  V30 4636 C 432.4 3.65645 2.63846 0
M  V30 4637 C 431.062 4.0614 2.58077 0
M  V30 4638 C 433.414 4.59855 2.45322 0
M  V30 4639 C 430.742 5.3899 2.31748 0
M  V30 4640 C 433.094 5.9292 2.2052 0
M  V30 4641 C 431.758 6.32542 2.13183 0
M  V30 4642 H 431.028 0.47721 0.566879 0
M  V30 4643 H 433.675 1.68325 0.913172 0
M  V30 4644 H 431.98 1.72085 3.51986 0
M  V30 4645 H 433.677 2.09846 3.4171 0
M  V30 4646 H 430.267 3.33518 2.69191 0
M  V30 4647 H 434.451 4.29443 2.48782 0
M  V30 4648 H 429.707 5.68672 2.24548 0
M  V30 4649 H 433.881 6.65487 2.05182 0
M  V30 4650 H 431.508 7.35412 1.92544 0
M  V30 4651 N 433.083 -1.0153 1.20538 0
M  V30 4652 C 434.313 -1.78487 1.04048 0
M  V30 4653 C 434.721 -1.84631 -0.413292 0
M  V30 4654 O 434.064 -1.29919 -1.29872 0
M  V30 4655 C 434.126 -3.24367 1.55003 0
M  V30 4656 C 433.79 -3.41827 3.0332 0
M  V30 4657 C 434.787 -3.30941 4.00966 0
M  V30 4658 C 432.472 -3.67602 3.42307 0
M  V30 4659 C 434.466 -3.45577 5.35589 0
M  V30 4660 C 432.153 -3.81881 4.77085 0
M  V30 4661 C 433.151 -3.70874 5.73534 0
M  V30 4662 O 432.839 -3.84714 7.05868 0
M  V30 4663 H 432.571 -0.568108 0.366373 0
M  V30 4664 H 435.125 -1.28677 1.60098 0
M  V30 4665 H 433.355 -3.75266 0.933397 0
M  V30 4666 H 435.044 -3.82963 1.34514 0
M  V30 4667 H 435.81 -3.10964 3.72191 0
M  V30 4668 H 431.689 -3.75256 2.67776 0
M  V30 4669 H 435.233 -3.36902 6.10854 0
M  V30 4670 H 431.13 -4.01359 5.0555 0
M  V30 4671 H 431.898 -4.01724 7.13134 0
M  V30 4672 N 434.561 -1.01147 -1.20859 0
M  V30 4673 C 435.471 -0.58686 -2.27141 0
M  V30 4674 C 436.487 0.373198 -1.69951 0
M  V30 4675 O 437.663 0.235423 -2.00019 0
M  V30 4676 C 434.728 0.0733602 -3.46622 0
M  V30 4677 C 433.789 -0.931995 -4.19061 0
M  V30 4678 C 433.022 -0.303186 -5.32838 0
M  V30 4679 O 433.245 0.898395 -5.63281 0
M  V30 4680 O 432.179 -1.01735 -5.9324 0
M  V30 4681 H 436.005 -1.47155 -2.65667 0
M  V30 4682 H 433.59 -0.780689 -1.2738 0
M  V30 4683 H 435.472 0.442333 -4.19072 0
M  V30 4684 H 434.147 0.932329 -3.09983 0
M  V30 4685 H 433.054 -1.35224 -3.48805 0
M  V30 4686 H 434.387 -1.76076 -4.59628 0
M  V30 4687 N 436.039 1.36541 -0.78704 0
M  V30 4688 C 437.455 1.52571 -0.46844 0
M  V30 4689 C 437.655 1.7415 1.01361 0
M  V30 4690 O 436.711 1.77163 1.79915 0
M  V30 4691 C 438.024 2.71299 -1.29682 0
M  V30 4692 C 439.572 2.85169 -1.29027 0
M  V30 4693 C 440.047 4.06898 -2.10233 0
M  V30 4694 N 441.538 4.1404 -2.07666 0
M  V30 4695 C 442.273 5.07301 -2.67271 0
M  V30 4696 N 441.769 6.06021 -3.35724 0
M  V30 4697 N 443.562 4.99898 -2.57018 0
M  V30 4698 H 435.713 1.20788 -1.74711 0
M  V30 4699 H 437.976 0.589364 -0.742532 0
M  V30 4700 H 437.682 2.61868 -2.34773 0
M  V30 4701 H 437.556 3.6539 -0.936479 0
M  V30 4702 H 439.943 2.94062 -0.247284 0
M  V30 4703 H 440.024 1.91992 -1.69035 0
M  V30 4704 H 439.668 3.98766 -3.1456 0
M  V30 4705 H 439.598 4.99218 -1.67597 0
M  V30 4706 H 442.089 3.43357 -1.57843 0
M  V30 4707 H 442.402 6.73741 -3.78541 0
M  V30 4708 H 440.747 6.06253 -3.39826 0
M  V30 4709 H 443.938 4.21724 -2.03142 0
M  V30 4710 H 444.111 5.72392 -3.03761 0
M  V30 4711 N 437.518 0.538854 1.48102 0
M  V30 4712 C 438.428 -0.222648 2.33541 0
M  V30 4713 C 439.444 -0.930225 1.47047 0
M  V30 4714 O 440.62 -0.903211 1.80011 0
M  V30 4715 C 437.685 -1.25064 3.23357 0
M  V30 4716 C 436.746 -0.552469 4.2573 0
M  V30 4717 C 435.979 -1.53149 5.11254 0
M  V30 4718 O 436.202 -2.76487 4.9891 0
M  V30 4719 O 435.136 -1.06602 5.92385 0
M  V30 4720 H 438.962 0.477707 2.99919 0
M  V30 4721 H 436.547 0.299669 1.46364 0
M  V30 4722 H 438.429 -1.8445 3.78888 0
M  V30 4723 H 437.104 -1.93325 2.59629 0
M  V30 4724 H 436.011 0.082114 3.7401 0
M  V30 4725 H 437.344 0.0883526 4.92121 0
M  V30 4726 N 438.996 -1.55193 0.274407 0
M  V30 4727 C 440.242 -1.99877 -0.343086 0
M  V30 4728 C 440.575 -1.16256 -1.55558 0
M  V30 4729 O 439.85 -0.232462 -1.93106 0
M  V30 4730 C 440.133 -3.52706 -0.725965 0
M  V30 4731 C 439.986 -4.47081 0.493818 0
M  V30 4732 C 441.305 -4.11422 -1.56268 0
M  V30 4733 H 438.424 -0.726625 -0.123229 0
M  V30 4734 H 441.066 -1.86136 0.38121 0
M  V30 4735 H 439.216 -3.64546 -1.34307 0
M  V30 4736 H 440.888 -4.47186 1.13237 0
M  V30 4737 H 439.131 -4.1877 1.13201 0
M  V30 4738 H 439.802 -5.51699 0.18217 0
M  V30 4739 H 442.278 -4.02855 -1.04151 0
M  V30 4740 H 441.154 -5.18568 -1.79939 0
M  V30 4741 H 441.415 -3.61607 -2.54348 0
M  V30 4742 N 440.474 -0.00167713 -1.576 0
M  V30 4743 C 441.406 1.0174 -2.05382 0
M  V30 4744 C 442.419 1.30595 -0.972052 0
M  V30 4745 O 443.608 1.27542 -1.24882 0
M  V30 4746 C 440.708 2.35174 -2.44022 0
M  V30 4747 C 439.881 2.25234 -3.74951 0
M  V30 4748 C 438.94 3.4137 -4.00441 0
M  V30 4749 O 437.966 3.19483 -4.71083 0
M  V30 4750 N 439.168 4.64275 -3.48467 0
M  V30 4751 H 441.933 0.609902 -2.93428 0
M  V30 4752 H 439.494 0.185672 -1.60832 0
M  V30 4753 H 441.486 3.11643 -2.58187 0
M  V30 4754 H 440.056 2.67659 -1.61485 0
M  V30 4755 H 439.276 1.33664 -3.70847 0
M  V30 4756 H 440.564 2.15767 -4.60784 0
M  V30 4757 H 439.962 4.84955 -2.91264 0
M  V30 4758 H 438.519 5.38005 -3.67959 0
M  V30 4759 N 441.952 1.55251 0.271103 0
M  V30 4760 C 442.885 1.83191 1.36075 0
M  V30 4761 C 443.863 0.685091 1.47463 0
M  V30 4762 O 445.047 0.928292 1.64058 0
M  V30 4763 C 442.174 1.99521 2.73696 0
M  V30 4764 C 441.22 3.22081 2.79582 0
M  V30 4765 S 442.053 4.79388 2.38636 0
M  V30 4766 C 443.209 4.98693 3.78228 0
M  V30 4767 H 443.442 2.75327 1.12171 0
M  V30 4768 H 440.975 1.47046 0.470833 0
M  V30 4769 H 442.933 2.09613 3.52948 0
M  V30 4770 H 441.594 1.0827 2.9485 0
M  V30 4771 H 440.787 3.304 3.80594 0
M  V30 4772 H 440.389 3.10589 2.08352 0
M  V30 4773 H 442.681 4.84551 4.73515 0
M  V30 4774 H 443.624 6.00738 3.7486 0
M  V30 4775 H 444.032 4.26665 3.69618 0
M  V30 4776 N 443.43 -0.535701 1.48216 0
M  V30 4777 C 444.378 -1.66179 1.62749 0
M  V30 4778 C 445.372 -1.62034 0.49409 0
M  V30 4779 O 446.578 -1.6696 0.672624 0
M  V30 4780 H 442.953 -0.550244 0.512578 0
M  V30 4781 H 444.924 -1.51063 2.57337 0
M  V30 4782 C 443.673 -3.04471 1.67907 0
M  V30 4783 H 442.996 -3.08351 2.54479 0
M  V30 4784 H 444.436 -3.82894 1.82121 0
M  V30 4785 C 442.895 -3.34314 0.416596 0
M  V30 4786 O 443.425 -3.98905 -0.473014 0
M  V30 4787 N 441.631 -2.89149 0.290038 0
M  V30 4788 H 441.178 -2.36764 1.01493 0
M  V30 4789 H 441.136 -3.09486 -0.55367 0
M  V30 4790 N 444.908 -1.36708 -0.784132 0
M  V30 4791 C 446.154 -1.31426 -1.54451 0
M  V30 4792 C 446.487 0.10476 -1.93917 0
M  V30 4793 O 445.762 1.05934 -1.6312 0
M  V30 4794 C 446.045 -2.24189 -2.818 0
M  V30 4795 C 445.898 -3.74813 -2.48667 0
M  V30 4796 C 447.217 -2.15626 -3.83658 0
M  V30 4797 H 444.336 -0.478739 -0.560337 0
M  V30 4798 H 446.978 -1.67305 -0.900498 0
M  V30 4799 H 445.128 -1.93722 -3.36755 0
M  V30 4800 H 446.8 -4.15823 -1.99722 0
M  V30 4801 H 445.043 -3.93989 -1.81535 0
M  V30 4802 H 445.714 -4.35138 -3.39646 0
M  V30 4803 H 448.19 -2.42456 -3.38163 0
M  V30 4804 H 447.066 -2.82694 -4.70506 0
M  V30 4805 H 447.327 -1.14522 -4.27009 0
M  V30 4806 N 446.386 1.0089 -1.21074 0
M  V30 4807 C 447.316 2.1145 -0.990523 0
M  V30 4808 C 448.297 1.69897 0.0831699 0
M  V30 4809 O 449.482 1.94052 -0.0758853 0
M  V30 4810 C 446.612 3.42914 -0.550177 0
M  V30 4811 C 445.566 3.98244 -1.56799 0
M  V30 4812 C 444.892 5.25568 -0.984013 0
M  V30 4813 C 446.192 4.30752 -2.95381 0
M  V30 4814 H 447.886 2.3013 -1.91521 0
M  V30 4815 H 445.432 1.10592 -0.92225 0
M  V30 4816 H 447.385 4.19653 -0.383305 0
M  V30 4817 H 446.109 3.24014 0.41015 0
M  V30 4818 H 444.768 3.23621 -1.72236 0
M  V30 4819 H 444.416 5.02998 -0.0155216 0
M  V30 4820 H 444.116 5.63551 -1.66384 0
M  V30 4821 H 445.64 6.04955 -0.828378 0
M  V30 4822 H 447.054 4.98349 -2.8341 0
M  V30 4823 H 445.451 4.79869 -3.60341 0
M  V30 4824 H 446.521 3.39192 -3.46521 0
M  V30 4825 N 447.864 1.01787 1.20321 0
M  V30 4826 C 448.827 0.593972 2.2137 0
M  V30 4827 C 449.827 -0.336553 1.57239 0
M  V30 4828 O 451.017 -0.125069 1.7375 0
M  V30 4829 C 448.149 -0.132433 3.40643 0
M  V30 4830 H 449.342 1.48791 2.60387 0
M  V30 4831 H 446.895 0.807803 1.33807 0
M  V30 4832 H 447.63 -1.04123 3.0713 0
M  V30 4833 H 447.415 0.53605 3.88418 0
M  V30 4834 H 448.905 -0.416314 4.1552 0
M  V30 4835 N 449.342 -1.36122 0.79427 0
M  V30 4836 C 450.589 -1.99111 0.368905 0
M  V30 4837 C 450.917 -1.63032 -1.0607 0
M  V30 4838 O 450.172 -0.879303 -1.74833 0
M  V30 4839 C 450.471 -3.5409 0.48527 0
M  V30 4840 C 450.137 -4.10003 1.87638 0
M  V30 4841 C 448.799 -4.24986 2.257 0
M  V30 4842 C 451.151 -4.40423 2.78706 0
M  V30 4843 C 448.479 -4.67701 3.54221 0
M  V30 4844 C 450.831 -4.84573 4.0666 0
M  V30 4845 C 449.495 -4.97761 4.44737 0
M  V30 4846 H 448.765 -0.7286 0.134992 0
M  V30 4847 H 451.412 -1.62534 1.01267 0
M  V30 4848 H 449.717 -3.91052 -0.241984 0
M  V30 4849 H 451.414 -4.00766 0.137109 0
M  V30 4850 H 448.004 -3.98784 1.57064 0
M  V30 4851 H 452.188 -4.28412 2.50553 0
M  V30 4852 H 447.444 -4.761 3.83587 0
M  V30 4853 H 451.618 -5.07074 4.77336 0
M  V30 4854 H 449.245 -5.30618 5.44379 0
M  V30 4855 N 450.82 -0.546701 -1.47814 0
M  V30 4856 C 451.768 0.220048 -2.31557 0
M  V30 4857 C 452.762 0.919472 -1.42275 0
M  V30 4858 O 453.968 0.841953 -1.59095 0
M  V30 4859 H 450.343 0.0898334 -0.746615 0
M  V30 4860 H 452.314 -0.505589 -2.94086 0
M  V30 4861 C 451.063 1.24353 -3.24702 0
M  V30 4862 H 450.386 0.714758 -3.93359 0
M  V30 4863 H 451.826 1.75112 -3.8615 0
M  V30 4864 C 450.285 2.28593 -2.47481 0
M  V30 4865 O 450.815 3.35334 -2.21165 0
M  V30 4866 N 449.021 2.02244 -2.08676 0
M  V30 4867 H 448.568 1.15455 -2.30278 0
M  V30 4868 H 448.526 2.72207 -1.57323 0
M  V30 4869 N 452.299 1.55045 -0.282633 0
M  V30 4870 C 453.715 1.59441 0.0712997 0
M  V30 4871 C 453.915 1.2998 1.53972 0
M  V30 4872 O 452.971 1.06431 2.28973 0
M  V30 4873 C 454.284 2.99097 -0.310104 0
M  V30 4874 C 455.832 3.1194 -0.257343 0
M  V30 4875 C 456.307 4.53875 -0.613297 0
M  V30 4876 N 457.798 4.5974 -0.565134 0
M  V30 4877 C 458.533 5.67603 -0.81326 0
M  V30 4878 N 458.029 6.83582 -1.1264 0
M  V30 4879 N 459.822 5.57187 -0.741553 0
M  V30 4880 H 451.973 1.72458 -1.23984 0
M  V30 4881 H 454.236 0.804549 -0.501403 0
M  V30 4882 H 453.942 3.25516 -1.33163 0
M  V30 4883 H 453.816 3.75616 0.345366 0
M  V30 4884 H 456.203 2.85281 0.754905 0
M  V30 4885 H 456.284 2.37618 -0.947178 0
M  V30 4886 H 455.928 4.81261 -1.62327 0
M  V30 4887 H 455.858 5.26508 0.09841 0
M  V30 4888 H 458.349 3.76427 -0.333294 0
M  V30 4889 H 458.662 7.6175 -1.30219 0
M  V30 4890 H 457.007 6.85179 -1.16425 0
M  V30 4891 H 460.198 4.65457 -0.496705 0
M  V30 4892 H 460.371 6.41171 -0.938306 0
M  V30 4893 N 453.777 0.010035 1.57597 0
M  V30 4894 C 454.709 -1.00649 2.05918 0
M  V30 4895 C 455.722 -1.30077 0.978964 0
M  V30 4896 O 456.911 -1.26878 1.25556 0
M  V30 4897 C 454.011 -2.33876 2.45265 0
M  V30 4898 C 453.184 -2.23242 3.7614 0
M  V30 4899 C 452.243 -3.39242 4.02245 0
M  V30 4900 O 451.269 -3.1698 4.72771 0
M  V30 4901 N 452.471 -4.6242 3.50924 0
M  V30 4902 H 455.236 -0.594333 2.93748 0
M  V30 4903 H 452.797 -0.17714 1.60928 0
M  V30 4904 H 454.789 -3.1027 2.59836 0
M  V30 4905 H 453.359 -2.66799 1.62902 0
M  V30 4906 H 452.579 -1.31696 3.71551 0
M  V30 4907 H 453.867 -2.13321 4.61922 0
M  V30 4908 H 453.265 -4.83404 2.93832 0
M  V30 4909 H 451.822 -5.36046 3.70807 0
M  V30 4910 N 455.255 -1.55392 -0.262866 0
M  V30 4911 C 456.502 -1.76476 -0.993109 0
M  V30 4912 C 456.83 -0.571479 -1.85915 0
M  V30 4913 O 456.085 0.445733 -1.90556 0
M  V30 4914 C 456.384 -3.02889 -1.89718 0
M  V30 4915 C 456.05 -4.34974 -1.18781 0
M  V30 4916 C 454.712 -4.7087 -0.991699 0
M  V30 4917 C 457.064 -5.16695 -0.683798 0
M  V30 4918 C 454.392 -5.86036 -0.279024 0
M  V30 4919 C 456.744 -6.32598 0.0153327 0
M  V30 4920 C 455.408 -6.67127 0.223062 0
M  V30 4921 H 454.678 -0.64577 -0.363404 0
M  V30 4922 H 457.325 -1.89664 -0.264525 0
M  V30 4923 H 455.63 -2.84644 -2.6923 0
M  V30 4924 H 457.327 -3.16399 -2.46359 0
M  V30 4925 H 453.917 -4.06765 -1.35058 0
M  V30 4926 H 458.101 -4.8943 -0.8229 0
M  V30 4927 H 453.357 -6.11306 -0.107456 0
M  V30 4928 H 457.531 -6.95171 0.413584 0
M  V30 4929 H 455.158 -7.56216 0.777265 0
M  V30 4930 N 456.733 0.527833 -1.48498 0
M  V30 4931 C 457.683 1.62844 -1.5958 0
M  V30 4932 C 458.667 1.54397 -0.452809 0
M  V30 4933 O 459.859 1.62381 -0.704364 0
M  V30 4934 C 456.988 3.01557 -1.64067 0
M  V30 4935 C 456.074 3.151 -2.83853 0
M  V30 4936 N 456.465 2.9861 -4.08247 0
M  V30 4937 C 454.763 3.46158 -2.8123 0
M  V30 4938 C 455.464 3.15626 -4.88626 0
M  V30 4939 N 454.44 3.43298 -4.21483 0
M  V30 4940 H 458.242 1.48708 -2.53502 0
M  V30 4941 H 455.756 0.733343 -1.44899 0
M  V30 4942 H 457.753 3.8062 -1.70101 0
M  V30 4943 H 456.413 3.16783 -0.712636 0
M  V30 4944 H 457.424 2.75329 -4.3865 0
M  V30 4945 H 454.101 3.67728 -1.97692 0
M  V30 4946 H 455.491 3.07596 -5.97356 0
M  V30 4947 N 458.211 1.37122 0.776871 0
M  V30 4948 C 459.441 1.35034 1.56363 0
M  V30 4949 C 459.849 -0.0674681 1.8908 0
M  V30 4950 O 459.192 -1.03826 1.51545 0
M  V30 4951 C 459.254 2.11894 2.90415 0
M  V30 4952 C 458.918 3.60897 2.80362 0
M  V30 4953 C 459.915 4.54887 2.51742 0
M  V30 4954 C 457.6 4.03951 2.98545 0
M  V30 4955 C 459.594 5.89909 2.41426 0
M  V30 4956 C 457.281 5.3906 2.87849 0
M  V30 4957 C 458.279 6.31852 2.5933 0
M  V30 4958 O 457.967 7.64479 2.48651 0
M  V30 4959 H 457.699 0.464402 0.49123 0
M  V30 4960 H 460.253 1.80992 0.971127 0
M  V30 4961 H 458.483 1.60618 3.51765 0
M  V30 4962 H 460.172 2.02505 3.51776 0
M  V30 4963 H 460.938 4.22934 2.37385 0
M  V30 4964 H 456.817 3.3209 3.19746 0
M  V30 4965 H 460.361 6.62304 2.19086 0
M  V30 4966 H 456.258 5.70617 3.01773 0
M  V30 4967 H 457.026 7.74742 2.64039 0
M  V30 4968 N 459.689 -1.00246 1.21608 0
M  V30 4969 C 460.937 -1.73717 1.0328 0
M  V30 4970 C 461.258 -1.90102 -0.434318 0
M  V30 4971 O 460.528 -1.45376 -1.31311 0
M  V30 4972 H 459.108 -0.643613 0.379172 0
M  V30 4973 H 461.77 -1.20787 1.52959 0
M  V30 4974 H 460.866 -2.73535 1.50283 0
M  V30 4975 N 461.167 -1.02423 -1.1978 0
M  V30 4976 C 462.413 -0.719051 -1.89625 0
M  V30 4977 C 462.746 0.750083 -1.7913 0
M  V30 4978 O 462.021 1.54574 -1.18056 0
M  V30 4979 C 462.304 -1.16499 -3.40735 0
M  V30 4980 C 462.157 -2.695 -3.60125 0
M  V30 4981 C 463.476 -0.742166 -4.33797 0
M  V30 4982 H 460.595 -0.26269 -0.688595 0
M  V30 4983 H 463.237 -1.27333 -1.41018 0
M  V30 4984 H 461.387 -0.69341 -3.82262 0
M  V30 4985 H 463.059 -3.24569 -3.278 0
M  V30 4986 H 461.302 -3.10113 -3.03336 0
M  V30 4987 H 461.973 -2.95757 -4.66081 0
M  V30 4988 H 464.449 -1.1477 -3.99959 0
M  V30 4989 H 463.325 -1.08213 -5.38127 0
M  V30 4990 H 463.586 0.355747 -4.40666 0
M  V30 4991 N 462.645 1.35699 -0.801477 0
M  V30 4992 C 463.892 1.98913 -0.379459 0
M  V30 4993 C 464.22 1.63592 1.05204 0
M  V30 4994 O 463.475 0.888563 1.74365 0
M  V30 4995 C 463.774 3.53828 -0.504041 0
M  V30 4996 C 463.44 4.09002 -1.8981 0
M  V30 4997 C 462.102 4.23783 -2.27951 0
M  V30 4998 C 464.454 4.38939 -2.81038 0
M  V30 4999 C 461.782 4.65816 -3.56696 0
M  V30 5000 C 464.134 4.82409 -4.09224 0
M  V30 5001 C 462.798 4.95395 -4.4737 0
M  V30 5002 H 462.068 0.727874 -0.138854 0
M  V30 5003 H 464.715 1.61994 -1.02128 0
M  V30 5004 H 463.02 3.91175 0.221242 0
M  V30 5005 H 464.717 4.00687 -0.158361 0
M  V30 5006 H 461.307 3.97946 -1.59176 0
M  V30 5007 H 465.491 4.27077 -2.52821 0
M  V30 5008 H 460.747 4.74059 -3.86106 0
M  V30 5009 H 464.921 5.04535 -4.80018 0
M  V30 5010 H 462.548 5.27724 -5.47185 0
M  V30 5011 N 464.123 0.554532 1.47522 0
M  V30 5012 C 465.353 0.0342074 2.06572 0
M  V30 5013 C 465.761 -1.26375 1.40805 0
M  V30 5014 O 465.104 -1.7683 0.49769 0
M  V30 5015 C 465.166 -0.235096 3.5873 0
M  V30 5016 C 464.83 0.973024 4.46521 0
M  V30 5017 C 465.827 1.8779 4.848 0
M  V30 5018 C 463.512 1.18694 4.88075 0
M  V30 5019 C 465.506 2.98039 5.63428 0
M  V30 5020 C 463.193 2.29254 5.66468 0
M  V30 5021 C 464.191 3.18757 6.04055 0
M  V30 5022 O 463.879 4.27401 6.8087 0
M  V30 5023 H 463.611 0.041587 0.67472 0
M  V30 5024 H 466.165 0.766748 1.90552 0
M  V30 5025 H 464.395 -1.02191 3.72953 0
M  V30 5026 H 466.084 -0.700477 3.9981 0
M  V30 5027 H 466.85 1.72467 4.53299 0
M  V30 5028 H 462.729 0.49947 4.58286 0
M  V30 5029 H 466.273 3.67926 5.92685 0
M  V30 5030 H 462.17 2.4455 5.97382 0
M  V30 5031 H 462.938 4.25415 6.9926 0
M  V30 5032 N 465.601 -1.54893 0.290851 0
M  V30 5033 C 466.564 -2.21824 -0.576784 0
M  V30 5034 C 467.564 -1.20104 -1.06919 0
M  V30 5035 O 468.754 -1.44906 -0.966843 0
M  V30 5036 C 465.886 -2.89662 -1.79747 0
M  V30 5037 H 467.079 -2.99899 0.00784051 0
M  V30 5038 H 464.632 -1.56245 0.0415934 0
M  V30 5039 H 465.367 -2.15639 -2.42219 0
M  V30 5040 H 465.152 -3.64219 -1.45214 0
M  V30 5041 H 466.642 -3.4075 -2.4141 0
M  V30 5042 N 467.08 -0.0183926 -1.57589 0
M  V30 5043 C 468.31 0.67207 -1.95363 0
M  V30 5044 C 468.718 1.66807 -0.892872 0
M  V30 5045 O 468.061 1.83204 0.134958 0
M  V30 5046 C 468.123 1.44397 -3.29226 0
M  V30 5047 C 467.787 0.607511 -4.52944 0
M  V30 5048 C 468.784 -0.112657 -5.19778 0
M  V30 5049 C 466.469 0.548068 -4.99301 0
M  V30 5050 C 468.463 -0.881057 -6.31281 0
M  V30 5051 C 466.15 -0.224044 -6.10689 0
M  V30 5052 C 467.148 -0.937323 -6.76538 0
M  V30 5053 O 466.836 -1.6968 -7.85789 0
M  V30 5054 H 466.568 0.190925 -0.648478 0
M  V30 5055 H 469.122 -0.0711994 -2.05277 0
M  V30 5056 H 467.352 2.23214 -3.15773 0
M  V30 5057 H 469.041 2.02152 -3.51979 0
M  V30 5058 H 469.807 -0.0759998 -4.8494 0
M  V30 5059 H 465.686 1.09281 -4.4786 0
M  V30 5060 H 469.23 -1.43832 -6.82611 0
M  V30 5061 H 465.127 -0.262457 -6.44966 0
M  V30 5062 H 465.895 -1.61544 -8.024 0
M  V30 5063 N 468.558 1.5553 0.254621 0
M  V30 5064 C 469.804 1.77262 0.985193 0
M  V30 5065 C 470.137 0.582286 1.85265 0
M  V30 5066 O 469.412 -0.419666 1.89919 0
M  V30 5067 C 469.695 3.0881 1.85225 0
M  V30 5068 C 469.548 4.38233 1.0135 0
M  V30 5069 C 470.867 3.3653 2.83612 0
M  V30 5070 H 467.986 0.644906 0.356742 0
M  V30 5071 H 470.628 1.88264 0.256236 0
M  V30 5072 H 468.778 2.99562 2.47376 0
M  V30 5073 H 470.45 4.59463 0.411269 0
M  V30 5074 H 468.693 4.32636 0.317574 0
M  V30 5075 H 469.364 5.26644 1.65379 0
M  V30 5076 H 471.84 3.45691 2.31596 0
M  V30 5077 H 470.716 4.29805 3.41407 0
M  V30 5078 H 470.977 2.57064 3.59681 0
M  V30 5079 N 470.036 -0.519951 1.48776 0
M  V30 5080 C 470.983 -1.62352 1.64044 0
M  V30 5081 C 471.953 -1.58945 0.482251 0
M  V30 5082 O 473.138 -1.77219 0.706971 0
M  V30 5083 C 470.278 -3.00579 1.69547 0
M  V30 5084 C 469.391 -3.14145 2.96541 0
M  V30 5085 C 468.526 -4.42991 2.93142 0
M  V30 5086 C 467.565 -4.50122 4.14797 0
M  V30 5087 N 466.702 -5.7037 4.09418 0
M  V30 5088 H 471.542 -1.48643 2.58281 0
M  V30 5089 H 469.079 -0.723516 1.28077 0
M  V30 5090 H 471.037 -3.80671 1.70719 0
M  V30 5091 H 469.667 -3.13036 0.787918 0
M  V30 5092 H 468.719 -2.27239 3.05068 0
M  V30 5093 H 470.031 -3.15275 3.86527 0
M  V30 5094 H 469.185 -5.31385 2.92772 0
M  V30 5095 H 467.924 -4.44398 2.00902 0
M  V30 5096 H 466.929 -3.60133 4.15433 0
M  V30 5097 H 468.154 -4.50445 5.08208 0
M  V30 5098 H 466.1 -5.72655 3.20004 0
M  V30 5099 H 466.017 -5.73036 4.93119 0
M  V30 5100 H 467.285 -6.61023 4.13121 0
M  V30 5101 N 471.514 -1.37532 -0.769588 0
M  V30 5102 C 472.444 -1.36172 -1.89682 0
M  V30 5103 C 473.425 -0.23001 -1.68538 0
M  V30 5104 O 474.61 -0.43069 -1.89364 0
M  V30 5105 C 471.74 -1.1701 -3.26995 0
M  V30 5106 C 470.694 -2.27216 -3.62708 0
M  V30 5107 C 470.02 -1.93174 -4.98586 0
M  V30 5108 C 471.32 -3.6941 -3.69234 0
M  V30 5109 H 473.014 -2.30499 -1.91078 0
M  V30 5110 H 470.56 -1.10953 -0.917902 0
M  V30 5111 H 472.513 -1.14688 -4.05493 0
M  V30 5112 H 471.237 -0.191395 -3.26039 0
M  V30 5113 H 469.896 -2.28697 -2.86519 0
M  V30 5114 H 469.544 -0.938281 -4.94171 0
M  V30 5115 H 469.244 -2.66973 -5.23449 0
M  V30 5116 H 470.768 -1.92443 -5.79481 0
M  V30 5117 H 472.182 -3.70047 -4.37879 0
M  V30 5118 H 470.579 -4.4228 -4.05597 0
M  V30 5119 H 471.649 -4.0288 -2.69844 0
M  V30 5120 N 472.992 0.995999 -1.22138 0
M  V30 5121 C 473.939 2.08551 -0.988687 0
M  V30 5122 C 474.909 1.65864 0.0885021 0
M  V30 5123 O 476.094 1.90704 -0.0604589 0
M  V30 5124 C 473.234 3.40374 -0.569191 0
M  V30 5125 C 472.347 3.96421 -1.71681 0
M  V30 5126 C 471.482 5.1639 -1.2456 0
M  V30 5127 C 470.521 5.64567 -2.36497 0
M  V30 5128 N 469.658 6.75777 -1.90445 0
M  V30 5129 H 474.498 2.2779 -1.92135 0
M  V30 5130 H 472.035 1.1168 -0.957388 0
M  V30 5131 H 473.993 4.16068 -0.307166 0
M  V30 5132 H 472.623 3.21145 0.326462 0
M  V30 5133 H 471.675 3.17628 -2.09324 0
M  V30 5134 H 472.987 4.2816 -2.55891 0
M  V30 5135 H 472.141 5.99362 -0.940774 0
M  V30 5136 H 470.88 4.86266 -0.373662 0
M  V30 5137 H 469.885 4.80185 -2.67772 0
M  V30 5138 H 471.11 5.96716 -3.24202 0
M  V30 5139 H 469.056 6.47443 -1.05609 0
M  V30 5140 H 468.973 7.06818 -2.68223 0
M  V30 5141 H 470.241 7.62262 -1.63022 0
M  V30 5142 N 474.47 1.03057 1.19235 0
M  V30 5143 C 475.38 0.622922 2.26179 0
M  V30 5144 C 476.396 -0.346113 1.70523 0
M  V30 5145 O 477.572 -0.203572 2.00369 0
M  V30 5146 C 474.637 -0.0182063 3.46695 0
M  V30 5147 C 473.698 0.998546 4.17526 0
M  V30 5148 C 472.931 0.387917 5.32288 0
M  V30 5149 O 473.154 -0.808668 5.64639 0
M  V30 5150 O 472.088 1.1116 5.91546 0
M  V30 5151 H 475.914 1.51363 2.63292 0
M  V30 5152 H 473.499 0.800856 1.26122 0
M  V30 5153 H 475.381 -0.375606 4.19723 0
M  V30 5154 H 474.056 -0.882895 3.11427 0
M  V30 5155 H 472.963 1.40756 3.4661 0
M  V30 5156 H 474.296 1.83366 4.56769 0
M  V30 5157 N 475.948 -1.35272 0.808662 0
M  V30 5158 C 476.88 -2.28507 0.178149 0
M  V30 5159 C 477.893 -1.50377 -0.623754 0
M  V30 5160 O 479.082 -1.72583 -0.455774 0
M  V30 5161 C 476.182 -3.30038 -0.769959 0
M  V30 5162 C 475.355 -4.37398 -0.0139749 0
M  V30 5163 C 474.414 -5.18775 -0.880875 0
M  V30 5164 O 473.44 -5.68236 -0.331059 0
M  V30 5165 N 474.642 -5.37087 -2.20267 0
M  V30 5166 H 477.407 -2.83255 0.979106 0
M  V30 5167 H 474.968 -1.47643 0.664308 0
M  V30 5168 H 476.96 -3.81371 -1.35418 0
M  V30 5169 H 475.53 -2.75789 -1.47171 0
M  V30 5170 H 474.75 -3.86971 0.751468 0
M  V30 5171 H 476.038 -5.06268 0.506965 0
M  V30 5172 H 475.436 -4.9855 -2.67328 0
M  V30 5173 H 473.993 -5.91593 -2.73608 0
M  V30 5174 N 477.426 -0.562348 -1.47226 0
M  V30 5175 C 478.336 0.185466 -2.33866 0
M  V30 5176 C 479.352 0.906713 -1.48508 0
M  V30 5177 O 480.528 0.874458 -1.81425 0
M  V30 5178 C 477.593 1.19904 -3.25306 0
M  V30 5179 C 476.654 0.484669 -4.26555 0
M  V30 5180 C 475.887 1.44996 -5.13626 0
M  V30 5181 O 476.11 2.68515 -5.03245 0
M  V30 5182 O 475.044 0.971642 -5.94006 0
M  V30 5183 H 478.87 -0.525361 -2.99121 0
M  V30 5184 H 476.455 -0.322916 -1.45868 0
M  V30 5185 H 478.337 1.78399 -3.81774 0
M  V30 5186 H 477.012 1.8917 -2.62672 0
M  V30 5187 H 475.919 -0.141605 -3.73832 0
M  V30 5188 H 477.252 -0.166634 -4.91918 0
M  V30 5189 N 478.904 1.54736 -0.299062 0
M  V30 5190 C 480.153 1.99279 0.311549 0
M  V30 5191 C 480.466 1.19107 1.55154 0
M  V30 5192 O 481.672 1.53908 2.23662 0
M  V30 5193 C 480.128 3.54768 0.605632 0
M  V30 5194 C 479.736 4.43746 -0.615914 0
M  V30 5195 C 481.48 4.07841 1.17754 0
M  V30 5196 C 479.387 5.90663 -0.29509 0
M  V30 5197 H 478.317 0.744359 0.120187 0
M  V30 5198 H 480.968 1.78919 -0.407464 0
M  V30 5199 H 479.35 3.71021 1.38419 0
M  V30 5200 H 480.524 4.39267 -1.39218 0
M  V30 5201 H 478.839 4.01434 -1.10633 0
M  V30 5202 H 481.436 5.15174 1.43179 0
M  V30 5203 H 481.779 3.58324 2.11918 0
M  V30 5204 H 482.312 3.95123 0.460739 0
M  V30 5205 H 479.051 6.44325 -1.20524 0
M  V30 5206 H 478.571 5.98155 0.44394 0
M  V30 5207 H 480.25 6.46916 0.104048 0
M  V30 5208 N 480.382 0.0267497 1.57577 0
M  V30 5209 C 481.798 -0.32962 1.56159 0
M  V30 5210 C 481.998 -1.73059 1.03213 0
M  V30 5211 O 481.054 -2.43233 0.677804 0
M  V30 5212 C 482.367 -0.18039 3.00158 0
M  V30 5213 C 483.915 -0.253334 3.11973 0
M  V30 5214 C 484.39 -0.132921 4.57807 0
M  V30 5215 N 485.881 -0.189979 4.6281 0
M  V30 5216 C 486.616 -0.120554 5.73273 0
M  V30 5217 N 486.112 -0.000180315 6.928 0
M  V30 5218 N 487.905 -0.174369 5.61829 0
M  V30 5219 H 480.056 0.942896 1.90324 0
M  V30 5220 H 482.319 0.3639 0.875375 0
M  V30 5221 H 482.025 0.784576 3.42837 0
M  V30 5222 H 481.899 -0.951565 3.65 0
M  V30 5223 H 484.286 -1.20876 2.69208 0
M  V30 5224 H 484.367 0.548177 2.49857 0
M  V30 5225 H 484.011 0.819073 5.01252 0
M  V30 5226 H 483.941 -0.953264 5.179 0
M  V30 5227 H 486.432 -0.283257 3.76837 0
M  V30 5228 H 486.745 0.0461666 7.72786 0
M  V30 5229 H 485.09 0.034569 6.94991 0
M  V30 5230 H 488.281 -0.266794 4.67339 0
M  V30 5231 H 488.454 -0.116802 6.47895 0
M  V30 5232 N 481.861 -1.55662 -0.24637 0
M  V30 5233 C 482.809 -1.91186 -1.3248 0
M  V30 5234 C 483.803 -0.790996 -1.49799 0
M  V30 5235 O 485.009 -0.975617 -1.51267 0
M  V30 5236 H 481.384 -0.607207 -0.443626 0
M  V30 5237 H 483.355 -2.81221 -0.997853 0
M  V30 5238 C 482.104 -2.22349 -2.67313 0
M  V30 5239 H 481.427 -3.08097 -2.54786 0
M  V30 5240 H 482.867 -2.51107 -3.41645 0
M  V30 5241 C 481.326 -1.04001 -3.20446 0
M  V30 5242 O 481.856 -0.28828 -4.00664 0
M  V30 5243 N 480.062 -0.830494 -2.7848 0
M  V30 5244 H 479.609 -1.4435 -2.13356 0
M  V30 5245 H 479.567 -0.0403258 -3.14374 0
M  V30 5246 N 483.339 0.512053 -1.4905 0
M  V30 5247 C 484.588 1.26343 -1.57227 0
M  V30 5248 C 484.901 1.93876 -0.259155 0
M  V30 5249 O 486.107 2.70612 -0.219358 0
M  V30 5250 C 484.563 2.29343 -2.77362 0
M  V30 5251 C 484.171 1.67799 -4.15388 0
M  V30 5252 C 485.915 3.05378 -2.94864 0
M  V30 5253 C 483.822 2.68845 -5.2676 0
M  V30 5254 H 482.752 0.475231 -0.585382 0
M  V30 5255 H 485.403 0.53862 -1.75417 0
M  V30 5256 H 483.785 3.04938 -2.52643 0
M  V30 5257 H 484.959 0.982715 -4.50199 0
M  V30 5258 H 483.274 1.04194 -4.03153 0
M  V30 5259 H 485.871 3.80921 -3.75238 0
M  V30 5260 H 486.214 3.62327 -2.05 0
M  V30 5261 H 486.747 2.36898 -3.19569 0
M  V30 5262 H 483.486 2.16692 -6.18647 0
M  V30 5263 H 483.006 3.36647 -4.96416 0
M  V30 5264 H 484.685 3.31487 -5.5563 0
M  V30 5265 N 484.817 1.37938 0.762283 0
M  V30 5266 C 486.063 1.33866 1.52341 0
M  V30 5267 C 486.396 -0.0738961 1.94059 0
M  V30 5268 O 485.671 -1.03326 1.64785 0
M  V30 5269 C 485.954 2.28644 2.78197 0
M  V30 5270 C 485.807 3.78722 2.42672 0
M  V30 5271 C 487.126 2.21702 3.80179 0
M  V30 5272 H 484.245 0.487593 0.55265 0
M  V30 5273 H 486.887 1.68717 0.873767 0
M  V30 5274 H 485.037 1.99055 3.33631 0
M  V30 5275 H 486.709 4.18948 1.93081 0
M  V30 5276 H 484.952 3.96827 1.75244 0
M  V30 5277 H 485.623 4.40486 3.3268 0
M  V30 5278 H 488.099 2.47805 3.34263 0
M  V30 5279 H 486.975 2.90143 4.65949 0
M  V30 5280 H 487.236 1.21301 4.25133 0
M  V30 5281 N 486.295 -0.989507 1.22664 0
M  V30 5282 C 487.541 -1.73298 1.06487 0
M  V30 5283 C 487.896 -1.88292 -0.395438 0
M  V30 5284 O 487.189 -1.41748 -1.28911 0
M  V30 5285 C 487.383 -3.13649 1.71345 0
M  V30 5286 C 487.212 -3.12341 3.23532 0
M  V30 5287 C 485.982 -3.18044 3.92653 0
M  V30 5288 C 488.18 -2.96226 4.20422 0
M  V30 5289 N 486.162 -3.06526 5.31898 0
M  V30 5290 C 487.533 -2.92773 5.4652 0
M  V30 5291 C 489.588 -2.80642 4.11271 0
M  V30 5292 C 488.291 -2.75332 6.64519 0
M  V30 5293 C 490.317 -2.64563 5.28924 0
M  V30 5294 C 489.679 -2.618 6.53942 0
M  V30 5295 H 485.778 -0.643643 0.444126 0
M  V30 5296 H 488.362 -1.17489 1.55256 0
M  V30 5297 H 486.533 -3.67694 1.25122 0
M  V30 5298 H 488.265 -3.76577 1.48229 0
M  V30 5299 H 485.02 -3.25861 3.43673 0
M  V30 5300 H 485.444 -3.04067 6.04874 0
M  V30 5301 H 490.086 -2.81574 3.15398 0
M  V30 5302 H 487.804 -2.73145 7.60538 0
M  V30 5303 H 491.39 -2.53482 5.23677 0
M  V30 5304 H 490.27 -2.49511 7.43447 0
M  V30 5305 N 487.773 -1.03688 -1.18687 0
M  V30 5306 C 489.022 -0.733235 -1.879 0
M  V30 5307 C 489.335 0.741745 -1.8099 0
M  V30 5308 O 490.541 1.15875 -2.4553 0
M  V30 5309 C 488.997 -1.26127 -3.37076 0
M  V30 5310 C 488.605 -2.76461 -3.52524 0
M  V30 5311 C 490.349 -1.03398 -4.11715 0
M  V30 5312 C 488.256 -3.22642 -4.95637 0
M  V30 5313 H 487.186 -0.270584 -0.703776 0
M  V30 5314 H 489.837 -1.25222 -1.34133 0
M  V30 5315 H 488.219 -0.670165 -3.90288 0
M  V30 5316 H 489.393 -3.41296 -3.09602 0
M  V30 5317 H 487.708 -2.97559 -2.91286 0
M  V30 5318 H 490.305 -1.3542 -5.17267 0
M  V30 5319 H 490.648 0.0289246 -4.1629 0
M  V30 5320 H 491.181 -1.5895 -3.64664 0
M  V30 5321 H 487.92 -4.28296 -4.96228 0
M  V30 5322 H 487.44 -2.62539 -5.39289 0
M  V30 5323 H 489.119 -3.16444 -5.64333 0
M  V30 5324 N 489.251 1.34841 -0.815825 0
M  V30 5325 C 490.214 2.27959 -0.238185 0
M  V30 5326 C 491.214 1.49983 0.579816 0
M  V30 5327 O 492.404 1.69617 0.396953 0
M  V30 5328 C 489.536 3.34314 0.666876 0
M  V30 5329 H 490.729 2.80558 -1.05958 0
M  V30 5330 H 488.282 1.44852 -0.587156 0
M  V30 5331 H 489.017 2.86916 1.5116 0
M  V30 5332 H 488.802 3.92014 0.0819106 0
M  V30 5333 H 490.292 4.0379 1.06506 0
M  V30 5334 N 490.729 0.570148 1.46925 0
M  V30 5335 C 491.639 -0.173061 2.33961 0
M  V30 5336 C 492.655 -0.898825 1.48987 0
M  V30 5337 O 493.831 -0.864825 1.81887 0
M  V30 5338 C 490.896 -1.18177 3.25937 0
M  V30 5339 C 489.957 -0.462041 4.26806 0
M  V30 5340 C 489.19 -1.4227 5.14388 0
M  V30 5341 O 489.413 -2.65842 5.04662 0
M  V30 5342 O 488.347 -0.940127 5.94513 0
M  V30 5343 H 492.173 0.541216 2.98839 0
M  V30 5344 H 489.758 0.330647 1.45695 0
M  V30 5345 H 491.64 -1.76372 3.82715 0
M  V30 5346 H 490.315 -1.87774 2.63671 0
M  V30 5347 H 489.222 0.161429 3.73752 0
M  V30 5348 H 490.555 0.192719 4.91823 0
M  V30 5349 N 492.207 -1.54576 0.307264 0
M  V30 5350 C 493.447 -2.02172 -0.300962 0
M  V30 5351 C 493.811 -1.19081 -1.50611 0
M  V30 5352 O 495.012 -1.56405 -2.18612 0
M  V30 5353 C 493.283 -3.51576 -0.642591 0
M  V30 5354 S 494.842 -4.21127 -1.23279 0
M  V30 5355 H 491.66 -0.705021 -0.0920141 0
M  V30 5356 H 494.262 -1.90563 0.436594 0
M  V30 5357 H 492.966 -4.09681 0.242901 0
M  V30 5358 H 492.497 -3.67234 -1.41077 0
M  V30 5359 H 494.512 -4.27426 -2.52034 0
M  V30 5360 N 493.685 -0.035106 -1.57561 0
M  V30 5361 C 494.934 0.641604 -1.91223 0
M  V30 5362 C 495.247 1.72944 -0.913761 0
M  V30 5363 O 496.453 2.46321 -1.14185 0
M  V30 5364 C 494.909 1.19249 -3.3957 0
M  V30 5365 C 494.517 0.137616 -4.47789 0
M  V30 5366 C 496.261 1.84537 -3.82291 0
M  V30 5367 C 494.168 0.700478 -5.87237 0
M  V30 5368 H 493.098 0.243417 -0.713627 0
M  V30 5369 H 495.749 -0.101382 -1.8322 0
M  V30 5370 H 494.131 1.98728 -3.42525 0
M  V30 5371 H 495.305 -0.635153 -4.56402 0
M  V30 5372 H 493.62 -0.416855 -4.14308 0
M  V30 5373 H 496.217 2.27616 -4.83834 0
M  V30 5374 H 496.56 2.69054 -3.17672 0
M  V30 5375 H 497.093 1.11739 -3.81784 0
M  V30 5376 H 493.832 -0.106693 -6.55413 0
M  V30 5377 H 493.352 1.4416 -5.82218 0
M  V30 5378 H 495.031 1.18837 -6.35993 0
M  V30 5379 N 495.163 1.55791 0.238111 0
M  V30 5380 C 496.388 1.8244 0.986432 0
M  V30 5381 C 496.813 0.613314 1.7782 0
M  V30 5382 O 496.171 -0.437767 1.75935 0
M  V30 5383 C 496.219 3.06917 1.893 0
M  V30 5384 O 495.323 2.84449 2.98601 0
M  V30 5385 H 494.664 0.601975 0.280218 0
M  V30 5386 H 497.194 2.02987 0.256437 0
M  V30 5387 H 497.204 3.36583 2.30598 0
M  V30 5388 H 495.879 3.947 1.31091 0
M  V30 5389 H 494.456 2.65972 2.61368 0
M  V30 5390 N 496.642 -0.504142 1.49319 0
M  V30 5391 C 497.574 -1.62265 1.61872 0
M  V30 5392 C 498.587 -1.54881 0.501573 0
M  V30 5393 O 499.776 -1.6087 0.773497 0
M  V30 5394 C 496.876 -3.01042 1.55651 0
M  V30 5395 C 496.049 -3.33642 2.82845 0
M  V30 5396 C 495.108 -4.51816 2.69719 0
M  V30 5397 O 494.134 -4.53755 3.4365 0
M  V30 5398 N 495.336 -5.51543 1.81055 0
M  V30 5399 H 498.101 -1.51924 2.58339 0
M  V30 5400 H 495.662 -0.691954 1.46368 0
M  V30 5401 H 497.654 -3.78013 1.44528 0
M  V30 5402 H 496.224 -3.05323 0.670546 0
M  V30 5403 H 495.444 -2.45598 3.08343 0
M  V30 5404 H 496.732 -3.5222 3.67177 0
M  V30 5405 H 496.13 -5.52774 1.20241 0
M  V30 5406 H 494.687 -6.27629 1.75856 0
M  V30 5407 N 498.12 -1.38341 -0.754957 0
M  V30 5408 C 499.536 -1.19508 -1.05783 0
M  V30 5409 C 499.736 -0.0428005 -2.01455 0
M  V30 5410 O 498.792 0.611861 -2.44975 0
M  V30 5411 C 500.105 -2.52091 -1.63923 0
M  V30 5412 C 501.653 -2.58762 -1.76101 0
M  V30 5413 C 502.128 -3.91517 -2.37652 0
M  V30 5414 N 503.619 -3.93049 -2.45085 0
M  V30 5415 C 504.354 -4.9253 -2.93602 0
M  V30 5416 N 503.85 -6.02408 -3.42165 0
M  V30 5417 N 505.643 -4.79921 -2.92629 0
M  V30 5418 H 497.794 -2.1206 -0.120056 0
M  V30 5419 H 500.057 -0.94089 -0.11589 0
M  V30 5420 H 499.763 -3.36858 -1.01093 0
M  V30 5421 H 499.637 -2.70388 -2.63003 0
M  V30 5422 H 502.024 -1.74391 -2.38058 0
M  V30 5423 H 502.105 -2.44333 -0.757294 0
M  V30 5424 H 501.749 -4.76309 -1.76329 0
M  V30 5425 H 501.679 -4.03256 -3.38662 0
M  V30 5426 H 504.17 -3.13685 -2.10736 0
M  V30 5427 H 504.483 -6.74248 -3.77637 0
M  V30 5428 H 502.828 -6.0603 -3.40225 0
M  V30 5429 H 506.019 -3.93194 -2.54001 0
M  V30 5430 H 506.192 -5.57601 -3.30128 0
M  V30 5431 N 499.598 0.982988 -1.23187 0
M  V30 5432 C 500.548 2.05962 -0.977942 0
M  V30 5433 C 501.532 1.60725 0.0751148 0
M  V30 5434 O 502.724 1.76471 -0.136683 0
M  V30 5435 C 499.853 3.38564 -0.568276 0
M  V30 5436 C 498.939 3.90407 -1.6566 0
M  V30 5437 N 499.33 4.15359 -2.88635 0
M  V30 5438 C 497.628 4.18915 -1.53058 0
M  V30 5439 C 498.329 4.57642 -3.5908 0
M  V30 5440 N 497.305 4.6192 -2.86584 0
M  V30 5441 H 501.107 2.23208 -1.91195 0
M  V30 5442 H 498.621 1.16555 -1.13087 0
M  V30 5443 H 500.618 4.15276 -0.36764 0
M  V30 5444 H 499.278 3.22712 0.358713 0
M  V30 5445 H 500.289 4.03258 -3.24966 0
M  V30 5446 H 496.966 4.12081 -0.670506 0
M  V30 5447 H 498.356 4.85488 -4.6449 0
M  V30 5448 N 501.076 1.04316 1.18135 0
M  V30 5449 C 502.492 0.762858 1.40188 0
M  V30 5450 C 502.692 -0.646547 1.90846 0
M  V30 5451 O 501.748 -1.41036 2.0944 0
M  V30 5452 C 503.061 1.81106 2.40044 0
M  V30 5453 C 504.609 1.83226 2.53766 0
M  V30 5454 C 505.084 2.87044 3.56889 0
M  V30 5455 N 506.575 2.85951 3.64398 0
M  V30 5456 C 507.31 3.62932 4.43923 0
M  V30 5457 N 506.806 4.49672 5.27036 0
M  V30 5458 N 508.599 3.51411 4.38711 0
M  V30 5459 H 500.75 1.95264 0.835805 0
M  V30 5460 H 503.013 0.845017 0.429709 0
M  V30 5461 H 502.719 2.82214 2.09876 0
M  V30 5462 H 502.593 1.64529 3.39426 0
M  V30 5463 H 504.98 0.827869 2.8325 0
M  V30 5464 H 505.061 2.03879 1.54489 0
M  V30 5465 H 504.705 3.87663 3.28145 0
M  V30 5466 H 504.635 2.63645 4.5585 0
M  V30 5467 H 507.126 2.23051 3.05052 0
M  V30 5468 H 507.439 5.05116 5.84874 0
M  V30 5469 H 505.784 4.53738 5.26447 0
M  V30 5470 H 508.975 2.83047 3.72829 0
M  V30 5471 H 509.148 4.11654 5.00445 0
M  V30 5472 N 502.554 -1.34406 0.822964 0
M  V30 5473 C 503.782 -2.02508 0.424039 0
M  V30 5474 C 504.197 -1.61975 -0.970022 0
M  V30 5475 O 503.554 -0.825228 -1.62777 0
M  V30 5476 C 503.605 -3.57789 0.516657 0
M  V30 5477 O 503.326 -3.96853 1.85577 0
M  V30 5478 C 504.827 -4.43157 0.112637 0
M  V30 5479 H 502.047 -0.649063 0.170173 0
M  V30 5480 H 504.591 -1.7168 1.11113 0
M  V30 5481 H 502.746 -3.87207 -0.122353 0
M  V30 5482 H 503.16 -4.91538 1.83005 0
M  V30 5483 H 504.634 -5.51527 0.228526 0
M  V30 5484 H 505.111 -4.28939 -0.943837 0
M  V30 5485 H 505.717 -4.19067 0.725449 0
M  V30 5486 N 504.032 -0.577932 -1.46621 0
M  V30 5487 C 504.979 0.158048 -2.30258 0
M  V30 5488 C 505.949 0.888669 -1.40328 0
M  V30 5489 O 507.134 0.880283 -1.6928 0
M  V30 5490 C 504.274 1.16884 -3.24703 0
M  V30 5491 C 503.387 0.442163 -4.29731 0
M  V30 5492 C 502.522 1.44007 -5.11308 0
M  V30 5493 C 501.561 0.69952 -6.0809 0
M  V30 5494 N 500.698 1.64525 -6.82551 0
M  V30 5495 H 505.538 -0.561242 -2.92667 0
M  V30 5496 H 503.075 -0.288591 -1.44241 0
M  V30 5497 H 505.033 1.7677 -3.779 0
M  V30 5498 H 503.663 1.85591 -2.64113 0
M  V30 5499 H 502.715 -0.271632 -3.79429 0
M  V30 5500 H 504.027 -0.136992 -4.98612 0
M  V30 5501 H 503.181 2.11186 -5.68758 0
M  V30 5502 H 501.92 2.05315 -4.42377 0
M  V30 5503 H 500.925 0.0139217 -5.49798 0
M  V30 5504 H 502.15 0.091894 -6.79038 0
M  V30 5505 H 500.096 2.24653 -6.16334 0
M  V30 5506 H 500.013 1.11878 -7.47676 0
M  V30 5507 H 501.281 2.30754 -7.44562 0
M  V30 5508 N 505.51 1.54411 -0.315457 0
M  V30 5509 C 506.759 1.99599 0.290395 0
M  V30 5510 C 507.072 1.20746 1.53882 0
M  V30 5511 O 508.278 1.56272 2.22017 0
M  V30 5512 C 506.734 3.5539 0.56797 0
M  V30 5513 C 506.342 4.43068 -0.662945 0
M  V30 5514 C 508.086 4.09067 1.13422 0
M  V30 5515 C 505.993 5.90317 -0.357722 0
M  V30 5516 H 504.923 0.745592 0.112286 0
M  V30 5517 H 507.574 1.78477 -0.426418 0
M  V30 5518 H 505.956 3.72468 1.34476 0
M  V30 5519 H 507.13 4.37765 -1.43869 0
M  V30 5520 H 505.445 4.00238 -1.14884 0
M  V30 5521 H 508.042 5.16663 1.37707 0
M  V30 5522 H 508.385 3.60552 2.08106 0
M  V30 5523 H 508.918 3.95589 0.418805 0
M  V30 5524 H 505.657 6.4301 -1.27351 0
M  V30 5525 H 505.177 5.98592 0.380472 0
M  V30 5526 H 506.856 6.4699 0.0354284 0
M  V30 5527 N 506.988 0.0434614 1.5754 0
M  V30 5528 C 507.936 -0.951465 2.1225 0
M  V30 5529 C 508.93 -1.3274 1.05245 0
M  V30 5530 O 510.136 -1.30795 1.23663 0
M  V30 5531 H 506.511 -0.324667 0.678303 0
M  V30 5532 H 508.482 -0.464855 2.94757 0
M  V30 5533 C 507.231 -2.21972 2.67626 0
M  V30 5534 H 506.554 -1.93923 3.4962 0
M  V30 5535 H 507.994 -2.89765 3.09536 0
M  V30 5536 C 506.453 -2.95919 1.61038 0
M  V30 5537 O 506.983 -3.8857 1.01862 0
M  V30 5538 N 505.189 -2.58511 1.32741 0
M  V30 5539 H 504.736 -1.83244 1.81051 0
M  V30 5540 H 504.694 -3.08296 0.616531 0
M  V30 5541 N 508.466 -1.55915 -0.229846 0
M  V30 5542 C 509.691 -1.8296 -0.976743 0
M  V30 5543 C 510.116 -0.622735 -1.77493 0
M  V30 5544 O 509.474 0.428431 -1.76165 0
M  V30 5545 C 509.522 -3.07916 -1.8767 0
M  V30 5546 O 508.626 -2.86028 -2.97088 0
M  V30 5547 H 507.967 -0.603453 -0.277021 0
M  V30 5548 H 510.497 -2.0312 -0.245669 0
M  V30 5549 H 510.507 -3.37802 -2.2881 0
M  V30 5550 H 509.182 -3.95389 -1.28996 0
M  V30 5551 H 507.759 -2.67355 -2.59954 0
M  V30 5552 N 509.944 0.496216 -1.49584 0
M  V30 5553 C 511.174 1.27209 -1.62793 0
M  V30 5554 C 511.582 1.86799 -0.300476 0
M  V30 5555 O 510.925 1.68802 0.724674 0
M  V30 5556 C 510.987 2.43812 -2.64189 0
M  V30 5557 C 510.651 2.05055 -4.08414 0
M  V30 5558 C 511.648 1.58752 -4.9507 0
M  V30 5559 C 509.333 2.14543 -4.54177 0
M  V30 5560 C 511.327 1.22448 -6.25528 0
M  V30 5561 C 509.014 1.77851 -5.84647 0
M  V30 5562 C 510.012 1.31878 -6.70147 0
M  V30 5563 O 509.7 0.956834 -7.98185 0
M  V30 5564 H 509.432 0.391848 -0.550846 0
M  V30 5565 H 511.986 0.601712 -1.96389 0
M  V30 5566 H 510.216 3.13941 -2.25783 0
M  V30 5567 H 511.905 3.05829 -2.66877 0
M  V30 5568 H 512.671 1.50863 -4.60939 0
M  V30 5569 H 508.55 2.49277 -3.87791 0
M  V30 5570 H 512.094 0.864933 -6.92217 0
M  V30 5571 H 507.991 1.8539 -6.18305 0
M  V30 5572 H 508.759 1.08789 -8.11238 0
M  V30 5573 N 511.423 1.38739 0.74761 0
M  V30 5574 C 512.672 1.3459 1.50228 0
M  V30 5575 C 512.985 -0.0595592 1.95509 0
M  V30 5576 O 514.191 -0.22361 2.70578 0
M  V30 5577 C 512.647 2.36377 2.71393 0
M  V30 5578 C 512.255 3.82573 2.33113 0
M  V30 5579 C 513.999 2.41281 3.49262 0
M  V30 5580 C 511.906 4.76032 3.50924 0
M  V30 5581 H 510.836 0.500312 0.564096 0
M  V30 5582 H 513.487 1.64324 0.8167 0
M  V30 5583 H 511.869 1.99694 3.41962 0
M  V30 5584 H 513.043 4.28227 1.70171 0
M  V30 5585 H 511.358 3.80844 1.68365 0
M  V30 5586 H 513.955 3.08301 4.36869 0
M  V30 5587 H 514.298 1.43353 3.9084 0
M  V30 5588 H 514.831 2.76793 2.85711 0
M  V30 5589 H 511.57 5.75177 3.14408 0
M  V30 5590 H 511.09 4.35066 4.12889 0
M  V30 5591 H 512.769 4.94331 4.17427 0
M  V30 5592 N 512.901 -0.976442 1.23707 0
M  V30 5593 C 514.312 -1.53284 1.06587 0
M  V30 5594 C 514.663 -1.92765 -0.365526 0
M  V30 5595 O 513.788 -1.7645 -1.25277 0
M  V30 5596 C 514.383 -2.78548 1.92864 0
M  V30 5597 C 512.942 -3.30574 1.79994 0
M  V30 5598 C 512.089 -2.03538 1.88328 0
M  V30 5599 H 515.04 -0.795692 1.37311 0
M  V30 5600 H 515.061 -3.5155 1.45577 0
M  V30 5601 H 514.573 -2.49782 2.97037 0
M  V30 5602 H 512.674 -3.64211 0.786202 0
M  V30 5603 H 512.787 -4.00065 2.636 0
M  V30 5604 H 511.151 -2.17853 1.31954 0
M  V30 5605 H 511.934 -1.77149 2.94063 0
M  V30 5606 N 514.379 -1.04941 -1.1758 0
M  V30 5607 C 515.628 -0.753124 -1.87112 0
M  V30 5608 C 515.941 0.722507 -1.81767 0
M  V30 5609 O 517.147 1.13265 -2.46746 0
M  V30 5610 C 515.603 -1.29695 -3.35719 0
M  V30 5611 C 515.211 -2.80184 -3.49572 0
M  V30 5612 C 516.955 -1.07759 -4.10595 0
M  V30 5613 C 514.862 -3.2788 -4.92187 0
M  V30 5614 H 513.792 -0.278034 -0.700866 0
M  V30 5615 H 516.443 -1.26637 -1.32798 0
M  V30 5616 H 514.825 -0.711522 -3.89555 0
M  V30 5617 H 515.999 -3.44561 -3.05965 0
M  V30 5618 H 514.314 -3.00632 -2.88113 0
M  V30 5619 H 516.911 -1.40899 -5.15802 0
M  V30 5620 H 517.254 -0.0152302 -4.16297 0
M  V30 5621 H 517.787 -1.62809 -3.62957 0
M  V30 5622 H 514.526 -4.33535 -4.91658 0
M  V30 5623 H 514.046 -2.68245 -5.36475 0
M  V30 5624 H 515.725 -3.22412 -5.60945 0
M  V30 5625 N 515.857 1.33968 -0.830081 0
M  V30 5626 C 516.787 2.31911 -0.271911 0
M  V30 5627 C 517.768 1.58571 0.61556 0
M  V30 5628 O 518.953 1.86514 0.540946 0
M  V30 5629 C 516.083 3.42737 0.561146 0
M  V30 5630 C 515.037 4.27383 -0.229789 0
M  V30 5631 C 514.363 5.29742 0.726463 0
M  V30 5632 C 515.663 5.02 -1.44197 0
M  V30 5633 H 517.357 2.78844 -1.09025 0
M  V30 5634 H 514.903 1.34061 -0.52571 0
M  V30 5635 H 516.856 4.10276 0.961867 0
M  V30 5636 H 515.58 2.94471 1.41261 0
M  V30 5637 H 514.239 3.61456 -0.611964 0
M  V30 5638 H 513.887 4.77736 1.57408 0
M  V30 5639 H 513.587 5.87255 0.20142 0
M  V30 5640 H 515.111 6.00149 1.12489 0
M  V30 5641 H 516.525 5.62355 -1.11488 0
M  V30 5642 H 514.922 5.69122 -1.90317 0
M  V30 5643 H 515.992 4.31281 -2.2164 0
M  V30 5644 O 517.374 0.726383 1.44243 0
M  V30 5645 H 518.065 0.275111 1.91736 0
M  V30 END ATOM
M  V30 BEGIN BOND
M  V30 END BOND
M  V30 END CTAB
M  END
$$$$
