drugbank_target|Q8N8R3 Mitochondrial basic amino acids transporter (DB00583)
 OpenBabel12092119243D

  0  0  0     0  0            999 V3000
M  V30 BEGIN CTAB
M  V30 COUNTS 4557 4603 0 0 0
M  V30 BEGIN ATOM
M  V30 1 H -0.908 1.98254 -0.117106 0
M  V30 2 N 0 1.576 0 0
M  V30 3 C 0.933 2.03868 1.02534 0
M  V30 4 C 1.911 0.928543 1.3348 0
M  V30 5 O 3.095 1.19667 1.45644 0
M  V30 6 C 0.222 2.43627 2.35294 0
M  V30 7 C -0.732 3.65373 2.2001 0
M  V30 8 S 0.101 5.13292 1.52614 0
M  V30 9 C 1.257 5.56322 2.86805 0
M  V30 10 H 1.49 2.90518 0.631377 0
M  V30 11 H -0.977 1.52953 0.210867 0
M  V30 12 H 0.981 2.67203 3.11629 0
M  V30 13 H -0.358 1.57376 2.7183 0
M  V30 14 H -1.165 3.90944 3.18086 0
M  V30 15 H -1.563 3.418 1.51819 0
M  V30 16 H 0.729 5.58782 3.83104 0
M  V30 17 H 1.672 6.56266 2.65933 0
M  V30 18 H 2.08 4.83886 2.90714 0
M  V30 19 N 1.4781 -0.272755 1.55222 0
M  V30 20 C 2.4411 -1.32041 1.87344 0
M  V30 21 C 3.4411 -1.42342 0.74803 0
M  V30 22 O 4.6311 -1.41488 1.0162 0
M  V30 23 C 1.7631 -2.70173 2.07893 0
M  V30 24 H 2.9561 -1.04789 2.80997 0
M  V30 25 H 0.5091 -0.51083 1.47717 0
M  V30 26 H 1.2441 -3.02605 1.16622 0
M  V30 27 H 1.0291 -2.64082 2.89833 0
M  V30 28 H 2.5191 -3.45869 2.34017 0
M  V30 29 N 2.9562 -1.48159 -0.537278 0
M  V30 30 C 3.8862 -1.65029 -1.6519 0
M  V30 31 C 4.8672 -0.499281 -1.62607 0
M  V30 32 O 6.0522 -0.730972 -1.79918 0
M  V30 33 C 3.1822 -1.68303 -3.03795 0
M  V30 34 C 2.1362 -2.8283 -3.21234 0
M  V30 35 C 1.4622 -2.71189 -4.60826 0
M  V30 36 C 2.7622 -4.24211 -3.04701 0
M  V30 37 H 4.4562 -2.58341 -1.51328 0
M  V30 38 H 2.0022 -1.24325 -0.726585 0
M  V30 39 H 3.9552 -1.78693 -3.81637 0
M  V30 40 H 2.6792 -0.715635 -3.18663 0
M  V30 41 H 1.3382 -2.71983 -2.45807 0
M  V30 42 H 0.9862 -1.72435 -4.7252 0
M  V30 43 H 0.6862 -3.48035 -4.7344 0
M  V30 44 H 2.2102 -2.83537 -5.40777 0
M  V30 45 H 3.6242 -4.3593 -3.72341 0
M  V30 46 H 2.0212 -5.01998 -3.28813 0
M  V30 47 H 3.0912 -4.41184 -2.01209 0
M  V30 48 N 4.4343 0.785586 -1.36625 0
M  V30 49 C 5.7113 1.53198 -1.21613 0
M  V30 50 C 6.0913 2.10187 0.196113 0
M  V30 51 O 5.4393 1.94318 1.20219 0
M  V30 52 C 5.6493 2.62388 -2.30116 0
M  V30 53 C 6.9973 3.30167 -2.66974 0
M  V30 54 O 8.0213 2.72674 -2.29188 0
M  V30 55 O 6.8803 4.34077 -3.32023 0
M  V30 56 H 3.9743 0.677865 -0.473738 0
M  V30 57 H 6.5203 0.823739 -1.48367 0
M  V30 58 H 5.2923 2.18299 -3.24748 0
M  V30 59 H 4.9153 3.40827 -2.0475 0
M  V30 60 N 5.9124 1.20967 1.01018 0
M  V30 61 C 7.1594 1.02374 1.74716 0
M  V30 62 C 7.4874 -0.443375 1.89379 0
M  V30 63 O 6.7424 -1.34535 1.42123 0
M  V30 64 C 7.0414 1.65997 3.16512 0
M  V30 65 C 6.7074 3.15831 3.2181 0
M  V30 66 C 5.3694 3.56719 3.22963 0
M  V30 67 C 7.7214 4.11816 3.19464 0
M  V30 68 C 5.0494 4.92107 3.19449 0
M  V30 69 C 7.4014 5.47158 3.17491 0
M  V30 70 C 6.0654 5.87451 3.16951 0
M  V30 71 H 5.3354 0.374614 0.639332 0
M  V30 72 H 7.9824 1.50485 1.18434 0
M  V30 73 H 6.2874 1.10166 3.75993 0
M  V30 74 H 7.9844 1.49119 3.72242 0
M  V30 75 H 4.5744 2.83263 3.21652 0
M  V30 76 H 8.7584 3.81257 3.17737 0
M  V30 77 H 4.0144 5.22579 3.17366 0
M  V30 78 H 8.1884 6.21274 3.14629 0
M  V30 79 H 5.8154 6.92329 3.13983 0
M  V30 80 N 7.3905 -1.2043 1.01659 0
M  V30 81 C 8.3205 -2.25466 0.607226 0
M  V30 82 C 9.3015 -1.65853 -0.377716 0
M  V30 83 O 10.4865 -1.92409 -0.263149 0
M  V30 84 C 7.6165 -3.47256 -0.0552949 0
M  V30 85 C 6.5705 -4.19462 0.850632 0
M  V30 86 C 5.8965 -5.34673 0.0538859 0
M  V30 87 C 7.1965 -4.75603 2.15868 0
M  V30 88 H 8.8905 -2.59962 1.48526 0
M  V30 89 H 6.4365 -1.2496 0.715605 0
M  V30 90 H 8.3895 -4.19917 -0.353233 0
M  V30 91 H 7.1135 -3.11924 -0.968045 0
M  V30 92 H 5.7725 -3.48667 1.13257 0
M  V30 93 H 5.4205 -4.95585 -0.860514 0
M  V30 94 H 5.1205 -5.83913 0.657192 0
M  V30 95 H 6.6445 -6.10138 -0.237598 0
M  V30 96 H 8.0585 -5.40083 1.92311 0
M  V30 97 H 6.4555 -5.3528 2.71284 0
M  V30 98 H 7.5255 -3.94346 2.82169 0
M  V30 99 N 8.8686 -0.792821 -1.36206 0
M  V30 100 C 9.8316 -0.199459 -2.2833 0
M  V30 101 C 10.8316 0.605189 -1.48977 0
M  V30 102 O 12.0216 0.425685 -1.68919 0
M  V30 103 C 9.1536 0.723523 -3.33134 0
M  V30 104 H 10.3466 -1.01181 -2.82316 0
M  V30 105 H 7.8996 -0.562485 -1.45828 0
M  V30 106 H 8.6346 1.56008 -2.84309 0
M  V30 107 H 8.4196 0.148436 -3.91819 0
M  V30 108 H 9.9096 1.13344 -4.01924 0
M  V30 109 N 10.3467 1.47872 -0.545128 0
M  V30 110 C 11.5947 2.02093 -0.016553 0
M  V30 111 C 11.9157 1.42305 1.3332 0
M  V30 112 O 11.1857 0.593853 1.86682 0
M  V30 113 H 9.7657 0.746993 -0.00313038 0
M  V30 114 H 12.4277 1.81414 -0.712397 0
M  V30 115 H 11.5237 3.11996 0.0805422 0
M  V30 116 N 11.8248 0.280983 1.55075 0
M  V30 117 C 13.0648 -0.335234 2.01632 0
M  V30 118 C 13.4288 -1.5261 1.16508 0
M  V30 119 O 14.6298 -2.21235 1.52672 0
M  V30 120 C 12.9008 -0.702172 3.50434 0
M  V30 121 S 14.4598 -1.30409 4.18974 0
M  V30 122 H 11.2778 -0.103967 0.703358 0
M  V30 123 H 13.8798 0.404187 1.91276 0
M  V30 124 H 12.5838 0.17333 4.10034 0
M  V30 125 H 12.1148 -1.4729 3.64786 0
M  V30 126 H 14.1298 -2.59253 4.23087 0
M  V30 127 N 13.3029 -1.57598 0.00835791 0
M  V30 128 C 14.2659 -2.07884 -0.965242 0
M  V30 129 C 15.2659 -0.989825 -1.26725 0
M  V30 130 O 16.4559 -1.25218 -1.21104 0
M  V30 131 C 13.5879 -2.52731 -2.28779 0
M  V30 132 H 14.7809 -2.95178 -0.530112 0
M  V30 133 H 12.3339 -1.54458 -0.239283 0
M  V30 134 H 13.0689 -1.68705 -2.76964 0
M  V30 135 H 12.8539 -3.32272 -2.08177 0
M  V30 136 H 14.3439 -2.91933 -2.98605 0
M  V30 137 N 14.781 0.264519 -1.55364 0
M  V30 138 C 16.029 0.993021 -1.76021 0
M  V30 139 C 16.35 1.86511 -0.569099 0
M  V30 140 O 15.62 1.91438 0.415735 0
M  V30 141 H 14.2 0.369639 -0.649135 0
M  V30 142 H 16.862 0.286707 -1.9278 0
M  V30 143 H 15.958 1.62502 -2.66457 0
M  V30 144 N 16.2591 1.48442 0.529413 0
M  V30 145 C 17.5071 1.56179 1.28267 0
M  V30 146 C 17.8281 0.237721 1.93546 0
M  V30 147 O 17.0981 -0.740779 1.81354 0
M  V30 148 H 15.6781 0.575367 0.476405 0
M  V30 149 H 18.3401 1.84909 0.61602 0
M  V30 150 H 17.4361 2.34312 2.06165 0
M  V30 151 N 17.7372 -0.778329 1.37039 0
M  V30 152 C 18.9832 -1.53892 1.32079 0
M  V30 153 C 19.3162 -1.9396 -0.0965386 0
M  V30 154 O 18.5912 -1.63568 -1.05242 0
M  V30 155 C 18.8742 -2.80847 2.25382 0
M  V30 156 C 18.7272 -2.47076 3.75864 0
M  V30 157 C 20.0462 -3.82741 2.1725 0
M  V30 158 H 17.1652 -0.558303 0.48111 0
M  V30 159 H 19.8072 -0.893397 1.67685 0
M  V30 160 H 17.9572 -3.35931 1.95148 0
M  V30 161 H 19.6292 -1.97957 4.16666 0
M  V30 162 H 17.8722 -1.79863 3.94755 0
M  V30 163 H 18.5432 -3.37798 4.36574 0
M  V30 164 H 21.0192 -3.37133 2.43887 0
M  V30 165 H 19.8952 -4.69303 2.84686 0
M  V30 166 H 20.1562 -4.2652 1.16331 0
M  V30 167 N 19.2153 -1.21501 -1.00376 0
M  V30 168 C 20.1783 -0.976927 -2.07337 0
M  V30 169 C 21.1783 0.0525322 -1.60714 0
M  V30 170 O 22.3683 -0.184869 -1.73216 0
M  V30 171 C 19.5003 -0.473423 -3.37597 0
M  V30 172 H 20.6933 -1.92587 -2.29892 0
M  V30 173 H 18.2463 -1.03217 -1.17371 0
M  V30 174 H 18.9813 0.480379 -3.20722 0
M  V30 175 H 18.7663 -1.216 -3.72768 0
M  V30 176 H 20.2563 -0.32675 -4.1632 0
M  V30 177 N 20.6934 1.19889 -1.02296 0
M  V30 178 C 21.9414 1.89046 -0.714558 0
M  V30 179 C 22.2624 1.79636 0.758681 0
M  V30 180 O 21.5324 1.20292 1.54618 0
M  V30 181 H 20.1124 0.699802 -0.261317 0
M  V30 182 H 22.7744 1.45574 -1.29592 0
M  V30 183 H 21.8704 2.95524 -1.0036 0
M  V30 184 N 22.1715 0.800033 1.35784 0
M  V30 185 C 23.4175 0.377901 1.99248 0
M  V30 186 C 23.7505 -1.05052 1.63333 0
M  V30 187 O 23.0255 -1.72768 0.893385 0
M  V30 188 C 23.3085 0.553922 3.55814 0
M  V30 189 C 23.1615 2.0268 4.01548 0
M  V30 190 C 24.4805 -0.0244802 4.40093 0
M  V30 191 H 21.5995 0.138782 0.723815 0
M  V30 192 H 24.2415 1.00835 1.61035 0
M  V30 193 H 22.3915 0.0172398 3.88496 0
M  V30 194 H 24.0635 2.62536 3.79305 0
M  V30 195 H 22.3065 2.5256 3.52698 0
M  V30 196 H 22.9775 2.10087 5.10458 0
M  V30 197 H 25.4535 0.433775 4.13833 0
M  V30 198 H 24.3295 0.128637 5.48749 0
M  V30 199 H 24.5905 -1.11758 4.27741 0
M  V30 200 N 23.6496 -1.47581 0.552962 0
M  V30 201 C 24.5796 -2.32762 -0.185451 0
M  V30 202 C 25.5606 -1.43527 -0.912905 0
M  V30 203 O 26.7456 -1.72388 -0.894201 0
M  V30 204 C 23.8756 -3.25219 -1.21859 0
M  V30 205 C 22.8296 -4.23661 -0.607864 0
M  V30 206 C 22.1556 -5.05413 -1.74533 0
M  V30 207 C 23.4556 -5.20481 0.435582 0
M  V30 208 H 25.1496 -2.94749 0.525684 0
M  V30 209 H 22.6956 -1.41738 0.254251 0
M  V30 210 H 24.6486 -3.8365 -1.7433 0
M  V30 211 H 23.3726 -2.61279 -1.95961 0
M  V30 212 H 22.0316 -3.66451 -0.104489 0
M  V30 213 H 21.6796 -4.3788 -2.47529 0
M  V30 214 H 21.3796 -5.72059 -1.34249 0
M  V30 215 H 22.9036 -5.66701 -2.27338 0
M  V30 216 H 24.3176 -5.733 -0.00290157 0
M  V30 217 H 22.7146 -5.95305 0.757067 0
M  V30 218 H 23.7846 -4.66217 1.33303 0
M  V30 219 N 25.1277 -0.289203 -1.54924 0
M  V30 220 C 26.3737 0.323998 -2.00195 0
M  V30 221 C 26.7067 1.54441 -1.17735 0
M  V30 222 O 25.9817 1.92875 -0.250878 0
M  V30 223 C 26.2647 0.692276 -3.53383 0
M  V30 224 C 26.1177 -0.536457 -4.46589 0
M  V30 225 C 27.4367 1.52335 -4.12895 0
M  V30 226 H 24.5557 0.116289 -0.727768 0
M  V30 227 H 27.1977 -0.398954 -1.85764 0
M  V30 228 H 25.3477 1.30822 -3.65811 0
M  V30 229 H 27.0197 -1.17499 -4.46085 0
M  V30 230 H 25.2627 -1.17192 -4.1767 0
M  V30 231 H 25.9337 -0.234806 -5.515 0
M  V30 232 H 28.4097 1.00302 -4.0383 0
M  V30 233 H 27.2857 1.74982 -5.20262 0
M  V30 234 H 27.5467 2.50886 -3.64018 0
M  V30 235 N 26.6058 1.57591 -0.0167156 0
M  V30 236 C 27.8538 1.90906 0.663285 0
M  V30 237 C 28.1748 0.892509 1.73376 0
M  V30 238 O 27.4448 -0.0677623 1.95783 0
M  V30 239 H 26.0248 0.704637 0.247983 0
M  V30 240 H 28.6868 1.94803 -0.0615909 0
M  V30 241 H 27.7828 2.9116 1.12393 0
M  V30 242 N 28.0839 -0.256276 1.55502 0
M  V30 243 C 29.0339 -1.31981 1.85916 0
M  V30 244 C 30.0179 -1.43927 0.719296 0
M  V30 245 O 31.2099 -1.47326 0.981019 0
M  V30 246 C 28.3389 -2.67703 2.14918 0
M  V30 247 C 27.4249 -2.59801 3.35208 0
M  V30 248 N 27.8159 -2.21524 4.54709 0
M  V30 249 C 26.1139 -2.90832 3.38131 0
M  V30 250 C 26.8149 -2.24024 5.36832 0
M  V30 251 N 25.7909 -2.63158 4.75656 0
M  V30 252 H 29.5929 -1.01423 2.75845 0
M  V30 253 H 27.1069 -0.464911 1.55603 0
M  V30 254 H 29.1039 -3.44445 2.34869 0
M  V30 255 H 27.7639 -2.99137 1.26282 0
M  V30 256 H 28.7749 -1.93223 4.80505 0
M  V30 257 H 25.4519 -3.26867 2.59739 0
M  V30 258 H 26.8419 -1.9685 6.42417 0
M  V30 259 N 29.562 -1.4872 -0.521534 0
M  V30 260 C 30.973 -1.50607 -1.10337 0
M  V30 261 C 31.324 -0.280612 -1.94183 0
M  V30 262 O 30.449 0.611507 -2.0758 0
M  V30 263 C 31.044 -2.72903 -2.00772 0
M  V30 264 C 29.603 -2.77634 -2.54158 0
M  V30 265 C 28.75 -2.44241 -1.31307 0
M  V30 266 H 31.701 -1.55714 -0.306388 0
M  V30 267 H 31.722 -2.519 -2.85178 0
M  V30 268 H 31.234 -3.62077 -1.39721 0
M  V30 269 H 29.335 -1.92689 -3.18907 0
M  V30 270 H 29.448 -3.79283 -2.92714 0
M  V30 271 H 27.812 -1.95577 -1.63161 0
M  V30 272 H 28.595 -3.35666 -0.719943 0
M  V30 273 N 31.0401 0.771051 -1.3745 0
M  V30 274 C 32.2871 1.52963 -1.32697 0
M  V30 275 C 32.6151 1.94299 0.0883274 0
M  V30 276 O 31.8701 1.64397 1.0617 0
M  V30 277 C 32.1691 2.80676 -2.2126 0
M  V30 278 C 31.8351 2.58389 -3.69521 0
M  V30 279 C 30.4971 2.52019 -4.09927 0
M  V30 280 C 32.8491 2.38469 -4.63446 0
M  V30 281 C 30.1771 2.23721 -5.42371 0
M  V30 282 C 32.5291 2.11694 -5.96128 0
M  V30 283 C 31.1931 2.03769 -6.35637 0
M  V30 284 H 30.4631 0.559732 -0.485573 0
M  V30 285 H 33.1101 0.888083 -1.69662 0
M  V30 286 H 31.4151 3.49392 -1.77291 0
M  V30 287 H 33.1121 3.38557 -2.14895 0
M  V30 288 H 29.7021 2.6421 -3.37478 0
M  V30 289 H 33.8861 2.4238 -4.33089 0
M  V30 290 H 29.1421 2.16081 -5.71943 0
M  V30 291 H 33.3161 1.9528 -6.6846 0
M  V30 292 H 30.9431 1.81606 -7.38189 0
M  V30 293 N 32.5182 1.22032 0.997298 0
M  V30 294 C 33.7952 0.950823 1.70935 0
M  V30 295 C 34.1752 -0.535292 2.042 0
M  V30 296 O 33.5232 -1.50217 1.72183 0
M  V30 297 C 33.7332 1.84386 2.96315 0
M  V30 298 C 35.0812 2.09732 3.69185 0
M  V30 299 O 36.1052 1.81798 3.06314 0
M  V30 300 O 34.9642 2.57018 4.82291 0
M  V30 301 H 32.0582 0.357204 0.745878 0
M  V30 302 H 34.6042 1.32997 1.05404 0
M  V30 303 H 33.3762 2.84928 2.68201 0
M  V30 304 H 32.9992 1.46602 3.69586 0
M  V30 305 N 33.9963 -1.19345 1.0293 0
M  V30 306 C 35.2243 -1.92997 0.745644 0
M  V30 307 C 35.6393 -1.75519 -0.695589 0
M  V30 308 O 34.9963 -1.07737 -1.47306 0
M  V30 309 C 35.0473 -3.44741 1.08792 0
M  V30 310 O 34.7683 -3.61658 2.47256 0
M  V30 311 C 36.2693 -4.35515 0.827129 0
M  V30 312 H 33.4893 -0.613042 0.272801 0
M  V30 313 H 36.0333 -1.51473 1.3739 0
M  V30 314 H 34.1883 -3.84097 0.504832 0
M  V30 315 H 34.6023 -4.55514 2.60015 0
M  V30 316 H 36.0763 -5.40589 1.11658 0
M  V30 317 H 36.5533 -4.38552 -0.238436 0
M  V30 318 H 37.1593 -4.01841 1.39297 0
M  V30 319 N 35.4744 -0.807222 -1.35358 0
M  V30 320 C 36.7204 -0.388463 -1.99045 0
M  V30 321 C 37.0534 1.04184 -1.63888 0
M  V30 322 O 36.3284 1.72292 -0.902535 0
M  V30 323 C 36.6114 -0.572783 -3.55515 0
M  V30 324 C 36.4644 -2.04807 -4.00468 0
M  V30 325 C 37.7834 0.00114064 -4.401 0
M  V30 326 H 34.9024 -0.142619 -0.723069 0
M  V30 327 H 37.5444 -1.01687 -1.60498 0
M  V30 328 H 35.6944 -0.0378425 -3.88482 0
M  V30 329 H 37.3664 -2.64544 -3.77908 0
M  V30 330 H 35.6094 -2.54427 -3.51353 0
M  V30 331 H 36.2804 -2.12792 -5.09337 0
M  V30 332 H 38.7564 -0.455716 -4.13597 0
M  V30 333 H 37.6324 -0.157737 -5.48673 0
M  V30 334 H 37.8934 1.09488 -4.28328 0
M  V30 335 N 36.9525 1.47285 -0.560781 0
M  V30 336 C 37.8995 2.30058 0.18491 0
M  V30 337 C 38.8695 1.39281 0.904986 0
M  V30 338 O 40.0545 1.68241 0.899979 0
M  V30 339 C 37.1945 3.23317 1.20666 0
M  V30 340 C 36.3075 4.29186 0.492285 0
M  V30 341 C 35.4425 5.09592 1.49964 0
M  V30 342 C 34.4815 6.07232 0.770439 0
M  V30 343 N 33.6185 6.80584 1.72479 0
M  V30 344 H 38.4585 2.93302 -0.527048 0
M  V30 345 H 35.9955 1.44568 -0.271738 0
M  V30 346 H 37.9535 3.75811 1.81168 0
M  V30 347 H 36.5835 2.61929 1.88661 0
M  V30 348 H 35.6355 3.7972 -0.227333 0
M  V30 349 H 36.9475 4.98738 -0.0787929 0
M  V30 350 H 36.1015 5.66254 2.17809 0
M  V30 351 H 34.8405 4.3995 2.10464 0
M  V30 352 H 33.8455 5.49745 0.0780846 0
M  V30 353 H 35.0705 6.78884 0.171134 0
M  V30 354 H 33.0165 6.1367 2.3183 0
M  V30 355 H 32.9335 7.46319 1.20596 0
M  V30 356 H 34.2015 7.41818 2.39428 0
M  V30 357 N 38.4306 0.297415 1.54768 0
M  V30 358 C 39.6766 -0.313376 2.00364 0
M  V30 359 C 40.0096 -1.53815 1.18553 0
M  V30 360 O 39.2846 -1.92739 0.261103 0
M  V30 361 C 39.5676 -0.673525 3.53745 0
M  V30 362 C 39.4206 0.560133 4.46299 0
M  V30 363 C 40.7396 -1.50143 4.13697 0
M  V30 364 H 37.8586 -0.112428 0.728374 0
M  V30 365 H 40.5006 0.4088 1.8555 0
M  V30 366 H 38.6506 -1.28881 3.665 0
M  V30 367 H 40.3226 1.19863 4.45455 0
M  V30 368 H 38.5656 1.19405 4.17043 0
M  V30 369 H 39.2366 0.26405 5.51368 0
M  V30 370 H 41.7126 -0.981588 4.04356 0
M  V30 371 H 40.5886 -1.72221 5.21182 0
M  V30 372 H 40.8496 -2.48952 3.65343 0
M  V30 373 N 39.9087 -1.5758 0.0250728 0
M  V30 374 C 41.3247 -1.56124 -0.331282 0
M  V30 375 C 41.5247 -1.03029 -1.73169 0
M  V30 376 O 40.5807 -0.675215 -2.43305 0
M  V30 377 C 41.8937 -3.00139 -0.183584 0
M  V30 378 C 43.4417 -3.11946 -0.256654 0
M  V30 379 C 43.9167 -4.57793 -0.137792 0
M  V30 380 N 45.4077 -4.6279 -0.194904 0
M  V30 381 C 46.1427 -5.7326 -0.126655 0
M  V30 382 N 45.6387 -6.928 -0.00755288 0
M  V30 383 N 47.4317 -5.61811 -0.180348 0
M  V30 384 H 39.5827 -1.90424 0.94087 0
M  V30 385 H 41.8457 -0.875761 0.362968 0
M  V30 386 H 41.5517 -3.4292 0.780927 0
M  V30 387 H 41.4257 -3.64899 -0.955448 0
M  V30 388 H 43.8127 -2.69079 -1.21162 0
M  V30 389 H 43.8937 -2.49915 0.545517 0
M  V30 390 H 43.5377 -5.01339 0.813739 0
M  V30 391 H 43.4677 -5.17798 -0.958775 0
M  V30 392 H 45.9587 -3.76807 -0.287267 0
M  V30 393 H 46.2717 -7.72791 0.0379428 0
M  V30 394 H 44.6167 -6.94995 0.0271731 0
M  V30 395 H 47.8077 -4.6731 -0.271767 0
M  V30 396 H 47.9807 -6.47882 -0.123697 0
M  V30 397 N 41.3868 0.248026 -1.55636 0
M  V30 398 C 42.3168 1.31079 -1.93237 0
M  V30 399 C 43.2978 1.50264 -0.797174 0
M  V30 400 O 44.4828 1.62891 -1.05737 0
M  V30 401 C 41.6128 2.66575 -2.22609 0
M  V30 402 C 40.5668 2.62087 -3.3837 0
M  V30 403 C 39.8928 4.01369 -3.53281 0
M  V30 404 C 41.1928 2.19171 -4.7409 0
M  V30 405 H 42.8868 0.998556 -2.82257 0
M  V30 406 H 40.4328 0.47891 -1.35803 0
M  V30 407 H 42.3858 3.41057 -2.47503 0
M  V30 408 H 41.1098 2.99432 -1.30414 0
M  V30 409 H 39.7688 1.90063 -3.13483 0
M  V30 410 H 39.4168 4.31489 -2.58508 0
M  V30 411 H 39.1168 3.99254 -4.31127 0
M  V30 412 H 40.6408 4.77552 -3.80495 0
M  V30 413 H 42.0548 2.83384 -4.98363 0
M  V30 414 H 40.4518 2.2817 -5.5503 0
M  V30 415 H 41.5218 1.14336 -4.71227 0
M  V30 416 N 42.8649 1.48995 0.513639 0
M  V30 417 C 43.7969 1.60836 1.63293 0
M  V30 418 C 44.8099 0.491701 1.55197 0
M  V30 419 O 45.9989 0.763238 1.6136 0
M  V30 420 C 43.0989 1.53731 3.02027 0
M  V30 421 C 42.2719 2.80715 3.35437 0
M  V30 422 C 41.3309 2.66837 4.53525 0
M  V30 423 O 40.3569 3.40753 4.55934 0
M  V30 424 N 41.5589 1.77539 5.52684 0
M  V30 425 H 44.3239 2.57366 1.53566 0
M  V30 426 H 41.8849 1.45925 0.701259 0
M  V30 427 H 43.8769 1.42118 3.78926 0
M  V30 428 H 42.4469 0.651092 3.05744 0
M  V30 429 H 41.6669 3.06772 2.47557 0
M  V30 430 H 42.9549 3.64927 3.54551 0
M  V30 431 H 42.3529 1.16719 5.53528 0
M  V30 432 H 40.9099 1.71856 6.28736 0
M  V30 433 N 44.343 -0.763751 1.37857 0
M  V30 434 C 45.589 -1.52483 1.33704 0
M  V30 435 C 45.922 -1.94051 -0.0759612 0
M  V30 436 O 45.197 -1.64675 -1.03501 0
M  V30 437 C 45.48 -2.78441 2.28348 0
M  V30 438 C 45.333 -2.43075 3.78463 0
M  V30 439 C 46.652 -3.80415 2.21298 0
M  V30 440 H 43.771 -0.553169 0.487005 0
M  V30 441 H 46.413 -0.875562 1.68624 0
M  V30 442 H 44.563 -3.33842 1.987 0
M  V30 443 H 46.235 -1.93527 4.18742 0
M  V30 444 H 44.478 -1.75666 3.96641 0
M  V30 445 H 45.149 -3.33149 4.40132 0
M  V30 446 H 47.625 -3.34527 2.47449 0
M  V30 447 H 46.501 -4.66257 2.89647 0
M  V30 448 H 46.762 -4.25262 1.20849 0
M  V30 449 N 45.8211 -1.22559 -0.990812 0
M  V30 450 C 46.7531 -0.955325 -2.08342 0
M  V30 451 C 47.7661 0.0668408 -1.62663 0
M  V30 452 O 48.9551 -0.167421 -1.77713 0
M  V30 453 C 46.0551 -0.415566 -3.36342 0
M  V30 454 C 45.2281 -1.49544 -4.11042 0
M  V30 455 C 44.2871 -0.962399 -5.17324 0
M  V30 456 O 43.3131 -1.64907 -5.44788 0
M  V30 457 N 44.5151 0.215134 -5.80101 0
M  V30 458 H 47.2801 -1.89596 -2.32106 0
M  V30 459 H 44.8411 -1.13276 -1.15673 0
M  V30 460 H 46.8331 -0.0442386 -4.04676 0
M  V30 461 H 45.4031 0.430232 -3.09625 0
M  V30 462 H 44.6231 -2.04 -3.37309 0
M  V30 463 H 45.9111 -2.22195 -4.57719 0
M  V30 464 H 45.3091 0.789779 -5.6016 0
M  V30 465 H 43.8661 0.527826 -6.49659 0
M  V30 466 N 47.2992 1.18797 -1.03562 0
M  V30 467 C 48.5242 1.9314 -0.755764 0
M  V30 468 C 48.9492 1.7537 0.68022 0
M  V30 469 O 48.3072 1.06046 1.47051 0
M  V30 470 C 48.3552 3.42747 -1.12058 0
M  V30 471 O 47.4592 4.11683 -0.243124 0
M  V30 472 H 46.8002 0.602724 -0.278604 0
M  V30 473 H 49.3302 1.50678 -1.3841 0
M  V30 474 H 49.3402 3.93437 -1.08035 0
M  V30 475 H 48.0152 3.55002 -2.16672 0
M  V30 476 H 46.5922 3.71323 -0.342539 0
M  V30 477 N 48.7773 0.814389 1.34928 0
M  V30 478 C 50.0233 0.399013 1.98836 0
M  V30 479 C 50.3563 -1.03314 1.64438 0
M  V30 480 O 49.6313 -1.71811 0.911659 0
M  V30 481 C 49.9143 0.591629 3.55207 0
M  V30 482 C 49.7673 2.06928 3.99376 0
M  V30 483 C 51.0863 0.022199 4.40094 0
M  V30 484 H 48.2053 0.146451 0.722303 0
M  V30 485 H 50.8473 1.02537 1.59957 0
M  V30 486 H 48.9973 0.0584441 3.88456 0
M  V30 487 H 50.6693 2.66544 3.76499 0
M  V30 488 H 48.9123 2.56287 3.49999 0
M  V30 489 H 49.5833 2.1549 5.08201 0
M  V30 490 H 52.0593 0.477643 4.13349 0
M  V30 491 H 50.9353 0.186832 5.48582 0
M  V30 492 H 51.1963 -1.07215 4.28902 0
M  V30 493 N 50.2554 -1.46986 0.568584 0
M  V30 494 C 51.1654 -2.33942 -0.17555 0
M  V30 495 C 52.1814 -1.48891 -0.90041 0
M  V30 496 O 53.3574 -1.81794 -0.86676 0
M  V30 497 C 50.4224 -3.25811 -1.18524 0
M  V30 498 C 49.4834 -4.26757 -0.466582 0
M  V30 499 C 48.7164 -5.14236 -1.42817 0
M  V30 500 O 48.9394 -5.04379 -2.66379 0
M  V30 501 O 47.8734 -5.94412 -0.946453 0
M  V30 502 H 51.6994 -2.98896 0.538036 0
M  V30 503 H 49.2844 -1.4573 0.329097 0
M  V30 504 H 51.1664 -3.82527 -1.76779 0
M  V30 505 H 49.8414 -2.63471 -1.88055 0
M  V30 506 H 48.7484 -3.73769 0.157451 0
M  V30 507 H 50.0814 -4.91843 0.187485 0
M  V30 508 N 51.7335 -0.305618 -1.54608 0
M  V30 509 C 52.6805 0.568421 -2.23691 0
M  V30 510 C 53.6505 1.12592 -1.22116 0
M  V30 511 O 54.8355 1.16959 -1.50749 0
M  V30 512 C 51.9755 1.7322 -2.98477 0
M  V30 513 C 51.0885 1.20566 -4.14835 0
M  V30 514 C 50.2235 2.33368 -4.77193 0
M  V30 515 C 49.2625 1.7787 -5.85686 0
M  V30 516 N 48.3995 2.84263 -6.4198 0
M  V30 517 H 53.2395 -0.0272867 -2.97988 0
M  V30 518 H 50.7765 -0.0252363 -1.47078 0
M  V30 519 H 52.7345 2.41675 -3.40072 0
M  V30 520 H 51.3645 2.29947 -2.26548 0
M  V30 521 H 50.4165 0.413223 -3.78149 0
M  V30 522 H 51.7285 0.759417 -4.92985 0
M  V30 523 H 50.8825 3.09761 -5.21664 0
M  V30 524 H 49.6215 2.8132 -3.98385 0
M  V30 525 H 48.6265 0.99968 -5.40635 0
M  V30 526 H 49.8515 1.30816 -6.66381 0
M  V30 527 H 47.7975 3.31541 -5.66053 0
M  V30 528 H 47.7145 2.44149 -7.15491 0
M  V30 529 H 48.9825 3.6054 -6.91109 0
M  V30 530 N 53.2116 1.57565 -0.0334293 0
M  V30 531 C 54.6226 1.79746 0.504798 0
M  V30 532 C 54.9736 0.944091 1.71992 0
M  V30 533 O 54.0986 0.155694 2.15839 0
M  V30 534 C 54.6936 3.25997 0.922567 0
M  V30 535 C 53.2526 3.49159 1.40588 0
M  V30 536 C 52.3996 2.74785 0.372633 0
M  V30 537 H 55.3506 1.56565 -0.259436 0
M  V30 538 H 55.3716 3.35945 1.78666 0
M  V30 539 H 54.8836 3.88081 0.0379825 0
M  V30 540 H 52.9846 2.92332 2.31025 0
M  V30 541 H 53.0976 4.57873 1.41028 0
M  V30 542 H 51.4616 2.40391 0.841672 0
M  V30 543 H 52.2446 3.39587 -0.503559 0
M  V30 544 N 54.6897 -0.239769 1.55765 0
M  V30 545 C 55.6217 -1.32001 1.87372 0
M  V30 546 C 56.6347 -1.43944 0.760522 0
M  V30 547 O 57.8237 -1.45167 1.0387 0
M  V30 548 C 54.9237 -2.69779 2.05115 0
M  V30 549 C 54.0967 -2.80014 3.36022 0
M  V30 550 C 53.1557 -3.98684 3.4342 0
M  V30 551 O 52.1817 -3.87877 4.16582 0
M  V30 552 N 53.3837 -5.12176 2.73232 0
M  V30 553 H 56.1487 -1.0522 2.80622 0
M  V30 554 H 53.7097 -0.429857 1.56089 0
M  V30 555 H 55.7017 -3.47517 2.07399 0
M  V30 556 H 54.2717 -2.89237 1.18577 0
M  V30 557 H 53.4917 -1.88896 3.45994 0
M  V30 558 H 54.7797 -2.83808 4.22292 0
M  V30 559 H 54.1777 -5.2385 2.13536 0
M  V30 560 H 52.7347 -5.88022 2.81199 0
M  V30 561 N 56.1678 -1.49265 -0.50573 0
M  V30 562 C 57.3978 -1.61979 -1.28243 0
M  V30 563 C 57.8058 -0.288576 -1.86986 0
M  V30 564 O 57.1488 0.735408 -1.68337 0
M  V30 565 C 57.2108 -2.62632 -2.45489 0
M  V30 566 C 56.8748 -4.071 -2.07651 0
M  V30 567 C 57.8718 -4.94049 -1.61901 0
M  V30 568 C 55.5568 -4.52801 -2.17431 0
M  V30 569 C 57.5508 -6.24736 -1.26428 0
M  V30 570 C 55.2378 -5.83503 -1.8157 0
M  V30 571 C 56.2358 -6.69294 -1.36142 0
M  V30 572 O 55.9238 -7.9756 -1.00764 0
M  V30 573 H 55.6558 -0.54834 -0.395347 0
M  V30 574 H 58.2098 -1.96002 -0.614204 0
M  V30 575 H 56.4398 -2.2378 -3.15372 0
M  V30 576 H 58.1288 -2.64925 -3.07522 0
M  V30 577 H 58.8948 -4.5997 -1.53795 0
M  V30 578 H 54.7738 -3.86196 -2.51742 0
M  V30 579 H 58.3178 -6.91652 -0.908992 0
M  V30 580 H 54.2148 -6.17112 -1.89324 0
M  V30 581 H 54.9828 -8.10529 -1.13952 0
M  V30 582 N 57.6459 0.756429 -1.3826 0
M  V30 583 C 59.0619 1.0591 -1.19395 0
M  V30 584 C 59.2619 2.01459 -0.0406567 0
M  V30 585 O 58.3179 2.44909 0.614467 0
M  V30 586 C 59.6309 1.64191 -2.51916 0
M  V30 587 C 61.1789 1.76376 -2.58574 0
M  V30 588 C 61.6539 2.38069 -3.91264 0
M  V30 589 N 63.1449 2.45503 -3.92788 0
M  V30 590 C 63.8799 2.94126 -4.92217 0
M  V30 591 N 63.3759 3.42805 -6.02043 0
M  V30 592 N 65.1689 2.9314 -4.7961 0
M  V30 593 H 57.3199 0.122313 -2.12048 0
M  V30 594 H 59.5829 0.116892 -0.940766 0
M  V30 595 H 59.2889 1.01451 -3.3675 0
M  V30 596 H 59.1629 2.6329 -2.70108 0
M  V30 597 H 61.5499 2.38244 -1.74137 0
M  V30 598 H 61.6309 0.759894 -2.44252 0
M  V30 599 H 61.2749 1.76835 -4.76121 0
M  V30 600 H 61.2049 3.39091 -4.02895 0
M  V30 601 H 63.6959 2.1107 -3.13461 0
M  V30 602 H 64.0089 3.78354 -6.73846 0
M  V30 603 H 62.3539 3.4087 -6.05667 0
M  V30 604 H 65.5449 2.54419 -3.92923 0
M  V30 605 H 65.7179 3.30721 -5.5725 0
M  V30 606 N 59.124 1.23083 0.984299 0
M  V30 607 C 60.372 1.05848 1.72165 0
M  V30 608 C 60.693 -0.406049 1.90726 0
M  V30 609 O 59.963 -1.29139 1.47309 0
M  V30 610 H 58.543 0.388685 0.637913 0
M  V30 611 H 61.205 1.54736 1.18503 0
M  V30 612 H 60.301 1.54327 2.71274 0
M  V30 613 N 60.6021 -1.18246 1.0419 0
M  V30 614 C 61.8301 -1.92195 0.766072 0
M  V30 615 C 62.2451 -1.76247 -0.676933 0
M  V30 616 O 61.6021 -1.09293 -1.46155 0
M  V30 617 C 61.6531 -3.43568 1.12442 0
M  V30 618 O 61.3741 -3.59015 2.51078 0
M  V30 619 C 62.8751 -4.34613 0.873275 0
M  V30 620 H 60.0951 -0.610114 0.279288 0
M  V30 621 H 62.6391 -1.50007 1.38989 0
M  V30 622 H 60.7941 -3.8354 0.545542 0
M  V30 623 H 61.2081 -4.5273 2.64831 0
M  V30 624 H 62.6821 -5.39374 1.17385 0
M  V30 625 H 63.1591 -4.38781 -0.191909 0
M  V30 626 H 63.7651 -4.00341 1.43551 0
M  V30 627 N 62.0802 -0.821533 -1.34494 0
M  V30 628 C 63.0102 -0.257138 -2.3208 0
M  V30 629 C 63.9912 0.625645 -1.58176 0
M  V30 630 O 65.1762 0.552811 -1.86166 0
M  V30 631 C 62.3062 0.582958 -3.42372 0
M  V30 632 C 61.2602 -0.202571 -4.2752 0
M  V30 633 C 60.5862 0.760179 -5.29269 0
M  V30 634 C 61.8862 -1.40998 -5.02908 0
M  V30 635 H 63.5802 -1.07247 -2.79532 0
M  V30 636 H 61.1262 -0.517163 -1.34393 0
M  V30 637 H 63.0792 0.987972 -4.09655 0
M  V30 638 H 61.8032 1.43133 -2.93565 0
M  V30 639 H 60.4622 -0.588936 -3.61838 0
M  V30 640 H 60.1102 1.60447 -4.76724 0
M  V30 641 H 59.8102 0.238809 -5.87115 0
M  V30 642 H 61.3342 1.16308 -5.9942 0
M  V30 643 H 62.7482 -1.07905 -5.63054 0
M  V30 644 H 61.1452 -1.86689 -5.70322 0
M  V30 645 H 62.2152 -2.1889 -4.32684 0
M  V30 646 N 63.5583 1.46682 -0.576371 0
M  V30 647 C 64.5083 2.27278 0.181288 0
M  V30 648 C 65.4923 1.35497 0.867721 0
M  V30 649 O 66.6843 1.59717 0.762863 0
M  V30 650 C 63.8133 3.21703 1.19841 0
M  V30 651 C 62.8993 4.20969 0.51442 0
M  V30 652 N 63.2903 5.03999 -0.426407 0
M  V30 653 C 61.5883 4.39373 0.765963 0
M  V30 654 C 62.2893 5.75812 -0.825565 0
M  V30 655 N 61.2653 5.43315 -0.176116 0
M  V30 656 H 65.0673 2.88863 -0.541785 0
M  V30 657 H 62.5813 1.57455 -0.397697 0
M  V30 658 H 64.5783 3.78145 1.75533 0
M  V30 659 H 63.2383 2.61677 1.92238 0
M  V30 660 H 64.2493 5.11659 -0.8016 0
M  V30 661 H 60.9263 3.90502 1.47698 0
M  V30 662 H 62.3163 6.52577 -1.59976 0
M  V30 663 N 65.0364 0.313813 1.54444 0
M  V30 664 C 66.2764 -0.292389 2.02298 0
M  V30 665 C 66.6404 -1.50105 1.19719 0
M  V30 666 O 67.8414 -2.17947 1.5733 0
M  V30 667 C 66.1124 -0.627682 3.51845 0
M  V30 668 S 67.6714 -1.21493 4.21646 0
M  V30 669 H 64.4894 -0.0890247 0.705405 0
M  V30 670 H 67.0914 0.444668 1.90376 0
M  V30 671 H 65.7954 0.260265 4.09574 0
M  V30 672 H 65.3264 -1.39519 3.67829 0
M  V30 673 H 67.3414 -2.5022 4.28491 0
M  V30 674 N 66.5145 -1.57545 0.0417849 0
M  V30 675 C 67.7615 -1.92317 -0.634082 0
M  V30 676 C 68.0895 -0.919334 -1.71402 0
M  V30 677 O 67.3445 0.0698253 -1.95575 0
M  V30 678 C 67.6435 -3.33794 -1.27735 0
M  V30 679 C 67.3095 -4.49716 -0.326543 0
M  V30 680 C 65.9715 -4.81156 -0.0648814 0
M  V30 681 C 68.3235 -5.20182 0.325623 0
M  V30 682 C 65.6515 -5.80414 0.856539 0
M  V30 683 C 68.0035 -6.20424 1.23518 0
M  V30 684 C 66.6675 -6.50298 1.5056 0
M  V30 685 H 65.9375 -0.703736 -0.232027 0
M  V30 686 H 68.5845 -1.91205 0.106259 0
M  V30 687 H 66.8895 -3.31228 -2.09274 0
M  V30 688 H 68.5865 -3.57975 -1.80707 0
M  V30 689 H 65.1765 -4.25176 -0.540665 0
M  V30 690 H 69.3605 -4.96112 0.136546 0
M  V30 691 H 64.6165 -6.019 1.07363 0
M  V30 692 H 68.7905 -6.74141 1.74664 0
M  V30 693 H 66.4175 -7.27025 2.22123 0
M  V30 694 N 67.9926 0.231505 -1.5589 0
M  V30 695 C 68.9396 1.28682 -1.91598 0
M  V30 696 C 69.9096 1.47071 -0.771974 0
M  V30 697 O 71.0946 1.60802 -1.027 0
M  V30 698 C 68.2346 2.6342 -2.22944 0
M  V30 699 C 67.3476 2.52912 -3.50228 0
M  V30 700 C 66.4826 3.80106 -3.7107 0
M  V30 701 C 65.5216 3.64279 -4.91902 0
M  V30 702 N 64.6586 4.834 -5.09184 0
M  V30 703 H 69.4986 0.975305 -2.81588 0
M  V30 704 H 67.0356 0.470299 -1.39379 0
M  V30 705 H 68.9936 3.41869 -2.39126 0
M  V30 706 H 67.6236 2.92687 -1.36139 0
M  V30 707 H 66.6756 1.6595 -3.42294 0
M  V30 708 H 67.9876 2.37133 -4.38827 0
M  V30 709 H 67.1416 4.66999 -3.87295 0
M  V30 710 H 65.8806 3.98799 -2.80733 0
M  V30 711 H 64.8856 2.7577 -4.75637 0
M  V30 712 H 66.1106 3.47067 -5.83714 0
M  V30 713 H 64.0566 5.02425 -4.21788 0
M  V30 714 H 63.9736 4.70311 -5.91898 0
M  V30 715 H 65.2416 5.71747 -5.29835 0
M  V30 716 N 69.4707 1.49531 0.497807 0
M  V30 717 C 70.6957 1.63159 1.28039 0
M  V30 718 C 71.1207 0.30418 1.85624 0
M  V30 719 O 70.4787 -0.728618 1.66015 0
M  V30 720 C 70.5267 2.70537 2.38416 0
M  V30 721 O 69.6307 2.29931 3.42353 0
M  V30 722 H 68.9717 0.546001 0.377861 0
M  V30 723 H 71.5017 1.9574 0.59558 0
M  V30 724 H 71.5117 2.92802 2.84132 0
M  V30 725 H 70.1867 3.6689 1.95869 0
M  V30 726 H 68.7637 2.18009 3.02533 0
M  V30 727 N 70.9488 -0.749086 1.3866 0
M  V30 728 C 72.1978 -1.50371 1.3443 0
M  V30 729 C 72.5108 -1.95503 -0.0616397 0
M  V30 730 O 73.7168 -2.70554 -0.226489 0
M  V30 731 C 72.1728 -2.71644 2.36088 0
M  V30 732 C 71.7808 -2.3352 3.82325 0
M  V30 733 C 73.5248 -3.49518 2.40909 0
M  V30 734 C 71.4318 -3.51431 4.75658 0
M  V30 735 H 70.3618 -0.564628 0.499712 0
M  V30 736 H 73.0128 -0.818449 1.64237 0
M  V30 737 H 71.3948 -3.42175 1.9933 0
M  V30 738 H 72.5688 -1.70627 4.28046 0
M  V30 739 H 70.8838 -1.6877 3.80665 0
M  V30 740 H 73.4808 -4.37197 3.07836 0
M  V30 741 H 73.8238 -3.90992 1.42937 0
M  V30 742 H 74.3568 -2.86005 2.76489 0
M  V30 743 H 71.0958 -3.15019 5.74842 0
M  V30 744 H 70.6158 -4.13352 4.34627 0
M  V30 745 H 72.2948 -4.17953 4.93887 0
M  V30 746 N 72.4269 -1.23603 -0.977757 0
M  V30 747 C 73.6759 -1.06377 -1.71368 0
M  V30 748 C 73.9889 0.399062 -1.91486 0
M  V30 749 O 75.1949 0.691312 -2.62551 0
M  V30 750 C 73.6509 -1.85512 -3.08404 0
M  V30 751 C 73.2589 -3.36141 -2.96164 0
M  V30 752 C 75.0029 -1.76783 -3.85938 0
M  V30 753 C 72.9099 -4.07659 -4.28449 0
M  V30 754 H 71.8399 -0.394452 -0.642591 0
M  V30 755 H 74.4909 -1.47594 -1.09034 0
M  V30 756 H 72.8729 -1.37103 -3.71509 0
M  V30 757 H 74.0469 -3.92056 -2.42133 0
M  V30 758 H 72.3619 -3.45712 -2.32104 0
M  V30 759 H 74.9589 -2.27526 -4.83876 0
M  V30 760 H 75.3019 -0.731116 -4.0983 0
M  V30 761 H 75.8349 -2.22818 -3.2954 0
M  V30 762 H 72.5739 -5.11648 -4.09752 0
M  V30 763 H 72.0939 -3.5653 -4.82334 0
M  V30 764 H 73.7729 -4.141 -4.97122 0
M  V30 765 N 73.905 1.17692 -1.04816 0
M  V30 766 C 74.852 2.21581 -0.645797 0
M  V30 767 C 75.822 1.62367 0.350159 0
M  V30 768 O 77.007 1.89254 0.242433 0
M  V30 769 C 74.147 3.45092 -0.0227568 0
M  V30 770 C 73.26 4.18613 -1.06709 0
M  V30 771 C 72.395 5.29602 -0.411767 0
M  V30 772 C 71.434 5.94904 -1.44067 0
M  V30 773 N 70.571 6.97414 -0.809781 0
M  V30 774 H 75.411 2.55353 -1.5362 0
M  V30 775 H 72.948 1.25438 -0.768364 0
M  V30 776 H 74.906 4.15679 0.35588 0
M  V30 777 H 73.536 3.11917 0.831122 0
M  V30 778 H 72.588 3.46779 -1.5636 0
M  V30 779 H 73.9 4.63293 -1.84827 0
M  V30 780 H 73.054 6.06696 0.0206623 0
M  V30 781 H 71.793 4.86045 0.401438 0
M  V30 782 H 70.798 5.16544 -1.88316 0
M  V30 783 H 72.023 6.40542 -2.25571 0
M  V30 784 H 69.969 6.55998 -0.0170186 0
M  V30 785 H 69.886 7.40386 -1.52856 0
M  V30 786 H 71.154 7.78463 -0.401999 0
M  V30 787 N 75.3831 0.828654 1.34056 0
M  V30 788 C 76.3151 0.212052 2.28217 0
M  V30 789 C 77.3281 -0.601362 1.51286 0
M  V30 790 O 78.5171 -0.430104 1.73241 0
M  V30 791 C 75.6171 -0.72088 3.31144 0
M  V30 792 C 74.7901 0.0509587 4.3737 0
M  V30 793 C 73.8491 -0.803766 5.20025 0
M  V30 794 O 72.8751 -0.246667 5.68665 0
M  V30 795 N 74.0771 -2.1227 5.40298 0
M  V30 796 H 76.8421 1.02105 2.81771 0
M  V30 797 H 74.4031 0.686153 1.46641 0
M  V30 798 H 76.3951 -1.29742 3.8334 0
M  V30 799 H 74.9651 -1.43061 2.77943 0
M  V30 800 H 74.1851 0.808831 3.85813 0
M  V30 801 H 75.4731 0.582065 5.0546 0
M  V30 802 H 74.8711 -2.59898 5.02464 0
M  V30 803 H 73.4281 -2.64796 5.95589 0
M  V30 804 N 76.8612 -1.46375 0.584142 0
M  V30 805 C 77.7712 -2.34115 -0.150728 0
M  V30 806 C 78.7872 -1.49838 -0.884567 0
M  V30 807 O 79.9632 -1.82704 -0.847429 0
M  V30 808 C 77.0282 -3.2705 -1.15062 0
M  V30 809 C 76.0892 -4.27228 -0.421293 0
M  V30 810 C 75.3222 -5.15722 -1.37355 0
M  V30 811 O 75.5452 -5.07176 -2.61014 0
M  V30 812 O 74.4792 -5.95383 -0.883355 0
M  V30 813 H 78.3052 -2.98309 0.569708 0
M  V30 814 H 75.8902 -1.45373 0.344535 0
M  V30 815 H 77.7722 -3.84381 -1.72712 0
M  V30 816 H 76.4472 -2.65451 -1.8525 0
M  V30 817 H 75.3542 -3.7358 0.197085 0
M  V30 818 H 76.6872 -4.91616 0.239641 0
M  V30 819 N 78.3393 -0.321999 -1.54275 0
M  V30 820 C 79.5643 0.285791 -2.05422 0
M  V30 821 C 79.9893 1.45124 -1.19669 0
M  V30 822 O 79.3473 1.80132 -0.205441 0
M  V30 823 C 79.3953 0.69956 -3.53749 0
M  V30 824 O 78.4993 1.8021 -3.70942 0
M  V30 825 H 77.8403 0.0518962 -0.661969 0
M  V30 826 H 80.3703 -0.469954 -1.9913 0
M  V30 827 H 80.3803 0.982649 -3.9599 0
M  V30 828 H 79.0553 -0.152864 -4.15619 0
M  V30 829 H 77.6323 1.51794 -3.40607 0
M  V30 830 N 79.8174 1.5752 -0.0501392 0
M  V30 831 C 81.0634 1.92936 0.624798 0
M  V30 832 C 81.3964 0.928685 1.70555 0
M  V30 833 O 80.6714 -0.0454779 1.94447 0
M  V30 834 C 80.9544 3.38737 1.22185 0
M  V30 835 C 80.8074 4.49552 0.149218 0
M  V30 836 C 82.1264 3.84913 2.13378 0
M  V30 837 H 79.2454 0.701604 0.225657 0
M  V30 838 H 81.8874 1.89671 -0.111693 0
M  V30 839 H 80.0374 3.4165 1.84953 0
M  V30 840 H 81.7094 4.58768 -0.482648 0
M  V30 841 H 79.9524 4.30638 -0.522841 0
M  V30 842 H 80.6234 5.48653 0.606966 0
M  V30 843 H 83.0994 3.8387 1.60572 0
M  V30 844 H 81.9754 4.87584 2.52097 0
M  V30 845 H 82.2364 3.21611 3.03346 0
M  V30 846 N 81.2955 -0.223234 1.56011 0
M  V30 847 C 82.2255 -1.27988 1.95298 0
M  V30 848 C 83.2065 -1.48976 0.820979 0
M  V30 849 O 84.3915 -1.61188 1.08315 0
M  V30 850 C 81.5215 -2.63 2.26822 0
M  V30 851 C 80.4755 -2.56671 3.42497 0
M  V30 852 C 79.8015 -3.95697 3.59622 0
M  V30 853 C 81.1015 -2.11601 4.77517 0
M  V30 854 H 82.7955 -0.953525 2.8381 0
M  V30 855 H 80.3415 -0.457244 1.36548 0
M  V30 856 H 82.2945 -3.37077 2.52898 0
M  V30 857 H 81.0185 -2.9732 1.35161 0
M  V30 858 H 79.6775 -1.85051 3.16467 0
M  V30 859 H 79.3255 -4.27322 2.6534 0
M  V30 860 H 79.0255 -3.92345 4.37424 0
M  V30 861 H 80.5495 -4.71438 3.88044 0
M  V30 862 H 81.9635 -2.7542 5.02809 0
M  V30 863 H 80.3605 -2.19311 5.5859 0
M  V30 864 H 81.4305 -1.06824 4.72987 0
M  V30 865 N 82.7736 -1.49793 -0.48987 0
M  V30 866 C 84.0216 -1.59525 -1.24081 0
M  V30 867 C 84.3426 -0.288953 -1.92847 0
M  V30 868 O 83.6126 0.692436 -1.83254 0
M  V30 869 H 82.1926 -0.587796 -0.460983 0
M  V30 870 H 84.8546 -1.86477 -0.566778 0
M  V30 871 H 83.9506 -2.39696 -1.99881 0
M  V30 872 N 84.2517 0.741722 -1.39055 0
M  V30 873 C 85.1817 1.869 -1.39966 0
M  V30 874 C 86.1627 1.6804 -0.26392 0
M  V30 875 O 87.3477 1.88458 -0.468755 0
M  V30 876 C 84.4777 3.24572 -1.23574 0
M  V30 877 C 83.4317 3.58056 -2.34477 0
M  V30 878 C 82.7577 4.94593 -2.0318 0
M  V30 879 C 84.0577 3.61716 -3.76774 0
M  V30 880 H 85.7517 1.86395 -2.34302 0
M  V30 881 H 83.2977 0.895361 -1.1278 0
M  V30 882 H 85.2507 4.031 -1.22834 0
M  V30 883 H 83.9747 3.25587 -0.257045 0
M  V30 884 H 82.6337 2.81854 -2.34423 0
M  V30 885 H 82.2817 4.92181 -1.03765 0
M  V30 886 H 81.9817 5.17964 -2.77465 0
M  V30 887 H 83.5057 5.75486 -2.04079 0
M  V30 888 H 84.9197 4.30335 -3.78794 0
M  V30 889 H 83.3167 3.96603 -4.50362 0
M  V30 890 H 84.3867 2.61672 -4.08235 0
M  V30 891 N 85.7298 1.2412 0.971189 0
M  V30 892 C 86.9598 1.10415 1.7462 0
M  V30 893 C 87.3678 -0.346462 1.86001 0
M  V30 894 O 86.7108 -1.25104 1.34517 0
M  V30 895 C 86.7728 1.66596 3.18568 0
M  V30 896 C 86.4368 3.15446 3.3067 0
M  V30 897 C 87.4338 4.12636 3.16271 0
M  V30 898 C 85.1188 3.55337 3.55022 0
M  V30 899 C 87.1128 5.47699 3.26044 0
M  V30 900 C 84.7998 4.90542 3.64434 0
M  V30 901 C 85.7978 5.86532 3.49956 0
M  V30 902 O 85.4858 7.19279 3.59017 0
M  V30 903 H 85.2178 0.386616 0.55453 0
M  V30 904 H 87.7718 1.64633 1.22821 0
M  V30 905 H 86.0018 1.06808 3.71657 0
M  V30 906 H 87.6908 1.48232 3.77865 0
M  V30 907 H 88.4568 3.8316 2.97344 0
M  V30 908 H 84.3358 2.8113 3.65359 0
M  V30 909 H 87.8798 6.22603 3.14661 0
M  V30 910 H 83.7768 5.19691 3.82873 0
M  V30 911 H 84.5448 7.27153 3.75754 0
M  V30 912 N 87.2079 -1.17134 1.05439 0
M  V30 913 C 88.1549 -2.21235 0.657539 0
M  V30 914 C 89.1249 -1.62551 -0.341543 0
M  V30 915 O 90.3099 -1.89379 -0.232393 0
M  V30 916 C 87.4499 -3.45076 0.0410575 0
M  V30 917 C 86.5629 -4.18042 1.08927 0
M  V30 918 C 85.6979 -5.29376 0.439848 0
M  V30 919 C 84.7369 -5.94132 1.4722 0
M  V30 920 N 83.8739 -6.96975 0.846756 0
M  V30 921 H 88.7139 -2.54534 1.54972 0
M  V30 922 H 86.2509 -1.25028 0.775006 0
M  V30 923 H 88.2089 -4.15862 -0.33383 0
M  V30 924 H 86.8389 -3.12353 -0.814568 0
M  V30 925 H 85.8909 -3.45945 1.58196 0
M  V30 926 H 87.2029 -4.62306 1.87282 0
M  V30 927 H 86.3569 -6.06699 0.0115125 0
M  V30 928 H 85.0959 -4.86251 -0.375656 0
M  V30 929 H 84.1009 -5.15538 1.91052 0
M  V30 930 H 85.3259 -6.39337 2.28965 0
M  V30 931 H 83.2719 -6.5598 0.0518075 0
M  V30 932 H 83.1889 -7.39565 1.5678 0
M  V30 933 H 84.4569 -7.78239 0.443277 0
M  V30 934 N 88.686 -0.835752 -1.33615 0
M  V30 935 C 89.934 -0.429109 -1.97492 0
M  V30 936 C 90.255 1.01433 -1.66543 0
M  V30 937 O 89.525 1.70611 -0.962744 0
M  V30 938 H 88.105 -0.155686 -0.730596 0
M  V30 939 H 90.767 -1.06802 -1.63031 0
M  V30 940 H 89.863 -0.55861 -3.0706 0
M  V30 941 N 90.1641 1.46063 -0.591896 0
M  V30 942 C 91.0941 2.33172 0.123673 0
M  V30 943 C 92.0751 1.45897 0.87453 0
M  V30 944 O 93.2601 1.74698 0.848181 0
M  V30 945 C 90.3901 3.28336 1.13194 0
M  V30 946 C 89.3441 4.25124 0.495324 0
M  V30 947 C 88.6701 5.09863 1.61071 0
M  V30 948 C 89.9701 5.19143 -0.573425 0
M  V30 949 H 91.6641 2.93252 -0.603646 0
M  V30 950 H 89.2101 1.41014 -0.291741 0
M  V30 951 H 91.1631 3.88137 1.64097 0
M  V30 952 H 89.8871 2.66383 1.88965 0
M  V30 953 H 88.5461 3.66599 0.00729452 0
M  V30 954 H 88.1941 4.44288 2.35832 0
M  V30 955 H 87.8941 5.75417 1.19035 0
M  V30 956 H 89.4181 5.72529 2.12233 0
M  V30 957 H 90.8321 5.73106 -0.1491 0
M  V30 958 H 89.2291 5.93089 -0.914636 0
M  V30 959 H 90.2991 4.62519 -1.45617 0
M  V30 960 N 91.6422 0.330177 1.54103 0
M  V30 961 C 92.8902 -0.269871 2.0029 0
M  V30 962 C 93.2112 -1.52133 1.21986 0
M  V30 963 O 92.4812 -1.93212 0.323438 0
M  V30 964 H 91.0612 -0.10271 0.739905 0
M  V30 965 H 93.7232 0.448249 1.89675 0
M  V30 966 H 92.8192 -0.52166 3.07709 0
M  V30 967 N 93.1203 -1.57491 0.0584922 0
M  V30 968 C 94.3453 -1.97711 -0.62652 0
M  V30 969 C 94.7703 -0.936132 -1.63151 0
M  V30 970 O 94.1283 0.099811 -1.81025 0
M  V30 971 C 94.1763 -3.36989 -1.28338 0
M  V30 972 O 93.2803 -3.35433 -2.39913 0
M  V30 973 H 92.6213 -0.643868 -0.162266 0
M  V30 974 H 95.1513 -2.04193 0.129064 0
M  V30 975 H 95.1613 -3.73879 -1.63335 0
M  V30 976 H 93.8363 -4.12289 -0.546889 0
M  V30 977 H 92.4133 -3.10298 -2.06809 0
M  V30 978 N 94.5984 0.214957 -1.56127 0
M  V30 979 C 96.0094 0.781386 -1.69562 0
M  V30 980 C 96.3604 1.84707 -0.66165 0
M  V30 981 O 95.4854 2.156 0.185927 0
M  V30 982 C 96.0804 1.42411 -3.07416 0
M  V30 983 C 94.6394 1.93786 -3.22683 0
M  V30 984 C 93.7864 0.800438 -2.65496 0
M  V30 985 H 96.7374 -0.00980633 -1.58697 0
M  V30 986 H 96.7584 2.29309 -3.0364 0
M  V30 987 H 96.2704 0.64826 -3.82648 0
M  V30 988 H 94.3714 2.74152 -2.52332 0
M  V30 989 H 94.4844 2.1133 -4.29973 0
M  V30 990 H 92.8484 1.2095 -2.2415 0
M  V30 991 H 93.6314 0.0371471 -3.4328 0
M  V30 992 N 96.0765 1.50051 0.48192 0
M  V30 993 C 97.0065 1.71046 1.58951 0
M  V30 994 C 97.9875 0.559288 1.60642 0
M  V30 995 O 99.1725 0.797243 1.77081 0
M  V30 996 C 96.3025 1.79462 2.97339 0
M  V30 997 C 95.2565 2.94558 3.10515 0
M  V30 998 C 94.5825 2.88105 4.50444 0
M  V30 999 C 95.8825 4.35227 2.88747 0
M  V30 1000 H 97.5765 2.6378 1.41635 0
M  V30 1001 H 95.1225 1.26936 0.679942 0
M  V30 1002 H 97.0755 1.92734 3.74742 0
M  V30 1003 H 95.7995 0.833412 3.15788 0
M  V30 1004 H 94.4585 2.80918 2.35543 0
M  V30 1005 H 94.1065 1.89853 4.65795 0
M  V30 1006 H 93.8065 3.65366 4.60197 0
M  V30 1007 H 95.3305 3.03412 5.29881 0
M  V30 1008 H 96.7445 4.49449 3.55905 0
M  V30 1009 H 95.1415 5.13856 3.09955 0
M  V30 1010 H 96.2115 4.48347 1.84696 0
M  V30 1011 N 97.5546 -0.734337 1.39446 0
M  V30 1012 C 98.4876 -1.85715 1.32609 0
M  V30 1013 C 99.4656 -1.6137 0.199636 0
M  V30 1014 O 100.65 -1.84626 0.380195 0
M  V30 1015 C 97.7766 -3.21709 1.05929 0
M  V30 1016 C 96.8226 -3.64913 2.20773 0
M  V30 1017 S 97.6556 -3.74203 3.83056 0
M  V30 1018 C 98.8116 -5.12986 3.58603 0
M  V30 1019 H 99.0446 -1.91232 2.27635 0
M  V30 1020 H 96.5776 -0.899263 1.25509 0
M  V30 1021 H 98.5356 -4.00236 0.912203 0
M  V30 1022 H 97.1966 -3.13848 0.125883 0
M  V30 1023 H 96.3896 -4.63606 1.97699 0
M  V30 1024 H 95.9916 -2.93593 2.31688 0
M  V30 1025 H 98.2836 -5.99339 3.15909 0
M  V30 1026 H 99.2266 -5.41088 4.5676 0
M  V30 1027 H 99.6346 -4.82694 2.9269 0
M  V30 1028 N 99.0327 -1.24633 -0.964593 0
M  V30 1029 C 100.281 -1.08573 -1.70459 0
M  V30 1030 C 100.602 0.375655 -1.91347 0
M  V30 1031 O 99.8717 1.26779 -1.49345 0
M  V30 1032 H 98.4517 -0.398784 -0.631649 0
M  V30 1033 H 101.114 -1.56601 -1.16026 0
M  V30 1034 H 100.21 -1.58623 -2.68785 0
M  V30 1035 N 100.511 1.16574 -1.06058 0
M  V30 1036 C 101.441 2.23057 -0.690488 0
M  V30 1037 C 102.422 1.67141 0.315901 0
M  V30 1038 O 103.607 1.93253 0.191556 0
M  V30 1039 C 100.737 3.47222 -0.073625 0
M  V30 1040 C 99.6908 4.16016 -1.00573 0
M  V30 1041 C 99.0168 5.34104 -0.252289 0
M  V30 1042 C 100.317 4.67264 -2.33371 0
M  V30 1043 H 102.011 2.54271 -1.58072 0
M  V30 1044 H 99.5568 1.22218 -0.76149 0
M  V30 1045 H 101.51 4.20939 0.19714 0
M  V30 1046 H 100.234 3.15302 0.85161 0
M  V30 1047 H 98.8928 3.44223 -1.2612 0
M  V30 1048 H 98.5408 4.98437 0.675988 0
M  V30 1049 H 98.2408 5.81072 -0.873455 0
M  V30 1050 H 99.7648 6.10599 0.0109857 0
M  V30 1051 H 101.179 5.32573 -2.12223 0
M  V30 1052 H 99.5758 5.24843 -2.90963 0
M  V30 1053 H 100.646 3.83602 -2.96611 0
M  V30 1054 N 101.989 0.842826 1.3317 0
M  V30 1055 C 103.217 0.454055 2.01856 0
M  V30 1056 C 103.632 -0.94587 1.63397 0
M  V30 1057 O 102.989 -1.61534 0.849302 0
M  V30 1058 C 103.04 0.569715 3.56982 0
M  V30 1059 O 102.761 1.91448 3.94055 0
M  V30 1060 C 104.262 0.178412 4.42941 0
M  V30 1061 H 101.482 0.17979 0.646465 0
M  V30 1062 H 104.026 1.1365 1.70012 0
M  V30 1063 H 102.181 -0.0648587 3.87346 0
M  V30 1064 H 102.595 1.90282 4.88767 0
M  V30 1065 H 104.069 0.310376 5.51127 0
M  V30 1066 H 104.546 -0.880056 4.30293 0
M  V30 1067 H 105.152 0.787579 4.17944 0
M  V30 1068 N 103.467 -1.45747 0.599634 0
M  V30 1069 C 104.714 -2.02292 0.0917284 0
M  V30 1070 C 105.042 -1.46906 -1.27472 0
M  V30 1071 O 104.297 -0.630652 -1.8526 0
M  V30 1072 C 104.596 -3.57399 -0.00602758 0
M  V30 1073 C 104.262 -4.31902 1.29503 0
M  V30 1074 C 102.924 -4.51974 1.65144 0
M  V30 1075 C 105.276 -4.74551 2.15525 0
M  V30 1076 C 102.604 -5.11949 2.86574 0
M  V30 1077 C 104.956 -5.35868 3.36196 0
M  V30 1078 C 103.62 -5.54165 3.72099 0
M  V30 1079 H 102.89 -0.740239 0.0335658 0
M  V30 1080 H 105.537 -1.7491 0.779661 0
M  V30 1081 H 103.842 -3.84014 -0.777183 0
M  V30 1082 H 105.539 -3.98846 -0.415038 0
M  V30 1083 H 102.129 -4.16588 1.00761 0
M  V30 1084 H 106.313 -4.58784 1.8929 0
M  V30 1085 H 101.569 -5.24305 3.14507 0
M  V30 1086 H 105.743 -5.6787 4.03109 0
M  V30 1087 H 103.37 -6.00406 4.6628 0
M  V30 1088 N 104.945 -0.338344 -1.53925 0
M  V30 1089 C 106.194 0.260732 -2.00008 0
M  V30 1090 C 106.507 1.52073 -1.23017 0
M  V30 1091 O 107.713 2.19672 -1.5955 0
M  V30 1092 C 106.169 0.51515 -3.56194 0
M  V30 1093 C 105.777 -0.728645 -4.42035 0
M  V30 1094 C 107.521 1.07337 -4.10706 0
M  V30 1095 C 105.428 -0.445315 -5.89721 0
M  V30 1096 H 104.358 0.101205 -0.747177 0
M  V30 1097 H 107.009 -0.452866 -1.77824 0
M  V30 1098 H 105.391 1.28932 -3.74423 0
M  V30 1099 H 106.565 -1.50352 -4.35581 0
M  V30 1100 H 104.88 -1.20813 -3.98489 0
M  V30 1101 H 107.477 1.30022 -5.18651 0
M  V30 1102 H 107.82 2.0273 -3.63602 0
M  V30 1103 H 108.353 0.360034 -3.96167 0
M  V30 1104 H 105.092 -1.36883 -6.41049 0
M  V30 1105 H 104.612 0.291569 -5.99091 0
M  V30 1106 H 106.291 -0.0606218 -6.46972 0
M  V30 1107 N 106.423 1.57458 -0.0668435 0
M  V30 1108 C 107.371 2.13639 0.919851 0
M  V30 1109 C 108.365 1.07204 1.31163 0
M  V30 1110 O 109.571 1.25591 1.28945 0
M  V30 1111 H 105.946 0.683048 0.314562 0
M  V30 1112 H 107.917 2.95415 0.421047 0
M  V30 1113 C 106.666 2.70892 2.17975 0
M  V30 1114 H 105.989 3.5246 1.88711 0
M  V30 1115 H 107.429 3.13803 2.85138 0
M  V30 1116 C 105.888 1.65414 2.93496 0
M  V30 1117 O 106.418 1.07619 3.87015 0
M  V30 1118 N 104.624 1.36564 2.56512 0
M  V30 1119 H 104.171 1.83751 1.80536 0
M  V30 1120 H 104.129 0.66223 3.07347 0
M  V30 1121 N 107.901 -0.206675 1.56239 0
M  V30 1122 C 108.864 -1.23976 1.92776 0
M  V30 1123 C 109.864 -1.39041 0.807729 0
M  V30 1124 O 111.054 -1.37051 1.0753 0
M  V30 1125 C 108.186 -2.61112 2.19165 0
M  V30 1126 H 109.379 -0.927764 2.85189 0
M  V30 1127 H 106.932 -0.447718 1.4975 0
M  V30 1128 H 107.667 -2.97386 1.29352 0
M  V30 1129 H 107.452 -2.51552 3.00772 0
M  V30 1130 H 108.942 -3.35633 2.48476 0
M  V30 1131 N 109.379 -1.50304 -0.473955 0
M  V30 1132 C 110.309 -1.71886 -1.58042 0
M  V30 1133 C 111.29 -0.567799 -1.60344 0
M  V30 1134 O 112.475 -0.806623 -1.76656 0
M  V30 1135 C 109.605 -1.81036 -2.96384 0
M  V30 1136 C 108.559 -2.962 -3.08949 0
M  V30 1137 C 107.885 -2.9049 -4.48909 0
M  V30 1138 C 109.185 -4.36752 -2.86434 0
M  V30 1139 H 110.879 -2.64527 -1.40234 0
M  V30 1140 H 108.425 -1.27295 -0.673201 0
M  V30 1141 H 110.378 -1.94719 -3.73714 0
M  V30 1142 H 109.102 -0.850147 -3.15341 0
M  V30 1143 H 107.761 -2.82164 -2.3405 0
M  V30 1144 H 107.409 -1.92321 -4.64781 0
M  V30 1145 H 107.109 -3.67802 -4.58253 0
M  V30 1146 H 108.633 -3.06218 -5.28264 0
M  V30 1147 H 110.047 -4.5133 -3.53517 0
M  V30 1148 H 108.444 -5.15493 -3.07225 0
M  V30 1149 H 109.514 -4.49321 -1.82316 0
M  V30 1150 N 110.857 0.726932 -1.39834 0
M  V30 1151 C 112.103 1.48884 -1.377 0
M  V30 1152 C 112.436 1.94185 0.0244852 0
M  V30 1153 O 111.711 1.67361 0.990986 0
M  V30 1154 C 111.994 2.72288 -2.3565 0
M  V30 1155 C 111.847 2.32956 -3.84775 0
M  V30 1156 C 113.166 3.74414 -2.31306 0
M  V30 1157 H 110.285 0.540062 -0.5015 0
M  V30 1158 H 112.927 0.830547 -1.70886 0
M  V30 1159 H 111.077 3.28457 -2.07481 0
M  V30 1160 H 112.749 1.82356 -4.23726 0
M  V30 1161 H 110.992 1.65088 -4.01159 0
M  V30 1162 H 111.663 3.21362 -4.4881 0
M  V30 1163 H 114.139 3.27849 -2.56231 0
M  V30 1164 H 113.015 4.58414 -3.01907 0
M  V30 1165 H 113.276 4.21909 -1.32081 0
M  V30 1166 N 112.336 1.25143 0.95797 0
M  V30 1167 C 113.583 1.09692 1.70217 0
M  V30 1168 C 113.911 -0.362654 1.91089 0
M  V30 1169 O 113.166 -1.28386 1.47701 0
M  V30 1170 C 113.465 1.79272 3.09187 0
M  V30 1171 C 113.131 3.29196 3.08125 0
M  V30 1172 C 111.793 3.70096 3.07543 0
M  V30 1173 C 114.145 4.24995 3.0171 0
M  V30 1174 C 111.473 5.05213 2.9829 0
M  V30 1175 C 113.825 5.60132 2.93999 0
M  V30 1176 C 112.489 6.00365 2.9175 0
M  V30 1177 H 111.759 0.401393 0.622868 0
M  V30 1178 H 114.406 1.55372 1.11945 0
M  V30 1179 H 112.711 1.26014 3.70982 0
M  V30 1180 H 114.408 1.64773 3.65583 0
M  V30 1181 H 110.998 2.96651 3.09348 0
M  V30 1182 H 115.182 3.9439 3.01281 0
M  V30 1183 H 110.438 5.35569 2.94916 0
M  V30 1184 H 114.612 6.3406 2.87996 0
M  V30 1185 H 112.239 7.05023 2.84336 0
M  V30 1186 N 113.814 -1.1601 1.06675 0
M  V30 1187 C 115.062 -1.86264 0.784229 0
M  V30 1188 C 115.383 -1.82328 -0.691488 0
M  V30 1189 O 114.653 -1.25947 -1.50047 0
M  V30 1190 H 113.233 -0.689621 0.28711 0
M  V30 1191 H 115.895 -1.40664 1.34906 0
M  V30 1192 H 114.991 -2.91595 1.11259 0
M  V30 1193 N 115.292 -0.849877 -1.32721 0
M  V30 1194 C 116.538 -0.451591 -1.97708 0
M  V30 1195 C 116.871 0.989175 -1.6712 0
M  V30 1196 O 116.146 1.69334 -0.956891 0
M  V30 1197 C 116.429 -0.685598 -3.53513 0
M  V30 1198 C 116.282 -2.17444 -3.93749 0
M  V30 1199 C 117.601 -0.138874 -4.39881 0
M  V30 1200 H 114.72 -0.16555 -0.718166 0
M  V30 1201 H 117.362 -1.06742 -1.57182 0
M  V30 1202 H 115.512 -0.161416 -3.88165 0
M  V30 1203 H 117.184 -2.76433 -3.693 0
M  V30 1204 H 115.427 -2.65476 -3.43081 0
M  V30 1205 H 116.098 -2.28888 -5.02309 0
M  V30 1206 H 118.574 -0.587068 -4.11938 0
M  V30 1207 H 117.45 -0.332213 -5.47894 0
M  V30 1208 H 117.711 0.95806 -4.31594 0
M  V30 1209 N 116.77 1.45427 -0.607355 0
M  V30 1210 C 117.702 2.2871 0.149752 0
M  V30 1211 C 118.715 1.39937 0.831958 0
M  V30 1212 O 119.904 1.64313 0.697385 0
M  V30 1213 C 117.004 3.15673 1.23304 0
M  V30 1214 C 116.177 4.32722 0.637996 0
M  V30 1215 C 115.236 5.00895 1.61215 0
M  V30 1216 O 114.262 5.57697 1.13854 0
M  V30 1217 N 115.464 5.00159 2.94655 0
M  V30 1218 H 118.229 2.94328 -0.564882 0
M  V30 1219 H 115.79 1.55612 -0.446823 0
M  V30 1220 H 117.782 3.58144 1.88454 0
M  V30 1221 H 116.352 2.51965 1.8502 0
M  V30 1222 H 115.572 3.93734 -0.191572 0
M  V30 1223 H 116.86 5.08321 0.220665 0
M  V30 1224 H 116.258 4.553 3.35735 0
M  V30 1225 H 114.815 5.46495 3.55228 0
M  V30 1226 N 118.248 0.346503 1.53744 0
M  V30 1227 C 119.496 -0.248612 2.00565 0
M  V30 1228 C 119.817 -1.5083 1.23593 0
M  V30 1229 O 119.087 -1.92858 0.343912 0
M  V30 1230 H 117.667 -0.0948564 0.740953 0
M  V30 1231 H 120.329 0.468341 1.89189 0
M  V30 1232 H 119.425 -0.488994 3.08245 0
M  V30 1233 N 119.726 -1.57421 0.075193 0
M  V30 1234 C 120.674 -2.14124 -0.908508 0
M  V30 1235 C 121.668 -1.07898 -1.30592 0
M  V30 1236 O 122.874 -1.26273 -1.28277 0
M  V30 1237 H 119.249 -0.684707 -0.310935 0
M  V30 1238 H 121.22 -2.95634 -0.405374 0
M  V30 1239 C 119.969 -2.72044 -2.16535 0
M  V30 1240 H 119.292 -3.53456 -1.86839 0
M  V30 1241 H 120.732 -3.15311 -2.83469 0
M  V30 1242 C 119.191 -1.66968 -2.92615 0
M  V30 1243 O 119.721 -1.0967 -3.86439 0
M  V30 1244 N 117.927 -1.37923 -2.55784 0
M  V30 1245 H 117.474 -1.84706 -1.79559 0
M  V30 1246 H 117.432 -0.67852 -3.06991 0
M  V30 1247 N 121.204 0.198386 -1.56346 0
M  V30 1248 C 122.432 0.935572 -1.84539 0
M  V30 1249 C 122.847 1.76989 -0.657281 0
M  V30 1250 O 122.204 1.78626 0.374043 0
M  V30 1251 C 122.255 1.8344 -3.11499 0
M  V30 1252 O 121.976 1.03377 -4.25728 0
M  V30 1253 C 123.477 2.68355 -3.52846 0
M  V30 1254 H 120.697 0.273126 -0.612897 0
M  V30 1255 H 123.241 0.20663 -2.03453 0
M  V30 1256 H 121.396 2.51701 -2.94492 0
M  V30 1257 H 121.81 1.64599 -4.98003 0
M  V30 1258 H 123.284 3.27085 -4.44657 0
M  V30 1259 H 123.761 3.41901 -2.75681 0
M  V30 1260 H 124.367 2.05471 -3.72373 0
M  V30 1261 N 122.682 1.50554 0.465978 0
M  V30 1262 C 123.612 1.72722 1.57128 0
M  V30 1263 C 124.593 0.576294 1.6004 0
M  V30 1264 O 125.778 0.81598 1.76225 0
M  V30 1265 C 122.908 1.82605 2.95419 0
M  V30 1266 C 121.862 2.97835 3.07373 0
M  V30 1267 C 121.188 2.92867 4.47363 0
M  V30 1268 C 122.488 4.38265 2.84114 0
M  V30 1269 H 124.182 2.65267 1.38829 0
M  V30 1270 H 121.728 1.2765 0.666441 0
M  V30 1271 H 123.681 1.96698 3.72677 0
M  V30 1272 H 122.405 0.866858 3.14886 0
M  V30 1273 H 121.064 2.83401 2.3255 0
M  V30 1274 H 120.712 1.94783 4.63755 0
M  V30 1275 H 120.412 3.70227 4.56296 0
M  V30 1276 H 121.936 3.09015 5.26633 0
M  V30 1277 H 123.35 4.53198 3.51118 0
M  V30 1278 H 121.747 5.17115 3.04487 0
M  V30 1279 H 122.817 4.50281 1.7993 0
M  V30 1280 N 124.16 -0.719506 1.40217 0
M  V30 1281 C 125.576 -1.02707 1.22161 0
M  V30 1282 C 125.776 -2.0128 0.0940557 0
M  V30 1283 O 124.832 -2.46452 -0.549318 0
M  V30 1284 C 126.145 -1.57454 2.56181 0
M  V30 1285 C 127.693 -1.69458 2.63159 0
M  V30 1286 C 128.168 -2.27611 3.97438 0
M  V30 1287 N 129.659 -2.35002 3.99159 0
M  V30 1288 C 130.394 -2.80972 4.99842 0
M  V30 1289 N 129.89 -3.26723 6.10921 0
M  V30 1290 N 131.683 -2.80321 4.87213 0
M  V30 1291 H 123.834 -0.0660492 2.12297 0
M  V30 1292 H 126.097 -0.0919077 0.943534 0
M  V30 1293 H 125.803 -0.924873 3.39321 0
M  V30 1294 H 125.677 -2.56036 2.76993 0
M  V30 1295 H 128.064 -2.33543 1.80393 0
M  V30 1296 H 128.145 -0.694867 2.46181 0
M  V30 1297 H 127.789 -1.6415 4.80643 0
M  V30 1298 H 127.719 -3.2829 4.11744 0
M  V30 1299 H 130.21 -2.02685 3.18947 0
M  V30 1300 H 130.523 -3.60355 6.8364 0
M  V30 1301 H 128.868 -3.24692 6.14492 0
M  V30 1302 H 132.059 -2.43912 3.9953 0
M  V30 1303 H 132.232 -3.15831 5.65822 0
M  V30 1304 N 125.638 -1.25649 -0.95132 0
M  V30 1305 C 126.601 -1.06399 -2.03007 0
M  V30 1306 C 127.601 -0.0156794 -1.60792 0
M  V30 1307 O 128.791 -0.25817 -1.72276 0
M  V30 1308 C 125.923 -0.616184 -3.35285 0
M  V30 1309 H 127.116 -2.02164 -2.21517 0
M  V30 1310 H 124.669 -1.08103 -1.12887 0
M  V30 1311 H 125.404 0.343917 -3.22471 0
M  V30 1312 H 125.189 -1.37301 -3.67275 0
M  V30 1313 H 126.679 -0.503032 -4.14559 0
M  V30 1314 N 127.117 1.15442 -1.07289 0
M  V30 1315 C 128.047 2.22312 -0.714107 0
M  V30 1316 C 129.028 1.67467 0.298155 0
M  V30 1317 O 130.213 1.93445 0.171048 0
M  V30 1318 C 127.343 3.47124 -0.110448 0
M  V30 1319 C 126.297 4.14926 -1.04979 0
M  V30 1320 C 125.623 5.33807 -0.308924 0
M  V30 1321 C 126.923 4.64762 -2.38314 0
M  V30 1322 H 128.617 2.5258 -1.6076 0
M  V30 1323 H 126.163 1.21404 -0.77441 0
M  V30 1324 H 128.116 4.21124 0.152482 0
M  V30 1325 H 126.84 3.16187 0.81812 0
M  V30 1326 H 125.499 3.42866 -1.29764 0
M  V30 1327 H 125.147 4.99126 0.623084 0
M  V30 1328 H 124.847 5.80113 -0.935036 0
M  V30 1329 H 126.371 6.10576 -0.0537771 0
M  V30 1330 H 127.785 5.30292 -2.1786 0
M  V30 1331 H 126.182 5.21728 -2.96514 0
M  V30 1332 H 127.252 3.80434 -3.00663 0
M  V30 1333 N 128.595 0.856903 1.32268 0
M  V30 1334 C 129.843 0.460474 1.96784 0
M  V30 1335 C 130.164 -0.987701 1.68135 0
M  V30 1336 O 129.434 -1.69058 0.989765 0
M  V30 1337 H 128.014 0.167289 0.728027 0
M  V30 1338 H 130.676 1.09383 1.61312 0
M  V30 1339 H 129.772 0.60739 3.06133 0
M  V30 1340 N 130.073 -1.45103 0.615059 0
M  V30 1341 C 131.023 -2.27679 -0.120966 0
M  V30 1342 C 132.007 -1.3775 -0.831491 0
M  V30 1343 O 133.199 -1.61683 -0.720249 0
M  V30 1344 C 130.328 -3.24767 -1.1127 0
M  V30 1345 C 129.414 -4.22184 -0.402627 0
M  V30 1346 N 129.805 -5.02692 0.559884 0
M  V30 1347 C 128.103 -4.4125 -0.649202 0
M  V30 1348 C 128.804 -5.73421 0.977942 0
M  V30 1349 N 127.78 -5.42657 0.320104 0
M  V30 1350 H 131.582 -2.87325 0.618181 0
M  V30 1351 H 129.096 -1.56345 0.439304 0
M  V30 1352 H 131.093 -3.82666 -1.65446 0
M  V30 1353 H 129.753 -2.66682 -1.85232 0
M  V30 1354 H 130.764 -5.09354 0.936976 0
M  V30 1355 H 127.441 -3.9428 -1.37293 0
M  V30 1356 H 128.831 -6.48107 1.77222 0
M  V30 1357 N 131.551 -0.354651 -1.53558 0
M  V30 1358 C 132.828 0.294281 -1.93374 0
M  V30 1359 C 133.208 1.67313 -1.28723 0
M  V30 1360 O 132.556 2.24179 -0.442247 0
M  V30 1361 C 132.766 0.355445 -3.47185 0
M  V30 1362 C 134.114 0.601007 -4.20325 0
M  V30 1363 O 135.138 0.437106 -3.53508 0
M  V30 1364 O 133.997 0.919322 -5.38712 0
M  V30 1365 H 131.091 0.174033 -0.808481 0
M  V30 1366 H 133.637 -0.406638 -1.64756 0
M  V30 1367 H 132.409 -0.611729 -3.86489 0
M  V30 1368 H 132.032 1.1027 -3.82003 0
M  V30 1369 N 133.029 1.57378 -0.0835403 0
M  V30 1370 C 134.254 1.98682 0.594987 0
M  V30 1371 C 134.679 0.961969 1.61641 0
M  V30 1372 O 134.037 -0.0709989 1.81161 0
M  V30 1373 C 134.085 3.38988 1.2296 0
M  V30 1374 O 133.189 3.39208 2.34546 0
M  V30 1375 H 132.53 0.646368 0.152002 0
M  V30 1376 H 135.06 2.03961 -0.161533 0
M  V30 1377 H 135.07 3.76431 1.57366 0
M  V30 1378 H 133.745 4.13107 0.481228 0
M  V30 1379 H 132.322 3.13548 2.01846 0
M  V30 1380 N 134.507 -0.190092 1.56449 0
M  V30 1381 C 135.918 -0.754312 1.70784 0
M  V30 1382 C 136.269 -1.83631 0.690951 0
M  V30 1383 O 135.394 -2.15868 -0.151604 0
M  V30 1384 C 135.989 -1.37503 3.09642 0
M  V30 1385 C 134.548 -1.88628 3.25725 0
M  V30 1386 C 133.695 -0.758098 2.66736 0
M  V30 1387 H 136.646 0.0350524 1.58661 0
M  V30 1388 H 136.667 -2.2445 3.0725 0
M  V30 1389 H 136.179 -0.587302 3.83631 0
M  V30 1390 H 134.28 -2.70103 2.56661 0
M  V30 1391 H 134.393 -2.04462 4.3328 0
M  V30 1392 H 132.757 -1.17369 2.26046 0
M  V30 1393 H 133.54 0.0174705 3.43296 0
M  V30 1394 N 135.985 -1.50799 -0.457987 0
M  V30 1395 C 136.915 -1.73553 -1.5621 0
M  V30 1396 C 137.896 -0.584774 -1.59732 0
M  V30 1397 O 139.081 -0.825314 -1.7579 0
M  V30 1398 C 136.211 -1.84169 -2.94447 0
M  V30 1399 C 135.165 -2.99461 -3.0579 0
M  V30 1400 C 134.491 -2.95235 -4.45803 0
M  V30 1401 C 135.791 -4.39766 -2.81786 0
M  V30 1402 H 137.485 -2.66 -1.37421 0
M  V30 1403 H 135.031 -1.28002 -0.659662 0
M  V30 1404 H 136.984 -1.98672 -3.71628 0
M  V30 1405 H 135.708 -0.883545 -3.14422 0
M  V30 1406 H 134.367 -2.8463 -2.31044 0
M  V30 1407 H 134.015 -1.97239 -4.62715 0
M  V30 1408 H 133.715 -3.72642 -4.54326 0
M  V30 1409 H 135.239 -3.11803 -5.24987 0
M  V30 1410 H 136.653 -4.55054 -3.4871 0
M  V30 1411 H 135.05 -5.18722 -3.0174 0
M  V30 1412 H 136.12 -4.51229 -1.7754 0
M  V30 1413 N 137.463 0.71206 -1.40597 0
M  V30 1414 C 138.411 1.84746 -1.41321 0
M  V30 1415 C 139.405 1.66842 -0.293268 0
M  V30 1416 O 140.611 1.73904 -0.464481 0
M  V30 1417 H 136.986 0.608522 -0.441819 0
M  V30 1418 H 138.957 1.81252 -2.37045 0
M  V30 1419 C 137.706 3.22638 -1.29614 0
M  V30 1420 H 137.029 3.37023 -2.15071 0
M  V30 1421 H 138.469 4.02209 -1.3418 0
M  V30 1422 C 136.928 3.36899 -0.00673121 0
M  V30 1423 O 137.458 3.90186 0.954859 0
M  V30 1424 N 135.664 2.9053 0.0639327 0
M  V30 1425 H 135.211 2.47353 -0.719311 0
M  V30 1426 H 135.169 3.0045 0.926118 0
M  V30 1427 N 138.941 1.26152 0.944643 0
M  V30 1428 C 139.873 1.03199 2.04652 0
M  V30 1429 C 140.886 -0.00642356 1.62799 0
M  V30 1430 O 142.075 0.233263 1.76969 0
M  V30 1431 C 139.175 0.540111 3.34568 0
M  V30 1432 C 138.348 1.64697 4.05208 0
M  V30 1433 C 137.407 1.15374 5.13396 0
M  V30 1434 O 136.433 1.85013 5.38293 0
M  V30 1435 N 137.635 0.00031529 5.805 0
M  V30 1436 H 140.4 1.9808 2.2491 0
M  V30 1437 H 137.961 1.17491 1.11389 0
M  V30 1438 H 139.953 0.194401 4.04233 0
M  V30 1439 H 138.523 -0.315021 3.11009 0
M  V30 1440 H 137.743 2.16379 3.29506 0
M  V30 1441 H 139.031 2.3903 4.49157 0
M  V30 1442 H 138.429 -0.581336 5.62705 0
M  V30 1443 H 136.986 -0.286346 6.51171 0
M  V30 1444 N 140.419 -1.14872 1.07899 0
M  V30 1445 C 141.666 -1.85789 0.805532 0
M  V30 1446 C 141.994 -1.82649 -0.668561 0
M  V30 1447 O 141.249 -1.24858 -1.50695 0
M  V30 1448 C 141.548 -3.34223 1.26609 0
M  V30 1449 C 141.214 -3.57555 2.74709 0
M  V30 1450 C 139.876 -3.63631 3.1516 0
M  V30 1451 C 142.228 -3.66803 3.70277 0
M  V30 1452 C 139.556 -3.76473 4.49983 0
M  V30 1453 C 141.908 -3.8117 5.04869 0
M  V30 1454 C 140.572 -3.85494 5.44932 0
M  V30 1455 H 139.842 -0.679849 0.294765 0
M  V30 1456 H 142.489 -1.3572 1.35101 0
M  V30 1457 H 140.794 -3.86536 0.640103 0
M  V30 1458 H 142.491 -3.87511 1.03132 0
M  V30 1459 H 139.081 -3.5347 2.42398 0
M  V30 1460 H 143.265 -3.61404 3.40149 0
M  V30 1461 H 138.521 -3.7808 4.80484 0
M  V30 1462 H 142.695 -3.87268 5.78789 0
M  V30 1463 H 140.322 -3.95197 6.49403 0
M  V30 1464 N 141.898 -0.863906 -1.31812 0
M  V30 1465 C 142.828 -0.330843 -2.31144 0
M  V30 1466 C 143.809 0.575005 -1.60087 0
M  V30 1467 O 144.994 0.493304 -1.8783 0
M  V30 1468 C 142.124 0.47374 -3.44054 0
M  V30 1469 C 141.078 -0.338481 -4.26659 0
M  V30 1470 C 140.404 0.591412 -5.31419 0
M  V30 1471 C 141.704 -1.56926 -4.98168 0
M  V30 1472 H 143.398 -1.16086 -2.75979 0
M  V30 1473 H 140.944 -0.559657 -1.32679 0
M  V30 1474 H 142.897 0.857143 -4.12591 0
M  V30 1475 H 141.621 1.33721 -2.9797 0
M  V30 1476 H 140.28 -0.703754 -3.59782 0
M  V30 1477 H 139.928 1.45199 -4.81587 0
M  V30 1478 H 139.628 0.0519022 -5.87577 0
M  V30 1479 H 141.152 0.97179 -6.02817 0
M  V30 1480 H 142.566 -1.25764 -5.59336 0
M  V30 1481 H 140.963 -2.04739 -5.64094 0
M  V30 1482 H 142.033 -2.32544 -4.25501 0
M  V30 1483 N 143.376 1.44774 -0.622745 0
M  V30 1484 C 144.339 2.29069 0.0774015 0
M  V30 1485 C 145.339 1.4059 0.780461 0
M  V30 1486 O 146.529 1.62551 0.626322 0
M  V30 1487 C 143.661 3.21974 1.12006 0
M  V30 1488 H 144.854 2.92459 -0.663901 0
M  V30 1489 H 142.407 1.51548 -0.382486 0
M  V30 1490 H 143.142 2.63417 1.89162 0
M  V30 1491 H 142.927 3.87168 0.619951 0
M  V30 1492 H 144.417 3.85318 1.60995 0
M  V30 1493 N 144.854 0.36279 1.53368 0
M  V30 1494 C 146.102 -0.227326 2.00817 0
M  V30 1495 C 146.423 -1.49511 1.25186 0
M  V30 1496 O 145.693 -1.92482 0.364348 0
M  V30 1497 H 144.273 -0.0869923 0.741917 0
M  V30 1498 H 146.935 0.488381 1.88682 0
M  V30 1499 H 146.031 -0.456273 3.08747 0
M  V30 1500 N 146.332 -1.57332 0.0918853 0
M  V30 1501 C 147.295 -2.12708 -0.85369 0
M  V30 1502 C 148.295 -1.05561 -1.213 0
M  V30 1503 O 149.485 -1.31461 -1.14296 0
M  V30 1504 C 146.617 -2.64503 -2.15061 0
M  V30 1505 H 147.81 -2.97573 -0.3729 0
M  V30 1506 H 145.363 -1.55509 -0.157072 0
M  V30 1507 H 146.098 -1.83149 -2.67632 0
M  V30 1508 H 145.883 -3.4284 -1.90272 0
M  V30 1509 H 147.373 -3.07351 -2.82711 0
M  V30 1510 N 147.81 0.181792 -1.56548 0
M  V30 1511 C 148.773 1.20894 -1.94724 0
M  V30 1512 C 149.773 1.37738 -0.829747 0
M  V30 1513 O 150.963 1.35323 -1.09697 0
M  V30 1514 C 148.095 2.57593 -2.23291 0
M  V30 1515 H 149.288 0.882275 -2.86629 0
M  V30 1516 H 146.841 0.423838 -1.50444 0
M  V30 1517 H 147.576 2.95291 -1.34067 0
M  V30 1518 H 147.361 2.46735 -3.04736 0
M  V30 1519 H 148.851 3.31637 -2.53785 0
M  V30 1520 N 149.288 1.51039 0.449983 0
M  V30 1521 C 150.251 1.70863 1.5277 0
M  V30 1522 C 151.251 0.578846 1.5002 0
M  V30 1523 O 152.441 0.846213 1.52266 0
M  V30 1524 C 149.573 1.75341 2.9235 0
M  V30 1525 H 150.766 2.67034 1.36502 0
M  V30 1526 H 148.319 1.40838 0.677812 0
M  V30 1527 H 149.054 0.809383 3.14037 0
M  V30 1528 H 148.839 2.57436 2.95752 0
M  V30 1529 H 150.329 1.92559 3.70555 0
M  V30 1530 N 150.766 -0.704594 1.40972 0
M  V30 1531 C 152.014 -1.46169 1.39568 0
M  V30 1532 C 152.335 -1.95 0.00253745 0
M  V30 1533 O 151.605 -1.71095 -0.954114 0
M  V30 1534 H 150.185 -0.542326 0.513704 0
M  V30 1535 H 152.847 -0.834553 1.76128 0
M  V30 1536 H 151.943 -2.32922 2.07735 0
M  V30 1537 N 152.244 -1.26651 -0.937939 0
M  V30 1538 C 153.207 -1.08546 -2.01867 0
M  V30 1539 C 154.207 -0.0327327 -1.60767 0
M  V30 1540 O 155.397 -0.276427 -1.71993 0
M  V30 1541 C 152.529 -0.651711 -3.34613 0
M  V30 1542 H 153.722 -2.04502 -2.1936 0
M  V30 1543 H 151.275 -1.09294 -1.11734 0
M  V30 1544 H 152.01 0.309696 -3.22818 0
M  V30 1545 H 151.795 -1.41189 -3.65798 0
M  V30 1546 H 153.285 -0.546973 -4.14002 0
M  V30 1547 N 153.722 1.14298 -1.08507 0
M  V30 1548 C 154.971 1.84708 -0.810305 0
M  V30 1549 C 155.284 1.83903 0.666271 0
M  V30 1550 O 156.49 2.50112 1.05624 0
M  V30 1551 C 154.946 3.31572 -1.39957 0
M  V30 1552 C 154.554 3.40791 -2.90801 0
M  V30 1553 C 156.298 4.07087 -1.20334 0
M  V30 1554 C 154.205 4.81872 -3.4286 0
M  V30 1555 H 153.135 0.691985 -0.299454 0
M  V30 1556 H 155.786 1.28841 -1.30661 0
M  V30 1557 H 154.168 3.87183 -0.830976 0
M  V30 1558 H 155.342 2.95225 -3.53806 0
M  V30 1559 H 153.657 2.78732 -3.0935 0
M  V30 1560 H 156.254 5.11225 -1.56693 0
M  V30 1561 H 156.597 4.16054 -0.143237 0
M  V30 1562 H 157.13 3.57779 -1.73893 0
M  V30 1563 H 153.869 4.78094 -4.48449 0
M  V30 1564 H 153.389 5.27972 -2.84615 0
M  V30 1565 H 155.068 5.50765 -3.39509 0
M  V30 1566 N 155.201 0.870884 1.31352 0
M  V30 1567 C 156.133 0.28455 2.27427 0
M  V30 1568 C 157.146 -0.552927 1.53123 0
M  V30 1569 O 158.335 -0.374771 1.74521 0
M  V30 1570 C 155.435 -0.615164 3.3327 0
M  V30 1571 C 154.608 0.190079 4.36987 0
M  V30 1572 C 153.667 -0.637917 5.22319 0
M  V30 1573 O 152.693 -0.065626 5.69162 0
M  V30 1574 N 153.895 -1.94973 5.46778 0
M  V30 1575 H 156.66 1.11017 2.7838 0
M  V30 1576 H 154.221 0.732458 1.44384 0
M  V30 1577 H 156.213 -1.1748 3.87273 0
M  V30 1578 H 154.783 -1.34146 2.82354 0
M  V30 1579 H 154.003 0.931165 3.83044 0
M  V30 1580 H 155.291 0.742579 5.03352 0
M  V30 1581 H 154.689 -2.4378 5.10478 0
M  V30 1582 H 153.246 -2.45713 6.03712 0
M  V30 1583 N 156.679 -1.44442 0.630414 0
M  V30 1584 C 157.919 -2.03934 0.137919 0
M  V30 1585 C 158.283 -1.48509 -1.21692 0
M  V30 1586 O 159.484 -1.99499 -1.80149 0
M  V30 1587 C 157.755 -3.57187 0.123373 0
M  V30 1588 S 159.314 -4.37741 -0.304604 0
M  V30 1589 H 156.132 -0.708401 0.0607353 0
M  V30 1590 H 158.734 -1.76835 0.833643 0
M  V30 1591 H 157.438 -3.95032 1.11256 0
M  V30 1592 H 156.969 -3.88895 -0.59362 0
M  V30 1593 H 158.984 -4.71403 -1.54897 0
M  V30 1594 N 158.157 -0.370918 -1.53173 0
M  V30 1595 C 159.403 0.217423 -2.01631 0
M  V30 1596 C 159.736 1.47983 -1.25756 0
M  V30 1597 O 159.011 1.91274 -0.352764 0
M  V30 1598 C 159.294 0.503982 -3.56556 0
M  V30 1599 C 159.147 -0.77243 -4.43118 0
M  V30 1600 C 160.466 1.30234 -4.20389 0
M  V30 1601 H 157.585 0.0775486 -0.732909 0
M  V30 1602 H 160.227 -0.496863 -1.83388 0
M  V30 1603 H 158.377 1.11248 -3.72231 0
M  V30 1604 H 160.049 -1.4098 -4.39229 0
M  V30 1605 H 158.292 -1.39167 -4.10871 0
M  V30 1606 H 158.963 -0.526815 -5.4948 0
M  V30 1607 H 161.439 0.787546 -4.08579 0
M  V30 1608 H 160.315 1.47158 -5.28806 0
M  V30 1609 H 160.576 2.31237 -3.76805 0
M  V30 1610 N 159.635 1.57281 -0.100228 0
M  V30 1611 C 160.884 1.93713 0.561984 0
M  V30 1612 C 161.197 0.984492 1.69018 0
M  V30 1613 O 162.403 1.24273 2.41389 0
M  V30 1614 C 160.859 3.4421 1.05106 0
M  V30 1615 C 160.467 4.47975 -0.0476628 0
M  V30 1616 C 162.211 3.89595 1.68571 0
M  V30 1617 C 160.118 5.89631 0.457055 0
M  V30 1618 H 159.048 0.723082 0.2137 0
M  V30 1619 H 161.699 1.82644 -0.177057 0
M  V30 1620 H 160.081 3.50449 1.84395 0
M  V30 1621 H 161.255 4.53385 -0.823333 0
M  V30 1622 H 159.57 4.1223 -0.587816 0
M  V30 1623 H 162.167 4.92832 2.07414 0
M  V30 1624 H 162.51 3.28526 2.55688 0
M  V30 1625 H 163.043 3.86078 0.958562 0
M  V30 1626 H 159.782 6.54411 -0.377616 0
M  V30 1627 H 159.302 5.87681 1.19962 0
M  V30 1628 H 160.981 6.40363 0.92437 0
M  V30 1629 N 161.113 -0.173488 1.56642 0
M  V30 1630 C 162.353 -0.896984 1.83667 0
M  V30 1631 C 162.717 -1.79523 0.680842 0
M  V30 1632 O 163.918 -2.55616 0.831488 0
M  V30 1633 C 162.189 -1.67351 3.15798 0
M  V30 1634 S 163.748 -2.44607 3.64298 0
M  V30 1635 H 160.566 -0.300464 0.644393 0
M  V30 1636 H 163.168 -0.158775 1.94854 0
M  V30 1637 H 161.872 -1.00462 3.97914 0
M  V30 1638 H 161.403 -2.45313 3.07546 0
M  V30 1639 H 163.418 -3.69261 3.31452 0
M  V30 1640 N 162.591 -1.51276 -0.441967 0
M  V30 1641 C 163.831 -1.65372 -1.20132 0
M  V30 1642 C 164.195 -0.359871 -1.88597 0
M  V30 1643 O 165.396 -0.376551 -2.66149 0
M  V30 1644 C 163.667 -2.8207 -2.1948 0
M  V30 1645 S 165.226 -3.16467 -3.03964 0
M  V30 1646 H 162.044 -0.582669 -0.407453 0
M  V30 1647 H 164.646 -1.89166 -0.493609 0
M  V30 1648 H 163.35 -3.74523 -1.67812 0
M  V30 1649 H 162.881 -2.6045 -2.94838 0
M  V30 1650 H 164.896 -2.62543 -4.21053 0
M  V30 1651 N 164.069 0.697108 -1.41344 0
M  V30 1652 C 165.48 1.27697 -1.36199 0
M  V30 1653 C 165.831 1.9615 -0.0443463 0
M  V30 1654 O 164.956 1.98689 0.857419 0
M  V30 1655 C 165.551 2.32223 -2.46694 0
M  V30 1656 C 164.11 2.8579 -2.44952 0
M  V30 1657 C 163.257 1.59807 -2.26621 0
M  V30 1658 H 166.208 0.491968 -1.50882 0
M  V30 1659 H 166.229 3.1348 -2.15664 0
M  V30 1660 H 165.741 1.82373 -3.42581 0
M  V30 1661 H 163.842 3.3982 -1.52817 0
M  V30 1662 H 163.955 3.36325 -3.41207 0
M  V30 1663 H 162.319 1.8556 -1.7447 0
M  V30 1664 H 163.102 1.11956 -3.24532 0
M  V30 1665 N 165.547 1.27147 0.931209 0
M  V30 1666 C 166.48 1.0389 2.0318 0
M  V30 1667 C 167.458 -0.0395716 1.62552 0
M  V30 1668 O 168.642 0.104867 1.88208 0
M  V30 1669 C 165.769 0.575227 3.3378 0
M  V30 1670 C 164.815 1.64774 3.93385 0
M  V30 1671 S 165.648 3.23933 4.26413 0
M  V30 1672 C 166.804 2.79358 5.60098 0
M  V30 1673 H 167.037 1.97075 2.22596 0
M  V30 1674 H 164.57 1.10938 1.07387 0
M  V30 1675 H 166.528 0.314385 4.09294 0
M  V30 1676 H 165.189 -0.336505 3.12292 0
M  V30 1677 H 164.382 1.27454 4.87618 0
M  V30 1678 H 163.984 1.86048 3.24441 0
M  V30 1679 H 166.276 2.24443 6.39243 0
M  V30 1680 H 167.219 3.72322 6.02314 0
M  V30 1681 H 167.627 2.1861 5.20452 0
M  V30 1682 N 167.025 -1.13721 1.09112 0
M  V30 1683 C 167.935 -2.22638 0.73957 0
M  V30 1684 C 168.951 -1.72091 -0.257068 0
M  V30 1685 O 170.127 -2.01155 -0.0992154 0
M  V30 1686 C 167.192 -3.46322 0.16191 0
M  V30 1687 C 166.253 -4.11775 1.21408 0
M  V30 1688 C 165.486 -5.29555 0.663891 0
M  V30 1689 O 165.709 -5.68077 -0.514274 0
M  V30 1690 O 164.643 -5.84973 1.41738 0
M  V30 1691 H 168.469 -2.55074 1.64836 0
M  V30 1692 H 166.054 -1.21791 0.865289 0
M  V30 1693 H 167.936 -4.21107 -0.157073 0
M  V30 1694 H 166.611 -3.15593 -0.719932 0
M  V30 1695 H 165.518 -3.3883 1.58571 0
M  V30 1696 H 166.851 -4.46627 2.06845 0
M  V30 1697 N 168.503 -0.877838 -1.30888 0
M  V30 1698 C 169.433 -0.35534 -2.3078 0
M  V30 1699 C 170.414 0.557994 -1.60687 0
M  V30 1700 O 171.599 0.473355 -1.88343 0
M  V30 1701 C 168.729 0.437221 -3.44537 0
M  V30 1702 C 167.683 -0.383715 -4.26276 0
M  V30 1703 C 167.009 0.535014 -5.32017 0
M  V30 1704 C 168.309 -1.62201 -4.96476 0
M  V30 1705 H 170.003 -1.19007 -2.74732 0
M  V30 1706 H 167.549 -0.573698 -1.32078 0
M  V30 1707 H 169.502 0.813334 -4.13477 0
M  V30 1708 H 168.226 1.30553 -2.99372 0
M  V30 1709 H 166.885 -0.741874 -3.59015 0
M  V30 1710 H 166.533 1.40083 -4.831 0
M  V30 1711 H 166.233 -0.0104211 -5.87599 0
M  V30 1712 H 167.757 0.907799 -6.03814 0
M  V30 1713 H 169.171 -1.31689 -5.5797 0
M  V30 1714 H 167.568 -2.10711 -5.61891 0
M  V30 1715 H 168.638 -2.37044 -4.23011 0
M  V30 1716 N 169.982 1.44106 -0.638065 0
M  V30 1717 C 170.945 2.29138 0.0531013 0
M  V30 1718 C 171.945 1.41409 0.765506 0
M  V30 1719 O 173.135 1.63206 0.609046 0
M  V30 1720 C 170.267 3.23144 1.08584 0
M  V30 1721 H 171.46 2.91739 -0.694883 0
M  V30 1722 H 169.013 1.51134 -0.398538 0
M  V30 1723 H 169.748 2.65408 1.86357 0
M  V30 1724 H 169.533 3.87804 0.578852 0
M  V30 1725 H 171.023 3.87004 1.56899 0
M  V30 1726 N 171.46 0.379036 1.52974 0
M  V30 1727 C 172.407 -0.461048 2.26148 0
M  V30 1728 C 173.377 -1.06637 1.27349 0
M  V30 1729 O 174.562 -1.09633 1.56157 0
M  V30 1730 C 171.702 -1.58782 3.06402 0
M  V30 1731 C 170.815 -1.00636 4.20115 0
M  V30 1732 C 169.95 -2.10334 4.87784 0
M  V30 1733 C 168.989 -1.49724 5.93506 0
M  V30 1734 N 168.126 -2.5331 6.54812 0
M  V30 1735 H 172.966 0.169429 2.97518 0
M  V30 1736 H 170.503 0.0953806 1.4679 0
M  V30 1737 H 172.461 -2.25174 3.51215 0
M  V30 1738 H 171.091 -2.18876 2.37261 0
M  V30 1739 H 170.143 -0.232332 3.7969 0
M  V30 1740 H 171.455 -0.523343 4.96047 0
M  V30 1741 H 170.609 -2.84519 5.35849 0
M  V30 1742 H 169.348 -2.61992 4.11353 0
M  V30 1743 H 168.353 -0.740598 5.44789 0
M  V30 1744 H 169.578 -0.988732 6.71864 0
M  V30 1745 H 167.524 -3.04156 5.81227 0
M  V30 1746 H 167.441 -2.09734 7.26325 0
M  V30 1747 H 168.709 -3.27155 7.07524 0
M  V30 1748 N 172.938 -1.57226 0.108567 0
M  V30 1749 C 174.166 -1.99179 -0.559954 0
M  V30 1750 C 174.581 -0.988022 -1.60884 0
M  V30 1751 O 173.938 0.0205512 -1.82488 0
M  V30 1752 C 173.989 -3.41159 -1.19552 0
M  V30 1753 O 173.71 -4.37694 -0.188577 0
M  V30 1754 C 175.211 -3.98188 -1.94837 0
M  V30 1755 H 172.431 -0.654228 -0.149088 0
M  V30 1756 H 174.975 -2.03598 0.19183 0
M  V30 1757 H 173.13 -3.37711 -1.89815 0
M  V30 1758 H 173.544 -5.20469 -0.649014 0
M  V30 1759 H 175.018 -4.99644 -2.34648 0
M  V30 1760 H 175.495 -3.3675 -2.81951 0
M  V30 1761 H 176.101 -4.0515 -1.2936 0
M  V30 1762 N 174.416 0.165178 -1.56732 0
M  V30 1763 C 175.832 0.517174 -1.50988 0
M  V30 1764 C 176.032 1.84331 -0.813894 0
M  V30 1765 O 175.088 2.49672 -0.37682 0
M  V30 1766 C 176.401 0.544261 -2.95733 0
M  V30 1767 C 177.949 0.631039 -3.06573 0
M  V30 1768 C 178.424 0.68896 -4.52788 0
M  V30 1769 N 179.915 0.751683 -4.5706 0
M  V30 1770 C 180.65 0.817177 -5.67547 0
M  V30 1771 N 180.146 0.843129 -6.8765 0
M  V30 1772 N 181.939 0.856668 -5.55534 0
M  V30 1773 H 174.09 -0.704318 -2.00382 0
M  V30 1774 H 176.353 -0.254687 -0.913148 0
M  V30 1775 H 176.059 -0.361607 -3.49836 0
M  V30 1776 H 175.933 1.3886 -3.5071 0
M  V30 1777 H 178.32 1.52733 -2.52501 0
M  V30 1778 H 178.401 -0.240095 -2.54671 0
M  V30 1779 H 178.045 -0.2031 -5.07494 0
M  V30 1780 H 177.975 1.57633 -5.02454 0
M  V30 1781 H 180.466 0.739661 -3.70591 0
M  V30 1782 H 180.779 0.894448 -7.67606 0
M  V30 1783 H 179.124 0.811304 -6.90248 0
M  V30 1784 H 182.315 0.833437 -4.60621 0
M  V30 1785 H 182.488 0.904247 -6.4166 0
M  V30 1786 N 175.894 1.51508 0.433938 0
M  V30 1787 C 176.824 1.76016 1.53429 0
M  V30 1788 C 177.805 0.610112 1.58782 0
M  V30 1789 O 178.99 0.853177 1.74455 0
M  V30 1790 C 176.12 1.88831 2.9148 0
M  V30 1791 C 175.074 3.04288 3.00987 0
M  V30 1792 C 174.4 3.0229 4.4105 0
M  V30 1793 C 175.7 4.44193 2.74754 0
M  V30 1794 H 177.394 2.68152 1.33171 0
M  V30 1795 H 174.94 1.29035 0.639214 0
M  V30 1796 H 176.893 2.04559 3.6842 0
M  V30 1797 H 175.617 0.933455 3.12976 0
M  V30 1798 H 174.276 2.8827 2.26486 0
M  V30 1799 H 173.924 2.04576 4.59519 0
M  V30 1800 H 173.624 3.79822 4.4834 0
M  V30 1801 H 175.148 3.20116 5.1996 0
M  V30 1802 H 176.562 4.60544 3.41426 0
M  V30 1803 H 174.959 5.23457 2.9345 0
M  V30 1804 H 176.029 4.53996 1.70339 0
M  V30 1805 N 177.372 -0.689602 1.41712 0
M  V30 1806 C 178.304 -1.815 1.39966 0
M  V30 1807 C 179.317 -1.59995 0.300917 0
M  V30 1808 O 180.506 -1.69387 0.563039 0
M  V30 1809 C 177.606 -3.18364 1.16179 0
M  V30 1810 C 176.779 -3.66847 2.38206 0
M  V30 1811 C 175.838 -4.82398 2.10186 0
M  V30 1812 O 174.864 -4.93706 2.83272 0
M  V30 1813 N 176.066 -5.70064 1.0958 0
M  V30 1814 H 178.831 -1.83488 2.36965 0
M  V30 1815 H 176.392 -0.872149 1.36401 0
M  V30 1816 H 178.384 -3.93301 0.953756 0
M  V30 1817 H 176.954 -3.11365 0.27756 0
M  V30 1818 H 176.174 -2.82751 2.74673 0
M  V30 1819 H 177.462 -3.95978 3.19498 0
M  V30 1820 H 176.86 -5.63565 0.491019 0
M  V30 1821 H 175.417 -6.44874 0.947656 0
M  V30 1822 N 178.85 -1.27639 -0.924453 0
M  V30 1823 C 179.78 -1.13166 -2.04244 0
M  V30 1824 C 180.761 -0.032256 -1.70069 0
M  V30 1825 O 181.946 -0.207328 -1.9309 0
M  V30 1826 C 179.076 -0.781496 -3.38393 0
M  V30 1827 C 178.03 -1.83449 -3.86692 0
M  V30 1828 C 177.356 -1.33822 -5.17683 0
M  V30 1829 C 178.656 -3.23917 -4.09726 0
M  V30 1830 H 180.35 -2.06689 -2.1661 0
M  V30 1831 H 177.896 -0.995136 -1.04082 0
M  V30 1832 H 179.849 -0.667057 -4.16087 0
M  V30 1833 H 178.573 0.189439 -3.2605 0
M  V30 1834 H 177.232 -1.93789 -3.11193 0
M  V30 1835 H 176.88 -0.35665 -5.01734 0
M  V30 1836 H 176.58 -2.04224 -5.50968 0
M  V30 1837 H 178.104 -1.23679 -5.97943 0
M  V30 1838 H 179.518 -3.16559 -4.77978 0
M  V30 1839 H 177.915 -3.92059 -4.54324 0
M  V30 1840 H 178.985 -3.68729 -3.14908 0
M  V30 1841 N 180.328 1.1314 -1.09713 0
M  V30 1842 C 181.26 2.18343 -0.697056 0
M  V30 1843 C 182.273 1.60669 0.262551 0
M  V30 1844 O 183.462 1.78435 0.0481527 0
M  V30 1845 C 180.562 3.38899 -0.00684728 0
M  V30 1846 C 179.735 4.26078 -0.988741 0
M  V30 1847 C 178.794 5.25155 -0.331394 0
M  V30 1848 O 177.82 5.60701 -0.979926 0
M  V30 1849 N 179.022 5.73271 0.913261 0
M  V30 1850 H 181.787 2.5328 -1.60216 0
M  V30 1851 H 179.348 1.28491 -0.984971 0
M  V30 1852 H 181.34 4.02255 0.444191 0
M  V30 1853 H 179.91 3.02175 0.800551 0
M  V30 1854 H 179.13 3.59453 -1.61826 0
M  V30 1855 H 180.418 4.81178 -1.65364 0
M  V30 1856 H 179.816 5.46544 1.45966 0
M  V30 1857 H 178.373 6.3855 1.30757 0
M  V30 1858 N 181.806 0.884767 1.30421 0
M  V30 1859 C 183.083 0.423185 1.90967 0
M  V30 1860 C 183.463 -1.09605 1.80416 0
M  V30 1861 O 182.811 -1.93126 1.22125 0
M  V30 1862 C 183.021 0.921056 3.36627 0
M  V30 1863 C 184.369 0.955903 4.137 0
M  V30 1864 O 185.393 0.867706 3.4547 0
M  V30 1865 O 184.252 1.08614 5.35598 0
M  V30 1866 H 181.346 0.129369 0.816819 0
M  V30 1867 H 183.892 0.973653 1.3899 0
M  V30 1868 H 182.664 1.96489 3.3839 0
M  V30 1869 H 182.287 0.349741 3.96059 0
M  V30 1870 N 183.284 -1.43765 0.645699 0
M  V30 1871 C 184.247 -2.29163 -0.0409488 0
M  V30 1872 C 185.247 -1.41813 -0.757996 0
M  V30 1873 O 186.437 -1.63527 -0.600382 0
M  V30 1874 C 183.569 -3.23716 -1.06869 0
M  V30 1875 H 184.762 -2.91366 0.710345 0
M  V30 1876 H 182.315 -1.5092 0.406547 0
M  V30 1877 H 183.05 -2.66393 -1.84947 0
M  V30 1878 H 182.835 -3.88105 -0.558277 0
M  V30 1879 H 184.325 -3.87831 -1.54845 0
M  V30 1880 N 184.763 -0.387143 -1.52771 0
M  V30 1881 C 186.011 0.195349 -2.01154 0
M  V30 1882 C 186.332 1.475 -1.27549 0
M  V30 1883 O 185.602 1.91878 -0.394924 0
M  V30 1884 H 184.182 0.075178 -0.743207 0
M  V30 1885 H 186.844 -0.518337 -1.87881 0
M  V30 1886 H 185.94 0.407096 -3.09434 0
M  V30 1887 N 186.241 1.57166 -0.116904 0
M  V30 1888 C 187.652 1.82169 0.408809 0
M  V30 1889 C 188.003 1.03393 1.66746 0
M  V30 1890 O 187.128 0.269886 2.1471 0
M  V30 1891 C 187.723 3.30429 0.748466 0
M  V30 1892 C 186.282 3.5612 1.21882 0
M  V30 1893 C 185.429 2.76374 0.226452 0
M  V30 1894 H 188.38 1.5497 -0.342063 0
M  V30 1895 H 188.401 3.44943 1.60607 0
M  V30 1896 H 187.913 3.87737 -0.167784 0
M  V30 1897 H 186.014 3.04168 2.15204 0
M  V30 1898 H 186.127 4.64705 1.16559 0
M  V30 1899 H 184.491 2.44515 0.713063 0
M  V30 1900 H 185.274 3.3644 -0.682859 0
M  V30 1901 N 187.719 -0.156864 1.56817 0
M  V30 1902 C 188.682 -1.17781 1.96622 0
M  V30 1903 C 189.682 -1.36401 0.851555 0
M  V30 1904 O 190.872 -1.33561 1.11836 0
M  V30 1905 C 188.004 -2.54008 2.27361 0
M  V30 1906 H 189.197 -0.836564 2.87996 0
M  V30 1907 H 186.75 -0.39985 1.51099 0
M  V30 1908 H 187.485 -2.9312 1.38748 0
M  V30 1909 H 187.27 -2.41856 3.08623 0
M  V30 1910 H 188.76 -3.27558 2.59029 0
M  V30 1911 N 189.197 -1.51736 -0.425897 0
M  V30 1912 C 190.613 -1.40166 -0.76326 0
M  V30 1913 C 190.813 -0.492962 -1.95377 0
M  V30 1914 O 189.869 0.0475815 -2.52455 0
M  V30 1915 C 191.182 -2.82403 -1.03291 0
M  V30 1916 C 192.73 -2.91632 -1.13665 0
M  V30 1917 C 193.205 -4.34801 -1.43916 0
M  V30 1918 N 194.696 -4.3796 -1.50816 0
M  V30 1919 C 195.431 -5.4578 -1.75817 0
M  V30 1920 N 194.927 -6.63744 -1.98534 0
M  V30 1921 N 196.72 -5.33274 -1.77694 0
M  V30 1922 H 188.871 -2.09361 0.358 0
M  V30 1923 H 191.134 -0.942941 0.0978094 0
M  V30 1924 H 190.84 -3.50943 -0.230696 0
M  V30 1925 H 190.714 -3.22428 -1.95754 0
M  V30 1926 H 193.101 -2.23284 -1.92947 0
M  V30 1927 H 193.182 -2.55088 -0.190756 0
M  V30 1928 H 192.826 -5.03703 -0.65157 0
M  V30 1929 H 192.756 -4.68868 -2.39729 0
M  V30 1930 H 195.247 -3.52919 -1.35118 0
M  V30 1931 H 195.56 -7.41704 -2.17013 0
M  V30 1932 H 193.905 -6.66839 -1.95832 0
M  V30 1933 H 197.096 -4.40098 -1.59473 0
M  V30 1934 H 197.269 -6.1738 -1.9684 0
M  V30 1935 N 190.675 0.682077 -1.42076 0
M  V30 1936 C 191.903 1.47057 -1.4554 0
M  V30 1937 C 192.318 1.8869 -0.0645779 0
M  V30 1938 O 191.675 1.57666 0.919115 0
M  V30 1939 C 191.726 2.72442 -2.37609 0
M  V30 1940 O 191.447 2.32559 -3.71279 0
M  V30 1941 C 192.948 3.66069 -2.50017 0
M  V30 1942 H 190.168 0.452737 -0.495248 0
M  V30 1943 H 192.712 0.838695 -1.8651 0
M  V30 1944 H 190.867 3.31835 -1.9991 0
M  V30 1945 H 191.281 3.13475 -4.20516 0
M  V30 1946 H 192.755 4.50792 -3.18576 0
M  V30 1947 H 193.232 4.11476 -1.53572 0
M  V30 1948 H 193.838 3.12572 -2.88407 0
M  V30 1949 N 192.153 1.28127 0.917671 0
M  V30 1950 C 193.383 1.17722 1.6978 0
M  V30 1951 C 193.791 -0.267261 1.87303 0
M  V30 1952 O 193.134 -1.19286 1.39702 0
M  V30 1953 C 193.196 1.79958 3.11216 0
M  V30 1954 C 192.86 3.29187 3.16993 0
M  V30 1955 C 193.857 4.25679 2.98485 0
M  V30 1956 C 191.542 3.70075 3.39632 0
M  V30 1957 C 193.536 5.61035 3.02521 0
M  V30 1958 C 191.223 5.05557 3.433 0
M  V30 1959 C 192.221 6.00847 3.24764 0
M  V30 1960 O 191.909 7.33859 3.28187 0
M  V30 1961 H 191.641 0.409788 0.537634 0
M  V30 1962 H 194.195 1.69694 1.15728 0
M  V30 1963 H 192.425 1.22475 3.66793 0
M  V30 1964 H 194.114 1.64125 3.71238 0
M  V30 1965 H 194.88 3.95426 2.80826 0
M  V30 1966 H 190.759 2.96373 3.53106 0
M  V30 1967 H 194.303 6.35388 2.87971 0
M  V30 1968 H 190.2 5.35462 3.60486 0
M  V30 1969 H 190.968 7.42436 3.44575 0
M  V30 1970 N 193.631 -1.12557 1.10312 0
M  V30 1971 C 194.578 -2.18247 0.750781 0
M  V30 1972 C 195.548 -1.63853 -0.272293 0
M  V30 1973 O 196.733 -1.90195 -0.151862 0
M  V30 1974 C 193.873 -3.44591 0.187379 0
M  V30 1975 C 192.986 -4.13046 1.2656 0
M  V30 1976 C 192.121 -5.27034 0.663978 0
M  V30 1977 C 191.16 -5.87353 1.72287 0
M  V30 1978 N 190.297 -6.92757 1.1416 0
M  V30 1979 H 195.137 -2.47732 1.65628 0
M  V30 1980 H 192.674 -1.21629 0.827337 0
M  V30 1981 H 194.632 -4.16904 -0.157148 0
M  V30 1982 H 193.262 -3.15527 -0.681355 0
M  V30 1983 H 192.314 -3.38924 1.72727 0
M  V30 1984 H 193.626 -4.53947 2.06721 0
M  V30 1985 H 192.78 -6.06104 0.268824 0
M  V30 1986 H 191.519 -4.87407 -0.169082 0
M  V30 1987 H 190.524 -5.06971 2.12746 0
M  V30 1988 H 191.749 -6.29051 2.55875 0
M  V30 1989 H 189.695 -6.5517 0.329984 0
M  V30 1990 H 189.612 -7.3225 1.88007 0
M  V30 1991 H 190.88 -7.75658 0.772956 0
M  V30 1992 N 195.109 -0.891671 -1.2995 0
M  V30 1993 C 196.357 -0.512486 -1.95494 0
M  V30 1994 C 196.678 0.942776 -1.70695 0
M  V30 1995 O 195.948 1.66374 -1.03424 0
M  V30 1996 H 194.528 -0.186533 -0.723336 0
M  V30 1997 H 197.19 -1.13621 -1.58355 0
M  V30 1998 H 196.286 -0.688342 -3.04415 0
M  V30 1999 N 196.587 1.43421 -0.653314 0
M  V30 2000 C 197.812 2.06678 -0.172846 0
M  V30 2001 C 198.237 1.48648 1.15262 0
M  V30 2002 O 197.595 0.596457 1.71208 0
M  V30 2003 C 197.643 3.60474 -0.0953184 0
M  V30 2004 O 196.747 4.01487 0.942442 0
M  V30 2005 H 196.088 0.657181 -0.0949155 0
M  V30 2006 H 198.618 1.83925 -0.896265 0
M  V30 2007 H 198.628 4.07905 0.0879728 0
M  V30 2008 H 197.303 4.02088 -1.06291 0
M  V30 2009 H 195.88 3.65646 0.731932 0
M  V30 2010 N 198.065 0.39524 1.52563 0
M  V30 2011 C 198.995 -0.428384 2.29537 0
M  V30 2012 C 199.976 -1.05831 1.33169 0
M  V30 2013 O 201.161 -1.06995 1.62067 0
M  V30 2014 C 198.291 -1.55274 3.10656 0
M  V30 2015 C 197.245 -1.04855 4.14957 0
M  V30 2016 C 196.571 -2.26543 4.84337 0
M  V30 2017 C 197.871 -0.112324 5.22179 0
M  V30 2018 H 199.565 0.213867 2.98635 0
M  V30 2019 H 197.111 0.104298 1.43622 0
M  V30 2020 H 199.064 -2.1358 3.63265 0
M  V30 2021 H 197.788 -2.22266 2.39302 0
M  V30 2022 H 196.447 -0.487985 3.63338 0
M  V30 2023 H 196.095 -2.92059 4.09525 0
M  V30 2024 H 195.795 -1.93466 5.54837 0
M  V30 2025 H 197.319 -2.85481 5.39753 0
M  V30 2026 H 198.733 -0.603752 5.70112 0
M  V30 2027 H 197.13 0.128968 5.99961 0
M  V30 2028 H 198.2 0.837052 4.77621 0
M  V30 2029 N 199.544 -1.57102 0.125237 0
M  V30 2030 C 200.821 -1.86953 -0.575142 0
M  V30 2031 C 201.201 -1.02749 -1.84407 0
M  V30 2032 O 200.549 -0.108144 -2.28244 0
M  V30 2033 C 200.759 -3.38198 -0.861583 0
M  V30 2034 C 202.107 -4.06937 -1.21192 0
M  V30 2035 O 203.131 -3.43252 -0.951645 0
M  V30 2036 O 201.99 -5.19364 -1.70068 0
M  V30 2037 H 199.084 -0.774147 -0.290906 0
M  V30 2038 H 201.63 -1.68942 0.160211 0
M  V30 2039 H 200.402 -3.91282 0.0373647 0
M  V30 2040 H 200.025 -3.61661 -1.65188 0
M  V30 2041 N 201.022 0.148545 -1.56898 0
M  V30 2042 C 202.262 0.86765 -1.85071 0
M  V30 2043 C 202.626 1.78417 -0.709317 0
M  V30 2044 O 203.827 2.54261 -0.872049 0
M  V30 2045 C 202.098 1.62306 -3.1842 0
M  V30 2046 S 203.657 2.3878 -3.68143 0
M  V30 2047 H 200.475 0.290174 -0.649092 0
M  V30 2048 H 203.077 0.127755 -1.95082 0
M  V30 2049 H 201.781 0.941192 -3.99462 0
M  V30 2050 H 201.312 2.4039 -3.1141 0
M  V30 2051 H 203.327 3.63942 -3.37285 0
M  V30 2052 N 202.5 1.5196 0.417844 0
M  V30 2053 C 203.43 1.77634 1.51554 0
M  V30 2054 C 204.411 0.626918 1.58126 0
M  V30 2055 O 205.596 0.871632 1.7354 0
M  V30 2056 C 202.726 1.91911 2.8946 0
M  V30 2057 C 201.68 3.07463 2.97743 0
M  V30 2058 C 201.006 3.06951 4.37819 0
M  V30 2059 C 202.306 4.47082 2.70027 0
M  V30 2060 H 204 2.6955 1.3032 0
M  V30 2061 H 201.546 1.29706 0.625492 0
M  V30 2062 H 203.499 2.08455 3.6623 0
M  V30 2063 H 202.223 0.966598 3.11969 0
M  V30 2064 H 200.882 2.90656 2.23416 0
M  V30 2065 H 200.53 2.09438 4.57323 0
M  V30 2066 H 200.23 3.84556 4.44286 0
M  V30 2067 H 201.754 3.25613 5.16535 0
M  V30 2068 H 203.168 4.6414 3.36522 0
M  V30 2069 H 201.565 5.2654 2.87881 0
M  V30 2070 H 202.635 4.55777 1.65514 0
M  V30 2071 N 203.978 -0.674533 1.42435 0
M  V30 2072 C 204.941 -1.76986 1.45632 0
M  V30 2073 C 205.941 -1.5708 0.343871 0
M  V30 2074 O 207.131 -1.63367 0.604709 0
M  V30 2075 C 204.263 -3.15623 1.28822 0
M  V30 2076 H 205.456 -1.75539 2.43158 0
M  V30 2077 H 203.009 -0.884189 1.28887 0
M  V30 2078 H 203.744 -3.22696 0.322193 0
M  V30 2079 H 203.529 -3.31475 2.09444 0
M  V30 2080 H 205.019 -3.95537 1.33942 0
M  V30 2081 N 205.456 -1.28612 -0.910864 0
M  V30 2082 C 206.388 -1.08589 -2.01844 0
M  V30 2083 C 207.401 -0.0367419 -1.62759 0
M  V30 2084 O 208.59 -0.280101 -1.76289 0
M  V30 2085 C 205.69 -0.628626 -3.33019 0
M  V30 2086 C 204.863 -1.75382 -4.00699 0
M  V30 2087 C 203.922 -1.28945 -5.10156 0
M  V30 2088 O 202.948 -1.9922 -5.33198 0
M  V30 2089 N 204.15 -0.154224 -5.80295 0
M  V30 2090 H 206.915 -2.03973 -2.19579 0
M  V30 2091 H 204.476 -1.20403 -1.08234 0
M  V30 2092 H 206.468 -0.301508 -4.03575 0
M  V30 2093 H 205.038 0.232451 -3.11735 0
M  V30 2094 H 204.258 -2.25039 -3.23653 0
M  V30 2095 H 205.546 -2.50854 -4.42662 0
M  V30 2096 H 204.944 0.43194 -5.64049 0
M  V30 2097 H 203.501 0.113599 -6.51701 0
M  V30 2098 N 206.934 1.1197 -1.10907 0
M  V30 2099 C 208.183 1.82947 -0.849302 0
M  V30 2100 C 208.496 1.85275 0.627112 0
M  V30 2101 O 209.702 2.52296 1.00295 0
M  V30 2102 C 208.158 3.28529 -1.46959 0
M  V30 2103 C 207.766 3.34546 -2.97965 0
M  V30 2104 C 209.51 4.04443 -1.28942 0
M  V30 2105 C 207.417 4.74491 -3.53004 0
M  V30 2106 H 206.347 0.685477 -0.314065 0
M  V30 2107 H 208.998 1.2604 -1.33365 0
M  V30 2108 H 207.38 3.85333 -0.912917 0
M  V30 2109 H 208.554 2.87654 -3.59989 0
M  V30 2110 H 206.869 2.72108 -3.15192 0
M  V30 2111 H 209.466 5.07787 -1.67502 0
M  V30 2112 H 209.809 4.15656 -0.231456 0
M  V30 2113 H 210.342 3.5401 -1.81443 0
M  V30 2114 H 207.081 4.68474 -4.58489 0
M  V30 2115 H 206.601 5.21816 -2.9575 0
M  V30 2116 H 208.28 5.4344 -3.51115 0
M  V30 2117 N 208.412 0.89855 1.29475 0
M  V30 2118 C 209.642 0.538479 1.99459 0
M  V30 2119 C 210.05 -0.880922 1.67441 0
M  V30 2120 O 209.393 -1.59283 0.915127 0
M  V30 2121 C 209.455 0.649564 3.53583 0
M  V30 2122 C 209.119 2.03573 4.09154 0
M  V30 2123 C 210.116 3.00675 4.24135 0
M  V30 2124 C 207.801 2.3448 4.44212 0
M  V30 2125 C 209.795 4.26809 4.73405 0
M  V30 2126 C 207.482 3.60857 4.93179 0
M  V30 2127 C 208.48 4.56836 5.0773 0
M  V30 2128 O 208.168 5.80969 5.55635 0
M  V30 2129 H 207.9 0.205372 0.644048 0
M  V30 2130 H 210.454 1.20958 1.66007 0
M  V30 2131 H 208.684 -0.0785592 3.8662 0
M  V30 2132 H 210.373 0.29881 4.04799 0
M  V30 2133 H 211.139 2.78112 3.97339 0
M  V30 2134 H 207.018 1.60534 4.32145 0
M  V30 2135 H 210.562 5.0173 4.84678 0
M  V30 2136 H 206.459 3.83251 5.19412 0
M  V30 2137 H 207.227 5.83542 5.73952 0
M  V30 2138 N 209.89 -1.43072 0.660911 0
M  V30 2139 C 211.138 -2.01323 0.177094 0
M  V30 2140 C 211.459 -1.5245 -1.2159 0
M  V30 2141 O 210.729 -0.740322 -1.81373 0
M  V30 2142 H 209.309 -0.744382 0.0624804 0
M  V30 2143 H 211.971 -1.75179 0.854305 0
M  V30 2144 H 211.067 -3.11649 0.167641 0
M  V30 2145 N 211.368 -0.403325 -1.52352 0
M  V30 2146 C 212.318 0.442244 -2.2367 0
M  V30 2147 C 213.302 1.01823 -1.24583 0
M  V30 2148 O 214.494 0.942005 -1.49851 0
M  V30 2149 C 211.623 1.5615 -3.05732 0
M  V30 2150 C 210.709 0.996575 -4.12225 0
M  V30 2151 N 211.1 0.157804 -5.05554 0
M  V30 2152 C 209.398 1.26767 -4.27605 0
M  V30 2153 C 210.099 -0.155853 -5.81491 0
M  V30 2154 N 209.075 0.451775 -5.41719 0
M  V30 2155 H 212.877 -0.204964 -2.93184 0
M  V30 2156 H 210.391 -0.213418 -1.60992 0
M  V30 2157 H 212.388 2.17981 -3.55373 0
M  V30 2158 H 211.048 2.21139 -2.37755 0
M  V30 2159 H 212.059 -0.206049 -5.1749 0
M  V30 2160 H 208.736 1.91757 -3.70858 0
M  V30 2161 H 210.126 -0.836329 -6.66675 0
M  V30 2162 N 212.846 1.57033 -0.133567 0
M  V30 2163 C 213.756 2.19632 0.824564 0
M  V30 2164 C 214.772 1.17666 1.28182 0
M  V30 2165 O 215.948 1.50193 1.3418 0
M  V30 2166 C 213.013 2.79499 2.05137 0
M  V30 2167 C 212.074 3.96548 1.64464 0
M  V30 2168 C 211.307 4.5355 2.81297 0
M  V30 2169 O 211.53 4.09438 3.97136 0
M  V30 2170 O 210.464 5.44018 2.57542 0
M  V30 2171 H 214.29 3.01991 0.321766 0
M  V30 2172 H 211.875 1.49112 0.0927889 0
M  V30 2173 H 213.757 3.17602 2.7696 0
M  V30 2174 H 212.432 2.00162 2.54395 0
M  V30 2175 H 211.339 3.63186 0.897048 0
M  V30 2176 H 212.672 4.77364 1.19934 0
M  V30 2177 N 214.325 -0.140222 1.56975 0
M  V30 2178 C 215.573 -0.850005 1.83356 0
M  V30 2179 C 215.894 -1.81399 0.71551 0
M  V30 2180 O 215.164 -1.94136 -0.262294 0
M  V30 2181 H 213.744 -0.316886 0.676456 0
M  V30 2182 H 216.406 -0.132608 1.94448 0
M  V30 2183 H 215.502 -1.40814 2.78528 0
M  V30 2184 N 215.803 -1.52179 -0.40978 0
M  V30 2185 C 216.733 -1.78435 -1.5061 0
M  V30 2186 C 217.714 -0.635295 -1.57791 0
M  V30 2187 O 218.899 -0.880823 -1.73076 0
M  V30 2188 C 216.029 -1.93444 -2.88439 0
M  V30 2189 C 214.983 -3.09038 -2.96108 0
M  V30 2190 C 214.309 -3.09268 -4.36185 0
M  V30 2191 C 215.609 -4.48508 -2.67652 0
M  V30 2192 H 217.303 -2.70237 -1.28889 0
M  V30 2193 H 214.849 -1.30036 -0.618605 0
M  V30 2194 H 216.802 -2.10394 -3.65119 0
M  V30 2195 H 215.526 -0.983129 -3.11452 0
M  V30 2196 H 214.185 -2.91837 -2.21872 0
M  V30 2197 H 213.833 -2.11861 -4.56206 0
M  V30 2198 H 213.533 -3.86907 -4.42241 0
M  V30 2199 H 215.057 -3.28348 -5.14801 0
M  V30 2200 H 216.471 -4.65918 -3.34056 0
M  V30 2201 H 214.868 -5.28059 -2.85085 0
M  V30 2202 H 215.938 -4.56649 -1.63095 0
M  V30 2203 N 217.281 0.66697 -1.42791 0
M  V30 2204 C 218.697 0.981027 -1.25889 0
M  V30 2205 C 218.897 2.00793 -0.168695 0
M  V30 2206 O 217.953 2.48321 0.45747 0
M  V30 2207 C 219.266 1.47838 -2.61848 0
M  V30 2208 C 220.814 1.59575 -2.69267 0
M  V30 2209 C 221.289 2.12704 -4.05612 0
M  V30 2210 N 222.78 2.20026 -4.07606 0
M  V30 2211 C 223.515 2.62227 -5.09926 0
M  V30 2212 N 223.011 3.03824 -6.22626 0
M  V30 2213 N 224.804 2.62045 -4.97281 0
M  V30 2214 H 216.955 -0.0127891 -2.12396 0
M  V30 2215 H 219.218 0.0568258 -0.946295 0
M  V30 2216 H 218.924 0.798299 -3.4252 0
M  V30 2217 H 218.798 2.45579 -2.86305 0
M  V30 2218 H 221.185 2.26687 -1.88936 0
M  V30 2219 H 221.266 0.60302 -2.48591 0
M  V30 2220 H 220.91 1.46198 -4.86404 0
M  V30 2221 H 220.84 3.12782 -4.23645 0
M  V30 2222 H 223.331 1.90708 -3.2625 0
M  V30 2223 H 223.644 3.34734 -6.96544 0
M  V30 2224 H 221.989 3.01662 -6.26119 0
M  V30 2225 H 225.18 2.28916 -4.08308 0
M  V30 2226 H 225.353 2.94613 -5.77154 0
M  V30 2227 N 218.759 1.29093 0.90403 0
M  V30 2228 C 220.007 1.16583 1.65085 0
M  V30 2229 C 220.328 -0.283933 1.92922 0
M  V30 2230 O 219.598 -1.19509 1.55224 0
M  V30 2231 H 218.178 0.428467 0.611903 0
M  V30 2232 H 220.84 1.61959 1.08422 0
M  V30 2233 H 219.936 1.71266 2.6091 0
M  V30 2234 N 220.237 -1.11381 1.11499 0
M  V30 2235 C 221.483 -1.83403 0.865512 0
M  V30 2236 C 221.816 -1.84459 -0.607329 0
M  V30 2237 O 221.091 -1.29811 -1.44842 0
M  V30 2238 C 221.374 -3.30552 1.42855 0
M  V30 2239 C 221.227 -3.37886 2.96906 0
M  V30 2240 C 222.546 -4.26643 1.08 0
M  V30 2241 H 219.665 -0.665879 0.31587 0
M  V30 2242 H 222.307 -1.30601 1.37998 0
M  V30 2243 H 220.457 -3.75648 0.990985 0
M  V30 2244 H 222.129 -3.01343 3.49271 0
M  V30 2245 H 220.372 -2.78088 3.32941 0
M  V30 2246 H 221.043 -4.41458 3.31389 0
M  V30 2247 H 223.519 -3.89729 1.45775 0
M  V30 2248 H 222.395 -5.27986 1.50072 0
M  V30 2249 H 222.656 -4.42099 -0.00915037 0
M  V30 2250 N 221.715 -0.905404 -1.28997 0
M  V30 2251 C 222.663 -0.377431 -2.29517 0
M  V30 2252 C 223.657 0.526461 -1.61012 0
M  V30 2253 O 224.863 0.40863 -1.753 0
M  V30 2254 H 221.238 -0.103437 -0.744852 0
M  V30 2255 H 223.209 -1.23848 -2.71485 0
M  V30 2256 C 221.958 0.374833 -3.45674 0
M  V30 2257 H 221.281 -0.311474 -3.98585 0
M  V30 2258 H 222.721 0.70903 -4.1803 0
M  V30 2259 C 221.18 1.57963 -2.97572 0
M  V30 2260 O 221.71 2.67886 -2.99333 0
M  V30 2261 N 219.916 1.42375 -2.53333 0
M  V30 2262 H 219.463 0.529466 -2.521 0
M  V30 2263 H 219.421 2.23117 -2.21509 0
M  V30 2264 N 223.193 1.4272 -0.668489 0
M  V30 2265 C 224.609 1.55992 -0.33745 0
M  V30 2266 C 224.809 1.64933 1.15756 0
M  V30 2267 O 223.865 1.61278 1.94282 0
M  V30 2268 C 225.178 2.81314 -1.06222 0
M  V30 2269 C 226.726 2.95078 -1.04394 0
M  V30 2270 C 227.201 4.23252 -1.74991 0
M  V30 2271 N 228.692 4.3015 -1.71829 0
M  V30 2272 C 229.427 5.28127 -2.23315 0
M  V30 2273 N 228.923 6.32293 -2.83156 0
M  V30 2274 N 230.716 5.19882 -2.13726 0
M  V30 2275 H 222.867 1.3516 -1.63846 0
M  V30 2276 H 225.13 0.650174 -0.689912 0
M  V30 2277 H 224.836 2.80823 -2.11734 0
M  V30 2278 H 224.71 3.72012 -0.62344 0
M  V30 2279 H 227.097 2.951 0.0028244 0
M  V30 2280 H 227.178 2.05627 -1.52155 0
M  V30 2281 H 226.822 4.2399 -2.79633 0
M  V30 2282 H 226.752 5.11626 -1.24685 0
M  V30 2283 H 229.243 3.55499 -1.28175 0
M  V30 2284 H 229.556 7.03398 -3.20079 0
M  V30 2285 H 227.901 6.32873 -2.87223 0
M  V30 2286 H 231.092 4.37423 -1.66669 0
M  V30 2287 H 231.265 5.96077 -2.54158 0
M  V30 2288 N 224.671 0.411399 1.52136 0
M  V30 2289 C 225.919 -0.163322 2.01439 0
M  V30 2290 C 226.24 -1.45453 1.29879 0
M  V30 2291 O 225.51 -1.91225 0.4254 0
M  V30 2292 H 224.09 -0.0633447 0.744309 0
M  V30 2293 H 226.752 0.548161 1.87033 0
M  V30 2294 H 225.848 -0.357817 3.10042 0
M  V30 2295 N 226.149 -1.5696 0.141893 0
M  V30 2296 C 227.082 -2.12271 -0.837627 0
M  V30 2297 C 228.06 -1.04495 -1.24578 0
M  V30 2298 O 229.244 -1.32293 -1.34278 0
M  V30 2299 C 226.371 -2.63822 -2.12404 0
M  V30 2300 C 225.417 -3.83698 -1.86221 0
M  V30 2301 S 226.25 -5.24948 -1.05781 0
M  V30 2302 C 227.406 -5.79884 -2.35552 0
M  V30 2303 H 227.639 -2.95023 -0.367249 0
M  V30 2304 H 225.172 -1.54231 -0.0723014 0
M  V30 2305 H 227.13 -2.94175 -2.86307 0
M  V30 2306 H 225.791 -1.8121 -2.56557 0
M  V30 2307 H 224.984 -4.17995 -2.81596 0
M  V30 2308 H 224.586 -3.5408 -1.20429 0
M  V30 2309 H 226.878 -5.91005 -3.31239 0
M  V30 2310 H 227.821 -6.77544 -2.05767 0
M  V30 2311 H 228.229 -5.08095 -2.45967 0
M  V30 2312 N 227.627 0.131896 -1.57047 0
M  V30 2313 C 228.873 0.843179 -1.84441 0
M  V30 2314 C 229.206 1.80129 -0.725749 0
M  V30 2315 O 228.481 1.92624 0.269469 0
M  V30 2316 C 228.764 1.60442 -3.22382 0
M  V30 2317 C 228.617 0.666782 -4.4483 0
M  V30 2318 C 229.936 2.56354 -3.5773 0
M  V30 2319 H 227.055 0.305081 -0.670891 0
M  V30 2320 H 229.697 0.107839 -1.89694 0
M  V30 2321 H 227.847 2.23128 -3.18035 0
M  V30 2322 H 229.519 0.0497646 -4.61273 0
M  V30 2323 H 227.762 -0.022609 -4.33794 0
M  V30 2324 H 228.433 1.23579 -5.37989 0
M  V30 2325 H 230.909 2.0378 -3.62785 0
M  V30 2326 H 229.785 3.06657 -4.5525 0
M  V30 2327 H 230.046 3.38419 -2.84473 0
M  V30 2328 N 229.106 1.52395 0.401703 0
M  V30 2329 C 230.331 1.70972 1.17403 0
M  V30 2330 C 230.756 0.421615 1.83314 0
M  V30 2331 O 230.114 -0.621564 1.70312 0
M  V30 2332 C 230.162 2.85151 2.20728 0
M  V30 2333 O 229.266 2.51238 3.27037 0
M  V30 2334 H 228.607 0.568927 0.342372 0
M  V30 2335 H 231.137 1.99131 0.469891 0
M  V30 2336 H 231.147 3.10279 2.64936 0
M  V30 2337 H 229.822 3.78603 1.7214 0
M  V30 2338 H 228.399 2.36808 2.88057 0
M  V30 2339 N 230.584 -0.659388 1.43143 0
M  V30 2340 C 231.812 -1.44723 1.47861 0
M  V30 2341 C 232.227 -1.88563 0.0945886 0
M  V30 2342 O 231.584 -1.59108 -0.893915 0
M  V30 2343 C 231.635 -2.68627 2.41913 0
M  V30 2344 O 231.356 -2.26623 3.74932 0
M  V30 2345 C 232.857 -3.62045 2.55809 0
M  V30 2346 H 230.077 -0.444801 0.502387 0
M  V30 2347 H 232.621 -0.808916 1.87821 0
M  V30 2348 H 230.776 -3.28613 2.05164 0
M  V30 2349 H 231.19 -3.06745 4.2545 0
M  V30 2350 H 232.664 -4.45666 3.25708 0
M  V30 2351 H 233.141 -4.08981 1.60099 0
M  V30 2352 H 233.747 -3.07944 2.93344 0
M  V30 2353 N 232.062 -1.29571 -0.897171 0
M  V30 2354 C 232.992 -1.17473 -2.01798 0
M  V30 2355 C 233.973 -0.068323 -1.69963 0
M  V30 2356 O 235.158 -0.248239 -1.92607 0
M  V30 2357 C 232.288 -0.853099 -3.36659 0
M  V30 2358 C 231.242 -1.9161 -3.82713 0
M  V30 2359 C 230.568 -1.44773 -5.14728 0
M  V30 2360 C 231.868 -3.32535 -4.02763 0
M  V30 2361 H 233.562 -2.11237 -2.12177 0
M  V30 2362 H 231.108 -1.01699 -1.01948 0
M  V30 2363 H 233.061 -0.755165 -4.14578 0
M  V30 2364 H 231.785 0.120236 -3.26379 0
M  V30 2365 H 230.444 -2.00346 -3.07013 0
M  V30 2366 H 230.092 -0.462995 -5.00865 0
M  V30 2367 H 229.792 -2.15865 -5.46513 0
M  V30 2368 H 231.316 -1.36334 -5.95185 0
M  V30 2369 H 232.73 -3.26626 -4.71156 0
M  V30 2370 H 231.127 -4.01607 -4.45905 0
M  V30 2371 H 232.197 -3.75326 -3.07016 0
M  V30 2372 N 233.54 1.10788 -1.12088 0
M  V30 2373 C 234.47 2.19083 -0.807755 0
M  V30 2374 C 235.451 1.6858 0.226859 0
M  V30 2375 O 236.636 1.93997 0.0888475 0
M  V30 2376 C 233.766 3.46344 -0.257576 0
M  V30 2377 C 232.72 4.101 -1.22483 0
M  V30 2378 C 232.046 5.32016 -0.535052 0
M  V30 2379 C 233.346 4.54236 -2.57811 0
M  V30 2380 H 235.04 2.45534 -1.71328 0
M  V30 2381 H 232.586 1.1801 -0.825205 0
M  V30 2382 H 234.539 4.21392 -0.0262679 0
M  V30 2383 H 233.263 3.19373 0.683278 0
M  V30 2384 H 231.922 3.37054 -1.44189 0
M  V30 2385 H 231.57 5.01319 0.410827 0
M  V30 2386 H 231.27 5.75625 -1.18024 0
M  V30 2387 H 232.794 6.09799 -0.312695 0
M  V30 2388 H 234.208 5.20575 -2.40155 0
M  V30 2389 H 232.605 5.08682 -3.18375 0
M  V30 2390 H 233.675 3.6734 -3.16528 0
M  V30 2391 N 235.018 0.912232 1.28515 0
M  V30 2392 C 236.434 0.610159 1.47476 0
M  V30 2393 C 236.634 -0.844955 1.82928 0
M  V30 2394 O 235.69 -1.62416 1.93332 0
M  V30 2395 C 237.003 1.54675 2.57868 0
M  V30 2396 C 238.551 1.55331 2.71738 0
M  V30 2397 C 239.026 2.47649 3.85272 0
M  V30 2398 N 240.517 2.45767 3.92623 0
M  V30 2399 C 241.252 3.13896 4.79851 0
M  V30 2400 N 240.748 3.9135 5.71679 0
M  V30 2401 N 242.541 3.02991 4.73448 0
M  V30 2402 H 234.692 1.85318 1.03783 0
M  V30 2403 H 236.955 0.794777 0.516753 0
M  V30 2404 H 236.661 2.5841 2.38574 0
M  V30 2405 H 236.535 1.27671 3.54937 0
M  V30 2406 H 238.922 0.52335 2.90422 0
M  V30 2407 H 239.003 1.86378 1.75205 0
M  V30 2408 H 238.647 3.50745 3.67342 0
M  V30 2409 H 238.577 2.13904 4.81199 0
M  V30 2410 H 241.068 1.89503 3.26951 0
M  V30 2411 H 241.381 4.40359 6.35062 0
M  V30 2412 H 239.726 3.95455 5.71524 0
M  V30 2413 H 242.917 2.41987 4.007 0
M  V30 2414 H 243.09 3.5636 5.41213 0
M  V30 2415 N 236.496 -1.42363 0.676048 0
M  V30 2416 C 237.406 -2.346 -0.00153389 0
M  V30 2417 C 238.422 -1.5516 -0.787485 0
M  V30 2418 O 239.598 -1.87723 -0.729521 0
M  V30 2419 C 236.663 -3.33705 -0.940298 0
M  V30 2420 C 235.724 -4.29042 -0.148739 0
M  V30 2421 C 234.957 -5.23413 -1.04279 0
M  V30 2422 O 235.18 -5.22749 -2.28232 0
M  V30 2423 O 234.114 -5.99795 -0.502925 0
M  V30 2424 H 237.94 -2.94082 0.758268 0
M  V30 2425 H 235.525 -1.42888 0.436289 0
M  V30 2426 H 237.407 -3.94586 -1.47917 0
M  V30 2427 H 236.082 -2.76695 -1.67993 0
M  V30 2428 H 234.989 -3.71571 0.43427 0
M  V30 2429 H 236.322 -4.89097 0.551805 0
M  V30 2430 N 237.974 -0.419461 -1.51915 0
M  V30 2431 C 239.202 0.152136 -2.0634 0
M  V30 2432 C 239.617 1.37988 -1.28859 0
M  V30 2433 O 238.974 1.79243 -0.343232 0
M  V30 2434 C 239.025 0.492266 -3.58133 0
M  V30 2435 O 238.746 -0.686736 -4.32684 0
M  V30 2436 C 240.247 1.11648 -4.2901 0
M  V30 2437 H 237.467 0.0158325 -0.670813 0
M  V30 2438 H 240.011 -0.593394 -1.95702 0
M  V30 2439 H 238.166 1.18769 -3.68745 0
M  V30 2440 H 238.58 -0.400341 -5.2297 0
M  V30 2441 H 240.054 1.3046 -5.36362 0
M  V30 2442 H 240.531 2.09251 -3.86148 0
M  V30 2443 H 241.137 0.460958 -4.22795 0
M  V30 2444 N 239.452 1.56882 -0.150215 0
M  V30 2445 C 240.863 1.82995 0.370076 0
M  V30 2446 C 241.214 1.06907 1.64515 0
M  V30 2447 O 240.339 0.315369 2.1409 0
M  V30 2448 C 240.934 3.31942 0.678208 0
M  V30 2449 C 239.493 3.58625 1.14301 0
M  V30 2450 C 238.64 2.76792 0.167778 0
M  V30 2451 H 241.591 1.54209 -0.374858 0
M  V30 2452 H 241.612 3.48272 1.53254 0
M  V30 2453 H 241.124 3.87294 -0.249991 0
M  V30 2454 H 239.225 3.08664 2.08704 0
M  V30 2455 H 239.338 4.67073 1.06676 0
M  V30 2456 H 237.702 2.45972 0.661037 0
M  V30 2457 H 238.485 3.34916 -0.754069 0
M  V30 2458 N 240.93 -0.123565 1.57115 0
M  V30 2459 C 242.155 -0.850398 1.89164 0
M  V30 2460 C 242.58 -1.7286 0.741688 0
M  V30 2461 O 241.938 -1.78665 -0.307958 0
M  V30 2462 C 241.986 -1.66353 3.19936 0
M  V30 2463 O 241.09 -2.77004 3.0552 0
M  V30 2464 H 240.431 -0.235454 0.620852 0
M  V30 2465 H 242.961 -0.107335 2.04318 0
M  V30 2466 H 242.971 -2.05372 3.52543 0
M  V30 2467 H 241.646 -1.01881 4.03228 0
M  V30 2468 H 240.223 -2.41221 2.84371 0
M  V30 2469 N 242.408 -1.52605 -0.393616 0
M  V30 2470 C 243.655 -1.67424 -1.1391 0
M  V30 2471 C 243.983 -0.411859 -1.90089 0
M  V30 2472 O 243.238 0.605626 -1.86093 0
M  V30 2473 C 243.537 -2.85721 -2.14705 0
M  V30 2474 C 243.203 -4.23342 -1.55218 0
M  V30 2475 C 241.865 -4.60771 -1.3872 0
M  V30 2476 C 244.217 -5.09041 -1.11924 0
M  V30 2477 C 241.545 -5.81563 -0.774689 0
M  V30 2478 C 243.897 -6.30452 -0.520853 0
M  V30 2479 C 242.561 -6.66617 -0.343134 0
M  V30 2480 H 241.831 -0.612648 -0.416826 0
M  V30 2481 H 244.478 -1.8674 -0.424315 0
M  V30 2482 H 242.783 -2.60803 -2.92385 0
M  V30 2483 H 244.48 -2.94382 -2.72288 0
M  V30 2484 H 241.07 -3.93855 -1.69045 0
M  V30 2485 H 245.254 -4.80695 -1.23473 0
M  V30 2486 H 240.51 -6.08196 -0.625154 0
M  V30 2487 H 244.684 -6.96175 -0.177065 0
M  V30 2488 H 242.311 -7.60083 0.133571 0
M  V30 2489 N 243.887 0.651787 -1.4349 0
M  V30 2490 C 245.135 1.40888 -1.44897 0
M  V30 2491 C 245.456 1.94856 -0.0749086 0
M  V30 2492 O 244.726 1.74518 0.889956 0
M  V30 2493 H 243.306 0.522887 -0.533478 0
M  V30 2494 H 245.968 0.768609 -1.79104 0
M  V30 2495 H 245.064 2.25052 -2.16236 0
M  V30 2496 N 245.365 1.30045 0.890287 0
M  V30 2497 C 246.611 1.18737 1.64406 0
M  V30 2498 C 246.944 -0.258525 1.92472 0
M  V30 2499 O 246.219 -1.18562 1.54186 0
M  V30 2500 C 246.502 2.01087 2.98724 0
M  V30 2501 C 246.355 3.53867 2.77665 0
M  V30 2502 C 247.674 1.84457 3.9958 0
M  V30 2503 H 244.793 0.432698 0.596608 0
M  V30 2504 H 247.435 1.5962 1.0306 0
M  V30 2505 H 245.585 1.66349 3.51084 0
M  V30 2506 H 247.257 3.98637 2.32133 0
M  V30 2507 H 245.5 3.78318 2.12269 0
M  V30 2508 H 246.171 4.06772 3.7315 0
M  V30 2509 H 248.647 2.14817 3.56361 0
M  V30 2510 H 247.523 2.44411 4.91482 0
M  V30 2511 H 247.784 0.802276 4.3476 0
M  V30 2512 N 246.843 -1.10192 1.12674 0
M  V30 2513 C 248.073 -1.85713 0.905213 0
M  V30 2514 C 248.481 -1.81056 -0.549108 0
M  V30 2515 O 247.824 -1.19927 -1.39151 0
M  V30 2516 C 247.886 -3.34972 1.30516 0
M  V30 2517 C 247.55 -3.63385 2.77129 0
M  V30 2518 C 248.547 -3.59772 3.75313 0
M  V30 2519 C 246.232 -3.91981 3.14096 0
M  V30 2520 C 248.226 -3.84354 5.08479 0
M  V30 2521 C 245.913 -4.16218 4.47443 0
M  V30 2522 C 246.911 -4.12395 5.44444 0
M  V30 2523 O 246.599 -4.36014 6.75387 0
M  V30 2524 H 246.331 -0.593719 0.323223 0
M  V30 2525 H 248.885 -1.40198 1.50112 0
M  V30 2526 H 247.115 -3.81156 0.652463 0
M  V30 2527 H 248.804 -3.91886 1.05736 0
M  V30 2528 H 249.57 -3.37716 3.48099 0
M  V30 2529 H 245.449 -3.94085 2.39202 0
M  V30 2530 H 248.993 -3.81285 5.84181 0
M  V30 2531 H 244.89 -4.37754 4.74386 0
M  V30 2532 H 245.658 -4.53516 6.8137 0
M  V30 2533 N 248.321 -0.919034 -1.28029 0
M  V30 2534 C 249.568 -0.554934 -1.94748 0
M  V30 2535 C 249.896 0.90231 -1.72304 0
M  V30 2536 O 249.151 1.65767 -1.04018 0
M  V30 2537 C 249.45 -0.816855 -3.4794 0
M  V30 2538 C 249.116 -2.25448 -3.90492 0
M  V30 2539 C 247.778 -2.64752 -4.01821 0
M  V30 2540 C 250.13 -3.18977 -4.12193 0
M  V30 2541 C 247.458 -3.96727 -4.32232 0
M  V30 2542 C 249.81 -4.50523 -4.44086 0
M  V30 2543 C 248.474 -4.89673 -4.53626 0
M  V30 2544 H 247.744 -0.203065 -0.712633 0
M  V30 2545 H 250.391 -1.16136 -1.52265 0
M  V30 2546 H 248.696 -0.127677 -3.91592 0
M  V30 2547 H 250.393 -0.514238 -3.97689 0
M  V30 2548 H 246.983 -1.93952 -3.82205 0
M  V30 2549 H 251.167 -2.89817 -4.02889 0
M  V30 2550 H 246.423 -4.26754 -4.37825 0
M  V30 2551 H 250.597 -5.23005 -4.59825 0
M  V30 2552 H 248.224 -5.91969 -4.76946 0
M  V30 2553 N 249.799 1.42003 -0.683588 0
M  V30 2554 C 250.729 2.33487 -0.024866 0
M  V30 2555 C 251.71 1.51163 0.779975 0
M  V30 2556 O 252.895 1.79739 0.735362 0
M  V30 2557 C 250.025 3.3487 0.920836 0
M  V30 2558 C 248.979 4.27414 0.223958 0
M  V30 2559 C 248.305 5.19074 1.2832 0
M  V30 2560 C 249.605 5.14445 -0.90242 0
M  V30 2561 H 251.299 2.88819 -0.788921 0
M  V30 2562 H 248.845 1.38873 -0.38083 0
M  V30 2563 H 250.798 3.97787 1.39081 0
M  V30 2564 H 249.522 2.77861 1.71642 0
M  V30 2565 H 248.181 3.65904 -0.225864 0
M  V30 2566 H 247.829 4.58387 2.071 0
M  V30 2567 H 247.529 5.81822 0.821995 0
M  V30 2568 H 249.053 5.84867 1.75392 0
M  V30 2569 H 250.467 5.70998 -0.513272 0
M  V30 2570 H 248.864 5.86072 -1.28997 0
M  V30 2571 H 249.934 4.52322 -1.74737 0
M  V30 2572 N 251.277 0.427512 1.51691 0
M  V30 2573 C 252.505 -0.141191 2.06418 0
M  V30 2574 C 252.92 -1.37303 1.29589 0
M  V30 2575 O 252.277 -1.79059 0.352732 0
M  V30 2576 C 252.328 -0.473266 3.58389 0
M  V30 2577 O 252.049 0.709673 4.32314 0
M  V30 2578 C 253.55 -1.09371 4.29596 0
M  V30 2579 H 250.77 -0.0122747 0.670888 0
M  V30 2580 H 253.314 0.603764 1.95384 0
M  V30 2581 H 251.469 -1.16812 3.69369 0
M  V30 2582 H 251.883 0.42807 5.2275 0
M  V30 2583 H 253.357 -1.27613 5.37046 0
M  V30 2584 H 253.834 -2.072 3.87253 0
M  V30 2585 H 254.44 -0.43853 4.23033 0
M  V30 2586 N 252.755 -1.56801 0.158532 0
M  V30 2587 C 253.985 -2.00568 -0.495583 0
M  V30 2588 C 254.393 -1.03774 -1.58201 0
M  V30 2589 O 253.736 -0.0285797 -1.83678 0
M  V30 2590 C 253.798 -3.40768 -1.14532 0
M  V30 2591 C 253.462 -4.56553 -0.202101 0
M  V30 2592 C 254.459 -5.16714 0.574675 0
M  V30 2593 C 252.144 -5.02197 -0.101648 0
M  V30 2594 C 254.138 -6.20939 1.43924 0
M  V30 2595 C 251.825 -6.06274 0.766508 0
M  V30 2596 C 252.823 -6.65515 1.53555 0
M  V30 2597 O 252.511 -7.67575 2.38922 0
M  V30 2598 H 252.243 -0.662893 -0.13247 0
M  V30 2599 H 254.797 -2.03829 0.253559 0
M  V30 2600 H 253.027 -3.34381 -1.94233 0
M  V30 2601 H 254.716 -3.6857 -1.70033 0
M  V30 2602 H 255.482 -4.82341 0.507167 0
M  V30 2603 H 251.361 -4.55807 -0.689994 0
M  V30 2604 H 254.905 -6.67107 2.03996 0
M  V30 2605 H 250.802 -6.40073 0.835266 0
M  V30 2606 H 251.57 -7.84844 2.32296 0
M  V30 2607 N 254.233 0.115231 -1.57178 0
M  V30 2608 C 255.51 0.852873 -1.76027 0
M  V30 2609 C 255.89 1.97892 -0.73498 0
M  V30 2610 O 255.238 2.27232 0.24036 0
M  V30 2611 C 255.448 1.36608 -3.21153 0
M  V30 2612 C 256.796 1.81692 -3.83762 0
M  V30 2613 O 257.82 1.46278 -3.24779 0
M  V30 2614 O 256.679 2.47104 -4.87444 0
M  V30 2615 H 253.773 0.405296 -0.720877 0
M  V30 2616 H 256.319 0.0986785 -1.69413 0
M  V30 2617 H 255.091 0.558357 -3.87296 0
M  V30 2618 H 254.714 2.18287 -3.3232 0
M  V30 2619 N 255.711 1.52812 0.385517 0
M  V30 2620 C 256.674 1.77188 1.45386 0
M  V30 2621 C 257.674 0.641953 1.4743 0
M  V30 2622 O 258.864 0.910033 1.4854 0
M  V30 2623 C 255.996 1.87582 2.8465 0
M  V30 2624 H 257.189 2.72583 1.25054 0
M  V30 2625 H 254.742 1.43586 0.617467 0
M  V30 2626 H 255.477 0.941849 3.10322 0
M  V30 2627 H 255.262 2.69748 2.84567 0
M  V30 2628 H 256.752 2.08102 3.62054 0
M  V30 2629 N 257.189 -0.644168 1.43834 0
M  V30 2630 C 258.119 -1.76814 1.52509 0
M  V30 2631 C 259.1 -1.65823 0.379052 0
M  V30 2632 O 260.285 -1.84781 0.597466 0
M  V30 2633 C 257.415 -3.15288 1.4564 0
M  V30 2634 C 256.369 -3.41053 2.58586 0
M  V30 2635 C 255.695 -4.79421 2.36769 0
M  V30 2636 C 256.995 -3.34902 4.00797 0
M  V30 2637 H 258.689 -1.69812 2.46586 0
M  V30 2638 H 256.235 -0.815542 1.1868 0
M  V30 2639 H 258.188 -3.93681 1.50311 0
M  V30 2640 H 256.912 -3.23043 0.480725 0
M  V30 2641 H 255.571 -2.65035 2.53282 0
M  V30 2642 H 255.219 -4.83863 1.37424 0
M  V30 2643 H 254.919 -4.9762 3.12487 0
M  V30 2644 H 256.443 -5.6006 2.43238 0
M  V30 2645 H 257.857 -4.03218 4.07539 0
M  V30 2646 H 256.254 -3.64637 4.76613 0
M  V30 2647 H 257.324 -2.32928 4.25291 0
M  V30 2648 N 258.668 -1.30515 -0.883378 0
M  V30 2649 C 259.896 -1.22359 -1.66841 0
M  V30 2650 C 260.311 0.213296 -1.87591 0
M  V30 2651 O 259.668 1.14075 -1.42454 0
M  V30 2652 C 259.719 -1.95011 -3.04389 0
M  V30 2653 O 259.44 -3.3309 -2.84575 0
M  V30 2654 C 260.941 -1.93532 -3.98824 0
M  V30 2655 H 258.161 -0.423371 -0.520575 0
M  V30 2656 H 260.705 -1.72167 -1.10357 0
M  V30 2657 H 258.86 -1.48997 -3.57601 0
M  V30 2658 H 259.274 -3.69907 -3.71846 0
M  V30 2659 H 260.748 -2.48902 -4.92699 0
M  V30 2660 H 261.225 -0.914627 -4.29571 0
M  V30 2661 H 261.831 -2.39364 -3.51547 0
M  V30 2662 N 260.146 1.09593 -1.13257 0
M  V30 2663 C 261.562 1.33775 -0.870423 0
M  V30 2664 C 261.762 1.95327 0.494926 0
M  V30 2665 O 260.818 2.19853 1.2418 0
M  V30 2666 C 262.131 2.25106 -1.99369 0
M  V30 2667 C 263.679 2.3862 -2.02558 0
M  V30 2668 C 264.154 3.33285 -3.14142 0
M  V30 2669 N 265.645 3.40857 -3.13641 0
M  V30 2670 C 266.38 4.14101 -3.96621 0
M  V30 2671 N 265.876 4.90157 -4.8961 0
M  V30 2672 N 267.669 4.09808 -3.84726 0
M  V30 2673 H 259.82 0.680136 -2.01216 0
M  V30 2674 H 262.083 0.362133 -0.876107 0
M  V30 2675 H 261.789 1.87103 -2.97801 0
M  V30 2676 H 261.663 3.25481 -1.90635 0
M  V30 2677 H 264.05 2.75887 -1.0474 0
M  V30 2678 H 264.131 1.38028 -2.15364 0
M  V30 2679 H 263.775 2.96741 -4.12198 0
M  V30 2680 H 263.705 4.33776 -2.98574 0
M  V30 2681 H 266.196 2.86624 -2.46282 0
M  V30 2682 H 266.509 5.4347 -5.49418 0
M  V30 2683 H 264.854 4.89251 -4.93617 0
M  V30 2684 H 268.045 3.4949 -3.11408 0
M  V30 2685 H 268.218 4.66629 -4.49623 0
M  V30 2686 N 261.624 0.925811 1.2754 0
M  V30 2687 C 262.587 0.428129 2.25166 0
M  V30 2688 C 263.587 -0.452261 1.54309 0
M  V30 2689 O 264.777 -0.253608 1.72344 0
M  V30 2690 C 261.909 -0.384749 3.38722 0
M  V30 2691 H 263.102 1.29066 2.70706 0
M  V30 2692 H 260.655 0.706323 1.3943 0
M  V30 2693 H 261.39 -1.26618 2.98561 0
M  V30 2694 H 261.175 0.246454 3.91325 0
M  V30 2695 H 262.665 -0.723389 4.11287 0
M  V30 2696 N 263.102 -1.41638 0.69111 0
M  V30 2697 C 264.032 -2.3347 0.037248 0
M  V30 2698 C 265.013 -1.51575 -0.771947 0
M  V30 2699 O 266.198 -1.80126 -0.72582 0
M  V30 2700 C 263.328 -3.35354 -0.903064 0
M  V30 2701 C 262.282 -4.27526 -0.201288 0
M  V30 2702 C 261.608 -5.19747 -1.25565 0
M  V30 2703 C 262.908 -5.13959 0.929689 0
M  V30 2704 H 264.602 -2.88397 0.804227 0
M  V30 2705 H 262.148 -1.38669 0.388189 0
M  V30 2706 H 264.101 -3.98519 -1.36969 0
M  V30 2707 H 262.825 -2.78767 -1.70166 0
M  V30 2708 H 261.484 -3.65779 0.245265 0
M  V30 2709 H 261.132 -4.59479 -2.04666 0
M  V30 2710 H 260.832 -5.8225 -0.791128 0
M  V30 2711 H 262.356 -5.85789 -1.72288 0
M  V30 2712 H 263.77 -5.70718 0.543546 0
M  V30 2713 H 262.167 -5.85379 1.32103 0
M  V30 2714 H 263.237 -4.51389 1.77133 0
M  V30 2715 N 264.58 -0.43555 -1.51462 0
M  V30 2716 C 265.828 0.131254 -2.01673 0
M  V30 2717 C 266.149 1.43368 -1.32177 0
M  V30 2718 O 265.419 1.90524 -0.455769 0
M  V30 2719 H 263.999 0.0514954 -0.745223 0
M  V30 2720 H 266.661 -0.577847 -1.86137 0
M  V30 2721 H 265.757 0.308446 -3.10572 0
M  V30 2722 N 266.058 1.56714 -0.166846 0
M  V30 2723 C 267.298 1.98641 0.481763 0
M  V30 2724 C 267.662 1.05038 1.6072 0
M  V30 2725 O 268.863 1.36087 2.31805 0
M  V30 2726 C 267.134 3.44362 0.956517 0
M  V30 2727 S 268.693 4.08317 1.60694 0
M  V30 2728 H 265.511 0.693873 0.155116 0
M  V30 2729 H 268.113 1.93719 -0.263251 0
M  V30 2730 H 266.817 4.10204 0.126936 0
M  V30 2731 H 266.348 3.53041 1.73568 0
M  V30 2732 H 268.363 4.02999 2.89494 0
M  V30 2733 N 267.536 -0.106894 1.57237 0
M  V30 2734 C 268.446 -1.14911 2.0453 0
M  V30 2735 C 269.462 -1.44592 0.96795 0
M  V30 2736 O 270.638 -1.55468 1.2803 0
M  V30 2737 C 267.703 -2.45272 2.45036 0
M  V30 2738 C 266.764 -2.22879 3.66911 0
M  V30 2739 C 265.997 -3.47024 4.05475 0
M  V30 2740 O 266.22 -4.54804 3.44252 0
M  V30 2741 O 265.154 -3.3731 4.98504 0
M  V30 2742 H 268.98 -0.777461 2.9358 0
M  V30 2743 H 266.565 -0.318563 1.45964 0
M  V30 2744 H 268.447 -3.22055 2.71769 0
M  V30 2745 H 267.122 -2.81886 1.59129 0
M  V30 2746 H 266.029 -1.43915 3.45311 0
M  V30 2747 H 267.362 -1.91163 4.53561 0
M  V30 2748 N 269.014 -1.53014 -0.377408 0
M  V30 2749 C 270.425 -1.60438 -0.954798 0
M  V30 2750 C 270.776 -0.464418 -1.90624 0
M  V30 2751 O 269.901 0.41087 -2.12464 0
M  V30 2752 C 270.496 -2.90797 -1.73847 0
M  V30 2753 C 269.055 -3.00595 -2.26538 0
M  V30 2754 C 268.202 -2.55645 -1.07429 0
M  V30 2755 H 271.153 -1.57926 -0.156575 0
M  V30 2756 H 271.174 -2.77935 -2.5987 0
M  V30 2757 H 270.686 -3.73746 -1.04574 0
M  V30 2758 H 268.787 -2.22208 -2.99089 0
M  V30 2759 H 268.9 -4.05456 -2.5523 0
M  V30 2760 H 267.264 -2.10239 -1.43777 0
M  V30 2761 H 268.047 -3.41 -0.396728 0
M  V30 2762 N 270.492 0.636531 -1.44174 0
M  V30 2763 C 271.74 1.39343 -1.46383 0
M  V30 2764 C 272.061 1.94766 -0.0955715 0
M  V30 2765 O 271.331 1.75452 0.871395 0
M  V30 2766 H 269.911 0.517199 -0.538994 0
M  V30 2767 H 272.573 0.74957 -1.7991 0
M  V30 2768 H 271.669 2.22746 -2.18611 0
M  V30 2769 N 271.97 1.30982 0.876444 0
M  V30 2770 C 273.247 1.10942 1.61094 0
M  V30 2771 C 273.627 -0.338223 2.08373 0
M  V30 2772 O 272.975 -1.33122 1.85717 0
M  V30 2773 C 273.185 2.11789 2.77392 0
M  V30 2774 C 274.533 2.43965 3.47514 0
M  V30 2775 O 275.557 2.10166 2.87591 0
M  V30 2776 O 274.416 3.01817 4.55597 0
M  V30 2777 H 271.51 0.42667 0.708436 0
M  V30 2778 H 274.056 1.42438 0.922474 0
M  V30 2779 H 272.828 3.09194 2.39823 0
M  V30 2780 H 272.451 1.81161 3.5393 0
M  V30 2781 N 273.449 -1.08991 1.13837 0
M  V30 2782 C 274.865 -1.33312 0.877506 0
M  V30 2783 C 275.065 -1.95587 -0.48456 0
M  V30 2784 O 274.121 -2.20509 -1.23013 0
M  V30 2785 C 275.434 -2.24045 2.0056 0
M  V30 2786 C 276.982 -2.37542 2.03821 0
M  V30 2787 C 277.457 -3.31614 3.15905 0
M  V30 2788 N 278.948 -3.39189 3.15445 0
M  V30 2789 C 279.683 -4.11992 3.98811 0
M  V30 2790 N 279.179 -4.87553 4.92203 0
M  V30 2791 N 280.972 -4.07762 3.86894 0
M  V30 2792 H 273.123 -0.669456 2.01574 0
M  V30 2793 H 275.386 -0.357482 0.878015 0
M  V30 2794 H 275.092 -1.85521 2.98789 0
M  V30 2795 H 274.966 -3.24466 1.92359 0
M  V30 2796 H 277.353 -2.75327 1.06202 0
M  V30 2797 H 277.434 -1.36884 2.16093 0
M  V30 2798 H 277.078 -2.94551 4.13766 0
M  V30 2799 H 277.008 -4.32186 3.0087 0
M  V30 2800 H 279.499 -2.85314 2.47799 0
M  V30 2801 H 279.812 -5.40549 5.52292 0
M  V30 2802 H 278.157 -4.86627 4.96205 0
M  V30 2803 H 281.348 -3.47833 3.13257 0
M  V30 2804 H 281.521 -4.64238 4.52092 0
M  V30 2805 N 274.927 -0.932562 -1.27047 0
M  V30 2806 C 275.857 -0.452902 -2.29066 0
M  V30 2807 C 276.838 0.489338 -1.62909 0
M  V30 2808 O 278.023 0.393046 -1.90181 0
M  V30 2809 C 275.153 0.290698 -3.46081 0
M  V30 2810 C 274.107 -0.564168 -4.24265 0
M  V30 2811 C 273.433 0.308886 -5.33807 0
M  V30 2812 C 274.733 -1.83112 -4.89149 0
M  V30 2813 H 276.427 -1.30552 -2.69437 0
M  V30 2814 H 273.973 -0.629201 -1.29526 0
M  V30 2815 H 275.926 0.637233 -4.16554 0
M  V30 2816 H 274.65 1.17738 -3.0464 0
M  V30 2817 H 273.309 -0.893477 -3.55545 0
M  V30 2818 H 272.957 1.19467 -4.88607 0
M  V30 2819 H 272.657 -0.259633 -5.87026 0
M  V30 2820 H 274.181 0.650884 -6.07121 0
M  V30 2821 H 275.595 -1.55236 -5.51883 0
M  V30 2822 H 273.992 -2.34353 -5.52448 0
M  V30 2823 H 275.062 -2.54772 -4.12576 0
M  V30 2824 N 276.405 1.4127 -0.698611 0
M  V30 2825 C 277.335 2.33447 -0.049629 0
M  V30 2826 C 278.316 1.51982 0.763898 0
M  V30 2827 O 279.501 1.80509 0.716257 0
M  V30 2828 C 276.631 3.35828 0.885267 0
M  V30 2829 C 275.585 4.27627 0.178613 0
M  V30 2830 C 274.911 5.20406 1.22807 0
M  V30 2831 C 276.211 5.13459 -0.956933 0
M  V30 2832 H 277.905 2.87966 -0.81951 0
M  V30 2833 H 275.451 1.38461 -0.395538 0
M  V30 2834 H 277.404 3.9924 1.34854 0
M  V30 2835 H 276.128 2.79666 1.68685 0
M  V30 2836 H 274.787 3.65643 -0.26466 0
M  V30 2837 H 274.435 4.60558 2.02226 0
M  V30 2838 H 274.135 5.82661 0.760239 0
M  V30 2839 H 275.659 5.86695 1.69179 0
M  V30 2840 H 277.073 5.70421 -0.573805 0
M  V30 2841 H 275.47 5.8467 -1.35205 0
M  V30 2842 H 276.54 4.50443 -1.79524 0
M  V30 2843 N 277.883 0.443576 1.51229 0
M  V30 2844 C 279.129 -0.120975 2.02439 0
M  V30 2845 C 279.462 -1.41815 1.32674 0
M  V30 2846 O 278.737 -1.89373 0.443622 0
M  V30 2847 C 279.02 -0.333291 3.58554 0
M  V30 2848 C 278.873 0.982968 4.38928 0
M  V30 2849 C 280.192 -1.10028 4.26124 0
M  V30 2850 H 277.311 -0.0424923 0.735774 0
M  V30 2851 H 279.953 0.583794 1.80809 0
M  V30 2852 H 278.103 -0.933614 3.77115 0
M  V30 2853 H 279.775 1.61775 4.32003 0
M  V30 2854 H 278.018 1.58611 4.03763 0
M  V30 2855 H 278.689 0.788379 5.46341 0
M  V30 2856 H 281.165 -0.591711 4.11871 0
M  V30 2857 H 280.041 -1.21761 5.35225 0
M  V30 2858 H 280.302 -2.12996 3.87408 0
M  V30 2859 N 279.361 -1.56624 0.175154 0
M  V30 2860 C 280.772 -1.83561 -0.340916 0
M  V30 2861 C 281.123 -1.09511 -1.62794 0
M  V30 2862 O 280.248 -0.349389 -2.13561 0
M  V30 2863 C 280.843 -3.32979 -0.625313 0
M  V30 2864 C 279.402 -3.60399 -1.08581 0
M  V30 2865 C 278.549 -2.77024 -0.123722 0
M  V30 2866 H 281.5 -1.53593 0.399344 0
M  V30 2867 H 281.521 -3.50666 -1.47694 0
M  V30 2868 H 281.033 -3.86847 0.311575 0
M  V30 2869 H 279.134 -3.11945 -2.03767 0
M  V30 2870 H 279.247 -4.68711 -0.992317 0
M  V30 2871 H 277.611 -2.46993 -0.621821 0
M  V30 2872 H 278.394 -3.33674 0.807256 0
M  V30 2873 N 280.839 0.0985539 -1.57292 0
M  V30 2874 C 281.786 1.11981 -2.01814 0
M  V30 2875 C 282.756 1.39999 -0.89384 0
M  V30 2876 O 283.941 1.5152 -1.15958 0
M  V30 2877 C 281.081 2.43577 -2.44467 0
M  V30 2878 C 280.194 2.2232 -3.70402 0
M  V30 2879 C 279.329 3.4729 -4.01949 0
M  V30 2880 C 278.368 3.2128 -5.21005 0
M  V30 2881 N 277.505 4.38507 -5.48321 0
M  V30 2882 H 282.345 0.733149 -2.88841 0
M  V30 2883 H 279.882 0.350482 -1.42864 0
M  V30 2884 H 281.84 3.20373 -2.6724 0
M  V30 2885 H 280.47 2.80097 -1.60455 0
M  V30 2886 H 279.522 1.36343 -3.55126 0
M  V30 2887 H 280.834 1.99089 -4.57345 0
M  V30 2888 H 279.988 4.32495 -4.25479 0
M  V30 2889 H 278.727 3.73572 -3.13521 0
M  V30 2890 H 277.732 2.34468 -4.97298 0
M  V30 2891 H 278.957 2.96348 -6.11028 0
M  V30 2892 H 276.903 4.64871 -4.62851 0
M  V30 2893 H 276.82 4.18455 -6.29628 0
M  V30 2894 H 278.088 5.24787 -5.76385 0
M  V30 2895 N 282.317 1.53212 0.369288 0
M  V30 2896 C 283.247 1.82365 1.45826 0
M  V30 2897 C 284.228 0.676907 1.56051 0
M  V30 2898 O 285.413 0.926401 1.70679 0
M  V30 2899 C 282.543 2.01023 2.83208 0
M  V30 2900 C 281.497 3.1678 2.8781 0
M  V30 2901 C 280.823 3.20724 4.27832 0
M  V30 2902 C 282.123 4.55447 2.55667 0
M  V30 2903 H 283.817 2.73559 1.21678 0
M  V30 2904 H 281.363 1.3163 0.583911 0
M  V30 2905 H 283.316 2.20001 3.59413 0
M  V30 2906 H 282.04 1.06536 3.08736 0
M  V30 2907 H 280.699 2.97616 2.14056 0
M  V30 2908 H 280.347 2.23882 4.50429 0
M  V30 2909 H 280.047 3.98496 4.31827 0
M  V30 2910 H 281.571 3.41881 5.05915 0
M  V30 2911 H 282.985 4.74611 3.21586 0
M  V30 2912 H 281.382 5.35432 2.70984 0
M  V30 2913 H 282.452 4.60812 1.5093 0
M  V30 2914 N 283.795 -0.628877 1.44509 0
M  V30 2915 C 284.725 -1.75187 1.54376 0
M  V30 2916 C 285.706 -1.65411 0.396618 0
M  V30 2917 O 286.891 -1.84137 0.617031 0
M  V30 2918 C 284.021 -3.13725 1.48976 0
M  V30 2919 C 282.975 -3.38291 2.62189 0
M  V30 2920 C 282.301 -4.76883 2.41841 0
M  V30 2921 C 283.601 -3.30632 4.04326 0
M  V30 2922 H 285.295 -1.67187 2.48373 0
M  V30 2923 H 282.841 -0.802909 1.19538 0
M  V30 2924 H 284.794 -3.92064 1.54478 0
M  V30 2925 H 283.518 -3.22515 0.514961 0
M  V30 2926 H 282.177 -2.62334 2.56079 0
M  V30 2927 H 281.825 -4.82378 1.42548 0
M  V30 2928 H 281.525 -4.94278 3.17747 0
M  V30 2929 H 283.049 -5.57449 2.49165 0
M  V30 2930 H 284.463 -3.98873 4.11793 0
M  V30 2931 H 282.86 -3.59561 4.80454 0
M  V30 2932 H 283.93 -2.28404 4.27738 0
M  V30 2933 N 285.273 -1.31445 -0.869486 0
M  V30 2934 C 286.203 -1.21727 -1.99261 0
M  V30 2935 C 287.184 -0.104359 -1.6978 0
M  V30 2936 O 288.369 -0.289038 -1.92037 0
M  V30 2937 C 285.499 -0.924317 -3.34774 0
M  V30 2938 C 284.453 -1.99685 -3.78563 0
M  V30 2939 C 283.779 -1.55658 -5.11541 0
M  V30 2940 C 285.079 -3.41003 -3.95619 0
M  V30 2941 H 286.773 -2.1569 -2.07649 0
M  V30 2942 H 284.319 -1.03839 -0.997675 0
M  V30 2943 H 286.272 -0.842934 -4.12883 0
M  V30 2944 H 284.996 0.0509793 -3.2656 0
M  V30 2945 H 283.655 -2.06813 -3.02694 0
M  V30 2946 H 283.303 -0.569132 -4.9977 0
M  V30 2947 H 283.003 -2.27409 -5.41811 0
M  V30 2948 H 284.527 -1.48928 -5.92159 0
M  V30 2949 H 285.941 -3.36547 -4.64122 0
M  V30 2950 H 284.338 -4.10975 -4.37286 0
M  V30 2951 H 285.408 -3.81754 -2.98985 0
M  V30 2952 N 286.751 1.08385 -1.14413 0
M  V30 2953 C 287.714 2.13486 -0.834048 0
M  V30 2954 C 288.714 1.59988 0.161418 0
M  V30 2955 O 289.904 1.74071 -0.0669575 0
M  V30 2956 C 287.036 3.4003 -0.243354 0
M  V30 2957 H 288.229 2.42425 -1.7655 0
M  V30 2958 H 285.782 1.24101 -0.950189 0
M  V30 2959 H 286.517 3.16726 0.696807 0
M  V30 2960 H 286.302 3.80157 -0.960367 0
M  V30 2961 H 287.792 4.17577 -0.0436242 0
M  V30 2962 N 288.23 0.939286 1.26551 0
M  V30 2963 C 289.478 0.58469 1.93457 0
M  V30 2964 C 289.799 -0.878774 1.74076 0
M  V30 2965 O 289.069 -1.62421 1.09528 0
M  V30 2966 H 287.649 0.21325 0.715914 0
M  V30 2967 H 290.311 1.1942 1.54029 0
M  V30 2968 H 289.407 0.800849 3.0165 0
M  V30 2969 N 289.708 -1.40897 0.706093 0
M  V30 2970 C 290.956 -2.00657 0.241054 0
M  V30 2971 C 291.277 -1.56241 -1.16678 0
M  V30 2972 O 290.547 -0.79765 -1.78926 0
M  V30 2973 H 289.127 -0.742018 0.0861308 0
M  V30 2974 H 291.789 -1.72372 0.909604 0
M  V30 2975 H 290.885 -3.10958 0.266705 0
M  V30 2976 N 291.186 -0.45159 -1.50991 0
M  V30 2977 C 292.414 0.108334 -2.06616 0
M  V30 2978 C 292.829 1.35224 -1.31757 0
M  V30 2979 O 292.186 1.78475 -0.381174 0
M  V30 2980 C 292.237 0.41619 -3.59096 0
M  V30 2981 O 291.958 -0.778361 -4.3113 0
M  V30 2982 C 293.459 1.02523 -4.31282 0
M  V30 2983 H 290.679 0.00159995 -0.670998 0
M  V30 2984 H 293.223 -0.634771 -1.94399 0
M  V30 2985 H 291.378 1.10921 -3.71181 0
M  V30 2986 H 291.792 -0.511181 -5.22003 0
M  V30 2987 H 293.266 1.19053 -5.39009 0
M  V30 2988 H 293.743 2.01013 -3.905 0
M  V30 2989 H 294.349 0.371173 -4.23677 0
M  V30 2990 N 292.664 1.56529 -0.183458 0
M  V30 2991 C 293.889 2.02064 0.467428 0
M  V30 2992 C 294.314 1.06282 1.55196 0
M  V30 2993 O 293.672 0.0443565 1.81246 0
M  V30 2994 C 293.72 3.46122 1.01153 0
M  V30 2995 O 292.824 3.53437 2.12499 0
M  V30 2996 H 292.165 0.654726 0.110588 0
M  V30 2997 H 294.695 2.02521 -0.290917 0
M  V30 2998 H 294.705 3.85676 1.33108 0
M  V30 2999 H 293.38 4.15331 0.217533 0
M  V30 3000 H 291.957 3.2575 1.81497 0
M  V30 3001 N 294.142 -0.090211 1.57342 0
M  V30 3002 C 295.39 -0.791241 1.85967 0
M  V30 3003 C 295.711 -1.7903 0.772859 0
M  V30 3004 O 294.981 -1.94872 -0.200398 0
M  V30 3005 H 293.561 -0.295205 0.686195 0
M  V30 3006 H 296.223 -0.0706782 1.94772 0
M  V30 3007 H 295.319 -1.31882 2.82867 0
M  V30 3008 N 295.62 -1.53406 -0.361157 0
M  V30 3009 C 296.869 -1.69022 -1.10066 0
M  V30 3010 C 297.182 -0.450838 -1.90333 0
M  V30 3011 O 298.388 -0.487617 -2.67085 0
M  V30 3012 C 296.844 -2.98812 -2.00598 0
M  V30 3013 C 296.452 -4.30027 -1.25621 0
M  V30 3014 C 298.196 -3.23795 -2.74513 0
M  V30 3015 C 296.103 -5.50903 -2.1508 0
M  V30 3016 H 295.033 -0.629776 -0.414606 0
M  V30 3017 H 297.684 -1.79907 -0.361348 0
M  V30 3018 H 296.066 -2.8174 -2.78278 0
M  V30 3019 H 297.24 -4.57745 -0.529739 0
M  V30 3020 H 295.555 -4.11522 -0.635496 0
M  V30 3021 H 298.152 -4.11289 -3.41681 0
M  V30 3022 H 298.495 -2.40045 -3.40123 0
M  V30 3023 H 299.028 -3.41561 -2.03914 0
M  V30 3024 H 295.767 -6.37143 -1.54041 0
M  V30 3025 H 295.287 -5.27459 -2.85565 0
M  V30 3026 H 296.966 -5.85865 -2.74538 0
M  V30 3027 N 297.098 0.621204 -1.44841 0
M  V30 3028 C 298.344 1.3826 -1.48365 0
M  V30 3029 C 298.677 1.93831 -0.119624 0
M  V30 3030 O 297.952 1.74251 0.864111 0
M  V30 3031 C 298.235 2.54058 -2.55199 0
M  V30 3032 C 298.088 2.03772 -4.00995 0
M  V30 3033 C 299.407 3.56225 -2.58442 0
M  V30 3034 H 296.526 0.501374 -0.540179 0
M  V30 3035 H 299.168 0.7015 -1.76576 0
M  V30 3036 H 297.318 3.12162 -2.31274 0
M  V30 3037 H 298.99 1.50423 -4.36086 0
M  V30 3038 H 297.233 1.34876 -4.12299 0
M  V30 3039 H 297.904 2.87185 -4.71411 0
M  V30 3040 H 300.38 3.07939 -2.79844 0
M  V30 3041 H 299.256 4.34756 -3.3508 0
M  V30 3042 H 299.517 4.10949 -1.63013 0
M  V30 3043 N 298.576 1.31904 0.862503 0
M  V30 3044 C 299.801 1.25135 1.65397 0
M  V30 3045 C 300.226 -0.179 1.87246 0
M  V30 3046 O 299.584 -1.1277 1.4196 0
M  V30 3047 C 299.632 2.00832 2.99498 0
M  V30 3048 O 298.736 1.35075 3.89652 0
M  V30 3049 H 298.077 0.431655 0.504549 0
M  V30 3050 H 300.607 1.74094 1.07483 0
M  V30 3051 H 300.617 2.10709 3.49379 0
M  V30 3052 H 299.292 3.04847 2.82916 0
M  V30 3053 H 297.869 1.33696 3.48109 0
M  V30 3054 N 300.054 -1.07777 1.14986 0
M  V30 3055 C 301.3 -1.80719 0.93339 0
M  V30 3056 C 301.655 -1.8484 -0.534019 0
M  V30 3057 O 300.948 -1.31795 -1.3907 0
M  V30 3058 C 301.142 -3.25495 1.47608 0
M  V30 3059 C 300.971 -3.3548 2.99472 0
M  V30 3060 C 299.741 -3.46293 3.6798 0
M  V30 3061 C 301.939 -3.26596 3.97291 0
M  V30 3062 N 299.921 -3.45136 5.07695 0
M  V30 3063 C 301.292 -3.32506 5.23297 0
M  V30 3064 C 303.347 -3.10376 3.89321 0
M  V30 3065 C 302.05 -3.23866 6.42264 0
M  V30 3066 C 304.076 -3.03069 5.07842 0
M  V30 3067 C 303.438 -3.09587 6.32721 0
M  V30 3068 H 299.537 -0.674814 0.395158 0
M  V30 3069 H 302.121 -1.28681 1.46114 0
M  V30 3070 H 300.292 -3.75963 0.975022 0
M  V30 3071 H 302.024 -3.86535 1.19887 0
M  V30 3072 H 298.779 -3.50456 3.18555 0
M  V30 3073 H 299.203 -3.48097 5.80653 0
M  V30 3074 H 303.845 -3.04194 2.93642 0
M  V30 3075 H 301.563 -3.28807 7.38181 0
M  V30 3076 H 305.149 -2.91629 5.03432 0
M  V30 3077 H 304.029 -3.0397 7.22891 0
M  V30 3078 N 301.532 -0.945985 -1.26051 0
M  V30 3079 C 302.462 -0.477172 -2.28572 0
M  V30 3080 C 303.443 0.472032 -1.63419 0
M  V30 3081 O 304.628 0.372853 -1.90587 0
M  V30 3082 C 301.758 0.253975 -3.4637 0
M  V30 3083 C 300.712 -0.609135 -4.23643 0
M  V30 3084 C 300.038 0.252252 -5.34105 0
M  V30 3085 C 301.338 -1.8829 -4.8718 0
M  V30 3086 H 303.032 -1.33402 -2.68038 0
M  V30 3087 H 300.578 -0.642904 -1.28852 0
M  V30 3088 H 302.531 0.593016 -4.17207 0
M  V30 3089 H 301.255 1.145 -3.05871 0
M  V30 3090 H 299.914 -0.931138 -3.54578 0
M  V30 3091 H 299.562 1.14278 -4.89846 0
M  V30 3092 H 299.262 -0.32188 -5.86718 0
M  V30 3093 H 300.786 0.586454 -6.07777 0
M  V30 3094 H 302.2 -1.61081 -5.50205 0
M  V30 3095 H 300.597 -2.40199 -5.49931 0
M  V30 3096 H 301.667 -2.59134 -4.09851 0
M  V30 3097 N 303.011 1.40521 -0.713556 0
M  V30 3098 C 304.236 2.05759 -0.26035 0
M  V30 3099 C 304.661 1.53403 1.08854 0
M  V30 3100 O 304.019 0.668535 1.68524 0
M  V30 3101 C 304.067 3.59745 -0.248122 0
M  V30 3102 O 303.171 4.05123 0.77131 0
M  V30 3103 H 302.512 0.652564 -0.122703 0
M  V30 3104 H 305.042 1.79958 -0.973467 0
M  V30 3105 H 305.052 4.07911 -0.0851129 0
M  V30 3106 H 303.727 3.97218 -1.2325 0
M  V30 3107 H 302.304 3.68422 0.57619 0
M  V30 3108 N 304.489 0.459591 1.5075 0
M  V30 3109 C 305.717 -0.0973749 2.06671 0
M  V30 3110 C 306.132 -1.34524 1.32472 0
M  V30 3111 O 305.489 -1.7827 0.390634 0
M  V30 3112 C 305.54 -0.39714 3.59312 0
M  V30 3113 O 305.261 0.801214 4.30711 0
M  V30 3114 C 306.762 -1.00234 4.31819 0
M  V30 3115 H 303.982 0.00195854 0.670997 0
M  V30 3116 H 306.526 0.645072 1.94059 0
M  V30 3117 H 304.681 -1.08951 3.71764 0
M  V30 3118 H 305.095 0.538857 5.21725 0
M  V30 3119 H 306.569 -1.16193 5.39632 0
M  V30 3120 H 307.046 -1.98939 3.91561 0
M  V30 3121 H 307.652 -0.348699 4.23868 0
M  V30 3122 N 305.967 -1.56429 0.191757 0
M  V30 3123 C 307.197 -2.01574 -0.452928 0
M  V30 3124 C 307.605 -1.07107 -1.55964 0
M  V30 3125 O 306.948 -0.067534 -1.83576 0
M  V30 3126 C 307.01 -3.43121 -1.07278 0
M  V30 3127 C 306.674 -4.56879 -0.105214 0
M  V30 3128 C 307.671 -5.15379 0.684149 0
M  V30 3129 C 305.356 -5.023 0.00489824 0
M  V30 3130 C 307.35 -6.17746 1.57062 0
M  V30 3131 C 305.037 -6.04511 0.894935 0
M  V30 3132 C 306.035 -6.62108 1.67637 0
M  V30 3133 O 305.723 -7.62335 2.55149 0
M  V30 3134 H 305.455 -0.665554 -0.118379 0
M  V30 3135 H 308.009 -2.03245 0.296737 0
M  V30 3136 H 306.239 -3.38425 -1.87097 0
M  V30 3137 H 307.928 -3.72093 -1.62177 0
M  V30 3138 H 308.694 -4.81157 0.609365 0
M  V30 3139 H 304.573 -4.57168 -0.593156 0
M  V30 3140 H 308.117 -6.6263 2.181 0
M  V30 3141 H 304.014 -6.38157 0.970847 0
M  V30 3142 H 304.782 -7.79741 2.48892 0
M  V30 3143 N 307.445 0.0818655 -1.57387 0
M  V30 3144 C 308.856 0.634871 -1.75574 0
M  V30 3145 C 309.207 1.78435 -0.815809 0
M  V30 3146 O 308.332 2.164 0.0025366 0
M  V30 3147 C 308.927 1.15845 -3.18379 0
M  V30 3148 C 307.486 1.65741 -3.37945 0
M  V30 3149 C 306.633 0.572549 -2.71325 0
M  V30 3150 H 309.584 -0.144268 -1.58043 0
M  V30 3151 H 309.605 2.02751 -3.21982 0
M  V30 3152 H 309.117 0.321631 -3.86765 0
M  V30 3153 H 307.218 2.51781 -2.74658 0
M  V30 3154 H 307.331 1.74129 -4.46336 0
M  V30 3155 H 305.695 1.01518 -2.33594 0
M  V30 3156 H 306.478 -0.253918 -3.4236 0
M  V30 3157 N 308.923 1.53595 0.353017 0
M  V30 3158 C 310.169 1.70638 1.09593 0
M  V30 3159 C 310.502 0.463286 1.88593 0
M  V30 3160 O 309.777 -0.539597 1.86865 0
M  V30 3161 C 310.06 2.96406 2.04489 0
M  V30 3162 C 309.913 4.30901 1.29014 0
M  V30 3163 C 311.232 3.17812 3.0444 0
M  V30 3164 H 308.351 0.620913 0.397034 0
M  V30 3165 H 310.993 1.86254 0.375446 0
M  V30 3166 H 309.143 2.83223 2.65927 0
M  V30 3167 H 310.815 4.55917 0.702638 0
M  V30 3168 H 309.058 4.29741 0.592071 0
M  V30 3169 H 309.729 5.1506 1.98537 0
M  V30 3170 H 312.205 3.30263 2.53112 0
M  V30 3171 H 311.081 4.07223 3.6805 0
M  V30 3172 H 311.342 2.33669 3.75301 0
M  V30 3173 N 310.401 -0.613514 1.45168 0
M  V30 3174 C 311.678 -1.37263 1.39349 0
M  V30 3175 C 312.058 -2.11012 0.0610848 0
M  V30 3176 O 311.406 -2.07502 -0.956825 0
M  V30 3177 C 311.616 -2.3244 2.60332 0
M  V30 3178 C 312.964 -2.9523 3.05163 0
M  V30 3179 O 313.988 -2.42762 2.60663 0
M  V30 3180 O 312.847 -3.90454 3.82372 0
M  V30 3181 H 309.941 -0.615188 0.552696 0
M  V30 3182 H 312.487 -0.637097 1.57287 0
M  V30 3183 H 311.259 -1.77164 3.48896 0
M  V30 3184 H 310.882 -3.13383 2.44698 0
M  V30 3185 N 311.879 -1.3236 -0.855495 0
M  V30 3186 C 313.125 -1.23054 -1.612 0
M  V30 3187 C 313.458 0.207404 -1.93089 0
M  V30 3188 O 312.733 1.14432 -1.57275 0
M  V30 3189 C 313.016 -2.08937 -2.93287 0
M  V30 3190 C 312.869 -3.61105 -2.68185 0
M  V30 3191 C 314.188 -1.94986 -3.94549 0
M  V30 3192 H 311.307 -0.448364 -0.584926 0
M  V30 3193 H 313.949 -1.62297 -0.987917 0
M  V30 3194 H 312.099 -1.75599 -3.46551 0
M  V30 3195 H 313.771 -4.04652 -2.21483 0
M  V30 3196 H 312.014 -3.83813 -2.02164 0
M  V30 3197 H 312.685 -4.16522 -3.62234 0
M  V30 3198 H 315.161 -2.24189 -3.5054 0
M  V30 3199 H 314.037 -2.57356 -4.84829 0
M  V30 3200 H 314.298 -0.917263 -4.3248 0
M  V30 3201 N 313.357 1.07166 -1.15556 0
M  V30 3202 C 314.603 1.80065 -0.932984 0
M  V30 3203 C 314.936 1.86586 0.53845 0
M  V30 3204 O 314.211 1.35098 1.39924 0
M  V30 3205 C 314.494 3.25022 -1.55025 0
M  V30 3206 C 314.347 3.26634 -3.09242 0
M  V30 3207 C 315.666 4.22341 -1.2376 0
M  V30 3208 H 312.785 0.653697 -0.340366 0
M  V30 3209 H 315.427 1.25389 -1.4275 0
M  V30 3210 H 313.577 3.71712 -1.12972 0
M  V30 3211 H 315.249 2.88173 -3.60214 0
M  V30 3212 H 313.492 2.65539 -3.43033 0
M  V30 3213 H 314.163 4.28854 -3.47546 0
M  V30 3214 H 316.639 3.8405 -1.60139 0
M  V30 3215 H 315.515 5.22053 -1.69564 0
M  V30 3216 H 315.776 4.41828 -0.154938 0
M  V30 3217 N 314.835 0.952656 1.25548 0
M  V30 3218 C 315.782 0.47008 2.25962 0
M  V30 3219 C 316.752 -0.476384 1.59122 0
M  V30 3220 O 317.937 -0.39007 1.8677 0
M  V30 3221 C 315.077 -0.247881 3.44209 0
M  V30 3222 C 314.19 0.735591 4.25691 0
M  V30 3223 C 313.325 -0.0047306 5.312 0
M  V30 3224 C 312.364 0.969805 6.04368 0
M  V30 3225 N 311.501 0.260486 7.01617 0
M  V30 3226 H 316.341 1.33126 2.66611 0
M  V30 3227 H 313.878 0.66765 1.31076 0
M  V30 3228 H 315.836 -0.680695 4.1161 0
M  V30 3229 H 314.466 -1.07312 3.0444 0
M  V30 3230 H 313.518 1.28689 3.57971 0
M  V30 3231 H 314.83 1.47934 4.76358 0
M  V30 3232 H 313.984 -0.496275 6.04667 0
M  V30 3233 H 312.723 -0.781282 4.81401 0
M  V30 3234 H 311.728 1.47237 5.29718 0
M  V30 3235 H 312.953 1.74655 6.56256 0
M  V30 3236 H 310.899 -0.497364 6.54112 0
M  V30 3237 H 310.816 0.943362 7.50091 0
M  V30 3238 H 312.084 -0.209587 7.79218 0
M  V30 3239 N 316.313 -1.40141 0.720998 0
M  V30 3240 C 317.538 -2.05618 0.271258 0
M  V30 3241 C 317.963 -1.53978 -1.08039 0
M  V30 3242 O 317.321 -0.677463 -1.68167 0
M  V30 3243 C 317.369 -3.59609 0.267197 0
M  V30 3244 O 316.473 -4.05526 -0.749814 0
M  V30 3245 H 315.814 -0.651904 0.126162 0
M  V30 3246 H 318.344 -1.79439 0.982997 0
M  V30 3247 H 318.354 -4.0786 0.106744 0
M  V30 3248 H 317.029 -3.96559 1.25354 0
M  V30 3249 H 315.606 -3.68722 -0.556644 0
M  V30 3250 N 317.792 -0.46758 -1.50504 0
M  V30 3251 C 319.208 -0.121533 -1.59137 0
M  V30 3252 C 319.408 1.3717 -1.47603 0
M  V30 3253 O 318.464 2.14464 -1.33272 0
M  V30 3254 C 319.777 -0.6686 -2.93173 0
M  V30 3255 C 321.325 -0.631716 -3.06559 0
M  V30 3256 C 321.8 -1.15627 -4.43164 0
M  V30 3257 N 323.291 -1.11553 -4.49567 0
M  V30 3258 C 324.026 -1.49195 -5.5365 0
M  V30 3259 N 323.522 -1.94269 -6.65005 0
M  V30 3260 N 325.315 -1.4082 -5.44175 0
M  V30 3261 H 317.466 -1.4388 -1.56245 0
M  V30 3262 H 319.729 -0.594784 -0.738198 0
M  V30 3263 H 319.435 -1.71453 -3.07078 0
M  V30 3264 H 319.309 -0.11021 -3.77039 0
M  V30 3265 H 321.696 0.405297 -2.92304 0
M  V30 3266 H 321.777 -1.22687 -2.24458 0
M  V30 3267 H 321.421 -2.1919 -4.58168 0
M  V30 3268 H 321.351 -0.537365 -5.23851 0
M  V30 3269 H 323.842 -0.784895 -3.69659 0
M  V30 3270 H 324.155 -2.21148 -7.40482 0
M  V30 3271 H 322.5 -1.98219 -6.66134 0
M  V30 3272 H 325.691 -1.0545 -4.56068 0
M  V30 3273 H 325.864 -1.70481 -6.25172 0
M  V30 3274 N 319.27 1.56325 -0.20005 0
M  V30 3275 C 320.2 2.22318 0.713916 0
M  V30 3276 C 321.181 1.18788 1.21752 0
M  V30 3277 O 322.366 1.47309 1.26545 0
M  V30 3278 C 319.496 2.88639 1.93144 0
M  V30 3279 C 318.45 3.98457 1.56255 0
M  V30 3280 C 317.776 4.51967 2.85709 0
M  V30 3281 C 319.076 5.16612 0.768747 0
M  V30 3282 H 320.77 2.98952 0.163755 0
M  V30 3283 H 318.316 1.43792 0.0773219 0
M  V30 3284 H 320.269 3.33491 2.57608 0
M  V30 3285 H 318.993 2.09419 2.50621 0
M  V30 3286 H 317.652 3.54305 0.941471 0
M  V30 3287 H 317.3 3.69503 3.41287 0
M  V30 3288 H 317 5.26071 2.6177 0
M  V30 3289 H 318.524 4.99523 3.51154 0
M  V30 3290 H 319.938 5.57977 1.3166 0
M  V30 3291 H 318.335 5.96812 0.627286 0
M  V30 3292 H 319.405 4.84358 -0.229168 0
M  V30 3293 N 320.748 -0.0735177 1.57428 0
M  V30 3294 C 321.68 -1.11423 2.00294 0
M  V30 3295 C 322.693 -1.35084 0.908637 0
M  V30 3296 O 323.882 -1.33355 1.18654 0
M  V30 3297 C 320.982 -2.46548 2.32523 0
M  V30 3298 C 320.155 -2.42867 3.63778 0
M  V30 3299 C 319.214 -3.60087 3.83697 0
M  V30 3300 O 318.24 -3.41595 4.55304 0
M  V30 3301 N 319.442 -4.80372 3.25919 0
M  V30 3302 H 322.207 -0.749206 2.90184 0
M  V30 3303 H 319.768 -0.262195 1.59763 0
M  V30 3304 H 321.76 -3.23607 2.43024 0
M  V30 3305 H 320.33 -2.75059 1.48531 0
M  V30 3306 H 319.55 -1.51206 3.64047 0
M  V30 3307 H 320.838 -2.37506 4.49965 0
M  V30 3308 H 320.236 -4.983 2.67795 0
M  V30 3309 H 318.793 -5.54948 3.41871 0
M  V30 3310 N 322.226 -1.5378 -0.344866 0
M  V30 3311 C 323.189 -1.80981 -1.40637 0
M  V30 3312 C 324.189 -0.680816 -1.45676 0
M  V30 3313 O 325.379 -0.949095 -1.46075 0
M  V30 3314 C 322.511 -1.95063 -2.79577 0
M  V30 3315 H 323.704 -2.75803 -1.17783 0
M  V30 3316 H 321.257 -1.45173 -0.579181 0
M  V30 3317 H 321.992 -1.02379 -3.07716 0
M  V30 3318 H 321.777 -2.77198 -2.77315 0
M  V30 3319 H 323.267 -2.17629 -3.56409 0
M  V30 3320 N 323.704 0.605807 -1.45491 0
M  V30 3321 C 324.981 1.36522 -1.40075 0
M  V30 3322 C 325.361 2.10976 -0.0722744 0
M  V30 3323 O 324.709 2.08007 0.945808 0
M  V30 3324 C 324.919 2.31056 -2.61561 0
M  V30 3325 C 326.267 2.93608 -3.06724 0
M  V30 3326 O 327.291 2.41376 -2.61946 0
M  V30 3327 O 326.15 3.88421 -3.84437 0
M  V30 3328 H 323.244 0.612248 -0.555951 0
M  V30 3329 H 325.79 0.628747 -1.57623 0
M  V30 3330 H 324.562 1.75311 -3.49831 0
M  V30 3331 H 324.185 3.12081 -2.46356 0
M  V30 3332 N 325.182 1.32811 0.848464 0
M  V30 3333 C 326.43 1.23479 1.59991 0
M  V30 3334 C 326.751 -0.201853 1.93952 0
M  V30 3335 O 326.021 -1.12818 1.60153 0
M  V30 3336 H 324.601 0.454034 0.593179 0
M  V30 3337 H 327.263 1.66412 1.01455 0
M  V30 3338 H 326.359 1.82178 2.53412 0
M  V30 3339 N 326.66 -1.06551 1.16123 0
M  V30 3340 C 327.59 -2.15935 0.88851 0
M  V30 3341 C 328.571 -1.69306 -0.164135 0
M  V30 3342 O 329.756 -1.94193 -0.0167857 0
M  V30 3343 C 326.886 -3.45149 0.385942 0
M  V30 3344 C 325.84 -4.05271 1.3762 0
M  V30 3345 C 325.166 -5.29664 0.732137 0
M  V30 3346 C 326.466 -4.44355 2.74493 0
M  V30 3347 H 328.16 -2.39006 1.80323 0
M  V30 3348 H 325.706 -1.14866 0.868435 0
M  V30 3349 H 327.659 -4.21004 0.182647 0
M  V30 3350 H 326.383 -3.21689 -0.564274 0
M  V30 3351 H 325.042 -3.3147 1.56599 0
M  V30 3352 H 324.69 -5.02499 -0.224483 0
M  V30 3353 H 324.39 -5.70848 1.39307 0
M  V30 3354 H 325.914 -6.08218 0.538802 0
M  V30 3355 H 327.328 -5.11303 2.59311 0
M  V30 3356 H 325.725 -4.96515 3.37035 0
M  V30 3357 H 326.795 -3.55339 3.29943 0
M  V30 3358 N 328.138 -0.959301 -1.25041 0
M  V30 3359 C 329.554 -0.664474 -1.4511 0
M  V30 3360 C 329.754 0.776481 -1.85938 0
M  V30 3361 O 328.81 1.55128 -1.99227 0
M  V30 3362 C 330.123 -1.64139 -2.5195 0
M  V30 3363 C 331.671 -1.65309 -2.65786 0
M  V30 3364 C 332.146 -2.61777 -3.75815 0
M  V30 3365 N 333.637 -2.60169 -3.83231 0
M  V30 3366 C 334.372 -3.31489 -4.6787 0
M  V30 3367 N 333.868 -4.12298 -5.56761 0
M  V30 3368 N 335.661 -3.20354 -4.61876 0
M  V30 3369 H 327.812 -1.89043 -0.968332 0
M  V30 3370 H 330.075 -0.813408 -0.4869 0
M  V30 3371 H 329.781 -2.67086 -2.28819 0
M  V30 3372 H 329.655 -1.40756 -3.49954 0
M  V30 3373 H 332.042 -0.630778 -2.8828 0
M  V30 3374 H 332.123 -1.92753 -1.68167 0
M  V30 3375 H 331.767 -3.64137 -3.54071 0
M  V30 3376 H 331.697 -2.31616 -4.72929 0
M  V30 3377 H 334.188 -2.01507 -3.19692 0
M  V30 3378 H 334.501 -4.63625 -6.18281 0
M  V30 3379 H 332.846 -4.16395 -5.56454 0
M  V30 3380 H 336.037 -2.56692 -3.91442 0
M  V30 3381 H 336.21 -3.76201 -5.27614 0
M  V30 3382 N 329.616 1.39756 -0.72842 0
M  V30 3383 C 330.864 2.00248 -0.272946 0
M  V30 3384 C 331.185 1.58077 1.14178 0
M  V30 3385 O 330.455 0.826014 1.77634 0
M  V30 3386 H 329.035 0.740554 -0.0979247 0
M  V30 3387 H 331.697 1.70903 -0.936912 0
M  V30 3388 H 330.793 3.10495 -0.316142 0
M  V30 3389 N 331.094 0.475555 1.50254 0
M  V30 3390 C 332.057 -0.305016 2.27161 0
M  V30 3391 C 333.057 -0.916519 1.32123 0
M  V30 3392 O 334.247 -0.785003 1.5551 0
M  V30 3393 C 331.379 -1.43496 3.09227 0
M  V30 3394 H 332.572 0.369511 2.97615 0
M  V30 3395 H 330.125 0.229747 1.54602 0
M  V30 3396 H 330.86 -2.14441 2.43281 0
M  V30 3397 H 330.645 -1.00223 3.79075 0
M  V30 3398 H 332.135 -1.98548 3.67381 0
M  V30 3399 N 332.573 -1.56217 0.208337 0
M  V30 3400 C 333.984 -1.84243 -0.301904 0
M  V30 3401 C 334.335 -1.12939 -1.60434 0
M  V30 3402 O 333.46 -0.39461 -2.12772 0
M  V30 3403 C 334.055 -3.34231 -0.554543 0
M  V30 3404 C 332.614 -3.62621 -1.00912 0
M  V30 3405 C 331.761 -2.77224 -0.064933 0
M  V30 3406 H 334.712 -1.52712 0.431833 0
M  V30 3407 H 334.733 -3.5372 -1.40223 0
M  V30 3408 H 334.245 -3.86099 0.393561 0
M  V30 3409 H 332.346 -3.16197 -1.97104 0
M  V30 3410 H 332.459 -4.7071 -0.892674 0
M  V30 3411 H 330.823 -2.48256 -0.56929 0
M  V30 3412 H 331.606 -3.31887 0.877851 0
M  V30 3413 N 334.051 0.0651679 -1.57465 0
M  V30 3414 C 335.467 0.420105 -1.53972 0
M  V30 3415 C 335.667 1.78782 -0.929474 0
M  V30 3416 O 334.723 2.46771 -0.534839 0
M  V30 3417 C 336.036 0.355084 -2.98596 0
M  V30 3418 C 337.584 0.434792 -3.09965 0
M  V30 3419 C 338.059 0.399609 -4.56253 0
M  V30 3420 N 339.55 0.459488 -4.60915 0
M  V30 3421 C 340.285 0.454584 -5.71595 0
M  V30 3422 N 339.781 0.404102 -6.9162 0
M  V30 3423 N 341.574 0.501635 -5.59857 0
M  V30 3424 H 333.725 -0.830328 -1.95498 0
M  V30 3425 H 335.988 -0.312244 -0.895102 0
M  V30 3426 H 335.694 -0.583357 -3.46828 0
M  V30 3427 H 335.568 1.16275 -3.58831 0
M  V30 3428 H 337.955 1.36366 -2.61703 0
M  V30 3429 H 338.036 -0.40157 -2.52628 0
M  V30 3430 H 337.68 -0.525436 -5.05175 0
M  V30 3431 H 337.61 1.25359 -5.11461 0
M  V30 3432 H 340.101 0.502482 -3.74544 0
M  V30 3433 H 340.414 0.404468 -7.71741 0
M  V30 3434 H 338.759 0.37069 -6.94011 0
M  V30 3435 H 341.95 0.538812 -4.64989 0
M  V30 3436 H 342.123 0.494345 -6.46112 0
M  V30 3437 N 335.529 1.53961 0.336706 0
M  V30 3438 C 336.759 1.75229 1.09446 0
M  V30 3439 C 337.167 0.494602 1.82621 0
M  V30 3440 O 336.51 -0.543764 1.75468 0
M  V30 3441 C 336.572 2.88288 2.1478 0
M  V30 3442 C 336.236 4.27656 1.6112 0
M  V30 3443 C 337.233 5.08981 1.0599 0
M  V30 3444 C 334.918 4.74161 1.6576 0
M  V30 3445 C 336.912 6.34916 0.562129 0
M  V30 3446 C 334.599 6.00067 1.15595 0
M  V30 3447 C 335.597 6.80278 0.609147 0
M  V30 3448 O 335.285 8.03818 0.114999 0
M  V30 3449 H 335.017 0.588881 0.331956 0
M  V30 3450 H 337.571 2.01614 0.392566 0
M  V30 3451 H 335.801 2.57443 2.88548 0
M  V30 3452 H 337.49 2.97461 2.76174 0
M  V30 3453 H 338.256 4.74213 1.01722 0
M  V30 3454 H 334.135 4.11781 2.07261 0
M  V30 3455 H 337.679 6.9747 0.134668 0
M  V30 3456 H 333.576 6.3433 1.19566 0
M  V30 3457 H 334.344 8.18172 0.231651 0
M  V30 3458 N 337.007 -0.598083 1.45811 0
M  V30 3459 C 338.423 -0.919847 1.30426 0
M  V30 3460 C 338.623 -1.99759 0.264303 0
M  V30 3461 O 337.679 -2.50221 -0.338472 0
M  V30 3462 C 338.992 -1.35176 2.68603 0
M  V30 3463 C 340.54 -1.46546 2.76574 0
M  V30 3464 C 341.015 -1.9311 4.15298 0
M  V30 3465 N 342.506 -2.00328 4.1764 0
M  V30 3466 C 343.241 -2.37599 5.21856 0
M  V30 3467 N 342.737 -2.73771 6.36413 0
M  V30 3468 N 344.53 -2.38021 5.09218 0
M  V30 3469 H 336.681 0.114111 2.12093 0
M  V30 3470 H 338.944 -0.0116121 0.947929 0
M  V30 3471 H 338.65 -0.633969 3.45939 0
M  V30 3472 H 338.524 -2.3164 2.97696 0
M  V30 3473 H 340.911 -2.17415 1.99537 0
M  V30 3474 H 340.992 -0.483727 2.51185 0
M  V30 3475 H 340.636 -1.22824 4.92825 0
M  V30 3476 H 340.566 -2.92213 4.38086 0
M  V30 3477 H 343.057 -1.74925 3.34977 0
M  V30 3478 H 343.37 -3.0112 7.11721 0
M  V30 3479 H 341.715 -2.71445 6.39799 0
M  V30 3480 H 344.906 -2.09174 4.18765 0
M  V30 3481 H 345.079 -2.66741 5.90554 0
M  V30 3482 N 338.485 -1.33259 -0.841409 0
M  V30 3483 C 339.733 -1.24326 -1.59334 0
M  V30 3484 C 340.054 0.191564 -1.94057 0
M  V30 3485 O 339.324 1.11967 -1.60749 0
M  V30 3486 H 337.904 -0.457174 -0.590763 0
M  V30 3487 H 340.566 -1.66947 -1.00571 0
M  V30 3488 H 339.662 -1.8352 -2.52442 0
M  V30 3489 N 339.963 1.05934 -1.16686 0
M  V30 3490 C 341.212 1.78188 -0.945085 0
M  V30 3491 C 341.525 1.88338 0.528021 0
M  V30 3492 O 342.731 2.57258 0.867799 0
M  V30 3493 C 341.187 3.20277 -1.64167 0
M  V30 3494 C 340.795 3.18281 -3.15279 0
M  V30 3495 C 342.539 3.97039 -1.502 0
M  V30 3496 C 340.446 4.55112 -3.7766 0
M  V30 3497 H 339.376 0.667866 -0.349959 0
M  V30 3498 H 342.027 1.18794 -1.39858 0
M  V30 3499 H 340.409 3.79952 -1.11589 0
M  V30 3500 H 341.583 2.68167 -3.74731 0
M  V30 3501 H 339.898 2.55018 -3.29173 0
M  V30 3502 H 342.495 4.98194 -1.94183 0
M  V30 3503 H 342.838 4.13845 -0.451461 0
M  V30 3504 H 343.371 3.43894 -1.99954 0
M  V30 3505 H 340.11 4.43512 -4.82677 0
M  V30 3506 H 339.63 5.05406 -3.22994 0
M  V30 3507 H 341.309 5.24064 -3.79428 0
M  V30 3508 N 341.441 0.965919 1.2453 0
M  V30 3509 C 342.371 0.513476 2.27784 0
M  V30 3510 C 343.352 -0.445974 1.6415 0
M  V30 3511 O 344.537 -0.342485 1.91156 0
M  V30 3512 C 341.667 -0.198839 3.4673 0
M  V30 3513 C 340.621 0.676456 4.2262 0
M  V30 3514 C 339.947 -0.167248 5.34438 0
M  V30 3515 C 341.247 1.96017 4.84123 0
M  V30 3516 H 342.941 1.3765 2.65881 0
M  V30 3517 H 340.487 0.663321 1.27813 0
M  V30 3518 H 342.44 -0.526567 4.18097 0
M  V30 3519 H 341.164 -1.0962 3.07654 0
M  V30 3520 H 339.823 0.98743 3.53052 0
M  V30 3521 H 339.471 -1.0647 4.91603 0
M  V30 3522 H 339.171 0.415181 5.86131 0
M  V30 3523 H 340.695 -0.489688 6.08633 0
M  V30 3524 H 342.109 1.69814 5.47573 0
M  V30 3525 H 340.506 2.48918 5.4604 0
M  V30 3526 H 341.576 2.65622 4.05676 0
M  V30 3527 N 342.919 -1.39368 0.735821 0
M  V30 3528 C 344.196 -1.94465 0.210395 0
M  V30 3529 C 344.576 -1.67254 -1.28799 0
M  V30 3530 O 343.924 -1.00123 -2.05396 0
M  V30 3531 C 344.134 -3.4472 0.544897 0
M  V30 3532 C 345.482 -4.21708 0.494689 0
M  V30 3533 O 346.506 -3.52922 0.482136 0
M  V30 3534 O 345.365 -5.44299 0.489947 0
M  V30 3535 H 342.459 -0.826096 0.0386666 0
M  V30 3536 H 345.005 -1.48863 0.814735 0
M  V30 3537 H 343.777 -3.57963 1.58045 0
M  V30 3538 H 343.4 -3.97502 -0.08837 0
M  V30 3539 N 344.397 -0.483516 -1.5 0
M  V30 3540 C 345.637 0.0657469 -2.04294 0
M  V30 3541 C 346.001 1.35869 -1.35659 0
M  V30 3542 O 347.202 1.99111 -1.80578 0
M  V30 3543 C 345.473 0.232758 -3.56641 0
M  V30 3544 S 347.032 0.738788 -4.32536 0
M  V30 3545 H 343.85 0.0100755 -0.710929 0
M  V30 3546 H 346.452 -0.653494 -1.84254 0
M  V30 3547 H 345.156 -0.713847 -4.04144 0
M  V30 3548 H 344.687 0.977751 -3.81056 0
M  V30 3549 H 346.702 2.01048 -4.53645 0
M  V30 3550 N 345.875 1.56104 -0.216619 0
M  V30 3551 C 347.121 1.98466 0.417033 0
M  V30 3552 C 347.454 1.10403 1.59765 0
M  V30 3553 O 346.729 0.160632 1.93836 0
M  V30 3554 C 347.012 3.49769 0.85637 0
M  V30 3555 C 346.865 4.48606 -0.327546 0
M  V30 3556 C 348.184 4.05339 1.7143 0
M  V30 3557 H 345.303 0.721551 0.150112 0
M  V30 3558 H 347.945 1.87423 -0.311864 0
M  V30 3559 H 346.095 3.5931 1.47745 0
M  V30 3560 H 347.767 4.5108 -0.965618 0
M  V30 3561 H 346.01 4.22682 -0.975805 0
M  V30 3562 H 346.681 5.51995 0.0227149 0
M  V30 3563 H 349.157 3.98712 1.19031 0
M  V30 3564 H 348.033 5.11533 1.99061 0
M  V30 3565 H 348.294 3.51918 2.67593 0
M  V30 3566 N 347.353 -0.0568162 1.57498 0
M  V30 3567 C 348.303 -1.07315 2.01166 0
M  V30 3568 C 349.287 -1.33632 0.896171 0
M  V30 3569 O 350.479 -1.33682 1.16009 0
M  V30 3570 C 347.608 -2.38257 2.47161 0
M  V30 3571 C 346.694 -2.1515 3.65474 0
M  V30 3572 N 347.085 -1.62014 4.7915 0
M  V30 3573 C 345.383 -2.45559 3.72313 0
M  V30 3574 C 346.084 -1.54069 5.60926 0
M  V30 3575 N 345.06 -2.00652 5.05213 0
M  V30 3576 H 348.862 -0.655878 2.86488 0
M  V30 3577 H 346.376 -0.263635 1.60246 0
M  V30 3578 H 348.373 -3.11845 2.76691 0
M  V30 3579 H 347.033 -2.80687 1.63232 0
M  V30 3580 H 348.044 -1.30667 5.01145 0
M  V30 3581 H 344.721 -2.91253 2.99129 0
M  V30 3582 H 346.111 -1.13712 6.62208 0
M  V30 3583 N 348.832 -1.54138 -0.328536 0
M  V30 3584 C 349.764 -1.79509 -1.4251 0
M  V30 3585 C 350.777 -0.67688 -1.48061 0
M  V30 3586 O 351.966 -0.953898 -1.50874 0
M  V30 3587 C 349.066 -1.89337 -2.81078 0
M  V30 3588 C 348.239 -3.19443 -2.98789 0
M  V30 3589 C 347.298 -3.20036 -4.17688 0
M  V30 3590 O 346.324 -3.93697 -4.11086 0
M  V30 3591 N 347.526 -2.43467 -5.26976 0
M  V30 3592 H 350.291 -2.74139 -1.21111 0
M  V30 3593 H 347.852 -1.53373 -0.518499 0
M  V30 3594 H 349.844 -1.87167 -3.58818 0
M  V30 3595 H 348.414 -1.01826 -2.95551 0
M  V30 3596 H 347.634 -3.34614 -2.08391 0
M  V30 3597 H 348.922 -4.05354 -3.07515 0
M  V30 3598 H 348.32 -1.83201 -5.35214 0
M  V30 3599 H 346.877 -2.4708 -6.03154 0
M  V30 3600 N 350.31 0.590341 -1.46126 0
M  V30 3601 C 351.535 1.37991 -1.54833 0
M  V30 3602 C 351.96 1.87163 -0.187506 0
M  V30 3603 O 351.318 1.61133 0.831008 0
M  V30 3604 C 351.366 2.54867 -2.55098 0
M  V30 3605 O 350.47 3.56061 -2.08073 0
M  V30 3606 H 349.811 0.411265 -0.521303 0
M  V30 3607 H 352.341 0.716819 -1.91632 0
M  V30 3608 H 352.351 3.01886 -2.74461 0
M  V30 3609 H 351.026 2.18429 -3.53923 0
M  V30 3610 H 349.603 3.15574 -1.98664 0
M  V30 3611 N 351.788 1.33704 0.83433 0
M  V30 3612 C 353.018 1.28281 1.6195 0
M  V30 3613 C 353.426 -0.147603 1.88623 0
M  V30 3614 O 352.769 -1.1016 1.47005 0
M  V30 3615 C 352.831 1.99386 2.99141 0
M  V30 3616 C 352.495 3.48681 2.95416 0
M  V30 3617 C 353.492 4.438 2.70809 0
M  V30 3618 C 351.177 3.90925 3.15409 0
M  V30 3619 C 353.171 5.79138 2.66229 0
M  V30 3620 C 350.858 5.26366 3.10454 0
M  V30 3621 C 351.856 6.20284 2.85895 0
M  V30 3622 O 351.544 7.53245 2.80852 0
M  V30 3623 H 351.276 0.44315 0.510484 0
M  V30 3624 H 353.83 1.76711 1.04702 0
M  V30 3625 H 352.06 1.45554 3.58261 0
M  V30 3626 H 353.749 1.87403 3.60049 0
M  V30 3627 H 354.515 4.12485 2.5511 0
M  V30 3628 H 350.394 3.18229 3.33543 0
M  V30 3629 H 353.938 6.52416 2.4698 0
M  V30 3630 H 349.835 5.57304 3.25703 0
M  V30 3631 H 350.603 7.62846 2.96661 0
M  V30 3632 N 353.266 -1.05314 1.17247 0
M  V30 3633 C 354.682 -1.30452 0.919473 0
M  V30 3634 C 354.882 -1.9703 -0.42209 0
M  V30 3635 O 353.938 -2.24311 -1.15935 0
M  V30 3636 C 355.251 -2.17551 2.07586 0
M  V30 3637 C 356.799 -2.30937 2.11275 0
M  V30 3638 C 357.274 -3.21396 3.26296 0
M  V30 3639 N 358.765 -3.28981 3.26076 0
M  V30 3640 C 359.5 -3.99095 4.11716 0
M  V30 3641 N 358.996 -4.71648 5.07465 0
M  V30 3642 N 360.789 -3.95247 3.9967 0
M  V30 3643 H 352.94 -0.604988 2.03602 0
M  V30 3644 H 355.203 -0.329368 0.888944 0
M  V30 3645 H 354.909 -1.75921 3.0454 0
M  V30 3646 H 354.783 -3.18182 2.02584 0
M  V30 3647 H 357.17 -2.71809 1.14907 0
M  V30 3648 H 357.251 -1.2994 2.20339 0
M  V30 3649 H 356.895 -2.81238 4.22927 0
M  V30 3650 H 356.825 -4.22395 3.14467 0
M  V30 3651 H 359.316 -2.77286 2.5675 0
M  V30 3652 H 359.629 -5.22705 5.6921 0
M  V30 3653 H 357.974 -4.70594 5.11435 0
M  V30 3654 H 361.165 -3.37691 3.24164 0
M  V30 3655 H 361.338 -4.4962 4.66632 0
M  V30 3656 N 354.744 -0.972509 -1.24016 0
M  V30 3657 C 355.707 -0.511403 -2.23422 0
M  V30 3658 C 356.707 0.394679 -1.55881 0
M  V30 3659 O 357.897 0.189469 -1.73167 0
M  V30 3660 C 355.029 0.258769 -3.39916 0
M  V30 3661 H 356.222 -1.39024 -2.6573 0
M  V30 3662 H 353.775 -0.757585 -1.36713 0
M  V30 3663 H 354.51 1.1545 -3.03054 0
M  V30 3664 H 354.295 -0.391522 -3.9014 0
M  V30 3665 H 355.785 0.570244 -4.13688 0
M  V30 3666 N 356.222 1.38976 -0.743202 0
M  V30 3667 C 357.132 2.3434 -0.110399 0
M  V30 3668 C 358.148 1.58741 0.712559 0
M  V30 3669 O 359.324 1.9099 0.639125 0
M  V30 3670 C 356.389 3.37812 0.780012 0
M  V30 3671 C 355.45 4.29263 -0.0561319 0
M  V30 3672 C 354.683 5.27793 0.791875 0
M  V30 3673 O 354.906 5.33043 2.03031 0
M  V30 3674 O 353.84 6.01512 0.216183 0
M  V30 3675 H 357.666 2.90129 -0.897714 0
M  V30 3676 H 355.251 1.40643 -0.503966 0
M  V30 3677 H 357.133 4.01194 1.28923 0
M  V30 3678 H 355.808 2.84395 1.546 0
M  V30 3679 H 354.715 3.69076 -0.611056 0
M  V30 3680 H 356.048 4.85907 -0.784531 0
M  V30 3681 N 357.7 0.491464 1.49741 0
M  V30 3682 C 358.948 -0.0563141 2.02022 0
M  V30 3683 C 359.269 -1.38363 1.37407 0
M  V30 3684 O 358.539 -1.88702 0.526166 0
M  V30 3685 H 357.119 -0.0238014 0.746621 0
M  V30 3686 H 359.781 0.646533 1.83864 0
M  V30 3687 H 358.877 -0.192967 3.11503 0
M  V30 3688 N 359.178 -1.55987 0.224894 0
M  V30 3689 C 360.424 -1.99433 -0.39973 0
M  V30 3690 C 360.779 -1.11004 -1.57149 0
M  V30 3691 O 360.072 -0.160725 -1.90925 0
M  V30 3692 C 360.266 -3.46394 -0.880106 0
M  V30 3693 C 360.095 -4.4904 0.243565 0
M  V30 3694 C 358.865 -5.00272 0.711056 0
M  V30 3695 C 361.063 -5.03195 1.06299 0
M  V30 3696 N 359.045 -5.86628 1.80944 0
M  V30 3697 C 360.416 -5.86508 2.01017 0
M  V30 3698 C 362.471 -4.8555 1.10205 0
M  V30 3699 C 361.174 -6.54062 2.99324 0
M  V30 3700 C 363.2 -5.53866 2.07332 0
M  V30 3701 C 362.562 -6.3695 3.00789 0
M  V30 3702 H 358.661 -0.773815 -0.112847 0
M  V30 3703 H 361.245 -1.91754 0.337432 0
M  V30 3704 H 359.416 -3.54515 -1.58662 0
M  V30 3705 H 361.148 -3.76752 -1.47783 0
M  V30 3706 H 357.903 -4.72655 0.29906 0
M  V30 3707 H 358.327 -6.34507 2.36073 0
M  V30 3708 H 362.969 -4.20966 0.39343 0
M  V30 3709 H 360.687 -7.17827 3.71147 0
M  V30 3710 H 364.273 -5.42178 2.11032 0
M  V30 3711 H 363.153 -6.8888 3.74718 0
M  V30 3712 N 360.656 0.0484629 -1.57525 0
M  V30 3713 C 362.072 0.40375 -1.54409 0
M  V30 3714 C 362.272 1.77786 -0.948384 0
M  V30 3715 O 361.328 2.46189 -0.560983 0
M  V30 3716 C 362.641 0.323394 -2.98956 0
M  V30 3717 C 364.189 0.401892 -3.10409 0
M  V30 3718 C 364.664 0.351195 -4.56652 0
M  V30 3719 N 366.155 0.410576 -4.61377 0
M  V30 3720 C 366.89 0.393933 -5.72045 0
M  V30 3721 N 366.386 0.330724 -6.9201 0
M  V30 3722 N 368.179 0.442227 -5.60358 0
M  V30 3723 H 360.33 -0.851016 -1.94606 0
M  V30 3724 H 362.593 -0.321721 -0.89174 0
M  V30 3725 H 362.299 -0.62011 -3.4619 0
M  V30 3726 H 362.173 1.12463 -3.60044 0
M  V30 3727 H 364.56 1.33582 -2.63134 0
M  V30 3728 H 364.641 -0.428342 -2.52188 0
M  V30 3729 H 364.285 -0.578987 -5.04589 0
M  V30 3730 H 364.215 1.19928 -5.12762 0
M  V30 3731 H 366.706 0.462729 -3.75056 0
M  V30 3732 H 367.019 0.322592 -7.72126 0
M  V30 3733 H 365.364 0.29706 -6.94365 0
M  V30 3734 H 368.555 0.489464 -4.65534 0
M  V30 3735 H 368.728 0.425788 -6.466 0
M  V30 3736 N 362.134 1.5431 0.320358 0
M  V30 3737 C 363.38 1.72924 1.05949 0
M  V30 3738 C 363.713 0.503185 1.87568 0
M  V30 3739 O 362.988 -0.499839 1.87968 0
M  V30 3740 C 363.271 3.00676 1.98156 0
M  V30 3741 C 363.124 4.3354 1.19845 0
M  V30 3742 C 364.443 3.24198 2.9763 0
M  V30 3743 H 361.562 0.629195 0.383774 0
M  V30 3744 H 364.204 1.87008 0.335854 0
M  V30 3745 H 362.354 2.888 2.59859 0
M  V30 3746 H 364.026 4.57305 0.605773 0
M  V30 3747 H 362.269 4.309 0.500784 0
M  V30 3748 H 362.94 5.19156 1.87567 0
M  V30 3749 H 365.416 3.35557 2.4605 0
M  V30 3750 H 364.292 4.14938 3.59329 0
M  V30 3751 H 364.553 2.41577 3.7026 0
M  V30 3752 N 363.613 -0.582584 1.46437 0
M  V30 3753 C 364.86 -1.34079 1.51753 0
M  V30 3754 C 365.188 -1.93762 0.169299 0
M  V30 3755 O 364.443 -1.76989 -0.835062 0
M  V30 3756 C 364.742 -2.48964 2.56421 0
M  V30 3757 C 364.408 -2.07273 4.00436 0
M  V30 3758 C 363.07 -1.95618 4.39644 0
M  V30 3759 C 365.422 -1.75111 4.90903 0
M  V30 3760 C 362.75 -1.5006 5.67185 0
M  V30 3761 C 365.102 -1.31032 6.18881 0
M  V30 3762 C 363.766 -1.17954 6.56996 0
M  V30 3763 H 363.036 -0.49063 0.555304 0
M  V30 3764 H 365.683 -0.656007 1.79913 0
M  V30 3765 H 363.988 -3.22889 2.21923 0
M  V30 3766 H 365.685 -3.07178 2.57765 0
M  V30 3767 H 362.275 -2.17279 3.69443 0
M  V30 3768 H 366.459 -1.83001 4.61329 0
M  V30 3769 H 361.715 -1.38577 5.95488 0
M  V30 3770 H 365.889 -1.052 6.88408 0
M  V30 3771 H 363.516 -0.824279 7.55718 0
M  V30 3772 N 365.091 -1.34144 -0.827227 0
M  V30 3773 C 366.319 -1.29325 -1.61501 0
M  V30 3774 C 366.734 0.13354 -1.88327 0
M  V30 3775 O 366.091 1.0793 -1.47164 0
M  V30 3776 C 366.142 -2.07746 -2.95844 0
M  V30 3777 O 365.863 -3.4486 -2.70191 0
M  V30 3778 C 367.364 -2.10273 -3.90256 0
M  V30 3779 H 364.584 -0.445069 -0.50215 0
M  V30 3780 H 367.128 -1.76693 -1.02955 0
M  V30 3781 H 365.283 -1.6403 -3.5096 0
M  V30 3782 H 365.697 -3.85345 -3.55822 0
M  V30 3783 H 367.171 -2.69575 -4.81698 0
M  V30 3784 H 367.648 -1.096 -4.25305 0
M  V30 3785 H 368.254 -2.54059 -3.41078 0
M  V30 3786 N 366.569 1.04691 -1.17803 0
M  V30 3787 C 367.985 1.29963 -0.926379 0
M  V30 3788 C 368.185 1.97251 0.411635 0
M  V30 3789 O 367.241 2.24922 1.14744 0
M  V30 3790 C 368.554 2.16447 -2.08737 0
M  V30 3791 C 370.102 2.29814 -2.12496 0
M  V30 3792 C 370.577 3.19661 -3.27995 0
M  V30 3793 N 372.068 3.27247 -3.27816 0
M  V30 3794 C 372.803 3.96906 -4.13827 0
M  V30 3795 N 372.299 4.6895 -5.09959 0
M  V30 3796 N 374.092 3.93122 -4.01761 0
M  V30 3797 H 366.243 0.594182 -2.0392 0
M  V30 3798 H 368.506 0.324649 -0.890678 0
M  V30 3799 H 368.212 1.74304 -3.05469 0
M  V30 3800 H 368.086 3.17103 -2.04268 0
M  V30 3801 H 370.473 2.71196 -1.16347 0
M  V30 3802 H 370.554 1.2877 -2.21025 0
M  V30 3803 H 370.198 2.78991 -4.24413 0
M  V30 3804 H 370.128 4.20722 -3.16703 0
M  V30 3805 H 372.619 2.75921 -2.58217 0
M  V30 3806 H 372.932 5.19679 -5.71974 0
M  V30 3807 H 371.277 4.67875 -5.13924 0
M  V30 3808 H 374.468 3.35967 -3.2595 0
M  V30 3809 H 374.641 4.47139 -4.6901 0
M  V30 3810 N 368.047 0.979072 1.23499 0
M  V30 3811 C 369.295 0.645941 1.91499 0
M  V30 3812 C 369.616 -0.822948 1.76784 0
M  V30 3813 O 368.886 -1.58854 1.14639 0
M  V30 3814 H 367.466 0.235919 0.708767 0
M  V30 3815 H 370.128 1.2426 1.50152 0
M  V30 3816 H 369.224 0.896411 2.9895 0
M  V30 3817 N 369.525 -1.3858 0.750561 0
M  V30 3818 C 370.455 -2.33102 0.136237 0
M  V30 3819 C 371.436 -1.54713 -0.706965 0
M  V30 3820 O 372.621 -1.83043 -0.648769 0
M  V30 3821 C 369.751 -3.38882 -0.760017 0
M  V30 3822 C 368.705 -4.27995 -0.0197785 0
M  V30 3823 C 368.031 -5.24605 -1.03408 0
M  V30 3824 C 369.331 -5.09554 1.14684 0
M  V30 3825 H 371.025 -2.84726 0.925822 0
M  V30 3826 H 368.571 -1.36898 0.446654 0
M  V30 3827 H 370.524 -4.0397 -1.19943 0
M  V30 3828 H 369.248 -2.85734 -1.58189 0
M  V30 3829 H 367.907 -3.64409 0.400184 0
M  V30 3830 H 367.555 -4.67746 -1.84994 0
M  V30 3831 H 367.255 -5.85081 -0.543464 0
M  V30 3832 H 368.779 -5.9257 -1.47288 0
M  V30 3833 H 370.193 -5.67899 0.785118 0
M  V30 3834 H 368.59 -5.7925 1.56812 0
M  V30 3835 H 369.66 -4.4347 1.96118 0
M  V30 3836 N 371.003 -0.499398 -1.49478 0
M  V30 3837 C 371.966 0.268838 -2.27618 0
M  V30 3838 C 372.966 0.895383 -1.33565 0
M  V30 3839 O 374.156 0.760164 -1.56739 0
M  V30 3840 C 371.288 1.38559 -3.11471 0
M  V30 3841 H 372.481 -0.416812 -2.96989 0
M  V30 3842 H 370.034 -0.254313 -1.54217 0
M  V30 3843 H 370.769 2.10544 -2.46661 0
M  V30 3844 H 370.554 0.941797 -3.80621 0
M  V30 3845 H 372.044 1.92678 -3.70493 0
M  V30 3846 N 372.481 1.55866 -0.233164 0
M  V30 3847 C 373.706 2.03449 0.402906 0
M  V30 3848 C 374.131 1.11166 1.51736 0
M  V30 3849 O 373.489 0.101996 1.81013 0
M  V30 3850 C 373.537 3.49165 0.9009 0
M  V30 3851 O 372.641 3.60019 2.01147 0
M  V30 3852 H 371.982 0.657913 0.0897025 0
M  V30 3853 H 374.512 2.01493 -0.355201 0
M  V30 3854 H 374.522 3.89716 1.2077 0
M  V30 3855 H 373.197 4.15813 0.0852889 0
M  V30 3856 H 371.774 3.3136 1.71042 0
M  V30 3857 N 373.959 -0.0401083 1.57549 0
M  V30 3858 C 375.187 -0.745196 1.93014 0
M  V30 3859 C 375.602 -1.6948 0.831984 0
M  V30 3860 O 374.959 -1.81482 -0.192463 0
M  V30 3861 C 375.01 -1.51176 3.28372 0
M  V30 3862 O 374.731 -0.600284 4.33968 0
M  V30 3863 C 376.232 -2.315 3.78051 0
M  V30 3864 H 373.452 -0.210088 0.637263 0
M  V30 3865 H 375.996 -0.000924689 2.045 0
M  V30 3866 H 374.151 -2.20801 3.18317 0
M  V30 3867 H 374.565 -1.13669 5.12035 0
M  V30 3868 H 376.039 -2.80697 4.75303 0
M  V30 3869 H 376.516 -3.12436 3.08675 0
M  V30 3870 H 377.122 -1.66971 3.91153 0
M  V30 3871 N 375.437 -1.54477 -0.31217 0
M  V30 3872 C 376.367 -1.87652 -1.38957 0
M  V30 3873 C 377.348 -0.734358 -1.53431 0
M  V30 3874 O 378.533 -0.98911 -1.67123 0
M  V30 3875 C 375.663 -2.11396 -2.75552 0
M  V30 3876 C 374.617 -3.27243 -2.75855 0
M  V30 3877 C 373.943 -3.36382 -4.15633 0
M  V30 3878 C 375.243 -4.64622 -2.38587 0
M  V30 3879 H 376.937 -2.77887 -1.11442 0
M  V30 3880 H 374.483 -1.33707 -0.534655 0
M  V30 3881 H 376.436 -2.33189 -3.51 0
M  V30 3882 H 375.16 -1.17921 -3.04569 0
M  V30 3883 H 373.819 -3.05356 -2.02863 0
M  V30 3884 H 373.467 -2.40445 -4.41809 0
M  V30 3885 H 373.167 -4.14249 -4.1674 0
M  V30 3886 H 374.691 -3.60422 -4.92877 0
M  V30 3887 H 376.105 -4.86219 -3.03749 0
M  V30 3888 H 374.502 -5.45121 -2.50925 0
M  V30 3889 H 375.572 -4.66097 -1.33723 0
M  V30 3890 N 376.915 0.57481 -1.46744 0
M  V30 3891 C 377.845 1.69337 -1.60771 0
M  V30 3892 C 378.826 1.63825 -0.457736 0
M  V30 3893 O 380.011 1.8172 -0.684947 0
M  V30 3894 C 377.141 3.0798 -1.60517 0
M  V30 3895 C 376.095 3.28327 -2.74564 0
M  V30 3896 C 375.421 4.67578 -2.59373 0
M  V30 3897 C 376.721 3.15398 -4.16319 0
M  V30 3898 H 378.415 1.57853 -2.54407 0
M  V30 3899 H 375.961 0.75799 -1.22436 0
M  V30 3900 H 377.914 3.86061 -1.68923 0
M  V30 3901 H 376.638 3.20381 -0.634305 0
M  V30 3902 H 375.297 2.52649 -2.65639 0
M  V30 3903 H 374.945 4.76755 -1.60353 0
M  V30 3904 H 374.645 4.82144 -3.35873 0
M  V30 3905 H 376.169 5.47817 -2.69682 0
M  V30 3906 H 377.583 3.83315 -4.26313 0
M  V30 3907 H 375.98 3.41482 -4.93468 0
M  V30 3908 H 377.05 2.12372 -4.3592 0
M  V30 3909 N 378.394 1.34581 0.820102 0
M  V30 3910 C 379.81 1.14325 1.11364 0
M  V30 3911 C 380.01 -0.0533648 2.01429 0
M  V30 3912 O 379.066 -0.728044 2.41776 0
M  V30 3913 C 380.379 2.43983 1.75764 0
M  V30 3914 C 381.927 2.50065 1.88246 0
M  V30 3915 C 382.402 3.79732 2.56061 0
M  V30 3916 N 383.893 3.80908 2.63558 0
M  V30 3917 C 384.628 4.77961 3.16766 0
M  V30 3918 N 384.124 5.85397 3.70517 0
M  V30 3919 N 385.917 4.65413 3.15194 0
M  V30 3920 H 378.068 2.11246 0.221096 0
M  V30 3921 H 380.331 0.934289 0.160649 0
M  V30 3922 H 380.037 3.31651 1.1705 0
M  V30 3923 H 379.911 2.57531 2.75604 0
M  V30 3924 H 382.298 1.62834 2.46108 0
M  V30 3925 H 382.379 2.40442 0.873006 0
M  V30 3926 H 382.023 4.67354 1.98853 0
M  V30 3927 H 381.953 3.86639 3.57516 0
M  V30 3928 H 384.444 3.03274 2.25463 0
M  V30 3929 H 384.757 6.55463 4.09376 0
M  V30 3930 H 383.102 5.89107 3.68752 0
M  V30 3931 H 386.293 3.80627 2.72471 0
M  V30 3932 H 386.466 5.41216 3.56356 0
M  V30 3933 N 379.872 -1.04064 1.18357 0
M  V30 3934 C 380.835 -2.10243 0.912707 0
M  V30 3935 C 381.835 -1.60477 -0.101928 0
M  V30 3936 O 383.025 -1.73703 0.131517 0
M  V30 3937 C 380.157 -3.38893 0.369387 0
M  V30 3938 H 381.35 -2.35706 1.85426 0
M  V30 3939 H 378.903 -1.20489 0.995594 0
M  V30 3940 H 379.638 -3.19094 -0.578776 0
M  V30 3941 H 379.423 -3.76331 1.1008 0
M  V30 3942 H 380.913 -4.17128 0.198575 0
M  V30 3943 N 381.35 -0.985608 -1.22978 0
M  V30 3944 C 382.597 -0.657386 -1.91532 0
M  V30 3945 C 382.925 0.809707 -1.76845 0
M  V30 3946 O 382.18 1.60021 -1.12658 0
M  V30 3947 C 382.479 -1.00014 -3.43121 0
M  V30 3948 C 382.145 -2.4583 -3.77993 0
M  V30 3949 C 380.807 -2.85679 -3.87222 0
M  V30 3950 C 383.159 -3.40378 -3.94705 0
M  V30 3951 C 380.487 -4.19081 -4.10595 0
M  V30 3952 C 382.839 -4.73429 -4.1958 0
M  V30 3953 C 381.503 -5.1303 -4.27032 0
M  V30 3954 H 380.773 -0.240555 -0.700867 0
M  V30 3955 H 383.42 -1.24044 -1.45895 0
M  V30 3956 H 381.725 -0.335072 -3.90365 0
M  V30 3957 H 383.422 -0.724322 -3.94404 0
M  V30 3958 H 380.012 -2.13939 -3.71387 0
M  V30 3959 H 384.196 -3.10766 -3.8696 0
M  V30 3960 H 379.452 -4.49362 -4.14589 0
M  V30 3961 H 383.626 -5.46644 -4.31455 0
M  V30 3962 H 381.253 -6.16418 -4.44896 0
M  V30 3963 N 382.828 1.3818 -0.7579 0
M  V30 3964 C 384.239 1.82726 -0.383134 0
M  V30 3965 C 384.59 1.63214 1.08884 0
M  V30 3966 O 383.715 1.13566 1.84205 0
M  V30 3967 C 384.31 3.31728 -0.688631 0
M  V30 3968 C 382.869 3.74606 -0.367091 0
M  V30 3969 C 382.016 2.60896 -0.939599 0
M  V30 3970 H 384.967 1.26847 -0.953699 0
M  V30 3971 H 384.988 3.80487 0.0316492 0
M  V30 3972 H 384.5 3.45898 -1.76001 0
M  V30 3973 H 382.601 3.66013 0.697532 0
M  V30 3974 H 382.714 4.71215 -0.865658 0
M  V30 3975 H 381.078 2.52075 -0.3647 0
M  V30 3976 H 381.861 2.77864 -2.0161 0
M  V30 3977 N 384.306 0.507319 1.49211 0
M  V30 3978 C 385.552 -0.0350047 2.0277 0
M  V30 3979 C 385.885 -1.3606 1.38569 0
M  V30 3980 O 385.16 -1.87321 0.523542 0
M  V30 3981 C 385.443 -0.180916 3.59645 0
M  V30 3982 C 385.296 1.16825 4.34364 0
M  V30 3983 C 386.615 -0.918558 4.30407 0
M  V30 3984 H 383.734 -0.0112473 0.736914 0
M  V30 3985 H 386.376 0.659956 1.7817 0
M  V30 3986 H 384.526 -0.772826 3.80736 0
M  V30 3987 H 386.198 1.79952 4.24753 0
M  V30 3988 H 384.441 1.75594 3.96673 0
M  V30 3989 H 385.112 1.01939 5.42506 0
M  V30 3990 H 387.588 -0.41649 4.1401 0
M  V30 3991 H 386.464 -0.989505 5.39907 0
M  V30 3992 H 386.725 -1.96373 3.96093 0
M  V30 3993 N 385.784 -1.5574 0.241426 0
M  V30 3994 C 386.732 -2.22538 -0.676718 0
M  V30 3995 C 387.726 -1.21117 -1.18436 0
M  V30 3996 O 388.932 -1.39144 -1.14188 0
M  V30 3997 H 385.307 -0.713776 -0.236701 0
M  V30 3998 H 387.278 -2.98264 -0.0901187 0
M  V30 3999 C 386.027 -2.93439 -1.86518 0
M  V30 4000 H 385.35 -3.7125 -1.4837 0
M  V30 4001 H 386.79 -3.43549 -2.48495 0
M  V30 4002 C 385.249 -1.97008 -2.73294 0
M  V30 4003 O 385.779 -1.49965 -3.72657 0
M  V30 4004 N 383.985 -1.64227 -2.39745 0
M  V30 4005 H 383.532 -2.02677 -1.58996 0
M  V30 4006 H 383.49 -0.999708 -2.98083 0
M  V30 4007 N 387.262 0.0317525 -1.57568 0
M  V30 4008 C 388.225 1.01783 -2.0536 0
M  V30 4009 C 389.225 1.29203 -0.957253 0
M  V30 4010 O 390.415 1.24251 -1.22095 0
M  V30 4011 C 387.547 2.35137 -2.46827 0
M  V30 4012 H 388.74 0.605062 -2.93733 0
M  V30 4013 H 386.293 0.278514 -1.53799 0
M  V30 4014 H 387.028 2.81168 -1.61602 0
M  V30 4015 H 386.813 2.16566 -3.26866 0
M  V30 4016 H 388.303 3.05938 -2.84239 0
M  V30 4017 N 388.74 1.54641 0.303973 0
M  V30 4018 C 389.703 1.84646 1.35789 0
M  V30 4019 C 390.703 0.7192 1.4382 0
M  V30 4020 O 391.893 0.987491 1.43507 0
M  V30 4021 C 389.025 2.02407 2.74307 0
M  V30 4022 H 390.218 2.78829 1.10429 0
M  V30 4023 H 387.771 1.46658 0.540487 0
M  V30 4024 H 388.506 1.10502 3.04893 0
M  V30 4025 H 388.291 2.84453 2.69868 0
M  V30 4026 H 389.781 2.27002 3.50514 0
M  V30 4027 N 390.218 -0.567019 1.47046 0
M  V30 4028 C 391.446 -1.35027 1.56765 0
M  V30 4029 C 391.861 -1.8758 0.214316 0
M  V30 4030 O 391.218 -1.64471 -0.790919 0
M  V30 4031 C 391.269 -2.52698 2.58507 0
M  V30 4032 O 390.99 -2.0232 3.88585 0
M  V30 4033 C 392.491 -3.45043 2.78316 0
M  V30 4034 H 389.711 -0.41195 0.529658 0
M  V30 4035 H 392.255 -0.687832 1.92585 0
M  V30 4036 H 390.41 -3.149 2.25648 0
M  V30 4037 H 390.824 -2.79068 4.44096 0
M  V30 4038 H 392.298 -4.2405 3.53391 0
M  V30 4039 H 392.775 -3.97971 1.85784 0
M  V30 4040 H 393.381 -2.88665 3.12334 0
M  V30 4041 N 391.696 -1.35014 -0.812953 0
M  V30 4042 C 392.943 -1.27931 -1.56971 0
M  V30 4043 C 393.271 0.148034 -1.93936 0
M  V30 4044 O 392.526 1.11175 -1.61054 0
M  V30 4045 C 392.825 -2.12524 -2.87347 0
M  V30 4046 C 392.491 -3.61401 -2.6963 0
M  V30 4047 C 391.153 -4.01983 -2.64506 0
M  V30 4048 C 393.505 -4.55894 -2.52607 0
M  V30 4049 C 390.833 -5.35235 -2.40293 0
M  V30 4050 C 393.185 -5.89336 -2.29925 0
M  V30 4051 C 391.849 -6.2907 -2.23219 0
M  V30 4052 H 391.119 -0.468131 -0.574399 0
M  V30 4053 H 393.766 -1.66851 -0.939836 0
M  V30 4054 H 392.071 -1.66463 -3.54679 0
M  V30 4055 H 393.768 -2.04383 -3.45005 0
M  V30 4056 H 390.358 -3.29193 -2.74463 0
M  V30 4057 H 394.542 -4.25431 -2.55583 0
M  V30 4058 H 389.798 -5.65028 -2.33566 0
M  V30 4059 H 393.972 -6.62139 -2.15743 0
M  V30 4060 H 391.599 -7.32256 -2.04219 0
M  V30 4061 N 393.175 1.03435 -1.18907 0
M  V30 4062 C 394.138 2.09756 -0.923844 0
M  V30 4063 C 395.138 1.60528 0.093416 0
M  V30 4064 O 396.328 1.73631 -0.140727 0
M  V30 4065 C 393.46 3.38692 -0.387354 0
M  V30 4066 H 394.653 2.34719 -1.86674 0
M  V30 4067 H 392.206 1.19959 -1.00197 0
M  V30 4068 H 392.941 3.19396 0.561845 0
M  V30 4069 H 392.726 3.75742 -1.12074 0
M  V30 4070 H 394.216 4.17016 -0.220694 0
M  V30 4071 N 394.653 0.992116 1.22453 0
M  V30 4072 C 395.881 0.685944 1.95198 0
M  V30 4073 C 396.296 -0.749233 1.73297 0
M  V30 4074 O 395.653 -1.50549 1.03156 0
M  V30 4075 C 395.704 0.981395 3.47924 0
M  V30 4076 O 395.425 2.36018 3.6909 0
M  V30 4077 C 396.926 0.692815 4.37853 0
M  V30 4078 H 394.146 0.253821 0.621141 0
M  V30 4079 H 396.69 1.32668 1.55626 0
M  V30 4080 H 394.845 0.386481 3.85467 0
M  V30 4081 H 395.259 2.45884 4.63294 0
M  V30 4082 H 396.733 0.949818 5.43767 0
M  V30 4083 H 397.21 -0.373181 4.37612 0
M  V30 4084 H 397.816 1.26874 4.05935 0
M  V30 4085 N 396.131 -1.37776 0.765217 0
M  V30 4086 C 397.377 -2.00145 0.327072 0
M  V30 4087 C 397.71 -1.60607 -1.09175 0
M  V30 4088 O 396.985 -0.849127 -1.74986 0
M  V30 4089 C 397.268 -3.57109 0.46319 0
M  V30 4090 C 397.121 -4.06576 1.92395 0
M  V30 4091 C 398.44 -4.39888 -0.136473 0
M  V30 4092 H 395.559 -0.727113 0.120316 0
M  V30 4093 H 398.201 -1.63549 0.967039 0
M  V30 4094 H 396.351 -3.88414 -0.0816358 0
M  V30 4095 H 398.023 -3.85864 2.52798 0
M  V30 4096 H 396.266 -3.59011 2.43503 0
M  V30 4097 H 396.937 -5.15639 1.97028 0
M  V30 4098 H 399.413 -4.14803 0.328317 0
M  V30 4099 H 398.289 -5.48899 -0.0110582 0
M  V30 4100 H 398.55 -4.24758 -1.22608 0
M  V30 4101 N 397.609 -0.515225 -1.4894 0
M  V30 4102 C 398.837 0.0206034 -2.0689 0
M  V30 4103 C 399.252 1.29514 -1.37374 0
M  V30 4104 O 398.609 1.76698 -0.456529 0
M  V30 4105 C 398.66 0.26351 -3.60538 0
M  V30 4106 O 398.381 -0.960517 -4.27441 0
M  V30 4107 C 399.882 0.841383 -4.35242 0
M  V30 4108 H 397.102 -0.0268608 -0.670462 0
M  V30 4109 H 399.646 -0.716651 -1.91532 0
M  V30 4110 H 397.801 0.950777 -3.75552 0
M  V30 4111 H 398.215 -0.73212 -5.19365 0
M  V30 4112 H 399.689 0.96085 -5.43573 0
M  V30 4113 H 400.166 1.8427 -3.98674 0
M  V30 4114 H 400.772 0.191143 -4.2487 0
M  V30 4115 N 399.087 1.5561 -0.249682 0
M  V30 4116 C 400.333 1.99306 0.374841 0
M  V30 4117 C 400.666 1.13767 1.57387 0
M  V30 4118 O 399.941 0.201711 1.93451 0
M  V30 4119 C 400.224 3.51507 0.781986 0
M  V30 4120 C 400.077 4.4781 -0.422629 0
M  V30 4121 C 401.396 4.08884 1.62793 0
M  V30 4122 H 398.515 0.724572 0.134773 0
M  V30 4123 H 401.157 1.86719 -0.351549 0
M  V30 4124 H 399.307 3.62363 1.4009 0
M  V30 4125 H 400.979 4.48931 -1.06108 0
M  V30 4126 H 399.222 4.20518 -1.06524 0
M  V30 4127 H 399.893 5.51919 -0.0943766 0
M  V30 4128 H 402.369 4.01147 1.10547 0
M  V30 4129 H 401.245 5.1564 1.88166 0
M  V30 4130 H 401.506 3.57515 2.60068 0
M  V30 4131 N 400.565 -0.0233959 1.57583 0
M  V30 4132 C 401.811 -0.714119 1.89811 0
M  V30 4133 C 402.144 -1.74702 0.848113 0
M  V30 4134 O 401.419 -1.94023 -0.136135 0
M  V30 4135 C 401.702 -1.37853 3.32669 0
M  V30 4136 C 401.555 -0.358764 4.48367 0
M  V30 4137 C 402.874 -2.31101 3.7454 0
M  V30 4138 H 399.993 -0.25814 0.690314 0
M  V30 4139 H 402.635 0.0230927 1.89986 0
M  V30 4140 H 400.785 -2.00689 3.3265 0
M  V30 4141 H 402.457 0.268115 4.6052 0
M  V30 4142 H 400.7 0.321387 4.32608 0
M  V30 4143 H 401.371 -0.862242 5.45224 0
M  V30 4144 H 403.847 -1.78304 3.75961 0
M  V30 4145 H 402.723 -2.74567 4.75294 0
M  V30 4146 H 402.984 -3.18018 3.0711 0
M  V30 4147 N 402.043 -1.548 -0.295768 0
M  V30 4148 C 402.973 -1.89115 -1.36959 0
M  V30 4149 C 403.954 -0.75059 -1.52644 0
M  V30 4150 O 405.139 -1.00678 -1.66065 0
M  V30 4151 C 402.269 -2.14307 -2.73295 0
M  V30 4152 C 401.223 -3.30151 -2.72368 0
M  V30 4153 C 400.549 -3.40772 -4.12042 0
M  V30 4154 C 401.849 -4.67126 -2.33646 0
M  V30 4155 H 403.543 -2.79053 -1.08488 0
M  V30 4156 H 401.089 -1.34266 -0.520443 0
M  V30 4157 H 403.042 -2.36898 -3.48507 0
M  V30 4158 H 401.766 -1.21145 -3.03301 0
M  V30 4159 H 400.425 -3.0749 -1.99613 0
M  V30 4160 H 400.073 -2.45117 -4.39234 0
M  V30 4161 H 399.773 -4.18645 -4.12322 0
M  V30 4162 H 401.297 -3.6563 -4.89027 0
M  V30 4163 H 402.711 -4.89414 -2.98575 0
M  V30 4164 H 401.108 -5.47751 -2.45129 0
M  V30 4165 H 402.178 -4.67489 -1.28772 0
M  V30 4166 N 403.521 0.559213 -1.47345 0
M  V30 4167 C 404.749 1.34194 -1.57479 0
M  V30 4168 C 405.164 1.87463 -0.224261 0
M  V30 4169 O 404.521 1.64888 0.782185 0
M  V30 4170 C 404.572 2.51324 -2.59843 0
M  V30 4171 O 404.293 2.00256 -3.89653 0
M  V30 4172 C 405.794 3.43563 -2.80142 0
M  V30 4173 H 403.014 0.409136 -0.531835 0
M  V30 4174 H 405.558 0.677609 -1.92947 0
M  V30 4175 H 403.713 3.13699 -2.27314 0
M  V30 4176 H 404.127 2.76708 -4.4557 0
M  V30 4177 H 405.601 4.2217 -3.55635 0
M  V30 4178 H 406.078 3.9698 -1.87892 0
M  V30 4179 H 406.684 2.87005 -3.1386 0
M  V30 4180 N 404.999 1.35443 0.805782 0
M  V30 4181 C 406.229 1.31687 1.59192 0
M  V30 4182 C 406.637 -0.10756 1.88894 0
M  V30 4183 O 405.98 -1.07017 1.49309 0
M  V30 4184 C 406.042 2.05686 2.94845 0
M  V30 4185 C 405.706 3.54868 2.87954 0
M  V30 4186 C 406.703 4.49444 2.61335 0
M  V30 4187 C 404.388 3.97528 3.07046 0
M  V30 4188 C 406.382 5.84655 2.53885 0
M  V30 4189 C 404.069 5.32833 2.99219 0
M  V30 4190 C 405.067 6.26209 2.72674 0
M  V30 4191 O 404.755 7.59032 2.64811 0
M  V30 4192 H 404.487 0.453878 0.50097 0
M  V30 4193 H 407.041 1.78892 1.0093 0
M  V30 4194 H 405.271 1.5312 3.55093 0
M  V30 4195 H 406.96 1.94998 3.55993 0
M  V30 4196 H 407.726 4.17804 2.46303 0
M  V30 4197 H 403.605 3.25233 3.26718 0
M  V30 4198 H 407.149 6.57508 2.33086 0
M  V30 4199 H 403.046 5.64087 3.13809 0
M  V30 4200 H 403.814 7.68967 2.80413 0
M  V30 4201 N 406.477 -1.02803 1.19454 0
M  V30 4202 C 407.44 -2.09264 0.934955 0
M  V30 4203 C 408.44 -1.60576 -0.0849015 0
M  V30 4204 O 409.63 -1.73554 0.149933 0
M  V30 4205 C 406.762 -3.38482 0.40531 0
M  V30 4206 H 407.955 -2.33726 1.87916 0
M  V30 4207 H 405.508 -1.19426 1.00832 0
M  V30 4208 H 406.243 -3.19689 -0.544899 0
M  V30 4209 H 406.028 -3.75142 1.14065 0
M  V30 4210 H 407.518 -4.16894 0.242806 0
M  V30 4211 N 407.956 -0.998596 -1.21925 0
M  V30 4212 C 409.372 -0.710303 -1.42923 0
M  V30 4213 C 409.572 0.716933 -1.88314 0
M  V30 4214 O 408.628 1.48712 -2.04062 0
M  V30 4215 C 409.941 -1.72072 -2.466 0
M  V30 4216 C 411.489 -1.73681 -2.60392 0
M  V30 4217 C 411.964 -2.73601 -3.67296 0
M  V30 4218 N 413.455 -2.7223 -3.7476 0
M  V30 4219 C 414.19 -3.46206 -4.57087 0
M  V30 4220 N 413.686 -4.29802 -5.43362 0
M  V30 4221 N 415.479 -3.34886 -4.51451 0
M  V30 4222 H 407.63 -1.92028 -0.9077 0
M  V30 4223 H 409.893 -0.828487 -0.460775 0
M  V30 4224 H 409.599 -2.74231 -2.20206 0
M  V30 4225 H 409.473 -1.51818 -3.45299 0
M  V30 4226 H 411.86 -0.722173 -2.86127 0
M  V30 4227 H 411.941 -1.98005 -1.61949 0
M  V30 4228 H 411.585 -3.75217 -3.42307 0
M  V30 4229 H 411.515 -2.46545 -4.65321 0
M  V30 4230 H 414.006 -2.11576 -3.1312 0
M  V30 4231 H 414.319 -4.83061 -6.03218 0
M  V30 4232 H 412.664 -4.33887 -5.42925 0
M  V30 4233 H 415.855 -2.69015 -3.83078 0
M  V30 4234 H 416.028 -3.92796 -5.15379 0
M  V30 4235 N 409.434 1.37368 -0.772513 0
M  V30 4236 C 410.682 1.99279 -0.336516 0
M  V30 4237 C 411.003 1.6163 1.09091 0
M  V30 4238 O 410.273 0.882109 1.74916 0
M  V30 4239 H 408.853 0.737063 -0.121435 0
M  V30 4240 H 411.515 1.67836 -0.990809 0
M  V30 4241 H 410.611 3.09332 -0.414763 0
M  V30 4242 N 410.912 0.523116 1.48665 0
M  V30 4243 C 411.822 -0.247406 2.33292 0
M  V30 4244 C 412.838 -0.945769 1.46052 0
M  V30 4245 O 414.014 -0.922253 1.79043 0
M  V30 4246 C 411.079 -1.28487 3.22012 0
M  V30 4247 C 410.14 -0.597592 4.2512 0
M  V30 4248 C 409.373 -1.58563 5.09601 0
M  V30 4249 O 409.596 -2.81763 4.95949 0
M  V30 4250 O 408.53 -1.12879 5.91221 0
M  V30 4251 H 412.356 0.445869 3.00409 0
M  V30 4252 H 409.941 0.284128 1.46673 0
M  V30 4253 H 411.823 -1.88459 3.7691 0
M  V30 4254 H 410.498 -1.96068 2.57564 0
M  V30 4255 H 409.405 0.0424407 3.74076 0
M  V30 4256 H 410.738 0.0361517 4.92187 0
M  V30 4257 N 412.39 -1.55475 0.257931 0
M  V30 4258 C 413.3 -2.2549 -0.647425 0
M  V30 4259 C 414.316 -1.2748 -1.18427 0
M  V30 4260 O 415.492 -1.6038 -1.2182 0
M  V30 4261 C 412.557 -2.94916 -1.82278 0
M  V30 4262 C 411.618 -4.08363 -1.32432 0
M  V30 4263 C 410.851 -4.74469 -2.44366 0
M  V30 4264 O 411.074 -4.39701 -3.63344 0
M  V30 4265 O 410.008 -5.62763 -2.13497 0
M  V30 4266 H 413.834 -3.03593 -0.0807707 0
M  V30 4267 H 411.419 -1.49377 0.0259962 0
M  V30 4268 H 413.301 -3.38606 -2.50846 0
M  V30 4269 H 411.976 -2.19744 -2.37685 0
M  V30 4270 H 410.883 -3.69166 -0.605605 0
M  V30 4271 H 412.216 -4.85385 -0.816211 0
M  V30 4272 N 413.868 0.0150385 -1.57593 0
M  V30 4273 C 414.831 0.995996 -2.06428 0
M  V30 4274 C 415.831 1.2818 -0.970903 0
M  V30 4275 O 417.021 1.22949 -1.23406 0
M  V30 4276 C 414.153 2.32506 -2.49307 0
M  V30 4277 H 415.346 0.573873 -2.94358 0
M  V30 4278 H 412.899 0.262186 -1.54085 0
M  V30 4279 H 413.634 2.79438 -1.64575 0
M  V30 4280 H 413.419 2.13087 -3.29145 0
M  V30 4281 H 414.909 3.02906 -2.87468 0
M  V30 4282 N 415.346 1.54954 0.287554 0
M  V30 4283 C 416.594 1.74528 1.01904 0
M  V30 4284 C 416.915 0.541349 1.87335 0
M  V30 4285 O 416.185 -0.444108 1.908 0
M  V30 4286 H 414.765 0.643576 0.379235 0
M  V30 4287 H 417.427 1.92333 0.315294 0
M  V30 4288 H 416.523 2.64015 1.6644 0
M  V30 4289 N 416.824 -0.551391 1.4764 0
M  V30 4290 C 418.235 -1.13349 1.48354 0
M  V30 4291 C 418.586 -1.94709 0.241432 0
M  V30 4292 O 417.711 -2.06306 -0.653205 0
M  V30 4293 C 418.306 -2.0623 2.68802 0
M  V30 4294 C 416.865 -2.597 2.72457 0
M  V30 4295 C 416.012 -1.36201 2.41546 0
M  V30 4296 H 418.963 -0.337698 1.55065 0
M  V30 4297 H 418.984 -2.90196 2.46103 0
M  V30 4298 H 418.496 -1.46987 3.59188 0
M  V30 4299 H 416.597 -3.22724 1.86225 0
M  V30 4300 H 416.71 -3.00296 3.73308 0
M  V30 4301 H 415.074 -1.67068 1.9225 0
M  V30 4302 H 415.857 -0.787425 3.34147 0
M  V30 4303 N 418.302 -1.35869 -0.798587 0
M  V30 4304 C 419.212 -1.31578 -1.94228 0
M  V30 4305 C 420.228 -0.21939 -1.72611 0
M  V30 4306 O 421.404 -0.450167 -1.96305 0
M  V30 4307 C 418.469 -1.09528 -3.28944 0
M  V30 4308 C 417.53 -2.28556 -3.63402 0
M  V30 4309 C 416.763 -2.07549 -4.9169 0
M  V30 4310 O 416.986 -1.046 -5.60727 0
M  V30 4311 O 415.92 -2.95106 -5.24591 0
M  V30 4312 H 419.746 -2.27847 -2.00796 0
M  V30 4313 H 417.331 -1.16322 -0.937526 0
M  V30 4314 H 419.213 -0.991127 -4.09579 0
M  V30 4315 H 417.888 -0.16315 -3.23289 0
M  V30 4316 H 416.795 -2.44538 -2.83112 0
M  V30 4317 H 418.128 -3.20244 -3.73771 0
M  V30 4318 N 419.78 1.02168 -1.19998 0
M  V30 4319 C 421.028 1.75338 -1.00504 0
M  V30 4320 C 421.349 1.89387 0.464506 0
M  V30 4321 O 420.619 1.43268 1.33608 0
M  V30 4322 H 419.199 0.649564 -0.368885 0
M  V30 4323 H 421.861 1.23205 -1.51018 0
M  V30 4324 H 420.957 2.75892 -1.45912 0
M  V30 4325 N 421.258 1.00505 1.21394 0
M  V30 4326 C 422.168 0.574806 2.27449 0
M  V30 4327 C 423.184 -0.382206 1.6975 0
M  V30 4328 O 424.36 -0.246027 1.99892 0
M  V30 4329 C 421.425 -0.0917414 3.46579 0
M  V30 4330 C 420.486 0.909758 4.1955 0
M  V30 4331 C 419.719 0.274924 5.32991 0
M  V30 4332 O 419.942 -0.928254 5.62796 0
M  V30 4333 O 418.876 0.985877 5.93771 0
M  V30 4334 H 422.702 1.45744 2.66444 0
M  V30 4335 H 420.287 0.773923 1.27792 0
M  V30 4336 H 422.169 -0.464551 4.18832 0
M  V30 4337 H 420.844 -0.948755 3.09484 0
M  V30 4338 H 419.751 1.33372 3.49518 0
M  V30 4339 H 421.084 1.73636 4.60555 0
M  V30 4340 N 422.737 -1.36956 0.779787 0
M  V30 4341 C 423.7 -2.2851 0.177662 0
M  V30 4342 C 424.7 -1.48393 -0.619377 0
M  V30 4343 O 425.89 -1.68505 -0.441785 0
M  V30 4344 C 423.022 -3.32428 -0.755279 0
M  V30 4345 H 424.215 -2.83269 0.984823 0
M  V30 4346 H 421.768 -1.46358 0.548544 0
M  V30 4347 H 422.503 -2.82808 -1.58714 0
M  V30 4348 H 422.288 -3.91659 -0.185817 0
M  V30 4349 H 423.778 -4.00824 -1.17174 0
M  V30 4350 N 424.215 -0.530993 -1.48385 0
M  V30 4351 C 425.461 0.00274135 -2.028 0
M  V30 4352 C 425.794 1.33838 -1.40716 0
M  V30 4353 O 425.069 1.86465 -0.553277 0
M  V30 4354 C 425.352 0.123676 -3.59888 0
M  V30 4355 C 425.205 -1.2372 -4.3245 0
M  V30 4356 C 426.524 0.849967 -4.31814 0
M  V30 4357 H 423.643 -0.000477758 -0.737 0
M  V30 4358 H 426.285 -0.688217 -1.77098 0
M  V30 4359 H 424.435 0.712157 -3.81917 0
M  V30 4360 H 426.107 -1.86687 -4.21836 0
M  V30 4361 H 424.35 -1.81882 -3.93829 0
M  V30 4362 H 425.021 -1.10557 -5.40815 0
M  V30 4363 H 427.497 0.350572 -4.14621 0
M  V30 4364 H 426.373 0.903486 -5.41413 0
M  V30 4365 H 426.634 1.90047 -3.99167 0
M  V30 4366 N 425.693 1.55336 -0.266172 0
M  V30 4367 C 427.104 1.85236 0.233315 0
M  V30 4368 C 427.455 1.18816 1.56132 0
M  V30 4369 O 426.58 0.473307 2.11161 0
M  V30 4370 C 427.175 3.36059 0.430113 0
M  V30 4371 C 425.734 3.66116 0.873842 0
M  V30 4372 C 424.881 2.77274 -0.0380016 0
M  V30 4373 H 427.832 1.51004 -0.488214 0
M  V30 4374 H 427.853 3.58681 1.26998 0
M  V30 4375 H 427.365 3.84373 -0.536588 0
M  V30 4376 H 425.466 3.23295 1.85233 0
M  V30 4377 H 425.579 4.73699 0.717358 0
M  V30 4378 H 423.943 2.50198 0.476759 0
M  V30 4379 H 424.726 3.284 -1.00042 0
M  V30 4380 N 427.171 -0.0066808 1.57599 0
M  V30 4381 C 428.134 -0.985035 2.06953 0
M  V30 4382 C 429.134 -1.27663 0.977687 0
M  V30 4383 O 430.324 -1.22293 1.24057 0
M  V30 4384 C 427.456 -2.3118 2.50536 0
M  V30 4385 H 428.649 -0.558255 2.94658 0
M  V30 4386 H 426.202 -0.254011 1.54222 0
M  V30 4387 H 426.937 -2.78561 1.66054 0
M  V30 4388 H 426.722 -2.11338 3.3027 0
M  V30 4389 H 428.212 -3.01377 2.8907 0
M  V30 4390 N 428.649 -1.55105 -0.279332 0
M  V30 4391 C 429.612 -1.86783 -1.32834 0
M  V30 4392 C 430.612 -0.74199 -1.42657 0
M  V30 4393 O 431.802 -1.0102 -1.41918 0
M  V30 4394 C 428.934 -2.06746 -2.71052 0
M  V30 4395 H 430.127 -2.8055 -1.05979 0
M  V30 4396 H 427.68 -1.47499 -0.517087 0
M  V30 4397 H 428.415 -1.15339 -3.03097 0
M  V30 4398 H 428.2 -2.88711 -2.65309 0
M  V30 4399 H 429.69 -2.32549 -3.46858 0
M  V30 4400 N 430.127 0.543554 -1.4793 0
M  V30 4401 C 431.538 1.12561 -1.48953 0
M  V30 4402 C 431.889 1.94578 -0.251754 0
M  V30 4403 O 431.014 2.0665 0.642255 0
M  V30 4404 C 431.609 2.04801 -2.69892 0
M  V30 4405 C 430.168 2.58251 -2.73831 0
M  V30 4406 C 429.315 1.34918 -2.42265 0
M  V30 4407 H 432.266 0.32947 -1.55242 0
M  V30 4408 H 432.287 2.88886 -2.47639 0
M  V30 4409 H 431.799 1.4508 -3.59963 0
M  V30 4410 H 429.9 3.21732 -1.87934 0
M  V30 4411 H 430.013 2.98312 -3.74895 0
M  V30 4412 H 428.377 1.66046 -1.93134 0
M  V30 4413 H 429.16 0.769693 -3.3456 0
M  V30 4414 N 431.605 1.3629 0.791371 0
M  V30 4415 C 432.568 1.30309 1.88553 0
M  V30 4416 C 433.568 0.211204 1.59407 0
M  V30 4417 O 434.758 0.465865 1.67855 0
M  V30 4418 C 431.89 1.01956 3.25297 0
M  V30 4419 H 433.083 2.27614 1.95273 0
M  V30 4420 H 430.636 1.21035 0.988953 0
M  V30 4421 H 431.371 0.050998 3.2426 0
M  V30 4422 H 431.156 1.80968 3.4784 0
M  V30 4423 H 432.646 1.0037 4.05359 0
M  V30 4424 N 433.083 -1.0153 1.20538 0
M  V30 4425 C 434.331 -1.74803 1.01432 0
M  V30 4426 C 434.652 -1.8963 -0.454456 0
M  V30 4427 O 433.922 -1.43975 -1.32846 0
M  V30 4428 H 432.502 -0.647598 0.372324 0
M  V30 4429 H 435.164 -1.22402 1.5167 0
M  V30 4430 H 434.26 -2.75114 1.47373 0
M  V30 4431 N 434.561 -1.01147 -1.20859 0
M  V30 4432 C 435.972 -0.730205 -1.71828 0
M  V30 4433 C 436.323 0.751662 -1.8123 0
M  V30 4434 O 435.448 1.58686 -1.47132 0
M  V30 4435 C 436.043 -1.31885 -3.12077 0
M  V30 4436 C 434.602 -1.08656 -3.60376 0
M  V30 4437 C 433.749 -1.42769 -2.37723 0
M  V30 4438 H 436.7 -1.18158 -1.05945 0
M  V30 4439 H 436.721 -0.706793 -3.73878 0
M  V30 4440 H 436.233 -2.39737 -3.05201 0
M  V30 4441 H 434.334 -0.0254814 -3.72591 0
M  V30 4442 H 434.447 -1.76301 -4.45483 0
M  V30 4443 H 432.811 -0.846603 -2.40218 0
M  V30 4444 H 433.594 -2.51666 -2.33493 0
M  V30 4445 N 436.039 1.36541 -0.78704 0
M  V30 4446 C 437.002 2.28413 -0.189778 0
M  V30 4447 C 438.002 1.48719 0.611499 0
M  V30 4448 O 439.192 1.68737 0.432842 0
M  V30 4449 C 436.324 3.32824 0.737638 0
M  V30 4450 H 437.517 2.82743 -0.999831 0
M  V30 4451 H 435.07 1.46065 -0.556298 0
M  V30 4452 H 435.805 2.83646 1.57212 0
M  V30 4453 H 435.59 3.91752 0.165044 0
M  V30 4454 H 437.08 4.0144 1.15047 0
M  V30 4455 N 437.518 0.538854 1.48102 0
M  V30 4456 C 438.448 -0.207654 2.32575 0
M  V30 4457 C 439.429 -0.926559 1.4265 0
M  V30 4458 O 440.614 -0.91061 1.71527 0
M  V30 4459 C 437.744 -1.24957 3.24042 0
M  V30 4460 C 436.698 -0.648263 4.23062 0
M  V30 4461 C 436.024 -1.79348 5.03725 0
M  V30 4462 C 437.324 0.385897 5.20872 0
M  V30 4463 H 439.018 0.497534 2.95237 0
M  V30 4464 H 436.564 0.240715 1.41974 0
M  V30 4465 H 438.517 -1.77983 3.81969 0
M  V30 4466 H 437.241 -1.98446 2.59397 0
M  V30 4467 H 435.9 -0.139452 3.66335 0
M  V30 4468 H 435.548 -2.51696 4.35498 0
M  V30 4469 H 435.248 -1.39702 5.70751 0
M  V30 4470 H 436.772 -2.32735 5.64506 0
M  V30 4471 H 438.186 -0.057607 5.73271 0
M  V30 4472 H 436.583 0.700227 5.96001 0
M  V30 4473 H 437.653 1.28848 4.67468 0
M  V30 4474 N 438.996 -1.55193 0.274407 0
M  V30 4475 C 439.959 -2.212 -0.600279 0
M  V30 4476 C 440.959 -1.18963 -1.08187 0
M  V30 4477 O 442.149 -1.43873 -0.982158 0
M  V30 4478 C 439.281 -2.87739 -1.82809 0
M  V30 4479 H 440.474 -2.9989 -0.0239682 0
M  V30 4480 H 438.027 -1.5628 0.0250192 0
M  V30 4481 H 438.762 -2.13058 -2.44493 0
M  V30 4482 H 438.547 -3.62658 -1.49069 0
M  V30 4483 H 440.037 -3.38171 -2.45011 0
M  V30 4484 N 440.474 -0.00167713 -1.576 0
M  V30 4485 C 441.406 1.0174 -2.05382 0
M  V30 4486 C 442.419 1.30595 -0.972052 0
M  V30 4487 O 443.608 1.27542 -1.24882 0
M  V30 4488 C 440.708 2.35174 -2.44022 0
M  V30 4489 C 439.881 2.25234 -3.74951 0
M  V30 4490 C 438.94 3.4137 -4.00441 0
M  V30 4491 O 437.966 3.19483 -4.71083 0
M  V30 4492 N 439.168 4.64275 -3.48467 0
M  V30 4493 H 441.933 0.609902 -2.93428 0
M  V30 4494 H 439.494 0.185672 -1.60832 0
M  V30 4495 H 441.486 3.11643 -2.58187 0
M  V30 4496 H 440.056 2.67659 -1.61485 0
M  V30 4497 H 439.276 1.33664 -3.70847 0
M  V30 4498 H 440.564 2.15767 -4.60784 0
M  V30 4499 H 439.962 4.84955 -2.91264 0
M  V30 4500 H 438.519 5.38005 -3.67959 0
M  V30 4501 N 441.952 1.55251 0.271103 0
M  V30 4502 C 443.363 1.66635 0.842007 0
M  V30 4503 C 443.714 0.594631 1.86972 0
M  V30 4504 O 442.839 -0.263532 2.14789 0
M  V30 4505 C 443.434 3.02082 1.53401 0
M  V30 4506 C 441.993 3.15487 2.05293 0
M  V30 4507 C 441.14 2.62438 0.895631 0
M  V30 4508 H 444.091 1.58629 0.0474117 0
M  V30 4509 H 444.112 2.95176 2.40107 0
M  V30 4510 H 443.624 3.80062 0.785786 0
M  V30 4511 H 441.725 2.42284 2.83071 0
M  V30 4512 H 441.838 4.22075 2.26693 0
M  V30 4513 H 440.202 2.19644 1.28953 0
M  V30 4514 H 440.985 3.42923 0.160878 0
M  V30 4515 N 443.43 -0.535701 1.48216 0
M  V30 4516 C 444.655 -1.32149 1.59848 0
M  V30 4517 C 445.08 -1.86338 0.256842 0
M  V30 4518 O 444.438 -1.64107 -0.770632 0
M  V30 4519 C 444.486 -2.45224 2.64381 0
M  V30 4520 O 443.59 -3.48093 2.21144 0
M  V30 4521 H 442.931 -0.391634 0.536208 0
M  V30 4522 H 445.461 -0.645202 1.94161 0
M  V30 4523 H 445.471 -2.91491 2.85476 0
M  V30 4524 H 444.146 -2.05143 3.61786 0
M  V30 4525 H 442.723 -3.07984 2.10239 0
M  V30 4526 N 444.908 -1.36708 -0.784132 0
M  V30 4527 C 446.133 -1.34565 -1.5782 0
M  V30 4528 C 446.558 0.0695257 -1.87971 0
M  V30 4529 O 445.916 1.04302 -1.48293 0
M  V30 4530 C 445.964 -2.17952 -2.87279 0
M  V30 4531 O 445.068 -1.57563 -3.81114 0
M  V30 4532 H 444.409 -0.460337 -0.478524 0
M  V30 4533 H 446.939 -1.80064 -0.971495 0
M  V30 4534 H 446.949 -2.30721 -3.365 0
M  V30 4535 H 445.624 -3.20823 -2.64661 0
M  V30 4536 H 444.201 -1.53764 -3.39722 0
M  V30 4537 N 446.386 1.0089 -1.21074 0
M  V30 4538 C 447.316 2.1145 -0.990523 0
M  V30 4539 C 448.297 1.69897 0.0831699 0
M  V30 4540 O 449.482 1.94052 -0.0758853 0
M  V30 4541 C 446.612 3.42914 -0.550177 0
M  V30 4542 C 445.566 3.98244 -1.56799 0
M  V30 4543 C 444.892 5.25568 -0.984013 0
M  V30 4544 C 446.192 4.30752 -2.95381 0
M  V30 4545 H 447.886 2.3013 -1.91521 0
M  V30 4546 H 445.432 1.10592 -0.92225 0
M  V30 4547 H 447.385 4.19653 -0.383305 0
M  V30 4548 H 446.109 3.24014 0.41015 0
M  V30 4549 H 444.768 3.23621 -1.72236 0
M  V30 4550 H 444.416 5.02998 -0.0155216 0
M  V30 4551 H 444.116 5.63551 -1.66384 0
M  V30 4552 H 445.64 6.04955 -0.828378 0
M  V30 4553 H 447.054 4.98349 -2.8341 0
M  V30 4554 H 445.451 4.79869 -3.60341 0
M  V30 4555 H 446.521 3.39192 -3.46521 0
M  V30 4556 O 447.903 1.14481 1.13914 0
M  V30 4557 H 448.594 0.866659 1.7323 0
M  V30 END ATOM
M  V30 BEGIN BOND
M  V30 END BOND
M  V30 END CTAB
M  END
$$$$
