drugbank_target|Q8N907 DAN domain family member 5 (DB01593; DB14487)
 OpenBabel12092121023D

  0  0  0     0  0            999 V3000
M  V30 BEGIN CTAB
M  V30 COUNTS 2867 2903 0 0 0
M  V30 BEGIN ATOM
M  V30 1 H -0.908 1.98254 -0.117106 0
M  V30 2 N 0 1.576 0 0
M  V30 3 C 0.933 2.03868 1.02534 0
M  V30 4 C 1.911 0.928543 1.3348 0
M  V30 5 O 3.095 1.19667 1.45644 0
M  V30 6 C 0.222 2.43627 2.35294 0
M  V30 7 C -0.732 3.65373 2.2001 0
M  V30 8 S 0.101 5.13292 1.52614 0
M  V30 9 C 1.257 5.56322 2.86805 0
M  V30 10 H 1.49 2.90518 0.631377 0
M  V30 11 H -0.977 1.52953 0.210867 0
M  V30 12 H 0.981 2.67203 3.11629 0
M  V30 13 H -0.358 1.57376 2.7183 0
M  V30 14 H -1.165 3.90944 3.18086 0
M  V30 15 H -1.563 3.418 1.51819 0
M  V30 16 H 0.729 5.58782 3.83104 0
M  V30 17 H 1.672 6.56266 2.65933 0
M  V30 18 H 2.08 4.83886 2.90714 0
M  V30 19 N 1.4781 -0.272755 1.55222 0
M  V30 20 C 2.4081 -1.34136 1.91127 0
M  V30 21 C 3.3891 -1.51513 0.773168 0
M  V30 22 O 4.5741 -1.64552 1.03132 0
M  V30 23 C 1.7041 -2.70083 2.1834 0
M  V30 24 C 0.6581 -2.67437 3.34158 0
M  V30 25 C -0.0159 -4.06938 3.46851 0
M  V30 26 C 1.2841 -2.26686 4.70543 0
M  V30 27 H 2.9781 -1.04333 2.80633 0
M  V30 28 H 0.5241 -0.500454 1.35024 0
M  V30 29 H 2.4771 -3.44952 2.42046 0
M  V30 30 H 1.2011 -3.01469 1.25634 0
M  V30 31 H -0.1399 -1.95026 3.1042 0
M  V30 32 H -0.4919 -4.35547 2.51611 0
M  V30 33 H -0.7919 -4.06062 4.2472 0
M  V30 34 H 0.7321 -4.83545 3.72849 0
M  V30 35 H 2.1461 -2.91277 4.93792 0
M  V30 36 H 0.5431 -2.36971 5.5133 0
M  V30 37 H 1.6131 -1.21818 4.69349 0
M  V30 38 N 2.9562 -1.48159 -0.537278 0
M  V30 39 C 3.8862 -1.65029 -1.6519 0
M  V30 40 C 4.8672 -0.499281 -1.62607 0
M  V30 41 O 6.0522 -0.730972 -1.79918 0
M  V30 42 C 3.1822 -1.68303 -3.03795 0
M  V30 43 C 2.1362 -2.8283 -3.21234 0
M  V30 44 C 1.4622 -2.71189 -4.60826 0
M  V30 45 C 2.7622 -4.24211 -3.04701 0
M  V30 46 H 4.4562 -2.58341 -1.51328 0
M  V30 47 H 2.0022 -1.24325 -0.726585 0
M  V30 48 H 3.9552 -1.78693 -3.81637 0
M  V30 49 H 2.6792 -0.715635 -3.18663 0
M  V30 50 H 1.3382 -2.71983 -2.45807 0
M  V30 51 H 0.9862 -1.72435 -4.7252 0
M  V30 52 H 0.6862 -3.48035 -4.7344 0
M  V30 53 H 2.2102 -2.83537 -5.40777 0
M  V30 54 H 3.6242 -4.3593 -3.72341 0
M  V30 55 H 2.0212 -5.01998 -3.28813 0
M  V30 56 H 3.0912 -4.41184 -2.01209 0
M  V30 57 N 4.4343 0.785586 -1.36625 0
M  V30 58 C 5.6823 1.54057 -1.30808 0
M  V30 59 C 6.0033 1.94683 0.111157 0
M  V30 60 O 5.2733 1.65241 1.05224 0
M  V30 61 H 3.8533 0.571354 -0.481211 0
M  V30 62 H 6.5153 0.935821 -1.70963 0
M  V30 63 H 5.6113 2.44637 -1.93801 0
M  V30 64 N 5.9124 1.20967 1.01018 0
M  V30 65 C 6.8444 0.922059 2.09835 0
M  V30 66 C 7.8574 -0.0927106 1.62536 0
M  V30 67 O 9.0464 0.139127 1.77957 0
M  V30 68 C 6.1464 0.362004 3.36961 0
M  V30 69 C 5.3194 1.42986 4.13369 0
M  V30 70 C 4.3784 0.879976 5.1879 0
M  V30 71 O 3.4044 1.56219 5.47343 0
M  V30 72 N 4.6064 -0.307396 5.79686 0
M  V30 73 H 7.3714 1.8588 2.35093 0
M  V30 74 H 4.9324 1.11422 1.1746 0
M  V30 75 H 6.9244 -0.0201474 4.04695 0
M  V30 76 H 5.4944 -0.479437 3.08902 0
M  V30 77 H 4.7144 1.98608 3.40512 0
M  V30 78 H 6.0024 2.14885 4.61196 0
M  V30 79 H 5.4004 -0.878796 5.58832 0
M  V30 80 H 3.9574 -0.631115 6.48737 0
M  V30 81 N 7.3905 -1.2043 1.01659 0
M  V30 82 C 8.3205 -2.25466 0.607226 0
M  V30 83 C 9.3015 -1.65853 -0.377716 0
M  V30 84 O 10.4865 -1.92409 -0.263149 0
M  V30 85 C 7.6165 -3.47256 -0.0552949 0
M  V30 86 C 6.5705 -4.19462 0.850632 0
M  V30 87 C 5.8965 -5.34673 0.0538859 0
M  V30 88 C 7.1965 -4.75603 2.15868 0
M  V30 89 H 8.8905 -2.59962 1.48526 0
M  V30 90 H 6.4365 -1.2496 0.715605 0
M  V30 91 H 8.3895 -4.19917 -0.353233 0
M  V30 92 H 7.1135 -3.11924 -0.968045 0
M  V30 93 H 5.7725 -3.48667 1.13257 0
M  V30 94 H 5.4205 -4.95585 -0.860514 0
M  V30 95 H 5.1205 -5.83913 0.657192 0
M  V30 96 H 6.6445 -6.10138 -0.237598 0
M  V30 97 H 8.0585 -5.40083 1.92311 0
M  V30 98 H 6.4555 -5.3528 2.71284 0
M  V30 99 H 7.5255 -3.94346 2.82169 0
M  V30 100 N 8.8686 -0.792821 -1.36206 0
M  V30 101 C 10.0936 -0.377701 -2.03932 0
M  V30 102 C 10.5186 0.998947 -1.59382 0
M  V30 103 O 9.8766 1.64421 -0.763903 0
M  V30 104 C 9.9246 -0.453635 -3.57735 0
M  V30 105 O 9.0286 0.538151 -4.08874 0
M  V30 106 H 8.3696 -0.159855 -0.644471 0
M  V30 107 H 10.8996 -1.07488 -1.7409 0
M  V30 108 H 10.9096 -0.318464 -4.06755 0
M  V30 109 H 9.5846 -1.45784 -3.89512 0
M  V30 110 H 8.1616 0.364359 -3.71116 0
M  V30 111 N 10.3467 1.47872 -0.545128 0
M  V30 112 C 11.5747 2.06889 -0.021084 0
M  V30 113 C 11.9897 1.39955 1.2672 0
M  V30 114 O 11.3467 0.492036 1.75742 0
M  V30 115 C 11.3977 3.60996 0.190817 0
M  V30 116 O 11.1187 4.25419 -1.04644 0
M  V30 117 C 12.6197 4.36849 0.753521 0
M  V30 118 H 9.8397 0.669785 -0.0403635 0
M  V30 119 H 12.3837 1.90049 -0.755095 0
M  V30 120 H 10.5387 3.77391 0.87492 0
M  V30 121 H 10.9527 5.17785 -0.836611 0
M  V30 122 H 12.4267 5.45399 0.851139 0
M  V30 123 H 12.9037 4.02306 1.762 0
M  V30 124 H 13.5097 4.25169 0.105503 0
M  V30 125 N 11.8248 0.280983 1.55075 0
M  V30 126 C 12.7548 -0.597469 2.25727 0
M  V30 127 C 13.7358 -1.15417 1.24952 0
M  V30 128 O 14.9208 -1.18722 1.53684 0
M  V30 129 C 12.0508 -1.7789 2.98283 0
M  V30 130 C 11.0048 -1.35347 4.06036 0
M  V30 131 C 10.3308 -2.61846 4.66198 0
M  V30 132 C 11.6308 -0.499354 5.19907 0
M  V30 133 H 13.3248 -0.00824265 2.99399 0
M  V30 134 H 10.8708 -0.0025244 1.44 0
M  V30 135 H 12.8238 -2.39937 3.46422 0
M  V30 136 H 11.5478 -2.39405 2.22155 0
M  V30 137 H 10.2068 -0.756156 3.58717 0
M  V30 138 H 9.8548 -3.21632 3.86732 0
M  V30 139 H 9.5548 -2.3409 5.38958 0
M  V30 140 H 11.0788 -3.24732 5.1709 0
M  V30 141 H 12.4928 -1.02498 5.64063 0
M  V30 142 H 10.8898 -0.316424 5.99265 0
M  V30 143 H 11.9598 0.480459 4.82514 0
M  V30 144 N 13.3029 -1.57598 0.00835791 0
M  V30 145 C 14.2329 -2.1198 -0.979113 0
M  V30 146 C 15.2139 -1.03091 -1.35301 0
M  V30 147 O 16.3989 -1.30818 -1.43528 0
M  V30 148 C 13.5289 -2.62995 -2.26828 0
M  V30 149 C 12.4829 -3.76485 -2.03576 0
M  V30 150 C 11.8089 -4.13846 -3.38579 0
M  V30 151 C 13.1089 -5.0342 -1.39161 0
M  V30 152 H 14.8029 -2.94738 -0.526281 0
M  V30 153 H 12.3489 -1.41783 -0.251704 0
M  V30 154 H 14.3019 -2.99669 -2.96271 0
M  V30 155 H 13.0259 -1.7737 -2.7424 0
M  V30 156 H 11.6849 -3.40217 -1.36557 0
M  V30 157 H 11.3329 -3.25232 -3.83709 0
M  V30 158 H 11.0329 -4.90312 -3.23834 0
M  V30 159 H 12.5569 -4.53086 -4.09323 0
M  V30 160 H 13.9709 -5.37812 -1.98573 0
M  V30 161 H 12.3679 -5.84746 -1.34878 0
M  V30 162 H 13.4379 -4.83548 -0.361868 0
M  V30 163 N 14.781 0.264519 -1.55364 0
M  V30 164 C 16.021 1.00254 -1.78125 0
M  V30 165 C 16.385 1.83187 -0.575017 0
M  V30 166 O 17.586 2.60029 -0.681042 0
M  V30 167 C 15.857 1.85478 -3.05504 0
M  V30 168 S 17.416 2.6543 -3.49417 0
M  V30 169 H 14.234 0.337522 -0.625779 0
M  V30 170 H 16.836 0.272111 -1.93597 0
M  V30 171 H 15.54 1.23491 -3.9138 0
M  V30 172 H 15.071 2.62827 -2.92721 0
M  V30 173 H 17.086 3.87958 -3.09359 0
M  V30 174 N 16.2591 1.48442 0.529413 0
M  V30 175 C 17.1891 1.65902 1.64313 0
M  V30 176 C 18.1701 0.507897 1.6234 0
M  V30 177 O 19.3551 0.740503 1.79528 0
M  V30 178 C 16.4851 1.69911 3.02898 0
M  V30 179 C 15.4391 2.8453 3.19729 0
M  V30 180 C 14.7651 2.73629 4.59381 0
M  V30 181 C 16.0651 4.25821 3.02447 0
M  V30 182 H 17.7591 2.5914 1.49955 0
M  V30 183 H 15.3051 1.24709 0.719982 0
M  V30 184 H 17.2581 1.80715 3.80684 0
M  V30 185 H 15.9821 0.732524 3.18279 0
M  V30 186 H 14.6411 2.73283 2.44361 0
M  V30 187 H 14.2891 1.74938 4.71599 0
M  V30 188 H 13.9891 3.50541 4.71588 0
M  V30 189 H 15.5131 2.86401 5.39265 0
M  V30 190 H 16.9271 4.37898 3.70024 0
M  V30 191 H 15.3241 5.03735 3.26146 0
M  V30 192 H 16.3941 4.42244 1.98867 0
M  V30 193 N 17.7372 -0.778329 1.37039 0
M  V30 194 C 18.6672 -1.90546 1.34962 0
M  V30 195 C 19.6482 -1.68681 0.219274 0
M  V30 196 O 20.8332 -1.89634 0.418624 0
M  V30 197 C 17.9632 -3.27734 1.14925 0
M  V30 198 C 16.9172 -3.64147 2.24902 0
M  V30 199 C 16.2432 -4.99806 1.89996 0
M  V30 200 C 17.5432 -3.71579 3.67051 0
M  V30 201 H 19.2372 -1.92541 2.29277 0
M  V30 202 H 16.7832 -0.924948 1.10366 0
M  V30 203 H 18.7362 -4.06215 1.12104 0
M  V30 204 H 17.4602 -3.26154 0.170631 0
M  V30 205 H 16.1192 -2.8797 2.26868 0
M  V30 206 H 15.7672 -4.94759 0.906796 0
M  V30 207 H 15.4672 -5.25139 2.63634 0
M  V30 208 H 16.9912 -5.80694 1.88749 0
M  V30 209 H 18.4052 -4.40227 3.67251 0
M  V30 210 H 16.8022 -4.08405 4.39688 0
M  V30 211 H 17.8722 -2.72404 4.01154 0
M  V30 212 N 19.2153 -1.21501 -1.00376 0
M  V30 213 C 20.4403 -1.05977 -1.78279 0
M  V30 214 C 20.8653 0.385994 -1.84097 0
M  V30 215 O 20.2233 1.27849 -1.28547 0
M  V30 216 C 20.2713 -1.66302 -3.19963 0
M  V30 217 O 19.3753 -0.909333 -4.0225 0
M  V30 218 H 18.7163 -0.372906 -0.549397 0
M  V30 219 H 21.2463 -1.6107 -1.26165 0
M  V30 220 H 21.2563 -1.70574 -3.70632 0
M  V30 221 H 19.9313 -2.71515 -3.15043 0
M  V30 222 H 18.5083 -0.941795 -3.60811 0
M  V30 223 N 20.6934 1.19889 -1.02296 0
M  V30 224 C 21.9414 1.89046 -0.714558 0
M  V30 225 C 22.2624 1.79636 0.758681 0
M  V30 226 O 21.5324 1.20292 1.54618 0
M  V30 227 H 20.1124 0.699802 -0.261317 0
M  V30 228 H 22.7744 1.45574 -1.29592 0
M  V30 229 H 21.8704 2.95524 -1.0036 0
M  V30 230 N 22.1715 0.800033 1.35784 0
M  V30 231 C 23.1345 0.211565 2.28221 0
M  V30 232 C 24.1345 -0.59728 1.49296 0
M  V30 233 O 25.3245 -0.416721 1.69142 0
M  V30 234 C 22.4565 -0.705846 3.33513 0
M  V30 235 H 23.6495 1.02677 2.81776 0
M  V30 236 H 21.2025 0.570211 1.45528 0
M  V30 237 H 21.9375 -1.54498 2.85133 0
M  V30 238 H 21.7225 -0.127655 3.91892 0
M  V30 239 H 23.2125 -1.11211 4.02519 0
M  V30 240 N 23.6496 -1.47581 0.552962 0
M  V30 241 C 24.5796 -2.32762 -0.185451 0
M  V30 242 C 25.5606 -1.43527 -0.912905 0
M  V30 243 O 26.7456 -1.72388 -0.894201 0
M  V30 244 C 23.8756 -3.25219 -1.21859 0
M  V30 245 C 22.8296 -4.23661 -0.607864 0
M  V30 246 C 22.1556 -5.05413 -1.74533 0
M  V30 247 C 23.4556 -5.20481 0.435582 0
M  V30 248 H 25.1496 -2.94749 0.525684 0
M  V30 249 H 22.6956 -1.41738 0.254251 0
M  V30 250 H 24.6486 -3.8365 -1.7433 0
M  V30 251 H 23.3726 -2.61279 -1.95961 0
M  V30 252 H 22.0316 -3.66451 -0.104489 0
M  V30 253 H 21.6796 -4.3788 -2.47529 0
M  V30 254 H 21.3796 -5.72059 -1.34249 0
M  V30 255 H 22.9036 -5.66701 -2.27338 0
M  V30 256 H 24.3176 -5.733 -0.00290157 0
M  V30 257 H 22.7146 -5.95305 0.757067 0
M  V30 258 H 23.7846 -4.66217 1.33303 0
M  V30 259 N 25.1277 -0.289203 -1.54924 0
M  V30 260 C 26.5387 0.205791 -1.85562 0
M  V30 261 C 26.8897 1.54351 -1.2112 0
M  V30 262 O 26.0147 2.10435 -0.504601 0
M  V30 263 C 26.6097 0.380177 -3.3666 0
M  V30 264 C 25.1687 0.819395 -3.67373 0
M  V30 265 C 24.3157 -0.079159 -2.77187 0
M  V30 266 H 27.2667 -0.510577 -1.50262 0
M  V30 267 H 27.2877 1.21659 -3.60526 0
M  V30 268 H 26.7997 -0.593589 -3.83534 0
M  V30 269 H 24.9007 1.80413 -3.26009 0
M  V30 270 H 25.0137 0.646957 -4.74712 0
M  V30 271 H 23.3777 0.439565 -2.50878 0
M  V30 272 H 24.1607 -1.04906 -3.26878 0
M  V30 273 N 26.6058 1.57591 -0.0167156 0
M  V30 274 C 27.8338 1.95575 0.675128 0
M  V30 275 C 28.2488 0.892542 1.6637 0
M  V30 276 O 27.6058 -0.126912 1.82058 0
M  V30 277 C 27.6568 3.33608 1.39239 0
M  V30 278 O 27.3778 4.3585 0.443444 0
M  V30 279 C 28.8788 3.86151 2.17721 0
M  V30 280 H 26.0988 0.644423 0.186978 0
M  V30 281 H 28.6428 2.0437 -0.0728 0
M  V30 282 H 26.7978 3.2607 2.09182 0
M  V30 283 H 27.2118 5.158 0.951358 0
M  V30 284 H 28.6858 4.85114 2.63379 0
M  V30 285 H 29.1628 3.19738 3.01105 0
M  V30 286 H 29.7688 3.96918 1.52761 0
M  V30 287 N 28.0839 -0.256276 1.55502 0
M  V30 288 C 29.3319 -0.983672 1.76545 0
M  V30 289 C 29.6529 -1.86206 0.578982 0
M  V30 290 O 28.9229 -1.91656 -0.405577 0
M  V30 291 H 27.5029 -0.366191 0.651086 0
M  V30 292 H 30.1649 -0.276479 1.92929 0
M  V30 293 H 29.2609 -1.61087 2.67315 0
M  V30 294 N 29.562 -1.4872 -0.521534 0
M  V30 295 C 30.787 -1.61101 -1.30618 0
M  V30 296 C 31.212 -0.274611 -1.86085 0
M  V30 297 O 30.57 0.754937 -1.64834 0
M  V30 298 C 30.618 -2.66709 -2.4269 0
M  V30 299 O 29.722 -2.24456 -3.45967 0
M  V30 300 H 29.063 -0.539921 -0.386499 0
M  V30 301 H 31.593 -1.94767 -0.626645 0
M  V30 302 H 31.603 -2.88245 -2.88754 0
M  V30 303 H 30.278 -3.63727 -2.01682 0
M  V30 304 H 28.855 -2.13168 -3.05964 0
M  V30 305 N 31.0401 0.771051 -1.3745 0
M  V30 306 C 32.2881 1.52661 -1.32435 0
M  V30 307 C 32.6091 1.9479 0.0905024 0
M  V30 308 O 31.8791 1.66348 1.03466 0
M  V30 309 H 30.4591 0.566218 -0.487244 0
M  V30 310 H 33.1211 0.917636 -1.71946 0
M  V30 311 H 32.2171 2.42568 -1.96385 0
M  V30 312 N 32.5182 1.22032 0.997298 0
M  V30 313 C 33.9342 0.979326 1.26021 0
M  V30 314 C 34.1342 -0.32972 1.98784 0
M  V30 315 O 33.1902 -1.05345 2.29475 0
M  V30 316 C 34.5032 2.17509 2.07631 0
M  V30 317 C 36.0512 2.21817 2.2083 0
M  V30 318 C 36.5262 3.40933 3.05825 0
M  V30 319 N 38.0172 3.41067 3.13412 0
M  V30 320 C 38.7522 4.29885 3.79455 0
M  V30 321 N 38.2482 5.28914 4.47462 0
M  V30 322 N 40.0412 4.17673 3.76173 0
M  V30 323 H 32.1922 2.06202 0.509352 0
M  V30 324 H 34.4552 0.90334 0.287541 0
M  V30 325 H 34.1612 3.12415 1.61524 0
M  V30 326 H 34.0352 2.17206 3.08385 0
M  V30 327 H 36.4222 1.27462 2.66153 0
M  V30 328 H 36.5032 2.2616 1.1952 0
M  V30 329 H 36.1472 4.35586 2.61203 0
M  V30 330 H 36.0772 3.33829 4.07266 0
M  V30 331 H 38.5682 2.69406 2.65007 0
M  V30 332 H 38.8812 5.92973 4.95583 0
M  V30 333 H 37.2262 5.32831 4.46224 0
M  V30 334 H 40.4172 3.39564 3.22202 0
M  V30 335 H 40.5902 4.87098 4.27363 0
M  V30 336 N 33.9963 -1.19345 1.0293 0
M  V30 337 C 35.4073 -1.70725 0.755633 0
M  V30 338 C 35.7583 -1.82326 -0.724676 0
M  V30 339 O 34.8833 -1.49471 -1.56484 0
M  V30 340 C 35.4783 -3.10084 1.36503 0
M  V30 341 C 34.0373 -3.58723 1.13994 0
M  V30 342 C 33.1843 -2.35577 1.46283 0
M  V30 343 H 36.1353 -1.0418 1.19718 0
M  V30 344 H 36.1563 -3.72787 0.762217 0
M  V30 345 H 35.6683 -3.01609 2.44241 0
M  V30 346 H 33.7693 -3.72512 0.0807901 0
M  V30 347 H 33.8823 -4.42816 1.82894 0
M  V30 348 H 32.2463 -2.38935 0.88217 0
M  V30 349 H 33.0293 -2.29731 2.55105 0
M  V30 350 N 35.4744 -0.807222 -1.35358 0
M  V30 351 C 36.3844 -0.219594 -2.3357 0
M  V30 352 C 37.4004 0.637734 -1.61892 0
M  V30 353 O 38.5764 0.549336 -1.93763 0
M  V30 354 C 35.6414 0.62158 -3.41083 0
M  V30 355 C 34.7024 -0.256315 -4.28534 0
M  V30 356 C 33.9354 0.544807 -5.30912 0
M  V30 357 O 34.1584 1.77944 -5.41934 0
M  V30 358 O 33.0924 -0.0646478 -6.01865 0
M  V30 359 H 36.9184 -1.03208 -2.85625 0
M  V30 360 H 34.5034 -0.569025 -1.38139 0
M  V30 361 H 36.3854 1.10067 -4.06772 0
M  V30 362 H 35.0604 1.41165 -2.91297 0
M  V30 363 H 33.9674 -0.782559 -3.65823 0
M  V30 364 H 35.3004 -1.01034 -4.81719 0
M  V30 365 N 36.9525 1.47285 -0.560781 0
M  V30 366 C 38.3635 1.86258 -0.128343 0
M  V30 367 C 38.7145 1.46699 1.30284 0
M  V30 368 O 37.8395 0.871698 1.98067 0
M  V30 369 C 38.4345 3.38044 -0.22614 0
M  V30 370 C 36.9935 3.76096 0.151283 0
M  V30 371 C 36.1405 2.71335 -0.572084 0
M  V30 372 H 39.0915 1.38752 -0.770297 0
M  V30 373 H 39.1125 3.76441 0.554322 0
M  V30 374 H 38.6245 3.66806 -1.26788 0
M  V30 375 H 36.7255 3.52951 1.19399 0
M  V30 376 H 36.8385 4.78641 -0.209765 0
M  V30 377 H 35.2025 2.54696 -0.0147653 0
M  V30 378 H 35.9855 3.02938 -1.61504 0
M  V30 379 N 38.4306 0.297415 1.54768 0
M  V30 380 C 39.3626 -0.613881 2.20826 0
M  V30 381 C 40.3756 -1.10032 1.19987 0
M  V30 382 O 41.5646 -1.01839 1.46598 0
M  V30 383 C 38.6646 -1.852 2.83821 0
M  V30 384 C 37.8376 -1.50865 4.10559 0
M  V30 385 C 36.8966 -2.60154 4.57391 0
M  V30 386 O 35.9226 -2.25398 5.2267 0
M  V30 387 N 37.1246 -3.90629 4.29406 0
M  V30 388 H 39.8896 -0.048389 2.99661 0
M  V30 389 H 37.4506 0.11946 1.61459 0
M  V30 390 H 39.4426 -2.57652 3.12086 0
M  V30 391 H 38.0126 -2.32597 2.08847 0
M  V30 392 H 37.2326 -0.616925 3.89343 0
M  V30 393 H 38.5206 -1.25458 4.9309 0
M  V30 394 H 37.9186 -4.21677 3.77101 0
M  V30 395 H 36.4756 -4.59391 4.62388 0
M  V30 396 N 39.9087 -1.5758 0.0250728 0
M  V30 397 C 41.1337 -1.96337 -0.668317 0
M  V30 398 C 41.5587 -0.901314 -1.651 0
M  V30 399 O 40.9167 0.138187 -1.80773 0
M  V30 400 C 40.9647 -3.34191 -1.35457 0
M  V30 401 O 40.0687 -3.30269 -2.46974 0
M  V30 402 H 39.4097 -0.640281 -0.175887 0
M  V30 403 H 41.9397 -2.0442 0.0857224 0
M  V30 404 H 41.9497 -3.70331 -1.71228 0
M  V30 405 H 40.6247 -4.11036 -0.634218 0
M  V30 406 H 39.2017 -3.05841 -2.13344 0
M  V30 407 N 41.3868 0.248026 -1.55636 0
M  V30 408 C 42.7978 0.817177 -1.67866 0
M  V30 409 C 43.1488 1.86069 -0.622322 0
M  V30 410 O 42.2738 2.15157 0.231618 0
M  V30 411 C 42.8688 1.489 -3.04326 0
M  V30 412 C 41.4278 2.00587 -3.185 0
M  V30 413 C 40.5748 0.856573 -2.63739 0
M  V30 414 H 43.5258 0.0238579 -1.58682 0
M  V30 415 H 43.5468 2.35698 -2.98708 0
M  V30 416 H 43.0588 0.729279 -3.81186 0
M  V30 417 H 41.1598 2.79443 -2.4646 0
M  V30 418 H 41.2728 2.20402 -4.25393 0
M  V30 419 H 39.6368 1.25678 -2.21534 0
M  V30 420 H 40.4198 0.109953 -3.43124 0
M  V30 421 N 42.8649 1.48995 0.513639 0
M  V30 422 C 44.2809 1.35478 0.843682 0
M  V30 423 C 44.4809 0.378213 1.97919 0
M  V30 424 O 43.5369 -0.194689 2.51748 0
M  V30 425 C 44.8499 2.75901 1.1958 0
M  V30 426 C 46.3979 2.84509 1.30474 0
M  V30 427 C 46.8729 4.25671 1.69021 0
M  V30 428 N 48.3639 4.28422 1.76094 0
M  V30 429 C 49.0989 5.34601 2.07338 0
M  V30 430 N 48.5949 6.5104 2.36894 0
M  V30 431 N 50.3879 5.22007 2.08483 0
M  V30 432 H 42.5389 2.11092 -0.235328 0
M  V30 433 H 44.8019 0.947039 -0.0426669 0
M  V30 434 H 44.5079 3.49001 0.434913 0
M  V30 435 H 44.3819 3.10467 2.1422 0
M  V30 436 H 46.7689 2.11655 2.05637 0
M  V30 437 H 46.8499 2.53542 0.339155 0
M  V30 438 H 46.4939 4.99048 0.944135 0
M  V30 439 H 46.4239 4.54094 2.66658 0
M  V30 440 H 48.9149 3.44441 1.55464 0
M  V30 441 H 49.2279 7.2779 2.59887 0
M  V30 442 H 47.5729 6.54287 2.34378 0
M  V30 443 H 50.7639 4.30051 1.84861 0
M  V30 444 H 50.9369 6.04854 2.325 0
M  V30 445 N 44.343 -0.763751 1.37857 0
M  V30 446 C 45.754 -1.3405 1.29952 0
M  V30 447 C 46.105 -1.96138 -0.0492898 0
M  V30 448 O 45.23 -1.94372 -0.951239 0
M  V30 449 C 45.825 -2.43729 2.35333 0
M  V30 450 C 44.384 -2.97151 2.31037 0
M  V30 451 C 43.531 -1.70438 2.18738 0
M  V30 452 H 46.482 -0.563396 1.48363 0
M  V30 453 H 46.503 -3.23412 2.00462 0
M  V30 454 H 46.015 -1.9851 3.33489 0
M  V30 455 H 44.116 -3.46724 1.3643 0
M  V30 456 H 44.229 -3.52221 3.24772 0
M  V30 457 H 42.593 -1.93673 1.65418 0
M  V30 458 H 43.376 -1.27312 3.18821 0
M  V30 459 N 45.8211 -1.22559 -0.990812 0
M  V30 460 C 46.7531 -0.955325 -2.08342 0
M  V30 461 C 47.7661 0.0668408 -1.62663 0
M  V30 462 O 48.9551 -0.167421 -1.77713 0
M  V30 463 C 46.0551 -0.415566 -3.36342 0
M  V30 464 C 45.2281 -1.49544 -4.11042 0
M  V30 465 C 44.2871 -0.962399 -5.17324 0
M  V30 466 O 43.3131 -1.64907 -5.44788 0
M  V30 467 N 44.5151 0.215134 -5.80101 0
M  V30 468 H 47.2801 -1.89596 -2.32106 0
M  V30 469 H 44.8411 -1.13276 -1.15673 0
M  V30 470 H 46.8331 -0.0442386 -4.04676 0
M  V30 471 H 45.4031 0.430232 -3.09625 0
M  V30 472 H 44.6231 -2.04 -3.37309 0
M  V30 473 H 45.9111 -2.22195 -4.57719 0
M  V30 474 H 45.3091 0.789779 -5.6016 0
M  V30 475 H 43.8661 0.527826 -6.49659 0
M  V30 476 N 47.2992 1.18797 -1.03562 0
M  V30 477 C 48.5242 1.9314 -0.755764 0
M  V30 478 C 48.9492 1.7537 0.68022 0
M  V30 479 O 48.3072 1.06046 1.47051 0
M  V30 480 C 48.3552 3.42747 -1.12058 0
M  V30 481 O 47.4592 4.11683 -0.243124 0
M  V30 482 H 46.8002 0.602724 -0.278604 0
M  V30 483 H 49.3302 1.50678 -1.3841 0
M  V30 484 H 49.3402 3.93437 -1.08035 0
M  V30 485 H 48.0152 3.55002 -2.16672 0
M  V30 486 H 46.5922 3.71323 -0.342539 0
M  V30 487 N 48.7773 0.814389 1.34928 0
M  V30 488 C 50.0233 0.408167 1.99263 0
M  V30 489 C 50.3783 -1.0154 1.63424 0
M  V30 490 O 49.6713 -1.69607 0.891289 0
M  V30 491 C 49.8653 0.537781 3.53331 0
M  V30 492 C 49.6943 1.9724 4.04137 0
M  V30 493 C 48.4643 2.60245 4.33129 0
M  V30 494 C 50.6623 2.93801 4.2212 0
M  V30 495 N 48.6443 3.95036 4.69914 0
M  V30 496 C 50.0153 4.1348 4.6199 0
M  V30 497 C 52.0703 2.9053 4.04348 0
M  V30 498 C 50.7733 5.3033 4.85945 0
M  V30 499 C 52.7993 4.06589 4.29464 0
M  V30 500 C 52.1613 5.25017 4.69613 0
M  V30 501 H 48.2603 0.197289 0.756704 0
M  V30 502 H 50.8443 1.05728 1.63492 0
M  V30 503 H 49.0153 -0.0813868 3.88315 0
M  V30 504 H 50.7473 0.105389 4.04563 0
M  V30 505 H 47.5023 2.11545 4.23728 0
M  V30 506 H 47.9263 4.64455 4.92555 0
M  V30 507 H 52.5683 2.00115 3.72443 0
M  V30 508 H 50.2863 6.21309 5.16721 0
M  V30 509 H 53.8723 4.05447 4.17257 0
M  V30 510 H 52.7523 6.1333 4.88667 0
M  V30 511 N 50.2554 -1.46986 0.568584 0
M  V30 512 C 51.2184 -2.28624 -0.162366 0
M  V30 513 C 52.2184 -1.37596 -0.832103 0
M  V30 514 O 53.4084 -1.60115 -0.68622 0
M  V30 515 C 50.5404 -3.17596 -1.23878 0
M  V30 516 H 51.7334 -2.94722 0.554899 0
M  V30 517 H 49.2864 -1.52863 0.325976 0
M  V30 518 H 50.0214 -2.56214 -1.98808 0
M  V30 519 H 49.8064 -3.846 -0.763219 0
M  V30 520 H 51.2964 -3.79078 -1.75185 0
M  V30 521 N 51.7335 -0.305618 -1.54608 0
M  V30 522 C 52.6965 0.555591 -2.22364 0
M  V30 523 C 53.6965 1.05768 -1.21119 0
M  V30 524 O 54.8865 0.952972 -1.45822 0
M  V30 525 C 52.0185 1.76974 -2.91364 0
M  V30 526 H 53.2115 -0.0364572 -2.99878 0
M  V30 527 H 50.7645 -0.0565007 -1.56198 0
M  V30 528 H 51.4995 2.40151 -2.17941 0
M  V30 529 H 51.2845 1.41732 -3.65588 0
M  V30 530 H 52.7745 2.38148 -3.43038 0
M  V30 531 N 53.2116 1.57565 -0.0334293 0
M  V30 532 C 54.1746 2.09393 0.932048 0
M  V30 533 C 55.1746 1.00986 1.25134 0
M  V30 534 O 56.3646 1.27129 1.19096 0
M  V30 535 C 53.4966 2.56338 2.2473 0
M  V30 536 H 54.6896 2.95984 0.483085 0
M  V30 537 H 52.2426 1.54819 0.21468 0
M  V30 538 H 52.9776 1.7309 2.74245 0
M  V30 539 H 52.7626 3.35542 2.02865 0
M  V30 540 H 54.2526 2.96646 2.93923 0
M  V30 541 N 54.6897 -0.239769 1.55765 0
M  V30 542 C 55.6377 -1.31668 1.91745 0
M  V30 543 C 56.6317 -1.49462 0.797338 0
M  V30 544 O 57.8377 -1.50852 0.982021 0
M  V30 545 H 54.2127 -0.441048 0.609082 0
M  V30 546 H 56.1837 -0.985923 2.81642 0
M  V30 547 C 54.9327 -2.66368 2.2348 0
M  V30 548 H 54.2557 -2.53478 3.09175 0
M  V30 549 H 55.6957 -3.40578 2.52553 0
M  V30 550 C 54.1547 -3.20002 1.05359 0
M  V30 551 O 54.6847 -4.00538 0.305261 0
M  V30 552 N 52.8907 -2.78126 0.842292 0
M  V30 553 H 52.4377 -2.12742 1.45253 0
M  V30 554 H 52.3957 -3.14354 0.053652 0
M  V30 555 N 56.1678 -1.49265 -0.50573 0
M  V30 556 C 57.0998 -1.617 -1.62437 0
M  V30 557 C 58.1128 -0.499924 -1.54934 0
M  V30 558 O 59.3018 -0.771785 -1.60953 0
M  V30 559 C 56.4018 -1.5533 -3.01207 0
M  V30 560 C 55.5748 -2.8249 -3.33943 0
M  V30 561 C 54.6338 -2.69238 -4.52103 0
M  V30 562 O 53.6598 -3.43167 -4.5412 0
M  V30 563 N 54.8618 -1.80468 -5.51735 0
M  V30 564 H 57.6268 -2.58177 -1.52199 0
M  V30 565 H 55.1878 -1.46294 -0.693511 0
M  V30 566 H 57.1798 -1.44125 -3.78167 0
M  V30 567 H 55.7498 -0.667297 -3.05395 0
M  V30 568 H 54.9698 -3.08081 -2.45926 0
M  V30 569 H 56.2578 -3.66802 -3.5261 0
M  V30 570 H 55.6558 -1.19653 -5.52901 0
M  V30 571 H 54.2128 -1.75188 -6.27816 0
M  V30 572 N 57.6459 0.756429 -1.3826 0
M  V30 573 C 58.8739 1.54565 -1.3754 0
M  V30 574 C 59.2889 1.88767 0.0355331 0
M  V30 575 O 58.6459 1.52572 1.0014 0
M  V30 576 C 58.6969 2.84654 -2.22833 0
M  V30 577 O 58.4179 2.51912 -3.5843 0
M  V30 578 C 59.9189 3.78807 -2.30261 0
M  V30 579 H 57.1389 0.478353 -0.470553 0
M  V30 580 H 59.6829 0.936381 -1.81803 0
M  V30 581 H 57.8379 3.41965 -1.8204 0
M  V30 582 H 58.2519 3.35325 -4.03308 0
M  V30 583 H 59.7259 4.67045 -2.94233 0
M  V30 584 H 60.2029 4.19038 -1.31545 0
M  V30 585 H 60.8089 3.2742 -2.71433 0
M  V30 586 N 59.124 1.23083 0.984299 0
M  V30 587 C 60.37 1.07221 1.72845 0
M  V30 588 C 60.725 -0.387453 1.88458 0
M  V30 589 O 60.018 -1.28309 1.42293 0
M  V30 590 C 60.212 1.72673 3.1292 0
M  V30 591 C 60.041 3.24853 3.10967 0
M  V30 592 C 58.811 3.93998 3.16376 0
M  V30 593 C 61.009 4.21674 2.94441 0
M  V30 594 N 58.991 5.33192 3.04268 0
M  V30 595 C 60.362 5.47756 2.90453 0
M  V30 596 C 62.417 4.12457 2.78897 0
M  V30 597 C 61.12 6.6568 2.72512 0
M  V30 598 C 63.146 5.3004 2.62319 0
M  V30 599 C 62.508 6.55046 2.59026 0
M  V30 600 H 58.607 0.44685 0.641755 0
M  V30 601 H 61.191 1.55753 1.16829 0
M  V30 602 H 59.362 1.26679 3.67161 0
M  V30 603 H 61.094 1.49824 3.75945 0
M  V30 604 H 57.849 3.45052 3.24401 0
M  V30 605 H 58.273 6.06157 3.015 0
M  V30 606 H 62.915 3.16588 2.80235 0
M  V30 607 H 60.633 7.61689 2.69919 0
M  V30 608 H 64.219 5.24747 2.5126 0
M  V30 609 H 63.099 7.44498 2.46357 0
M  V30 610 N 60.6021 -1.18246 1.0419 0
M  V30 611 C 61.5651 -2.20128 0.638452 0
M  V30 612 C 62.5651 -1.57885 -0.304805 0
M  V30 613 O 63.7551 -1.73967 -0.0900369 0
M  V30 614 C 60.8871 -3.4084 -0.0637751 0
M  V30 615 H 62.0801 -2.57336 1.54007 0
M  V30 616 H 59.6331 -1.32152 0.834598 0
M  V30 617 H 60.3681 -3.09166 -0.979136 0
M  V30 618 H 60.1531 -3.8726 0.614198 0
M  V30 619 H 61.6431 -4.16274 -0.332512 0
M  V30 620 N 62.0802 -0.821533 -1.34494 0
M  V30 621 C 63.0102 -0.257138 -2.3208 0
M  V30 622 C 63.9912 0.625645 -1.58176 0
M  V30 623 O 65.1762 0.552811 -1.86166 0
M  V30 624 C 62.3062 0.582958 -3.42372 0
M  V30 625 C 61.2602 -0.202571 -4.2752 0
M  V30 626 C 60.5862 0.760179 -5.29269 0
M  V30 627 C 61.8862 -1.40998 -5.02908 0
M  V30 628 H 63.5802 -1.07247 -2.79532 0
M  V30 629 H 61.1262 -0.517163 -1.34393 0
M  V30 630 H 63.0792 0.987972 -4.09655 0
M  V30 631 H 61.8032 1.43133 -2.93565 0
M  V30 632 H 60.4622 -0.588936 -3.61838 0
M  V30 633 H 60.1102 1.60447 -4.76724 0
M  V30 634 H 59.8102 0.238809 -5.87115 0
M  V30 635 H 61.3342 1.16308 -5.9942 0
M  V30 636 H 62.7482 -1.07905 -5.63054 0
M  V30 637 H 61.1452 -1.86689 -5.70322 0
M  V30 638 H 62.2152 -2.1889 -4.32684 0
M  V30 639 N 63.5583 1.46682 -0.576371 0
M  V30 640 C 64.8063 2.02013 -0.0594163 0
M  V30 641 C 65.1273 1.45101 1.30271 0
M  V30 642 O 64.3973 0.633317 1.8538 0
M  V30 643 H 62.9773 0.746759 -0.0189745 0
M  V30 644 H 65.6393 1.79862 -0.750717 0
M  V30 645 H 64.7353 3.12097 0.014345 0
M  V30 646 N 65.0364 0.313813 1.54444 0
M  V30 647 C 66.4474 -0.176243 1.85866 0
M  V30 648 C 66.7984 -1.52405 1.23561 0
M  V30 649 O 65.9234 -2.09605 0.538016 0
M  V30 650 C 66.5184 -0.32657 3.37222 0
M  V30 651 C 65.0774 -0.760846 3.6863 0
M  V30 652 C 64.2244 0.123247 2.77026 0
M  V30 653 H 67.1754 0.534418 1.49431 0
M  V30 654 H 67.1964 -1.15908 3.62416 0
M  V30 655 H 66.7084 0.654531 3.82541 0
M  V30 656 H 64.8094 -1.75204 3.28838 0
M  V30 657 H 64.9224 -0.571353 4.75681 0
M  V30 658 H 63.2864 -0.399597 2.51546 0
M  V30 659 H 64.0694 1.10094 3.25168 0
M  V30 660 N 66.5145 -1.57545 0.0417849 0
M  V30 661 C 67.7625 -1.91937 -0.632829 0
M  V30 662 C 68.0835 -0.919978 -1.71934 0
M  V30 663 O 67.3535 0.0366064 -1.95866 0
M  V30 664 H 65.9335 -0.708493 -0.236742 0
M  V30 665 H 68.5955 -1.9468 0.0925745 0
M  V30 666 H 67.6915 -2.92912 -1.07746 0
M  V30 667 N 67.9926 0.231505 -1.5589 0
M  V30 668 C 68.9556 1.27028 -1.90779 0
M  V30 669 C 69.9556 1.40308 -0.785507 0
M  V30 670 O 71.1456 1.38744 -1.05336 0
M  V30 671 C 68.2776 2.64566 -2.14983 0
M  V30 672 H 69.4706 0.973017 -2.83677 0
M  V30 673 H 67.0236 0.471486 -1.49019 0
M  V30 674 H 67.7586 2.99406 -1.24604 0
M  V30 675 H 67.5436 2.56305 -2.96732 0
M  V30 676 H 69.0336 3.39543 -2.43105 0
M  V30 677 N 69.4707 1.49531 0.497807 0
M  V30 678 C 70.4007 1.6935 1.60757 0
M  V30 679 C 71.3817 0.542218 1.61227 0
M  V30 680 O 72.5667 0.778417 1.77917 0
M  V30 681 C 69.6967 1.76298 2.99226 0
M  V30 682 C 68.6507 2.91248 3.13622 0
M  V30 683 C 67.9767 2.83312 4.53474 0
M  V30 684 C 69.2767 4.3214 2.93346 0
M  V30 685 H 70.9707 2.62263 1.44425 0
M  V30 686 H 68.5167 1.26208 0.693367 0
M  V30 687 H 70.4697 1.88749 3.76765 0
M  V30 688 H 69.1937 0.799871 3.16654 0
M  V30 689 H 67.8527 2.78404 2.38509 0
M  V30 690 H 67.5007 1.84902 4.67782 0
M  V30 691 H 67.2007 3.60465 4.64046 0
M  V30 692 H 68.7247 2.97775 5.33069 0
M  V30 693 H 70.1387 4.45649 3.60652 0
M  V30 694 H 68.5357 5.1054 3.15387 0
M  V30 695 H 69.6057 4.46363 1.89441 0
M  V30 696 N 70.9488 -0.749086 1.3866 0
M  V30 697 C 72.3598 -1.32664 1.31366 0
M  V30 698 C 72.7108 -1.96179 -0.028484 0
M  V30 699 O 71.8358 -1.9537 -0.93057 0
M  V30 700 C 72.4308 -2.41219 2.37905 0
M  V30 701 C 70.9898 -2.94684 2.34176 0
M  V30 702 C 70.1368 -1.68108 2.20533 0
M  V30 703 H 73.0878 -0.547628 1.48952 0
M  V30 704 H 73.1088 -3.21268 2.0388 0
M  V30 705 H 72.6208 -1.94962 3.35576 0
M  V30 706 H 70.7218 -3.45258 1.401 0
M  V30 707 H 70.8348 -3.48757 3.2849 0
M  V30 708 H 69.1988 -1.91907 1.67463 0
M  V30 709 H 69.9818 -1.23923 3.20153 0
M  V30 710 N 72.4269 -1.23603 -0.977757 0
M  V30 711 C 73.8379 -1.06424 -1.53398 0
M  V30 712 C 74.1889 0.367578 -1.92726 0
M  V30 713 O 73.3139 1.25465 -1.76316 0
M  V30 714 C 73.9089 -1.92568 -2.78753 0
M  V30 715 C 72.4679 -1.79642 -3.30765 0
M  V30 716 C 71.6149 -1.88111 -2.03739 0
M  V30 717 H 74.5659 -1.37227 -0.797152 0
M  V30 718 H 74.5869 -1.45203 -3.51705 0
M  V30 719 H 74.0989 -2.96771 -2.50098 0
M  V30 720 H 72.1999 -0.782325 -3.64294 0
M  V30 721 H 72.3129 -2.63174 -4.00345 0
M  V30 722 H 70.6769 -1.31723 -2.17994 0
M  V30 723 H 71.4599 -2.93875 -1.77461 0
M  V30 724 N 73.905 1.17692 -1.04816 0
M  V30 725 C 74.835 2.23777 -0.666791 0
M  V30 726 C 75.816 1.66796 0.33361 0
M  V30 727 O 77.001 1.93039 0.212042 0
M  V30 728 C 74.131 3.47281 -0.0367933 0
M  V30 729 C 73.085 4.17059 -0.961546 0
M  V30 730 C 72.411 5.34342 -0.195626 0
M  V30 731 C 73.711 4.69713 -2.28402 0
M  V30 732 H 75.405 2.55933 -1.55367 0
M  V30 733 H 72.951 1.23019 -0.748484 0
M  V30 734 H 74.904 4.20706 0.241775 0
M  V30 735 H 73.628 3.14381 0.885004 0
M  V30 736 H 72.287 3.45541 -1.22462 0
M  V30 737 H 71.935 4.97692 0.728816 0
M  V30 738 H 71.635 5.81966 -0.811775 0
M  V30 739 H 73.159 6.10553 0.0757473 0
M  V30 740 H 74.573 5.34794 -2.06563 0
M  V30 741 H 72.97 5.279 -2.8538 0
M  V30 742 H 74.04 3.86726 -2.92525 0
M  V30 743 N 75.3831 0.828654 1.34056 0
M  V30 744 C 76.6291 0.42008 1.98402 0
M  V30 745 C 76.9621 -1.01564 1.65525 0
M  V30 746 O 76.2371 -1.70834 0.929831 0
M  V30 747 C 76.5201 0.62927 3.54559 0
M  V30 748 C 76.3731 2.11152 3.97159 0
M  V30 749 C 77.6921 0.0688756 4.40046 0
M  V30 750 H 74.8111 0.154104 0.720709 0
M  V30 751 H 77.4531 1.04228 1.5886 0
M  V30 752 H 75.6031 0.0996418 3.88372 0
M  V30 753 H 77.2751 2.70522 3.73651 0
M  V30 754 H 75.5181 2.59985 3.47261 0
M  V30 755 H 76.1891 2.20868 5.05887 0
M  V30 756 H 78.6651 0.521458 4.1282 0
M  V30 757 H 77.5411 0.245006 5.48353 0
M  V30 758 H 77.8021 -1.0266 4.30015 0
M  V30 759 N 76.8612 -1.46375 0.584142 0
M  V30 760 C 78.2722 -1.86031 0.157959 0
M  V30 761 C 78.6232 -1.48753 -1.27933 0
M  V30 762 O 77.7482 -0.903098 -1.96655 0
M  V30 763 C 78.3432 -3.37642 0.279892 0
M  V30 764 C 76.9022 -3.76289 -0.09143 0
M  V30 765 C 76.0492 -2.7039 0.615178 0
M  V30 766 H 79.0002 -1.37509 0.792274 0
M  V30 767 H 79.0212 -3.77275 -0.494364 0
M  V30 768 H 78.5332 -3.64742 1.32607 0
M  V30 769 H 76.6342 -3.54806 -1.13769 0
M  V30 770 H 76.7472 -4.78246 0.285886 0
M  V30 771 H 75.1112 -2.5464 0.0552833 0
M  V30 772 H 75.8942 -3.0033 1.66303 0
M  V30 773 N 78.3393 -0.321999 -1.54275 0
M  V30 774 C 79.3023 0.531975 -2.22941 0
M  V30 775 C 80.3023 1.04478 -1.22234 0
M  V30 776 O 81.4923 0.937452 -1.46825 0
M  V30 777 C 78.6243 1.73874 -2.93224 0
M  V30 778 H 79.8173 -0.0682612 -2.99822 0
M  V30 779 H 77.3703 -0.0730644 -1.56129 0
M  V30 780 H 78.1053 2.37825 -2.20476 0
M  V30 781 H 77.8903 1.37847 -3.6707 0
M  V30 782 H 79.3803 2.34496 -3.45545 0
M  V30 783 N 79.8174 1.5752 -0.0501392 0
M  V30 784 C 81.0424 1.97376 0.636997 0
M  V30 785 C 81.4674 0.927466 1.63645 0
M  V30 786 O 80.8254 -0.10941 1.8097 0
M  V30 787 C 80.8734 3.36304 1.30123 0
M  V30 788 O 79.9774 3.34156 2.41689 0
M  V30 789 H 79.3184 0.642998 0.165679 0
M  V30 790 H 81.8484 2.04258 -0.118233 0
M  V30 791 H 81.8584 3.73008 1.65315 0
M  V30 792 H 80.5334 4.11993 0.568746 0
M  V30 793 H 79.1104 3.09196 2.08451 0
M  V30 794 N 81.2955 -0.223234 1.56011 0
M  V30 795 C 82.2585 -1.26014 1.9145 0
M  V30 796 C 83.2585 -1.3989 0.792937 0
M  V30 797 O 84.4485 -1.38184 1.0607 0
M  V30 798 C 81.5805 -2.63422 2.16383 0
M  V30 799 H 82.7735 -0.95796 2.84189 0
M  V30 800 H 80.3265 -0.463576 1.49267 0
M  V30 801 H 81.0615 -2.98741 1.2619 0
M  V30 802 H 80.8465 -2.54728 2.98088 0
M  V30 803 H 82.3365 -3.38249 2.44903 0
M  V30 804 N 82.7736 -1.49793 -0.48987 0
M  V30 805 C 83.7036 -1.70201 -1.59856 0
M  V30 806 C 84.6846 -0.55076 -1.60937 0
M  V30 807 O 85.8696 -0.787841 -1.77501 0
M  V30 808 C 82.9996 -1.77882 -2.98287 0
M  V30 809 C 81.9536 -2.92907 -3.12073 0
M  V30 810 C 81.2796 -2.85712 -4.51965 0
M  V30 811 C 82.5796 -4.3369 -2.91051 0
M  V30 812 H 84.2736 -2.63025 -1.43032 0
M  V30 813 H 81.8196 -1.26574 -0.686664 0
M  V30 814 H 83.7726 -1.90744 -3.75759 0
M  V30 815 H 82.4966 -0.816653 -3.16225 0
M  V30 816 H 81.1556 -2.79665 -2.37029 0
M  V30 817 H 80.8036 -1.8738 -4.66795 0
M  V30 818 H 80.5036 -3.62921 -4.62128 0
M  V30 819 H 82.0276 -3.00598 -5.31482 0
M  V30 820 H 83.4416 -4.47555 -3.58284 0
M  V30 821 H 81.8386 -5.12205 -3.12675 0
M  V30 822 H 82.9086 -4.47362 -1.87071 0
M  V30 823 N 84.2517 0.741722 -1.39055 0
M  V30 824 C 85.4997 1.49818 -1.35643 0
M  V30 825 C 85.8207 1.94938 0.0491642 0
M  V30 826 O 85.0907 1.68505 0.999141 0
M  V30 827 H 83.6707 0.555755 -0.499144 0
M  V30 828 H 86.3327 0.880957 -1.73854 0
M  V30 829 H 85.4287 2.38348 -2.01486 0
M  V30 830 N 85.7298 1.2412 0.971189 0
M  V30 831 C 86.9548 1.10667 1.75407 0
M  V30 832 C 87.3798 -0.337048 1.85056 0
M  V30 833 O 86.7378 -1.24396 1.31892 0
M  V30 834 C 86.7858 1.74726 3.15441 0
M  V30 835 O 85.8898 1.01566 3.99697 0
M  V30 836 H 85.2308 0.387341 0.539317 0
M  V30 837 H 87.7608 1.64358 1.2185 0
M  V30 838 H 87.7708 1.80341 3.6598 0
M  V30 839 H 86.4458 2.79773 3.07734 0
M  V30 840 H 85.0228 1.03713 3.58187 0
M  V30 841 N 87.2079 -1.17134 1.05439 0
M  V30 842 C 88.4539 -1.87979 0.776872 0
M  V30 843 C 88.8089 -1.7965 -0.688751 0
M  V30 844 O 88.1019 -1.19535 -1.4974 0
M  V30 845 C 88.2959 -3.36833 1.19491 0
M  V30 846 C 88.1249 -3.59653 2.69963 0
M  V30 847 C 86.8949 -3.76234 3.37307 0
M  V30 848 C 89.0929 -3.59091 3.68182 0
M  V30 849 N 87.0749 -3.86922 4.76618 0
M  V30 850 C 88.4459 -3.75659 4.93235 0
M  V30 851 C 90.5009 -3.42255 3.61616 0
M  V30 852 C 89.2039 -3.77133 6.12506 0
M  V30 853 C 91.2299 -3.45018 4.8033 0
M  V30 854 C 90.5919 -3.62096 6.04207 0
M  V30 855 H 86.6909 -0.705876 0.336546 0
M  V30 856 H 89.2749 -1.40602 1.34682 0
M  V30 857 H 87.4459 -3.82873 0.652884 0
M  V30 858 H 89.1779 -3.95305 0.866966 0
M  V30 859 H 85.9329 -3.76193 2.87708 0
M  V30 860 H 86.3569 -3.96055 5.49062 0
M  V30 861 H 90.9989 -3.27986 2.66805 0
M  V30 862 H 88.7169 -3.90186 7.07659 0
M  V30 863 H 92.3029 -3.33246 4.76905 0
M  V30 864 H 91.1829 -3.64142 6.94529 0
M  V30 865 N 88.686 -0.835752 -1.33615 0
M  V30 866 C 89.633 -0.26473 -2.29277 0
M  V30 867 C 90.603 0.617712 -1.54187 0
M  V30 868 O 91.788 0.556641 -1.825 0
M  V30 869 C 88.928 0.556777 -3.40579 0
M  V30 870 C 88.041 -0.349339 -4.30585 0
M  V30 871 C 87.176 0.482969 -5.29 0
M  V30 872 C 86.215 -0.421732 -6.10645 0
M  V30 873 N 85.352 0.372262 -7.01112 0
M  V30 874 H 90.192 -1.08582 -2.77514 0
M  V30 875 H 87.729 -0.546927 -1.36554 0
M  V30 876 H 89.687 1.04852 -4.03809 0
M  V30 877 H 88.317 1.34286 -2.93542 0
M  V30 878 H 87.369 -0.959372 -3.68104 0
M  V30 879 H 88.681 -1.04445 -4.87742 0
M  V30 880 H 87.835 1.03866 -5.97743 0
M  V30 881 H 86.574 1.21153 -4.72412 0
M  V30 882 H 85.579 -0.989464 -5.40823 0
M  V30 883 H 86.804 -1.14861 -6.69316 0
M  V30 884 H 84.75 1.08426 -6.46977 0
M  V30 885 H 84.667 -0.264198 -7.55538 0
M  V30 886 H 85.935 0.910293 -7.74167 0
M  V30 887 N 90.1641 1.46063 -0.591896 0
M  V30 888 C 91.1271 2.28854 0.125973 0
M  V30 889 C 92.1271 1.38903 0.810107 0
M  V30 890 O 93.3171 1.61186 0.66066 0
M  V30 891 C 90.4491 3.19526 1.1881 0
M  V30 892 H 91.6421 2.93802 -0.601717 0
M  V30 893 H 89.1951 1.52325 -0.350254 0
M  V30 894 H 89.9301 2.59345 1.94707 0
M  V30 895 H 89.7151 3.85766 0.701936 0
M  V30 896 H 91.2051 3.81817 1.69132 0
M  V30 897 N 91.6422 0.330177 1.54103 0
M  V30 898 C 92.8892 -0.270405 2.00686 0
M  V30 899 C 93.2172 -1.51621 1.21825 0
M  V30 900 O 92.4722 -1.93536 0.29025 0
M  V30 901 C 92.7712 -0.643134 3.51566 0
M  V30 902 C 92.4372 0.504251 4.48072 0
M  V30 903 C 91.0992 0.819163 4.74176 0
M  V30 904 C 93.4512 1.27465 5.05373 0
M  V30 905 C 90.7792 1.90708 5.5484 0
M  V30 906 C 93.1312 2.35271 5.87223 0
M  V30 907 C 91.7952 2.67336 6.11627 0
M  V30 908 H 91.0652 -0.0989482 0.734364 0
M  V30 909 H 93.7122 0.455324 1.86008 0
M  V30 910 H 92.0172 -1.44938 3.64006 0
M  V30 911 H 93.7142 -1.11949 3.85056 0
M  V30 912 H 90.3042 0.248733 4.27878 0
M  V30 913 H 94.4882 1.04462 4.85182 0
M  V30 914 H 89.7442 2.15991 5.71977 0
M  V30 915 H 93.9182 2.95405 6.30641 0
M  V30 916 H 91.5452 3.51763 6.73919 0
M  V30 917 N 93.1203 -1.57491 0.0584922 0
M  V30 918 C 94.0503 -2.14988 -0.911178 0
M  V30 919 C 95.0313 -1.07343 -1.31952 0
M  V30 920 O 96.2163 -1.35318 -1.39294 0
M  V30 921 C 93.3463 -2.70078 -2.18347 0
M  V30 922 C 92.3003 -3.82771 -1.91495 0
M  V30 923 C 91.6263 -4.24408 -3.25241 0
M  V30 924 C 92.9263 -5.07592 -1.23075 0
M  V30 925 H 94.6203 -2.96263 -0.432246 0
M  V30 926 H 92.1663 -1.42512 -0.206469 0
M  V30 927 H 94.1193 -3.08943 -2.86587 0
M  V30 928 H 92.8433 -1.86005 -2.68458 0
M  V30 929 H 91.5023 -3.44389 -1.25664 0
M  V30 930 H 91.1503 -3.37275 -3.73168 0
M  V30 931 H 90.8503 -5.00366 -3.08071 0
M  V30 932 H 92.3743 -4.65879 -3.94701 0
M  V30 933 H 93.7883 -5.43857 -1.81362 0
M  V30 934 H 92.1853 -5.88741 -1.16207 0
M  V30 935 H 93.2553 -4.84454 -0.207847 0
M  V30 936 N 94.5984 0.214957 -1.56127 0
M  V30 937 C 95.8464 0.936518 -1.79091 0
M  V30 938 C 96.1674 1.84606 -0.628148 0
M  V30 939 O 95.4374 1.92664 0.35462 0
M  V30 940 H 94.0174 0.3488 -0.660566 0
M  V30 941 H 96.6794 0.22523 -1.93594 0
M  V30 942 H 95.7754 1.53943 -2.71492 0
M  V30 943 N 96.0765 1.50051 0.48192 0
M  V30 944 C 97.0065 1.71046 1.58951 0
M  V30 945 C 97.9875 0.559288 1.60642 0
M  V30 946 O 99.1725 0.797243 1.77081 0
M  V30 947 C 96.3025 1.79462 2.97339 0
M  V30 948 C 95.2565 2.94558 3.10515 0
M  V30 949 C 94.5825 2.88105 4.50444 0
M  V30 950 C 95.8825 4.35227 2.88747 0
M  V30 951 H 97.5765 2.6378 1.41635 0
M  V30 952 H 95.1225 1.26936 0.679942 0
M  V30 953 H 97.0755 1.92734 3.74742 0
M  V30 954 H 95.7995 0.833412 3.15788 0
M  V30 955 H 94.4585 2.80918 2.35543 0
M  V30 956 H 94.1065 1.89853 4.65795 0
M  V30 957 H 93.8065 3.65366 4.60197 0
M  V30 958 H 95.3305 3.03412 5.29881 0
M  V30 959 H 96.7445 4.49449 3.55905 0
M  V30 960 H 95.1415 5.13856 3.09955 0
M  V30 961 H 96.2115 4.48347 1.84696 0
M  V30 962 N 97.5546 -0.734337 1.39446 0
M  V30 963 C 98.4866 -1.85861 1.34121 0
M  V30 964 C 99.4996 -1.60871 0.249864 0
M  V30 965 O 100.689 -1.71093 0.508865 0
M  V30 966 C 97.7886 -3.21899 1.05991 0
M  V30 967 C 96.9616 -3.74239 2.26415 0
M  V30 968 C 96.0206 -4.88841 1.94733 0
M  V30 969 O 95.0466 -5.02468 2.67422 0
M  V30 970 N 96.2486 -5.73261 0.913884 0
M  V30 971 H 99.0136 -1.90934 2.31007 0
M  V30 972 H 96.5746 -0.915102 1.33557 0
M  V30 973 H 98.5666 -3.96136 0.828147 0
M  V30 974 H 97.1366 -3.12091 0.178361 0
M  V30 975 H 96.3566 -2.91347 2.65539 0
M  V30 976 H 97.6446 -4.05942 3.06738 0
M  V30 977 H 97.0426 -5.64842 0.311476 0
M  V30 978 H 95.5996 -6.47563 0.742015 0
M  V30 979 N 99.0327 -1.24633 -0.964593 0
M  V30 980 C 99.9797 -1.04144 -2.05968 0
M  V30 981 C 100.95 0.046262 -1.66036 0
M  V30 982 O 102.135 -0.108972 -1.90489 0
M  V30 983 C 99.2747 -0.65563 -3.38815 0
M  V30 984 C 98.3877 -1.81714 -3.91923 0
M  V30 985 C 97.5227 -1.37662 -5.13052 0
M  V30 986 C 96.5617 -2.50788 -5.58365 0
M  V30 987 N 95.6987 -2.07582 -6.70712 0
M  V30 988 H 100.539 -1.9787 -2.22827 0
M  V30 989 H 98.0757 -0.9855 -1.09208 0
M  V30 990 H 100.034 -0.412954 -4.15151 0
M  V30 991 H 98.6637 0.244627 -3.21872 0
M  V30 992 H 97.7157 -2.1734 -3.12198 0
M  V30 993 H 99.0277 -2.66705 -4.21509 0
M  V30 994 H 98.1817 -1.093 -5.96773 0
M  V30 995 H 96.9207 -0.497293 -4.85158 0
M  V30 996 H 95.9257 -2.79906 -4.73215 0
M  V30 997 H 97.1507 -3.39283 -5.88272 0
M  V30 998 H 95.0967 -1.22051 -6.44546 0
M  V30 999 H 95.0137 -2.86125 -6.99763 0
M  V30 1000 H 96.2817 -1.82369 -7.57867 0
M  V30 1001 N 100.511 1.16574 -1.06058 0
M  V30 1002 C 101.474 2.19085 -0.673392 0
M  V30 1003 C 102.474 1.5835 0.279648 0
M  V30 1004 O 103.664 1.74088 0.0623488 0
M  V30 1005 C 100.796 3.40899 0.00954234 0
M  V30 1006 H 101.989 2.54853 -1.58081 0
M  V30 1007 H 99.5418 1.30808 -0.855516 0
M  V30 1008 H 100.277 3.10684 0.929826 0
M  V30 1009 H 100.062 3.86233 -0.67573 0
M  V30 1010 H 101.552 4.1675 0.266245 0
M  V30 1011 N 101.989 0.842826 1.3317 0
M  V30 1012 C 103.405 0.531128 1.50503 0
M  V30 1013 C 103.605 -0.940734 1.78192 0
M  V30 1014 O 102.661 -1.72436 1.84451 0
M  V30 1015 C 103.974 1.40789 2.65705 0
M  V30 1016 C 105.522 1.40708 2.79589 0
M  V30 1017 C 105.997 2.26878 3.97857 0
M  V30 1018 N 107.488 2.24609 4.05099 0
M  V30 1019 C 108.223 2.88019 4.95815 0
M  V30 1020 N 107.719 3.60496 5.9162 0
M  V30 1021 N 109.512 2.77469 4.88843 0
M  V30 1022 H 101.663 1.79557 1.1346 0
M  V30 1023 H 103.926 0.766267 0.558156 0
M  V30 1024 H 103.632 2.454 2.51936 0
M  V30 1025 H 103.506 1.08677 3.61205 0
M  V30 1026 H 105.893 0.368668 2.92788 0
M  V30 1027 H 105.974 1.76829 1.84838 0
M  V30 1028 H 105.618 3.3078 3.85418 0
M  V30 1029 H 105.548 1.88096 4.91861 0
M  V30 1030 H 108.039 1.71906 3.36536 0
M  V30 1031 H 108.352 4.06076 6.57512 0
M  V30 1032 H 106.697 3.64604 5.91683 0
M  V30 1033 H 109.888 2.20406 4.12963 0
M  V30 1034 H 110.061 3.2717 5.59342 0
M  V30 1035 N 103.467 -1.45747 0.599634 0
M  V30 1036 C 104.399 -2.28628 -0.161879 0
M  V30 1037 C 105.412 -1.39494 -0.839367 0
M  V30 1038 O 106.601 -1.63941 -0.706089 0
M  V30 1039 C 103.701 -3.15014 -1.24976 0
M  V30 1040 C 102.874 -4.32378 -0.660935 0
M  V30 1041 C 101.933 -5.00033 -1.63869 0
M  V30 1042 O 100.959 -5.57085 -1.1681 0
M  V30 1043 N 102.161 -4.98589 -2.97303 0
M  V30 1044 H 104.926 -2.94624 0.549265 0
M  V30 1045 H 102.487 -1.55847 0.438565 0
M  V30 1046 H 104.479 -3.5714 -1.9035 0
M  V30 1047 H 103.049 -2.5098 -1.86354 0
M  V30 1048 H 102.269 -3.9383 0.170688 0
M  V30 1049 H 103.557 -5.08197 -0.247619 0
M  V30 1050 H 102.955 -4.53514 -3.38145 0
M  V30 1051 H 101.512 -5.44603 -3.58121 0
M  V30 1052 N 104.945 -0.338344 -1.53925 0
M  V30 1053 C 105.875 0.51328 -2.27789 0
M  V30 1054 C 106.856 1.107 -1.29149 0
M  V30 1055 O 108.041 1.12937 -1.57984 0
M  V30 1056 C 105.171 1.66697 -3.04679 0
M  V30 1057 C 104.125 1.20183 -4.1078 0
M  V30 1058 C 103.451 2.44363 -4.75595 0
M  V30 1059 C 104.751 0.30605 -5.21403 0
M  V30 1060 H 106.445 -0.102883 -2.99223 0
M  V30 1061 H 103.991 -0.0509219 -1.4391 0
M  V30 1062 H 105.944 2.26915 -3.55088 0
M  V30 1063 H 104.668 2.30995 -2.30887 0
M  V30 1064 H 103.327 0.622499 -3.61276 0
M  V30 1065 H 102.975 3.07057 -3.98403 0
M  V30 1066 H 102.675 2.13925 -5.47275 0
M  V30 1067 H 104.199 3.05317 -5.28786 0
M  V30 1068 H 105.613 0.814929 -5.67478 0
M  V30 1069 H 104.01 0.0937929 -6.00027 0
M  V30 1070 H 105.08 -0.65921 -4.80398 0
M  V30 1071 N 106.423 1.57458 -0.0668435 0
M  V30 1072 C 107.671 1.92919 0.602214 0
M  V30 1073 C 107.992 0.947215 1.70449 0
M  V30 1074 O 107.262 -0.00544117 1.95899 0
M  V30 1075 H 105.842 0.71217 0.22544 0
M  V30 1076 H 108.504 1.94508 -0.123535 0
M  V30 1077 H 107.6 2.94589 1.03073 0
M  V30 1078 N 107.901 -0.206675 1.56239 0
M  V30 1079 C 108.834 -1.28383 1.88661 0
M  V30 1080 C 109.812 -1.44504 0.745481 0
M  V30 1081 O 110.996 -1.60079 0.995336 0
M  V30 1082 C 108.123 -2.65211 2.10667 0
M  V30 1083 C 107.169 -2.66025 3.33366 0
M  V30 1084 S 108.002 -2.18609 4.88846 0
M  V30 1085 C 109.158 -3.57283 5.13906 0
M  V30 1086 H 109.391 -1.00691 2.7973 0
M  V30 1087 H 106.924 -0.409627 1.48867 0
M  V30 1088 H 108.882 -3.43979 2.24029 0
M  V30 1089 H 107.543 -2.90121 1.20369 0
M  V30 1090 H 106.736 -3.66607 3.45855 0
M  V30 1091 H 106.338 -1.95331 3.18938 0
M  V30 1092 H 108.63 -4.53074 5.03717 0
M  V30 1093 H 109.573 -3.49699 6.15724 0
M  V30 1094 H 109.981 -3.51659 4.41583 0
M  V30 1095 N 109.379 -1.50304 -0.473955 0
M  V30 1096 C 110.627 -1.60832 -1.22382 0
M  V30 1097 C 110.948 -0.30939 -1.9253 0
M  V30 1098 O 110.218 0.67296 -1.83978 0
M  V30 1099 H 108.798 -0.592652 -0.454723 0
M  V30 1100 H 111.46 -1.87068 -0.546968 0
M  V30 1101 H 110.556 -2.41803 -1.97327 0
M  V30 1102 N 110.857 0.726932 -1.39834 0
M  V30 1103 C 112.273 1.03354 -1.21615 0
M  V30 1104 C 112.473 2.01327 -0.08338 0
M  V30 1105 O 111.529 2.46158 0.56238 0
M  V30 1106 C 112.842 1.58811 -2.55342 0
M  V30 1107 C 114.39 1.70851 -2.62257 0
M  V30 1108 C 114.865 2.29716 -3.96225 0
M  V30 1109 N 116.356 2.37116 -3.97907 0
M  V30 1110 C 117.091 2.83619 -4.98345 0
M  V30 1111 N 116.587 3.29958 -6.09179 0
M  V30 1112 N 118.38 2.82901 -4.8572 0
M  V30 1113 H 110.531 0.0773069 -2.12259 0
M  V30 1114 H 112.794 0.0969102 -0.943034 0
M  V30 1115 H 112.5 0.942855 -3.38826 0
M  V30 1116 H 112.374 2.57502 -2.75632 0
M  V30 1117 H 114.761 2.34497 -1.79152 0
M  V30 1118 H 114.842 0.707913 -2.45809 0
M  V30 1119 H 114.486 1.66696 -4.79765 0
M  V30 1120 H 114.416 3.30469 -4.09997 0
M  V30 1121 H 116.907 2.04374 -3.17868 0
M  V30 1122 H 117.22 3.63976 -6.8172 0
M  V30 1123 H 115.565 3.27946 -6.12761 0
M  V30 1124 H 118.756 2.46027 -3.98231 0
M  V30 1125 H 118.929 3.18827 -5.6414 0
M  V30 1126 N 112.336 1.25143 0.95797 0
M  V30 1127 C 113.266 1.07711 2.07173 0
M  V30 1128 C 114.247 -0.0128462 1.70095 0
M  V30 1129 O 115.432 0.156061 1.93572 0
M  V30 1130 C 112.562 0.691503 3.40346 0
M  V30 1131 C 111.516 1.73132 3.9142 0
M  V30 1132 C 110.842 1.20049 5.21049 0
M  V30 1133 C 112.142 3.1294 4.1817 0
M  V30 1134 H 113.836 2.00873 2.22014 0
M  V30 1135 H 111.382 0.967191 1.06684 0
M  V30 1136 H 113.335 0.556505 4.17709 0
M  V30 1137 H 112.059 -0.275819 3.25433 0
M  V30 1138 H 110.718 1.8547 3.16222 0
M  V30 1139 H 110.366 0.223499 5.02503 0
M  V30 1140 H 110.066 1.89545 5.56189 0
M  V30 1141 H 111.59 1.07782 6.01012 0
M  V30 1142 H 113.004 3.03775 4.86203 0
M  V30 1143 H 111.401 3.79875 4.64559 0
M  V30 1144 H 112.471 3.6025 3.24573 0
M  V30 1145 N 113.814 -1.1601 1.06675 0
M  V30 1146 C 114.746 -2.20115 0.638921 0
M  V30 1147 C 115.759 -1.59916 -0.305057 0
M  V30 1148 O 116.948 -1.78245 -0.0954446 0
M  V30 1149 C 114.048 -3.38798 -0.0830083 0
M  V30 1150 C 113.221 -4.2855 0.875426 0
M  V30 1151 C 112.28 -5.25849 0.192042 0
M  V30 1152 O 111.306 -5.63102 0.830921 0
M  V30 1153 N 112.508 -5.70648 -1.06493 0
M  V30 1154 H 115.273 -2.57439 1.53444 0
M  V30 1155 H 112.834 -1.31057 0.950557 0
M  V30 1156 H 114.826 -4.00936 -0.550685 0
M  V30 1157 H 113.396 -2.99947 -0.880386 0
M  V30 1158 H 112.616 -3.63617 1.52238 0
M  V30 1159 H 113.904 -4.85393 1.52548 0
M  V30 1160 H 113.302 -5.42482 -1.60405 0
M  V30 1161 H 111.859 -6.34859 -1.47641 0
M  V30 1162 N 115.292 -0.849877 -1.32721 0
M  V30 1163 C 116.708 -0.539102 -1.50219 0
M  V30 1164 C 116.908 0.931271 -1.78689 0
M  V30 1165 O 115.964 1.71455 -1.85363 0
M  V30 1166 C 117.277 -1.42196 -2.64954 0
M  V30 1167 C 118.825 -1.42189 -2.78839 0
M  V30 1168 C 119.3 -2.28985 -3.96648 0
M  V30 1169 N 120.791 -2.26754 -4.03902 0
M  V30 1170 C 121.526 -2.90644 -4.94281 0
M  V30 1171 N 121.022 -3.63629 -5.897 0
M  V30 1172 N 122.815 -2.80057 -4.87365 0
M  V30 1173 H 114.966 -1.80156 -1.12506 0
M  V30 1174 H 117.229 -0.769217 -0.554085 0
M  V30 1175 H 116.935 -2.46733 -2.50631 0
M  V30 1176 H 116.809 -1.10591 -3.60624 0
M  V30 1177 H 119.196 -0.38419 -2.92588 0
M  V30 1178 H 119.277 -1.77807 -1.83898 0
M  V30 1179 H 118.921 -3.32819 -3.83658 0
M  V30 1180 H 118.851 -1.90702 -4.90857 0
M  V30 1181 H 121.342 -1.73688 -3.3562 0
M  V30 1182 H 121.655 -4.09558 -6.55349 0
M  V30 1183 H 120 -3.67737 -5.89741 0
M  V30 1184 H 123.191 -2.22593 -4.11789 0
M  V30 1185 H 123.364 -3.30132 -5.57599 0
M  V30 1186 N 116.77 1.45427 -0.607355 0
M  V30 1187 C 118.018 2.01841 -0.102253 0
M  V30 1188 C 118.339 1.47832 1.27164 0
M  V30 1189 O 117.609 0.672497 1.83995 0
M  V30 1190 H 116.189 0.746188 -0.0348101 0
M  V30 1191 H 118.851 1.78229 -0.7887 0
M  V30 1192 H 117.947 3.12057 -0.0518585 0
M  V30 1193 N 118.248 0.346503 1.53744 0
M  V30 1194 C 119.18 -0.543316 2.22667 0
M  V30 1195 C 120.193 -1.06159 1.23427 0
M  V30 1196 O 121.382 -0.971235 1.49764 0
M  V30 1197 C 118.482 -1.76076 2.89569 0
M  V30 1198 C 117.655 -1.37727 4.15151 0
M  V30 1199 C 116.714 -2.45471 4.65436 0
M  V30 1200 O 115.74 -2.08655 5.29577 0
M  V30 1201 N 116.942 -3.7677 4.41616 0
M  V30 1202 H 119.707 0.0469703 2.99663 0
M  V30 1203 H 117.268 0.170766 1.60997 0
M  V30 1204 H 119.26 -2.47593 3.20125 0
M  V30 1205 H 117.83 -2.25835 2.16142 0
M  V30 1206 H 117.05 -0.492746 3.91108 0
M  V30 1207 H 118.338 -1.09708 4.96832 0
M  V30 1208 H 117.736 -4.09467 3.90325 0
M  V30 1209 H 116.293 -4.44448 4.7677 0
M  V30 1210 N 119.726 -1.57421 0.075193 0
M  V30 1211 C 121.003 -1.85029 -0.634329 0
M  V30 1212 C 121.383 -0.968305 -1.87582 0
M  V30 1213 O 120.731 -0.0354749 -2.28472 0
M  V30 1214 C 120.941 -3.35286 -0.968742 0
M  V30 1215 C 122.289 -4.02875 -1.34077 0
M  V30 1216 O 123.313 -3.40051 -1.06037 0
M  V30 1217 O 122.172 -5.13691 -1.86506 0
M  V30 1218 H 119.266 -0.7645 -0.315387 0
M  V30 1219 H 121.812 -1.69366 0.106382 0
M  V30 1220 H 120.584 -3.91203 -0.0871376 0
M  V30 1221 H 120.207 -3.56223 -1.7661 0
M  V30 1222 N 121.204 0.198386 -1.56346 0
M  V30 1223 C 122.114 1.2664 -1.97483 0
M  V30 1224 C 123.13 1.49989 -0.882002 0
M  V30 1225 O 124.306 1.62668 -1.18748 0
M  V30 1226 C 121.371 2.59141 -2.30319 0
M  V30 1227 C 120.432 2.43892 -3.53292 0
M  V30 1228 C 119.665 3.70074 -3.84553 0
M  V30 1229 O 119.888 4.74101 -3.1715 0
M  V30 1230 O 118.822 3.658 -4.7799 0
M  V30 1231 H 122.648 0.947304 -2.88548 0
M  V30 1232 H 120.233 0.403123 -1.43859 0
M  V30 1233 H 122.115 3.37352 -2.5253 0
M  V30 1234 H 120.79 2.90684 -1.42423 0
M  V30 1235 H 119.697 1.63803 -3.36332 0
M  V30 1236 H 121.03 2.17282 -4.41644 0
M  V30 1237 N 122.682 1.50554 0.465978 0
M  V30 1238 C 123.928 1.62038 1.21949 0
M  V30 1239 C 124.261 0.322116 1.9151 0
M  V30 1240 O 123.536 -0.676723 1.82348 0
M  V30 1241 C 123.819 2.80421 2.25912 0
M  V30 1242 C 123.672 4.20144 1.60622 0
M  V30 1243 C 124.991 2.94354 3.27176 0
M  V30 1244 H 122.11 0.589752 0.441998 0
M  V30 1245 H 124.752 1.82956 0.51257 0
M  V30 1246 H 122.902 2.62717 2.86203 0
M  V30 1247 H 124.574 4.49449 1.03889 0
M  V30 1248 H 122.817 4.24165 0.909211 0
M  V30 1249 H 123.488 4.98914 2.36196 0
M  V30 1250 H 125.964 3.10578 2.76913 0
M  V30 1251 H 124.84 3.788 3.97242 0
M  V30 1252 H 125.101 2.05186 3.916 0
M  V30 1253 N 124.16 -0.719506 1.40217 0
M  V30 1254 C 125.123 -1.8153 1.39927 0
M  V30 1255 C 126.123 -1.58095 0.293723 0
M  V30 1256 O 127.313 -1.65209 0.552429 0
M  V30 1257 C 124.445 -3.19561 1.18716 0
M  V30 1258 H 125.638 -1.83186 2.37451 0
M  V30 1259 H 123.191 -0.924746 1.26008 0
M  V30 1260 H 123.926 -3.23557 0.219366 0
M  V30 1261 H 123.711 -3.3797 1.98793 0
M  V30 1262 H 125.201 -3.99598 1.21291 0
M  V30 1263 N 125.638 -1.25649 -0.95132 0
M  V30 1264 C 126.601 -1.06399 -2.03007 0
M  V30 1265 C 127.601 -0.0156794 -1.60792 0
M  V30 1266 O 128.791 -0.25817 -1.72276 0
M  V30 1267 C 125.923 -0.616184 -3.35285 0
M  V30 1268 H 127.116 -2.02164 -2.21517 0
M  V30 1269 H 124.669 -1.08103 -1.12887 0
M  V30 1270 H 125.404 0.343917 -3.22471 0
M  V30 1271 H 125.189 -1.37301 -3.67275 0
M  V30 1272 H 126.679 -0.503032 -4.14559 0
M  V30 1273 N 127.117 1.15442 -1.07289 0
M  V30 1274 C 128.363 1.86489 -0.796846 0
M  V30 1275 C 128.696 1.82078 0.675371 0
M  V30 1276 O 127.971 1.24346 1.4956 0
M  V30 1277 C 128.254 3.35626 -1.30489 0
M  V30 1278 C 128.107 3.48673 -2.84161 0
M  V30 1279 C 129.426 4.30357 -0.920907 0
M  V30 1280 H 126.545 0.677144 -0.290939 0
M  V30 1281 H 129.187 1.35633 -1.33056 0
M  V30 1282 H 127.337 3.79068 -0.850883 0
M  V30 1283 H 129.009 3.14099 -3.37846 0
M  V30 1284 H 127.252 2.90253 -3.22391 0
M  V30 1285 H 127.923 4.53453 -3.14777 0
M  V30 1286 H 130.399 3.94871 -1.3121 0
M  V30 1287 H 129.275 5.33193 -1.30372 0
M  V30 1288 H 129.536 4.4176 0.173226 0
M  V30 1289 N 128.595 0.856903 1.32268 0
M  V30 1290 C 129.823 0.475439 2.01363 0
M  V30 1291 C 130.238 -0.928486 1.64392 0
M  V30 1292 O 129.595 -1.60624 0.866387 0
M  V30 1293 C 129.646 0.607545 3.56358 0
M  V30 1294 O 129.367 1.95617 3.92002 0
M  V30 1295 C 130.868 0.225382 4.42727 0
M  V30 1296 H 128.088 0.186636 0.644521 0
M  V30 1297 H 130.632 1.15446 1.68797 0
M  V30 1298 H 128.787 -0.0237719 3.87393 0
M  V30 1299 H 129.201 1.95455 4.86721 0
M  V30 1300 H 130.675 0.368813 5.50767 0
M  V30 1301 H 131.152 -0.834369 4.31202 0
M  V30 1302 H 131.758 0.831864 4.17085 0
M  V30 1303 N 130.073 -1.45103 0.615059 0
M  V30 1304 C 131.003 -2.33339 -0.0865619 0
M  V30 1305 C 131.984 -1.4727 -0.851209 0
M  V30 1306 O 133.169 -1.76026 -0.820281 0
M  V30 1307 C 130.299 -3.30095 -1.07956 0
M  V30 1308 C 129.253 -4.25858 -0.427628 0
M  V30 1309 C 128.579 -5.12361 -1.5294 0
M  V30 1310 C 129.879 -5.18165 0.655944 0
M  V30 1311 H 131.573 -2.92254 0.650224 0
M  V30 1312 H 129.119 -1.40532 0.314138 0
M  V30 1313 H 131.072 -3.90698 -1.57901 0
M  V30 1314 H 129.796 -2.69355 -1.84703 0
M  V30 1315 H 128.455 -3.66564 0.0510292 0
M  V30 1316 H 128.103 -4.47984 -2.28734 0
M  V30 1317 H 127.803 -5.77238 -1.09865 0
M  V30 1318 H 129.327 -5.75833 -2.03098 0
M  V30 1319 H 130.741 -5.72796 0.240257 0
M  V30 1320 H 129.138 -5.91559 1.00888 0
M  V30 1321 H 130.208 -4.60144 1.52957 0
M  V30 1322 N 131.551 -0.354651 -1.53558 0
M  V30 1323 C 132.962 0.126902 -1.86268 0
M  V30 1324 C 133.313 1.49075 -1.27558 0
M  V30 1325 O 132.438 2.08105 -0.5934 0
M  V30 1326 C 133.033 0.237046 -3.3797 0
M  V30 1327 C 131.592 0.662842 -3.70518 0
M  V30 1328 C 130.739 -0.196652 -2.76602 0
M  V30 1329 H 133.69 -0.573849 -1.47962 0
M  V30 1330 H 133.711 1.06259 -3.65362 0
M  V30 1331 H 133.223 -0.755725 -3.80671 0
M  V30 1332 H 131.324 1.66424 -3.33367 0
M  V30 1333 H 131.437 0.445034 -4.77029 0
M  V30 1334 H 129.801 0.332763 -2.52517 0
M  V30 1335 H 130.584 -1.18676 -3.22135 0
M  V30 1336 N 133.029 1.57378 -0.0835403 0
M  V30 1337 C 133.959 2.1641 0.87686 0
M  V30 1338 C 134.94 1.09429 1.30228 0
M  V30 1339 O 136.125 1.37516 1.37124 0
M  V30 1340 C 133.255 2.73517 2.14022 0
M  V30 1341 C 132.209 3.85769 1.85381 0
M  V30 1342 C 131.535 4.29529 3.18448 0
M  V30 1343 C 132.835 5.09486 1.14984 0
M  V30 1344 H 134.529 2.96914 0.385059 0
M  V30 1345 H 132.075 1.42823 0.18377 0
M  V30 1346 H 134.028 3.13463 2.81636 0
M  V30 1347 H 132.752 1.90252 2.65465 0
M  V30 1348 H 131.411 3.46345 1.20169 0
M  V30 1349 H 131.059 3.43169 3.67755 0
M  V30 1350 H 130.759 5.05204 3.00071 0
M  V30 1351 H 132.283 4.72099 3.8724 0
M  V30 1352 H 133.697 5.46674 1.72687 0
M  V30 1353 H 132.094 5.90515 1.06826 0
M  V30 1354 H 133.164 4.84724 0.130749 0
M  V30 1355 N 134.507 -0.190092 1.56449 0
M  V30 1356 C 135.455 -1.25501 1.95837 0
M  V30 1357 C 136.449 -1.4685 0.844485 0
M  V30 1358 O 137.655 -1.47651 1.02952 0
M  V30 1359 H 134.03 -0.421447 0.622805 0
M  V30 1360 H 136.001 -0.895821 2.84636 0
M  V30 1361 C 134.75 -2.59124 2.31841 0
M  V30 1362 H 134.073 -2.43514 3.17082 0
M  V30 1363 H 135.513 -3.32371 2.6326 0
M  V30 1364 C 133.972 -3.16488 1.15486 0
M  V30 1365 O 134.502 -3.99365 0.432535 0
M  V30 1366 N 132.708 -2.75305 0.930349 0
M  V30 1367 H 132.255 -2.08013 1.51948 0
M  V30 1368 H 132.213 -3.14024 0.153634 0
M  V30 1369 N 135.985 -1.50799 -0.457987 0
M  V30 1370 C 137.396 -1.55152 -1.0385 0
M  V30 1371 C 137.747 -0.362719 -1.92818 0
M  V30 1372 O 136.872 0.522915 -2.09987 0
M  V30 1373 C 137.467 -2.81173 -1.89017 0
M  V30 1374 C 136.026 -2.88164 -2.42154 0
M  V30 1375 C 135.173 -2.49591 -1.20829 0
M  V30 1376 H 138.124 -1.56874 -0.240068 0
M  V30 1377 H 138.145 -2.63769 -2.74238 0
M  V30 1378 H 137.657 -3.67677 -1.24238 0
M  V30 1379 H 135.758 -2.06042 -3.10447 0
M  V30 1380 H 135.871 -3.91356 -2.76364 0
M  V30 1381 H 134.235 -2.02322 -1.54719 0
M  V30 1382 H 135.018 -3.38418 -0.576927 0
M  V30 1383 N 137.463 0.71206 -1.40597 0
M  V30 1384 C 138.395 1.83704 -1.37061 0
M  V30 1385 C 139.408 1.60453 -0.275426 0
M  V30 1386 O 140.597 1.70262 -0.53602 0
M  V30 1387 C 137.697 3.20172 -1.11099 0
M  V30 1388 C 136.87 3.7059 -2.3234 0
M  V30 1389 C 135.929 4.85681 -2.02485 0
M  V30 1390 O 134.955 4.9815 -2.75382 0
M  V30 1391 N 136.157 5.71735 -1.00497 0
M  V30 1392 H 138.922 1.87235 -2.34016 0
M  V30 1393 H 136.483 0.893739 -1.34996 0
M  V30 1394 H 138.475 3.94768 -0.891064 0
M  V30 1395 H 137.045 3.11767 -0.227989 0
M  V30 1396 H 136.265 2.87085 -2.7014 0
M  V30 1397 H 137.553 4.01011 -3.13157 0
M  V30 1398 H 136.951 5.64275 -0.401298 0
M  V30 1399 H 135.508 6.463 -0.844942 0
M  V30 1400 N 138.941 1.26152 0.944643 0
M  V30 1401 C 139.851 1.09176 2.07648 0
M  V30 1402 C 140.867 0.0261935 1.7398 0
M  V30 1403 O 142.043 0.229208 2.00091 0
M  V30 1404 C 139.108 0.722915 3.39079 0
M  V30 1405 C 138.169 1.86752 3.86552 0
M  V30 1406 C 137.402 1.51617 5.11711 0
M  V30 1407 O 137.625 0.416331 5.68879 0
M  V30 1408 O 136.559 2.34975 5.54139 0
M  V30 1409 H 140.385 2.0412 2.24875 0
M  V30 1410 H 137.97 1.05182 1.061 0
M  V30 1411 H 139.852 0.529787 4.18056 0
M  V30 1412 H 138.527 -0.197159 3.23099 0
M  V30 1413 H 137.434 2.11558 3.08535 0
M  V30 1414 H 138.767 2.76719 4.07047 0
M  V30 1415 N 140.419 -1.14872 1.07899 0
M  V30 1416 C 141.665 -1.86064 0.806725 0
M  V30 1417 C 141.998 -1.82434 -0.665706 0
M  V30 1418 O 141.273 -1.25138 -1.48899 0
M  V30 1419 C 141.556 -3.34929 1.32267 0
M  V30 1420 C 141.409 -3.47161 2.86006 0
M  V30 1421 C 142.728 -4.29863 0.943717 0
M  V30 1422 H 139.847 -0.675591 0.294526 0
M  V30 1423 H 142.489 -1.34925 1.33773 0
M  V30 1424 H 140.639 -3.78611 0.870974 0
M  V30 1425 H 142.311 -3.12302 3.39507 0
M  V30 1426 H 140.554 -2.88539 3.23925 0
M  V30 1427 H 141.225 -4.51777 3.17177 0
M  V30 1428 H 143.701 -3.9417 1.33302 0
M  V30 1429 H 142.577 -5.32494 1.33198 0
M  V30 1430 H 142.838 -4.41846 -0.149796 0
M  V30 1431 N 141.898 -0.863906 -1.31812 0
M  V30 1432 C 143.147 -0.46801 -1.96195 0
M  V30 1433 C 143.46 0.983474 -1.69077 0
M  V30 1434 O 144.666 1.48523 -2.27273 0
M  V30 1435 C 143.122 -0.785995 -3.51212 0
M  V30 1436 C 142.73 -2.25383 -3.87178 0
M  V30 1437 C 144.474 -0.458274 -4.22019 0
M  V30 1438 C 142.381 -2.51455 -5.3528 0
M  V30 1439 H 141.311 -0.171283 -0.734287 0
M  V30 1440 H 143.962 -1.05597 -1.50072 0
M  V30 1441 H 142.344 -0.127359 -3.95795 0
M  V30 1442 H 143.518 -2.95502 -3.53575 0
M  V30 1443 H 141.833 -2.54698 -3.2942 0
M  V30 1444 H 144.43 -0.630369 -5.30971 0
M  V30 1445 H 144.773 0.600834 -4.11941 0
M  V30 1446 H 145.306 -1.07319 -3.8305 0
M  V30 1447 H 142.045 -3.56025 -5.50387 0
M  V30 1448 H 141.565 -1.85923 -5.70257 0
M  V30 1449 H 143.244 -2.35874 -6.02472 0
M  V30 1450 N 143.376 1.44774 -0.622745 0
M  V30 1451 C 144.308 2.28856 0.125485 0
M  V30 1452 C 145.321 1.40811 0.817069 0
M  V30 1453 O 146.51 1.65044 0.679918 0
M  V30 1454 C 143.61 3.16963 1.19949 0
M  V30 1455 C 142.783 4.33374 0.592064 0
M  V30 1456 C 141.842 5.02577 1.55893 0
M  V30 1457 O 140.868 5.58873 1.07933 0
M  V30 1458 N 142.07 5.03256 2.89334 0
M  V30 1459 H 144.835 2.93713 -0.596068 0
M  V30 1460 H 142.396 1.55129 -0.463303 0
M  V30 1461 H 144.388 3.60123 1.84644 0
M  V30 1462 H 142.958 2.53913 1.82337 0
M  V30 1463 H 142.178 3.93509 -0.233322 0
M  V30 1464 H 143.466 5.08527 0.166738 0
M  V30 1465 H 142.864 4.58836 3.30887 0
M  V30 1466 H 141.421 5.50232 3.49412 0
M  V30 1467 N 144.854 0.36279 1.53368 0
M  V30 1468 C 146.102 -0.227326 2.00817 0
M  V30 1469 C 146.423 -1.49511 1.25186 0
M  V30 1470 O 145.693 -1.92482 0.364348 0
M  V30 1471 H 144.273 -0.0869923 0.741917 0
M  V30 1472 H 146.935 0.488381 1.88682 0
M  V30 1473 H 146.031 -0.456273 3.08747 0
M  V30 1474 N 146.332 -1.57332 0.0918853 0
M  V30 1475 C 147.265 -2.09499 -0.904735 0
M  V30 1476 C 148.243 -1.00479 -1.27839 0
M  V30 1477 O 149.427 -1.27954 -1.38419 0
M  V30 1478 C 146.554 -2.56931 -2.2069 0
M  V30 1479 C 145.6 -3.77579 -1.98334 0
M  V30 1480 S 146.433 -5.21317 -1.22428 0
M  V30 1481 C 147.589 -5.72097 -2.53882 0
M  V30 1482 H 147.822 -2.93705 -0.460922 0
M  V30 1483 H 145.355 -1.53923 -0.121332 0
M  V30 1484 H 147.313 -2.84917 -2.95521 0
M  V30 1485 H 145.974 -1.72956 -2.62192 0
M  V30 1486 H 145.167 -4.08824 -2.94752 0
M  V30 1487 H 144.769 -3.5007 -1.31633 0
M  V30 1488 H 147.061 -5.80168 -3.49874 0
M  V30 1489 H 148.004 -6.70654 -2.27219 0
M  V30 1490 H 148.412 -5.00012 -2.62007 0
M  V30 1491 N 147.81 0.181792 -1.56548 0
M  V30 1492 C 149.05 0.906711 -1.83189 0
M  V30 1493 C 149.414 1.79882 -0.671312 0
M  V30 1494 O 150.615 2.56054 -0.81792 0
M  V30 1495 C 148.886 1.69023 -3.14906 0
M  V30 1496 S 150.445 2.46535 -3.62996 0
M  V30 1497 H 147.263 0.303877 -0.642791 0
M  V30 1498 H 149.865 0.169107 -1.94767 0
M  V30 1499 H 148.569 1.02571 -3.97376 0
M  V30 1500 H 148.1 2.46941 -3.06241 0
M  V30 1501 H 150.115 3.71014 -3.29489 0
M  V30 1502 N 149.288 1.51039 0.449983 0
M  V30 1503 C 150.235 1.71439 1.54523 0
M  V30 1504 C 151.205 0.555871 1.56522 0
M  V30 1505 O 152.39 0.788871 1.73728 0
M  V30 1506 C 149.53 1.83384 2.92343 0
M  V30 1507 C 148.643 3.10873 2.9997 0
M  V30 1508 C 147.778 3.13488 4.28834 0
M  V30 1509 C 146.817 4.35343 4.30282 0
M  V30 1510 N 145.954 4.35579 5.5065 0
M  V30 1511 H 150.794 2.64934 1.36433 0
M  V30 1512 H 148.331 1.31312 0.662982 0
M  V30 1513 H 150.289 1.88291 3.72293 0
M  V30 1514 H 148.919 0.933086 3.0902 0
M  V30 1515 H 147.971 3.15336 2.12761 0
M  V30 1516 H 149.283 4.00814 2.96901 0
M  V30 1517 H 148.437 3.17241 5.17149 0
M  V30 1518 H 147.176 2.21414 4.34543 0
M  V30 1519 H 146.181 4.3178 3.40362 0
M  V30 1520 H 147.406 5.28668 4.26248 0
M  V30 1521 H 145.352 3.46369 5.57104 0
M  V30 1522 H 145.269 5.19313 5.49409 0
M  V30 1523 H 146.537 4.43507 6.41032 0
M  V30 1524 N 150.766 -0.704594 1.40972 0
M  V30 1525 C 151.729 -1.80035 1.41845 0
M  V30 1526 C 152.729 -1.57774 0.310474 0
M  V30 1527 O 153.919 -1.64613 0.56992 0
M  V30 1528 C 151.051 -3.18284 1.22098 0
M  V30 1529 H 152.244 -1.80658 2.3938 0
M  V30 1530 H 149.797 -0.911329 1.26982 0
M  V30 1531 H 150.532 -3.23306 0.253672 0
M  V30 1532 H 150.317 -3.35843 2.02366 0
M  V30 1533 H 151.807 -3.98289 1.25522 0
M  V30 1534 N 152.244 -1.26651 -0.937939 0
M  V30 1535 C 153.49 -1.12553 -1.687 0
M  V30 1536 C 153.823 0.329782 -1.91379 0
M  V30 1537 O 153.098 1.24202 -1.4968 0
M  V30 1538 C 153.381 -1.89862 -3.05981 0
M  V30 1539 C 153.234 -3.43318 -2.90607 0
M  V30 1540 C 154.553 -1.69499 -4.0615 0
M  V30 1541 H 151.672 -0.410257 -0.612257 0
M  V30 1542 H 154.314 -1.55685 -1.08913 0
M  V30 1543 H 152.464 -1.53204 -3.57017 0
M  V30 1544 H 154.136 -3.89747 -2.46769 0
M  V30 1545 H 152.379 -3.70179 -2.26164 0
M  V30 1546 H 153.05 -3.92642 -3.8799 0
M  V30 1547 H 155.526 -2.01442 -3.64088 0
M  V30 1548 H 154.402 -2.26002 -5.00214 0
M  V30 1549 H 154.663 -0.640365 -4.37438 0
M  V30 1550 N 153.722 1.14298 -1.08507 0
M  V30 1551 C 155.133 1.66926 -0.836227 0
M  V30 1552 C 155.484 1.85576 0.63686 0
M  V30 1553 O 154.609 1.56767 1.49175 0
M  V30 1554 C 155.204 3.03219 -1.51142 0
M  V30 1555 C 153.763 3.52876 -1.30979 0
M  V30 1556 C 152.91 2.2833 -1.57356 0
M  V30 1557 H 155.861 0.983491 -1.24552 0
M  V30 1558 H 155.882 3.68726 -0.939211 0
M  V30 1559 H 155.394 2.89612 -2.58353 0
M  V30 1560 H 153.495 3.71703 -0.258429 0
M  V30 1561 H 153.608 4.33586 -2.03814 0
M  V30 1562 H 151.972 2.34454 -0.995164 0
M  V30 1563 H 152.755 2.17298 -2.65775 0
M  V30 1564 N 155.201 0.870884 1.31352 0
M  V30 1565 C 156.448 0.482273 1.96673 0
M  V30 1566 C 156.776 -0.965638 1.68836 0
M  V30 1567 O 156.031 -1.69514 0.977937 0
M  V30 1568 C 156.33 0.687157 3.50732 0
M  V30 1569 C 155.996 2.108 3.9859 0
M  V30 1570 C 154.658 2.49656 4.1137 0
M  V30 1571 C 157.01 3.03459 4.23748 0
M  V30 1572 C 154.338 3.80412 4.46659 0
M  V30 1573 C 156.69 4.3373 4.60501 0
M  V30 1574 C 155.354 4.725 4.71487 0
M  V30 1575 H 154.624 0.176476 0.719679 0
M  V30 1576 H 157.271 1.10405 1.56471 0
M  V30 1577 H 155.576 -0.0177476 3.91796 0
M  V30 1578 H 157.273 0.366284 3.99324 0
M  V30 1579 H 153.863 1.79633 3.8914 0
M  V30 1580 H 158.047 2.74665 4.13368 0
M  V30 1581 H 153.303 4.1021 4.53362 0
M  V30 1582 H 157.477 5.05578 4.78919 0
M  V30 1583 H 155.104 5.73859 4.98588 0
M  V30 1584 N 156.679 -1.44442 0.630414 0
M  V30 1585 C 157.925 -2.02351 0.134816 0
M  V30 1586 C 158.258 -1.4947 -1.23986 0
M  V30 1587 O 157.533 -0.678475 -1.82283 0
M  V30 1588 C 157.816 -3.59898 0.120707 0
M  V30 1589 C 157.669 -4.23063 1.52767 0
M  V30 1590 C 158.988 -4.36585 -0.555127 0
M  V30 1591 H 156.107 -0.73527 0.0504646 0
M  V30 1592 H 158.749 -1.72022 0.806751 0
M  V30 1593 H 156.899 -3.85868 -0.451477 0
M  V30 1594 H 158.571 -4.08202 2.14869 0
M  V30 1595 H 156.814 -3.80586 2.08175 0
M  V30 1596 H 157.485 -5.32071 1.46984 0
M  V30 1597 H 159.961 -4.16044 -0.0685429 0
M  V30 1598 H 158.837 -5.46294 -0.534185 0
M  V30 1599 H 159.098 -4.11138 -1.62535 0
M  V30 1600 N 158.157 -0.370918 -1.53173 0
M  V30 1601 C 159.089 0.507823 -2.23503 0
M  V30 1602 C 160.102 1.04182 -1.251 0
M  V30 1603 O 161.291 0.947286 -1.5129 0
M  V30 1604 C 158.391 1.71447 -2.92334 0
M  V30 1605 C 157.564 1.31105 -4.17289 0
M  V30 1606 C 156.623 2.38035 -4.69282 0
M  V30 1607 O 155.649 2.00204 -5.32829 0
M  V30 1608 N 156.851 3.69697 -4.47554 0
M  V30 1609 H 159.616 -0.0946382 -2.99551 0
M  V30 1610 H 157.177 -0.196358 -1.60705 0
M  V30 1611 H 159.169 2.42469 -3.24023 0
M  V30 1612 H 157.739 2.22368 -2.19707 0
M  V30 1613 H 156.959 0.430462 -3.91843 0
M  V30 1614 H 158.247 1.0179 -4.98514 0
M  V30 1615 H 157.645 4.03205 -3.9679 0
M  V30 1616 H 156.202 4.36807 -4.8378 0
M  V30 1617 N 159.635 1.57281 -0.100228 0
M  V30 1618 C 160.881 1.94826 0.563101 0
M  V30 1619 C 161.214 0.982475 1.67514 0
M  V30 1620 O 160.489 0.0164069 1.94493 0
M  V30 1621 C 160.772 3.42453 1.11346 0
M  V30 1622 C 160.625 4.498 0.00612081 0
M  V30 1623 C 161.944 3.91506 2.01024 0
M  V30 1624 H 159.063 0.708428 0.203221 0
M  V30 1625 H 161.705 1.8922 -0.171979 0
M  V30 1626 H 159.855 3.47361 1.7399 0
M  V30 1627 H 161.527 4.57 -0.628357 0
M  V30 1628 H 159.77 4.28756 -0.659581 0
M  V30 1629 H 160.441 5.50306 0.432109 0
M  V30 1630 H 162.917 3.88784 1.48278 0
M  V30 1631 H 161.793 4.95358 2.36457 0
M  V30 1632 H 162.054 3.31099 2.92961 0
M  V30 1633 N 161.113 -0.173488 1.56642 0
M  V30 1634 C 162.36 -0.890465 1.81871 0
M  V30 1635 C 162.688 -1.82339 0.67696 0
M  V30 1636 O 161.943 -1.92795 -0.335926 0
M  V30 1637 C 162.242 -1.72069 3.13252 0
M  V30 1638 C 161.908 -0.936878 4.41059 0
M  V30 1639 C 160.57 -0.720545 4.75775 0
M  V30 1640 C 162.922 -0.386919 5.19762 0
M  V30 1641 C 160.25 0.0568829 5.86672 0
M  V30 1642 C 162.602 0.37741 6.31473 0
M  V30 1643 C 161.266 0.604563 6.64757 0
M  V30 1644 H 160.536 -0.325844 0.665512 0
M  V30 1645 H 163.183 -0.155527 1.90867 0
M  V30 1646 H 161.488 -2.52496 2.99588 0
M  V30 1647 H 163.185 -2.27844 3.29982 0
M  V30 1648 H 159.775 -1.11553 4.13828 0
M  V30 1649 H 163.959 -0.541398 4.93338 0
M  V30 1650 H 159.215 0.242635 6.10918 0
M  V30 1651 H 163.389 0.810825 6.91664 0
M  V30 1652 H 161.016 1.20885 7.50527 0
M  V30 1653 N 162.591 -1.51276 -0.441967 0
M  V30 1654 C 163.816 -1.67799 -1.21895 0
M  V30 1655 C 164.241 -0.372864 -1.84367 0
M  V30 1656 O 163.599 0.666501 -1.68604 0
M  V30 1657 C 163.647 -2.79199 -2.28211 0
M  V30 1658 O 162.751 -2.42479 -3.33583 0
M  V30 1659 H 162.092 -0.559649 -0.357336 0
M  V30 1660 H 164.622 -1.97815 -0.522522 0
M  V30 1661 H 164.632 -3.03146 -2.73069 0
M  V30 1662 H 163.307 -3.73906 -1.82118 0
M  V30 1663 H 161.884 -2.29087 -2.94234 0
M  V30 1664 N 164.069 0.697108 -1.41344 0
M  V30 1665 C 165.485 1.00751 -1.2378 0
M  V30 1666 C 165.685 2.01105 -0.126066 0
M  V30 1667 O 164.741 2.47295 0.51004 0
M  V30 1668 C 166.054 1.53359 -2.58653 0
M  V30 1669 C 167.602 1.6525 -2.65822 0
M  V30 1670 C 168.077 2.2126 -4.01009 0
M  V30 1671 N 169.568 2.28622 -4.02847 0
M  V30 1672 C 170.303 2.72984 -5.04249 0
M  V30 1673 N 169.799 3.16962 -6.16041 0
M  V30 1674 N 171.592 2.72534 -4.91611 0
M  V30 1675 H 163.743 0.0322662 -2.12375 0
M  V30 1676 H 166.006 0.0768853 -0.944877 0
M  V30 1677 H 165.712 0.870773 -3.4075 0
M  V30 1678 H 165.586 2.51597 -2.81032 0
M  V30 1679 H 167.973 2.30644 -1.84086 0
M  V30 1680 H 168.054 0.655614 -2.47256 0
M  V30 1681 H 167.698 1.56482 -4.83193 0
M  V30 1682 H 167.628 3.21698 -4.16915 0
M  V30 1683 H 170.119 1.97585 -3.22131 0
M  V30 1684 H 170.432 3.49434 -6.89287 0
M  V30 1685 H 168.777 3.14875 -6.1958 0
M  V30 1686 H 171.968 2.37525 -4.0336 0
M  V30 1687 H 172.141 3.06789 -5.70775 0
M  V30 1688 N 165.547 1.27147 0.931209 0
M  V30 1689 C 166.958 1.12044 1.49342 0
M  V30 1690 C 167.309 -0.295795 1.93957 0
M  V30 1691 O 166.434 -1.18835 1.80852 0
M  V30 1692 C 167.029 2.02781 2.71414 0
M  V30 1693 C 165.588 1.91794 3.2387 0
M  V30 1694 C 164.735 1.95543 1.96617 0
M  V30 1695 H 167.686 1.40091 0.745672 0
M  V30 1696 H 167.707 1.58156 3.46074 0
M  V30 1697 H 167.219 3.05848 2.38911 0
M  V30 1698 H 165.32 0.916992 3.6114 0
M  V30 1699 H 165.433 2.77852 3.90302 0
M  V30 1700 H 163.797 1.39722 2.12955 0
M  V30 1701 H 164.58 3.00259 1.66432 0
M  V30 1702 N 167.025 -1.13721 1.09112 0
M  V30 1703 C 168.273 -1.84559 0.823562 0
M  V30 1704 C 168.594 -1.83754 -0.652658 0
M  V30 1705 O 167.864 -1.29102 -1.47342 0
M  V30 1706 H 166.444 -0.683376 0.301673 0
M  V30 1707 H 169.106 -1.37771 1.37859 0
M  V30 1708 H 168.202 -2.8917 1.17419 0
M  V30 1709 N 168.503 -0.877838 -1.30888 0
M  V30 1710 C 169.743 -0.499301 -1.98208 0
M  V30 1711 C 170.107 0.932649 -1.67826 0
M  V30 1712 O 171.308 1.41694 -2.28421 0
M  V30 1713 C 169.579 -0.758221 -3.49265 0
M  V30 1714 S 171.138 -0.480719 -4.36159 0
M  V30 1715 H 167.956 -0.186062 -0.686223 0
M  V30 1716 H 170.558 -1.13556 -1.59139 0
M  V30 1717 H 169.262 -1.79903 -3.68867 0
M  V30 1718 H 168.793 -0.109247 -3.93248 0
M  V30 1719 H 170.808 0.683698 -4.91467 0
M  V30 1720 N 169.982 1.44106 -0.638065 0
M  V30 1721 C 171.207 2.0685 -0.150916 0
M  V30 1722 C 171.632 1.47417 1.16833 0
M  V30 1723 O 170.99 0.578264 1.71831 0
M  V30 1724 C 171.038 3.60555 -0.05708 0
M  V30 1725 O 170.142 4.00465 0.984972 0
M  V30 1726 H 169.483 0.658151 -0.0879399 0
M  V30 1727 H 172.013 1.84865 -0.876707 0
M  V30 1728 H 172.023 4.07789 0.131232 0
M  V30 1729 H 170.698 4.03193 -1.02021 0
M  V30 1730 H 169.275 3.64849 0.770672 0
M  V30 1731 N 171.46 0.379036 1.52974 0
M  V30 1732 C 172.423 -0.448865 2.24762 0
M  V30 1733 C 173.423 -0.998689 1.26027 0
M  V30 1734 O 174.613 -0.882313 1.50203 0
M  V30 1735 C 171.745 -1.62872 2.99476 0
M  V30 1736 H 172.938 0.179491 2.99362 0
M  V30 1737 H 170.491 0.13096 1.5575 0
M  V30 1738 H 171.226 -2.29479 2.29151 0
M  V30 1739 H 171.011 -1.24128 3.71934 0
M  V30 1740 H 172.501 -2.2151 3.5401 0
M  V30 1741 N 172.938 -1.57226 0.108567 0
M  V30 1742 C 174.187 -1.94008 -0.551703 0
M  V30 1743 C 174.5 -0.993442 -1.68494 0
M  V30 1744 O 175.706 -1.25551 -2.40726 0
M  V30 1745 C 174.162 -3.44763 -1.03279 0
M  V30 1746 C 173.77 -4.47943 0.0714193 0
M  V30 1747 C 175.514 -3.90483 -1.66503 0
M  V30 1748 C 173.421 -5.89865 -0.425779 0
M  V30 1749 H 172.351 -0.724206 -0.209863 0
M  V30 1750 H 175.002 -1.82547 0.186741 0
M  V30 1751 H 173.384 -3.51422 -1.82533 0
M  V30 1752 H 174.558 -4.52942 0.847365 0
M  V30 1753 H 172.873 -4.11913 0.609669 0
M  V30 1754 H 175.47 -4.93925 -2.04798 0
M  V30 1755 H 175.813 -3.29877 -2.53942 0
M  V30 1756 H 176.346 -3.86581 -0.938074 0
M  V30 1757 H 173.085 -6.54202 0.412316 0
M  V30 1758 H 172.605 -5.88309 -1.16843 0
M  V30 1759 H 174.284 -6.40844 -0.890397 0
M  V30 1760 N 174.416 0.165178 -1.56732 0
M  V30 1761 C 175.832 0.517174 -1.50988 0
M  V30 1762 C 176.032 1.84331 -0.813894 0
M  V30 1763 O 175.088 2.49672 -0.37682 0
M  V30 1764 C 176.401 0.544261 -2.95733 0
M  V30 1765 C 177.949 0.631039 -3.06573 0
M  V30 1766 C 178.424 0.68896 -4.52788 0
M  V30 1767 N 179.915 0.751683 -4.5706 0
M  V30 1768 C 180.65 0.817177 -5.67547 0
M  V30 1769 N 180.146 0.843129 -6.8765 0
M  V30 1770 N 181.939 0.856668 -5.55534 0
M  V30 1771 H 174.09 -0.704318 -2.00382 0
M  V30 1772 H 176.353 -0.254687 -0.913148 0
M  V30 1773 H 176.059 -0.361607 -3.49836 0
M  V30 1774 H 175.933 1.3886 -3.5071 0
M  V30 1775 H 178.32 1.52733 -2.52501 0
M  V30 1776 H 178.401 -0.240095 -2.54671 0
M  V30 1777 H 178.045 -0.2031 -5.07494 0
M  V30 1778 H 177.975 1.57633 -5.02454 0
M  V30 1779 H 180.466 0.739661 -3.70591 0
M  V30 1780 H 180.779 0.894448 -7.67606 0
M  V30 1781 H 179.124 0.811304 -6.90248 0
M  V30 1782 H 182.315 0.833437 -4.60621 0
M  V30 1783 H 182.488 0.904247 -6.4166 0
M  V30 1784 N 175.894 1.51508 0.433938 0
M  V30 1785 C 176.824 1.76016 1.53429 0
M  V30 1786 C 177.805 0.610112 1.58782 0
M  V30 1787 O 178.99 0.853177 1.74455 0
M  V30 1788 C 176.12 1.88831 2.9148 0
M  V30 1789 C 175.074 3.04288 3.00987 0
M  V30 1790 C 174.4 3.0229 4.4105 0
M  V30 1791 C 175.7 4.44193 2.74754 0
M  V30 1792 H 177.394 2.68152 1.33171 0
M  V30 1793 H 174.94 1.29035 0.639214 0
M  V30 1794 H 176.893 2.04559 3.6842 0
M  V30 1795 H 175.617 0.933455 3.12976 0
M  V30 1796 H 174.276 2.8827 2.26486 0
M  V30 1797 H 173.924 2.04576 4.59519 0
M  V30 1798 H 173.624 3.79822 4.4834 0
M  V30 1799 H 175.148 3.20116 5.1996 0
M  V30 1800 H 176.562 4.60544 3.41426 0
M  V30 1801 H 174.959 5.23457 2.9345 0
M  V30 1802 H 176.029 4.53996 1.70339 0
M  V30 1803 N 177.372 -0.689602 1.41712 0
M  V30 1804 C 178.788 -1.00093 1.24312 0
M  V30 1805 C 178.988 -2.01036 0.136729 0
M  V30 1806 O 178.044 -2.47562 -0.496918 0
M  V30 1807 C 179.357 -1.51985 2.59463 0
M  V30 1808 C 180.905 -1.63838 2.66695 0
M  V30 1809 C 181.38 -2.1913 4.02177 0
M  V30 1810 N 182.871 -2.26483 4.04054 0
M  V30 1811 C 183.606 -2.70306 5.0569 0
M  V30 1812 N 183.102 -3.13691 6.17713 0
M  V30 1813 N 184.895 -2.69923 4.9305 0
M  V30 1814 H 177.046 -0.0210029 2.1239 0
M  V30 1815 H 179.309 -0.0718733 0.945272 0
M  V30 1816 H 179.015 -0.85269 3.41207 0
M  V30 1817 H 178.889 -2.50103 2.82362 0
M  V30 1818 H 181.276 -2.29664 1.85306 0
M  V30 1819 H 181.357 -0.642492 2.476 0
M  V30 1820 H 181.001 -1.53918 4.84016 0
M  V30 1821 H 180.931 -3.19482 4.18615 0
M  V30 1822 H 183.422 -1.95874 3.23174 0
M  V30 1823 H 183.735 -3.45773 6.9113 0
M  V30 1824 H 182.08 -3.11585 6.21241 0
M  V30 1825 H 185.271 -2.35382 4.04614 0
M  V30 1826 H 185.444 -3.03758 5.72394 0
M  V30 1827 N 178.85 -1.27639 -0.924453 0
M  V30 1828 C 179.798 -1.10485 -2.04685 0
M  V30 1829 C 180.792 -0.0270421 -1.69378 0
M  V30 1830 O 181.998 -0.185008 -1.79047 0
M  V30 1831 H 178.373 -0.340546 -0.670472 0
M  V30 1832 H 180.344 -2.05566 -2.16298 0
M  V30 1833 C 179.093 -0.772229 -3.39016 0
M  V30 1834 H 178.416 -1.59351 -3.66671 0
M  V30 1835 H 179.856 -0.692097 -4.18313 0
M  V30 1836 C 178.315 0.523554 -3.32807 0
M  V30 1837 O 178.845 1.55702 -3.70297 0
M  V30 1838 N 177.051 0.520363 -2.85903 0
M  V30 1839 H 176.598 -0.32107 -2.55591 0
M  V30 1840 H 176.556 1.38742 -2.82131 0
M  V30 1841 N 180.328 1.1314 -1.09713 0
M  V30 1842 C 181.278 2.16709 -0.708593 0
M  V30 1843 C 182.262 1.58471 0.278523 0
M  V30 1844 O 183.454 1.76779 0.088427 0
M  V30 1845 C 180.583 3.43039 -0.133923 0
M  V30 1846 C 179.669 4.08277 -1.14763 0
M  V30 1847 N 180.06 4.48637 -2.33577 0
M  V30 1848 C 178.358 4.34954 -0.986446 0
M  V30 1849 C 179.059 4.9952 -2.98085 0
M  V30 1850 N 178.035 4.94561 -2.25632 0
M  V30 1851 H 181.837 2.45672 -1.61315 0
M  V30 1852 H 179.351 1.29967 -0.973775 0
M  V30 1853 H 181.348 4.16583 0.162465 0
M  V30 1854 H 180.008 3.15549 0.765447 0
M  V30 1855 H 181.019 4.41246 -2.7115 0
M  V30 1856 H 177.696 4.17258 -0.142008 0
M  V30 1857 H 179.086 5.40521 -3.99108 0
M  V30 1858 N 181.806 0.884767 1.30421 0
M  V30 1859 C 182.736 0.367574 2.30589 0
M  V30 1860 C 183.717 -0.549464 1.60981 0
M  V30 1861 O 184.902 -0.46336 1.88591 0
M  V30 1862 C 182.032 -0.418944 3.44764 0
M  V30 1863 C 180.986 0.406316 4.26067 0
M  V30 1864 C 180.312 -0.506793 5.32293 0
M  V30 1865 C 181.612 1.64832 4.95608 0
M  V30 1866 H 183.306 1.20462 2.74097 0
M  V30 1867 H 180.852 0.580695 1.31772 0
M  V30 1868 H 182.805 -0.791395 4.13902 0
M  V30 1869 H 181.529 -1.28964 3.0006 0
M  V30 1870 H 180.188 0.760903 3.58617 0
M  V30 1871 H 179.836 -1.37519 4.83836 0
M  V30 1872 H 179.536 0.0415828 5.87585 0
M  V30 1873 H 181.06 -0.875764 6.04287 0
M  V30 1874 H 182.474 1.34646 5.57264 0
M  V30 1875 H 180.871 2.13688 5.60765 0
M  V30 1876 H 181.941 2.39284 4.21748 0
M  V30 1877 N 183.284 -1.43765 0.645699 0
M  V30 1878 C 184.524 -2.03776 0.159542 0
M  V30 1879 C 184.888 -1.49792 -1.2011 0
M  V30 1880 O 186.089 -2.01398 -1.78023 0
M  V30 1881 C 184.36 -3.57036 0.161251 0
M  V30 1882 S 185.919 -4.3804 -0.258159 0
M  V30 1883 H 182.737 -0.707717 0.0682454 0
M  V30 1884 H 185.339 -1.75941 0.852352 0
M  V30 1885 H 184.043 -3.9383 1.15439 0
M  V30 1886 H 183.574 -3.89503 -0.552339 0
M  V30 1887 H 185.589 -4.7302 -1.49889 0
M  V30 1888 N 184.763 -0.387143 -1.52771 0
M  V30 1889 C 186.01 0.195735 -2.01552 0
M  V30 1890 C 186.338 1.46995 -1.27369 0
M  V30 1891 O 185.593 1.92325 -0.361879 0
M  V30 1892 C 185.892 0.512209 -3.53711 0
M  V30 1893 C 185.558 -0.670202 -4.45891 0
M  V30 1894 C 184.22 -0.994586 -4.70809 0
M  V30 1895 C 186.572 -1.46134 -5.00294 0
M  V30 1896 C 183.9 -2.11169 -5.4738 0
M  V30 1897 C 186.252 -2.56903 -5.78086 0
M  V30 1898 C 184.916 -2.89852 -6.01284 0
M  V30 1899 H 184.186 0.0716246 -0.73753 0
M  V30 1900 H 186.833 -0.524046 -1.8419 0
M  V30 1901 H 185.138 1.31329 -3.69134 0
M  V30 1902 H 186.835 0.975804 -3.88946 0
M  V30 1903 H 183.425 -0.407366 -4.2666 0
M  V30 1904 H 187.609 -1.22397 -4.80971 0
M  V30 1905 H 182.865 -2.3707 -5.63567 0
M  V30 1906 H 187.039 -3.18608 -6.19243 0
M  V30 1907 H 184.666 -3.76533 -6.60399 0
M  V30 1908 N 186.241 1.57166 -0.116904 0
M  V30 1909 C 187.489 1.94737 0.540533 0
M  V30 1910 C 187.81 1.00096 1.67349 0
M  V30 1911 O 187.08 0.0568854 1.95817 0
M  V30 1912 H 185.66 0.718981 0.202669 0
M  V30 1913 H 188.322 1.94017 -0.185353 0
M  V30 1914 H 187.418 2.97719 0.936483 0
M  V30 1915 N 187.719 -0.156864 1.56817 0
M  V30 1916 C 188.669 -1.19891 1.93934 0
M  V30 1917 C 189.653 -1.39061 0.809372 0
M  V30 1918 O 190.845 -1.40789 1.07273 0
M  V30 1919 C 187.974 -2.53493 2.31508 0
M  V30 1920 C 187.06 -2.37957 3.51052 0
M  V30 1921 N 187.451 -1.92158 4.67877 0
M  V30 1922 C 185.749 -2.68739 3.55943 0
M  V30 1923 C 186.45 -1.8943 5.49992 0
M  V30 1924 N 185.426 -2.32375 4.91429 0
M  V30 1925 H 189.228 -0.836746 2.81737 0
M  V30 1926 H 186.742 -0.365012 1.58245 0
M  V30 1927 H 188.739 -3.28811 2.56299 0
M  V30 1928 H 187.399 -2.905 1.45051 0
M  V30 1929 H 188.41 -1.62274 4.91821 0
M  V30 1930 H 185.087 -3.09687 2.80001 0
M  V30 1931 H 186.477 -1.55596 6.53636 0
M  V30 1932 N 189.197 -1.51736 -0.425897 0
M  V30 1933 C 190.437 -1.66636 -1.18371 0
M  V30 1934 C 190.801 -0.379854 -1.88205 0
M  V30 1935 O 192.002 -0.404758 -2.65735 0
M  V30 1936 C 190.273 -2.84382 -2.16476 0
M  V30 1937 S 191.832 -3.19673 -3.0059 0
M  V30 1938 H 188.65 -0.586957 -0.40125 0
M  V30 1939 H 191.252 -1.89679 -0.473518 0
M  V30 1940 H 189.956 -3.76281 -1.63831 0
M  V30 1941 H 189.487 -2.63562 -2.92059 0
M  V30 1942 H 191.502 -2.66994 -4.18245 0
M  V30 1943 N 190.675 0.682077 -1.42076 0
M  V30 1944 C 191.9 1.47558 -1.45744 0
M  V30 1945 C 192.325 1.87977 -0.0680981 0
M  V30 1946 O 191.683 1.55522 0.9318 0
M  V30 1947 C 191.731 2.70575 -2.38373 0
M  V30 1948 O 190.835 3.68573 -1.85007 0
M  V30 1949 H 190.176 0.443585 -0.494093 0
M  V30 1950 H 192.706 0.837238 -1.86686 0
M  V30 1951 H 192.716 3.18729 -2.54707 0
M  V30 1952 H 191.391 2.40495 -3.39315 0
M  V30 1953 H 189.968 3.2757 -1.78192 0
M  V30 1954 N 192.153 1.28127 0.917671 0
M  V30 1955 C 193.378 1.18007 1.70555 0
M  V30 1956 C 193.803 -0.258257 1.86319 0
M  V30 1957 O 193.161 -1.1869 1.37049 0
M  V30 1958 C 193.209 1.87948 3.07746 0
M  V30 1959 O 192.313 1.18427 3.9503 0
M  V30 1960 H 191.654 0.409867 0.522403 0
M  V30 1961 H 194.184 1.69379 1.1477 0
M  V30 1962 H 194.194 1.95701 3.58001 0
M  V30 1963 H 192.869 2.92573 2.95591 0
M  V30 1964 H 191.446 1.18811 3.53466 0
M  V30 1965 N 193.631 -1.12557 1.10312 0
M  V30 1966 C 194.561 -2.20341 0.772798 0
M  V30 1967 C 195.542 -1.68198 -0.25365 0
M  V30 1968 O 196.727 -1.93831 -0.119699 0
M  V30 1969 C 193.857 -3.46709 0.202443 0
M  V30 1970 C 192.811 -4.11996 1.15943 0
M  V30 1971 C 192.137 -5.328 0.450345 0
M  V30 1972 C 193.437 -4.5828 2.50552 0
M  V30 1973 H 195.131 -2.48229 1.674 0
M  V30 1974 H 192.677 -1.19308 0.806326 0
M  V30 1975 H 194.63 -4.2138 -0.0407752 0
M  V30 1976 H 193.354 -3.18245 -0.734001 0
M  V30 1977 H 192.013 -3.39305 1.38808 0
M  V30 1978 H 191.661 -5.00602 -0.490531 0
M  V30 1979 H 191.361 -5.7743 1.08851 0
M  V30 1980 H 192.885 -6.10219 0.215642 0
M  V30 1981 H 194.299 -5.2433 2.31843 0
M  V30 1982 H 192.696 -5.13683 3.10242 0
M  V30 1983 H 193.766 -3.72329 3.10643 0
M  V30 1984 N 195.109 -0.891671 -1.2995 0
M  V30 1985 C 196.339 -0.527893 -1.99742 0
M  V30 1986 C 196.747 0.88979 -1.66971 0
M  V30 1987 O 196.09 1.59766 -0.906667 0
M  V30 1988 C 196.152 -0.630804 -3.53922 0
M  V30 1989 C 195.816 -2.01401 -4.10228 0
M  V30 1990 C 196.813 -2.98422 -4.25724 0
M  V30 1991 C 194.498 -2.32121 -4.45449 0
M  V30 1992 C 196.492 -4.24293 -4.75662 0
M  V30 1993 C 194.179 -3.58237 -4.95086 0
M  V30 1994 C 195.177 -4.54137 -5.10146 0
M  V30 1995 O 194.865 -5.78014 -5.58708 0
M  V30 1996 H 194.597 -0.201953 -0.645129 0
M  V30 1997 H 197.151 -1.20076 -1.66646 0
M  V30 1998 H 195.381 0.0990616 -3.86573 0
M  V30 1999 H 197.07 -0.277338 -4.04951 0
M  V30 2000 H 197.836 -2.76001 -3.98809 0
M  V30 2001 H 193.715 -1.5824 -4.32991 0
M  V30 2002 H 197.259 -4.99153 -4.87332 0
M  V30 2003 H 193.156 -3.80491 -5.21437 0
M  V30 2004 H 193.924 -5.8049 -5.77039 0
M  V30 2005 N 196.587 1.43421 -0.653314 0
M  V30 2006 C 197.836 2.01032 -0.164076 0
M  V30 2007 C 198.149 1.52147 1.22926 0
M  V30 2008 O 199.355 2.02031 1.81371 0
M  V30 2009 C 197.811 3.59082 -0.24252 0
M  V30 2010 C 197.419 4.1696 -1.63855 0
M  V30 2011 C 199.163 4.24079 0.18911 0
M  V30 2012 C 197.07 5.67304 -1.67092 0
M  V30 2013 H 196 0.751798 -0.0575769 0
M  V30 2014 H 198.651 1.6439 -0.815362 0
M  V30 2015 H 197.033 3.93125 0.476276 0
M  V30 2016 H 198.207 3.94416 -2.38271 0
M  V30 2017 H 196.522 3.64335 -2.01616 0
M  V30 2018 H 199.119 5.34381 0.184775 0
M  V30 2019 H 199.462 3.98005 1.22056 0
M  V30 2020 H 199.995 3.94918 -0.477938 0
M  V30 2021 H 196.734 5.98145 -2.68146 0
M  V30 2022 H 196.254 5.91904 -0.970014 0
M  V30 2023 H 197.933 6.31344 -1.4147 0
M  V30 2024 N 198.065 0.39524 1.52563 0
M  V30 2025 C 199.476 -0.0774719 1.86539 0
M  V30 2026 C 199.827 -1.45641 1.31466 0
M  V30 2027 O 198.952 -2.06459 0.648367 0
M  V30 2028 C 199.547 -0.147356 3.38479 0
M  V30 2029 C 198.106 -0.564373 3.72145 0
M  V30 2030 C 197.253 0.269919 2.75983 0
M  V30 2031 H 200.204 0.612876 1.46388 0
M  V30 2032 H 200.225 -0.965343 3.68051 0
M  V30 2033 H 199.737 0.856387 3.78534 0
M  V30 2034 H 197.838 -1.57527 3.37663 0
M  V30 2035 H 197.951 -0.318402 4.78041 0
M  V30 2036 H 196.315 -0.265696 2.5331 0
M  V30 2037 H 197.098 1.27175 3.18875 0
M  V30 2038 N 199.544 -1.57102 0.125237 0
M  V30 2039 C 200.792 -1.95021 -0.530198 0
M  V30 2040 C 201.113 -1.00982 -1.66816 0
M  V30 2041 O 200.383 -0.0672693 -1.95784 0
M  V30 2042 H 198.963 -0.720046 -0.198853 0
M  V30 2043 H 201.625 -1.93916 0.19564 0
M  V30 2044 H 200.721 -2.98211 -0.920681 0
M  V30 2045 N 201.022 0.148545 -1.56898 0
M  V30 2046 C 202.247 0.880385 -1.87787 0
M  V30 2047 C 202.672 1.74018 -0.714093 0
M  V30 2048 O 202.03 1.78153 0.336343 0
M  V30 2049 C 202.078 1.71422 -3.17249 0
M  V30 2050 O 201.182 2.8183 -3.01074 0
M  V30 2051 H 200.523 0.245301 -0.617028 0
M  V30 2052 H 203.053 0.139826 -2.04122 0
M  V30 2053 H 203.063 2.10954 -3.49231 0
M  V30 2054 H 201.738 1.08284 -4.01556 0
M  V30 2055 H 200.315 2.45715 -2.80497 0
M  V30 2056 N 202.5 1.5196 0.417844 0
M  V30 2057 C 203.777 1.56146 1.17803 0
M  V30 2058 C 204.157 0.337275 2.08388 0
M  V30 2059 O 203.505 -0.676447 2.18258 0
M  V30 2060 C 203.715 2.88566 1.96293 0
M  V30 2061 C 205.063 3.41244 2.52662 0
M  V30 2062 O 206.087 2.90247 2.06483 0
M  V30 2063 O 204.946 4.30273 3.36938 0
M  V30 2064 H 202.04 0.628598 0.537395 0
M  V30 2065 H 204.586 1.64283 0.425331 0
M  V30 2066 H 203.358 3.69116 1.2988 0
M  V30 2067 H 202.981 2.83681 2.78587 0
M  V30 2068 N 203.978 -0.674533 1.42435 0
M  V30 2069 C 205.389 -1.25514 1.38214 0
M  V30 2070 C 205.74 -1.96055 0.0755464 0
M  V30 2071 O 204.865 -2.00028 -0.8257 0
M  V30 2072 C 205.46 -2.28269 2.50357 0
M  V30 2073 C 204.019 -2.81856 2.49467 0
M  V30 2074 C 203.166 -1.56182 2.29134 0
M  V30 2075 H 206.117 -0.467902 1.51646 0
M  V30 2076 H 206.138 -3.10009 2.20624 0
M  V30 2077 H 205.65 -1.769 3.45439 0
M  V30 2078 H 203.751 -3.37346 1.58204 0
M  V30 2079 H 203.864 -3.30854 3.46515 0
M  V30 2080 H 202.228 -1.82761 1.774 0
M  V30 2081 H 203.011 -1.06778 3.26272 0
M  V30 2082 N 205.456 -1.28612 -0.910864 0
M  V30 2083 C 206.684 -1.18792 -1.69399 0
M  V30 2084 C 207.099 0.253039 -1.87097 0
M  V30 2085 O 206.456 1.17071 -1.40003 0
M  V30 2086 C 206.507 -1.88511 -3.08457 0
M  V30 2087 O 206.228 -3.26979 -2.91576 0
M  V30 2088 C 207.729 -1.85029 -4.02839 0
M  V30 2089 H 204.949 -0.412233 -0.529438 0
M  V30 2090 H 207.493 -1.69788 -1.13984 0
M  V30 2091 H 205.648 -1.41379 -3.60681 0
M  V30 2092 H 206.062 -3.61936 -3.79608 0
M  V30 2093 H 207.536 -2.38395 -4.97867 0
M  V30 2094 H 208.013 -0.823303 -4.31414 0
M  V30 2095 H 208.619 -2.31853 -3.56545 0
M  V30 2096 N 206.934 1.1197 -1.10907 0
M  V30 2097 C 208.345 1.65114 -0.871446 0
M  V30 2098 C 208.696 1.86885 0.597353 0
M  V30 2099 O 207.821 1.59896 1.45816 0
M  V30 2100 C 208.416 2.99944 -1.5754 0
M  V30 2101 C 206.975 3.50018 -1.38435 0
M  V30 2102 C 206.122 2.24941 -1.62164 0
M  V30 2103 H 209.073 0.956851 -1.2661 0
M  V30 2104 H 209.094 3.66651 -1.01721 0
M  V30 2105 H 208.606 2.84067 -2.64438 0
M  V30 2106 H 206.707 3.71071 -0.337214 0
M  V30 2107 H 206.82 4.29165 -2.12965 0
M  V30 2108 H 205.184 2.3229 -1.04467 0
M  V30 2109 H 205.967 2.11612 -2.70324 0
M  V30 2110 N 208.412 0.89855 1.29475 0
M  V30 2111 C 209.342 0.39201 2.30186 0
M  V30 2112 C 210.323 -0.532359 1.61555 0
M  V30 2113 O 211.508 -0.443331 1.89072 0
M  V30 2114 C 208.638 -0.382353 3.45189 0
M  V30 2115 C 207.592 0.451483 4.25612 0
M  V30 2116 C 206.918 -0.450307 5.328 0
M  V30 2117 C 208.218 1.70079 4.93832 0
M  V30 2118 H 209.912 1.23362 2.72804 0
M  V30 2119 H 207.458 0.594638 1.31149 0
M  V30 2120 H 209.411 -0.747451 4.14718 0
M  V30 2121 H 208.135 -1.25774 3.01411 0
M  V30 2122 H 206.794 0.798897 3.57789 0
M  V30 2123 H 206.442 -1.32379 4.85268 0
M  V30 2124 H 206.142 0.103902 5.87508 0
M  V30 2125 H 207.666 -0.811623 6.05182 0
M  V30 2126 H 209.08 1.40549 5.55805 0
M  V30 2127 H 207.477 2.19623 5.58467 0
M  V30 2128 H 208.547 2.43744 4.19186 0
M  V30 2129 N 209.89 -1.43072 0.660911 0
M  V30 2130 C 211.136 -2.0202 0.177708 0
M  V30 2131 C 211.469 -1.52066 -1.20787 0
M  V30 2132 O 210.744 -0.716987 -1.80802 0
M  V30 2133 C 211.027 -3.59561 0.197019 0
M  V30 2134 C 210.88 -4.19727 1.61706 0
M  V30 2135 C 212.199 -4.37664 -0.462396 0
M  V30 2136 H 209.318 -0.734034 0.0660494 0
M  V30 2137 H 211.96 -1.70272 0.843058 0
M  V30 2138 H 210.11 -3.86739 -0.369527 0
M  V30 2139 H 211.782 -4.03553 2.23479 0
M  V30 2140 H 210.025 -3.76084 2.16201 0
M  V30 2141 H 210.696 -5.28834 1.58237 0
M  V30 2142 H 213.172 -4.16095 0.0197215 0
M  V30 2143 H 212.048 -5.47305 -0.418188 0
M  V30 2144 H 212.309 -4.14493 -1.53778 0
M  V30 2145 N 211.368 -0.403325 -1.52352 0
M  V30 2146 C 212.298 0.416205 -2.29761 0
M  V30 2147 C 213.279 1.05123 -1.33728 0
M  V30 2148 O 214.464 1.06134 -1.62632 0
M  V30 2149 C 211.594 1.53624 -3.11475 0
M  V30 2150 C 210.548 1.02653 -4.15507 0
M  V30 2151 C 209.874 2.23971 -4.85532 0
M  V30 2152 C 211.174 0.08463 -5.22231 0
M  V30 2153 H 212.868 -0.229701 -2.98518 0
M  V30 2154 H 210.414 -0.111913 -1.43564 0
M  V30 2155 H 212.367 2.1165 -3.64393 0
M  V30 2156 H 211.091 2.20994 -2.40477 0
M  V30 2157 H 209.75 0.46871 -3.63591 0
M  V30 2158 H 209.398 2.89883 -4.11068 0
M  V30 2159 H 209.098 1.90521 -5.55856 0
M  V30 2160 H 210.622 2.82614 -5.41259 0
M  V30 2161 H 212.036 0.573509 -5.70424 0
M  V30 2162 H 210.433 -0.160783 -5.99885 0
M  V30 2163 H 211.503 -0.86237 -4.7717 0
M  V30 2164 N 212.846 1.57033 -0.133567 0
M  V30 2165 C 214.086 1.97575 0.523789 0
M  V30 2166 C 214.45 1.01605 1.62912 0
M  V30 2167 O 215.651 1.3114 2.3464 0
M  V30 2168 C 213.922 3.42256 1.02935 0
M  V30 2169 S 215.481 4.04817 1.69319 0
M  V30 2170 H 212.299 0.690427 0.169799 0
M  V30 2171 H 214.901 1.94234 -0.222101 0
M  V30 2172 H 213.605 4.09842 0.213917 0
M  V30 2173 H 213.136 3.4928 1.81017 0
M  V30 2174 H 215.151 3.96767 2.97977 0
M  V30 2175 N 214.325 -0.140222 1.56975 0
M  V30 2176 C 215.273 -1.19207 1.99731 0
M  V30 2177 C 216.267 -1.44089 0.890777 0
M  V30 2178 O 217.473 -1.44301 1.07597 0
M  V30 2179 H 213.848 -0.40142 0.635898 0
M  V30 2180 H 215.819 -0.804813 2.87342 0
M  V30 2181 C 214.568 -2.51617 2.39967 0
M  V30 2182 H 213.891 -2.33303 3.24669 0
M  V30 2183 H 215.331 -3.23827 2.73701 0
M  V30 2184 C 213.79 -3.12654 1.25496 0
M  V30 2185 O 214.32 -3.97786 0.559371 0
M  V30 2186 N 212.526 -2.72206 1.01746 0
M  V30 2187 H 212.073 -2.03074 1.58489 0
M  V30 2188 H 212.031 -3.13377 0.253461 0
M  V30 2189 N 215.803 -1.52179 -0.40978 0
M  V30 2190 C 217.028 -1.70347 -1.18308 0
M  V30 2191 C 217.453 -0.411887 -1.83535 0
M  V30 2192 O 216.811 0.630587 -1.6998 0
M  V30 2193 C 216.859 -2.83977 -2.22238 0
M  V30 2194 O 215.963 -2.495 -3.28365 0
M  V30 2195 H 215.304 -0.567103 -0.345384 0
M  V30 2196 H 217.834 -1.98879 -0.480445 0
M  V30 2197 H 217.844 -3.0887 -2.66577 0
M  V30 2198 H 216.519 -3.77685 -1.74146 0
M  V30 2199 H 215.096 -2.35277 -2.89308 0
M  V30 2200 N 217.281 0.66697 -1.42791 0
M  V30 2201 C 218.521 1.43892 -1.4517 0
M  V30 2202 C 218.885 1.91877 -0.0687551 0
M  V30 2203 O 220.086 2.6878 0.0327455 0
M  V30 2204 C 218.357 2.59839 -2.45395 0
M  V30 2205 S 219.916 3.48572 -2.66539 0
M  V30 2206 H 216.734 0.491356 -0.513897 0
M  V30 2207 H 219.336 0.775656 -1.79454 0
M  V30 2208 H 218.04 2.22838 -3.44632 0
M  V30 2209 H 217.571 3.3103 -2.12562 0
M  V30 2210 H 219.586 4.56094 -1.95429 0
M  V30 2211 N 218.759 1.29093 0.90403 0
M  V30 2212 C 219.692 1.08176 2.00931 0
M  V30 2213 C 220.67 -0.005083 1.62599 0
M  V30 2214 O 221.854 0.144765 1.87943 0
M  V30 2215 C 218.981 0.645897 3.32484 0
M  V30 2216 C 218.027 1.73081 3.89801 0
M  V30 2217 S 218.86 3.32905 4.19446 0
M  V30 2218 C 220.016 2.91176 5.54046 0
M  V30 2219 H 220.249 2.01752 2.18365 0
M  V30 2220 H 217.782 1.13191 1.0501 0
M  V30 2221 H 219.74 0.401131 4.08535 0
M  V30 2222 H 218.401 -0.270188 3.12936 0
M  V30 2223 H 217.594 1.37768 4.84805 0
M  V30 2224 H 217.196 1.92888 3.20422 0
M  V30 2225 H 219.488 2.37952 6.34338 0
M  V30 2226 H 220.431 3.85014 5.94281 0
M  V30 2227 H 220.839 2.296 5.15698 0
M  V30 2228 N 220.237 -1.11381 1.11499 0
M  V30 2229 C 221.648 -1.6465 0.880191 0
M  V30 2230 C 221.999 -1.87199 -0.587434 0
M  V30 2231 O 221.124 -1.60667 -1.44966 0
M  V30 2232 C 221.719 -2.99105 1.59128 0
M  V30 2233 C 220.278 -3.49279 1.40289 0
M  V30 2234 C 219.425 -2.24077 1.63354 0
M  V30 2235 H 222.376 -0.950123 1.27116 0
M  V30 2236 H 222.397 -3.66107 1.03664 0
M  V30 2237 H 221.909 -2.82661 2.65941 0
M  V30 2238 H 220.01 -3.70887 0.356888 0
M  V30 2239 H 220.123 -4.2803 2.15238 0
M  V30 2240 H 218.487 -2.31733 1.05698 0
M  V30 2241 H 219.27 -2.10175 2.71443 0
M  V30 2242 N 221.715 -0.905404 -1.28997 0
M  V30 2243 C 222.678 -0.392253 -2.25819 0
M  V30 2244 C 223.678 0.476753 -1.5357 0
M  V30 2245 O 224.868 0.280994 -1.71919 0
M  V30 2246 C 222 0.438588 -3.38067 0
M  V30 2247 H 223.193 -1.24743 -2.72725 0
M  V30 2248 H 220.746 -0.684051 -1.40536 0
M  V30 2249 H 221.481 1.31352 -2.96508 0
M  V30 2250 H 221.266 -0.184167 -3.91667 0
M  V30 2251 H 222.756 0.78873 -4.10084 0
M  V30 2252 N 223.193 1.4272 -0.668489 0
M  V30 2253 C 224.609 1.55992 -0.33745 0
M  V30 2254 C 224.809 1.64933 1.15756 0
M  V30 2255 O 223.865 1.61278 1.94282 0
M  V30 2256 C 225.178 2.81314 -1.06222 0
M  V30 2257 C 226.726 2.95078 -1.04394 0
M  V30 2258 C 227.201 4.23252 -1.74991 0
M  V30 2259 N 228.692 4.3015 -1.71829 0
M  V30 2260 C 229.427 5.28127 -2.23315 0
M  V30 2261 N 228.923 6.32293 -2.83156 0
M  V30 2262 N 230.716 5.19882 -2.13726 0
M  V30 2263 H 222.867 1.3516 -1.63846 0
M  V30 2264 H 225.13 0.650174 -0.689912 0
M  V30 2265 H 224.836 2.80823 -2.11734 0
M  V30 2266 H 224.71 3.72012 -0.62344 0
M  V30 2267 H 227.097 2.951 0.0028244 0
M  V30 2268 H 227.178 2.05627 -1.52155 0
M  V30 2269 H 226.822 4.2399 -2.79633 0
M  V30 2270 H 226.752 5.11626 -1.24685 0
M  V30 2271 H 229.243 3.55499 -1.28175 0
M  V30 2272 H 229.556 7.03398 -3.20079 0
M  V30 2273 H 227.901 6.32873 -2.87223 0
M  V30 2274 H 231.092 4.37423 -1.66669 0
M  V30 2275 H 231.265 5.96077 -2.54158 0
M  V30 2276 N 224.671 0.411399 1.52136 0
M  V30 2277 C 225.618 -0.412975 2.27075 0
M  V30 2278 C 226.588 -1.03912 1.29582 0
M  V30 2279 O 227.773 -1.06296 1.58448 0
M  V30 2280 C 224.913 -1.52247 3.09701 0
M  V30 2281 C 224.026 -0.917021 4.22155 0
M  V30 2282 C 223.161 -1.9994 4.92135 0
M  V30 2283 C 222.2 -1.37101 5.96548 0
M  V30 2284 N 221.337 -2.39364 6.60038 0
M  V30 2285 H 226.177 0.232499 2.97092 0
M  V30 2286 H 223.714 0.126496 1.46555 0
M  V30 2287 H 225.672 -2.17674 3.55913 0
M  V30 2288 H 224.302 -2.13794 2.41851 0
M  V30 2289 H 223.354 -0.151742 3.80097 0
M  V30 2290 H 224.666 -0.418006 4.97045 0
M  V30 2291 H 223.82 -2.73088 5.41763 0
M  V30 2292 H 222.559 -2.53208 4.16818 0
M  V30 2293 H 221.564 -0.624873 5.46237 0
M  V30 2294 H 222.789 -0.845998 6.7381 0
M  V30 2295 H 220.735 -2.91759 5.87548 0
M  V30 2296 H 220.652 -1.9428 7.3061 0
M  V30 2297 H 221.92 -3.12074 7.14304 0
M  V30 2298 N 226.149 -1.5696 0.141893 0
M  V30 2299 C 227.565 -1.58151 -0.21456 0
M  V30 2300 C 227.765 -1.1559 -1.65049 0
M  V30 2301 O 226.821 -0.853832 -2.37626 0
M  V30 2302 C 228.134 -3.00674 0.0395576 0
M  V30 2303 C 229.682 -3.1299 -0.0245529 0
M  V30 2304 C 230.157 -4.57554 0.202167 0
M  V30 2305 N 231.648 -4.62961 0.148919 0
M  V30 2306 C 232.383 -5.7262 0.298924 0
M  V30 2307 N 231.879 -6.90947 0.50637 0
M  V30 2308 N 233.672 -5.61601 0.236886 0
M  V30 2309 H 225.823 -1.8292 1.07953 0
M  V30 2310 H 228.086 -0.846425 0.42693 0
M  V30 2311 H 227.792 -3.36183 1.03315 0
M  V30 2312 H 227.666 -3.70981 -0.682143 0
M  V30 2313 H 230.053 -2.77326 -1.00869 0
M  V30 2314 H 230.134 -2.4518 0.729396 0
M  V30 2315 H 229.778 -4.93922 1.18338 0
M  V30 2316 H 229.708 -5.23484 -0.572044 0
M  V30 2317 H 232.199 -3.77899 -0.00697015 0
M  V30 2318 H 232.512 -7.7038 0.611076 0
M  V30 2319 H 230.857 -6.92878 0.542628 0
M  V30 2320 H 234.048 -4.68039 0.0756209 0
M  V30 2321 H 234.221 -6.47015 0.357227 0
M  V30 2322 N 227.627 0.131896 -1.57047 0
M  V30 2323 C 228.873 0.838268 -1.85323 0
M  V30 2324 C 229.228 1.78098 -0.727937 0
M  V30 2325 O 228.521 1.89645 0.27304 0
M  V30 2326 C 228.715 1.63703 -3.17704 0
M  V30 2327 C 228.544 0.773167 -4.43004 0
M  V30 2328 C 227.314 0.432956 -5.03442 0
M  V30 2329 C 229.512 0.0966216 -5.14209 0
M  V30 2330 N 227.494 -0.442924 -6.123 0
M  V30 2331 C 228.865 -0.638778 -6.16701 0
M  V30 2332 C 230.92 0.018861 -4.97896 0
M  V30 2333 C 229.623 -1.44462 -7.04644 0
M  V30 2334 C 231.649 -0.773762 -5.86316 0
M  V30 2335 C 231.011 -1.4974 -6.883 0
M  V30 2336 H 227.11 0.284086 -0.728573 0
M  V30 2337 H 229.694 0.102731 -1.94429 0
M  V30 2338 H 227.865 2.3437 -3.09718 0
M  V30 2339 H 229.597 2.28774 -3.33833 0
M  V30 2340 H 226.352 0.772237 -4.67262 0
M  V30 2341 H 226.776 -0.872332 -6.71356 0
M  V30 2342 H 231.418 0.56397 -4.19022 0
M  V30 2343 H 229.136 -2.00093 -7.82936 0
M  V30 2344 H 232.722 -0.83612 -5.75761 0
M  V30 2345 H 231.602 -2.10087 -7.55535 0
M  V30 2346 N 229.106 1.52395 0.401703 0
M  V30 2347 C 230.069 1.75636 1.47257 0
M  V30 2348 C 231.069 0.62628 1.48103 0
M  V30 2349 O 232.259 0.894227 1.49497 0
M  V30 2350 C 229.391 1.84553 2.86624 0
M  V30 2351 H 230.584 2.71241 1.27938 0
M  V30 2352 H 228.137 1.42923 0.632662 0
M  V30 2353 H 228.872 0.908882 3.11303 0
M  V30 2354 H 228.657 2.66715 2.87412 0
M  V30 2355 H 230.147 2.04251 3.64241 0
M  V30 2356 N 230.584 -0.659388 1.43143 0
M  V30 2357 C 231.995 -1.24041 1.39537 0
M  V30 2358 C 232.346 -1.95963 0.0963364 0
M  V30 2359 O 231.471 -2.00892 -0.804438 0
M  V30 2360 C 232.066 -2.25601 2.52764 0
M  V30 2361 C 230.625 -2.79195 2.52443 0
M  V30 2362 C 229.772 -1.53743 2.30778 0
M  V30 2363 H 232.723 -0.451792 1.52133 0
M  V30 2364 H 232.744 -3.07651 2.23899 0
M  V30 2365 H 232.256 -1.73226 3.47296 0
M  V30 2366 H 230.357 -3.35649 1.61773 0
M  V30 2367 H 230.47 -3.2716 3.50004 0
M  V30 2368 H 228.834 -1.80869 1.79328 0
M  V30 2369 H 229.617 -1.03312 3.27386 0
M  V30 2370 N 232.062 -1.29571 -0.897171 0
M  V30 2371 C 233.308 -1.17863 -1.65034 0
M  V30 2372 C 233.641 0.268729 -1.92332 0
M  V30 2373 O 232.916 1.19378 -1.53555 0
M  V30 2374 C 233.199 -1.995 -2.99786 0
M  V30 2375 C 233.052 -3.5239 -2.79538 0
M  V30 2376 C 234.371 -1.82335 -4.00552 0
M  V30 2377 H 231.49 -0.429528 -0.598895 0
M  V30 2378 H 234.132 -1.59072 -1.03905 0
M  V30 2379 H 232.282 -1.64485 -3.51962 0
M  V30 2380 H 233.954 -3.97401 -2.34244 0
M  V30 2381 H 232.197 -3.77187 -2.14273 0
M  V30 2382 H 232.868 -4.04787 -3.75302 0
M  V30 2383 H 235.344 -2.12924 -3.57495 0
M  V30 2384 H 234.22 -2.41801 -4.92771 0
M  V30 2385 H 234.481 -0.779209 -4.35179 0
M  V30 2386 N 233.54 1.10788 -1.12088 0
M  V30 2387 C 234.786 1.82942 -0.875226 0
M  V30 2388 C 235.119 1.84779 0.597538 0
M  V30 2389 O 234.394 1.30578 1.44152 0
M  V30 2390 C 234.677 3.29789 -1.44606 0
M  V30 2391 C 234.53 3.36307 -2.98693 0
M  V30 2392 C 235.849 4.26064 -1.10261 0
M  V30 2393 H 232.968 0.664195 -0.319397 0
M  V30 2394 H 235.61 1.29867 -1.38689 0
M  V30 2395 H 233.76 3.75118 -1.01089 0
M  V30 2396 H 235.432 2.99487 -3.50864 0
M  V30 2397 H 233.675 2.76318 -3.34411 0
M  V30 2398 H 234.346 4.39694 -3.33726 0
M  V30 2399 H 236.822 3.88951 -1.4784 0
M  V30 2400 H 235.698 5.27183 -1.52869 0
M  V30 2401 H 235.959 4.42098 -0.0142953 0
M  V30 2402 N 235.018 0.912232 1.28515 0
M  V30 2403 C 235.948 0.416403 2.29757 0
M  V30 2404 C 236.929 -0.515194 1.6211 0
M  V30 2405 O 238.114 -0.423253 1.89532 0
M  V30 2406 C 235.244 -0.34572 3.45575 0
M  V30 2407 C 234.198 0.496599 4.25109 0
M  V30 2408 C 233.524 -0.393771 5.33248 0
M  V30 2409 C 234.824 1.75307 4.92001 0
M  V30 2410 H 236.518 1.26249 2.7148 0
M  V30 2411 H 234.064 0.608515 1.30511 0
M  V30 2412 H 236.017 -0.703422 4.15488 0
M  V30 2413 H 234.741 -1.2257 3.02728 0
M  V30 2414 H 233.4 0.8368 3.56922 0
M  V30 2415 H 233.048 -1.27225 4.86644 0
M  V30 2416 H 232.748 0.166209 5.87365 0
M  V30 2417 H 234.272 -0.747389 6.06009 0
M  V30 2418 H 235.686 1.46437 5.54283 0
M  V30 2419 H 234.083 2.25534 5.56106 0
M  V30 2420 H 235.153 2.48176 4.16577 0
M  V30 2421 N 236.496 -1.42363 0.676048 0
M  V30 2422 C 237.742 -2.02336 0.207809 0
M  V30 2423 C 238.097 -1.52506 -1.17302 0
M  V30 2424 O 237.39 -0.718048 -1.77636 0
M  V30 2425 C 237.584 -3.56929 0.183431 0
M  V30 2426 C 237.413 -4.21762 1.56036 0
M  V30 2427 C 236.183 -4.56881 2.15842 0
M  V30 2428 C 238.381 -4.49267 2.50327 0
M  V30 2429 N 236.363 -5.069 3.46303 0
M  V30 2430 C 237.734 -5.00851 3.65443 0
M  V30 2431 C 239.789 -4.31257 2.48841 0
M  V30 2432 C 238.492 -5.36317 4.79329 0
M  V30 2433 C 240.518 -4.678 3.61824 0
M  V30 2434 C 239.88 -5.19537 4.75668 0
M  V30 2435 H 235.979 -0.772583 0.120993 0
M  V30 2436 H 238.563 -1.73203 0.889306 0
M  V30 2437 H 236.734 -3.85576 -0.467483 0
M  V30 2438 H 238.466 -4.03603 -0.297808 0
M  V30 2439 H 235.221 -4.4268 1.68319 0
M  V30 2440 H 235.645 -5.36338 4.13123 0
M  V30 2441 H 240.287 -3.90511 1.62051 0
M  V30 2442 H 238.005 -5.75995 5.66794 0
M  V30 2443 H 241.591 -4.55541 3.61903 0
M  V30 2444 H 240.471 -5.47287 5.61646 0
M  V30 2445 N 237.974 -0.419461 -1.51915 0
M  V30 2446 C 239.214 0.152336 -2.03832 0
M  V30 2447 C 239.578 1.41501 -1.29775 0
M  V30 2448 O 240.779 2.06591 -1.7197 0
M  V30 2449 C 239.05 0.383812 -3.55333 0
M  V30 2450 S 240.609 0.921577 -4.29013 0
M  V30 2451 H 237.427 0.0402193 -0.709862 0
M  V30 2452 H 240.029 -0.574758 -1.8686 0
M  V30 2453 H 238.733 -0.541794 -4.06808 0
M  V30 2454 H 238.264 1.13849 -3.76566 0
M  V30 2455 H 240.279 2.20108 -4.4471 0
M  V30 2456 N 239.452 1.56882 -0.150215 0
M  V30 2457 C 240.382 2.19935 0.784284 0
M  V30 2458 C 241.363 1.14854 1.25469 0
M  V30 2459 O 242.548 1.43209 1.31168 0
M  V30 2460 C 239.678 2.82349 2.02229 0
M  V30 2461 C 238.632 3.93285 1.68853 0
M  V30 2462 C 237.958 4.42649 2.99944 0
M  V30 2463 C 239.258 5.13904 0.932714 0
M  V30 2464 H 240.952 2.9828 0.258781 0
M  V30 2465 H 238.498 1.43473 0.123029 0
M  V30 2466 H 240.451 3.25126 2.68088 0
M  V30 2467 H 239.175 2.0134 2.57157 0
M  V30 2468 H 237.834 3.5113 1.05371 0
M  V30 2469 H 237.482 3.58458 3.52869 0
M  V30 2470 H 237.182 5.17476 2.78374 0
M  V30 2471 H 238.706 4.88099 3.66868 0
M  V30 2472 H 240.12 5.53506 1.49345 0
M  V30 2473 H 238.517 5.94515 0.81684 0
M  V30 2474 H 239.587 4.84842 -0.0749568 0
M  V30 2475 N 240.93 -0.123565 1.57115 0
M  V30 2476 C 242.158 -0.846461 1.88793 0
M  V30 2477 C 242.573 -1.73652 0.740976 0
M  V30 2478 O 241.93 -1.80207 -0.288393 0
M  V30 2479 C 241.981 -1.6837 3.19897 0
M  V30 2480 O 241.702 -0.829477 4.30176 0
M  V30 2481 C 243.203 -2.51214 3.65248 0
M  V30 2482 H 240.423 -0.243573 0.625231 0
M  V30 2483 H 242.967 -0.109324 2.04208 0
M  V30 2484 H 241.122 -2.37364 3.06165 0
M  V30 2485 H 241.536 -1.40651 5.0529 0
M  V30 2486 H 243.01 -3.05497 4.59756 0
M  V30 2487 H 243.487 -3.28359 2.9168 0
M  V30 2488 H 244.093 -1.8747 3.81752 0
M  V30 2489 N 242.408 -1.52605 -0.393616 0
M  V30 2490 C 243.656 -1.67093 -1.13685 0
M  V30 2491 C 243.977 -0.411011 -1.90619 0
M  V30 2492 O 243.247 0.574491 -1.87287 0
M  V30 2493 H 241.827 -0.615923 -0.422668 0
M  V30 2494 H 244.489 -1.89704 -0.447039 0
M  V30 2495 H 243.585 -2.51922 -1.84232 0
M  V30 2496 N 243.887 0.651787 -1.4349 0
M  V30 2497 C 245.112 1.44434 -1.48841 0
M  V30 2498 C 245.537 1.8779 -0.107955 0
M  V30 2499 O 244.895 1.57464 0.898602 0
M  V30 2500 C 244.943 2.65458 -2.44059 0
M  V30 2501 O 244.047 3.64566 -1.92784 0
M  V30 2502 H 243.388 0.433005 -0.503391 0
M  V30 2503 H 245.918 0.797451 -1.88419 0
M  V30 2504 H 245.928 3.13255 -2.6141 0
M  V30 2505 H 244.603 2.33244 -3.4434 0
M  V30 2506 H 243.18 3.23716 -1.851 0
M  V30 2507 N 245.365 1.30045 0.890287 0
M  V30 2508 C 246.59 1.21598 1.68014 0
M  V30 2509 C 247.015 -0.218678 1.86825 0
M  V30 2510 O 246.373 -1.15756 1.39536 0
M  V30 2511 C 246.421 1.94434 3.03691 0
M  V30 2512 O 245.525 1.2678 3.92429 0
M  V30 2513 H 244.866 0.420856 0.513592 0
M  V30 2514 H 247.396 1.71775 1.11151 0
M  V30 2515 H 247.406 2.03251 3.5377 0
M  V30 2516 H 246.081 2.98777 2.89318 0
M  V30 2517 H 244.658 1.26282 3.50866 0
M  V30 2518 N 246.843 -1.10192 1.12674 0
M  V30 2519 C 247.806 -2.14786 0.799979 0
M  V30 2520 C 248.806 -1.59711 -0.18685 0
M  V30 2521 O 249.996 -1.74156 0.0392558 0
M  V30 2522 C 247.128 -3.40374 0.189228 0
M  V30 2523 H 248.321 -2.45203 1.72671 0
M  V30 2524 H 245.874 -1.25597 0.930326 0
M  V30 2525 H 246.609 -3.15577 -0.747107 0
M  V30 2526 H 246.394 -3.81637 0.899766 0
M  V30 2527 H 247.884 -4.17594 -0.0228143 0
M  V30 2528 N 248.321 -0.919034 -1.28029 0
M  V30 2529 C 249.546 -0.570357 -1.99403 0
M  V30 2530 C 249.971 0.842486 -1.68178 0
M  V30 2531 O 249.329 1.56391 -0.917141 0
M  V30 2532 C 249.377 -0.792541 -3.51783 0
M  V30 2533 O 248.481 0.145988 -4.12142 0
M  V30 2534 H 247.822 -0.220555 -0.6263 0
M  V30 2535 H 250.352 -1.23592 -1.63053 0
M  V30 2536 H 250.362 -0.704708 -4.01868 0
M  V30 2537 H 249.037 -1.82247 -3.73844 0
M  V30 2538 H 247.614 0.00897528 -3.72899 0
M  V30 2539 N 249.799 1.42003 -0.683588 0
M  V30 2540 C 251.215 1.55625 -0.353976 0
M  V30 2541 C 251.415 1.66151 1.14 0
M  V30 2542 O 250.471 1.63329 1.92561 0
M  V30 2543 C 251.784 2.80171 -1.092 0
M  V30 2544 C 253.332 2.93954 -1.07518 0
M  V30 2545 C 253.807 4.21372 -1.79471 0
M  V30 2546 N 255.298 4.28303 -1.76381 0
M  V30 2547 C 256.033 5.25729 -2.28904 0
M  V30 2548 N 255.529 6.29254 -2.89846 0
M  V30 2549 N 257.322 5.17586 -2.19228 0
M  V30 2550 H 249.473 1.33415 -1.6527 0
M  V30 2551 H 251.736 0.64282 -0.696769 0
M  V30 2552 H 251.442 2.78561 -2.14701 0
M  V30 2553 H 251.316 3.7133 -0.662862 0
M  V30 2554 H 253.703 2.95086 -0.028475 0
M  V30 2555 H 253.784 2.04002 -1.54328 0
M  V30 2556 H 253.428 4.21001 -2.84114 0
M  V30 2557 H 253.358 5.10275 -1.30104 0
M  V30 2558 H 255.849 3.54119 -1.31939 0
M  V30 2559 H 256.162 6.99964 -3.27522 0
M  V30 2560 H 254.507 6.29791 -2.93919 0
M  V30 2561 H 257.698 4.35631 -1.71299 0
M  V30 2562 H 257.871 5.93348 -2.60466 0
M  V30 2563 N 251.277 0.427512 1.51691 0
M  V30 2564 C 252.693 0.0792977 1.59403 0
M  V30 2565 C 252.893 -1.41035 1.43914 0
M  V30 2566 O 251.949 -2.17922 1.27539 0
M  V30 2567 C 253.262 0.590636 2.94842 0
M  V30 2568 C 254.81 0.550215 3.08126 0
M  V30 2569 C 255.285 1.03836 4.46074 0
M  V30 2570 N 256.776 0.995943 4.52366 0
M  V30 2571 C 257.511 1.34463 5.57411 0
M  V30 2572 N 257.007 1.76569 6.69922 0
M  V30 2573 N 258.8 1.26343 5.47717 0
M  V30 2574 H 250.951 1.39687 1.60004 0
M  V30 2575 H 253.214 0.575003 0.753708 0
M  V30 2576 H 252.92 1.63251 3.11516 0
M  V30 2577 H 252.794 0.0102061 3.77199 0
M  V30 2578 H 255.181 -0.482654 2.91126 0
M  V30 2579 H 255.262 1.16693 2.27632 0
M  V30 2580 H 254.906 2.06965 4.63819 0
M  V30 2581 H 254.836 0.398286 5.25092 0
M  V30 2582 H 257.327 0.68661 3.7161 0
M  V30 2583 H 257.64 2.01438 7.46085 0
M  V30 2584 H 255.985 1.80488 6.71155 0
M  V30 2585 H 259.176 0.933209 4.58703 0
M  V30 2586 H 259.349 1.53846 6.29472 0
M  V30 2587 N 252.755 -1.56801 0.158532 0
M  V30 2588 C 254.171 -1.5837 -0.197774 0
M  V30 2589 C 254.371 -1.17334 -1.63814 0
M  V30 2590 O 253.427 -0.878988 -2.36707 0
M  V30 2591 C 254.74 -3.00615 0.0714459 0
M  V30 2592 C 256.288 -3.12999 0.00864533 0
M  V30 2593 C 256.763 -4.57313 0.250685 0
M  V30 2594 N 258.254 -4.62777 0.198014 0
M  V30 2595 C 258.989 -5.72271 0.359642 0
M  V30 2596 N 258.485 -6.90371 0.579625 0
M  V30 2597 N 260.278 -5.61318 0.296438 0
M  V30 2598 H 252.429 -1.81765 1.09887 0
M  V30 2599 H 254.692 -0.841849 0.435884 0
M  V30 2600 H 254.398 -3.35068 1.06874 0
M  V30 2601 H 254.272 -3.71683 -0.642757 0
M  V30 2602 H 256.659 -2.7838 -0.979217 0
M  V30 2603 H 256.74 -2.44393 0.755359 0
M  V30 2604 H 256.384 -4.92639 1.2357 0
M  V30 2605 H 256.314 -5.24061 -0.516489 0
M  V30 2606 H 258.805 -3.77885 0.0331115 0
M  V30 2607 H 259.118 -7.69689 0.69275 0
M  V30 2608 H 257.463 -6.92264 0.616087 0
M  V30 2609 H 260.654 -4.67932 0.125258 0
M  V30 2610 H 260.827 -6.46599 0.425831 0
M  V30 2611 N 254.233 0.115231 -1.57178 0
M  V30 2612 C 255.479 0.82357 -1.85325 0
M  V30 2613 C 255.812 1.79349 -0.744814 0
M  V30 2614 O 255.087 1.92899 0.249024 0
M  V30 2615 C 255.37 1.57014 -3.24066 0
M  V30 2616 C 255.223 0.619565 -4.45513 0
M  V30 2617 C 256.542 2.52545 -3.60429 0
M  V30 2618 H 253.661 0.297948 -0.674089 0
M  V30 2619 H 256.303 0.0877138 -1.89797 0
M  V30 2620 H 254.453 2.19742 -3.20383 0
M  V30 2621 H 256.125 0.000837639 -4.613 0
M  V30 2622 H 254.368 -0.0686174 -4.33746 0
M  V30 2623 H 255.039 1.17866 -5.3927 0
M  V30 2624 H 257.515 1.9992 -3.64926 0
M  V30 2625 H 256.391 3.01811 -4.58477 0
M  V30 2626 H 256.652 3.35383 -2.88047 0
M  V30 2627 N 255.711 1.52812 0.385517 0
M  V30 2628 C 256.658 1.77838 1.47113 0
M  V30 2629 C 257.628 0.621757 1.54024 0
M  V30 2630 O 258.813 0.861846 1.70226 0
M  V30 2631 C 255.953 1.95618 2.84302 0
M  V30 2632 C 255.066 3.23316 2.86515 0
M  V30 2633 C 254.201 3.31394 4.15152 0
M  V30 2634 C 253.24 4.53201 4.1143 0
M  V30 2635 N 252.377 4.58542 5.3168 0
M  V30 2636 H 257.217 2.70482 1.25073 0
M  V30 2637 H 254.754 1.34006 0.606692 0
M  V30 2638 H 256.712 2.03912 3.63972 0
M  V30 2639 H 255.342 1.06331 3.04784 0
M  V30 2640 H 254.394 3.24076 1.99195 0
M  V30 2641 H 255.706 4.13045 2.79634 0
M  V30 2642 H 254.86 3.3889 5.03228 0
M  V30 2643 H 253.599 2.39645 4.24761 0
M  V30 2644 H 252.604 4.45827 3.21742 0
M  V30 2645 H 253.829 5.46271 4.03442 0
M  V30 2646 H 251.775 3.69686 5.41912 0
M  V30 2647 H 251.692 5.42148 5.26889 0
M  V30 2648 H 252.96 4.70296 6.21644 0
M  V30 2649 N 257.189 -0.644168 1.43834 0
M  V30 2650 C 258.438 -1.39985 1.45214 0
M  V30 2651 C 258.751 -1.95421 0.0835494 0
M  V30 2652 O 259.957 -2.71488 -0.0251748 0
M  V30 2653 C 258.413 -2.53384 2.55587 0
M  V30 2654 C 258.021 -2.04517 3.98594 0
M  V30 2655 C 259.765 -3.30685 2.66172 0
M  V30 2656 C 257.672 -3.1518 5.00416 0
M  V30 2657 H 256.602 -0.526005 0.540218 0
M  V30 2658 H 259.253 -0.694367 1.69855 0
M  V30 2659 H 257.635 -3.26446 2.24163 0
M  V30 2660 H 258.809 -1.38405 4.39523 0
M  V30 2661 H 257.124 -1.40068 3.92135 0
M  V30 2662 H 259.721 -4.13158 3.39418 0
M  V30 2663 H 260.064 -3.79312 1.71546 0
M  V30 2664 H 260.597 -2.64708 2.96942 0
M  V30 2665 H 257.336 -2.71511 5.96625 0
M  V30 2666 H 256.856 -3.79974 4.64091 0
M  V30 2667 H 258.535 -3.80166 5.23529 0
M  V30 2668 N 258.668 -1.30515 -0.883378 0
M  V30 2669 C 259.893 -1.22487 -1.67367 0
M  V30 2670 C 260.318 0.208767 -1.86938 0
M  V30 2671 O 259.676 1.15015 -1.40148 0
M  V30 2672 C 259.724 -1.96041 -3.02655 0
M  V30 2673 O 258.828 -1.28859 -3.91751 0
M  V30 2674 H 258.169 -0.423573 -0.511353 0
M  V30 2675 H 260.699 -1.72362 -1.10239 0
M  V30 2676 H 260.709 -2.05124 -3.52687 0
M  V30 2677 H 259.384 -3.00307 -2.8773 0
M  V30 2678 H 257.961 -1.28141 -3.50192 0
M  V30 2679 N 260.146 1.09593 -1.13257 0
M  V30 2680 C 261.374 1.855 -0.916378 0
M  V30 2681 C 261.789 1.81069 0.534738 0
M  V30 2682 O 261.146 1.20562 1.37007 0
M  V30 2683 C 261.197 3.33546 -1.39388 0
M  V30 2684 O 260.918 3.37927 -2.78813 0
M  V30 2685 C 262.419 4.26299 -1.21588 0
M  V30 2686 H 259.639 0.585991 -0.326887 0
M  V30 2687 H 262.183 1.38488 -1.5047 0
M  V30 2688 H 260.338 3.77992 -0.848597 0
M  V30 2689 H 260.752 4.30254 -2.9997 0
M  V30 2690 H 262.226 5.28341 -1.59876 0
M  V30 2691 H 262.703 4.38918 -0.157376 0
M  V30 2692 H 263.309 3.87668 -1.7491 0
M  V30 2693 N 261.624 0.925811 1.2754 0
M  V30 2694 C 262.557 0.367836 2.25216 0
M  V30 2695 C 263.535 -0.534738 1.53556 0
M  V30 2696 O 264.719 -0.475672 1.824 0
M  V30 2697 C 261.846 -0.47298 3.35381 0
M  V30 2698 C 260.892 0.365898 4.24928 0
M  V30 2699 S 261.725 1.78025 5.05042 0
M  V30 2700 C 262.881 0.947068 6.18693 0
M  V30 2701 H 263.114 1.19568 2.72196 0
M  V30 2702 H 260.647 0.727867 1.36167 0
M  V30 2703 H 262.605 -0.952242 3.99303 0
M  V30 2704 H 261.266 -1.27533 2.87044 0
M  V30 2705 H 260.459 -0.277582 5.03235 0
M  V30 2706 H 260.061 0.779261 3.65792 0
M  V30 2707 H 262.353 0.182201 6.77255 0
M  V30 2708 H 263.296 1.70309 6.87314 0
M  V30 2709 H 263.704 0.489913 5.6237 0
M  V30 2710 N 263.102 -1.41638 0.69111 0
M  V30 2711 C 264.032 -2.3347 0.037248 0
M  V30 2712 C 265.013 -1.51575 -0.771947 0
M  V30 2713 O 266.198 -1.80126 -0.72582 0
M  V30 2714 C 263.328 -3.35354 -0.903064 0
M  V30 2715 C 262.282 -4.27526 -0.201288 0
M  V30 2716 C 261.608 -5.19747 -1.25565 0
M  V30 2717 C 262.908 -5.13959 0.929689 0
M  V30 2718 H 264.602 -2.88397 0.804227 0
M  V30 2719 H 262.148 -1.38669 0.388189 0
M  V30 2720 H 264.101 -3.98519 -1.36969 0
M  V30 2721 H 262.825 -2.78767 -1.70166 0
M  V30 2722 H 261.484 -3.65779 0.245265 0
M  V30 2723 H 261.132 -4.59479 -2.04666 0
M  V30 2724 H 260.832 -5.8225 -0.791128 0
M  V30 2725 H 262.356 -5.85789 -1.72288 0
M  V30 2726 H 263.77 -5.70718 0.543546 0
M  V30 2727 H 262.167 -5.85379 1.32103 0
M  V30 2728 H 263.237 -4.51389 1.77133 0
M  V30 2729 N 264.58 -0.43555 -1.51462 0
M  V30 2730 C 265.829 0.133007 -2.01261 0
M  V30 2731 C 266.142 1.43942 -1.32439 0
M  V30 2732 O 267.348 2.09081 -1.73198 0
M  V30 2733 C 265.804 0.287581 -3.58749 0
M  V30 2734 C 265.412 -1.00829 -4.36506 0
M  V30 2735 C 267.156 0.810004 -4.167 0
M  V30 2736 C 265.063 -0.819454 -5.85695 0
M  V30 2737 H 263.993 0.0534822 -0.752101 0
M  V30 2738 H 266.644 -0.565038 -1.74584 0
M  V30 2739 H 265.026 1.04859 -3.81865 0
M  V30 2740 H 266.2 -1.77749 -4.25138 0
M  V30 2741 H 264.515 -1.45911 -3.89999 0
M  V30 2742 H 267.112 0.967743 -5.2587 0
M  V30 2743 H 267.455 1.79196 -3.75758 0
M  V30 2744 H 267.988 0.107357 -3.97655 0
M  V30 2745 H 264.727 -1.77374 -6.31046 0
M  V30 2746 H 264.247 -0.0900208 -5.99732 0
M  V30 2747 H 265.926 -0.471949 -6.45276 0
M  V30 2748 N 266.058 1.56714 -0.166846 0
M  V30 2749 C 266.968 2.21331 0.777791 0
M  V30 2750 C 267.984 1.20358 1.25658 0
M  V30 2751 O 269.16 1.53005 1.30964 0
M  V30 2752 C 266.225 2.83787 1.99163 0
M  V30 2753 C 265.286 3.99947 1.56016 0
M  V30 2754 C 264.519 4.59415 2.71613 0
M  V30 2755 O 264.742 4.17769 3.88362 0
M  V30 2756 O 263.676 5.49359 2.45945 0
M  V30 2757 H 267.502 3.02605 0.257636 0
M  V30 2758 H 265.087 1.49275 0.0611393 0
M  V30 2759 H 266.969 3.23405 2.70161 0
M  V30 2760 H 265.644 2.05513 2.50092 0
M  V30 2761 H 264.551 3.65007 0.819809 0
M  V30 2762 H 265.884 4.79801 1.09782 0
M  V30 2763 N 267.536 -0.106894 1.57237 0
M  V30 2764 C 268.784 -0.810921 1.85117 0
M  V30 2765 C 269.105 -1.7984 0.753827 0
M  V30 2766 O 268.375 -1.94649 -0.221056 0
M  V30 2767 H 266.955 -0.302466 0.683025 0
M  V30 2768 H 269.617 -0.0913324 1.94686 0
M  V30 2769 H 268.713 -1.34875 2.81452 0
M  V30 2770 N 269.014 -1.53014 -0.377408 0
M  V30 2771 C 270.254 -1.70318 -1.1301 0
M  V30 2772 C 270.618 -0.439538 -1.86901 0
M  V30 2773 O 271.819 -0.489095 -2.64313 0
M  V30 2774 C 270.09 -2.91125 -2.07319 0
M  V30 2775 S 271.649 -3.29075 -2.90268 0
M  V30 2776 H 268.467 -0.599426 -0.382374 0
M  V30 2777 H 271.069 -1.91089 -0.412933 0
M  V30 2778 H 269.773 -3.81303 -1.51777 0
M  V30 2779 H 269.304 -2.7272 -2.83526 0
M  V30 2780 H 271.319 -2.80165 -4.09539 0
M  V30 2781 N 270.492 0.636531 -1.44174 0
M  V30 2782 C 271.442 1.74233 -1.47061 0
M  V30 2783 C 272.426 1.57331 -0.337034 0
M  V30 2784 O 273.618 1.67159 -0.581973 0
M  V30 2785 C 270.747 3.12897 -1.41246 0
M  V30 2786 C 269.833 3.35288 -2.59698 0
M  V30 2787 N 270.224 3.2807 -3.84972 0
M  V30 2788 C 268.522 3.66065 -2.54778 0
M  V30 2789 C 269.223 3.51001 -4.63867 0
M  V30 2790 N 268.199 3.73616 -3.94857 0
M  V30 2791 H 272.001 1.67103 -2.41773 0
M  V30 2792 H 269.515 0.838806 -1.3906 0
M  V30 2793 H 271.512 3.92189 -1.41398 0
M  V30 2794 H 270.172 3.21197 -0.47569 0
M  V30 2795 H 271.183 3.07109 -4.17019 0
M  V30 2796 H 267.86 3.81379 -1.6987 0
M  V30 2797 H 269.25 3.51059 -5.72894 0
M  V30 2798 N 271.97 1.30982 0.876444 0
M  V30 2799 C 273.21 1.21589 1.64303 0
M  V30 2800 C 273.574 -0.223962 1.90689 0
M  V30 2801 O 274.775 -0.44128 2.65153 0
M  V30 2802 C 273.046 2.03007 2.94148 0
M  V30 2803 S 274.605 2.10405 3.85065 0
M  V30 2804 H 271.423 0.433161 0.563819 0
M  V30 2805 H 274.025 1.65565 1.03964 0
M  V30 2806 H 272.729 3.06719 2.72675 0
M  V30 2807 H 272.26 1.59725 3.59515 0
M  V30 2808 H 274.275 1.23765 4.80517 0
M  V30 2809 N 273.449 -1.08991 1.13837 0
M  V30 2810 C 274.674 -1.85551 0.926585 0
M  V30 2811 C 275.099 -1.80782 -0.519566 0
M  V30 2812 O 274.457 -1.18855 -1.36906 0
M  V30 2813 C 274.505 -3.31266 1.42462 0
M  V30 2814 O 273.609 -4.07822 0.612789 0
M  V30 2815 H 272.95 -0.575192 0.331738 0
M  V30 2816 H 275.48 -1.37604 1.51414 0
M  V30 2817 H 275.49 -3.82112 1.43019 0
M  V30 2818 H 274.165 -3.34052 2.47754 0
M  V30 2819 H 272.742 -3.66731 0.675463 0
M  V30 2820 N 274.927 -0.932562 -1.27047 0
M  V30 2821 C 276.338 -0.619451 -1.76124 0
M  V30 2822 C 276.689 0.865397 -1.76083 0
M  V30 2823 O 275.814 1.67722 -1.36742 0
M  V30 2824 C 276.409 -1.11771 -3.19832 0
M  V30 2825 C 274.968 -0.855174 -3.66557 0
M  V30 2826 C 274.115 -1.27362 -2.46321 0
M  V30 2827 H 277.066 -1.11181 -1.13245 0
M  V30 2828 H 277.087 -0.46759 -3.77616 0
M  V30 2829 H 276.599 -2.19842 -3.1983 0
M  V30 2830 H 274.7 0.211524 -3.71999 0
M  V30 2831 H 274.813 -1.47613 -4.55793 0
M  V30 2832 H 273.177 -0.692119 -2.45116 0
M  V30 2833 H 273.96 -2.36307 -2.49025 0
M  V30 2834 N 276.405 1.4127 -0.698611 0
M  V30 2835 C 277.352 2.30773 -0.0352094 0
M  V30 2836 C 278.322 1.47273 0.768111 0
M  V30 2837 O 279.507 1.76053 0.735524 0
M  V30 2838 C 276.647 3.33346 0.893 0
M  V30 2839 C 275.76 4.31924 0.0809695 0
M  V30 2840 C 274.895 5.21566 1.0071 0
M  V30 2841 C 273.934 6.11811 0.188155 0
M  V30 2842 N 273.071 6.93926 1.06825 0
M  V30 2843 H 277.911 2.86943 -0.804207 0
M  V30 2844 H 275.448 1.4132 -0.408294 0
M  V30 2845 H 277.406 3.91368 1.44523 0
M  V30 2846 H 276.036 2.78719 1.62836 0
M  V30 2847 H 275.088 3.75825 -0.588224 0
M  V30 2848 H 276.4 4.95716 -0.553801 0
M  V30 2849 H 275.554 5.84437 1.62845 0
M  V30 2850 H 274.293 4.58008 1.67572 0
M  V30 2851 H 273.298 5.47986 -0.446254 0
M  V30 2852 H 274.523 6.77425 -0.476716 0
M  V30 2853 H 272.469 6.32973 1.72283 0
M  V30 2854 H 272.386 7.54416 0.489123 0
M  V30 2855 H 273.654 7.61262 1.67632 0
M  V30 2856 N 277.883 0.443576 1.51229 0
M  V30 2857 C 278.846 -0.353132 2.26463 0
M  V30 2858 C 279.846 -0.944338 1.3015 0
M  V30 2859 O 281.036 -0.817813 1.5381 0
M  V30 2860 C 278.168 -1.50023 3.06114 0
M  V30 2861 H 279.361 0.3063 2.98332 0
M  V30 2862 H 276.914 0.196902 1.55055 0
M  V30 2863 H 277.649 -2.19553 2.38677 0
M  V30 2864 H 277.434 -1.08241 3.76864 0
M  V30 2865 H 278.924 -2.06296 3.63087 0
M  V30 2866 O 279.4 -1.58373 0.316273 0
M  V30 2867 H 280.091 -1.92143 -0.24513 0
M  V30 END ATOM
M  V30 BEGIN BOND
M  V30 END BOND
M  V30 END CTAB
M  END
$$$$
