drugbank_target|Q8N9I0 Synaptotagmin-2 (DB00042)
 OpenBabel12092120063D

  0  0  0     0  0            999 V3000
M  V30 BEGIN CTAB
M  V30 COUNTS 6639 6700 0 0 0
M  V30 BEGIN ATOM
M  V30 1 H -0.908 1.98254 -0.117106 0
M  V30 2 N 0 1.576 0 0
M  V30 3 C 0.933 2.03868 1.02534 0
M  V30 4 C 1.911 0.928543 1.3348 0
M  V30 5 O 3.095 1.19667 1.45644 0
M  V30 6 C 0.222 2.43627 2.35294 0
M  V30 7 C -0.732 3.65373 2.2001 0
M  V30 8 S 0.101 5.13292 1.52614 0
M  V30 9 C 1.257 5.56322 2.86805 0
M  V30 10 H 1.49 2.90518 0.631377 0
M  V30 11 H -0.977 1.52953 0.210867 0
M  V30 12 H 0.981 2.67203 3.11629 0
M  V30 13 H -0.358 1.57376 2.7183 0
M  V30 14 H -1.165 3.90944 3.18086 0
M  V30 15 H -1.563 3.418 1.51819 0
M  V30 16 H 0.729 5.58782 3.83104 0
M  V30 17 H 1.672 6.56266 2.65933 0
M  V30 18 H 2.08 4.83886 2.90714 0
M  V30 19 N 1.4781 -0.272755 1.55222 0
M  V30 20 C 2.8941 -0.619959 1.47067 0
M  V30 21 C 3.0941 -1.895 0.684978 0
M  V30 22 O 2.1501 -2.51675 0.203931 0
M  V30 23 C 3.4631 -0.746693 2.91282 0
M  V30 24 C 5.0111 -0.840731 3.01497 0
M  V30 25 C 5.4861 -0.99924 4.46967 0
M  V30 26 N 6.9771 -1.06476 4.50796 0
M  V30 27 C 7.7121 -1.20621 5.6057 0
M  V30 28 N 7.2081 -1.31483 6.80209 0
M  V30 29 N 9.0011 -1.23733 5.48312 0
M  V30 30 H 1.1521 0.564606 2.04758 0
M  V30 31 H 3.4151 0.191177 0.928523 0
M  V30 32 H 3.1211 0.119753 3.51496 0
M  V30 33 H 2.9951 -1.6269 3.40311 0
M  V30 34 H 5.3821 -1.69764 2.41379 0
M  V30 35 H 5.4631 0.0640874 2.5572 0
M  V30 36 H 5.1071 -0.146984 5.07687 0
M  V30 37 H 5.0371 -1.91871 4.90401 0
M  V30 38 H 7.5281 -0.993196 3.64615 0
M  V30 39 H 7.8411 -1.42111 7.59621 0
M  V30 40 H 6.1861 -1.28487 6.8302 0
M  V30 41 H 9.3771 -1.14877 4.53785 0
M  V30 42 H 9.5501 -1.34412 6.33906 0
M  V30 43 N 2.9562 -1.48159 -0.537278 0
M  V30 44 C 3.9042 -1.62573 -1.66352 0
M  V30 45 C 4.8982 -0.492366 -1.62087 0
M  V30 46 O 6.1042 -0.670847 -1.67032 0
M  V30 47 H 2.4792 -0.511992 -0.550789 0
M  V30 48 H 4.4502 -2.57176 -1.51337 0
M  V30 49 C 3.1992 -1.67583 -3.04649 0
M  V30 50 H 2.5222 -2.54151 -3.08622 0
M  V30 51 H 3.9622 -1.81713 -3.83088 0
M  V30 52 C 2.4212 -0.413039 -3.34358 0
M  V30 53 O 2.9512 0.477259 -3.98855 0
M  V30 54 N 1.1572 -0.286961 -2.8918 0
M  V30 55 H 0.7042 -1.01241 -2.36871 0
M  V30 56 H 0.6622 0.556963 -3.09427 0
M  V30 57 N 4.4343 0.785586 -1.36625 0
M  V30 58 C 5.6833 1.53883 -1.30396 0
M  V30 59 C 5.9963 1.95271 0.113452 0
M  V30 60 O 7.2023 2.69858 0.298142 0
M  V30 61 C 5.6583 2.77808 -2.28802 0
M  V30 62 C 5.2663 2.43574 -3.75999 0
M  V30 63 C 7.0103 3.55783 -2.31558 0
M  V30 64 C 4.9173 3.63919 -4.66173 0
M  V30 65 H 3.8473 0.577678 -0.484566 0
M  V30 66 H 6.4983 0.861705 -1.62009 0
M  V30 67 H 4.8803 3.47339 -1.90188 0
M  V30 68 H 6.0543 1.81916 -4.23371 0
M  V30 69 H 4.3693 1.78803 -3.76056 0
M  V30 70 H 6.9663 4.45205 -2.96137 0
M  V30 71 H 7.3093 3.94644 -1.3252 0
M  V30 72 H 7.8423 2.93235 -2.68809 0
M  V30 73 H 4.5813 3.3015 -5.66287 0
M  V30 74 H 4.1013 4.2473 -4.23515 0
M  V30 75 H 5.7803 4.30901 -4.82632 0
M  V30 76 N 5.9124 1.20967 1.01018 0
M  V30 77 C 7.1594 1.02374 1.74716 0
M  V30 78 C 7.4874 -0.443375 1.89379 0
M  V30 79 O 6.7424 -1.34535 1.42123 0
M  V30 80 C 7.0414 1.65997 3.16512 0
M  V30 81 C 6.7074 3.15831 3.2181 0
M  V30 82 C 5.3694 3.56719 3.22963 0
M  V30 83 C 7.7214 4.11816 3.19464 0
M  V30 84 C 5.0494 4.92107 3.19449 0
M  V30 85 C 7.4014 5.47158 3.17491 0
M  V30 86 C 6.0654 5.87451 3.16951 0
M  V30 87 H 5.3354 0.374614 0.639332 0
M  V30 88 H 7.9824 1.50485 1.18434 0
M  V30 89 H 6.2874 1.10166 3.75993 0
M  V30 90 H 7.9844 1.49119 3.72242 0
M  V30 91 H 4.5744 2.83263 3.21652 0
M  V30 92 H 8.7584 3.81257 3.17737 0
M  V30 93 H 4.0144 5.22579 3.17366 0
M  V30 94 H 8.1884 6.21274 3.14629 0
M  V30 95 H 5.8154 6.92329 3.13983 0
M  V30 96 N 7.3905 -1.2043 1.01659 0
M  V30 97 C 8.3375 -2.23215 0.586822 0
M  V30 98 C 9.3075 -1.61382 -0.393085 0
M  V30 99 O 10.4925 -1.88544 -0.292525 0
M  V30 100 C 7.6325 -3.45032 -0.0687464 0
M  V30 101 C 6.7455 -4.21296 0.955724 0
M  V30 102 C 5.8805 -5.30507 0.271208 0
M  V30 103 C 4.9195 -5.98515 1.28244 0
M  V30 104 N 4.0565 -6.99316 0.62459 0
M  V30 105 H 8.8965 -2.59336 1.46796 0
M  V30 106 H 6.4335 -1.27431 0.734836 0
M  V30 107 H 8.3915 -4.1459 -0.465965 0
M  V30 108 H 7.0215 -3.09604 -0.913529 0
M  V30 109 H 6.0735 -3.50803 1.4711 0
M  V30 110 H 7.3855 -4.6803 1.72479 0
M  V30 111 H 6.5395 -6.06428 -0.18151 0
M  V30 112 H 5.2785 -4.8481 -0.530163 0
M  V30 113 H 4.2835 -5.21355 1.74554 0
M  V30 114 H 5.5085 -6.46298 2.08509 0
M  V30 115 H 3.4545 -6.55812 -0.156914 0
M  V30 116 H 3.3715 -7.44178 1.33172 0
M  V30 117 H 4.6395 -7.79255 0.195462 0
M  V30 118 N 8.8686 -0.792821 -1.36206 0
M  V30 119 C 10.2846 -0.474903 -1.52371 0
M  V30 120 C 10.4846 1.00622 -1.74578 0
M  V30 121 O 9.5406 1.79162 -1.77924 0
M  V30 122 C 10.8536 -1.3083 -2.70747 0
M  V30 123 C 12.4016 -1.30234 -2.84619 0
M  V30 124 C 12.8766 -2.11956 -4.06004 0
M  V30 125 N 14.3676 -2.09419 -4.13156 0
M  V30 126 C 15.1026 -2.69419 -5.06163 0
M  V30 127 N 14.5986 -3.3829 -6.04592 0
M  V30 128 N 16.3916 -2.59134 -4.98804 0
M  V30 129 H 8.5426 -1.75222 -1.20046 0
M  V30 130 H 10.8056 -0.745024 -0.586211 0
M  V30 131 H 10.5116 -2.35881 -2.6087 0
M  V30 132 H 10.3856 -0.95196 -3.6499 0
M  V30 133 H 12.7726 -0.259748 -2.93955 0
M  V30 134 H 12.8536 -1.69847 -1.91274 0
M  V30 135 H 12.4976 -3.16248 -3.97429 0
M  V30 136 H 12.4276 -1.69711 -4.98503 0
M  V30 137 H 14.9186 -1.59297 -3.42685 0
M  V30 138 H 15.2316 -3.81394 -6.7213 0
M  V30 139 H 13.5766 -3.42393 -6.04807 0
M  V30 140 H 16.7676 -2.04927 -4.20859 0
M  V30 141 H 16.9406 -3.06185 -5.711 0
M  V30 142 N 10.3467 1.47872 -0.545128 0
M  V30 143 C 11.2947 2.31533 0.222512 0
M  V30 144 C 12.2887 1.42177 0.920985 0
M  V30 145 O 13.4947 1.59005 0.843645 0
M  V30 146 H 9.8697 0.746519 0.0906278 0
M  V30 147 H 11.8407 2.94139 -0.50246 0
M  V30 148 C 10.5897 3.2457 1.24699 0
M  V30 149 H 9.9127 3.93283 0.718944 0
M  V30 150 H 11.3527 3.85963 1.75523 0
M  V30 151 C 9.8117 2.47237 2.28856 0
M  V30 152 O 10.3417 2.20808 3.35569 0
M  V30 153 N 8.5477 2.08461 2.02466 0
M  V30 154 H 8.0947 2.30155 1.157 0
M  V30 155 H 8.0527 1.57033 2.72375 0
M  V30 156 N 11.8248 0.280983 1.55075 0
M  V30 157 C 12.7568 -0.637268 2.20163 0
M  V30 158 C 13.7698 -1.11298 1.18813 0
M  V30 159 O 14.9588 -1.03388 1.4551 0
M  V30 160 C 12.0588 -1.88199 2.81841 0
M  V30 161 C 11.2318 -1.55211 4.08936 0
M  V30 162 C 10.2908 -2.64991 4.54606 0
M  V30 163 O 9.3168 -2.30929 5.2025 0
M  V30 164 N 10.5188 -3.95161 4.25238 0
M  V30 165 H 13.2838 -0.0801694 2.99593 0
M  V30 166 H 10.8448 0.102329 1.61576 0
M  V30 167 H 12.8368 -2.60948 3.09335 0
M  V30 168 H 11.4068 -2.34799 2.06369 0
M  V30 169 H 10.6268 -0.658185 3.88666 0
M  V30 170 H 11.9148 -1.30681 4.91732 0
M  V30 171 H 11.3128 -4.25653 3.72607 0
M  V30 172 H 9.8698 -4.6427 4.5749 0
M  V30 173 N 13.3029 -1.57598 0.00835791 0
M  V30 174 C 14.2129 -2.12385 -0.996487 0
M  V30 175 C 15.2289 -1.07108 -1.37127 0
M  V30 176 O 16.4049 -1.39055 -1.4569 0
M  V30 177 C 13.4699 -2.62314 -2.26699 0
M  V30 178 C 12.5309 -3.82225 -1.95456 0
M  V30 179 C 11.7639 -4.29763 -3.16449 0
M  V30 180 O 11.9869 -3.76584 -4.28416 0
M  V30 181 O 10.9209 -5.21832 -2.99958 0
M  V30 182 H 14.7469 -2.98479 -0.560725 0
M  V30 183 H 12.3319 -1.47903 -0.210987 0
M  V30 184 H 14.2139 -2.94589 -3.01322 0
M  V30 185 H 12.8889 -1.79313 -2.69497 0
M  V30 186 H 11.7959 -3.54909 -1.18282 0
M  V30 187 H 13.1289 -4.66324 -1.57489 0
M  V30 188 N 14.781 0.264519 -1.55364 0
M  V30 189 C 16.192 0.834936 -1.6699 0
M  V30 190 C 16.543 1.86718 -0.602552 0
M  V30 191 O 15.668 2.14899 0.254425 0
M  V30 192 C 16.263 1.5212 -3.02729 0
M  V30 193 C 14.822 2.03954 -3.16354 0
M  V30 194 C 13.969 0.884498 -2.62815 0
M  V30 195 H 16.92 0.0406869 -1.58648 0
M  V30 196 H 16.941 2.38853 -2.96191 0
M  V30 197 H 16.453 0.769668 -3.80392 0
M  V30 198 H 14.554 2.82041 -2.43482 0
M  V30 199 H 14.667 2.24902 -4.23032 0
M  V30 200 H 13.031 1.2802 -2.20188 0
M  V30 201 H 13.814 0.14634 -3.42988 0
M  V30 202 N 16.2591 1.48442 0.529413 0
M  V30 203 C 17.5081 1.55742 1.28169 0
M  V30 204 C 17.8211 0.236511 1.94165 0
M  V30 205 O 19.0271 0.187761 2.7085 0
M  V30 206 C 17.4831 2.74667 2.32564 0
M  V30 207 C 17.0911 4.13402 1.72636 0
M  V30 208 C 18.8351 2.9128 3.08798 0
M  V30 209 C 16.7421 5.23587 2.74975 0
M  V30 210 H 15.6721 0.579796 0.48203 0
M  V30 211 H 18.3231 1.74776 0.559056 0
M  V30 212 H 16.7051 2.49067 3.07866 0
M  V30 213 H 17.8791 4.49022 1.03519 0
M  V30 214 H 16.1941 4.0191 1.08892 0
M  V30 215 H 18.7911 3.70767 3.85274 0
M  V30 216 H 19.1341 2.00757 3.64695 0
M  V30 217 H 19.6671 3.16782 2.40611 0
M  V30 218 H 16.4061 6.16076 2.23897 0
M  V30 219 H 15.9261 4.92454 3.42417 0
M  V30 220 H 17.6051 5.51724 3.37949 0
M  V30 221 N 17.7372 -0.778329 1.37039 0
M  V30 222 C 18.9832 -1.53892 1.32079 0
M  V30 223 C 19.3162 -1.9396 -0.0965386 0
M  V30 224 O 18.5912 -1.63568 -1.05242 0
M  V30 225 C 18.8742 -2.80847 2.25382 0
M  V30 226 C 18.7272 -2.47076 3.75864 0
M  V30 227 C 20.0462 -3.82741 2.1725 0
M  V30 228 H 17.1652 -0.558303 0.48111 0
M  V30 229 H 19.8072 -0.893397 1.67685 0
M  V30 230 H 17.9572 -3.35931 1.95148 0
M  V30 231 H 19.6292 -1.97957 4.16666 0
M  V30 232 H 17.8722 -1.79863 3.94755 0
M  V30 233 H 18.5432 -3.37798 4.36574 0
M  V30 234 H 21.0192 -3.37133 2.43887 0
M  V30 235 H 19.8952 -4.69303 2.84686 0
M  V30 236 H 20.1562 -4.2652 1.16331 0
M  V30 237 N 19.2153 -1.21501 -1.00376 0
M  V30 238 C 20.1783 -0.976927 -2.07337 0
M  V30 239 C 21.1783 0.0525322 -1.60714 0
M  V30 240 O 22.3683 -0.184869 -1.73216 0
M  V30 241 C 19.5003 -0.473423 -3.37597 0
M  V30 242 H 20.6933 -1.92587 -2.29892 0
M  V30 243 H 18.2463 -1.03217 -1.17371 0
M  V30 244 H 18.9813 0.480379 -3.20722 0
M  V30 245 H 18.7663 -1.216 -3.72768 0
M  V30 246 H 20.2563 -0.32675 -4.1632 0
M  V30 247 N 20.6934 1.19889 -1.02296 0
M  V30 248 C 22.1044 1.71124 -0.746568 0
M  V30 249 C 22.4554 1.81939 0.734335 0
M  V30 250 O 21.5804 1.48639 1.57275 0
M  V30 251 C 22.1754 3.10804 -1.34857 0
M  V30 252 C 20.7344 3.59323 -1.1209 0
M  V30 253 C 19.8814 2.3635 -1.45031 0
M  V30 254 H 22.8324 1.04813 -1.19163 0
M  V30 255 H 22.8534 3.73186 -0.742437 0
M  V30 256 H 22.3654 3.029 -2.42638 0
M  V30 257 H 20.4664 3.7255 -0.0610337 0
M  V30 258 H 20.5794 4.4378 -1.80544 0
M  V30 259 H 18.9434 2.39399 -0.869487 0
M  V30 260 H 19.7264 2.31081 -2.53883 0
M  V30 261 N 22.1715 0.800033 1.35784 0
M  V30 262 C 23.1345 0.211565 2.28221 0
M  V30 263 C 24.1345 -0.59728 1.49296 0
M  V30 264 O 25.3245 -0.416721 1.69142 0
M  V30 265 C 22.4565 -0.705846 3.33513 0
M  V30 266 H 23.6495 1.02677 2.81776 0
M  V30 267 H 21.2025 0.570211 1.45528 0
M  V30 268 H 21.9375 -1.54498 2.85133 0
M  V30 269 H 21.7225 -0.127655 3.91892 0
M  V30 270 H 23.2125 -1.11211 4.02519 0
M  V30 271 N 23.6496 -1.47581 0.552962 0
M  V30 272 C 24.8776 -2.06875 0.0320556 0
M  V30 273 C 25.2926 -1.40625 -1.25976 0
M  V30 274 O 24.6496 -0.501349 -1.75479 0
M  V30 275 C 24.7006 -3.61092 -0.17167 0
M  V30 276 O 24.4216 -4.24858 1.06899 0
M  V30 277 C 25.9226 -4.37242 -0.730344 0
M  V30 278 H 23.1426 -0.669561 0.043915 0
M  V30 279 H 25.6866 -1.89646 0.765163 0
M  V30 280 H 23.8416 -3.7785 -0.854894 0
M  V30 281 H 24.2556 -5.17334 0.864059 0
M  V30 282 H 25.7296 -5.45842 -0.822203 0
M  V30 283 H 26.2066 -4.03235 -1.74064 0
M  V30 284 H 26.8126 -4.25219 -0.0829543 0
M  V30 285 N 25.1277 -0.289203 -1.54924 0
M  V30 286 C 26.3557 0.326463 -2.04308 0
M  V30 287 C 26.7707 1.48413 -1.16701 0
M  V30 288 O 26.1277 1.81507 -0.190087 0
M  V30 289 C 26.1787 0.794014 -3.52672 0
M  V30 290 O 25.8997 -0.317564 -4.36948 0
M  V30 291 C 27.4007 1.47605 -4.18004 0
M  V30 292 H 24.6207 0.0726272 -0.667058 0
M  V30 293 H 27.1647 -0.425401 -2.00026 0
M  V30 294 H 25.3197 1.49593 -3.57352 0
M  V30 295 H 25.7337 0.0443186 -5.24481 0
M  V30 296 H 27.2077 1.75447 -5.23376 0
M  V30 297 H 27.6847 2.41224 -3.67025 0
M  V30 298 H 28.2907 0.81762 -4.17367 0
M  V30 299 N 26.6058 1.57591 -0.0167156 0
M  V30 300 C 27.8338 1.95575 0.675128 0
M  V30 301 C 28.2488 0.892542 1.6637 0
M  V30 302 O 27.6058 -0.126912 1.82058 0
M  V30 303 C 27.6568 3.33608 1.39239 0
M  V30 304 O 27.3778 4.3585 0.443444 0
M  V30 305 C 28.8788 3.86151 2.17721 0
M  V30 306 H 26.0988 0.644423 0.186978 0
M  V30 307 H 28.6428 2.0437 -0.0728 0
M  V30 308 H 26.7978 3.2607 2.09182 0
M  V30 309 H 27.2118 5.158 0.951358 0
M  V30 310 H 28.6858 4.85114 2.63379 0
M  V30 311 H 29.1628 3.19738 3.01105 0
M  V30 312 H 29.7688 3.96918 1.52761 0
M  V30 313 N 28.0839 -0.256276 1.55502 0
M  V30 314 C 29.0469 -1.30047 1.88734 0
M  V30 315 C 30.0469 -1.4154 0.763086 0
M  V30 316 O 31.2369 -1.40403 1.03115 0
M  V30 317 C 28.3689 -2.67953 2.10747 0
M  V30 318 H 29.5619 -1.01802 2.82093 0
M  V30 319 H 27.1149 -0.495134 1.4825 0
M  V30 320 H 27.8499 -3.01351 1.19825 0
M  V30 321 H 27.6349 -2.60993 2.92617 0
M  V30 322 H 29.1249 -3.43368 2.37673 0
M  V30 323 N 29.562 -1.4872 -0.521534 0
M  V30 324 C 30.79 -1.60843 -1.30142 0
M  V30 325 C 31.205 -0.271897 -1.86832 0
M  V30 326 O 30.562 0.739969 -1.66825 0
M  V30 327 C 30.613 -2.66155 -2.4463 0
M  V30 328 O 30.334 -3.94623 -1.90275 0
M  V30 329 C 31.835 -2.88795 -3.36322 0
M  V30 330 H 29.055 -0.542075 -0.395468 0
M  V30 331 H 31.599 -1.94609 -0.628285 0
M  V30 332 H 29.754 -2.35224 -3.07812 0
M  V30 333 H 30.168 -4.52468 -2.65279 0
M  V30 334 H 31.642 -3.66264 -4.12983 0
M  V30 335 H 32.119 -1.97934 -3.9207 0
M  V30 336 H 32.725 -3.21063 -2.78924 0
M  V30 337 N 31.0401 0.771051 -1.3745 0
M  V30 338 C 31.9731 1.89166 -1.27638 0
M  V30 339 C 32.9511 1.61842 -0.156782 0
M  V30 340 O 34.1351 1.85569 -0.331111 0
M  V30 341 C 31.2621 3.24405 -0.973621 0
M  V30 342 C 30.3081 3.70638 -2.1102 0
M  V30 343 S 31.1411 3.84228 -3.73 0
M  V30 344 C 32.2971 5.22313 -3.44876 0
M  V30 345 H 32.5301 1.972 -2.22485 0
M  V30 346 H 30.0631 0.932224 -1.23081 0
M  V30 347 H 32.0211 4.02514 -0.805766 0
M  V30 348 H 30.6821 3.14071 -0.0426279 0
M  V30 349 H 29.8751 4.68685 -1.85338 0
M  V30 350 H 29.4771 2.99632 -2.23822 0
M  V30 351 H 31.7691 6.07505 -2.99908 0
M  V30 352 H 32.7121 5.53008 -4.42253 0
M  V30 353 H 33.1201 4.90284 -2.79789 0
M  V30 354 N 32.5182 1.22032 0.997298 0
M  V30 355 C 33.9292 1.0397 1.55071 0
M  V30 356 C 34.2802 -0.398192 1.92117 0
M  V30 357 O 33.4052 -1.28254 1.74298 0
M  V30 358 C 34.0002 1.88109 2.81781 0
M  V30 359 C 32.5592 1.74357 3.33581 0
M  V30 360 C 31.7062 1.84846 2.06706 0
M  V30 361 H 34.6572 1.35941 0.818883 0
M  V30 362 H 34.6782 1.39589 3.53971 0
M  V30 363 H 34.1902 2.92754 2.54787 0
M  V30 364 H 32.2912 0.72427 3.65493 0
M  V30 365 H 32.4042 2.56772 4.04481 0
M  V30 366 H 30.7682 1.28238 2.20062 0
M  V30 367 H 31.5512 2.91014 1.82114 0
M  V30 368 N 33.9963 -1.19345 1.0293 0
M  V30 369 C 35.2453 -1.88363 0.721256 0
M  V30 370 C 35.5583 -1.80514 -0.753254 0
M  V30 371 O 36.7643 -2.44788 -1.17436 0
M  V30 372 C 35.2203 -3.37872 1.23978 0
M  V30 373 C 34.8283 -3.54278 2.74211 0
M  V30 374 C 36.5723 -4.12365 1.00775 0
M  V30 375 C 34.4793 -4.97682 3.19479 0
M  V30 376 H 33.4093 -0.705484 0.266098 0
M  V30 377 H 36.0603 -1.34928 1.24365 0
M  V30 378 H 34.4423 -3.90707 0.6453 0
M  V30 379 H 35.6163 -3.11769 3.39318 0
M  V30 380 H 33.9313 -2.93174 2.95699 0
M  V30 381 H 36.5283 -5.18119 1.32123 0
M  V30 382 H 36.8713 -4.16263 -0.0554308 0
M  V30 383 H 37.4043 -3.65668 1.56625 0
M  V30 384 H 34.1433 -4.98945 4.25128 0
M  V30 385 H 33.6633 -5.4095 2.591 0
M  V30 386 H 35.3423 -5.66337 3.12845 0
M  V30 387 N 35.4744 -0.807222 -1.35358 0
M  V30 388 C 36.7224 -0.387122 -1.98358 0
M  V30 389 C 37.0434 1.04942 -1.64354 0
M  V30 390 O 36.3134 1.72615 -0.926339 0
M  V30 391 H 34.8934 -0.140154 -0.733734 0
M  V30 392 H 37.5554 -1.0332 -1.6526 0
M  V30 393 H 36.6514 -0.493352 -3.08176 0
M  V30 394 N 36.9525 1.47285 -0.560781 0
M  V30 395 C 38.3635 1.86258 -0.128343 0
M  V30 396 C 38.7145 1.46699 1.30284 0
M  V30 397 O 37.8395 0.871698 1.98067 0
M  V30 398 C 38.4345 3.38044 -0.22614 0
M  V30 399 C 36.9935 3.76096 0.151283 0
M  V30 400 C 36.1405 2.71335 -0.572084 0
M  V30 401 H 39.0915 1.38752 -0.770297 0
M  V30 402 H 39.1125 3.76441 0.554322 0
M  V30 403 H 38.6245 3.66806 -1.26788 0
M  V30 404 H 36.7255 3.52951 1.19399 0
M  V30 405 H 36.8385 4.78641 -0.209765 0
M  V30 406 H 35.2025 2.54696 -0.0147653 0
M  V30 407 H 35.9855 3.02938 -1.61504 0
M  V30 408 N 38.4306 0.297415 1.54768 0
M  V30 409 C 39.6766 -0.313376 2.00364 0
M  V30 410 C 40.0096 -1.53815 1.18553 0
M  V30 411 O 39.2846 -1.92739 0.261103 0
M  V30 412 C 39.5676 -0.673525 3.53745 0
M  V30 413 C 39.4206 0.560133 4.46299 0
M  V30 414 C 40.7396 -1.50143 4.13697 0
M  V30 415 H 37.8586 -0.112428 0.728374 0
M  V30 416 H 40.5006 0.4088 1.8555 0
M  V30 417 H 38.6506 -1.28881 3.665 0
M  V30 418 H 40.3226 1.19863 4.45455 0
M  V30 419 H 38.5656 1.19405 4.17043 0
M  V30 420 H 39.2366 0.26405 5.51368 0
M  V30 421 H 41.7126 -0.981588 4.04356 0
M  V30 422 H 40.5886 -1.72221 5.21182 0
M  V30 423 H 40.8496 -2.48952 3.65343 0
M  V30 424 N 39.9087 -1.5758 0.0250728 0
M  V30 425 C 41.1857 -1.82917 -0.692873 0
M  V30 426 C 41.5657 -0.908137 -1.90568 0
M  V30 427 O 40.9137 0.0372298 -2.2847 0
M  V30 428 C 41.1237 -3.32034 -1.07492 0
M  V30 429 C 42.4717 -3.98406 -1.46826 0
M  V30 430 O 43.4957 -3.36505 -1.16801 0
M  V30 431 O 42.3547 -5.07497 -2.02754 0
M  V30 432 H 39.4487 -0.754079 -0.33955 0
M  V30 433 H 41.9947 -1.69619 0.0524456 0
M  V30 434 H 40.7667 -3.90728 -0.211552 0
M  V30 435 H 40.3897 -3.50424 -1.87854 0
M  V30 436 N 41.3868 0.248026 -1.55636 0
M  V30 437 C 42.3348 1.32683 -1.91045 0
M  V30 438 C 43.3288 1.49883 -0.789401 0
M  V30 439 O 44.5348 1.51371 -0.974007 0
M  V30 440 H 40.9098 0.444272 -0.606734 0
M  V30 441 H 42.8808 1.00085 -2.81115 0
M  V30 442 C 41.6298 2.6755 -2.22064 0
M  V30 443 H 40.9528 2.55114 -3.07826 0
M  V30 444 H 42.3928 3.41912 -2.50743 0
M  V30 445 C 40.8518 3.20556 -1.0366 0
M  V30 446 O 41.3818 4.00695 -0.284016 0
M  V30 447 N 39.5878 2.78568 -0.82753 0
M  V30 448 H 39.1348 2.1351 -1.44123 0
M  V30 449 H 39.0928 3.14378 -0.0369803 0
M  V30 450 N 42.8649 1.48995 0.513639 0
M  V30 451 C 44.0899 1.61792 1.29762 0
M  V30 452 C 44.5149 0.284475 1.85936 0
M  V30 453 O 43.8729 -0.746185 1.65232 0
M  V30 454 C 43.9209 2.67993 2.41272 0
M  V30 455 O 43.0249 2.26287 3.44772 0
M  V30 456 H 42.3659 0.541963 0.38363 0
M  V30 457 H 44.8959 1.95097 0.616307 0
M  V30 458 H 44.9059 2.89772 2.87221 0
M  V30 459 H 43.5809 3.64791 1.9975 0
M  V30 460 H 42.1579 2.14788 3.04829 0
M  V30 461 N 44.343 -0.763751 1.37857 0
M  V30 462 C 45.571 -1.55293 1.36718 0
M  V30 463 C 45.986 -1.88745 -0.0455434 0
M  V30 464 O 45.343 -1.52039 -1.00947 0
M  V30 465 C 45.394 -2.85831 2.2132 0
M  V30 466 O 45.115 -2.5381 3.57089 0
M  V30 467 C 46.616 -3.80023 2.28249 0
M  V30 468 H 43.836 -0.480841 0.468009 0
M  V30 469 H 46.38 -0.946009 1.81303 0
M  V30 470 H 44.535 -3.42926 1.80223 0
M  V30 471 H 44.949 -3.37459 4.01524 0
M  V30 472 H 46.423 -4.68599 2.91752 0
M  V30 473 H 46.9 -4.1973 1.2932 0
M  V30 474 H 47.506 -3.28855 2.69693 0
M  V30 475 N 45.8211 -1.22559 -0.990812 0
M  V30 476 C 46.7311 -1.01394 -2.11557 0
M  V30 477 C 47.7471 0.0383962 -1.73958 0
M  V30 478 O 48.9231 -0.154787 -2.00804 0
M  V30 479 C 45.9881 -0.596569 -3.41529 0
M  V30 480 C 45.0491 -1.72276 -3.93217 0
M  V30 481 C 44.2821 -1.32521 -5.16985 0
M  V30 482 O 44.5051 -0.204909 -5.70032 0
M  V30 483 O 43.4391 -2.14247 -5.62478 0
M  V30 484 H 47.2651 -1.95633 -2.32296 0
M  V30 485 H 44.8501 -1.01172 -1.0993 0
M  V30 486 H 46.7321 -0.374263 -4.19735 0
M  V30 487 H 45.4071 0.316939 -3.22145 0
M  V30 488 H 44.3141 -1.99961 -3.16174 0
M  V30 489 H 45.6471 -2.61421 -4.17037 0
M  V30 490 N 47.2992 1.18797 -1.03562 0
M  V30 491 C 48.5242 1.9314 -0.755764 0
M  V30 492 C 48.9492 1.7537 0.68022 0
M  V30 493 O 48.3072 1.06046 1.47051 0
M  V30 494 C 48.3552 3.42747 -1.12058 0
M  V30 495 O 47.4592 4.11683 -0.243124 0
M  V30 496 H 46.8002 0.602724 -0.278604 0
M  V30 497 H 49.3302 1.50678 -1.3841 0
M  V30 498 H 49.3402 3.93437 -1.08035 0
M  V30 499 H 48.0152 3.55002 -2.16672 0
M  V30 500 H 46.5922 3.71323 -0.342539 0
M  V30 501 N 48.7773 0.814389 1.34928 0
M  V30 502 C 50.0253 0.397636 1.9815 0
M  V30 503 C 50.3463 -1.04069 1.64908 0
M  V30 504 O 49.6163 -1.72121 0.93548 0
M  V30 505 H 48.1963 0.144043 0.732981 0
M  V30 506 H 50.8583 1.04195 1.6471 0
M  V30 507 H 49.9543 0.509688 3.0791 0
M  V30 508 N 50.2554 -1.46986 0.568584 0
M  V30 509 C 51.5034 -2.02041 0.0487022 0
M  V30 510 C 51.8244 -1.44408 -1.31039 0
M  V30 511 O 51.0944 -0.623477 -1.85714 0
M  V30 512 H 49.6744 -0.746849 0.015014 0
M  V30 513 H 52.3364 -1.80257 0.741168 0
M  V30 514 H 51.4324 -3.12085 -0.0308961 0
M  V30 515 N 51.7335 -0.305618 -1.54608 0
M  V30 516 C 52.6965 0.555591 -2.22364 0
M  V30 517 C 53.6965 1.05768 -1.21119 0
M  V30 518 O 54.8865 0.952972 -1.45822 0
M  V30 519 C 52.0185 1.76974 -2.91364 0
M  V30 520 H 53.2115 -0.0364572 -2.99878 0
M  V30 521 H 50.7645 -0.0565007 -1.56198 0
M  V30 522 H 51.4995 2.40151 -2.17941 0
M  V30 523 H 51.2845 1.41732 -3.65588 0
M  V30 524 H 52.7745 2.38148 -3.43038 0
M  V30 525 N 53.2116 1.57565 -0.0334293 0
M  V30 526 C 54.4596 1.91598 0.642999 0
M  V30 527 C 54.7806 0.910847 1.7242 0
M  V30 528 O 54.0506 -0.0469931 1.95844 0
M  V30 529 H 52.6306 0.707228 0.240496 0
M  V30 530 H 55.2926 1.94726 -0.0822488 0
M  V30 531 H 54.3886 2.92336 1.09298 0
M  V30 532 N 54.6897 -0.239769 1.55765 0
M  V30 533 C 55.5997 -1.31831 1.94056 0
M  V30 534 C 56.6157 -1.52275 0.841925 0
M  V30 535 O 57.7917 -1.65759 1.14394 0
M  V30 536 C 54.8567 -2.65156 2.23368 0
M  V30 537 C 53.9177 -2.53173 3.46701 0
M  V30 538 C 53.1507 -3.8014 3.74606 0
M  V30 539 O 53.3737 -4.82343 3.04469 0
M  V30 540 O 52.3077 -3.78344 4.68123 0
M  V30 541 H 56.1337 -1.02347 2.85935 0
M  V30 542 H 53.7187 -0.441123 1.42739 0
M  V30 543 H 55.6007 -3.43929 2.43497 0
M  V30 544 H 54.2757 -2.94358 1.34666 0
M  V30 545 H 53.1827 -1.72662 3.31871 0
M  V30 546 H 54.5157 -2.28915 4.35728 0
M  V30 547 N 56.1678 -1.49265 -0.50573 0
M  V30 548 C 57.3928 -1.62478 -1.28902 0
M  V30 549 C 57.8178 -0.294332 -1.85783 0
M  V30 550 O 57.1758 0.737412 -1.65626 0
M  V30 551 C 57.2238 -2.69268 -2.39848 0
M  V30 552 O 56.3278 -2.28113 -3.43567 0
M  V30 553 H 55.6688 -0.54399 -0.380751 0
M  V30 554 H 58.1988 -1.95421 -0.605952 0
M  V30 555 H 58.2088 -2.91291 -2.85681 0
M  V30 556 H 56.8838 -3.65846 -1.97812 0
M  V30 557 H 55.4608 -2.16401 -3.03685 0
M  V30 558 N 57.6459 0.756429 -1.3826 0
M  V30 559 C 58.5779 1.87971 -1.31147 0
M  V30 560 C 59.5909 1.61248 -0.224239 0
M  V30 561 O 60.7799 1.71881 -0.481581 0
M  V30 562 C 57.8799 3.23545 -1.00857 0
M  V30 563 C 57.0529 3.77794 -2.20432 0
M  V30 564 C 56.1119 4.91877 -1.86931 0
M  V30 565 O 55.1379 5.06659 -2.59395 0
M  V30 566 N 56.3399 5.74643 -0.822568 0
M  V30 567 H 59.1049 1.94585 -2.2794 0
M  V30 568 H 56.6659 0.936234 -1.32084 0
M  V30 569 H 58.6579 3.97403 -0.765021 0
M  V30 570 H 57.2279 3.12335 -0.128687 0
M  V30 571 H 56.4479 2.95534 -2.6087 0
M  V30 572 H 57.7359 4.10771 -3.00241 0
M  V30 573 H 57.1339 5.65266 -0.221575 0
M  V30 574 H 55.6909 6.48661 -0.638899 0
M  V30 575 N 59.124 1.23083 0.984299 0
M  V30 576 C 60.034 1.02515 2.11016 0
M  V30 577 C 61.05 -0.0291702 1.73976 0
M  V30 578 O 62.226 0.165434 2.00719 0
M  V30 579 C 59.291 0.614673 3.41208 0
M  V30 580 C 58.352 1.74359 3.92297 0
M  V30 581 C 57.585 1.35261 5.16275 0
M  V30 582 O 57.808 0.235136 5.69915 0
M  V30 583 O 56.742 2.17227 5.61334 0
M  V30 584 H 60.568 1.96862 2.31255 0
M  V30 585 H 58.153 1.01753 1.09392 0
M  V30 586 H 60.035 0.396518 4.1953 0
M  V30 587 H 58.71 -0.299851 3.22308 0
M  V30 588 H 57.617 2.01635 3.1511 0
M  V30 589 H 58.95 2.63629 4.15645 0
M  V30 590 N 60.6021 -1.18246 1.0419 0
M  V30 591 C 61.8791 -1.84121 0.660208 0
M  V30 592 C 62.2591 -1.92778 -0.860221 0
M  V30 593 O 61.6071 -1.45464 -1.76217 0
M  V30 594 C 61.8171 -3.22355 1.33747 0
M  V30 595 C 63.1651 -3.98376 1.46906 0
M  V30 596 O 64.1891 -3.31799 1.29568 0
M  V30 597 O 63.0481 -5.17665 1.75171 0
M  V30 598 H 60.1421 -0.794036 0.231161 0
M  V30 599 H 62.6881 -1.25628 1.14087 0
M  V30 600 H 61.4601 -3.10964 2.37522 0
M  V30 601 H 61.0831 -3.88506 0.845515 0
M  V30 602 N 62.0802 -0.821533 -1.34494 0
M  V30 603 C 63.0132 -0.187704 -2.27427 0
M  V30 604 C 63.9912 0.65507 -1.48821 0
M  V30 605 O 65.1752 0.619111 -1.78043 0
M  V30 606 C 62.3022 0.737996 -3.30562 0
M  V30 607 C 61.3482 -0.0270713 -4.26491 0
M  V30 608 S 62.1812 -1.37329 -5.17592 0
M  V30 609 C 63.3372 -0.452427 -6.24263 0
M  V30 610 H 63.5702 -0.975598 -2.80837 0
M  V30 611 H 61.1032 -0.61736 -1.4152 0
M  V30 612 H 63.0612 1.26654 -3.90473 0
M  V30 613 H 61.7222 1.4994 -2.76001 0
M  V30 614 H 60.9152 0.6766 -4.99438 0
M  V30 615 H 60.5172 -0.48612 -3.70827 0
M  V30 616 H 62.8092 0.356557 -6.76561 0
M  V30 617 H 63.7522 -1.15153 -6.98674 0
M  V30 618 H 64.1602 -0.0414755 -5.64485 0
M  V30 619 N 63.5583 1.46682 -0.576371 0
M  V30 620 C 64.8053 2.02412 -0.0595339 0
M  V30 621 C 65.1333 1.44859 1.29793 0
M  V30 622 O 64.3883 0.601099 1.8624 0
M  V30 623 C 64.6873 3.57345 0.062886 0
M  V30 624 C 64.3533 4.33908 -1.22616 0
M  V30 625 C 63.0153 4.54544 -1.57933 0
M  V30 626 C 65.3673 4.77919 -2.07948 0
M  V30 627 C 62.6953 5.16444 -2.78393 0
M  V30 628 C 65.0473 5.41149 -3.27629 0
M  V30 629 C 63.7113 5.60014 -3.63236 0
M  V30 630 H 62.9813 0.74068 -0.021785 0
M  V30 631 H 65.6283 1.76128 -0.751735 0
M  V30 632 H 63.9333 3.82729 0.838178 0
M  V30 633 H 65.6303 3.98136 0.478439 0
M  V30 634 H 62.2203 4.18138 -0.941202 0
M  V30 635 H 66.4043 4.61738 -1.81967 0
M  V30 636 H 61.6603 5.29242 -3.06126 0
M  V30 637 H 65.8343 5.74211 -3.94023 0
M  V30 638 H 63.4613 6.07748 -4.56669 0
M  V30 639 N 65.0364 0.313813 1.54444 0
M  V30 640 C 65.9994 -0.54379 2.22656 0
M  V30 641 C 66.9994 -1.05124 1.21678 0
M  V30 642 O 68.1894 -0.945225 1.46325 0
M  V30 643 C 65.3214 -1.75427 2.92298 0
M  V30 644 H 66.5144 0.0523599 2.99854 0
M  V30 645 H 64.0674 0.0647834 1.56166 0
M  V30 646 H 64.8024 -2.38991 2.19211 0
M  V30 647 H 64.5874 -1.39791 3.66334 0
M  V30 648 H 66.0774 -2.36325 3.44297 0
M  V30 649 N 66.5145 -1.57545 0.0417849 0
M  V30 650 C 67.4615 -2.10977 -0.935805 0
M  V30 651 C 68.4315 -1.01486 -1.31491 0
M  V30 652 O 69.6165 -1.2898 -1.40602 0
M  V30 653 C 66.7565 -2.65169 -2.2086 0
M  V30 654 C 65.8695 -3.88714 -1.88482 0
M  V30 655 C 65.0045 -4.31254 -3.1015 0
M  V30 656 C 64.0435 -5.47524 -2.7365 0
M  V30 657 N 63.1805 -5.85162 -3.87982 0
M  V30 658 H 68.0205 -2.94218 -0.473249 0
M  V30 659 H 65.5575 -1.45415 -0.221981 0
M  V30 660 H 67.5155 -2.94685 -2.95325 0
M  V30 661 H 66.1455 -1.8474 -2.64709 0
M  V30 662 H 65.1975 -3.65849 -1.04205 0
M  V30 663 H 66.5095 -4.73245 -1.57608 0
M  V30 664 H 65.6635 -4.62273 -3.92923 0
M  V30 665 H 64.4025 -3.45516 -3.44195 0
M  V30 666 H 63.4075 -5.16187 -1.89291 0
M  V30 667 H 64.6325 -6.34971 -2.40807 0
M  V30 668 H 62.5785 -5.02377 -4.21846 0
M  V30 669 H 62.4955 -6.64362 -3.60775 0
M  V30 670 H 63.7635 -6.20791 -4.71422 0
M  V30 671 N 67.9926 0.231505 -1.5589 0
M  V30 672 C 68.9226 1.29022 -1.94617 0
M  V30 673 C 69.9036 1.4941 -0.813067 0
M  V30 674 O 71.0886 1.6176 -1.07459 0
M  V30 675 C 68.2186 2.64199 -2.25424 0
M  V30 676 C 67.1726 2.58484 -3.41131 0
M  V30 677 C 66.4986 3.97599 -3.57518 0
M  V30 678 C 67.7986 2.1413 -4.76388 0
M  V30 679 H 69.4926 0.968563 -2.83301 0
M  V30 680 H 67.0386 0.464479 -1.36303 0
M  V30 681 H 68.9916 3.38413 -2.51107 0
M  V30 682 H 67.7156 2.98032 -1.33583 0
M  V30 683 H 66.3746 1.86727 -3.15481 0
M  V30 684 H 66.0226 4.28723 -2.6307 0
M  V30 685 H 65.7226 3.94659 -4.35337 0
M  V30 686 H 67.2466 4.7349 -3.85538 0
M  V30 687 H 68.6606 2.78083 -5.01341 0
M  V30 688 H 67.0576 2.2227 -5.57419 0
M  V30 689 H 68.1276 1.09331 -4.72414 0
M  V30 690 N 69.4707 1.49531 0.497807 0
M  V30 691 C 70.4177 1.66436 1.59899 0
M  V30 692 C 71.3877 0.505793 1.58212 0
M  V30 693 O 72.5727 0.733202 1.7615 0
M  V30 694 C 69.7127 1.7399 2.98029 0
M  V30 695 C 68.8257 3.01172 3.09708 0
M  V30 696 C 67.9607 2.99686 4.38591 0
M  V30 697 C 66.9997 4.21434 4.43914 0
M  V30 698 N 66.1367 4.1784 5.64229 0
M  V30 699 H 70.9767 2.60459 1.44793 0
M  V30 700 H 68.5137 1.29137 0.704423 0
M  V30 701 H 70.4717 1.76352 3.78095 0
M  V30 702 H 69.1017 0.834301 3.11832 0
M  V30 703 H 68.1537 3.08408 2.22685 0
M  V30 704 H 69.4657 3.91165 3.09502 0
M  V30 705 H 68.6197 3.00628 5.2698 0
M  V30 706 H 67.3587 2.07477 4.41367 0
M  V30 707 H 66.3637 4.20733 3.53926 0
M  V30 708 H 67.5887 5.14839 4.42851 0
M  V30 709 H 65.5347 3.28469 5.67841 0
M  V30 710 H 65.4517 5.01571 5.65652 0
M  V30 711 H 66.7197 4.22889 6.54817 0
M  V30 712 N 70.9488 -0.749086 1.3866 0
M  V30 713 C 71.8588 -1.89358 1.38494 0
M  V30 714 C 72.8748 -1.71708 0.281476 0
M  V30 715 O 74.0508 -1.94554 0.520643 0
M  V30 716 C 71.1158 -3.24782 1.21316 0
M  V30 717 C 70.1768 -3.54926 2.41508 0
M  V30 718 C 69.4098 -4.83888 2.2514 0
M  V30 719 O 69.6328 -5.56592 1.24746 0
M  V30 720 O 68.5668 -5.13612 3.13826 0
M  V30 721 H 72.3928 -1.92452 2.34938 0
M  V30 722 H 69.9778 -0.894981 1.19626 0
M  V30 723 H 71.8598 -4.05739 1.13814 0
M  V30 724 H 70.5348 -3.2249 0.279592 0
M  V30 725 H 69.4418 -2.74112 2.54585 0
M  V30 726 H 70.7748 -3.61983 3.3351 0
M  V30 727 N 72.4269 -1.23603 -0.977757 0
M  V30 728 C 73.3739 -1.01954 -2.07061 0
M  V30 729 C 74.3439 0.0638697 -1.65977 0
M  V30 730 O 75.5289 -0.0887624 -1.90593 0
M  V30 731 C 72.6689 -0.619658 -3.39491 0
M  V30 732 C 71.7819 -1.77547 -3.93829 0
M  V30 733 C 70.9169 -1.32212 -5.14484 0
M  V30 734 C 69.9559 -2.44852 -5.60994 0
M  V30 735 N 69.0929 -2.00456 -6.72876 0
M  V30 736 H 73.9329 -1.95495 -2.24913 0
M  V30 737 H 71.4699 -0.973861 -1.10247 0
M  V30 738 H 73.4279 -0.368898 -4.15566 0
M  V30 739 H 72.0579 0.278752 -3.21594 0
M  V30 740 H 71.1099 -2.14016 -3.14486 0
M  V30 741 H 72.4219 -2.62219 -4.24314 0
M  V30 742 H 71.5759 -1.02965 -5.97899 0
M  V30 743 H 70.3149 -0.445808 -4.85658 0
M  V30 744 H 69.3199 -2.74871 -4.76157 0
M  V30 745 H 70.5449 -3.33024 -5.91837 0
M  V30 746 H 68.4909 -1.15208 -6.45804 0
M  V30 747 H 68.4079 -2.78687 -7.02759 0
M  V30 748 H 69.6759 -1.7432 -7.59758 0
M  V30 749 N 73.905 1.17692 -1.04816 0
M  V30 750 C 74.835 2.23777 -0.666791 0
M  V30 751 C 75.816 1.66796 0.33361 0
M  V30 752 O 77.001 1.93039 0.212042 0
M  V30 753 C 74.131 3.47281 -0.0367933 0
M  V30 754 C 73.085 4.17059 -0.961546 0
M  V30 755 C 72.411 5.34342 -0.195626 0
M  V30 756 C 73.711 4.69713 -2.28402 0
M  V30 757 H 75.405 2.55933 -1.55367 0
M  V30 758 H 72.951 1.23019 -0.748484 0
M  V30 759 H 74.904 4.20706 0.241775 0
M  V30 760 H 73.628 3.14381 0.885004 0
M  V30 761 H 72.287 3.45541 -1.22462 0
M  V30 762 H 71.935 4.97692 0.728816 0
M  V30 763 H 71.635 5.81966 -0.811775 0
M  V30 764 H 73.159 6.10553 0.0757473 0
M  V30 765 H 74.573 5.34794 -2.06563 0
M  V30 766 H 72.97 5.279 -2.8538 0
M  V30 767 H 74.04 3.86726 -2.92525 0
M  V30 768 N 75.3831 0.828654 1.34056 0
M  V30 769 C 76.6301 0.419458 1.98108 0
M  V30 770 C 76.9581 -1.01886 1.65679 0
M  V30 771 O 76.2131 -1.72539 0.923512 0
M  V30 772 C 76.5121 0.575226 3.52741 0
M  V30 773 C 76.1781 1.98012 4.05095 0
M  V30 774 C 74.8401 2.36442 4.19104 0
M  V30 775 C 77.1921 2.89824 4.33188 0
M  V30 776 C 74.5201 3.66009 4.58535 0
M  V30 777 C 76.8721 4.1886 4.74066 0
M  V30 778 C 75.5361 4.5726 4.86281 0
M  V30 779 H 74.8061 0.153491 0.724929 0
M  V30 780 H 77.4531 1.05371 1.59904 0
M  V30 781 H 75.7581 -0.142385 3.91541 0
M  V30 782 H 77.4551 0.239057 4.00287 0
M  V30 783 H 74.0451 1.67162 3.94658 0
M  V30 784 H 78.2291 2.61375 4.21897 0
M  V30 785 H 73.4851 3.95579 4.66184 0
M  V30 786 H 77.6591 4.90086 4.94761 0
M  V30 787 H 75.2861 5.57707 5.16592 0
M  V30 788 N 76.8612 -1.46375 0.584142 0
M  V30 789 C 77.8092 -2.32042 -0.161047 0
M  V30 790 C 78.8032 -1.44569 -0.882966 0
M  V30 791 O 80.0092 -1.61186 -0.801191 0
M  V30 792 H 76.3842 -0.748659 -0.0708033 0
M  V30 793 H 78.3552 -2.92704 0.580269 0
M  V30 794 C 77.1042 -3.27762 -1.1605 0
M  V30 795 H 76.4272 -3.95051 -0.614419 0
M  V30 796 H 77.8672 -3.90481 -1.65228 0
M  V30 797 C 76.3262 -2.53218 -2.22221 0
M  V30 798 O 76.8562 -2.29628 -3.29597 0
M  V30 799 N 75.0622 -2.13756 -1.96868 0
M  V30 800 H 74.6092 -2.33142 -1.09557 0
M  V30 801 H 74.5672 -1.642 -2.68115 0
M  V30 802 N 78.3393 -0.321999 -1.54275 0
M  V30 803 C 79.2493 0.553631 -2.27974 0
M  V30 804 C 80.2653 1.13054 -1.32268 0
M  V30 805 O 81.4413 1.15084 -1.6528 0
M  V30 806 C 78.5063 1.69927 -3.02201 0
M  V30 807 C 77.5673 1.15433 -4.1349 0
M  V30 808 C 76.8003 2.24537 -4.84168 0
M  V30 809 O 77.0233 3.44852 -4.5435 0
M  V30 810 O 75.9573 1.90044 -5.7111 0
M  V30 811 H 79.7833 -0.0448345 -3.03667 0
M  V30 812 H 77.3683 -0.0877418 -1.49142 0
M  V30 813 H 79.2503 2.3663 -3.48689 0
M  V30 814 H 77.9253 2.28395 -2.29385 0
M  V30 815 H 76.8323 0.452436 -3.71354 0
M  V30 816 H 78.1653 0.614805 -4.88345 0
M  V30 817 N 79.8174 1.5752 -0.0501392 0
M  V30 818 C 81.0664 1.91827 0.623328 0
M  V30 819 C 81.3794 0.930222 1.72065 0
M  V30 820 O 82.5854 1.1653 2.4522 0
M  V30 821 C 81.0414 3.40692 1.16003 0
M  V30 822 C 80.6494 4.479 0.0948811 0
M  V30 823 C 82.3934 3.84034 1.80881 0
M  V30 824 C 80.3004 5.87879 0.644411 0
M  V30 825 H 79.2304 0.715918 0.236596 0
M  V30 826 H 81.8814 1.83115 -0.118861 0
M  V30 827 H 80.2634 3.44405 1.9545 0
M  V30 828 H 81.4374 4.55775 -0.678675 0
M  V30 829 H 79.7524 4.13892 -0.45637 0
M  V30 830 H 82.3494 4.85984 2.22988 0
M  V30 831 H 82.6924 3.20225 2.6601 0
M  V30 832 H 83.2254 3.82833 1.0809 0
M  V30 833 H 79.9644 6.55282 -0.169229 0
M  V30 834 H 79.4844 5.83567 1.38598 0
M  V30 835 H 81.1634 6.37098 1.12763 0
M  V30 836 N 81.2955 -0.223234 1.56011 0
M  V30 837 C 82.2435 -1.29627 1.93131 0
M  V30 838 C 83.2375 -1.48608 0.813146 0
M  V30 839 O 84.4435 -1.49802 0.997966 0
M  V30 840 H 80.8185 -0.434563 0.613726 0
M  V30 841 H 82.7895 -0.955995 2.82672 0
M  V30 842 C 81.5385 -2.63983 2.26292 0
M  V30 843 H 80.8615 -2.50185 3.11846 0
M  V30 844 H 82.3015 -3.3788 2.56151 0
M  V30 845 C 80.7605 -3.18866 1.08747 0
M  V30 846 O 81.2905 -4.00192 0.347727 0
M  V30 847 N 79.4965 -2.77217 0.871743 0
M  V30 848 H 79.0435 -2.1119 1.47501 0
M  V30 849 H 79.0015 -3.1428 0.0869905 0
M  V30 850 N 82.7736 -1.49793 -0.48987 0
M  V30 851 C 83.7206 -1.67281 -1.59014 0
M  V30 852 C 84.6906 -0.514177 -1.57941 0
M  V30 853 O 85.8756 -0.742533 -1.75759 0
M  V30 854 C 83.0156 -1.75569 -2.97102 0
M  V30 855 C 82.1286 -3.0281 -3.08107 0
M  V30 856 C 81.2636 -3.02008 -4.36995 0
M  V30 857 C 80.3026 -4.23782 -4.41673 0
M  V30 858 N 79.4396 -4.20826 -5.62005 0
M  V30 859 H 84.2796 -2.61224 -1.43409 0
M  V30 860 H 81.8166 -1.29508 -0.697565 0
M  V30 861 H 83.7746 -1.78354 -3.77155 0
M  V30 862 H 82.4046 -0.850827 -3.11385 0
M  V30 863 H 81.4566 -3.09584 -2.21047 0
M  V30 864 H 82.7686 -3.92801 -3.07423 0
M  V30 865 H 81.9226 -3.03418 -5.25378 0
M  V30 866 H 80.6616 -2.09815 -4.4026 0
M  V30 867 H 79.6666 -4.22604 -3.5169 0
M  V30 868 H 80.8916 -5.17181 -4.40115 0
M  V30 869 H 78.8376 -3.31476 -5.66091 0
M  V30 870 H 78.7546 -5.04564 -5.62984 0
M  V30 871 H 80.0226 -4.26355 -6.52565 0
M  V30 872 N 84.2517 0.741722 -1.39055 0
M  V30 873 C 85.5007 1.49656 -1.35225 0
M  V30 874 C 85.8137 1.95533 0.0512708 0
M  V30 875 O 87.0197 2.7067 0.212138 0
M  V30 876 C 85.4757 2.70389 -2.37525 0
M  V30 877 C 85.0837 2.31489 -3.83558 0
M  V30 878 C 86.8277 3.48236 -2.42759 0
M  V30 879 C 84.7347 3.48903 -4.77515 0
M  V30 880 H 83.6647 0.56197 -0.502699 0
M  V30 881 H 86.3157 0.809727 -1.64668 0
M  V30 882 H 84.6977 3.41113 -2.01142 0
M  V30 883 H 85.8717 1.68354 -4.28945 0
M  V30 884 H 84.1867 1.66749 -3.81554 0
M  V30 885 H 86.7837 4.35558 -3.1015 0
M  V30 886 H 87.1267 3.90229 -1.45008 0
M  V30 887 H 87.6597 2.84535 -2.78002 0
M  V30 888 H 84.3987 3.11966 -5.76504 0
M  V30 889 H 83.9187 4.11041 -4.36813 0
M  V30 890 H 85.5977 4.15328 -4.96096 0
M  V30 891 N 85.7298 1.2412 0.971189 0
M  V30 892 C 87.1408 1.07236 1.52831 0
M  V30 893 C 87.4918 -0.357352 1.92918 0
M  V30 894 O 86.6168 -1.24528 1.76979 0
M  V30 895 C 87.2118 1.94043 2.77728 0
M  V30 896 C 85.7708 1.81394 3.29808 0
M  V30 897 C 84.9178 1.89189 2.02738 0
M  V30 898 H 87.8688 1.37648 0.789864 0
M  V30 899 H 87.8898 1.47066 3.5093 0
M  V30 900 H 87.4018 2.98093 2.4852 0
M  V30 901 H 85.5028 0.801634 3.63874 0
M  V30 902 H 85.6158 2.65294 3.98944 0
M  V30 903 H 83.9798 1.32877 2.17292 0
M  V30 904 H 84.7628 2.94812 1.759 0
M  V30 905 N 87.2079 -1.17134 1.05439 0
M  V30 906 C 88.1379 -2.2342 0.678649 0
M  V30 907 C 89.1189 -1.66971 -0.32476 0
M  V30 908 O 90.3039 -1.93149 -0.201802 0
M  V30 909 C 87.4339 -3.47256 0.0552099 0
M  V30 910 C 86.3879 -4.16543 0.98365 0
M  V30 911 C 85.7139 -5.34231 0.223961 0
M  V30 912 C 87.0139 -4.68495 2.3089 0
M  V30 913 H 88.7079 -2.55105 1.56722 0
M  V30 914 H 86.2539 -1.2262 0.754998 0
M  V30 915 H 88.2069 -4.20828 -0.21946 0
M  V30 916 H 86.9309 -3.14846 -0.868319 0
M  V30 917 H 85.5899 -3.44887 1.24293 0
M  V30 918 H 85.2379 -4.98071 -0.702412 0
M  V30 919 H 84.9379 -5.81527 0.842627 0
M  V30 920 H 86.4619 -6.10585 -0.0433671 0
M  V30 921 H 87.8759 -5.33691 2.09396 0
M  V30 922 H 86.2729 -5.26379 2.88176 0
M  V30 923 H 87.3429 -3.85169 2.94572 0
M  V30 924 N 88.686 -0.835752 -1.33615 0
M  V30 925 C 90.097 -0.487099 -1.80234 0
M  V30 926 C 90.448 0.993627 -1.69179 0
M  V30 927 O 89.573 1.77403 -1.23924 0
M  V30 928 C 90.168 -0.877385 -3.27242 0
M  V30 929 C 88.727 -0.580915 -3.7189 0
M  V30 930 C 87.874 -1.0874 -2.5509 0
M  V30 931 H 90.825 -1.02474 -1.2118 0
M  V30 932 H 90.846 -0.186195 -3.80044 0
M  V30 933 H 90.358 -1.95512 -3.35256 0
M  V30 934 H 88.459 0.486881 -3.69405 0
M  V30 935 H 88.572 -1.13396 -4.65487 0
M  V30 936 H 86.936 -0.508392 -2.49575 0
M  V30 937 H 87.719 -2.17184 -2.65868 0
M  V30 938 N 90.1641 1.46063 -0.591896 0
M  V30 939 C 91.5751 1.85944 -0.167822 0
M  V30 940 C 91.9261 1.49429 1.27143 0
M  V30 941 O 91.0511 0.913515 1.96173 0
M  V30 942 C 91.6461 3.37489 -0.297794 0
M  V30 943 C 90.2051 3.76332 0.0714732 0
M  V30 944 C 89.3521 2.7006 -0.629509 0
M  V30 945 H 92.3031 1.37087 -0.799555 0
M  V30 946 H 92.3241 3.77532 0.474349 0
M  V30 947 H 91.8361 3.64034 -1.3454 0
M  V30 948 H 89.9371 3.55405 1.11886 0
M  V30 949 H 90.0501 4.78088 -0.311245 0
M  V30 950 H 88.4141 2.54607 -0.0687867 0
M  V30 951 H 89.1971 2.99444 -1.67894 0
M  V30 952 N 91.6422 0.330177 1.54103 0
M  V30 953 C 92.8882 -0.263542 2.01685 0
M  V30 954 C 93.2432 -1.49258 1.21408 0
M  V30 955 O 92.5362 -1.89395 0.289852 0
M  V30 956 C 92.7302 -0.643134 3.51566 0
M  V30 957 C 92.5592 0.547571 4.46354 0
M  V30 958 C 91.3292 1.04873 4.94297 0
M  V30 959 C 93.5272 1.40184 4.94826 0
M  V30 960 N 91.5092 2.20316 5.73005 0
M  V30 961 C 92.8802 2.40335 5.71524 0
M  V30 962 C 94.9352 1.42884 4.76958 0
M  V30 963 C 93.6382 3.42998 6.32254 0
M  V30 964 C 95.6642 2.44421 5.38528 0
M  V30 965 C 95.0262 3.43298 6.15082 0
M  V30 966 H 91.1252 -0.0601026 0.779687 0
M  V30 967 H 93.7092 0.466714 1.89023 0
M  V30 968 H 91.8802 -1.34251 3.6446 0
M  V30 969 H 93.6122 -1.21889 3.85908 0
M  V30 970 H 90.3672 0.618956 4.69538 0
M  V30 971 H 90.7912 2.78565 6.17034 0
M  V30 972 H 95.4332 0.678049 4.17328 0
M  V30 973 H 93.1512 4.1898 6.91 0
M  V30 974 H 96.7372 2.4732 5.26616 0
M  V30 975 H 95.6172 4.20579 6.61878 0
M  V30 976 N 93.1203 -1.57491 0.0584922 0
M  V30 977 C 94.0833 -2.1085 -0.898617 0
M  V30 978 C 95.0833 -1.02964 -1.23511 0
M  V30 979 O 96.2733 -1.29007 -1.17059 0
M  V30 980 C 93.4053 -2.59881 -2.20623 0
M  V30 981 H 94.5983 -2.96715 -0.435936 0
M  V30 982 H 92.1513 -1.55141 -0.190023 0
M  V30 983 H 92.8863 -1.77431 -2.71457 0
M  V30 984 H 92.6713 -3.38727 -1.97501 0
M  V30 985 H 94.1613 -3.01285 -2.89166 0
M  V30 986 N 94.5984 0.214957 -1.56127 0
M  V30 987 C 95.5284 1.2695 -1.95974 0
M  V30 988 C 96.5094 1.48539 -0.828868 0
M  V30 989 O 97.6944 1.60611 -1.09168 0
M  V30 990 C 94.8244 2.61794 -2.28214 0
M  V30 991 C 93.7784 2.54851 -3.43853 0
M  V30 992 C 93.1044 3.93785 -3.61715 0
M  V30 993 C 94.4044 2.09065 -4.78632 0
M  V30 994 H 96.0984 0.93846 -2.84312 0
M  V30 995 H 93.6444 0.449996 -1.36788 0
M  V30 996 H 95.5974 3.35731 -2.54682 0
M  V30 997 H 94.3214 2.96599 -1.36736 0
M  V30 998 H 92.9804 1.8337 -3.17444 0
M  V30 999 H 92.6284 4.25908 -2.67602 0
M  V30 1000 H 92.3284 3.90019 -4.39498 0
M  V30 1001 H 93.8524 4.69374 -3.90539 0
M  V30 1002 H 95.2664 2.7275 -5.04262 0
M  V30 1003 H 93.6634 2.16346 -5.59745 0
M  V30 1004 H 94.7334 1.04315 -4.73547 0
M  V30 1005 N 96.0765 1.50051 0.48192 0
M  V30 1006 C 97.3255 1.59741 1.23149 0
M  V30 1007 C 97.6385 0.298163 1.93314 0
M  V30 1008 O 98.8445 0.273835 2.70116 0
M  V30 1009 C 97.3005 2.81926 2.23708 0
M  V30 1010 C 96.9085 4.18685 1.59396 0
M  V30 1011 C 98.6525 3.00956 2.99375 0
M  V30 1012 C 96.5595 5.3207 2.58178 0
M  V30 1013 H 95.4895 0.594838 0.46334 0
M  V30 1014 H 98.1405 1.76467 0.503169 0
M  V30 1015 H 96.5225 2.58736 2.99786 0
M  V30 1016 H 97.6965 4.52088 0.891811 0
M  V30 1017 H 96.0115 4.05171 0.960503 0
M  V30 1018 H 98.6085 3.82836 3.73283 0
M  V30 1019 H 98.9515 2.12258 3.58123 0
M  V30 1020 H 99.4845 3.24277 2.30411 0
M  V30 1021 H 96.2235 6.22888 2.04184 0
M  V30 1022 H 95.7435 5.03098 3.26577 0
M  V30 1023 H 97.4225 5.62196 3.20225 0
M  V30 1024 N 97.5546 -0.734337 1.39446 0
M  V30 1025 C 98.5176 -1.83004 1.37994 0
M  V30 1026 C 99.5176 -1.58397 0.276938 0
M  V30 1027 O 100.708 -1.65785 0.534875 0
M  V30 1028 C 97.8396 -3.20802 1.1532 0
M  V30 1029 H 99.0326 -1.85694 2.35494 0
M  V30 1030 H 96.5856 -0.938059 1.25021 0
M  V30 1031 H 97.3206 -3.23772 0.185036 0
M  V30 1032 H 97.1056 -3.4006 1.95197 0
M  V30 1033 H 98.5956 -4.00862 1.17046 0
M  V30 1034 N 99.0327 -1.24633 -0.964593 0
M  V30 1035 C 100.282 -1.08188 -1.7023 0
M  V30 1036 C 100.595 0.37873 -1.91898 0
M  V30 1037 O 101.801 0.663427 -2.6327 0
M  V30 1038 C 100.257 -1.88773 -3.06419 0
M  V30 1039 C 99.8647 -3.39263 -2.92582 0
M  V30 1040 C 101.609 -1.80867 -3.84041 0
M  V30 1041 C 99.5157 -4.1218 -4.24101 0
M  V30 1042 H 98.4457 -0.401245 -0.638372 0
M  V30 1043 H 101.097 -1.48742 -1.07462 0
M  V30 1044 H 99.4787 -1.41035 -3.70034 0
M  V30 1045 H 100.653 -3.94603 -2.37961 0
M  V30 1046 H 98.9677 -3.48154 -2.28424 0
M  V30 1047 H 101.565 -2.32646 -4.81435 0
M  V30 1048 H 101.908 -0.774543 -4.09031 0
M  V30 1049 H 102.441 -2.26301 -3.27159 0
M  V30 1050 H 99.1797 -5.15965 -4.04303 0
M  V30 1051 H 98.6997 -3.61626 -4.78526 0
M  V30 1052 H 100.379 -4.19349 -4.92702 0
M  V30 1053 N 100.511 1.16574 -1.06058 0
M  V30 1054 C 101.474 2.19085 -0.673392 0
M  V30 1055 C 102.474 1.5835 0.279648 0
M  V30 1056 O 103.664 1.74088 0.0623488 0
M  V30 1057 C 100.796 3.40899 0.00954234 0
M  V30 1058 H 101.989 2.54853 -1.58081 0
M  V30 1059 H 99.5418 1.30808 -0.855516 0
M  V30 1060 H 100.277 3.10684 0.929826 0
M  V30 1061 H 100.062 3.86233 -0.67573 0
M  V30 1062 H 101.552 4.1675 0.266245 0
M  V30 1063 N 101.989 0.842826 1.3317 0
M  V30 1064 C 103.235 0.441099 1.97945 0
M  V30 1065 C 103.568 -0.998024 1.66593 0
M  V30 1066 O 102.843 -1.69839 0.947898 0
M  V30 1067 C 103.126 0.666841 3.53872 0
M  V30 1068 C 102.979 2.15352 3.94897 0
M  V30 1069 C 104.298 0.115544 4.39948 0
M  V30 1070 H 101.417 0.161739 0.719034 0
M  V30 1071 H 104.059 1.05907 1.57746 0
M  V30 1072 H 102.209 0.140828 3.88245 0
M  V30 1073 H 103.881 2.7447 3.70761 0
M  V30 1074 H 102.124 2.63653 3.44484 0
M  V30 1075 H 102.795 2.26221 5.03516 0
M  V30 1076 H 105.271 0.565213 4.12243 0
M  V30 1077 H 104.147 0.303152 5.48062 0
M  V30 1078 H 104.408 -0.980935 4.3108 0
M  V30 1079 N 103.467 -1.45747 0.599634 0
M  V30 1080 C 104.713 -2.02592 0.0918643 0
M  V30 1081 C 105.046 -1.46806 -1.27128 0
M  V30 1082 O 104.321 -0.639658 -1.83681 0
M  V30 1083 C 104.604 -3.60073 0.0443398 0
M  V30 1084 C 104.457 -4.26208 1.43759 0
M  V30 1085 C 105.776 -4.35309 -0.647608 0
M  V30 1086 H 102.895 -0.736175 0.034857 0
M  V30 1087 H 105.537 -1.73694 0.770081 0
M  V30 1088 H 103.687 -3.84823 -0.533224 0
M  V30 1089 H 105.359 -4.12668 2.06162 0
M  V30 1090 H 103.602 -3.84916 2.00056 0
M  V30 1091 H 104.273 -5.35069 1.35665 0
M  V30 1092 H 106.749 -4.15805 -0.156776 0
M  V30 1093 H 105.625 -5.45038 -0.649942 0
M  V30 1094 H 105.886 -4.07598 -1.71219 0
M  V30 1095 N 104.945 -0.338344 -1.53925 0
M  V30 1096 C 105.908 0.508299 -2.23493 0
M  V30 1097 C 106.908 1.03175 -1.23335 0
M  V30 1098 O 108.098 0.921826 -1.47811 0
M  V30 1099 C 105.23 1.70754 -2.95052 0
M  V30 1100 H 106.423 -0.100058 -2.99733 0
M  V30 1101 H 103.976 -0.0896198 -1.56043 0
M  V30 1102 H 104.711 2.35474 -2.22986 0
M  V30 1103 H 104.496 1.33946 -3.68512 0
M  V30 1104 H 105.986 2.30818 -3.48013 0
M  V30 1105 N 106.423 1.57458 -0.0668435 0
M  V30 1106 C 107.671 1.92919 0.602214 0
M  V30 1107 C 107.992 0.947215 1.70449 0
M  V30 1108 O 107.262 -0.00544117 1.95899 0
M  V30 1109 H 105.842 0.71217 0.22544 0
M  V30 1110 H 108.504 1.94508 -0.123535 0
M  V30 1111 H 107.6 2.94589 1.03073 0
M  V30 1112 N 107.901 -0.206675 1.56239 0
M  V30 1113 C 108.831 -1.25909 1.96645 0
M  V30 1114 C 109.812 -1.48097 0.836734 0
M  V30 1115 O 110.997 -1.6003 1.10019 0
M  V30 1116 C 108.127 -2.6058 2.29599 0
M  V30 1117 C 107.081 -2.53024 3.452 0
M  V30 1118 C 106.407 -3.91861 3.63798 0
M  V30 1119 C 107.707 -2.06524 4.79734 0
M  V30 1120 H 109.401 -0.923369 2.84806 0
M  V30 1121 H 106.947 -0.442735 1.37025 0
M  V30 1122 H 108.9 -3.34375 2.56459 0
M  V30 1123 H 107.624 -2.95869 1.38307 0
M  V30 1124 H 106.283 -1.81684 3.18412 0
M  V30 1125 H 105.931 -4.24483 2.69857 0
M  V30 1126 H 105.631 -3.87683 4.4156 0
M  V30 1127 H 107.155 -4.67296 3.93022 0
M  V30 1128 H 108.569 -2.70072 5.05702 0
M  V30 1129 H 106.966 -2.13374 5.60885 0
M  V30 1130 H 108.036 -1.01802 4.74093 0
M  V30 1131 N 109.379 -1.50304 -0.473955 0
M  V30 1132 C 110.309 -1.71886 -1.58042 0
M  V30 1133 C 111.29 -0.567799 -1.60344 0
M  V30 1134 O 112.475 -0.806623 -1.76656 0
M  V30 1135 C 109.605 -1.81036 -2.96384 0
M  V30 1136 C 108.559 -2.962 -3.08949 0
M  V30 1137 C 107.885 -2.9049 -4.48909 0
M  V30 1138 C 109.185 -4.36752 -2.86434 0
M  V30 1139 H 110.879 -2.64527 -1.40234 0
M  V30 1140 H 108.425 -1.27295 -0.673201 0
M  V30 1141 H 110.378 -1.94719 -3.73714 0
M  V30 1142 H 109.102 -0.850147 -3.15341 0
M  V30 1143 H 107.761 -2.82164 -2.3405 0
M  V30 1144 H 107.409 -1.92321 -4.64781 0
M  V30 1145 H 107.109 -3.67802 -4.58253 0
M  V30 1146 H 108.633 -3.06218 -5.28264 0
M  V30 1147 H 110.047 -4.5133 -3.53517 0
M  V30 1148 H 108.444 -5.15493 -3.07225 0
M  V30 1149 H 109.514 -4.49321 -1.82316 0
M  V30 1150 N 110.857 0.726932 -1.39834 0
M  V30 1151 C 111.787 1.85405 -1.41941 0
M  V30 1152 C 112.768 1.67751 -0.281728 0
M  V30 1153 O 113.953 1.8795 -0.488717 0
M  V30 1154 C 111.083 3.23243 -1.2701 0
M  V30 1155 C 110.037 3.55549 -2.38262 0
M  V30 1156 C 109.363 4.9241 -2.08415 0
M  V30 1157 C 110.663 3.577 -3.80589 0
M  V30 1158 H 112.357 1.83899 -2.36266 0
M  V30 1159 H 109.903 0.883349 -1.13723 0
M  V30 1160 H 111.856 4.01775 -1.27103 0
M  V30 1161 H 110.58 3.25296 -0.291564 0
M  V30 1162 H 109.239 2.79351 -2.37399 0
M  V30 1163 H 108.887 4.91052 -1.0898 0
M  V30 1164 H 108.587 5.14992 -2.82943 0
M  V30 1165 H 110.111 5.73289 -2.10171 0
M  V30 1166 H 111.525 4.26293 -3.83337 0
M  V30 1167 H 109.922 3.91804 -4.54543 0
M  V30 1168 H 110.992 2.57328 -4.10987 0
M  V30 1169 N 112.336 1.25143 0.95797 0
M  V30 1170 C 113.266 1.07711 2.07173 0
M  V30 1171 C 114.247 -0.0128462 1.70095 0
M  V30 1172 O 115.432 0.156061 1.93572 0
M  V30 1173 C 112.562 0.691503 3.40346 0
M  V30 1174 C 111.516 1.73132 3.9142 0
M  V30 1175 C 110.842 1.20049 5.21049 0
M  V30 1176 C 112.142 3.1294 4.1817 0
M  V30 1177 H 113.836 2.00873 2.22014 0
M  V30 1178 H 111.382 0.967191 1.06684 0
M  V30 1179 H 113.335 0.556505 4.17709 0
M  V30 1180 H 112.059 -0.275819 3.25433 0
M  V30 1181 H 110.718 1.8547 3.16222 0
M  V30 1182 H 110.366 0.223499 5.02503 0
M  V30 1183 H 110.066 1.89545 5.56189 0
M  V30 1184 H 111.59 1.07782 6.01012 0
M  V30 1185 H 113.004 3.03775 4.86203 0
M  V30 1186 H 111.401 3.79875 4.64559 0
M  V30 1187 H 112.471 3.6025 3.24573 0
M  V30 1188 N 113.814 -1.1601 1.06675 0
M  V30 1189 C 115.042 -1.90527 0.806667 0
M  V30 1190 C 115.457 -1.77643 -0.639396 0
M  V30 1191 O 114.814 -1.12369 -1.43803 0
M  V30 1192 C 114.865 -3.41106 1.19705 0
M  V30 1193 O 114.586 -3.53608 2.58636 0
M  V30 1194 C 116.087 -4.32663 0.965266 0
M  V30 1195 H 113.307 -0.604053 0.292166 0
M  V30 1196 H 115.851 -1.47026 1.4214 0
M  V30 1197 H 114.006 -3.82296 0.626774 0
M  V30 1198 H 114.42 -4.47011 2.74375 0
M  V30 1199 H 115.894 -5.36763 1.288 0
M  V30 1200 H 116.371 -4.39089 -0.0987936 0
M  V30 1201 H 116.977 -3.97206 1.52011 0
M  V30 1202 N 115.292 -0.849877 -1.32721 0
M  V30 1203 C 116.532 -0.457146 -1.99222 0
M  V30 1204 C 116.896 0.968038 -1.6581 0
M  V30 1205 O 118.097 1.46507 -2.25364 0
M  V30 1206 C 116.368 -0.683966 -3.50794 0
M  V30 1207 S 117.927 -0.388095 -4.3708 0
M  V30 1208 H 114.745 -0.171464 -0.690015 0
M  V30 1209 H 117.347 -1.10155 -1.61512 0
M  V30 1210 H 116.051 -1.72038 -3.726 0
M  V30 1211 H 115.582 -0.0258086 -3.93392 0
M  V30 1212 H 117.597 0.787791 -4.89906 0
M  V30 1213 N 116.77 1.45427 -0.607355 0
M  V30 1214 C 118.01 2.04128 -0.105458 0
M  V30 1215 C 118.374 1.46555 1.24039 0
M  V30 1216 O 119.575 1.96608 1.833 0
M  V30 1217 C 117.846 3.57338 -0.0665324 0
M  V30 1218 S 119.405 4.37201 0.374207 0
M  V30 1219 H 116.223 0.709278 -0.0494575 0
M  V30 1220 H 118.825 1.78139 -0.805404 0
M  V30 1221 H 117.529 3.96752 -1.04957 0
M  V30 1222 H 117.06 3.87902 0.655415 0
M  V30 1223 H 119.075 4.6888 1.62377 0
M  V30 1224 N 118.248 0.346503 1.53744 0
M  V30 1225 C 119.495 -0.249104 2.00962 0
M  V30 1226 C 119.823 -1.5032 1.23426 0
M  V30 1227 O 119.078 -1.93217 0.310761 0
M  V30 1228 C 119.377 -0.605809 3.52228 0
M  V30 1229 C 119.043 0.551747 4.47512 0
M  V30 1230 C 117.705 0.86941 4.73281 0
M  V30 1231 C 120.057 1.32818 5.03993 0
M  V30 1232 C 117.385 1.96582 5.52786 0
M  V30 1233 C 119.737 2.41486 5.84694 0
M  V30 1234 C 118.401 2.73808 6.08757 0
M  V30 1235 H 117.671 -0.0911538 0.735372 0
M  V30 1236 H 120.318 0.475027 1.85515 0
M  V30 1237 H 118.623 -1.4107 3.65522 0
M  V30 1238 H 120.32 -1.07858 3.86222 0
M  V30 1239 H 116.91 0.294102 4.2759 0
M  V30 1240 H 121.094 1.09602 4.84047 0
M  V30 1241 H 116.35 2.22045 5.69654 0
M  V30 1242 H 120.524 3.02078 6.27473 0
M  V30 1243 H 118.151 3.58892 6.7015 0
M  V30 1244 N 119.726 -1.57421 0.075193 0
M  V30 1245 C 120.966 -1.95495 -0.596757 0
M  V30 1246 C 121.33 -0.954886 -1.66571 0
M  V30 1247 O 122.531 -1.22341 -2.39345 0
M  V30 1248 C 120.802 -3.382 -1.15566 0
M  V30 1249 S 122.361 -3.98254 -1.84226 0
M  V30 1250 H 119.179 -0.683649 -0.195307 0
M  V30 1251 H 121.781 -1.94925 0.149859 0
M  V30 1252 H 120.485 -4.08766 -0.36588 0
M  V30 1253 H 120.016 -3.42321 -1.93856 0
M  V30 1254 H 122.031 -3.85435 -3.12497 0
M  V30 1255 N 121.204 0.198386 -1.56346 0
M  V30 1256 C 122.453 0.917451 -1.79627 0
M  V30 1257 C 122.766 1.8456 -0.64784 0
M  V30 1258 O 123.972 2.60504 -0.764859 0
M  V30 1259 C 122.428 1.68175 -3.18191 0
M  V30 1260 C 122.036 0.798589 -4.40825 0
M  V30 1261 C 123.78 2.39065 -3.50782 0
M  V30 1262 C 121.687 1.56157 -5.70411 0
M  V30 1263 H 120.617 0.346317 -0.669762 0
M  V30 1264 H 123.268 0.170801 -1.82703 0
M  V30 1265 H 121.65 2.47216 -3.09354 0
M  V30 1266 H 122.824 0.0470665 -4.60776 0
M  V30 1267 H 121.139 0.200686 -4.15916 0
M  V30 1268 H 123.736 2.96692 -4.44835 0
M  V30 1269 H 124.079 3.13091 -2.74371 0
M  V30 1270 H 124.612 1.66993 -3.61052 0
M  V30 1271 H 121.351 0.864142 -6.49779 0
M  V30 1272 H 120.871 2.2871 -5.54483 0
M  V30 1273 H 122.55 2.11622 -6.11412 0
M  V30 1274 N 122.682 1.50554 0.465978 0
M  V30 1275 C 123.922 1.63439 1.22747 0
M  V30 1276 C 124.286 0.329822 1.89146 0
M  V30 1277 O 125.487 0.334161 2.66715 0
M  V30 1278 C 123.758 2.78542 2.2394 0
M  V30 1279 S 125.317 3.11591 3.0896 0
M  V30 1280 H 122.135 0.576113 0.416672 0
M  V30 1281 H 124.737 1.88357 0.523641 0
M  V30 1282 H 123.441 3.71805 1.7375 0
M  V30 1283 H 122.972 2.55726 2.98944 0
M  V30 1284 H 124.987 2.55811 4.25176 0
M  V30 1285 N 124.16 -0.719506 1.40217 0
M  V30 1286 C 125.107 -1.83359 1.40172 0
M  V30 1287 C 126.077 -1.64065 0.259206 0
M  V30 1288 O 127.262 -1.85254 0.456677 0
M  V30 1289 C 124.402 -3.2103 1.26624 0
M  V30 1290 C 123.515 -3.51923 2.50548 0
M  V30 1291 C 122.65 -4.79079 2.29471 0
M  V30 1292 C 121.689 -5.02863 3.48992 0
M  V30 1293 N 120.826 -6.2123 3.27135 0
M  V30 1294 H 125.666 -1.82733 2.35399 0
M  V30 1295 H 123.203 -0.892688 1.16917 0
M  V30 1296 H 125.161 -4.00524 1.16776 0
M  V30 1297 H 123.791 -3.20895 0.350176 0
M  V30 1298 H 122.843 -2.67014 2.70939 0
M  V30 1299 H 124.155 -3.6541 3.39525 0
M  V30 1300 H 123.309 -5.66582 2.16955 0
M  V30 1301 H 122.048 -4.67794 1.37913 0
M  V30 1302 H 121.053 -4.13816 3.6199 0
M  V30 1303 H 122.278 -5.16023 4.41472 0
M  V30 1304 H 120.224 -6.11204 2.38256 0
M  V30 1305 H 120.141 -6.35375 4.09675 0
M  V30 1306 H 121.409 -7.11532 3.18344 0
M  V30 1307 N 125.638 -1.25649 -0.95132 0
M  V30 1308 C 126.585 -1.06323 -2.04851 0
M  V30 1309 C 127.555 0.0286491 -1.66075 0
M  V30 1310 O 128.74 -0.12917 -1.90362 0
M  V30 1311 C 125.88 -0.691529 -3.381 0
M  V30 1312 C 124.993 -1.85861 -3.89974 0
M  V30 1313 C 124.128 -1.43096 -5.11563 0
M  V30 1314 C 123.167 -2.56696 -5.55674 0
M  V30 1315 N 122.304 -2.14684 -6.68472 0
M  V30 1316 H 127.144 -2.00222 -2.20715 0
M  V30 1317 H 124.681 -0.997027 -1.08156 0
M  V30 1318 H 126.639 -0.456963 -4.1469 0
M  V30 1319 H 125.269 0.210474 -3.22113 0
M  V30 1320 H 124.321 -2.20639 -3.09875 0
M  V30 1321 H 125.633 -2.71161 -4.18657 0
M  V30 1322 H 124.787 -1.15624 -5.9558 0
M  V30 1323 H 123.526 -0.548722 -4.84603 0
M  V30 1324 H 122.531 -2.84909 -4.7022 0
M  V30 1325 H 123.756 -3.45503 -5.8464 0
M  V30 1326 H 121.702 -1.28881 -6.43215 0
M  V30 1327 H 121.619 -2.9353 -6.96689 0
M  V30 1328 H 122.887 -1.90397 -7.5589 0
M  V30 1329 N 127.117 1.15442 -1.07289 0
M  V30 1330 C 128.357 1.8788 -0.805012 0
M  V30 1331 C 128.721 1.80413 0.656907 0
M  V30 1332 O 129.922 2.47874 1.0398 0
M  V30 1333 C 128.193 3.3298 -1.29843 0
M  V30 1334 S 129.752 4.23158 -1.16114 0
M  V30 1335 H 126.57 0.64839 -0.291739 0
M  V30 1336 H 129.172 1.39285 -1.37186 0
M  V30 1337 H 127.876 3.35958 -2.35712 0
M  V30 1338 H 127.407 3.86629 -0.726767 0
M  V30 1339 H 129.422 4.96103 -0.0982778 0
M  V30 1340 N 128.595 0.856903 1.32268 0
M  V30 1341 C 129.835 0.467705 1.98977 0
M  V30 1342 C 130.199 -0.959231 1.66321 0
M  V30 1343 O 131.4 -1.4531 2.26138 0
M  V30 1344 C 129.671 0.70256 3.50427 0
M  V30 1345 S 131.23 0.411269 4.36868 0
M  V30 1346 H 128.048 0.175121 0.689096 0
M  V30 1347 H 130.65 1.1101 1.60925 0
M  V30 1348 H 129.354 1.74012 3.71683 0
M  V30 1349 H 128.885 0.0466707 3.93372 0
M  V30 1350 H 130.9 -0.761799 4.90317 0
M  V30 1351 N 130.073 -1.45103 0.615059 0
M  V30 1352 C 131.313 -2.04069 0.116282 0
M  V30 1353 C 131.677 -1.4721 -1.2326 0
M  V30 1354 O 132.878 -1.97577 -1.82255 0
M  V30 1355 C 131.149 -3.57298 0.085482 0
M  V30 1356 S 132.708 -4.37394 -0.351015 0
M  V30 1357 H 129.526 -0.709006 0.0532183 0
M  V30 1358 H 132.128 -1.77709 0.81484 0
M  V30 1359 H 130.832 -3.9619 1.0706 0
M  V30 1360 H 130.363 -3.88244 -0.634835 0
M  V30 1361 H 132.378 -4.69734 -1.59889 0
M  V30 1362 N 131.551 -0.354651 -1.53558 0
M  V30 1363 C 132.498 0.496968 -2.25386 0
M  V30 1364 C 133.468 1.0865 -1.25636 0
M  V30 1365 O 134.653 1.12104 -1.54394 0
M  V30 1366 C 131.793 1.63637 -3.03837 0
M  V30 1367 C 130.906 1.07307 -4.18461 0
M  V30 1368 C 130.041 2.18068 -4.84376 0
M  V30 1369 C 129.08 1.59147 -5.91049 0
M  V30 1370 N 128.217 2.63695 -6.50699 0
M  V30 1371 H 133.057 -0.122075 -2.9775 0
M  V30 1372 H 130.594 -0.0720154 -1.46924 0
M  V30 1373 H 132.552 2.30734 -3.47589 0
M  V30 1374 H 131.182 2.22623 -2.33749 0
M  V30 1375 H 130.234 0.292708 -3.79272 0
M  V30 1376 H 131.546 0.602193 -4.95152 0
M  V30 1377 H 130.7 2.93007 -5.31255 0
M  V30 1378 H 129.439 2.68504 -4.07133 0
M  V30 1379 H 128.444 0.827175 -5.43542 0
M  V30 1380 H 129.669 1.09549 -6.70206 0
M  V30 1381 H 127.615 3.13365 -5.76315 0
M  V30 1382 H 127.532 2.21263 -7.22896 0
M  V30 1383 H 128.8 3.3837 -7.02229 0
M  V30 1384 N 133.029 1.57378 -0.0835403 0
M  V30 1385 C 133.976 2.13384 0.879539 0
M  V30 1386 C 134.946 1.04936 1.28754 0
M  V30 1387 O 136.131 1.32662 1.37133 0
M  V30 1388 C 133.271 2.70932 2.13752 0
M  V30 1389 C 132.384 3.93575 1.7811 0
M  V30 1390 C 131.519 4.39326 2.98607 0
M  V30 1391 C 130.558 5.54587 2.59037 0
M  V30 1392 N 129.695 5.95243 3.72331 0
M  V30 1393 H 134.535 2.9537 0.395076 0
M  V30 1394 H 132.072 1.45953 0.183349 0
M  V30 1395 H 134.03 3.02411 2.87408 0
M  V30 1396 H 132.66 1.91693 2.59718 0
M  V30 1397 H 131.712 3.68483 0.94469 0
M  V30 1398 H 133.024 4.77258 1.45005 0
M  V30 1399 H 132.178 4.72528 3.80529 0
M  V30 1400 H 130.917 3.5452 3.34913 0
M  V30 1401 H 129.922 5.21024 1.75539 0
M  V30 1402 H 131.147 6.41133 2.23887 0
M  V30 1403 H 129.093 5.13385 4.08378 0
M  V30 1404 H 129.01 6.73694 3.43034 0
M  V30 1405 H 130.278 6.33072 4.54797 0
M  V30 1406 N 134.507 -0.190092 1.56449 0
M  V30 1407 C 135.454 -1.23557 1.94942 0
M  V30 1408 C 136.424 -1.44972 0.810696 0
M  V30 1409 O 137.609 -1.58023 1.06927 0
M  V30 1410 C 134.749 -2.57416 2.2985 0
M  V30 1411 C 133.862 -2.43537 3.5681 0
M  V30 1412 C 132.997 -3.70134 3.81017 0
M  V30 1413 C 132.036 -3.51109 5.01387 0
M  V30 1414 N 131.173 -4.6973 5.21822 0
M  V30 1415 H 136.013 -0.900304 2.84075 0
M  V30 1416 H 133.55 -0.43318 1.40577 0
M  V30 1417 H 135.508 -3.35409 2.48106 0
M  V30 1418 H 134.138 -2.88975 1.43852 0
M  V30 1419 H 133.19 -1.56816 3.46573 0
M  V30 1420 H 134.502 -2.25415 4.4496 0
M  V30 1421 H 133.656 -4.56566 3.9954 0
M  V30 1422 H 132.395 -3.91215 2.91207 0
M  V30 1423 H 131.4 -2.63063 4.82782 0
M  V30 1424 H 132.625 -3.31468 5.9271 0
M  V30 1425 H 130.571 -4.91065 4.34961 0
M  V30 1426 H 130.488 -4.54452 6.0416 0
M  V30 1427 H 131.756 -5.57499 5.44808 0
M  V30 1428 N 135.985 -1.50799 -0.457987 0
M  V30 1429 C 136.932 -1.70617 -1.5543 0
M  V30 1430 C 137.902 -0.547562 -1.56815 0
M  V30 1431 O 139.087 -0.779647 -1.74144 0
M  V30 1432 C 136.227 -1.81831 -2.93311 0
M  V30 1433 C 135.34 -3.09278 -3.01615 0
M  V30 1434 C 134.475 -3.11209 -4.30491 0
M  V30 1435 C 133.514 -4.33055 -4.32585 0
M  V30 1436 N 132.651 -4.32652 -5.52952 0
M  V30 1437 H 137.491 -2.64207 -1.37836 0
M  V30 1438 H 135.028 -1.30959 -0.669937 0
M  V30 1439 H 136.986 -1.86314 -3.73287 0
M  V30 1440 H 135.616 -0.916685 -3.0951 0
M  V30 1441 H 134.668 -3.14203 -2.1443 0
M  V30 1442 H 135.98 -3.99233 -2.99022 0
M  V30 1443 H 135.134 -3.14494 -5.18824 0
M  V30 1444 H 133.873 -2.19106 -4.35711 0
M  V30 1445 H 132.878 -4.29969 -3.42647 0
M  V30 1446 H 134.103 -5.264 -4.29046 0
M  V30 1447 H 132.049 -3.43409 -5.58933 0
M  V30 1448 H 131.966 -5.16392 -5.52155 0
M  V30 1449 H 133.234 -4.40101 -6.43375 0
M  V30 1450 N 137.463 0.71206 -1.40597 0
M  V30 1451 C 138.411 1.84746 -1.41321 0
M  V30 1452 C 139.405 1.66842 -0.293268 0
M  V30 1453 O 140.611 1.73904 -0.464481 0
M  V30 1454 H 136.986 0.608522 -0.441819 0
M  V30 1455 H 138.957 1.81252 -2.37045 0
M  V30 1456 C 137.706 3.22638 -1.29614 0
M  V30 1457 H 137.029 3.37023 -2.15071 0
M  V30 1458 H 138.469 4.02209 -1.3418 0
M  V30 1459 C 136.928 3.36899 -0.00673121 0
M  V30 1460 O 137.458 3.90186 0.954859 0
M  V30 1461 N 135.664 2.9053 0.0639327 0
M  V30 1462 H 135.211 2.47353 -0.719311 0
M  V30 1463 H 135.169 3.0045 0.926118 0
M  V30 1464 N 138.941 1.26152 0.944643 0
M  V30 1465 C 139.888 1.07408 2.04285 0
M  V30 1466 C 140.858 -0.0198413 1.66088 0
M  V30 1467 O 142.043 0.139264 1.90291 0
M  V30 1468 C 139.183 0.70945 3.37729 0
M  V30 1469 C 138.296 1.87926 3.88983 0
M  V30 1470 C 137.431 1.45807 5.10797 0
M  V30 1471 C 136.47 2.5964 5.54305 0
M  V30 1472 N 135.607 2.18226 6.67324 0
M  V30 1473 H 140.447 2.01389 2.1965 0
M  V30 1474 H 137.984 1.00275 1.07626 0
M  V30 1475 H 139.942 0.478948 4.14442 0
M  V30 1476 H 138.572 -0.193389 3.2222 0
M  V30 1477 H 137.624 2.22279 3.08701 0
M  V30 1478 H 138.936 2.73377 4.17213 0
M  V30 1479 H 138.09 1.18781 5.94959 0
M  V30 1480 H 136.829 0.574414 4.84305 0
M  V30 1481 H 135.834 2.87399 4.68702 0
M  V30 1482 H 137.059 3.48599 5.828 0
M  V30 1483 H 135.005 1.3229 6.42523 0
M  V30 1484 H 134.922 2.97221 6.95123 0
M  V30 1485 H 136.19 1.94403 7.54869 0
M  V30 1486 N 140.419 -1.14872 1.07899 0
M  V30 1487 C 141.366 -2.19791 0.704319 0
M  V30 1488 C 142.336 -1.63238 -0.306987 0
M  V30 1489 O 143.521 -1.8983 -0.192171 0
M  V30 1490 C 140.661 -3.44911 0.114244 0
M  V30 1491 C 139.774 -4.15637 1.1777 0
M  V30 1492 C 138.909 -5.28324 0.552037 0
M  V30 1493 C 137.948 -5.90875 1.59789 0
M  V30 1494 N 137.085 -6.95022 0.994404 0
M  V30 1495 H 141.925 -2.5119 1.60336 0
M  V30 1496 H 139.462 -1.23356 0.801352 0
M  V30 1497 H 141.42 -4.16477 -0.245544 0
M  V30 1498 H 140.05 -3.14011 -0.74813 0
M  V30 1499 H 139.102 -3.42512 1.65499 0
M  V30 1500 H 140.414 -4.5823 1.97046 0
M  V30 1501 H 139.568 -6.06538 0.1402 0
M  V30 1502 H 138.307 -4.86939 -0.272431 0
M  V30 1503 H 137.312 -5.11369 2.01945 0
M  V30 1504 H 138.537 -6.34337 2.42474 0
M  V30 1505 H 136.483 -6.55722 0.190939 0
M  V30 1506 H 136.4 -7.36073 1.72432 0
M  V30 1507 H 137.668 -7.77123 0.608253 0
M  V30 1508 N 141.898 -0.863906 -1.31812 0
M  V30 1509 C 142.808 -0.318461 -2.32428 0
M  V30 1510 C 143.824 0.568496 -1.64451 0
M  V30 1511 O 145 0.46666 -1.95919 0
M  V30 1512 C 142.065 0.476355 -3.43412 0
M  V30 1513 C 141.126 -0.43784 -4.27061 0
M  V30 1514 C 140.359 0.319138 -5.32745 0
M  V30 1515 O 140.582 1.54799 -5.48993 0
M  V30 1516 O 139.516 -0.319861 -6.01049 0
M  V30 1517 H 143.342 -1.15229 -2.80991 0
M  V30 1518 H 140.927 -0.627103 -1.35602 0
M  V30 1519 H 142.809 0.927156 -4.11074 0
M  V30 1520 H 141.484 1.28683 -2.97022 0
M  V30 1521 H 140.391 -0.937013 -3.62175 0
M  V30 1522 H 141.724 -1.21375 -4.77 0
M  V30 1523 N 143.376 1.44774 -0.622745 0
M  V30 1524 C 144.323 2.30635 0.0871679 0
M  V30 1525 C 145.293 1.42994 0.845097 0
M  V30 1526 O 146.478 1.71907 0.827812 0
M  V30 1527 C 143.618 3.28144 1.06844 0
M  V30 1528 C 142.731 4.30888 0.309809 0
M  V30 1529 C 141.866 5.15494 1.28215 0
M  V30 1530 C 140.905 6.09953 0.512198 0
M  V30 1531 N 140.042 6.87287 1.43458 0
M  V30 1532 H 144.882 2.90803 -0.650974 0
M  V30 1533 H 142.419 1.43286 -0.33281 0
M  V30 1534 H 144.377 3.83157 1.65066 0
M  V30 1535 H 143.007 2.69695 1.77382 0
M  V30 1536 H 142.059 3.78414 -0.388181 0
M  V30 1537 H 143.371 4.97955 -0.290254 0
M  V30 1538 H 142.525 5.74983 1.93596 0
M  V30 1539 H 141.264 4.48481 1.91614 0
M  V30 1540 H 140.269 5.49581 -0.155151 0
M  V30 1541 H 141.494 6.78999 -0.116958 0
M  V30 1542 H 139.44 6.2295 2.05594 0
M  V30 1543 H 139.357 7.50763 0.888335 0
M  V30 1544 H 140.625 7.51306 2.07749 0
M  V30 1545 N 144.854 0.36279 1.53368 0
M  V30 1546 C 146.102 -0.227326 2.00817 0
M  V30 1547 C 146.423 -1.49511 1.25186 0
M  V30 1548 O 145.693 -1.92482 0.364348 0
M  V30 1549 H 144.273 -0.0869923 0.741917 0
M  V30 1550 H 146.935 0.488381 1.88682 0
M  V30 1551 H 146.031 -0.456273 3.08747 0
M  V30 1552 N 146.332 -1.57332 0.0918853 0
M  V30 1553 C 147.279 -2.13847 -0.868211 0
M  V30 1554 C 148.249 -1.05618 -1.28196 0
M  V30 1555 O 149.434 -1.33387 -1.36427 0
M  V30 1556 C 146.574 -2.72062 -2.12312 0
M  V30 1557 C 145.687 -3.94514 -1.7602 0
M  V30 1558 C 144.822 -4.40903 -2.96273 0
M  V30 1559 C 143.861 -5.55953 -2.56092 0
M  V30 1560 N 142.998 -5.97209 -3.69169 0
M  V30 1561 H 147.838 -2.95575 -0.379406 0
M  V30 1562 H 145.375 -1.46048 -0.175606 0
M  V30 1563 H 147.333 -3.03931 -2.858 0
M  V30 1564 H 145.963 -1.93068 -2.58698 0
M  V30 1565 H 145.015 -3.68979 -0.925135 0
M  V30 1566 H 146.327 -4.7802 -1.42472 0
M  V30 1567 H 145.481 -4.74539 -3.78018 0
M  V30 1568 H 144.22 -3.56291 -3.33029 0
M  V30 1569 H 143.225 -5.21948 -1.72773 0
M  V30 1570 H 144.45 -6.42311 -2.20484 0
M  V30 1571 H 142.396 -5.15543 -4.05649 0
M  V30 1572 H 142.313 -6.75504 -3.39456 0
M  V30 1573 H 143.581 -6.35475 -4.51434 0
M  V30 1574 N 147.81 0.181792 -1.56548 0
M  V30 1575 C 149.058 0.89832 -1.81038 0
M  V30 1576 C 149.379 1.83232 -0.667164 0
M  V30 1577 O 148.649 1.93372 0.313673 0
M  V30 1578 H 147.229 0.33471 -0.667816 0
M  V30 1579 H 149.891 0.184116 -1.94028 0
M  V30 1580 H 148.987 1.4815 -2.74696 0
M  V30 1581 N 149.288 1.51039 0.449983 0
M  V30 1582 C 150.221 1.66105 1.56474 0
M  V30 1583 C 151.199 0.508776 1.54435 0
M  V30 1584 O 152.383 0.731005 1.73749 0
M  V30 1585 C 149.51 1.66304 2.9506 0
M  V30 1586 C 148.556 2.87346 3.15174 0
M  V30 1587 S 149.389 4.4835 2.92818 0
M  V30 1588 C 150.545 4.51274 4.33708 0
M  V30 1589 H 150.778 2.60397 1.43459 0
M  V30 1590 H 148.311 1.40565 0.638805 0
M  V30 1591 H 150.269 1.67103 3.74949 0
M  V30 1592 H 148.93 0.732108 3.05449 0
M  V30 1593 H 148.123 2.83849 4.16468 0
M  V30 1594 H 147.725 2.84223 2.43091 0
M  V30 1595 H 150.017 4.26136 5.26701 0
M  V30 1596 H 150.96 5.53017 4.42242 0
M  V30 1597 H 151.368 3.80738 4.16772 0
M  V30 1598 N 150.766 -0.704594 1.40972 0
M  V30 1599 C 151.713 -1.81862 1.42109 0
M  V30 1600 C 152.683 -1.63781 0.276593 0
M  V30 1601 O 153.868 -1.84759 0.4763 0
M  V30 1602 C 151.008 -3.19669 1.30022 0
M  V30 1603 C 150.121 -3.49246 2.54267 0
M  V30 1604 C 149.256 -4.76618 2.3454 0
M  V30 1605 C 148.295 -4.99133 3.54306 0
M  V30 1606 N 147.432 -6.17726 3.33706 0
M  V30 1607 H 152.272 -1.80226 2.37324 0
M  V30 1608 H 149.809 -0.880238 1.17857 0
M  V30 1609 H 151.767 -3.99263 1.21018 0
M  V30 1610 H 150.397 -3.20506 0.384192 0
M  V30 1611 H 149.449 -2.64125 2.73756 0
M  V30 1612 H 150.761 -3.61788 3.43381 0
M  V30 1613 H 149.915 -5.64249 2.22952 0
M  V30 1614 H 148.654 -4.66305 1.42867 0
M  V30 1615 H 147.659 -4.09953 3.66359 0
M  V30 1616 H 148.884 -5.11311 4.4692 0
M  V30 1617 H 146.83 -6.08642 2.44725 0
M  V30 1618 H 146.747 -6.30995 4.16391 0
M  V30 1619 H 148.015 -7.08115 3.25873 0
M  V30 1620 N 152.244 -1.26651 -0.937939 0
M  V30 1621 C 153.192 -1.08308 -2.05845 0
M  V30 1622 C 154.186 -0.0090757 -1.69398 0
M  V30 1623 O 155.392 -0.166007 -1.79233 0
M  V30 1624 H 151.767 -0.333416 -0.674046 0
M  V30 1625 H 153.738 -2.03261 -2.18467 0
M  V30 1626 C 152.487 -0.736229 -3.39816 0
M  V30 1627 H 151.81 -1.55453 -3.6834 0
M  V30 1628 H 153.25 -0.64769 -4.19024 0
M  V30 1629 C 151.709 0.558824 -3.32233 0
M  V30 1630 O 152.239 1.59621 -3.68624 0
M  V30 1631 N 150.445 0.550657 -2.85335 0
M  V30 1632 H 149.992 -0.293943 -2.55917 0
M  V30 1633 H 149.95 1.41726 -2.80644 0
M  V30 1634 N 153.722 1.14298 -1.08507 0
M  V30 1635 C 154.685 2.17607 -0.719711 0
M  V30 1636 C 155.685 1.58907 0.245997 0
M  V30 1637 O 156.875 1.74181 0.0254081 0
M  V30 1638 C 154.007 3.40842 -0.0627695 0
M  V30 1639 H 155.2 2.51443 -1.63452 0
M  V30 1640 H 152.753 1.28963 -0.88307 0
M  V30 1641 H 153.488 3.12587 0.863716 0
M  V30 1642 H 153.273 3.84713 -0.757504 0
M  V30 1643 H 154.763 4.17221 0.177786 0
M  V30 1644 N 155.201 0.870884 1.31352 0
M  V30 1645 C 156.134 0.271983 2.26573 0
M  V30 1646 C 157.112 -0.599385 1.51149 0
M  V30 1647 O 158.296 -0.552605 1.80218 0
M  V30 1648 C 155.423 -0.614801 3.33073 0
M  V30 1649 C 154.469 0.185342 4.26097 0
M  V30 1650 S 155.302 1.56444 5.12138 0
M  V30 1651 C 156.458 0.683807 6.22153 0
M  V30 1652 H 156.691 1.07916 2.77023 0
M  V30 1653 H 154.224 0.669459 1.39132 0
M  V30 1654 H 156.182 -1.12074 3.94905 0
M  V30 1655 H 154.843 -1.39593 2.81376 0
M  V30 1656 H 154.036 -0.490771 5.01605 0
M  V30 1657 H 153.638 0.623415 3.68768 0
M  V30 1658 H 155.93 -0.10521 6.77418 0
M  V30 1659 H 156.873 1.41004 6.93919 0
M  V30 1660 H 157.281 0.250952 5.63942 0
M  V30 1661 N 156.679 -1.44442 0.630414 0
M  V30 1662 C 157.627 -2.32437 -0.0871428 0
M  V30 1663 C 158.621 -1.47304 -0.836525 0
M  V30 1664 O 159.827 -1.63653 -0.749506 0
M  V30 1665 H 156.202 -0.750533 -0.0469495 0
M  V30 1666 H 158.173 -2.90709 0.673096 0
M  V30 1667 C 156.922 -3.31288 -1.05563 0
M  V30 1668 H 156.245 -3.96805 -0.488426 0
M  V30 1669 H 157.685 -3.9554 -1.52721 0
M  V30 1670 C 156.144 -2.6016 -2.14052 0
M  V30 1671 O 156.674 -2.39997 -3.22124 0
M  V30 1672 N 154.88 -2.19911 -1.89967 0
M  V30 1673 H 154.427 -2.36509 -1.02085 0
M  V30 1674 H 154.385 -1.72646 -2.62756 0
M  V30 1675 N 158.157 -0.370918 -1.53173 0
M  V30 1676 C 159.09 0.516727 -2.22273 0
M  V30 1677 C 160.068 1.07877 -1.21661 0
M  V30 1678 O 161.252 1.13389 -1.50583 0
M  V30 1679 C 158.379 1.71346 -2.92161 0
M  V30 1680 C 157.425 1.27838 -4.0689 0
M  V30 1681 S 158.258 0.275217 -5.34792 0
M  V30 1682 C 159.414 1.47816 -6.08195 0
M  V30 1683 H 159.647 -0.0701054 -2.97217 0
M  V30 1684 H 157.18 -0.155038 -1.5362 0
M  V30 1685 H 159.138 2.39988 -3.3304 0
M  V30 1686 H 157.799 2.27156 -2.16931 0
M  V30 1687 H 156.992 2.17141 -4.54825 0
M  V30 1688 H 156.594 0.671105 -3.6793 0
M  V30 1689 H 158.886 2.40831 -6.33251 0
M  V30 1690 H 159.829 1.04008 -7.0042 0
M  V30 1691 H 160.237 1.68663 -5.38714 0
M  V30 1692 N 159.635 1.57281 -0.100228 0
M  V30 1693 C 160.582 2.14305 0.856858 0
M  V30 1694 C 161.552 1.06296 1.27634 0
M  V30 1695 O 162.737 1.34109 1.35718 0
M  V30 1696 C 159.877 2.73184 2.10866 0
M  V30 1697 C 158.99 3.95442 1.73925 0
M  V30 1698 C 158.125 4.42468 2.93931 0
M  V30 1699 C 157.164 5.57303 2.5314 0
M  V30 1700 N 156.301 5.99158 3.65997 0
M  V30 1701 H 161.141 2.95772 0.363726 0
M  V30 1702 H 158.678 1.46139 0.167858 0
M  V30 1703 H 160.636 3.05442 2.84185 0
M  V30 1704 H 159.266 1.94437 2.57671 0
M  V30 1705 H 158.318 3.69464 0.905554 0
M  V30 1706 H 159.63 4.78769 1.39935 0
M  V30 1707 H 158.784 4.76537 3.75496 0
M  V30 1708 H 157.523 3.58052 3.31134 0
M  V30 1709 H 156.528 5.22857 1.70003 0
M  V30 1710 H 157.753 6.43471 2.17075 0
M  V30 1711 H 155.699 5.17687 4.02909 0
M  V30 1712 H 155.616 6.77295 3.35869 0
M  V30 1713 H 156.884 6.3786 4.48057 0
M  V30 1714 N 161.113 -0.173488 1.56642 0
M  V30 1715 C 162.39 -0.917617 1.7274 0
M  V30 1716 C 162.77 -2.00484 0.661027 0
M  V30 1717 O 162.118 -2.26184 -0.32453 0
M  V30 1718 C 162.328 -1.48433 3.15862 0
M  V30 1719 C 163.676 -1.95809 3.76754 0
M  V30 1720 O 164.7 -1.58231 3.19126 0
M  V30 1721 O 163.559 -2.65024 4.77938 0
M  V30 1722 H 160.653 -0.431772 0.705338 0
M  V30 1723 H 163.199 -0.161487 1.6893 0
M  V30 1724 H 161.971 -0.701715 3.84957 0
M  V30 1725 H 161.594 -2.30471 3.23989 0
M  V30 1726 N 162.591 -1.51276 -0.441967 0
M  V30 1727 C 163.524 -1.66933 -1.55591 0
M  V30 1728 C 164.502 -0.516958 -1.54163 0
M  V30 1729 O 165.686 -0.740209 -1.73358 0
M  V30 1730 C 162.813 -1.67866 -2.94174 0
M  V30 1731 C 161.859 -2.89013 -3.13646 0
M  V30 1732 S 162.692 -4.49897 -2.90436 0
M  V30 1733 C 163.848 -4.53568 -4.31308 0
M  V30 1734 H 164.081 -2.61155 -1.42076 0
M  V30 1735 H 161.614 -1.40902 -0.631341 0
M  V30 1736 H 163.572 -1.69089 -3.74058 0
M  V30 1737 H 162.233 -0.748296 -3.05056 0
M  V30 1738 H 161.426 -2.86054 -4.14957 0
M  V30 1739 H 161.028 -2.85509 -2.4158 0
M  V30 1740 H 163.32 -4.28924 -5.24434 0
M  V30 1741 H 164.263 -5.55355 -4.39303 0
M  V30 1742 H 164.671 -3.82943 -4.14747 0
M  V30 1743 N 164.069 0.697108 -1.41344 0
M  V30 1744 C 165.016 1.81106 -1.43071 0
M  V30 1745 C 165.986 1.63632 -0.285275 0
M  V30 1746 O 167.171 1.84504 -0.486091 0
M  V30 1747 C 164.311 3.18975 -1.31715 0
M  V30 1748 C 163.424 3.47892 -2.56115 0
M  V30 1749 C 162.559 4.75367 -2.37064 0
M  V30 1750 C 161.598 4.97247 -3.56948 0
M  V30 1751 N 160.735 6.15947 -3.36977 0
M  V30 1752 H 165.575 1.78965 -2.38276 0
M  V30 1753 H 163.112 0.873975 -1.18322 0
M  V30 1754 H 165.07 3.98615 -1.23133 0
M  V30 1755 H 163.7 3.20297 -0.401183 0
M  V30 1756 H 162.752 2.62669 -2.75153 0
M  V30 1757 H 164.064 3.59962 -3.45295 0
M  V30 1758 H 163.218 5.63059 -2.25941 0
M  V30 1759 H 161.957 4.65541 -1.45338 0
M  V30 1760 H 160.962 4.08004 -3.68527 0
M  V30 1761 H 162.187 5.08934 -4.49626 0
M  V30 1762 H 160.133 6.07336 -2.47949 0
M  V30 1763 H 160.05 6.28777 -4.19732 0
M  V30 1764 H 161.318 7.06377 -3.29623 0
M  V30 1765 N 165.547 1.27147 0.931209 0
M  V30 1766 C 166.795 1.13055 1.6752 0
M  V30 1767 C 167.116 -0.324791 1.92276 0
M  V30 1768 O 166.386 -1.22775 1.52654 0
M  V30 1769 H 164.966 0.415391 0.620854 0
M  V30 1770 H 167.628 1.59623 1.11833 0
M  V30 1771 H 166.724 1.65694 2.64485 0
M  V30 1772 N 167.025 -1.13721 1.09112 0
M  V30 1773 C 168.273 -1.84559 0.823562 0
M  V30 1774 C 168.594 -1.83754 -0.652658 0
M  V30 1775 O 167.864 -1.29102 -1.47342 0
M  V30 1776 H 166.444 -0.683376 0.301673 0
M  V30 1777 H 169.106 -1.37771 1.37859 0
M  V30 1778 H 168.202 -2.8917 1.17419 0
M  V30 1779 N 168.503 -0.877838 -1.30888 0
M  V30 1780 C 169.435 -0.296607 -2.27273 0
M  V30 1781 C 170.448 0.544799 -1.53414 0
M  V30 1782 O 171.637 0.365511 -1.74718 0
M  V30 1783 C 168.737 0.597481 -3.33592 0
M  V30 1784 C 167.91 -0.213251 -4.3688 0
M  V30 1785 C 166.969 0.610208 -5.2265 0
M  V30 1786 O 165.995 0.035441 -5.69189 0
M  V30 1787 N 167.197 1.92071 -5.47804 0
M  V30 1788 H 169.962 -1.12492 -2.77787 0
M  V30 1789 H 167.523 -0.740105 -1.43993 0
M  V30 1790 H 169.515 1.15425 -3.87891 0
M  V30 1791 H 168.085 1.32647 -2.83061 0
M  V30 1792 H 167.305 -0.951466 -3.82545 0
M  V30 1793 H 168.593 -0.769262 -5.02951 0
M  V30 1794 H 167.991 2.4107 -5.11763 0
M  V30 1795 H 166.548 2.42508 -6.05007 0
M  V30 1796 N 169.982 1.44106 -0.638065 0
M  V30 1797 C 171.259 1.95453 -0.0759321 0
M  V30 1798 C 171.639 1.57984 1.40015 0
M  V30 1799 O 170.987 0.857361 2.11806 0
M  V30 1800 C 171.197 3.47655 -0.306132 0
M  V30 1801 C 172.545 4.24114 -0.203008 0
M  V30 1802 O 173.569 3.55405 -0.237871 0
M  V30 1803 O 172.428 5.46381 -0.113827 0
M  V30 1804 H 169.522 0.826797 0.0183332 0
M  V30 1805 H 172.068 1.54122 -0.710251 0
M  V30 1806 H 170.84 3.68 -1.3301 0
M  V30 1807 H 170.463 3.95949 0.361991 0
M  V30 1808 N 171.46 0.379036 1.52974 0
M  V30 1809 C 172.737 -0.263479 1.93817 0
M  V30 1810 C 173.117 -1.65244 1.31368 0
M  V30 1811 O 172.465 -2.23448 0.477856 0
M  V30 1812 C 172.675 -0.300166 3.47707 0
M  V30 1813 C 174.023 -0.534061 4.21228 0
M  V30 1814 O 175.047 -0.38081 3.54159 0
M  V30 1815 O 173.906 -0.833501 5.40106 0
M  V30 1816 H 171 -0.161149 0.811147 0
M  V30 1817 H 173.546 0.432798 1.64088 0
M  V30 1818 H 172.318 0.673138 3.85467 0
M  V30 1819 H 171.941 -1.04179 3.83709 0
M  V30 1820 N 172.938 -1.57226 0.108567 0
M  V30 1821 C 174.215 -1.86333 -0.594939 0
M  V30 1822 C 174.595 -1.00788 -1.85486 0
M  V30 1823 O 173.943 -0.0839293 -2.28346 0
M  V30 1824 C 174.153 -3.37265 -0.897405 0
M  V30 1825 C 175.501 -4.05629 -1.25501 0
M  V30 1826 O 176.525 -3.42224 -0.987998 0
M  V30 1827 O 175.384 -5.17531 -1.75567 0
M  V30 1828 H 172.478 -0.771018 -0.2991 0
M  V30 1829 H 175.024 -1.69102 0.142283 0
M  V30 1830 H 173.796 -3.913 -0.00413806 0
M  V30 1831 H 173.419 -3.59889 -1.69014 0
M  V30 1832 N 174.416 0.165178 -1.56732 0
M  V30 1833 C 175.693 0.908443 -1.73224 0
M  V30 1834 C 176.073 2.0013 -0.67165 0
M  V30 1835 O 175.421 2.26353 0.31253 0
M  V30 1836 C 175.631 1.46756 -3.16644 0
M  V30 1837 C 176.979 1.93809 -3.77787 0
M  V30 1838 O 178.003 1.56537 -3.1996 0
M  V30 1839 O 176.862 2.62486 -4.79336 0
M  V30 1840 H 173.956 0.428025 -0.707618 0
M  V30 1841 H 176.502 0.152526 -1.69013 0
M  V30 1842 H 175.274 0.68129 -3.85323 0
M  V30 1843 H 174.897 2.28749 -3.25207 0
M  V30 1844 N 175.894 1.51508 0.433938 0
M  V30 1845 C 176.857 1.72473 1.50949 0
M  V30 1846 C 177.857 0.594725 1.49398 0
M  V30 1847 O 179.047 0.862315 1.5136 0
M  V30 1848 C 176.179 1.78431 2.90474 0
M  V30 1849 H 177.372 2.68467 1.33662 0
M  V30 1850 H 174.925 1.41549 0.662836 0
M  V30 1851 H 175.66 0.842645 3.13161 0
M  V30 1852 H 175.445 2.60558 2.93005 0
M  V30 1853 H 176.935 1.96479 3.68491 0
M  V30 1854 N 177.372 -0.689602 1.41712 0
M  V30 1855 C 178.282 -1.83314 1.46401 0
M  V30 1856 C 179.298 -1.7036 0.35405 0
M  V30 1857 O 180.474 -1.92171 0.602692 0
M  V30 1858 C 177.539 -3.19344 1.34982 0
M  V30 1859 C 176.6 -3.44363 2.56344 0
M  V30 1860 C 175.833 -4.73904 2.45461 0
M  V30 1861 O 176.056 -5.508 1.48241 0
M  V30 1862 O 174.99 -4.99839 3.35328 0
M  V30 1863 H 178.816 -1.82314 2.42889 0
M  V30 1864 H 176.401 -0.843438 1.23315 0
M  V30 1865 H 178.283 -4.00547 1.3092 0
M  V30 1866 H 176.958 -3.21014 0.41612 0
M  V30 1867 H 175.865 -2.63067 2.65982 0
M  V30 1868 H 177.198 -3.47512 3.48563 0
M  V30 1869 N 178.85 -1.27639 -0.924453 0
M  V30 1870 C 180.078 -1.16989 -1.70649 0
M  V30 1871 C 180.493 0.272869 -1.86818 0
M  V30 1872 O 179.85 1.18549 -1.38753 0
M  V30 1873 C 179.901 -1.85229 -3.10439 0
M  V30 1874 O 179.622 -3.23868 -2.95028 0
M  V30 1875 C 181.123 -1.80746 -4.04779 0
M  V30 1876 H 178.343 -0.406595 -0.53378 0
M  V30 1877 H 180.887 -1.68569 -1.15778 0
M  V30 1878 H 179.042 -1.37545 -3.6216 0
M  V30 1879 H 179.456 -3.57889 -3.83426 0
M  V30 1880 H 180.93 -2.33101 -5.00368 0
M  V30 1881 H 181.407 -0.777499 -4.32263 0
M  V30 1882 H 182.013 -2.28059 -3.58984 0
M  V30 1883 N 180.328 1.1314 -1.09713 0
M  V30 1884 C 181.576 1.84119 -0.833338 0
M  V30 1885 C 181.897 1.84097 0.642904 0
M  V30 1886 O 181.167 1.29881 1.46655 0
M  V30 1887 H 179.747 0.681766 -0.305293 0
M  V30 1888 H 182.409 1.37038 -1.38588 0
M  V30 1889 H 181.505 2.88543 -1.18951 0
M  V30 1890 N 181.806 0.884767 1.30421 0
M  V30 1891 C 182.736 0.367574 2.30589 0
M  V30 1892 C 183.717 -0.549464 1.60981 0
M  V30 1893 O 184.902 -0.46336 1.88591 0
M  V30 1894 C 182.032 -0.418944 3.44764 0
M  V30 1895 C 180.986 0.406316 4.26067 0
M  V30 1896 C 180.312 -0.506793 5.32293 0
M  V30 1897 C 181.612 1.64832 4.95608 0
M  V30 1898 H 183.306 1.20462 2.74097 0
M  V30 1899 H 180.852 0.580695 1.31772 0
M  V30 1900 H 182.805 -0.791395 4.13902 0
M  V30 1901 H 181.529 -1.28964 3.0006 0
M  V30 1902 H 180.188 0.760903 3.58617 0
M  V30 1903 H 179.836 -1.37519 4.83836 0
M  V30 1904 H 179.536 0.0415828 5.87585 0
M  V30 1905 H 181.06 -0.875764 6.04287 0
M  V30 1906 H 182.474 1.34646 5.57264 0
M  V30 1907 H 180.871 2.13688 5.60765 0
M  V30 1908 H 181.941 2.39284 4.21748 0
M  V30 1909 N 183.284 -1.43765 0.645699 0
M  V30 1910 C 184.512 -2.06253 0.163556 0
M  V30 1911 C 184.927 -1.48352 -1.16778 0
M  V30 1912 O 184.284 -0.611932 -1.71935 0
M  V30 1913 C 184.335 -3.61453 0.0583186 0
M  V30 1914 O 184.056 -4.172 1.33702 0
M  V30 1915 C 185.557 -4.41002 -0.450795 0
M  V30 1916 H 182.777 -0.665413 0.0864077 0
M  V30 1917 H 185.321 -1.84396 0.884222 0
M  V30 1918 H 183.476 -3.82522 -0.612865 0
M  V30 1919 H 183.89 -5.10791 1.19131 0
M  V30 1920 H 185.364 -5.49966 -0.473403 0
M  V30 1921 H 185.841 -4.13488 -1.48068 0
M  V30 1922 H 186.447 -4.24886 0.187637 0
M  V30 1923 N 184.763 -0.387143 -1.52771 0
M  V30 1924 C 185.673 0.456442 -2.30117 0
M  V30 1925 C 186.689 1.07342 -1.36944 0
M  V30 1926 O 187.865 1.07971 -1.70013 0
M  V30 1927 C 184.93 1.56957 -3.09136 0
M  V30 1928 C 183.991 0.977916 -4.18014 0
M  V30 1929 C 183.224 2.038 -4.93256 0
M  V30 1930 O 183.447 3.25271 -4.68567 0
M  V30 1931 O 182.381 1.6565 -5.78657 0
M  V30 1932 H 186.207 -0.17359 -3.03203 0
M  V30 1933 H 183.792 -0.150919 -1.48636 0
M  V30 1934 H 185.674 2.21628 -3.58412 0
M  V30 1935 H 184.349 2.18461 -2.38865 0
M  V30 1936 H 183.256 0.294525 -3.72939 0
M  V30 1937 H 184.589 0.407128 -4.90513 0
M  V30 1938 N 186.241 1.57166 -0.116904 0
M  V30 1939 C 187.489 1.94737 0.540533 0
M  V30 1940 C 187.81 1.00096 1.67349 0
M  V30 1941 O 187.08 0.0568854 1.95817 0
M  V30 1942 H 185.66 0.718981 0.202669 0
M  V30 1943 H 188.322 1.94017 -0.185353 0
M  V30 1944 H 187.418 2.97719 0.936483 0
M  V30 1945 N 187.719 -0.156864 1.56817 0
M  V30 1946 C 188.629 -1.2136 2.00771 0
M  V30 1947 C 189.645 -1.47598 0.921459 0
M  V30 1948 O 190.821 -1.59462 1.2302 0
M  V30 1949 C 187.886 -2.52943 2.37109 0
M  V30 1950 C 186.947 -2.34439 3.59634 0
M  V30 1951 C 186.18 -3.59748 3.94229 0
M  V30 1952 O 186.403 -4.65526 3.29609 0
M  V30 1953 O 185.337 -3.52998 4.8752 0
M  V30 1954 H 189.163 -0.870468 2.90958 0
M  V30 1955 H 186.748 -0.36484 1.44877 0
M  V30 1956 H 188.63 -3.30538 2.61386 0
M  V30 1957 H 187.305 -2.86806 1.5008 0
M  V30 1958 H 186.212 -1.54828 3.40557 0
M  V30 1959 H 187.545 -2.05496 4.4725 0
M  V30 1960 N 189.197 -1.51736 -0.425897 0
M  V30 1961 C 190.445 -1.64644 -1.17204 0
M  V30 1962 C 190.766 -0.370486 -1.91448 0
M  V30 1963 O 190.036 0.614088 -1.86026 0
M  V30 1964 H 188.616 -0.606819 -0.435638 0
M  V30 1965 H 191.278 -1.88713 -0.487177 0
M  V30 1966 H 190.374 -2.47958 -1.89534 0
M  V30 1967 N 190.675 0.682077 -1.42076 0
M  V30 1968 C 191.585 1.82535 -1.47371 0
M  V30 1969 C 192.601 1.7017 -0.363079 0
M  V30 1970 O 193.777 1.91848 -0.612875 0
M  V30 1971 C 190.842 3.18624 -1.36674 0
M  V30 1972 C 189.903 3.42999 -2.58167 0
M  V30 1973 C 189.136 4.72595 -2.4797 0
M  V30 1974 O 189.359 5.50006 -1.5116 0
M  V30 1975 O 188.293 4.98054 -3.37974 0
M  V30 1976 H 192.119 1.81023 -2.43853 0
M  V30 1977 H 189.704 0.836887 -1.2376 0
M  V30 1978 H 191.586 3.99847 -1.33043 0
M  V30 1979 H 190.261 3.20789 -0.433138 0
M  V30 1980 H 189.168 2.61653 -2.67373 0
M  V30 1981 H 190.501 3.45659 -3.50401 0
M  V30 1982 N 192.153 1.28127 0.917671 0
M  V30 1983 C 193.401 1.14825 1.66312 0
M  V30 1984 C 193.722 -0.304379 1.9261 0
M  V30 1985 O 192.992 -1.21149 1.53947 0
M  V30 1986 H 191.572 0.421953 0.616413 0
M  V30 1987 H 194.234 1.608 1.10134 0
M  V30 1988 H 193.33 1.68489 2.62712 0
M  V30 1989 N 193.631 -1.12557 1.10312 0
M  V30 1990 C 194.541 -2.21841 0.763142 0
M  V30 1991 C 195.557 -1.72354 -0.238801 0
M  V30 1992 O 196.733 -2.01249 -0.0778746 0
M  V30 1993 C 193.798 -3.46131 0.198632 0
M  V30 1994 C 192.859 -4.10464 1.25769 0
M  V30 1995 C 192.092 -5.28821 0.72002 0
M  V30 1996 O 192.315 -5.6859 -0.453993 0
M  V30 1997 O 191.249 -5.83437 1.47935 0
M  V30 1998 H 195.075 -2.53312 1.67532 0
M  V30 1999 H 192.66 -1.20867 0.878157 0
M  V30 2000 H 194.542 -4.2125 -0.112401 0
M  V30 2001 H 193.217 -3.16338 -0.686419 0
M  V30 2002 H 192.124 -3.3713 1.62156 0
M  V30 2003 H 193.457 -4.44408 2.11571 0
M  V30 2004 N 195.109 -0.891671 -1.2995 0
M  V30 2005 C 196.019 -0.367691 -2.31701 0
M  V30 2006 C 197.035 0.533486 -1.6562 0
M  V30 2007 O 198.211 0.424997 -1.96865 0
M  V30 2008 C 195.276 0.403406 -3.44345 0
M  V30 2009 C 194.337 -0.528328 -4.26037 0
M  V30 2010 C 193.57 0.206063 -5.33302 0
M  V30 2011 O 193.793 1.43119 -5.52153 0
M  V30 2012 O 192.727 -0.447281 -6.00236 0
M  V30 2013 H 196.553 -1.21163 -2.78484 0
M  V30 2014 H 194.138 -0.655725 -1.34241 0
M  V30 2015 H 196.02 0.839753 -4.12948 0
M  V30 2016 H 194.695 1.22354 -2.99685 0
M  V30 2017 H 193.602 -1.01362 -3.60106 0
M  V30 2018 H 194.935 -1.31465 -4.74318 0
M  V30 2019 N 196.587 1.43421 -0.653314 0
M  V30 2020 C 197.497 2.34568 0.0388565 0
M  V30 2021 C 198.513 1.53888 0.81207 0
M  V30 2022 O 199.689 1.86539 0.759294 0
M  V30 2023 C 196.754 3.32167 0.993269 0
M  V30 2024 C 195.815 4.28751 0.216977 0
M  V30 2025 C 195.048 5.21688 1.12593 0
M  V30 2026 O 195.271 5.19052 2.36519 0
M  V30 2027 O 194.205 5.98919 0.598284 0
M  V30 2028 H 198.031 2.95251 -0.711386 0
M  V30 2029 H 195.616 1.43564 -0.413502 0
M  V30 2030 H 197.498 3.92183 1.54176 0
M  V30 2031 H 196.173 2.73987 1.72374 0
M  V30 2032 H 195.08 3.72215 -0.375101 0
M  V30 2033 H 196.413 4.89913 -0.473924 0
M  V30 2034 N 198.065 0.39524 1.52563 0
M  V30 2035 C 199.012 -0.437036 2.26624 0
M  V30 2036 C 199.982 -1.05281 1.28472 0
M  V30 2037 O 201.167 -1.07971 1.57311 0
M  V30 2038 C 198.307 -1.55524 3.08069 0
M  V30 2039 C 197.42 -0.961745 4.21158 0
M  V30 2040 C 196.555 -2.05149 4.89987 0
M  V30 2041 C 195.594 -1.4342 5.95061 0
M  V30 2042 N 194.731 -2.46351 6.57462 0
M  V30 2043 H 199.571 0.200976 2.97322 0
M  V30 2044 H 197.108 0.110944 1.46681 0
M  V30 2045 H 199.066 -2.21437 3.53584 0
M  V30 2046 H 197.696 -2.16348 2.3957 0
M  V30 2047 H 196.748 -0.192048 3.79915 0
M  V30 2048 H 198.06 -0.470701 4.96574 0
M  V30 2049 H 197.214 -2.78819 5.38837 0
M  V30 2050 H 195.953 -2.57615 4.14109 0
M  V30 2051 H 194.958 -0.682774 5.45544 0
M  V30 2052 H 196.183 -0.917416 6.72875 0
M  V30 2053 H 194.129 -2.97975 5.8442 0
M  V30 2054 H 194.046 -2.02019 7.28508 0
M  V30 2055 H 195.314 -3.19633 7.10954 0
M  V30 2056 N 199.544 -1.57102 0.125237 0
M  V30 2057 C 200.454 -2.19191 -0.8362 0
M  V30 2058 C 201.47 -1.16985 -1.28805 0
M  V30 2059 O 202.646 -1.49479 -1.34974 0
M  V30 2060 C 199.711 -2.78407 -2.06617 0
M  V30 2061 C 198.772 -3.9567 -1.66565 0
M  V30 2062 C 198.005 -4.52052 -2.83698 0
M  V30 2063 O 198.228 -4.07326 -3.99302 0
M  V30 2064 O 197.162 -5.42645 -2.60423 0
M  V30 2065 H 200.988 -3.01816 -0.337776 0
M  V30 2066 H 198.573 -1.4906 -0.100695 0
M  V30 2067 H 200.455 -3.16129 -2.7864 0
M  V30 2068 H 199.13 -1.9881 -2.55453 0
M  V30 2069 H 198.037 -3.62705 -0.916296 0
M  V30 2070 H 199.37 -4.76722 -1.22464 0
M  V30 2071 N 201.022 0.148545 -1.56898 0
M  V30 2072 C 202.433 0.708766 -1.72723 0
M  V30 2073 C 202.784 1.81734 -0.739395 0
M  V30 2074 O 201.909 2.16194 0.0943169 0
M  V30 2075 C 202.504 1.29245 -3.13179 0
M  V30 2076 C 201.063 1.79925 -3.30611 0
M  V30 2077 C 200.21 0.687111 -2.68652 0
M  V30 2078 H 203.161 -0.0771063 -1.58513 0
M  V30 2079 H 203.182 2.16224 -3.13093 0
M  V30 2080 H 202.694 0.485382 -3.85053 0
M  V30 2081 H 200.795 2.63203 -2.63732 0
M  V30 2082 H 200.908 1.92903 -4.38549 0
M  V30 2083 H 199.272 1.11335 -2.29078 0
M  V30 2084 H 200.055 -0.108483 -3.43129 0
M  V30 2085 N 202.5 1.5196 0.417844 0
M  V30 2086 C 203.41 1.77554 1.53336 0
M  V30 2087 C 204.426 0.660655 1.6097 0
M  V30 2088 O 205.602 0.945099 1.77848 0
M  V30 2089 C 202.667 1.91291 2.89152 0
M  V30 2090 C 201.728 3.15183 2.91475 0
M  V30 2091 C 200.961 3.28256 4.20813 0
M  V30 2092 O 201.184 2.46798 5.14244 0
M  V30 2093 O 200.118 4.21356 4.29817 0
M  V30 2094 H 203.944 2.7222 1.34647 0
M  V30 2095 H 201.529 1.36698 0.602828 0
M  V30 2096 H 203.411 2.02199 3.69721 0
M  V30 2097 H 202.086 0.998129 3.07927 0
M  V30 2098 H 200.993 3.09739 2.09791 0
M  V30 2099 H 202.326 4.06414 2.77648 0
M  V30 2100 N 203.978 -0.674533 1.42435 0
M  V30 2101 C 204.926 -1.80934 1.46169 0
M  V30 2102 C 205.92 -1.66006 0.3374 0
M  V30 2103 O 207.126 -1.72611 0.510425 0
M  V30 2104 H 203.501 -0.596594 0.457798 0
M  V30 2105 H 205.472 -1.74903 2.41767 0
M  V30 2106 C 204.221 -3.19088 1.38123 0
M  V30 2107 H 203.544 -3.31203 2.23931 0
M  V30 2108 H 204.984 -3.9851 1.44797 0
M  V30 2109 C 203.443 -3.36763 0.0960517 0
M  V30 2110 O 203.973 -3.92581 -0.851073 0
M  V30 2111 N 202.179 -2.90597 0.0131186 0
M  V30 2112 H 201.726 -2.45359 0.784639 0
M  V30 2113 H 201.684 -3.028 -0.846133 0
M  V30 2114 N 205.456 -1.28612 -0.910864 0
M  V30 2115 C 206.386 -1.15326 -2.03032 0
M  V30 2116 C 207.367 -0.0502924 -1.70026 0
M  V30 2117 O 208.552 -0.227797 -1.92859 0
M  V30 2118 C 205.682 -0.817343 -3.37545 0
M  V30 2119 C 204.636 -1.8754 -3.84724 0
M  V30 2120 C 203.962 -1.39305 -5.16235 0
M  V30 2121 C 205.262 -3.28244 -4.06267 0
M  V30 2122 H 206.956 -2.08975 -2.14406 0
M  V30 2123 H 204.502 -1.00612 -1.03021 0
M  V30 2124 H 206.455 -0.711151 -4.15356 0
M  V30 2125 H 205.179 0.154846 -3.26233 0
M  V30 2126 H 203.838 -1.97079 -3.09121 0
M  V30 2127 H 203.486 -0.409846 -5.01328 0
M  V30 2128 H 203.186 -2.10057 -5.48771 0
M  V30 2129 H 204.71 -1.30014 -5.96598 0
M  V30 2130 H 206.124 -3.21611 -4.74594 0
M  V30 2131 H 204.521 -3.96855 -4.5014 0
M  V30 2132 H 205.591 -3.72048 -3.10979 0
M  V30 2133 N 206.934 1.1197 -1.10907 0
M  V30 2134 C 208.182 1.83225 -0.852819 0
M  V30 2135 C 208.503 1.84769 0.623341 0
M  V30 2136 O 207.773 1.3143 1.45269 0
M  V30 2137 H 206.353 0.67849 -0.312507 0
M  V30 2138 H 209.015 1.3556 -1.40033 0
M  V30 2139 H 208.111 2.87265 -1.22005 0
M  V30 2140 N 208.412 0.89855 1.29475 0
M  V30 2141 C 209.359 0.373819 2.27753 0
M  V30 2142 C 210.329 -0.543444 1.56958 0
M  V30 2143 O 211.514 -0.468934 1.84948 0
M  V30 2144 C 208.654 -0.393648 3.42848 0
M  V30 2145 C 207.767 0.554379 4.28428 0
M  V30 2146 C 206.902 -0.230026 5.30702 0
M  V30 2147 C 205.941 0.712599 6.07938 0
M  V30 2148 N 205.078 -0.0373283 7.0209 0
M  V30 2149 H 209.918 1.21699 2.72017 0
M  V30 2150 H 207.455 0.611456 1.33789 0
M  V30 2151 H 209.413 -0.85466 4.08352 0
M  V30 2152 H 208.043 -1.20128 2.99615 0
M  V30 2153 H 207.095 1.13391 3.63107 0
M  V30 2154 H 208.407 1.27597 4.82204 0
M  V30 2155 H 207.561 -0.752288 6.02018 0
M  V30 2156 H 206.3 -0.984758 4.77654 0
M  V30 2157 H 205.305 1.24637 5.35486 0
M  V30 2158 H 206.53 1.46664 6.63074 0
M  V30 2159 H 204.476 -0.774348 6.51414 0
M  V30 2160 H 204.393 0.624374 7.53417 0
M  V30 2161 H 205.661 -0.539891 7.77628 0
M  V30 2162 N 209.89 -1.43072 0.660911 0
M  V30 2163 C 210.82 -2.33497 -0.0122829 0
M  V30 2164 C 211.801 -1.49903 -0.803925 0
M  V30 2165 O 212.986 -1.78546 -0.763864 0
M  V30 2166 C 210.116 -3.33363 -0.973994 0
M  V30 2167 C 209.07 -4.27003 -0.291928 0
M  V30 2168 C 208.396 -5.16967 -1.36562 0
M  V30 2169 C 209.696 -5.15816 0.820462 0
M  V30 2170 H 211.39 -2.90038 0.742873 0
M  V30 2171 H 208.936 -1.39461 0.358688 0
M  V30 2172 H 210.889 -3.95524 -1.45392 0
M  V30 2173 H 209.613 -2.75095 -1.7604 0
M  V30 2174 H 208.272 -3.66217 0.167623 0
M  V30 2175 H 207.92 -4.55034 -2.14366 0
M  V30 2176 H 207.62 -5.80441 -0.914454 0
M  V30 2177 H 209.144 -5.82003 -1.84675 0
M  V30 2178 H 210.558 -5.71742 0.422366 0
M  V30 2179 H 208.955 -5.8805 1.19656 0
M  V30 2180 H 210.025 -4.55045 1.67518 0
M  V30 2181 N 211.368 -0.403325 -1.52352 0
M  V30 2182 C 212.3 0.4603 -2.2453 0
M  V30 2183 C 213.313 1.01505 -1.27282 0
M  V30 2184 O 214.502 0.914982 -1.53266 0
M  V30 2185 C 211.602 1.65208 -2.95905 0
M  V30 2186 C 210.775 1.22224 -4.19976 0
M  V30 2187 C 209.834 2.28028 -4.74226 0
M  V30 2188 O 208.86 1.88857 -5.36956 0
M  V30 2189 N 210.062 3.6012 -4.55295 0
M  V30 2190 H 212.827 -0.158156 -2.99282 0
M  V30 2191 H 210.388 -0.230402 -1.60252 0
M  V30 2192 H 212.38 2.35541 -3.29093 0
M  V30 2193 H 210.95 2.17658 -2.24374 0
M  V30 2194 H 210.17 0.34725 -3.92668 0
M  V30 2195 H 211.458 0.911924 -5.00561 0
M  V30 2196 H 210.856 3.94698 -4.05253 0
M  V30 2197 H 209.413 4.26447 -4.92936 0
M  V30 2198 N 212.846 1.57033 -0.133567 0
M  V30 2199 C 214.093 1.95686 0.520877 0
M  V30 2200 C 214.421 1.0177 1.6575 0
M  V30 2201 O 213.676 0.0443195 1.9565 0
M  V30 2202 C 213.975 3.40674 1.08057 0
M  V30 2203 C 213.641 4.50855 0.0637899 0
M  V30 2204 C 212.303 4.80716 -0.215757 0
M  V30 2205 C 214.655 5.17398 -0.62835 0
M  V30 2206 C 211.983 5.74433 -1.19348 0
M  V30 2207 C 214.335 6.12167 -1.5948 0
M  V30 2208 C 212.999 6.40414 -1.88218 0
M  V30 2209 H 212.269 0.716067 0.190602 0
M  V30 2210 H 214.916 1.9026 -0.217556 0
M  V30 2211 H 213.221 3.42865 1.89606 0
M  V30 2212 H 214.918 3.67902 1.59529 0
M  V30 2213 H 211.508 4.27605 0.291855 0
M  V30 2214 H 215.692 4.94472 -0.425562 0
M  V30 2215 H 210.948 5.94616 -1.42272 0
M  V30 2216 H 215.122 6.6281 -2.13671 0
M  V30 2217 H 212.749 7.12838 -2.64133 0
M  V30 2218 N 214.325 -0.140222 1.56975 0
M  V30 2219 C 215.55 -0.870414 1.88251 0
M  V30 2220 C 215.975 -1.73637 0.723312 0
M  V30 2221 O 215.333 -1.78329 -0.32689 0
M  V30 2222 C 215.381 -1.69737 3.18154 0
M  V30 2223 O 214.485 -2.80229 3.02565 0
M  V30 2224 H 213.826 -0.242025 0.61832 0
M  V30 2225 H 216.356 -0.128999 2.04193 0
M  V30 2226 H 216.366 -2.09099 3.50345 0
M  V30 2227 H 215.041 -1.06152 4.02125 0
M  V30 2228 H 213.618 -2.44224 2.81796 0
M  V30 2229 N 215.803 -1.52179 -0.40978 0
M  V30 2230 C 216.733 -1.78435 -1.5061 0
M  V30 2231 C 217.714 -0.635295 -1.57791 0
M  V30 2232 O 218.899 -0.880823 -1.73076 0
M  V30 2233 C 216.029 -1.93444 -2.88439 0
M  V30 2234 C 214.983 -3.09038 -2.96108 0
M  V30 2235 C 214.309 -3.09268 -4.36185 0
M  V30 2236 C 215.609 -4.48508 -2.67652 0
M  V30 2237 H 217.303 -2.70237 -1.28889 0
M  V30 2238 H 214.849 -1.30036 -0.618605 0
M  V30 2239 H 216.802 -2.10394 -3.65119 0
M  V30 2240 H 215.526 -0.983129 -3.11452 0
M  V30 2241 H 214.185 -2.91837 -2.21872 0
M  V30 2242 H 213.833 -2.11861 -4.56206 0
M  V30 2243 H 213.533 -3.86907 -4.42241 0
M  V30 2244 H 215.057 -3.28348 -5.14801 0
M  V30 2245 H 216.471 -4.65918 -3.34056 0
M  V30 2246 H 214.868 -5.28059 -2.85085 0
M  V30 2247 H 215.938 -4.56649 -1.63095 0
M  V30 2248 N 217.281 0.66697 -1.42791 0
M  V30 2249 C 218.558 1.4234 -1.34159 0
M  V30 2250 C 218.938 2.11093 0.0172729 0
M  V30 2251 O 218.286 2.03808 1.03318 0
M  V30 2252 C 218.496 2.41942 -2.51526 0
M  V30 2253 C 219.844 3.06353 -2.93995 0
M  V30 2254 O 220.868 2.52269 -2.51473 0
M  V30 2255 O 219.727 4.04376 -3.67617 0
M  V30 2256 H 216.821 0.635277 -0.529483 0
M  V30 2257 H 219.367 0.695034 -1.54814 0
M  V30 2258 H 218.139 1.89991 -3.42081 0
M  V30 2259 H 217.762 3.22249 -2.32898 0
M  V30 2260 N 218.759 1.29093 0.90403 0
M  V30 2261 C 219.989 1.19516 1.68522 0
M  V30 2262 C 220.397 -0.24738 1.87576 0
M  V30 2263 O 219.74 -1.17798 1.40959 0
M  V30 2264 C 219.802 1.83249 3.0929 0
M  V30 2265 C 219.466 3.32531 3.13484 0
M  V30 2266 C 220.463 4.28821 2.93953 0
M  V30 2267 C 218.148 3.73656 3.35688 0
M  V30 2268 C 220.142 5.64212 2.96553 0
M  V30 2269 C 217.829 5.0917 3.37919 0
M  V30 2270 C 218.827 6.04258 3.18373 0
M  V30 2271 O 218.515 7.37298 3.20385 0
M  V30 2272 H 218.247 0.415467 0.533257 0
M  V30 2273 H 220.801 1.70912 1.13922 0
M  V30 2274 H 219.031 1.26358 3.65473 0
M  V30 2275 H 220.72 1.68054 3.69476 0
M  V30 2276 H 221.486 3.98382 2.76616 0
M  V30 2277 H 217.365 3.00101 3.49943 0
M  V30 2278 H 220.909 6.38407 2.81216 0
M  V30 2279 H 216.806 5.39256 3.54787 0
M  V30 2280 H 217.574 7.46048 3.36681 0
M  V30 2281 N 220.237 -1.11381 1.11499 0
M  V30 2282 C 221.514 -1.7955 0.775965 0
M  V30 2283 C 221.894 -1.97859 -0.73588 0
M  V30 2284 O 221.242 -1.56376 -1.66609 0
M  V30 2285 C 221.452 -3.13196 1.53977 0
M  V30 2286 C 222.8 -3.88227 1.71944 0
M  V30 2287 O 223.824 -3.22887 1.50407 0
M  V30 2288 O 222.683 -5.05477 2.07738 0
M  V30 2289 H 219.777 -0.777728 0.28119 0
M  V30 2290 H 222.323 -1.18118 1.21845 0
M  V30 2291 H 221.095 -2.95229 2.56818 0
M  V30 2292 H 220.718 -3.82342 1.09088 0
M  V30 2293 N 221.715 -0.905404 -1.28997 0
M  V30 2294 C 222.962 -0.534248 -1.95325 0
M  V30 2295 C 223.29 0.920535 -1.71337 0
M  V30 2296 O 222.545 1.66861 -1.02254 0
M  V30 2297 C 222.844 -0.779906 -3.48787 0
M  V30 2298 C 222.51 -2.21293 -3.92861 0
M  V30 2299 C 221.172 -2.60475 -4.04606 0
M  V30 2300 C 223.524 -3.14587 -4.15553 0
M  V30 2301 C 220.852 -3.9212 -4.36416 0
M  V30 2302 C 223.204 -4.45787 -4.48839 0
M  V30 2303 C 221.868 -4.84834 -4.58794 0
M  V30 2304 H 221.138 -0.195495 -0.714747 0
M  V30 2305 H 223.785 -1.14514 -1.53488 0
M  V30 2306 H 222.09 -0.0861365 -3.91705 0
M  V30 2307 H 223.787 -0.472029 -3.98212 0
M  V30 2308 H 220.377 -1.89887 -3.84241 0
M  V30 2309 H 224.561 -2.85528 -4.0594 0
M  V30 2310 H 219.817 -4.22086 -4.42327 0
M  V30 2311 H 223.991 -5.18098 -4.65346 0
M  V30 2312 H 221.618 -5.86877 -4.83197 0
M  V30 2313 N 223.193 1.4272 -0.668489 0
M  V30 2314 C 224.125 2.2914 0.052613 0
M  V30 2315 C 225.138 1.43339 0.771857 0
M  V30 2316 O 226.327 1.67123 0.627067 0
M  V30 2317 C 223.427 3.20618 1.09804 0
M  V30 2318 C 222.6 4.35039 0.45389 0
M  V30 2319 C 221.659 5.07282 1.39825 0
M  V30 2320 O 220.685 5.62024 0.900978 0
M  V30 2321 N 221.887 5.12206 2.73176 0
M  V30 2322 H 224.652 2.91668 -0.689209 0
M  V30 2323 H 222.213 1.53577 -0.512422 0
M  V30 2324 H 224.205 3.65815 1.73094 0
M  V30 2325 H 222.775 2.59585 1.74167 0
M  V30 2326 H 221.995 3.92567 -0.358396 0
M  V30 2327 H 223.283 5.088 0.00486972 0
M  V30 2328 H 222.681 4.6913 3.16122 0
M  V30 2329 H 221.238 5.61069 3.31729 0
M  V30 2330 N 224.671 0.411399 1.52136 0
M  V30 2331 C 225.634 -0.401089 2.25663 0
M  V30 2332 C 226.634 -0.971732 1.28117 0
M  V30 2333 O 227.824 -0.850254 1.52041 0
M  V30 2334 C 224.956 -1.56483 3.02863 0
M  V30 2335 H 226.149 0.24295 2.98914 0
M  V30 2336 H 223.702 0.163968 1.55438 0
M  V30 2337 H 224.437 -2.24567 2.33967 0
M  V30 2338 H 224.222 -1.16211 3.74483 0
M  V30 2339 H 225.712 -2.13951 3.58629 0
M  V30 2340 N 226.149 -1.5696 0.141893 0
M  V30 2341 C 227.097 -2.17784 -0.816874 0
M  V30 2342 C 228.091 -1.1334 -1.25899 0
M  V30 2343 O 229.297 -1.316 -1.22806 0
M  V30 2344 H 225.672 -0.697278 -0.281615 0
M  V30 2345 H 227.643 -2.97087 -0.279621 0
M  V30 2346 C 226.392 -2.80983 -2.04802 0
M  V30 2347 H 225.715 -3.61062 -1.7168 0
M  V30 2348 H 227.155 -3.2705 -2.69841 0
M  V30 2349 C 225.614 -1.79228 -2.8527 0
M  V30 2350 O 226.144 -1.25962 -3.8144 0
M  V30 2351 N 224.35 -1.48647 -2.49704 0
M  V30 2352 H 223.897 -1.92155 -1.71564 0
M  V30 2353 H 223.855 -0.808115 -3.03837 0
M  V30 2354 N 227.627 0.131896 -1.57047 0
M  V30 2355 C 228.559 1.1878 -1.9602 0
M  V30 2356 C 229.572 1.38363 -0.857875 0
M  V30 2357 O 230.761 1.37666 -1.13623 0
M  V30 2358 C 227.861 2.55008 -2.23213 0
M  V30 2359 C 227.034 2.56201 -3.54513 0
M  V30 2360 C 226.093 3.7408 -3.70069 0
M  V30 2361 O 225.119 3.58258 -4.42312 0
M  V30 2362 N 226.321 4.92137 -3.07866 0
M  V30 2363 H 229.086 0.85639 -2.87204 0
M  V30 2364 H 226.647 0.321309 -1.5868 0
M  V30 2365 H 228.639 3.32404 -2.30846 0
M  V30 2366 H 227.209 2.80382 -1.3822 0
M  V30 2367 H 226.429 1.64613 -3.58185 0
M  V30 2368 H 227.717 2.54043 -4.4084 0
M  V30 2369 H 227.115 5.07895 -2.49116 0
M  V30 2370 H 225.672 5.67254 -3.21039 0
M  V30 2371 N 229.106 1.52395 0.401703 0
M  V30 2372 C 230.036 1.79231 1.49661 0
M  V30 2373 C 231.017 0.643654 1.57452 0
M  V30 2374 O 232.202 0.889989 1.72606 0
M  V30 2375 C 229.332 1.94971 2.87409 0
M  V30 2376 C 228.286 3.10604 2.94465 0
M  V30 2377 C 227.612 3.11577 4.34538 0
M  V30 2378 C 228.912 4.49921 2.6527 0
M  V30 2379 H 230.606 2.70917 1.27454 0
M  V30 2380 H 228.152 1.30362 0.6117 0
M  V30 2381 H 230.105 2.12328 3.63999 0
M  V30 2382 H 228.829 0.999632 3.10926 0
M  V30 2383 H 227.488 2.93009 2.20321 0
M  V30 2384 H 227.136 2.14277 4.55076 0
M  V30 2385 H 226.836 3.89247 4.40183 0
M  V30 2386 H 228.36 3.31073 5.13053 0
M  V30 2387 H 229.774 4.67683 3.31581 0
M  V30 2388 H 228.171 5.29564 2.82281 0
M  V30 2389 H 229.241 4.57507 1.60671 0
M  V30 2390 N 230.584 -0.659388 1.43143 0
M  V30 2391 C 231.812 -1.44723 1.47861 0
M  V30 2392 C 232.227 -1.88563 0.0945886 0
M  V30 2393 O 231.584 -1.59108 -0.893915 0
M  V30 2394 C 231.635 -2.68627 2.41913 0
M  V30 2395 O 231.356 -2.26623 3.74932 0
M  V30 2396 C 232.857 -3.62045 2.55809 0
M  V30 2397 H 230.077 -0.444801 0.502387 0
M  V30 2398 H 232.621 -0.808916 1.87821 0
M  V30 2399 H 230.776 -3.28613 2.05164 0
M  V30 2400 H 231.19 -3.06745 4.2545 0
M  V30 2401 H 232.664 -4.45666 3.25708 0
M  V30 2402 H 233.141 -4.08981 1.60099 0
M  V30 2403 H 233.747 -3.07944 2.93344 0
M  V30 2404 N 232.062 -1.29571 -0.897171 0
M  V30 2405 C 233.308 -1.17863 -1.65034 0
M  V30 2406 C 233.641 0.268729 -1.92332 0
M  V30 2407 O 232.916 1.19378 -1.53555 0
M  V30 2408 C 233.199 -1.995 -2.99786 0
M  V30 2409 C 233.052 -3.5239 -2.79538 0
M  V30 2410 C 234.371 -1.82335 -4.00552 0
M  V30 2411 H 231.49 -0.429528 -0.598895 0
M  V30 2412 H 234.132 -1.59072 -1.03905 0
M  V30 2413 H 232.282 -1.64485 -3.51962 0
M  V30 2414 H 233.954 -3.97401 -2.34244 0
M  V30 2415 H 232.197 -3.77187 -2.14273 0
M  V30 2416 H 232.868 -4.04787 -3.75302 0
M  V30 2417 H 235.344 -2.12924 -3.57495 0
M  V30 2418 H 234.22 -2.41801 -4.92771 0
M  V30 2419 H 234.481 -0.779209 -4.35179 0
M  V30 2420 N 233.54 1.10788 -1.12088 0
M  V30 2421 C 234.788 1.8231 -0.872205 0
M  V30 2422 C 235.109 1.85419 0.603709 0
M  V30 2423 O 234.379 1.32963 1.43867 0
M  V30 2424 H 232.959 0.675137 -0.319686 0
M  V30 2425 H 235.621 1.34068 -1.41463 0
M  V30 2426 H 234.717 2.85955 -1.25045 0
M  V30 2427 N 235.018 0.912232 1.28515 0
M  V30 2428 C 236.264 0.545405 1.95328 0
M  V30 2429 C 236.597 -0.908313 1.71649 0
M  V30 2430 O 235.872 -1.64575 1.03659 0
M  V30 2431 C 236.155 0.853483 3.4984 0
M  V30 2432 C 236.008 2.35982 3.82926 0
M  V30 2433 C 237.327 0.348589 4.38717 0
M  V30 2434 H 234.446 0.199626 0.709449 0
M  V30 2435 H 237.088 1.1412 1.5191 0
M  V30 2436 H 235.238 0.34643 3.86952 0
M  V30 2437 H 236.91 2.93738 3.55691 0
M  V30 2438 H 235.153 2.81543 3.30024 0
M  V30 2439 H 235.824 2.52593 4.90816 0
M  V30 2440 H 238.3 0.78294 4.08668 0
M  V30 2441 H 237.176 0.593242 5.45685 0
M  V30 2442 H 237.437 -0.751049 4.35674 0
M  V30 2443 N 236.496 -1.42363 0.676048 0
M  V30 2444 C 237.426 -2.33497 0.0124832 0
M  V30 2445 C 238.407 -1.50748 -0.787981 0
M  V30 2446 O 239.592 -1.79346 -0.744884 0
M  V30 2447 C 236.722 -3.34377 -0.938582 0
M  V30 2448 C 235.676 -4.27289 -0.246622 0
M  V30 2449 C 235.002 -5.18386 -1.31071 0
M  V30 2450 C 236.302 -5.14916 0.875125 0
M  V30 2451 H 237.996 -2.89233 0.773593 0
M  V30 2452 H 235.542 -1.39073 0.37346 0
M  V30 2453 H 237.495 -3.97044 -1.41188 0
M  V30 2454 H 236.219 -2.76947 -1.73113 0
M  V30 2455 H 234.878 -3.66018 0.206456 0
M  V30 2456 H 234.526 -4.57282 -2.09528 0
M  V30 2457 H 234.226 -5.81378 -0.852839 0
M  V30 2458 H 235.75 -5.83929 -1.78492 0
M  V30 2459 H 237.164 -5.71262 0.482983 0
M  V30 2460 H 235.561 -5.86747 1.25887 0
M  V30 2461 H 236.631 -4.53242 1.72335 0
M  V30 2462 N 237.974 -0.419461 -1.51915 0
M  V30 2463 C 238.906 0.43646 -2.25006 0
M  V30 2464 C 239.919 1.00149 -1.28351 0
M  V30 2465 O 241.108 0.898674 -1.54227 0
M  V30 2466 C 238.208 1.6206 -2.9764 0
M  V30 2467 C 237.381 1.17763 -4.21249 0
M  V30 2468 C 236.44 2.22985 -4.76617 0
M  V30 2469 O 235.466 1.83151 -5.38929 0
M  V30 2470 N 236.668 3.55271 -4.59089 0
M  V30 2471 H 239.433 -0.18989 -2.99098 0
M  V30 2472 H 236.994 -0.247386 -1.59999 0
M  V30 2473 H 238.986 2.32038 -3.31573 0
M  V30 2474 H 237.556 2.15266 -2.2667 0
M  V30 2475 H 236.776 0.305582 -3.93014 0
M  V30 2476 H 238.064 0.858781 -5.015 0
M  V30 2477 H 237.462 3.90377 -4.09417 0
M  V30 2478 H 236.019 4.21195 -4.97432 0
M  V30 2479 N 239.452 1.56882 -0.150215 0
M  V30 2480 C 240.415 2.1573 0.774157 0
M  V30 2481 C 241.415 1.0999 1.17298 0
M  V30 2482 O 242.605 1.35613 1.09338 0
M  V30 2483 C 239.737 2.72302 2.05096 0
M  V30 2484 H 240.93 2.98752 0.262201 0
M  V30 2485 H 238.483 1.55985 0.099248 0
M  V30 2486 H 239.218 1.92956 2.6065 0
M  V30 2487 H 239.003 3.49665 1.77416 0
M  V30 2488 H 240.493 3.17632 2.71109 0
M  V30 2489 N 240.93 -0.123565 1.57115 0
M  V30 2490 C 241.893 -1.13583 1.99076 0
M  V30 2491 C 242.893 -1.34564 0.880296 0
M  V30 2492 O 244.083 -1.31158 1.14644 0
M  V30 2493 C 241.215 -2.49128 2.32698 0
M  V30 2494 H 242.408 -0.775287 2.89706 0
M  V30 2495 H 239.961 -0.36771 1.51913 0
M  V30 2496 H 240.696 -2.90111 1.44934 0
M  V30 2497 H 240.481 -2.35255 3.13684 0
M  V30 2498 H 241.971 -3.2199 2.65918 0
M  V30 2499 N 242.408 -1.52605 -0.393616 0
M  V30 2500 C 243.318 -1.79971 -1.50492 0
M  V30 2501 C 244.334 -0.686181 -1.59899 0
M  V30 2502 O 245.51 -0.973274 -1.76322 0
M  V30 2503 C 242.575 -1.95867 -2.86072 0
M  V30 2504 C 241.636 -3.19781 -2.86424 0
M  V30 2505 C 240.869 -3.34909 -4.15538 0
M  V30 2506 O 241.092 -2.54948 -5.10253 0
M  V30 2507 O 240.026 -4.28141 -4.23059 0
M  V30 2508 H 243.852 -2.74328 -1.30299 0
M  V30 2509 H 241.437 -1.3764 -0.581005 0
M  V30 2510 H 243.319 -2.08056 -3.66457 0
M  V30 2511 H 241.994 -1.04699 -3.063 0
M  V30 2512 H 240.901 -3.13038 -2.04837 0
M  V30 2513 H 242.234 -4.1078 -2.71147 0
M  V30 2514 N 243.887 0.651787 -1.4349 0
M  V30 2515 C 244.817 1.77621 -1.51569 0
M  V30 2516 C 245.798 1.66022 -0.370253 0
M  V30 2517 O 246.983 1.85095 -0.587658 0
M  V30 2518 C 244.113 3.16056 -1.43966 0
M  V30 2519 C 243.067 3.4242 -2.56774 0
M  V30 2520 C 242.393 4.8067 -2.34223 0
M  V30 2521 C 243.693 3.37023 -3.99015 0
M  V30 2522 H 245.387 1.71117 -2.45681 0
M  V30 2523 H 242.933 0.821825 -1.18246 0
M  V30 2524 H 244.886 3.94472 -1.48221 0
M  V30 2525 H 243.61 3.23293 -0.463586 0
M  V30 2526 H 242.269 2.66375 -2.51873 0
M  V30 2527 H 241.917 4.84585 -1.34856 0
M  V30 2528 H 241.617 4.9927 -3.09844 0
M  V30 2529 H 243.141 5.61342 -2.40265 0
M  V30 2530 H 244.555 4.05374 -4.05395 0
M  V30 2531 H 242.952 3.67159 -4.74673 0
M  V30 2532 H 244.022 2.3518 -4.2405 0
M  V30 2533 N 245.365 1.30045 0.890287 0
M  V30 2534 C 246.776 1.16738 1.45702 0
M  V30 2535 C 247.127 -0.233939 1.948 0
M  V30 2536 O 246.252 -1.13021 1.84541 0
M  V30 2537 C 246.847 2.11313 2.64825 0
M  V30 2538 C 245.406 2.02001 3.17604 0
M  V30 2539 C 244.553 2.01699 1.90296 0
M  V30 2540 H 247.504 1.42392 0.700726 0
M  V30 2541 H 247.525 1.69086 3.40867 0
M  V30 2542 H 247.037 3.13294 2.2906 0
M  V30 2543 H 245.138 1.03142 3.5804 0
M  V30 2544 H 245.251 2.90128 3.81264 0
M  V30 2545 H 243.615 1.46427 2.08402 0
M  V30 2546 H 244.398 3.05402 1.56795 0
M  V30 2547 N 246.843 -1.10192 1.12674 0
M  V30 2548 C 247.806 -2.14786 0.799979 0
M  V30 2549 C 248.806 -1.59711 -0.18685 0
M  V30 2550 O 249.996 -1.74156 0.0392558 0
M  V30 2551 C 247.128 -3.40374 0.189228 0
M  V30 2552 H 248.321 -2.45203 1.72671 0
M  V30 2553 H 245.874 -1.25597 0.930326 0
M  V30 2554 H 246.609 -3.15577 -0.747107 0
M  V30 2555 H 246.394 -3.81637 0.899766 0
M  V30 2556 H 247.884 -4.17594 -0.0228143 0
M  V30 2557 N 248.321 -0.919034 -1.28029 0
M  V30 2558 C 249.251 -0.428581 -2.29533 0
M  V30 2559 C 250.232 0.50659 -1.62381 0
M  V30 2560 O 251.417 0.413195 -1.89753 0
M  V30 2561 C 248.547 0.327388 -3.45753 0
M  V30 2562 C 247.501 -0.519137 -4.2484 0
M  V30 2563 C 246.827 0.365486 -5.33449 0
M  V30 2564 C 248.127 -1.77914 -4.91064 0
M  V30 2565 H 249.821 -1.27687 -2.70807 0
M  V30 2566 H 247.367 -0.615428 -1.30186 0
M  V30 2567 H 249.32 0.681378 -4.15855 0
M  V30 2568 H 248.044 1.20963 -3.03374 0
M  V30 2569 H 246.703 -0.855717 -3.56473 0
M  V30 2570 H 246.351 1.24642 -4.87312 0
M  V30 2571 H 246.051 -0.197356 -5.87268 0
M  V30 2572 H 247.575 0.715241 -6.06396 0
M  V30 2573 H 248.989 -1.49374 -5.53498 0
M  V30 2574 H 247.386 -2.2848 -5.54903 0
M  V30 2575 H 248.456 -2.50382 -4.15255 0
M  V30 2576 N 249.799 1.42003 -0.683588 0
M  V30 2577 C 251.076 1.95112 -0.138075 0
M  V30 2578 C 251.456 1.62359 1.34918 0
M  V30 2579 O 250.804 0.924311 2.08971 0
M  V30 2580 C 251.014 3.46505 -0.416581 0
M  V30 2581 C 252.362 4.23254 -0.337834 0
M  V30 2582 O 253.386 3.54468 -0.35082 0
M  V30 2583 O 252.245 5.45743 -0.287596 0
M  V30 2584 H 249.339 0.826961 -0.00797996 0
M  V30 2585 H 251.885 1.51784 -0.758924 0
M  V30 2586 H 250.657 3.63582 -1.4465 0
M  V30 2587 H 250.28 3.969 0.235839 0
M  V30 2588 N 251.277 0.427512 1.51691 0
M  V30 2589 C 252.21 -0.433876 2.24037 0
M  V30 2590 C 253.188 -1.03287 1.25581 0
M  V30 2591 O 254.372 -1.07722 1.54688 0
M  V30 2592 C 251.499 -1.60385 2.98319 0
M  V30 2593 C 250.545 -1.12648 4.11355 0
M  V30 2594 S 251.378 -0.076543 5.35445 0
M  V30 2595 C 252.534 -1.25141 6.13262 0
M  V30 2596 H 252.767 0.180367 2.96752 0
M  V30 2597 H 250.3 0.211946 1.52938 0
M  V30 2598 H 252.258 -2.27462 3.41718 0
M  V30 2599 H 250.919 -2.18948 2.25213 0
M  V30 2600 H 250.112 -2.0011 4.62571 0
M  V30 2601 H 249.714 -0.534088 3.70167 0
M  V30 2602 H 252.006 -2.17162 6.41753 0
M  V30 2603 H 252.949 -0.779411 7.03797 0
M  V30 2604 H 253.357 -1.48553 5.44603 0
M  V30 2605 N 252.755 -1.56801 0.158532 0
M  V30 2606 C 254.003 -1.96102 -0.488712 0
M  V30 2607 C 254.324 -1.04498 -1.64636 0
M  V30 2608 O 253.594 -0.108783 -1.95598 0
M  V30 2609 H 252.174 -0.724102 -0.183535 0
M  V30 2610 H 254.836 -1.93457 0.236728 0
M  V30 2611 H 253.932 -3.00097 -0.857219 0
M  V30 2612 N 254.233 0.115231 -1.57178 0
M  V30 2613 C 255.481 0.820727 -1.84685 0
M  V30 2614 C 255.802 1.80237 -0.744279 0
M  V30 2615 O 255.072 1.94529 0.231375 0
M  V30 2616 H 253.652 0.306084 -0.681411 0
M  V30 2617 H 256.314 0.101656 -1.94635 0
M  V30 2618 H 255.41 1.36366 -2.80733 0
M  V30 2619 N 255.711 1.52812 0.385517 0
M  V30 2620 C 256.939 1.71907 1.15133 0
M  V30 2621 C 257.354 0.439004 1.83625 0
M  V30 2622 O 256.711 -0.586765 1.7281 0
M  V30 2623 C 256.762 2.87099 2.19673 0
M  V30 2624 O 256.483 4.10151 1.53973 0
M  V30 2625 C 257.984 3.17902 3.08955 0
M  V30 2626 H 255.204 0.575479 0.345057 0
M  V30 2627 H 257.748 1.99476 0.45052 0
M  V30 2628 H 255.903 2.61982 2.85384 0
M  V30 2629 H 256.317 4.74514 2.23465 0
M  V30 2630 H 257.791 4.01959 3.7833 0
M  V30 2631 H 258.268 2.3243 3.72657 0
M  V30 2632 H 258.874 3.44871 2.48885 0
M  V30 2633 N 257.189 -0.644168 1.43834 0
M  V30 2634 C 258.414 -1.43642 1.49605 0
M  V30 2635 C 258.839 -1.8773 0.117913 0
M  V30 2636 O 258.197 -1.57938 -0.890239 0
M  V30 2637 C 258.245 -2.6416 2.45463 0
M  V30 2638 O 257.349 -3.63538 1.94714 0
M  V30 2639 H 256.69 -0.430329 0.50568 0
M  V30 2640 H 259.22 -0.787448 1.8884 0
M  V30 2641 H 259.23 -3.11864 2.63068 0
M  V30 2642 H 257.905 -2.31414 3.45572 0
M  V30 2643 H 256.482 -3.2273 1.86814 0
M  V30 2644 N 258.668 -1.30515 -0.883378 0
M  V30 2645 C 259.945 -1.10086 -1.6168 0
M  V30 2646 C 260.325 0.349269 -2.08191 0
M  V30 2647 O 259.673 1.34105 -1.85008 0
M  V30 2648 C 259.883 -2.10315 -2.78511 0
M  V30 2649 C 261.231 -2.42119 -3.48803 0
M  V30 2650 O 262.255 -2.08638 -2.88702 0
M  V30 2651 O 261.114 -2.99396 -4.57192 0
M  V30 2652 H 258.208 -0.422907 -0.710689 0
M  V30 2653 H 260.754 -1.41947 -0.930015 0
M  V30 2654 H 259.526 -3.07917 -2.41459 0
M  V30 2655 H 259.149 -1.79282 -3.54886 0
M  V30 2656 N 260.146 1.09593 -1.13257 0
M  V30 2657 C 261.557 1.63229 -0.906274 0
M  V30 2658 C 261.908 1.8811 0.557578 0
M  V30 2659 O 261.033 1.62953 1.42391 0
M  V30 2660 C 261.628 2.96535 -1.63867 0
M  V30 2661 C 260.187 3.47003 -1.45828 0
M  V30 2662 C 259.334 2.2145 -1.66898 0
M  V30 2663 H 262.285 0.92978 -1.28611 0
M  V30 2664 H 262.306 3.64411 -1.09476 0
M  V30 2665 H 261.818 2.78394 -2.70404 0
M  V30 2666 H 259.919 3.70272 -0.415848 0
M  V30 2667 H 260.032 4.24551 -2.2202 0
M  V30 2668 H 258.396 2.30022 -1.09371 0
M  V30 2669 H 259.179 2.0583 -2.74752 0
M  V30 2670 N 261.624 0.925811 1.2754 0
M  V30 2671 C 262.854 0.580666 1.98272 0
M  V30 2672 C 263.262 -0.845207 1.69272 0
M  V30 2673 O 262.605 -1.57306 0.948707 0
M  V30 2674 C 262.667 0.724418 3.52126 0
M  V30 2675 C 262.331 2.12206 4.04744 0
M  V30 2676 C 263.328 3.09604 4.17662 0
M  V30 2677 C 261.013 2.4385 4.39138 0
M  V30 2678 C 263.007 4.36755 4.64246 0
M  V30 2679 C 260.694 3.71237 4.85414 0
M  V30 2680 C 261.692 4.67503 4.97926 0
M  V30 2681 O 261.38 5.92624 5.43187 0
M  V30 2682 H 261.112 0.218987 0.639547 0
M  V30 2683 H 263.666 1.24452 1.63404 0
M  V30 2684 H 261.896 0.0034663 3.867 0
M  V30 2685 H 263.585 0.384607 4.04074 0
M  V30 2686 H 264.351 2.86478 3.91351 0
M  V30 2687 H 260.23 1.69665 4.28643 0
M  V30 2688 H 263.774 5.11898 4.73927 0
M  V30 2689 H 259.671 3.94182 5.11166 0
M  V30 2690 H 260.439 5.95585 5.61445 0
M  V30 2691 N 263.102 -1.41638 0.69111 0
M  V30 2692 C 264.348 -2.01598 0.220519 0
M  V30 2693 C 264.681 -1.54594 -1.17535 0
M  V30 2694 O 263.956 -0.755177 -1.79241 0
M  V30 2695 C 264.239 -3.59062 0.273243 0
M  V30 2696 C 264.092 -4.16203 1.70573 0
M  V30 2697 C 265.411 -4.38546 -0.369457 0
M  V30 2698 H 262.53 -0.732468 0.0816045 0
M  V30 2699 H 265.172 -1.68445 0.878986 0
M  V30 2700 H 263.322 -3.87435 -0.287411 0
M  V30 2701 H 264.994 -3.98722 2.31989 0
M  V30 2702 H 263.237 -3.71414 2.2413 0
M  V30 2703 H 263.908 -5.25358 1.69419 0
M  V30 2704 H 266.384 -4.1596 0.107977 0
M  V30 2705 H 265.26 -5.48069 -0.302002 0
M  V30 2706 H 265.521 -4.17662 -1.44951 0
M  V30 2707 N 264.58 -0.43555 -1.51462 0
M  V30 2708 C 265.527 0.376797 -2.27703 0
M  V30 2709 C 266.497 1.01838 -1.31219 0
M  V30 2710 O 267.682 1.03762 -1.60119 0
M  V30 2711 C 264.822 1.47301 -3.12084 0
M  V30 2712 C 263.935 0.849744 -4.2356 0
M  V30 2713 C 263.07 1.92086 -4.95254 0
M  V30 2714 C 262.109 1.27593 -5.98654 0
M  V30 2715 N 261.246 2.28833 -6.63762 0
M  V30 2716 H 266.086 -0.279734 -2.96684 0
M  V30 2717 H 263.623 -0.149795 -1.46335 0
M  V30 2718 H 265.581 2.11984 -3.59331 0
M  V30 2719 H 264.211 2.0992 -2.45221 0
M  V30 2720 H 263.263 0.0912529 -3.80291 0
M  V30 2721 H 264.575 0.338878 -4.97648 0
M  V30 2722 H 263.729 2.64435 -5.46039 0
M  V30 2723 H 262.468 2.46545 -4.20793 0
M  V30 2724 H 261.473 0.537893 -5.47162 0
M  V30 2725 H 262.698 0.738693 -6.7507 0
M  V30 2726 H 260.644 2.82375 -5.92115 0
M  V30 2727 H 260.561 1.82632 -7.33608 0
M  V30 2728 H 261.829 3.00671 -7.19178 0
M  V30 2729 N 266.058 1.56714 -0.166846 0
M  V30 2730 C 267.304 1.97039 0.479962 0
M  V30 2731 C 267.637 1.05264 1.63197 0
M  V30 2732 O 266.912 0.0988833 1.94248 0
M  V30 2733 C 267.195 3.46867 0.967212 0
M  V30 2734 C 267.048 4.49421 -0.18466 0
M  V30 2735 C 268.367 3.9968 1.84238 0
M  V30 2736 H 265.486 0.71641 0.172992 0
M  V30 2737 H 268.128 1.8832 -0.252079 0
M  V30 2738 H 266.278 3.54428 1.59101 0
M  V30 2739 H 267.95 4.53924 -0.821621 0
M  V30 2740 H 266.193 4.25573 -0.840837 0
M  V30 2741 H 266.864 5.51644 0.198317 0
M  V30 2742 H 269.34 3.94723 1.31655 0
M  V30 2743 H 268.216 5.04941 2.15234 0
M  V30 2744 H 268.477 3.43226 2.78654 0
M  V30 2745 N 267.536 -0.106894 1.57237 0
M  V30 2746 C 268.783 -0.812526 1.85484 0
M  V30 2747 C 269.111 -1.79304 0.753687 0
M  V30 2748 O 268.366 -1.94047 -0.253853 0
M  V30 2749 C 268.665 -1.58628 3.20268 0
M  V30 2750 C 268.331 -0.748967 4.44636 0
M  V30 2751 C 266.993 -0.518104 4.78403 0
M  V30 2752 C 269.345 -0.166122 5.20935 0
M  V30 2753 C 266.673 0.305659 5.85903 0
M  V30 2754 C 269.025 0.644899 6.29304 0
M  V30 2755 C 267.689 0.885965 6.61594 0
M  V30 2756 H 266.959 -0.297324 0.678734 0
M  V30 2757 H 269.606 -0.0744332 1.91355 0
M  V30 2758 H 267.911 -2.39562 3.10028 0
M  V30 2759 H 269.608 -2.13643 3.39349 0
M  V30 2760 H 266.198 -0.939006 4.18187 0
M  V30 2761 H 270.382 -0.33167 4.95191 0
M  V30 2762 H 265.638 0.501528 6.0934 0
M  V30 2763 H 269.812 1.10345 6.87602 0
M  V30 2764 H 267.439 1.52609 7.44725 0
M  V30 2765 N 269.014 -1.53014 -0.377408 0
M  V30 2766 C 269.944 -1.81589 -1.46791 0
M  V30 2767 C 270.925 -0.668622 -1.56408 0
M  V30 2768 O 272.11 -0.917337 -1.71168 0
M  V30 2769 C 269.24 -1.99519 -2.8427 0
M  V30 2770 C 268.194 -3.15249 -2.89486 0
M  V30 2771 C 267.52 -3.18451 -4.29527 0
M  V30 2772 C 268.82 -4.54084 -2.58079 0
M  V30 2773 H 270.514 -2.7291 -1.23127 0
M  V30 2774 H 268.06 -1.31319 -0.590883 0
M  V30 2775 H 270.013 -2.18092 -3.60575 0
M  V30 2776 H 268.737 -1.04897 -3.09296 0
M  V30 2777 H 267.396 -2.96477 -2.15631 0
M  V30 2778 H 267.044 -2.2149 -4.5161 0
M  V30 2779 H 266.744 -3.962 -4.33934 0
M  V30 2780 H 268.268 -3.39193 -5.07721 0
M  V30 2781 H 269.682 -4.72899 -3.24098 0
M  V30 2782 H 268.079 -5.33987 -2.7382 0
M  V30 2783 H 269.149 -4.60006 -1.53372 0
M  V30 2784 N 270.492 0.636531 -1.44174 0
M  V30 2785 C 271.422 1.76003 -1.53444 0
M  V30 2786 C 272.403 1.65619 -0.387841 0
M  V30 2787 O 273.588 1.84461 -0.607257 0
M  V30 2788 C 270.718 3.14511 -1.4731 0
M  V30 2789 C 269.672 3.39677 -2.60391 0
M  V30 2790 C 268.998 4.78159 -2.39308 0
M  V30 2791 C 270.298 3.32772 -4.02567 0
M  V30 2792 H 271.992 1.68501 -2.47483 0
M  V30 2793 H 269.538 0.809237 -1.19111 0
M  V30 2794 H 271.491 3.92878 -1.52397 0
M  V30 2795 H 270.215 3.22783 -0.49785 0
M  V30 2796 H 268.874 2.63688 -2.54684 0
M  V30 2797 H 268.522 4.83128 -1.39988 0
M  V30 2798 H 268.222 4.95956 -3.15122 0
M  V30 2799 H 269.746 5.58762 -2.46205 0
M  V30 2800 H 271.16 4.01051 -4.09672 0
M  V30 2801 H 269.557 3.62104 -4.7854 0
M  V30 2802 H 270.627 2.30669 -4.2652 0
M  V30 2803 N 271.97 1.30982 0.876444 0
M  V30 2804 C 273.381 1.18277 1.44456 0
M  V30 2805 C 273.732 -0.213265 1.95037 0
M  V30 2806 O 272.857 -1.11057 1.85729 0
M  V30 2807 C 273.452 2.1411 2.62569 0
M  V30 2808 C 272.011 2.05358 3.15444 0
M  V30 2809 C 271.158 2.03706 1.88146 0
M  V30 2810 H 274.109 1.43127 0.685584 0
M  V30 2811 H 274.13 1.72692 3.39054 0
M  V30 2812 H 273.642 3.15706 2.25724 0
M  V30 2813 H 271.743 1.06934 3.56926 0
M  V30 2814 H 271.856 2.94156 3.78166 0
M  V30 2815 H 270.22 1.48629 2.06837 0
M  V30 2816 H 271.003 3.07047 1.53547 0
M  V30 2817 N 273.449 -1.08991 1.13837 0
M  V30 2818 C 274.726 -1.77863 0.813876 0
M  V30 2819 C 275.106 -1.99375 -0.693746 0
M  V30 2820 O 274.454 -1.59875 -1.63255 0
M  V30 2821 C 274.664 -3.0986 1.60586 0
M  V30 2822 C 276.012 -3.84493 1.8014 0
M  V30 2823 O 277.036 -3.19624 1.57222 0
M  V30 2824 O 275.895 -5.00957 2.18413 0
M  V30 2825 H 272.989 -0.771589 0.297624 0
M  V30 2826 H 275.535 -1.15507 1.24323 0
M  V30 2827 H 274.307 -2.89715 2.63022 0
M  V30 2828 H 273.93 -3.79942 1.17173 0
M  V30 2829 N 274.927 -0.932562 -1.27047 0
M  V30 2830 C 275.874 -0.434072 -2.26681 0
M  V30 2831 C 276.844 0.501639 -1.58344 0
M  V30 2832 O 278.029 0.419734 -1.86126 0
M  V30 2833 C 275.169 0.30261 -3.43771 0
M  V30 2834 C 274.282 -0.667774 -4.26808 0
M  V30 2835 C 273.417 0.0892393 -5.31125 0
M  V30 2836 C 272.456 -0.873532 -6.05835 0
M  V30 2837 N 271.593 -0.148832 -7.01942 0
M  V30 2838 H 276.433 -1.28868 -2.68695 0
M  V30 2839 H 273.97 -0.646713 -1.32121 0
M  V30 2840 H 275.928 0.746092 -4.10474 0
M  V30 2841 H 274.558 1.12142 -3.02695 0
M  V30 2842 H 273.61 -1.22978 -3.59973 0
M  V30 2843 H 274.922 -1.40337 -4.78651 0
M  V30 2844 H 274.076 0.592409 -6.03801 0
M  V30 2845 H 272.815 0.85777 -4.80097 0
M  V30 2846 H 271.82 -1.38791 -5.31994 0
M  V30 2847 H 273.045 -1.64193 -6.58952 0
M  V30 2848 H 270.991 0.601365 -6.53238 0
M  V30 2849 H 270.908 -0.82391 -7.51497 0
M  V30 2850 H 272.176 0.333527 -7.78786 0
M  V30 2851 N 276.405 1.4127 -0.698611 0
M  V30 2852 C 277.352 2.30773 -0.0352094 0
M  V30 2853 C 278.322 1.47273 0.768111 0
M  V30 2854 O 279.507 1.76053 0.735524 0
M  V30 2855 C 276.647 3.33346 0.893 0
M  V30 2856 C 275.76 4.31924 0.0809695 0
M  V30 2857 C 274.895 5.21566 1.0071 0
M  V30 2858 C 273.934 6.11811 0.188155 0
M  V30 2859 N 273.071 6.93926 1.06825 0
M  V30 2860 H 277.911 2.86943 -0.804207 0
M  V30 2861 H 275.448 1.4132 -0.408294 0
M  V30 2862 H 277.406 3.91368 1.44523 0
M  V30 2863 H 276.036 2.78719 1.62836 0
M  V30 2864 H 275.088 3.75825 -0.588224 0
M  V30 2865 H 276.4 4.95716 -0.553801 0
M  V30 2866 H 275.554 5.84437 1.62845 0
M  V30 2867 H 274.293 4.58008 1.67572 0
M  V30 2868 H 273.298 5.47986 -0.446254 0
M  V30 2869 H 274.523 6.77425 -0.476716 0
M  V30 2870 H 272.469 6.32973 1.72283 0
M  V30 2871 H 272.386 7.54416 0.489123 0
M  V30 2872 H 273.654 7.61262 1.67632 0
M  V30 2873 N 277.883 0.443576 1.51229 0
M  V30 2874 C 278.83 -0.364716 2.279 0
M  V30 2875 C 279.8 -1.0114 1.31757 0
M  V30 2876 O 280.985 -1.02912 1.60667 0
M  V30 2877 C 278.125 -1.45644 3.12861 0
M  V30 2878 C 277.238 -0.827269 4.24005 0
M  V30 2879 C 276.373 -1.89456 4.96266 0
M  V30 2880 C 275.412 -1.24416 5.99322 0
M  V30 2881 N 274.549 -2.25309 6.64966 0
M  V30 2882 H 279.389 0.295464 2.96532 0
M  V30 2883 H 276.926 0.157554 1.46254 0
M  V30 2884 H 278.884 -2.10076 3.6045 0
M  V30 2885 H 277.514 -2.08616 2.46331 0
M  V30 2886 H 276.566 -0.0710839 3.80334 0
M  V30 2887 H 277.878 -0.312481 4.9782 0
M  V30 2888 H 277.032 -2.61535 5.47434 0
M  V30 2889 H 275.771 -2.4431 4.22095 0
M  V30 2890 H 274.776 -0.508868 5.4744 0
M  V30 2891 H 276.001 -0.702882 6.75453 0
M  V30 2892 H 273.947 -2.79231 5.93604 0
M  V30 2893 H 273.864 -1.78739 7.34567 0
M  V30 2894 H 275.132 -2.96853 7.20763 0
M  V30 2895 N 279.361 -1.56624 0.175154 0
M  V30 2896 C 280.308 -2.18149 -0.753634 0
M  V30 2897 C 281.278 -1.12265 -1.22417 0
M  V30 2898 O 282.463 -1.40432 -1.29165 0
M  V30 2899 C 279.603 -2.82933 -1.97592 0
M  V30 2900 C 278.716 -4.03289 -1.5486 0
M  V30 2901 C 277.851 -4.55988 -2.72485 0
M  V30 2902 C 276.89 -5.68746 -2.26262 0
M  V30 2903 N 276.027 -6.15938 -3.36994 0
M  V30 2904 H 280.867 -2.9717 -0.222195 0
M  V30 2905 H 278.404 -1.46774 -0.0979422 0
M  V30 2906 H 280.362 -3.18653 -2.69288 0
M  V30 2907 H 278.992 -2.06509 -2.481 0
M  V30 2908 H 278.044 -3.73364 -0.728246 0
M  V30 2909 H 279.356 -4.849 -1.16933 0
M  V30 2910 H 278.51 -4.9391 -3.52332 0
M  V30 2911 H 277.249 -3.73443 -3.13674 0
M  V30 2912 H 276.254 -5.30372 -1.44863 0
M  V30 2913 H 277.479 -6.53095 -1.86127 0
M  V30 2914 H 275.425 -5.36321 -3.77751 0
M  V30 2915 H 275.342 -6.92548 -3.03172 0
M  V30 2916 H 276.61 -6.58511 -4.17114 0
M  V30 2917 N 280.839 0.0985539 -1.57292 0
M  V30 2918 C 282.069 0.815135 -1.8984 0
M  V30 2919 C 282.477 1.7297 -0.766679 0
M  V30 2920 O 281.82 1.81698 0.270483 0
M  V30 2921 C 281.882 1.6842 -3.17608 0
M  V30 2922 C 281.546 0.94182 -4.4719 0
M  V30 2923 C 282.543 0.273212 -5.19182 0
M  V30 2924 C 280.228 0.916927 -4.9386 0
M  V30 2925 C 282.222 -0.410361 -6.36078 0
M  V30 2926 C 279.909 0.229567 -6.10669 0
M  V30 2927 C 280.907 -0.432902 -6.81627 0
M  V30 2928 O 280.595 -1.10925 -7.9621 0
M  V30 2929 H 280.327 0.238501 -0.632529 0
M  V30 2930 H 282.881 0.0812659 -2.05239 0
M  V30 2931 H 281.111 2.46022 -2.98345 0
M  V30 2932 H 282.8 2.27704 -3.36015 0
M  V30 2933 H 283.566 0.283927 -4.84168 0
M  V30 2934 H 279.445 1.42201 -4.3852 0
M  V30 2935 H 282.989 -0.928013 -6.914 0
M  V30 2936 H 278.886 0.216686 -6.45136 0
M  V30 2937 H 279.654 -1.01579 -8.12172 0
M  V30 2938 N 282.317 1.53212 0.369288 0
M  V30 2939 C 283.227 1.82342 1.47609 0
M  V30 2940 C 284.243 0.711532 1.58787 0
M  V30 2941 O 285.419 1.0012 1.74751 0
M  V30 2942 C 282.484 2.00393 2.8292 0
M  V30 2943 C 281.545 3.24297 2.81301 0
M  V30 2944 C 280.778 3.41478 4.10157 0
M  V30 2945 O 281.001 2.63033 5.06132 0
M  V30 2946 O 279.935 4.34817 4.16194 0
M  V30 2947 H 283.761 2.76366 1.25918 0
M  V30 2948 H 281.346 1.38547 0.559034 0
M  V30 2949 H 283.228 2.13859 3.63101 0
M  V30 2950 H 281.903 1.09559 3.04596 0
M  V30 2951 H 280.81 3.16257 1.99831 0
M  V30 2952 H 282.143 4.15041 2.64578 0
M  V30 2953 N 283.795 -0.628877 1.44509 0
M  V30 2954 C 285.023 -1.41554 1.50897 0
M  V30 2955 C 285.438 -1.8832 0.134564 0
M  V30 2956 O 284.795 -1.60969 -0.859965 0
M  V30 2957 C 284.846 -2.63435 2.47556 0
M  V30 2958 O 284.567 -2.18619 3.79654 0
M  V30 2959 C 286.068 -3.56537 2.63431 0
M  V30 2960 H 283.288 -0.434044 0.511709 0
M  V30 2961 H 285.832 -0.768895 1.89495 0
M  V30 2962 H 283.987 -3.24187 2.12089 0
M  V30 2963 H 284.401 -2.97652 4.31861 0
M  V30 2964 H 285.875 -4.38657 3.35088 0
M  V30 2965 H 286.352 -4.05493 1.68738 0
M  V30 2966 H 286.958 -3.01653 2.9981 0
M  V30 2967 N 285.273 -1.31445 -0.869486 0
M  V30 2968 C 286.22 -1.19135 -1.97675 0
M  V30 2969 C 287.19 -0.0770266 -1.65921 0
M  V30 2970 O 288.375 -0.249972 -1.89155 0
M  V30 2971 C 285.515 -0.905149 -3.33018 0
M  V30 2972 C 284.628 -2.10285 -3.77365 0
M  V30 2973 C 283.763 -1.75339 -5.01427 0
M  V30 2974 C 282.802 -2.91515 -5.38224 0
M  V30 2975 N 281.939 -2.56762 -6.53466 0
M  V30 2976 H 286.779 -2.13853 -2.07535 0
M  V30 2977 H 284.316 -1.06379 -1.01597 0
M  V30 2978 H 286.274 -0.719765 -4.10944 0
M  V30 2979 H 284.904 0.00519624 -3.228 0
M  V30 2980 H 283.956 -2.39899 -2.95216 0
M  V30 2981 H 285.268 -2.97237 -4.00564 0
M  V30 2982 H 284.422 -1.53266 -5.87022 0
M  V30 2983 H 283.161 -0.855801 -4.80133 0
M  V30 2984 H 282.166 -3.14237 -4.51149 0
M  V30 2985 H 283.391 -3.81985 -5.61484 0
M  V30 2986 H 281.337 -1.69526 -6.33717 0
M  V30 2987 H 281.254 -3.37243 -6.76612 0
M  V30 2988 H 282.522 -2.38083 -7.42251 0
M  V30 2989 N 286.751 1.08385 -1.14413 0
M  V30 2990 C 287.997 1.81044 -0.913834 0
M  V30 2991 C 288.33 1.86004 0.558209 0
M  V30 2992 O 287.605 1.33606 1.4135 0
M  V30 2993 C 287.888 3.26648 -1.51569 0
M  V30 2994 C 287.741 3.29895 -3.0576 0
M  V30 2995 C 289.06 4.23629 -1.19273 0
M  V30 2996 H 286.179 0.65727 -0.333414 0
M  V30 2997 H 288.821 1.26896 -1.41412 0
M  V30 2998 H 286.971 3.72889 -1.09023 0
M  V30 2999 H 288.643 2.91977 -3.57137 0
M  V30 3000 H 286.886 2.69163 -3.40197 0
M  V30 3001 H 287.557 4.32516 -3.42977 0
M  V30 3002 H 290.033 3.85727 -1.56057 0
M  V30 3003 H 288.909 5.23822 -1.64017 0
M  V30 3004 H 289.17 4.41968 -0.108068 0
M  V30 3005 N 288.23 0.939286 1.26551 0
M  V30 3006 C 289.18 0.418284 2.2413 0
M  V30 3007 C 290.164 -0.483935 1.5345 0
M  V30 3008 O 291.356 -0.319489 1.74093 0
M  V30 3009 C 288.485 -0.31709 3.41832 0
M  V30 3010 C 287.571 0.602311 4.19801 0
M  V30 3011 N 287.962 1.72726 4.75394 0
M  V30 3012 C 286.26 0.407534 4.44134 0
M  V30 3013 C 286.961 2.30004 5.34297 0
M  V30 3014 N 285.937 1.58828 5.1988 0
M  V30 3015 H 289.739 1.27705 2.64705 0
M  V30 3016 H 287.253 0.794929 1.41614 0
M  V30 3017 H 289.25 -0.707364 4.10855 0
M  V30 3018 H 287.91 -1.17264 3.02786 0
M  V30 3019 H 288.921 2.10944 4.72994 0
M  V30 3020 H 285.598 -0.406406 4.15517 0
M  V30 3021 H 286.988 3.24778 5.88191 0
M  V30 3022 N 289.708 -1.40897 0.706093 0
M  V30 3023 C 291.124 -1.55042 0.37869 0
M  V30 3024 C 291.324 -1.67944 -1.11342 0
M  V30 3025 O 290.38 -1.66372 -1.89938 0
M  V30 3026 C 291.693 -2.78398 1.13643 0
M  V30 3027 C 293.241 -2.92206 1.12181 0
M  V30 3028 C 293.716 -4.18463 1.86152 0
M  V30 3029 N 295.207 -4.25443 1.83173 0
M  V30 3030 C 295.942 -5.2202 2.37239 0
M  V30 3031 N 295.438 -6.24563 2.99821 0
M  V30 3032 N 297.231 -5.14033 2.27435 0
M  V30 3033 H 289.382 -1.30769 1.67372 0
M  V30 3034 H 291.645 -0.631653 0.706907 0
M  V30 3035 H 291.351 -2.7511 2.19106 0
M  V30 3036 H 291.225 -3.70228 0.721853 0
M  V30 3037 H 293.612 -2.95004 0.0754171 0
M  V30 3038 H 293.693 -2.01521 1.57554 0
M  V30 3039 H 293.337 -4.16427 2.90776 0
M  V30 3040 H 293.267 -5.08141 1.38206 0
M  V30 3041 H 295.758 -3.51976 1.37556 0
M  V30 3042 H 296.071 -6.94665 3.38616 0
M  V30 3043 H 294.416 -6.25035 3.03902 0
M  V30 3044 H 297.607 -4.3285 1.78208 0
M  V30 3045 H 297.78 -5.89129 2.69873 0
M  V30 3046 N 291.186 -0.45159 -1.50991 0
M  V30 3047 C 292.133 0.352625 -2.2809 0
M  V30 3048 C 293.103 1.0044 -1.32291 0
M  V30 3049 O 294.288 1.02058 -1.6121 0
M  V30 3050 C 291.428 1.43983 -3.13629 0
M  V30 3051 C 290.541 0.804772 -4.24438 0
M  V30 3052 C 289.676 1.86822 -4.97263 0
M  V30 3053 C 288.715 1.21236 -5.99973 0
M  V30 3054 N 287.852 2.2178 -6.66152 0
M  V30 3055 H 292.692 -0.311186 -2.96371 0
M  V30 3056 H 290.229 -0.165308 -1.46168 0
M  V30 3057 H 292.187 2.08161 -3.61559 0
M  V30 3058 H 290.817 2.07307 -2.47434 0
M  V30 3059 H 289.869 0.0509129 -3.80366 0
M  V30 3060 H 291.181 0.286076 -4.97979 0
M  V30 3061 H 290.335 2.58628 -5.48813 0
M  V30 3062 H 289.074 2.42068 -4.23385 0
M  V30 3063 H 288.079 0.479828 -5.47702 0
M  V30 3064 H 289.304 0.667051 -6.75816 0
M  V30 3065 H 287.25 2.76079 -5.95077 0
M  V30 3066 H 287.167 1.74841 -7.35504 0
M  V30 3067 H 288.435 2.93026 -7.22327 0
M  V30 3068 N 292.664 1.56529 -0.183458 0
M  V30 3069 C 293.892 2.01623 0.464285 0
M  V30 3070 C 294.307 1.06366 1.55986 0
M  V30 3071 O 293.664 0.0665398 1.82379 0
M  V30 3072 C 293.715 3.46475 1.03139 0
M  V30 3073 O 293.436 4.38095 -0.0204675 0
M  V30 3074 C 294.937 4.0703 1.75617 0
M  V30 3075 H 292.157 0.660596 0.117704 0
M  V30 3076 H 294.701 2.02451 -0.288751 0
M  V30 3077 H 292.856 3.46383 1.73486 0
M  V30 3078 H 293.27 5.22973 0.399952 0
M  V30 3079 H 294.744 5.10271 2.10542 0
M  V30 3080 H 295.221 3.49819 2.65563 0
M  V30 3081 H 295.827 4.1086 1.09882 0
M  V30 3082 N 294.142 -0.090211 1.57342 0
M  V30 3083 C 295.072 -1.10976 2.05443 0
M  V30 3084 C 296.053 -1.41482 0.944284 0
M  V30 3085 O 297.238 -1.51428 1.21586 0
M  V30 3086 C 294.368 -2.42831 2.48295 0
M  V30 3087 C 293.322 -2.26721 3.63018 0
M  V30 3088 C 292.648 -3.63796 3.91863 0
M  V30 3089 C 293.948 -1.7037 4.93732 0
M  V30 3090 H 295.642 -0.709564 2.9087 0
M  V30 3091 H 293.188 -0.339874 1.39932 0
M  V30 3092 H 295.141 -3.14431 2.80555 0
M  V30 3093 H 293.865 -2.84795 1.59873 0
M  V30 3094 H 292.524 -1.57565 3.31012 0
M  V30 3095 H 292.172 -4.03297 3.00601 0
M  V30 3096 H 291.872 -3.53861 4.69101 0
M  V30 3097 H 293.396 -4.36855 4.26603 0
M  V30 3098 H 294.81 -2.31816 5.24342 0
M  V30 3099 H 293.207 -1.71181 5.75167 0
M  V30 3100 H 294.277 -0.663542 4.80339 0
M  V30 3101 N 295.62 -1.53406 -0.361157 0
M  V30 3102 C 296.568 -1.80832 -1.46296 0
M  V30 3103 C 297.562 -0.677699 -1.55253 0
M  V30 3104 O 298.768 -0.860723 -1.58087 0
M  V30 3105 H 295.143 -0.572627 -0.487445 0
M  V30 3106 H 297.114 -2.73045 -1.20371 0
M  V30 3107 C 295.863 -2.01907 -2.8307 0
M  V30 3108 H 295.186 -2.88349 -2.76938 0
M  V30 3109 H 296.626 -2.25072 -3.59331 0
M  V30 3110 C 295.085 -0.799449 -3.27277 0
M  V30 3111 O 295.615 0.00971761 -4.01699 0
M  V30 3112 N 293.821 -0.621637 -2.83873 0
M  V30 3113 H 293.368 -1.28126 -2.23476 0
M  V30 3114 H 293.326 0.19298 -3.13807 0
M  V30 3115 N 297.098 0.621204 -1.44841 0
M  V30 3116 C 298.509 1.20298 -1.42777 0
M  V30 3117 C 298.86 1.95639 -0.148259 0
M  V30 3118 O 297.985 2.02955 0.750892 0
M  V30 3119 C 298.58 2.1882 -2.58657 0
M  V30 3120 C 297.139 2.72403 -2.59756 0
M  V30 3121 C 296.286 1.4757 -2.34773 0
M  V30 3122 H 299.237 0.411297 -1.53278 0
M  V30 3123 H 299.258 3.01607 -2.31977 0
M  V30 3124 H 298.77 1.63957 -3.51766 0
M  V30 3125 H 296.871 3.31242 -1.70615 0
M  V30 3126 H 296.984 3.17765 -3.58556 0
M  V30 3127 H 295.348 1.76051 -1.8406 0
M  V30 3128 H 296.131 0.945954 -3.3001 0
M  V30 3129 N 298.576 1.31904 0.862503 0
M  V30 3130 C 299.539 1.20131 1.95195 0
M  V30 3131 C 300.539 0.126409 1.60302 0
M  V30 3132 O 301.729 0.376234 1.70089 0
M  V30 3133 C 298.861 0.845691 3.30244 0
M  V30 3134 H 300.054 2.16943 2.07064 0
M  V30 3135 H 297.607 1.15622 1.05172 0
M  V30 3136 H 298.342 -0.120957 3.24074 0
M  V30 3137 H 298.127 1.62276 3.56944 0
M  V30 3138 H 299.617 0.787418 4.10109 0
M  V30 3139 N 300.054 -1.07777 1.14986 0
M  V30 3140 C 301.301 -1.8029 0.922056 0
M  V30 3141 C 301.629 -1.86531 -0.55105 0
M  V30 3142 O 300.884 -1.34189 -1.42449 0
M  V30 3143 C 301.183 -3.25495 1.47608 0
M  V30 3144 C 300.849 -3.39361 2.96893 0
M  V30 3145 C 299.511 -3.42852 3.37647 0
M  V30 3146 C 301.863 -3.42512 3.92854 0
M  V30 3147 C 299.191 -3.47094 4.73015 0
M  V30 3148 C 301.543 -3.4829 5.28088 0
M  V30 3149 C 300.207 -3.50058 5.68345 0
M  V30 3150 H 299.477 -0.659727 0.337404 0
M  V30 3151 H 302.124 -1.26854 1.43459 0
M  V30 3152 H 300.429 -3.81683 0.88463 0
M  V30 3153 H 302.126 -3.80168 1.27568 0
M  V30 3154 H 298.716 -3.37339 2.64387 0
M  V30 3155 H 302.9 -3.3904 3.62444 0
M  V30 3156 H 298.156 -3.46758 5.03556 0
M  V30 3157 H 302.33 -3.49675 6.02246 0
M  V30 3158 H 299.957 -3.53097 6.73221 0
M  V30 3159 N 301.532 -0.945985 -1.26051 0
M  V30 3160 C 302.48 -0.450259 -2.282 0
M  V30 3161 C 303.474 0.47497 -1.62605 0
M  V30 3162 O 304.68 0.352653 -1.76512 0
M  V30 3163 H 301.055 -0.127081 -0.741184 0
M  V30 3164 H 303.026 -1.32422 -2.67408 0
M  V30 3165 C 301.775 0.26467 -3.46691 0
M  V30 3166 H 301.098 -0.438123 -3.97392 0
M  V30 3167 H 302.538 0.575678 -4.20074 0
M  V30 3168 C 300.997 1.48416 -3.02447 0
M  V30 3169 O 301.527 2.58227 -3.07704 0
M  V30 3170 N 299.733 1.34243 -2.57735 0
M  V30 3171 H 299.28 0.448994 -2.53657 0
M  V30 3172 H 299.238 2.15957 -2.28495 0
M  V30 3173 N 303.011 1.40521 -0.713556 0
M  V30 3174 C 303.921 2.34522 -0.0606667 0
M  V30 3175 C 304.937 1.57193 0.74607 0
M  V30 3176 O 306.113 1.89591 0.679493 0
M  V30 3177 C 303.178 3.36081 0.851491 0
M  V30 3178 C 302.239 4.29286 0.0349339 0
M  V30 3179 C 301.472 5.25994 0.903649 0
M  V30 3180 O 301.695 5.28616 2.14292 0
M  V30 3181 O 300.629 6.00918 0.343723 0
M  V30 3182 H 304.455 2.91968 -0.835972 0
M  V30 3183 H 302.04 1.41681 -0.47402 0
M  V30 3184 H 303.922 3.98369 1.37404 0
M  V30 3185 H 302.597 2.81052 1.60598 0
M  V30 3186 H 301.504 3.70289 -0.532633 0
M  V30 3187 H 302.837 4.87462 -0.681287 0
M  V30 3188 N 304.489 0.459591 1.5075 0
M  V30 3189 C 305.717 -0.0973749 2.06671 0
M  V30 3190 C 306.132 -1.34524 1.32472 0
M  V30 3191 O 305.489 -1.7827 0.390634 0
M  V30 3192 C 305.54 -0.39714 3.59312 0
M  V30 3193 O 305.261 0.801214 4.30711 0
M  V30 3194 C 306.762 -1.00234 4.31819 0
M  V30 3195 H 303.982 0.00195854 0.670997 0
M  V30 3196 H 306.526 0.645072 1.94059 0
M  V30 3197 H 304.681 -1.08951 3.71764 0
M  V30 3198 H 305.095 0.538857 5.21725 0
M  V30 3199 H 306.569 -1.16193 5.39632 0
M  V30 3200 H 307.046 -1.98939 3.91561 0
M  V30 3201 H 307.652 -0.348699 4.23868 0
M  V30 3202 N 305.967 -1.56429 0.191757 0
M  V30 3203 C 307.214 -1.97485 -0.447891 0
M  V30 3204 C 307.542 -1.07852 -1.61859 0
M  V30 3205 O 306.797 -0.116903 -1.95351 0
M  V30 3206 C 307.096 -3.44449 -0.953384 0
M  V30 3207 C 306.762 -4.50781 0.103586 0
M  V30 3208 C 305.424 -4.79584 0.394023 0
M  V30 3209 C 307.776 -5.1471 0.819946 0
M  V30 3210 C 305.104 -5.69607 1.40585 0
M  V30 3211 C 307.456 -6.05827 1.8209 0
M  V30 3212 C 306.12 -6.32987 2.11857 0
M  V30 3213 H 305.39 -0.722648 -0.163895 0
M  V30 3214 H 308.037 -1.89322 0.28802 0
M  V30 3215 H 306.342 -3.49666 -1.76751 0
M  V30 3216 H 308.039 -3.73569 -1.45765 0
M  V30 3217 H 304.629 -4.28394 -0.132951 0
M  V30 3218 H 308.813 -4.92552 0.608789 0
M  V30 3219 H 304.069 -5.88926 1.64243 0
M  V30 3220 H 308.243 -6.54424 2.38123 0
M  V30 3221 H 305.87 -7.02544 2.90407 0
M  V30 3222 N 307.445 0.0818655 -1.57387 0
M  V30 3223 C 308.673 0.796108 -1.9097 0
M  V30 3224 C 309.088 1.71626 -0.786757 0
M  V30 3225 O 308.445 1.80908 0.240513 0
M  V30 3226 C 308.496 1.59829 -3.24248 0
M  V30 3227 O 308.217 0.715131 -4.32224 0
M  V30 3228 C 309.718 2.41442 -3.7178 0
M  V30 3229 H 306.938 0.22691 -0.631469 0
M  V30 3230 H 309.482 0.0551439 -2.04426 0
M  V30 3231 H 307.637 2.29163 -3.12351 0
M  V30 3232 H 308.051 1.27205 -5.08841 0
M  V30 3233 H 309.525 2.932 -4.67694 0
M  V30 3234 H 310.002 3.2051 -3.00283 0
M  V30 3235 H 310.608 1.77283 -3.86589 0
M  V30 3236 N 308.923 1.53595 0.353017 0
M  V30 3237 C 310.17 1.70385 1.09431 0
M  V30 3238 C 310.498 0.462113 1.88931 0
M  V30 3239 O 309.753 -0.556074 1.87633 0
M  V30 3240 C 310.052 2.91313 2.07054 0
M  V30 3241 C 309.718 4.27308 1.43939 0
M  V30 3242 C 308.38 4.64287 1.26454 0
M  V30 3243 C 310.732 5.11829 0.983883 0
M  V30 3244 C 308.06 5.83412 0.620226 0
M  V30 3245 C 310.412 6.31611 0.353516 0
M  V30 3246 C 309.076 6.67293 0.166272 0
M  V30 3247 H 308.346 0.623484 0.400436 0
M  V30 3248 H 310.993 1.87799 0.374655 0
M  V30 3249 H 309.298 2.68463 2.85368 0
M  V30 3250 H 310.995 3.01497 2.64387 0
M  V30 3251 H 307.585 3.98198 1.58543 0
M  V30 3252 H 311.769 4.838 1.10685 0
M  V30 3253 H 307.025 6.09639 0.463681 0
M  V30 3254 H 311.199 6.964 -0.00757555 0
M  V30 3255 H 308.826 7.59461 -0.335047 0
M  V30 3256 N 310.401 -0.613514 1.45168 0
M  V30 3257 C 311.348 -1.72456 1.53387 0
M  V30 3258 C 312.318 -1.6169 0.380191 0
M  V30 3259 O 313.503 -1.81356 0.592836 0
M  V30 3260 C 310.643 -3.10753 1.50088 0
M  V30 3261 C 309.756 -3.32368 2.75963 0
M  V30 3262 C 308.891 -4.60737 2.64376 0
M  V30 3263 C 307.93 -4.7559 3.85332 0
M  V30 3264 N 307.067 -5.95253 3.72315 0
M  V30 3265 H 311.907 -1.64768 2.48305 0
M  V30 3266 H 309.444 -0.803503 1.23216 0
M  V30 3267 H 311.402 -3.90758 1.46164 0
M  V30 3268 H 310.032 -3.17413 0.587243 0
M  V30 3269 H 309.084 -2.4618 2.89999 0
M  V30 3270 H 310.396 -3.39218 3.65695 0
M  V30 3271 H 309.55 -5.48928 2.58385 0
M  V30 3272 H 308.289 -4.56275 1.72233 0
M  V30 3273 H 307.294 -3.85824 3.91688 0
M  V30 3274 H 308.519 -4.81854 4.78533 0
M  V30 3275 H 306.465 -5.91847 2.82937 0
M  V30 3276 H 306.382 -6.03236 4.55677 0
M  V30 3277 H 307.65 -6.85958 3.70246 0
M  V30 3278 N 311.879 -1.3236 -0.855495 0
M  V30 3279 C 313.125 -1.23054 -1.612 0
M  V30 3280 C 313.458 0.207404 -1.93089 0
M  V30 3281 O 312.733 1.14432 -1.57275 0
M  V30 3282 C 313.016 -2.08937 -2.93287 0
M  V30 3283 C 312.869 -3.61105 -2.68185 0
M  V30 3284 C 314.188 -1.94986 -3.94549 0
M  V30 3285 H 311.307 -0.448364 -0.584926 0
M  V30 3286 H 313.949 -1.62297 -0.987917 0
M  V30 3287 H 312.099 -1.75599 -3.46551 0
M  V30 3288 H 313.771 -4.04652 -2.21483 0
M  V30 3289 H 312.014 -3.83813 -2.02164 0
M  V30 3290 H 312.685 -4.16522 -3.62234 0
M  V30 3291 H 315.161 -2.24189 -3.5054 0
M  V30 3292 H 314.037 -2.57356 -4.84829 0
M  V30 3293 H 314.298 -0.917263 -4.3248 0
M  V30 3294 N 313.357 1.07166 -1.15556 0
M  V30 3295 C 314.768 1.6127 -0.940693 0
M  V30 3296 C 315.119 1.89251 0.517551 0
M  V30 3297 O 314.244 1.65937 1.38903 0
M  V30 3298 C 314.839 2.92993 -1.7012 0
M  V30 3299 C 313.398 3.43832 -1.53156 0
M  V30 3300 C 312.545 2.1786 -1.71558 0
M  V30 3301 H 315.496 0.90229 -1.30554 0
M  V30 3302 H 315.517 3.62007 -1.17181 0
M  V30 3303 H 315.029 2.72596 -2.76248 0
M  V30 3304 H 313.13 3.69307 -0.494294 0
M  V30 3305 H 313.243 4.19747 -2.30975 0
M  V30 3306 H 311.607 2.2765 -1.14225 0
M  V30 3307 H 312.39 1.99956 -2.79056 0
M  V30 3308 N 314.835 0.952656 1.25548 0
M  V30 3309 C 316.065 0.622592 1.96996 0
M  V30 3310 C 316.473 -0.809112 1.71026 0
M  V30 3311 O 315.816 -1.55258 0.981861 0
M  V30 3312 C 315.878 0.798946 3.5051 0
M  V30 3313 C 315.542 2.20744 4.00151 0
M  V30 3314 C 316.539 3.18394 4.11001 0
M  V30 3315 C 314.224 2.5311 4.33867 0
M  V30 3316 C 316.218 4.46504 4.54877 0
M  V30 3317 C 313.905 3.8145 4.7743 0
M  V30 3318 C 314.903 4.77959 4.87897 0
M  V30 3319 O 314.591 6.04012 5.30494 0
M  V30 3320 H 314.323 0.232503 0.634758 0
M  V30 3321 H 316.877 1.2789 1.60728 0
M  V30 3322 H 315.107 0.0854903 3.86605 0
M  V30 3323 H 316.796 0.47023 4.03167 0
M  V30 3324 H 317.562 2.94715 3.85186 0
M  V30 3325 H 313.441 1.78719 4.24948 0
M  V30 3326 H 316.985 5.21835 4.62962 0
M  V30 3327 H 312.882 4.04936 5.0269 0
M  V30 3328 H 313.65 6.0736 5.48685 0
M  V30 3329 N 316.313 -1.40141 0.720998 0
M  V30 3330 C 317.245 -2.29177 0.0324669 0
M  V30 3331 C 318.258 -1.46105 -0.718126 0
M  V30 3332 O 319.447 -1.69335 -0.564608 0
M  V30 3333 C 316.547 -3.24473 -0.978292 0
M  V30 3334 C 315.72 -4.36423 -0.292115 0
M  V30 3335 C 314.779 -5.12122 -1.20901 0
M  V30 3336 O 313.805 -5.64981 -0.691766 0
M  V30 3337 N 315.007 -5.21992 -2.53978 0
M  V30 3338 H 317.772 -2.88909 0.796984 0
M  V30 3339 H 315.333 -1.51569 0.569068 0
M  V30 3340 H 317.325 -3.71987 -1.59398 0
M  V30 3341 H 315.895 -2.65871 -1.64413 0
M  V30 3342 H 315.115 -3.90967 0.503847 0
M  V30 3343 H 316.403 -5.08467 0.183971 0
M  V30 3344 H 315.801 -4.8054 -2.98493 0
M  V30 3345 H 314.358 -5.72995 -3.10677 0
M  V30 3346 N 317.792 -0.46758 -1.50504 0
M  V30 3347 C 318.702 0.33382 -2.32213 0
M  V30 3348 C 319.718 0.999323 -1.42441 0
M  V30 3349 O 320.894 0.988068 -1.75497 0
M  V30 3350 C 317.959 1.4035 -3.17022 0
M  V30 3351 C 317.02 0.754961 -4.2261 0
M  V30 3352 C 316.253 1.77367 -5.03365 0
M  V30 3353 O 316.476 2.99976 -4.8515 0
M  V30 3354 O 315.41 1.34744 -5.86624 0
M  V30 3355 H 319.236 -0.334067 -3.01857 0
M  V30 3356 H 316.821 -0.229496 -1.47627 0
M  V30 3357 H 318.703 2.02318 -3.69656 0
M  V30 3358 H 317.378 2.05492 -2.5011 0
M  V30 3359 H 316.285 0.0964244 -3.73976 0
M  V30 3360 H 317.618 0.146545 -4.91982 0
M  V30 3361 N 319.27 1.56325 -0.20005 0
M  V30 3362 C 320.2 2.22318 0.713916 0
M  V30 3363 C 321.181 1.18788 1.21752 0
M  V30 3364 O 322.366 1.47309 1.26545 0
M  V30 3365 C 319.496 2.88639 1.93144 0
M  V30 3366 C 318.45 3.98457 1.56255 0
M  V30 3367 C 317.776 4.51967 2.85709 0
M  V30 3368 C 319.076 5.16612 0.768747 0
M  V30 3369 H 320.77 2.98952 0.163755 0
M  V30 3370 H 318.316 1.43792 0.0773219 0
M  V30 3371 H 320.269 3.33491 2.57608 0
M  V30 3372 H 318.993 2.09419 2.50621 0
M  V30 3373 H 317.652 3.54305 0.941471 0
M  V30 3374 H 317.3 3.69503 3.41287 0
M  V30 3375 H 317 5.26071 2.6177 0
M  V30 3376 H 318.524 4.99523 3.51154 0
M  V30 3377 H 319.938 5.57977 1.3166 0
M  V30 3378 H 318.335 5.96812 0.627286 0
M  V30 3379 H 319.405 4.84358 -0.229168 0
M  V30 3380 N 320.748 -0.0735177 1.57428 0
M  V30 3381 C 321.996 -0.771472 1.86796 0
M  V30 3382 C 322.317 -1.78201 0.791804 0
M  V30 3383 O 321.587 -1.95074 -0.179718 0
M  V30 3384 H 320.167 -0.28791 0.689287 0
M  V30 3385 H 322.829 -0.0500161 1.94836 0
M  V30 3386 H 321.925 -1.28874 2.8425 0
M  V30 3387 N 322.226 -1.5378 -0.344866 0
M  V30 3388 C 323.474 -1.70625 -1.08311 0
M  V30 3389 C 323.795 -0.471447 -1.89215 0
M  V30 3390 O 323.065 0.514616 -1.8902 0
M  V30 3391 H 321.645 -0.629058 -0.402859 0
M  V30 3392 H 324.307 -1.9103 -0.386459 0
M  V30 3393 H 323.403 -2.57656 -1.76124 0
M  V30 3394 N 323.704 0.605807 -1.45491 0
M  V30 3395 C 324.651 1.7164 -1.54299 0
M  V30 3396 C 325.621 1.61486 -0.388761 0
M  V30 3397 O 326.806 1.81039 -0.602445 0
M  V30 3398 C 323.946 3.09953 -1.51734 0
M  V30 3399 C 323.059 3.309 -2.77721 0
M  V30 3400 C 322.194 4.59329 -2.66816 0
M  V30 3401 C 321.233 4.7354 -3.87848 0
M  V30 3402 N 320.37 5.9327 -3.75467 0
M  V30 3403 H 325.21 1.63449 -2.49176 0
M  V30 3404 H 322.747 0.796957 -1.23641 0
M  V30 3405 H 324.705 3.89977 -1.48235 0
M  V30 3406 H 323.335 3.17098 -0.604068 0
M  V30 3407 H 322.387 2.44639 -2.913 0
M  V30 3408 H 323.699 3.37274 -3.67488 0
M  V30 3409 H 322.853 5.4755 -2.61292 0
M  V30 3410 H 321.592 4.55355 -1.74651 0
M  V30 3411 H 320.597 3.83741 -3.93729 0
M  V30 3412 H 321.822 4.79309 -4.81082 0
M  V30 3413 H 319.768 5.90338 -2.86072 0
M  V30 3414 H 319.685 6.00811 -4.5887 0
M  V30 3415 H 320.953 6.83984 -3.73879 0
M  V30 3416 N 325.182 1.32811 0.848464 0
M  V30 3417 C 326.41 1.26739 1.63538 0
M  V30 3418 C 326.825 -0.163484 1.88091 0
M  V30 3419 O 326.182 -1.10258 1.45429 0
M  V30 3420 C 326.233 2.03013 2.99112 0
M  V30 3421 O 325.954 3.40518 2.75643 0
M  V30 3422 C 327.455 2.04038 3.93552 0
M  V30 3423 H 324.675 0.437024 0.509167 0
M  V30 3424 H 327.219 1.75033 1.05753 0
M  V30 3425 H 325.374 1.58426 3.53525 0
M  V30 3426 H 325.788 3.79635 3.61908 0
M  V30 3427 H 327.262 2.61877 4.85926 0
M  V30 3428 H 327.739 1.0282 4.26995 0
M  V30 3429 H 328.345 2.486 3.45077 0
M  V30 3430 N 326.66 -1.06551 1.16123 0
M  V30 3431 C 327.59 -2.15935 0.88851 0
M  V30 3432 C 328.571 -1.69306 -0.164135 0
M  V30 3433 O 329.756 -1.94193 -0.0167857 0
M  V30 3434 C 326.886 -3.45149 0.385942 0
M  V30 3435 C 325.84 -4.05271 1.3762 0
M  V30 3436 C 325.166 -5.29664 0.732137 0
M  V30 3437 C 326.466 -4.44355 2.74493 0
M  V30 3438 H 328.16 -2.39006 1.80323 0
M  V30 3439 H 325.706 -1.14866 0.868435 0
M  V30 3440 H 327.659 -4.21004 0.182647 0
M  V30 3441 H 326.383 -3.21689 -0.564274 0
M  V30 3442 H 325.042 -3.3147 1.56599 0
M  V30 3443 H 324.69 -5.02499 -0.224483 0
M  V30 3444 H 324.39 -5.70848 1.39307 0
M  V30 3445 H 325.914 -6.08218 0.538802 0
M  V30 3446 H 327.328 -5.11303 2.59311 0
M  V30 3447 H 325.725 -4.96515 3.37035 0
M  V30 3448 H 326.795 -3.55339 3.29943 0
M  V30 3449 N 328.138 -0.959301 -1.25041 0
M  V30 3450 C 329.384 -0.617525 -1.9317 0
M  V30 3451 C 329.717 0.843981 -1.74902 0
M  V30 3452 O 328.992 1.60615 -1.09696 0
M  V30 3453 C 329.275 -0.982736 -3.46431 0
M  V30 3454 C 329.128 -2.50032 -3.73904 0
M  V30 3455 C 330.447 -0.511176 -4.37121 0
M  V30 3456 H 327.566 -0.22582 -0.701552 0
M  V30 3457 H 330.208 -1.19679 -1.4757 0
M  V30 3458 H 328.358 -0.489806 -3.854 0
M  V30 3459 H 330.03 -3.06737 -3.44544 0
M  V30 3460 H 328.273 -2.93598 -3.19348 0
M  V30 3461 H 328.944 -2.70635 -4.81103 0
M  V30 3462 H 331.42 -0.934075 -4.0548 0
M  V30 3463 H 330.296 -0.795361 -5.43107 0
M  V30 3464 H 330.557 0.588834 -4.38161 0
M  V30 3465 N 329.616 1.39756 -0.72842 0
M  V30 3466 C 330.549 2.28176 -0.0330172 0
M  V30 3467 C 331.527 1.44035 0.754501 0
M  V30 3468 O 332.711 1.73434 0.738445 0
M  V30 3469 C 329.838 3.24795 0.960504 0
M  V30 3470 C 328.884 4.25693 0.262264 0
M  V30 3471 S 329.717 5.25714 -1.01906 0
M  V30 3472 C 330.873 6.25894 -0.0279717 0
M  V30 3473 H 331.106 2.86807 -0.78287 0
M  V30 3474 H 328.639 1.45382 -0.519951 0
M  V30 3475 H 330.597 3.80983 1.52846 0
M  V30 3476 H 329.258 2.65196 1.68315 0
M  V30 3477 H 328.451 4.93699 1.01379 0
M  V30 3478 H 328.053 3.7327 -0.233482 0
M  V30 3479 H 330.345 6.72585 0.814621 0
M  V30 3480 H 331.288 7.04876 -0.67499 0
M  V30 3481 H 331.696 5.63466 0.341489 0
M  V30 3482 N 331.094 0.475555 1.50254 0
M  V30 3483 C 332.057 -0.305016 2.27161 0
M  V30 3484 C 333.057 -0.916519 1.32123 0
M  V30 3485 O 334.247 -0.785003 1.5551 0
M  V30 3486 C 331.379 -1.43496 3.09227 0
M  V30 3487 H 332.572 0.369511 2.97615 0
M  V30 3488 H 330.125 0.229747 1.54602 0
M  V30 3489 H 330.86 -2.14441 2.43281 0
M  V30 3490 H 330.645 -1.00223 3.79075 0
M  V30 3491 H 332.135 -1.98548 3.67381 0
M  V30 3492 N 332.573 -1.56217 0.208337 0
M  V30 3493 C 333.822 -1.97124 -0.427204 0
M  V30 3494 C 334.135 -1.09859 -1.61835 0
M  V30 3495 O 335.341 -1.40606 -2.32255 0
M  V30 3496 C 333.797 -3.50633 -0.811442 0
M  V30 3497 C 333.405 -4.46582 0.35615 0
M  V30 3498 C 335.149 -4.00282 -1.41332 0
M  V30 3499 C 333.056 -5.91379 -0.0497852 0
M  V30 3500 H 331.986 -0.736086 -0.163381 0
M  V30 3501 H 334.637 -1.8099 0.302456 0
M  V30 3502 H 333.019 -3.62319 -1.59815 0
M  V30 3503 H 334.193 -4.46636 1.1337 0
M  V30 3504 H 332.508 -4.07202 0.870396 0
M  V30 3505 H 335.105 -5.0595 -1.72972 0
M  V30 3506 H 335.448 -3.45359 -2.32449 0
M  V30 3507 H 335.981 -3.91764 -0.690323 0
M  V30 3508 H 332.72 -6.50255 0.827529 0
M  V30 3509 H 332.24 -5.94549 -0.791926 0
M  V30 3510 H 333.919 -6.45209 -0.481042 0
M  V30 3511 N 334.051 0.0651679 -1.57465 0
M  V30 3512 C 335.281 0.774683 -1.91526 0
M  V30 3513 C 335.689 1.71305 -0.803196 0
M  V30 3514 O 335.032 1.82231 0.231881 0
M  V30 3515 C 335.094 1.61645 -3.21109 0
M  V30 3516 C 334.758 0.846753 -4.49087 0
M  V30 3517 C 335.755 0.163024 -5.19644 0
M  V30 3518 C 333.44 0.811966 -4.95694 0
M  V30 3519 C 335.434 -0.54519 -6.35064 0
M  V30 3520 C 333.121 0.0999836 -6.11018 0
M  V30 3521 C 334.119 -0.577388 -6.80555 0
M  V30 3522 O 333.807 -1.27789 -7.93678 0
M  V30 3523 H 333.539 0.225031 -0.637446 0
M  V30 3524 H 336.093 0.0377134 -2.05365 0
M  V30 3525 H 334.323 2.39638 -3.03497 0
M  V30 3526 H 336.012 2.20525 -3.40769 0
M  V30 3527 H 336.778 0.181163 -4.84662 0
M  V30 3528 H 332.657 1.32867 -4.41438 0
M  V30 3529 H 336.201 -1.07446 -6.89276 0
M  V30 3530 H 332.098 0.0797945 -6.45451 0
M  V30 3531 H 332.866 -1.18784 -8.09835 0
M  V30 3532 N 335.529 1.53961 0.336706 0
M  V30 3533 C 336.806 1.62171 1.09361 0
M  V30 3534 C 337.186 0.447263 2.06307 0
M  V30 3535 O 336.534 -0.559802 2.21537 0
M  V30 3536 C 336.744 2.98565 1.80721 0
M  V30 3537 C 338.092 3.54157 2.34218 0
M  V30 3538 O 339.116 3.00784 1.90807 0
M  V30 3539 O 337.975 4.47528 3.13657 0
M  V30 3540 H 335.069 0.6562 0.503319 0
M  V30 3541 H 337.615 1.66307 0.33765 0
M  V30 3542 H 336.387 3.75482 1.10132 0
M  V30 3543 H 336.01 2.9805 2.63158 0
M  V30 3544 N 337.007 -0.598083 1.45811 0
M  V30 3545 C 338.254 -1.35681 1.50323 0
M  V30 3546 C 338.582 -1.9393 0.148739 0
M  V30 3547 O 337.837 -1.76094 -0.853787 0
M  V30 3548 C 338.136 -2.51669 2.53766 0
M  V30 3549 C 337.802 -2.11508 3.98215 0
M  V30 3550 C 336.464 -2.0027 4.37545 0
M  V30 3551 C 338.816 -1.80308 4.89018 0
M  V30 3552 C 336.144 -1.56067 5.65562 0
M  V30 3553 C 338.496 -1.37589 6.17456 0
M  V30 3554 C 337.16 -1.24916 6.55708 0
M  V30 3555 H 336.43 -0.496492 0.550069 0
M  V30 3556 H 339.077 -0.675052 1.79207 0
M  V30 3557 H 337.382 -3.25225 2.18486 0
M  V30 3558 H 339.079 -3.09895 2.54492 0
M  V30 3559 H 335.669 -2.21185 3.67117 0
M  V30 3560 H 339.853 -1.87884 4.59362 0
M  V30 3561 H 335.109 -1.44886 5.93985 0
M  V30 3562 H 339.283 -1.12495 6.87254 0
M  V30 3563 H 336.91 -0.904386 7.54801 0
M  V30 3564 N 338.485 -1.33259 -0.841409 0
M  V30 3565 C 339.762 -1.15174 -1.58096 0
M  V30 3566 C 340.142 0.282858 -2.09196 0
M  V30 3567 O 339.49 1.28151 -1.89181 0
M  V30 3568 C 339.7 -2.1907 -2.71679 0
M  V30 3569 C 341.048 -2.53093 -3.40924 0
M  V30 3570 O 342.072 -2.17717 -2.81918 0
M  V30 3571 O 340.931 -3.1379 -4.47435 0
M  V30 3572 H 338.025 -0.445303 -0.696875 0
M  V30 3573 H 340.571 -1.44833 -0.884385 0
M  V30 3574 H 339.343 -3.15443 -2.31541 0
M  V30 3575 H 338.966 -1.90481 -3.49002 0
M  V30 3576 N 339.963 1.05934 -1.16686 0
M  V30 3577 C 341.379 1.30938 -0.912542 0
M  V30 3578 C 341.579 1.96803 0.432533 0
M  V30 3579 O 340.635 2.23693 1.17123 0
M  V30 3580 C 341.948 2.18649 -2.06429 0
M  V30 3581 C 343.496 2.32055 -2.10047 0
M  V30 3582 C 343.971 3.23122 -3.24586 0
M  V30 3583 N 345.462 3.30706 -3.24327 0
M  V30 3584 C 346.197 4.01273 -4.09594 0
M  V30 3585 N 345.693 4.74332 -5.04956 0
M  V30 3586 N 347.486 3.97361 -3.97569 0
M  V30 3587 H 339.637 0.615777 -2.03278 0
M  V30 3588 H 341.9 0.334077 -0.887185 0
M  V30 3589 H 341.606 1.77534 -3.03603 0
M  V30 3590 H 341.48 3.19252 -2.00894 0
M  V30 3591 H 343.867 2.72415 -1.13464 0
M  V30 3592 H 343.948 1.31107 -2.19647 0
M  V30 3593 H 343.592 2.83477 -4.2143 0
M  V30 3594 H 343.522 4.24057 -3.12223 0
M  V30 3595 H 346.013 2.78644 -2.55276 0
M  V30 3596 H 346.326 5.25716 -5.6643 0
M  V30 3597 H 344.671 4.733 -5.08933 0
M  V30 3598 H 347.862 3.39405 -3.22369 0
M  V30 3599 H 348.035 4.52089 -4.64241 0
M  V30 3600 N 341.441 0.965919 1.2453 0
M  V30 3601 C 342.688 0.626831 1.92554 0
M  V30 3602 C 343.016 -0.837739 1.75534 0
M  V30 3603 O 342.271 -1.61793 1.10098 0
M  V30 3604 C 342.57 0.945428 3.44669 0
M  V30 3605 C 342.236 2.39785 3.81856 0
M  V30 3606 C 340.898 2.79483 3.91718 0
M  V30 3607 C 343.25 3.34055 4.00071 0
M  V30 3608 C 340.578 4.12496 4.1721 0
M  V30 3609 C 342.93 4.66694 4.27059 0
M  V30 3610 C 341.594 5.06172 4.3514 0
M  V30 3611 H 340.864 0.229374 0.704605 0
M  V30 3612 H 343.511 1.21707 1.4785 0
M  V30 3613 H 341.816 0.272926 3.90848 0
M  V30 3614 H 343.513 0.661484 3.95507 0
M  V30 3615 H 340.103 2.08003 3.74743 0
M  V30 3616 H 344.287 3.04571 3.91855 0
M  V30 3617 H 339.543 4.42709 4.21685 0
M  V30 3618 H 343.717 5.3971 4.40097 0
M  V30 3619 H 341.344 6.09262 4.54646 0
M  V30 3620 N 342.919 -1.39368 0.735821 0
M  V30 3621 C 344.144 -2.05319 0.293052 0
M  V30 3622 C 344.569 -1.55115 -1.064 0
M  V30 3623 O 343.927 -0.695261 -1.67439 0
M  V30 3624 C 343.975 -3.59305 0.305323 0
M  V30 3625 O 343.079 -4.06299 -0.706761 0
M  V30 3626 H 342.42 -0.650529 0.13307 0
M  V30 3627 H 344.95 -1.78386 1.00197 0
M  V30 3628 H 344.96 -4.07724 0.149997 0
M  V30 3629 H 343.635 -3.95207 1.29553 0
M  V30 3630 H 342.212 -3.69292 -0.517504 0
M  V30 3631 N 344.397 -0.483516 -1.5 0
M  V30 3632 C 345.344 0.304164 -2.28787 0
M  V30 3633 C 346.314 0.976114 -1.34392 0
M  V30 3634 O 347.499 0.986156 -1.63339 0
M  V30 3635 C 344.639 1.37298 -3.16612 0
M  V30 3636 C 343.752 0.714561 -4.26049 0
M  V30 3637 C 342.887 1.76232 -5.01114 0
M  V30 3638 C 341.926 1.08483 -6.0241 0
M  V30 3639 N 341.063 2.076 -6.70706 0
M  V30 3640 H 345.903 -0.373981 -2.95644 0
M  V30 3641 H 343.44 -0.196275 -1.45785 0
M  V30 3642 H 345.398 2.00445 -3.65893 0
M  V30 3643 H 344.028 2.02012 -2.51776 0
M  V30 3644 H 343.08 -0.0297798 -3.80388 0
M  V30 3645 H 344.392 0.180383 -4.98474 0
M  V30 3646 H 343.546 2.46929 -5.54176 0
M  V30 3647 H 342.285 2.33033 -4.28424 0
M  V30 3648 H 341.29 0.363545 -5.48597 0
M  V30 3649 H 342.515 0.523551 -6.77079 0
M  V30 3650 H 340.461 2.63394 -6.00799 0
M  V30 3651 H 340.378 1.59201 -7.39047 0
M  V30 3652 H 341.646 2.77639 -7.2838 0
M  V30 3653 N 345.875 1.56104 -0.216619 0
M  V30 3654 C 346.825 2.16703 0.708798 0
M  V30 3655 C 347.809 1.11392 1.16106 0
M  V30 3656 O 349.001 1.37395 1.11587 0
M  V30 3657 C 346.13 2.84666 1.91886 0
M  V30 3658 C 345.216 3.97195 1.48651 0
M  V30 3659 N 345.607 4.99959 0.766434 0
M  V30 3660 C 343.905 4.09193 1.77418 0
M  V30 3661 C 344.606 5.79126 0.546659 0
M  V30 3662 N 343.582 5.32315 1.10188 0
M  V30 3663 H 347.384 2.93516 0.150162 0
M  V30 3664 H 344.898 1.6239 -0.0176768 0
M  V30 3665 H 346.895 3.26486 2.59253 0
M  V30 3666 H 345.555 2.09347 2.48202 0
M  V30 3667 H 346.566 5.16197 0.419634 0
M  V30 3668 H 343.243 3.45021 2.35088 0
M  V30 3669 H 344.633 6.71895 -0.026103 0
M  V30 3670 N 347.353 -0.0568162 1.57498 0
M  V30 3671 C 348.63 -0.786954 1.79071 0
M  V30 3672 C 349.01 -1.95028 0.80792 0
M  V30 3673 O 348.358 -2.27968 -0.155858 0
M  V30 3674 C 348.568 -1.24594 3.26002 0
M  V30 3675 C 349.916 -1.67323 3.90241 0
M  V30 3676 O 350.94 -1.34124 3.29984 0
M  V30 3677 O 349.799 -2.28842 4.9628 0
M  V30 3678 H 346.893 -0.378262 0.735423 0
M  V30 3679 H 349.439 -0.035734 1.69662 0
M  V30 3680 H 348.211 -0.41423 3.89101 0
M  V30 3681 H 347.834 -2.05803 3.40192 0
M  V30 3682 N 348.832 -1.54138 -0.328536 0
M  V30 3683 C 350.081 -1.71318 -1.06456 0
M  V30 3684 C 350.394 -0.491109 -1.89334 0
M  V30 3685 O 351.6 -0.54416 -2.65991 0
M  V30 3686 C 350.056 -3.03 -1.94214 0
M  V30 3687 C 349.664 -4.32595 -1.16471 0
M  V30 3688 C 351.408 -3.29544 -2.67583 0
M  V30 3689 C 349.315 -5.55341 -2.03347 0
M  V30 3690 H 348.245 -0.638429 -0.401155 0
M  V30 3691 H 350.896 -1.80633 -0.323106 0
M  V30 3692 H 349.278 -2.87579 -2.72239 0
M  V30 3693 H 350.452 -4.58766 -0.432525 0
M  V30 3694 H 348.767 -4.12777 -0.548063 0
M  V30 3695 H 351.364 -4.18444 -3.3288 0
M  V30 3696 H 351.707 -2.47206 -3.34955 0
M  V30 3697 H 352.24 -3.45809 -1.96623 0
M  V30 3698 H 348.979 -6.40268 -1.40491 0
M  V30 3699 H 348.499 -5.33397 -2.74313 0
M  V30 3700 H 350.178 -5.91557 -2.62049 0
M  V30 3701 N 350.31 0.590341 -1.46126 0
M  V30 3702 C 351.559 1.34499 -1.50309 0
M  V30 3703 C 351.872 1.94977 -0.156021 0
M  V30 3704 O 353.078 2.71395 -0.0756037 0
M  V30 3705 C 351.534 2.43723 -2.64815 0
M  V30 3706 C 351.142 1.89582 -4.0591 0
M  V30 3707 C 352.886 3.20579 -2.78262 0
M  V30 3708 C 350.793 2.9639 -5.11769 0
M  V30 3709 H 349.723 0.505593 -0.559368 0
M  V30 3710 H 352.374 0.630848 -1.72315 0
M  V30 3711 H 350.756 3.17902 -2.36124 0
M  V30 3712 H 351.93 1.21997 -4.44357 0
M  V30 3713 H 350.245 1.25418 -3.97063 0
M  V30 3714 H 352.842 4.00276 -3.54519 0
M  V30 3715 H 353.185 3.72684 -1.85505 0
M  V30 3716 H 353.718 2.53505 -3.06562 0
M  V30 3717 H 350.457 2.49181 -6.06291 0
M  V30 3718 H 349.977 3.62487 -4.77873 0
M  V30 3719 H 351.656 3.60474 -5.37278 0
M  V30 3720 N 351.788 1.33704 0.83433 0
M  V30 3721 C 353.036 1.25169 1.58673 0
M  V30 3722 C 353.357 -0.18127 1.94156 0
M  V30 3723 O 352.627 -1.11113 1.6134 0
M  V30 3724 H 351.207 0.4603 0.58833 0
M  V30 3725 H 353.869 1.67478 0.996847 0
M  V30 3726 H 352.965 1.84856 2.51465 0
M  V30 3727 N 353.266 -1.05314 1.17247 0
M  V30 3728 C 354.176 -2.16538 0.90268 0
M  V30 3729 C 355.192 -1.73523 -0.128707 0
M  V30 3730 O 356.368 -2.01337 0.0502701 0
M  V30 3731 C 353.433 -3.44167 0.418356 0
M  V30 3732 C 352.494 -4.01635 1.51618 0
M  V30 3733 C 351.727 -5.23171 1.05487 0
M  V30 3734 O 351.95 -5.70327 -0.0914715 0
M  V30 3735 O 350.884 -5.72848 1.8474 0
M  V30 3736 H 354.71 -2.42145 1.83302 0
M  V30 3737 H 352.295 -1.15037 0.953246 0
M  V30 3738 H 354.177 -4.21112 0.155726 0
M  V30 3739 H 352.852 -3.20063 -0.48385 0
M  V30 3740 H 351.759 -3.26135 1.83268 0
M  V30 3741 H 353.092 -4.30053 2.39405 0
M  V30 3742 N 354.744 -0.972509 -1.24016 0
M  V30 3743 C 355.99 -0.637978 -1.92504 0
M  V30 3744 C 356.323 0.825383 -1.75787 0
M  V30 3745 O 355.598 1.59442 -1.11393 0
M  V30 3746 C 355.881 -1.01942 -3.45369 0
M  V30 3747 C 355.734 -2.53983 -3.71231 0
M  V30 3748 C 357.053 -0.55751 -4.36555 0
M  V30 3749 H 354.172 -0.233248 -0.699117 0
M  V30 3750 H 356.814 -1.21238 -1.46292 0
M  V30 3751 H 354.964 -0.530656 -3.84859 0
M  V30 3752 H 356.636 -3.10374 -3.41271 0
M  V30 3753 H 354.879 -2.96968 -3.16216 0
M  V30 3754 H 355.55 -2.75723 -4.78206 0
M  V30 3755 H 358.026 -0.977029 -4.04467 0
M  V30 3756 H 356.902 -0.85292 -5.42233 0
M  V30 3757 H 357.163 0.542328 -4.38761 0
M  V30 3758 N 356.222 1.38976 -0.743202 0
M  V30 3759 C 357.169 2.30544 -0.10861 0
M  V30 3760 C 358.139 1.49642 0.720869 0
M  V30 3761 O 359.324 1.78304 0.679142 0
M  V30 3762 C 356.464 3.36018 0.786496 0
M  V30 3763 C 355.577 4.31963 -0.0564849 0
M  V30 3764 C 354.712 5.24506 0.840657 0
M  V30 3765 C 353.751 6.121 -0.00658363 0
M  V30 3766 N 352.888 6.96973 0.846943 0
M  V30 3767 H 357.728 2.8424 -0.895088 0
M  V30 3768 H 355.265 1.3995 -0.453048 0
M  V30 3769 H 357.223 3.95768 1.31999 0
M  V30 3770 H 355.853 2.83758 1.53887 0
M  V30 3771 H 354.905 3.73763 -0.707492 0
M  V30 3772 H 356.217 4.93703 -0.711229 0
M  V30 3773 H 355.371 5.89322 1.4417 0
M  V30 3774 H 354.11 4.63107 1.52916 0
M  V30 3775 H 353.115 5.46289 -0.620366 0
M  V30 3776 H 354.34 6.75565 -0.691992 0
M  V30 3777 H 352.286 6.38133 1.52059 0
M  V30 3778 H 352.203 7.5559 0.248864 0
M  V30 3779 H 353.471 7.6621 1.43328 0
M  V30 3780 N 357.7 0.491464 1.49741 0
M  V30 3781 C 358.946 -0.0565092 2.02721 0
M  V30 3782 C 359.279 -1.37522 1.37118 0
M  V30 3783 O 358.554 -1.87866 0.503645 0
M  V30 3784 C 358.837 -0.219051 3.59433 0
M  V30 3785 C 358.69 1.12211 4.35579 0
M  V30 3786 C 360.009 -0.964157 4.29409 0
M  V30 3787 H 357.128 -0.0190627 0.736753 0
M  V30 3788 H 359.77 0.641021 1.7886 0
M  V30 3789 H 357.92 -0.813165 3.79895 0
M  V30 3790 H 359.592 1.75437 4.26637 0
M  V30 3791 H 357.835 1.71377 3.98513 0
M  V30 3792 H 358.506 0.961794 5.43556 0
M  V30 3793 H 360.982 -0.460378 4.13545 0
M  V30 3794 H 359.858 -1.04671 5.38828 0
M  V30 3795 H 360.119 -2.00563 3.93988 0
M  V30 3796 N 359.178 -1.55987 0.224894 0
M  V30 3797 C 360.589 -1.84553 -0.282345 0
M  V30 3798 C 360.94 -1.14634 -1.59227 0
M  V30 3799 O 360.065 -0.417155 -2.12341 0
M  V30 3800 C 360.66 -3.348 -0.519062 0
M  V30 3801 C 359.219 -3.63671 -0.970604 0
M  V30 3802 C 358.366 -2.77277 -0.0355261 0
M  V30 3803 H 361.317 -1.52245 0.448006 0
M  V30 3804 H 361.338 -3.55187 -1.36463 0
M  V30 3805 H 360.85 -3.8566 0.43449 0
M  V30 3806 H 358.951 -3.1827 -1.9374 0
M  V30 3807 H 359.064 -4.71631 -0.842698 0
M  V30 3808 H 357.428 -2.48846 -0.542927 0
M  V30 3809 H 358.211 -3.30937 0.913003 0
M  V30 3810 N 360.656 0.0484629 -1.57525 0
M  V30 3811 C 361.589 1.08755 -2.00618 0
M  V30 3812 C 362.567 1.36272 -0.887058 0
M  V30 3813 O 363.751 1.49255 -1.15131 0
M  V30 3814 C 360.878 2.42675 -2.36277 0
M  V30 3815 C 359.924 2.31142 -3.58435 0
M  V30 3816 S 360.757 1.68326 -5.08357 0
M  V30 3817 C 361.913 3.03776 -5.47239 0
M  V30 3818 H 362.146 0.720415 -2.88439 0
M  V30 3819 H 359.679 0.257801 -1.52233 0
M  V30 3820 H 361.637 3.19699 -2.57494 0
M  V30 3821 H 360.298 2.76541 -1.48942 0
M  V30 3822 H 359.491 3.29957 -3.80978 0
M  V30 3823 H 359.093 1.62258 -3.36969 0
M  V30 3824 H 361.385 4.00106 -5.46737 0
M  V30 3825 H 362.328 2.85988 -6.47778 0
M  V30 3826 H 362.736 3.05456 -4.74718 0
M  V30 3827 N 362.134 1.5431 0.320358 0
M  V30 3828 C 363.082 1.84647 1.4145 0
M  V30 3829 C 364.076 0.718624 1.53402 0
M  V30 3830 O 365.282 0.902335 1.5575 0
M  V30 3831 H 361.657 0.585349 0.472091 0
M  V30 3832 H 363.628 2.7614 1.13089 0
M  V30 3833 C 362.377 2.09341 2.77617 0
M  V30 3834 H 361.7 2.9559 2.69196 0
M  V30 3835 H 363.14 2.3452 3.53237 0
M  V30 3836 C 361.599 0.885939 3.25043 0
M  V30 3837 O 362.129 0.0967891 4.01583 0
M  V30 3838 N 360.335 0.696682 2.82125 0
M  V30 3839 H 359.882 1.34006 2.2 0
M  V30 3840 H 359.84 -0.109712 3.14209 0
M  V30 3841 N 363.613 -0.582584 1.46437 0
M  V30 3842 C 364.841 -1.36682 1.55324 0
M  V30 3843 C 365.256 -1.87796 0.194409 0
M  V30 3844 O 364.613 -1.63623 -0.808318 0
M  V30 3845 C 364.664 -2.55426 2.55812 0
M  V30 3846 O 364.385 -2.0643 3.86417 0
M  V30 3847 C 365.886 -3.47976 2.74641 0
M  V30 3848 H 363.106 -0.417545 0.525259 0
M  V30 3849 H 365.65 -0.708219 1.91845 0
M  V30 3850 H 363.805 -3.17275 2.22295 0
M  V30 3851 H 364.219 -2.83762 4.41111 0
M  V30 3852 H 365.693 -4.27775 3.48874 0
M  V30 3853 H 366.17 -3.99919 1.81553 0
M  V30 3854 H 366.776 -2.91962 3.09255 0
M  V30 3855 N 365.091 -1.34144 -0.827227 0
M  V30 3856 C 366.337 -1.26446 -1.58554 0
M  V30 3857 C 366.67 0.1664 -1.93486 0
M  V30 3858 O 365.945 1.1107 -1.59667 0
M  V30 3859 C 366.228 -2.15111 -2.8879 0
M  V30 3860 C 366.081 -3.66712 -2.60465 0
M  V30 3861 C 367.4 -2.03311 -3.90324 0
M  V30 3862 H 364.519 -0.46067 -0.575284 0
M  V30 3863 H 367.161 -1.64356 -0.953269 0
M  V30 3864 H 365.311 -1.8291 -3.42748 0
M  V30 3865 H 366.983 -4.09259 -2.1285 0
M  V30 3866 H 365.226 -3.88014 -1.93978 0
M  V30 3867 H 365.897 -4.24112 -3.53317 0
M  V30 3868 H 368.373 -2.31574 -3.45706 0
M  V30 3869 H 367.249 -2.67582 -4.79261 0
M  V30 3870 H 367.51 -1.00879 -4.30437 0
M  V30 3871 N 366.569 1.04691 -1.17803 0
M  V30 3872 C 367.846 1.7472 -0.879328 0
M  V30 3873 C 368.226 2.01812 0.619271 0
M  V30 3874 O 367.574 1.65824 1.57209 0
M  V30 3875 C 367.784 3.03686 -1.71976 0
M  V30 3876 C 369.132 3.77542 -1.94286 0
M  V30 3877 O 370.156 3.13569 -1.68976 0
M  V30 3878 O 369.015 4.92506 -2.36855 0
M  V30 3879 H 366.109 0.760011 -0.326056 0
M  V30 3880 H 368.655 1.10813 -1.28525 0
M  V30 3881 H 367.427 2.79754 -2.73594 0
M  V30 3882 H 367.05 3.75332 -1.31194 0
M  V30 3883 N 368.047 0.979072 1.23499 0
M  V30 3884 C 368.977 0.537606 2.27227 0
M  V30 3885 C 369.958 -0.428539 1.64613 0
M  V30 3886 O 371.143 -0.322191 1.91509 0
M  V30 3887 C 368.273 -0.162052 3.46922 0
M  V30 3888 C 367.227 0.721242 4.21879 0
M  V30 3889 C 366.553 -0.110555 5.34586 0
M  V30 3890 C 367.853 2.01141 4.82016 0
M  V30 3891 H 369.547 1.40462 2.64406 0
M  V30 3892 H 367.093 0.67684 1.27102 0
M  V30 3893 H 369.046 -0.482192 4.18632 0
M  V30 3894 H 367.77 -1.06351 3.08799 0
M  V30 3895 H 366.429 1.02482 3.51984 0
M  V30 3896 H 366.077 -1.0125 4.92704 0
M  V30 3897 H 365.777 0.477325 5.85658 0
M  V30 3898 H 367.301 -0.425107 6.09118 0
M  V30 3899 H 368.715 1.75612 5.45741 0
M  V30 3900 H 367.112 2.54695 5.43369 0
M  V30 3901 H 368.182 2.69909 4.02836 0
M  V30 3902 N 369.525 -1.3858 0.750561 0
M  V30 3903 C 370.773 -1.99789 0.30477 0
M  V30 3904 C 371.094 -1.59874 -1.11649 0
M  V30 3905 O 370.364 -0.85417 -1.76297 0
M  V30 3906 H 368.944 -0.738902 0.109694 0
M  V30 3907 H 371.606 -1.69391 0.963983 0
M  V30 3908 H 370.702 -3.09952 0.365499 0
M  V30 3909 N 371.003 -0.499398 -1.49478 0
M  V30 3910 C 371.935 0.316575 -2.27003 0
M  V30 3911 C 372.948 0.932047 -1.33479 0
M  V30 3912 O 374.137 0.815658 -1.58774 0
M  V30 3913 C 371.237 1.46055 -3.05812 0
M  V30 3914 C 370.41 0.952679 -4.26899 0
M  V30 3915 C 369.469 1.97407 -4.87767 0
M  V30 3916 O 368.495 1.54326 -5.4788 0
M  V30 3917 N 369.697 3.30436 -4.77276 0
M  V30 3918 H 372.462 -0.348168 -2.97671 0
M  V30 3919 H 370.023 -0.33185 -1.58463 0
M  V30 3920 H 372.015 2.14135 -3.43407 0
M  V30 3921 H 370.585 2.02948 -2.37762 0
M  V30 3922 H 369.805 0.0968248 -3.94081 0
M  V30 3923 H 371.093 0.59174 -5.05347 0
M  V30 3924 H 370.491 3.68126 -4.29534 0
M  V30 3925 H 369.048 3.94235 -5.19059 0
M  V30 3926 N 372.481 1.55866 -0.233164 0
M  V30 3927 C 373.892 1.847 0.272554 0
M  V30 3928 C 374.243 1.15477 1.58617 0
M  V30 3929 O 373.368 0.42841 2.12117 0
M  V30 3930 C 373.963 3.35071 0.501299 0
M  V30 3931 C 372.522 3.6418 0.951304 0
M  V30 3932 C 371.669 2.77292 0.0208209 0
M  V30 3933 H 374.62 1.52005 -0.456074 0
M  V30 3934 H 374.641 3.55906 1.34577 0
M  V30 3935 H 374.153 3.85424 -0.454936 0
M  V30 3936 H 372.254 3.19293 1.92049 0
M  V30 3937 H 372.367 4.72071 0.817675 0
M  V30 3938 H 370.731 2.49131 0.529723 0
M  V30 3939 H 371.514 3.30448 -0.93054 0
M  V30 3940 N 373.959 -0.0401083 1.57549 0
M  V30 3941 C 375.208 -0.732108 1.87944 0
M  V30 3942 C 375.521 -1.77107 0.830206 0
M  V30 3943 O 376.727 -2.51488 1.02302 0
M  V30 3944 C 375.183 -1.35315 3.33494 0
M  V30 3945 C 374.791 -0.351105 4.46622 0
M  V30 3946 C 376.535 -2.02566 3.73051 0
M  V30 3947 C 374.442 -0.979859 5.83226 0
M  V30 3948 H 373.372 -0.277188 0.701201 0
M  V30 3949 H 376.023 0.0138501 1.83495 0
M  V30 3950 H 374.405 -2.14844 3.32653 0
M  V30 3951 H 375.579 0.416674 4.58912 0
M  V30 3952 H 373.894 0.218708 4.15825 0
M  V30 3953 H 376.491 -2.50441 4.72423 0
M  V30 3954 H 376.834 -2.83904 3.04474 0
M  V30 3955 H 377.367 -1.29827 3.76018 0
M  V30 3956 H 374.106 -0.206135 6.55176 0
M  V30 3957 H 373.626 -1.71774 5.74677 0
M  V30 3958 H 375.305 -1.49046 6.29599 0
M  V30 3959 N 375.437 -1.54477 -0.31217 0
M  V30 3960 C 376.347 -1.87695 -1.4074 0
M  V30 3961 C 377.363 -0.769975 -1.56036 0
M  V30 3962 O 378.539 -1.06537 -1.70915 0
M  V30 3963 C 375.604 -2.10755 -2.75287 0
M  V30 3964 C 374.665 -3.34514 -2.69071 0
M  V30 3965 C 373.898 -3.56465 -3.97201 0
M  V30 3966 O 374.121 -2.81637 -4.96021 0
M  V30 3967 O 373.055 -4.49964 -3.9977 0
M  V30 3968 H 376.881 -2.80849 -1.15574 0
M  V30 3969 H 374.466 -1.40526 -0.507228 0
M  V30 3970 H 376.348 -2.27188 -3.54913 0
M  V30 3971 H 375.023 -1.20788 -3.0032 0
M  V30 3972 H 373.93 -3.23456 -1.87955 0
M  V30 3973 H 375.263 -4.24575 -2.48992 0
M  V30 3974 N 376.915 0.57481 -1.46744 0
M  V30 3975 C 377.825 1.711 -1.60505 0
M  V30 3976 C 378.841 1.67008 -0.488307 0
M  V30 3977 O 380.017 1.86774 -0.753495 0
M  V30 3978 C 377.082 3.07608 -1.59932 0
M  V30 3979 C 376.143 3.22904 -2.82898 0
M  V30 3980 C 375.376 4.529 -2.82343 0
M  V30 3981 O 375.599 5.37278 -1.91542 0
M  V30 3982 O 374.533 4.71611 -3.73987 0
M  V30 3983 H 378.359 1.62436 -2.56609 0
M  V30 3984 H 375.944 0.742779 -1.29627 0
M  V30 3985 H 377.826 3.88877 -1.62336 0
M  V30 3986 H 376.501 3.16692 -0.669898 0
M  V30 3987 H 375.408 2.41099 -2.86046 0
M  V30 3988 H 376.741 3.18715 -3.75076 0
M  V30 3989 N 378.394 1.34581 0.820102 0
M  V30 3990 C 379.64 1.28294 1.57836 0
M  V30 3991 C 379.995 -0.145099 1.91852 0
M  V30 3992 O 379.288 -1.09209 1.57429 0
M  V30 3993 C 379.482 2.10997 2.8847 0
M  V30 3994 C 379.311 3.61698 2.67216 0
M  V30 3995 C 378.081 4.3097 2.63805 0
M  V30 3996 C 380.279 4.55638 2.38534 0
M  V30 3997 N 378.261 5.67502 2.34126 0
M  V30 3998 C 379.632 5.80194 2.18574 0
M  V30 3999 C 381.687 4.44523 2.24285 0
M  V30 4000 C 380.39 6.94886 1.8581 0
M  V30 4001 C 382.416 5.5905 1.92916 0
M  V30 4002 C 381.778 6.82627 1.73782 0
M  V30 4003 H 377.877 0.524697 0.579842 0
M  V30 4004 H 380.461 1.69323 0.961139 0
M  V30 4005 H 378.632 1.7226 3.48111 0
M  V30 4006 H 380.364 1.96333 3.53886 0
M  V30 4007 H 377.119 3.83438 2.77978 0
M  V30 4008 H 377.543 6.39525 2.22118 0
M  V30 4009 H 382.185 3.49599 2.37782 0
M  V30 4010 H 379.903 7.89789 1.7105 0
M  V30 4011 H 383.489 5.52396 1.82619 0
M  V30 4012 H 382.369 7.69748 1.49861 0
M  V30 4013 N 379.872 -1.04064 1.18357 0
M  V30 4014 C 381.288 -1.2947 0.933258 0
M  V30 4015 C 381.488 -1.97466 -0.401169 0
M  V30 4016 O 380.544 -2.25528 -1.13549 0
M  V30 4017 C 381.857 -2.15337 2.09882 0
M  V30 4018 C 383.405 -2.28683 2.13712 0
M  V30 4019 C 383.88 -3.17917 3.29686 0
M  V30 4020 N 385.371 -3.25504 3.29547 0
M  V30 4021 C 386.106 -3.94706 4.15926 0
M  V30 4022 N 385.602 -4.66239 5.12439 0
M  V30 4023 N 387.395 -3.90986 4.0384 0
M  V30 4024 H 379.546 -0.583359 2.04232 0
M  V30 4025 H 381.809 -0.319921 0.892387 0
M  V30 4026 H 381.515 -1.72682 3.06389 0
M  V30 4027 H 381.389 -3.16015 2.05947 0
M  V30 4028 H 383.776 -2.70575 1.17784 0
M  V30 4029 H 383.857 -1.27596 2.21705 0
M  V30 4030 H 383.501 -2.76736 4.25887 0
M  V30 4031 H 383.431 -4.19036 3.1893 0
M  V30 4032 H 385.922 -2.74547 2.59677 0
M  V30 4033 H 386.235 -5.16638 5.74722 0
M  V30 4034 H 384.58 -4.65143 5.16398 0
M  V30 4035 H 387.771 -3.34234 3.27727 0
M  V30 4036 H 387.944 -4.44646 4.71375 0
M  V30 4037 N 381.35 -0.985608 -1.22978 0
M  V30 4038 C 382.627 -0.573599 -1.87001 0
M  V30 4039 C 383.007 0.949213 -1.88555 0
M  V30 4040 O 382.355 1.82811 -1.37086 0
M  V30 4041 C 382.565 -1.18564 -3.28243 0
M  V30 4042 C 383.913 -1.28163 -4.04796 0
M  V30 4043 O 384.937 -1.13949 -3.37482 0
M  V30 4044 O 383.796 -1.50832 -5.25273 0
M  V30 4045 H 380.89 -0.193868 -0.803955 0
M  V30 4046 H 383.436 -1.08102 -1.30813 0
M  V30 4047 H 382.208 -2.22758 -3.21706 0
M  V30 4048 H 381.831 -0.663363 -3.92027 0
M  V30 4049 N 382.828 1.3818 -0.7579 0
M  V30 4050 C 383.758 2.33027 -0.148597 0
M  V30 4051 C 384.739 1.55085 0.69875 0
M  V30 4052 O 385.924 1.83384 0.639053 0
M  V30 4053 C 383.054 3.3928 0.742034 0
M  V30 4054 C 382.008 4.28 -0.00291946 0
M  V30 4055 C 381.334 5.25146 1.00625 0
M  V30 4056 C 382.634 5.08938 -1.17385 0
M  V30 4057 H 384.328 2.84231 -0.940909 0
M  V30 4058 H 381.874 1.36659 -0.453908 0
M  V30 4059 H 383.827 4.046 1.17799 0
M  V30 4060 H 382.551 2.86569 1.56671 0
M  V30 4061 H 381.21 3.64192 -0.419504 0
M  V30 4062 H 380.858 4.68721 1.8251 0
M  V30 4063 H 380.558 5.85361 0.512428 0
M  V30 4064 H 382.082 5.93342 1.44143 0
M  V30 4065 H 383.496 5.67474 -0.815224 0
M  V30 4066 H 381.893 5.7841 -1.59882 0
M  V30 4067 H 382.963 4.42424 -1.98468 0
M  V30 4068 N 384.306 0.507319 1.49211 0
M  V30 4069 C 385.238 -0.304532 2.27168 0
M  V30 4070 C 386.251 -0.924956 1.33972 0
M  V30 4071 O 387.44 -0.807227 1.59205 0
M  V30 4072 C 384.54 -1.44431 3.06583 0
M  V30 4073 C 383.713 -0.930026 4.27398 0
M  V30 4074 C 382.772 -1.94817 4.88807 0
M  V30 4075 O 381.798 -1.51418 5.4869 0
M  V30 4076 N 383 -3.279 4.79022 0
M  V30 4077 H 385.765 0.36395 2.97482 0
M  V30 4078 H 383.326 0.340249 1.58284 0
M  V30 4079 H 385.318 -2.12311 3.44537 0
M  V30 4080 H 383.888 -2.01684 2.38835 0
M  V30 4081 H 383.108 -0.0759244 3.94127 0
M  V30 4082 H 384.396 -0.564932 5.05654 0
M  V30 4083 H 383.794 -3.65843 4.3148 0
M  V30 4084 H 382.351 -3.91476 5.21142 0
M  V30 4085 N 385.784 -1.5574 0.241426 0
M  V30 4086 C 387.032 -1.98417 -0.384075 0
M  V30 4087 C 387.353 -1.13078 -1.58866 0
M  V30 4088 O 386.623 -0.212312 -1.94746 0
M  V30 4089 H 385.203 -0.732813 -0.144894 0
M  V30 4090 H 387.865 -1.9193 0.338943 0
M  V30 4091 H 386.961 -3.04219 -0.696939 0
M  V30 4092 N 387.262 0.0317525 -1.57568 0
M  V30 4093 C 388.51 0.721676 -1.88776 0
M  V30 4094 C 388.831 1.76039 -0.838772 0
M  V30 4095 O 388.101 1.95482 0.127935 0
M  V30 4096 H 386.681 0.269534 -0.696678 0
M  V30 4097 H 389.343 -0.00165879 -1.949 0
M  V30 4098 H 388.439 1.21293 -2.87566 0
M  V30 4099 N 388.74 1.54641 0.303973 0
M  V30 4100 C 389.65 1.88439 1.39743 0
M  V30 4101 C 390.666 0.778239 1.55626 0
M  V30 4102 O 391.842 1.07442 1.70347 0
M  V30 4103 C 388.907 2.12212 2.74166 0
M  V30 4104 C 387.968 3.35936 2.67293 0
M  V30 4105 C 387.201 3.58566 3.95305 0
M  V30 4106 O 387.424 2.84263 4.9452 0
M  V30 4107 O 386.358 4.52078 3.97378 0
M  V30 4108 H 390.184 2.81458 1.14083 0
M  V30 4109 H 387.769 1.40793 0.499768 0
M  V30 4110 H 389.651 2.29067 3.53704 0
M  V30 4111 H 388.326 1.22379 2.99675 0
M  V30 4112 H 387.233 3.24448 1.86237 0
M  V30 4113 H 388.566 4.2589 2.46736 0
M  V30 4114 N 390.218 -0.567019 1.47046 0
M  V30 4115 C 391.165 -1.67489 1.58796 0
M  V30 4116 C 392.135 -1.60399 0.43144 0
M  V30 4117 O 393.32 -1.79378 0.650233 0
M  V30 4118 C 390.46 -3.05821 1.59899 0
M  V30 4119 C 389.573 -3.2342 2.86397 0
M  V30 4120 C 388.708 -4.52093 2.789 0
M  V30 4121 C 387.747 -4.6309 4.00267 0
M  V30 4122 N 386.884 -5.83106 3.91064 0
M  V30 4123 H 391.724 -1.56785 2.53422 0
M  V30 4124 H 389.261 -0.763896 1.2571 0
M  V30 4125 H 391.219 -3.8591 1.58522 0
M  V30 4126 H 389.849 -3.15384 0.687929 0
M  V30 4127 H 388.901 -2.3683 2.97684 0
M  V30 4128 H 390.213 -3.27412 3.76301 0
M  V30 4129 H 389.367 -5.4043 2.75718 0
M  V30 4130 H 388.106 -4.50565 1.86662 0
M  V30 4131 H 387.111 -3.73168 4.03765 0
M  V30 4132 H 388.336 -4.66386 4.93621 0
M  V30 4133 H 386.282 -5.82546 3.01623 0
M  V30 4134 H 386.199 -5.88434 4.74638 0
M  V30 4135 H 387.467 -6.73831 3.91882 0
M  V30 4136 N 391.696 -1.35014 -0.812953 0
M  V30 4137 C 392.606 -1.2951 -1.95613 0
M  V30 4138 C 393.622 -0.20107 -1.72834 0
M  V30 4139 O 394.798 -0.42932 -1.96771 0
M  V30 4140 C 391.863 -1.06033 -3.30088 0
M  V30 4141 C 390.924 -2.24688 -3.65805 0
M  V30 4142 C 390.157 -2.02322 -4.93864 0
M  V30 4143 O 390.38 -0.986464 -5.61805 0
M  V30 4144 O 389.314 -2.89525 -5.27692 0
M  V30 4145 H 393.14 -2.25705 -2.03202 0
M  V30 4146 H 390.725 -1.15321 -0.949811 0
M  V30 4147 H 392.607 -0.94763 -4.10607 0
M  V30 4148 H 391.282 -0.128852 -3.23443 0
M  V30 4149 H 390.189 -2.41521 -2.85689 0
M  V30 4150 H 391.522 -3.16261 -3.77147 0
M  V30 4151 N 393.175 1.03435 -1.18907 0
M  V30 4152 C 394.085 2.15075 -0.937015 0
M  V30 4153 C 395.101 1.73706 0.101085 0
M  V30 4154 O 396.277 2.01232 -0.0822948 0
M  V30 4155 C 393.342 3.43458 -0.473057 0
M  V30 4156 C 392.403 3.99172 -1.57989 0
M  V30 4157 C 391.636 5.21427 -1.13797 0
M  V30 4158 O 391.859 5.704 0.000725941 0
M  V30 4159 O 390.793 5.69837 -1.9383 0
M  V30 4160 H 394.619 2.39198 -1.87131 0
M  V30 4161 H 392.204 1.13506 -0.971427 0
M  V30 4162 H 394.086 4.20811 -0.222702 0
M  V30 4163 H 392.761 3.20793 0.432869 0
M  V30 4164 H 391.668 3.23178 -1.88433 0
M  V30 4165 H 393.001 4.2619 -2.46217 0
M  V30 4166 N 394.653 0.992116 1.22453 0
M  V30 4167 C 396.064 0.702776 1.72968 0
M  V30 4168 C 396.415 -0.780399 1.80012 0
M  V30 4169 O 395.54 -1.61007 1.44589 0
M  V30 4170 C 396.135 1.26903 3.14135 0
M  V30 4171 C 394.694 1.02909 3.62059 0
M  V30 4172 C 393.841 1.38969 2.39964 0
M  V30 4173 H 396.792 1.16457 1.07812 0
M  V30 4174 H 396.813 0.647223 3.74955 0
M  V30 4175 H 396.325 2.34851 3.08977 0
M  V30 4176 H 394.426 -0.0337979 3.72585 0
M  V30 4177 H 394.539 1.69191 4.48231 0
M  V30 4178 H 392.903 0.808279 2.41535 0
M  V30 4179 H 393.686 2.4792 2.37467 0
M  V30 4180 N 396.131 -1.37776 0.765217 0
M  V30 4181 C 397.041 -2.34135 0.147666 0
M  V30 4182 C 398.057 -1.59854 -0.687215 0
M  V30 4183 O 399.233 -1.91983 -0.608659 0
M  V30 4184 C 396.298 -3.3901 -0.72617 0
M  V30 4185 C 395.359 -4.2912 0.124417 0
M  V30 4186 C 394.592 -5.28986 -0.707807 0
M  V30 4187 O 394.815 -5.36205 -1.94525 0
M  V30 4188 O 393.749 -6.01779 -0.12046 0
M  V30 4189 H 397.575 -2.88664 0.943758 0
M  V30 4190 H 395.16 -1.39824 0.526277 0
M  V30 4191 H 397.042 -4.03195 -1.22524 0
M  V30 4192 H 395.717 -2.86819 -1.50056 0
M  V30 4193 H 394.624 -3.68057 0.669696 0
M  V30 4194 H 395.957 -4.84598 0.861736 0
M  V30 4195 N 397.609 -0.515225 -1.4894 0
M  V30 4196 C 398.556 0.255567 -2.29381 0
M  V30 4197 C 399.526 0.947387 -1.36432 0
M  V30 4198 O 400.711 0.951288 -1.65394 0
M  V30 4199 C 397.851 1.30551 -3.19453 0
M  V30 4200 C 396.964 0.624029 -4.27469 0
M  V30 4201 C 396.099 1.65563 -5.0474 0
M  V30 4202 C 395.138 0.956802 -6.04576 0
M  V30 4203 N 394.275 1.93326 -6.74959 0
M  V30 4204 H 399.115 -0.436607 -2.94784 0
M  V30 4205 H 396.652 -0.227154 -1.45336 0
M  V30 4206 H 398.61 1.92639 -3.70062 0
M  V30 4207 H 397.24 1.96626 -2.56004 0
M  V30 4208 H 396.292 -0.110459 -3.8024 0
M  V30 4209 H 397.604 0.0746092 -4.98744 0
M  V30 4210 H 396.758 2.35119 -5.59289 0
M  V30 4211 H 395.497 2.23893 -4.3327 0
M  V30 4212 H 394.502 0.247097 -5.49244 0
M  V30 4213 H 395.727 0.379814 -6.78037 0
M  V30 4214 H 393.673 2.50591 -6.06251 0
M  V30 4215 H 393.59 1.43489 -7.42258 0
M  V30 4216 H 394.858 2.62126 -7.34105 0
M  V30 4217 N 399.087 1.5561 -0.249682 0
M  V30 4218 C 400.017 2.24477 0.642826 0
M  V30 4219 C 400.998 1.22601 1.17911 0
M  V30 4220 O 402.183 1.5126 1.21795 0
M  V30 4221 C 399.313 2.94638 1.83863 0
M  V30 4222 C 398.267 4.03227 1.435 0
M  V30 4223 C 397.593 4.60828 2.71186 0
M  V30 4224 C 398.893 5.18796 0.604002 0
M  V30 4225 H 400.587 2.99321 0.0685625 0
M  V30 4226 H 398.133 1.43965 0.0315363 0
M  V30 4227 H 400.086 3.41517 2.46868 0
M  V30 4228 H 398.81 2.17287 2.43832 0
M  V30 4229 H 397.469 3.57121 0.828275 0
M  V30 4230 H 397.117 3.80174 3.29358 0
M  V30 4231 H 396.817 5.34132 2.44901 0
M  V30 4232 H 398.341 5.10442 3.35084 0
M  V30 4233 H 399.755 5.61883 1.13842 0
M  V30 4234 H 398.152 5.98506 0.437097 0
M  V30 4235 H 399.222 4.83384 -0.383147 0
M  V30 4236 N 400.565 -0.0233959 1.57583 0
M  V30 4237 C 401.813 -0.711654 1.89156 0
M  V30 4238 C 402.134 -1.75591 0.848096 0
M  V30 4239 O 401.404 -1.95547 -0.117566 0
M  V30 4240 H 399.984 -0.265835 0.698098 0
M  V30 4241 H 402.646 0.0119948 1.94896 0
M  V30 4242 H 401.742 -1.19766 2.88206 0
M  V30 4243 N 402.043 -1.548 -0.295768 0
M  V30 4244 C 403.32 -1.65014 -1.05023 0
M  V30 4245 C 403.7 -0.501805 -2.05049 0
M  V30 4246 O 403.048 0.500869 -2.22943 0
M  V30 4247 C 403.258 -3.03252 -1.72741 0
M  V30 4248 C 404.606 -3.60242 -2.24746 0
M  V30 4249 O 405.63 -3.05737 -1.82765 0
M  V30 4250 O 404.489 -4.55687 -3.01681 0
M  V30 4251 H 401.583 -0.669314 -0.485744 0
M  V30 4252 H 404.129 -1.67144 -0.293438 0
M  V30 4253 H 402.901 -3.7827 -1.00138 0
M  V30 4254 H 402.524 -3.04922 -2.55163 0
M  V30 4255 N 403.521 0.559213 -1.47345 0
M  V30 4256 C 404.77 1.31281 -1.53128 0
M  V30 4257 C 405.083 1.94602 -0.197344 0
M  V30 4258 O 406.289 2.71173 -0.133154 0
M  V30 4259 C 404.745 2.38051 -2.69925 0
M  V30 4260 C 404.353 1.8093 -4.0984 0
M  V30 4261 C 406.097 3.14604 -2.84999 0
M  V30 4262 C 404.004 2.85468 -5.1794 0
M  V30 4263 H 402.934 0.493614 -0.569966 0
M  V30 4264 H 405.585 0.594155 -1.73615 0
M  V30 4265 H 403.967 3.12822 -2.42814 0
M  V30 4266 H 405.141 1.12544 -4.46845 0
M  V30 4267 H 403.456 1.16967 -3.99634 0
M  V30 4268 H 406.053 3.92666 -3.62929 0
M  V30 4269 H 406.396 3.68665 -1.93369 0
M  V30 4270 H 406.929 2.46945 -3.1187 0
M  V30 4271 H 403.668 2.36264 -6.1144 0
M  V30 4272 H 403.188 3.52269 -4.85455 0
M  V30 4273 H 404.867 3.48996 -5.44803 0
M  V30 4274 N 404.999 1.35443 0.805782 0
M  V30 4275 C 406.239 1.30127 1.57627 0
M  V30 4276 C 406.603 -0.122567 1.91608 0
M  V30 4277 O 407.804 -0.300107 2.67119 0
M  V30 4278 C 406.075 2.18314 2.82973 0
M  V30 4279 S 407.634 2.30521 3.7337 0
M  V30 4280 H 404.452 0.462439 0.540066 0
M  V30 4281 H 407.054 1.70843 0.95042 0
M  V30 4282 H 405.758 3.20741 2.56034 0
M  V30 4283 H 405.289 1.78558 3.50543 0
M  V30 4284 H 407.304 1.49062 4.73281 0
M  V30 4285 N 406.477 -1.02803 1.19454 0
M  V30 4286 C 407.705 -1.79841 1.02297 0
M  V30 4287 C 408.12 -1.83879 -0.428259 0
M  V30 4288 O 407.477 -1.28345 -1.29745 0
M  V30 4289 C 407.528 -3.24852 1.58598 0
M  V30 4290 O 407.249 -3.21097 2.98041 0
M  V30 4291 C 408.75 -4.18485 1.46236 0
M  V30 4292 H 405.97 -0.565936 0.360496 0
M  V30 4293 H 408.514 -1.2948 1.58288 0
M  V30 4294 H 406.669 -3.72401 1.06753 0
M  V30 4295 H 407.083 -4.12033 3.24545 0
M  V30 4296 H 408.557 -5.18121 1.90407 0
M  V30 4297 H 409.034 -4.37254 0.41301 0
M  V30 4298 H 409.64 -3.76811 1.97215 0
M  V30 4299 N 407.956 -0.998596 -1.21925 0
M  V30 4300 C 409.181 -0.696015 -1.95372 0
M  V30 4301 C 409.606 0.733826 -1.73195 0
M  V30 4302 O 408.964 1.50242 -1.01474 0
M  V30 4303 C 409.012 -1.01466 -3.4603 0
M  V30 4304 O 408.116 -0.116415 -4.12236 0
M  V30 4305 H 407.457 -0.259938 -0.611006 0
M  V30 4306 H 409.987 -1.33711 -1.54863 0
M  V30 4307 H 409.997 -0.958855 -3.96573 0
M  V30 4308 H 408.672 -2.05653 -3.61497 0
M  V30 4309 H 407.249 -0.228193 -3.72201 0
M  V30 4310 N 409.434 1.37368 -0.772513 0
M  V30 4311 C 410.364 2.32856 -0.173304 0
M  V30 4312 C 411.345 1.55818 0.682262 0
M  V30 4313 O 412.53 1.84052 0.619566 0
M  V30 4314 C 409.66 3.40048 0.706007 0
M  V30 4315 C 408.614 4.27973 -0.0483144 0
M  V30 4316 C 407.94 5.26184 0.950491 0
M  V30 4317 C 409.24 5.07665 -1.22776 0
M  V30 4318 H 410.934 2.83217 -0.971002 0
M  V30 4319 H 408.48 1.3617 -0.468377 0
M  V30 4320 H 410.433 4.05827 1.13501 0
M  V30 4321 H 409.157 2.88214 1.53623 0
M  V30 4322 H 407.816 3.63726 -0.458107 0
M  V30 4323 H 407.464 4.7063 1.77529 0
M  V30 4324 H 407.164 5.85872 0.450314 0
M  V30 4325 H 408.688 5.94838 1.37842 0
M  V30 4326 H 410.102 5.66578 -0.875366 0
M  V30 4327 H 408.499 5.76681 -1.66007 0
M  V30 4328 H 409.569 4.40294 -2.03149 0
M  V30 4329 N 410.912 0.523116 1.48665 0
M  V30 4330 C 412.328 0.180511 1.58576 0
M  V30 4331 C 412.528 -1.31597 1.52592 0
M  V30 4332 O 411.584 -2.0937 1.4114 0
M  V30 4333 C 412.897 0.776949 2.90489 0
M  V30 4334 C 414.445 0.745058 3.04003 0
M  V30 4335 C 414.92 1.31995 4.38567 0
M  V30 4336 N 416.411 1.28162 4.45117 0
M  V30 4337 C 417.146 1.6964 5.47731 0
M  V30 4338 N 416.642 2.18816 6.57337 0
M  V30 4339 N 418.435 1.6092 5.38573 0
M  V30 4340 H 410.586 1.4958 1.50797 0
M  V30 4341 H 412.849 0.621772 0.715614 0
M  V30 4342 H 412.555 1.82732 3.00503 0
M  V30 4343 H 412.429 0.25007 3.7637 0
M  V30 4344 H 414.816 -0.296532 2.93606 0
M  V30 4345 H 414.897 1.30933 2.1975 0
M  V30 4346 H 414.541 2.36043 4.49718 0
M  V30 4347 H 414.471 0.731418 5.21496 0
M  V30 4348 H 416.962 0.92155 3.66491 0
M  V30 4349 H 417.275 2.48478 7.31764 0
M  V30 4350 H 415.62 2.22805 6.58318 0
M  V30 4351 H 418.811 1.22304 4.5184 0
M  V30 4352 H 418.984 1.93567 6.18414 0
M  V30 4353 N 412.39 -1.55475 0.257931 0
M  V30 4354 C 413.62 -2.03314 -0.367026 0
M  V30 4355 C 414.028 -1.13625 -1.51281 0
M  V30 4356 O 413.371 -0.145334 -1.83124 0
M  V30 4357 C 413.433 -3.47362 -0.926284 0
M  V30 4358 C 413.097 -4.56914 0.0886584 0
M  V30 4359 C 414.094 -5.12013 0.902123 0
M  V30 4360 C 411.779 -5.01827 0.217936 0
M  V30 4361 C 413.773 -6.10529 1.83122 0
M  V30 4362 C 411.46 -6.00172 1.15052 0
M  V30 4363 C 412.458 -6.54402 1.95568 0
M  V30 4364 O 412.146 -7.50827 2.87253 0
M  V30 4365 H 411.878 -0.669976 -0.0900443 0
M  V30 4366 H 414.432 -2.01804 0.382673 0
M  V30 4367 H 412.662 -3.46056 -1.72575 0
M  V30 4368 H 414.351 -3.78637 -1.46249 0
M  V30 4369 H 415.117 -4.78139 0.812891 0
M  V30 4370 H 410.996 -4.59272 -0.398721 0
M  V30 4371 H 414.54 -6.52783 2.46008 0
M  V30 4372 H 410.437 -6.33465 1.24064 0
M  V30 4373 H 411.205 -7.68483 2.81739 0
M  V30 4374 N 413.868 0.0150385 -1.57593 0
M  V30 4375 C 415.114 0.704043 -1.90187 0
M  V30 4376 C 415.447 1.74249 -0.857366 0
M  V30 4377 O 414.722 1.94092 0.125843 0
M  V30 4378 C 415.005 1.36087 -3.33395 0
M  V30 4379 C 414.858 0.334981 -4.48551 0
M  V30 4380 C 416.177 2.29112 -3.7576 0
M  V30 4381 H 413.296 0.254475 -0.691673 0
M  V30 4382 H 415.938 -0.0331678 -1.89971 0
M  V30 4383 H 414.088 1.98922 -3.3371 0
M  V30 4384 H 415.76 -0.292534 -4.60372 0
M  V30 4385 H 414.003 -0.344325 -4.32431 0
M  V30 4386 H 414.674 0.833316 -5.45674 0
M  V30 4387 H 417.15 1.76308 -3.76902 0
M  V30 4388 H 416.026 2.72043 -4.76743 0
M  V30 4389 H 416.287 3.16385 -3.08793 0
M  V30 4390 N 415.346 1.54954 0.287554 0
M  V30 4391 C 416.757 1.65732 0.859634 0
M  V30 4392 C 417.108 0.574767 1.87592 0
M  V30 4393 O 416.233 -0.286299 2.14498 0
M  V30 4394 C 416.828 3.00438 1.56597 0
M  V30 4395 C 415.387 3.13292 2.08627 0
M  V30 4396 C 414.534 2.61473 0.923416 0
M  V30 4397 H 417.485 1.5857 0.0642338 0
M  V30 4398 H 417.506 2.92613 2.43224 0
M  V30 4399 H 417.018 3.79207 0.826053 0
M  V30 4400 H 415.119 2.39268 2.85625 0
M  V30 4401 H 415.232 4.19647 2.31157 0
M  V30 4402 H 413.596 2.18264 1.31275 0
M  V30 4403 H 414.379 3.42733 0.197241 0
M  V30 4404 N 416.824 -0.551391 1.4764 0
M  V30 4405 C 418.052 -1.33357 1.58189 0
M  V30 4406 C 418.467 -1.87342 0.234199 0
M  V30 4407 O 417.824 -1.65301 -0.77343 0
M  V30 4408 C 417.875 -2.49942 2.61173 0
M  V30 4409 O 417.596 -1.98187 3.90709 0
M  V30 4410 C 419.097 -3.42072 2.8196 0
M  V30 4411 H 416.317 -0.40631 0.533998 0
M  V30 4412 H 418.861 -0.667367 1.93304 0
M  V30 4413 H 417.016 -3.12489 2.28975 0
M  V30 4414 H 417.43 -2.74342 4.47031 0
M  V30 4415 H 418.904 -4.20278 3.57869 0
M  V30 4416 H 419.381 -3.95978 1.89995 0
M  V30 4417 H 419.987 -2.85336 3.15378 0
M  V30 4418 N 418.302 -1.35869 -0.798587 0
M  V30 4419 C 419.265 -1.29307 -1.89242 0
M  V30 4420 C 420.265 -0.202747 -1.59517 0
M  V30 4421 O 421.455 -0.456957 -1.681 0
M  V30 4422 C 418.587 -1.00229 -3.25833 0
M  V30 4423 H 419.78 -2.26576 -1.96478 0
M  V30 4424 H 417.333 -1.20509 -0.995358 0
M  V30 4425 H 418.068 -0.033801 -3.24282 0
M  V30 4426 H 417.853 -1.79121 -3.48795 0
M  V30 4427 H 419.343 -0.98219 -4.05885 0
M  V30 4428 N 419.78 1.02168 -1.19998 0
M  V30 4429 C 421.028 1.75338 -1.00504 0
M  V30 4430 C 421.349 1.89387 0.464506 0
M  V30 4431 O 420.619 1.43268 1.33608 0
M  V30 4432 H 419.199 0.649564 -0.368885 0
M  V30 4433 H 421.861 1.23205 -1.51018 0
M  V30 4434 H 420.957 2.75892 -1.45912 0
M  V30 4435 N 421.258 1.00505 1.21394 0
M  V30 4436 C 422.205 0.565496 2.23765 0
M  V30 4437 C 423.175 -0.408466 1.60999 0
M  V30 4438 O 424.36 -0.310503 1.88257 0
M  V30 4439 C 421.5 -0.101667 3.4495 0
M  V30 4440 C 420.613 0.915479 4.22188 0
M  V30 4441 C 419.748 0.220574 5.30742 0
M  V30 4442 C 418.787 1.22527 5.99711 0
M  V30 4443 N 417.924 0.557831 6.9988 0
M  V30 4444 H 422.764 1.44314 2.60725 0
M  V30 4445 H 420.301 0.722643 1.28126 0
M  V30 4446 H 422.259 -0.505504 4.14126 0
M  V30 4447 H 420.889 -0.94303 3.08718 0
M  V30 4448 H 419.941 1.43756 3.52191 0
M  V30 4449 H 421.253 1.68005 4.69655 0
M  V30 4450 H 420.407 -0.239368 6.06228 0
M  V30 4451 H 419.146 -0.576401 4.84282 0
M  V30 4452 H 418.151 1.69571 5.22997 0
M  V30 4453 H 419.376 2.02332 6.48258 0
M  V30 4454 H 417.322 -0.219486 6.55633 0
M  V30 4455 H 417.239 1.26065 7.45415 0
M  V30 4456 H 418.507 0.121095 7.79406 0
M  V30 4457 N 422.737 -1.36956 0.779787 0
M  V30 4458 C 423.667 -2.32761 0.185651 0
M  V30 4459 C 424.648 -1.56177 -0.673989 0
M  V30 4460 O 425.833 -1.84378 -0.609797 0
M  V30 4461 C 422.963 -3.40418 -0.687964 0
M  V30 4462 C 421.917 -4.27941 0.0710102 0
M  V30 4463 C 421.243 -5.26681 -0.922573 0
M  V30 4464 C 422.543 -5.07006 1.25467 0
M  V30 4465 H 424.237 -2.82698 0.986008 0
M  V30 4466 H 421.783 -1.3592 0.475592 0
M  V30 4467 H 423.736 -4.06423 -1.11348 0
M  V30 4468 H 422.46 -2.89025 -1.52093 0
M  V30 4469 H 421.119 -3.63478 0.47739 0
M  V30 4470 H 420.767 -4.71565 -1.7503 0
M  V30 4471 H 420.467 -5.86103 -0.419237 0
M  V30 4472 H 421.991 -5.9556 -1.34686 0
M  V30 4473 H 423.405 -5.66105 0.905401 0
M  V30 4474 H 421.802 -5.75793 1.69063 0
M  V30 4475 H 422.872 -4.3921 2.05481 0
M  V30 4476 N 424.215 -0.530993 -1.48385 0
M  V30 4477 C 425.443 -0.00134122 -2.069 0
M  V30 4478 C 425.858 1.2805 -1.3874 0
M  V30 4479 O 425.215 1.76204 -0.475244 0
M  V30 4480 C 425.266 0.225256 -3.60798 0
M  V30 4481 O 424.987 -1.0058 -4.26398 0
M  V30 4482 C 426.488 0.795172 -4.3611 0
M  V30 4483 H 423.708 -0.0339704 -0.67014 0
M  V30 4484 H 426.252 -0.736926 -1.90761 0
M  V30 4485 H 424.407 0.910891 -3.76539 0
M  V30 4486 H 424.821 -0.787165 -5.1856 0
M  V30 4487 H 426.295 0.903143 -5.44562 0
M  V30 4488 H 426.772 1.80031 -4.00606 0
M  V30 4489 H 427.378 0.146069 -4.25049 0
M  V30 4490 N 425.693 1.55336 -0.266172 0
M  V30 4491 C 426.939 1.99692 0.353681 0
M  V30 4492 C 427.272 1.1543 1.56172 0
M  V30 4493 O 426.547 0.222218 1.93226 0
M  V30 4494 C 426.83 3.52316 0.74466 0
M  V30 4495 C 426.683 4.47337 -0.470101 0
M  V30 4496 C 428.002 4.10588 1.58447 0
M  V30 4497 H 425.121 0.725961 0.12708 0
M  V30 4498 H 427.763 1.86336 -0.371333 0
M  V30 4499 H 425.913 3.63829 1.36239 0
M  V30 4500 H 427.585 4.4778 -1.10864 0
M  V30 4501 H 425.828 4.19364 -1.10978 0
M  V30 4502 H 426.499 5.51788 -0.15291 0
M  V30 4503 H 428.975 4.02297 1.06286 0
M  V30 4504 H 427.851 5.17607 1.82686 0
M  V30 4505 H 428.112 3.60253 2.56262 0
M  V30 4506 N 427.171 -0.0066808 1.57599 0
M  V30 4507 C 428.411 -0.697501 1.92131 0
M  V30 4508 C 428.775 -1.71306 0.867071 0
M  V30 4509 O 429.976 -2.45377 1.09743 0
M  V30 4510 C 428.247 -1.32978 3.3174 0
M  V30 4511 S 429.806 -2.04665 3.88146 0
M  V30 4512 H 426.624 -0.230555 0.672581 0
M  V30 4513 H 429.226 0.0484026 1.9544 0
M  V30 4514 H 427.93 -0.57772 4.06313 0
M  V30 4515 H 427.461 -2.11376 3.31789 0
M  V30 4516 H 429.476 -3.32097 3.68682 0
M  V30 4517 N 428.649 -1.55105 -0.279332 0
M  V30 4518 C 429.898 -1.74618 -1.00952 0
M  V30 4519 C 430.211 -0.551096 -1.87676 0
M  V30 4520 O 431.417 -0.628507 -2.64125 0
M  V30 4521 C 429.873 -3.09025 -1.84476 0
M  V30 4522 C 429.481 -4.36081 -1.0265 0
M  V30 4523 C 431.225 -3.37891 -2.56963 0
M  V30 4524 C 429.132 -5.6153 -1.85576 0
M  V30 4525 H 428.062 -0.650868 -0.38064 0
M  V30 4526 H 430.713 -1.81569 -0.265475 0
M  V30 4527 H 429.095 -2.96095 -2.62952 0
M  V30 4528 H 430.269 -4.59909 -0.286354 0
M  V30 4529 H 428.584 -4.14312 -0.416464 0
M  V30 4530 H 431.181 -4.28822 -3.19399 0
M  V30 4531 H 431.524 -2.57737 -3.26921 0
M  V30 4532 H 432.057 -3.5189 -1.85522 0
M  V30 4533 H 428.796 -6.44413 -1.2005 0
M  V30 4534 H 428.316 -5.41854 -2.57204 0
M  V30 4535 H 429.995 -5.99594 -2.43096 0
M  V30 4536 N 430.127 0.543554 -1.4793 0
M  V30 4537 C 431.057 1.65888 -1.64327 0
M  V30 4538 C 432.038 1.62818 -0.492383 0
M  V30 4539 O 433.223 1.80226 -0.723338 0
M  V30 4540 C 430.353 3.04506 -1.67013 0
M  V30 4541 C 429.307 3.2243 -2.81466 0
M  V30 4542 C 428.633 4.61972 -2.69233 0
M  V30 4543 C 429.933 3.06496 -4.22915 0
M  V30 4544 H 431.627 1.52421 -2.57698 0
M  V30 4545 H 429.173 0.731849 -1.24016 0
M  V30 4546 H 431.126 3.82391 -1.77074 0
M  V30 4547 H 429.85 3.18964 -0.70212 0
M  V30 4548 H 428.509 2.46957 -2.70938 0
M  V30 4549 H 428.157 4.73247 -1.7043 0
M  V30 4550 H 427.857 4.74911 -3.46025 0
M  V30 4551 H 429.381 5.41974 -2.81242 0
M  V30 4552 H 430.795 3.74186 -4.34348 0
M  V30 4553 H 429.192 3.30938 -5.006 0
M  V30 4554 H 430.262 2.03077 -4.40327 0
M  V30 4555 N 431.605 1.3629 0.791371 0
M  V30 4556 C 432.515 1.32606 1.93527 0
M  V30 4557 C 433.531 0.228541 1.72493 0
M  V30 4558 O 434.707 0.460571 1.96063 0
M  V30 4559 C 431.772 1.11271 3.28359 0
M  V30 4560 C 430.833 2.3048 3.62185 0
M  V30 4561 C 430.066 2.10154 4.90583 0
M  V30 4562 O 430.289 1.07572 5.60165 0
M  V30 4563 O 429.223 2.97884 5.23019 0
M  V30 4564 H 433.049 2.28909 1.99585 0
M  V30 4565 H 430.634 1.16818 0.931344 0
M  V30 4566 H 432.516 1.01283 4.09047 0
M  V30 4567 H 431.191 0.180292 3.23198 0
M  V30 4568 H 430.098 2.46036 2.81811 0
M  V30 4569 H 431.431 3.22221 3.72068 0
M  V30 4570 N 433.083 -1.0153 1.20538 0
M  V30 4571 C 434.046 -2.0826 0.957098 0
M  V30 4572 C 435.046 -1.60657 -0.0678655 0
M  V30 4573 O 436.236 -1.73385 0.168332 0
M  V30 4574 C 433.368 -3.38033 0.441188 0
M  V30 4575 H 434.561 -2.31719 1.90384 0
M  V30 4576 H 432.114 -1.1835 1.02093 0
M  V30 4577 H 432.849 -3.20249 -0.510961 0
M  V30 4578 H 432.634 -3.73911 1.18038 0
M  V30 4579 H 434.124 -4.16613 0.287009 0
M  V30 4580 N 434.561 -1.01147 -1.20859 0
M  V30 4581 C 435.508 -0.577354 -2.23462 0
M  V30 4582 C 436.478 0.399922 -1.61214 0
M  V30 4583 O 437.663 0.300515 -1.88419 0
M  V30 4584 C 434.803 0.083372 -3.44999 0
M  V30 4585 C 433.916 -0.937856 -4.21697 0
M  V30 4586 C 433.051 -0.248717 -5.30617 0
M  V30 4587 C 432.09 -1.25705 -5.99053 0
M  V30 4588 N 431.227 -0.594939 -6.99575 0
M  V30 4589 H 436.067 -1.45695 -2.59956 0
M  V30 4590 H 433.604 -0.729428 -1.27741 0
M  V30 4591 H 435.562 0.483535 -4.14388 0
M  V30 4592 H 434.192 0.926645 -3.09214 0
M  V30 4593 H 433.244 -1.45622 -3.51423 0
M  V30 4594 H 434.556 -1.70493 -4.68757 0
M  V30 4595 H 433.71 0.207215 -6.06346 0
M  V30 4596 H 432.449 0.55071 -4.84581 0
M  V30 4597 H 431.454 -1.72343 -5.2209 0
M  V30 4598 H 432.679 -2.05767 -6.47176 0
M  V30 4599 H 430.625 0.184713 -6.5574 0
M  V30 4600 H 430.542 -1.30017 -7.44736 0
M  V30 4601 H 431.81 -0.162427 -7.79331 0
M  V30 4602 N 436.039 1.36541 -0.78704 0
M  V30 4603 C 436.987 2.31965 -0.171724 0
M  V30 4604 C 437.981 1.55689 0.667631 0
M  V30 4605 O 439.187 1.70969 0.562981 0
M  V30 4606 H 435.562 0.751101 -0.0367545 0
M  V30 4607 H 437.533 2.81428 -0.992017 0
M  V30 4608 C 436.282 3.40968 0.680904 0
M  V30 4609 H 435.605 3.99775 0.0443961 0
M  V30 4610 H 437.045 4.10063 1.07815 0
M  V30 4611 C 435.504 2.82338 1.83813 0
M  V30 4612 O 436.034 2.74311 2.93456 0
M  V30 4613 N 434.24 2.39661 1.6435 0
M  V30 4614 H 433.787 2.46389 0.751668 0
M  V30 4615 H 433.745 2.00779 2.4194 0
M  V30 4616 N 437.518 0.538854 1.48102 0
M  V30 4617 C 438.448 -0.207654 2.32575 0
M  V30 4618 C 439.429 -0.926559 1.4265 0
M  V30 4619 O 440.614 -0.91061 1.71527 0
M  V30 4620 C 437.744 -1.24957 3.24042 0
M  V30 4621 C 436.698 -0.648263 4.23062 0
M  V30 4622 C 436.024 -1.79348 5.03725 0
M  V30 4623 C 437.324 0.385897 5.20872 0
M  V30 4624 H 439.018 0.497534 2.95237 0
M  V30 4625 H 436.564 0.240715 1.41974 0
M  V30 4626 H 438.517 -1.77983 3.81969 0
M  V30 4627 H 437.241 -1.98446 2.59397 0
M  V30 4628 H 435.9 -0.139452 3.66335 0
M  V30 4629 H 435.548 -2.51696 4.35498 0
M  V30 4630 H 435.248 -1.39702 5.70751 0
M  V30 4631 H 436.772 -2.32735 5.64506 0
M  V30 4632 H 438.186 -0.057607 5.73271 0
M  V30 4633 H 436.583 0.700227 5.96001 0
M  V30 4634 H 437.653 1.28848 4.67468 0
M  V30 4635 N 438.996 -1.55193 0.274407 0
M  V30 4636 C 439.943 -2.225 -0.613374 0
M  V30 4637 C 440.913 -1.19823 -1.15029 0
M  V30 4638 O 442.098 -1.48362 -1.19973 0
M  V30 4639 C 439.238 -2.94927 -1.79199 0
M  V30 4640 C 438.351 -4.12322 -1.28899 0
M  V30 4641 C 437.486 -4.72394 -2.42934 0
M  V30 4642 C 436.525 -5.81984 -1.89634 0
M  V30 4643 N 435.662 -6.36123 -2.9714 0
M  V30 4644 H 440.502 -2.97982 -0.032756 0
M  V30 4645 H 438.039 -1.47099 -0.00440146 0
M  V30 4646 H 439.997 -3.35134 -2.48478 0
M  V30 4647 H 438.627 -2.2187 -2.34465 0
M  V30 4648 H 437.679 -3.7724 -0.489327 0
M  V30 4649 H 438.991 -4.91355 -0.858587 0
M  V30 4650 H 438.145 -5.15317 -3.20208 0
M  V30 4651 H 436.884 -3.92636 -2.8929 0
M  V30 4652 H 435.889 -5.38511 -1.1084 0
M  V30 4653 H 437.114 -6.6361 -1.44215 0
M  V30 4654 H 435.06 -5.59259 -3.42878 0
M  V30 4655 H 434.977 -7.10427 -2.58515 0
M  V30 4656 H 436.245 -6.83704 -3.74391 0
M  V30 4657 N 440.474 -0.00167713 -1.576 0
M  V30 4658 C 441.421 0.989195 -2.08527 0
M  V30 4659 C 442.391 1.34031 -0.981065 0
M  V30 4660 O 443.576 1.43839 -1.2536 0
M  V30 4661 C 440.716 2.27537 -2.59463 0
M  V30 4662 C 439.829 1.98314 -3.83791 0
M  V30 4663 C 438.964 3.21025 -4.23222 0
M  V30 4664 C 438.003 2.87495 -5.40382 0
M  V30 4665 N 437.14 4.02749 -5.75098 0
M  V30 4666 H 441.98 0.547973 -2.92919 0
M  V30 4667 H 439.517 0.258917 -1.44803 0
M  V30 4668 H 441.475 3.02729 -2.87073 0
M  V30 4669 H 440.105 2.69325 -1.77943 0
M  V30 4670 H 439.157 1.13482 -3.63078 0
M  V30 4671 H 440.469 1.69601 -4.69081 0
M  V30 4672 H 439.623 4.04561 -4.52123 0
M  V30 4673 H 438.362 3.52877 -3.36644 0
M  V30 4674 H 437.367 2.02367 -5.11202 0
M  V30 4675 H 438.592 2.56889 -6.28637 0
M  V30 4676 H 436.538 4.34494 -4.91478 0
M  V30 4677 H 436.455 3.77566 -6.54966 0
M  V30 4678 H 437.723 4.87068 -6.08592 0
M  V30 4679 N 441.952 1.55251 0.271103 0
M  V30 4680 C 442.885 1.83191 1.36075 0
M  V30 4681 C 443.863 0.685091 1.47463 0
M  V30 4682 O 445.047 0.928292 1.64058 0
M  V30 4683 C 442.174 1.99521 2.73696 0
M  V30 4684 C 441.22 3.22081 2.79582 0
M  V30 4685 S 442.053 4.79388 2.38636 0
M  V30 4686 C 443.209 4.98693 3.78228 0
M  V30 4687 H 443.442 2.75327 1.12171 0
M  V30 4688 H 440.975 1.47046 0.470833 0
M  V30 4689 H 442.933 2.09613 3.52948 0
M  V30 4690 H 441.594 1.0827 2.9485 0
M  V30 4691 H 440.787 3.304 3.80594 0
M  V30 4692 H 440.389 3.10589 2.08352 0
M  V30 4693 H 442.681 4.84551 4.73515 0
M  V30 4694 H 443.624 6.00738 3.7486 0
M  V30 4695 H 444.032 4.26665 3.69618 0
M  V30 4696 N 443.43 -0.535701 1.48216 0
M  V30 4697 C 444.707 -1.29683 1.46429 0
M  V30 4698 C 445.087 -2.10391 0.172852 0
M  V30 4699 O 444.435 -2.12282 -0.845488 0
M  V30 4700 C 444.645 -2.18313 2.72287 0
M  V30 4701 C 445.993 -2.78639 3.20383 0
M  V30 4702 O 447.017 -2.28604 2.73164 0
M  V30 4703 O 445.876 -3.69636 4.02531 0
M  V30 4704 H 442.97 -0.585026 0.584529 0
M  V30 4705 H 445.516 -0.552827 1.60443 0
M  V30 4706 H 444.288 -1.58421 3.57797 0
M  V30 4707 H 443.911 -2.99971 2.60966 0
M  V30 4708 N 444.908 -1.36708 -0.784132 0
M  V30 4709 C 446.154 -1.31426 -1.54451 0
M  V30 4710 C 446.487 0.10476 -1.93917 0
M  V30 4711 O 445.762 1.05934 -1.6312 0
M  V30 4712 C 446.045 -2.24189 -2.818 0
M  V30 4713 C 445.898 -3.74813 -2.48667 0
M  V30 4714 C 447.217 -2.15626 -3.83658 0
M  V30 4715 H 444.336 -0.478739 -0.560337 0
M  V30 4716 H 446.978 -1.67305 -0.900498 0
M  V30 4717 H 445.128 -1.93722 -3.36755 0
M  V30 4718 H 446.8 -4.15823 -1.99722 0
M  V30 4719 H 445.043 -3.93989 -1.81535 0
M  V30 4720 H 445.714 -4.35138 -3.39646 0
M  V30 4721 H 448.19 -2.42456 -3.38163 0
M  V30 4722 H 447.066 -2.82694 -4.70506 0
M  V30 4723 H 447.327 -1.14522 -4.27009 0
M  V30 4724 N 446.386 1.0089 -1.21074 0
M  V30 4725 C 447.634 1.74262 -1.02358 0
M  V30 4726 C 447.955 1.89869 0.444393 0
M  V30 4727 O 447.225 1.44677 1.32081 0
M  V30 4728 H 445.805 0.645615 -0.375754 0
M  V30 4729 H 448.467 1.21596 -1.52317 0
M  V30 4730 H 447.563 2.74328 -1.4883 0
M  V30 4731 N 447.864 1.01787 1.20321 0
M  V30 4732 C 449.112 0.706538 1.89347 0
M  V30 4733 C 449.433 -0.766289 1.79313 0
M  V30 4734 O 448.703 -1.55126 1.19635 0
M  V30 4735 H 447.283 0.258348 0.700903 0
M  V30 4736 H 449.945 1.28974 1.46122 0
M  V30 4737 H 449.041 0.991066 2.95946 0
M  V30 4738 N 449.342 -1.36122 0.79427 0
M  V30 4739 C 450.272 -2.32551 0.210328 0
M  V30 4740 C 451.253 -1.56884 -0.657386 0
M  V30 4741 O 452.438 -1.85014 -0.590207 0
M  V30 4742 C 449.568 -3.41128 -0.651819 0
M  V30 4743 C 448.522 -4.27842 0.116395 0
M  V30 4744 C 447.848 -5.2763 -0.86666 0
M  V30 4745 C 449.148 -5.05647 1.30837 0
M  V30 4746 H 450.842 -2.81636 1.01594 0
M  V30 4747 H 448.388 -1.35407 0.489981 0
M  V30 4748 H 450.341 -4.07581 -1.07031 0
M  V30 4749 H 449.065 -2.90622 -1.49019 0
M  V30 4750 H 447.724 -3.62952 0.515915 0
M  V30 4751 H 447.372 -4.73395 -1.70019 0
M  V30 4752 H 447.072 -5.86514 -0.35705 0
M  V30 4753 H 448.596 -5.96955 -1.28361 0
M  V30 4754 H 450.01 -5.65113 0.965393 0
M  V30 4755 H 448.407 -5.73967 1.75161 0
M  V30 4756 H 449.477 -4.37006 2.10128 0
M  V30 4757 N 450.82 -0.546701 -1.47814 0
M  V30 4758 C 452.045 -0.021268 -2.07389 0
M  V30 4759 C 452.47 1.25822 -1.39822 0
M  V30 4760 O 451.828 1.75111 -0.46968 0
M  V30 4761 C 451.876 0.168502 -3.60206 0
M  V30 4762 O 450.98 1.23347 -3.93522 0
M  V30 4763 H 450.321 -0.0466108 -0.662362 0
M  V30 4764 H 452.851 -0.759387 -1.89985 0
M  V30 4765 H 452.861 0.385982 -4.0617 0
M  V30 4766 H 451.536 -0.766075 -4.08784 0
M  V30 4767 H 450.113 0.997319 -3.59316 0
M  V30 4768 N 452.299 1.55045 -0.282633 0
M  V30 4769 C 453.576 1.9179 0.384166 0
M  V30 4770 C 453.956 1.20778 1.73136 0
M  V30 4771 O 453.304 0.33719 2.25998 0
M  V30 4772 C 453.514 3.45149 0.517014 0
M  V30 4773 C 454.862 4.17064 0.796427 0
M  V30 4774 O 455.886 3.51084 0.601535 0
M  V30 4775 O 454.745 5.33837 1.16962 0
M  V30 4776 H 451.839 0.799483 0.211558 0
M  V30 4777 H 454.385 1.66474 -0.32934 0
M  V30 4778 H 453.157 3.88922 -0.430772 0
M  V30 4779 H 452.78 3.76443 1.2797 0
M  V30 4780 N 453.777 0.010035 1.57597 0
M  V30 4781 C 455.188 -0.531426 1.78977 0
M  V30 4782 C 455.539 -1.73375 0.918454 0
M  V30 4783 O 454.664 -2.16047 0.123635 0
M  V30 4784 C 455.259 -0.97086 3.24592 0
M  V30 4785 C 453.818 -1.45756 3.47033 0
M  V30 4786 C 452.965 -0.413384 2.74201 0
M  V30 4787 H 455.916 0.236166 1.56933 0
M  V30 4788 H 455.937 -1.83633 3.33255 0
M  V30 4789 H 455.449 -0.0955893 3.87982 0
M  V30 4790 H 453.55 -2.35339 2.88871 0
M  V30 4791 H 453.663 -1.4781 4.55729 0
M  V30 4792 H 452.027 -0.877266 2.39115 0
M  V30 4793 H 452.81 0.453092 3.40297 0
M  V30 4794 N 455.255 -1.55392 -0.262866 0
M  V30 4795 C 456.485 -1.80251 -1.00961 0
M  V30 4796 C 456.893 -0.58117 -1.80053 0
M  V30 4797 O 456.236 0.459427 -1.77862 0
M  V30 4798 C 456.298 -2.98207 -2.00781 0
M  V30 4799 C 455.962 -4.34856 -1.40533 0
M  V30 4800 C 456.959 -5.13459 -0.815853 0
M  V30 4801 C 454.644 -4.8153 -1.42948 0
M  V30 4802 C 456.638 -6.36875 -0.258562 0
M  V30 4803 C 454.325 -6.04899 -0.868334 0
M  V30 4804 C 455.323 -6.8241 -0.283884 0
M  V30 4805 O 455.011 -8.03451 0.268644 0
M  V30 4806 H 454.743 -0.604049 -0.303482 0
M  V30 4807 H 457.297 -2.03257 -0.295926 0
M  V30 4808 H 455.527 -2.70917 -2.75936 0
M  V30 4809 H 457.216 -3.10299 -2.61667 0
M  V30 4810 H 457.982 -4.78526 -0.789812 0
M  V30 4811 H 453.861 -4.21201 -1.87378 0
M  V30 4812 H 457.405 -6.97318 0.198257 0
M  V30 4813 H 453.302 -6.39312 -0.891649 0
M  V30 4814 H 454.07 -8.18346 0.158974 0
M  V30 4815 N 456.733 0.527833 -1.48498 0
M  V30 4816 C 457.979 1.28545 -1.56857 0
M  V30 4817 C 458.312 1.92678 -0.242651 0
M  V30 4818 O 457.587 1.79394 0.751545 0
M  V30 4819 C 457.87 2.37314 -2.70839 0
M  V30 4820 C 457.723 1.77858 -4.13142 0
M  V30 4821 C 459.042 3.39068 -2.80573 0
M  V30 4822 H 456.161 0.466006 -0.570971 0
M  V30 4823 H 458.803 0.587784 -1.8068 0
M  V30 4824 H 456.953 2.96821 -2.50658 0
M  V30 4825 H 458.625 1.22385 -4.44769 0
M  V30 4826 H 456.868 1.08383 -4.20042 0
M  V30 4827 H 457.539 2.56624 -4.88721 0
M  V30 4828 H 460.015 2.89518 -2.98862 0
M  V30 4829 H 458.891 4.12566 -3.6205 0
M  V30 4830 H 459.152 3.9975 -1.88818 0
M  V30 4831 N 458.211 1.37122 0.776871 0
M  V30 4832 C 459.158 1.3247 1.88998 0
M  V30 4833 C 460.128 0.191143 1.64997 0
M  V30 4834 O 461.313 0.379683 1.86984 0
M  V30 4835 C 458.453 1.13241 3.25992 0
M  V30 4836 C 457.566 2.35782 3.61982 0
M  V30 4837 C 456.701 2.09465 4.88158 0
M  V30 4838 C 455.74 3.279 5.16864 0
M  V30 4839 N 454.877 3.01167 6.34226 0
M  V30 4840 H 459.717 2.27642 1.9231 0
M  V30 4841 H 457.254 1.13125 0.94027 0
M  V30 4842 H 459.212 1.00115 4.0501 0
M  V30 4843 H 457.842 0.217186 3.22069 0
M  V30 4844 H 456.894 2.59666 2.77989 0
M  V30 4845 H 458.206 3.24125 3.79137 0
M  V30 4846 H 457.36 1.93341 5.75069 0
M  V30 4847 H 456.099 1.18452 4.73097 0
M  V30 4848 H 455.104 3.44569 4.2843 0
M  V30 4849 H 456.329 4.19757 5.33836 0
M  V30 4850 H 454.275 2.12779 6.20533 0
M  V30 4851 H 454.192 3.83052 6.51772 0
M  V30 4852 H 455.46 2.88649 7.24087 0
M  V30 4853 N 459.689 -1.00246 1.21608 0
M  V30 4854 C 460.938 -1.73476 1.02902 0
M  V30 4855 C 461.251 -1.90643 -0.437561 0
M  V30 4856 O 462.457 -2.61105 -0.74407 0
M  V30 4857 C 460.913 -3.12079 1.79261 0
M  V30 4858 C 460.521 -3.02877 3.30106 0
M  V30 4859 C 462.265 -3.89421 1.68972 0
M  V30 4860 C 460.172 -4.36575 3.98944 0
M  V30 4861 H 459.102 -0.650408 0.381425 0
M  V30 4862 H 461.753 -1.11985 1.45367 0
M  V30 4863 H 460.135 -3.74196 1.2959 0
M  V30 4864 H 461.309 -2.49983 3.87098 0
M  V30 4865 H 459.624 -2.39022 3.40965 0
M  V30 4866 H 462.221 -4.88362 2.17731 0
M  V30 4867 H 462.564 -4.1122 0.648397 0
M  V30 4868 H 463.097 -3.33963 2.16133 0
M  V30 4869 H 459.836 -4.19978 5.03288 0
M  V30 4870 H 459.356 -4.8942 3.4674 0
M  V30 4871 H 461.035 -5.05364 4.04 0
M  V30 4872 N 461.167 -1.02423 -1.1978 0
M  V30 4873 C 462.117 -0.571689 -2.20716 0
M  V30 4874 C 463.101 0.377077 -1.56419 0
M  V30 4875 O 464.293 0.198801 -1.7588 0
M  V30 4876 C 461.422 0.0808555 -3.43205 0
M  V30 4877 C 460.508 -0.890073 -4.14655 0
M  V30 4878 N 460.899 -2.05065 -4.62366 0
M  V30 4879 C 459.197 -0.71252 -4.40272 0
M  V30 4880 C 459.898 -2.66264 -5.17183 0
M  V30 4881 N 458.874 -1.94264 -5.07703 0
M  V30 4882 H 462.676 -1.45636 -2.55279 0
M  V30 4883 H 460.19 -0.890596 -1.35802 0
M  V30 4884 H 462.187 0.422654 -4.14752 0
M  V30 4885 H 460.847 0.961274 -3.10144 0
M  V30 4886 H 461.858 -2.43026 -4.57339 0
M  V30 4887 H 458.535 0.119199 -4.1733 0
M  V30 4888 H 459.925 -3.64526 -5.64421 0
M  V30 4889 N 462.645 1.35699 -0.801477 0
M  V30 4890 C 463.575 2.32436 -0.222658 0
M  V30 4891 C 464.556 1.5723 0.649057 0
M  V30 4892 O 465.741 1.85324 0.580387 0
M  V30 4893 C 462.871 3.41469 0.633719 0
M  V30 4894 C 461.825 4.27774 -0.139083 0
M  V30 4895 C 461.151 5.28082 0.838666 0
M  V30 4896 C 462.451 5.04946 -1.33517 0
M  V30 4897 H 464.145 2.81094 -1.03086 0
M  V30 4898 H 461.691 1.35146 -0.497155 0
M  V30 4899 H 463.644 4.08143 1.04868 0
M  V30 4900 H 462.368 2.91408 1.47475 0
M  V30 4901 H 461.027 3.62673 -0.535156 0
M  V30 4902 H 460.675 4.7429 1.67506 0
M  V30 4903 H 460.375 5.86695 0.32594 0
M  V30 4904 H 461.899 5.97628 1.25194 0
M  V30 4905 H 463.313 5.64593 -0.995349 0
M  V30 4906 H 461.71 5.7303 -1.78202 0
M  V30 4907 H 462.78 4.35886 -2.12442 0
M  V30 4908 N 464.123 0.554532 1.47522 0
M  V30 4909 C 465.056 -0.242442 2.26908 0
M  V30 4910 C 466.034 -0.922722 1.33883 0
M  V30 4911 O 467.218 -0.942244 1.63261 0
M  V30 4912 C 464.345 -1.34525 3.10839 0
M  V30 4913 C 463.391 -0.773805 4.19422 0
M  V30 4914 S 464.224 0.377525 5.34168 0
M  V30 4915 C 465.38 -0.727164 6.21662 0
M  V30 4916 H 465.613 0.431218 2.94156 0
M  V30 4917 H 463.146 0.3408 1.50592 0
M  V30 4918 H 465.104 -1.97683 3.59766 0
M  V30 4919 H 463.765 -1.99073 2.42958 0
M  V30 4920 H 462.958 -1.60187 4.77866 0
M  V30 4921 H 462.56 -0.218448 3.73361 0
M  V30 4922 H 464.852 -1.61992 6.57849 0
M  V30 4923 H 465.795 -0.180135 7.07871 0
M  V30 4924 H 466.203 -1.01863 5.55233 0
M  V30 4925 N 465.601 -1.54893 0.290851 0
M  V30 4926 C 466.533 -2.20564 -0.623236 0
M  V30 4927 C 467.546 -1.19519 -1.1054 0
M  V30 4928 O 468.735 -1.46165 -1.02459 0
M  V30 4929 C 465.835 -2.83033 -1.86401 0
M  V30 4930 C 465.008 -4.09916 -1.52604 0
M  V30 4931 C 464.067 -4.56284 -2.62091 0
M  V30 4932 O 463.093 -5.2171 -2.27612 0
M  V30 4933 N 464.295 -4.27746 -3.92446 0
M  V30 4934 H 467.06 -2.99638 -0.0610915 0
M  V30 4935 H 464.621 -1.61508 0.112615 0
M  V30 4936 H 466.613 -3.1099 -2.58973 0
M  V30 4937 H 465.183 -2.0786 -2.33481 0
M  V30 4938 H 464.403 -3.89078 -0.633424 0
M  V30 4939 H 465.691 -4.92554 -1.27547 0
M  V30 4940 H 465.089 -3.7531 -4.23272 0
M  V30 4941 H 463.646 -4.60437 -4.61347 0
M  V30 4942 N 467.08 -0.0183926 -1.57589 0
M  V30 4943 C 468.028 0.985111 -2.10709 0
M  V30 4944 C 469.022 1.34397 -1.0312 0
M  V30 4945 O 470.228 1.32746 -1.21567 0
M  V30 4946 H 466.603 0.335418 -0.673052 0
M  V30 4947 H 468.574 0.511689 -2.9398 0
M  V30 4948 C 467.323 2.26202 -2.64061 0
M  V30 4949 H 466.646 1.9946 -3.4649 0
M  V30 4950 H 468.086 2.94652 -3.04887 0
M  V30 4951 C 466.545 2.98444 -1.5631 0
M  V30 4952 O 467.075 3.90142 -0.956674 0
M  V30 4953 N 465.281 2.6059 -1.28612 0
M  V30 4954 H 464.828 1.86101 -1.78112 0
M  V30 4955 H 464.786 3.09238 -0.567406 0
M  V30 4956 N 468.558 1.5553 0.254621 0
M  V30 4957 C 469.806 1.7665 0.981793 0
M  V30 4958 C 470.127 0.580963 1.86145 0
M  V30 4959 O 469.397 -0.403537 1.91699 0
M  V30 4960 H 467.977 0.651475 0.365498 0
M  V30 4961 H 470.639 1.92958 0.274426 0
M  V30 4962 H 469.735 2.67486 1.60802 0
M  V30 4963 N 470.036 -0.519951 1.48776 0
M  V30 4964 C 470.983 -1.62352 1.64044 0
M  V30 4965 C 471.953 -1.58945 0.482251 0
M  V30 4966 O 473.138 -1.77219 0.706971 0
M  V30 4967 C 470.278 -3.00579 1.69547 0
M  V30 4968 C 469.391 -3.14145 2.96541 0
M  V30 4969 C 468.526 -4.42991 2.93142 0
M  V30 4970 C 467.565 -4.50122 4.14797 0
M  V30 4971 N 466.702 -5.7037 4.09418 0
M  V30 4972 H 471.542 -1.48643 2.58281 0
M  V30 4973 H 469.079 -0.723516 1.28077 0
M  V30 4974 H 471.037 -3.80671 1.70719 0
M  V30 4975 H 469.667 -3.13036 0.787918 0
M  V30 4976 H 468.719 -2.27239 3.05068 0
M  V30 4977 H 470.031 -3.15275 3.86527 0
M  V30 4978 H 469.185 -5.31385 2.92772 0
M  V30 4979 H 467.924 -4.44398 2.00902 0
M  V30 4980 H 466.929 -3.60133 4.15433 0
M  V30 4981 H 468.154 -4.50445 5.08208 0
M  V30 4982 H 466.1 -5.72655 3.20004 0
M  V30 4983 H 466.017 -5.73036 4.93119 0
M  V30 4984 H 467.285 -6.61023 4.13121 0
M  V30 4985 N 471.514 -1.37532 -0.769588 0
M  V30 4986 C 472.93 -1.18379 -1.07045 0
M  V30 4987 C 473.13 -0.0214312 -2.01489 0
M  V30 4988 O 472.186 0.637809 -2.44312 0
M  V30 4989 C 473.499 -2.50338 -1.66588 0
M  V30 4990 C 475.047 -2.56879 -1.78835 0
M  V30 4991 C 475.522 -3.88974 -2.41792 0
M  V30 4992 N 477.013 -3.90428 -2.4924 0
M  V30 4993 C 477.748 -4.89388 -2.98809 0
M  V30 4994 N 477.244 -5.98745 -3.48535 0
M  V30 4995 N 479.037 -4.76791 -2.97703 0
M  V30 4996 H 471.188 -2.11921 -0.142541 0
M  V30 4997 H 473.451 -0.939608 -0.125863 0
M  V30 4998 H 473.157 -3.35767 -1.0466 0
M  V30 4999 H 473.031 -2.67583 -2.65856 0
M  V30 5000 H 475.418 -1.71856 -2.39895 0
M  V30 5001 H 475.499 -2.43516 -0.783166 0
M  V30 5002 H 475.143 -4.74412 -1.81371 0
M  V30 5003 H 475.073 -3.99641 -3.4292 0
M  V30 5004 H 477.564 -3.11433 -2.14052 0
M  V30 5005 H 477.877 -6.70205 -3.84767 0
M  V30 5006 H 476.222 -6.02387 -3.46634 0
M  V30 5007 H 479.413 -3.90478 -2.58157 0
M  V30 5008 H 479.586 -5.54069 -3.36024 0
M  V30 5009 N 472.992 0.995999 -1.22138 0
M  V30 5010 C 473.922 2.10387 -1.01289 0
M  V30 5011 C 474.903 1.69975 0.0651454 0
M  V30 5012 O 476.088 1.9396 -0.0964628 0
M  V30 5013 C 473.218 3.42312 -0.586517 0
M  V30 5014 C 472.172 3.96558 -1.61014 0
M  V30 5015 C 471.498 5.24494 -1.0397 0
M  V30 5016 C 472.798 4.27595 -2.99933 0
M  V30 5017 H 474.492 2.28086 -1.93951 0
M  V30 5018 H 472.038 1.09607 -0.933928 0
M  V30 5019 H 473.991 4.19223 -0.427793 0
M  V30 5020 H 472.715 3.24431 0.375761 0
M  V30 5021 H 471.374 3.21776 -1.75658 0
M  V30 5022 H 471.022 5.02953 -0.0688703 0
M  V30 5023 H 470.722 5.61755 -1.72352 0
M  V30 5024 H 472.246 6.04042 -0.892494 0
M  V30 5025 H 473.66 4.95315 -2.8868 0
M  V30 5026 H 472.057 4.76021 -3.6541 0
M  V30 5027 H 473.127 3.35498 -3.50099 0
M  V30 5028 N 474.47 1.03057 1.19235 0
M  V30 5029 C 475.417 0.612832 2.22515 0
M  V30 5030 C 476.387 -0.374224 1.61829 0
M  V30 5031 O 477.572 -0.270501 1.88873 0
M  V30 5032 C 474.712 -0.028475 3.45088 0
M  V30 5033 C 473.825 1.00483 4.20151 0
M  V30 5034 C 472.96 0.333102 5.30155 0
M  V30 5035 C 471.999 1.3522 5.96977 0
M  V30 5036 N 471.136 0.70616 6.9854 0
M  V30 5037 H 475.976 1.49812 2.57605 0
M  V30 5038 H 473.513 0.749658 1.26564 0
M  V30 5039 H 475.471 -0.417548 4.15105 0
M  V30 5040 H 474.101 -0.877334 3.10649 0
M  V30 5041 H 473.153 1.51194 3.49062 0
M  V30 5042 H 474.465 1.77929 4.65986 0
M  V30 5043 H 473.619 -0.110725 6.06599 0
M  V30 5044 H 472.358 -0.473547 4.85396 0
M  V30 5045 H 471.363 1.80627 5.19282 0
M  V30 5046 H 472.588 2.16037 6.4382 0
M  V30 5047 H 470.534 -0.0803667 6.55951 0
M  V30 5048 H 470.451 1.41848 7.42573 0
M  V30 5049 H 471.719 0.286391 7.78974 0
M  V30 5050 N 475.948 -1.35272 0.808662 0
M  V30 5051 C 476.895 -2.29764 0.218482 0
M  V30 5052 C 477.865 -1.52911 -0.648652 0
M  V30 5053 O 479.05 -1.81341 -0.593297 0
M  V30 5054 C 476.19 -3.39388 -0.625282 0
M  V30 5055 C 475.303 -4.31202 0.262516 0
M  V30 5056 C 474.438 -5.27919 -0.589451 0
M  V30 5057 C 473.477 -6.11371 0.298617 0
M  V30 5058 N 472.614 -7.0022 -0.513443 0
M  V30 5059 H 477.454 -2.79645 1.02968 0
M  V30 5060 H 474.991 -1.37629 0.519303 0
M  V30 5061 H 476.949 -4.01615 -1.12966 0
M  V30 5062 H 475.579 -2.90777 -1.40173 0
M  V30 5063 H 474.631 -3.69962 0.885013 0
M  V30 5064 H 475.943 -4.89748 0.945971 0
M  V30 5065 H 475.097 -5.95529 -1.15888 0
M  V30 5066 H 473.836 -4.69875 -1.30647 0
M  V30 5067 H 472.841 -5.42707 0.880301 0
M  V30 5068 H 474.066 -6.71494 1.01352 0
M  V30 5069 H 472.012 -6.44662 -1.21439 0
M  V30 5070 H 471.929 -7.55917 0.111922 0
M  V30 5071 H 473.197 -7.72175 -1.06608 0
M  V30 5072 N 477.426 -0.562348 -1.47226 0
M  V30 5073 C 478.373 0.182461 -2.30078 0
M  V30 5074 C 479.343 0.903503 -1.39377 0
M  V30 5075 O 480.528 0.898188 -1.68337 0
M  V30 5076 C 477.668 1.20322 -3.23445 0
M  V30 5077 C 476.781 0.487717 -4.29238 0
M  V30 5078 C 475.916 1.49422 -5.09752 0
M  V30 5079 C 474.955 0.763976 -6.07314 0
M  V30 5080 N 474.092 1.71755 -6.80768 0
M  V30 5081 H 478.932 -0.530169 -2.93246 0
M  V30 5082 H 476.469 -0.273276 -1.44539 0
M  V30 5083 H 478.427 1.80768 -3.76004 0
M  V30 5084 H 477.057 1.88382 -2.6213 0
M  V30 5085 H 476.109 -0.231374 -3.79696 0
M  V30 5086 H 477.421 -0.0841003 -4.98729 0
M  V30 5087 H 476.575 2.17206 -5.66486 0
M  V30 5088 H 475.314 2.09995 -4.40174 0
M  V30 5089 H 474.319 0.0722344 -5.49753 0
M  V30 5090 H 475.544 0.16391 -6.78902 0
M  V30 5091 H 473.49 2.31177 -6.13916 0
M  V30 5092 H 473.407 1.19802 -7.46447 0
M  V30 5093 H 474.675 2.38638 -7.42073 0
M  V30 5094 N 478.904 1.54736 -0.299062 0
M  V30 5095 C 479.851 2.23448 0.577899 0
M  V30 5096 C 480.821 1.21637 1.13109 0
M  V30 5097 O 482.006 1.50252 1.17597 0
M  V30 5098 C 479.146 2.9774 1.74484 0
M  V30 5099 C 478.259 4.1432 1.22323 0
M  V30 5100 C 477.394 4.76199 2.35388 0
M  V30 5101 C 476.433 5.84927 1.80351 0
M  V30 5102 N 475.57 6.4077 2.86982 0
M  V30 5103 H 480.41 2.97996 -0.0146545 0
M  V30 5104 H 477.947 1.47088 -0.0190013 0
M  V30 5105 H 479.905 3.39045 2.43114 0
M  V30 5106 H 478.535 2.25572 2.30905 0
M  V30 5107 H 477.587 3.7797 0.429249 0
M  V30 5108 H 478.899 4.92659 0.780309 0
M  V30 5109 H 478.053 5.20346 3.11969 0
M  V30 5110 H 476.792 3.97188 2.83006 0
M  V30 5111 H 475.797 5.40207 1.02259 0
M  V30 5112 H 477.022 6.65821 1.3364 0
M  V30 5113 H 474.968 5.64643 3.33938 0
M  V30 5114 H 474.885 7.1445 2.4718 0
M  V30 5115 H 476.153 6.89574 3.63466 0
M  V30 5116 N 480.382 0.0267497 1.57577 0
M  V30 5117 C 481.61 -0.662661 1.96001 0
M  V30 5118 C 482.025 -1.65799 0.903117 0
M  V30 5119 O 481.382 -1.82135 -0.115317 0
M  V30 5120 C 481.433 -1.37112 3.34488 0
M  V30 5121 O 481.154 -0.415683 4.36123 0
M  V30 5122 C 482.655 -2.15257 3.8753 0
M  V30 5123 H 479.875 -0.18287 0.6456 0
M  V30 5124 H 482.419 0.0858116 2.0432 0
M  V30 5125 H 480.574 -2.07101 3.27395 0
M  V30 5126 H 480.988 -0.918496 5.16395 0
M  V30 5127 H 482.462 -2.60285 4.86781 0
M  V30 5128 H 482.939 -2.99063 3.21649 0
M  V30 5129 H 483.545 -1.50231 3.97883 0
M  V30 5130 N 481.861 -1.55662 -0.24637 0
M  V30 5131 C 483.089 -1.81575 -0.991876 0
M  V30 5132 C 483.504 -0.602545 -1.78927 0
M  V30 5133 O 482.861 0.428795 -1.77391 0
M  V30 5134 C 482.912 -3.05711 -1.92933 0
M  V30 5135 O 482.633 -4.22348 -1.1642 0
M  V30 5136 C 484.134 -3.44428 -2.79078 0
M  V30 5137 H 481.354 -0.604209 -0.291844 0
M  V30 5138 H 483.898 -2.02722 -0.269095 0
M  V30 5139 H 482.053 -2.86612 -2.60638 0
M  V30 5140 H 482.467 -4.92706 -1.79835 0
M  V30 5141 H 483.941 -4.34388 -3.40603 0
M  V30 5142 H 484.418 -2.65037 -3.50217 0
M  V30 5143 H 485.024 -3.65879 -2.16824 0
M  V30 5144 N 483.339 0.512053 -1.4905 0
M  V30 5145 C 484.585 1.26874 -1.58212 0
M  V30 5146 C 484.918 1.9241 -0.263073 0
M  V30 5147 O 484.193 1.80181 0.732476 0
M  V30 5148 C 484.476 2.34428 -2.73341 0
M  V30 5149 C 484.329 1.73466 -4.15006 0
M  V30 5150 C 485.648 3.36073 -2.84154 0
M  V30 5151 H 482.767 0.459924 -0.575881 0
M  V30 5152 H 485.409 0.568587 -1.81293 0
M  V30 5153 H 483.559 2.94146 -2.53792 0
M  V30 5154 H 485.231 1.17661 -4.46042 0
M  V30 5155 H 483.474 1.03921 -4.21168 0
M  V30 5156 H 484.145 2.51426 -4.91415 0
M  V30 5157 H 486.621 2.86332 -3.01916 0
M  V30 5158 H 485.497 4.08703 -3.66406 0
M  V30 5159 H 485.758 3.97725 -1.93048 0
M  V30 5160 N 484.817 1.37938 0.762283 0
M  V30 5161 C 485.764 1.34467 1.87583 0
M  V30 5162 C 486.734 0.208633 1.64785 0
M  V30 5163 O 487.919 0.399494 1.86571 0
M  V30 5164 C 485.059 1.16692 3.24772 0
M  V30 5165 C 484.172 2.39608 3.59461 0
M  V30 5166 C 483.307 2.14631 4.85908 0
M  V30 5167 C 482.346 3.33364 5.13357 0
M  V30 5168 N 481.483 3.07877 6.30996 0
M  V30 5169 H 486.323 2.29669 1.89885 0
M  V30 5170 H 483.86 1.14116 0.928219 0
M  V30 5171 H 485.818 1.04405 4.03925 0
M  V30 5172 H 484.448 0.251333 3.2182 0
M  V30 5173 H 483.5 2.626 2.75219 0
M  V30 5174 H 484.812 3.28128 3.75678 0
M  V30 5175 H 483.966 1.99429 5.72986 0
M  V30 5176 H 482.705 1.23463 4.71814 0
M  V30 5177 H 481.71 3.49094 4.24751 0
M  V30 5178 H 482.935 4.25395 5.29354 0
M  V30 5179 H 480.881 2.19348 6.18241 0
M  V30 5180 H 480.798 3.89944 6.47673 0
M  V30 5181 H 482.066 2.96313 7.20985 0
M  V30 5182 N 486.295 -0.989507 1.22664 0
M  V30 5183 C 487.242 -2.08024 0.999733 0
M  V30 5184 C 488.212 -1.65909 -0.0797047 0
M  V30 5185 O 489.397 -1.90669 0.0705715 0
M  V30 5186 C 486.537 -3.40067 0.587234 0
M  V30 5187 C 485.65 -3.95505 1.73781 0
M  V30 5188 C 484.785 -5.15722 1.27297 0
M  V30 5189 C 483.824 -5.63305 2.39488 0
M  V30 5190 N 482.961 -6.74758 1.94026 0
M  V30 5191 H 487.801 -2.26768 1.9334 0
M  V30 5192 H 485.338 -1.11171 0.963297 0
M  V30 5193 H 487.296 -4.15899 0.329227 0
M  V30 5194 H 485.926 -3.21314 -0.309426 0
M  V30 5195 H 484.978 -3.16513 2.11006 0
M  V30 5196 H 486.29 -4.26797 2.58158 0
M  V30 5197 H 485.444 -5.98854 0.972546 0
M  V30 5198 H 484.183 -4.86061 0.399445 0
M  V30 5199 H 483.188 -4.78759 2.70315 0
M  V30 5200 H 484.413 -5.94988 3.27362 0
M  V30 5201 H 482.359 -6.46874 1.09041 0
M  V30 5202 H 482.276 -7.05386 2.71968 0
M  V30 5203 H 483.544 -7.61387 1.67062 0
M  V30 5204 N 487.773 -1.03688 -1.18687 0
M  V30 5205 C 488.72 -0.624624 -2.22187 0
M  V30 5206 C 489.69 0.365636 -1.62026 0
M  V30 5207 O 490.875 0.260481 -1.89014 0
M  V30 5208 C 488.015 0.0101738 -3.45099 0
M  V30 5209 C 487.128 -1.02709 -4.19613 0
M  V30 5210 C 486.263 -0.361213 -5.2997 0
M  V30 5211 C 485.302 -1.38384 -5.96252 0
M  V30 5212 N 484.439 -0.743196 -6.98155 0
M  V30 5213 H 489.279 -1.51176 -2.56807 0
M  V30 5214 H 486.816 -0.75636 -1.26165 0
M  V30 5215 H 488.774 0.395528 -4.15321 0
M  V30 5216 H 487.404 0.860848 -3.1111 0
M  V30 5217 H 486.456 -1.53043 -3.48256 0
M  V30 5218 H 487.768 -1.80398 -4.65036 0
M  V30 5219 H 486.922 0.0785537 -6.06649 0
M  V30 5220 H 485.661 0.447799 -4.8564 0
M  V30 5221 H 484.666 -1.83378 -5.18317 0
M  V30 5222 H 485.891 -2.19448 -6.42666 0
M  V30 5223 H 483.837 0.0455789 -6.55984 0
M  V30 5224 H 483.754 -1.45784 -7.41811 0
M  V30 5225 H 485.022 -0.327698 -7.78811 0
M  V30 5226 N 489.251 1.34841 -0.815825 0
M  V30 5227 C 490.479 2.0273 -0.413294 0
M  V30 5228 C 490.894 1.61459 0.978599 0
M  V30 5229 O 490.251 0.816584 1.63212 0
M  V30 5230 C 490.302 3.58058 -0.497676 0
M  V30 5231 O 490.023 3.97832 -1.8347 0
M  V30 5232 C 491.524 4.4321 -0.0891339 0
M  V30 5233 H 488.744 0.649956 -0.166728 0
M  V30 5234 H 491.288 1.72267 -1.10201 0
M  V30 5235 H 489.443 3.87136 0.142886 0
M  V30 5236 H 489.857 4.92501 -1.80396 0
M  V30 5237 H 491.331 5.5164 -0.199274 0
M  V30 5238 H 491.808 4.28432 0.966571 0
M  V30 5239 H 492.414 4.19446 -0.703214 0
M  V30 5240 N 490.729 0.570148 1.46925 0
M  V30 5241 C 491.659 -0.158274 2.32963 0
M  V30 5242 C 492.64 -0.896093 1.44583 0
M  V30 5243 O 493.825 -0.874022 1.7342 0
M  V30 5244 C 490.955 -1.18055 3.26619 0
M  V30 5245 C 489.909 -0.558379 4.24342 0
M  V30 5246 C 489.235 -1.68623 5.07415 0
M  V30 5247 C 490.535 0.496295 5.19937 0
M  V30 5248 H 492.229 0.560046 2.94115 0
M  V30 5249 H 489.775 0.270775 1.41431 0
M  V30 5250 H 491.728 -1.69841 3.85658 0
M  V30 5251 H 490.452 -1.92899 2.63548 0
M  V30 5252 H 489.111 -0.0617157 3.66548 0
M  V30 5253 H 488.759 -2.42402 4.40738 0
M  V30 5254 H 488.459 -1.27564 5.73586 0
M  V30 5255 H 489.983 -2.20709 5.69315 0
M  V30 5256 H 491.397 0.0640052 5.73264 0
M  V30 5257 H 489.794 0.82649 5.94381 0
M  V30 5258 H 490.864 1.38735 4.6463 0
M  V30 5259 N 492.207 -1.54576 0.307264 0
M  V30 5260 C 493.155 -2.25208 -0.581723 0
M  V30 5261 C 494.149 -1.26031 -1.13192 0
M  V30 5262 O 495.355 -1.43862 -1.08184 0
M  V30 5263 H 491.73 -0.723173 -0.206214 0
M  V30 5264 H 493.701 -2.98378 0.0364663 0
M  V30 5265 C 492.45 -3.01086 -1.73904 0
M  V30 5266 H 491.773 -3.77208 -1.32491 0
M  V30 5267 H 493.213 -3.5378 -2.33701 0
M  V30 5268 C 491.672 -2.08422 -2.64692 0
M  V30 5269 O 492.202 -1.65636 -3.65961 0
M  V30 5270 N 490.408 -1.74247 -2.32564 0
M  V30 5271 H 489.955 -2.09238 -1.50257 0
M  V30 5272 H 489.913 -1.12524 -2.93574 0
M  V30 5273 N 493.685 -0.035106 -1.57561 0
M  V30 5274 C 495.096 0.502885 -1.798 0
M  V30 5275 C 495.447 1.71892 -0.945921 0
M  V30 5276 O 494.572 2.15822 -0.157991 0
M  V30 5277 C 495.167 0.919097 -3.26095 0
M  V30 5278 C 493.726 1.40216 -3.49308 0
M  V30 5279 C 492.873 0.369709 -2.74824 0
M  V30 5280 H 495.824 -0.261102 -1.56537 0
M  V30 5281 H 495.845 1.78308 -3.36135 0
M  V30 5282 H 495.357 0.0338526 -3.88085 0
M  V30 5283 H 493.458 2.30714 -2.92578 0
M  V30 5284 H 493.571 1.40541 -4.58023 0
M  V30 5285 H 491.935 0.839113 -2.40481 0
M  V30 5286 H 492.718 -0.507173 -3.39533 0
M  V30 5287 N 495.163 1.55791 0.238111 0
M  V30 5288 C 496.393 1.81834 0.980809 0
M  V30 5289 C 496.801 0.609741 1.79106 0
M  V30 5290 O 496.144 -0.431073 1.78571 0
M  V30 5291 C 496.206 3.01363 1.96011 0
M  V30 5292 C 495.87 4.37037 1.33597 0
M  V30 5293 C 496.867 5.14692 0.734063 0
M  V30 5294 C 494.552 4.83743 1.3527 0
M  V30 5295 C 496.546 6.37206 0.157208 0
M  V30 5296 C 494.233 6.06204 0.77199 0
M  V30 5297 C 495.231 6.82775 0.175282 0
M  V30 5298 O 494.919 8.02922 -0.396432 0
M  V30 5299 H 494.651 0.6088 0.293834 0
M  V30 5300 H 497.205 2.03702 0.263552 0
M  V30 5301 H 495.435 2.75273 2.71591 0
M  V30 5302 H 497.124 3.14422 2.56697 0
M  V30 5303 H 497.89 4.79722 0.713582 0
M  V30 5304 H 493.769 4.24129 1.80653 0
M  V30 5305 H 497.313 6.96915 -0.30917 0
M  V30 5306 H 493.21 6.4065 0.789828 0
M  V30 5307 H 493.978 8.17989 -0.289145 0
M  V30 5308 N 496.642 -0.504142 1.49319 0
M  V30 5309 C 497.889 -1.25846 1.58647 0
M  V30 5310 C 498.217 -1.92592 0.27177 0
M  V30 5311 O 497.472 -1.81167 -0.74007 0
M  V30 5312 C 497.771 -2.35021 2.69258 0
M  V30 5313 C 497.437 -1.85755 4.1086 0
M  V30 5314 C 496.099 -1.72038 4.49395 0
M  V30 5315 C 498.451 -1.48844 4.99495 0
M  V30 5316 C 495.779 -1.19783 5.74342 0
M  V30 5317 C 498.131 -0.980422 6.24956 0
M  V30 5318 C 496.795 -0.829622 6.62324 0
M  V30 5319 H 496.065 -0.460505 0.580531 0
M  V30 5320 H 498.712 -0.559716 1.83138 0
M  V30 5321 H 497.017 -3.10672 2.38726 0
M  V30 5322 H 498.714 -2.93083 2.73685 0
M  V30 5323 H 495.304 -1.9739 3.80441 0
M  V30 5324 H 499.488 -1.5829 4.70381 0
M  V30 5325 H 494.744 -1.06817 6.01997 0
M  V30 5326 H 498.918 -0.685608 6.93017 0
M  V30 5327 H 496.545 -0.42253 7.59025 0
M  V30 5328 N 498.12 -1.38341 -0.754957 0
M  V30 5329 C 499.068 -1.35573 -1.89005 0
M  V30 5330 C 500.062 -0.241824 -1.67665 0
M  V30 5331 O 501.268 -0.410785 -1.7525 0
M  V30 5332 H 497.643 -0.422898 -0.621821 0
M  V30 5333 H 499.614 -2.31359 -1.88455 0
M  V30 5334 C 498.363 -1.19631 -3.26471 0
M  V30 5335 H 497.686 -2.04605 -3.43477 0
M  V30 5336 H 499.126 -1.21748 -4.06144 0
M  V30 5337 C 497.585 0.0968705 -3.36761 0
M  V30 5338 O 498.115 1.07439 -3.87066 0
M  V30 5339 N 496.321 0.153242 -2.90196 0
M  V30 5340 H 495.868 -0.642908 -2.49448 0
M  V30 5341 H 495.826 1.01807 -2.9746 0
M  V30 5342 N 499.598 0.982988 -1.23187 0
M  V30 5343 C 500.508 2.10907 -1.02739 0
M  V30 5344 C 501.524 1.73979 0.0273188 0
M  V30 5345 O 502.7 2.00702 -0.16757 0
M  V30 5346 C 499.765 3.41142 -0.618304 0
M  V30 5347 C 498.826 3.92112 -1.74777 0
M  V30 5348 C 498.059 5.16131 -1.3581 0
M  V30 5349 O 498.282 5.6989 -0.241201 0
M  V30 5350 O 497.216 5.61103 -2.17824 0
M  V30 5351 H 501.042 2.31046 -1.97108 0
M  V30 5352 H 498.627 1.09284 -1.01869 0
M  V30 5353 H 500.509 4.19488 -0.400982 0
M  V30 5354 H 499.184 3.2234 0.296421 0
M  V30 5355 H 498.091 3.14895 -2.0197 0
M  V30 5356 H 499.424 4.15364 -2.64071 0
M  V30 5357 N 501.076 1.04316 1.18135 0
M  V30 5358 C 502.301 0.768047 1.92655 0
M  V30 5359 C 502.726 -0.66904 1.758 0
M  V30 5360 O 502.084 -1.46372 1.06981 0
M  V30 5361 C 502.132 1.14239 3.42026 0
M  V30 5362 O 501.236 0.269333 4.1152 0
M  V30 5363 H 500.577 0.282436 0.600937 0
M  V30 5364 H 503.107 1.39367 1.49793 0
M  V30 5365 H 503.117 1.10538 3.92741 0
M  V30 5366 H 501.792 2.18928 3.53615 0
M  V30 5367 H 500.369 0.366175 3.71098 0
M  V30 5368 N 502.554 -1.34406 0.822964 0
M  V30 5369 C 503.801 -1.98284 0.411057 0
M  V30 5370 C 504.129 -1.65245 -1.02588 0
M  V30 5371 O 503.384 -0.91619 -1.72929 0
M  V30 5372 C 503.683 -3.52981 0.560268 0
M  V30 5373 C 503.349 -4.05931 1.96293 0
M  V30 5374 C 502.011 -4.20103 2.34664 0
M  V30 5375 C 504.363 -4.34412 2.87985 0
M  V30 5376 C 501.691 -4.60082 3.64062 0
M  V30 5377 C 504.043 -4.75838 4.16847 0
M  V30 5378 C 502.707 -4.88215 4.55195 0
M  V30 5379 H 501.977 -0.725573 0.150416 0
M  V30 5380 H 504.624 -1.60349 1.04692 0
M  V30 5381 H 502.929 -3.91477 -0.158982 0
M  V30 5382 H 504.626 -4.00385 0.222087 0
M  V30 5383 H 501.216 -3.95363 1.65487 0
M  V30 5384 H 505.4 -4.23001 2.59584 0
M  V30 5385 H 500.656 -4.67856 3.93599 0
M  V30 5386 H 504.83 -4.96834 4.87984 0
M  V30 5387 H 502.457 -5.18952 5.55512 0
M  V30 5388 N 504.032 -0.577932 -1.46621 0
M  V30 5389 C 505.257 -0.0652536 -2.07297 0
M  V30 5390 C 505.682 1.22828 -1.4246 0
M  V30 5391 O 505.04 1.74075 -0.506718 0
M  V30 5392 C 505.088 0.0920589 -3.60482 0
M  V30 5393 O 504.192 1.14972 -3.96049 0
M  V30 5394 H 503.533 -0.06065 -0.661224 0
M  V30 5395 H 506.063 -0.799515 -1.88332 0
M  V30 5396 H 506.073 0.299741 -4.06897 0
M  V30 5397 H 504.748 -0.852612 -4.07067 0
M  V30 5398 H 503.325 0.920879 -3.61351 0
M  V30 5399 N 505.51 1.54411 -0.315457 0
M  V30 5400 C 506.757 2.00419 0.289543 0
M  V30 5401 C 507.085 1.20373 1.52776 0
M  V30 5402 O 506.34 0.271769 1.93804 0
M  V30 5403 C 506.639 3.50936 0.676652 0
M  V30 5404 C 506.305 4.48532 -0.461472 0
M  V30 5405 C 504.967 4.74936 -0.773879 0
M  V30 5406 C 507.319 5.06567 -1.22637 0
M  V30 5407 C 504.647 5.56634 -1.85405 0
M  V30 5408 C 506.999 5.89441 -2.29657 0
M  V30 5409 C 505.663 6.1415 -2.61488 0
M  V30 5410 H 504.933 0.733386 0.105951 0
M  V30 5411 H 507.58 1.86434 -0.437554 0
M  V30 5412 H 505.885 3.62606 1.48405 0
M  V30 5413 H 507.582 3.83971 1.15618 0
M  V30 5414 H 504.172 4.28096 -0.207893 0
M  V30 5415 H 508.356 4.86157 -0.998271 0
M  V30 5416 H 503.612 5.74012 -2.10523 0
M  V30 5417 H 507.786 6.33432 -2.89374 0
M  V30 5418 H 505.413 6.77245 -3.45317 0
M  V30 5419 N 506.988 0.0434614 1.5754 0
M  V30 5420 C 507.898 -0.94893 2.14552 0
M  V30 5421 C 508.914 -1.34707 1.10136 0
M  V30 5422 O 510.09 -1.42557 1.42266 0
M  V30 5423 C 507.155 -2.208 2.67298 0
M  V30 5424 C 506.216 -1.86893 3.86484 0
M  V30 5425 C 505.449 -3.06797 4.36705 0
M  V30 5426 O 505.672 -4.19921 3.86034 0
M  V30 5427 O 504.606 -2.8826 5.28384 0
M  V30 5428 H 508.432 -0.494099 2.99654 0
M  V30 5429 H 506.017 -0.177989 1.48336 0
M  V30 5430 H 507.899 -2.94686 3.01228 0
M  V30 5431 H 506.574 -2.65436 1.85272 0
M  V30 5432 H 505.481 -1.10347 3.57455 0
M  V30 5433 H 506.814 -1.47062 4.69716 0
M  V30 5434 N 508.466 -1.55915 -0.229846 0
M  V30 5435 C 509.715 -1.77742 -0.953455 0
M  V30 5436 C 510.028 -0.610524 -1.85828 0
M  V30 5437 O 511.234 -0.712219 -2.61992 0
M  V30 5438 C 509.69 -3.14738 -1.74551 0
M  V30 5439 C 509.298 -4.39126 -0.887242 0
M  V30 5440 C 511.042 -3.45895 -2.46084 0
M  V30 5441 C 508.949 -5.67149 -1.67617 0
M  V30 5442 H 507.879 -0.662648 -0.359741 0
M  V30 5443 H 510.53 -1.82322 -0.207576 0
M  V30 5444 H 508.912 -3.04311 -2.53399 0
M  V30 5445 H 510.086 -4.60588 -0.139892 0
M  V30 5446 H 508.401 -4.15427 -0.284443 0
M  V30 5447 H 510.998 -4.38767 -3.05594 0
M  V30 5448 H 511.341 -2.68007 -3.18556 0
M  V30 5449 H 511.874 -3.57614 -1.74233 0
M  V30 5450 H 508.613 -6.47906 -0.994881 0
M  V30 5451 H 508.133 -5.49763 -2.39836 0
M  V30 5452 H 509.812 -6.07025 -2.23898 0
M  V30 5453 N 509.944 0.496216 -1.49584 0
M  V30 5454 C 511.355 1.07765 -1.52459 0
M  V30 5455 C 511.706 1.93679 -0.31353 0
M  V30 5456 O 510.831 2.08588 0.576186 0
M  V30 5457 C 511.426 1.96111 -2.76271 0
M  V30 5458 C 509.985 2.49409 -2.81908 0
M  V30 5459 C 509.132 1.27142 -2.46435 0
M  V30 5460 H 512.083 0.279914 -1.56212 0
M  V30 5461 H 512.104 2.80862 -2.56704 0
M  V30 5462 H 511.616 1.33555 -3.64396 0
M  V30 5463 H 509.717 3.1559 -1.98074 0
M  V30 5464 H 509.83 2.86234 -3.84196 0
M  V30 5465 H 508.194 1.59818 -1.98319 0
M  V30 5466 H 508.977 0.662866 -3.3684 0
M  V30 5467 N 511.423 1.38739 0.74761 0
M  V30 5468 C 512.67 1.35274 1.50689 0
M  V30 5469 C 512.998 -0.0553359 1.94421 0
M  V30 5470 O 512.253 -1.03365 1.66175 0
M  V30 5471 C 512.552 2.25992 2.7688 0
M  V30 5472 C 512.218 3.73854 2.5208 0
M  V30 5473 C 510.88 4.14145 2.45025 0
M  V30 5474 C 513.232 4.67427 2.30568 0
M  V30 5475 C 510.56 5.4609 2.14483 0
M  V30 5476 C 512.912 5.99635 2.01545 0
M  V30 5477 C 511.576 6.39004 1.92951 0
M  V30 5478 H 510.846 0.495003 0.55141 0
M  V30 5479 H 513.493 1.71145 0.859158 0
M  V30 5480 H 511.798 1.83196 3.46333 0
M  V30 5481 H 513.495 2.20611 3.34861 0
M  V30 5482 H 510.085 3.41913 2.58444 0
M  V30 5483 H 514.269 4.3714 2.34994 0
M  V30 5484 H 509.525 5.75528 2.06342 0
M  V30 5485 H 513.699 6.71678 1.83906 0
M  V30 5486 H 511.326 7.41165 1.6905 0
M  V30 5487 N 512.901 -0.976442 1.23707 0
M  V30 5488 C 513.811 -2.10359 1.03856 0
M  V30 5489 C 514.827 -1.73991 -0.0180919 0
M  V30 5490 O 516.003 -2.0061 0.178211 0
M  V30 5491 C 513.068 -3.40809 0.636387 0
M  V30 5492 C 512.129 -3.91179 1.76854 0
M  V30 5493 C 511.362 -5.15404 1.38546 0
M  V30 5494 O 511.585 -5.69754 0.27142 0
M  V30 5495 O 510.519 -5.5994 2.20797 0
M  V30 5496 H 514.345 -2.29997 1.98331 0
M  V30 5497 H 511.93 -1.08742 1.02448 0
M  V30 5498 H 513.812 -4.19269 0.423223 0
M  V30 5499 H 512.487 -3.22493 -0.279322 0
M  V30 5500 H 511.394 -3.13819 2.03638 0
M  V30 5501 H 512.727 -4.13958 2.6627 0
M  V30 5502 N 514.379 -1.04941 -1.1758 0
M  V30 5503 C 515.311 -0.606174 -2.21039 0
M  V30 5504 C 516.324 0.328763 -1.59446 0
M  V30 5505 O 517.513 0.121895 -1.78083 0
M  V30 5506 C 514.613 0.133294 -3.38638 0
M  V30 5507 C 513.786 -0.811711 -4.29802 0
M  V30 5508 C 512.845 -0.113958 -5.26077 0
M  V30 5509 O 511.871 -0.747237 -5.64274 0
M  V30 5510 N 513.073 1.14953 -5.69004 0
M  V30 5511 H 515.838 -1.49606 -2.59689 0
M  V30 5512 H 513.399 -0.930997 -1.32454 0
M  V30 5513 H 515.391 0.610144 -4.00074 0
M  V30 5514 H 513.961 0.924816 -2.98607 0
M  V30 5515 H 513.181 -1.46824 -3.65837 0
M  V30 5516 H 514.469 -1.45326 -4.87604 0
M  V30 5517 H 513.867 1.68441 -5.40041 0
M  V30 5518 H 512.424 1.57049 -6.32597 0
M  V30 5519 N 515.857 1.33968 -0.830081 0
M  V30 5520 C 517.106 1.97323 -0.417928 0
M  V30 5521 C 517.419 1.6652 1.02618 0
M  V30 5522 O 518.625 2.2342 1.54259 0
M  V30 5523 C 517.081 3.53099 -0.696359 0
M  V30 5524 C 516.689 3.92788 -2.15457 0
M  V30 5525 C 518.433 4.23049 -0.350724 0
M  V30 5526 C 516.34 5.41506 -2.37751 0
M  V30 5527 H 515.27 0.738409 -0.152541 0
M  V30 5528 H 517.921 1.52711 -1.01744 0
M  V30 5529 H 516.303 3.95991 -0.0265904 0
M  V30 5530 H 517.477 3.6098 -2.86408 0
M  V30 5531 H 515.792 3.35795 -2.46232 0
M  V30 5532 H 518.389 5.32403 -0.495036 0
M  V30 5533 H 518.732 4.10279 0.705476 0
M  V30 5534 H 519.265 3.85657 -0.975362 0
M  V30 5535 H 516.004 5.5927 -3.41903 0
M  V30 5536 H 515.524 5.74804 -1.7135 0
M  V30 5537 H 517.203 6.0828 -2.20465 0
M  V30 5538 N 517.335 0.585699 1.46312 0
M  V30 5539 C 518.267 -0.183687 2.28463 0
M  V30 5540 C 519.28 -0.85264 1.38686 0
M  V30 5541 O 520.469 -0.721701 1.6326 0
M  V30 5542 C 517.569 -1.27977 3.13808 0
M  V30 5543 C 516.742 -0.702164 4.31727 0
M  V30 5544 C 515.801 -1.68633 4.98447 0
M  V30 5545 O 514.827 -1.22121 5.55945 0
M  V30 5546 N 516.029 -3.02047 4.95729 0
M  V30 5547 H 518.794 0.521127 2.95134 0
M  V30 5548 H 516.355 0.423673 1.56258 0
M  V30 5549 H 518.347 -1.9375 3.55307 0
M  V30 5550 H 516.917 -1.8874 2.4919 0
M  V30 5551 H 516.137 0.1331 3.93975 0
M  V30 5552 H 517.425 -0.296101 5.07938 0
M  V30 5553 H 516.823 -3.42457 4.50266 0
M  V30 5554 H 515.38 -3.63301 5.41161 0
M  V30 5555 N 518.813 -1.54241 0.323641 0
M  V30 5556 C 519.76 -2.24339 -0.542277 0
M  V30 5557 C 520.73 -1.23421 -1.11159 0
M  V30 5558 O 521.915 -1.52104 -1.15192 0
M  V30 5559 C 519.055 -3.00479 -1.69725 0
M  V30 5560 C 518.168 -4.16214 -1.15716 0
M  V30 5561 C 517.303 -4.79884 -2.27783 0
M  V30 5562 C 516.342 -5.87722 -1.71023 0
M  V30 5563 N 515.479 -6.45254 -2.76752 0
M  V30 5564 H 520.319 -2.97935 0.0620613 0
M  V30 5565 H 517.856 -1.47039 0.0423993 0
M  V30 5566 H 519.814 -3.42869 -2.3769 0
M  V30 5567 H 518.444 -2.29217 -2.27288 0
M  V30 5568 H 517.496 -3.78605 -0.369063 0
M  V30 5569 H 518.808 -4.93838 -0.701832 0
M  V30 5570 H 517.962 -5.25243 -3.03651 0
M  V30 5571 H 516.701 -4.01641 -2.76652 0
M  V30 5572 H 515.706 -5.41765 -0.936518 0
M  V30 5573 H 516.931 -6.67863 -1.2303 0
M  V30 5574 H 514.877 -5.69884 -3.24912 0
M  V30 5575 H 514.794 -7.18292 -2.35782 0
M  V30 5576 H 516.062 -6.95269 -3.5245 0
M  V30 5577 N 520.291 -0.0518155 -1.57515 0
M  V30 5578 C 521.537 0.622745 -1.93002 0
M  V30 5579 C 521.87 1.70456 -0.930499 0
M  V30 5580 O 521.145 1.94452 0.0434086 0
M  V30 5581 C 521.428 1.21824 -3.38867 0
M  V30 5582 C 521.281 0.144434 -4.49568 0
M  V30 5583 C 522.6 2.12968 -3.8514 0
M  V30 5584 H 519.719 0.22491 -0.701844 0
M  V30 5585 H 522.361 -0.113711 -1.89659 0
M  V30 5586 H 520.511 1.8459 -3.41846 0
M  V30 5587 H 522.183 -0.48753 -4.58717 0
M  V30 5588 H 520.426 -0.527424 -4.30582 0
M  V30 5589 H 521.097 0.601127 -5.48717 0
M  V30 5590 H 523.573 1.60163 -3.8404 0
M  V30 5591 H 522.449 2.51578 -4.87852 0
M  V30 5592 H 522.71 3.03004 -3.21934 0
M  V30 5593 N 521.769 1.56035 0.221574 0
M  V30 5594 C 522.701 1.889 1.29805 0
M  V30 5595 C 523.714 0.777269 1.43047 0
M  V30 5596 O 524.903 1.05557 1.43945 0
M  V30 5597 C 522.003 2.0825 2.67367 0
M  V30 5598 C 521.176 3.39267 2.76073 0
M  V30 5599 C 520.235 3.48049 3.94649 0
M  V30 5600 O 519.261 4.2108 3.82988 0
M  V30 5601 N 520.463 2.79191 5.08953 0
M  V30 5602 H 523.228 2.81831 1.01938 0
M  V30 5603 H 520.789 1.5658 0.411612 0
M  V30 5604 H 522.781 2.11441 3.45072 0
M  V30 5605 H 521.351 1.21944 2.87834 0
M  V30 5606 H 520.571 3.48175 1.84846 0
M  V30 5607 H 521.859 4.25575 2.7886 0
M  V30 5608 H 521.257 2.19635 5.21322 0
M  V30 5609 H 519.814 2.88043 5.84701 0
M  V30 5610 N 523.247 -0.488276 1.49845 0
M  V30 5611 C 524.493 -1.24341 1.6021 0
M  V30 5612 C 524.826 -1.91967 0.293651 0
M  V30 5613 O 524.101 -1.81323 -0.703718 0
M  V30 5614 C 524.384 -2.3005 2.77036 0
M  V30 5615 C 524.237 -1.66842 4.17713 0
M  V30 5616 C 525.556 -3.31509 2.89464 0
M  V30 5617 H 522.675 -0.450704 0.583125 0
M  V30 5618 H 525.317 -0.539673 1.82174 0
M  V30 5619 H 523.467 -2.90071 2.58439 0
M  V30 5620 H 525.139 -1.1055 4.47858 0
M  V30 5621 H 523.382 -0.972079 4.22768 0
M  V30 5622 H 524.053 -2.43576 4.95353 0
M  V30 5623 H 526.529 -2.81493 3.06433 0
M  V30 5624 H 525.405 -4.02822 3.72861 0
M  V30 5625 H 525.666 -3.94603 1.99351 0
M  V30 5626 N 524.725 -1.39134 -0.740242 0
M  V30 5627 C 525.971 -1.36273 -1.50192 0
M  V30 5628 C 526.304 0.0430136 -1.94152 0
M  V30 5629 O 525.579 1.00691 -1.66408 0
M  V30 5630 C 525.862 -2.33041 -2.74525 0
M  V30 5631 C 525.715 -3.82535 -2.36617 0
M  V30 5632 C 527.034 -2.27723 -3.76604 0
M  V30 5633 H 524.153 -0.496323 -0.544823 0
M  V30 5634 H 526.795 -1.70085 -0.846815 0
M  V30 5635 H 524.945 -2.04337 -3.30422 0
M  V30 5636 H 526.617 -4.21967 -1.86391 0
M  V30 5637 H 524.86 -3.99565 -1.68909 0
M  V30 5638 H 525.531 -4.45723 -3.2563 0
M  V30 5639 H 528.007 -2.53091 -3.30279 0
M  V30 5640 H 526.883 -2.97519 -4.61274 0
M  V30 5641 H 527.144 -1.28049 -4.2315 0
M  V30 5642 N 526.204 0.969867 -1.24223 0
M  V30 5643 C 527.45 1.7151 -1.08223 0
M  V30 5644 C 527.783 1.90478 0.37838 0
M  V30 5645 O 527.058 1.4647 1.27971 0
M  V30 5646 C 527.341 3.10714 -1.82013 0
M  V30 5647 C 527.194 2.9925 -3.35811 0
M  V30 5648 C 528.513 4.10332 -1.59108 0
M  V30 5649 H 525.632 0.622499 -0.394543 0
M  V30 5650 H 528.274 1.1284 -1.52863 0
M  V30 5651 H 526.424 3.608 -1.44068 0
M  V30 5652 H 528.096 2.56608 -3.83341 0
M  V30 5653 H 526.339 2.35512 -3.64303 0
M  V30 5654 H 527.01 3.97857 -3.82641 0
M  V30 5655 H 529.486 3.69097 -1.92111 0
M  V30 5656 H 528.362 5.05804 -2.13198 0
M  V30 5657 H 528.623 4.38926 -0.528832 0
M  V30 5658 N 527.682 1.05563 1.17022 0
M  V30 5659 C 528.91 0.78845 1.91288 0
M  V30 5660 C 529.325 -0.656318 1.77025 0
M  V30 5661 O 528.682 -1.44869 1.10992 0
M  V30 5662 C 528.733 1.16444 3.42232 0
M  V30 5663 O 528.454 2.5525 3.5606 0
M  V30 5664 C 529.955 0.923937 4.33565 0
M  V30 5665 H 527.175 0.286389 0.606813 0
M  V30 5666 H 529.719 1.4073 1.48375 0
M  V30 5667 H 527.874 0.590266 3.82877 0
M  V30 5668 H 528.288 2.70097 4.49609 0
M  V30 5669 H 529.762 1.23672 5.37968 0
M  V30 5670 H 530.239 -0.140688 4.38975 0
M  V30 5671 H 530.845 1.48214 3.98639 0
M  V30 5672 N 529.16 -1.33526 0.837174 0
M  V30 5673 C 530.406 -1.9813 0.432704 0
M  V30 5674 C 530.739 -1.66168 -1.00508 0
M  V30 5675 O 530.014 -0.94069 -1.70239 0
M  V30 5676 C 530.297 -3.54151 0.651834 0
M  V30 5677 C 530.15 -3.95806 2.13676 0
M  V30 5678 C 531.469 -4.39993 0.0968937 0
M  V30 5679 H 528.588 -0.719713 0.15869 0
M  V30 5680 H 531.23 -1.58193 1.05237 0
M  V30 5681 H 529.38 -3.88301 0.124369 0
M  V30 5682 H 531.052 -3.71921 2.72896 0
M  V30 5683 H 529.295 -3.45599 2.62191 0
M  V30 5684 H 529.966 -5.0447 2.24084 0
M  V30 5685 H 532.442 -4.12479 0.547733 0
M  V30 5686 H 531.318 -5.48186 0.279917 0
M  V30 5687 H 531.579 -4.3066 -0.9992 0
M  V30 5688 N 530.638 -0.59345 -1.46 0
M  V30 5689 C 531.568 0.121192 -2.33185 0
M  V30 5690 C 532.549 0.872977 -1.4599 0
M  V30 5691 O 533.734 0.846321 -1.74789 0
M  V30 5692 C 530.864 1.12844 -3.28456 0
M  V30 5693 C 529.818 0.4908 -4.25177 0
M  V30 5694 C 529.144 1.60529 -5.10034 0
M  V30 5695 C 530.444 -0.578949 -5.19081 0
M  V30 5696 H 532.138 -0.606767 -2.93187 0
M  V30 5697 H 529.684 -0.293242 -1.40983 0
M  V30 5698 H 531.637 1.63684 -3.88311 0
M  V30 5699 H 530.361 1.88681 -2.66584 0
M  V30 5700 H 529.02 0.00339328 -3.666 0
M  V30 5701 H 528.668 2.35359 -4.44539 0
M  V30 5702 H 528.368 1.18422 -5.75543 0
M  V30 5703 H 529.892 2.11623 -5.72755 0
M  V30 5704 H 531.306 -0.155199 -5.7309 0
M  V30 5705 H 529.703 -0.920947 -5.92991 0
M  V30 5706 H 530.773 -1.46109 -4.62364 0
M  V30 5707 N 532.116 1.54067 -0.331816 0
M  V30 5708 C 533.393 1.92915 0.322955 0
M  V30 5709 C 533.773 1.26225 1.69205 0
M  V30 5710 O 533.121 0.408919 2.24811 0
M  V30 5711 C 533.331 3.46619 0.406946 0
M  V30 5712 C 534.679 4.19386 0.663339 0
M  V30 5713 O 535.703 3.5282 0.489536 0
M  V30 5714 O 534.562 5.37288 0.999193 0
M  V30 5715 H 531.656 0.805808 0.186016 0
M  V30 5716 H 534.202 1.65342 -0.382135 0
M  V30 5717 H 532.974 3.87354 -0.554287 0
M  V30 5718 H 532.597 3.80324 1.15929 0
M  V30 5719 N 533.594 0.0601682 1.57485 0
M  V30 5720 C 534.824 -0.620037 1.97076 0
M  V30 5721 C 535.232 -1.64381 0.936784 0
M  V30 5722 O 534.575 -1.83497 -0.0863377 0
M  V30 5723 C 534.637 -1.35617 3.32939 0
M  V30 5724 C 534.301 -0.487208 4.54396 0
M  V30 5725 C 535.298 0.250428 5.19297 0
M  V30 5726 C 532.983 -0.415494 5.00579 0
M  V30 5727 C 534.977 1.04812 6.28723 0
M  V30 5728 C 532.664 0.385879 6.0988 0
M  V30 5729 C 533.662 1.11637 6.73815 0
M  V30 5730 O 533.35 1.90454 7.81014 0
M  V30 5731 H 533.082 -0.173664 0.653312 0
M  V30 5732 H 535.636 0.1256 2.05016 0
M  V30 5733 H 533.866 -2.14763 3.2158 0
M  V30 5734 H 535.555 -1.92749 3.57215 0
M  V30 5735 H 536.321 0.204546 4.84568 0
M  V30 5736 H 532.2 -0.973679 4.506 0
M  V30 5737 H 535.744 1.6188 6.78558 0
M  V30 5738 H 531.641 0.433366 6.44044 0
M  V30 5739 H 532.409 1.82762 7.97835 0
M  V30 5740 N 535.072 -1.5615 -0.213296 0
M  V30 5741 C 536.349 -1.70349 -0.961281 0
M  V30 5742 C 536.729 -0.609791 -2.02101 0
M  V30 5743 O 536.077 0.381987 -2.25285 0
M  V30 5744 C 536.287 -3.11982 -1.56424 0
M  V30 5745 C 537.635 -3.71649 -2.05334 0
M  V30 5746 O 538.659 -3.14995 -1.66302 0
M  V30 5747 O 537.518 -4.71038 -2.77102 0
M  V30 5748 H 534.612 -0.694121 -0.449582 0
M  V30 5749 H 537.158 -1.68464 -0.204426 0
M  V30 5750 H 535.93 -3.83046 -0.799457 0
M  V30 5751 H 535.553 -3.18019 -2.38641 0
M  V30 5752 N 536.55 0.480323 -1.50102 0
M  V30 5753 C 537.497 1.57946 -1.6829 0
M  V30 5754 C 538.467 1.57611 -0.524223 0
M  V30 5755 O 539.652 1.75282 -0.753709 0
M  V30 5756 C 536.792 2.95978 -1.77457 0
M  V30 5757 C 535.905 3.06173 -3.04766 0
M  V30 5758 C 535.04 4.35063 -3.04784 0
M  V30 5759 C 534.079 4.38966 -4.26586 0
M  V30 5760 N 533.216 5.59314 -4.24396 0
M  V30 5761 H 538.056 1.41743 -2.62131 0
M  V30 5762 H 535.593 0.689304 -1.2995 0
M  V30 5763 H 537.551 3.76011 -1.80752 0
M  V30 5764 H 536.181 3.10837 -0.870637 0
M  V30 5765 H 535.233 2.19071 -3.10986 0
M  V30 5766 H 536.545 3.04916 -3.9475 0
M  V30 5767 H 535.699 5.23436 -3.06757 0
M  V30 5768 H 534.438 4.38915 -2.12614 0
M  V30 5769 H 533.443 3.48992 -4.24835 0
M  V30 5770 H 534.668 4.36813 -5.19972 0
M  V30 5771 H 532.614 5.63969 -3.35074 0
M  V30 5772 H 532.531 5.5976 -5.08138 0
M  V30 5773 H 533.799 6.49837 -4.30502 0
M  V30 5774 N 538.028 1.39524 0.732853 0
M  V30 5775 C 538.958 1.41153 1.86005 0
M  V30 5776 C 539.939 0.274614 1.67869 0
M  V30 5777 O 541.124 0.480745 1.88155 0
M  V30 5778 C 538.254 1.25638 3.23778 0
M  V30 5779 C 537.208 2.36752 3.56556 0
M  V30 5780 C 536.534 2.06326 4.93289 0
M  V30 5781 C 537.834 3.79069 3.5931 0
M  V30 5782 H 539.528 2.35484 1.84899 0
M  V30 5783 H 537.074 1.13348 0.888162 0
M  V30 5784 H 539.027 1.25398 4.0231 0
M  V30 5785 H 537.751 0.277772 3.25417 0
M  V30 5786 H 536.41 2.36213 2.80355 0
M  V30 5787 H 536.058 1.06897 4.9151 0
M  V30 5788 H 535.758 2.80757 5.16187 0
M  V30 5789 H 537.282 2.07739 5.74175 0
M  V30 5790 H 538.696 3.81526 4.27914 0
M  V30 5791 H 537.093 4.52878 3.93728 0
M  V30 5792 H 538.163 4.09893 2.59068 0
M  V30 5793 N 539.506 -0.963266 1.24736 0
M  V30 5794 C 540.754 -1.70343 1.08755 0
M  V30 5795 C 541.075 -1.91387 -0.373619 0
M  V30 5796 O 540.345 -1.4948 -1.2662 0
M  V30 5797 H 538.925 -0.631224 0.399456 0
M  V30 5798 H 541.587 -1.15859 1.56725 0
M  V30 5799 H 540.683 -2.68616 1.58909 0
M  V30 5800 N 540.985 -1.06182 -1.16461 0
M  V30 5801 C 541.932 -0.671613 -2.20812 0
M  V30 5802 C 542.902 0.331186 -1.62765 0
M  V30 5803 O 544.087 0.22033 -1.89524 0
M  V30 5804 C 541.227 -0.063029 -3.45042 0
M  V30 5805 C 540.34 -1.11587 -4.1734 0
M  V30 5806 C 539.475 -0.473546 -5.29085 0
M  V30 5807 C 538.514 -1.51 -5.93182 0
M  V30 5808 N 537.651 -0.891118 -6.96422 0
M  V30 5809 H 542.491 -1.56589 -2.53542 0
M  V30 5810 H 540.028 -0.782951 -1.24532 0
M  V30 5811 H 541.986 0.307344 -4.16066 0
M  V30 5812 H 540.616 0.794663 -3.12866 0
M  V30 5813 H 539.668 -1.60396 -3.44931 0
M  V30 5814 H 540.98 -1.90221 -4.61104 0
M  V30 5815 H 540.134 -0.0501432 -6.06679 0
M  V30 5816 H 538.873 0.344687 -4.8648 0
M  V30 5817 H 537.878 -1.94331 -5.14311 0
M  V30 5818 H 539.103 -2.33031 -6.37866 0
M  V30 5819 H 537.049 -0.0935753 -6.55933 0
M  V30 5820 H 536.966 -1.61486 -7.38551 0
M  V30 5821 H 538.234 -0.492822 -7.77941 0
M  V30 5822 N 542.463 1.3308 -0.844243 0
M  V30 5823 C 543.411 2.31028 -0.269954 0
M  V30 5824 C 544.405 1.58381 0.600997 0
M  V30 5825 O 545.611 1.73203 0.48996 0
M  V30 5826 H 541.986 0.748866 -0.0685782 0
M  V30 5827 H 543.957 2.76967 -1.11049 0
M  V30 5828 C 542.706 3.43549 0.535676 0
M  V30 5829 H 542.029 3.99604 -0.125202 0
M  V30 5830 H 543.469 4.14267 0.903262 0
M  V30 5831 C 541.928 2.8988 1.71672 0
M  V30 5832 O 542.458 2.86511 2.81557 0
M  V30 5833 N 540.664 2.46416 1.54037 0
M  V30 5834 H 540.211 2.49356 0.64649 0
M  V30 5835 H 540.169 2.1086 2.33207 0
M  V30 5836 N 543.941 0.601185 1.45683 0
M  V30 5837 C 544.851 -0.123395 2.34275 0
M  V30 5838 C 545.867 -0.86702 1.5086 0
M  V30 5839 O 547.043 -0.826049 1.8368 0
M  V30 5840 C 544.108 -1.11237 3.2837 0
M  V30 5841 C 543.169 -0.371405 4.2769 0
M  V30 5842 C 542.402 -1.31327 5.1729 0
M  V30 5843 O 542.625 -2.55078 5.10188 0
M  V30 5844 O 541.559 -0.813811 5.96373 0
M  V30 5845 H 545.385 0.604483 2.97623 0
M  V30 5846 H 542.97 0.361477 1.44961 0
M  V30 5847 H 544.852 -1.68214 3.8637 0
M  V30 5848 H 543.527 -1.82139 2.67595 0
M  V30 5849 H 542.434 0.24067 3.73325 0
M  V30 5850 H 543.767 0.296998 4.91303 0
M  V30 5851 N 545.419 -1.53889 0.339982 0
M  V30 5852 C 546.382 -2.23547 -0.50592 0
M  V30 5853 C 547.382 -1.23445 -1.03044 0
M  V30 5854 O 548.572 -1.47909 -0.920253 0
M  V30 5855 C 545.704 -2.95234 -1.7044 0
M  V30 5856 H 546.897 -2.99722 0.103247 0
M  V30 5857 H 544.45 -1.56033 0.0912804 0
M  V30 5858 H 545.185 -2.23236 -2.35236 0
M  V30 5859 H 544.97 -3.68654 -1.33553 0
M  V30 5860 H 546.46 -3.48258 -2.30447 0
M  V30 5861 N 546.897 -0.0685191 -1.57451 0
M  V30 5862 C 548.146 0.600898 -1.92541 0
M  V30 5863 C 548.459 1.70967 -0.950239 0
M  V30 5864 O 549.665 2.43844 -1.19384 0
M  V30 5865 C 548.121 1.12019 -3.42023 0
M  V30 5866 C 547.729 0.0426028 -4.4798 0
M  V30 5867 C 549.473 1.76386 -3.86119 0
M  V30 5868 C 547.38 0.575759 -5.88591 0
M  V30 5869 H 546.31 0.228225 -0.71863 0
M  V30 5870 H 548.961 -0.140223 -1.82963 0
M  V30 5871 H 547.343 1.91418 -3.46663 0
M  V30 5872 H 548.517 -0.73182 -4.54952 0
M  V30 5873 H 546.832 -0.504642 -4.13331 0
M  V30 5874 H 549.429 2.17302 -4.88553 0
M  V30 5875 H 549.772 2.62255 -3.23308 0
M  V30 5876 H 550.305 1.03615 -3.84069 0
M  V30 5877 H 547.044 -0.245691 -6.55039 0
M  V30 5878 H 546.564 1.31778 -5.85145 0
M  V30 5879 H 548.243 1.0532 -6.3837 0
M  V30 5880 N 548.375 1.56261 0.205012 0
M  V30 5881 C 549.623 1.79684 0.925096 0
M  V30 5882 C 549.944 0.63989 1.84202 0
M  V30 5883 O 549.214 -0.342345 1.92885 0
M  V30 5884 H 547.794 0.662774 0.344587 0
M  V30 5885 H 550.456 1.93734 0.212899 0
M  V30 5886 H 549.552 2.72467 1.52211 0
M  V30 5887 N 549.853 -0.472356 1.50355 0
M  V30 5888 C 550.8 -1.57051 1.69126 0
M  V30 5889 C 551.77 -1.5733 0.532574 0
M  V30 5890 O 552.955 -1.7488 0.762994 0
M  V30 5891 C 550.095 -2.95033 1.79024 0
M  V30 5892 C 549.208 -3.04552 3.06386 0
M  V30 5893 C 548.343 -4.33441 3.07087 0
M  V30 5894 C 547.382 -4.36697 4.28908 0
M  V30 5895 N 546.519 -5.57056 4.27356 0
M  V30 5896 H 551.359 -1.40351 2.62879 0
M  V30 5897 H 548.896 -0.682403 1.30314 0
M  V30 5898 H 550.854 -3.75048 1.82744 0
M  V30 5899 H 549.484 -3.10371 0.887109 0
M  V30 5900 H 548.536 -2.17419 3.12143 0
M  V30 5901 H 549.848 -3.02818 3.96362 0
M  V30 5902 H 549.002 -5.21801 3.09529 0
M  V30 5903 H 547.741 -4.37782 2.14939 0
M  V30 5904 H 546.746 -3.46734 4.2668 0
M  V30 5905 H 547.971 -4.34049 5.22282 0
M  V30 5906 H 545.917 -5.62184 3.3806 0
M  V30 5907 H 545.834 -5.57058 5.111 0
M  V30 5908 H 547.102 -6.47545 4.33942 0
M  V30 5909 N 551.331 -1.39911 -0.725443 0
M  V30 5910 C 552.58 -1.36963 -1.48068 0
M  V30 5911 C 552.893 0.0284478 -1.95579 0
M  V30 5912 O 554.099 0.180535 -2.70899 0
M  V30 5913 C 552.555 -2.40664 -2.67598 0
M  V30 5914 C 552.163 -3.86234 -2.26997 0
M  V30 5915 C 553.907 -2.46807 -3.45379 0
M  V30 5916 C 551.814 -4.81554 -3.43307 0
M  V30 5917 H 550.744 -0.509223 -0.556065 0
M  V30 5918 H 553.395 -1.65602 -0.790454 0
M  V30 5919 H 551.777 -2.05109 -3.38742 0
M  V30 5920 H 552.951 -4.3088 -1.63337 0
M  V30 5921 H 551.266 -3.83475 -1.62284 0
M  V30 5922 H 553.863 -3.15213 -4.31909 0
M  V30 5923 H 554.206 -1.49552 -3.8851 0
M  V30 5924 H 554.739 -2.81303 -2.81271 0
M  V30 5925 H 551.478 -5.80106 -3.05217 0
M  V30 5926 H 550.998 -4.4158 -4.05915 0
M  V30 5927 H 552.677 -5.0091 -4.0951 0
M  V30 5928 N 552.809 0.956637 -1.25245 0
M  V30 5929 C 554.056 1.701 -1.09874 0
M  V30 5930 C 554.384 1.91128 0.36062 0
M  V30 5931 O 553.639 1.47837 1.28229 0
M  V30 5932 C 553.938 3.08996 -1.79601 0
M  V30 5933 C 553.604 3.07774 -3.29523 0
M  V30 5934 C 552.266 3.07149 -3.70423 0
M  V30 5935 C 554.618 3.01257 -4.25316 0
M  V30 5936 C 551.946 2.97752 -5.0553 0
M  V30 5937 C 554.298 2.93403 -5.60444 0
M  V30 5938 C 552.962 2.91111 -6.00675 0
M  V30 5939 H 552.232 0.62244 -0.402056 0
M  V30 5940 H 554.879 1.1178 -1.55491 0
M  V30 5941 H 553.184 3.70848 -1.26408 0
M  V30 5942 H 554.881 3.65407 -1.65162 0
M  V30 5943 H 551.471 3.09032 -2.9698 0
M  V30 5944 H 555.655 3.00861 -3.9471 0
M  V30 5945 H 550.911 2.94346 -5.35883 0
M  V30 5946 H 555.085 2.87321 -6.34366 0
M  V30 5947 H 552.712 2.83586 -7.05325 0
M  V30 5948 N 554.287 1.06798 1.15896 0
M  V30 5949 C 555.533 0.788934 1.86825 0
M  V30 5950 C 555.866 -0.683084 1.8179 0
M  V30 5951 O 555.141 -1.50086 1.23711 0
M  V30 5952 C 555.424 1.29065 3.36176 0
M  V30 5953 C 555.277 2.8268 3.49874 0
M  V30 5954 C 556.596 0.902655 4.30744 0
M  V30 5955 H 553.715 0.288066 0.678371 0
M  V30 5956 H 556.357 1.32479 1.36195 0
M  V30 5957 H 554.507 0.834806 3.79425 0
M  V30 5958 H 556.179 3.36511 3.15528 0
M  V30 5959 H 554.422 3.21157 2.91617 0
M  V30 5960 H 555.093 3.12852 4.54783 0
M  V30 5961 H 557.569 1.29535 3.95424 0
M  V30 5962 H 556.445 1.28111 5.3374 0
M  V30 5963 H 556.706 -0.191951 4.41683 0
M  V30 5964 N 555.766 -1.3263 0.851289 0
M  V30 5965 C 557.014 -1.96978 0.452128 0
M  V30 5966 C 557.335 -1.67715 -0.99482 0
M  V30 5967 O 556.605 -0.98259 -1.69476 0
M  V30 5968 H 555.185 -0.72873 0.164202 0
M  V30 5969 H 557.847 -1.61774 1.08698 0
M  V30 5970 H 556.943 -3.06387 0.594407 0
M  V30 5971 N 557.244 -0.608902 -1.45362 0
M  V30 5972 C 558.469 -0.10921 -2.07112 0
M  V30 5973 C 558.894 1.19779 -1.45033 0
M  V30 5974 O 558.252 1.72961 -0.543527 0
M  V30 5975 C 558.3 0.0155745 -3.60597 0
M  V30 5976 O 557.404 1.06546 -3.98399 0
M  V30 5977 H 556.745 -0.0746619 -0.659789 0
M  V30 5978 H 559.275 -0.839283 -1.86594 0
M  V30 5979 H 559.285 0.213364 -4.07442 0
M  V30 5980 H 557.96 -0.938765 -4.05167 0
M  V30 5981 H 556.537 0.844024 -3.63223 0
M  V30 5982 N 558.722 1.53707 -0.348139 0
M  V30 5983 C 559.67 2.26671 0.521808 0
M  V30 5984 C 560.664 1.28988 1.09811 0
M  V30 5985 O 561.87 1.4668 1.04332 0
M  V30 5986 H 558.245 0.728387 0.186968 0
M  V30 5987 H 560.216 2.98176 -0.115563 0
M  V30 5988 C 558.965 3.05591 1.6586 0
M  V30 5989 H 558.288 3.80589 1.22443 0
M  V30 5990 H 559.728 3.59851 2.24239 0
M  V30 5991 C 558.187 2.15366 2.59073 0
M  V30 5992 O 558.717 1.7528 3.61441 0
M  V30 5993 N 556.923 1.80352 2.27863 0
M  V30 5994 H 556.47 2.13149 1.44656 0
M  V30 5995 H 556.428 1.20268 2.90488 0
M  V30 5996 N 560.2 0.0768682 1.57412 0
M  V30 5997 C 561.163 -0.873949 2.11884 0
M  V30 5998 C 562.163 -1.22301 1.04398 0
M  V30 5999 O 563.353 -1.15545 1.30365 0
M  V30 6000 C 560.485 -2.17575 2.62438 0
M  V30 6001 H 561.678 -0.401278 2.97203 0
M  V30 6002 H 559.231 -0.171904 1.55352 0
M  V30 6003 H 559.966 -2.69368 1.80587 0
M  V30 6004 H 559.751 -1.93534 3.41009 0
M  V30 6005 H 561.241 -2.85631 3.04639 0
M  V30 6006 N 561.678 -1.56367 -0.196722 0
M  V30 6007 C 562.906 -1.84639 -0.933608 0
M  V30 6008 C 563.321 -0.659164 -1.76919 0
M  V30 6009 O 562.678 0.372142 -1.78665 0
M  V30 6010 C 562.729 -3.11694 -1.83109 0
M  V30 6011 O 562.45 -4.25838 -1.02924 0
M  V30 6012 C 563.951 -3.53132 -2.67979 0
M  V30 6013 H 561.171 -0.613188 -0.272473 0
M  V30 6014 H 563.715 -2.03475 -0.204465 0
M  V30 6015 H 561.87 -2.94759 -2.51387 0
M  V30 6016 H 562.284 -4.98178 -1.64069 0
M  V30 6017 H 563.758 -4.45005 -3.26611 0
M  V30 6018 H 564.235 -2.76045 -3.41608 0
M  V30 6019 H 564.841 -3.72592 -2.05074 0
M  V30 6020 N 563.156 0.464375 -1.50603 0
M  V30 6021 C 564.404 1.21356 -1.61608 0
M  V30 6022 C 564.725 1.92329 -0.321643 0
M  V30 6023 O 563.995 1.84403 0.661232 0
M  V30 6024 H 562.575 0.45094 -0.595535 0
M  V30 6025 H 565.237 0.535046 -1.87412 0
M  V30 6026 H 564.333 1.95783 -2.43054 0
M  V30 6027 N 564.634 1.40294 0.718013 0
M  V30 6028 C 565.862 1.4175 1.50714 0
M  V30 6029 C 566.277 0.0165366 1.88793 0
M  V30 6030 O 565.634 -0.958942 1.55276 0
M  V30 6031 C 565.685 2.30598 2.784 0
M  V30 6032 O 565.406 3.6524 2.41932 0
M  V30 6033 C 566.907 2.4062 3.72313 0
M  V30 6034 H 564.127 0.483565 0.465194 0
M  V30 6035 H 566.671 1.84316 0.885889 0
M  V30 6036 H 564.826 1.91401 3.36815 0
M  V30 6037 H 565.24 4.12402 3.24076 0
M  V30 6038 H 566.714 3.07001 4.58753 0
M  V30 6039 H 567.191 1.4305 4.15251 0
M  V30 6040 H 567.797 2.80359 3.19811 0
M  V30 6041 N 566.112 -0.949982 1.2575 0
M  V30 6042 C 567.022 -2.08109 1.08295 0
M  V30 6043 C 568.038 -1.7399 0.0188181 0
M  V30 6044 O 569.214 -2.00187 0.220724 0
M  V30 6045 C 566.279 -3.39383 0.708534 0
M  V30 6046 C 565.34 -3.8734 1.85111 0
M  V30 6047 C 564.573 -5.12349 1.49447 0
M  V30 6048 O 564.796 -5.6905 0.392212 0
M  V30 6049 O 563.73 -5.5513 2.32624 0
M  V30 6050 H 567.556 -2.25738 2.03165 0
M  V30 6051 H 565.141 -1.06545 1.04731 0
M  V30 6052 H 567.023 -4.18277 0.512061 0
M  V30 6053 H 565.698 -3.23013 -0.210854 0
M  V30 6054 H 564.605 -3.09429 2.10248 0
M  V30 6055 H 565.938 -4.08216 2.74991 0
M  V30 6056 N 567.59 -1.07411 -1.15328 0
M  V30 6057 C 568.52 -0.716472 -2.22236 0
M  V30 6058 C 569.501 0.296373 -1.67498 0
M  V30 6059 O 570.686 0.168989 -1.93463 0
M  V30 6060 C 567.816 -0.114142 -3.47112 0
M  V30 6061 C 566.77 -1.05421 -4.14814 0
M  V30 6062 C 566.096 -0.314604 -5.33774 0
M  V30 6063 C 567.396 -2.38808 -4.64508 0
M  V30 6064 H 569.09 -1.61029 -2.52408 0
M  V30 6065 H 566.636 -0.775702 -1.21321 0
M  V30 6066 H 568.589 0.148001 -4.2114 0
M  V30 6067 H 567.313 0.814755 -3.16274 0
M  V30 6068 H 565.972 -1.30128 -3.42728 0
M  V30 6069 H 565.62 0.617772 -4.99192 0
M  V30 6070 H 565.32 -0.941209 -5.80013 0
M  V30 6071 H 566.844 -0.0602747 -6.1057 0
M  V30 6072 H 568.258 -2.18424 -5.3006 0
M  V30 6073 H 566.655 -2.97069 -5.21412 0
M  V30 6074 H 567.725 -3.01067 -3.80114 0
M  V30 6075 N 569.068 1.32177 -0.85831 0
M  V30 6076 C 570.484 1.49873 -0.548656 0
M  V30 6077 C 570.684 1.79278 0.919874 0
M  V30 6078 O 569.74 1.86451 1.70271 0
M  V30 6079 C 571.053 2.64043 -1.4388 0
M  V30 6080 C 572.601 2.77928 -1.43961 0
M  V30 6081 C 573.076 3.95182 -2.31506 0
M  V30 6082 N 574.567 4.0245 -2.29321 0
M  V30 6083 C 575.302 4.9242 -2.93786 0
M  V30 6084 N 574.798 5.87373 -3.67376 0
M  V30 6085 N 576.591 4.85572 -2.83155 0
M  V30 6086 H 568.742 1.11357 -1.80868 0
M  V30 6087 H 571.005 0.549175 -0.772729 0
M  V30 6088 H 570.711 2.49055 -2.48324 0
M  V30 6089 H 570.585 3.59912 -1.12885 0
M  V30 6090 H 572.972 2.92338 -0.402813 0
M  V30 6091 H 573.053 1.82762 -1.78974 0
M  V30 6092 H 572.697 3.81531 -3.35256 0
M  V30 6093 H 572.627 4.89633 -1.93823 0
M  V30 6094 H 575.118 3.34507 -1.75822 0
M  V30 6095 H 575.431 6.52728 -4.13722 0
M  V30 6096 H 573.776 5.87388 -3.71484 0
M  V30 6097 H 576.967 4.10363 -2.25211 0
M  V30 6098 H 577.14 5.55486 -3.33676 0
M  V30 6099 N 570.547 0.616602 1.45037 0
M  V30 6100 C 571.497 -0.118543 2.27692 0
M  V30 6101 C 572.481 -0.830025 1.37838 0
M  V30 6102 O 573.673 -0.718528 1.6176 0
M  V30 6103 C 570.802 -1.10924 3.24886 0
M  V30 6104 C 569.888 -0.398134 4.22227 0
M  V30 6105 N 570.279 0.565233 5.02632 0
M  V30 6106 C 568.577 -0.644506 4.41319 0
M  V30 6107 C 569.278 0.984043 5.73316 0
M  V30 6108 N 568.254 0.325879 5.42622 0
M  V30 6109 H 572.056 0.621239 2.87259 0
M  V30 6110 H 569.57 0.440968 1.56299 0
M  V30 6111 H 571.567 -1.65038 3.82842 0
M  V30 6112 H 570.227 -1.84948 2.66879 0
M  V30 6113 H 571.238 0.942395 5.09254 0
M  V30 6114 H 567.915 -1.36873 3.94426 0
M  V30 6115 H 569.305 1.77911 6.47918 0
M  V30 6116 N 572.025 -1.5352 0.356285 0
M  V30 6117 C 573.271 -2.02104 -0.229271 0
M  V30 6118 C 573.626 -1.23923 -1.47176 0
M  V30 6119 O 572.919 -0.321957 -1.88876 0
M  V30 6120 C 573.113 -3.52607 -0.583369 0
M  V30 6121 C 572.942 -4.4536 0.623253 0
M  V30 6122 C 571.712 -4.92446 1.13248 0
M  V30 6123 C 573.91 -4.92375 1.48563 0
M  V30 6124 N 571.892 -5.69183 2.3001 0
M  V30 6125 C 573.263 -5.67362 2.50001 0
M  V30 6126 C 575.318 -4.74464 1.50959 0
M  V30 6127 C 574.021 -6.26341 3.5368 0
M  V30 6128 C 576.047 -5.34302 2.53526 0
M  V30 6129 C 575.409 -6.09166 3.53688 0
M  V30 6130 H 571.508 -0.780595 -0.0468602 0
M  V30 6131 H 574.092 -1.88204 0.49873 0
M  V30 6132 H 572.263 -3.66686 -1.28046 0
M  V30 6133 H 573.995 -3.87922 -1.15321 0
M  V30 6134 H 570.75 -4.6842 0.698562 0
M  V30 6135 H 571.174 -6.12216 2.88998 0
M  V30 6136 H 575.816 -4.16117 0.748785 0
M  V30 6137 H 573.534 -6.8379 4.30648 0
M  V30 6138 H 577.12 -5.22342 2.56223 0
M  V30 6139 H 576 -6.54644 4.31753 0
M  V30 6140 N 573.503 -0.0852151 -1.57369 0
M  V30 6141 C 574.728 0.592872 -1.98746 0
M  V30 6142 C 575.153 1.61538 -0.963689 0
M  V30 6143 O 574.511 1.81168 0.069071 0
M  V30 6144 C 574.559 1.22599 -3.39119 0
M  V30 6145 O 573.663 2.34185 -3.39457 0
M  V30 6146 H 573.004 0.151314 -0.646529 0
M  V30 6147 H 575.534 -0.163703 -2.03944 0
M  V30 6148 H 575.544 1.56965 -3.76598 0
M  V30 6149 H 574.219 0.476831 -4.13158 0
M  V30 6150 H 572.796 2.01512 -3.13763 0
M  V30 6151 N 574.981 1.5647 0.188427 0
M  V30 6152 C 576.258 1.71857 0.934058 0
M  V30 6153 C 576.638 0.641867 2.01105 0
M  V30 6154 O 575.986 -0.346098 2.25864 0
M  V30 6155 C 576.196 3.14431 1.5144 0
M  V30 6156 C 577.544 3.74869 1.99396 0
M  V30 6157 O 578.568 3.17601 1.61269 0
M  V30 6158 O 577.427 4.75387 2.69573 0
M  V30 6159 H 574.521 0.701186 0.438483 0
M  V30 6160 H 577.067 1.68768 0.177599 0
M  V30 6161 H 575.839 3.8427 0.738416 0
M  V30 6162 H 575.462 3.21775 2.33552 0
M  V30 6163 N 576.459 -0.456382 1.50847 0
M  V30 6164 C 577.392 -1.57177 1.65441 0
M  V30 6165 C 578.37 -1.54649 0.502224 0
M  V30 6166 O 579.554 -1.74057 0.723633 0
M  V30 6167 C 576.681 -2.95763 1.65052 0
M  V30 6168 C 575.727 -3.16389 2.86007 0
M  V30 6169 S 576.56 -2.94716 4.47105 0
M  V30 6170 C 577.716 -4.35617 4.49432 0
M  V30 6171 H 577.949 -1.44561 2.59787 0
M  V30 6172 H 575.482 -0.644758 1.40293 0
M  V30 6173 H 577.44 -3.75654 1.65512 0
M  V30 6174 H 576.101 -3.05756 0.719153 0
M  V30 6175 H 575.294 -4.17667 2.82081 0
M  V30 6176 H 574.896 -2.44293 2.8319 0
M  V30 6177 H 577.188 -5.28503 4.239 0
M  V30 6178 H 578.131 -4.44582 5.51137 0
M  V30 6179 H 578.539 -4.18382 3.78967 0
M  V30 6180 N 577.937 -1.40673 -0.710563 0
M  V30 6181 C 578.867 -1.44095 -1.83736 0
M  V30 6182 C 579.848 -0.301286 -1.67411 0
M  V30 6183 O 581.033 -0.510618 -1.87367 0
M  V30 6184 C 578.163 -1.30773 -3.21738 0
M  V30 6185 C 577.117 -2.42395 -3.52745 0
M  V30 6186 C 576.443 -2.14147 -4.89944 0
M  V30 6187 C 577.743 -3.84738 -3.53234 0
M  V30 6188 H 579.437 -2.38396 -1.81129 0
M  V30 6189 H 576.983 -1.14746 -0.870017 0
M  V30 6190 H 578.936 -1.31783 -4.00264 0
M  V30 6191 H 577.66 -0.329507 -3.24934 0
M  V30 6192 H 576.319 -2.40643 -2.76562 0
M  V30 6193 H 575.967 -1.14703 -4.89747 0
M  V30 6194 H 575.667 -2.88934 -5.11655 0
M  V30 6195 H 577.191 -2.16848 -5.70797 0
M  V30 6196 H 578.605 -3.88286 -4.2179 0
M  V30 6197 H 577.002 -4.59085 -3.86473 0
M  V30 6198 H 578.072 -4.13962 -2.52514 0
M  V30 6199 N 579.415 0.9433 -1.26252 0
M  V30 6200 C 580.378 2.02326 -1.07689 0
M  V30 6201 C 581.378 1.60779 -0.0259174 0
M  V30 6202 O 582.568 1.72108 -0.269134 0
M  V30 6203 C 579.7 3.34886 -0.63752 0
M  V30 6204 H 580.893 2.20225 -2.0357 0
M  V30 6205 H 578.446 1.12197 -1.08819 0
M  V30 6206 H 579.181 3.22684 0.323377 0
M  V30 6207 H 578.966 3.66393 -1.39637 0
M  V30 6208 H 580.456 4.14231 -0.529418 0
M  V30 6209 N 580.893 1.08022 1.14757 0
M  V30 6210 C 581.841 0.701088 2.21783 0
M  V30 6211 C 582.835 -0.291311 1.66876 0
M  V30 6212 O 584.041 -0.154296 1.79337 0
M  V30 6213 H 580.416 0.208668 0.722469 0
M  V30 6214 H 582.387 1.61321 2.51034 0
M  V30 6215 C 581.136 0.122278 3.47485 0
M  V30 6216 H 580.459 0.877065 3.90061 0
M  V30 6217 H 581.899 -0.105248 4.23869 0
M  V30 6218 C 580.358 -1.13883 3.17068 0
M  V30 6219 O 580.888 -2.22429 3.34497 0
M  V30 6220 N 579.094 -1.04767 2.71058 0
M  V30 6221 H 578.641 -0.164302 2.57075 0
M  V30 6222 H 578.599 -1.89224 2.51081 0
M  V30 6223 N 582.371 -1.3172 0.865308 0
M  V30 6224 C 583.782 -1.79104 0.527126 0
M  V30 6225 C 584.133 -1.7135 -0.955695 0
M  V30 6226 O 583.258 -1.27845 -1.74598 0
M  V30 6227 C 583.853 -3.25207 0.950061 0
M  V30 6228 C 582.412 -3.70504 0.663611 0
M  V30 6229 C 581.559 -2.52605 1.14395 0
M  V30 6230 H 584.51 -1.18868 1.05148 0
M  V30 6231 H 584.531 -3.79535 0.270805 0
M  V30 6232 H 584.043 -3.30818 2.02931 0
M  V30 6233 H 582.144 -3.70398 -0.404474 0
M  V30 6234 H 582.257 -4.62845 1.23737 0
M  V30 6235 H 580.621 -2.4838 0.563859 0
M  V30 6236 H 581.404 -2.60964 2.23053 0
M  V30 6237 N 583.85 -0.624285 -1.44708 0
M  V30 6238 C 585.266 -0.289322 -1.56956 0
M  V30 6239 C 585.466 1.20773 -1.61295 0
M  V30 6240 O 584.522 1.9915 -1.55227 0
M  V30 6241 C 585.835 -0.975215 -2.84447 0
M  V30 6242 C 587.383 -0.952709 -2.98148 0
M  V30 6243 C 587.858 -1.61893 -4.28433 0
M  V30 6244 N 589.349 -1.5852 -4.35231 0
M  V30 6245 C 590.084 -2.06969 -5.34744 0
M  V30 6246 N 589.58 -2.63579 -6.40701 0
M  V30 6247 N 591.373 -1.97638 -5.26209 0
M  V30 6248 H 583.524 -1.59612 -1.40135 0
M  V30 6249 H 585.787 -0.669592 -0.671081 0
M  V30 6250 H 585.493 -2.02999 -2.87201 0
M  V30 6251 H 585.367 -0.508749 -3.73753 0
M  V30 6252 H 587.754 0.093568 -2.94952 0
M  V30 6253 H 587.835 -1.4576 -2.10209 0
M  V30 6254 H 587.479 -2.66463 -4.32389 0
M  V30 6255 H 587.409 -1.08893 -5.15218 0
M  V30 6256 H 589.899 -1.17183 -3.59272 0
M  V30 6257 H 590.213 -2.98298 -7.12908 0
M  V30 6258 H 588.558 -2.67626 -6.41406 0
M  V30 6259 H 591.749 -1.5314 -4.42341 0
M  V30 6260 H 591.922 -2.35708 -6.03611 0
M  V30 6261 N 585.328 1.53329 -0.364422 0
M  V30 6262 C 586.744 1.59594 -0.0133165 0
M  V30 6263 C 586.944 1.37959 1.46865 0
M  V30 6264 O 586 1.18418 2.2301 0
M  V30 6265 C 587.313 2.97032 -0.468213 0
M  V30 6266 C 588.861 3.10138 -0.422334 0
M  V30 6267 C 589.336 4.49986 -0.853024 0
M  V30 6268 N 590.827 4.56098 -0.808037 0
M  V30 6269 C 591.562 5.62495 -1.11299 0
M  V30 6270 N 591.058 6.7665 -1.48717 0
M  V30 6271 N 592.851 5.52473 -1.03586 0
M  V30 6272 H 585.002 1.65644 -1.32951 0
M  V30 6273 H 587.265 0.77684 -0.543345 0
M  V30 6274 H 586.971 3.18 -1.5023 0
M  V30 6275 H 586.845 3.76918 0.145775 0
M  V30 6276 H 589.232 2.88881 0.602622 0
M  V30 6277 H 589.313 2.32263 -1.0718 0
M  V30 6278 H 588.957 4.7198 -1.87609 0
M  V30 6279 H 588.887 5.26289 -0.180819 0
M  V30 6280 H 591.378 3.74131 -0.532361 0
M  V30 6281 H 591.691 7.53776 -1.70415 0
M  V30 6282 H 590.036 6.78044 -1.52581 0
M  V30 6283 H 593.227 4.6217 -0.742736 0
M  V30 6284 H 593.4 6.35295 -1.27686 0
M  V30 6285 N 586.806 0.0935595 1.57322 0
M  V30 6286 C 588.217 -0.435807 1.81542 0
M  V30 6287 C 588.568 -1.68263 1.00907 0
M  V30 6288 O 587.693 -2.15087 0.237983 0
M  V30 6289 C 588.288 -0.797436 3.29282 0
M  V30 6290 C 586.847 -1.27155 3.54272 0
M  V30 6291 C 585.994 -0.267455 2.76007 0
M  V30 6292 H 588.945 0.31902 1.5546 0
M  V30 6293 H 588.966 -1.6571 3.42521 0
M  V30 6294 H 588.478 0.110206 3.87943 0
M  V30 6295 H 586.579 -2.19696 3.00939 0
M  V30 6296 H 586.692 -1.23445 4.62923 0
M  V30 6297 H 585.056 -0.749282 2.43429 0
M  V30 6298 H 585.839 0.632839 3.37417 0
M  V30 6299 N 588.284 -1.56567 -0.180126 0
M  V30 6300 C 589.533 -1.80685 -0.896426 0
M  V30 6301 C 589.846 -0.669335 -1.83791 0
M  V30 6302 O 591.052 -0.795209 -2.59593 0
M  V30 6303 C 589.508 -3.20132 -1.6445 0
M  V30 6304 C 589.116 -4.41727 -0.747088 0
M  V30 6305 C 590.86 -3.53549 -2.34955 0
M  V30 6306 C 588.767 -5.72195 -1.49489 0
M  V30 6307 H 587.697 -0.673758 -0.338477 0
M  V30 6308 H 590.348 -1.8289 -0.149467 0
M  V30 6309 H 588.73 -3.12218 -2.43589 0
M  V30 6310 H 589.904 -4.608 0.00671129 0
M  V30 6311 H 588.219 -4.16122 -0.152134 0
M  V30 6312 H 590.816 -4.48267 -2.91481 0
M  V30 6313 H 591.159 -2.78006 -3.09868 0
M  V30 6314 H 591.692 -3.62976 -1.62768 0
M  V30 6315 H 588.431 -6.50743 -0.788251 0
M  V30 6316 H 587.951 -5.57115 -2.22224 0
M  V30 6317 H 589.63 -6.1384 -2.04472 0
M  V30 6318 N 589.762 0.448376 -1.51087 0
M  V30 6319 C 590.725 1.52588 -1.71025 0
M  V30 6320 C 591.725 1.49958 -0.580442 0
M  V30 6321 O 592.915 1.52176 -0.847833 0
M  V30 6322 C 590.047 2.92163 -1.75652 0
M  V30 6323 H 591.24 1.36218 -2.67179 0
M  V30 6324 H 588.793 0.676313 -1.4091 0
M  V30 6325 H 589.528 3.13951 -0.812724 0
M  V30 6326 H 589.313 2.95478 -2.57751 0
M  V30 6327 H 590.803 3.70349 -1.92953 0
M  V30 6328 N 591.24 1.41047 0.703093 0
M  V30 6329 C 592.172 1.38228 1.82827 0
M  V30 6330 C 593.185 0.285637 1.60275 0
M  V30 6331 O 594.374 0.54685 1.69917 0
M  V30 6332 C 591.474 1.13136 3.19458 0
M  V30 6333 C 590.647 2.34695 3.69103 0
M  V30 6334 C 589.706 2.05574 4.84382 0
M  V30 6335 O 588.732 2.78549 4.96386 0
M  V30 6336 N 589.934 1.04135 5.71083 0
M  V30 6337 H 592.699 2.35203 1.85741 0
M  V30 6338 H 590.26 1.35562 0.885125 0
M  V30 6339 H 592.252 0.916183 3.94193 0
M  V30 6340 H 590.822 0.247836 3.11616 0
M  V30 6341 H 590.042 2.71963 2.85359 0
M  V30 6342 H 591.33 3.15705 3.99009 0
M  V30 6343 H 590.728 0.43722 5.64008 0
M  V30 6344 H 589.285 0.886078 6.45749 0
M  V30 6345 N 592.718 -0.936591 1.26751 0
M  V30 6346 C 593.964 -1.68625 1.13741 0
M  V30 6347 C 594.319 -1.898 -0.315221 0
M  V30 6348 O 593.612 -1.47088 -1.22783 0
M  V30 6349 C 593.806 -3.06099 1.84494 0
M  V30 6350 C 593.635 -2.98338 3.36488 0
M  V30 6351 C 592.405 -3.01104 4.05789 0
M  V30 6352 C 594.603 -2.78128 4.32608 0
M  V30 6353 N 592.585 -2.8369 5.4442 0
M  V30 6354 C 593.956 -2.69329 5.58446 0
M  V30 6355 C 596.011 -2.62946 4.22804 0
M  V30 6356 C 594.714 -2.46899 6.75598 0
M  V30 6357 C 596.74 -2.41892 5.39669 0
M  V30 6358 C 596.102 -2.33829 6.64457 0
M  V30 6359 H 592.201 -0.624227 0.471025 0
M  V30 6360 H 594.785 -1.10798 1.601 0
M  V30 6361 H 592.956 -3.62057 1.40604 0
M  V30 6362 H 594.688 -3.69951 1.64067 0
M  V30 6363 H 591.443 -3.10992 3.57185 0
M  V30 6364 H 591.867 -2.78138 6.17226 0
M  V30 6365 H 596.509 -2.67944 3.27056 0
M  V30 6366 H 594.227 -2.40642 7.71438 0
M  V30 6367 H 597.813 -2.31043 5.33957 0
M  V30 6368 H 596.693 -2.17754 7.53361 0
M  V30 6369 N 594.196 -1.08629 -1.14182 0
M  V30 6370 C 595.146 -0.687882 -2.17376 0
M  V30 6371 C 596.13 0.293632 -1.58198 0
M  V30 6372 O 597.322 0.105292 -1.76687 0
M  V30 6373 C 594.451 -0.101184 -3.43151 0
M  V30 6374 C 593.537 -1.10862 -4.09354 0
M  V30 6375 N 593.928 -2.29285 -4.50846 0
M  V30 6376 C 592.226 -0.944897 -4.35876 0
M  V30 6377 C 592.927 -2.93305 -5.02342 0
M  V30 6378 N 591.903 -2.20903 -4.96692 0
M  V30 6379 H 595.705 -1.58963 -2.472 0
M  V30 6380 H 593.219 -0.961329 -1.3089 0
M  V30 6381 H 595.216 0.202209 -4.16409 0
M  V30 6382 H 593.876 0.795522 -3.14804 0
M  V30 6383 H 594.887 -2.66927 -4.43813 0
M  V30 6384 H 591.564 -0.102186 -4.17375 0
M  V30 6385 H 592.954 -3.93932 -5.44304 0
M  V30 6386 N 595.674 1.31259 -0.872281 0
M  V30 6387 C 596.899 2.0133 -0.498099 0
M  V30 6388 C 597.324 1.65031 0.902568 0
M  V30 6389 O 596.682 0.860164 1.59596 0
M  V30 6390 C 596.73 3.54411 -0.665205 0
M  V30 6391 O 595.834 4.11347 0.294473 0
M  V30 6392 H 595.175 0.633844 -0.197832 0
M  V30 6393 H 597.705 1.67402 -1.17633 0
M  V30 6394 H 597.715 4.04147 -0.559373 0
M  V30 6395 H 596.39 3.80171 -1.68651 0
M  V30 6396 H 594.967 3.72624 0.143403 0
M  V30 6397 N 597.152 0.631951 1.44375 0
M  V30 6398 C 598.082 -0.0593243 2.33425 0
M  V30 6399 C 599.063 -0.833964 1.48253 0
M  V30 6400 O 600.248 -0.799682 1.76971 0
M  V30 6401 C 597.378 -1.04096 3.31333 0
M  V30 6402 C 596.332 -0.377899 4.26328 0
M  V30 6403 C 595.658 -1.4695 5.14111 0
M  V30 6404 C 596.958 0.716371 5.17364 0
M  V30 6405 H 598.652 0.684287 2.91475 0
M  V30 6406 H 596.198 0.330518 1.40156 0
M  V30 6407 H 598.151 -1.53331 3.92514 0
M  V30 6408 H 596.875 -1.81547 2.71493 0
M  V30 6409 H 595.534 0.0938054 3.6648 0
M  V30 6410 H 595.182 -2.2349 4.50623 0
M  V30 6411 H 594.882 -1.03121 5.78481 0
M  V30 6412 H 596.406 -1.96363 5.78164 0
M  V30 6413 H 597.82 0.307089 5.72477 0
M  V30 6414 H 596.217 1.07784 5.90341 0
M  V30 6415 H 597.287 1.58316 4.58327 0
M  V30 6416 N 598.631 -1.53133 0.372548 0
M  V30 6417 C 599.578 -2.25951 -0.470631 0
M  V30 6418 C 600.548 -1.26895 -1.07176 0
M  V30 6419 O 601.733 -1.55691 -1.10294 0
M  V30 6420 C 598.873 -3.05726 -1.6008 0
M  V30 6421 C 597.986 -4.19684 -1.02416 0
M  V30 6422 C 597.121 -4.86888 -2.124 0
M  V30 6423 C 596.16 -5.92866 -1.52238 0
M  V30 6424 N 595.297 -6.53732 -2.56084 0
M  V30 6425 H 600.137 -2.97587 0.156816 0
M  V30 6426 H 597.674 -1.4683 0.0891571 0
M  V30 6427 H 599.632 -3.50258 -2.26661 0
M  V30 6428 H 598.262 -2.36331 -2.1988 0
M  V30 6429 H 597.314 -3.79588 -0.248426 0
M  V30 6430 H 598.626 -4.95821 -0.544366 0
M  V30 6431 H 597.78 -5.34638 -2.86787 0
M  V30 6432 H 596.519 -4.10239 -2.63734 0
M  V30 6433 H 595.524 -5.4447 -0.763685 0
M  V30 6434 H 596.749 -6.71439 -1.0172 0
M  V30 6435 H 594.695 -5.79932 -3.06618 0
M  V30 6436 H 594.612 -7.25429 -2.12811 0
M  V30 6437 H 595.88 -7.0613 -3.30152 0
M  V30 6438 N 600.109 -0.101901 -1.5727 0
M  V30 6439 C 601.52 0.426173 -1.81771 0
M  V30 6440 C 601.871 1.67725 -1.01797 0
M  V30 6441 O 600.996 2.14958 -0.249386 0
M  V30 6442 C 601.591 0.779962 -3.297 0
M  V30 6443 C 600.15 1.25275 -3.54941 0
M  V30 6444 C 599.297 0.252814 -2.76145 0
M  V30 6445 H 602.248 -0.32726 -1.55289 0
M  V30 6446 H 602.269 1.63891 -3.43395 0
M  V30 6447 H 601.781 -0.130778 -3.8788 0
M  V30 6448 H 599.882 2.18097 -3.021 0
M  V30 6449 H 599.995 1.20988 -4.63572 0
M  V30 6450 H 598.359 0.736362 -2.43823 0
M  V30 6451 H 599.142 -0.650724 -3.37076 0
M  V30 6452 N 601.587 1.56661 0.17182 0
M  V30 6453 C 602.497 1.99604 1.2327 0
M  V30 6454 C 603.513 0.907333 1.4847 0
M  V30 6455 O 604.689 1.21492 1.60629 0
M  V30 6456 C 601.754 2.34685 2.55194 0
M  V30 6457 C 600.815 3.57381 2.3786 0
M  V30 6458 C 600.048 3.90779 3.63494 0
M  V30 6459 O 600.271 3.25152 4.6865 0
M  V30 6460 O 599.205 4.84129 3.57634 0
M  V30 6461 H 603.031 2.90114 0.898192 0
M  V30 6462 H 600.616 1.44522 0.378647 0
M  V30 6463 H 602.498 2.5822 3.33017 0
M  V30 6464 H 601.173 1.47336 2.88225 0
M  V30 6465 H 600.08 3.39064 1.5807 0
M  V30 6466 H 601.413 4.45268 2.09754 0
M  V30 6467 N 603.065 -0.440357 1.51323 0
M  V30 6468 C 603.975 -1.55955 1.75258 0
M  V30 6469 C 604.991 -1.61933 0.636687 0
M  V30 6470 O 606.167 -1.79231 0.918593 0
M  V30 6471 C 603.232 -2.9196 1.86977 0
M  V30 6472 C 602.293 -2.96122 3.10822 0
M  V30 6473 C 601.526 -4.2564 3.21973 0
M  V30 6474 O 601.749 -5.17851 2.39137 0
M  V30 6475 O 600.683 -4.36025 4.14929 0
M  V30 6476 H 604.509 -1.38673 2.70191 0
M  V30 6477 H 602.094 -0.623055 1.35788 0
M  V30 6478 H 603.976 -3.72682 1.96688 0
M  V30 6479 H 602.651 -3.09375 0.952307 0
M  V30 6480 H 601.558 -2.14366 3.06591 0
M  V30 6481 H 602.891 -2.83651 4.02247 0
M  V30 6482 N 604.543 -1.41418 -0.695603 0
M  V30 6483 C 605.453 -1.45622 -1.83933 0
M  V30 6484 C 606.469 -0.346825 -1.70508 0
M  V30 6485 O 607.645 -0.59454 -1.92424 0
M  V30 6486 C 604.71 -1.33627 -3.19914 0
M  V30 6487 C 603.771 -2.54882 -3.45447 0
M  V30 6488 C 603.004 -2.43449 -4.7494 0
M  V30 6489 O 603.227 -1.45905 -5.51424 0
M  V30 6490 O 602.161 -3.33206 -5.01256 0
M  V30 6491 H 605.987 -2.42114 -1.83342 0
M  V30 6492 H 603.572 -1.22956 -0.848658 0
M  V30 6493 H 605.454 -1.29221 -4.01098 0
M  V30 6494 H 604.129 -0.402508 -3.21188 0
M  V30 6495 H 603.036 -2.64865 -2.64192 0
M  V30 6496 H 604.369 -3.47087 -3.48987 0
M  V30 6497 N 606.021 0.929856 -1.27246 0
M  V30 6498 C 607.267 1.6798 -1.13625 0
M  V30 6499 C 607.6 1.91586 0.317589 0
M  V30 6500 O 606.875 1.50467 1.23247 0
M  V30 6501 C 607.158 3.04766 -1.91806 0
M  V30 6502 C 607.011 2.88415 -3.45162 0
M  V30 6503 C 608.33 4.05063 -1.72082 0
M  V30 6504 H 605.449 0.609632 -0.414147 0
M  V30 6505 H 608.091 1.0792 -1.56376 0
M  V30 6506 H 606.241 3.56034 -1.55474 0
M  V30 6507 H 607.913 2.44282 -3.91311 0
M  V30 6508 H 606.156 2.23802 -3.71611 0
M  V30 6509 H 606.827 3.85482 -3.95105 0
M  V30 6510 H 609.303 3.62798 -2.03757 0
M  V30 6511 H 608.179 4.98765 -2.29182 0
M  V30 6512 H 608.44 4.37021 -0.668206 0
M  V30 6513 N 607.499 1.09233 1.13605 0
M  V30 6514 C 608.776 0.739633 1.81077 0
M  V30 6515 C 609.156 -0.775595 1.96336 0
M  V30 6516 O 608.504 -1.69726 1.52988 0
M  V30 6517 C 608.714 1.47636 3.16235 0
M  V30 6518 C 610.062 1.64087 3.91613 0
M  V30 6519 O 611.086 1.43871 3.25852 0
M  V30 6520 O 609.945 1.97511 5.0956 0
M  V30 6521 H 607.039 0.265464 0.783236 0
M  V30 6522 H 609.585 1.19441 1.20549 0
M  V30 6523 H 608.357 2.50818 3.00344 0
M  V30 6524 H 607.98 1.01362 3.84462 0
M  V30 6525 N 608.977 -1.30795 0.87923 0
M  V30 6526 C 609.94 -2.26563 0.346676 0
M  V30 6527 C 610.94 -1.52578 -0.507597 0
M  V30 6528 O 612.13 -1.71318 -0.315575 0
M  V30 6529 C 609.262 -3.37115 -0.506611 0
M  V30 6530 H 610.455 -2.75183 1.19223 0
M  V30 6531 H 608.008 -1.41886 0.655598 0
M  V30 6532 H 608.743 -2.93802 -1.37299 0
M  V30 6533 H 608.528 -3.91959 0.105218 0
M  V30 6534 H 610.018 -4.08412 -0.871192 0
M  V30 6535 N 610.455 -0.639598 -1.44038 0
M  V30 6536 C 611.385 0.0469443 -2.33453 0
M  V30 6537 C 612.366 0.82609 -1.48694 0
M  V30 6538 O 613.551 0.790285 -1.77393 0
M  V30 6539 C 610.681 1.02338 -3.3188 0
M  V30 6540 C 609.635 0.355284 -4.26523 0
M  V30 6541 C 608.961 1.44221 -5.14883 0
M  V30 6542 C 610.261 -0.743798 -5.16977 0
M  V30 6543 H 611.955 -0.699735 -2.91108 0
M  V30 6544 H 609.501 -0.337946 -1.39978 0
M  V30 6545 H 611.454 1.51247 -3.93322 0
M  V30 6546 H 610.178 1.80105 -2.72451 0
M  V30 6547 H 608.837 -0.113239 -3.66425 0
M  V30 6548 H 608.485 2.21097 -4.51802 0
M  V30 6549 H 608.185 1.00052 -5.79019 0
M  V30 6550 H 609.709 1.93295 -5.79197 0
M  V30 6551 H 611.123 -0.337444 -5.72306 0
M  V30 6552 H 609.52 -1.10914 -5.89761 0
M  V30 6553 H 610.59 -1.60745 -4.57481 0
M  V30 6554 N 611.933 1.52934 -0.380664 0
M  V30 6555 C 612.863 2.29118 0.450268 0
M  V30 6556 C 613.844 1.32153 1.07096 0
M  V30 6557 O 615.029 1.61038 1.08537 0
M  V30 6558 C 612.159 3.09161 1.58231 0
M  V30 6559 C 611.113 4.13938 1.0881 0
M  V30 6560 C 610.439 4.82153 2.31155 0
M  V30 6561 C 611.739 5.22048 0.162146 0
M  V30 6562 H 613.433 2.98826 -0.185361 0
M  V30 6563 H 610.979 1.43715 -0.0905886 0
M  V30 6564 H 612.932 3.61211 2.17036 0
M  V30 6565 H 611.656 2.3717 2.2454 0
M  V30 6566 H 610.315 3.62855 0.522633 0
M  V30 6567 H 609.963 4.06719 2.95953 0
M  V30 6568 H 609.663 5.52966 1.98752 0
M  V30 6569 H 611.187 5.37004 2.90618 0
M  V30 6570 H 612.601 5.6951 0.658126 0
M  V30 6571 H 610.998 6.00057 -0.0717122 0
M  V30 6572 H 612.068 4.78398 -0.791438 0
M  V30 6573 N 613.412 0.11024 1.57214 0
M  V30 6574 C 614.66 -0.548783 1.94506 0
M  V30 6575 C 614.981 -1.67772 0.99386 0
M  V30 6576 O 614.251 -1.9584 0.0485841 0
M  V30 6577 H 612.831 -0.205715 0.718116 0
M  V30 6578 H 615.493 0.177127 1.94093 0
M  V30 6579 H 614.589 -0.949096 2.97319 0
M  V30 6580 N 614.89 -1.56749 -0.16351 0
M  V30 6581 C 615.837 -1.97011 -1.2023 0
M  V30 6582 C 616.807 -0.835186 -1.43575 0
M  V30 6583 O 617.992 -1.09594 -1.56185 0
M  V30 6584 C 615.132 -2.34186 -2.53478 0
M  V30 6585 C 614.245 -3.60893 -2.37446 0
M  V30 6586 C 613.38 -3.87245 -3.63614 0
M  V30 6587 C 612.419 -5.07274 -3.42548 0
M  V30 6588 N 611.556 -5.29719 -4.60806 0
M  V30 6589 H 616.396 -2.85562 -0.851958 0
M  V30 6590 H 613.933 -1.41292 -0.409257 0
M  V30 6591 H 615.891 -2.53764 -3.31149 0
M  V30 6592 H 614.521 -1.48736 -2.86492 0
M  V30 6593 H 613.573 -3.49185 -1.50911 0
M  V30 6594 H 614.885 -4.48722 -2.1783 0
M  V30 6595 H 614.039 -4.07232 -4.49719 0
M  V30 6596 H 612.778 -2.97806 -3.86216 0
M  V30 6597 H 611.783 -4.87177 -2.5483 0
M  V30 6598 H 613.008 -5.98251 -3.2136 0
M  V30 6599 H 610.954 -4.43233 -4.83612 0
M  V30 6600 H 610.871 -6.11786 -4.44132 0
M  V30 6601 H 612.139 -5.54192 -5.48171 0
M  V30 6602 N 616.368 0.432326 -1.51554 0
M  V30 6603 C 617.316 1.54572 -1.73811 0
M  V30 6604 C 618.31 1.58246 -0.604539 0
M  V30 6605 O 619.516 1.6193 -0.786041 0
M  V30 6606 H 615.891 0.513626 -0.549265 0
M  V30 6607 H 617.862 1.32977 -2.67132 0
M  V30 6608 C 616.611 2.92181 -1.88483 0
M  V30 6609 H 615.934 2.90088 -2.75116 0
M  V30 6610 H 617.374 3.69439 -2.08065 0
M  V30 6611 C 615.833 3.3065 -0.645909 0
M  V30 6612 O 616.363 4.01216 0.197093 0
M  V30 6613 N 614.569 2.86464 -0.488538 0
M  V30 6614 H 614.116 2.29209 -1.17562 0
M  V30 6615 H 614.074 3.12565 0.339156 0
M  V30 6616 N 617.846 1.41785 0.688094 0
M  V30 6617 C 618.793 1.44221 1.80191 0
M  V30 6618 C 619.763 0.295688 1.63447 0
M  V30 6619 O 620.948 0.49783 1.84191 0
M  V30 6620 C 618.088 1.33743 3.1813 0
M  V30 6621 C 617.201 2.58325 3.46254 0
M  V30 6622 C 616.336 2.40086 4.73848 0
M  V30 6623 C 615.375 3.60107 4.94964 0
M  V30 6624 N 614.512 3.40892 6.13789 0
M  V30 6625 H 619.352 2.39411 1.77444 0
M  V30 6626 H 616.889 1.18876 0.866423 0
M  V30 6627 H 618.847 1.25669 3.97823 0
M  V30 6628 H 617.477 0.42157 3.20035 0
M  V30 6629 H 616.529 2.7682 2.60912 0
M  V30 6630 H 617.841 3.4758 3.57756 0
M  V30 6631 H 616.995 2.29522 5.61609 0
M  V30 6632 H 615.734 1.483 4.64606 0
M  V30 6633 H 614.739 3.71118 4.05649 0
M  V30 6634 H 615.964 4.52857 5.06061 0
M  V30 6635 H 613.91 2.51812 6.05745 0
M  V30 6636 H 613.827 4.23727 6.26092 0
M  V30 6637 H 615.095 3.34114 7.04264 0
M  V30 6638 O 619.363 -0.830368 1.38518 0
M  V30 6639 H 620.054 -1.47302 1.25785 0
M  V30 END ATOM
M  V30 BEGIN BOND
M  V30 END BOND
M  V30 END CTAB
M  END
$$$$
