drugbank_target|Q8NBP7 Proprotein convertase subtilisin/kexin type 9 (DB09302; DB14901)
 OpenBabel12092121043D

  0  0  0     0  0            999 V3000
M  V30 BEGIN CTAB
M  V30 COUNTS 10334 10444 0 0 0
M  V30 BEGIN ATOM
M  V30 1 H -0.908 1.98254 -0.117106 0
M  V30 2 N 0 1.576 0 0
M  V30 3 C 0.933 2.03868 1.02534 0
M  V30 4 C 1.911 0.928543 1.3348 0
M  V30 5 O 3.095 1.19667 1.45644 0
M  V30 6 C 0.222 2.43627 2.35294 0
M  V30 7 C -0.732 3.65373 2.2001 0
M  V30 8 S 0.101 5.13292 1.52614 0
M  V30 9 C 1.257 5.56322 2.86805 0
M  V30 10 H 1.49 2.90518 0.631377 0
M  V30 11 H -0.977 1.52953 0.210867 0
M  V30 12 H 0.981 2.67203 3.11629 0
M  V30 13 H -0.358 1.57376 2.7183 0
M  V30 14 H -1.165 3.90944 3.18086 0
M  V30 15 H -1.563 3.418 1.51819 0
M  V30 16 H 0.729 5.58782 3.83104 0
M  V30 17 H 1.672 6.56266 2.65933 0
M  V30 18 H 2.08 4.83886 2.90714 0
M  V30 19 N 1.4781 -0.272755 1.55222 0
M  V30 20 C 2.7261 -1.00234 1.75492 0
M  V30 21 C 3.0471 -1.8681 0.5592 0
M  V30 22 O 2.3171 -1.91215 -0.425882 0
M  V30 23 H 0.8971 -0.373076 0.647166 0
M  V30 24 H 3.5591 -0.296926 1.92625 0
M  V30 25 H 2.6551 -1.63913 2.65592 0
M  V30 26 N 2.9562 -1.48159 -0.537278 0
M  V30 27 C 4.1842 -1.59454 -1.31841 0
M  V30 28 C 4.5992 -0.252065 -1.8711 0
M  V30 29 O 3.9562 0.757621 -1.66031 0
M  V30 30 C 4.0072 -2.63546 -2.47439 0
M  V30 31 O 3.7282 -3.92583 -1.94449 0
M  V30 32 C 5.2292 -2.85212 -3.39366 0
M  V30 33 H 2.4492 -0.53785 -0.401196 0
M  V30 34 H 4.9932 -1.93932 -0.648891 0
M  V30 35 H 3.1482 -2.31946 -3.1029 0
M  V30 36 H 3.5622 -4.49629 -2.70063 0
M  V30 37 H 5.0362 -3.61863 -4.16844 0
M  V30 38 H 5.5132 -1.93765 -3.94147 0
M  V30 39 H 6.1192 -3.18086 -2.82314 0
M  V30 40 N 4.4343 0.785586 -1.36625 0
M  V30 41 C 5.6803 1.54591 -1.31261 0
M  V30 42 C 6.0133 1.93906 0.106823 0
M  V30 43 O 5.2883 1.63007 1.06108 0
M  V30 44 C 5.5713 2.82038 -2.23889 0
M  V30 45 C 5.4243 2.49066 -3.74548 0
M  V30 46 C 6.7433 3.83887 -2.15217 0
M  V30 47 H 3.8623 0.560846 -0.478143 0
M  V30 48 H 6.5043 0.902278 -1.67209 0
M  V30 49 H 4.6543 3.36961 -1.93363 0
M  V30 50 H 6.3263 2.00164 -4.15611 0
M  V30 51 H 4.5693 1.81954 -3.93796 0
M  V30 52 H 5.2403 3.40109 -4.34776 0
M  V30 53 H 7.7163 3.38421 -2.42096 0
M  V30 54 H 6.5923 4.70806 -2.82193 0
M  V30 55 H 6.8533 4.27131 -1.14068 0
M  V30 56 N 5.9124 1.20967 1.01018 0
M  V30 57 C 7.1374 1.0503 1.78839 0
M  V30 58 C 7.5624 -0.395752 1.8389 0
M  V30 59 O 6.9204 -1.28529 1.27867 0
M  V30 60 C 6.9684 1.64602 3.2084 0
M  V30 61 O 6.0724 0.887988 4.02726 0
M  V30 62 H 5.4134 0.369987 0.551367 0
M  V30 63 H 7.9434 1.60399 1.27018 0
M  V30 64 H 7.9534 1.68607 3.71532 0
M  V30 65 H 6.6284 2.69841 3.16479 0
M  V30 66 H 5.2054 0.922648 3.61305 0
M  V30 67 N 7.3905 -1.2043 1.01659 0
M  V30 68 C 8.6155 -1.94318 0.724942 0
M  V30 69 C 9.0405 -1.74266 -0.708034 0
M  V30 70 O 8.3985 -1.03694 -1.48719 0
M  V30 71 C 8.4465 -3.44486 1.06591 0
M  V30 72 O 7.5505 -4.12017 0.177599 0
M  V30 73 H 6.8915 -0.60708 0.26898 0
M  V30 74 H 9.4215 -1.52861 1.35995 0
M  V30 75 H 9.4315 -3.95106 1.01762 0
M  V30 76 H 8.1065 -3.58404 2.10997 0
M  V30 77 H 6.6835 -3.71821 0.283421 0
M  V30 78 N 8.8686 -0.792821 -1.36206 0
M  V30 79 C 10.2846 -0.474903 -1.52371 0
M  V30 80 C 10.4846 1.00622 -1.74578 0
M  V30 81 O 9.5406 1.79162 -1.77924 0
M  V30 82 C 10.8536 -1.3083 -2.70747 0
M  V30 83 C 12.4016 -1.30234 -2.84619 0
M  V30 84 C 12.8766 -2.11956 -4.06004 0
M  V30 85 N 14.3676 -2.09419 -4.13156 0
M  V30 86 C 15.1026 -2.69419 -5.06163 0
M  V30 87 N 14.5986 -3.3829 -6.04592 0
M  V30 88 N 16.3916 -2.59134 -4.98804 0
M  V30 89 H 8.5426 -1.75222 -1.20046 0
M  V30 90 H 10.8056 -0.745024 -0.586211 0
M  V30 91 H 10.5116 -2.35881 -2.6087 0
M  V30 92 H 10.3856 -0.95196 -3.6499 0
M  V30 93 H 12.7726 -0.259748 -2.93955 0
M  V30 94 H 12.8536 -1.69847 -1.91274 0
M  V30 95 H 12.4976 -3.16248 -3.97429 0
M  V30 96 H 12.4276 -1.69711 -4.98503 0
M  V30 97 H 14.9186 -1.59297 -3.42685 0
M  V30 98 H 15.2316 -3.81394 -6.7213 0
M  V30 99 H 13.5766 -3.42393 -6.04807 0
M  V30 100 H 16.7676 -2.04927 -4.20859 0
M  V30 101 H 16.9406 -3.06185 -5.711 0
M  V30 102 N 10.3467 1.47872 -0.545128 0
M  V30 103 C 11.7627 1.5829 -0.204032 0
M  V30 104 C 11.9627 1.54529 1.29317 0
M  V30 105 O 11.0187 1.44232 2.07252 0
M  V30 106 C 12.3317 2.89304 -0.819987 0
M  V30 107 C 13.8797 3.02864 -0.790105 0
M  V30 108 C 14.3547 4.3656 -1.38491 0
M  V30 109 N 15.8457 4.43165 -1.34755 0
M  V30 110 C 16.5807 5.45153 -1.77753 0
M  V30 111 N 16.0767 6.54016 -2.2855 0
M  V30 112 N 17.8697 5.36125 -1.68897 0
M  V30 113 H 10.0207 1.4856 -1.51802 0
M  V30 114 H 12.2837 0.706305 -0.632327 0
M  V30 115 H 11.9897 2.97757 -1.87173 0
M  V30 116 H 11.8637 3.75957 -0.305915 0
M  V30 117 H 14.2507 2.94014 0.252913 0
M  V30 118 H 14.3317 2.17782 -1.34181 0
M  V30 119 H 13.9757 4.46164 -2.42693 0
M  V30 120 H 13.9057 5.20353 -0.808754 0
M  V30 121 H 16.3967 3.65083 -0.975855 0
M  V30 122 H 16.7097 7.27994 -2.59314 0
M  V30 123 H 15.0547 6.54938 -2.32553 0
M  V30 124 H 18.2457 4.49975 -1.28998 0
M  V30 125 H 18.4187 6.15472 -2.02726 0
M  V30 126 N 11.8248 0.280983 1.55075 0
M  V30 127 C 13.0498 -0.340154 2.04592 0
M  V30 128 C 13.4748 -1.48246 1.15779 0
M  V30 129 O 12.8328 -1.80614 0.15761 0
M  V30 130 C 12.8808 -0.793104 3.5177 0
M  V30 131 O 11.9848 -1.89981 3.66034 0
M  V30 132 H 11.3258 -0.0694289 0.66036 0
M  V30 133 H 13.8558 0.416993 2.00306 0
M  V30 134 H 13.8658 -1.08729 3.93245 0
M  V30 135 H 12.5408 0.0426163 4.15878 0
M  V30 136 H 11.1178 -1.60771 3.36463 0
M  V30 137 N 13.3029 -1.57598 0.00835791 0
M  V30 138 C 14.5489 -1.92046 -0.670055 0
M  V30 139 C 14.9039 -0.88351 -1.70915 0
M  V30 140 O 14.1969 0.103223 -1.91322 0
M  V30 141 C 14.3909 -3.3101 -1.34787 0
M  V30 142 C 14.2199 -4.48126 -0.375945 0
M  V30 143 C 12.9899 -5.05297 0.0166914 0
M  V30 144 C 15.1879 -5.1303 0.361272 0
M  V30 145 N 13.1699 -6.05931 0.985952 0
M  V30 146 C 14.5409 -6.08571 1.18495 0
M  V30 147 C 16.5959 -4.9609 0.42421 0
M  V30 148 C 15.2989 -6.88996 2.06584 0
M  V30 149 C 17.3249 -5.77107 1.29236 0
M  V30 150 C 16.6869 -6.72248 2.10386 0
M  V30 151 H 12.7859 -0.75096 -0.218136 0
M  V30 152 H 15.3699 -1.94572 0.0706669 0
M  V30 153 H 13.5409 -3.29342 -2.05884 0
M  V30 154 H 15.2729 -3.52864 -1.98164 0
M  V30 155 H 12.0279 -4.72279 -0.353435 0
M  V30 156 H 12.4519 -6.60932 1.4662 0
M  V30 157 H 17.0939 -4.22378 -0.188915 0
M  V30 158 H 14.8119 -7.62028 2.6896 0
M  V30 159 H 18.3979 -5.66038 1.34508 0
M  V30 160 H 17.2779 -7.33846 2.76476 0
M  V30 161 N 14.781 0.264519 -1.55364 0
M  V30 162 C 16.027 0.992314 -1.77552 0
M  V30 163 C 16.382 1.83626 -0.574379 0
M  V30 164 O 15.675 1.86648 0.432782 0
M  V30 165 C 15.869 1.9004 -3.02687 0
M  V30 166 C 15.698 1.14583 -4.34857 0
M  V30 167 C 14.468 0.858068 -4.97961 0
M  V30 168 C 16.666 0.532069 -5.1154 0
M  V30 169 N 14.648 0.0775974 -6.13851 0
M  V30 170 C 16.019 -0.113823 -6.19896 0
M  V30 171 C 18.074 0.440763 -4.95945 0
M  V30 172 C 16.777 -0.842231 -7.14352 0
M  V30 173 C 18.803 -0.274072 -5.90765 0
M  V30 174 C 18.165 -0.90867 -6.98515 0
M  V30 175 H 14.264 0.344811 -0.701875 0
M  V30 176 H 16.848 0.267141 -1.92859 0
M  V30 177 H 15.019 2.59775 -2.88741 0
M  V30 178 H 16.751 2.56243 -3.13243 0
M  V30 179 H 13.506 1.16547 -4.59036 0
M  V30 180 H 13.93 -0.300216 -6.76334 0
M  V30 181 H 18.572 0.917064 -4.12735 0
M  V30 182 H 16.29 -1.33019 -7.97077 0
M  V30 183 H 19.876 -0.345151 -5.80775 0
M  V30 184 H 18.756 -1.45299 -7.70622 0
M  V30 185 N 16.2591 1.48442 0.529413 0
M  V30 186 C 17.6701 1.5002 1.11134 0
M  V30 187 C 18.0211 0.27031 1.94329 0
M  V30 188 O 17.1461 -0.622507 2.07253 0
M  V30 189 C 17.7411 2.71834 2.02217 0
M  V30 190 C 16.3001 2.76283 2.55627 0
M  V30 191 C 15.4471 2.43542 1.326 0
M  V30 192 H 18.3981 1.5555 0.314641 0
M  V30 193 H 18.4191 2.50384 2.8651 0
M  V30 194 H 17.9311 3.61331 1.41639 0
M  V30 195 H 16.0321 1.90995 3.19924 0
M  V30 196 H 16.1451 3.77725 2.94721 0
M  V30 197 H 14.5091 1.94709 1.64196 0
M  V30 198 H 15.2921 3.3528 0.737734 0
M  V30 199 N 17.7372 -0.778329 1.37039 0
M  V30 200 C 18.6672 -1.90546 1.34962 0
M  V30 201 C 19.6482 -1.68681 0.219274 0
M  V30 202 O 20.8332 -1.89634 0.418624 0
M  V30 203 C 17.9632 -3.27734 1.14925 0
M  V30 204 C 16.9172 -3.64147 2.24902 0
M  V30 205 C 16.2432 -4.99806 1.89996 0
M  V30 206 C 17.5432 -3.71579 3.67051 0
M  V30 207 H 19.2372 -1.92541 2.29277 0
M  V30 208 H 16.7832 -0.924948 1.10366 0
M  V30 209 H 18.7362 -4.06215 1.12104 0
M  V30 210 H 17.4602 -3.26154 0.170631 0
M  V30 211 H 16.1192 -2.8797 2.26868 0
M  V30 212 H 15.7672 -4.94759 0.906796 0
M  V30 213 H 15.4672 -5.25139 2.63634 0
M  V30 214 H 16.9912 -5.80694 1.88749 0
M  V30 215 H 18.4052 -4.40227 3.67251 0
M  V30 216 H 16.8022 -4.08405 4.39688 0
M  V30 217 H 17.8722 -2.72404 4.01154 0
M  V30 218 N 19.2153 -1.21501 -1.00376 0
M  V30 219 C 20.6263 -1.03146 -1.55621 0
M  V30 220 C 20.9773 0.408375 -1.91903 0
M  V30 221 O 20.1023 1.29177 -1.73616 0
M  V30 222 C 20.6973 -1.86612 -2.82775 0
M  V30 223 C 19.2563 -1.72586 -3.34501 0
M  V30 224 C 18.4033 -1.83747 -2.07683 0
M  V30 225 H 21.3543 -1.35505 -0.826081 0
M  V30 226 H 21.3753 -1.3771 -3.54706 0
M  V30 227 H 20.8873 -2.91399 -2.56336 0
M  V30 228 H 18.9883 -0.704877 -3.65872 0
M  V30 229 H 19.1013 -2.54623 -4.05837 0
M  V30 230 H 17.4653 -1.27069 -2.20739 0
M  V30 231 H 18.2483 -2.90044 -1.83655 0
M  V30 232 N 20.6934 1.19889 -1.02296 0
M  V30 233 C 21.6234 2.25141 -0.619174 0
M  V30 234 C 22.6044 1.66051 0.368915 0
M  V30 235 O 23.7894 1.92546 0.252941 0
M  V30 236 C 20.9194 3.4728 0.0368783 0
M  V30 237 C 19.8734 4.19005 -0.872865 0
M  V30 238 C 19.1994 5.34637 -0.0822402 0
M  V30 239 C 20.4994 4.74452 -2.18387 0
M  V30 240 H 22.1934 2.59171 -1.49903 0
M  V30 241 H 19.7394 1.24579 -0.722222 0
M  V30 242 H 21.6924 4.20098 0.330958 0
M  V30 243 H 20.4164 3.12433 0.95149 0
M  V30 244 H 19.0754 3.48061 -1.15105 0
M  V30 245 H 18.7234 4.96034 0.83422 0
M  V30 246 H 18.4234 5.83557 -0.688149 0
M  V30 247 H 19.9474 6.10255 0.205238 0
M  V30 248 H 21.3614 5.39055 -1.95172 0
M  V30 249 H 19.7584 5.33834 -2.74119 0
M  V30 250 H 20.8284 3.92844 -2.84257 0
M  V30 251 N 22.1715 0.800033 1.35784 0
M  V30 252 C 23.1015 0.220184 2.3246 0
M  V30 253 C 24.0825 -0.65073 1.57161 0
M  V30 254 O 25.2675 -0.582359 1.85263 0
M  V30 255 C 22.3975 -0.637353 3.41402 0
M  V30 256 C 21.3515 0.134531 4.27789 0
M  V30 257 C 20.6775 -0.844285 5.27992 0
M  V30 258 C 21.9775 1.32979 5.05088 0
M  V30 259 H 23.6715 1.02787 2.81203 0
M  V30 260 H 21.2175 0.495717 1.35199 0
M  V30 261 H 23.1705 -1.05302 4.08031 0
M  V30 262 H 21.8945 -1.47785 2.91251 0
M  V30 263 H 20.5535 0.531296 3.6273 0
M  V30 264 H 20.2015 -1.68011 4.74111 0
M  V30 265 H 19.9015 -0.332184 5.8666 0
M  V30 266 H 21.4255 -1.2583 5.97494 0
M  V30 267 H 22.8395 0.98934 5.64699 0
M  V30 268 H 21.2365 1.77593 5.7322 0
M  V30 269 H 22.3065 2.11978 4.36111 0
M  V30 270 N 23.6496 -1.47581 0.552962 0
M  V30 271 C 24.5796 -2.32762 -0.185451 0
M  V30 272 C 25.5606 -1.43527 -0.912905 0
M  V30 273 O 26.7456 -1.72388 -0.894201 0
M  V30 274 C 23.8756 -3.25219 -1.21859 0
M  V30 275 C 22.8296 -4.23661 -0.607864 0
M  V30 276 C 22.1556 -5.05413 -1.74533 0
M  V30 277 C 23.4556 -5.20481 0.435582 0
M  V30 278 H 25.1496 -2.94749 0.525684 0
M  V30 279 H 22.6956 -1.41738 0.254251 0
M  V30 280 H 24.6486 -3.8365 -1.7433 0
M  V30 281 H 23.3726 -2.61279 -1.95961 0
M  V30 282 H 22.0316 -3.66451 -0.104489 0
M  V30 283 H 21.6796 -4.3788 -2.47529 0
M  V30 284 H 21.3796 -5.72059 -1.34249 0
M  V30 285 H 22.9036 -5.66701 -2.27338 0
M  V30 286 H 24.3176 -5.733 -0.00290157 0
M  V30 287 H 22.7146 -5.95305 0.757067 0
M  V30 288 H 23.7846 -4.66217 1.33303 0
M  V30 289 N 25.1277 -0.289203 -1.54924 0
M  V30 290 C 26.0577 0.58549 -2.2604 0
M  V30 291 C 27.0387 1.14753 -1.25562 0
M  V30 292 O 28.2237 1.17906 -1.54311 0
M  V30 293 C 25.3537 1.76305 -2.99222 0
M  V30 294 C 24.3077 1.33191 -4.06748 0
M  V30 295 C 23.6337 2.5937 -4.6758 0
M  V30 296 C 24.9337 0.471775 -5.20165 0
M  V30 297 H 26.6277 -0.00763532 -2.99399 0
M  V30 298 H 24.1737 -0.00511229 -1.43999 0
M  V30 299 H 26.1267 2.38097 -3.47689 0
M  V30 300 H 24.8507 2.38223 -2.23422 0
M  V30 301 H 23.5097 0.737121 -3.59113 0
M  V30 302 H 23.1577 3.19576 -3.88433 0
M  V30 303 H 22.8577 2.31228 -5.40192 0
M  V30 304 H 24.3817 3.21985 -5.18804 0
M  V30 305 H 25.7957 0.995056 -5.64599 0
M  V30 306 H 24.1927 0.284639 -5.99425 0
M  V30 307 H 25.2627 -0.506041 -4.82252 0
M  V30 308 N 26.6058 1.57591 -0.0167156 0
M  V30 309 C 27.5358 2.12496 0.967858 0
M  V30 310 C 28.5168 1.03807 1.34752 0
M  V30 311 O 29.7018 1.31577 1.42833 0
M  V30 312 C 26.8318 2.64194 2.25431 0
M  V30 313 C 25.7858 3.77559 2.01576 0
M  V30 314 C 25.1118 4.15636 3.36379 0
M  V30 315 C 26.4118 5.04151 1.36489 0
M  V30 316 H 28.1058 2.95013 0.510643 0
M  V30 317 H 25.6518 1.41915 0.244181 0
M  V30 318 H 27.6048 3.01236 2.94678 0
M  V30 319 H 26.3288 1.78821 2.73296 0
M  V30 320 H 24.9878 3.40937 1.34751 0
M  V30 321 H 24.6358 3.27263 3.81979 0
M  V30 322 H 24.3358 4.92022 3.21229 0
M  V30 323 H 25.8598 4.5525 4.06915 0
M  V30 324 H 27.2738 5.38857 1.95718 0
M  V30 325 H 25.6708 5.85453 1.31776 0
M  V30 326 H 26.7408 4.83733 0.336219 0
M  V30 327 N 28.0839 -0.256276 1.55502 0
M  V30 328 C 29.0139 -1.32102 1.92539 0
M  V30 329 C 29.9949 -1.50684 0.789194 0
M  V30 330 O 31.1799 -1.63449 1.04872 0
M  V30 331 C 28.3099 -2.67752 2.21192 0
M  V30 332 C 27.2639 -2.63878 3.36975 0
M  V30 333 C 26.5899 -4.03236 3.51147 0
M  V30 334 C 27.8899 -2.21682 4.72921 0
M  V30 335 H 29.5839 -1.01351 2.81724 0
M  V30 336 H 27.1299 -0.486105 1.35547 0
M  V30 337 H 29.0829 -3.42365 2.45691 0
M  V30 338 H 27.8069 -3.0012 1.28824 0
M  V30 339 H 26.4659 -1.91722 3.12471 0
M  V30 340 H 26.1139 -4.32854 2.56216 0
M  V30 341 H 25.8139 -4.01535 4.29003 0
M  V30 342 H 27.3379 -4.79563 3.77957 0
M  V30 343 H 28.7519 -2.86023 4.96854 0
M  V30 344 H 27.1489 -2.3111 5.53812 0
M  V30 345 H 28.2189 -1.16833 4.70615 0
M  V30 346 N 29.562 -1.4872 -0.521534 0
M  V30 347 C 30.492 -1.66771 -1.63431 0
M  V30 348 C 31.473 -0.516499 -1.62069 0
M  V30 349 O 32.658 -0.750013 -1.79132 0
M  V30 350 C 29.788 -1.71515 -3.01993 0
M  V30 351 C 28.742 -2.86222 -3.18216 0
M  V30 352 C 28.068 -2.76061 -4.57924 0
M  V30 353 C 29.368 -4.27419 -3.00184 0
M  V30 354 H 31.062 -2.59932 -1.48579 0
M  V30 355 H 28.608 -1.25089 -0.713358 0
M  V30 356 H 30.561 -1.82731 -3.7972 0
M  V30 357 H 29.285 -0.749393 -3.17886 0
M  V30 358 H 27.944 -2.74575 -2.42908 0
M  V30 359 H 27.592 -1.77437 -4.70665 0
M  V30 360 H 27.292 -3.53037 -4.69722 0
M  V30 361 H 28.816 -2.89256 -5.37739 0
M  V30 362 H 30.23 -4.39855 -3.67697 0
M  V30 363 H 28.627 -5.05458 -3.2347 0
M  V30 364 H 29.697 -4.43293 -1.96518 0
M  V30 365 N 31.0401 0.771051 -1.3745 0
M  V30 366 C 31.9701 1.89827 -1.3597 0
M  V30 367 C 32.9511 1.68562 -0.228216 0
M  V30 368 O 34.1361 1.8941 -0.428675 0
M  V30 369 C 31.2661 3.2712 -1.16662 0
M  V30 370 C 30.2201 3.6295 -2.2683 0
M  V30 371 C 29.5461 4.98791 -1.92644 0
M  V30 372 C 30.8461 3.69627 -3.69017 0
M  V30 373 H 32.5401 1.91323 -2.30295 0
M  V30 374 H 30.0861 0.919082 -1.10855 0
M  V30 375 H 32.0391 4.05615 -1.14256 0
M  V30 376 H 30.7631 3.26059 -0.187926 0
M  V30 377 H 29.4221 2.86763 -2.28392 0
M  V30 378 H 29.0701 4.94271 -0.933021 0
M  V30 379 H 28.7701 5.23733 -2.66416 0
M  V30 380 H 30.2941 5.79685 -1.91826 0
M  V30 381 H 31.7081 4.38273 -3.69581 0
M  V30 382 H 30.1051 4.06067 -4.41848 0
M  V30 383 H 31.1751 2.70273 -4.02592 0
M  V30 384 N 32.5182 1.22032 0.997298 0
M  V30 385 C 33.4482 1.01065 2.10495 0
M  V30 386 C 34.4292 -0.0669542 1.69968 0
M  V30 387 O 35.6142 0.0943987 1.9397 0
M  V30 388 C 32.7442 0.582874 3.42374 0
M  V30 389 C 31.6982 1.60592 3.96729 0
M  V30 390 C 31.0242 1.03412 5.24605 0
M  V30 391 C 32.3242 2.99478 4.27914 0
M  V30 392 H 34.0182 1.93708 2.28292 0
M  V30 393 H 31.5642 0.932761 1.09707 0
M  V30 394 H 33.5172 0.423332 4.19268 0
M  V30 395 H 32.2412 -0.379213 3.24391 0
M  V30 396 H 30.9002 1.75316 3.21963 0
M  V30 397 H 30.5482 0.063518 5.0296 0
M  V30 398 H 30.2482 1.71754 5.61938 0
M  V30 399 H 31.7722 0.886066 6.04137 0
M  V30 400 H 33.1862 2.88153 4.95622 0
M  V30 401 H 31.5832 3.64903 4.76409 0
M  V30 402 H 32.6532 3.49742 3.3587 0
M  V30 403 N 33.9963 -1.19345 1.0293 0
M  V30 404 C 35.2443 -1.88665 0.724574 0
M  V30 405 C 35.5653 -1.80036 -0.749144 0
M  V30 406 O 34.8353 -1.2111 -1.53978 0
M  V30 407 H 33.4153 -0.698406 0.265025 0
M  V30 408 H 36.0773 -1.44885 1.30362 0
M  V30 409 H 35.1733 -2.94987 1.01926 0
M  V30 410 N 35.4744 -0.807222 -1.35358 0
M  V30 411 C 36.8854 -0.44876 -1.81226 0
M  V30 412 C 37.2364 1.02929 -1.67033 0
M  V30 413 O 36.3614 1.79991 -1.20133 0
M  V30 414 C 36.9564 -0.807774 -3.2903 0
M  V30 415 C 35.5154 -0.501901 -3.73039 0
M  V30 416 C 34.6624 -1.03304 -2.57339 0
M  V30 417 H 37.6134 -0.998808 -1.23327 0
M  V30 418 H 37.6344 -0.10554 -3.80354 0
M  V30 419 H 37.1464 -1.88357 -3.39328 0
M  V30 420 H 35.2474 0.565128 -3.68289 0
M  V30 421 H 35.3604 -1.03497 -4.67787 0
M  V30 422 H 33.7244 -0.455339 -2.50597 0
M  V30 423 H 34.5074 -2.11496 -2.70415 0
M  V30 424 N 36.9525 1.47285 -0.560781 0
M  V30 425 C 37.9155 2.28535 0.174488 0
M  V30 426 C 38.9155 1.37153 0.839388 0
M  V30 427 O 40.1055 1.59748 0.694702 0
M  V30 428 C 37.2375 3.16934 1.25561 0
M  V30 429 H 38.4305 2.95012 -0.539262 0
M  V30 430 H 35.9835 1.53034 -0.317865 0
M  V30 431 H 36.7185 2.55157 2.00164 0
M  V30 432 H 36.5035 3.8419 0.783604 0
M  V30 433 H 37.9935 3.78143 1.77193 0
M  V30 434 N 38.4306 0.297415 1.54768 0
M  V30 435 C 39.6786 -0.312295 1.99673 0
M  V30 436 C 39.9996 -1.54686 1.18732 0
M  V30 437 O 39.2696 -1.93854 0.282382 0
M  V30 438 H 37.8496 -0.118381 0.73756 0
M  V30 439 H 40.5116 0.407915 1.90583 0
M  V30 440 H 39.6076 -0.586813 3.06534 0
M  V30 441 N 39.9087 -1.5758 0.0250728 0
M  V30 442 C 40.8717 -2.08896 -0.943139 0
M  V30 443 C 41.8717 -1.00321 -1.25668 0
M  V30 444 O 43.0617 -1.26495 -1.19769 0
M  V30 445 C 40.1937 -2.55143 -2.26086 0
M  V30 446 H 41.3867 -2.95723 -0.498775 0
M  V30 447 H 38.9397 -1.54703 -0.222888 0
M  V30 448 H 39.6747 -1.71633 -2.75159 0
M  V30 449 H 39.4597 -3.34461 -2.04641 0
M  V30 450 H 40.9497 -2.95083 -2.95492 0
M  V30 451 N 41.3868 0.248026 -1.55636 0
M  V30 452 C 42.8028 0.596483 -1.48035 0
M  V30 453 C 43.0028 1.88386 -0.715039 0
M  V30 454 O 42.0588 2.51319 -0.243944 0
M  V30 455 C 43.3718 0.700258 -2.92433 0
M  V30 456 C 44.9198 0.792659 -3.02797 0
M  V30 457 C 45.3948 0.928005 -4.485 0
M  V30 458 N 46.8858 0.992903 -4.52433 0
M  V30 459 C 47.6208 1.11687 -5.62418 0
M  V30 460 N 47.1168 1.20645 -6.82214 0
M  V30 461 N 48.9098 1.14994 -5.50212 0
M  V30 462 H 41.0608 -0.597109 -2.03834 0
M  V30 463 H 43.3238 -0.205925 -0.925364 0
M  V30 464 H 43.0298 -0.175658 -3.51261 0
M  V30 465 H 42.9038 1.57255 -3.42857 0
M  V30 466 H 45.2908 1.65903 -2.4405 0
M  V30 467 H 45.3718 -0.104762 -2.55585 0
M  V30 468 H 45.0158 0.0661971 -5.07857 0
M  V30 469 H 44.9458 1.84045 -4.93391 0
M  V30 470 H 47.4368 0.935064 -3.66149 0
M  V30 471 H 47.7498 1.30008 -7.61786 0
M  V30 472 H 46.0948 1.17605 -6.84977 0
M  V30 473 H 49.2858 1.07643 -4.55555 0
M  V30 474 H 49.4588 1.24311 -6.35965 0
M  V30 475 N 42.8649 1.48995 0.513639 0
M  V30 476 C 43.8279 1.64229 1.59879 0
M  V30 477 C 44.8279 0.514696 1.5234 0
M  V30 478 O 46.0179 0.78087 1.55718 0
M  V30 479 C 43.1499 1.62783 2.99524 0
M  V30 480 H 44.3429 2.61004 1.47705 0
M  V30 481 H 41.8959 1.37837 0.736936 0
M  V30 482 H 42.6309 0.675461 3.17188 0
M  V30 483 H 42.4159 2.4466 3.06404 0
M  V30 484 H 43.9059 1.76669 3.78388 0
M  V30 485 N 44.343 -0.763751 1.37857 0
M  V30 486 C 45.275 -1.88664 1.30148 0
M  V30 487 C 46.288 -1.61365 0.215685 0
M  V30 488 O 47.477 -1.72134 0.472459 0
M  V30 489 C 44.577 -3.24075 0.991396 0
M  V30 490 C 43.75 -3.78958 2.18426 0
M  V30 491 C 42.809 -4.92862 1.8432 0
M  V30 492 O 41.835 -5.08027 2.56704 0
M  V30 493 N 43.037 -5.75071 0.792081 0
M  V30 494 H 45.802 -1.95791 2.26905 0
M  V30 495 H 43.363 -0.943226 1.31586 0
M  V30 496 H 45.355 -3.97804 0.743935 0
M  V30 497 H 43.925 -3.12399 0.112122 0
M  V30 498 H 43.145 -2.96913 2.59299 0
M  V30 499 H 44.433 -4.12357 2.98058 0
M  V30 500 H 43.831 -5.65375 0.191595 0
M  V30 501 H 42.388 -6.48991 0.60449 0
M  V30 502 N 45.8211 -1.22559 -0.990812 0
M  V30 503 C 46.7311 -1.01394 -2.11557 0
M  V30 504 C 47.7471 0.0383962 -1.73958 0
M  V30 505 O 48.9231 -0.154787 -2.00804 0
M  V30 506 C 45.9881 -0.596569 -3.41529 0
M  V30 507 C 45.0491 -1.72276 -3.93217 0
M  V30 508 C 44.2821 -1.32521 -5.16985 0
M  V30 509 O 44.5051 -0.204909 -5.70032 0
M  V30 510 O 43.4391 -2.14247 -5.62478 0
M  V30 511 H 47.2651 -1.95633 -2.32296 0
M  V30 512 H 44.8501 -1.01172 -1.0993 0
M  V30 513 H 46.7321 -0.374263 -4.19735 0
M  V30 514 H 45.4071 0.316939 -3.22145 0
M  V30 515 H 44.3141 -1.99961 -3.16174 0
M  V30 516 H 45.6471 -2.61421 -4.17037 0
M  V30 517 N 47.2992 1.18797 -1.03562 0
M  V30 518 C 48.5762 1.84469 -0.650434 0
M  V30 519 C 48.9562 1.92319 0.870433 0
M  V30 520 O 48.3042 1.44528 1.76986 0
M  V30 521 C 48.5142 3.2306 -1.32036 0
M  V30 522 C 49.8622 3.9915 -1.44792 0
M  V30 523 O 50.8862 3.32481 -1.27806 0
M  V30 524 O 49.7452 5.18587 -1.72423 0
M  V30 525 H 46.8392 0.795251 -0.226946 0
M  V30 526 H 49.3852 1.26231 -1.13419 0
M  V30 527 H 48.1572 3.1222 -2.3587 0
M  V30 528 H 47.7802 3.88949 -0.8249 0
M  V30 529 N 48.7773 0.814389 1.34928 0
M  V30 530 C 49.6873 0.231978 2.3345 0
M  V30 531 C 50.7033 -0.629139 1.62228 0
M  V30 532 O 51.8793 -0.539052 1.94052 0
M  V30 533 C 48.9443 -0.603482 3.41407 0
M  V30 534 C 48.0053 0.279037 4.28392 0
M  V30 535 C 47.2383 -0.516643 5.31193 0
M  V30 536 O 47.4613 -1.75068 5.4287 0
M  V30 537 O 46.3953 0.0965652 6.01823 0
M  V30 538 H 50.2213 1.04721 2.85074 0
M  V30 539 H 47.8063 0.576343 1.37836 0
M  V30 540 H 49.6883 -1.07908 4.0735 0
M  V30 541 H 48.3633 -1.39618 2.92042 0
M  V30 542 H 47.2703 0.801948 3.65403 0
M  V30 543 H 48.6033 1.03588 4.81176 0
M  V30 544 N 50.2554 -1.46986 0.568584 0
M  V30 545 C 51.5324 -1.95592 -0.0174074 0
M  V30 546 C 51.9124 -1.51124 -1.47393 0
M  V30 547 O 51.2604 -0.755329 -2.15655 0
M  V30 548 C 51.4704 -3.48719 0.139913 0
M  V30 549 C 52.8184 -4.246 0.000426376 0
M  V30 550 O 53.8424 -3.56135 0.0680316 0
M  V30 551 O 52.7014 -5.46302 -0.146988 0
M  V30 552 H 49.7954 -0.82498 -0.0577599 0
M  V30 553 H 52.3414 -1.57335 0.635909 0
M  V30 554 H 51.1134 -3.73927 1.15301 0
M  V30 555 H 50.7364 -3.93771 -0.550491 0
M  V30 556 N 51.7335 -0.305618 -1.54608 0
M  V30 557 C 52.9815 0.301701 -1.99835 0
M  V30 558 C 53.3025 1.54054 -1.19551 0
M  V30 559 O 52.5725 1.93702 -0.292658 0
M  V30 560 H 51.1525 0.114468 -0.738178 0
M  V30 561 H 53.8145 -0.418016 -1.90364 0
M  V30 562 H 52.9105 0.570548 -3.06841 0
M  V30 563 N 53.2116 1.57565 -0.0334293 0
M  V30 564 C 54.4886 1.83282 0.683163 0
M  V30 565 C 54.8686 0.91823 1.90084 0
M  V30 566 O 54.2166 -0.025113 2.28486 0
M  V30 567 C 54.4266 3.32599 1.0573 0
M  V30 568 C 55.7746 3.99179 1.44711 0
M  V30 569 O 56.7986 3.3712 1.15015 0
M  V30 570 O 55.6576 5.08565 2.0006 0
M  V30 571 H 52.7516 0.755869 0.335546 0
M  V30 572 H 55.2976 1.69589 -0.0614402 0
M  V30 573 H 54.0696 3.90834 0.190828 0
M  V30 574 H 53.6926 3.51415 1.85993 0
M  V30 575 N 54.6897 -0.239769 1.55765 0
M  V30 576 C 55.9197 -0.982743 1.8173 0
M  V30 577 C 56.3277 -1.7917 0.607835 0
M  V30 578 O 55.6707 -1.78525 -0.432973 0
M  V30 579 C 55.7327 -1.96332 3.01155 0
M  V30 580 C 55.3967 -1.34062 4.36894 0
M  V30 581 C 56.3937 -0.739539 5.14613 0
M  V30 582 C 54.0787 -1.35784 4.83599 0
M  V30 583 C 56.0727 -0.163989 6.37189 0
M  V30 584 C 53.7597 -0.778441 6.06122 0
M  V30 585 C 54.7577 -0.182548 6.82756 0
M  V30 586 O 54.4457 0.387887 8.02964 0
M  V30 587 H 54.1777 -0.294481 0.608487 0
M  V30 588 H 56.7317 -0.26572 2.03674 0
M  V30 589 H 54.9617 -2.71884 2.74984 0
M  V30 590 H 56.6507 -2.57032 3.14149 0
M  V30 591 H 57.4167 -0.718687 4.79646 0
M  V30 592 H 53.2957 -1.81105 4.23936 0
M  V30 593 H 56.8397 0.301753 6.96947 0
M  V30 594 H 52.7367 -0.796645 6.40565 0
M  V30 595 H 53.5047 0.28044 8.18019 0
M  V30 596 N 56.1678 -1.49265 -0.50573 0
M  V30 597 C 57.0778 -1.68312 -1.63427 0
M  V30 598 C 58.0938 -0.565682 -1.64548 0
M  V30 599 O 59.2698 -0.839801 -1.83055 0
M  V30 600 C 56.3348 -1.74107 -2.99813 0
M  V30 601 C 55.3958 -2.97653 -3.09356 0
M  V30 602 C 54.6288 -3.03163 -4.39236 0
M  V30 603 O 54.8518 -2.16396 -5.27758 0
M  V30 604 O 53.7858 -3.9558 -4.53652 0
M  V30 605 H 57.6118 -2.63907 -1.50289 0
M  V30 606 H 55.1968 -1.32951 -0.681502 0
M  V30 607 H 57.0788 -1.803 -3.80881 0
M  V30 608 H 55.7538 -0.816901 -3.13223 0
M  V30 609 H 54.6608 -2.96981 -2.27493 0
M  V30 610 H 55.9938 -3.89535 -3.00871 0
M  V30 611 N 57.6459 0.756429 -1.3826 0
M  V30 612 C 58.5559 1.9009 -1.37488 0
M  V30 613 C 59.5719 1.71855 -0.272366 0
M  V30 614 O 60.7479 1.94827 -0.510318 0
M  V30 615 C 57.8129 3.25421 -1.19592 0
M  V30 616 C 56.8739 3.56202 -2.39622 0
M  V30 617 C 56.1069 4.85075 -2.2257 0
M  V30 618 O 56.3299 5.57246 -1.21793 0
M  V30 619 O 55.2639 5.15269 -3.11098 0
M  V30 620 H 59.0899 1.93695 -2.33914 0
M  V30 621 H 56.6749 0.901313 -1.1915 0
M  V30 622 H 58.5569 4.06337 -1.11661 0
M  V30 623 H 57.2319 3.22634 -0.262486 0
M  V30 624 H 56.1389 2.75458 -2.53128 0
M  V30 625 H 57.4719 3.63747 -3.31586 0
M  V30 626 N 59.124 1.23083 0.984299 0
M  V30 627 C 60.054 1.03292 2.09411 0
M  V30 628 C 61.035 -0.048923 1.7003 0
M  V30 629 O 62.22 0.114967 1.93859 0
M  V30 630 C 59.35 0.619155 3.41736 0
M  V30 631 C 58.304 1.64791 3.95004 0
M  V30 632 C 57.63 1.0897 5.23478 0
M  V30 633 C 58.93 3.03999 4.24714 0
M  V30 634 H 60.624 1.96119 2.26225 0
M  V30 635 H 58.17 0.944344 1.08711 0
M  V30 636 H 60.123 0.467777 4.18796 0
M  V30 637 H 58.847 -0.344786 3.24775 0
M  V30 638 H 57.506 1.78721 3.20085 0
M  V30 639 H 57.154 0.11686 5.02864 0
M  V30 640 H 56.854 1.77704 5.60085 0
M  V30 641 H 58.378 0.950093 6.03163 0
M  V30 642 H 59.792 2.93393 4.92538 0
M  V30 643 H 58.189 3.69936 4.72512 0
M  V30 644 H 59.259 3.53285 3.32142 0
M  V30 645 N 60.6021 -1.18246 1.0419 0
M  V30 646 C 61.8481 -1.88536 0.747122 0
M  V30 647 C 62.1811 -1.80223 -0.723409 0
M  V30 648 O 61.4561 -1.20337 -1.52804 0
M  V30 649 C 61.7391 -3.38968 1.21544 0
M  V30 650 C 61.5921 -3.56084 2.74816 0
M  V30 651 C 62.9111 -4.32648 0.806482 0
M  V30 652 H 60.0301 -0.684619 0.272883 0
M  V30 653 H 62.6721 -1.39113 1.29413 0
M  V30 654 H 60.8221 -3.8119 0.750081 0
M  V30 655 H 62.4941 -3.22946 3.29399 0
M  V30 656 H 60.7371 -2.98699 3.14582 0
M  V30 657 H 61.4081 -4.61639 3.02644 0
M  V30 658 H 63.8841 -3.98211 1.20695 0
M  V30 659 H 62.7601 -5.36462 1.1619 0
M  V30 660 H 63.0211 -4.41146 -0.29029 0
M  V30 661 N 62.0802 -0.821533 -1.34494 0
M  V30 662 C 63.0102 -0.257138 -2.3208 0
M  V30 663 C 63.9912 0.625645 -1.58176 0
M  V30 664 O 65.1762 0.552811 -1.86166 0
M  V30 665 C 62.3062 0.582958 -3.42372 0
M  V30 666 C 61.2602 -0.202571 -4.2752 0
M  V30 667 C 60.5862 0.760179 -5.29269 0
M  V30 668 C 61.8862 -1.40998 -5.02908 0
M  V30 669 H 63.5802 -1.07247 -2.79532 0
M  V30 670 H 61.1262 -0.517163 -1.34393 0
M  V30 671 H 63.0792 0.987972 -4.09655 0
M  V30 672 H 61.8032 1.43133 -2.93565 0
M  V30 673 H 60.4622 -0.588936 -3.61838 0
M  V30 674 H 60.1102 1.60447 -4.76724 0
M  V30 675 H 59.8102 0.238809 -5.87115 0
M  V30 676 H 61.3342 1.16308 -5.9942 0
M  V30 677 H 62.7482 -1.07905 -5.63054 0
M  V30 678 H 61.1452 -1.86689 -5.70322 0
M  V30 679 H 62.2152 -2.1889 -4.32684 0
M  V30 680 N 63.5583 1.46682 -0.576371 0
M  V30 681 C 64.5213 2.28707 0.150239 0
M  V30 682 C 65.5213 1.38035 0.824794 0
M  V30 683 O 66.7113 1.60476 0.677719 0
M  V30 684 C 63.8433 3.18248 1.22192 0
M  V30 685 H 65.0363 2.94423 -0.570521 0
M  V30 686 H 62.5893 1.52688 -0.334078 0
M  V30 687 H 63.3243 2.57265 1.97447 0
M  V30 688 H 63.1093 3.85 0.742812 0
M  V30 689 H 64.5993 3.80001 1.73172 0
M  V30 690 N 65.0364 0.313813 1.54444 0
M  V30 691 C 65.9664 -0.549454 2.26943 0
M  V30 692 C 66.9474 -1.12741 1.27372 0
M  V30 693 O 68.1324 -1.15436 1.56167 0
M  V30 694 C 65.2624 -1.71523 3.01989 0
M  V30 695 C 64.2164 -1.26703 4.08816 0
M  V30 696 C 63.5424 -2.51898 4.71647 0
M  V30 697 C 64.8424 -0.388962 5.2085 0
M  V30 698 H 66.5364 0.0552661 2.99349 0
M  V30 699 H 64.0824 0.0280207 1.43973 0
M  V30 700 H 66.0354 -2.32535 3.51433 0
M  V30 701 H 64.7594 -2.34639 2.27183 0
M  V30 702 H 63.4184 -0.679896 3.6024 0
M  V30 703 H 63.0664 -3.13356 3.93468 0
M  V30 704 H 62.7664 -2.22605 5.43802 0
M  V30 705 H 64.2904 -3.1369 5.23861 0
M  V30 706 H 65.7044 -0.905107 5.6611 0
M  V30 707 H 64.1014 -0.18924 5.99802 0
M  V30 708 H 65.1714 0.582699 4.81386 0
M  V30 709 N 66.5145 -1.57545 0.0417849 0
M  V30 710 C 67.9305 -1.56467 -0.314704 0
M  V30 711 C 68.1305 -1.04859 -1.72066 0
M  V30 712 O 67.1865 -0.700983 -2.42575 0
M  V30 713 C 68.4995 -3.00317 -0.15174 0
M  V30 714 C 70.0475 -3.12201 -0.223553 0
M  V30 715 C 70.5225 -4.57913 -0.0892295 0
M  V30 716 N 72.0135 -4.6297 -0.145808 0
M  V30 717 C 72.7485 -5.73362 -0.0658459 0
M  V30 718 N 72.2445 -6.92769 0.0659282 0
M  V30 719 N 74.0375 -5.6197 -0.12075 0
M  V30 720 H 66.1885 -1.89416 0.961014 0
M  V30 721 H 68.4515 -0.871862 0.372237 0
M  V30 722 H 68.1575 -3.42073 0.817254 0
M  V30 723 H 68.0315 -3.65892 -0.916692 0
M  V30 724 H 70.4185 -2.70349 -1.18301 0
M  V30 725 H 70.4995 -2.49323 0.571994 0
M  V30 726 H 70.1435 -5.00448 0.866867 0
M  V30 727 H 70.0735 -5.18786 -0.903802 0
M  V30 728 H 72.5645 -3.7709 -0.247286 0
M  V30 729 H 72.8775 -7.72707 0.119905 0
M  V30 730 H 71.2225 -6.94927 0.100885 0
M  V30 731 H 74.4135 -4.67572 -0.222187 0
M  V30 732 H 74.5865 -6.47977 -0.0549735 0
M  V30 733 N 67.9926 0.231505 -1.5589 0
M  V30 734 C 69.2176 0.978689 -1.82856 0
M  V30 735 C 69.6426 1.77559 -0.620846 0
M  V30 736 O 69.0006 1.76119 0.430305 0
M  V30 737 C 69.0486 1.87997 -3.07716 0
M  V30 738 O 68.1526 2.97393 -2.85712 0
M  V30 739 H 67.4936 0.277663 -0.603158 0
M  V30 740 H 70.0236 0.24783 -2.03093 0
M  V30 741 H 70.0336 2.2917 -3.37558 0
M  V30 742 H 68.7086 1.29417 -3.95252 0
M  V30 743 H 67.2856 2.60238 -2.67078 0
M  V30 744 N 69.4707 1.49531 0.497807 0
M  V30 745 C 70.3807 1.69176 1.62532 0
M  V30 746 C 71.3967 0.5744 1.64246 0
M  V30 747 O 72.5727 0.849497 1.82608 0
M  V30 748 C 69.6377 1.75695 2.98885 0
M  V30 749 C 68.6987 2.9929 3.07773 0
M  V30 750 C 67.9317 3.05488 4.37622 0
M  V30 751 O 68.1547 2.19192 5.26603 0
M  V30 752 O 67.0887 3.9798 4.51548 0
M  V30 753 H 70.9147 2.647 1.48887 0
M  V30 754 H 68.4997 1.3331 0.674441 0
M  V30 755 H 70.3817 1.82317 3.79919 0
M  V30 756 H 69.0567 0.8335 3.12785 0
M  V30 757 H 67.9637 2.98183 2.25915 0
M  V30 758 H 69.2967 3.91125 2.98801 0
M  V30 759 N 70.9488 -0.749086 1.3866 0
M  V30 760 C 71.8588 -1.89358 1.38494 0
M  V30 761 C 72.8748 -1.71708 0.281476 0
M  V30 762 O 74.0508 -1.94554 0.520643 0
M  V30 763 C 71.1158 -3.24782 1.21316 0
M  V30 764 C 70.1768 -3.54926 2.41508 0
M  V30 765 C 69.4098 -4.83888 2.2514 0
M  V30 766 O 69.6328 -5.56592 1.24746 0
M  V30 767 O 68.5668 -5.13612 3.13826 0
M  V30 768 H 72.3928 -1.92452 2.34938 0
M  V30 769 H 69.9778 -0.894981 1.19626 0
M  V30 770 H 71.8598 -4.05739 1.13814 0
M  V30 771 H 70.5348 -3.2249 0.279592 0
M  V30 772 H 69.4418 -2.74112 2.54585 0
M  V30 773 H 70.7748 -3.61983 3.3351 0
M  V30 774 N 72.4269 -1.23603 -0.977757 0
M  V30 775 C 73.7039 -0.977897 -1.69401 0
M  V30 776 C 74.0839 0.502738 -2.05026 0
M  V30 777 O 73.4319 1.47459 -1.74551 0
M  V30 778 C 73.6419 -1.89077 -2.93345 0
M  V30 779 C 74.9899 -2.15579 -3.65802 0
M  V30 780 O 76.0139 -1.86648 -3.03383 0
M  V30 781 O 74.8729 -2.64658 -4.78141 0
M  V30 782 H 71.9669 -0.369025 -0.740101 0
M  V30 783 H 74.5129 -1.34657 -1.03274 0
M  V30 784 H 73.2849 -2.89158 -2.63634 0
M  V30 785 H 72.9079 -1.52463 -3.67207 0
M  V30 786 N 73.905 1.17692 -1.04816 0
M  V30 787 C 75.153 1.87488 -0.754497 0
M  V30 788 C 75.474 1.81205 0.720407 0
M  V30 789 O 74.744 1.23544 1.52032 0
M  V30 790 H 73.324 0.694101 -0.276102 0
M  V30 791 H 75.986 1.42793 -1.32651 0
M  V30 792 H 75.082 2.93328 -1.06606 0
M  V30 793 N 75.3831 0.828654 1.34056 0
M  V30 794 C 76.3131 0.269443 2.3194 0
M  V30 795 C 77.2941 -0.617247 1.58506 0
M  V30 796 O 78.4791 -0.542931 1.86456 0
M  V30 797 C 75.6091 -0.564793 3.42677 0
M  V30 798 C 74.5631 0.225241 4.27407 0
M  V30 799 C 73.8891 -0.7321 5.29664 0
M  V30 800 C 75.1891 1.43663 5.02154 0
M  V30 801 H 76.8831 1.08728 2.7896 0
M  V30 802 H 74.4291 0.524283 1.34117 0
M  V30 803 H 76.3821 -0.966233 4.10173 0
M  V30 804 H 75.1061 -1.41574 2.9432 0
M  V30 805 H 73.7651 0.608117 3.61521 0
M  V30 806 H 73.4131 -1.57916 4.77568 0
M  V30 807 H 73.1131 -0.20767 5.87233 0
M  V30 808 H 74.6371 -1.13128 6.00029 0
M  V30 809 H 76.0511 1.1089 5.62473 0
M  V30 810 H 74.4481 1.89711 5.69324 0
M  V30 811 H 75.5181 2.21181 4.31517 0
M  V30 812 N 76.8612 -1.46375 0.584142 0
M  V30 813 C 77.8242 -2.28784 -0.138108 0
M  V30 814 C 78.8242 -1.38471 -0.817462 0
M  V30 815 O 80.0142 -1.60833 -0.669199 0
M  V30 816 C 77.1462 -3.18892 -1.20503 0
M  V30 817 H 78.3392 -2.94117 0.586127 0
M  V30 818 H 75.8922 -1.52509 0.342171 0
M  V30 819 H 76.6272 -2.58309 -1.96079 0
M  V30 820 H 76.4122 -3.85388 -0.722384 0
M  V30 821 H 77.9022 -3.80914 -1.71155 0
M  V30 822 N 78.3393 -0.321999 -1.54275 0
M  V30 823 C 79.2493 0.553631 -2.27974 0
M  V30 824 C 80.2653 1.13054 -1.32268 0
M  V30 825 O 81.4413 1.15084 -1.6528 0
M  V30 826 C 78.5063 1.69927 -3.02201 0
M  V30 827 C 77.5673 1.15433 -4.1349 0
M  V30 828 C 76.8003 2.24537 -4.84168 0
M  V30 829 O 77.0233 3.44852 -4.5435 0
M  V30 830 O 75.9573 1.90044 -5.7111 0
M  V30 831 H 79.7833 -0.0448345 -3.03667 0
M  V30 832 H 77.3683 -0.0877418 -1.49142 0
M  V30 833 H 79.2503 2.3663 -3.48689 0
M  V30 834 H 77.9253 2.28395 -2.29385 0
M  V30 835 H 76.8323 0.452436 -3.71354 0
M  V30 836 H 78.1653 0.614805 -4.88345 0
M  V30 837 N 79.8174 1.5752 -0.0501392 0
M  V30 838 C 80.7804 2.1037 0.909786 0
M  V30 839 C 81.7804 1.02308 1.24056 0
M  V30 840 O 82.9704 1.28385 1.17741 0
M  V30 841 C 80.1024 2.58708 2.21998 0
M  V30 842 H 81.2954 2.96479 0.451665 0
M  V30 843 H 78.8484 1.55038 0.198248 0
M  V30 844 H 79.5834 1.75989 2.72394 0
M  V30 845 H 79.3684 3.37675 1.99295 0
M  V30 846 H 80.8584 2.99747 2.9076 0
M  V30 847 N 81.2955 -0.223234 1.56011 0
M  V30 848 C 82.7065 -0.790368 1.69145 0
M  V30 849 C 83.0575 -1.85055 0.651845 0
M  V30 850 O 82.1825 -2.15498 -0.197359 0
M  V30 851 C 82.7775 -1.4404 3.06656 0
M  V30 852 C 81.3365 -1.95494 3.2165 0
M  V30 853 C 80.4835 -0.814506 2.65068 0
M  V30 854 H 83.4345 0.00139011 1.587 0
M  V30 855 H 83.4555 -2.30916 3.0242 0
M  V30 856 H 82.9675 -0.668543 3.82298 0
M  V30 857 H 81.0685 -2.75487 2.50874 0
M  V30 858 H 81.1815 -2.13607 4.28846 0
M  V30 859 H 79.5455 -1.22137 2.23505 0
M  V30 860 H 80.3285 -0.0553515 3.43255 0
M  V30 861 N 82.7736 -1.49793 -0.48987 0
M  V30 862 C 83.6836 -1.70036 -1.61632 0
M  V30 863 C 84.6996 -0.583102 -1.63939 0
M  V30 864 O 85.8756 -0.859169 -1.82154 0
M  V30 865 C 82.9406 -1.77277 -2.97949 0
M  V30 866 C 82.0016 -3.00918 -3.06181 0
M  V30 867 C 81.2346 -3.07804 -4.35996 0
M  V30 868 O 81.4576 -2.21982 -5.25433 0
M  V30 869 O 80.3916 -4.00369 -4.49431 0
M  V30 870 H 84.2176 -2.65486 -1.47482 0
M  V30 871 H 81.8026 -1.33666 -0.667362 0
M  V30 872 H 83.6846 -1.84329 -3.78947 0
M  V30 873 H 82.3596 -0.850076 -3.12339 0
M  V30 874 H 81.2666 -2.99377 -2.2433 0
M  V30 875 H 82.5996 -3.92704 -2.96723 0
M  V30 876 N 84.2517 0.741722 -1.39055 0
M  V30 877 C 85.2017 1.84661 -1.33732 0
M  V30 878 C 86.1857 1.59397 -0.219401 0
M  V30 879 O 87.3777 1.71015 -0.456375 0
M  V30 880 C 84.5067 3.22512 -1.17647 0
M  V30 881 C 83.5927 3.53628 -2.34112 0
M  V30 882 N 83.9837 3.55723 -3.59576 0
M  V30 883 C 82.2817 3.83956 -2.26923 0
M  V30 884 C 82.9827 3.84443 -4.36553 0
M  V30 885 N 81.9587 4.01877 -3.66055 0
M  V30 886 H 85.7607 1.84576 -2.28711 0
M  V30 887 H 83.2747 0.939647 -1.32455 0
M  V30 888 H 85.2717 4.01597 -1.11917 0
M  V30 889 H 83.9317 3.2384 -0.236124 0
M  V30 890 H 84.9427 3.37196 -3.93089 0
M  V30 891 H 81.6197 3.92929 -1.41113 0
M  V30 892 H 83.0097 3.92588 -5.45274 0
M  V30 893 N 85.7298 1.2412 0.971189 0
M  V30 894 C 86.9778 1.07668 1.71032 0
M  V30 895 C 87.2988 -0.385797 1.91146 0
M  V30 896 O 86.5688 -1.27569 1.4867 0
M  V30 897 H 85.1488 0.395429 0.633755 0
M  V30 898 H 87.8108 1.55984 1.16855 0
M  V30 899 H 86.9068 1.57195 2.69622 0
M  V30 900 N 87.2079 -1.17134 1.05439 0
M  V30 901 C 88.4359 -1.91372 0.786414 0
M  V30 902 C 88.8509 -1.76955 -0.658202 0
M  V30 903 O 88.2079 -1.10838 -1.44987 0
M  V30 904 C 88.2589 -3.42356 1.1608 0
M  V30 905 O 87.9799 -3.56332 2.54871 0
M  V30 906 C 89.4809 -4.33663 0.919322 0
M  V30 907 H 86.7009 -0.607118 0.285743 0
M  V30 908 H 89.2449 -1.48525 1.40572 0
M  V30 909 H 87.3999 -3.82939 0.586191 0
M  V30 910 H 87.8139 -4.49896 2.69618 0
M  V30 911 H 89.2879 -5.38099 1.231 0
M  V30 912 H 89.7649 -4.38959 -0.145359 0
M  V30 913 H 90.3709 -3.98796 1.47789 0
M  V30 914 N 88.686 -0.835752 -1.33615 0
M  V30 915 C 89.914 -0.443344 -2.02094 0
M  V30 916 C 90.329 0.954522 -1.62894 0
M  V30 917 O 89.686 1.61982 -0.840723 0
M  V30 918 C 89.737 -0.550775 -3.5728 0
M  V30 919 O 89.458 -1.89356 -3.95065 0
M  V30 920 C 90.959 -0.154919 -4.43029 0
M  V30 921 H 88.179 -0.176359 -0.647409 0
M  V30 922 H 90.723 -1.12746 -1.70612 0
M  V30 923 H 88.878 0.0853997 -3.87306 0
M  V30 924 H 89.292 -1.87687 -4.89769 0
M  V30 925 H 90.766 -0.281144 -5.51284 0
M  V30 926 H 91.243 0.902863 -4.2982 0
M  V30 927 H 91.849 -0.765404 -4.18356 0
M  V30 928 N 90.1641 1.46063 -0.591896 0
M  V30 929 C 91.1271 2.28854 0.125973 0
M  V30 930 C 92.1271 1.38903 0.810107 0
M  V30 931 O 93.3171 1.61186 0.66066 0
M  V30 932 C 90.4491 3.19526 1.1881 0
M  V30 933 H 91.6421 2.93802 -0.601717 0
M  V30 934 H 89.1951 1.52325 -0.350254 0
M  V30 935 H 89.9301 2.59345 1.94707 0
M  V30 936 H 89.7151 3.85766 0.701936 0
M  V30 937 H 91.2051 3.81817 1.69132 0
M  V30 938 N 91.6422 0.330177 1.54103 0
M  V30 939 C 92.8702 -0.272179 2.05102 0
M  V30 940 C 93.2852 -1.45267 1.20595 0
M  V30 941 O 92.6422 -1.8094 0.238144 0
M  V30 942 C 92.6932 -0.70023 3.54653 0
M  V30 943 O 92.4142 0.433301 4.35952 0
M  V30 944 C 93.9152 -1.3647 4.21771 0
M  V30 945 H 91.1352 -0.0549159 0.668749 0
M  V30 946 H 93.6792 0.478285 1.98828 0
M  V30 947 H 91.8342 -1.40066 3.61193 0
M  V30 948 H 92.2482 0.0947539 5.24414 0
M  V30 949 H 93.7222 -1.61509 5.27843 0
M  V30 950 H 94.1992 -2.31409 3.73292 0
M  V30 951 H 94.8052 -0.706675 4.19388 0
M  V30 952 N 93.1203 -1.57491 0.0584922 0
M  V30 953 C 94.3673 -1.92978 -0.613648 0
M  V30 954 C 94.6953 -0.937461 -1.70417 0
M  V30 955 O 93.9503 0.049078 -1.95638 0
M  V30 956 C 94.2493 -3.3513 -1.24188 0
M  V30 957 C 93.9153 -4.50037 -0.278826 0
M  V30 958 C 92.5773 -4.81198 -0.0138447 0
M  V30 959 C 94.9293 -5.19807 0.380777 0
M  V30 960 C 92.2573 -5.79473 0.918052 0
M  V30 961 C 94.6093 -6.19079 1.30091 0
M  V30 962 C 93.2733 -6.48665 1.57449 0
M  V30 963 H 92.5433 -0.706157 -0.22455 0
M  V30 964 H 95.1903 -1.91082 0.126533 0
M  V30 965 H 93.4953 -3.33429 -2.05749 0
M  V30 966 H 95.1923 -3.59871 -1.769 0
M  V30 967 H 91.7823 -4.25726 -0.495539 0
M  V30 968 H 95.9663 -4.95939 0.189158 0
M  V30 969 H 91.2223 -6.00727 1.1374 0
M  V30 970 H 95.3963 -6.7225 1.81804 0
M  V30 971 H 93.0233 -7.24628 2.29822 0
M  V30 972 N 94.5984 0.214957 -1.56127 0
M  V30 973 C 95.5484 1.27006 -1.8935 0
M  V30 974 C 96.5324 1.41969 -0.757202 0
M  V30 975 O 97.7244 1.44673 -1.01973 0
M  V30 976 C 94.8534 2.61911 -2.2194 0
M  V30 977 C 93.9394 2.50822 -3.41978 0
M  V30 978 N 94.3304 2.09391 -4.60423 0
M  V30 979 C 92.6284 2.81765 -3.45723 0
M  V30 980 C 93.3294 2.09712 -5.42582 0
M  V30 981 N 92.3054 2.50454 -4.82466 0
M  V30 982 H 96.1074 0.940734 -2.78437 0
M  V30 983 H 93.6214 0.423492 -1.56781 0
M  V30 984 H 95.6184 3.38096 -2.43919 0
M  V30 985 H 94.2784 2.95684 -1.34169 0
M  V30 986 H 95.2894 1.80416 -4.85459 0
M  V30 987 H 91.9664 3.19865 -2.68314 0
M  V30 988 H 93.3564 1.79748 -6.4741 0
M  V30 989 N 96.0765 1.50051 0.48192 0
M  V30 990 C 97.4925 1.37237 0.814756 0
M  V30 991 C 97.6925 0.420109 1.97072 0
M  V30 992 O 96.7485 -0.141246 2.52105 0
M  V30 993 C 98.0615 2.78375 1.13701 0
M  V30 994 C 99.6095 2.87213 1.2441 0
M  V30 995 C 100.084 4.29161 1.59954 0
M  V30 996 N 101.575 4.32061 1.66967 0
M  V30 997 C 102.31 5.38879 1.95952 0
M  V30 998 N 101.806 6.55918 2.23031 0
M  V30 999 N 103.599 5.26312 1.97363 0
M  V30 1000 H 95.7505 2.10546 -0.28005 0
M  V30 1001 H 98.0135 0.945921 -0.0627454 0
M  V30 1002 H 97.7195 3.49845 0.360787 0
M  V30 1003 H 97.5935 3.14941 2.07586 0
M  V30 1004 H 99.9805 2.15969 2.01101 0
M  V30 1005 H 100.061 2.54204 0.285299 0
M  V30 1006 H 99.7055 5.00938 0.838067 0
M  V30 1007 H 99.6355 4.59648 2.56966 0
M  V30 1008 H 102.126 3.47661 1.48123 0
M  V30 1009 H 102.439 7.33139 2.44391 0
M  V30 1010 H 100.784 6.59112 2.20447 0
M  V30 1011 H 103.975 4.33876 1.75697 0
M  V30 1012 H 104.148 6.09649 2.19618 0
M  V30 1013 N 97.5546 -0.734337 1.39446 0
M  V30 1014 C 98.7946 -1.50655 1.38139 0
M  V30 1015 C 99.1586 -1.91986 -0.0228701 0
M  V30 1016 O 100.36 -2.68318 -0.160947 0
M  V30 1017 C 98.6306 -2.71251 2.32718 0
M  V30 1018 S 100.19 -3.60892 2.49605 0
M  V30 1019 H 97.0076 -0.515315 0.489869 0
M  V30 1020 H 99.6096 -0.860392 1.75549 0
M  V30 1021 H 98.3136 -2.39027 3.33608 0
M  V30 1022 H 97.8446 -3.40795 1.96526 0
M  V30 1023 H 99.8596 -4.64899 1.73446 0
M  V30 1024 N 99.0327 -1.24633 -0.964593 0
M  V30 1025 C 99.9957 -1.0424 -2.04124 0
M  V30 1026 C 100.996 0.00137563 -1.608 0
M  V30 1027 O 102.186 -0.239883 -1.7254 0
M  V30 1028 C 99.3177 -0.580588 -3.3592 0
M  V30 1029 H 100.511 -1.99803 -2.23649 0
M  V30 1030 H 98.0637 -1.06899 -1.14027 0
M  V30 1031 H 98.7987 0.3781 -3.22088 0
M  V30 1032 H 98.5837 -1.33398 -3.6871 0
M  V30 1033 H 100.074 -0.459034 -4.15069 0
M  V30 1034 N 100.511 1.16574 -1.06058 0
M  V30 1035 C 101.458 2.20883 -0.669263 0
M  V30 1036 C 102.428 1.62729 0.332918 0
M  V30 1037 O 103.613 1.895 0.222346 0
M  V30 1038 C 100.753 3.45049 -0.0593572 0
M  V30 1039 C 99.8658 4.17458 -1.11143 0
M  V30 1040 C 99.0008 5.29135 -0.467916 0
M  V30 1041 C 98.0398 5.93343 -1.50369 0
M  V30 1042 N 97.1768 6.96516 -0.883706 0
M  V30 1043 H 102.017 2.53709 -1.5632 0
M  V30 1044 H 99.5538 1.24616 -0.781625 0
M  V30 1045 H 101.512 4.16033 0.311771 0
M  V30 1046 H 100.142 3.12781 0.797992 0
M  V30 1047 H 99.1938 3.45101 -1.60029 0
M  V30 1048 H 100.506 4.61307 -1.89731 0
M  V30 1049 H 99.6598 6.06684 -0.0436871 0
M  V30 1050 H 98.3988 4.86443 0.349864 0
M  V30 1051 H 97.4038 5.14517 -1.93784 0
M  V30 1052 H 98.6288 6.38114 -2.32352 0
M  V30 1053 H 96.5748 6.55943 -0.086595 0
M  V30 1054 H 96.4918 7.38723 -1.607 0
M  V30 1055 H 97.7598 7.77993 -0.484543 0
M  V30 1056 N 101.989 0.842826 1.3317 0
M  V30 1057 C 103.266 0.362216 1.92217 0
M  V30 1058 C 103.646 -1.15289 1.76838 0
M  V30 1059 O 102.994 -1.96914 1.15919 0
M  V30 1060 C 103.204 0.813495 3.39387 0
M  V30 1061 C 104.552 0.823804 4.16532 0
M  V30 1062 O 105.576 0.757358 3.48055 0
M  V30 1063 O 104.435 0.915193 5.38782 0
M  V30 1064 H 101.529 0.103317 0.820521 0
M  V30 1065 H 104.075 0.928942 1.42017 0
M  V30 1066 H 102.847 1.85624 3.4447 0
M  V30 1067 H 102.47 0.223561 3.96971 0
M  V30 1068 N 103.467 -1.45747 0.599634 0
M  V30 1069 C 104.878 -1.85853 0.177681 0
M  V30 1070 C 105.229 -1.50102 -1.26348 0
M  V30 1071 O 104.354 -0.923905 -1.95686 0
M  V30 1072 C 104.949 -3.37326 0.315688 0
M  V30 1073 C 103.508 -3.76365 -0.0515144 0
M  V30 1074 C 102.655 -2.69722 0.643822 0
M  V30 1075 H 105.606 -1.36661 0.806814 0
M  V30 1076 H 105.627 -3.77778 -0.454321 0
M  V30 1077 H 105.139 -3.63315 1.36468 0
M  V30 1078 H 103.24 -3.55993 -1.09999 0
M  V30 1079 H 103.353 -4.77916 0.336594 0
M  V30 1080 H 101.717 -2.54567 0.0822881 0
M  V30 1081 H 102.5 -2.98549 1.6948 0
M  V30 1082 N 104.945 -0.338344 -1.53925 0
M  V30 1083 C 106.191 0.252842 -2.01822 0
M  V30 1084 C 106.546 1.48612 -1.22197 0
M  V30 1085 O 105.839 1.89238 -0.299892 0
M  V30 1086 C 106.033 0.62448 -3.51902 0
M  V30 1087 C 105.862 -0.571235 -4.46057 0
M  V30 1088 C 104.632 -1.07493 -4.93734 0
M  V30 1089 C 106.83 -1.42807 -4.94076 0
M  V30 1090 N 104.812 -2.23351 -5.71828 0
M  V30 1091 C 106.183 -2.43362 -5.70241 0
M  V30 1092 C 108.238 -1.45412 -4.76193 0
M  V30 1093 C 106.941 -3.46346 -6.30426 0
M  V30 1094 C 108.967 -2.47274 -5.37224 0
M  V30 1095 C 108.329 -3.46555 -6.13253 0
M  V30 1096 H 104.428 0.0559669 -0.779995 0
M  V30 1097 H 107.012 -0.476732 -1.88773 0
M  V30 1098 H 105.183 1.32317 -3.65167 0
M  V30 1099 H 106.915 1.19841 -3.86549 0
M  V30 1100 H 103.67 -0.643848 -4.69203 0
M  V30 1101 H 104.094 -2.81834 -6.15548 0
M  V30 1102 H 108.736 -0.700171 -4.16962 0
M  V30 1103 H 106.454 -4.22638 -6.88769 0
M  V30 1104 H 110.04 -2.50109 -5.25297 0
M  V30 1105 H 108.92 -4.24083 -6.59638 0
M  V30 1106 N 106.423 1.57458 -0.0668435 0
M  V30 1107 C 107.839 1.56947 0.289772 0
M  V30 1108 C 108.039 1.07584 1.70376 0
M  V30 1109 O 107.095 0.739486 2.41429 0
M  V30 1110 C 108.408 3.0052 0.103943 0
M  V30 1111 C 109.956 3.12517 0.173857 0
M  V30 1112 C 110.431 4.57997 0.0163682 0
M  V30 1113 N 111.922 4.63144 0.0721352 0
M  V30 1114 C 112.657 5.73394 -0.0253794 0
M  V30 1115 N 112.153 6.92576 -0.176133 0
M  V30 1116 N 113.946 5.62091 0.0313305 0
M  V30 1117 H 106.097 1.87863 -0.991027 0
M  V30 1118 H 108.36 0.86583 -0.38606 0
M  V30 1119 H 108.066 3.40729 -0.871572 0
M  V30 1120 H 107.94 3.67304 0.858366 0
M  V30 1121 H 110.327 2.72197 1.13985 0
M  V30 1122 H 110.408 2.48381 -0.611586 0
M  V30 1123 H 110.052 4.99005 -0.946374 0
M  V30 1124 H 109.982 5.20158 0.821153 0
M  V30 1125 H 112.473 3.77436 0.187263 0
M  V30 1126 H 112.786 7.72418 -0.242821 0
M  V30 1127 H 111.131 6.94678 -0.211429 0
M  V30 1128 H 114.322 4.67867 0.147773 0
M  V30 1129 H 114.495 6.47982 -0.048121 0
M  V30 1130 N 107.901 -0.206675 1.56239 0
M  V30 1131 C 108.831 -1.25909 1.96645 0
M  V30 1132 C 109.812 -1.48097 0.836734 0
M  V30 1133 O 110.997 -1.6003 1.10019 0
M  V30 1134 C 108.127 -2.6058 2.29599 0
M  V30 1135 C 107.081 -2.53024 3.452 0
M  V30 1136 C 106.407 -3.91861 3.63798 0
M  V30 1137 C 107.707 -2.06524 4.79734 0
M  V30 1138 H 109.401 -0.923369 2.84806 0
M  V30 1139 H 106.947 -0.442735 1.37025 0
M  V30 1140 H 108.9 -3.34375 2.56459 0
M  V30 1141 H 107.624 -2.95869 1.38307 0
M  V30 1142 H 106.283 -1.81684 3.18412 0
M  V30 1143 H 105.931 -4.24483 2.69857 0
M  V30 1144 H 105.631 -3.87683 4.4156 0
M  V30 1145 H 107.155 -4.67296 3.93022 0
M  V30 1146 H 108.569 -2.70072 5.05702 0
M  V30 1147 H 106.966 -2.13374 5.60885 0
M  V30 1148 H 108.036 -1.01802 4.74093 0
M  V30 1149 N 109.379 -1.50304 -0.473955 0
M  V30 1150 C 110.79 -1.54042 -1.0549 0
M  V30 1151 C 111.141 -0.342248 -1.93192 0
M  V30 1152 O 110.266 0.545157 -2.09421 0
M  V30 1153 C 110.861 -2.79152 -1.91989 0
M  V30 1154 C 109.42 -2.8558 -2.45196 0
M  V30 1155 C 108.567 -2.48295 -1.2347 0
M  V30 1156 H 111.518 -1.5661 -0.256693 0
M  V30 1157 H 111.539 -2.60845 -2.7702 0
M  V30 1158 H 111.051 -3.66339 -1.28131 0
M  V30 1159 H 109.152 -2.02738 -3.12615 0
M  V30 1160 H 109.265 -3.88403 -2.80499 0
M  V30 1161 H 107.629 -2.00669 -1.56856 0
M  V30 1162 H 108.412 -3.37787 -0.612789 0
M  V30 1163 N 110.857 0.726932 -1.39834 0
M  V30 1164 C 112.105 1.4837 -1.37225 0
M  V30 1165 C 112.426 1.94979 0.0284857 0
M  V30 1166 O 111.696 1.69555 0.981213 0
M  V30 1167 H 110.276 0.55043 -0.505011 0
M  V30 1168 H 112.938 0.862468 -1.74778 0
M  V30 1169 H 112.034 2.36198 -2.04003 0
M  V30 1170 N 112.336 1.25143 0.95797 0
M  V30 1171 C 113.564 1.12424 1.73691 0
M  V30 1172 C 113.979 -0.322304 1.86029 0
M  V30 1173 O 113.336 -1.22186 1.35561 0
M  V30 1174 C 113.387 1.76933 3.15241 0
M  V30 1175 O 113.108 3.15932 3.03511 0
M  V30 1176 C 114.609 1.6995 4.09429 0
M  V30 1177 H 111.829 0.3923 0.544373 0
M  V30 1178 H 114.373 1.6544 1.20207 0
M  V30 1179 H 112.528 1.27895 3.6568 0
M  V30 1180 H 112.942 3.47598 3.9278 0
M  V30 1181 H 114.416 2.19753 5.06372 0
M  V30 1182 H 114.893 0.662619 4.34173 0
M  V30 1183 H 115.499 2.18461 3.64904 0
M  V30 1184 N 113.814 -1.1601 1.06675 0
M  V30 1185 C 115.044 -1.90251 0.805497 0
M  V30 1186 C 115.452 -1.77891 -0.64431 0
M  V30 1187 O 114.795 -1.12383 -1.45313 0
M  V30 1188 C 114.857 -3.41419 1.12576 0
M  V30 1189 C 114.521 -3.77564 2.57477 0
M  V30 1190 C 115.518 -3.79161 3.55715 0
M  V30 1191 C 113.203 -4.08079 2.92877 0
M  V30 1192 C 115.197 -4.10767 4.8739 0
M  V30 1193 C 112.884 -4.39351 4.24751 0
M  V30 1194 C 113.882 -4.40675 5.21818 0
M  V30 1195 O 113.57 -4.71202 6.51325 0
M  V30 1196 H 113.302 -0.610018 0.291297 0
M  V30 1197 H 115.856 -1.47958 1.4247 0
M  V30 1198 H 114.086 -3.84079 0.449503 0
M  V30 1199 H 115.775 -3.9694 0.84814 0
M  V30 1200 H 116.541 -3.55693 3.29708 0
M  V30 1201 H 112.42 -4.06211 2.17976 0
M  V30 1202 H 115.964 -4.11715 5.63148 0
M  V30 1203 H 111.861 -4.62285 4.50514 0
M  V30 1204 H 112.629 -4.88996 6.56373 0
M  V30 1205 N 115.292 -0.849877 -1.32721 0
M  V30 1206 C 116.538 -0.451591 -1.97708 0
M  V30 1207 C 116.871 0.989175 -1.6712 0
M  V30 1208 O 116.146 1.69334 -0.956891 0
M  V30 1209 C 116.429 -0.685598 -3.53513 0
M  V30 1210 C 116.282 -2.17444 -3.93749 0
M  V30 1211 C 117.601 -0.138874 -4.39881 0
M  V30 1212 H 114.72 -0.16555 -0.718166 0
M  V30 1213 H 117.362 -1.06742 -1.57182 0
M  V30 1214 H 115.512 -0.161416 -3.88165 0
M  V30 1215 H 117.184 -2.76433 -3.693 0
M  V30 1216 H 115.427 -2.65476 -3.43081 0
M  V30 1217 H 116.098 -2.28888 -5.02309 0
M  V30 1218 H 118.574 -0.587068 -4.11938 0
M  V30 1219 H 117.45 -0.332213 -5.47894 0
M  V30 1220 H 117.711 0.95806 -4.31594 0
M  V30 1221 N 116.77 1.45427 -0.607355 0
M  V30 1222 C 118.016 2.0254 -0.102607 0
M  V30 1223 C 118.349 1.47478 1.26348 0
M  V30 1224 O 117.624 0.64939 1.83339 0
M  V30 1225 C 117.907 3.60044 -0.0634347 0
M  V30 1226 C 117.76 4.2544 -1.46017 0
M  V30 1227 C 119.079 4.35646 0.624514 0
M  V30 1228 H 116.198 0.73598 -0.0387607 0
M  V30 1229 H 118.84 1.73284 -0.779282 0
M  V30 1230 H 116.99 3.85101 0.512808 0
M  V30 1231 H 118.662 4.11569 -2.08347 0
M  V30 1232 H 116.905 3.83849 -2.02094 0
M  V30 1233 H 117.576 5.34342 -1.385 0
M  V30 1234 H 120.052 4.15882 0.134723 0
M  V30 1235 H 118.928 5.45376 0.621028 0
M  V30 1236 H 119.189 4.08501 1.69055 0
M  V30 1237 N 118.248 0.346503 1.53744 0
M  V30 1238 C 119.494 -0.249473 2.0126 0
M  V30 1239 C 119.827 -1.49965 1.23386 0
M  V30 1240 O 119.102 -1.91811 0.32229 0
M  V30 1241 C 119.385 -0.560643 3.55709 0
M  V30 1242 C 119.238 0.701836 4.44291 0
M  V30 1243 C 120.557 -1.36905 4.18264 0
M  V30 1244 H 117.676 -0.0891987 0.731582 0
M  V30 1245 H 120.318 0.467624 1.84156 0
M  V30 1246 H 118.468 -1.17156 3.70414 0
M  V30 1247 H 120.14 1.33974 4.41417 0
M  V30 1248 H 118.383 1.32612 4.13033 0
M  V30 1249 H 119.054 0.43933 5.50249 0
M  V30 1250 H 121.53 -0.852448 4.07275 0
M  V30 1251 H 120.406 -1.55553 5.26398 0
M  V30 1252 H 120.667 -2.37203 3.73078 0
M  V30 1253 N 119.726 -1.57421 0.075193 0
M  V30 1254 C 120.656 -2.15942 -0.888324 0
M  V30 1255 C 121.637 -1.08737 -1.30806 0
M  V30 1256 O 122.822 -1.36787 -1.37851 0
M  V30 1257 C 119.952 -2.72379 -2.1547 0
M  V30 1258 C 118.906 -3.8478 -1.87425 0
M  V30 1259 C 118.232 -4.27834 -3.20721 0
M  V30 1260 C 119.532 -5.08869 -1.17684 0
M  V30 1261 H 121.226 -2.96705 -0.400799 0
M  V30 1262 H 118.772 -1.42723 -0.191342 0
M  V30 1263 H 120.725 -3.11965 -2.83295 0
M  V30 1264 H 119.449 -1.88841 -2.6647 0
M  V30 1265 H 118.108 -3.45703 -1.22004 0
M  V30 1266 H 117.756 -3.41214 -3.6957 0
M  V30 1267 H 117.456 -5.03605 -3.02746 0
M  V30 1268 H 118.98 -4.70039 -3.89738 0
M  V30 1269 H 120.394 -5.4575 -1.75584 0
M  V30 1270 H 118.791 -5.8994 -1.09956 0
M  V30 1271 H 119.861 -4.84648 -0.156453 0
M  V30 1272 N 121.204 0.198386 -1.56346 0
M  V30 1273 C 122.151 1.24589 -1.94284 0
M  V30 1274 C 123.121 1.454 -0.802997 0
M  V30 1275 O 124.306 1.58588 -1.06087 0
M  V30 1276 C 121.446 2.58631 -2.28482 0
M  V30 1277 C 120.559 2.45426 -3.55514 0
M  V30 1278 C 119.694 3.7215 -3.79049 0
M  V30 1279 C 118.733 3.53763 -4.99518 0
M  V30 1280 N 117.87 4.72491 -5.19323 0
M  V30 1281 H 122.71 0.915356 -2.83593 0
M  V30 1282 H 120.247 0.440629 -1.40346 0
M  V30 1283 H 122.205 3.3672 -2.46324 0
M  V30 1284 H 120.835 2.89734 -1.42317 0
M  V30 1285 H 119.887 1.58652 -3.45737 0
M  V30 1286 H 121.199 2.27772 -4.43758 0
M  V30 1287 H 120.353 4.58679 -3.97113 0
M  V30 1288 H 119.092 3.92754 -2.89129 0
M  V30 1289 H 118.097 2.65619 -4.8138 0
M  V30 1290 H 119.322 3.34607 -5.90944 0
M  V30 1291 H 117.268 4.93365 -4.3235 0
M  V30 1292 H 117.185 4.5765 -6.01741 0
M  V30 1293 H 118.453 5.6038 -5.41843 0
M  V30 1294 N 122.682 1.50554 0.465978 0
M  V30 1295 C 123.592 1.72585 1.58907 0
M  V30 1296 C 124.608 0.60911 1.6299 0
M  V30 1297 O 125.784 0.88804 1.80765 0
M  V30 1298 C 122.849 1.81995 2.95091 0
M  V30 1299 C 121.91 3.05751 3.01355 0
M  V30 1300 C 121.143 3.14702 4.31043 0
M  V30 1301 O 121.366 2.30313 5.21835 0
M  V30 1302 O 120.3 4.07468 4.43005 0
M  V30 1303 H 124.126 2.67799 1.43239 0
M  V30 1304 H 121.711 1.34711 0.646013 0
M  V30 1305 H 123.593 1.90335 3.75966 0
M  V30 1306 H 122.268 0.899659 3.10947 0
M  V30 1307 H 121.175 3.02908 2.19539 0
M  V30 1308 H 122.508 3.97375 2.90437 0
M  V30 1309 N 124.16 -0.719506 1.40217 0
M  V30 1310 C 125.07 -1.86378 1.42479 0
M  V30 1311 C 126.086 -1.71073 0.317834 0
M  V30 1312 O 127.262 -1.93406 0.561794 0
M  V30 1313 C 124.327 -3.22136 1.28178 0
M  V30 1314 C 123.388 -3.49723 2.48982 0
M  V30 1315 C 122.621 -4.79004 2.35353 0
M  V30 1316 O 122.844 -5.53821 1.36524 0
M  V30 1317 O 121.778 -5.06839 3.2465 0
M  V30 1318 H 125.604 -1.87425 2.38968 0
M  V30 1319 H 123.189 -0.869405 1.21498 0
M  V30 1320 H 125.071 -4.03234 1.22395 0
M  V30 1321 H 123.746 -3.21825 0.347934 0
M  V30 1322 H 122.653 -2.6865 2.60342 0
M  V30 1323 H 123.986 -3.54828 3.41113 0
M  V30 1324 N 125.638 -1.25649 -0.95132 0
M  V30 1325 C 126.866 -1.13343 -1.73092 0
M  V30 1326 C 127.281 0.312434 -1.86197 0
M  V30 1327 O 126.638 1.21465 -1.36207 0
M  V30 1328 C 126.689 -1.78602 -3.14299 0
M  V30 1329 O 126.41 -3.17537 -3.01831 0
M  V30 1330 C 127.911 -1.72119 -4.08522 0
M  V30 1331 H 125.131 -0.395181 -0.542285 0
M  V30 1332 H 127.675 -1.66076 -1.19328 0
M  V30 1333 H 125.83 -1.29832 -3.64996 0
M  V30 1334 H 126.244 -3.49676 -3.90931 0
M  V30 1335 H 127.718 -2.22435 -5.052 0
M  V30 1336 H 128.195 -0.685635 -4.33815 0
M  V30 1337 H 128.801 -2.20393 -3.63741 0
M  V30 1338 N 127.117 1.15442 -1.07289 0
M  V30 1339 C 128.067 2.18164 -0.662467 0
M  V30 1340 C 129.051 1.57845 0.312074 0
M  V30 1341 O 130.243 1.76552 0.125905 0
M  V30 1342 C 127.372 3.43246 -0.0611295 0
M  V30 1343 C 126.458 4.1062 -1.06077 0
M  V30 1344 N 126.849 4.53491 -2.24008 0
M  V30 1345 C 125.147 4.36949 -0.893964 0
M  V30 1346 C 125.848 5.05731 -2.87422 0
M  V30 1347 N 124.824 4.99236 -2.15091 0
M  V30 1348 H 128.626 2.49038 -1.56068 0
M  V30 1349 H 126.14 1.32003 -0.945988 0
M  V30 1350 H 128.137 4.16145 0.250792 0
M  V30 1351 H 126.797 3.13854 0.832207 0
M  V30 1352 H 127.808 4.46898 -2.6173 0
M  V30 1353 H 124.485 4.17466 -0.0534693 0
M  V30 1354 H 125.875 5.48865 -3.87553 0
M  V30 1355 N 128.595 0.856903 1.32268 0
M  V30 1356 C 129.525 0.31858 2.31316 0
M  V30 1357 C 130.506 -0.583487 1.59779 0
M  V30 1358 O 131.691 -0.503259 1.87566 0
M  V30 1359 C 128.821 -0.491979 3.43798 0
M  V30 1360 C 127.775 0.315849 4.26833 0
M  V30 1361 C 127.101 -0.619586 5.31098 0
M  V30 1362 C 128.401 1.54282 4.98993 0
M  V30 1363 H 130.095 1.14621 2.76591 0
M  V30 1364 H 127.641 0.552613 1.32974 0
M  V30 1365 H 129.594 -0.879012 4.1213 0
M  V30 1366 H 128.318 -1.35299 2.97257 0
M  V30 1367 H 126.977 0.684664 3.6015 0
M  V30 1368 H 126.625 -1.47751 4.8081 0
M  V30 1369 H 126.325 -0.0830621 5.87541 0
M  V30 1370 H 127.849 -1.00375 6.02293 0
M  V30 1371 H 129.263 1.22796 5.59995 0
M  V30 1372 H 127.66 2.01745 5.65172 0
M  V30 1373 H 128.73 2.30285 4.26728 0
M  V30 1374 N 130.073 -1.45103 0.615059 0
M  V30 1375 C 131.298 -2.07064 0.117988 0
M  V30 1376 C 131.723 -1.4554 -1.19163 0
M  V30 1377 O 131.081 -0.550855 -1.72729 0
M  V30 1378 C 131.129 -3.606 -0.000288387 0
M  V30 1379 O 130.233 -3.98847 -1.04856 0
M  V30 1380 H 129.574 -0.659467 0.0774581 0
M  V30 1381 H 132.104 -1.86236 0.847186 0
M  V30 1382 H 132.114 -4.07529 -0.196091 0
M  V30 1383 H 130.789 -4.04765 0.955932 0
M  V30 1384 H 129.366 -3.63577 -0.828619 0
M  V30 1385 N 131.551 -0.354651 -1.53558 0
M  V30 1386 C 132.483 0.5315 -2.22952 0
M  V30 1387 C 133.496 1.05503 -1.23988 0
M  V30 1388 O 134.685 0.963279 -1.50277 0
M  V30 1389 C 131.785 1.74538 -2.90499 0
M  V30 1390 C 130.958 1.35524 -4.15875 0
M  V30 1391 C 130.017 2.42999 -4.66731 0
M  V30 1392 O 129.043 2.05844 -5.30676 0
M  V30 1393 N 130.245 3.74423 -4.43608 0
M  V30 1394 H 133.01 -0.0628615 -2.99634 0
M  V30 1395 H 130.571 -0.179302 -1.60904 0
M  V30 1396 H 132.563 2.45892 -3.21433 0
M  V30 1397 H 131.133 2.24686 -2.17336 0
M  V30 1398 H 130.353 0.471998 -3.91364 0
M  V30 1399 H 131.641 1.07071 -4.97406 0
M  V30 1400 H 131.039 4.07391 -3.92491 0
M  V30 1401 H 129.596 4.41913 -4.7912 0
M  V30 1402 N 133.029 1.57378 -0.0835403 0
M  V30 1403 C 134.254 1.98682 0.594987 0
M  V30 1404 C 134.679 0.961969 1.61641 0
M  V30 1405 O 134.037 -0.0709989 1.81161 0
M  V30 1406 C 134.085 3.38988 1.2296 0
M  V30 1407 O 133.189 3.39208 2.34546 0
M  V30 1408 H 132.53 0.646368 0.152002 0
M  V30 1409 H 135.06 2.03961 -0.161533 0
M  V30 1410 H 135.07 3.76431 1.57366 0
M  V30 1411 H 133.745 4.13107 0.481228 0
M  V30 1412 H 132.322 3.13548 2.01846 0
M  V30 1413 N 134.507 -0.190092 1.56449 0
M  V30 1414 C 135.417 -1.25591 1.98152 0
M  V30 1415 C 136.433 -1.49519 0.889944 0
M  V30 1416 O 137.609 -1.62036 1.19609 0
M  V30 1417 C 134.674 -2.57916 2.3169 0
M  V30 1418 C 133.735 -2.42015 3.5458 0
M  V30 1419 C 132.968 -3.6803 3.8651 0
M  V30 1420 O 133.191 -4.72413 3.1966 0
M  V30 1421 O 132.125 -3.6326 4.79923 0
M  V30 1422 H 135.951 -0.931988 2.89046 0
M  V30 1423 H 133.536 -0.395488 1.4407 0
M  V30 1424 H 135.418 -3.36008 2.54316 0
M  V30 1425 H 134.093 -2.89925 1.43963 0
M  V30 1426 H 133 -1.62017 3.37196 0
M  V30 1427 H 134.333 -2.14937 4.4279 0
M  V30 1428 N 135.985 -1.50799 -0.457987 0
M  V30 1429 C 137.401 -1.38515 -0.792819 0
M  V30 1430 C 137.601 -0.451409 -1.96379 0
M  V30 1431 O 136.657 0.10112 -2.52297 0
M  V30 1432 C 137.97 -2.80149 -1.09258 0
M  V30 1433 C 139.518 -2.89156 -1.19825 0
M  V30 1434 C 139.993 -4.31651 -1.53106 0
M  V30 1435 N 141.484 -4.34662 -1.60072 0
M  V30 1436 C 142.219 -5.41928 -1.87354 0
M  V30 1437 N 141.715 -6.59384 -2.12568 0
M  V30 1438 N 143.508 -5.29385 -1.88965 0
M  V30 1439 H 135.659 -2.10073 0.313511 0
M  V30 1440 H 137.922 -0.944803 0.0777862 0
M  V30 1441 H 137.628 -3.50374 -0.305084 0
M  V30 1442 H 137.502 -3.18204 -2.02549 0
M  V30 1443 H 139.889 -2.19141 -1.97639 0
M  V30 1444 H 139.97 -2.54626 -0.244821 0
M  V30 1445 H 139.614 -5.02208 -0.758266 0
M  V30 1446 H 139.544 -4.63678 -2.49621 0
M  V30 1447 H 142.035 -3.49973 -1.42573 0
M  V30 1448 H 142.348 -7.36934 -2.32696 0
M  V30 1449 H 140.693 -6.62535 -2.09933 0
M  V30 1450 H 143.884 -4.36616 -1.68772 0
M  V30 1451 H 144.057 -6.13066 -2.09891 0
M  V30 1452 N 137.463 0.71206 -1.40597 0
M  V30 1453 C 138.691 1.50111 -1.42388 0
M  V30 1454 C 139.106 1.88784 -0.0245395 0
M  V30 1455 O 138.463 1.55681 0.952351 0
M  V30 1456 C 138.514 2.7742 -2.31776 0
M  V30 1457 O 138.235 2.40382 -3.66262 0
M  V30 1458 C 139.736 3.7129 -2.42196 0
M  V30 1459 H 136.956 0.46314 -0.485533 0
M  V30 1460 H 139.5 0.878068 -1.8469 0
M  V30 1461 H 137.655 3.36001 -1.92827 0
M  V30 1462 H 138.069 3.22324 -4.13772 0
M  V30 1463 H 139.543 4.57448 -3.08943 0
M  V30 1464 H 140.02 4.14641 -1.44809 0
M  V30 1465 H 140.626 3.18619 -2.81712 0
M  V30 1466 N 138.941 1.26152 0.944643 0
M  V30 1467 C 139.904 1.07474 2.0244 0
M  V30 1468 C 140.904 0.0242064 1.60782 0
M  V30 1469 O 142.094 0.267302 1.72137 0
M  V30 1470 C 139.226 0.633956 3.34953 0
M  V30 1471 H 140.419 2.03336 2.20442 0
M  V30 1472 H 137.972 1.087 1.12312 0
M  V30 1473 H 138.707 -0.326811 3.22649 0
M  V30 1474 H 138.492 1.39247 3.66542 0
M  V30 1475 H 139.982 0.52501 4.14287 0
M  V30 1476 N 140.419 -1.14872 1.07899 0
M  V30 1477 C 141.835 -1.37776 0.805606 0
M  V30 1478 C 142.035 -1.92743 -0.587555 0
M  V30 1479 O 141.091 -2.13678 -1.34528 0
M  V30 1480 C 142.404 -2.34361 1.88402 0
M  V30 1481 C 143.952 -2.48012 1.90942 0
M  V30 1482 C 144.427 -3.47893 2.97883 0
M  V30 1483 N 145.918 -3.55433 2.97021 0
M  V30 1484 C 146.653 -4.32553 3.76412 0
M  V30 1485 N 146.149 -5.12959 4.65666 0
M  V30 1486 N 147.942 -4.27697 3.64735 0
M  V30 1487 H 140.093 -0.775365 1.97742 0
M  V30 1488 H 142.356 -0.403521 0.857831 0
M  V30 1489 H 142.062 -2.01098 2.88535 0
M  V30 1490 H 141.936 -3.34206 1.74889 0
M  V30 1491 H 144.323 -2.8057 0.914579 0
M  V30 1492 H 144.404 -1.48147 2.08534 0
M  V30 1493 H 144.048 -3.16069 3.97571 0
M  V30 1494 H 143.978 -4.47527 2.77538 0
M  V30 1495 H 146.469 -2.98048 2.32326 0
M  V30 1496 H 146.782 -5.69065 5.22862 0
M  V30 1497 H 145.127 -5.12245 4.69712 0
M  V30 1498 H 148.318 -3.63949 2.94378 0
M  V30 1499 H 148.491 -4.8755 4.26848 0
M  V30 1500 N 141.898 -0.863906 -1.31812 0
M  V30 1501 C 143.314 -0.555004 -1.49639 0
M  V30 1502 C 143.514 0.912266 -1.79666 0
M  V30 1503 O 142.57 1.69479 -1.87171 0
M  V30 1504 C 143.883 -1.44998 -2.63431 0
M  V30 1505 C 145.431 -1.45138 -2.77316 0
M  V30 1506 C 145.906 -2.33179 -3.94197 0
M  V30 1507 N 147.397 -2.31025 -4.01474 0
M  V30 1508 C 148.132 -2.95871 -4.9117 0
M  V30 1509 N 147.628 -3.69863 -5.8581 0
M  V30 1510 N 149.421 -2.85211 -4.84367 0
M  V30 1511 H 141.572 -1.81339 -1.10589 0
M  V30 1512 H 143.835 -0.77505 -0.545895 0
M  V30 1513 H 143.541 -2.49377 -2.48 0
M  V30 1514 H 143.415 -1.14409 -3.59431 0
M  V30 1515 H 145.802 -0.415201 -2.92164 0
M  V30 1516 H 145.883 -1.79747 -1.82001 0
M  V30 1517 H 145.527 -3.3687 -3.80107 0
M  V30 1518 H 145.457 -1.95897 -4.88807 0
M  V30 1519 H 147.948 -1.77238 -3.33759 0
M  V30 1520 H 148.261 -4.16486 -6.50968 0
M  V30 1521 H 146.606 -3.73971 -5.85808 0
M  V30 1522 H 149.797 -2.26948 -4.09405 0
M  V30 1523 H 149.97 -3.36027 -5.54066 0
M  V30 1524 N 143.376 1.44774 -0.622745 0
M  V30 1525 C 144.306 2.33382 0.0741861 0
M  V30 1526 C 145.287 1.47719 0.843387 0
M  V30 1527 O 146.472 1.76458 0.810934 0
M  V30 1528 C 143.602 3.30663 1.06204 0
M  V30 1529 C 142.556 4.26079 0.405037 0
M  V30 1530 C 141.882 5.13165 1.5022 0
M  V30 1531 C 143.182 5.1781 -0.683414 0
M  V30 1532 H 144.876 2.91905 -0.665713 0
M  V30 1533 H 142.422 1.40363 -0.321587 0
M  V30 1534 H 144.375 3.9153 1.55827 0
M  V30 1535 H 143.099 2.70331 1.83272 0
M  V30 1536 H 141.758 3.66532 -0.0704683 0
M  V30 1537 H 141.406 4.49191 2.26355 0
M  V30 1538 H 141.106 5.77812 1.06803 0
M  V30 1539 H 142.63 5.76902 2.00041 0
M  V30 1540 H 144.044 5.72661 -0.270631 0
M  V30 1541 H 142.441 5.91015 -1.04023 0
M  V30 1542 H 143.511 4.59326 -1.55395 0
M  V30 1543 N 144.854 0.36279 1.53368 0
M  V30 1544 C 145.786 -0.519668 2.23231 0
M  V30 1545 C 146.799 -1.04844 1.24546 0
M  V30 1546 O 147.988 -0.955296 1.50786 0
M  V30 1547 C 145.088 -1.72995 2.9142 0
M  V30 1548 C 144.261 -1.33316 4.16588 0
M  V30 1549 C 143.32 -2.40521 4.68013 0
M  V30 1550 O 142.346 -2.03027 5.3176 0
M  V30 1551 N 143.548 -3.72065 4.45587 0
M  V30 1552 H 146.313 0.078751 2.99597 0
M  V30 1553 H 143.874 0.187833 1.60807 0
M  V30 1554 H 145.866 -2.44184 3.22733 0
M  V30 1555 H 144.436 -2.2353 2.18525 0
M  V30 1556 H 143.656 -0.451236 3.91609 0
M  V30 1557 H 144.944 -1.04432 4.97967 0
M  V30 1558 H 144.342 -4.05304 3.94646 0
M  V30 1559 H 142.899 -4.39366 4.81457 0
M  V30 1560 N 146.332 -1.57332 0.0918853 0
M  V30 1561 C 147.295 -2.12708 -0.85369 0
M  V30 1562 C 148.295 -1.05561 -1.213 0
M  V30 1563 O 149.485 -1.31461 -1.14296 0
M  V30 1564 C 146.617 -2.64503 -2.15061 0
M  V30 1565 H 147.81 -2.97573 -0.3729 0
M  V30 1566 H 145.363 -1.55509 -0.157072 0
M  V30 1567 H 146.098 -1.83149 -2.67632 0
M  V30 1568 H 145.883 -3.4284 -1.90272 0
M  V30 1569 H 147.373 -3.07351 -2.82711 0
M  V30 1570 N 147.81 0.181792 -1.56548 0
M  V30 1571 C 148.742 1.24956 -1.92142 0
M  V30 1572 C 149.755 1.41022 -0.813422 0
M  V30 1573 O 150.944 1.41212 -1.09186 0
M  V30 1574 C 148.044 2.61981 -2.14987 0
M  V30 1575 C 147.217 2.6735 -3.46183 0
M  V30 1576 C 146.276 3.85664 -3.5798 0
M  V30 1577 O 145.302 3.72148 -4.30691 0
M  V30 1578 N 146.504 5.01683 -2.92053 0
M  V30 1579 H 149.269 0.947329 -2.84334 0
M  V30 1580 H 146.83 0.371629 -1.57577 0
M  V30 1581 H 148.822 3.3958 -2.20154 0
M  V30 1582 H 147.392 2.84637 -1.2923 0
M  V30 1583 H 146.612 1.75925 -3.52766 0
M  V30 1584 H 147.9 2.67939 -4.32534 0
M  V30 1585 H 147.298 5.15564 -2.32832 0
M  V30 1586 H 145.855 5.77181 -3.0283 0
M  V30 1587 N 149.288 1.51039 0.449983 0
M  V30 1588 C 150.251 1.70863 1.5277 0
M  V30 1589 C 151.251 0.578846 1.5002 0
M  V30 1590 O 152.441 0.846213 1.52266 0
M  V30 1591 C 149.573 1.75341 2.9235 0
M  V30 1592 H 150.766 2.67034 1.36502 0
M  V30 1593 H 148.319 1.40838 0.677812 0
M  V30 1594 H 149.054 0.809383 3.14037 0
M  V30 1595 H 148.839 2.57436 2.95752 0
M  V30 1596 H 150.329 1.92559 3.70555 0
M  V30 1597 N 150.766 -0.704594 1.40972 0
M  V30 1598 C 151.729 -1.80035 1.41845 0
M  V30 1599 C 152.729 -1.57774 0.310474 0
M  V30 1600 O 153.919 -1.64613 0.56992 0
M  V30 1601 C 151.051 -3.18284 1.22098 0
M  V30 1602 H 152.244 -1.80658 2.3938 0
M  V30 1603 H 149.797 -0.911329 1.26982 0
M  V30 1604 H 150.532 -3.23306 0.253672 0
M  V30 1605 H 150.317 -3.35843 2.02366 0
M  V30 1606 H 151.807 -3.98289 1.25522 0
M  V30 1607 N 152.244 -1.26651 -0.937939 0
M  V30 1608 C 153.66 -1.03834 -1.21205 0
M  V30 1609 C 153.86 0.234502 -2.00131 0
M  V30 1610 O 152.916 0.942767 -2.3424 0
M  V30 1611 C 154.229 -2.27167 -1.97017 0
M  V30 1612 C 155.777 -2.32101 -2.09996 0
M  V30 1613 C 156.252 -3.55136 -2.8921 0
M  V30 1614 N 157.743 -3.55632 -2.96783 0
M  V30 1615 C 158.478 -4.475 -3.58512 0
M  V30 1616 N 157.974 -5.4966 -4.21717 0
M  V30 1617 N 159.767 -4.35145 -3.55816 0
M  V30 1618 H 151.918 -2.08398 -0.410391 0
M  V30 1619 H 154.181 -0.916031 -0.244114 0
M  V30 1620 H 153.887 -3.19765 -1.46434 0
M  V30 1621 H 153.761 -2.31672 -2.97671 0
M  V30 1622 H 156.148 -1.40015 -2.59769 0
M  V30 1623 H 156.229 -2.31605 -1.08594 0
M  V30 1624 H 155.873 -4.47553 -2.40123 0
M  V30 1625 H 155.803 -3.5288 -3.90875 0
M  V30 1626 H 158.294 -2.81743 -2.51852 0
M  V30 1627 H 158.607 -6.15943 -4.66727 0
M  V30 1628 H 156.952 -5.53514 -4.20294 0
M  V30 1629 H 160.143 -3.5455 -3.05634 0
M  V30 1630 H 160.316 -5.06934 -4.03636 0
M  V30 1631 N 153.722 1.14298 -1.08507 0
M  V30 1632 C 155.138 1.37347 -0.812901 0
M  V30 1633 C 155.338 1.93052 0.577325 0
M  V30 1634 O 154.394 2.14389 1.33393 0
M  V30 1635 C 155.707 2.33359 -1.89642 0
M  V30 1636 C 157.255 2.46996 -1.92255 0
M  V30 1637 C 157.73 3.46309 -2.99724 0
M  V30 1638 N 159.221 3.53853 -2.98902 0
M  V30 1639 C 159.956 4.3055 -3.787 0
M  V30 1640 N 159.452 5.10482 -4.6838 0
M  V30 1641 N 161.245 4.25757 -3.66998 0
M  V30 1642 H 153.396 0.764867 -1.9815 0
M  V30 1643 H 155.659 0.398966 -0.859959 0
M  V30 1644 H 155.365 1.99565 -2.89597 0
M  V30 1645 H 155.239 3.33274 -1.76659 0
M  V30 1646 H 157.626 2.80081 -0.929445 0
M  V30 1647 H 157.707 1.47039 -2.09316 0
M  V30 1648 H 157.351 3.13957 -3.99241 0
M  V30 1649 H 157.281 4.46049 -2.79907 0
M  V30 1650 H 159.772 2.96812 -2.33904 0
M  V30 1651 H 160.085 5.66284 -5.25873 0
M  V30 1652 H 158.43 5.09747 -4.72422 0
M  V30 1653 H 161.621 3.62383 -2.96304 0
M  V30 1654 H 161.794 4.85279 -4.29427 0
M  V30 1655 N 155.201 0.870884 1.31352 0
M  V30 1656 C 156.449 0.48132 1.96285 0
M  V30 1657 C 156.77 -0.969813 1.69173 0
M  V30 1658 O 156.04 -1.67998 1.00764 0
M  V30 1659 H 154.62 0.175002 0.726212 0
M  V30 1660 H 157.282 1.11087 1.60143 0
M  V30 1661 H 156.378 0.639825 3.05471 0
M  V30 1662 N 156.679 -1.44442 0.630414 0
M  V30 1663 C 157.909 -2.06115 0.141465 0
M  V30 1664 C 158.317 -1.47179 -1.1889 0
M  V30 1665 O 157.66 -0.588873 -1.74006 0
M  V30 1666 C 157.722 -3.59467 -0.0484355 0
M  V30 1667 C 157.386 -4.40864 1.20366 0
M  V30 1668 C 158.383 -4.74391 2.12719 0
M  V30 1669 C 156.068 -4.8125 1.43887 0
M  V30 1670 C 158.062 -5.47186 3.26904 0
M  V30 1671 C 155.749 -5.53795 2.5837 0
M  V30 1672 C 156.747 -5.86682 3.49705 0
M  V30 1673 O 156.435 -6.57749 4.62191 0
M  V30 1674 H 156.167 -0.671648 0.0765792 0
M  V30 1675 H 158.721 -1.86312 0.864695 0
M  V30 1676 H 156.951 -3.77758 -0.826803 0
M  V30 1677 H 158.64 -4.02909 -0.491849 0
M  V30 1678 H 159.406 -4.43728 1.95781 0
M  V30 1679 H 155.285 -4.55073 0.736853 0
M  V30 1680 H 158.829 -5.72773 3.98217 0
M  V30 1681 H 154.726 -5.83872 2.75251 0
M  V30 1682 H 155.494 -6.76217 4.61164 0
M  V30 1683 N 158.157 -0.370918 -1.53173 0
M  V30 1684 C 159.087 0.464847 -2.28826 0
M  V30 1685 C 160.068 1.07936 -1.31468 0
M  V30 1686 O 161.253 1.0956 -1.60344 0
M  V30 1687 C 158.383 1.60196 -3.08147 0
M  V30 1688 C 157.337 1.11443 -4.13237 0
M  V30 1689 C 156.663 2.3422 -4.80672 0
M  V30 1690 C 157.963 0.195384 -5.21934 0
M  V30 1691 H 159.657 -0.166329 -2.98938 0
M  V30 1692 H 157.203 -0.0814359 -1.4377 0
M  V30 1693 H 159.156 2.19332 -3.59822 0
M  V30 1694 H 157.88 2.26045 -2.35735 0
M  V30 1695 H 156.539 0.545727 -3.62515 0
M  V30 1696 H 156.187 2.98537 -4.04827 0
M  V30 1697 H 155.887 2.02269 -5.51689 0
M  V30 1698 H 157.411 2.94032 -5.35143 0
M  V30 1699 H 158.825 0.694375 -5.69079 0
M  V30 1700 H 157.222 -0.0335027 -6.00091 0
M  V30 1701 H 158.292 -0.760961 -4.78892 0
M  V30 1702 N 159.635 1.57281 -0.100228 0
M  V30 1703 C 160.863 1.98879 0.570509 0
M  V30 1704 C 161.278 0.979476 1.61405 0
M  V30 1705 O 160.635 -0.0302288 1.82475 0
M  V30 1706 C 160.686 3.4052 1.2136 0
M  V30 1707 O 160.407 4.37588 0.211786 0
M  V30 1708 C 161.908 3.97149 1.96945 0
M  V30 1709 H 159.128 0.653428 0.152555 0
M  V30 1710 H 161.672 2.03697 -0.18103 0
M  V30 1711 H 159.827 3.367 1.91603 0
M  V30 1712 H 160.241 5.20118 0.676607 0
M  V30 1713 H 161.715 4.98393 2.37294 0
M  V30 1714 H 162.192 3.3525 2.83733 0
M  V30 1715 H 162.798 4.04458 1.31506 0
M  V30 1716 N 161.113 -0.173488 1.56642 0
M  V30 1717 C 162.06 -1.21482 1.96242 0
M  V30 1718 C 163.03 -1.44104 0.826027 0
M  V30 1719 O 164.215 -1.5688 1.08597 0
M  V30 1720 C 161.355 -2.54964 2.32567 0
M  V30 1721 C 160.468 -2.39739 3.59373 0
M  V30 1722 C 159.603 -3.66072 3.84921 0
M  V30 1723 C 158.642 -3.45771 5.05083 0
M  V30 1724 N 157.779 -4.64169 5.26775 0
M  V30 1725 H 162.619 -0.870123 2.85014 0
M  V30 1726 H 160.156 -0.418245 1.41029 0
M  V30 1727 H 162.114 -3.32758 2.5165 0
M  V30 1728 H 160.744 -2.87433 1.46908 0
M  V30 1729 H 159.796 -1.53131 3.48217 0
M  V30 1730 H 161.108 -2.20683 4.47326 0
M  V30 1731 H 160.262 -4.52303 4.0436 0
M  V30 1732 H 159.001 -3.88105 2.9534 0
M  V30 1733 H 158.006 -2.57927 4.85545 0
M  V30 1734 H 159.231 -3.25163 5.96193 0
M  V30 1735 H 157.177 -4.86425 4.40144 0
M  V30 1736 H 157.094 -4.48019 6.08946 0
M  V30 1737 H 158.362 -5.51689 5.5069 0
M  V30 1738 N 162.591 -1.51276 -0.441967 0
M  V30 1739 C 163.84 -1.6295 -1.18871 0
M  V30 1740 C 164.153 -0.349312 -1.92456 0
M  V30 1741 O 165.359 -0.345355 -2.69295 0
M  V30 1742 C 163.815 -2.87759 -2.16155 0
M  V30 1743 C 163.423 -4.22764 -1.48239 0
M  V30 1744 C 165.167 -3.08788 -2.91291 0
M  V30 1745 C 163.074 -5.38728 -2.4398 0
M  V30 1746 H 162.004 -0.606913 -0.447406 0
M  V30 1747 H 164.655 -1.77739 -0.456205 0
M  V30 1748 H 163.037 -2.66593 -2.92821 0
M  V30 1749 H 164.211 -4.54293 -0.771635 0
M  V30 1750 H 162.526 -4.07575 -0.852741 0
M  V30 1751 H 165.123 -3.92599 -3.63002 0
M  V30 1752 H 165.466 -2.21679 -3.5237 0
M  V30 1753 H 165.999 -3.30272 -2.21733 0
M  V30 1754 H 162.738 -6.28082 -1.87598 0
M  V30 1755 H 162.258 -5.1158 -3.13123 0
M  V30 1756 H 163.937 -5.70489 -3.05207 0
M  V30 1757 N 164.069 0.697108 -1.41344 0
M  V30 1758 C 164.999 1.82353 -1.45841 0
M  V30 1759 C 165.98 1.67115 -0.317247 0
M  V30 1760 O 167.165 1.86871 -0.528474 0
M  V30 1761 C 164.295 3.20476 -1.33838 0
M  V30 1762 C 163.249 3.50415 -2.4575 0
M  V30 1763 C 162.575 4.87878 -2.18813 0
M  V30 1764 C 163.875 3.49546 -3.88091 0
M  V30 1765 H 165.569 1.78846 -2.40113 0
M  V30 1766 H 163.115 0.859028 -1.15571 0
M  V30 1767 H 165.068 3.98988 -1.35596 0
M  V30 1768 H 163.792 3.24604 -0.360498 0
M  V30 1769 H 162.451 2.74253 -2.43271 0
M  V30 1770 H 162.099 4.8863 -1.19371 0
M  V30 1771 H 161.799 5.08875 -2.93803 0
M  V30 1772 H 163.323 5.68702 -2.22284 0
M  V30 1773 H 164.737 4.18066 -3.92293 0
M  V30 1774 H 163.134 3.82075 -4.62751 0
M  V30 1775 H 164.204 2.48552 -4.16353 0
M  V30 1776 N 165.547 1.27147 0.931209 0
M  V30 1777 C 166.497 1.06227 2.01742 0
M  V30 1778 C 167.481 -0.00859065 1.60898 0
M  V30 1779 O 168.673 0.209537 1.75755 0
M  V30 1780 C 165.802 0.707787 3.35924 0
M  V30 1781 C 164.888 1.81661 3.83223 0
M  V30 1782 N 165.279 3.05564 4.03069 0
M  V30 1783 C 163.577 1.70249 4.12227 0
M  V30 1784 C 164.278 3.77697 4.42403 0
M  V30 1785 N 163.254 3.0544 4.49675 0
M  V30 1786 H 167.056 2.00261 2.15111 0
M  V30 1787 H 164.57 1.1781 1.11779 0
M  V30 1788 H 166.567 0.539043 4.134 0
M  V30 1789 H 165.227 -0.224964 3.2392 0
M  V30 1790 H 166.238 3.41363 3.89476 0
M  V30 1791 H 162.915 0.840329 4.08956 0
M  V30 1792 H 164.305 4.84168 4.65866 0
M  V30 1793 N 167.025 -1.13721 1.09112 0
M  V30 1794 C 168.271 -1.85198 0.826414 0
M  V30 1795 C 168.604 -1.83129 -0.646319 0
M  V30 1796 O 167.879 -1.2671 -1.47563 0
M  V30 1797 C 168.162 -3.33507 1.35812 0
M  V30 1798 C 168.015 -3.44108 2.89672 0
M  V30 1799 C 169.334 -4.28838 0.989256 0
M  V30 1800 H 166.453 -0.67243 0.301675 0
M  V30 1801 H 169.095 -1.33499 1.35197 0
M  V30 1802 H 167.245 -3.77666 0.911082 0
M  V30 1803 H 168.917 -3.08684 3.428 0
M  V30 1804 H 167.16 -2.85087 3.26967 0
M  V30 1805 H 167.831 -4.48388 3.21951 0
M  V30 1806 H 170.307 -3.92734 1.37475 0
M  V30 1807 H 169.183 -5.31051 1.38838 0
M  V30 1808 H 169.444 -4.4198 -0.102924 0
M  V30 1809 N 168.503 -0.877838 -1.30888 0
M  V30 1810 C 169.75 -0.492696 -1.96415 0
M  V30 1811 C 170.078 0.956671 -1.69346 0
M  V30 1812 O 169.333 1.68993 -0.986913 0
M  V30 1813 C 169.632 -0.705748 -3.50363 0
M  V30 1814 C 169.298 -2.1291 -3.97467 0
M  V30 1815 C 167.96 -2.51834 -4.1004 0
M  V30 1816 C 170.312 -3.05702 -4.22132 0
M  V30 1817 C 167.64 -3.82775 -4.44635 0
M  V30 1818 C 169.992 -4.36166 -4.58194 0
M  V30 1819 C 168.656 -4.74993 -4.68975 0
M  V30 1820 H 167.926 -0.18029 -0.718733 0
M  V30 1821 H 170.573 -1.11233 -1.55883 0
M  V30 1822 H 168.878 -0.00303058 -3.918 0
M  V30 1823 H 170.575 -0.387456 -3.99124 0
M  V30 1824 H 167.165 -1.81694 -3.88182 0
M  V30 1825 H 171.349 -2.76853 -4.11906 0
M  V30 1826 H 166.605 -4.12609 -4.51181 0
M  V30 1827 H 170.779 -5.08111 -4.76231 0
M  V30 1828 H 168.406 -5.76495 -4.95537 0
M  V30 1829 N 169.982 1.44106 -0.638065 0
M  V30 1830 C 170.932 2.27843 0.0847285 0
M  V30 1831 C 171.916 1.39055 0.809471 0
M  V30 1832 O 173.108 1.62808 0.694435 0
M  V30 1833 C 170.237 3.26497 1.06089 0
M  V30 1834 C 169.323 4.22772 0.33541 0
M  V30 1835 N 169.714 5.01737 -0.639787 0
M  V30 1836 C 168.012 4.42227 0.578921 0
M  V30 1837 C 168.713 5.71792 -1.06904 0
M  V30 1838 N 167.689 5.42079 -0.406395 0
M  V30 1839 H 171.491 2.86305 -0.663814 0
M  V30 1840 H 169.005 1.55627 -0.464122 0
M  V30 1841 H 171.002 3.8525 1.59337 0
M  V30 1842 H 169.662 2.69595 1.80966 0
M  V30 1843 H 170.673 5.07799 -1.01789 0
M  V30 1844 H 167.35 3.96415 1.31003 0
M  V30 1845 H 168.74 6.45205 -1.8751 0
M  V30 1846 N 171.46 0.379036 1.52974 0
M  V30 1847 C 172.708 -0.206014 2.01047 0
M  V30 1848 C 173.029 -1.48175 1.26765 0
M  V30 1849 O 172.299 -1.92085 0.384743 0
M  V30 1850 H 170.879 -0.0791184 0.742798 0
M  V30 1851 H 173.541 0.508366 1.88153 0
M  V30 1852 H 172.637 -0.423501 3.09213 0
M  V30 1853 N 172.938 -1.57226 0.108567 0
M  V30 1854 C 173.868 -2.17778 -0.84232 0
M  V30 1855 C 174.849 -1.11487 -1.2847 0
M  V30 1856 O 176.034 -1.39681 -1.34918 0
M  V30 1857 C 173.164 -2.76888 -2.09644 0
M  V30 1858 C 172.118 -3.88669 -1.79221 0
M  V30 1859 C 171.444 -4.34541 -3.11574 0
M  V30 1860 C 172.744 -5.11251 -1.06864 0
M  V30 1861 H 174.438 -2.97489 -0.337774 0
M  V30 1862 H 171.984 -1.43097 -0.161025 0
M  V30 1863 H 173.937 -3.17904 -2.76614 0
M  V30 1864 H 172.661 -1.94451 -2.62405 0
M  V30 1865 H 171.32 -3.48213 -1.14644 0
M  V30 1866 H 170.968 -3.48977 -3.62249 0
M  V30 1867 H 170.668 -5.09914 -2.91996 0
M  V30 1868 H 172.192 -4.782 -3.7968 0
M  V30 1869 H 173.606 -5.49352 -1.63968 0
M  V30 1870 H 172.003 -5.9214 -0.974178 0
M  V30 1871 H 173.073 -4.8487 -0.0536168 0
M  V30 1872 N 174.416 0.165178 -1.56732 0
M  V30 1873 C 175.346 1.20651 -1.99914 0
M  V30 1874 C 176.327 1.45827 -0.875705 0
M  V30 1875 O 177.512 1.57057 -1.14223 0
M  V30 1876 C 174.642 2.54401 -2.36427 0
M  V30 1877 C 173.596 2.43782 -3.51787 0
M  V30 1878 C 172.922 3.82078 -3.7406 0
M  V30 1879 C 174.222 1.93732 -4.85041 0
M  V30 1880 H 175.916 0.847534 -2.87154 0
M  V30 1881 H 173.462 0.40625 -1.38151 0
M  V30 1882 H 175.415 3.27458 -2.65234 0
M  V30 1883 H 174.139 2.92098 -1.46103 0
M  V30 1884 H 172.798 1.73178 -3.23117 0
M  V30 1885 H 172.446 4.17179 -2.81017 0
M  V30 1886 H 172.146 3.7584 -4.51684 0
M  V30 1887 H 173.67 4.56712 -4.05274 0
M  V30 1888 H 175.084 2.56569 -5.12684 0
M  V30 1889 H 173.481 1.98428 -5.66345 0
M  V30 1890 H 174.551 0.891962 -4.76626 0
M  V30 1891 N 175.894 1.51508 0.433938 0
M  V30 1892 C 177.305 1.56784 1.01369 0
M  V30 1893 C 177.656 0.393349 1.92217 0
M  V30 1894 O 176.781 -0.489441 2.10792 0
M  V30 1895 C 177.376 2.84144 1.8452 0
M  V30 1896 C 175.935 2.9198 2.37539 0
M  V30 1897 C 175.082 2.51482 1.16843 0
M  V30 1898 H 178.033 1.57236 0.215081 0
M  V30 1899 H 178.054 2.68098 2.70007 0
M  V30 1900 H 177.566 3.69607 1.18373 0
M  V30 1901 H 175.667 2.10955 3.0713 0
M  V30 1902 H 175.78 3.95704 2.70103 0
M  V30 1903 H 174.144 2.04758 1.51481 0
M  V30 1904 H 174.927 3.39293 0.523015 0
M  V30 1905 N 177.372 -0.689602 1.41712 0
M  V30 1906 C 178.62 -1.4468 1.4111 0
M  V30 1907 C 178.941 -1.94986 0.0232196 0
M  V30 1908 O 178.211 -1.72097 -0.935913 0
M  V30 1909 H 176.791 -0.536847 0.519427 0
M  V30 1910 H 179.453 -0.815825 1.77004 0
M  V30 1911 H 178.549 -2.30706 2.10193 0
M  V30 1912 N 178.85 -1.27639 -0.924453 0
M  V30 1913 C 180.097 -1.14167 -1.67249 0
M  V30 1914 C 180.425 0.311863 -1.91984 0
M  V30 1915 O 179.68 1.24425 -1.51053 0
M  V30 1916 C 179.979 -1.87407 -3.04325 0
M  V30 1917 C 179.645 -3.37249 -2.99289 0
M  V30 1918 C 178.307 -3.7812 -2.97622 0
M  V30 1919 C 180.659 -4.32845 -2.90336 0
M  V30 1920 C 177.987 -5.12944 -2.8479 0
M  V30 1921 C 180.339 -5.6773 -2.79045 0
M  V30 1922 C 179.003 -6.07889 -2.7573 0
M  V30 1923 H 178.273 -0.417766 -0.612007 0
M  V30 1924 H 180.92 -1.58286 -1.07786 0
M  V30 1925 H 179.225 -1.35805 -3.67511 0
M  V30 1926 H 180.922 -1.74408 -3.61086 0
M  V30 1927 H 177.512 -3.04748 -3.01374 0
M  V30 1928 H 181.696 -4.02239 -2.90719 0
M  V30 1929 H 176.952 -5.432 -2.80612 0
M  V30 1930 H 181.126 -6.41472 -2.71083 0
M  V30 1931 H 178.753 -7.12314 -2.65544 0
M  V30 1932 N 180.328 1.1314 -1.09713 0
M  V30 1933 C 181.258 2.20748 -0.761102 0
M  V30 1934 C 182.239 1.68061 0.262566 0
M  V30 1935 O 183.424 1.93765 0.129977 0
M  V30 1936 C 180.554 3.46812 -0.184054 0
M  V30 1937 C 179.508 4.12606 -1.13757 0
M  V30 1938 C 178.834 5.33031 -0.422083 0
M  V30 1939 C 180.134 4.59603 -2.48118 0
M  V30 1940 H 181.828 2.49113 -1.66082 0
M  V30 1941 H 179.374 1.19734 -0.799987 0
M  V30 1942 H 181.327 4.21353 0.0631215 0
M  V30 1943 H 180.051 3.17851 0.750868 0
M  V30 1944 H 178.71 3.40036 -1.37007 0
M  V30 1945 H 178.358 5.00335 0.517072 0
M  V30 1946 H 178.058 5.77999 -1.05788 0
M  V30 1947 H 179.582 6.10325 -0.183277 0
M  V30 1948 H 180.996 5.25552 -2.29059 0
M  V30 1949 H 179.393 5.15321 -3.07514 0
M  V30 1950 H 180.463 3.73971 -3.08665 0
M  V30 1951 N 181.806 0.884767 1.30421 0
M  V30 1952 C 183.052 0.503851 1.96441 0
M  V30 1953 C 183.385 -0.944518 1.69684 0
M  V30 1954 O 182.66 -1.66737 1.00145 0
M  V30 1955 C 182.943 0.779085 3.51571 0
M  V30 1956 C 182.796 2.27807 3.87846 0
M  V30 1957 C 184.115 0.255452 4.39358 0
M  V30 1958 H 181.234 0.184533 0.713524 0
M  V30 1959 H 183.876 1.10872 1.54297 0
M  V30 1960 H 182.026 0.264274 3.876 0
M  V30 1961 H 183.698 2.86127 3.61841 0
M  V30 1962 H 181.941 2.74479 3.35922 0
M  V30 1963 H 182.612 2.42125 4.96064 0
M  V30 1964 H 185.088 0.696079 4.10236 0
M  V30 1965 H 183.964 0.477361 5.4682 0
M  V30 1966 H 184.225 -0.843293 4.33983 0
M  V30 1967 N 183.284 -1.43765 0.645699 0
M  V30 1968 C 184.231 -2.30745 -0.0504648 0
M  V30 1969 C 185.201 -1.4432 -0.822241 0
M  V30 1970 O 186.386 -1.73202 -0.800358 0
M  V30 1971 C 183.526 -3.29802 -1.0161 0
M  V30 1972 C 182.639 -4.31326 -0.241219 0
M  V30 1973 C 181.774 -5.17469 -1.19998 0
M  V30 1974 C 180.813 -6.10691 -0.415094 0
M  V30 1975 N 179.95 -6.89483 -1.32506 0
M  V30 1976 H 184.79 -2.8973 0.697155 0
M  V30 1977 H 182.327 -1.42738 0.355563 0
M  V30 1978 H 184.285 -3.85734 -1.58949 0
M  V30 1979 H 182.915 -2.72483 -1.73069 0
M  V30 1980 H 181.967 -3.77749 0.448334 0
M  V30 1981 H 183.279 -4.9743 0.369437 0
M  V30 1982 H 182.433 -5.7799 -1.84424 0
M  V30 1983 H 181.172 -4.51473 -1.84455 0
M  V30 1984 H 180.177 -5.49265 0.242565 0
M  V30 1985 H 181.402 -6.78727 0.224966 0
M  V30 1986 H 179.348 -6.26142 -1.95657 0
M  V30 1987 H 179.265 -7.52081 -0.768783 0
M  V30 1988 H 180.533 -7.54516 -1.9577 0
M  V30 1989 N 184.763 -0.387143 -1.52771 0
M  V30 1990 C 185.696 0.493123 -2.22808 0
M  V30 1991 C 186.674 1.0658 -1.22798 0
M  V30 1992 O 187.858 1.11785 -1.51777 0
M  V30 1993 C 184.985 1.68238 -2.93962 0
M  V30 1994 C 184.031 1.23515 -4.08223 0
M  V30 1995 S 184.864 0.21848 -5.35054 0
M  V30 1996 C 186.02 1.41357 -6.09729 0
M  V30 1997 H 186.253 -0.101625 -2.97126 0
M  V30 1998 H 183.786 -0.171323 -1.53447 0
M  V30 1999 H 185.744 2.36443 -3.35567 0
M  V30 2000 H 184.405 2.24842 -2.19328 0
M  V30 2001 H 183.598 2.12304 -4.57103 0
M  V30 2002 H 183.2 0.632044 -3.68621 0
M  V30 2003 H 185.492 2.34101 -6.3577 0
M  V30 2004 H 186.435 0.965736 -7.01484 0
M  V30 2005 H 186.843 1.6294 -5.40473 0
M  V30 2006 N 186.241 1.57166 -0.116904 0
M  V30 2007 C 187.466 1.999 0.55271 0
M  V30 2008 C 187.891 0.996039 1.59564 0
M  V30 2009 O 187.249 -0.032556 1.81271 0
M  V30 2010 C 187.297 3.4152 1.15742 0
M  V30 2011 O 186.401 3.44106 2.27299 0
M  V30 2012 H 185.742 0.649447 0.138258 0
M  V30 2013 H 188.272 2.03573 -0.204759 0
M  V30 2014 H 188.282 3.79684 1.49346 0
M  V30 2015 H 186.957 4.14034 0.393493 0
M  V30 2016 H 185.534 3.17759 1.9515 0
M  V30 2017 N 187.719 -0.156864 1.56817 0
M  V30 2018 C 188.967 -0.869404 1.82444 0
M  V30 2019 C 189.288 -1.82147 0.69623 0
M  V30 2020 O 188.558 -1.93847 -0.28287 0
M  V30 2021 H 187.138 -0.324043 0.673056 0
M  V30 2022 H 189.8 -0.153224 1.94297 0
M  V30 2023 H 188.896 -1.43761 2.77019 0
M  V30 2024 N 189.197 -1.51736 -0.425897 0
M  V30 2025 C 190.474 -1.55519 -1.1863 0
M  V30 2026 C 190.854 -0.326219 -2.08564 0
M  V30 2027 O 190.202 0.688012 -2.17896 0
M  V30 2028 C 190.412 -2.87521 -1.9782 0
M  V30 2029 C 191.76 -3.39899 -2.54468 0
M  V30 2030 O 192.784 -2.89148 -2.08019 0
M  V30 2031 O 191.643 -4.2848 -3.39215 0
M  V30 2032 H 188.737 -0.625739 -0.540721 0
M  V30 2033 H 191.283 -1.64055 -0.434038 0
M  V30 2034 H 190.055 -3.68422 -1.31836 0
M  V30 2035 H 189.678 -2.822 -2.80088 0
M  V30 2036 N 190.675 0.682077 -1.42076 0
M  V30 2037 C 191.605 1.80796 -1.47767 0
M  V30 2038 C 192.586 1.6677 -0.334954 0
M  V30 2039 O 193.771 1.863 -0.548264 0
M  V30 2040 C 190.901 3.19038 -1.37229 0
M  V30 2041 C 189.855 3.47789 -2.49453 0
M  V30 2042 C 189.181 4.8553 -2.23975 0
M  V30 2043 C 190.481 3.45411 -3.91776 0
M  V30 2044 H 192.175 1.7629 -2.41997 0
M  V30 2045 H 189.721 0.846721 -1.16476 0
M  V30 2046 H 191.674 3.97528 -1.39821 0
M  V30 2047 H 190.398 3.24204 -0.394907 0
M  V30 2048 H 189.057 2.71657 -2.46166 0
M  V30 2049 H 188.705 4.87337 -1.24547 0
M  V30 2050 H 188.405 5.0573 -2.99184 0
M  V30 2051 H 189.929 5.66312 -2.28304 0
M  V30 2052 H 191.343 4.13882 -3.96705 0
M  V30 2053 H 189.74 3.77145 -4.66778 0
M  V30 2054 H 190.81 2.44122 -4.18966 0
M  V30 2055 N 192.153 1.28127 0.917671 0
M  V30 2056 C 193.083 1.14248 2.03641 0
M  V30 2057 C 194.064 0.0412748 1.7005 0
M  V30 2058 O 195.249 0.217566 1.92977 0
M  V30 2059 C 192.379 0.799431 3.37974 0
M  V30 2060 C 191.333 1.85497 3.85713 0
M  V30 2061 C 190.659 1.36565 5.16966 0
M  V30 2062 C 191.959 3.26085 4.08002 0
M  V30 2063 H 193.653 2.07835 2.15511 0
M  V30 2064 H 191.199 1.00064 1.03553 0
M  V30 2065 H 193.152 0.689114 4.15727 0
M  V30 2066 H 191.876 -0.172145 3.26146 0
M  V30 2067 H 190.535 1.95437 3.10161 0
M  V30 2068 H 190.183 0.383253 5.01538 0
M  V30 2069 H 189.883 2.07143 5.49878 0
M  V30 2070 H 191.407 1.26848 5.97279 0
M  V30 2071 H 192.821 3.19089 4.76293 0
M  V30 2072 H 191.218 3.94462 4.52238 0
M  V30 2073 H 192.288 3.70394 3.12948 0
M  V30 2074 N 193.631 -1.12557 1.10312 0
M  V30 2075 C 194.541 -2.21841 0.763142 0
M  V30 2076 C 195.557 -1.72354 -0.238801 0
M  V30 2077 O 196.733 -2.01249 -0.0778746 0
M  V30 2078 C 193.798 -3.46131 0.198632 0
M  V30 2079 C 192.859 -4.10464 1.25769 0
M  V30 2080 C 192.092 -5.28821 0.72002 0
M  V30 2081 O 192.315 -5.6859 -0.453993 0
M  V30 2082 O 191.249 -5.83437 1.47935 0
M  V30 2083 H 195.075 -2.53312 1.67532 0
M  V30 2084 H 192.66 -1.20867 0.878157 0
M  V30 2085 H 194.542 -4.2125 -0.112401 0
M  V30 2086 H 193.217 -3.16338 -0.686419 0
M  V30 2087 H 192.124 -3.3713 1.62156 0
M  V30 2088 H 193.457 -4.44408 2.11571 0
M  V30 2089 N 195.109 -0.891671 -1.2995 0
M  V30 2090 C 196.039 -0.379797 -2.30391 0
M  V30 2091 C 197.02 0.540919 -1.6127 0
M  V30 2092 O 198.205 0.453352 -1.88834 0
M  V30 2093 C 195.335 0.400654 -3.44981 0
M  V30 2094 C 194.289 -0.428905 -4.25846 0
M  V30 2095 C 193.615 0.478557 -5.32554 0
M  V30 2096 C 194.915 -1.67458 -4.94727 0
M  V30 2097 H 196.609 -1.21914 -2.73454 0
M  V30 2098 H 194.155 -0.587675 -1.31462 0
M  V30 2099 H 196.108 0.769434 -4.14316 0
M  V30 2100 H 194.832 1.27371 -3.0074 0
M  V30 2101 H 193.491 -0.779911 -3.58208 0
M  V30 2102 H 193.139 1.34951 -4.84559 0
M  V30 2103 H 192.839 -0.0727433 -5.87555 0
M  V30 2104 H 194.363 0.843705 -6.04743 0
M  V30 2105 H 195.777 -1.376 -5.56542 0
M  V30 2106 H 194.174 -2.16659 -5.59624 0
M  V30 2107 H 195.244 -2.41518 -4.20473 0
M  V30 2108 N 196.587 1.43421 -0.653314 0
M  V30 2109 C 197.55 2.29182 0.0287951 0
M  V30 2110 C 198.55 1.42213 0.750465 0
M  V30 2111 O 199.74 1.63843 0.591701 0
M  V30 2112 C 196.872 3.24278 1.05151 0
M  V30 2113 H 198.065 2.90985 -0.725786 0
M  V30 2114 H 195.618 1.50702 -0.414545 0
M  V30 2115 H 196.353 2.6737 1.83532 0
M  V30 2116 H 196.138 3.88396 0.537687 0
M  V30 2117 H 197.628 3.88647 1.52786 0
M  V30 2118 N 198.065 0.39524 1.52563 0
M  V30 2119 C 198.995 -0.428384 2.29537 0
M  V30 2120 C 199.976 -1.05831 1.33169 0
M  V30 2121 O 201.161 -1.06995 1.62067 0
M  V30 2122 C 198.291 -1.55274 3.10656 0
M  V30 2123 C 197.245 -1.04855 4.14957 0
M  V30 2124 C 196.571 -2.26543 4.84337 0
M  V30 2125 C 197.871 -0.112324 5.22179 0
M  V30 2126 H 199.565 0.213867 2.98635 0
M  V30 2127 H 197.111 0.104298 1.43622 0
M  V30 2128 H 199.064 -2.1358 3.63265 0
M  V30 2129 H 197.788 -2.22266 2.39302 0
M  V30 2130 H 196.447 -0.487985 3.63338 0
M  V30 2131 H 196.095 -2.92059 4.09525 0
M  V30 2132 H 195.795 -1.93466 5.54837 0
M  V30 2133 H 197.319 -2.85481 5.39753 0
M  V30 2134 H 198.733 -0.603752 5.70112 0
M  V30 2135 H 197.13 0.128968 5.99961 0
M  V30 2136 H 198.2 0.837052 4.77621 0
M  V30 2137 N 199.544 -1.57102 0.125237 0
M  V30 2138 C 200.491 -2.15641 -0.822655 0
M  V30 2139 C 201.461 -1.08313 -1.25927 0
M  V30 2140 O 202.646 -1.36251 -1.33567 0
M  V30 2141 C 199.786 -2.76504 -2.06494 0
M  V30 2142 C 198.899 -3.98158 -1.67612 0
M  V30 2143 C 198.034 -4.47088 -2.86854 0
M  V30 2144 C 197.073 -5.6126 -2.44242 0
M  V30 2145 N 196.21 -6.04905 -3.56419 0
M  V30 2146 H 201.05 -2.96313 -0.316625 0
M  V30 2147 H 198.587 -1.46388 -0.144588 0
M  V30 2148 H 200.545 -3.09925 -2.79289 0
M  V30 2149 H 199.175 -1.98512 -2.54545 0
M  V30 2150 H 198.227 -3.70858 -0.846661 0
M  V30 2151 H 199.539 -4.80934 -1.32301 0
M  V30 2152 H 198.693 -4.82451 -3.67867 0
M  V30 2153 H 197.432 -3.63275 -3.25396 0
M  V30 2154 H 196.437 -5.25495 -1.61663 0
M  V30 2155 H 197.662 -6.46843 -2.0681 0
M  V30 2156 H 195.608 -5.24032 -3.94623 0
M  V30 2157 H 195.525 -6.82552 -3.25051 0
M  V30 2158 H 196.793 -6.44907 -4.37853 0
M  V30 2159 N 201.022 0.148545 -1.56898 0
M  V30 2160 C 201.952 1.18524 -2.01182 0
M  V30 2161 C 202.933 1.4489 -0.891123 0
M  V30 2162 O 204.118 1.55836 -1.15882 0
M  V30 2163 C 201.248 2.51879 -2.39112 0
M  V30 2164 C 200.202 2.40038 -3.54353 0
M  V30 2165 C 199.528 3.78089 -3.78091 0
M  V30 2166 C 200.828 1.88577 -4.87069 0
M  V30 2167 H 202.522 0.817029 -2.88036 0
M  V30 2168 H 200.068 0.391575 -1.38574 0
M  V30 2169 H 202.021 3.24627 -2.68692 0
M  V30 2170 H 200.745 2.90532 -1.49193 0
M  V30 2171 H 199.404 1.69742 -3.24936 0
M  V30 2172 H 199.052 4.14175 -2.85426 0
M  V30 2173 H 198.752 3.71028 -4.55645 0
M  V30 2174 H 200.276 4.52387 -4.10095 0
M  V30 2175 H 201.69 2.51117 -5.15377 0
M  V30 2176 H 200.087 1.9241 -5.68417 0
M  V30 2177 H 201.157 0.84136 -4.77545 0
M  V30 2178 N 202.5 1.5196 0.417844 0
M  V30 2179 C 203.911 1.57851 0.997 0
M  V30 2180 C 204.262 0.413714 1.91789 0
M  V30 2181 O 203.387 -0.467057 2.113 0
M  V30 2182 C 203.982 2.86085 1.81496 0
M  V30 2183 C 202.541 2.94483 2.34428 0
M  V30 2184 C 201.688 2.52707 1.14169 0
M  V30 2185 H 204.639 1.57455 0.198392 0
M  V30 2186 H 204.66 2.70947 2.67148 0
M  V30 2187 H 204.172 3.70842 1.14446 0
M  V30 2188 H 202.273 2.142 3.04875 0
M  V30 2189 H 202.386 3.98546 2.65891 0
M  V30 2190 H 200.75 2.06353 1.49301 0
M  V30 2191 H 201.533 3.39828 0.486999 0
M  V30 2192 N 203.978 -0.674533 1.42435 0
M  V30 2193 C 204.928 -1.7807 1.4239 0
M  V30 2194 C 205.912 -1.58169 0.295202 0
M  V30 2195 O 207.104 -1.68643 0.537449 0
M  V30 2196 C 204.233 -3.16532 1.32901 0
M  V30 2197 C 203.319 -3.42055 2.50717 0
M  V30 2198 N 203.71 -3.38162 3.76139 0
M  V30 2199 C 202.008 -3.72692 2.44983 0
M  V30 2200 C 202.709 -3.63177 4.54398 0
M  V30 2201 N 201.685 -3.83954 3.84812 0
M  V30 2202 H 205.487 -1.73454 2.37257 0
M  V30 2203 H 203.001 -0.875381 1.36788 0
M  V30 2204 H 204.998 -3.958 1.30951 0
M  V30 2205 H 203.658 -3.22345 0.390363 0
M  V30 2206 H 204.669 -3.18057 4.0873 0
M  V30 2207 H 201.346 -3.85749 1.59699 0
M  V30 2208 H 202.736 -3.66125 5.63384 0
M  V30 2209 N 205.456 -1.28612 -0.910864 0
M  V30 2210 C 206.702 -1.16106 -1.66274 0
M  V30 2211 C 207.035 0.289113 -1.92036 0
M  V30 2212 O 206.31 1.21 -1.52281 0
M  V30 2213 C 206.593 -1.96309 -3.01885 0
M  V30 2214 C 206.446 -3.49405 -2.8326 0
M  V30 2215 C 207.765 -1.78076 -4.02463 0
M  V30 2216 H 204.884 -0.423152 -0.603417 0
M  V30 2217 H 207.526 -1.57961 -1.05586 0
M  V30 2218 H 205.676 -1.60742 -3.53687 0
M  V30 2219 H 207.348 -3.94894 -2.38446 0
M  V30 2220 H 205.591 -3.74893 -2.18261 0
M  V30 2221 H 206.262 -4.00784 -3.79574 0
M  V30 2222 H 208.738 -2.0912 -3.59733 0
M  V30 2223 H 207.614 -2.36561 -4.95308 0
M  V30 2224 H 207.875 -0.733008 -4.35981 0
M  V30 2225 N 206.934 1.1197 -1.10907 0
M  V30 2226 C 208.211 1.79959 -0.766432 0
M  V30 2227 C 208.591 1.97466 0.746363 0
M  V30 2228 O 207.939 1.55491 1.67436 0
M  V30 2229 C 208.149 3.14009 -1.52314 0
M  V30 2230 C 209.497 3.89134 -1.69883 0
M  V30 2231 O 210.521 3.2368 -1.48692 0
M  V30 2232 O 209.38 5.06572 -2.05054 0
M  V30 2233 H 206.474 0.779208 -0.277062 0
M  V30 2234 H 209.02 1.18762 -1.21217 0
M  V30 2235 H 207.792 2.96587 -2.55249 0
M  V30 2236 H 207.415 3.82915 -1.07059 0
M  V30 2237 N 208.412 0.89855 1.29475 0
M  V30 2238 C 209.642 0.538479 1.99459 0
M  V30 2239 C 210.05 -0.880922 1.67441 0
M  V30 2240 O 209.393 -1.59283 0.915127 0
M  V30 2241 C 209.455 0.649564 3.53583 0
M  V30 2242 C 209.119 2.03573 4.09154 0
M  V30 2243 C 210.116 3.00675 4.24135 0
M  V30 2244 C 207.801 2.3448 4.44212 0
M  V30 2245 C 209.795 4.26809 4.73405 0
M  V30 2246 C 207.482 3.60857 4.93179 0
M  V30 2247 C 208.48 4.56836 5.0773 0
M  V30 2248 O 208.168 5.80969 5.55635 0
M  V30 2249 H 207.9 0.205372 0.644048 0
M  V30 2250 H 210.454 1.20958 1.66007 0
M  V30 2251 H 208.684 -0.0785592 3.8662 0
M  V30 2252 H 210.373 0.29881 4.04799 0
M  V30 2253 H 211.139 2.78112 3.97339 0
M  V30 2254 H 207.018 1.60534 4.32145 0
M  V30 2255 H 210.562 5.0173 4.84678 0
M  V30 2256 H 206.459 3.83251 5.19412 0
M  V30 2257 H 207.227 5.83542 5.73952 0
M  V30 2258 N 209.89 -1.43072 0.660911 0
M  V30 2259 C 211.139 -2.00942 0.174735 0
M  V30 2260 C 211.452 -1.52797 -1.22117 0
M  V30 2261 O 212.658 -2.02991 -1.80297 0
M  V30 2262 C 211.114 -3.58948 0.261559 0
M  V30 2263 C 210.722 -4.16085 1.66064 0
M  V30 2264 C 212.466 -4.24173 -0.166617 0
M  V30 2265 C 210.373 -5.6641 1.70098 0
M  V30 2266 H 209.303 -0.751483 0.0615631 0
M  V30 2267 H 211.954 -1.63955 0.824069 0
M  V30 2268 H 210.336 -3.93372 -0.455421 0
M  V30 2269 H 211.51 -3.93147 2.40359 0
M  V30 2270 H 209.825 -3.6326 2.03546 0
M  V30 2271 H 212.422 -5.34471 -0.156433 0
M  V30 2272 H 212.765 -3.98647 -1.19943 0
M  V30 2273 H 213.298 -3.94659 0.498875 0
M  V30 2274 H 210.037 -5.96715 2.71315 0
M  V30 2275 H 209.557 -5.91382 1.00139 0
M  V30 2276 H 211.236 -6.30585 1.44816 0
M  V30 2277 N 211.368 -0.403325 -1.52352 0
M  V30 2278 C 212.278 0.432009 -2.30588 0
M  V30 2279 C 213.294 1.05884 -1.38075 0
M  V30 2280 O 214.47 1.06161 -1.71148 0
M  V30 2281 C 211.535 1.53669 -3.10784 0
M  V30 2282 C 210.596 0.933525 -4.19027 0
M  V30 2283 C 209.829 1.98557 -4.9539 0
M  V30 2284 O 210.052 3.20283 -4.71991 0
M  V30 2285 O 208.986 1.59504 -5.80381 0
M  V30 2286 H 212.812 -0.205739 -3.03002 0
M  V30 2287 H 210.397 -0.166675 -1.48467 0
M  V30 2288 H 212.279 2.17814 -3.60742 0
M  V30 2289 H 210.954 2.15915 -2.41169 0
M  V30 2290 H 209.861 0.254954 -3.7323 0
M  V30 2291 H 211.194 0.35508 -4.90918 0
M  V30 2292 N 212.846 1.57033 -0.133567 0
M  V30 2293 C 213.756 2.19632 0.824564 0
M  V30 2294 C 214.772 1.17666 1.28182 0
M  V30 2295 O 215.948 1.50193 1.3418 0
M  V30 2296 C 213.013 2.79499 2.05137 0
M  V30 2297 C 212.074 3.96548 1.64464 0
M  V30 2298 C 211.307 4.5355 2.81297 0
M  V30 2299 O 211.53 4.09438 3.97136 0
M  V30 2300 O 210.464 5.44018 2.57542 0
M  V30 2301 H 214.29 3.01991 0.321766 0
M  V30 2302 H 211.875 1.49112 0.0927889 0
M  V30 2303 H 213.757 3.17602 2.7696 0
M  V30 2304 H 212.432 2.00162 2.54395 0
M  V30 2305 H 211.339 3.63186 0.897048 0
M  V30 2306 H 212.672 4.77364 1.19934 0
M  V30 2307 N 214.325 -0.140222 1.56975 0
M  V30 2308 C 215.602 -0.880769 1.74648 0
M  V30 2309 C 215.982 -1.99036 0.703404 0
M  V30 2310 O 215.33 -2.26821 -0.27648 0
M  V30 2311 C 215.54 -1.417 3.18939 0
M  V30 2312 C 216.888 -1.87774 3.80823 0
M  V30 2313 O 217.912 -1.51427 3.2241 0
M  V30 2314 O 216.771 -2.54827 4.83452 0
M  V30 2315 H 213.865 -0.416713 0.714338 0
M  V30 2316 H 216.411 -0.125618 1.69234 0
M  V30 2317 H 215.183 -0.619902 3.86359 0
M  V30 2318 H 214.806 -2.23546 3.28805 0
M  V30 2319 N 215.803 -1.52179 -0.40978 0
M  V30 2320 C 217.028 -1.70347 -1.18308 0
M  V30 2321 C 217.453 -0.411887 -1.83535 0
M  V30 2322 O 216.811 0.630587 -1.6998 0
M  V30 2323 C 216.859 -2.83977 -2.22238 0
M  V30 2324 O 215.963 -2.495 -3.28365 0
M  V30 2325 H 215.304 -0.567103 -0.345384 0
M  V30 2326 H 217.834 -1.98879 -0.480445 0
M  V30 2327 H 217.844 -3.0887 -2.66577 0
M  V30 2328 H 216.519 -3.77685 -1.74146 0
M  V30 2329 H 215.096 -2.35277 -2.89308 0
M  V30 2330 N 217.281 0.66697 -1.42791 0
M  V30 2331 C 218.506 1.46004 -1.47301 0
M  V30 2332 C 218.931 1.87894 -0.0880317 0
M  V30 2333 O 218.289 1.56502 0.915253 0
M  V30 2334 C 218.337 2.68031 -2.41229 0
M  V30 2335 O 217.441 3.6659 -1.88906 0
M  V30 2336 H 216.782 0.43832 -0.49877 0
M  V30 2337 H 219.312 0.817391 -1.87563 0
M  V30 2338 H 219.322 3.1601 -2.58073 0
M  V30 2339 H 217.997 2.36883 -3.41847 0
M  V30 2340 H 216.574 3.25661 -1.81656 0
M  V30 2341 N 218.759 1.29093 0.90403 0
M  V30 2342 C 220.005 1.16986 1.65656 0
M  V30 2343 C 220.338 -0.278925 1.92186 0
M  V30 2344 O 219.613 -1.2019 1.5292 0
M  V30 2345 C 219.896 1.97908 3.0084 0
M  V30 2346 C 219.749 3.50903 2.81403 0
M  V30 2347 C 221.068 1.80208 4.01513 0
M  V30 2348 H 218.187 0.426346 0.601164 0
M  V30 2349 H 220.829 1.58518 1.04747 0
M  V30 2350 H 218.979 1.62616 3.52829 0
M  V30 2351 H 220.651 3.96153 2.36348 0
M  V30 2352 H 218.894 3.76045 2.1627 0
M  V30 2353 H 219.565 4.02791 3.77443 0
M  V30 2354 H 222.041 2.11025 3.58619 0
M  V30 2355 H 220.917 2.39184 4.94047 0
M  V30 2356 H 221.178 0.756119 4.35586 0
M  V30 2357 N 220.237 -1.11381 1.11499 0
M  V30 2358 C 221.484 -1.83132 0.864231 0
M  V30 2359 C 221.812 -1.84683 -0.610114 0
M  V30 2360 O 221.067 -1.29589 -1.46646 0
M  V30 2361 C 221.366 -3.30026 1.37177 0
M  V30 2362 C 221.032 -3.48634 2.85946 0
M  V30 2363 C 219.694 -3.53421 3.26569 0
M  V30 2364 C 222.046 -3.54837 3.81759 0
M  V30 2365 C 219.374 -3.61967 4.61733 0
M  V30 2366 C 221.726 -3.64915 5.1674 0
M  V30 2367 C 220.39 -3.67962 5.5692 0
M  V30 2368 H 219.66 -0.670127 0.316245 0
M  V30 2369 H 222.307 -1.31354 1.3935 0
M  V30 2370 H 220.612 -3.84304 0.762753 0
M  V30 2371 H 222.309 -3.84034 1.15408 0
M  V30 2372 H 218.899 -3.45579 2.53521 0
M  V30 2373 H 223.083 -3.50399 3.51474 0
M  V30 2374 H 218.339 -3.62603 4.92269 0
M  V30 2375 H 222.513 -3.68658 5.90816 0
M  V30 2376 H 220.14 -3.74336 6.61647 0
M  V30 2377 N 221.715 -0.905404 -1.28997 0
M  V30 2378 C 222.678 -0.392253 -2.25819 0
M  V30 2379 C 223.678 0.476753 -1.5357 0
M  V30 2380 O 224.868 0.280994 -1.71919 0
M  V30 2381 C 222 0.438588 -3.38067 0
M  V30 2382 H 223.193 -1.24743 -2.72725 0
M  V30 2383 H 220.746 -0.684051 -1.40536 0
M  V30 2384 H 221.481 1.31352 -2.96508 0
M  V30 2385 H 221.266 -0.184167 -3.91667 0
M  V30 2386 H 222.756 0.78873 -4.10084 0
M  V30 2387 N 223.193 1.4272 -0.668489 0
M  V30 2388 C 224.125 2.2914 0.052613 0
M  V30 2389 C 225.138 1.43339 0.771857 0
M  V30 2390 O 226.327 1.67123 0.627067 0
M  V30 2391 C 223.427 3.20618 1.09804 0
M  V30 2392 C 222.6 4.35039 0.45389 0
M  V30 2393 C 221.659 5.07282 1.39825 0
M  V30 2394 O 220.685 5.62024 0.900978 0
M  V30 2395 N 221.887 5.12206 2.73176 0
M  V30 2396 H 224.652 2.91668 -0.689209 0
M  V30 2397 H 222.213 1.53577 -0.512422 0
M  V30 2398 H 224.205 3.65815 1.73094 0
M  V30 2399 H 222.775 2.59585 1.74167 0
M  V30 2400 H 221.995 3.92567 -0.358396 0
M  V30 2401 H 223.283 5.088 0.00486972 0
M  V30 2402 H 222.681 4.6913 3.16122 0
M  V30 2403 H 221.238 5.61069 3.31729 0
M  V30 2404 N 224.671 0.411399 1.52136 0
M  V30 2405 C 225.896 -0.165538 2.06738 0
M  V30 2406 C 226.321 -1.379 1.27926 0
M  V30 2407 O 225.679 -1.78628 0.310114 0
M  V30 2408 C 225.727 -0.492124 3.57226 0
M  V30 2409 O 224.831 -1.58276 3.80818 0
M  V30 2410 H 224.172 -0.0132132 0.663869 0
M  V30 2411 H 226.702 0.585253 1.96051 0
M  V30 2412 H 226.712 -0.750104 4.01045 0
M  V30 2413 H 225.387 0.394922 4.14021 0
M  V30 2414 H 223.964 -1.31677 3.48877 0
M  V30 2415 N 226.149 -1.5696 0.141893 0
M  V30 2416 C 227.398 -1.95135 -0.510427 0
M  V30 2417 C 227.711 -1.02896 -1.66348 0
M  V30 2418 O 228.917 -1.30629 -2.38009 0
M  V30 2419 C 227.373 -3.46876 -0.959427 0
M  V30 2420 C 226.981 -4.47691 0.166419 0
M  V30 2421 C 228.725 -3.93927 -1.58183 0
M  V30 2422 C 226.632 -5.90636 -0.300565 0
M  V30 2423 H 225.562 -0.728494 -0.194454 0
M  V30 2424 H 228.213 -1.8211 0.22542 0
M  V30 2425 H 226.595 -3.55215 -1.75038 0
M  V30 2426 H 227.769 -4.51043 0.94325 0
M  V30 2427 H 226.084 -4.10527 0.696905 0
M  V30 2428 H 228.681 -4.98158 -1.94275 0
M  V30 2429 H 229.024 -3.3519 -2.46888 0
M  V30 2430 H 229.557 -3.88484 -0.855863 0
M  V30 2431 H 226.296 -6.5318 0.550989 0
M  V30 2432 H 225.816 -5.90655 -1.04338 0
M  V30 2433 H 227.495 -6.42588 -0.754265 0
M  V30 2434 N 227.627 0.131896 -1.57047 0
M  V30 2435 C 229.038 0.690407 -1.73465 0
M  V30 2436 C 229.389 1.8094 -0.758629 0
M  V30 2437 O 228.514 2.16282 0.0713813 0
M  V30 2438 C 229.109 1.25916 -3.14532 0
M  V30 2439 C 227.668 1.76409 -3.32501 0
M  V30 2440 C 226.815 0.658579 -2.69366 0
M  V30 2441 H 229.766 -0.0939144 -1.58422 0
M  V30 2442 H 229.787 2.12892 -3.15369 0
M  V30 2443 H 229.299 0.444515 -3.85546 0
M  V30 2444 H 227.4 2.60391 -2.66509 0
M  V30 2445 H 227.513 1.88241 -4.4057 0
M  V30 2446 H 225.877 1.08899 -2.30246 0
M  V30 2447 H 226.66 -0.14487 -3.42994 0
M  V30 2448 N 229.106 1.52395 0.401703 0
M  V30 2449 C 230.352 1.68019 1.14635 0
M  V30 2450 C 230.707 0.408722 1.88009 0
M  V30 2451 O 230 -0.597133 1.82057 0
M  V30 2452 C 230.194 2.84578 2.16217 0
M  V30 2453 C 230.023 4.22938 1.5282 0
M  V30 2454 C 228.793 4.88352 1.29772 0
M  V30 2455 C 230.991 5.04778 0.985094 0
M  V30 2456 N 228.973 6.10726 0.623455 0
M  V30 2457 C 230.344 6.1845 0.438172 0
M  V30 2458 C 232.399 4.90057 0.880275 0
M  V30 2459 C 231.102 7.19013 -0.203306 0
M  V30 2460 C 233.128 5.9086 0.252639 0
M  V30 2461 C 232.49 7.03829 -0.283573 0
M  V30 2462 H 228.589 0.668413 0.405892 0
M  V30 2463 H 231.173 1.89717 0.437674 0
M  V30 2464 H 229.344 2.64483 2.84435 0
M  V30 2465 H 231.076 2.89202 2.83098 0
M  V30 2466 H 227.831 4.46846 1.56926 0
M  V30 2467 H 228.255 6.76323 0.302733 0
M  V30 2468 H 232.897 4.02938 1.28065 0
M  V30 2469 H 230.615 8.05751 -0.615726 0
M  V30 2470 H 234.201 5.81543 0.172954 0
M  V30 2471 H 233.081 7.80493 -0.761575 0
M  V30 2472 N 230.584 -0.659388 1.43143 0
M  V30 2473 C 231.532 -1.79374 1.4808 0
M  V30 2474 C 232.526 -1.65639 0.354988 0
M  V30 2475 O 233.732 -1.7206 0.528704 0
M  V30 2476 H 230.107 -0.591705 0.4641 0
M  V30 2477 H 232.078 -1.72329 2.43609 0
M  V30 2478 C 230.827 -3.17606 1.41499 0
M  V30 2479 H 230.15 -3.28809 2.27431 0
M  V30 2480 H 231.59 -3.96951 1.49015 0
M  V30 2481 C 230.049 -3.36642 0.131765 0
M  V30 2482 O 230.579 -3.93461 -0.809386 0
M  V30 2483 N 228.785 -2.90567 0.0439396 0
M  V30 2484 H 228.332 -2.44513 0.810619 0
M  V30 2485 H 228.29 -3.03681 -0.813969 0
M  V30 2486 N 232.062 -1.29571 -0.897171 0
M  V30 2487 C 232.992 -1.17473 -2.01798 0
M  V30 2488 C 233.973 -0.068323 -1.69963 0
M  V30 2489 O 235.158 -0.248239 -1.92607 0
M  V30 2490 C 232.288 -0.853099 -3.36659 0
M  V30 2491 C 231.242 -1.9161 -3.82713 0
M  V30 2492 C 230.568 -1.44773 -5.14728 0
M  V30 2493 C 231.868 -3.32535 -4.02763 0
M  V30 2494 H 233.562 -2.11237 -2.12177 0
M  V30 2495 H 231.108 -1.01699 -1.01948 0
M  V30 2496 H 233.061 -0.755165 -4.14578 0
M  V30 2497 H 231.785 0.120236 -3.26379 0
M  V30 2498 H 230.444 -2.00346 -3.07013 0
M  V30 2499 H 230.092 -0.462995 -5.00865 0
M  V30 2500 H 229.792 -2.15865 -5.46513 0
M  V30 2501 H 231.316 -1.36334 -5.95185 0
M  V30 2502 H 232.73 -3.26626 -4.71156 0
M  V30 2503 H 231.127 -4.01607 -4.45905 0
M  V30 2504 H 232.197 -3.75326 -3.07016 0
M  V30 2505 N 233.54 1.10788 -1.12088 0
M  V30 2506 C 234.45 2.20599 -0.798338 0
M  V30 2507 C 235.466 1.72712 0.21135 0
M  V30 2508 O 236.642 2.01348 0.0458477 0
M  V30 2509 C 233.707 3.45771 -0.253674 0
M  V30 2510 C 232.768 4.08411 -1.32283 0
M  V30 2511 C 232.001 5.27608 -0.80406 0
M  V30 2512 O 232.224 5.69241 0.363478 0
M  V30 2513 O 231.158 5.8101 -1.57198 0
M  V30 2514 H 234.984 2.50614 -1.7154 0
M  V30 2515 H 232.569 1.19454 -0.897275 0
M  V30 2516 H 234.451 4.21376 0.0453691 0
M  V30 2517 H 233.126 3.1739 0.636005 0
M  V30 2518 H 232.033 3.34507 -1.67499 0
M  V30 2519 H 233.366 4.40986 -2.18614 0
M  V30 2520 N 235.018 0.912232 1.28515 0
M  V30 2521 C 236.434 0.610159 1.47476 0
M  V30 2522 C 236.634 -0.844955 1.82928 0
M  V30 2523 O 235.69 -1.62416 1.93332 0
M  V30 2524 C 237.003 1.54675 2.57868 0
M  V30 2525 C 238.551 1.55331 2.71738 0
M  V30 2526 C 239.026 2.47649 3.85272 0
M  V30 2527 N 240.517 2.45767 3.92623 0
M  V30 2528 C 241.252 3.13896 4.79851 0
M  V30 2529 N 240.748 3.9135 5.71679 0
M  V30 2530 N 242.541 3.02991 4.73448 0
M  V30 2531 H 234.692 1.85318 1.03783 0
M  V30 2532 H 236.955 0.794777 0.516753 0
M  V30 2533 H 236.661 2.5841 2.38574 0
M  V30 2534 H 236.535 1.27671 3.54937 0
M  V30 2535 H 238.922 0.52335 2.90422 0
M  V30 2536 H 239.003 1.86378 1.75205 0
M  V30 2537 H 238.647 3.50745 3.67342 0
M  V30 2538 H 238.577 2.13904 4.81199 0
M  V30 2539 H 241.068 1.89503 3.26951 0
M  V30 2540 H 241.381 4.40359 6.35062 0
M  V30 2541 H 239.726 3.95455 5.71524 0
M  V30 2542 H 242.917 2.41987 4.007 0
M  V30 2543 H 243.09 3.5636 5.41213 0
M  V30 2544 N 236.496 -1.42363 0.676048 0
M  V30 2545 C 237.745 -2.00745 0.196037 0
M  V30 2546 C 238.058 -1.54083 -1.20489 0
M  V30 2547 O 239.264 -2.04891 -1.78134 0
M  V30 2548 C 237.72 -3.58651 0.299616 0
M  V30 2549 C 237.328 -4.143 1.70468 0
M  V30 2550 C 239.072 -4.24326 -0.121619 0
M  V30 2551 C 236.979 -5.64574 1.76096 0
M  V30 2552 H 235.909 -0.750787 0.0695301 0
M  V30 2553 H 238.56 -1.63072 0.841412 0
M  V30 2554 H 236.942 -3.93833 -0.413673 0
M  V30 2555 H 238.116 -3.90575 2.44515 0
M  V30 2556 H 236.431 -3.61081 2.07387 0
M  V30 2557 H 239.028 -5.34607 -0.0997362 0
M  V30 2558 H 239.371 -3.99897 -1.15708 0
M  V30 2559 H 239.904 -3.94108 0.540706 0
M  V30 2560 H 236.643 -5.93804 2.77628 0
M  V30 2561 H 236.163 -5.90286 1.06406 0
M  V30 2562 H 237.842 -6.29013 1.51496 0
M  V30 2563 N 237.974 -0.419461 -1.51915 0
M  V30 2564 C 239.202 0.152136 -2.0634 0
M  V30 2565 C 239.617 1.37988 -1.28859 0
M  V30 2566 O 238.974 1.79243 -0.343232 0
M  V30 2567 C 239.025 0.492266 -3.58133 0
M  V30 2568 O 238.746 -0.686736 -4.32684 0
M  V30 2569 C 240.247 1.11648 -4.2901 0
M  V30 2570 H 237.467 0.0158325 -0.670813 0
M  V30 2571 H 240.011 -0.593394 -1.95702 0
M  V30 2572 H 238.166 1.18769 -3.68745 0
M  V30 2573 H 238.58 -0.400341 -5.2297 0
M  V30 2574 H 240.054 1.3046 -5.36362 0
M  V30 2575 H 240.531 2.09251 -3.86148 0
M  V30 2576 H 241.137 0.460958 -4.22795 0
M  V30 2577 N 239.452 1.56882 -0.150215 0
M  V30 2578 C 240.863 1.82995 0.370076 0
M  V30 2579 C 241.214 1.06907 1.64515 0
M  V30 2580 O 240.339 0.315369 2.1409 0
M  V30 2581 C 240.934 3.31942 0.678208 0
M  V30 2582 C 239.493 3.58625 1.14301 0
M  V30 2583 C 238.64 2.76792 0.167778 0
M  V30 2584 H 241.591 1.54209 -0.374858 0
M  V30 2585 H 241.612 3.48272 1.53254 0
M  V30 2586 H 241.124 3.87294 -0.249991 0
M  V30 2587 H 239.225 3.08664 2.08704 0
M  V30 2588 H 239.338 4.67073 1.06676 0
M  V30 2589 H 237.702 2.45972 0.661037 0
M  V30 2590 H 238.485 3.34916 -0.754069 0
M  V30 2591 N 240.93 -0.123565 1.57115 0
M  V30 2592 C 242.341 -0.681198 1.73829 0
M  V30 2593 C 242.692 -1.80535 0.768214 0
M  V30 2594 O 241.817 -2.16317 -0.0599103 0
M  V30 2595 C 242.412 -1.24246 3.15196 0
M  V30 2596 C 240.971 -1.74643 3.33432 0
M  V30 2597 C 240.118 -0.644284 2.69711 0
M  V30 2598 H 243.069 0.102315 1.5837 0
M  V30 2599 H 243.09 -2.11216 3.16493 0
M  V30 2600 H 242.602 -0.424062 3.85776 0
M  V30 2601 H 240.703 -2.58974 2.67886 0
M  V30 2602 H 240.816 -1.85902 4.41562 0
M  V30 2603 H 239.18 -1.07676 2.3082 0
M  V30 2604 H 239.963 0.163058 3.42913 0
M  V30 2605 N 242.408 -1.52605 -0.393616 0
M  V30 2606 C 243.824 -1.41753 -0.733357 0
M  V30 2607 C 244.024 -0.534293 -1.94287 0
M  V30 2608 O 243.08 -0.0059787 -2.52499 0
M  V30 2609 C 244.393 -2.84531 -0.972772 0
M  V30 2610 C 245.941 -2.93978 -1.07453 0
M  V30 2611 C 246.416 -4.37756 -1.3466 0
M  V30 2612 N 247.907 -4.4106 -1.41492 0
M  V30 2613 C 248.642 -5.49387 -1.642 0
M  V30 2614 N 248.138 -6.67806 -1.8441 0
M  V30 2615 N 249.931 -5.36923 -1.66342 0
M  V30 2616 H 242.082 -2.08555 0.402328 0
M  V30 2617 H 244.345 -0.940654 0.117789 0
M  V30 2618 H 244.051 -3.51353 -0.156204 0
M  V30 2619 H 243.925 -3.26508 -1.88871 0
M  V30 2620 H 246.312 -2.27326 -1.88167 0
M  V30 2621 H 246.393 -2.55435 -0.136605 0
M  V30 2622 H 246.037 -5.04972 -0.544581 0
M  V30 2623 H 245.967 -4.73848 -2.2973 0
M  V30 2624 H 248.458 -3.55705 -1.27601 0
M  V30 2625 H 248.771 -7.46141 -2.01231 0
M  V30 2626 H 247.116 -6.70843 -1.81644 0
M  V30 2627 H 250.307 -4.43381 -1.50102 0
M  V30 2628 H 250.48 -6.21416 -1.837 0
M  V30 2629 N 243.887 0.651787 -1.4349 0
M  V30 2630 C 245.117 1.43728 -1.48411 0
M  V30 2631 C 245.525 1.8893 -0.10103 0
M  V30 2632 O 244.868 1.60182 0.899307 0
M  V30 2633 C 244.93 2.70411 -2.36893 0
M  V30 2634 C 244.594 2.4714 -3.8441 0
M  V30 2635 C 245.591 2.10271 -4.75481 0
M  V30 2636 C 243.276 2.6142 -4.28912 0
M  V30 2637 C 245.27 1.87982 -6.0905 0
M  V30 2638 C 242.957 2.38746 -5.62533 0
M  V30 2639 C 243.955 2.02083 -6.5242 0
M  V30 2640 O 243.643 1.79647 -7.8357 0
M  V30 2641 H 243.375 0.447962 -0.506267 0
M  V30 2642 H 245.929 0.80624 -1.88915 0
M  V30 2643 H 244.159 3.36079 -1.91278 0
M  V30 2644 H 245.848 3.32364 -2.33 0
M  V30 2645 H 246.614 1.98814 -4.42378 0
M  V30 2646 H 242.493 2.88931 -3.59222 0
M  V30 2647 H 246.037 1.5929 -6.7917 0
M  V30 2648 H 241.934 2.49806 -5.95203 0
M  V30 2649 H 242.702 1.9406 -7.95162 0
M  V30 2650 N 245.365 1.30045 0.890287 0
M  V30 2651 C 246.781 1.08261 1.17268 0
M  V30 2652 C 246.981 -0.160063 2.00863 0
M  V30 2653 O 246.037 -0.855181 2.37577 0
M  V30 2654 C 247.35 2.34323 1.8845 0
M  V30 2655 C 248.898 2.39735 2.01237 0
M  V30 2656 C 249.373 3.65625 2.7583 0
M  V30 2657 N 250.864 3.66402 2.83379 0
M  V30 2658 C 251.599 4.60498 3.41657 0
M  V30 2659 N 251.095 5.64933 4.01026 0
M  V30 2660 N 252.888 4.48051 3.39421 0
M  V30 2661 H 245.039 2.09777 0.332762 0
M  V30 2662 H 247.302 0.92446 0.209948 0
M  V30 2663 H 247.008 3.2498 1.34465 0
M  V30 2664 H 246.882 2.4256 2.88867 0
M  V30 2665 H 249.269 1.4956 2.54393 0
M  V30 2666 H 249.35 2.35476 0.999232 0
M  V30 2667 H 248.994 4.56156 2.23347 0
M  V30 2668 H 248.924 3.67144 3.77509 0
M  V30 2669 H 251.415 2.90896 2.41222 0
M  V30 2670 H 251.728 6.32841 4.43545 0
M  V30 2671 H 250.073 5.68732 3.99461 0
M  V30 2672 H 253.264 3.65649 2.92264 0
M  V30 2673 H 253.437 5.21565 3.84544 0
M  V30 2674 N 246.843 -1.10192 1.12674 0
M  V30 2675 C 247.806 -2.14786 0.799979 0
M  V30 2676 C 248.806 -1.59711 -0.18685 0
M  V30 2677 O 249.996 -1.74156 0.0392558 0
M  V30 2678 C 247.128 -3.40374 0.189228 0
M  V30 2679 H 248.321 -2.45203 1.72671 0
M  V30 2680 H 245.874 -1.25597 0.930326 0
M  V30 2681 H 246.609 -3.15577 -0.747107 0
M  V30 2682 H 246.394 -3.81637 0.899766 0
M  V30 2683 H 247.884 -4.17594 -0.0228143 0
M  V30 2684 N 248.321 -0.919034 -1.28029 0
M  V30 2685 C 249.598 -0.473668 -1.89778 0
M  V30 2686 C 249.978 1.04783 -1.83259 0
M  V30 2687 O 249.326 1.8982 -1.27202 0
M  V30 2688 C 249.536 -1.00998 -3.34066 0
M  V30 2689 C 250.884 -1.06525 -4.1102 0
M  V30 2690 O 251.908 -0.958996 -3.43048 0
M  V30 2691 O 250.767 -1.22776 -5.3253 0
M  V30 2692 H 247.861 -0.15098 -0.813101 0
M  V30 2693 H 250.407 -1.01016 -1.36359 0
M  V30 2694 H 249.179 -2.05392 -3.33061 0
M  V30 2695 H 248.802 -0.454626 -3.94992 0
M  V30 2696 N 249.799 1.42003 -0.683588 0
M  V30 2697 C 250.709 2.34597 -0.0109075 0
M  V30 2698 C 251.725 1.55576 0.779245 0
M  V30 2699 O 252.901 1.88107 0.719555 0
M  V30 2700 C 249.966 3.34199 0.922588 0
M  V30 2701 C 249.027 4.29115 0.125984 0
M  V30 2702 C 248.26 5.23959 1.01502 0
M  V30 2703 O 248.483 5.23952 2.25456 0
M  V30 2704 O 247.417 6.00053 0.47111 0
M  V30 2705 H 251.243 2.93675 -0.773853 0
M  V30 2706 H 248.828 1.42654 -0.443861 0
M  V30 2707 H 250.71 3.95365 1.45823 0
M  V30 2708 H 249.385 2.77582 1.66523 0
M  V30 2709 H 248.292 3.71335 -0.453969 0
M  V30 2710 H 249.625 4.88798 -0.577736 0
M  V30 2711 N 251.277 0.427512 1.51691 0
M  V30 2712 C 252.507 -0.140986 2.06118 0
M  V30 2713 C 252.915 -1.37854 1.29588 0
M  V30 2714 O 252.258 -1.80411 0.346036 0
M  V30 2715 C 252.32 -0.538276 3.55447 0
M  V30 2716 C 251.984 0.591095 4.53161 0
M  V30 2717 C 252.981 1.46027 4.98971 0
M  V30 2718 C 250.666 0.769028 4.96378 0
M  V30 2719 C 252.66 2.49216 5.8666 0
M  V30 2720 C 250.347 1.80421 5.83859 0
M  V30 2721 C 251.345 2.66417 6.28897 0
M  V30 2722 O 251.033 3.68159 7.14643 0
M  V30 2723 H 250.765 -0.0157455 0.675817 0
M  V30 2724 H 253.319 0.602495 1.96365 0
M  V30 2725 H 251.549 -1.33432 3.6295 0
M  V30 2726 H 253.238 -1.0368 3.92435 0
M  V30 2727 H 254.004 1.33429 4.66285 0
M  V30 2728 H 249.883 0.109273 4.6087 0
M  V30 2729 H 253.427 3.16372 6.21735 0
M  V30 2730 H 249.324 1.93042 6.15959 0
M  V30 2731 H 250.092 3.64622 7.32798 0
M  V30 2732 N 252.755 -1.56801 0.158532 0
M  V30 2733 C 253.687 -2.14488 -0.807923 0
M  V30 2734 C 254.7 -1.09721 -1.20271 0
M  V30 2735 O 255.889 -1.36956 -1.14478 0
M  V30 2736 C 252.989 -2.66217 -2.09718 0
M  V30 2737 C 252.162 -3.95507 -1.86796 0
M  V30 2738 C 251.221 -4.3243 -2.99818 0
M  V30 2739 O 250.247 -5.00543 -2.71008 0
M  V30 2740 N 251.449 -3.92947 -4.27285 0
M  V30 2741 H 254.214 -2.98042 -0.314816 0
M  V30 2742 H 251.775 -1.61881 -0.0246692 0
M  V30 2743 H 253.767 -2.87924 -2.84398 0
M  V30 2744 H 252.337 -1.87324 -2.50257 0
M  V30 2745 H 251.557 -3.82309 -0.96089 0
M  V30 2746 H 252.845 -4.79972 -1.68833 0
M  V30 2747 H 252.243 -3.38087 -4.53557 0
M  V30 2748 H 250.8 -4.19681 -4.9871 0
M  V30 2749 N 254.233 0.115231 -1.57178 0
M  V30 2750 C 255.644 0.67197 -1.74188 0
M  V30 2751 C 255.995 1.80125 -0.777777 0
M  V30 2752 O 255.12 2.16346 0.0484376 0
M  V30 2753 C 255.715 1.22573 -3.1585 0
M  V30 2754 C 254.274 1.72872 -3.34353 0
M  V30 2755 C 253.421 0.629972 -2.70049 0
M  V30 2756 H 256.372 -0.110712 -1.58313 0
M  V30 2757 H 256.393 2.09535 -3.17609 0
M  V30 2758 H 255.905 0.403598 -3.85996 0
M  V30 2759 H 254.006 2.5755 -2.69256 0
M  V30 2760 H 254.119 1.83557 -4.42542 0
M  V30 2761 H 252.483 1.0645 -2.31388 0
M  V30 2762 H 253.266 -0.181241 -3.42821 0
M  V30 2763 N 255.711 1.52812 0.385517 0
M  V30 2764 C 257.122 1.5993 0.963293 0
M  V30 2765 C 257.473 0.454302 1.90868 0
M  V30 2766 O 256.598 -0.422132 2.12243 0
M  V30 2767 C 257.193 2.89871 1.75387 0
M  V30 2768 C 255.752 2.99389 2.28129 0
M  V30 2769 C 254.899 2.55071 1.08783 0
M  V30 2770 H 257.85 1.5784 0.164948 0
M  V30 2771 H 257.871 2.76553 2.61341 0
M  V30 2772 H 257.383 3.73186 1.06554 0
M  V30 2773 H 255.484 2.20619 3.00263 0
M  V30 2774 H 255.597 4.04096 2.57377 0
M  V30 2775 H 253.961 2.09473 1.4489 0
M  V30 2776 H 254.744 3.40785 0.414807 0
M  V30 2777 N 257.189 -0.644168 1.43834 0
M  V30 2778 C 258.466 -1.40188 1.36406 0
M  V30 2779 C 258.846 -2.11094 0.0163124 0
M  V30 2780 O 258.194 -2.05426 -1.00062 0
M  V30 2781 C 258.404 -2.3791 2.55343 0
M  V30 2782 C 259.752 -3.01637 2.98832 0
M  V30 2783 O 260.776 -2.48237 2.55455 0
M  V30 2784 O 259.635 -3.98477 3.74003 0
M  V30 2785 H 256.729 -0.626773 0.539523 0
M  V30 2786 H 259.275 -0.670317 1.559 0
M  V30 2787 H 258.047 -1.84525 3.4506 0
M  V30 2788 H 257.67 -3.18503 2.37995 0
M  V30 2789 N 258.668 -1.30515 -0.883378 0
M  V30 2790 C 259.916 -1.19194 -1.63209 0
M  V30 2791 C 260.237 0.253205 -1.93349 0
M  V30 2792 O 259.507 1.17025 -1.57105 0
M  V30 2793 H 258.087 -0.438148 -0.605009 0
M  V30 2794 H 260.749 -1.63663 -1.05832 0
M  V30 2795 H 259.845 -1.75396 -2.58153 0
M  V30 2796 N 260.146 1.09593 -1.13257 0
M  V30 2797 C 261.394 1.81375 -0.891492 0
M  V30 2798 C 261.715 1.86049 0.584009 0
M  V30 2799 O 260.985 1.34481 1.42449 0
M  V30 2800 H 259.565 0.671708 -0.326828 0
M  V30 2801 H 262.227 1.3256 -1.42877 0
M  V30 2802 H 261.323 2.84612 -1.28071 0
M  V30 2803 N 261.624 0.925811 1.2754 0
M  V30 2804 C 262.849 0.580924 1.99098 0
M  V30 2805 C 263.274 -0.833555 1.68622 0
M  V30 2806 O 262.632 -1.55903 0.925422 0
M  V30 2807 C 262.68 0.811186 3.51358 0
M  V30 2808 O 261.784 -0.124129 4.12213 0
M  V30 2809 H 261.125 0.223873 0.625122 0
M  V30 2810 H 263.655 1.24455 1.62395 0
M  V30 2811 H 263.665 0.72601 4.01489 0
M  V30 2812 H 262.34 1.84227 3.72872 0
M  V30 2813 H 260.917 0.0108006 3.72898 0
M  V30 2814 N 263.102 -1.41638 0.69111 0
M  V30 2815 C 264.032 -2.3347 0.037248 0
M  V30 2816 C 265.013 -1.51575 -0.771947 0
M  V30 2817 O 266.198 -1.80126 -0.72582 0
M  V30 2818 C 263.328 -3.35354 -0.903064 0
M  V30 2819 C 262.282 -4.27526 -0.201288 0
M  V30 2820 C 261.608 -5.19747 -1.25565 0
M  V30 2821 C 262.908 -5.13959 0.929689 0
M  V30 2822 H 264.602 -2.88397 0.804227 0
M  V30 2823 H 262.148 -1.38669 0.388189 0
M  V30 2824 H 264.101 -3.98519 -1.36969 0
M  V30 2825 H 262.825 -2.78767 -1.70166 0
M  V30 2826 H 261.484 -3.65779 0.245265 0
M  V30 2827 H 261.132 -4.59479 -2.04666 0
M  V30 2828 H 260.832 -5.8225 -0.791128 0
M  V30 2829 H 262.356 -5.85789 -1.72288 0
M  V30 2830 H 263.77 -5.70718 0.543546 0
M  V30 2831 H 262.167 -5.85379 1.32103 0
M  V30 2832 H 263.237 -4.51389 1.77133 0
M  V30 2833 N 264.58 -0.43555 -1.51462 0
M  V30 2834 C 265.826 0.131709 -2.02372 0
M  V30 2835 C 266.159 1.42516 -1.3192 0
M  V30 2836 O 265.434 1.89606 -0.433573 0
M  V30 2837 C 265.717 0.352301 -3.58373 0
M  V30 2838 C 265.57 -0.959676 -4.39443 0
M  V30 2839 C 266.889 1.12286 -4.25535 0
M  V30 2840 H 264.008 0.0463936 -0.735538 0
M  V30 2841 H 266.65 -0.574197 -1.81116 0
M  V30 2842 H 264.8 0.9536 -3.76615 0
M  V30 2843 H 266.472 -1.59482 -4.32855 0
M  V30 2844 H 264.715 -1.56468 -4.04599 0
M  V30 2845 H 265.386 -0.759394 -5.46752 0
M  V30 2846 H 267.862 0.613545 -4.11552 0
M  V30 2847 H 266.738 1.24598 -5.34571 0
M  V30 2848 H 266.999 2.15048 -3.86273 0
M  V30 2849 N 266.058 1.56714 -0.166846 0
M  V30 2850 C 266.968 2.21331 0.777791 0
M  V30 2851 C 267.984 1.20358 1.25658 0
M  V30 2852 O 269.16 1.53005 1.30964 0
M  V30 2853 C 266.225 2.83787 1.99163 0
M  V30 2854 C 265.286 3.99947 1.56016 0
M  V30 2855 C 264.519 4.59415 2.71613 0
M  V30 2856 O 264.742 4.17769 3.88362 0
M  V30 2857 O 263.676 5.49359 2.45945 0
M  V30 2858 H 267.502 3.02605 0.257636 0
M  V30 2859 H 265.087 1.49275 0.0611393 0
M  V30 2860 H 266.969 3.23405 2.70161 0
M  V30 2861 H 265.644 2.05513 2.50092 0
M  V30 2862 H 264.551 3.65007 0.819809 0
M  V30 2863 H 265.884 4.79801 1.09782 0
M  V30 2864 N 267.536 -0.106894 1.57237 0
M  V30 2865 C 268.782 -0.81373 1.85759 0
M  V30 2866 C 269.115 -1.78952 0.754315 0
M  V30 2867 O 268.39 -1.93029 -0.23879 0
M  V30 2868 C 268.673 -1.55293 3.24894 0
M  V30 2869 C 268.526 -0.595929 4.45835 0
M  V30 2870 C 269.845 -2.5063 3.61763 0
M  V30 2871 H 266.964 -0.294369 0.67566 0
M  V30 2872 H 269.606 -0.0776472 1.89841 0
M  V30 2873 H 267.756 -2.1804 3.21544 0
M  V30 2874 H 269.428 0.0236262 4.61294 0
M  V30 2875 H 267.671 0.0916191 4.33703 0
M  V30 2876 H 268.342 -1.15004 5.39887 0
M  V30 2877 H 270.818 -1.97982 3.65981 0
M  V30 2878 H 269.694 -2.99376 4.60071 0
M  V30 2879 H 269.955 -3.3385 2.89821 0
M  V30 2880 N 269.014 -1.53014 -0.377408 0
M  V30 2881 C 270.244 -1.72265 -1.14054 0
M  V30 2882 C 270.652 -0.44601 -1.83868 0
M  V30 2883 O 269.995 0.590095 -1.73964 0
M  V30 2884 C 270.057 -2.82492 -2.22348 0
M  V30 2885 C 269.721 -4.23233 -1.72402 0
M  V30 2886 C 270.718 -5.05992 -1.19448 0
M  V30 2887 C 268.403 -4.696 -1.78273 0
M  V30 2888 C 270.397 -6.33203 -0.730268 0
M  V30 2889 C 268.084 -5.96792 -1.31464 0
M  V30 2890 C 269.082 -6.78424 -0.789297 0
M  V30 2891 O 268.77 -8.0323 -0.328077 0
M  V30 2892 H 268.502 -0.579873 -0.347453 0
M  V30 2893 H 271.056 -2.00502 -0.445882 0
M  V30 2894 H 269.286 -2.49702 -2.95272 0
M  V30 2895 H 270.975 -2.90034 -2.83963 0
M  V30 2896 H 271.741 -4.71349 -1.14259 0
M  V30 2897 H 267.62 -4.06142 -2.18106 0
M  V30 2898 H 271.164 -6.96868 -0.319542 0
M  V30 2899 H 267.061 -6.30937 -1.36342 0
M  V30 2900 H 267.829 -8.1727 -0.448493 0
M  V30 2901 N 270.492 0.636531 -1.44174 0
M  V30 2902 C 271.422 1.76003 -1.53444 0
M  V30 2903 C 272.403 1.65619 -0.387841 0
M  V30 2904 O 273.588 1.84461 -0.607257 0
M  V30 2905 C 270.718 3.14511 -1.4731 0
M  V30 2906 C 269.672 3.39677 -2.60391 0
M  V30 2907 C 268.998 4.78159 -2.39308 0
M  V30 2908 C 270.298 3.32772 -4.02567 0
M  V30 2909 H 271.992 1.68501 -2.47483 0
M  V30 2910 H 269.538 0.809237 -1.19111 0
M  V30 2911 H 271.491 3.92878 -1.52397 0
M  V30 2912 H 270.215 3.22783 -0.49785 0
M  V30 2913 H 268.874 2.63688 -2.54684 0
M  V30 2914 H 268.522 4.83128 -1.39988 0
M  V30 2915 H 268.222 4.95956 -3.15122 0
M  V30 2916 H 269.746 5.58762 -2.46205 0
M  V30 2917 H 271.16 4.01051 -4.09672 0
M  V30 2918 H 269.557 3.62104 -4.7854 0
M  V30 2919 H 270.627 2.30669 -4.2652 0
M  V30 2920 N 271.97 1.30982 0.876444 0
M  V30 2921 C 272.9 1.20668 1.99903 0
M  V30 2922 C 273.881 0.095354 1.69833 0
M  V30 2923 O 275.066 0.27885 1.92188 0
M  V30 2924 C 272.196 0.90655 3.3526 0
M  V30 2925 C 271.15 1.97675 3.79617 0
M  V30 2926 C 270.476 1.52943 5.1236 0
M  V30 2927 C 271.776 3.389 3.97422 0
M  V30 2928 H 273.47 2.14586 2.0879 0
M  V30 2929 H 271.016 1.03308 1.00317 0
M  V30 2930 H 272.969 0.821025 4.13324 0
M  V30 2931 H 271.693 -0.0682969 3.26529 0
M  V30 2932 H 270.352 2.05205 3.03787 0
M  V30 2933 H 270 0.54262 5.00065 0
M  V30 2934 H 269.7 2.24532 5.43009 0
M  V30 2935 H 271.224 1.45786 5.92941 0
M  V30 2936 H 272.638 3.34081 4.659 0
M  V30 2937 H 271.035 4.0865 4.3946 0
M  V30 2938 H 272.105 3.80163 3.01006 0
M  V30 2939 N 273.449 -1.08991 1.13837 0
M  V30 2940 C 274.726 -1.77863 0.813876 0
M  V30 2941 C 275.106 -1.99375 -0.693746 0
M  V30 2942 O 274.454 -1.59875 -1.63255 0
M  V30 2943 C 274.664 -3.0986 1.60586 0
M  V30 2944 C 276.012 -3.84493 1.8014 0
M  V30 2945 O 277.036 -3.19624 1.57222 0
M  V30 2946 O 275.895 -5.00957 2.18413 0
M  V30 2947 H 272.989 -0.771589 0.297624 0
M  V30 2948 H 275.535 -1.15507 1.24323 0
M  V30 2949 H 274.307 -2.89715 2.63022 0
M  V30 2950 H 273.93 -3.79942 1.17173 0
M  V30 2951 N 274.927 -0.932562 -1.27047 0
M  V30 2952 C 276.155 -0.592031 -1.98249 0
M  V30 2953 C 276.57 0.831062 -1.69525 0
M  V30 2954 O 275.927 1.55299 -0.958561 0
M  V30 2955 C 275.978 -0.814279 -3.5221 0
M  V30 2956 O 275.699 -2.18139 -3.7993 0
M  V30 2957 C 277.2 -0.483121 -4.4066 0
M  V30 2958 H 274.42 -0.223896 -0.632544 0
M  V30 2959 H 276.964 -1.25091 -1.61779 0
M  V30 2960 H 275.119 -0.20213 -3.86872 0
M  V30 2961 H 275.533 -2.235 -4.74498 0
M  V30 2962 H 277.007 -0.689298 -5.47679 0
M  V30 2963 H 277.484 0.581546 -4.35333 0
M  V30 2964 H 278.09 -1.07362 -4.11526 0
M  V30 2965 N 276.405 1.4127 -0.698611 0
M  V30 2966 C 277.63 2.06024 -0.238512 0
M  V30 2967 C 278.055 1.5224 1.10475 0
M  V30 2968 O 277.413 0.650623 1.69223 0
M  V30 2969 C 277.461 3.59988 -0.209952 0
M  V30 2970 O 276.565 4.04282 0.814235 0
M  V30 2971 H 275.906 0.653829 -0.115775 0
M  V30 2972 H 278.436 1.8098 -0.954326 0
M  V30 2973 H 278.446 4.07979 -0.0418436 0
M  V30 2974 H 277.121 3.98503 -1.1903 0
M  V30 2975 H 275.698 3.6779 0.615234 0
M  V30 2976 N 277.883 0.443576 1.51229 0
M  V30 2977 C 279.132 -0.122332 2.01329 0
M  V30 2978 C 279.445 -1.43237 1.33201 0
M  V30 2979 O 280.651 -2.0816 1.74304 0
M  V30 2980 C 279.107 -0.268551 3.58897 0
M  V30 2981 C 278.715 1.03142 4.35965 0
M  V30 2982 C 280.459 -0.787894 4.17124 0
M  V30 2983 C 278.366 0.850504 5.85252 0
M  V30 2984 H 277.296 -0.0494929 0.752374 0
M  V30 2985 H 279.947 0.574289 1.74282 0
M  V30 2986 H 278.329 -1.02832 3.82415 0
M  V30 2987 H 279.503 1.80001 4.24189 0
M  V30 2988 H 277.818 1.47977 3.89219 0
M  V30 2989 H 280.415 -0.939841 5.26375 0
M  V30 2990 H 280.758 -1.77201 3.76703 0
M  V30 2991 H 281.291 -0.0862669 3.97706 0
M  V30 2992 H 278.03 1.80718 6.30096 0
M  V30 2993 H 277.55 0.121825 5.99676 0
M  V30 2994 H 279.229 0.506163 6.45017 0
M  V30 2995 N 279.361 -1.56624 0.175154 0
M  V30 2996 C 280.293 -2.15333 -0.785128 0
M  V30 2997 C 281.306 -1.1099 -1.19101 0
M  V30 2998 O 282.495 -1.38162 -1.13019 0
M  V30 2999 C 279.595 -2.68427 -2.06882 0
M  V30 3000 C 278.768 -3.97466 -1.8259 0
M  V30 3001 C 277.827 -4.35585 -2.95215 0
M  V30 3002 O 276.853 -5.03389 -2.65684 0
M  V30 3003 N 278.055 -3.97457 -4.23094 0
M  V30 3004 H 280.82 -2.98359 -0.283187 0
M  V30 3005 H 278.381 -1.61898 -0.00749817 0
M  V30 3006 H 280.373 -2.90924 -2.81328 0
M  V30 3007 H 278.943 -1.89968 -2.48256 0
M  V30 3008 H 278.163 -3.83307 -0.920287 0
M  V30 3009 H 279.451 -4.81736 -1.63733 0
M  V30 3010 H 278.849 -3.42878 -4.49945 0
M  V30 3011 H 277.406 -4.24947 -4.9423 0
M  V30 3012 N 280.839 0.0985539 -1.57292 0
M  V30 3013 C 282.064 0.820196 -1.90493 0
M  V30 3014 C 282.489 1.71658 -0.769094 0
M  V30 3015 O 281.847 1.79133 0.279495 0
M  V30 3016 C 281.895 1.61242 -3.22542 0
M  V30 3017 O 280.999 2.72108 -3.09888 0
M  V30 3018 H 280.34 0.225547 -0.62452 0
M  V30 3019 H 282.87 0.0748159 -2.04463 0
M  V30 3020 H 282.88 1.99737 -3.55766 0
M  V30 3021 H 281.555 0.954535 -4.04798 0
M  V30 3022 H 280.132 2.36667 -2.88172 0
M  V30 3023 N 282.317 1.53212 0.369288 0
M  V30 3024 C 283.594 1.59815 1.12776 0
M  V30 3025 C 283.974 0.403402 2.0721 0
M  V30 3026 O 283.322 -0.606667 2.20299 0
M  V30 3027 C 283.532 2.94664 1.87013 0
M  V30 3028 C 284.88 3.49109 2.41677 0
M  V30 3029 O 285.904 2.96669 1.97144 0
M  V30 3030 O 284.763 4.40775 3.23079 0
M  V30 3031 H 281.857 0.645376 0.517125 0
M  V30 3032 H 284.403 1.65553 0.37285 0
M  V30 3033 H 283.175 3.73061 1.18071 0
M  V30 3034 H 282.798 2.92401 2.69421 0
M  V30 3035 N 283.795 -0.628877 1.44509 0
M  V30 3036 C 284.745 -1.7345 1.47983 0
M  V30 3037 C 285.729 -1.5715 0.345373 0
M  V30 3038 O 286.921 -1.66848 0.590829 0
M  V30 3039 C 284.05 -3.12143 1.42904 0
M  V30 3040 C 283.136 -3.33906 2.61472 0
M  V30 3041 N 283.527 -3.26024 3.86706 0
M  V30 3042 C 281.825 -3.64709 2.56716 0
M  V30 3043 C 282.526 -3.48536 4.65722 0
M  V30 3044 N 281.502 -3.71517 3.96832 0
M  V30 3045 H 285.304 -1.65818 2.42655 0
M  V30 3046 H 282.818 -0.831419 1.39503 0
M  V30 3047 H 284.815 -3.91433 1.43476 0
M  V30 3048 H 283.475 -3.2094 0.492717 0
M  V30 3049 H 284.486 -3.04893 4.18641 0
M  V30 3050 H 281.163 -3.80473 1.71891 0
M  V30 3051 H 282.553 -3.48016 5.74747 0
M  V30 3052 N 285.273 -1.31445 -0.869486 0
M  V30 3053 C 286.689 -1.10113 -1.15531 0
M  V30 3054 C 286.889 0.128087 -2.01092 0
M  V30 3055 O 285.945 0.817276 -2.38908 0
M  V30 3056 C 287.258 -2.37291 -1.84698 0
M  V30 3057 C 288.806 -2.42906 -1.97397 0
M  V30 3058 C 289.281 -3.69967 -2.69979 0
M  V30 3059 N 290.772 -3.70864 -2.77514 0
M  V30 3060 C 291.507 -4.65875 -3.34287 0
M  V30 3061 N 291.003 -5.71242 -3.91988 0
M  V30 3062 N 292.796 -4.53394 -3.3225 0
M  V30 3063 H 284.947 -2.1028 -0.299347 0
M  V30 3064 H 287.21 -0.927683 -0.195214 0
M  V30 3065 H 286.916 -3.27078 -1.29278 0
M  V30 3066 H 286.79 -2.47125 -2.84972 0
M  V30 3067 H 289.177 -1.53588 -2.51982 0
M  V30 3068 H 289.258 -2.37036 -0.961643 0
M  V30 3069 H 288.902 -4.59652 -2.16062 0
M  V30 3070 H 288.832 -3.73103 -3.7162 0
M  V30 3071 H 291.323 -2.94697 -2.36563 0
M  V30 3072 H 291.636 -6.39817 -4.33421 0
M  V30 3073 H 289.981 -5.75015 -3.90362 0
M  V30 3074 H 293.172 -3.70252 -2.8641 0
M  V30 3075 H 293.345 -5.27617 -3.76197 0
M  V30 3076 N 286.751 1.08385 -1.14413 0
M  V30 3077 C 287.661 2.18856 -0.844951 0
M  V30 3078 C 288.677 1.73121 0.174668 0
M  V30 3079 O 289.853 2.014 0.00312857 0
M  V30 3080 C 286.918 3.45155 -0.32696 0
M  V30 3081 C 285.979 4.05513 -1.40916 0
M  V30 3082 C 285.212 5.25784 -0.915793 0
M  V30 3083 O 285.435 5.69884 0.242651 0
M  V30 3084 O 284.369 5.77545 -1.69487 0
M  V30 3085 H 288.195 2.46919 -1.76818 0
M  V30 3086 H 285.78 1.17524 -0.922411 0
M  V30 3087 H 287.662 4.21377 -0.0440211 0
M  V30 3088 H 286.337 3.18668 0.568539 0
M  V30 3089 H 285.244 3.30879 -1.74556 0
M  V30 3090 H 286.577 4.3625 -2.27919 0
M  V30 3091 N 288.23 0.939286 1.26551 0
M  V30 3092 C 289.479 0.581601 1.93133 0
M  V30 3093 C 289.792 -0.883224 1.74524 0
M  V30 3094 O 290.998 -1.3502 2.35546 0
M  V30 3095 C 289.454 0.989425 3.46032 0
M  V30 3096 C 289.062 2.47573 3.73379 0
M  V30 3097 C 290.806 0.703544 4.18629 0
M  V30 3098 C 288.713 2.82235 5.19709 0
M  V30 3099 H 287.643 0.213803 0.723052 0
M  V30 3100 H 290.294 1.14167 1.4366 0
M  V30 3101 H 288.676 0.357902 3.94379 0
M  V30 3102 H 289.85 3.15614 3.35744 0
M  V30 3103 H 288.165 2.73471 3.1401 0
M  V30 3104 H 290.762 0.938869 5.26393 0
M  V30 3105 H 291.105 -0.359639 4.14744 0
M  V30 3106 H 291.638 1.2947 3.76141 0
M  V30 3107 H 288.377 3.87509 5.28694 0
M  V30 3108 H 287.897 2.18854 5.58447 0
M  V30 3109 H 289.576 2.70599 5.87695 0
M  V30 3110 N 289.708 -1.40897 0.706093 0
M  V30 3111 C 290.618 -2.3455 0.0482286 0
M  V30 3112 C 291.634 -1.56796 -0.754396 0
M  V30 3113 O 292.81 -1.89228 -0.689538 0
M  V30 3114 C 289.875 -3.35625 -0.869303 0
M  V30 3115 C 288.936 -4.29261 -0.0576994 0
M  V30 3116 C 288.169 -5.25508 -0.931531 0
M  V30 3117 O 288.392 -5.27472 -2.17092 0
M  V30 3118 O 287.326 -6.00727 -0.375587 0
M  V30 3119 H 291.152 -2.92407 0.820476 0
M  V30 3120 H 288.737 -1.4193 0.4665 0
M  V30 3121 H 290.619 -3.97635 -1.39514 0
M  V30 3122 H 289.294 -2.80196 -1.62086 0
M  V30 3123 H 288.201 -3.70566 0.512988 0
M  V30 3124 H 289.534 -4.87817 0.655426 0
M  V30 3125 N 291.186 -0.45159 -1.50991 0
M  V30 3126 C 292.434 0.109857 -2.01801 0
M  V30 3127 C 292.755 1.41958 -1.3369 0
M  V30 3128 O 292.025 1.9003 -0.475951 0
M  V30 3129 H 290.605 0.0435884 -0.745727 0
M  V30 3130 H 293.267 -0.597557 -1.85514 0
M  V30 3131 H 292.363 0.275489 -3.10882 0
M  V30 3132 N 292.664 1.56529 -0.183458 0
M  V30 3133 C 294.08 1.58664 0.172554 0
M  V30 3134 C 294.28 1.19925 1.61926 0
M  V30 3135 O 293.336 0.916534 2.35278 0
M  V30 3136 C 294.649 3.00463 -0.119262 0
M  V30 3137 C 296.197 3.12945 -0.0584396 0
M  V30 3138 C 296.672 4.56857 -0.323408 0
M  V30 3139 N 298.163 4.62403 -0.271612 0
M  V30 3140 C 298.898 5.71626 -0.450639 0
M  V30 3141 N 298.394 6.89362 -0.689384 0
M  V30 3142 N 300.187 5.60775 -0.385701 0
M  V30 3143 H 292.338 1.79994 -1.12765 0
M  V30 3144 H 294.601 0.834808 -0.449222 0
M  V30 3145 H 294.307 3.33326 -1.12192 0
M  V30 3146 H 294.181 3.72659 0.583544 0
M  V30 3147 H 296.568 2.79902 0.934805 0
M  V30 3148 H 296.649 2.4316 -0.794144 0
M  V30 3149 H 296.293 4.9061 -1.31392 0
M  V30 3150 H 296.223 5.24816 0.43305 0
M  V30 3151 H 298.714 3.77785 -0.0932256 0
M  V30 3152 H 299.027 7.68489 -0.815113 0
M  V30 3153 H 297.372 6.91196 -0.726142 0
M  V30 3154 H 300.563 4.67674 -0.199687 0
M  V30 3155 H 300.736 6.4584 -0.528646 0
M  V30 3156 N 294.142 -0.090211 1.57342 0
M  V30 3157 C 295.388 -0.793982 1.86611 0
M  V30 3158 C 295.721 -1.78142 0.773252 0
M  V30 3159 O 294.996 -1.93271 -0.218304 0
M  V30 3160 C 295.279 -1.51839 3.26523 0
M  V30 3161 C 295.132 -0.548609 4.46442 0
M  V30 3162 C 296.451 -2.46779 3.64401 0
M  V30 3163 H 293.57 -0.287186 0.678744 0
M  V30 3164 H 296.212 -0.0575076 1.89913 0
M  V30 3165 H 294.362 -2.14617 3.23839 0
M  V30 3166 H 296.034 0.0725513 4.61243 0
M  V30 3167 H 294.277 0.137614 4.33582 0
M  V30 3168 H 294.948 -1.09271 5.41076 0
M  V30 3169 H 297.424 -1.94089 3.68061 0
M  V30 3170 H 296.3 -2.94479 4.63221 0
M  V30 3171 H 296.561 -3.30758 2.93346 0
M  V30 3172 N 295.62 -1.53406 -0.361157 0
M  V30 3173 C 296.553 -1.74946 -1.46524 0
M  V30 3174 C 297.531 -0.59795 -1.51206 0
M  V30 3175 O 298.715 -0.831062 -1.69191 0
M  V30 3176 C 295.842 -1.83224 -2.84863 0
M  V30 3177 C 294.888 -3.05233 -2.97885 0
M  V30 3178 S 295.721 -4.6466 -2.66179 0
M  V30 3179 C 296.877 -4.75793 -4.06659 0
M  V30 3180 H 297.11 -2.68319 -1.28033 0
M  V30 3181 H 294.643 -1.44051 -0.555764 0
M  V30 3182 H 296.601 -1.88679 -3.64569 0
M  V30 3183 H 295.262 -0.908948 -3.00661 0
M  V30 3184 H 294.455 -3.07648 -3.9921 0
M  V30 3185 H 294.057 -2.97913 -2.26106 0
M  V30 3186 H 296.349 -4.5612 -5.0096 0
M  V30 3187 H 297.292 -5.7786 -4.09247 0
M  V30 3188 H 297.7 -4.04389 -3.93865 0
M  V30 3189 N 297.098 0.621204 -1.44841 0
M  V30 3190 C 298.344 1.3826 -1.48365 0
M  V30 3191 C 298.677 1.93831 -0.119624 0
M  V30 3192 O 297.952 1.74251 0.864111 0
M  V30 3193 C 298.235 2.54058 -2.55199 0
M  V30 3194 C 298.088 2.03772 -4.00995 0
M  V30 3195 C 299.407 3.56225 -2.58442 0
M  V30 3196 H 296.526 0.501374 -0.540179 0
M  V30 3197 H 299.168 0.7015 -1.76576 0
M  V30 3198 H 297.318 3.12162 -2.31274 0
M  V30 3199 H 298.99 1.50423 -4.36086 0
M  V30 3200 H 297.233 1.34876 -4.12299 0
M  V30 3201 H 297.904 2.87185 -4.71411 0
M  V30 3202 H 300.38 3.07939 -2.79844 0
M  V30 3203 H 299.256 4.34756 -3.3508 0
M  V30 3204 H 299.517 4.10949 -1.63013 0
M  V30 3205 N 298.576 1.31904 0.862503 0
M  V30 3206 C 299.804 1.24998 1.64873 0
M  V30 3207 C 300.219 -0.183425 1.87907 0
M  V30 3208 O 299.576 -1.11794 1.44251 0
M  V30 3209 C 299.627 1.99829 3.01248 0
M  V30 3210 O 299.348 3.37575 2.79239 0
M  V30 3211 C 300.849 1.99852 3.95694 0
M  V30 3212 H 298.069 0.431599 0.513773 0
M  V30 3213 H 300.613 1.73901 1.07604 0
M  V30 3214 H 298.768 1.54668 3.55185 0
M  V30 3215 H 299.182 3.75776 3.65914 0
M  V30 3216 H 300.656 2.56709 4.88676 0
M  V30 3217 H 301.133 0.982852 4.28062 0
M  V30 3218 H 301.739 2.44926 3.47694 0
M  V30 3219 N 300.054 -1.07777 1.14986 0
M  V30 3220 C 301.331 -1.7699 0.832695 0
M  V30 3221 C 301.711 -2.001 -0.672561 0
M  V30 3222 O 301.059 -1.61598 -1.6155 0
M  V30 3223 C 301.269 -3.08139 1.63863 0
M  V30 3224 C 302.617 -3.8256 1.84208 0
M  V30 3225 O 303.641 -3.17939 1.60603 0
M  V30 3226 O 302.5 -4.98612 2.23714 0
M  V30 3227 H 299.594 -0.768389 0.305791 0
M  V30 3228 H 302.14 -1.14182 1.25541 0
M  V30 3229 H 300.912 -2.86909 2.6608 0
M  V30 3230 H 300.535 -3.78678 1.21197 0
M  V30 3231 N 301.532 -0.945985 -1.26051 0
M  V30 3232 C 302.779 -0.596118 -1.93527 0
M  V30 3233 C 303.107 0.865559 -1.74179 0
M  V30 3234 O 302.362 1.63524 -1.0751 0
M  V30 3235 C 302.661 -0.890475 -3.46129 0
M  V30 3236 C 302.327 -2.3368 -3.85622 0
M  V30 3237 C 300.989 -2.73216 -3.96114 0
M  V30 3238 C 303.341 -3.27648 -4.05334 0
M  V30 3239 C 300.669 -4.05806 -4.2372 0
M  V30 3240 C 303.021 -4.59841 -4.3443 0
M  V30 3241 C 301.685 -4.99185 -4.43137 0
M  V30 3242 H 300.955 -0.218135 -0.708165 0
M  V30 3243 H 303.602 -1.1934 -1.49768 0
M  V30 3244 H 301.907 -0.210711 -3.91233 0
M  V30 3245 H 303.604 -0.598478 -3.96509 0
M  V30 3246 H 300.194 -2.02015 -3.78005 0
M  V30 3247 H 304.378 -2.98298 -3.96651 0
M  V30 3248 H 299.634 -4.35945 -4.28675 0
M  V30 3249 H 303.808 -5.32641 -4.48628 0
M  V30 3250 H 301.435 -6.01952 -4.64282 0
M  V30 3251 N 303.011 1.40521 -0.713556 0
M  V30 3252 C 303.921 2.34522 -0.0606667 0
M  V30 3253 C 304.937 1.57193 0.74607 0
M  V30 3254 O 306.113 1.89591 0.679493 0
M  V30 3255 C 303.178 3.36081 0.851491 0
M  V30 3256 C 302.239 4.29286 0.0349339 0
M  V30 3257 C 301.472 5.25994 0.903649 0
M  V30 3258 O 301.695 5.28616 2.14292 0
M  V30 3259 O 300.629 6.00918 0.343723 0
M  V30 3260 H 304.455 2.91968 -0.835972 0
M  V30 3261 H 302.04 1.41681 -0.47402 0
M  V30 3262 H 303.922 3.98369 1.37404 0
M  V30 3263 H 302.597 2.81052 1.60598 0
M  V30 3264 H 301.504 3.70289 -0.532633 0
M  V30 3265 H 302.837 4.87462 -0.681287 0
M  V30 3266 N 304.489 0.459591 1.5075 0
M  V30 3267 C 305.437 -0.354678 2.2988 0
M  V30 3268 C 306.431 -1.00086 1.36672 0
M  V30 3269 O 307.637 -0.933277 1.53915 0
M  V30 3270 H 304.012 -0.13321 0.740107 0
M  V30 3271 H 305.983 0.333269 2.96533 0
M  V30 3272 C 304.732 -1.43073 3.169 0
M  V30 3273 H 304.055 -0.942882 3.88523 0
M  V30 3274 H 305.495 -1.97328 3.75284 0
M  V30 3275 C 303.954 -2.42633 2.33732 0
M  V30 3276 O 304.484 -3.47658 2.01238 0
M  V30 3277 N 302.69 -2.14066 1.9653 0
M  V30 3278 H 302.237 -1.28685 2.23155 0
M  V30 3279 H 302.195 -2.80917 1.41185 0
M  V30 3280 N 305.967 -1.56429 0.191757 0
M  V30 3281 C 307.213 -1.97777 -0.448554 0
M  V30 3282 C 307.546 -1.07847 -1.61501 0
M  V30 3283 O 306.821 -0.129774 -1.94067 0
M  V30 3284 C 307.104 -3.48362 -0.911906 0
M  V30 3285 C 306.957 -4.4907 0.256136 0
M  V30 3286 C 308.276 -4.02561 -1.77857 0
M  V30 3287 H 305.395 -0.719071 -0.161572 0
M  V30 3288 H 308.037 -1.87896 0.282007 0
M  V30 3289 H 306.187 -3.56914 -1.53442 0
M  V30 3290 H 307.859 -4.5256 0.893733 0
M  V30 3291 H 306.102 -4.24181 0.908436 0
M  V30 3292 H 306.773 -5.51889 -0.11053 0
M  V30 3293 H 309.249 -3.96767 -1.25359 0
M  V30 3294 H 308.125 -5.08301 -2.07174 0
M  V30 3295 H 308.386 -3.47616 -2.73158 0
M  V30 3296 N 307.445 0.0818655 -1.57387 0
M  V30 3297 C 308.856 0.634871 -1.75574 0
M  V30 3298 C 309.207 1.78435 -0.815809 0
M  V30 3299 O 308.332 2.164 0.0025366 0
M  V30 3300 C 308.927 1.15845 -3.18379 0
M  V30 3301 C 307.486 1.65741 -3.37945 0
M  V30 3302 C 306.633 0.572549 -2.71325 0
M  V30 3303 H 309.584 -0.144268 -1.58043 0
M  V30 3304 H 309.605 2.02751 -3.21982 0
M  V30 3305 H 309.117 0.321631 -3.86765 0
M  V30 3306 H 307.218 2.51781 -2.74658 0
M  V30 3307 H 307.331 1.74129 -4.46336 0
M  V30 3308 H 305.695 1.01518 -2.33594 0
M  V30 3309 H 306.478 -0.253918 -3.4236 0
M  V30 3310 N 308.923 1.53595 0.353017 0
M  V30 3311 C 309.833 1.83897 1.45667 0
M  V30 3312 C 310.849 0.728334 1.58023 0
M  V30 3313 O 312.025 1.01968 1.73679 0
M  V30 3314 C 309.09 2.03383 2.80778 0
M  V30 3315 C 308.151 3.27262 2.77845 0
M  V30 3316 C 307.384 3.45809 4.06512 0
M  V30 3317 O 307.607 2.68387 5.03314 0
M  V30 3318 O 306.541 4.39207 4.11559 0
M  V30 3319 H 310.367 2.77686 1.2298 0
M  V30 3320 H 307.952 1.39132 0.544308 0
M  V30 3321 H 309.834 2.17698 3.60812 0
M  V30 3322 H 308.509 1.12783 3.03417 0
M  V30 3323 H 307.416 3.18359 1.96465 0
M  V30 3324 H 308.749 4.17824 2.60161 0
M  V30 3325 N 310.401 -0.613514 1.45168 0
M  V30 3326 C 311.311 -1.75296 1.55912 0
M  V30 3327 C 312.327 -1.68244 0.443856 0
M  V30 3328 O 313.503 -1.88706 0.70371 0
M  V30 3329 C 310.568 -3.1174 1.5172 0
M  V30 3330 C 309.629 -3.30291 2.74238 0
M  V30 3331 C 308.862 -4.60226 2.70236 0
M  V30 3332 O 309.085 -5.42168 1.77229 0
M  V30 3333 O 308.019 -4.81361 3.61352 0
M  V30 3334 H 311.845 -1.69183 2.52212 0
M  V30 3335 H 309.43 -0.776886 1.27612 0
M  V30 3336 H 311.312 -3.93044 1.51968 0
M  V30 3337 H 309.987 -3.18357 0.585697 0
M  V30 3338 H 308.894 -2.48598 2.79553 0
M  V30 3339 H 310.227 -3.28547 3.66494 0
M  V30 3340 N 311.879 -1.3236 -0.855495 0
M  V30 3341 C 313.156 -1.13491 -1.59309 0
M  V30 3342 C 313.536 0.30503 -2.08885 0
M  V30 3343 O 312.884 1.30151 -1.87811 0
M  V30 3344 C 313.094 -2.16176 -2.73987 0
M  V30 3345 C 314.442 -2.49463 -3.43589 0
M  V30 3346 O 315.466 -2.14715 -2.84211 0
M  V30 3347 O 314.325 -3.09027 -4.50738 0
M  V30 3348 H 311.419 -0.437887 -0.701559 0
M  V30 3349 H 313.965 -1.43887 -0.899696 0
M  V30 3350 H 312.737 -3.1297 -2.34873 0
M  V30 3351 H 312.36 -1.86769 -3.51003 0
M  V30 3352 N 313.357 1.07166 -1.15556 0
M  V30 3353 C 314.605 1.79443 -0.929764 0
M  V30 3354 C 314.926 1.87246 0.544414 0
M  V30 3355 O 314.196 1.37473 1.39564 0
M  V30 3356 H 312.776 0.664625 -0.341003 0
M  V30 3357 H 315.438 1.29499 -1.45657 0
M  V30 3358 H 314.534 2.81832 -1.34079 0
M  V30 3359 N 314.835 0.952656 1.25548 0
M  V30 3360 C 316.063 0.623496 1.97282 0
M  V30 3361 C 316.478 -0.803987 1.70826 0
M  V30 3362 O 315.835 -1.53755 0.983147 0
M  V30 3363 C 315.886 0.870209 3.5087 0
M  V30 3364 O 315.607 2.24156 3.76412 0
M  V30 3365 C 317.108 0.553164 4.39835 0
M  V30 3366 H 314.328 0.233931 0.628902 0
M  V30 3367 H 316.872 1.27649 1.59768 0
M  V30 3368 H 315.027 0.263652 3.86502 0
M  V30 3369 H 315.441 2.31021 4.70882 0
M  V30 3370 H 316.915 0.776342 5.46513 0
M  V30 3371 H 317.392 -0.512215 4.36203 0
M  V30 3372 H 317.998 1.13896 4.09766 0
M  V30 3373 N 316.313 -1.40141 0.720998 0
M  V30 3374 C 317.729 -1.54632 0.395113 0
M  V30 3375 C 317.929 -1.69115 -1.09555 0
M  V30 3376 O 316.985 -1.68377 -1.88163 0
M  V30 3377 C 318.298 -2.77177 1.1659 0
M  V30 3378 C 319.846 -2.91 1.15274 0
M  V30 3379 C 320.321 -4.16465 1.90579 0
M  V30 3380 N 321.812 -4.23476 1.87675 0
M  V30 3381 C 322.547 -5.19475 2.42762 0
M  V30 3382 N 322.043 -6.21348 3.06428 0
M  V30 3383 N 323.836 -5.11592 2.32874 0
M  V30 3384 H 315.987 -1.28986 1.68749 0
M  V30 3385 H 318.25 -0.62412 0.713567 0
M  V30 3386 H 317.956 -2.72771 2.22011 0
M  V30 3387 H 317.83 -3.69442 0.76108 0
M  V30 3388 H 320.217 -2.94907 0.106702 0
M  V30 3389 H 320.298 -1.99838 1.59682 0
M  V30 3390 H 319.942 -4.1332 2.95176 0
M  V30 3391 H 319.872 -5.06646 1.43587 0
M  V30 3392 H 322.363 -3.50497 1.41281 0
M  V30 3393 H 322.676 -6.91034 3.45965 0
M  V30 3394 H 321.021 -6.21777 3.10514 0
M  V30 3395 H 324.212 -4.30936 1.82789 0
M  V30 3396 H 324.385 -5.86233 2.76106 0
M  V30 3397 N 317.792 -0.46758 -1.50504 0
M  V30 3398 C 319.039 0.0886219 -2.02306 0
M  V30 3399 C 319.367 1.40037 -1.34981 0
M  V30 3400 O 318.622 1.90136 -0.463318 0
M  V30 3401 C 318.921 0.323995 -3.55928 0
M  V30 3402 C 318.587 -0.905618 -4.41712 0
M  V30 3403 C 317.249 -1.24275 -4.64875 0
M  V30 3404 C 319.601 -1.72448 -4.91845 0
M  V30 3405 C 316.929 -2.39888 -5.35417 0
M  V30 3406 C 319.281 -2.87185 -5.63656 0
M  V30 3407 C 317.945 -3.21317 -5.85074 0
M  V30 3408 H 317.215 0.0324291 -0.74029 0
M  V30 3409 H 319.862 -0.620945 -1.81153 0
M  V30 3410 H 318.167 1.11577 -3.75577 0
M  V30 3411 H 319.864 0.76826 -3.93572 0
M  V30 3412 H 316.454 -0.632956 -4.239 0
M  V30 3413 H 320.638 -1.4772 -4.73806 0
M  V30 3414 H 315.894 -2.66611 -5.50208 0
M  V30 3415 H 320.068 -3.50985 -6.01484 0
M  V30 3416 H 317.695 -4.1101 -6.39511 0
M  V30 3417 N 319.27 1.56325 -0.20005 0
M  V30 3418 C 320.22 2.15939 0.731743 0
M  V30 3419 C 321.204 1.10154 1.17281 0
M  V30 3420 O 322.396 1.36203 1.13038 0
M  V30 3421 C 319.525 2.82614 1.94895 0
M  V30 3422 C 318.611 3.95596 1.52855 0
M  V30 3423 N 319.002 4.99118 0.819418 0
M  V30 3424 C 317.3 4.07288 1.81748 0
M  V30 3425 C 318.001 5.78513 0.608053 0
M  V30 3426 N 316.977 5.31117 1.15828 0
M  V30 3427 H 320.779 2.9334 0.181285 0
M  V30 3428 H 318.293 1.624 -0.000452172 0
M  V30 3429 H 320.29 3.23718 2.62702 0
M  V30 3430 H 318.95 2.06702 2.50408 0
M  V30 3431 H 319.961 5.15723 0.47436 0
M  V30 3432 H 316.638 3.42509 2.38734 0
M  V30 3433 H 318.028 6.71885 0.0451619 0
M  V30 3434 N 320.748 -0.0735177 1.57428 0
M  V30 3435 C 322.164 -0.428264 1.53747 0
M  V30 3436 C 322.364 -1.79272 0.91998 0
M  V30 3437 O 321.42 -2.47051 0.521745 0
M  V30 3438 C 322.733 -0.370914 2.98404 0
M  V30 3439 C 324.281 -0.451224 3.0973 0
M  V30 3440 C 324.756 -0.4238 4.56035 0
M  V30 3441 N 326.247 -0.483925 4.60665 0
M  V30 3442 C 326.982 -0.484891 5.71346 0
M  V30 3443 N 326.478 -0.440775 6.91396 0
M  V30 3444 N 328.271 -0.531319 5.59583 0
M  V30 3445 H 320.422 0.819949 1.95935 0
M  V30 3446 H 322.685 0.307493 0.896745 0
M  V30 3447 H 322.391 0.564956 3.47133 0
M  V30 3448 H 322.265 -1.18176 3.5821 0
M  V30 3449 H 324.652 -1.37752 2.60976 0
M  V30 3450 H 324.733 0.388167 2.52838 0
M  V30 3451 H 324.377 0.498638 5.05446 0
M  V30 3452 H 324.307 -1.2807 5.10789 0
M  V30 3453 H 326.798 -0.522338 3.74273 0
M  V30 3454 H 327.111 -0.44539 7.71515 0
M  V30 3455 H 325.456 -0.40749 6.93804 0
M  V30 3456 H 328.647 -0.563464 4.64696 0
M  V30 3457 H 328.82 -0.528603 6.4584 0
M  V30 3458 N 322.226 -1.5378 -0.344866 0
M  V30 3459 C 323.158 -1.77988 -1.44406 0
M  V30 3460 C 324.171 -0.661138 -1.48771 0
M  V30 3461 O 325.36 -0.937842 -1.51877 0
M  V30 3462 C 322.46 -1.86345 -2.8307 0
M  V30 3463 C 321.633 -3.16256 -3.0216 0
M  V30 3464 C 320.692 -3.15588 -4.21059 0
M  V30 3465 O 319.718 -3.89314 -4.15239 0
M  V30 3466 N 320.92 -2.37864 -5.29529 0
M  V30 3467 H 323.685 -2.72839 -1.24012 0
M  V30 3468 H 321.246 -1.52814 -0.534737 0
M  V30 3469 H 323.238 -1.83351 -3.60783 0
M  V30 3470 H 321.808 -0.986858 -2.96614 0
M  V30 3471 H 321.028 -3.32385 -2.11929 0
M  V30 3472 H 322.316 -4.0207 -3.11797 0
M  V30 3473 H 321.714 -1.77514 -5.37127 0
M  V30 3474 H 320.271 -2.40668 -6.05741 0
M  V30 3475 N 323.704 0.605807 -1.45491 0
M  V30 3476 C 324.667 1.69836 -1.5391 0
M  V30 3477 C 325.667 1.55261 -0.418424 0
M  V30 3478 O 326.857 1.60296 -0.681965 0
M  V30 3479 C 323.989 3.09117 -1.43734 0
M  V30 3480 H 325.182 1.63738 -2.51257 0
M  V30 3481 H 322.735 0.821689 -1.32959 0
M  V30 3482 H 323.47 3.20791 -0.475788 0
M  V30 3483 H 323.255 3.21104 -2.25021 0
M  V30 3484 H 324.745 3.88696 -1.52661 0
M  V30 3485 N 325.182 1.32811 0.848464 0
M  V30 3486 C 326.407 1.26882 1.6406 0
M  V30 3487 C 326.832 -0.15913 1.87426 0
M  V30 3488 O 326.19 -1.11258 1.43148 0
M  V30 3489 C 326.238 2.03997 2.97351 0
M  V30 3490 O 325.342 1.39201 3.88197 0
M  V30 3491 H 324.683 0.436982 0.499943 0
M  V30 3492 H 327.213 1.75224 1.0563 0
M  V30 3493 H 327.223 2.14403 3.47124 0
M  V30 3494 H 325.898 3.0783 2.79666 0
M  V30 3495 H 324.475 1.37381 3.46671 0
M  V30 3496 N 326.66 -1.06551 1.16123 0
M  V30 3497 C 327.607 -2.13961 0.865414 0
M  V30 3498 C 328.577 -1.65066 -0.185055 0
M  V30 3499 O 329.762 -1.90732 -0.05083 0
M  V30 3500 C 326.902 -3.43113 0.369776 0
M  V30 3501 C 326.015 -4.05756 1.48276 0
M  V30 3502 C 325.15 -5.22773 0.942414 0
M  V30 3503 C 324.189 -5.77395 2.03179 0
M  V30 3504 N 323.326 -6.85731 1.50721 0
M  V30 3505 H 328.166 -2.38605 1.78527 0
M  V30 3506 H 325.703 -1.17072 0.890646 0
M  V30 3507 H 327.661 -4.17151 0.0640643 0
M  V30 3508 H 326.291 -3.18695 -0.513143 0
M  V30 3509 H 325.343 -3.29292 1.9045 0
M  V30 3510 H 326.655 -4.42351 2.30493 0
M  V30 3511 H 325.809 -6.03827 0.589729 0
M  V30 3512 H 324.548 -4.87618 0.0895191 0
M  V30 3513 H 323.553 -4.94981 2.3932 0
M  V30 3514 H 324.778 -6.14603 2.8886 0
M  V30 3515 H 322.724 -6.52499 0.676811 0
M  V30 3516 H 322.641 -7.21254 2.26557 0
M  V30 3517 H 323.909 -7.7047 1.18303 0
M  V30 3518 N 328.138 -0.959301 -1.25041 0
M  V30 3519 C 329.378 -0.624343 -1.94631 0
M  V30 3520 C 329.742 0.82403 -1.73418 0
M  V30 3521 O 330.943 1.26881 -2.3697 0
M  V30 3522 C 329.214 -0.978805 -3.43736 0
M  V30 3523 S 330.773 -0.757127 -4.32219 0
M  V30 3524 H 327.591 -0.229327 -0.673001 0
M  V30 3525 H 330.193 -1.23447 -1.51595 0
M  V30 3526 H 328.897 -2.02997 -3.56679 0
M  V30 3527 H 328.428 -0.359117 -3.91757 0
M  V30 3528 H 330.443 0.369759 -4.9482 0
M  V30 3529 N 329.616 1.39756 -0.72842 0
M  V30 3530 C 330.893 1.94574 -0.200079 0
M  V30 3531 C 331.273 1.66569 1.29684 0
M  V30 3532 O 330.621 0.990326 2.05924 0
M  V30 3533 C 330.831 3.45004 -0.526608 0
M  V30 3534 C 332.179 4.21965 -0.472318 0
M  V30 3535 O 333.203 3.53173 -0.463413 0
M  V30 3536 O 332.062 5.44552 -0.461075 0
M  V30 3537 H 329.156 0.826289 -0.0342851 0
M  V30 3538 H 331.702 1.49293 -0.806829 0
M  V30 3539 H 330.474 3.58796 -1.56144 0
M  V30 3540 H 330.097 3.97449 0.109449 0
M  V30 3541 N 331.094 0.475555 1.50254 0
M  V30 3542 C 332.319 -0.0777042 2.07254 0
M  V30 3543 C 332.744 -1.3235 1.3366 0
M  V30 3544 O 332.102 -1.77152 0.385597 0
M  V30 3545 C 332.15 -0.340169 3.58992 0
M  V30 3546 O 331.254 -1.41982 3.87188 0
M  V30 3547 H 330.595 0.0149556 0.663832 0
M  V30 3548 H 333.125 0.667878 1.93392 0
M  V30 3549 H 333.135 -0.579332 4.03866 0
M  V30 3550 H 331.81 0.570167 4.11973 0
M  V30 3551 H 330.387 -1.16762 3.54148 0
M  V30 3552 N 332.573 -1.56217 0.208337 0
M  V30 3553 C 333.523 -2.16324 -0.720281 0
M  V30 3554 C 334.507 -1.10775 -1.16695 0
M  V30 3555 O 335.699 -1.36801 -1.12314 0
M  V30 3556 C 332.828 -2.83644 -1.93393 0
M  V30 3557 C 331.914 -3.96401 -1.50755 0
M  V30 3558 N 332.305 -4.99546 -0.792937 0
M  V30 3559 C 330.603 -4.08246 -1.79585 0
M  V30 3560 C 331.304 -5.78828 -0.577364 0
M  V30 3561 N 330.28 -5.31723 -1.1301 0
M  V30 3562 H 334.082 -2.93432 -0.165725 0
M  V30 3563 H 331.596 -1.62397 0.00906463 0
M  V30 3564 H 333.593 -3.25107 -2.60981 0
M  V30 3565 H 332.253 -2.08027 -2.49308 0
M  V30 3566 H 333.264 -5.15967 -0.447004 0
M  V30 3567 H 329.941 -3.4377 -2.36915 0
M  V30 3568 H 331.331 -6.71899 -0.00952956 0
M  V30 3569 N 334.051 0.0651679 -1.57465 0
M  V30 3570 C 335.299 0.761555 -1.87202 0
M  V30 3571 C 335.62 1.77778 -0.801243 0
M  V30 3572 O 334.89 1.95166 0.16937 0
M  V30 3573 H 333.47 0.284251 -0.690804 0
M  V30 3574 H 336.132 0.0396827 -1.9486 0
M  V30 3575 H 335.228 1.27365 -2.84929 0
M  V30 3576 N 335.529 1.53961 0.336706 0
M  V30 3577 C 336.757 1.75483 1.09605 0
M  V30 3578 C 337.172 0.4972 1.82136 0
M  V30 3579 O 336.529 -0.53149 1.74589 0
M  V30 3580 C 336.58 2.93943 2.10428 0
M  V30 3581 O 336.301 4.14842 1.40846 0
M  V30 3582 C 337.802 3.27571 2.98684 0
M  V30 3583 H 335.022 0.586166 0.326574 0
M  V30 3584 H 337.566 2.00808 0.38683 0
M  V30 3585 H 335.721 2.70929 2.76905 0
M  V30 3586 H 336.135 4.81383 2.08255 0
M  V30 3587 H 337.609 4.13791 3.6535 0
M  V30 3588 H 338.086 2.44168 3.65074 0
M  V30 3589 H 338.692 3.52615 2.37787 0
M  V30 3590 N 337.007 -0.598083 1.45811 0
M  V30 3591 C 337.957 -1.70272 1.51629 0
M  V30 3592 C 338.941 -1.56382 0.378629 0
M  V30 3593 O 340.133 -1.65557 0.626087 0
M  V30 3594 C 337.262 -3.09042 1.49493 0
M  V30 3595 C 336.348 -3.28284 2.68496 0
M  V30 3596 N 336.739 -3.17748 3.93535 0
M  V30 3597 C 335.037 -3.59182 2.64394 0
M  V30 3598 C 335.738 -3.38579 4.7301 0
M  V30 3599 N 334.714 -3.63016 4.04624 0
M  V30 3600 H 338.516 -1.60634 2.46118 0
M  V30 3601 H 336.03 -0.801642 1.41235 0
M  V30 3602 H 338.027 -3.88302 1.51747 0
M  V30 3603 H 336.687 -3.19823 0.560683 0
M  V30 3604 H 337.698 -2.95944 4.25014 0
M  V30 3605 H 334.375 -3.76742 1.79922 0
M  V30 3606 H 335.765 -3.35747 5.82 0
M  V30 3607 N 338.485 -1.33259 -0.841409 0
M  V30 3608 C 339.415 -1.25926 -1.96634 0
M  V30 3609 C 340.396 -0.140349 -1.6952 0
M  V30 3610 O 341.581 -0.329707 -1.91381 0
M  V30 3611 C 338.711 -0.99512 -3.32738 0
M  V30 3612 C 337.665 -2.0767 -3.74242 0
M  V30 3613 C 336.991 -1.66474 -5.08125 0
M  V30 3614 C 338.291 -3.49318 -3.88297 0
M  V30 3615 H 339.985 -2.20046 -2.03027 0
M  V30 3616 H 337.531 -1.05931 -0.975425 0
M  V30 3617 H 339.484 -0.930323 -4.11002 0
M  V30 3618 H 338.208 -0.0183004 -3.26595 0
M  V30 3619 H 336.867 -2.13187 -2.98239 0
M  V30 3620 H 336.515 -0.675012 -4.9845 0
M  V30 3621 H 336.215 -2.3885 -5.36865 0
M  V30 3622 H 337.739 -1.61455 -5.88867 0
M  V30 3623 H 339.153 -3.46316 -4.56879 0
M  V30 3624 H 337.55 -4.20158 -4.28471 0
M  V30 3625 H 338.62 -3.8801 -2.9082 0
M  V30 3626 N 339.963 1.05934 -1.16686 0
M  V30 3627 C 340.926 2.11669 -0.879144 0
M  V30 3628 C 341.926 1.60294 0.127445 0
M  V30 3629 O 343.116 1.7389 -0.103865 0
M  V30 3630 C 340.248 3.39438 -0.315425 0
M  V30 3631 H 341.441 2.38626 -1.81653 0
M  V30 3632 H 338.994 1.22058 -0.976299 0
M  V30 3633 H 339.729 3.18132 0.629468 0
M  V30 3634 H 339.514 3.78034 -1.04079 0
M  V30 3635 H 341.004 4.17391 -0.132189 0
M  V30 3636 N 341.441 0.965919 1.2453 0
M  V30 3637 C 342.689 0.625593 1.92174 0
M  V30 3638 C 343.01 -0.841652 1.75901 0
M  V30 3639 O 342.28 -1.60061 1.12948 0
M  V30 3640 H 340.86 0.228388 0.71123 0
M  V30 3641 H 343.522 1.2266 1.51461 0
M  V30 3642 H 342.618 0.864653 2.99884 0
M  V30 3643 N 342.919 -1.39368 0.735821 0
M  V30 3644 C 344.165 -2.00794 0.284544 0
M  V30 3645 C 344.498 -1.58255 -1.12557 0
M  V30 3646 O 343.773 -0.811819 -1.76748 0
M  V30 3647 C 344.056 -3.58011 0.387337 0
M  V30 3648 C 343.909 -4.10566 1.83728 0
M  V30 3649 C 345.228 -4.395 -0.22975 0
M  V30 3650 H 342.347 -0.729501 0.104866 0
M  V30 3651 H 344.989 -1.65564 0.93213 0
M  V30 3652 H 343.139 -3.88154 -0.164006 0
M  V30 3653 H 344.811 -3.91139 2.44556 0
M  V30 3654 H 343.054 -3.64095 2.35833 0
M  V30 3655 H 343.725 -5.19702 1.86047 0
M  V30 3656 H 346.201 -4.15406 0.240257 0
M  V30 3657 H 345.077 -5.48752 -0.127485 0
M  V30 3658 H 345.338 -4.22062 -1.3159 0
M  V30 3659 N 344.397 -0.483516 -1.5 0
M  V30 3660 C 345.643 0.0672592 -2.02688 0
M  V30 3661 C 345.976 1.38247 -1.36387 0
M  V30 3662 O 345.251 1.88131 -0.493675 0
M  V30 3663 C 345.534 0.238109 -3.59312 0
M  V30 3664 C 345.387 -1.099 -4.36168 0
M  V30 3665 C 346.706 0.986916 -4.28892 0
M  V30 3666 H 343.825 0.0229696 -0.736642 0
M  V30 3667 H 346.467 -0.631527 -1.79197 0
M  V30 3668 H 344.617 0.8333 -3.79458 0
M  V30 3669 H 346.289 -1.73172 -4.27562 0
M  V30 3670 H 344.532 -1.69261 -3.99416 0
M  V30 3671 H 345.203 -0.932954 -5.44059 0
M  V30 3672 H 347.679 0.482302 -4.13295 0
M  V30 3673 H 346.555 1.07527 -5.38265 0
M  V30 3674 H 346.816 2.0265 -3.92919 0
M  V30 3675 N 345.875 1.56104 -0.216619 0
M  V30 3676 C 347.1 2.0301 0.424462 0
M  V30 3677 C 347.525 1.0955 1.52907 0
M  V30 3678 O 346.883 0.0827914 1.81111 0
M  V30 3679 C 346.931 3.4819 0.937883 0
M  V30 3680 O 346.035 3.57865 2.04955 0
M  V30 3681 H 345.376 0.656925 0.0966755 0
M  V30 3682 H 347.906 2.01859 -0.33381 0
M  V30 3683 H 347.916 3.88413 1.24897 0
M  V30 3684 H 346.591 4.15699 0.129387 0
M  V30 3685 H 345.168 3.29527 1.74546 0
M  V30 3686 N 347.353 -0.0568162 1.57498 0
M  V30 3687 C 348.601 -0.751617 1.87604 0
M  V30 3688 C 348.922 -1.77351 0.81066 0
M  V30 3689 O 348.192 -1.95254 -0.159018 0
M  V30 3690 H 346.772 -0.280583 0.692302 0
M  V30 3691 H 349.434 -0.0293483 1.94878 0
M  V30 3692 H 348.53 -1.25852 2.856 0
M  V30 3693 N 348.832 -1.54138 -0.328536 0
M  V30 3694 C 350.248 -1.44736 -0.672574 0
M  V30 3695 C 350.448 -0.616217 -1.91846 0
M  V30 3696 O 349.504 -0.113067 -2.52247 0
M  V30 3697 C 350.817 -2.884 -0.851217 0
M  V30 3698 C 352.365 -2.98271 -0.948877 0
M  V30 3699 C 352.84 -4.43074 -1.15973 0
M  V30 3700 N 354.331 -4.46665 -1.22658 0
M  V30 3701 C 355.066 -5.55857 -1.40751 0
M  V30 3702 N 354.562 -6.75026 -1.5592 0
M  V30 3703 N 356.355 -5.43495 -1.4342 0
M  V30 3704 H 348.506 -2.06661 0.490421 0
M  V30 3705 H 350.769 -0.934812 0.157579 0
M  V30 3706 H 350.475 -3.51699 -0.00704236 0
M  V30 3707 H 350.349 -3.34225 -1.74853 0
M  V30 3708 H 352.736 -2.35102 -1.78356 0
M  V30 3709 H 352.817 -2.55785 -0.0281435 0
M  V30 3710 H 352.461 -5.06827 -0.329915 0
M  V30 3711 H 352.391 -4.83165 -2.09426 0
M  V30 3712 H 354.882 -3.60797 -1.124 0
M  V30 3713 H 355.195 -7.54004 -1.69404 0
M  V30 3714 H 353.54 -6.77944 -1.53027 0
M  V30 3715 H 356.731 -4.49349 -1.31162 0
M  V30 3716 H 356.904 -6.28649 -1.57178 0
M  V30 3717 N 350.31 0.590341 -1.46126 0
M  V30 3718 C 351.587 1.35029 -1.41515 0
M  V30 3719 C 351.967 2.10888 -0.0946472 0
M  V30 3720 O 351.315 2.08998 0.923693 0
M  V30 3721 C 351.525 2.28269 -2.63997 0
M  V30 3722 C 352.873 2.90338 -3.09821 0
M  V30 3723 O 353.897 2.38585 -2.64492 0
M  V30 3724 O 352.756 3.84321 -3.88535 0
M  V30 3725 H 349.85 0.606317 -0.562413 0
M  V30 3726 H 352.396 0.611994 -1.58281 0
M  V30 3727 H 351.168 1.71591 -3.51671 0
M  V30 3728 H 350.791 3.0945 -2.49652 0
M  V30 3729 N 351.788 1.33704 0.83433 0
M  V30 3730 C 352.751 1.24244 1.92603 0
M  V30 3731 C 353.751 0.160383 1.59998 0
M  V30 3732 O 354.941 0.412228 1.69252 0
M  V30 3733 C 352.073 0.91555 3.28376 0
M  V30 3734 H 353.266 2.21287 2.02416 0
M  V30 3735 H 350.819 1.17827 1.02696 0
M  V30 3736 H 351.554 -0.0521886 3.24258 0
M  V30 3737 H 351.339 1.69811 3.53422 0
M  V30 3738 H 352.829 0.874231 4.08347 0
M  V30 3739 N 353.266 -1.05314 1.17247 0
M  V30 3740 C 354.514 -1.77941 0.958194 0
M  V30 3741 C 354.835 -1.88089 -0.514556 0
M  V30 3742 O 354.105 -1.39676 -1.37359 0
M  V30 3743 H 352.685 -0.659116 0.351533 0
M  V30 3744 H 355.347 -1.27166 1.47699 0
M  V30 3745 H 354.443 -2.79663 1.38546 0
M  V30 3746 N 354.744 -0.972509 -1.24016 0
M  V30 3747 C 355.99 -0.637978 -1.92504 0
M  V30 3748 C 356.323 0.825383 -1.75787 0
M  V30 3749 O 355.598 1.59442 -1.11393 0
M  V30 3750 C 355.881 -1.01942 -3.45369 0
M  V30 3751 C 355.734 -2.53983 -3.71231 0
M  V30 3752 C 357.053 -0.55751 -4.36555 0
M  V30 3753 H 354.172 -0.233248 -0.699117 0
M  V30 3754 H 356.814 -1.21238 -1.46292 0
M  V30 3755 H 354.964 -0.530656 -3.84859 0
M  V30 3756 H 356.636 -3.10374 -3.41271 0
M  V30 3757 H 354.879 -2.96968 -3.16216 0
M  V30 3758 H 355.55 -2.75723 -4.78206 0
M  V30 3759 H 358.026 -0.977029 -4.04467 0
M  V30 3760 H 356.902 -0.85292 -5.42233 0
M  V30 3761 H 357.163 0.542328 -4.38761 0
M  V30 3762 N 356.222 1.38976 -0.743202 0
M  V30 3763 C 357.185 2.28901 -0.117014 0
M  V30 3764 C 358.185 1.46698 0.658503 0
M  V30 3765 O 359.375 1.67274 0.486305 0
M  V30 3766 C 356.507 3.30309 0.84315 0
M  V30 3767 H 357.7 2.8578 -0.909373 0
M  V30 3768 H 355.253 1.47761 -0.509547 0
M  V30 3769 H 355.988 2.785 1.66157 0
M  V30 3770 H 355.773 3.91029 0.289594 0
M  V30 3771 H 357.263 3.97577 1.2776 0
M  V30 3772 N 357.7 0.491464 1.49741 0
M  V30 3773 C 358.647 -0.292027 2.28945 0
M  V30 3774 C 359.617 -0.968973 1.34908 0
M  V30 3775 O 360.802 -0.97748 1.6386 0
M  V30 3776 C 357.942 -1.35617 3.17336 0
M  V30 3777 C 357.055 -0.691957 4.26422 0
M  V30 3778 C 356.19 -1.73572 5.02042 0
M  V30 3779 C 355.229 -1.05286 6.02977 0
M  V30 3780 N 354.366 -2.0404 6.71798 0
M  V30 3781 H 359.206 0.389654 2.95442 0
M  V30 3782 H 356.743 0.204003 1.45679 0
M  V30 3783 H 358.701 -1.98502 3.66951 0
M  V30 3784 H 357.331 -2.00674 2.52844 0
M  V30 3785 H 356.383 0.0499523 3.80367 0
M  V30 3786 H 357.695 -0.153946 4.98562 0
M  V30 3787 H 356.849 -2.43987 5.55478 0
M  V30 3788 H 355.588 -2.30757 4.29654 0
M  V30 3789 H 354.593 -0.334446 5.48782 0
M  V30 3790 H 355.818 -0.487636 6.77347 0
M  V30 3791 H 353.764 -2.60205 6.02187 0
M  V30 3792 H 353.681 -1.55279 7.39881 0
M  V30 3793 H 354.949 -2.73772 7.29842 0
M  V30 3794 N 359.178 -1.55987 0.224894 0
M  V30 3795 C 360.426 -1.97998 -0.405099 0
M  V30 3796 C 360.747 -1.11387 -1.60056 0
M  V30 3797 O 360.017 -0.191645 -1.9496 0
M  V30 3798 H 358.597 -0.731235 -0.152658 0
M  V30 3799 H 361.259 -1.92279 0.318567 0
M  V30 3800 H 360.355 -3.03463 -0.729167 0
M  V30 3801 N 360.656 0.0484629 -1.57525 0
M  V30 3802 C 361.619 1.03956 -2.04269 0
M  V30 3803 C 362.619 1.30211 -0.943496 0
M  V30 3804 O 363.809 1.25539 -1.20771 0
M  V30 3805 C 360.941 2.37742 -2.44319 0
M  V30 3806 H 362.134 0.636182 -2.93075 0
M  V30 3807 H 359.687 0.294811 -1.53494 0
M  V30 3808 H 360.422 2.82866 -1.5861 0
M  V30 3809 H 360.207 2.20021 -3.24551 0
M  V30 3810 H 361.697 3.08936 -2.80978 0
M  V30 3811 N 362.134 1.5431 0.320358 0
M  V30 3812 C 363.359 1.76954 1.08175 0
M  V30 3813 C 363.784 0.518193 1.80821 0
M  V30 3814 O 363.142 -0.530411 1.73368 0
M  V30 3815 C 363.19 2.96451 2.05303 0
M  V30 3816 O 362.294 2.68221 3.13259 0
M  V30 3817 H 361.635 0.586275 0.311733 0
M  V30 3818 H 364.165 2.01342 0.363676 0
M  V30 3819 H 364.175 3.23887 2.48116 0
M  V30 3820 H 362.85 3.87196 1.51829 0
M  V30 3821 H 361.427 2.51744 2.75099 0
M  V30 3822 N 363.613 -0.582584 1.46437 0
M  V30 3823 C 364.546 -1.70633 1.51524 0
M  V30 3824 C 365.524 -1.58349 0.369351 0
M  V30 3825 O 366.708 -1.79563 0.573516 0
M  V30 3826 C 363.835 -3.08687 1.39392 0
M  V30 3827 C 362.881 -3.3949 2.58164 0
M  V30 3828 S 363.714 -3.31548 4.20519 0
M  V30 3829 C 364.87 -4.72139 4.10896 0
M  V30 3830 H 365.103 -1.66058 2.46601 0
M  V30 3831 H 362.636 -0.761337 1.34324 0
M  V30 3832 H 364.594 -3.8833 1.33079 0
M  V30 3833 H 363.255 -3.10751 0.457436 0
M  V30 3834 H 362.448 -4.40071 2.45669 0
M  V30 3835 H 362.05 -2.67415 2.61468 0
M  V30 3836 H 364.342 -5.62527 3.77584 0
M  V30 3837 H 365.285 -4.89692 5.11476 0
M  V30 3838 H 365.693 -4.48995 3.42146 0
M  V30 3839 N 365.091 -1.34144 -0.827227 0
M  V30 3840 C 366.507 -1.13732 -1.11969 0
M  V30 3841 C 366.707 0.0640463 -2.01398 0
M  V30 3842 O 365.763 0.740856 -2.41387 0
M  V30 3843 C 367.076 -2.43047 -1.77055 0
M  V30 3844 C 368.624 -2.49063 -1.89569 0
M  V30 3845 C 369.099 -3.78369 -2.58072 0
M  V30 3846 N 370.59 -3.79505 -2.65575 0
M  V30 3847 C 371.325 -4.76274 -3.19297 0
M  V30 3848 N 370.821 -5.83424 -3.73616 0
M  V30 3849 N 372.614 -4.63735 -3.17658 0
M  V30 3850 H 364.765 -2.11126 -0.232296 0
M  V30 3851 H 367.028 -0.933424 -0.165602 0
M  V30 3852 H 366.734 -3.31025 -1.18807 0
M  V30 3853 H 366.608 -2.56066 -2.76966 0
M  V30 3854 H 368.995 -1.61527 -2.46968 0
M  V30 3855 H 369.076 -2.39975 -0.885745 0
M  V30 3856 H 368.72 -4.66293 -2.01329 0
M  V30 3857 H 368.65 -3.84737 -3.59562 0
M  V30 3858 H 371.141 -3.02074 -2.27068 0
M  V30 3859 H 371.454 -6.53282 -4.12846 0
M  V30 3860 H 369.799 -5.87143 -3.71871 0
M  V30 3861 H 372.99 -3.79177 -2.74486 0
M  V30 3862 H 373.163 -5.39318 -3.59221 0
M  V30 3863 N 366.569 1.04691 -1.17803 0
M  V30 3864 C 367.794 1.81984 -0.994813 0
M  V30 3865 C 368.219 1.82586 0.452112 0
M  V30 3866 O 367.577 1.23854 1.324 0
M  V30 3867 C 367.625 3.2575 -1.54659 0
M  V30 3868 O 366.729 4.05267 -0.763728 0
M  V30 3869 H 366.07 0.562483 -0.352857 0
M  V30 3870 H 368.6 1.3189 -1.56417 0
M  V30 3871 H 368.61 3.76541 -1.57102 0
M  V30 3872 H 367.285 3.24627 -2.59981 0
M  V30 3873 H 365.862 3.63972 -0.811108 0
M  V30 3874 N 368.047 0.979072 1.23499 0
M  V30 3875 C 368.977 0.537606 2.27227 0
M  V30 3876 C 369.958 -0.428539 1.64613 0
M  V30 3877 O 371.143 -0.322191 1.91509 0
M  V30 3878 C 368.273 -0.162052 3.46922 0
M  V30 3879 C 367.227 0.721242 4.21879 0
M  V30 3880 C 366.553 -0.110555 5.34586 0
M  V30 3881 C 367.853 2.01141 4.82016 0
M  V30 3882 H 369.547 1.40462 2.64406 0
M  V30 3883 H 367.093 0.67684 1.27102 0
M  V30 3884 H 369.046 -0.482192 4.18632 0
M  V30 3885 H 367.77 -1.06351 3.08799 0
M  V30 3886 H 366.429 1.02482 3.51984 0
M  V30 3887 H 366.077 -1.0125 4.92704 0
M  V30 3888 H 365.777 0.477325 5.85658 0
M  V30 3889 H 367.301 -0.425107 6.09118 0
M  V30 3890 H 368.715 1.75612 5.45741 0
M  V30 3891 H 367.112 2.54695 5.43369 0
M  V30 3892 H 368.182 2.69909 4.02836 0
M  V30 3893 N 369.525 -1.3858 0.750561 0
M  V30 3894 C 370.941 -1.53759 0.427824 0
M  V30 3895 C 371.141 -1.71401 -1.05943 0
M  V30 3896 O 370.197 -1.72331 -1.84549 0
M  V30 3897 C 371.51 -2.74642 1.22443 0
M  V30 3898 C 373.058 -2.88489 1.2142 0
M  V30 3899 C 373.533 -4.12329 1.9937 0
M  V30 3900 N 375.024 -4.194 1.96616 0
M  V30 3901 C 375.759 -5.14209 2.53727 0
M  V30 3902 N 375.255 -6.14709 3.19539 0
M  V30 3903 N 377.048 -5.06537 2.43673 0
M  V30 3904 H 369.199 -1.25377 1.71447 0
M  V30 3905 H 371.462 -0.608844 0.726645 0
M  V30 3906 H 371.168 -2.68 2.27747 0
M  V30 3907 H 371.042 -3.67745 0.839273 0
M  V30 3908 H 373.429 -2.94614 0.169232 0
M  V30 3909 H 373.51 -1.96406 1.63885 0
M  V30 3910 H 373.154 -4.06966 3.03877 0
M  V30 3911 H 373.084 -5.03486 1.54302 0
M  V30 3912 H 375.575 -3.47421 1.48684 0
M  V30 3913 H 375.888 -6.8354 3.60545 0
M  V30 3914 H 374.233 -6.1505 3.23633 0
M  V30 3915 H 377.424 -4.26962 1.91889 0
M  V30 3916 H 377.597 -5.80245 2.88479 0
M  V30 3917 N 371.003 -0.499398 -1.49478 0
M  V30 3918 C 372.249 0.0457576 -2.02748 0
M  V30 3919 C 372.582 1.36793 -1.37846 0
M  V30 3920 O 371.857 1.87596 -0.513601 0
M  V30 3921 C 372.14 0.199986 -3.59544 0
M  V30 3922 C 371.993 -1.1452 -4.34977 0
M  V30 3923 C 373.312 0.94137 -4.29914 0
M  V30 3924 H 370.431 0.0151552 -0.736844 0
M  V30 3925 H 373.073 -0.650498 -1.78518 0
M  V30 3926 H 371.223 0.793007 -3.8032 0
M  V30 3927 H 372.895 -1.77697 -4.25701 0
M  V30 3928 H 371.138 -1.73488 -3.97598 0
M  V30 3929 H 371.809 -0.990607 -5.43039 0
M  V30 3930 H 374.285 0.43844 -4.13784 0
M  V30 3931 H 373.161 1.01812 -5.39375 0
M  V30 3932 H 373.422 1.98471 -3.95046 0
M  V30 3933 N 372.481 1.55866 -0.233164 0
M  V30 3934 C 373.411 2.23783 0.666599 0
M  V30 3935 C 374.392 1.21343 1.19205 0
M  V30 3936 O 375.577 1.4996 1.23392 0
M  V30 3937 C 372.707 2.92671 1.86978 0
M  V30 3938 C 371.661 4.01682 1.47768 0
M  V30 3939 C 370.987 4.57926 2.76058 0
M  V30 3940 C 372.287 5.18126 0.658993 0
M  V30 3941 H 373.981 2.99232 0.100306 0
M  V30 3942 H 371.527 1.43924 0.046804 0
M  V30 3943 H 373.48 3.3888 2.50476 0
M  V30 3944 H 372.204 2.14688 2.46123 0
M  V30 3945 H 370.863 3.56222 0.866106 0
M  V30 3946 H 370.511 3.76659 3.33372 0
M  V30 3947 H 370.211 5.31505 2.50552 0
M  V30 3948 H 371.735 5.06859 3.40479 0
M  V30 3949 H 373.149 5.60644 1.19795 0
M  V30 3950 H 371.546 5.98009 0.500552 0
M  V30 3951 H 372.616 4.83763 -0.331856 0
M  V30 3952 N 373.959 -0.0401083 1.57549 0
M  V30 3953 C 374.907 -1.06264 2.06908 0
M  V30 3954 C 375.901 -1.38132 0.980608 0
M  V30 3955 O 377.107 -1.37167 1.16556 0
M  V30 3956 H 373.482 -0.360166 0.660139 0
M  V30 3957 H 375.453 -0.620445 2.91878 0
M  V30 3958 C 374.202 -2.35846 2.55483 0
M  V30 3959 H 373.525 -2.12183 3.38849 0
M  V30 3960 H 374.965 -3.05765 2.93741 0
M  V30 3961 C 373.424 -3.0404 1.45126 0
M  V30 3962 O 373.954 -3.93424 0.811216 0
M  V30 3963 N 372.16 -2.65184 1.18852 0
M  V30 3964 H 371.707 -1.92584 1.71083 0
M  V30 3965 H 371.665 -3.1113 0.452244 0
M  V30 3966 N 375.437 -1.54477 -0.31217 0
M  V30 3967 C 376.677 -1.74958 -1.05684 0
M  V30 3968 C 377.041 -0.518414 -1.84869 0
M  V30 3969 O 378.242 -0.600759 -2.62001 0
M  V30 3970 C 376.513 -2.99656 -1.94785 0
M  V30 3971 S 378.072 -3.4109 -2.76049 0
M  V30 3972 H 374.89 -0.615104 -0.356606 0
M  V30 3973 H 377.492 -1.92669 -0.331514 0
M  V30 3974 H 376.196 -3.87397 -1.35468 0
M  V30 3975 H 375.727 -2.845 -2.71704 0
M  V30 3976 H 377.742 -2.97283 -3.97287 0
M  V30 3977 N 376.915 0.57481 -1.46744 0
M  V30 3978 C 377.847 1.69804 -1.53946 0
M  V30 3979 C 378.86 1.57098 -0.427106 0
M  V30 3980 O 380.049 1.64378 -0.695863 0
M  V30 3981 C 377.149 3.08125 -1.4111 0
M  V30 3982 C 376.322 3.46757 -2.66605 0
M  V30 3983 C 375.381 4.6417 -2.47855 0
M  V30 3984 O 374.407 4.69634 -3.21609 0
M  V30 3985 N 375.609 5.59553 -1.54534 0
M  V30 3986 H 378.374 1.64077 -2.50796 0
M  V30 3987 H 375.935 0.761 -1.429 0
M  V30 3988 H 377.927 3.84478 -1.26328 0
M  V30 3989 H 376.497 3.08175 -0.524109 0
M  V30 3990 H 375.717 2.6003 -2.96274 0
M  V30 3991 H 377.005 3.69337 -3.49954 0
M  V30 3992 H 376.403 5.57881 -0.937304 0
M  V30 3993 H 374.96 6.35304 -1.45711 0
M  V30 3994 N 378.394 1.34581 0.820102 0
M  V30 3995 C 379.642 1.26845 1.57336 0
M  V30 3996 C 379.963 -0.160667 1.94337 0
M  V30 3997 O 379.233 -1.09396 1.6251 0
M  V30 3998 H 377.813 0.466514 0.583415 0
M  V30 3999 H 380.475 1.68526 0.979027 0
M  V30 4000 H 379.571 1.87513 2.4949 0
M  V30 4001 N 379.872 -1.04064 1.18357 0
M  V30 4002 C 380.819 -2.12077 0.910603 0
M  V30 4003 C 381.789 -1.65421 -0.15 0
M  V30 4004 O 382.974 -1.90797 -0.0103614 0
M  V30 4005 C 380.114 -3.42252 0.442472 0
M  V30 4006 C 379.227 -4.0252 1.5685 0
M  V30 4007 C 378.362 -5.20657 1.05309 0
M  V30 4008 C 377.401 -5.72955 2.1538 0
M  V30 4009 N 376.538 -6.8238 1.65233 0
M  V30 4010 H 381.378 -2.34764 1.83548 0
M  V30 4011 H 378.915 -1.15157 0.915279 0
M  V30 4012 H 380.873 -4.16921 0.152534 0
M  V30 4013 H 379.503 -3.19712 -0.445428 0
M  V30 4014 H 378.555 -3.25178 1.97391 0
M  V30 4015 H 379.867 -4.37362 2.39824 0
M  V30 4016 H 379.021 -6.0244 0.717677 0
M  V30 4017 H 377.76 -4.87318 0.19293 0
M  V30 4018 H 376.765 -4.89793 2.49766 0
M  V30 4019 H 377.99 -6.08337 3.01832 0
M  V30 4020 H 375.936 -6.50917 0.815064 0
M  V30 4021 H 375.853 -7.16286 2.41805 0
M  V30 4022 H 377.121 -7.67788 1.34619 0
M  V30 4023 N 381.35 -0.985608 -1.22978 0
M  V30 4024 C 382.598 -0.656087 -1.91154 0
M  V30 4025 C 382.919 0.813561 -1.77218 0
M  V30 4026 O 382.189 1.58244 -1.1548 0
M  V30 4027 H 380.769 -0.239674 -0.707506 0
M  V30 4028 H 383.431 -1.25054 -1.49491 0
M  V30 4029 H 382.527 -0.912253 -2.9847 0
M  V30 4030 N 382.828 1.3818 -0.7579 0
M  V30 4031 C 384.056 2.04301 -0.326937 0
M  V30 4032 C 384.471 1.57163 1.0462 0
M  V30 4033 O 383.828 0.746626 1.66529 0
M  V30 4034 C 383.879 3.59846 -0.345363 0
M  V30 4035 O 383.6 4.05256 -1.66432 0
M  V30 4036 C 385.101 4.4319 0.098927 0
M  V30 4037 H 382.321 0.656443 -0.139012 0
M  V30 4038 H 384.865 1.76786 -1.02796 0
M  V30 4039 H 383.02 3.86182 0.306955 0
M  V30 4040 H 383.434 4.99709 -1.59345 0
M  V30 4041 H 384.908 5.51989 0.0348745 0
M  V30 4042 H 385.385 4.23947 1.14741 0
M  V30 4043 H 385.991 4.22051 -0.52468 0
M  V30 4044 N 384.306 0.507319 1.49211 0
M  V30 4045 C 385.552 -0.0350047 2.0277 0
M  V30 4046 C 385.885 -1.3606 1.38569 0
M  V30 4047 O 385.16 -1.87321 0.523542 0
M  V30 4048 C 385.443 -0.180916 3.59645 0
M  V30 4049 C 385.296 1.16825 4.34364 0
M  V30 4050 C 386.615 -0.918558 4.30407 0
M  V30 4051 H 383.734 -0.0112473 0.736914 0
M  V30 4052 H 386.376 0.659956 1.7817 0
M  V30 4053 H 384.526 -0.772826 3.80736 0
M  V30 4054 H 386.198 1.79952 4.24753 0
M  V30 4055 H 384.441 1.75594 3.96673 0
M  V30 4056 H 385.112 1.01939 5.42506 0
M  V30 4057 H 387.588 -0.41649 4.1401 0
M  V30 4058 H 386.464 -0.989505 5.39907 0
M  V30 4059 H 386.725 -1.96373 3.96093 0
M  V30 4060 N 385.784 -1.5574 0.241426 0
M  V30 4061 C 387.009 -2.0366 -0.392111 0
M  V30 4062 C 387.434 -1.11969 -1.51144 0
M  V30 4063 O 386.792 -0.111594 -1.80956 0
M  V30 4064 C 386.84 -3.49638 -0.882371 0
M  V30 4065 O 385.944 -3.6108 -1.99235 0
M  V30 4066 H 385.285 -0.658379 -0.0862122 0
M  V30 4067 H 387.815 -2.01302 0.365881 0
M  V30 4068 H 387.825 -3.90351 -1.18702 0
M  V30 4069 H 386.5 -4.15852 -0.0632361 0
M  V30 4070 H 385.077 -3.32262 -1.69282 0
M  V30 4071 N 387.262 0.0317525 -1.57568 0
M  V30 4072 C 388.51 0.721676 -1.88776 0
M  V30 4073 C 388.831 1.76039 -0.838772 0
M  V30 4074 O 388.101 1.95482 0.127935 0
M  V30 4075 H 386.681 0.269534 -0.696678 0
M  V30 4076 H 389.343 -0.00165879 -1.949 0
M  V30 4077 H 388.439 1.21293 -2.87566 0
M  V30 4078 N 388.74 1.54641 0.303973 0
M  V30 4079 C 389.968 1.77768 1.05858 0
M  V30 4080 C 390.383 0.535722 1.8104 0
M  V30 4081 O 389.74 -0.494337 1.75677 0
M  V30 4082 C 389.791 2.9834 2.04146 0
M  V30 4083 O 389.512 4.17736 1.32015 0
M  V30 4084 C 391.013 3.33832 2.91669 0
M  V30 4085 H 388.233 0.592961 0.314067 0
M  V30 4086 H 390.777 2.01583 0.344149 0
M  V30 4087 H 388.932 2.76742 2.71096 0
M  V30 4088 H 389.346 4.85693 1.97998 0
M  V30 4089 H 390.82 4.21448 3.56491 0
M  V30 4090 H 391.297 2.51857 3.59812 0
M  V30 4091 H 391.903 3.57579 2.30254 0
M  V30 4092 N 390.218 -0.567019 1.47046 0
M  V30 4093 C 391.148 -1.68482 1.61667 0
M  V30 4094 C 392.129 -1.6358 0.466418 0
M  V30 4095 O 393.314 -1.81354 0.694574 0
M  V30 4096 C 390.444 -3.07124 1.62148 0
M  V30 4097 C 389.398 -3.26867 2.76301 0
M  V30 4098 C 388.724 -4.66196 2.61849 0
M  V30 4099 C 390.024 -3.13186 4.17986 0
M  V30 4100 H 391.718 -1.56502 2.5524 0
M  V30 4101 H 389.264 -0.751486 1.22836 0
M  V30 4102 H 391.217 -3.8516 1.70968 0
M  V30 4103 H 389.941 -3.2004 0.651287 0
M  V30 4104 H 388.6 -2.51237 2.66975 0
M  V30 4105 H 388.248 -4.75898 1.62879 0
M  V30 4106 H 387.948 -4.80356 3.38425 0
M  V30 4107 H 389.472 -5.46379 2.72584 0
M  V30 4108 H 390.886 -3.81049 4.2834 0
M  V30 4109 H 389.283 -3.3886 4.95272 0
M  V30 4110 H 390.353 -2.10057 4.3704 0
M  V30 4111 N 391.696 -1.35014 -0.812953 0
M  V30 4112 C 392.945 -1.27269 -1.56479 0
M  V30 4113 C 393.258 0.152771 -1.95002 0
M  V30 4114 O 394.464 0.352451 -2.69203 0
M  V30 4115 C 392.92 -2.23159 -2.82362 0
M  V30 4116 C 392.528 -3.71016 -2.511 0
M  V30 4117 C 394.272 -2.24342 -3.60376 0
M  V30 4118 C 392.179 -4.58746 -3.73237 0
M  V30 4119 H 391.109 -0.472829 -0.587324 0
M  V30 4120 H 393.76 -1.6024 -0.894171 0
M  V30 4121 H 392.142 -1.83151 -3.51101 0
M  V30 4122 H 393.316 -4.1962 -1.90409 0
M  V30 4123 H 391.631 -3.72378 -1.86343 0
M  V30 4124 H 394.228 -2.87107 -4.51081 0
M  V30 4125 H 394.571 -1.24542 -3.97234 0
M  V30 4126 H 395.104 -2.62846 -2.98591 0
M  V30 4127 H 391.843 -5.59521 -3.41492 0
M  V30 4128 H 391.363 -4.14871 -4.33176 0
M  V30 4129 H 393.042 -4.73852 -4.40537 0
M  V30 4130 N 393.175 1.03435 -1.18907 0
M  V30 4131 C 394.423 1.76394 -0.986382 0
M  V30 4132 C 394.744 1.88883 0.484567 0
M  V30 4133 O 394.014 1.41843 1.3512 0
M  V30 4134 H 392.594 0.65344 -0.361975 0
M  V30 4135 H 395.256 1.248 -1.49703 0
M  V30 4136 H 394.352 2.77424 -1.42978 0
M  V30 4137 N 394.653 0.992116 1.22453 0
M  V30 4138 C 395.583 0.561677 2.26644 0
M  V30 4139 C 396.564 -0.411055 1.65059 0
M  V30 4140 O 397.749 -0.301861 1.9184 0
M  V30 4141 C 394.879 -0.125247 3.47074 0
M  V30 4142 C 393.833 0.765948 4.21091 0
M  V30 4143 C 393.159 -0.0538484 5.34673 0
M  V30 4144 C 394.459 2.06242 4.79856 0
M  V30 4145 H 396.153 1.43259 2.62902 0
M  V30 4146 H 393.699 0.690283 1.26377 0
M  V30 4147 H 395.652 -0.437764 4.1912 0
M  V30 4148 H 394.376 -1.03069 3.0991 0
M  V30 4149 H 393.035 1.0621 3.50878 0
M  V30 4150 H 392.683 -0.960188 4.9375 0
M  V30 4151 H 392.383 0.539415 5.85119 0
M  V30 4152 H 393.907 -0.360477 6.09535 0
M  V30 4153 H 395.321 1.8139 5.43848 0
M  V30 4154 H 393.718 2.60444 5.40638 0
M  V30 4155 H 394.788 2.74167 3.99951 0
M  V30 4156 N 396.131 -1.37776 0.765217 0
M  V30 4157 C 397.041 -2.34135 0.147666 0
M  V30 4158 C 398.057 -1.59854 -0.687215 0
M  V30 4159 O 399.233 -1.91983 -0.608659 0
M  V30 4160 C 396.298 -3.3901 -0.72617 0
M  V30 4161 C 395.359 -4.2912 0.124417 0
M  V30 4162 C 394.592 -5.28986 -0.707807 0
M  V30 4163 O 394.815 -5.36205 -1.94525 0
M  V30 4164 O 393.749 -6.01779 -0.12046 0
M  V30 4165 H 397.575 -2.88664 0.943758 0
M  V30 4166 H 395.16 -1.39824 0.526277 0
M  V30 4167 H 397.042 -4.03195 -1.22524 0
M  V30 4168 H 395.717 -2.86819 -1.50056 0
M  V30 4169 H 394.624 -3.68057 0.669696 0
M  V30 4170 H 395.957 -4.84598 0.861736 0
M  V30 4171 N 397.609 -0.515225 -1.4894 0
M  V30 4172 C 398.856 0.024215 -2.02486 0
M  V30 4173 C 399.184 1.35671 -1.39368 0
M  V30 4174 O 398.439 1.88566 -0.523574 0
M  V30 4175 C 398.738 0.210595 -3.56779 0
M  V30 4176 C 398.404 -1.04569 -4.38607 0
M  V30 4177 C 397.066 -1.39002 -4.60686 0
M  V30 4178 C 399.418 -1.88008 -4.86109 0
M  V30 4179 C 396.746 -2.568 -5.27514 0
M  V30 4180 C 399.098 -3.04972 -5.54234 0
M  V30 4181 C 397.762 -3.39768 -5.74555 0
M  V30 4182 H 397.032 0.00886088 -0.740947 0
M  V30 4183 H 399.679 -0.678263 -1.79086 0
M  V30 4184 H 397.984 0.99572 -3.78936 0
M  V30 4185 H 399.681 0.642659 -3.95817 0
M  V30 4186 H 396.271 -0.767497 -4.21672 0
M  V30 4187 H 400.455 -1.62719 -4.68867 0
M  V30 4188 H 395.711 -2.8398 -5.41447 0
M  V30 4189 H 399.885 -3.69943 -5.90013 0
M  V30 4190 H 397.512 -4.31148 -6.26112 0
M  V30 4191 N 399.087 1.5561 -0.249682 0
M  V30 4192 C 400.336 1.98187 0.37479 0
M  V30 4193 C 400.649 1.14111 1.58865 0
M  V30 4194 O 401.855 1.46714 2.28445 0
M  V30 4195 C 400.311 3.52661 0.718192 0
M  V30 4196 C 399.919 4.45481 -0.474428 0
M  V30 4197 C 401.663 4.03888 1.3067 0
M  V30 4198 C 399.57 5.91303 -0.107026 0
M  V30 4199 H 398.5 0.740159 0.143808 0
M  V30 4200 H 401.151 1.80125 -0.350336 0
M  V30 4201 H 399.533 3.66429 1.50152 0
M  V30 4202 H 400.707 4.43473 -1.25172 0
M  V30 4203 H 399.022 4.04751 -0.978052 0
M  V30 4204 H 401.619 5.10358 1.59496 0
M  V30 4205 H 401.962 3.51401 2.23211 0
M  V30 4206 H 402.495 3.93457 0.586211 0
M  V30 4207 H 399.234 6.47833 -0.999642 0
M  V30 4208 H 398.754 5.9644 0.634013 0
M  V30 4209 H 400.433 6.46258 0.309807 0
M  V30 4210 N 400.565 -0.0233959 1.57583 0
M  V30 4211 C 401.981 -0.379134 1.55031 0
M  V30 4212 C 402.181 -1.76255 0.976548 0
M  V30 4213 O 401.237 -2.45266 0.600078 0
M  V30 4214 C 402.55 -0.275792 2.99433 0
M  V30 4215 C 404.098 -0.352458 3.11009 0
M  V30 4216 C 404.573 -0.278501 4.57152 0
M  V30 4217 N 406.064 -0.337123 4.61972 0
M  V30 4218 C 406.799 -0.302876 5.726 0
M  V30 4219 N 406.295 -0.220589 6.92449 0
M  V30 4220 N 408.088 -0.353023 5.6099 0
M  V30 4221 H 400.239 0.881869 1.93227 0
M  V30 4222 H 402.502 0.335867 0.886509 0
M  V30 4223 H 402.208 0.675108 3.4516 0
M  V30 4224 H 402.082 -1.06721 3.61788 0
M  V30 4225 H 404.469 -1.29379 2.65226 0
M  V30 4226 H 404.55 0.468409 2.51475 0
M  V30 4227 H 404.194 0.659189 5.03604 0
M  V30 4228 H 404.124 -1.11755 5.14605 0
M  V30 4229 H 406.615 -0.403002 3.75745 0
M  V30 4230 H 406.928 -0.199713 7.72542 0
M  V30 4231 H 405.273 -0.186555 6.9475 0
M  V30 4232 H 408.464 -0.415339 4.66254 0
M  V30 4233 H 408.637 -0.322866 6.47195 0
M  V30 4234 N 402.043 -1.548 -0.295768 0
M  V30 4235 C 402.99 -1.86113 -1.36494 0
M  V30 4236 C 403.96 -0.7105 -1.50137 0
M  V30 4237 O 405.145 -0.959626 -1.64912 0
M  V30 4238 C 402.285 -2.11861 -2.72413 0
M  V30 4239 C 401.398 -3.39471 -2.67177 0
M  V30 4240 C 400.533 -3.55035 -3.95125 0
M  V30 4241 C 399.572 -4.76418 -3.84308 0
M  V30 4242 N 398.709 -4.8876 -5.04042 0
M  V30 4243 H 403.549 -2.77314 -1.09091 0
M  V30 4244 H 401.086 -1.37315 -0.52753 0
M  V30 4245 H 403.044 -2.24786 -3.51464 0
M  V30 4246 H 401.674 -1.2392 -2.98066 0
M  V30 4247 H 400.726 -3.35139 -1.79962 0
M  V30 4248 H 402.038 -4.28646 -2.55076 0
M  V30 4249 H 401.192 -3.67653 -4.82614 0
M  V30 4250 H 399.931 -2.64002 -4.10066 0
M  V30 4251 H 398.936 -4.63827 -2.95202 0
M  V30 4252 H 400.161 -5.68863 -3.70906 0
M  V30 4253 H 398.107 -4.00652 -5.19436 0
M  V30 4254 H 398.024 -5.71945 -4.94384 0
M  V30 4255 H 399.292 -5.0574 -5.93167 0
M  V30 4256 N 403.521 0.559213 -1.47345 0
M  V30 4257 C 404.746 1.34676 -1.57725 0
M  V30 4258 C 405.171 1.86723 -0.227164 0
M  V30 4259 O 404.529 1.6286 0.796642 0
M  V30 4260 C 404.577 2.49399 -2.60447 0
M  V30 4261 O 403.681 3.51567 -2.15578 0
M  V30 4262 H 403.022 0.400115 -0.52991 0
M  V30 4263 H 405.552 0.676009 -1.93109 0
M  V30 4264 H 405.562 2.95996 -2.80803 0
M  V30 4265 H 404.237 2.10873 -3.58477 0
M  V30 4266 H 402.814 3.11289 -2.05313 0
M  V30 4267 N 404.999 1.35443 0.805782 0
M  V30 4268 C 405.931 1.24285 1.92577 0
M  V30 4269 C 406.944 0.165962 1.61952 0
M  V30 4270 O 408.133 0.419303 1.73505 0
M  V30 4271 C 405.233 0.891272 3.2697 0
M  V30 4272 C 404.406 2.06669 3.85495 0
M  V30 4273 C 403.465 1.69077 4.98297 0
M  V30 4274 O 402.491 2.4096 5.15681 0
M  V30 4275 N 403.693 0.614869 5.77234 0
M  V30 4276 H 406.458 2.20777 2.02676 0
M  V30 4277 H 404.019 1.28623 0.983243 0
M  V30 4278 H 406.011 0.621256 3.99903 0
M  V30 4279 H 404.581 0.016004 3.12596 0
M  V30 4280 H 403.801 2.50046 3.04747 0
M  V30 4281 H 405.089 2.85237 4.21328 0
M  V30 4282 H 404.487 0.017648 5.65697 0
M  V30 4283 H 403.044 0.404636 6.50543 0
M  V30 4284 N 406.477 -1.02803 1.19454 0
M  V30 4285 C 407.407 -2.12999 0.956758 0
M  V30 4286 C 408.388 -1.69743 -0.110188 0
M  V30 4287 O 409.573 -1.94148 0.0450038 0
M  V30 4288 C 406.703 -3.43746 0.495553 0
M  V30 4289 C 405.657 -4.00688 1.50443 0
M  V30 4290 C 404.983 -5.27067 0.900275 0
M  V30 4291 C 406.283 -4.35397 2.8849 0
M  V30 4292 H 407.977 -2.33148 1.87836 0
M  V30 4293 H 405.523 -1.12045 0.904539 0
M  V30 4294 H 407.476 -4.2021 0.316493 0
M  V30 4295 H 406.2 -3.23321 -0.461646 0
M  V30 4296 H 404.859 -3.2632 1.67065 0
M  V30 4297 H 404.507 -5.02959 -0.064503 0
M  V30 4298 H 404.207 -5.66127 1.57397 0
M  V30 4299 H 405.731 -6.06196 0.73203 0
M  V30 4300 H 407.145 -5.02795 2.75446 0
M  V30 4301 H 405.542 -4.85541 3.52661 0
M  V30 4302 H 406.612 -3.44662 3.41081 0
M  V30 4303 N 407.956 -0.998596 -1.21925 0
M  V30 4304 C 409.202 -0.678667 -1.91107 0
M  V30 4305 C 409.535 0.78791 -1.77498 0
M  V30 4306 O 408.81 1.57043 -1.1475 0
M  V30 4307 C 409.093 -1.09245 -3.43129 0
M  V30 4308 C 408.946 -2.61801 -3.6576 0
M  V30 4309 C 410.265 -0.649984 -4.35274 0
M  V30 4310 H 407.384 -0.248025 -0.694012 0
M  V30 4311 H 410.026 -1.24314 -1.43688 0
M  V30 4312 H 408.176 -0.612171 -3.83647 0
M  V30 4313 H 409.848 -3.17543 -3.34611 0
M  V30 4314 H 408.091 -3.03609 -3.09845 0
M  V30 4315 H 408.762 -2.85804 -4.7225 0
M  V30 4316 H 411.238 -1.0626 -4.02303 0
M  V30 4317 H 410.114 -0.967743 -5.40302 0
M  V30 4318 H 410.375 0.449139 -4.39813 0
M  V30 4319 N 409.434 1.37368 -0.772513 0
M  V30 4320 C 410.366 2.28899 -0.117502 0
M  V30 4321 C 411.379 1.4867 0.663405 0
M  V30 4322 O 412.568 1.71314 0.501372 0
M  V30 4323 C 409.668 3.2788 0.857192 0
M  V30 4324 C 408.841 4.37207 0.129938 0
M  V30 4325 C 407.9 5.16257 1.01811 0
M  V30 4326 O 406.926 5.67159 0.481601 0
M  V30 4327 N 408.128 5.31058 2.3443 0
M  V30 4328 H 410.893 2.85752 -0.903662 0
M  V30 4329 H 408.454 1.49353 -0.62493 0
M  V30 4330 H 410.446 3.77647 1.45482 0
M  V30 4331 H 409.016 2.7179 1.54432 0
M  V30 4332 H 408.236 3.88827 -0.648605 0
M  V30 4333 H 409.524 5.07434 -0.372559 0
M  V30 4334 H 408.922 4.91287 2.80452 0
M  V30 4335 H 407.479 5.84131 2.89197 0
M  V30 4336 N 410.912 0.523116 1.48665 0
M  V30 4337 C 412.323 0.0808997 1.86525 0
M  V30 4338 C 412.674 -1.33975 1.43336 0
M  V30 4339 O 411.799 -2.00221 0.821009 0
M  V30 4340 C 412.394 0.140037 3.3851 0
M  V30 4341 C 410.953 -0.246948 3.75589 0
M  V30 4342 C 410.1 0.502845 2.72703 0
M  V30 4343 H 413.051 0.734736 1.40667 0
M  V30 4344 H 413.072 -0.649945 3.74908 0
M  V30 4345 H 412.584 1.17412 3.69914 0
M  V30 4346 H 410.685 -1.28343 3.49798 0
M  V30 4347 H 410.798 0.0878859 4.79019 0
M  V30 4348 H 409.162 -0.0500581 2.54651 0
M  V30 4349 H 409.945 1.53743 3.0695 0
M  V30 4350 N 412.39 -1.55475 0.257931 0
M  V30 4351 C 413.636 -1.99502 -0.364266 0
M  V30 4352 C 413.969 -1.146 -1.56782 0
M  V30 4353 O 413.244 -0.211968 -1.93342 0
M  V30 4354 C 413.527 -3.51917 -0.763333 0
M  V30 4355 C 413.38 -4.4758 0.446371 0
M  V30 4356 C 414.699 -4.09742 -1.60623 0
M  V30 4357 H 411.818 -0.725277 -0.130929 0
M  V30 4358 H 414.46 -1.8653 0.361446 0
M  V30 4359 H 412.61 -3.63101 -1.38166 0
M  V30 4360 H 414.282 -4.48362 1.08487 0
M  V30 4361 H 412.525 -4.19947 1.08753 0
M  V30 4362 H 413.196 -5.51862 0.123645 0
M  V30 4363 H 415.672 -4.01727 -1.08418 0
M  V30 4364 H 414.548 -5.16631 -1.85429 0
M  V30 4365 H 414.809 -3.58889 -2.58169 0
M  V30 4366 N 413.868 0.0150385 -1.57593 0
M  V30 4367 C 415.116 0.701613 -1.8953 0
M  V30 4368 C 415.437 1.75139 -0.857396 0
M  V30 4369 O 414.707 1.95607 0.107194 0
M  V30 4370 H 413.287 0.26213 -0.699498 0
M  V30 4371 H 415.949 -0.0223304 -1.94887 0
M  V30 4372 H 415.045 1.18236 -2.88837 0
M  V30 4373 N 415.346 1.54954 0.287554 0
M  V30 4374 C 416.757 1.65732 0.859634 0
M  V30 4375 C 417.108 0.574767 1.87592 0
M  V30 4376 O 416.233 -0.286299 2.14498 0
M  V30 4377 C 416.828 3.00438 1.56597 0
M  V30 4378 C 415.387 3.13292 2.08627 0
M  V30 4379 C 414.534 2.61473 0.923416 0
M  V30 4380 H 417.485 1.5857 0.0642338 0
M  V30 4381 H 417.506 2.92613 2.43224 0
M  V30 4382 H 417.018 3.79207 0.826053 0
M  V30 4383 H 415.119 2.39268 2.85625 0
M  V30 4384 H 415.232 4.19647 2.31157 0
M  V30 4385 H 413.596 2.18264 1.31275 0
M  V30 4386 H 414.379 3.42733 0.197241 0
M  V30 4387 N 416.824 -0.551391 1.4764 0
M  V30 4388 C 417.754 -1.66757 1.63445 0
M  V30 4389 C 418.735 -1.63077 0.483742 0
M  V30 4390 O 419.92 -1.80607 0.71377 0
M  V30 4391 C 417.05 -3.05387 1.65396 0
M  V30 4392 C 416.004 -3.23918 2.79752 0
M  V30 4393 C 415.33 -4.63393 2.66779 0
M  V30 4394 C 416.63 -3.08735 4.21284 0
M  V30 4395 H 418.324 -1.53786 2.56886 0
M  V30 4396 H 415.87 -0.738415 1.23626 0
M  V30 4397 H 417.823 -3.83325 1.75043 0
M  V30 4398 H 416.547 -3.19332 0.685195 0
M  V30 4399 H 415.206 -2.48391 2.69625 0
M  V30 4400 H 414.854 -4.74144 1.67918 0
M  V30 4401 H 414.554 -4.7674 3.43501 0
M  V30 4402 H 416.078 -5.43458 2.78364 0
M  V30 4403 H 417.492 -3.76484 4.32357 0
M  V30 4404 H 415.889 -3.33588 4.98838 0
M  V30 4405 H 416.959 -2.0541 4.39243 0
M  V30 4406 N 418.302 -1.35869 -0.798587 0
M  V30 4407 C 419.548 -1.2978 -1.55836 0
M  V30 4408 C 419.881 0.125322 -1.93795 0
M  V30 4409 O 419.156 1.07658 -1.61987 0
M  V30 4410 C 419.439 -2.21188 -2.84162 0
M  V30 4411 C 419.292 -3.72155 -2.52628 0
M  V30 4412 C 420.611 -2.11545 -3.85923 0
M  V30 4413 H 417.73 -0.472769 -0.565383 0
M  V30 4414 H 420.372 -1.66341 -0.918192 0
M  V30 4415 H 418.522 -1.90139 -3.38791 0
M  V30 4416 H 420.194 -4.13682 -2.04121 0
M  V30 4417 H 418.437 -3.92042 -1.85704 0
M  V30 4418 H 419.108 -4.31511 -3.44242 0
M  V30 4419 H 421.584 -2.38855 -3.40716 0
M  V30 4420 H 420.46 -2.77688 -4.73477 0
M  V30 4421 H 420.721 -1.09987 -4.282 0
M  V30 4422 N 419.78 1.02168 -1.19998 0
M  V30 4423 C 421.026 1.75945 -1.00852 0
M  V30 4424 C 421.359 1.88702 0.458828 0
M  V30 4425 O 420.634 1.40911 1.34069 0
M  V30 4426 C 420.917 3.18154 -1.68671 0
M  V30 4427 C 420.77 3.13224 -3.22817 0
M  V30 4428 C 422.089 4.16711 -1.41561 0
M  V30 4429 H 419.208 0.638673 -0.367785 0
M  V30 4430 H 421.85 1.19222 -1.4794 0
M  V30 4431 H 420 3.66586 -1.28636 0
M  V30 4432 H 421.672 2.72635 -3.72112 0
M  V30 4433 H 419.915 2.50751 -3.53986 0
M  V30 4434 H 420.586 4.13728 -3.65422 0
M  V30 4435 H 423.062 3.76913 -1.76284 0
M  V30 4436 H 421.938 5.14391 -1.91553 0
M  V30 4437 H 422.199 4.40774 -0.342193 0
M  V30 4438 N 421.258 1.00505 1.21394 0
M  V30 4439 C 422.188 0.585684 2.26035 0
M  V30 4440 C 423.169 -0.393525 1.65485 0
M  V30 4441 O 424.354 -0.281497 1.92149 0
M  V30 4442 C 421.484 -0.0884283 3.47187 0
M  V30 4443 C 420.438 0.810567 4.20254 0
M  V30 4444 C 419.764 0.00286382 5.347 0
M  V30 4445 C 421.064 2.1132 4.77641 0
M  V30 4446 H 422.758 1.46039 2.61368 0
M  V30 4447 H 420.304 0.703648 1.25638 0
M  V30 4448 H 422.257 -0.393286 4.19561 0
M  V30 4449 H 420.981 -0.997766 3.10986 0
M  V30 4450 H 419.64 1.09925 3.49731 0
M  V30 4451 H 419.288 -0.907765 4.94741 0
M  V30 4452 H 418.988 0.601444 5.84514 0
M  V30 4453 H 420.512 -0.295808 6.09883 0
M  V30 4454 H 421.926 1.87148 5.41893 0
M  V30 4455 H 420.323 2.66164 5.37845 0
M  V30 4456 H 421.393 2.78393 3.9702 0
M  V30 4457 N 422.737 -1.36956 0.779787 0
M  V30 4458 C 423.667 -2.32761 0.185651 0
M  V30 4459 C 424.648 -1.56177 -0.673989 0
M  V30 4460 O 425.833 -1.84378 -0.609797 0
M  V30 4461 C 422.963 -3.40418 -0.687964 0
M  V30 4462 C 421.917 -4.27941 0.0710102 0
M  V30 4463 C 421.243 -5.26681 -0.922573 0
M  V30 4464 C 422.543 -5.07006 1.25467 0
M  V30 4465 H 424.237 -2.82698 0.986008 0
M  V30 4466 H 421.783 -1.3592 0.475592 0
M  V30 4467 H 423.736 -4.06423 -1.11348 0
M  V30 4468 H 422.46 -2.89025 -1.52093 0
M  V30 4469 H 421.119 -3.63478 0.47739 0
M  V30 4470 H 420.767 -4.71565 -1.7503 0
M  V30 4471 H 420.467 -5.86103 -0.419237 0
M  V30 4472 H 421.991 -5.9556 -1.34686 0
M  V30 4473 H 423.405 -5.66105 0.905401 0
M  V30 4474 H 421.802 -5.75793 1.69063 0
M  V30 4475 H 422.872 -4.3921 2.05481 0
M  V30 4476 N 424.215 -0.530993 -1.48385 0
M  V30 4477 C 425.626 -0.0907905 -1.86479 0
M  V30 4478 C 425.977 1.33213 -1.44044 0
M  V30 4479 O 425.102 1.99783 -0.831615 0
M  V30 4480 C 425.697 -0.157987 -3.38431 0
M  V30 4481 C 424.256 0.227026 -3.75715 0
M  V30 4482 C 423.403 -0.5173 -2.72432 0
M  V30 4483 H 426.354 -0.742186 -1.40276 0
M  V30 4484 H 426.375 0.630053 -3.75247 0
M  V30 4485 H 425.887 -1.19372 -3.69286 0
M  V30 4486 H 423.988 1.26486 -3.50474 0
M  V30 4487 H 424.101 -0.113288 -4.78966 0
M  V30 4488 H 422.465 0.0365527 -2.54674 0
M  V30 4489 H 423.248 -1.55368 -3.0613 0
M  V30 4490 N 425.693 1.55336 -0.266172 0
M  V30 4491 C 426.623 2.25146 0.618981 0
M  V30 4492 C 427.604 1.23845 1.16604 0
M  V30 4493 O 428.789 1.52544 1.20183 0
M  V30 4494 C 425.919 2.96572 1.80728 0
M  V30 4495 C 424.873 4.04726 1.39215 0
M  V30 4496 C 424.199 4.63678 2.66283 0
M  V30 4497 C 425.499 5.19407 0.548942 0
M  V30 4498 H 427.193 2.99377 0.0368116 0
M  V30 4499 H 424.739 1.43991 0.0162651 0
M  V30 4500 H 426.692 3.44116 2.43232 0
M  V30 4501 H 425.416 2.19861 2.41514 0
M  V30 4502 H 424.075 3.57979 0.790351 0
M  V30 4503 H 423.723 3.83646 3.25308 0
M  V30 4504 H 423.423 5.367 2.39222 0
M  V30 4505 H 424.947 5.13967 3.29651 0
M  V30 4506 H 426.361 5.63059 1.07876 0
M  V30 4507 H 424.758 5.98936 0.373593 0
M  V30 4508 H 425.828 4.8295 -0.434394 0
M  V30 4509 N 427.171 -0.0066808 1.57599 0
M  V30 4510 C 428.134 -0.985035 2.06953 0
M  V30 4511 C 429.134 -1.27663 0.977687 0
M  V30 4512 O 430.324 -1.22293 1.24057 0
M  V30 4513 C 427.456 -2.3118 2.50536 0
M  V30 4514 H 428.649 -0.558255 2.94658 0
M  V30 4515 H 426.202 -0.254011 1.54222 0
M  V30 4516 H 426.937 -2.78561 1.66054 0
M  V30 4517 H 426.722 -2.11338 3.3027 0
M  V30 4518 H 428.212 -3.01377 2.8907 0
M  V30 4519 N 428.649 -1.55105 -0.279332 0
M  V30 4520 C 429.897 -1.75066 -1.00977 0
M  V30 4521 C 430.218 -0.551276 -1.87045 0
M  V30 4522 O 429.488 0.433984 -1.91032 0
M  V30 4523 H 428.068 -0.645578 -0.375816 0
M  V30 4524 H 430.73 -1.92497 -0.305089 0
M  V30 4525 H 429.826 -2.64894 -1.65038 0
M  V30 4526 N 430.127 0.543554 -1.4793 0
M  V30 4527 C 431.375 1.29752 -1.54948 0
M  V30 4528 C 431.696 1.93764 -0.219242 0
M  V30 4529 O 430.966 1.80639 0.75805 0
M  V30 4530 H 429.546 0.481874 -0.570795 0
M  V30 4531 H 432.208 0.633636 -1.84312 0
M  V30 4532 H 431.304 2.08392 -2.32334 0
M  V30 4533 N 431.605 1.3629 0.791371 0
M  V30 4534 C 432.835 1.33368 1.57786 0
M  V30 4535 C 433.243 -0.0875188 1.88997 0
M  V30 4536 O 432.586 -1.05427 1.50435 0
M  V30 4537 C 432.648 2.08802 2.92646 0
M  V30 4538 C 432.312 3.57903 2.84174 0
M  V30 4539 C 433.309 4.52191 2.56553 0
M  V30 4540 C 430.994 4.00762 3.02812 0
M  V30 4541 C 432.988 5.87315 2.47669 0
M  V30 4542 C 430.675 5.35977 2.93551 0
M  V30 4543 C 431.673 6.29066 2.66017 0
M  V30 4544 O 431.361 7.61798 2.56746 0
M  V30 4545 H 431.093 0.459166 0.496128 0
M  V30 4546 H 433.647 1.79952 0.990269 0
M  V30 4547 H 431.877 1.56878 3.53449 0
M  V30 4548 H 433.566 1.98762 3.53904 0
M  V30 4549 H 434.332 4.20393 2.41858 0
M  V30 4550 H 430.211 3.2868 3.2325 0
M  V30 4551 H 433.755 6.59943 2.26099 0
M  V30 4552 H 429.652 5.67384 3.07808 0
M  V30 4553 H 430.42 7.71898 2.72242 0
M  V30 4554 N 433.083 -1.0153 1.20538 0
M  V30 4555 C 434.308 -1.79283 1.04271 0
M  V30 4556 C 434.733 -1.8372 -0.403544 0
M  V30 4557 O 434.091 -1.27321 -1.2907 0
M  V30 4558 C 434.139 -3.21535 1.63241 0
M  V30 4559 O 433.243 -4.03099 0.870908 0
M  V30 4560 H 432.584 -0.55293 0.367647 0
M  V30 4561 H 435.114 -1.27696 1.59859 0
M  V30 4562 H 435.124 -3.72243 1.6703 0
M  V30 4563 H 433.799 -3.1762 2.68497 0
M  V30 4564 H 432.376 -3.61693 0.907323 0
M  V30 4565 N 434.561 -1.01147 -1.20859 0
M  V30 4566 C 435.977 -0.725422 -1.42161 0
M  V30 4567 C 436.177 0.696919 -1.89064 0
M  V30 4568 O 435.233 1.46539 -2.05627 0
M  V30 4569 C 436.546 -1.74678 -2.44761 0
M  V30 4570 C 438.094 -1.76433 -2.58535 0
M  V30 4571 C 438.569 -2.77481 -3.64374 0
M  V30 4572 N 440.06 -2.76189 -3.71852 0
M  V30 4573 C 440.795 -3.51035 -4.53389 0
M  V30 4574 N 440.291 -4.35541 -5.38773 0
M  V30 4575 N 442.084 -3.39655 -4.47873 0
M  V30 4576 H 434.235 -1.92979 -0.887282 0
M  V30 4577 H 436.498 -0.833327 -0.451962 0
M  V30 4578 H 436.204 -2.76551 -2.17285 0
M  V30 4579 H 436.078 -1.55472 -3.43669 0
M  V30 4580 H 438.465 -0.75248 -2.85345 0
M  V30 4581 H 438.546 -1.99712 -1.5984 0
M  V30 4582 H 438.19 -3.78827 -3.38308 0
M  V30 4583 H 438.12 -2.51466 -4.6268 0
M  V30 4584 H 440.611 -2.14885 -3.10858 0
M  V30 4585 H 440.924 -4.89432 -5.98061 0
M  V30 4586 H 439.269 -4.39621 -5.38292 0
M  V30 4587 H 442.46 -2.73063 -3.80203 0
M  V30 4588 H 442.633 -3.9824 -5.11184 0
M  V30 4589 N 436.039 1.36541 -0.78704 0
M  V30 4590 C 437.285 1.99599 -0.358872 0
M  V30 4591 C 437.618 1.62323 1.06606 0
M  V30 4592 O 436.893 0.876858 1.73613 0
M  V30 4593 C 437.176 3.56327 -0.519944 0
M  V30 4594 C 437.029 4.03464 -1.98839 0
M  V30 4595 C 438.348 4.4005 0.0664737 0
M  V30 4596 H 435.467 0.725107 -0.131869 0
M  V30 4597 H 438.109 1.6199 -0.992936 0
M  V30 4598 H 436.259 3.88495 0.0198321 0
M  V30 4599 H 437.931 3.81793 -2.58905 0
M  V30 4600 H 436.174 3.55092 -2.49183 0
M  V30 4601 H 436.845 5.12439 -2.05207 0
M  V30 4602 H 439.321 4.14228 -0.394267 0
M  V30 4603 H 438.197 5.48847 -0.0762682 0
M  V30 4604 H 438.458 4.26655 1.15835 0
M  V30 4605 N 437.518 0.538854 1.48102 0
M  V30 4606 C 438.448 -0.207654 2.32575 0
M  V30 4607 C 439.429 -0.926559 1.4265 0
M  V30 4608 O 440.614 -0.91061 1.71527 0
M  V30 4609 C 437.744 -1.24957 3.24042 0
M  V30 4610 C 436.698 -0.648263 4.23062 0
M  V30 4611 C 436.024 -1.79348 5.03725 0
M  V30 4612 C 437.324 0.385897 5.20872 0
M  V30 4613 H 439.018 0.497534 2.95237 0
M  V30 4614 H 436.564 0.240715 1.41974 0
M  V30 4615 H 438.517 -1.77983 3.81969 0
M  V30 4616 H 437.241 -1.98446 2.59397 0
M  V30 4617 H 435.9 -0.139452 3.66335 0
M  V30 4618 H 435.548 -2.51696 4.35498 0
M  V30 4619 H 435.248 -1.39702 5.70751 0
M  V30 4620 H 436.772 -2.32735 5.64506 0
M  V30 4621 H 438.186 -0.057607 5.73271 0
M  V30 4622 H 436.583 0.700227 5.96001 0
M  V30 4623 H 437.653 1.28848 4.67468 0
M  V30 4624 N 438.996 -1.55193 0.274407 0
M  V30 4625 C 439.944 -2.23924 -0.629362 0
M  V30 4626 C 440.938 -1.23602 -1.1584 0
M  V30 4627 O 442.144 -1.41535 -1.11211 0
M  V30 4628 H 438.519 -0.718637 -0.221507 0
M  V30 4629 H 440.49 -2.98388 -0.0268322 0
M  V30 4630 C 439.239 -2.97329 -1.80252 0
M  V30 4631 H 438.562 -3.74313 -1.40462 0
M  V30 4632 H 440.002 -3.48743 -2.41152 0
M  V30 4633 C 438.461 -2.0276 -2.69054 0
M  V30 4634 O 438.991 -1.57836 -3.69392 0
M  V30 4635 N 437.197 -1.69275 -2.36208 0
M  V30 4636 H 436.744 -2.06004 -1.54661 0
M  V30 4637 H 436.702 -1.06271 -2.95895 0
M  V30 4638 N 440.474 -0.00167713 -1.576 0
M  V30 4639 C 441.437 0.974046 -2.07473 0
M  V30 4640 C 442.437 1.27143 -0.984444 0
M  V30 4641 O 443.627 1.21633 -1.24703 0
M  V30 4642 C 440.759 2.29849 -2.51759 0
M  V30 4643 H 441.952 0.54262 -2.9495 0
M  V30 4644 H 439.505 0.245829 -1.54355 0
M  V30 4645 H 440.24 2.77677 -1.67529 0
M  V30 4646 H 440.025 2.09584 -3.31386 0
M  V30 4647 H 441.515 2.9984 -2.90664 0
M  V30 4648 N 441.952 1.55251 0.271103 0
M  V30 4649 C 442.915 1.87484 1.31842 0
M  V30 4650 C 443.915 0.749545 1.42262 0
M  V30 4651 O 445.105 1.01771 1.4138 0
M  V30 4652 C 442.237 2.0818 2.69951 0
M  V30 4653 H 443.43 2.81108 1.0449 0
M  V30 4654 H 440.983 1.47771 0.509258 0
M  V30 4655 H 441.718 1.16944 3.02481 0
M  V30 4656 H 441.503 2.90114 2.63774 0
M  V30 4657 H 442.993 2.34385 3.4562 0
M  V30 4658 N 443.43 -0.535701 1.48216 0
M  V30 4659 C 444.67 -1.30238 1.57536 0
M  V30 4660 C 445.034 -1.90479 0.241229 0
M  V30 4661 O 446.235 -2.67983 0.20938 0
M  V30 4662 C 444.506 -2.3669 2.67792 0
M  V30 4663 S 446.065 -3.23159 2.9684 0
M  V30 4664 H 442.883 -0.443093 0.556048 0
M  V30 4665 H 445.485 -0.610937 1.85709 0
M  V30 4666 H 444.189 -1.90905 3.63296 0
M  V30 4667 H 443.72 -3.10548 2.41502 0
M  V30 4668 H 445.735 -4.36647 2.35699 0
M  V30 4669 N 444.908 -1.36708 -0.784132 0
M  V30 4670 C 445.84 -1.27333 -1.90575 0
M  V30 4671 C 446.853 -0.191706 -1.61667 0
M  V30 4672 O 448.042 -0.446854 -1.72816 0
M  V30 4673 C 445.142 -0.943177 -3.25511 0
M  V30 4674 C 444.315 -2.12776 -3.82158 0
M  V30 4675 C 443.374 -1.76983 -4.95544 0
M  V30 4676 O 442.4 -2.49134 -5.11782 0
M  V30 4677 N 443.602 -0.706624 -5.76183 0
M  V30 4678 H 446.367 -2.23974 -1.99138 0
M  V30 4679 H 443.928 -1.30171 -0.962656 0
M  V30 4680 H 445.92 -0.684799 -3.98864 0
M  V30 4681 H 444.49 -0.0657333 -3.12531 0
M  V30 4682 H 443.71 -2.54863 -3.0073 0
M  V30 4683 H 444.998 -2.91904 -4.16737 0
M  V30 4684 H 444.396 -0.107643 -5.65598 0
M  V30 4685 H 442.953 -0.50808 -6.49817 0
M  V30 4686 N 446.386 1.0089 -1.21074 0
M  V30 4687 C 447.802 1.2695 -0.967257 0
M  V30 4688 C 448.002 1.9846 0.348673 0
M  V30 4689 O 447.058 2.28459 1.0753 0
M  V30 4690 C 448.371 2.09697 -2.15517 0
M  V30 4691 C 449.919 2.22937 -2.197 0
M  V30 4692 C 450.394 3.09064 -3.37999 0
M  V30 4693 N 451.885 3.16653 -3.38061 0
M  V30 4694 C 452.62 3.8354 -4.26245 0
M  V30 4695 N 452.116 4.52488 -5.2462 0
M  V30 4696 N 453.909 3.80141 -4.14064 0
M  V30 4697 H 446.06 0.529005 -2.05707 0
M  V30 4698 H 448.323 0.296148 -0.900556 0
M  V30 4699 H 448.029 1.64497 -3.10859 0
M  V30 4700 H 447.903 3.10444 -2.14253 0
M  V30 4701 H 450.29 2.67357 -1.24916 0
M  V30 4702 H 450.371 1.21673 -2.2501 0
M  V30 4703 H 450.015 2.65347 -4.33074 0
M  V30 4704 H 449.945 4.10433 -3.29928 0
M  V30 4705 H 452.436 2.67566 -2.66865 0
M  V30 4706 H 452.749 5.01219 -5.88217 0
M  V30 4707 H 451.094 4.51288 -5.28549 0
M  V30 4708 H 454.285 3.25427 -3.36474 0
M  V30 4709 H 454.458 4.31992 -4.82998 0
M  V30 4710 N 447.864 1.01787 1.20321 0
M  V30 4711 C 448.794 0.609625 2.25401 0
M  V30 4712 C 449.775 -0.375951 1.65893 0
M  V30 4713 O 450.96 -0.261101 1.92437 0
M  V30 4714 C 448.09 -0.0515995 3.47262 0
M  V30 4715 C 447.044 0.855095 4.19371 0
M  V30 4716 C 446.37 0.0595757 5.34667 0
M  V30 4717 C 447.67 2.16374 4.75373 0
M  V30 4718 H 449.364 1.48803 2.59804 0
M  V30 4719 H 446.91 0.716934 1.24884 0
M  V30 4720 H 448.863 -0.348764 4.19954 0
M  V30 4721 H 447.587 -0.964726 3.12027 0
M  V30 4722 H 446.246 1.13628 3.48546 0
M  V30 4723 H 445.894 -0.85524 4.95676 0
M  V30 4724 H 445.594 0.663406 5.83843 0
M  V30 4725 H 447.118 -0.231105 6.10162 0
M  V30 4726 H 448.532 1.92885 5.39878 0
M  V30 4727 H 446.929 2.71853 5.34991 0
M  V30 4728 H 447.999 2.82589 3.94045 0
M  V30 4729 N 449.342 -1.36122 0.79427 0
M  V30 4730 C 450.305 -2.28309 0.201889 0
M  V30 4731 C 451.305 -1.49041 -0.603603 0
M  V30 4732 O 452.495 -1.68964 -0.423888 0
M  V30 4733 C 449.627 -3.3321 -0.719978 0
M  V30 4734 H 450.82 -2.82208 1.01481 0
M  V30 4735 H 448.373 -1.45768 0.564037 0
M  V30 4736 H 449.108 -2.84475 -1.55706 0
M  V30 4737 H 448.893 -3.91835 -0.144266 0
M  V30 4738 H 450.383 -4.02044 -1.12916 0
M  V30 4739 N 450.82 -0.546701 -1.47814 0
M  V30 4740 C 452.236 -0.205717 -1.58269 0
M  V30 4741 C 452.436 1.29153 -1.54667 0
M  V30 4742 O 451.492 2.07098 -1.44453 0
M  V30 4743 C 452.805 -0.823065 -2.89216 0
M  V30 4744 C 454.353 -0.793328 -3.02779 0
M  V30 4745 C 454.828 -1.38955 -4.36412 0
M  V30 4746 N 456.319 -1.35227 -4.43021 0
M  V30 4747 C 457.054 -1.78333 -5.44963 0
M  V30 4748 N 456.55 -2.29246 -6.53772 0
M  V30 4749 N 458.343 -1.69467 -5.35945 0
M  V30 4750 H 450.494 -1.5196 -1.48398 0
M  V30 4751 H 452.757 -0.633078 -0.705632 0
M  V30 4752 H 452.463 -1.8749 -2.97558 0
M  V30 4753 H 452.337 -0.309915 -3.75925 0
M  V30 4754 H 454.724 0.249784 -2.94041 0
M  V30 4755 H 454.805 -1.34412 -2.17639 0
M  V30 4756 H 454.449 -2.43168 -4.45906 0
M  V30 4757 H 454.379 -0.814291 -5.20266 0
M  V30 4758 H 456.87 -0.979739 -3.64979 0
M  V30 4759 H 457.183 -2.60089 -7.27718 0
M  V30 4760 H 455.528 -2.3325 -6.5469 0
M  V30 4761 H 458.719 -1.29477 -4.49837 0
M  V30 4762 H 458.892 -2.03381 -6.15256 0
M  V30 4763 N 452.299 1.55045 -0.282633 0
M  V30 4764 C 453.262 2.21515 0.588539 0
M  V30 4765 C 454.262 1.19535 1.07554 0
M  V30 4766 O 455.452 1.44391 0.974514 0
M  V30 4767 C 452.584 2.88704 1.8128 0
M  V30 4768 H 453.777 2.99899 0.00806397 0
M  V30 4769 H 451.33 1.56265 -0.0333067 0
M  V30 4770 H 452.065 2.14352 2.43359 0
M  V30 4771 H 451.85 3.63443 1.47144 0
M  V30 4772 H 453.34 3.39465 2.43214 0
M  V30 4773 N 453.777 0.010035 1.57597 0
M  V30 4774 C 455.025 -0.671371 1.90623 0
M  V30 4775 C 455.346 -1.73753 0.885151 0
M  V30 4776 O 454.616 -1.95752 -0.0760611 0
M  V30 4777 H 453.196 -0.250968 0.703579 0
M  V30 4778 H 455.858 0.0533325 1.94827 0
M  V30 4779 H 454.954 -1.13626 2.90681 0
M  V30 4780 N 455.255 -1.55392 -0.262866 0
M  V30 4781 C 456.501 -1.76737 -0.99458 0
M  V30 4782 C 456.834 -0.572453 -1.85571 0
M  V30 4783 O 456.109 0.429732 -1.89693 0
M  V30 4784 C 456.392 -3.07824 -1.8686 0
M  V30 4785 C 456.245 -4.3769 -1.03672 0
M  V30 4786 C 457.564 -3.35021 -2.85393 0
M  V30 4787 H 454.683 -0.643005 -0.360157 0
M  V30 4788 H 457.325 -1.88126 -0.266216 0
M  V30 4789 H 455.475 -2.98245 -2.48962 0
M  V30 4790 H 457.147 -4.59238 -0.43563 0
M  V30 4791 H 455.39 -4.32461 -0.340513 0
M  V30 4792 H 456.061 -5.25759 -1.6817 0
M  V30 4793 H 458.537 -3.44458 -2.33426 0
M  V30 4794 H 457.413 -4.27989 -3.43681 0
M  V30 4795 H 457.674 -2.55153 -3.61039 0
M  V30 4796 N 456.733 0.527833 -1.48498 0
M  V30 4797 C 457.979 1.28545 -1.56857 0
M  V30 4798 C 458.312 1.92678 -0.242651 0
M  V30 4799 O 457.587 1.79394 0.751545 0
M  V30 4800 C 457.87 2.37314 -2.70839 0
M  V30 4801 C 457.723 1.77858 -4.13142 0
M  V30 4802 C 459.042 3.39068 -2.80573 0
M  V30 4803 H 456.161 0.466006 -0.570971 0
M  V30 4804 H 458.803 0.587784 -1.8068 0
M  V30 4805 H 456.953 2.96821 -2.50658 0
M  V30 4806 H 458.625 1.22385 -4.44769 0
M  V30 4807 H 456.868 1.08383 -4.20042 0
M  V30 4808 H 457.539 2.56624 -4.88721 0
M  V30 4809 H 460.015 2.89518 -2.98862 0
M  V30 4810 H 458.891 4.12566 -3.6205 0
M  V30 4811 H 459.152 3.9975 -1.88818 0
M  V30 4812 N 458.211 1.37122 0.776871 0
M  V30 4813 C 459.141 1.35164 1.90402 0
M  V30 4814 C 460.122 0.221069 1.68657 0
M  V30 4815 O 461.307 0.420642 1.8959 0
M  V30 4816 C 458.437 1.15274 3.27611 0
M  V30 4817 C 457.391 2.25289 3.63908 0
M  V30 4818 C 456.717 1.90527 4.99603 0
M  V30 4819 C 458.017 3.67446 3.71188 0
M  V30 4820 H 459.711 2.29482 1.92297 0
M  V30 4821 H 457.257 1.10465 0.923773 0
M  V30 4822 H 459.21 1.12536 4.06096 0
M  V30 4823 H 457.934 0.174102 3.26136 0
M  V30 4824 H 456.593 2.27174 2.87728 0
M  V30 4825 H 456.241 0.91206 4.94662 0
M  V30 4826 H 455.941 2.64193 5.24858 0
M  V30 4827 H 457.465 1.89367 5.80493 0
M  V30 4828 H 458.879 3.67719 4.39836 0
M  V30 4829 H 457.276 4.40123 4.07936 0
M  V30 4830 H 458.346 4.01443 2.71977 0
M  V30 4831 N 459.689 -1.00246 1.21608 0
M  V30 4832 C 460.935 -1.74319 1.03638 0
M  V30 4833 C 461.268 -1.89408 -0.428749 0
M  V30 4834 O 460.543 -1.43026 -1.3181 0
M  V30 4835 C 460.826 -3.15431 1.73711 0
M  V30 4836 C 460.679 -3.08049 3.27759 0
M  V30 4837 C 461.998 -4.14407 1.48173 0
M  V30 4838 H 459.117 -0.632741 0.377899 0
M  V30 4839 H 461.759 -1.16853 1.49818 0
M  V30 4840 H 459.909 -3.64493 1.34452 0
M  V30 4841 H 461.581 -2.66681 3.76403 0
M  V30 4842 H 459.824 -2.45088 3.57931 0
M  V30 4843 H 460.495 -4.07862 3.71958 0
M  V30 4844 H 462.971 -3.74061 1.82258 0
M  V30 4845 H 461.847 -5.11279 1.99713 0
M  V30 4846 H 462.108 -4.40174 0.412273 0
M  V30 4847 N 461.167 -1.02423 -1.1978 0
M  V30 4848 C 462.395 -0.737456 -1.93311 0
M  V30 4849 C 462.81 0.703023 -1.75223 0
M  V30 4850 O 462.167 1.47761 -1.07112 0
M  V30 4851 C 462.218 -1.0733 -3.45199 0
M  V30 4852 O 461.939 -2.4572 -3.62702 0
M  V30 4853 C 463.44 -0.80866 -4.35862 0
M  V30 4854 H 460.66 -0.2702 -0.614193 0
M  V30 4855 H 463.204 -1.36747 -1.52054 0
M  V30 4856 H 461.359 -0.488545 -3.84307 0
M  V30 4857 H 461.773 -2.58081 -4.56612 0
M  V30 4858 H 463.247 -1.09365 -5.41057 0
M  V30 4859 H 463.724 0.257025 -4.38447 0
M  V30 4860 H 464.33 -1.37592 -4.02428 0
M  V30 4861 N 462.645 1.35699 -0.801477 0
M  V30 4862 C 463.608 2.28199 -0.213994 0
M  V30 4863 C 464.608 1.49359 0.595691 0
M  V30 4864 O 465.798 1.69186 0.414921 0
M  V30 4865 C 462.93 3.33587 0.702297 0
M  V30 4866 H 464.123 2.81666 -1.02976 0
M  V30 4867 H 461.676 1.45467 -0.571759 0
M  V30 4868 H 462.411 2.85297 1.54195 0
M  V30 4869 H 462.196 3.91906 0.123484 0
M  V30 4870 H 463.686 4.02638 1.10783 0
M  V30 4871 N 464.123 0.554532 1.47522 0
M  V30 4872 C 465.086 -0.184174 2.28459 0
M  V30 4873 C 466.086 -0.845195 1.36796 0
M  V30 4874 O 467.276 -0.701467 1.59452 0
M  V30 4875 C 464.408 -1.26903 3.16399 0
M  V30 4876 H 465.601 0.526751 2.95238 0
M  V30 4877 H 463.154 0.311375 1.53167 0
M  V30 4878 H 463.889 -2.01244 2.54306 0
M  V30 4879 H 463.674 -0.799883 3.83854 0
M  V30 4880 H 465.164 -1.78794 3.77389 0
M  V30 4881 N 465.601 -1.54893 0.290851 0
M  V30 4882 C 466.849 -1.99538 -0.320756 0
M  V30 4883 C 467.17 -1.18075 -1.55188 0
M  V30 4884 O 466.44 -0.274162 -1.93972 0
M  V30 4885 H 465.02 -0.737052 -0.121507 0
M  V30 4886 H 467.682 -1.90755 0.399832 0
M  V30 4887 H 466.778 -3.06282 -0.599802 0
M  V30 4888 N 467.08 -0.0183926 -1.57589 0
M  V30 4889 C 468.028 0.985111 -2.10709 0
M  V30 4890 C 469.022 1.34397 -1.0312 0
M  V30 4891 O 470.228 1.32746 -1.21567 0
M  V30 4892 H 466.603 0.335418 -0.673052 0
M  V30 4893 H 468.574 0.511689 -2.9398 0
M  V30 4894 C 467.323 2.26202 -2.64061 0
M  V30 4895 H 466.646 1.9946 -3.4649 0
M  V30 4896 H 468.086 2.94652 -3.04887 0
M  V30 4897 C 466.545 2.98444 -1.5631 0
M  V30 4898 O 467.075 3.90142 -0.956674 0
M  V30 4899 N 465.281 2.6059 -1.28612 0
M  V30 4900 H 464.828 1.86101 -1.78112 0
M  V30 4901 H 464.786 3.09238 -0.567406 0
M  V30 4902 N 468.558 1.5553 0.254621 0
M  V30 4903 C 469.805 1.77 0.983736 0
M  V30 4904 C 470.133 0.58133 1.85609 0
M  V30 4905 O 469.388 -0.435621 1.9079 0
M  V30 4906 C 469.687 3.03891 1.88109 0
M  V30 4907 C 469.353 4.35597 1.16472 0
M  V30 4908 C 468.015 4.7139 0.966714 0
M  V30 4909 C 470.367 5.1705 0.656387 0
M  V30 4910 C 467.695 5.86176 0.247942 0
M  V30 4911 C 470.047 6.32581 -0.0488807 0
M  V30 4912 C 468.711 6.67 -0.258438 0
M  V30 4913 H 467.981 0.647688 0.359974 0
M  V30 4914 H 470.628 1.89802 0.254463 0
M  V30 4915 H 468.933 2.86068 2.67717 0
M  V30 4916 H 470.63 3.17701 2.44677 0
M  V30 4917 H 467.22 4.07475 1.32899 0
M  V30 4918 H 471.404 4.8986 0.796933 0
M  V30 4919 H 466.66 6.11354 0.075035 0
M  V30 4920 H 470.834 6.94942 -0.450444 0
M  V30 4921 H 468.461 7.55793 -0.817358 0
M  V30 4922 N 470.036 -0.519951 1.48776 0
M  V30 4923 C 471.452 -0.849418 1.35119 0
M  V30 4924 C 471.652 -1.98077 0.36982 0
M  V30 4925 O 470.708 -2.51664 -0.205359 0
M  V30 4926 C 472.021 -1.20748 2.75391 0
M  V30 4927 C 473.569 -1.31679 2.83954 0
M  V30 4928 C 474.044 -1.70824 4.24951 0
M  V30 4929 N 475.535 -1.77908 4.27672 0
M  V30 4930 C 476.27 -2.09603 5.33717 0
M  V30 4931 N 475.766 -2.39652 6.5003 0
M  V30 4932 N 477.559 -2.10694 5.21119 0
M  V30 4933 H 469.71 0.226377 2.1119 0
M  V30 4934 H 471.973 0.0386519 0.947212 0
M  V30 4935 H 471.679 -0.449703 3.48813 0
M  V30 4936 H 471.553 -2.15534 3.09556 0
M  V30 4937 H 473.94 -2.06532 2.10781 0
M  V30 4938 H 474.021 -0.3499 2.53396 0
M  V30 4939 H 473.665 -0.965282 4.98643 0
M  V30 4940 H 473.595 -2.6858 4.52959 0
M  V30 4941 H 476.086 -1.56923 3.43779 0
M  V30 4942 H 476.399 -2.6297 7.26682 0
M  V30 4943 H 474.744 -2.37149 6.53288 0
M  V30 4944 H 477.935 -1.86682 4.29264 0
M  V30 4945 H 478.108 -2.35062 6.03863 0
M  V30 4946 N 471.514 -1.37532 -0.769588 0
M  V30 4947 C 472.791 -1.23392 -1.51768 0
M  V30 4948 C 473.171 0.17157 -2.10402 0
M  V30 4949 O 472.519 1.17943 -1.95708 0
M  V30 4950 C 472.729 -2.33163 -2.59685 0
M  V30 4951 C 474.077 -2.70809 -3.27028 0
M  V30 4952 O 475.101 -2.32355 -2.69981 0
M  V30 4953 O 473.96 -3.37066 -4.30173 0
M  V30 4954 H 471.054 -0.481617 -0.67229 0
M  V30 4955 H 473.6 -1.49318 -0.806368 0
M  V30 4956 H 472.372 -3.27273 -2.14494 0
M  V30 4957 H 471.995 -2.08713 -3.38415 0
M  V30 4958 N 472.992 0.995999 -1.22138 0
M  V30 4959 C 474.269 1.70834 -0.952642 0
M  V30 4960 C 474.649 2.04257 0.533119 0
M  V30 4961 O 473.997 1.72343 1.50034 0
M  V30 4962 C 474.207 2.96119 -1.84701 0
M  V30 4963 C 475.555 3.68962 -2.10124 0
M  V30 4964 O 476.579 3.0612 -1.82124 0
M  V30 4965 O 475.438 4.82017 -2.57531 0
M  V30 4966 H 472.532 0.745498 -0.357997 0
M  V30 4967 H 475.078 1.05262 -1.33109 0
M  V30 4968 H 473.85 2.67898 -2.85213 0
M  V30 4969 H 473.473 3.6943 -1.46995 0
M  V30 4970 N 474.47 1.03057 1.19235 0
M  V30 4971 C 475.433 0.617418 2.20727 0
M  V30 4972 C 476.433 -0.319856 1.57587 0
M  V30 4973 O 477.623 -0.106633 1.73873 0
M  V30 4974 C 474.755 -0.096296 3.40764 0
M  V30 4975 H 475.948 1.51544 2.58794 0
M  V30 4976 H 473.501 0.821949 1.32942 0
M  V30 4977 H 474.236 -1.00859 3.08217 0
M  V30 4978 H 474.021 0.577217 3.87828 0
M  V30 4979 H 475.511 -0.372219 4.15938 0
M  V30 4980 N 475.948 -1.35272 0.808662 0
M  V30 4981 C 477.188 -2.00534 0.395668 0
M  V30 4982 C 477.552 -1.62755 -1.01857 0
M  V30 4983 O 478.753 -2.20752 -1.53368 0
M  V30 4984 C 477.024 -3.52732 0.575771 0
M  V30 4985 S 478.583 -4.38067 0.253507 0
M  V30 4986 H 475.401 -0.694962 0.150165 0
M  V30 4987 H 478.003 -1.64823 1.05137 0
M  V30 4988 H 476.707 -3.77714 1.60499 0
M  V30 4989 H 476.238 -3.93285 -0.0951739 0
M  V30 4990 H 478.253 -4.87252 -0.938068 0
M  V30 4991 N 477.426 -0.562348 -1.47226 0
M  V30 4992 C 478.356 0.170627 -2.32876 0
M  V30 4993 C 479.337 0.903748 -1.44106 0
M  V30 4994 O 480.522 0.883206 -1.72954 0
M  V30 4995 C 477.652 1.19786 -3.25989 0
M  V30 4996 C 476.606 0.580875 -4.2404 0
M  V30 4997 C 475.932 1.71311 -5.06514 0
M  V30 4998 C 477.232 -0.468714 -5.20193 0
M  V30 4999 H 478.926 -0.544441 -2.94408 0
M  V30 5000 H 476.472 -0.263271 -1.41573 0
M  V30 5001 H 478.425 1.71884 -3.84752 0
M  V30 5002 H 477.149 1.94294 -2.62521 0
M  V30 5003 H 475.808 0.0811538 -3.6651 0
M  V30 5004 H 475.456 2.44736 -4.39447 0
M  V30 5005 H 475.156 1.30604 -5.72902 0
M  V30 5006 H 476.68 2.23725 -5.68137 0
M  V30 5007 H 478.094 -0.0336028 -5.7329 0
M  V30 5008 H 476.491 -0.794957 -5.94811 0
M  V30 5009 H 477.561 -1.36269 -4.65359 0
M  V30 5010 N 478.904 1.54736 -0.299062 0
M  V30 5011 C 480.134 2.04215 0.312992 0
M  V30 5012 C 480.542 1.17596 1.48215 0
M  V30 5013 O 479.885 0.193835 1.82674 0
M  V30 5014 C 479.947 3.49696 0.833862 0
M  V30 5015 C 479.611 4.56518 -0.20977 0
M  V30 5016 C 480.608 5.09442 -1.03756 0
M  V30 5017 C 478.293 5.01073 -0.35091 0
M  V30 5018 C 480.287 6.05459 -1.99244 0
M  V30 5019 C 477.974 5.9691 -1.30924 0
M  V30 5020 C 478.972 6.48987 -2.1285 0
M  V30 5021 O 478.66 7.42947 -3.07059 0
M  V30 5022 H 478.392 0.672128 0.0722494 0
M  V30 5023 H 480.946 2.00718 -0.436043 0
M  V30 5024 H 479.176 3.5051 1.63339 0
M  V30 5025 H 480.865 3.82381 1.36159 0
M  V30 5026 H 481.631 4.75816 -0.939376 0
M  V30 5027 H 477.51 4.60168 0.276813 0
M  V30 5028 H 481.054 6.46031 -2.63229 0
M  V30 5029 H 476.951 6.29953 -1.40815 0
M  V30 5030 H 477.719 7.60743 -3.02015 0
M  V30 5031 N 480.382 0.0267497 1.57577 0
M  V30 5032 C 481.607 -0.666227 1.96408 0
M  V30 5033 C 482.032 -1.65004 0.903071 0
M  V30 5034 O 481.39 -1.80787 -0.136263 0
M  V30 5035 C 481.438 -1.35101 3.34335 0
M  V30 5036 O 480.542 -2.46623 3.30531 0
M  V30 5037 H 479.883 -0.175206 0.640468 0
M  V30 5038 H 482.413 0.0878977 2.04411 0
M  V30 5039 H 482.423 -1.70834 3.70513 0
M  V30 5040 H 481.098 -0.629844 4.11103 0
M  V30 5041 H 479.675 -2.13019 3.06068 0
M  V30 5042 N 481.861 -1.55662 -0.24637 0
M  V30 5043 C 483.272 -1.67953 -0.81539 0
M  V30 5044 C 483.623 -0.624302 -1.86002 0
M  V30 5045 O 482.748 0.229328 -2.15181 0
M  V30 5046 C 483.343 -3.04484 -1.48576 0
M  V30 5047 C 481.902 -3.18713 -2.00248 0
M  V30 5048 C 481.049 -2.6383 -0.853766 0
M  V30 5049 H 484 -1.58685 -0.0221692 0
M  V30 5050 H 484.021 -2.98959 -2.3538 0
M  V30 5051 H 483.533 -3.81264 -0.725222 0
M  V30 5052 H 481.634 -2.46757 -2.79181 0
M  V30 5053 H 481.747 -4.25628 -2.1995 0
M  V30 5054 H 480.111 -2.21667 -1.25442 0
M  V30 5055 H 480.894 -3.43135 -0.106302 0
M  V30 5056 N 483.339 0.512053 -1.4905 0
M  V30 5057 C 484.302 1.59704 -1.64399 0
M  V30 5058 C 485.302 1.52285 -0.516317 0
M  V30 5059 O 486.492 1.55635 -0.782527 0
M  V30 5060 C 483.624 2.9935 -1.63102 0
M  V30 5061 H 484.817 1.47428 -2.61161 0
M  V30 5062 H 482.37 0.735469 -1.37915 0
M  V30 5063 H 483.105 3.17116 -0.678836 0
M  V30 5064 H 482.89 3.06144 -2.44986 0
M  V30 5065 H 484.38 3.782 -1.77072 0
M  V30 5066 N 484.817 1.37938 0.762283 0
M  V30 5067 C 486.042 1.37059 1.55659 0
M  V30 5068 C 486.467 -0.0396123 1.88058 0
M  V30 5069 O 485.825 -1.01929 1.49934 0
M  V30 5070 C 485.873 2.22494 2.83776 0
M  V30 5071 O 484.977 1.63607 3.78559 0
M  V30 5072 H 484.318 0.467892 0.47114 0
M  V30 5073 H 486.848 1.81587 0.942725 0
M  V30 5074 H 486.858 2.36045 3.32786 0
M  V30 5075 H 485.533 3.24993 2.59524 0
M  V30 5076 H 484.11 1.5915 3.37233 0
M  V30 5077 N 486.295 -0.989507 1.22664 0
M  V30 5078 C 487.258 -2.06183 1.00106 0
M  V30 5079 C 488.258 -1.60765 -0.0337726 0
M  V30 5080 O 489.448 -1.72989 0.205072 0
M  V30 5081 C 486.58 -3.37021 0.51279 0
M  V30 5082 H 487.773 -2.27629 1.95256 0
M  V30 5083 H 485.326 -1.16158 1.0458 0
M  V30 5084 H 486.061 -3.21261 -0.442917 0
M  V30 5085 H 485.846 -3.71323 1.25942 0
M  V30 5086 H 487.336 -4.1591 0.375315 0
M  V30 5087 N 487.773 -1.03688 -1.18687 0
M  V30 5088 C 489.184 -0.766488 -1.70241 0
M  V30 5089 C 489.535 0.713052 -1.82784 0
M  V30 5090 O 488.66 1.55529 -1.50465 0
M  V30 5091 C 489.255 -1.38475 -3.09209 0
M  V30 5092 C 487.814 -1.16276 -3.5799 0
M  V30 5093 C 486.961 -1.4778 -2.34641 0
M  V30 5094 H 489.912 -1.20378 -1.03415 0
M  V30 5095 H 489.933 -0.785939 -3.72295 0
M  V30 5096 H 489.445 -2.46157 -3.00048 0
M  V30 5097 H 487.546 -0.104508 -3.72453 0
M  V30 5098 H 487.659 -1.8571 -4.41643 0
M  V30 5099 H 486.023 -0.897366 -2.38368 0
M  V30 5100 H 486.806 -2.56562 -2.28102 0
M  V30 5101 N 489.251 1.34841 -0.815825 0
M  V30 5102 C 490.161 2.33425 -0.234462 0
M  V30 5103 C 491.177 1.62295 0.627413 0
M  V30 5104 O 492.353 1.94109 0.536987 0
M  V30 5105 C 489.418 3.41471 0.599849 0
M  V30 5106 C 488.479 4.28362 -0.283596 0
M  V30 5107 C 487.712 5.31248 0.51099 0
M  V30 5108 O 487.935 5.43056 1.7449 0
M  V30 5109 O 486.869 6.01812 -0.10297 0
M  V30 5110 H 490.695 2.84962 -1.05024 0
M  V30 5111 H 488.28 1.37774 -0.577809 0
M  V30 5112 H 490.162 4.07464 1.07475 0
M  V30 5113 H 488.837 2.9219 1.39308 0
M  V30 5114 H 487.744 3.65318 -0.805836 0
M  V30 5115 H 489.077 4.81066 -1.041 0
M  V30 5116 N 490.729 0.570148 1.46925 0
M  V30 5117 C 491.975 0.0510284 2.02736 0
M  V30 5118 C 492.308 -1.3006 1.44215 0
M  V30 5119 O 491.583 -1.84932 0.602521 0
M  V30 5120 C 491.866 -0.028215 3.60089 0
M  V30 5121 C 491.719 1.35142 4.29018 0
M  V30 5122 C 493.038 -0.735181 4.33916 0
M  V30 5123 H 490.157 0.0200178 0.736728 0
M  V30 5124 H 492.799 0.73493 1.75211 0
M  V30 5125 H 490.949 -0.610648 3.83671 0
M  V30 5126 H 492.621 1.97806 4.16738 0
M  V30 5127 H 490.864 1.9226 3.88868 0
M  V30 5128 H 491.535 1.24857 5.37694 0
M  V30 5129 H 494.011 -0.240519 4.15404 0
M  V30 5130 H 492.887 -0.759622 5.43618 0
M  V30 5131 H 493.148 -1.79397 4.04066 0
M  V30 5132 N 492.207 -1.54576 0.307264 0
M  V30 5133 C 493.456 -1.99442 -0.300976 0
M  V30 5134 C 493.769 -1.19928 -1.5452 0
M  V30 5135 O 494.975 -1.55092 -2.22842 0
M  V30 5136 C 493.431 -3.55084 -0.586809 0
M  V30 5137 C 493.039 -4.43413 0.639438 0
M  V30 5138 C 494.783 -4.0846 -1.1559 0
M  V30 5139 C 492.69 -5.90499 0.326411 0
M  V30 5140 H 491.62 -0.744986 -0.116238 0
M  V30 5141 H 494.271 -1.787 0.416947 0
M  V30 5142 H 492.653 -3.71749 -1.36449 0
M  V30 5143 H 493.827 -4.38522 1.41545 0
M  V30 5144 H 492.142 -4.00842 1.1276 0
M  V30 5145 H 494.739 -5.15926 -1.40445 0
M  V30 5146 H 495.082 -3.59443 -2.10015 0
M  V30 5147 H 495.615 -3.95362 -0.439778 0
M  V30 5148 H 492.354 -6.43676 1.23939 0
M  V30 5149 H 491.874 -5.98382 -0.412212 0
M  V30 5150 H 493.553 -6.46962 -0.0697393 0
M  V30 5151 N 493.685 -0.035106 -1.57561 0
M  V30 5152 C 494.913 0.652258 -1.9635 0
M  V30 5153 C 495.328 1.65317 -0.911897 0
M  V30 5154 O 494.685 1.82194 0.105657 0
M  V30 5155 C 494.736 1.35337 -3.35211 0
M  V30 5156 O 494.457 0.392548 -4.36338 0
M  V30 5157 C 495.958 2.13199 -3.88666 0
M  V30 5158 H 493.178 0.179444 -0.646561 0
M  V30 5159 H 495.722 -0.0966459 -2.04271 0
M  V30 5160 H 493.877 2.05362 -3.28489 0
M  V30 5161 H 494.291 0.891097 -5.16875 0
M  V30 5162 H 495.765 2.577 -4.88154 0
M  V30 5163 H 496.242 2.97353 -3.23231 0
M  V30 5164 H 496.848 1.48118 -3.98674 0
M  V30 5165 N 495.163 1.55791 0.238111 0
M  V30 5166 C 496.409 1.78297 0.966337 0
M  V30 5167 C 496.742 0.601903 1.84637 0
M  V30 5168 O 496.017 -0.399499 1.90353 0
M  V30 5169 C 496.3 3.10758 1.81939 0
M  V30 5170 C 496.153 4.39283 0.966958 0
M  V30 5171 C 497.472 3.39519 2.80027 0
M  V30 5172 H 494.591 0.648654 0.349882 0
M  V30 5173 H 497.233 1.88525 0.236253 0
M  V30 5174 H 495.383 3.02168 2.44185 0
M  V30 5175 H 497.055 4.59873 0.362514 0
M  V30 5176 H 495.298 4.32948 0.271669 0
M  V30 5177 H 495.969 5.28368 1.59784 0
M  V30 5178 H 498.445 3.48128 2.27917 0
M  V30 5179 H 497.321 4.33402 3.36829 0
M  V30 5180 H 497.582 2.60864 3.56934 0
M  V30 5181 N 496.642 -0.504142 1.49319 0
M  V30 5182 C 497.89 -1.25598 1.58334 0
M  V30 5183 C 498.211 -1.93114 0.270538 0
M  V30 5184 O 497.481 -1.82585 -0.709891 0
M  V30 5185 H 496.061 -0.466571 0.58337 0
M  V30 5186 H 498.723 -0.584547 1.85928 0
M  V30 5187 H 497.819 -2.02159 2.37778 0
M  V30 5188 N 498.12 -1.38341 -0.754957 0
M  V30 5189 C 499.083 -1.35262 -1.85032 0
M  V30 5190 C 500.083 -0.253393 -1.58791 0
M  V30 5191 O 501.273 -0.510205 -1.66561 0
M  V30 5192 C 498.405 -1.10544 -3.22479 0
M  V30 5193 H 499.598 -2.32712 -1.8917 0
M  V30 5194 H 497.151 -1.23614 -0.956515 0
M  V30 5195 H 497.886 -0.136952 -3.24011 0
M  V30 5196 H 497.671 -1.90127 -3.4292 0
M  V30 5197 H 499.161 -1.11082 -4.02555 0
M  V30 5198 N 499.598 0.982988 -1.23187 0
M  V30 5199 C 500.826 1.75921 -1.08901 0
M  V30 5200 C 501.241 1.85341 0.359719 0
M  V30 5201 O 500.598 1.33072 1.24892 0
M  V30 5202 C 500.649 3.18742 -1.70545 0
M  V30 5203 O 500.37 3.09814 -3.09753 0
M  V30 5204 C 501.871 4.1277 -1.61667 0
M  V30 5205 H 499.091 0.552166 -0.381252 0
M  V30 5206 H 501.635 1.23516 -1.62985 0
M  V30 5207 H 499.79 3.68182 -1.20501 0
M  V30 5208 H 500.204 3.99703 -3.39614 0
M  V30 5209 H 501.678 5.10697 -2.09506 0
M  V30 5210 H 502.155 4.3542 -0.575009 0
M  V30 5211 H 502.761 3.69232 -2.11064 0
M  V30 5212 N 501.076 1.04316 1.18135 0
M  V30 5213 C 502.024 0.630175 2.23901 0
M  V30 5214 C 503.018 -0.344254 1.65865 0
M  V30 5215 O 504.224 -0.211273 1.78756 0
M  V30 5216 H 500.599 0.185578 0.728742 0
M  V30 5217 H 502.57 1.53253 2.56039 0
M  V30 5218 C 501.319 0.011666 3.47698 0
M  V30 5219 H 500.642 0.752526 3.92654 0
M  V30 5220 H 502.082 -0.240046 4.2332 0
M  V30 5221 C 500.541 -1.23913 3.13285 0
M  V30 5222 O 501.071 -2.32959 3.27251 0
M  V30 5223 N 499.277 -1.13338 2.67587 0
M  V30 5224 H 498.824 -0.246006 2.56423 0
M  V30 5225 H 498.782 -1.97116 2.44934 0
M  V30 5226 N 502.554 -1.34406 0.822964 0
M  V30 5227 C 503.517 -2.2783 0.250271 0
M  V30 5228 C 504.517 -1.50288 -0.571854 0
M  V30 5229 O 505.707 -1.69825 -0.387952 0
M  V30 5230 C 502.839 -3.34663 -0.649137 0
M  V30 5231 H 504.032 -2.79992 1.07444 0
M  V30 5232 H 501.585 -1.44539 0.594829 0
M  V30 5233 H 502.32 -2.87714 -1.49637 0
M  V30 5234 H 502.105 -3.92052 -0.0611199 0
M  V30 5235 H 503.595 -4.04349 -1.04363 0
M  V30 5236 N 504.032 -0.577932 -1.46621 0
M  V30 5237 C 504.964 0.195801 -2.28362 0
M  V30 5238 C 505.977 0.859983 -1.38232 0
M  V30 5239 O 507.166 0.730349 -1.62875 0
M  V30 5240 C 504.266 1.29639 -3.13124 0
M  V30 5241 C 503.439 0.725049 -4.31349 0
M  V30 5242 C 502.498 1.71274 -4.97546 0
M  V30 5243 O 501.524 1.25067 -5.5529 0
M  V30 5244 N 502.726 3.04672 -4.94121 0
M  V30 5245 H 505.491 -0.505468 -2.95407 0
M  V30 5246 H 503.052 -0.415381 -1.56481 0
M  V30 5247 H 505.044 1.95631 -3.54275 0
M  V30 5248 H 503.614 1.90059 -2.48186 0
M  V30 5249 H 502.834 -0.112205 -3.9404 0
M  V30 5250 H 504.122 0.323034 -5.07774 0
M  V30 5251 H 503.52 3.4484 -4.48444 0
M  V30 5252 H 502.077 3.66166 -5.39227 0
M  V30 5253 N 505.51 1.54411 -0.315457 0
M  V30 5254 C 506.787 1.92562 0.343398 0
M  V30 5255 C 507.167 1.24423 1.70535 0
M  V30 5256 O 506.515 0.385051 2.25232 0
M  V30 5257 C 506.725 3.46168 0.443687 0
M  V30 5258 C 508.073 4.18659 0.707783 0
M  V30 5259 O 509.097 3.52281 0.52693 0
M  V30 5260 O 507.956 5.36198 1.05612 0
M  V30 5261 H 505.05 0.80379 0.194552 0
M  V30 5262 H 507.596 1.65738 -0.364577 0
M  V30 5263 H 506.368 3.8792 -0.513172 0
M  V30 5264 H 505.991 3.79073 1.19956 0
M  V30 5265 N 506.988 0.0434614 1.5754 0
M  V30 5266 C 507.92 -0.962586 2.08007 0
M  V30 5267 C 508.933 -1.27972 1.00634 0
M  V30 5268 O 510.122 -1.24186 1.28219 0
M  V30 5269 C 507.222 -2.28621 2.50171 0
M  V30 5270 C 506.395 -2.15214 3.80791 0
M  V30 5271 C 505.454 -3.30633 4.09351 0
M  V30 5272 O 504.48 -3.0688 4.79388 0
M  V30 5273 N 505.682 -4.54873 3.60654 0
M  V30 5274 H 508.447 -0.531891 2.94942 0
M  V30 5275 H 506.008 -0.142965 1.61268 0
M  V30 5276 H 508 -3.04689 2.66359 0
M  V30 5277 H 506.57 -2.63283 1.68525 0
M  V30 5278 H 505.79 -1.23785 3.74261 0
M  V30 5279 H 507.078 -2.03475 4.66343 0
M  V30 5280 H 506.476 -4.77063 3.04019 0
M  V30 5281 H 505.033 -5.2806 3.82094 0
M  V30 5282 N 508.466 -1.55915 -0.229846 0
M  V30 5283 C 509.877 -1.68809 -0.797531 0
M  V30 5284 C 510.228 -0.643995 -1.8533 0
M  V30 5285 O 509.353 0.206492 -2.15413 0
M  V30 5286 C 509.948 -3.06043 -1.45338 0
M  V30 5287 C 508.507 -3.20819 -1.96856 0
M  V30 5288 C 507.654 -2.6472 -0.825736 0
M  V30 5289 H 510.605 -1.58699 -0.00533733 0
M  V30 5290 H 510.626 -3.01438 -2.32196 0
M  V30 5291 H 510.138 -3.82012 -0.684743 0
M  V30 5292 H 508.239 -2.49704 -2.76548 0
M  V30 5293 H 508.352 -4.27937 -2.15423 0
M  V30 5294 H 506.716 -2.22985 -1.23084 0
M  V30 5295 H 507.499 -3.43229 -0.0699019 0
M  V30 5296 N 509.944 0.496216 -1.49584 0
M  V30 5297 C 511.19 1.25189 -1.59548 0
M  V30 5298 C 511.523 1.9212 -0.283466 0
M  V30 5299 O 510.798 1.80947 0.713324 0
M  V30 5300 C 511.081 2.31516 -2.75812 0
M  V30 5301 C 510.934 1.69054 -4.16822 0
M  V30 5302 C 512.253 3.3304 -2.87702 0
M  V30 5303 H 509.372 0.45379 -0.580727 0
M  V30 5304 H 512.014 0.549327 -1.81886 0
M  V30 5305 H 510.164 2.91438 -2.56897 0
M  V30 5306 H 511.836 1.12923 -4.47265 0
M  V30 5307 H 510.079 0.994485 -4.22247 0
M  V30 5308 H 510.75 2.462 -4.94054 0
M  V30 5309 H 513.226 2.83114 -3.04936 0
M  V30 5310 H 512.102 4.04794 -3.7072 0
M  V30 5311 H 512.363 3.95655 -1.97255 0
M  V30 5312 N 511.423 1.38739 0.74761 0
M  V30 5313 C 512.651 1.38521 1.53686 0
M  V30 5314 C 513.066 -0.0235129 1.88785 0
M  V30 5315 O 512.423 -0.991662 1.53207 0
M  V30 5316 C 512.474 2.24641 2.83229 0
M  V30 5317 O 512.195 3.60026 2.49625 0
M  V30 5318 C 513.696 2.32669 3.77333 0
M  V30 5319 H 510.916 0.473589 0.475347 0
M  V30 5320 H 513.46 1.82395 0.924786 0
M  V30 5321 H 511.615 1.84213 3.40799 0
M  V30 5322 H 512.029 4.05435 3.3275 0
M  V30 5323 H 513.503 2.97201 4.65162 0
M  V30 5324 H 513.98 1.3421 4.18192 0
M  V30 5325 H 514.586 2.73512 3.25685 0
M  V30 5326 N 512.901 -0.976442 1.23707 0
M  V30 5327 C 513.831 -2.08749 1.04624 0
M  V30 5328 C 514.812 -1.70057 -0.0380956 0
M  V30 5329 O 515.997 -1.93782 0.127308 0
M  V30 5330 C 513.127 -3.41335 0.640902 0
M  V30 5331 C 512.081 -3.93947 1.67302 0
M  V30 5332 C 511.407 -5.22774 1.12301 0
M  V30 5333 C 512.707 -4.22769 3.06697 0
M  V30 5334 H 514.401 -2.24972 1.97555 0
M  V30 5335 H 511.947 -1.08108 0.951247 0
M  V30 5336 H 513.9 -4.18489 0.494434 0
M  V30 5337 H 512.624 -3.24988 -0.324099 0
M  V30 5338 H 511.283 -3.18941 1.80755 0
M  V30 5339 H 510.931 -5.0278 0.148877 0
M  V30 5340 H 510.631 -5.58942 1.81267 0
M  V30 5341 H 512.155 -6.02546 0.988479 0
M  V30 5342 H 513.569 -4.90659 2.96524 0
M  V30 5343 H 511.966 -4.70147 3.72937 0
M  V30 5344 H 513.036 -3.29885 3.55392 0
M  V30 5345 N 514.379 -1.04941 -1.1758 0
M  V30 5346 C 515.627 -0.756492 -1.87408 0
M  V30 5347 C 515.948 0.718478 -1.81281 0
M  V30 5348 O 515.218 1.519 -1.23706 0
M  V30 5349 H 513.798 -0.276841 -0.693807 0
M  V30 5350 H 516.46 -1.32803 -1.42652 0
M  V30 5351 H 515.556 -1.06918 -2.93215 0
M  V30 5352 N 515.857 1.33968 -0.830081 0
M  V30 5353 C 517.085 2.0228 -0.434773 0
M  V30 5354 C 517.5 1.62487 0.961419 0
M  V30 5355 O 516.857 0.833849 1.62337 0
M  V30 5356 C 516.908 3.5751 -0.535625 0
M  V30 5357 O 516.629 3.95864 -1.87679 0
M  V30 5358 C 518.13 4.43091 -0.136137 0
M  V30 5359 H 515.35 0.648151 -0.173613 0
M  V30 5360 H 517.894 1.71089 -1.12022 0
M  V30 5361 H 516.049 3.87266 0.101817 0
M  V30 5362 H 516.463 4.9056 -1.85609 0
M  V30 5363 H 517.937 5.51398 -0.257772 0
M  V30 5364 H 518.414 4.29433 0.921076 0
M  V30 5365 H 519.02 4.18677 -0.747662 0
M  V30 5366 N 517.335 0.585699 1.46312 0
M  V30 5367 C 518.265 -0.133556 2.33118 0
M  V30 5368 C 519.246 -0.880707 1.45525 0
M  V30 5369 O 520.431 -0.855579 1.74337 0
M  V30 5370 C 517.561 -1.14585 3.27853 0
M  V30 5371 C 516.515 -0.513341 4.2491 0
M  V30 5372 C 515.841 -1.63231 5.09175 0
M  V30 5373 C 517.141 0.551413 5.19381 0
M  V30 5374 H 518.835 0.59121 2.93505 0
M  V30 5375 H 516.381 0.285761 1.41136 0
M  V30 5376 H 518.334 -1.65741 3.87438 0
M  V30 5377 H 517.058 -1.90093 2.65579 0
M  V30 5378 H 515.717 -0.0228349 3.66593 0
M  V30 5379 H 515.365 -2.37713 4.43285 0
M  V30 5380 H 515.065 -1.21473 5.74907 0
M  V30 5381 H 516.589 -2.14658 5.71624 0
M  V30 5382 H 518.003 0.124804 5.73164 0
M  V30 5383 H 516.4 0.889486 5.93471 0
M  V30 5384 H 517.47 1.43655 4.63132 0
M  V30 5385 N 518.813 -1.54241 0.323641 0
M  V30 5386 C 520.061 -2.00174 -0.278359 0
M  V30 5387 C 520.382 -1.2134 -1.52648 0
M  V30 5388 O 519.652 -0.315244 -1.93347 0
M  V30 5389 H 518.232 -0.739463 -0.105845 0
M  V30 5390 H 520.894 -1.89864 0.440204 0
M  V30 5391 H 519.99 -3.07486 -0.5347 0
M  V30 5392 N 520.291 -0.0518155 -1.57515 0
M  V30 5393 C 521.519 0.631395 -1.9703 0
M  V30 5394 C 521.934 1.64341 -0.92938 0
M  V30 5395 O 521.291 1.82296 0.0863266 0
M  V30 5396 C 521.342 1.31774 -3.36627 0
M  V30 5397 O 521.063 0.346247 -4.3673 0
M  V30 5398 C 522.564 2.09065 -3.90905 0
M  V30 5399 H 519.784 0.172576 -0.648428 0
M  V30 5400 H 522.328 -0.118306 -2.04158 0
M  V30 5401 H 520.483 2.01867 -3.30649 0
M  V30 5402 H 520.897 0.836226 -5.17791 0
M  V30 5403 H 522.371 2.52508 -4.9086 0
M  V30 5404 H 522.848 2.93908 -3.26366 0
M  V30 5405 H 523.454 1.43882 -4.00223 0
M  V30 5406 N 521.769 1.56035 0.221574 0
M  V30 5407 C 522.717 1.93269 1.29421 0
M  V30 5408 C 523.711 0.814727 1.48521 0
M  V30 5409 O 524.917 0.999559 1.49696 0
M  V30 5410 H 521.292 0.614188 0.43391 0
M  V30 5411 H 523.263 2.82773 0.952987 0
M  V30 5412 C 522.012 2.26573 2.63742 0
M  V30 5413 H 521.335 3.12112 2.49853 0
M  V30 5414 H 522.775 2.5651 3.37607 0
M  V30 5415 C 521.234 1.09086 3.1875 0
M  V30 5416 O 521.764 0.351985 4.00155 0
M  V30 5417 N 519.97 0.874693 2.77124 0
M  V30 5418 H 519.517 1.47726 2.11033 0
M  V30 5419 H 519.475 0.0903349 3.1427 0
M  V30 5420 N 523.247 -0.488276 1.49845 0
M  V30 5421 C 524.494 -1.24157 1.59973 0
M  V30 5422 C 524.822 -1.92293 0.292182 0
M  V30 5423 O 524.077 -1.81942 -0.720813 0
M  V30 5424 C 524.376 -2.32152 2.71735 0
M  V30 5425 C 524.042 -1.81387 4.12807 0
M  V30 5426 C 522.704 -1.67262 4.51195 0
M  V30 5427 C 525.056 -1.43537 5.01045 0
M  V30 5428 C 522.384 -1.13685 5.7558 0
M  V30 5429 C 524.736 -0.914081 6.25961 0
M  V30 5430 C 523.4 -0.759327 6.63167 0
M  V30 5431 H 522.67 -0.454322 0.585383 0
M  V30 5432 H 525.317 -0.540261 1.83721 0
M  V30 5433 H 523.622 -3.08122 2.42008 0
M  V30 5434 H 525.319 -2.90164 2.76778 0
M  V30 5435 H 521.909 -1.93344 3.82513 0
M  V30 5436 H 526.093 -1.53292 4.72033 0
M  V30 5437 H 521.349 -1.00426 6.03096 0
M  V30 5438 H 525.523 -0.612066 6.93705 0
M  V30 5439 H 523.15 -0.342002 7.5943 0
M  V30 5440 N 524.725 -1.39134 -0.740242 0
M  V30 5441 C 525.973 -1.35803 -1.49673 0
M  V30 5442 C 526.294 0.0470897 -1.94943 0
M  V30 5443 O 525.564 0.997347 -1.68611 0
M  V30 5444 H 524.144 -0.499736 -0.555224 0
M  V30 5445 H 526.806 -1.73947 -0.879107 0
M  V30 5446 H 525.902 -2.0174 -2.38133 0
M  V30 5447 N 526.204 0.969867 -1.24223 0
M  V30 5448 C 527.62 1.23809 -1.00716 0
M  V30 5449 C 527.82 1.99469 0.285358 0
M  V30 5450 O 526.876 2.31764 1.00207 0
M  V30 5451 C 528.189 2.02734 -2.2208 0
M  V30 5452 C 529.737 2.15834 -2.26681 0
M  V30 5453 C 530.212 2.98154 -3.47661 0
M  V30 5454 N 531.703 3.05737 -3.47964 0
M  V30 5455 C 532.438 3.69785 -4.38231 0
M  V30 5456 N 531.934 4.35569 -5.3875 0
M  V30 5457 N 533.727 3.66775 -4.25949 0
M  V30 5458 H 525.878 0.463294 -2.07286 0
M  V30 5459 H 528.141 0.267348 -0.909521 0
M  V30 5460 H 527.847 1.54524 -3.15935 0
M  V30 5461 H 527.721 3.0347 -2.24021 0
M  V30 5462 H 530.108 2.63248 -1.33359 0
M  V30 5463 H 530.189 1.14453 -2.28767 0
M  V30 5464 H 529.833 2.51435 -4.41297 0
M  V30 5465 H 529.763 3.99729 -3.42818 0
M  V30 5466 H 532.254 2.58941 -2.75242 0
M  V30 5467 H 532.567 4.82251 -6.03866 0
M  V30 5468 H 530.912 4.34244 -5.42639 0
M  V30 5469 H 534.103 3.14558 -3.46657 0
M  V30 5470 H 534.276 4.16407 -4.96497 0
M  V30 5471 N 527.682 1.05563 1.17022 0
M  V30 5472 C 528.922 0.777033 1.89054 0
M  V30 5473 C 529.286 -0.683617 1.79418 0
M  V30 5474 O 530.487 -1.07648 2.46303 0
M  V30 5475 C 528.758 1.24886 3.34871 0
M  V30 5476 S 530.317 1.0982 4.24835 0
M  V30 5477 H 527.135 0.282082 0.652649 0
M  V30 5478 H 529.737 1.35103 1.41306 0
M  V30 5479 H 528.441 2.30699 3.3942 0
M  V30 5480 H 527.972 0.669292 3.87665 0
M  V30 5481 H 529.987 0.02462 4.96194 0
M  V30 5482 N 529.16 -1.33526 0.837174 0
M  V30 5483 C 530.406 -1.9813 0.432704 0
M  V30 5484 C 530.739 -1.66168 -1.00508 0
M  V30 5485 O 530.014 -0.94069 -1.70239 0
M  V30 5486 C 530.297 -3.54151 0.651834 0
M  V30 5487 C 530.15 -3.95806 2.13676 0
M  V30 5488 C 531.469 -4.39993 0.0968937 0
M  V30 5489 H 528.588 -0.719713 0.15869 0
M  V30 5490 H 531.23 -1.58193 1.05237 0
M  V30 5491 H 529.38 -3.88301 0.124369 0
M  V30 5492 H 531.052 -3.71921 2.72896 0
M  V30 5493 H 529.295 -3.45599 2.62191 0
M  V30 5494 H 529.966 -5.0447 2.24084 0
M  V30 5495 H 532.442 -4.12479 0.547733 0
M  V30 5496 H 531.318 -5.48186 0.279917 0
M  V30 5497 H 531.579 -4.3066 -0.9992 0
M  V30 5498 N 530.638 -0.59345 -1.46 0
M  V30 5499 C 531.915 -0.0157933 -1.95594 0
M  V30 5500 C 532.295 1.44807 -1.53604 0
M  V30 5501 O 531.643 2.14342 -0.791824 0
M  V30 5502 C 531.853 -0.199081 -3.48432 0
M  V30 5503 C 533.201 -0.0724943 -4.24538 0
M  V30 5504 O 534.225 -0.128469 -3.55968 0
M  V30 5505 O 533.084 0.0542426 -5.46473 0
M  V30 5506 H 530.178 0.043749 -0.825842 0
M  V30 5507 H 532.724 -0.662522 -1.56233 0
M  V30 5508 H 531.496 -1.21631 -3.71916 0
M  V30 5509 H 531.119 0.483576 -3.94648 0
M  V30 5510 N 532.116 1.54067 -0.331816 0
M  V30 5511 C 533.046 2.27569 0.522932 0
M  V30 5512 C 534.027 1.28679 1.11247 0
M  V30 5513 O 535.212 1.57504 1.13605 0
M  V30 5514 C 532.342 3.0397 1.67987 0
M  V30 5515 C 531.296 4.10267 1.21924 0
M  V30 5516 C 530.622 4.74555 2.46377 0
M  V30 5517 C 531.922 5.21268 0.32815 0
M  V30 5518 H 533.616 2.99264 -0.0901977 0
M  V30 5519 H 531.162 1.4393 -0.044821 0
M  V30 5520 H 533.115 3.54123 2.28418 0
M  V30 5521 H 531.839 2.29906 2.31971 0
M  V30 5522 H 530.498 3.61009 0.637809 0
M  V30 5523 H 530.146 3.97098 3.08743 0
M  V30 5524 H 529.846 5.46363 2.16243 0
M  V30 5525 H 531.37 5.27487 3.07555 0
M  V30 5526 H 532.784 5.67128 0.838978 0
M  V30 5527 H 531.181 5.99982 0.119228 0
M  V30 5528 H 532.251 4.80673 -0.638839 0
M  V30 5529 N 533.594 0.0601682 1.57485 0
M  V30 5530 C 534.841 -0.611594 1.93043 0
M  V30 5531 C 535.169 -1.70317 0.939274 0
M  V30 5532 O 534.424 -1.95644 -0.046996 0
M  V30 5533 C 534.723 -1.23831 3.35262 0
M  V30 5534 C 534.389 -0.274037 4.50066 0
M  V30 5535 C 533.051 -0.00872394 4.81199 0
M  V30 5536 C 535.403 0.386308 5.19766 0
M  V30 5537 C 532.731 0.924218 5.79375 0
M  V30 5538 C 535.083 1.3075 6.1894 0
M  V30 5539 C 533.747 1.58139 6.48497 0
M  V30 5540 H 533.017 -0.223798 0.706396 0
M  V30 5541 H 535.664 0.128566 1.91068 0
M  V30 5542 H 533.969 -2.05394 3.33647 0
M  V30 5543 H 535.666 -1.76517 3.60059 0
M  V30 5544 H 532.256 -0.491008 4.25778 0
M  V30 5545 H 536.44 0.194436 4.95919 0
M  V30 5546 H 531.696 1.1438 6.00606 0
M  V30 5547 H 535.87 1.82519 6.72056 0
M  V30 5548 H 533.497 2.30593 7.24383 0
M  V30 5549 N 535.072 -1.5615 -0.213296 0
M  V30 5550 C 536.035 -1.92249 -1.24792 0
M  V30 5551 C 537.035 -0.801828 -1.39382 0
M  V30 5552 O 538.225 -1.06948 -1.37506 0
M  V30 5553 C 535.357 -2.18056 -2.62039 0
M  V30 5554 H 536.55 -2.84793 -0.939845 0
M  V30 5555 H 534.103 -1.49559 -0.454062 0
M  V30 5556 H 534.838 -1.2809 -2.97932 0
M  V30 5557 H 534.623 -2.99703 -2.52825 0
M  V30 5558 H 536.113 -2.47051 -3.36683 0
M  V30 5559 N 536.55 0.480323 -1.50102 0
M  V30 5560 C 537.961 1.06142 -1.53593 0
M  V30 5561 C 538.312 1.93335 -0.334055 0
M  V30 5562 O 537.437 2.09188 0.55403 0
M  V30 5563 C 538.032 1.9317 -2.78336 0
M  V30 5564 C 536.591 2.46405 -2.84538 0
M  V30 5565 C 535.738 1.24521 -2.4777 0
M  V30 5566 H 538.689 0.26333 -1.565 0
M  V30 5567 H 538.71 2.78123 -2.59669 0
M  V30 5568 H 538.222 1.29683 -3.65792 0
M  V30 5569 H 536.323 3.13472 -2.01411 0
M  V30 5570 H 536.436 2.82143 -3.87211 0
M  V30 5571 H 534.8 1.57706 -2.00003 0
M  V30 5572 H 535.583 0.627102 -3.37524 0
M  V30 5573 N 538.028 1.39524 0.732853 0
M  V30 5574 C 539.276 1.36594 1.48951 0
M  V30 5575 C 539.597 -0.0367507 1.94965 0
M  V30 5576 O 538.867 -0.988391 1.69138 0
M  V30 5577 H 537.447 0.502673 0.552566 0
M  V30 5578 H 540.109 1.74411 0.869869 0
M  V30 5579 H 539.205 2.03 2.3706 0
M  V30 5580 N 539.506 -0.963266 1.24736 0
M  V30 5581 C 540.416 -2.09246 1.06082 0
M  V30 5582 C 541.432 -1.74 0.000363101 0
M  V30 5583 O 542.608 -2.0041 0.199479 0
M  V30 5584 C 539.673 -3.40115 0.672498 0
M  V30 5585 C 538.734 -3.89282 1.80993 0
M  V30 5586 C 537.967 -5.13905 1.44004 0
M  V30 5587 O 538.19 -5.69434 0.331835 0
M  V30 5588 O 537.124 -5.57566 2.26723 0
M  V30 5589 H 540.95 -2.27881 2.00759 0
M  V30 5590 H 538.535 -1.07649 1.03595 0
M  V30 5591 H 540.417 -4.18797 0.467668 0
M  V30 5592 H 539.092 -3.22771 -0.245102 0
M  V30 5593 H 537.999 -3.11642 2.06955 0
M  V30 5594 H 539.332 -4.1111 2.70646 0
M  V30 5595 N 540.985 -1.06182 -1.16461 0
M  V30 5596 C 542.262 -0.691364 -1.82974 0
M  V30 5597 C 542.642 0.827377 -1.9421 0
M  V30 5598 O 541.99 1.73723 -1.48434 0
M  V30 5599 C 542.2 -1.39199 -3.20038 0
M  V30 5600 C 543.548 -1.53647 -3.95825 0
M  V30 5601 O 544.572 -1.35181 -3.29552 0
M  V30 5602 O 543.431 -1.83932 -5.14618 0
M  V30 5603 H 540.525 -0.244605 -0.789998 0
M  V30 5604 H 543.071 -1.16203 -1.23673 0
M  V30 5605 H 541.843 -2.42766 -3.06888 0
M  V30 5606 H 541.466 -0.911335 -3.87015 0
M  V30 5607 N 542.463 1.3308 -0.844243 0
M  V30 5608 C 543.712 1.96868 -0.438833 0
M  V30 5609 C 544.025 1.67599 1.00846 0
M  V30 5610 O 545.231 2.25043 1.51881 0
M  V30 5611 C 543.687 3.5234 -0.73377 0
M  V30 5612 C 543.295 3.90481 -2.1961 0
M  V30 5613 C 545.039 4.22653 -0.395574 0
M  V30 5614 C 542.946 5.38954 -2.43481 0
M  V30 5615 H 541.876 0.736749 -0.160364 0
M  V30 5616 H 544.527 1.51623 -1.03358 0
M  V30 5617 H 542.909 3.95941 -0.068589 0
M  V30 5618 H 544.083 3.57922 -2.90221 0
M  V30 5619 H 542.398 3.33165 -2.4978 0
M  V30 5620 H 544.995 5.31848 -0.551477 0
M  V30 5621 H 545.338 4.11004 0.661921 0
M  V30 5622 H 545.871 3.84601 -1.01621 0
M  V30 5623 H 542.61 5.55612 -3.47816 0
M  V30 5624 H 542.13 5.72954 -1.77437 0
M  V30 5625 H 543.809 6.05907 -2.26905 0
M  V30 5626 N 543.941 0.601185 1.45683 0
M  V30 5627 C 545.19 0.0914953 2.01492 0
M  V30 5628 C 545.503 -1.28331 1.47616 0
M  V30 5629 O 546.709 -1.88537 1.95362 0
M  V30 5630 C 545.165 0.11291 3.59723 0
M  V30 5631 C 544.773 1.48717 4.22596 0
M  V30 5632 C 546.517 -0.341871 4.23121 0
M  V30 5633 C 544.424 1.46531 5.7296 0
M  V30 5634 H 543.354 0.0304365 0.753385 0
M  V30 5635 H 546.005 0.755568 1.67223 0
M  V30 5636 H 544.387 -0.617692 3.91153 0
M  V30 5637 H 545.561 2.23897 4.02749 0
M  V30 5638 H 543.876 1.88351 3.71366 0
M  V30 5639 H 546.473 -0.377304 5.33367 0
M  V30 5640 H 546.816 -1.36325 3.93346 0
M  V30 5641 H 547.349 0.335256 3.96385 0
M  V30 5642 H 544.088 2.46408 6.07423 0
M  V30 5643 H 543.608 0.755997 5.95017 0
M  V30 5644 H 545.287 1.18618 6.36034 0
M  V30 5645 N 545.419 -1.53889 0.339982 0
M  V30 5646 C 546.667 -2.00458 -0.257112 0
M  V30 5647 C 546.988 -1.22953 -1.51353 0
M  V30 5648 O 546.258 -0.335734 -1.93002 0
M  V30 5649 H 544.838 -0.740544 -0.0979965 0
M  V30 5650 H 547.5 -1.89386 0.460317 0
M  V30 5651 H 546.596 -3.08035 -0.502057 0
M  V30 5652 N 546.897 -0.0685191 -1.57451 0
M  V30 5653 C 547.86 0.885173 -2.11417 0
M  V30 5654 C 548.86 1.22853 -1.03748 0
M  V30 5655 O 550.05 1.16235 -1.2975 0
M  V30 5656 C 547.182 2.18964 -2.61281 0
M  V30 5657 H 548.375 0.417034 -2.96986 0
M  V30 5658 H 545.928 0.18014 -1.55258 0
M  V30 5659 H 546.663 2.70321 -1.79156 0
M  V30 5660 H 546.448 1.9534 -3.39977 0
M  V30 5661 H 547.938 2.87242 -3.0312 0
M  V30 5662 N 548.375 1.56261 0.205012 0
M  V30 5663 C 549.6 1.84491 0.947512 0
M  V30 5664 C 550.025 0.650894 1.76479 0
M  V30 5665 O 549.383 -0.40035 1.76824 0
M  V30 5666 C 549.431 3.10863 1.82747 0
M  V30 5667 O 548.535 2.90719 2.925 0
M  V30 5668 H 547.876 0.607783 0.267386 0
M  V30 5669 H 550.406 2.03485 0.213323 0
M  V30 5670 H 550.416 3.41399 2.23407 0
M  V30 5671 H 549.091 3.97392 1.2269 0
M  V30 5672 H 547.668 2.71457 2.55667 0
M  V30 5673 N 549.853 -0.472356 1.50355 0
M  V30 5674 C 551.078 -1.25251 1.65309 0
M  V30 5675 C 551.503 -1.85081 0.335643 0
M  V30 5676 O 550.861 -1.67227 -0.700335 0
M  V30 5677 C 550.909 -2.3379 2.74544 0
M  V30 5678 O 550.013 -3.38401 2.35709 0
M  V30 5679 H 549.354 -0.368539 0.552336 0
M  V30 5680 H 551.884 -0.562271 1.96722 0
M  V30 5681 H 551.894 -2.79121 2.97583 0
M  V30 5682 H 550.569 -1.89614 3.70161 0
M  V30 5683 H 549.146 -2.9879 2.23112 0
M  V30 5684 N 551.331 -1.39911 -0.725443 0
M  V30 5685 C 552.608 -1.28158 -1.47766 0
M  V30 5686 C 552.988 0.104545 -2.10841 0
M  V30 5687 O 552.336 1.11657 -1.99361 0
M  V30 5688 C 552.546 -2.41306 -2.52135 0
M  V30 5689 C 553.894 -2.81076 -3.18247 0
M  V30 5690 O 554.918 -2.40827 -2.62452 0
M  V30 5691 O 553.777 -3.50581 -4.19231 0
M  V30 5692 H 550.871 -0.502761 -0.656628 0
M  V30 5693 H 553.417 -1.51808 -0.758456 0
M  V30 5694 H 552.189 -3.33932 -2.03974 0
M  V30 5695 H 551.812 -2.19374 -3.31603 0
M  V30 5696 N 552.809 0.956637 -1.25245 0
M  V30 5697 C 554.049 1.71585 -1.11076 0
M  V30 5698 C 554.413 1.88916 0.34277 0
M  V30 5699 O 555.614 2.61875 0.606227 0
M  V30 5700 C 553.885 3.06267 -1.84215 0
M  V30 5701 S 555.444 3.97469 -1.85914 0
M  V30 5702 H 552.262 0.589803 -0.397055 0
M  V30 5703 H 554.864 1.14114 -1.58739 0
M  V30 5704 H 553.568 2.91322 -2.89067 0
M  V30 5705 H 553.099 3.688 -1.36931 0
M  V30 5706 H 555.114 4.87316 -0.93474 0
M  V30 5707 N 554.287 1.06798 1.15896 0
M  V30 5708 C 555.512 0.808739 1.90982 0
M  V30 5709 C 555.937 -0.6316 1.77179 0
M  V30 5710 O 555.295 -1.4407 1.10061 0
M  V30 5711 C 555.343 1.21468 3.39526 0
M  V30 5712 O 554.447 0.356562 4.10856 0
M  V30 5713 H 553.788 0.29512 0.594811 0
M  V30 5714 H 556.318 1.42513 1.46804 0
M  V30 5715 H 556.328 1.18844 3.90308 0
M  V30 5716 H 555.003 2.26379 3.48891 0
M  V30 5717 H 553.58 0.444808 3.70238 0
M  V30 5718 N 555.766 -1.3263 0.851289 0
M  V30 5719 C 556.994 -2.01563 0.466899 0
M  V30 5720 C 557.409 -1.63996 -0.935447 0
M  V30 5721 O 556.766 -0.85957 -1.6099 0
M  V30 5722 C 556.817 -3.56613 0.592433 0
M  V30 5723 O 556.538 -3.92828 1.93954 0
M  V30 5724 C 558.039 -4.42818 0.206612 0
M  V30 5725 H 555.259 -0.645307 0.183902 0
M  V30 5726 H 557.803 -1.69285 1.1473 0
M  V30 5727 H 555.958 -3.87379 -0.0401936 0
M  V30 5728 H 556.372 -4.87545 1.9339 0
M  V30 5729 H 557.846 -5.50918 0.345462 0
M  V30 5730 H 558.323 -4.30844 -0.85264 0
M  V30 5731 H 558.929 -4.17434 0.814176 0
M  V30 5732 N 557.244 -0.608902 -1.45362 0
M  V30 5733 C 558.484 -0.10763 -2.04116 0
M  V30 5734 C 558.848 1.23883 -1.46686 0
M  V30 5735 O 560.049 1.83091 -1.96803 0
M  V30 5736 C 558.32 -0.0703351 -3.57331 0
M  V30 5737 S 559.879 0.369554 -4.37241 0
M  V30 5738 H 556.697 -0.0502123 -0.709225 0
M  V30 5739 H 559.299 -0.8073 -1.78053 0
M  V30 5740 H 558.003 -1.05379 -3.9664 0
M  V30 5741 H 557.534 0.651287 -3.87971 0
M  V30 5742 H 559.549 1.61878 -4.69052 0
M  V30 5743 N 558.722 1.53707 -0.348139 0
M  V30 5744 C 559.969 2.00988 0.246966 0
M  V30 5745 C 560.297 1.23586 1.50189 0
M  V30 5746 O 559.552 0.312817 1.93184 0
M  V30 5747 C 559.851 3.52292 0.602061 0
M  V30 5748 C 559.517 4.47453 -0.556509 0
M  V30 5749 C 558.179 4.73188 -0.874446 0
M  V30 5750 C 560.531 5.03851 -1.33354 0
M  V30 5751 C 557.859 5.52577 -1.9717 0
M  V30 5752 C 560.211 5.84437 -2.42108 0
M  V30 5753 C 558.875 6.08465 -2.74456 0
M  V30 5754 H 558.145 0.735469 0.0903712 0
M  V30 5755 H 560.792 1.85464 -0.477001 0
M  V30 5756 H 559.097 3.65672 1.40681 0
M  V30 5757 H 560.794 3.86337 1.07447 0
M  V30 5758 H 557.384 4.27558 -0.298652 0
M  V30 5759 H 561.568 4.8393 -1.10117 0
M  V30 5760 H 556.824 5.69418 -2.22651 0
M  V30 5761 H 560.998 6.27151 -3.02745 0
M  V30 5762 H 558.625 6.69768 -3.59604 0
M  V30 5763 N 560.2 0.0768682 1.57412 0
M  V30 5764 C 561.446 -0.591961 1.93968 0
M  V30 5765 C 561.779 -1.68954 0.9575 0
M  V30 5766 O 561.054 -1.94496 -0.0124675 0
M  V30 5767 C 561.337 -1.16418 3.40762 0
M  V30 5768 C 561.19 -0.0728933 4.49741 0
M  V30 5769 C 562.509 -2.06814 3.88479 0
M  V30 5770 H 559.628 -0.213716 0.705333 0
M  V30 5771 H 562.27 0.14387 1.89455 0
M  V30 5772 H 560.42 -1.79128 3.4474 0
M  V30 5773 H 562.092 0.560446 4.57883 0
M  V30 5774 H 560.335 0.595859 4.29688 0
M  V30 5775 H 561.006 -0.513755 5.49604 0
M  V30 5776 H 563.482 -1.54033 3.8654 0
M  V30 5777 H 562.358 -2.43785 4.91793 0
M  V30 5778 H 562.619 -2.97844 3.26713 0
M  V30 5779 N 561.678 -1.56367 -0.196722 0
M  V30 5780 C 562.903 -1.84991 -0.937714 0
M  V30 5781 C 563.328 -0.660244 -1.76132 0
M  V30 5782 O 562.686 0.390967 -1.77034 0
M  V30 5783 C 562.734 -3.11828 -1.81096 0
M  V30 5784 O 561.838 -2.92266 -2.90955 0
M  V30 5785 H 561.179 -0.609193 -0.264159 0
M  V30 5786 H 563.709 -2.03595 -0.202529 0
M  V30 5787 H 563.719 -3.42579 -2.21594 0
M  V30 5788 H 562.394 -3.98037 -1.2058 0
M  V30 5789 H 560.971 -2.72809 -2.54224 0
M  V30 5790 N 563.156 0.464375 -1.50603 0
M  V30 5791 C 564.088 1.57916 -1.66118 0
M  V30 5792 C 565.101 1.53497 -0.54246 0
M  V30 5793 O 566.29 1.58763 -0.815877 0
M  V30 5794 C 563.39 2.96809 -1.63577 0
M  V30 5795 C 562.563 3.26026 -2.91592 0
M  V30 5796 C 561.622 4.44506 -2.81604 0
M  V30 5797 O 560.648 4.44484 -3.55559 0
M  V30 5798 N 561.85 5.46549 -1.95614 0
M  V30 5799 H 564.615 1.45022 -2.62276 0
M  V30 5800 H 562.176 0.652903 -1.48151 0
M  V30 5801 H 564.168 3.74048 -1.54499 0
M  V30 5802 H 562.738 3.03438 -0.751262 0
M  V30 5803 H 561.958 2.37337 -3.14746 0
M  V30 5804 H 563.246 3.42361 -3.76386 0
M  V30 5805 H 562.644 5.49391 -1.34854 0
M  V30 5806 H 561.201 6.22746 -1.92435 0
M  V30 5807 N 564.634 1.40294 0.718013 0
M  V30 5808 C 565.859 1.41941 1.5122 0
M  V30 5809 C 566.284 0.0202371 1.88089 0
M  V30 5810 O 565.642 -0.971078 1.53101 0
M  V30 5811 C 565.69 2.3141 2.76554 0
M  V30 5812 O 564.794 1.75567 3.73162 0
M  V30 5813 H 564.135 0.482644 0.456016 0
M  V30 5814 H 566.665 1.84494 0.884478 0
M  V30 5815 H 566.675 2.46513 3.25108 0
M  V30 5816 H 565.35 3.33085 2.49053 0
M  V30 5817 H 563.927 1.69798 3.31999 0
M  V30 5818 N 566.112 -0.949982 1.2575 0
M  V30 5819 C 567.36 -1.6918 1.10555 0
M  V30 5820 C 567.681 -1.91773 -0.353298 0
M  V30 5821 O 566.951 -1.50814 -1.25027 0
M  V30 5822 H 565.531 -0.626952 0.406129 0
M  V30 5823 H 568.193 -1.1419 1.57945 0
M  V30 5824 H 567.289 -2.66915 1.61749 0
M  V30 5825 N 567.59 -1.07411 -1.15328 0
M  V30 5826 C 568.818 -0.818782 -1.90009 0
M  V30 5827 C 569.233 0.628072 -1.78047 0
M  V30 5828 O 568.59 1.43085 -1.13282 0
M  V30 5829 C 568.641 -1.21874 -3.40337 0
M  V30 5830 O 568.362 -2.60883 -3.51954 0
M  V30 5831 C 569.863 -0.992796 -4.3204 0
M  V30 5832 H 567.083 -0.296007 -0.60218 0
M  V30 5833 H 569.627 -1.43073 -1.46117 0
M  V30 5834 H 567.782 -0.651103 -3.81889 0
M  V30 5835 H 568.196 -2.77216 -4.45255 0
M  V30 5836 H 569.67 -1.32215 -5.35932 0
M  V30 5837 H 570.147 0.0708331 -4.39143 0
M  V30 5838 H 570.753 -1.54537 -3.9623 0
M  V30 5839 N 569.068 1.32177 -0.85831 0
M  V30 5840 C 570.293 2.01847 -0.476718 0
M  V30 5841 C 570.718 1.64065 0.920021 0
M  V30 5842 O 570.076 0.843189 1.60499 0
M  V30 5843 C 570.124 3.55097 -0.627578 0
M  V30 5844 O 569.228 4.11012 0.338086 0
M  V30 5845 H 568.569 0.635907 -0.191099 0
M  V30 5846 H 571.099 1.68641 -1.15851 0
M  V30 5847 H 571.109 4.04718 -0.516476 0
M  V30 5848 H 569.784 3.81938 -1.64609 0
M  V30 5849 H 568.361 3.72451 0.182917 0
M  V30 5850 N 570.547 0.616602 1.45037 0
M  V30 5851 C 571.479 -0.135186 2.28801 0
M  V30 5852 C 572.492 -0.82303 1.40464 0
M  V30 5853 O 573.681 -0.686909 1.64754 0
M  V30 5854 C 570.781 -1.21292 3.16451 0
M  V30 5855 C 569.954 -0.61043 4.3312 0
M  V30 5856 C 569.013 -1.58022 5.01912 0
M  V30 5857 O 568.039 -1.10301 5.58411 0
M  V30 5858 N 569.241 -2.91464 5.02025 0
M  V30 5859 H 572.006 0.583612 2.93963 0
M  V30 5860 H 569.567 0.456723 1.55324 0
M  V30 5861 H 571.559 -1.86169 3.59337 0
M  V30 5862 H 570.129 -1.83412 2.53138 0
M  V30 5863 H 569.349 0.216638 3.93604 0
M  V30 5864 H 570.637 -0.188293 5.08451 0
M  V30 5865 H 570.035 -3.32829 4.57429 0
M  V30 5866 H 568.592 -3.51741 5.48745 0
M  V30 5867 N 572.025 -1.5352 0.356285 0
M  V30 5868 C 572.988 -2.24071 -0.482182 0
M  V30 5869 C 573.988 -1.24531 -1.01729 0
M  V30 5870 O 575.178 -1.48876 -0.904513 0
M  V30 5871 C 572.31 -2.97025 -1.67299 0
M  V30 5872 H 573.503 -2.99596 0.135031 0
M  V30 5873 H 571.056 -1.55928 0.107825 0
M  V30 5874 H 571.791 -2.25719 -2.32855 0
M  V30 5875 H 571.576 -3.7005 -1.29636 0
M  V30 5876 H 573.066 -3.50683 -2.26741 0
M  V30 5877 N 573.503 -0.0852151 -1.57369 0
M  V30 5878 C 574.466 0.8627 -2.12344 0
M  V30 5879 C 575.466 1.21746 -1.05046 0
M  V30 5880 O 576.656 1.14852 -1.30976 0
M  V30 5881 C 573.788 2.1618 -2.63589 0
M  V30 5882 H 574.981 0.385511 -2.97412 0
M  V30 5883 H 572.534 0.163663 -1.55441 0
M  V30 5884 H 573.269 2.68406 -1.82013 0
M  V30 5885 H 573.054 1.91723 -3.4203 0
M  V30 5886 H 574.544 2.84011 -3.06149 0
M  V30 5887 N 574.981 1.5647 0.188427 0
M  V30 5888 C 575.944 1.9421 1.21718 0
M  V30 5889 C 576.944 0.823901 1.38089 0
M  V30 5890 O 578.134 1.09122 1.35787 0
M  V30 5891 C 575.266 2.22197 2.58537 0
M  V30 5892 H 576.459 2.86252 0.894418 0
M  V30 5893 H 574.012 1.50263 0.430211 0
M  V30 5894 H 574.747 1.32814 2.95856 0
M  V30 5895 H 574.532 3.03688 2.48025 0
M  V30 5896 H 576.022 2.52376 3.3271 0
M  V30 5897 N 576.459 -0.456382 1.50847 0
M  V30 5898 C 577.409 -1.55045 1.67168 0
M  V30 5899 C 578.393 -1.52061 0.525958 0
M  V30 5900 O 579.585 -1.58836 0.781036 0
M  V30 5901 C 576.714 -2.93386 1.78268 0
M  V30 5902 C 575.8 -3.01198 2.98564 0
M  V30 5903 N 576.191 -2.78792 4.22029 0
M  V30 5904 C 574.489 -3.32346 2.97426 0
M  V30 5905 C 575.19 -2.91953 5.03128 0
M  V30 5906 N 574.166 -3.22797 4.37382 0
M  V30 5907 H 577.968 -1.36444 2.60308 0
M  V30 5908 H 575.482 -0.663375 1.48233 0
M  V30 5909 H 577.479 -3.72071 1.88067 0
M  V30 5910 H 576.139 -3.13022 0.862965 0
M  V30 5911 H 577.15 -2.54087 4.51287 0
M  V30 5912 H 573.827 -3.57877 2.15012 0
M  V30 5913 H 575.217 -2.78745 6.11351 0
M  V30 5914 N 577.937 -1.40673 -0.710563 0
M  V30 5915 C 579.183 -1.39428 -1.47267 0
M  V30 5916 C 579.516 0.00182129 -1.942 0
M  V30 5917 O 578.791 0.971387 -1.68506 0
M  V30 5918 C 579.074 -2.38812 -2.6952 0
M  V30 5919 C 578.927 -3.87467 -2.28449 0
M  V30 5920 C 580.246 -2.3566 -3.71689 0
M  V30 5921 H 577.365 -0.507768 -0.534173 0
M  V30 5922 H 580.007 -1.71843 -0.810547 0
M  V30 5923 H 578.157 -2.113 -3.26013 0
M  V30 5924 H 579.829 -4.25825 -1.77399 0
M  V30 5925 H 578.072 -4.03058 -1.60395 0
M  V30 5926 H 578.743 -4.5253 -3.16103 0
M  V30 5927 H 581.219 -2.6004 -3.24836 0
M  V30 5928 H 580.095 -3.07237 -4.54859 0
M  V30 5929 H 580.356 -1.36996 -4.20339 0
M  V30 5930 N 579.415 0.9433 -1.26252 0
M  V30 5931 C 580.378 2.02326 -1.07689 0
M  V30 5932 C 581.378 1.60779 -0.0259174 0
M  V30 5933 O 582.568 1.72108 -0.269134 0
M  V30 5934 C 579.7 3.34886 -0.63752 0
M  V30 5935 H 580.893 2.20225 -2.0357 0
M  V30 5936 H 578.446 1.12197 -1.08819 0
M  V30 5937 H 579.181 3.22684 0.323377 0
M  V30 5938 H 578.966 3.66393 -1.39637 0
M  V30 5939 H 580.456 4.14231 -0.529418 0
M  V30 5940 N 580.893 1.08022 1.14757 0
M  V30 5941 C 582.141 0.805913 1.85336 0
M  V30 5942 C 582.462 -0.670162 1.83122 0
M  V30 5943 O 581.732 -1.48567 1.2769 0
M  V30 5944 H 580.312 0.295138 0.686223 0
M  V30 5945 H 582.974 1.36538 1.3908 0
M  V30 5946 H 582.07 1.14655 2.90277 0
M  V30 5947 N 582.371 -1.3172 0.865308 0
M  V30 5948 C 583.62 -1.96145 0.470098 0
M  V30 5949 C 583.933 -1.69182 -0.981674 0
M  V30 5950 O 585.139 -2.27431 -1.48281 0
M  V30 5951 C 583.595 -3.51129 0.789732 0
M  V30 5952 C 583.203 -3.86938 2.25795 0
M  V30 5953 C 584.947 -4.2197 0.462765 0
M  V30 5954 C 582.854 -5.35012 2.52024 0
M  V30 5955 H 581.784 -0.734105 0.172065 0
M  V30 5956 H 584.435 -1.49959 1.05757 0
M  V30 5957 H 582.817 -3.95781 0.131571 0
M  V30 5958 H 583.991 -3.5326 2.95879 0
M  V30 5959 H 582.306 -3.29149 2.55049 0
M  V30 5960 H 584.903 -5.30904 0.636019 0
M  V30 5961 H 585.246 -4.12005 -0.59645 0
M  V30 5962 H 585.779 -3.82936 1.07727 0
M  V30 5963 H 582.518 -5.50008 3.56611 0
M  V30 5964 H 582.038 -5.70058 1.8653 0
M  V30 5965 H 583.717 -6.0222 2.36515 0
M  V30 5966 N 583.85 -0.624285 -1.44708 0
M  V30 5967 C 584.812 0.0749638 -2.29077 0
M  V30 5968 C 585.812 0.778965 -1.40673 0
M  V30 5969 O 587.003 0.624591 -1.62618 0
M  V30 5970 C 584.135 1.11663 -3.22094 0
M  V30 5971 H 585.327 -0.667013 -2.92388 0
M  V30 5972 H 582.88 -0.384098 -1.51507 0
M  V30 5973 H 583.615 1.88881 -2.63618 0
M  V30 5974 H 583.401 0.61583 -3.87234 0
M  V30 5975 H 584.891 1.60585 -3.8549 0
M  V30 5976 N 585.328 1.53329 -0.364422 0
M  V30 5977 C 586.291 2.24323 0.470292 0
M  V30 5978 C 587.291 1.25068 1.01067 0
M  V30 5979 O 588.481 1.49354 0.896605 0
M  V30 5980 C 585.613 2.97908 1.65722 0
M  V30 5981 H 586.806 2.9952 -0.150917 0
M  V30 5982 H 584.359 1.55868 -0.116092 0
M  V30 5983 H 585.094 2.2695 2.31655 0
M  V30 5984 H 584.879 3.70732 1.27671 0
M  V30 5985 H 586.369 3.5188 2.24878 0
M  V30 5986 N 586.806 0.0935595 1.57322 0
M  V30 5987 C 587.739 -0.902505 2.09595 0
M  V30 5988 C 588.717 -1.27732 1.00615 0
M  V30 5989 O 589.901 -1.38283 1.28102 0
M  V30 5990 C 587.028 -2.20416 2.57166 0
M  V30 5991 C 586.074 -1.97932 3.7779 0
M  V30 5992 S 586.907 -1.21873 5.21447 0
M  V30 5993 C 588.063 -2.53273 5.72367 0
M  V30 5994 H 588.296 -0.457797 2.93754 0
M  V30 5995 H 585.829 -0.119694 1.53935 0
M  V30 5996 H 587.787 -2.95217 2.85232 0
M  V30 5997 H 586.448 -2.62008 1.73235 0
M  V30 5998 H 585.641 -2.94316 4.09138 0
M  V30 5999 H 585.243 -1.3126 3.5021 0
M  V30 6000 H 587.535 -3.49256 5.8054 0
M  V30 6001 H 588.478 -2.26505 6.70896 0
M  V30 6002 H 588.886 -2.61475 5.00291 0
M  V30 6003 N 588.284 -1.56567 -0.180126 0
M  V30 6004 C 589.217 -1.90813 -1.25163 0
M  V30 6005 C 590.195 -0.7699 -1.43218 0
M  V30 6006 O 591.379 -1.02236 -1.58367 0
M  V30 6007 C 588.506 -2.15138 -2.61597 0
M  V30 6008 C 587.552 -3.37834 -2.60328 0
M  V30 6009 S 588.385 -4.92486 -2.1028 0
M  V30 6010 C 589.541 -5.19896 -3.48509 0
M  V30 6011 H 589.774 -2.81398 -0.959283 0
M  V30 6012 H 587.307 -1.49541 -0.3843 0
M  V30 6013 H 589.265 -2.29835 -3.40127 0
M  V30 6014 H 587.926 -1.25276 -2.88036 0
M  V30 6015 H 587.119 -3.52027 -3.60684 0
M  V30 6016 H 586.721 -3.22208 -1.8989 0
M  V30 6017 H 589.013 -5.11334 -4.44459 0
M  V30 6018 H 589.956 -6.21571 -3.39198 0
M  V30 6019 H 590.364 -4.47489 -3.44114 0
M  V30 6020 N 589.762 0.448376 -1.51087 0
M  V30 6021 C 590.692 1.55102 -1.74544 0
M  V30 6022 C 591.673 1.59357 -0.594932 0
M  V30 6023 O 592.858 1.75261 -0.836491 0
M  V30 6024 C 589.988 2.93268 -1.86041 0
M  V30 6025 C 588.942 3.03877 -3.01402 0
M  V30 6026 C 588.268 4.43914 -2.98068 0
M  V30 6027 C 589.568 2.7898 -4.41551 0
M  V30 6028 H 591.262 1.35724 -2.66869 0
M  V30 6029 H 588.808 0.651498 -1.28419 0
M  V30 6030 H 590.761 3.70356 -2.01034 0
M  V30 6031 H 589.485 3.13853 -0.903548 0
M  V30 6032 H 588.144 2.29227 -2.86096 0
M  V30 6033 H 587.792 4.6145 -2.00182 0
M  V30 6034 H 587.492 4.51944 -3.75527 0
M  V30 6035 H 589.016 5.22991 -3.1514 0
M  V30 6036 H 590.43 3.45805 -4.57265 0
M  V30 6037 H 588.827 2.98431 -5.20633 0
M  V30 6038 H 589.897 1.74663 -4.5235 0
M  V30 6039 N 591.24 1.41047 0.703093 0
M  V30 6040 C 592.465 1.43537 1.49706 0
M  V30 6041 C 592.89 0.0401853 1.88057 0
M  V30 6042 O 592.248 -0.954785 1.54122 0
M  V30 6043 C 592.296 2.3433 2.74084 0
M  V30 6044 O 591.4 1.79515 3.71279 0
M  V30 6045 H 590.741 0.487454 0.450871 0
M  V30 6046 H 593.271 1.85422 0.86486 0
M  V30 6047 H 593.281 2.49947 3.22476 0
M  V30 6048 H 591.956 3.35708 2.45506 0
M  V30 6049 H 590.533 1.7331 3.30179 0
M  V30 6050 N 592.718 -0.936591 1.26751 0
M  V30 6051 C 593.681 -2.01752 1.08761 0
M  V30 6052 C 594.681 -1.60763 0.0344435 0
M  V30 6053 O 595.871 -1.71963 0.278258 0
M  V30 6054 C 593.003 -3.34543 0.655271 0
M  V30 6055 H 594.196 -2.19143 2.04735 0
M  V30 6056 H 591.749 -1.11618 1.09413 0
M  V30 6057 H 592.484 -3.22851 -0.30626 0
M  V30 6058 H 592.269 -3.65647 1.41578 0
M  V30 6059 H 593.759 -4.13944 0.551378 0
M  V30 6060 N 594.196 -1.08629 -1.14182 0
M  V30 6061 C 595.106 -0.730126 -2.22949 0
M  V30 6062 C 596.122 0.26436 -1.7198 0
M  V30 6063 O 597.298 0.107742 -2.01112 0
M  V30 6064 C 594.363 -0.147227 -3.46387 0
M  V30 6065 C 593.424 -1.19662 -4.12286 0
M  V30 6066 C 592.657 -0.641437 -5.29831 0
M  V30 6067 O 592.88 0.538351 -5.67854 0
M  V30 6068 O 591.814 -1.39257 -5.85569 0
M  V30 6069 H 595.64 -1.63753 -2.55771 0
M  V30 6070 H 593.225 -0.860118 -1.22157 0
M  V30 6071 H 595.107 0.174923 -4.21037 0
M  V30 6072 H 593.782 0.733304 -3.15285 0
M  V30 6073 H 592.689 -1.57133 -3.395 0
M  V30 6074 H 594.022 -2.0495 -4.475 0
M  V30 6075 N 595.674 1.31259 -0.872281 0
M  V30 6076 C 597.085 1.78822 -0.536617 0
M  V30 6077 C 597.436 1.71855 0.946594 0
M  V30 6078 O 596.561 1.28769 1.73918 0
M  V30 6079 C 597.156 3.24698 -0.967294 0
M  V30 6080 C 595.715 3.70147 -0.683251 0
M  V30 6081 C 594.862 2.51994 -1.15733 0
M  V30 6082 H 597.813 1.18308 -1.05777 0
M  V30 6083 H 597.834 3.79386 -0.290929 0
M  V30 6084 H 597.346 3.29737 -2.04683 0
M  V30 6085 H 595.447 3.70607 0.384825 0
M  V30 6086 H 595.56 4.62183 -1.2619 0
M  V30 6087 H 593.924 2.48078 -0.577024 0
M  V30 6088 H 594.707 2.59778 -2.24434 0
M  V30 6089 N 597.152 0.631951 1.44375 0
M  V30 6090 C 598.062 -0.073674 2.34484 0
M  V30 6091 C 599.078 -0.834825 1.52665 0
M  V30 6092 O 600.254 -0.786902 1.85391 0
M  V30 6093 C 597.319 -1.04247 3.30656 0
M  V30 6094 C 596.38 -0.280602 4.28382 0
M  V30 6095 C 595.613 -1.20325 5.19959 0
M  V30 6096 O 595.836 -2.44199 5.15484 0
M  V30 6097 O 594.77 -0.687128 5.97965 0
M  V30 6098 H 598.596 0.667477 2.96274 0
M  V30 6099 H 596.181 0.392144 1.44162 0
M  V30 6100 H 598.063 -1.59981 3.89851 0
M  V30 6101 H 596.738 -1.76422 2.71398 0
M  V30 6102 H 595.645 0.319804 3.72731 0
M  V30 6103 H 596.978 0.401144 4.90563 0
M  V30 6104 N 598.631 -1.53133 0.372548 0
M  V30 6105 C 599.561 -2.28876 -0.462412 0
M  V30 6106 C 600.542 -1.31583 -1.07796 0
M  V30 6107 O 601.727 -1.60461 -1.09389 0
M  V30 6108 C 598.857 -3.08317 -1.59868 0
M  V30 6109 C 597.811 -4.13355 -1.11003 0
M  V30 6110 C 597.137 -4.8092 -2.33708 0
M  V30 6111 C 598.437 -5.21955 -0.18983 0
M  V30 6112 H 600.131 -2.9892 0.169511 0
M  V30 6113 H 597.677 -1.43761 0.0829658 0
M  V30 6114 H 599.63 -3.60055 -2.18949 0
M  V30 6115 H 598.354 -2.35976 -2.25794 0
M  V30 6116 H 597.013 -3.62573 -0.541869 0
M  V30 6117 H 596.661 -4.05144 -2.98106 0
M  V30 6118 H 596.361 -5.51904 -2.01682 0
M  V30 6119 H 597.885 -5.35455 -2.93462 0
M  V30 6120 H 599.299 -5.69153 -0.688319 0
M  V30 6121 H 597.696 -6.00087 0.0398887 0
M  V30 6122 H 598.766 -4.78811 0.766057 0
M  V30 6123 N 600.109 -0.101901 -1.5727 0
M  V30 6124 C 601.337 0.568392 -1.98939 0
M  V30 6125 C 601.752 1.61301 -0.981194 0
M  V30 6126 O 601.109 1.82478 0.0282869 0
M  V30 6127 C 601.16 1.20997 -3.40649 0
M  V30 6128 O 600.881 0.207129 -4.3761 0
M  V30 6129 C 602.382 1.96523 -3.97358 0
M  V30 6130 H 599.602 0.15186 -0.65359 0
M  V30 6131 H 602.146 -0.183198 -2.03678 0
M  V30 6132 H 600.301 1.91245 -3.36904 0
M  V30 6133 H 600.715 0.671071 -5.20189 0
M  V30 6134 H 602.189 2.36764 -4.98645 0
M  V30 6135 H 602.666 2.83376 -3.35552 0
M  V30 6136 H 603.272 1.31076 -4.04598 0
M  V30 6137 N 601.587 1.56661 0.17182 0
M  V30 6138 C 602.517 1.99401 1.21498 0
M  V30 6139 C 603.498 0.869516 1.46197 0
M  V30 6140 O 604.683 1.13556 1.57539 0
M  V30 6141 C 601.813 2.35346 2.55401 0
M  V30 6142 C 600.767 3.5075 2.45272 0
M  V30 6143 C 600.093 3.72437 3.8366 0
M  V30 6144 C 601.393 4.84216 1.95787 0
M  V30 6145 H 603.087 2.86792 0.859699 0
M  V30 6146 H 600.633 1.37977 0.412103 0
M  V30 6147 H 602.586 2.63843 3.2858 0
M  V30 6148 H 601.31 1.44864 2.92715 0
M  V30 6149 H 599.969 3.2238 1.74547 0
M  V30 6150 H 599.617 2.79246 4.18367 0
M  V30 6151 H 599.317 4.50087 3.77751 0
M  V30 6152 H 600.841 4.03334 4.58426 0
M  V30 6153 H 602.255 5.11592 2.5874 0
M  V30 6154 H 600.652 5.65498 2.00827 0
M  V30 6155 H 601.722 4.76243 0.912159 0
M  V30 6156 N 603.065 -0.440357 1.51323 0
M  V30 6157 C 604.028 -1.51679 1.71832 0
M  V30 6158 C 605.028 -1.49648 0.588386 0
M  V30 6159 O 606.218 -1.51724 0.855891 0
M  V30 6160 C 603.35 -2.91228 1.77199 0
M  V30 6161 H 604.543 -1.34799 2.67898 0
M  V30 6162 H 602.096 -0.66883 1.41267 0
M  V30 6163 H 602.831 -3.13516 0.829363 0
M  V30 6164 H 602.616 -2.94107 2.59314 0
M  V30 6165 H 604.106 -3.69321 1.94915 0
M  V30 6166 N 604.543 -1.41418 -0.695603 0
M  V30 6167 C 605.453 -1.45622 -1.83933 0
M  V30 6168 C 606.469 -0.346825 -1.70508 0
M  V30 6169 O 607.645 -0.59454 -1.92424 0
M  V30 6170 C 604.71 -1.33627 -3.19914 0
M  V30 6171 C 603.771 -2.54882 -3.45447 0
M  V30 6172 C 603.004 -2.43449 -4.7494 0
M  V30 6173 O 603.227 -1.45905 -5.51424 0
M  V30 6174 O 602.161 -3.33206 -5.01256 0
M  V30 6175 H 605.987 -2.42114 -1.83342 0
M  V30 6176 H 603.572 -1.22956 -0.848658 0
M  V30 6177 H 605.454 -1.29221 -4.01098 0
M  V30 6178 H 604.129 -0.402508 -3.21188 0
M  V30 6179 H 603.036 -2.64865 -2.64192 0
M  V30 6180 H 604.369 -3.47087 -3.48987 0
M  V30 6181 N 606.021 0.929856 -1.27246 0
M  V30 6182 C 606.951 2.04722 -1.12299 0
M  V30 6183 C 607.932 1.70082 -0.0250464 0
M  V30 6184 O 609.117 1.93176 -0.199141 0
M  V30 6185 C 606.247 3.38721 -0.767145 0
M  V30 6186 C 605.201 3.87466 -1.81808 0
M  V30 6187 C 604.527 5.18246 -1.31626 0
M  V30 6188 C 605.827 4.11095 -3.22177 0
M  V30 6189 H 607.521 2.17485 -2.05769 0
M  V30 6190 H 605.067 1.04503 -0.990715 0
M  V30 6191 H 607.02 4.16366 -0.649413 0
M  V30 6192 H 605.744 3.25967 0.203259 0
M  V30 6193 H 604.403 3.12012 -1.92468 0
M  V30 6194 H 604.051 5.01881 -0.335378 0
M  V30 6195 H 603.751 5.51829 -2.01887 0
M  V30 6196 H 605.275 5.98462 -1.21143 0
M  V30 6197 H 606.689 4.79316 -3.1453 0
M  V30 6198 H 605.086 4.55982 -3.90129 0
M  V30 6199 H 606.156 3.16468 -3.67391 0
M  V30 6200 N 607.499 1.09233 1.13605 0
M  V30 6201 C 608.915 0.82163 1.36826 0
M  V30 6202 C 609.115 -0.565021 1.93416 0
M  V30 6203 O 608.171 -1.32026 2.15234 0
M  V30 6204 C 609.484 1.91124 2.32147 0
M  V30 6205 C 611.032 1.93824 2.45767 0
M  V30 6206 C 611.507 3.01923 3.44393 0
M  V30 6207 N 612.998 3.01149 3.51942 0
M  V30 6208 C 613.733 3.81434 4.2813 0
M  V30 6209 N 613.229 4.71621 5.07489 0
M  V30 6210 N 615.022 3.69702 4.23411 0
M  V30 6211 H 607.173 1.98633 0.752234 0
M  V30 6212 H 609.436 0.862482 0.393482 0
M  V30 6213 H 609.142 2.90862 1.97717 0
M  V30 6214 H 609.016 1.78777 3.32142 0
M  V30 6215 H 611.403 0.94726 2.79483 0
M  V30 6216 H 611.484 2.10248 1.45703 0
M  V30 6217 H 611.128 4.01232 3.11408 0
M  V30 6218 H 611.058 2.82742 4.44257 0
M  V30 6219 H 613.549 2.35789 2.95317 0
M  V30 6220 H 613.862 5.29468 5.62924 0
M  V30 6221 H 612.207 4.75658 5.06729 0
M  V30 6222 H 615.398 2.98606 3.60489 0
M  V30 6223 H 615.571 4.32509 4.82535 0
M  V30 6224 N 608.977 -1.30795 0.87923 0
M  V30 6225 C 609.909 -2.27241 0.299025 0
M  V30 6226 C 610.922 -1.53472 -0.543166 0
M  V30 6227 O 612.111 -1.74756 -0.363651 0
M  V30 6228 C 609.211 -3.33655 -0.593931 0
M  V30 6229 C 608.384 -4.36857 0.2179 0
M  V30 6230 C 607.443 -5.22715 -0.604646 0
M  V30 6231 O 606.469 -5.69192 -0.0293838 0
M  V30 6232 N 607.671 -5.48008 -1.91488 0
M  V30 6233 H 610.436 -2.77667 1.12788 0
M  V30 6234 H 607.997 -1.43914 0.741637 0
M  V30 6235 H 609.989 -3.88013 -1.15012 0
M  V30 6236 H 608.559 -2.83202 -1.32346 0
M  V30 6237 H 607.779 -3.82444 0.955536 0
M  V30 6238 H 609.067 -5.02869 0.774614 0
M  V30 6239 H 608.465 -5.1202 -2.40525 0
M  V30 6240 H 607.022 -6.05264 -2.41864 0
M  V30 6241 N 610.455 -0.639598 -1.44038 0
M  V30 6242 C 611.871 -0.305953 -1.5664 0
M  V30 6243 C 612.071 1.19055 -1.62567 0
M  V30 6244 O 611.127 1.97492 -1.57331 0
M  V30 6245 C 612.44 -1.00533 -2.83397 0
M  V30 6246 C 613.988 -0.984278 -2.97121 0
M  V30 6247 C 614.463 -1.66428 -4.26691 0
M  V30 6248 N 615.954 -1.63127 -4.33525 0
M  V30 6249 C 616.689 -2.12629 -5.32519 0
M  V30 6250 N 616.185 -2.70359 -6.3787 0
M  V30 6251 N 617.978 -2.03208 -5.24083 0
M  V30 6252 H 610.129 -1.6109 -1.38434 0
M  V30 6253 H 612.392 -0.676672 -0.663942 0
M  V30 6254 H 612.098 -2.06034 -2.85032 0
M  V30 6255 H 611.972 -0.548362 -3.73193 0
M  V30 6256 H 614.359 0.0622792 -2.95034 0
M  V30 6257 H 614.44 -1.47981 -2.08651 0
M  V30 6258 H 614.084 -2.71034 -4.29538 0
M  V30 6259 H 614.014 -1.14351 -5.14034 0
M  V30 6260 H 616.505 -1.20987 -3.58009 0
M  V30 6261 H 616.818 -3.05842 -7.09704 0
M  V30 6262 H 615.163 -2.74414 -6.38531 0
M  V30 6263 H 618.354 -1.57823 -4.40692 0
M  V30 6264 H 618.527 -2.42097 -6.01077 0
M  V30 6265 N 611.933 1.52934 -0.380664 0
M  V30 6266 C 612.863 2.29118 0.450268 0
M  V30 6267 C 613.844 1.32153 1.07096 0
M  V30 6268 O 615.029 1.61038 1.08537 0
M  V30 6269 C 612.159 3.09161 1.58231 0
M  V30 6270 C 611.113 4.13938 1.0881 0
M  V30 6271 C 610.439 4.82153 2.31155 0
M  V30 6272 C 611.739 5.22048 0.162146 0
M  V30 6273 H 613.433 2.98826 -0.185361 0
M  V30 6274 H 610.979 1.43715 -0.0905886 0
M  V30 6275 H 612.932 3.61211 2.17036 0
M  V30 6276 H 611.656 2.3717 2.2454 0
M  V30 6277 H 610.315 3.62855 0.522633 0
M  V30 6278 H 609.963 4.06719 2.95953 0
M  V30 6279 H 609.663 5.52966 1.98752 0
M  V30 6280 H 611.187 5.37004 2.90618 0
M  V30 6281 H 612.601 5.6951 0.658126 0
M  V30 6282 H 610.998 6.00057 -0.0717122 0
M  V30 6283 H 612.068 4.78398 -0.791438 0
M  V30 6284 N 613.412 0.11024 1.57214 0
M  V30 6285 C 614.661 -0.549638 1.94067 0
M  V30 6286 C 614.974 -1.68388 0.995234 0
M  V30 6287 O 616.18 -2.40593 1.25807 0
M  V30 6288 C 614.636 -1.02912 3.44873 0
M  V30 6289 C 614.244 0.0761861 4.47935 0
M  V30 6290 C 615.988 -1.66087 3.9066 0
M  V30 6291 C 613.895 -0.419502 5.8991 0
M  V30 6292 H 612.825 -0.209092 0.724428 0
M  V30 6293 H 615.476 0.188683 1.82527 0
M  V30 6294 H 613.858 -1.82159 3.51616 0
M  V30 6295 H 615.032 0.852185 4.52851 0
M  V30 6296 H 613.347 0.614052 4.11847 0
M  V30 6297 H 615.944 -2.04272 4.94143 0
M  V30 6298 H 616.287 -2.53591 3.30148 0
M  V30 6299 H 616.82 -0.933959 3.86681 0
M  V30 6300 H 613.559 0.419277 6.54158 0
M  V30 6301 H 613.079 -1.16217 5.88433 0
M  V30 6302 H 614.758 -0.883577 6.40938 0
M  V30 6303 N 614.89 -1.56749 -0.16351 0
M  V30 6304 C 615.84 -1.93424 -1.20712 0
M  V30 6305 C 616.824 -0.803469 -1.39403 0
M  V30 6306 O 618.016 -1.06675 -1.41243 0
M  V30 6307 C 615.145 -2.30431 -2.54473 0
M  V30 6308 C 614.231 -3.5004 -2.39443 0
M  V30 6309 N 614.622 -4.67058 -1.9414 0
M  V30 6310 C 612.92 -3.548 -2.70246 0
M  V30 6311 C 613.621 -5.49184 -1.9176 0
M  V30 6312 N 612.597 -4.9044 -2.34457 0
M  V30 6313 H 616.399 -2.8138 -0.848681 0
M  V30 6314 H 613.913 -1.58089 -0.371717 0
M  V30 6315 H 615.91 -2.54903 -3.29894 0
M  V30 6316 H 614.57 -1.43818 -2.91112 0
M  V30 6317 H 615.581 -4.91128 -1.64357 0
M  V30 6318 H 612.258 -2.78685 -3.10871 0
M  V30 6319 H 613.648 -6.5297 -1.58366 0
M  V30 6320 N 616.368 0.432326 -1.51554 0
M  V30 6321 C 617.615 1.18134 -1.64471 0
M  V30 6322 C 617.943 1.91076 -0.363349 0
M  V30 6323 O 617.198 1.84492 0.65279 0
M  V30 6324 C 617.497 2.21907 -2.80164 0
M  V30 6325 C 617.163 1.65941 -4.19255 0
M  V30 6326 C 615.825 1.50401 -4.57092 0
M  V30 6327 C 618.177 1.24843 -5.06027 0
M  V30 6328 C 615.505 0.922443 -5.79403 0
M  V30 6329 C 617.857 0.68113 -6.28922 0
M  V30 6330 C 616.521 0.512673 -6.65528 0
M  V30 6331 H 615.791 0.432283 -0.601841 0
M  V30 6332 H 618.438 0.471701 -1.856 0
M  V30 6333 H 616.743 2.98928 -2.53277 0
M  V30 6334 H 618.44 2.79691 -2.87357 0
M  V30 6335 H 615.03 1.79014 -3.89425 0
M  V30 6336 H 619.214 1.35667 -4.77397 0
M  V30 6337 H 614.47 0.779733 -6.06408 0
M  V30 6338 H 618.644 0.35418 -6.95499 0
M  V30 6339 H 616.271 0.0599084 -7.60176 0
M  V30 6340 N 617.846 1.41785 0.688094 0
M  V30 6341 C 619.071 1.45117 1.48175 0
M  V30 6342 C 619.496 0.060129 1.88004 0
M  V30 6343 O 618.854 -0.938385 1.55126 0
M  V30 6344 C 618.902 2.37224 2.71583 0
M  V30 6345 O 618.006 1.83443 3.69354 0
M  V30 6346 H 617.347 0.492208 0.445676 0
M  V30 6347 H 619.877 1.86329 0.845145 0
M  V30 6348 H 619.887 2.53353 3.19806 0
M  V30 6349 H 618.562 3.38293 2.41931 0
M  V30 6350 H 617.139 1.76802 3.28322 0
M  V30 6351 N 619.324 -0.923095 1.27737 0
M  V30 6352 C 620.287 -2.00587 1.10894 0
M  V30 6353 C 621.287 -1.60718 0.0514927 0
M  V30 6354 O 622.477 -1.71658 0.296481 0
M  V30 6355 C 619.609 -3.33829 0.690717 0
M  V30 6356 H 620.802 -2.16959 2.07048 0
M  V30 6357 H 618.355 -1.10451 1.1059 0
M  V30 6358 H 619.09 -3.23157 -0.272 0
M  V30 6359 H 618.875 -3.64125 1.45448 0
M  V30 6360 H 620.365 -4.13336 0.595252 0
M  V30 6361 N 620.802 -1.09834 -1.13024 0
M  V30 6362 C 621.749 -0.741522 -2.18564 0
M  V30 6363 C 622.719 0.279236 -1.63736 0
M  V30 6364 O 623.904 0.159923 -1.90129 0
M  V30 6365 C 621.044 -0.17277 -3.44667 0
M  V30 6366 C 620.157 -1.24808 -4.13578 0
M  V30 6367 C 619.292 -0.641631 -5.27311 0
M  V30 6368 C 618.331 -1.69795 -5.88078 0
M  V30 6369 N 617.468 -1.11223 -6.93234 0
M  V30 6370 H 622.308 -1.64576 -2.48432 0
M  V30 6371 H 619.845 -0.822174 -1.21978 0
M  V30 6372 H 621.803 0.17482 -4.16834 0
M  V30 6373 H 620.433 0.694725 -3.15235 0
M  V30 6374 H 619.485 -1.71288 -3.39653 0
M  V30 6375 H 620.797 -2.04795 -4.54819 0
M  V30 6376 H 619.951 -0.243128 -6.06213 0
M  V30 6377 H 618.69 0.189742 -4.87331 0
M  V30 6378 H 617.695 -2.10595 -5.07868 0
M  V30 6379 H 618.92 -2.53206 -6.3013 0
M  V30 6380 H 616.866 -0.302208 -6.55304 0
M  V30 6381 H 616.783 -1.84901 -7.3304 0
M  V30 6382 H 618.051 -0.740068 -7.75979 0
M  V30 6383 N 622.28 1.30327 -0.886154 0
M  V30 6384 C 623.557 1.90922 -0.425217 0
M  V30 6385 C 623.937 1.80533 1.09413 0
M  V30 6386 O 623.285 1.2233 1.92996 0
M  V30 6387 C 623.495 3.36529 -0.924638 0
M  V30 6388 C 624.843 4.13598 -0.960305 0
M  V30 6389 O 625.867 3.45377 -0.871382 0
M  V30 6390 O 624.726 5.35482 -1.09184 0
M  V30 6391 H 621.82 0.81668 -0.130238 0
M  V30 6392 H 624.366 1.38886 -0.975132 0
M  V30 6393 H 623.138 3.38181 -1.96849 0
M  V30 6394 H 622.761 3.96021 -0.353955 0
M  V30 6395 N 623.758 0.647228 1.43697 0
M  V30 6396 C 625.004 0.158422 2.0218 0
M  V30 6397 C 625.337 -1.22233 1.50907 0
M  V30 6398 O 624.612 -1.81478 0.699702 0
M  V30 6399 C 624.895 0.1627 3.59732 0
M  V30 6400 C 624.748 1.57694 4.21251 0
M  V30 6401 C 626.067 -0.504138 4.37203 0
M  V30 6402 H 623.186 0.059042 0.734631 0
M  V30 6403 H 625.828 0.826772 1.71069 0
M  V30 6404 H 623.978 -0.406414 3.86368 0
M  V30 6405 H 625.65 2.19618 4.05667 0
M  V30 6406 H 623.893 2.12603 3.7813 0
M  V30 6407 H 624.564 1.53183 5.3032 0
M  V30 6408 H 627.04 -0.0199841 4.16095 0
M  V30 6409 H 625.916 -0.470394 5.46881 0
M  V30 6410 H 626.177 -1.57726 4.13007 0
M  V30 6411 N 625.236 -1.5273 0.388769 0
M  V30 6412 C 626.485 -2.00757 -0.194833 0
M  V30 6413 C 626.798 -1.27951 -1.47946 0
M  V30 6414 O 628.004 -1.66686 -2.14308 0
M  V30 6415 C 626.46 -3.57695 -0.397762 0
M  V30 6416 C 626.068 -4.394 0.873583 0
M  V30 6417 C 627.812 -4.14012 -0.937759 0
M  V30 6418 C 625.719 -5.87938 0.638962 0
M  V30 6419 H 624.649 -0.750101 -0.0765845 0
M  V30 6420 H 627.3 -1.76239 0.511086 0
M  V30 6421 H 625.682 -3.7846 -1.16552 0
M  V30 6422 H 626.856 -4.30403 1.64591 0
M  V30 6423 H 625.171 -3.94301 1.33849 0
M  V30 6424 H 627.768 -5.22645 -1.12899 0
M  V30 6425 H 628.111 -3.7007 -1.90666 0
M  V30 6426 H 628.644 -3.97137 -0.229588 0
M  V30 6427 H 625.383 -6.36202 1.57885 0
M  V30 6428 H 624.903 -5.99726 -0.094443 0
M  V30 6429 H 626.582 -6.46423 0.273299 0
M  V30 6430 N 626.714 -0.118576 -1.57153 0
M  V30 6431 C 627.662 0.849114 -2.16547 0
M  V30 6432 C 628.656 1.27567 -1.11458 0
M  V30 6433 O 629.862 1.24746 -1.29763 0
M  V30 6434 H 626.237 0.291935 -0.693021 0
M  V30 6435 H 628.208 0.323693 -2.96639 0
M  V30 6436 C 626.957 2.08951 -2.77912 0
M  V30 6437 H 626.28 1.77021 -3.58474 0
M  V30 6438 H 627.72 2.74666 -3.23008 0
M  V30 6439 C 626.179 2.87899 -1.74974 0
M  V30 6440 O 626.709 3.83268 -1.20285 0
M  V30 6441 N 624.915 2.51884 -1.44924 0
M  V30 6442 H 624.462 1.74397 -1.89587 0
M  V30 6443 H 624.42 3.05003 -0.762921 0
M  V30 6444 N 628.193 1.56834 0.155195 0
M  V30 6445 C 629.103 2.009 1.21146 0
M  V30 6446 C 630.119 0.923029 1.475 0
M  V30 6447 O 631.295 1.23189 1.59331 0
M  V30 6448 C 628.36 2.37378 2.52691 0
M  V30 6449 C 627.421 3.59883 2.34057 0
M  V30 6450 C 626.654 3.94612 3.59329 0
M  V30 6451 O 626.877 3.30104 4.65175 0
M  V30 6452 O 625.811 4.87895 3.52479 0
M  V30 6453 H 629.637 2.9105 0.867371 0
M  V30 6454 H 627.222 1.44916 0.363298 0
M  V30 6455 H 629.104 2.61737 3.3026 0
M  V30 6456 H 627.779 1.50385 2.86646 0
M  V30 6457 H 626.686 3.40722 1.54465 0
M  V30 6458 H 628.019 4.47468 2.0502 0
M  V30 6459 N 629.671 -0.424282 1.51781 0
M  V30 6460 C 630.634 -1.49848 1.73431 0
M  V30 6461 C 631.634 -1.49016 0.604225 0
M  V30 6462 O 632.824 -1.50808 0.871935 0
M  V30 6463 C 629.956 -2.89332 1.80277 0
M  V30 6464 H 631.149 -1.3195 2.69312 0
M  V30 6465 H 628.702 -0.653809 1.41968 0
M  V30 6466 H 629.437 -3.12618 0.862568 0
M  V30 6467 H 629.222 -2.9134 2.62419 0
M  V30 6468 H 630.712 -3.67233 1.98821 0
M  V30 6469 N 631.149 -1.42148 -0.680565 0
M  V30 6470 C 632.395 -1.4352 -1.44131 0
M  V30 6471 C 632.75 -0.0486244 -1.92339 0
M  V30 6472 O 632.043 0.92819 -1.67616 0
M  V30 6473 C 632.237 -2.38945 -2.65782 0
M  V30 6474 C 632.066 -3.86743 -2.29477 0
M  V30 6475 C 630.836 -4.5532 -2.19115 0
M  V30 6476 C 633.034 -4.77321 -1.91491 0
M  V30 6477 N 631.016 -5.88174 -1.75853 0
M  V30 6478 C 632.387 -5.99238 -1.59103 0
M  V30 6479 C 634.442 -4.64829 -1.78432 0
M  V30 6480 C 633.145 -7.10053 -1.14968 0
M  V30 6481 C 635.171 -5.75621 -1.35702 0
M  V30 6482 C 634.533 -6.96645 -1.04234 0
M  V30 6483 H 630.632 -0.580363 -0.524121 0
M  V30 6484 H 633.216 -1.78132 -0.785939 0
M  V30 6485 H 631.387 -2.06403 -3.29017 0
M  V30 6486 H 633.119 -2.30935 -3.32342 0
M  V30 6487 H 629.874 -4.09456 -2.37998 0
M  V30 6488 H 630.298 -6.58625 -1.56661 0
M  V30 6489 H 634.94 -3.71745 -2.01409 0
M  V30 6490 H 632.658 -8.0299 -0.907365 0
M  V30 6491 H 636.244 -5.67964 -1.26126 0
M  V30 6492 H 635.124 -7.80918 -0.716707 0
M  V30 6493 N 632.627 0.916307 -1.28225 0
M  V30 6494 C 633.874 1.66518 -1.1523 0
M  V30 6495 C 634.202 1.92178 0.299632 0
M  V30 6496 O 633.457 1.51842 1.2346 0
M  V30 6497 C 633.756 3.03125 -1.8934 0
M  V30 6498 C 633.422 2.97135 -3.39148 0
M  V30 6499 C 632.084 2.95208 -3.80007 0
M  V30 6500 C 634.436 2.87574 -4.34685 0
M  V30 6501 C 631.764 2.81518 -5.14747 0
M  V30 6502 C 634.116 2.75424 -5.69495 0
M  V30 6503 C 632.78 2.71854 -6.09632 0
M  V30 6504 H 632.05 0.609334 -0.421655 0
M  V30 6505 H 634.697 1.06776 -1.58969 0
M  V30 6506 H 633.002 3.66639 -1.38143 0
M  V30 6507 H 634.699 3.59968 -1.76704 0
M  V30 6508 H 631.289 2.99428 -3.06661 0
M  V30 6509 H 635.473 2.88152 -4.04082 0
M  V30 6510 H 630.729 2.77148 -5.44976 0
M  V30 6511 H 634.903 2.66993 -6.43185 0
M  V30 6512 H 632.53 2.61003 -7.1399 0
M  V30 6513 N 634.105 1.10431 1.1244 0
M  V30 6514 C 635.516 0.864439 1.65482 0
M  V30 6515 C 635.867 -0.60527 1.8663 0
M  V30 6516 O 634.992 -1.46492 1.59276 0
M  V30 6517 C 635.587 1.56267 3.0061 0
M  V30 6518 C 634.146 1.3695 3.50602 0
M  V30 6519 C 633.293 1.61209 2.25626 0
M  V30 6520 H 636.244 1.26203 0.962209 0
M  V30 6521 H 636.265 1.00166 3.67079 0
M  V30 6522 H 635.777 2.63231 2.85186 0
M  V30 6523 H 633.878 0.321481 3.71211 0
M  V30 6524 H 633.991 2.11143 4.30064 0
M  V30 6525 H 632.355 1.03482 2.32731 0
M  V30 6526 H 633.138 2.69425 2.12756 0
M  V30 6527 N 635.583 -1.29855 0.893053 0
M  V30 6528 C 636.493 -2.31661 0.370157 0
M  V30 6529 C 637.509 -1.65677 -0.531723 0
M  V30 6530 O 638.685 -1.9691 -0.422902 0
M  V30 6531 C 635.75 -3.44388 -0.399741 0
M  V30 6532 C 634.811 -4.2598 0.532861 0
M  V30 6533 C 634.044 -5.33324 -0.200388 0
M  V30 6534 O 634.267 -5.52305 -1.42531 0
M  V30 6535 O 633.201 -6.00188 0.453668 0
M  V30 6536 H 637.027 -2.78354 1.2146 0
M  V30 6537 H 634.612 -1.34171 0.657153 0
M  V30 6538 H 636.494 -4.13037 -0.835358 0
M  V30 6539 H 635.169 -2.99815 -1.22035 0
M  V30 6540 H 634.076 -3.59998 1.01746 0
M  V30 6541 H 635.409 -4.74178 1.3197 0
M  V30 6542 N 637.061 -0.65484 -1.43351 0
M  V30 6543 C 638.338 -0.0987371 -1.95351 0
M  V30 6544 C 638.718 1.38161 -1.59608 0
M  V30 6545 O 638.066 2.10791 -0.882021 0
M  V30 6546 C 638.276 -0.346684 -3.47274 0
M  V30 6547 C 639.624 -0.25249 -4.23849 0
M  V30 6548 O 640.648 -0.279332 -3.55103 0
M  V30 6549 O 639.507 -0.177584 -5.46211 0
M  V30 6550 H 636.601 0.0086829 -0.826954 0
M  V30 6551 H 639.147 -0.728189 -1.53282 0
M  V30 6552 H 637.919 -1.37296 -3.66423 0
M  V30 6553 H 637.542 0.315757 -3.96344 0
M  V30 6554 N 638.539 1.52521 -0.396863 0
M  V30 6555 C 639.471 2.24333 0.469814 0
M  V30 6556 C 640.484 1.2685 1.02043 0
M  V30 6557 O 641.673 1.52876 0.92147 0
M  V30 6558 C 638.773 2.95202 1.66461 0
M  V30 6559 C 637.946 4.19454 1.24003 0
M  V30 6560 C 637.005 4.73255 2.30036 0
M  V30 6561 O 636.031 5.36151 1.91131 0
M  V30 6562 N 637.233 4.53765 3.62047 0
M  V30 6563 H 639.998 2.99347 -0.145468 0
M  V30 6564 H 637.559 1.60348 -0.223606 0
M  V30 6565 H 639.551 3.28092 2.36934 0
M  V30 6566 H 638.121 2.2345 2.18607 0
M  V30 6567 H 637.341 3.92517 0.363892 0
M  V30 6568 H 638.629 5.0017 0.933135 0
M  V30 6569 H 638.027 4.03576 3.96412 0
M  V30 6570 H 636.584 4.91124 4.28533 0
M  V30 6571 N 640.017 0.126909 1.57088 0
M  V30 6572 C 641.433 -0.229641 1.57939 0
M  V30 6573 C 641.633 -1.66145 1.1401 0
M  V30 6574 O 640.689 -2.3843 0.831119 0
M  V30 6575 C 642.002 0.0108648 3.00698 0
M  V30 6576 C 643.55 -0.054418 3.12953 0
M  V30 6577 C 644.025 0.158497 4.57726 0
M  V30 6578 N 645.516 0.104735 4.63082 0
M  V30 6579 C 646.251 0.24427 5.72879 0
M  V30 6580 N 645.747 0.440415 6.91399 0
M  V30 6581 N 647.54 0.183286 5.61801 0
M  V30 6582 H 639.691 1.06203 1.83942 0
M  V30 6583 H 641.954 0.418834 0.85046 0
M  V30 6584 H 641.66 1.00102 3.37154 0
M  V30 6585 H 641.534 -0.717512 3.70313 0
M  V30 6586 H 643.921 -1.0351 2.7635 0
M  V30 6587 H 644.002 0.705967 2.45865 0
M  V30 6588 H 643.646 1.13619 4.95028 0
M  V30 6589 H 643.576 -0.62197 5.22914 0
M  V30 6590 H 646.067 -0.0430298 3.77876 0
M  V30 6591 H 646.38 0.537536 7.70928 0
M  V30 6592 H 644.725 0.476488 6.93365 0
M  V30 6593 H 647.916 0.0309561 4.6809 0
M  V30 6594 H 648.089 0.295471 6.47326 0
M  V30 6595 N 641.495 -1.56914 -0.146875 0
M  V30 6596 C 642.741 -1.83628 -0.860741 0
M  V30 6597 C 643.074 -0.708528 -1.80813 0
M  V30 6598 O 642.349 0.287838 -1.92358 0
M  V30 6599 C 642.632 -3.20836 -1.63511 0
M  V30 6600 C 642.485 -4.44174 -0.709199 0
M  V30 6601 C 643.804 -3.55268 -2.59756 0
M  V30 6602 H 640.923 -0.667949 -0.311468 0
M  V30 6603 H 643.565 -1.89582 -0.125936 0
M  V30 6604 H 641.715 -3.15891 -2.26153 0
M  V30 6605 H 643.387 -4.61205 -0.0937781 0
M  V30 6606 H 641.63 -4.33796 -0.0187856 0
M  V30 6607 H 642.301 -5.36785 -1.28707 0
M  V30 6608 H 644.777 -3.60824 -2.07232 0
M  V30 6609 H 643.653 -4.52303 -3.10987 0
M  V30 6610 H 643.914 -2.81231 -3.41118 0
M  V30 6611 N 642.974 0.416227 -1.52004 0
M  V30 6612 C 643.904 1.51365 -1.77795 0
M  V30 6613 C 644.885 1.58059 -0.628601 0
M  V30 6614 O 646.07 1.73447 -0.873478 0
M  V30 6615 C 643.2 2.89256 -1.92219 0
M  V30 6616 C 642.154 2.97415 -3.0778 0
M  V30 6617 C 641.48 4.37492 -3.07417 0
M  V30 6618 C 642.78 2.69551 -4.47369 0
M  V30 6619 H 644.474 1.30033 -2.69688 0
M  V30 6620 H 642.02 0.624112 -1.29772 0
M  V30 6621 H 643.973 3.66008 -2.08845 0
M  V30 6622 H 642.697 3.11866 -0.969917 0
M  V30 6623 H 641.356 2.23107 -2.90893 0
M  V30 6624 H 641.004 4.571 -2.09925 0
M  V30 6625 H 640.704 4.43877 -3.85029 0
M  V30 6626 H 642.228 5.16188 -3.26162 0
M  V30 6627 H 643.642 3.36028 -4.64497 0
M  V30 6628 H 642.039 2.87321 -5.26846 0
M  V30 6629 H 643.109 1.65029 -4.55953 0
M  V30 6630 N 644.452 1.42507 0.673017 0
M  V30 6631 C 645.68 1.46473 1.46128 0
M  V30 6632 C 646.095 0.0765912 1.88645 0
M  V30 6633 O 645.452 -0.909057 1.58248 0
M  V30 6634 C 645.503 2.39339 2.70923 0
M  V30 6635 O 645.224 3.72752 2.3019 0
M  V30 6636 C 646.725 2.52343 3.64469 0
M  V30 6637 H 643.945 0.49812 0.449575 0
M  V30 6638 H 646.489 1.87041 0.826802 0
M  V30 6639 H 644.644 2.02019 3.30556 0
M  V30 6640 H 645.058 4.22503 3.10791 0
M  V30 6641 H 646.532 3.2144 4.48754 0
M  V30 6642 H 647.009 1.56189 4.1049 0
M  V30 6643 H 647.615 2.90392 3.10729 0
M  V30 6644 N 645.93 -0.909495 1.28709 0
M  V30 6645 C 647.341 -1.47419 1.14563 0
M  V30 6646 C 647.692 -1.94432 -0.262832 0
M  V30 6647 O 646.817 -1.82842 -1.15748 0
M  V30 6648 C 647.412 -2.67933 2.07358 0
M  V30 6649 C 645.971 -3.20568 1.97264 0
M  V30 6650 C 645.118 -1.93269 1.98852 0
M  V30 6651 H 648.069 -0.721787 1.41336 0
M  V30 6652 H 648.09 -3.43339 1.64007 0
M  V30 6653 H 647.602 -2.33685 3.09859 0
M  V30 6654 H 645.703 -3.59531 0.978157 0
M  V30 6655 H 645.816 -3.85529 2.84436 0
M  V30 6656 H 644.18 -2.10553 1.43317 0
M  V30 6657 H 644.963 -1.61312 3.0304 0
M  V30 6658 N 647.408 -1.11026 -1.11852 0
M  V30 6659 C 648.356 -0.759643 -2.19846 0
M  V30 6660 C 649.35 0.246964 -1.6759 0
M  V30 6661 O 650.556 0.106693 -1.79684 0
M  V30 6662 H 646.931 -0.22775 -0.716683 0
M  V30 6663 H 648.902 -1.6792 -2.46669 0
M  V30 6664 C 647.651 -0.214364 -3.47039 0
M  V30 6665 H 646.974 -0.980175 -3.87599 0
M  V30 6666 H 648.414 -0.00717047 -4.23999 0
M  V30 6667 C 646.873 1.05436 -3.19976 0
M  V30 6668 O 647.403 2.13483 -3.40276 0
M  V30 6669 N 645.609 0.975436 -2.7374 0
M  V30 6670 H 645.156 0.0960853 -2.57421 0
M  V30 6671 H 645.114 1.82501 -2.5601 0
M  V30 6672 N 648.886 1.2938 -0.899927 0
M  V30 6673 C 649.816 2.30144 -0.39446 0
M  V30 6674 C 650.797 1.61611 0.530639 0
M  V30 6675 O 651.982 1.89119 0.441319 0
M  V30 6676 C 649.112 3.45229 0.37868 0
M  V30 6677 C 648.066 4.25564 -0.456012 0
M  V30 6678 C 647.392 5.32848 0.444637 0
M  V30 6679 C 648.692 4.93651 -1.70605 0
M  V30 6680 H 650.386 2.72673 -1.23653 0
M  V30 6681 H 647.932 1.31086 -0.596034 0
M  V30 6682 H 649.885 4.14797 0.743037 0
M  V30 6683 H 648.609 3.01545 1.25453 0
M  V30 6684 H 647.268 3.57704 -0.802704 0
M  V30 6685 H 646.916 4.85408 1.31863 0
M  V30 6686 H 646.616 5.87497 -0.110154 0
M  V30 6687 H 648.14 6.05268 0.805182 0
M  V30 6688 H 649.554 5.55655 -1.41141 0
M  V30 6689 H 647.951 5.58233 -2.20217 0
M  V30 6690 H 649.021 4.18926 -2.4419 0
M  V30 6691 N 650.364 0.662433 1.43002 0
M  V30 6692 C 651.61 0.179857 2.02001 0
M  V30 6693 C 651.943 -1.20625 1.52195 0
M  V30 6694 O 651.218 -1.80726 0.718911 0
M  V30 6695 C 651.501 0.200845 3.59539 0
M  V30 6696 C 651.354 1.62153 4.19555 0
M  V30 6697 C 652.673 -0.457738 4.37713 0
M  V30 6698 H 649.792 0.0668305 0.733964 0
M  V30 6699 H 652.434 0.84487 1.70182 0
M  V30 6700 H 650.584 -0.365411 3.86778 0
M  V30 6701 H 652.256 2.23908 4.03315 0
M  V30 6702 H 650.499 2.16601 3.75854 0
M  V30 6703 H 651.17 1.58799 5.28665 0
M  V30 6704 H 653.646 0.0241495 4.16093 0
M  V30 6705 H 652.522 -0.412363 5.47349 0
M  V30 6706 H 652.783 -1.53336 4.14657 0
M  V30 6707 N 651.842 -1.52309 0.404946 0
M  V30 6708 C 652.805 -2.25491 -0.410651 0
M  V30 6709 C 653.805 -1.27704 -0.977154 0
M  V30 6710 O 654.995 -1.51679 -0.856691 0
M  V30 6711 C 652.127 -3.02197 -1.57765 0
M  V30 6712 H 653.32 -2.99015 0.230277 0
M  V30 6713 H 650.873 -1.55506 0.157377 0
M  V30 6714 H 651.608 -2.33013 -2.25556 0
M  V30 6715 H 651.393 -3.73987 -1.17797 0
M  V30 6716 H 652.883 -3.57719 -2.15469 0
M  V30 6717 N 653.32 -0.135238 -1.57019 0
M  V30 6718 C 654.283 0.794707 -2.14981 0
M  V30 6719 C 655.283 1.18342 -1.08866 0
M  V30 6720 O 656.473 1.10627 -1.34563 0
M  V30 6721 C 653.605 2.07685 -2.70333 0
M  V30 6722 H 654.798 0.290696 -2.98488 0
M  V30 6723 H 652.351 0.114128 -1.55883 0
M  V30 6724 H 653.086 2.6248 -1.9046 0
M  V30 6725 H 652.871 1.80745 -3.47957 0
M  V30 6726 H 654.361 2.74127 -3.1503 0
M  V30 6727 N 654.798 1.5699 0.138552 0
M  V30 6728 C 655.728 2.01933 1.17241 0
M  V30 6729 C 656.709 0.90033 1.44319 0
M  V30 6730 O 657.894 1.16872 1.55095 0
M  V30 6731 C 655.024 2.40711 2.50351 0
M  V30 6732 C 653.978 3.55874 2.37776 0
M  V30 6733 C 653.304 3.80491 3.75674 0
M  V30 6734 C 654.604 4.8826 1.85472 0
M  V30 6735 H 656.298 2.88551 0.798672 0
M  V30 6736 H 653.844 1.3882 0.382743 0
M  V30 6737 H 655.797 2.70754 3.22909 0
M  V30 6738 H 654.521 1.5104 2.89576 0
M  V30 6739 H 653.18 3.2601 1.67669 0
M  V30 6740 H 652.828 2.88057 4.12349 0
M  V30 6741 H 652.528 4.57998 3.68119 0
M  V30 6742 H 654.052 4.12967 4.49767 0
M  V30 6743 H 655.466 5.16965 2.4783 0
M  V30 6744 H 653.863 5.69631 1.88787 0
M  V30 6745 H 654.933 4.78071 0.810935 0
M  V30 6746 N 656.276 -0.40816 1.52223 0
M  V30 6747 C 657.687 -0.986929 1.58482 0
M  V30 6748 C 658.038 -1.91521 0.425917 0
M  V30 6749 O 657.163 -2.11593 -0.453593 0
M  V30 6750 C 657.758 -1.7967 2.87235 0
M  V30 6751 C 656.317 -2.32549 2.9597 0
M  V30 6752 C 655.464 -1.12558 2.53428 0
M  V30 6753 H 658.415 -0.188362 1.57578 0
M  V30 6754 H 658.436 -2.65417 2.72642 0
M  V30 6755 H 657.948 -1.12082 3.71563 0
M  V30 6756 H 656.049 -3.03505 2.16137 0
M  V30 6757 H 656.162 -2.63348 4.00231 0
M  V30 6758 H 654.526 -1.47984 2.07299 0
M  V30 6759 H 655.309 -0.465351 3.40131 0
M  V30 6760 N 657.755 -1.42862 -0.66545 0
M  V30 6761 C 659.166 -1.3901 -1.24632 0
M  V30 6762 C 659.517 -0.0880285 -1.96002 0
M  V30 6763 O 658.642 0.812947 -2.0055 0
M  V30 6764 C 659.237 -2.51806 -2.2667 0
M  V30 6765 C 657.796 -2.51257 -2.80262 0
M  V30 6766 C 656.943 -2.30124 -1.5472 0
M  V30 6767 H 659.894 -1.5194 -0.458237 0
M  V30 6768 H 659.915 -2.22593 -3.08598 0
M  V30 6769 H 659.427 -3.46558 -1.74697 0
M  V30 6770 H 657.528 -1.60349 -3.36332 0
M  V30 6771 H 657.641 -3.48614 -3.28641 0
M  V30 6772 H 656.005 -1.7856 -1.81627 0
M  V30 6773 H 656.788 -3.26945 -1.04699 0
M  V30 6774 N 659.233 0.902656 -1.29189 0
M  V30 6775 C 660.458 1.69167 -1.19989 0
M  V30 6776 C 660.883 1.86607 0.236495 0
M  V30 6777 O 660.241 1.38425 1.17082 0
M  V30 6778 C 660.289 3.05532 -1.91527 0
M  V30 6779 O 659.393 3.93621 -1.2303 0
M  V30 6780 H 658.734 0.517584 -0.415936 0
M  V30 6781 H 661.264 1.12785 -1.70706 0
M  V30 6782 H 661.274 3.55693 -1.99866 0
M  V30 6783 H 659.949 2.92156 -2.96003 0
M  V30 6784 H 658.526 3.52055 -1.22928 0
M  V30 6785 N 660.711 1.11618 1.11262 0
M  V30 6786 C 661.939 0.888739 1.8684 0
M  V30 6787 C 662.354 -0.561558 1.80255 0
M  V30 6788 O 661.711 -1.38782 1.18515 0
M  V30 6789 C 661.762 1.34422 3.35579 0
M  V30 6790 O 661.483 2.73766 3.42029 0
M  V30 6791 C 662.984 1.15246 4.28058 0
M  V30 6792 H 660.204 0.318152 0.590779 0
M  V30 6793 H 662.748 1.48398 1.40707 0
M  V30 6794 H 660.903 0.79239 3.7921 0
M  V30 6795 H 661.317 2.9355 4.34659 0
M  V30 6796 H 662.791 1.52015 5.30656 0
M  V30 6797 H 663.268 0.0922007 4.39103 0
M  V30 6798 H 663.874 1.69136 3.90222 0
M  V30 6799 N 662.189 -1.289 0.906776 0
M  V30 6800 C 663.139 -2.25122 0.361109 0
M  V30 6801 C 664.123 -1.52169 -0.52283 0
M  V30 6802 O 665.315 -1.73223 -0.363691 0
M  V30 6803 C 662.444 -3.40915 -0.403982 0
M  V30 6804 C 661.53 -4.21198 0.495279 0
M  V30 6805 N 661.921 -4.79636 1.60572 0
M  V30 6806 C 660.219 -4.45027 0.294372 0
M  V30 6807 C 660.92 -5.39977 2.16332 0
M  V30 6808 N 659.896 -5.23753 1.45546 0
M  V30 6809 H 663.698 -2.67869 1.20927 0
M  V30 6810 H 661.212 -1.43592 0.758632 0
M  V30 6811 H 663.209 -4.08922 -0.811695 0
M  V30 6812 H 661.869 -2.99703 -1.24932 0
M  V30 6813 H 662.88 -4.78209 1.98838 0
M  V30 6814 H 659.557 -4.14348 -0.512021 0
M  V30 6815 H 660.947 -5.96266 3.09704 0
M  V30 6816 N 663.667 -0.670007 -1.42649 0
M  V30 6817 C 664.915 -0.18991 -2.01206 0
M  V30 6818 C 665.236 1.20617 -1.53221 0
M  V30 6819 O 664.506 1.80898 -0.751856 0
M  V30 6820 H 663.086 -0.0672189 -0.743969 0
M  V30 6821 H 665.748 -0.865442 -1.74631 0
M  V30 6822 H 664.844 -0.187481 -3.11536 0
M  V30 6823 N 665.145 1.52092 -0.413018 0
M  V30 6824 C 666.108 2.25706 0.398687 0
M  V30 6825 C 667.108 1.28221 0.970368 0
M  V30 6826 O 668.298 1.52131 0.848635 0
M  V30 6827 C 665.43 3.03029 1.5616 0
M  V30 6828 H 666.623 2.98888 -0.246131 0
M  V30 6829 H 664.176 1.5542 -0.165622 0
M  V30 6830 H 664.911 2.34205 2.24317 0
M  V30 6831 H 664.696 3.74606 1.15812 0
M  V30 6832 H 666.186 3.58857 2.13569 0
M  V30 6833 N 666.623 0.143563 1.56945 0
M  V30 6834 C 667.871 -0.507402 1.95627 0
M  V30 6835 C 668.192 -1.65626 1.02922 0
M  V30 6836 O 667.462 -1.95693 0.0901136 0
M  V30 6837 H 666.042 -0.190436 0.722318 0
M  V30 6838 H 668.704 0.218257 1.93674 0
M  V30 6839 H 667.8 -0.885816 2.99265 0
M  V30 6840 N 668.101 -1.57061 -0.130224 0
M  V30 6841 C 669.347 -1.85412 -0.836295 0
M  V30 6842 C 669.702 -0.729831 -1.7802 0
M  V30 6843 O 668.995 0.271021 -1.89673 0
M  V30 6844 C 669.189 -3.17878 -1.63365 0
M  V30 6845 C 669.018 -4.43086 -0.768453 0
M  V30 6846 C 667.788 -5.03488 -0.427598 0
M  V30 6847 C 669.986 -5.14219 -0.0911495 0
M  V30 6848 N 667.968 -6.12253 0.449439 0
M  V30 6849 C 669.339 -6.16632 0.645341 0
M  V30 6850 C 671.394 -4.97898 -0.0135625 0
M  V30 6851 C 670.097 -7.0449 1.45212 0
M  V30 6852 C 672.123 -5.86234 0.780001 0
M  V30 6853 C 671.485 -6.88141 1.50472 0
M  V30 6854 H 667.584 -0.728875 -0.283311 0
M  V30 6855 H 670.168 -1.9444 -0.100662 0
M  V30 6856 H 668.339 -3.09967 -2.3404 0
M  V30 6857 H 670.071 -3.34076 -2.28419 0
M  V30 6858 H 666.826 -4.67344 -0.767264 0
M  V30 6859 H 667.25 -6.71263 0.879476 0
M  V30 6860 H 671.892 -4.19082 -0.559511 0
M  V30 6861 H 669.61 -7.82722 2.00926 0
M  V30 6862 H 673.196 -5.75671 0.842246 0
M  V30 6863 H 672.076 -7.55311 2.1089 0
M  V30 6864 N 669.579 0.400081 -1.52437 0
M  V30 6865 C 670.511 1.50729 -1.72666 0
M  V30 6866 C 671.524 1.51058 -0.607075 0
M  V30 6867 O 672.713 1.5516 -0.88248 0
M  V30 6868 C 669.813 2.89604 -1.76019 0
M  V30 6869 C 668.986 3.13365 -3.05157 0
M  V30 6870 C 668.045 4.32163 -3.00203 0
M  V30 6871 O 667.071 4.29004 -3.74092 0
M  V30 6872 N 668.273 5.3776 -2.18619 0
M  V30 6873 H 671.038 1.33767 -2.68191 0
M  V30 6874 H 668.599 0.58948 -1.50787 0
M  V30 6875 H 670.591 3.67159 -1.70225 0
M  V30 6876 H 669.161 2.99979 -0.879284 0
M  V30 6877 H 668.381 2.23774 -3.24529 0
M  V30 6878 H 669.669 3.26089 -3.90568 0
M  V30 6879 H 669.067 5.43177 -1.58035 0
M  V30 6880 H 667.624 6.14023 -2.18674 0
M  V30 6881 N 671.057 1.43213 0.657864 0
M  V30 6882 C 671.987 1.50815 1.78262 0
M  V30 6883 C 672.968 0.363211 1.66177 0
M  V30 6884 O 674.153 0.579806 1.85343 0
M  V30 6885 C 671.283 1.42625 3.16663 0
M  V30 6886 C 670.237 2.5532 3.43505 0
M  V30 6887 C 669.563 2.32184 4.81658 0
M  V30 6888 C 670.863 3.97583 3.38711 0
M  V30 6889 H 672.557 2.44954 1.72157 0
M  V30 6890 H 670.103 1.17896 0.82683 0
M  V30 6891 H 672.056 1.46548 3.95097 0
M  V30 6892 H 670.78 0.449877 3.23487 0
M  V30 6893 H 669.439 2.50742 2.6744 0
M  V30 6894 H 669.087 1.32801 4.85153 0
M  V30 6895 H 668.787 3.07724 5.00579 0
M  V30 6896 H 670.311 2.37883 5.62356 0
M  V30 6897 H 671.725 4.03673 4.07089 0
M  V30 6898 H 670.122 4.73112 3.69168 0
M  V30 6899 H 671.192 4.23049 2.36976 0
M  V30 6900 N 672.536 -0.895792 1.29666 0
M  V30 6901 C 673.783 -1.64664 1.17864 0
M  V30 6902 C 674.111 -1.92631 -0.26902 0
M  V30 6903 O 673.366 -1.53787 -1.21029 0
M  V30 6904 C 673.665 -3.00075 1.94139 0
M  V30 6905 C 673.331 -2.91702 3.43833 0
M  V30 6906 C 671.993 -2.89126 3.84656 0
M  V30 6907 C 674.345 -2.80622 4.39205 0
M  V30 6908 C 671.673 -2.73293 5.1916 0
M  V30 6909 C 674.025 -2.66329 5.73805 0
M  V30 6910 C 672.689 -2.62121 6.1388 0
M  V30 6911 H 671.959 -0.602549 0.431295 0
M  V30 6912 H 674.606 -1.04234 1.60648 0
M  V30 6913 H 672.911 -3.64394 1.43958 0
M  V30 6914 H 674.608 -3.57111 1.82408 0
M  V30 6915 H 671.198 -2.94511 3.11386 0
M  V30 6916 H 675.382 -2.81686 4.08615 0
M  V30 6917 H 670.638 -2.68443 5.49316 0
M  V30 6918 H 674.812 -2.56727 6.47352 0
M  V30 6919 H 672.439 -2.49611 7.18052 0
M  V30 6920 N 674.014 -1.12206 -1.10668 0
M  V30 6921 C 675.254 -0.885935 -1.84202 0
M  V30 6922 C 675.618 0.577849 -1.83098 0
M  V30 6923 O 676.819 0.931051 -2.5216 0
M  V30 6924 C 675.09 -1.44197 -3.2702 0
M  V30 6925 S 676.649 -1.34402 -4.1771 0
M  V30 6926 H 673.467 -0.319653 -0.635093 0
M  V30 6927 H 676.069 -1.43112 -1.33189 0
M  V30 6928 H 674.773 -2.50096 -3.25392 0
M  V30 6929 H 674.304 -0.894173 -3.83103 0
M  V30 6930 H 676.319 -0.313873 -4.95206 0
M  V30 6931 N 675.492 1.28418 -0.913599 0
M  V30 6932 C 676.908 1.47411 -0.611728 0
M  V30 6933 C 677.108 1.83018 0.843008 0
M  V30 6934 O 676.164 1.93505 1.6221 0
M  V30 6935 C 677.477 2.57703 -1.5495 0
M  V30 6936 C 679.025 2.71572 -1.5562 0
M  V30 6937 C 679.5 3.85008 -2.48058 0
M  V30 6938 N 680.991 3.92361 -2.46184 0
M  V30 6939 C 681.726 4.79516 -3.14407 0
M  V30 6940 N 681.222 5.71262 -3.91958 0
M  V30 6941 N 683.015 4.73125 -3.03495 0
M  V30 6942 H 675.166 1.03585 -1.85429 0
M  V30 6943 H 677.429 0.515907 -0.795326 0
M  V30 6944 H 677.135 2.38298 -2.58663 0
M  V30 6945 H 677.009 3.54801 -1.28048 0
M  V30 6946 H 679.396 2.90366 -0.526441 0
M  V30 6947 H 679.477 1.75006 -1.86565 0
M  V30 6948 H 679.121 3.66969 -3.51136 0
M  V30 6949 H 679.051 4.80971 -2.14416 0
M  V30 6950 H 681.542 3.26749 -1.89851 0
M  V30 6951 H 681.855 6.34593 -4.41034 0
M  V30 6952 H 680.2 5.71103 -3.96063 0
M  V30 6953 H 683.391 4.00442 -2.42413 0
M  V30 6954 H 683.564 5.40834 -3.56935 0
M  V30 6955 N 676.97 0.677563 1.42291 0
M  V30 6956 C 678.198 0.209459 2.05837 0
M  V30 6957 C 678.613 -1.13444 1.50917 0
M  V30 6958 O 677.97 -1.70529 0.65008 0
M  V30 6959 C 678.021 0.138819 3.61233 0
M  V30 6960 O 677.742 1.42962 4.14118 0
M  V30 6961 C 679.243 -0.352449 4.41897 0
M  V30 6962 H 676.463 0.101209 0.663323 0
M  V30 6963 H 679.007 0.925077 1.8238 0
M  V30 6964 H 677.162 -0.527505 3.83792 0
M  V30 6965 H 677.576 1.3048 5.08011 0
M  V30 6966 H 679.05 -0.350778 5.50884 0
M  V30 6967 H 679.527 -1.3882 4.16684 0
M  V30 6968 H 680.133 0.282236 4.24362 0
M  V30 6969 N 678.448 -1.51871 0.421078 0
M  V30 6970 C 679.694 -2.02237 -0.151014 0
M  V30 6971 C 680.027 -1.30554 -1.43768 0
M  V30 6972 O 679.302 -0.41546 -1.90011 0
M  V30 6973 C 679.585 -3.5802 -0.386482 0
M  V30 6974 C 679.438 -4.40339 0.9177 0
M  V30 6975 C 680.757 -4.24444 -1.16342 0
M  V30 6976 H 677.876 -0.735062 -0.0534102 0
M  V30 6977 H 680.518 -1.81656 0.556888 0
M  V30 6978 H 678.668 -3.75688 -0.989494 0
M  V30 6979 H 680.34 -4.34357 1.55344 0
M  V30 6980 H 678.583 -4.06073 1.526 0
M  V30 6981 H 679.254 -5.47451 0.707187 0
M  V30 6982 H 681.73 -4.10948 -0.652788 0
M  V30 6983 H 680.606 -5.33358 -1.29693 0
M  V30 6984 H 680.867 -3.84204 -2.18724 0
M  V30 6985 N 679.926 -0.151884 -1.56866 0
M  V30 6986 C 681.172 0.492327 -1.97352 0
M  V30 6987 C 681.527 1.62156 -1.03553 0
M  V30 6988 O 680.82 1.91467 -0.0714872 0
M  V30 6989 C 681.014 1.04074 -3.41911 0
M  V30 6990 C 680.843 -0.0338306 -4.49687 0
M  V30 6991 C 679.613 -0.476914 -5.03044 0
M  V30 6992 C 681.811 -0.827105 -5.07606 0
M  V30 6993 N 679.793 -1.53382 -5.9443 0
M  V30 6994 C 681.164 -1.73439 -5.95247 0
M  V30 6995 C 683.219 -0.874351 -4.90163 0
M  V30 6996 C 681.922 -2.68488 -6.67313 0
M  V30 6997 C 683.948 -1.81269 -5.62935 0
M  V30 6998 C 683.31 -2.70749 -6.50288 0
M  V30 6999 H 679.409 0.148822 -0.767708 0
M  V30 7000 H 681.993 -0.247615 -1.93119 0
M  V30 7001 H 680.164 1.75027 -3.46728 0
M  V30 7002 H 681.896 1.65197 -3.69448 0
M  V30 7003 H 678.651 -0.0782493 -4.73535 0
M  V30 7004 H 679.075 -2.06217 -6.44828 0
M  V30 7005 H 683.717 -0.196628 -4.22343 0
M  V30 7006 H 681.435 -3.37257 -7.34359 0
M  V30 7007 H 685.021 -1.85511 -5.51432 0
M  V30 7008 H 683.901 -3.42175 -7.0561 0
M  V30 7009 N 681.404 1.57128 0.121893 0
M  V30 7010 C 682.629 1.89254 0.848385 0
M  V30 7011 C 683.054 0.743527 1.72781 0
M  V30 7012 O 682.412 -0.306056 1.78698 0
M  V30 7013 C 682.46 3.20113 1.66012 0
M  V30 7014 O 681.564 3.05815 2.76679 0
M  V30 7015 H 680.905 0.621103 0.234793 0
M  V30 7016 H 683.435 2.0433 0.10516 0
M  V30 7017 H 683.445 3.52761 2.04996 0
M  V30 7018 H 682.12 4.03336 1.01452 0
M  V30 7019 H 680.697 2.84627 2.40918 0
M  V30 7020 N 682.882 -0.391992 1.52647 0
M  V30 7021 C 683.845 -1.46135 1.7657 0
M  V30 7022 C 684.845 -1.47701 0.635698 0
M  V30 7023 O 686.035 -1.48924 0.903728 0
M  V30 7024 C 683.167 -2.85443 1.86374 0
M  V30 7025 H 684.36 -1.26208 2.72051 0
M  V30 7026 H 681.913 -0.623549 1.43323 0
M  V30 7027 H 682.648 -3.10718 0.928685 0
M  V30 7028 H 682.433 -2.85708 2.68539 0
M  V30 7029 H 683.923 -3.62933 2.06566 0
M  V30 7030 N 684.36 -1.4356 -0.65026 0
M  V30 7031 C 685.31 -1.45392 -1.75628 0
M  V30 7032 C 686.294 -0.322006 -1.57645 0
M  V30 7033 O 687.486 -0.565996 -1.67707 0
M  V30 7034 C 684.615 -1.38254 -3.1423 0
M  V30 7035 C 683.701 -2.56487 -3.3775 0
M  V30 7036 N 684.092 -3.81824 -3.31729 0
M  V30 7037 C 682.39 -2.51274 -3.6848 0
M  V30 7038 C 683.091 -4.60497 -3.55412 0
M  V30 7039 N 682.067 -3.91274 -3.77367 0
M  V30 7040 H 685.869 -2.40167 -1.69402 0
M  V30 7041 H 683.383 -1.38254 -0.852037 0
M  V30 7042 H 685.38 -1.3765 -3.9352 0
M  V30 7043 H 684.04 -0.445019 -3.21636 0
M  V30 7044 H 685.051 -4.14069 -3.11074 0
M  V30 7045 H 681.728 -1.66223 -3.82983 0
M  V30 7046 H 683.118 -5.69518 -3.5651 0
M  V30 7047 N 685.838 0.888903 -1.30139 0
M  V30 7048 C 687.063 1.67884 -1.21777 0
M  V30 7049 C 687.488 1.86848 0.216689 0
M  V30 7050 O 686.846 1.39659 1.15608 0
M  V30 7051 C 686.894 3.03483 -1.94757 0
M  V30 7052 O 685.998 3.92294 -1.27198 0
M  V30 7053 H 685.339 0.513144 -0.421402 0
M  V30 7054 H 687.869 1.10968 -1.71893 0
M  V30 7055 H 687.879 3.53553 -2.03627 0
M  V30 7056 H 686.554 2.89 -2.99085 0
M  V30 7057 H 685.131 3.50732 -1.26655 0
M  V30 7058 N 687.317 1.12792 1.10072 0
M  V30 7059 C 688.565 0.883796 1.81751 0
M  V30 7060 C 688.886 -0.591891 1.858 0
M  V30 7061 O 688.156 -1.43017 1.33876 0
M  V30 7062 H 686.736 0.323978 0.673088 0
M  V30 7063 H 689.398 1.42314 1.33164 0
M  V30 7064 H 688.494 1.26863 2.85153 0
M  V30 7065 N 688.795 -1.27931 0.920396 0
M  V30 7066 C 690.206 -1.76707 0.602616 0
M  V30 7067 C 690.557 -1.75249 -0.882159 0
M  V30 7068 O 689.682 -1.35135 -1.69019 0
M  V30 7069 C 690.277 -3.20884 1.08714 0
M  V30 7070 C 688.836 -3.67356 0.820157 0
M  V30 7071 C 687.983 -2.47525 1.25006 0
M  V30 7072 H 690.934 -1.14301 1.10095 0
M  V30 7073 H 690.955 -3.78045 0.431535 0
M  V30 7074 H 690.467 -3.21913 2.1678 0
M  V30 7075 H 688.568 -3.7178 -0.247012 0
M  V30 7076 H 688.681 -4.57181 1.43257 0
M  V30 7077 H 687.045 -2.45765 0.668698 0
M  V30 7078 H 687.828 -2.51269 2.3392 0
M  V30 7079 N 690.273 -0.685099 -1.4193 0
M  V30 7080 C 691.501 -0.220372 -2.05723 0
M  V30 7081 C 691.916 1.12642 -1.51516 0
M  V30 7082 O 691.273 1.70182 -0.659114 0
M  V30 7083 C 691.324 -0.157974 -3.61155 0
M  V30 7084 O 691.045 -1.45156 -4.13354 0
M  V30 7085 C 692.546 0.329009 -4.42077 0
M  V30 7086 H 689.766 -0.104725 -0.662777 0
M  V30 7087 H 692.31 -0.934736 -1.81887 0
M  V30 7088 H 690.465 0.507144 -3.84066 0
M  V30 7089 H 690.879 -1.33172 -5.07312 0
M  V30 7090 H 692.353 0.321559 -5.51063 0
M  V30 7091 H 692.83 1.36608 -4.17414 0
M  V30 7092 H 693.436 -0.304737 -4.24207 0
M  V30 7093 N 691.751 1.51645 -0.429126 0
M  V30 7094 C 693.167 1.59394 -0.080994 0
M  V30 7095 C 693.367 1.44064 1.40882 0
M  V30 7096 O 692.423 1.27771 2.17786 0
M  V30 7097 C 693.736 2.94779 -0.593773 0
M  V30 7098 C 695.284 3.08067 -0.553494 0
M  V30 7099 C 695.759 4.45963 -1.04311 0
M  V30 7100 N 697.25 4.5226 -1.00076 0
M  V30 7101 C 697.985 5.57268 -1.35056 0
M  V30 7102 N 697.481 6.69734 -1.77282 0
M  V30 7103 N 699.274 5.47582 -1.26925 0
M  V30 7104 H 691.425 1.59856 -1.39857 0
M  V30 7105 H 693.688 0.753095 -0.575805 0
M  V30 7106 H 693.394 3.11342 -1.63583 0
M  V30 7107 H 693.268 3.77197 -0.0142202 0
M  V30 7108 H 695.655 2.91177 0.479556 0
M  V30 7109 H 695.736 2.27508 -1.16935 0
M  V30 7110 H 695.38 4.63598 -2.07459 0
M  V30 7111 H 695.31 5.25049 -0.403873 0
M  V30 7112 H 697.801 3.71537 -0.690564 0
M  V30 7113 H 698.114 7.4587 -2.02232 0
M  V30 7114 H 696.459 6.70963 -1.81202 0
M  V30 7115 H 699.65 4.58604 -0.93809 0
M  V30 7116 H 699.823 6.29308 -1.54516 0
M  V30 7117 N 693.229 0.160201 1.56784 0
M  V30 7118 C 694.162 -0.812797 2.13234 0
M  V30 7119 C 695.14 -1.2335 1.05942 0
M  V30 7120 O 696.324 -1.32725 1.33852 0
M  V30 7121 C 693.451 -2.09311 2.66283 0
M  V30 7122 C 692.497 -1.8173 3.85845 0
M  V30 7123 S 693.33 -0.996473 5.26147 0
M  V30 7124 C 694.486 -2.28769 5.82594 0
M  V30 7125 H 694.719 -0.332794 2.95432 0
M  V30 7126 H 692.252 -0.0542971 1.54304 0
M  V30 7127 H 694.21 -2.82854 2.97496 0
M  V30 7128 H 692.871 -2.54425 1.84192 0
M  V30 7129 H 692.064 -2.76699 4.21253 0
M  V30 7130 H 691.666 -1.16289 3.55462 0
M  V30 7131 H 693.958 -3.24319 5.9483 0
M  V30 7132 H 694.901 -1.97846 6.79899 0
M  V30 7133 H 695.309 -2.40021 5.10931 0
M  V30 7134 N 694.707 -1.5719 -0.113559 0
M  V30 7135 C 695.67 -1.99796 -1.12314 0
M  V30 7136 C 696.67 -0.888847 -1.34001 0
M  V30 7137 O 697.86 -1.15476 -1.30426 0
M  V30 7138 C 694.992 -2.34279 -2.47641 0
M  V30 7139 H 696.185 -2.90193 -0.756825 0
M  V30 7140 H 693.738 -1.52144 -0.358029 0
M  V30 7141 H 694.473 -1.46778 -2.89183 0
M  V30 7142 H 694.258 -3.15175 -2.33253 0
M  V30 7143 H 695.748 -2.67963 -3.2029 0
M  V30 7144 N 696.185 0.383891 -1.52853 0
M  V30 7145 C 697.413 1.1495 -1.7203 0
M  V30 7146 C 697.828 1.83578 -0.440957 0
M  V30 7147 O 697.185 1.72872 0.584925 0
M  V30 7148 C 697.236 2.19368 -2.87333 0
M  V30 7149 O 696.957 1.53536 -4.10315 0
M  V30 7150 C 698.458 3.08616 -3.18231 0
M  V30 7151 H 695.678 0.344445 -0.575846 0
M  V30 7152 H 698.222 0.448397 -1.99524 0
M  V30 7153 H 696.377 2.85105 -2.62286 0
M  V30 7154 H 696.791 2.2296 -4.74752 0
M  V30 7155 H 698.265 3.77902 -4.02361 0
M  V30 7156 H 698.742 3.72409 -2.32826 0
M  V30 7157 H 699.348 2.48518 -3.45136 0
M  V30 7158 N 697.663 1.43903 0.642637 0
M  V30 7159 C 698.626 1.49538 1.73698 0
M  V30 7160 C 699.626 0.378776 1.56275 0
M  V30 7161 O 700.816 0.64095 1.6198 0
M  V30 7162 C 697.948 1.35821 3.12675 0
M  V30 7163 H 699.141 2.47008 1.70079 0
M  V30 7164 H 696.694 1.30824 0.85526 0
M  V30 7165 H 697.429 0.393994 3.21898 0
M  V30 7166 H 697.214 2.16776 3.26727 0
M  V30 7167 H 698.704 1.4272 3.92455 0
M  V30 7168 N 699.141 -0.881989 1.30609 0
M  V30 7169 C 700.387 -1.63647 1.19781 0
M  V30 7170 C 700.72 -1.92632 -0.246265 0
M  V30 7171 O 699.995 -1.54938 -1.17577 0
M  V30 7172 C 700.278 -2.97437 2.02985 0
M  V30 7173 C 700.131 -2.75406 3.55628 0
M  V30 7174 C 701.45 -3.98397 1.86997 0
M  V30 7175 H 698.569 -0.593841 0.436488 0
M  V30 7176 H 701.211 -1.02041 1.60273 0
M  V30 7177 H 699.361 -3.50018 1.68581 0
M  V30 7178 H 701.033 -2.2959 4.00107 0
M  V30 7179 H 699.276 -2.09856 3.79662 0
M  V30 7180 H 699.947 -3.70552 4.09139 0
M  V30 7181 H 702.423 -3.54986 2.17081 0
M  V30 7182 H 701.299 -4.89916 2.47536 0
M  V30 7183 H 701.56 -4.3424 0.829943 0
M  V30 7184 N 700.619 -1.13374 -1.09472 0
M  V30 7185 C 701.582 -0.813639 -2.14272 0
M  V30 7186 C 702.582 0.176677 -1.59826 0
M  V30 7187 O 703.772 -0.0503441 -1.74127 0
M  V30 7188 C 700.904 -0.210897 -3.40247 0
M  V30 7189 H 702.097 -1.74229 -2.44099 0
M  V30 7190 H 699.65 -0.938304 -1.25002 0
M  V30 7191 H 700.385 0.726998 -3.16046 0
M  V30 7192 H 700.17 -0.924048 -3.81056 0
M  V30 7193 H 701.66 -0.00377603 -4.176 0
M  V30 7194 N 702.098 1.27442 -0.927168 0
M  V30 7195 C 703.514 1.46754 -0.627329 0
M  V30 7196 C 703.714 1.83902 0.823549 0
M  V30 7197 O 702.77 1.95215 1.60148 0
M  V30 7198 C 704.083 2.56045 -1.57674 0
M  V30 7199 C 705.631 2.69906 -1.58491 0
M  V30 7200 C 706.106 3.82355 -2.52128 0
M  V30 7201 N 707.597 3.89728 -2.50332 0
M  V30 7202 C 708.332 4.76155 -3.19475 0
M  V30 7203 N 707.828 5.67073 -3.97995 0
M  V30 7204 N 709.621 4.6988 -3.08496 0
M  V30 7205 H 701.772 1.01613 -1.86517 0
M  V30 7206 H 704.035 0.507443 -0.800753 0
M  V30 7207 H 703.741 2.35542 -2.61176 0
M  V30 7208 H 703.615 3.53423 -1.31804 0
M  V30 7209 H 706.002 2.89792 -0.557208 0
M  V30 7210 H 706.083 1.73018 -1.8841 0
M  V30 7211 H 705.727 3.63224 -3.55008 0
M  V30 7212 H 705.657 4.7867 -2.19505 0
M  V30 7213 H 708.148 3.24717 -1.93306 0
M  V30 7214 H 708.461 6.2988 -4.4774 0
M  V30 7215 H 706.806 5.6687 -4.02098 0
M  V30 7216 H 709.997 3.97848 -2.46646 0
M  V30 7217 H 710.17 5.37017 -3.62652 0
M  V30 7218 N 703.576 0.692616 1.41565 0
M  V30 7219 C 704.816 0.226453 2.03142 0
M  V30 7220 C 705.18 -1.1512 1.5366 0
M  V30 7221 O 706.381 -1.71305 2.07143 0
M  V30 7222 C 704.652 0.27855 3.56313 0
M  V30 7223 S 706.211 -0.114001 4.38652 0
M  V30 7224 H 703.029 0.0914767 0.705091 0
M  V30 7225 H 705.631 0.909737 1.73043 0
M  V30 7226 H 704.335 1.28325 3.89821 0
M  V30 7227 H 703.866 -0.423981 3.91109 0
M  V30 7228 H 705.881 -1.34256 4.77692 0
M  V30 7229 N 705.054 -1.51416 0.437162 0
M  V30 7230 C 706.017 -2.26312 -0.362729 0
M  V30 7231 C 707.017 -1.29748 -0.949847 0
M  V30 7232 O 708.207 -1.53462 -0.824325 0
M  V30 7233 C 705.339 -3.05475 -1.5132 0
M  V30 7234 H 706.532 -2.98459 0.29365 0
M  V30 7235 H 704.085 -1.55137 0.190327 0
M  V30 7236 H 704.82 -2.37744 -2.20563 0
M  V30 7237 H 704.605 -3.76401 -1.09838 0
M  V30 7238 H 706.095 -3.62209 -2.07833 0
M  V30 7239 N 706.532 -0.168513 -1.56696 0
M  V30 7240 C 707.943 0.348694 -1.83415 0
M  V30 7241 C 708.294 1.63257 -1.0882 0
M  V30 7242 O 707.419 2.13707 -0.340333 0
M  V30 7243 C 708.014 0.639423 -3.32711 0
M  V30 7244 C 706.573 1.10108 -3.59935 0
M  V30 7245 C 705.72 0.135464 -2.76969 0
M  V30 7246 H 708.671 -0.392829 -1.53761 0
M  V30 7247 H 708.692 1.49179 -3.50037 0
M  V30 7248 H 708.204 -0.295173 -3.86976 0
M  V30 7249 H 706.305 2.05088 -3.11079 0
M  V30 7250 H 706.418 1.01218 -4.68286 0
M  V30 7251 H 704.782 0.632286 -2.46727 0
M  V30 7252 H 705.565 -0.793104 -3.34013 0
M  V30 7253 N 708.01 1.57248 0.105221 0
M  V30 7254 C 709.287 1.76566 0.841647 0
M  V30 7255 C 709.667 0.747566 1.9742 0
M  V30 7256 O 709.015 -0.225886 2.27381 0
M  V30 7257 C 709.225 3.22016 1.3456 0
M  V30 7258 C 710.573 3.84911 1.79244 0
M  V30 7259 O 711.597 3.25703 1.44207 0
M  V30 7260 O 710.456 4.89008 2.43995 0
M  V30 7261 H 707.55 0.723443 0.400698 0
M  V30 7262 H 710.096 1.69472 0.0878893 0
M  V30 7263 H 708.868 3.87644 0.533685 0
M  V30 7264 H 708.491 3.33703 2.16167 0
M  V30 7265 N 709.488 -0.375779 1.53054 0
M  V30 7266 C 710.398 -1.48381 1.81715 0
M  V30 7267 C 711.414 -1.59087 0.704795 0
M  V30 7268 O 712.59 -1.75174 0.993785 0
M  V30 7269 C 709.655 -2.83767 1.99192 0
M  V30 7270 C 708.716 -2.82673 3.23102 0
M  V30 7271 C 707.949 -4.11601 3.39736 0
M  V30 7272 O 708.172 -5.07243 2.60885 0
M  V30 7273 O 707.106 -4.18034 4.33049 0
M  V30 7274 H 710.932 -1.27089 2.7583 0
M  V30 7275 H 708.517 -0.564902 1.38308 0
M  V30 7276 H 710.399 -3.64004 2.12318 0
M  V30 7277 H 709.074 -3.05057 1.08267 0
M  V30 7278 H 707.981 -2.0117 3.15407 0
M  V30 7279 H 709.314 -2.66335 4.13916 0
M  V30 7280 N 710.966 -1.44241 -0.634997 0
M  V30 7281 C 711.876 -1.53293 -1.77591 0
M  V30 7282 C 712.892 -0.418831 -1.68884 0
M  V30 7283 O 714.068 -0.675619 -1.8973 0
M  V30 7284 C 711.133 -1.47075 -3.13958 0
M  V30 7285 C 710.194 -2.69304 -3.34326 0
M  V30 7286 C 709.427 -2.63374 -4.64187 0
M  V30 7287 O 709.65 -1.69161 -5.44739 0
M  V30 7288 O 708.584 -3.54166 -4.86673 0
M  V30 7289 H 712.41 -2.49673 -1.72908 0
M  V30 7290 H 709.995 -1.26445 -0.795745 0
M  V30 7291 H 711.877 -1.46117 -3.95257 0
M  V30 7292 H 710.552 -0.538373 -3.19192 0
M  V30 7293 H 709.459 -2.75831 -2.52721 0
M  V30 7294 H 710.792 -3.61576 -3.33951 0
M  V30 7295 N 712.444 0.87505 -1.31075 0
M  V30 7296 C 713.374 1.99775 -1.20881 0
M  V30 7297 C 714.355 1.69822 -0.0971612 0
M  V30 7298 O 715.54 1.92158 -0.280895 0
M  V30 7299 C 712.67 3.35163 -0.910118 0
M  V30 7300 C 711.624 3.79406 -1.98078 0
M  V30 7301 C 710.95 5.12197 -1.53488 0
M  V30 7302 C 712.25 3.97061 -3.39323 0
M  V30 7303 H 713.944 2.08562 -2.14808 0
M  V30 7304 H 711.49 1.00207 -1.03415 0
M  V30 7305 H 713.443 4.13237 -0.825423 0
M  V30 7306 H 712.167 3.26536 0.064822 0
M  V30 7307 H 710.826 3.03568 -2.05528 0
M  V30 7308 H 710.474 5.00007 -0.547941 0
M  V30 7309 H 710.174 5.4277 -2.2511 0
M  V30 7310 H 711.698 5.92785 -1.46417 0
M  V30 7311 H 713.112 4.65545 -3.34576 0
M  V30 7312 H 711.509 4.39025 -4.09118 0
M  V30 7313 H 712.579 3.00601 -3.80483 0
M  V30 7314 N 713.922 1.13953 1.08869 0
M  V30 7315 C 714.852 0.844824 2.17681 0
M  V30 7316 C 715.833 -0.198213 1.68941 0
M  V30 7317 O 717.018 -0.0559073 1.9412 0
M  V30 7318 C 714.148 0.316325 3.45856 0
M  V30 7319 C 713.102 1.29426 4.07962 0
M  V30 7320 C 712.428 0.625275 5.31031 0
M  V30 7321 C 713.728 2.65484 4.49795 0
M  V30 7322 H 715.422 1.75471 2.42591 0
M  V30 7323 H 712.968 0.845116 1.16592 0
M  V30 7324 H 714.921 0.0977876 4.21287 0
M  V30 7325 H 713.645 -0.628972 3.20486 0
M  V30 7326 H 712.304 1.49889 3.34558 0
M  V30 7327 H 711.952 -0.325678 5.01945 0
M  V30 7328 H 711.652 1.27777 5.73539 0
M  V30 7329 H 713.176 0.416152 6.0918 0
M  V30 7330 H 714.59 2.48957 5.16424 0
M  V30 7331 H 712.987 3.26963 5.03205 0
M  V30 7332 H 714.057 3.22717 3.61914 0
M  V30 7333 N 715.4 -1.26948 0.933913 0
M  V30 7334 C 716.625 -1.98724 0.593589 0
M  V30 7335 C 717.05 -1.6915 -0.822801 0
M  V30 7336 O 716.408 -0.93533 -1.5531 0
M  V30 7337 C 716.456 -3.50834 0.833542 0
M  V30 7338 O 715.56 -4.12284 -0.0978788 0
M  V30 7339 H 714.901 -0.623683 0.227849 0
M  V30 7340 H 717.431 -1.61599 1.25486 0
M  V30 7341 H 717.441 -4.01018 0.75156 0
M  V30 7342 H 716.116 -3.71691 1.86597 0
M  V30 7343 H 714.693 -3.72884 0.0345443 0
M  V30 7344 N 716.879 -0.700114 -1.41195 0
M  V30 7345 C 718.119 -0.237223 -2.03019 0
M  V30 7346 C 718.483 1.14304 -1.54268 0
M  V30 7347 O 719.684 1.70204 -2.08048 0
M  V30 7348 C 717.955 -0.297442 -3.5616 0
M  V30 7349 S 719.514 0.0907367 -4.38706 0
M  V30 7350 H 716.332 -0.0952147 -0.704596 0
M  V30 7351 H 718.934 -0.918901 -1.72559 0
M  V30 7352 H 717.638 -1.30391 -3.89135 0
M  V30 7353 H 717.169 0.403233 -3.91328 0
M  V30 7354 H 719.184 1.31721 -4.78397 0
M  V30 7355 N 718.357 1.51182 -0.445186 0
M  V30 7356 C 719.582 2.07056 0.119445 0
M  V30 7357 C 720.007 1.30966 1.35016 0
M  V30 7358 O 719.365 0.349827 1.77893 0
M  V30 7359 C 719.413 3.58234 0.412428 0
M  V30 7360 O 718.517 3.84249 1.49754 0
M  V30 7361 H 717.858 0.663998 -0.00157797 0
M  V30 7362 H 720.388 1.94699 -0.628779 0
M  V30 7363 H 720.398 4.02617 0.660583 0
M  V30 7364 H 719.073 4.13038 -0.487049 0
M  V30 7365 H 717.65 3.51724 1.23873 0
M  V30 7366 N 719.835 0.176821 1.56605 0
M  V30 7367 C 721.06 -0.47599 2.01864 0
M  V30 7368 C 721.485 -1.55645 1.05623 0
M  V30 7369 O 720.843 -1.81263 0.0366729 0
M  V30 7370 C 720.891 -1.02619 3.4569 0
M  V30 7371 O 719.995 -2.13996 3.52533 0
M  V30 7372 H 719.336 -0.113363 0.654251 0
M  V30 7373 H 721.866 0.28233 2.02643 0
M  V30 7374 H 721.876 -1.34742 3.85109 0
M  V30 7375 H 720.551 -0.235138 4.15235 0
M  V30 7376 H 719.128 -1.82876 3.24978 0
M  V30 7377 N 721.313 -1.57302 -0.09688 0
M  V30 7378 C 722.56 -1.85997 -0.800699 0
M  V30 7379 C 722.888 -0.765089 -1.7882 0
M  V30 7380 O 722.143 0.241492 -1.94204 0
M  V30 7381 C 722.442 -3.21272 -1.56586 0
M  V30 7382 C 722.108 -4.45104 -0.72064 0
M  V30 7383 C 720.77 -4.78723 -0.487632 0
M  V30 7384 C 723.122 -5.2103 -0.132948 0
M  V30 7385 C 720.45 -5.85697 0.34296 0
M  V30 7386 C 722.802 -6.28881 0.684957 0
M  V30 7387 C 721.466 -6.61017 0.928073 0
M  V30 7388 H 720.736 -0.680613 -0.292997 0
M  V30 7389 H 723.383 -1.91399 -0.0622474 0
M  V30 7390 H 721.688 -3.11547 -2.37583 0
M  V30 7391 H 723.385 -3.40702 -2.11478 0
M  V30 7392 H 719.975 -4.18777 -0.912359 0
M  V30 7393 H 724.159 -4.95392 -0.300132 0
M  V30 7394 H 719.415 -6.09008 0.540317 0
M  V30 7395 H 723.589 -6.86886 1.14721 0
M  V30 7396 H 721.216 -7.43738 1.57348 0
M  V30 7397 N 722.791 0.367657 -1.53252 0
M  V30 7398 C 724.016 1.13566 -1.73544 0
M  V30 7399 C 724.441 1.82329 -0.462344 0
M  V30 7400 O 723.799 1.71655 0.583472 0
M  V30 7401 C 723.847 2.14322 -2.89997 0
M  V30 7402 O 722.951 3.21359 -2.58461 0
M  V30 7403 H 722.292 0.329614 -0.576412 0
M  V30 7404 H 724.822 0.425417 -2.00128 0
M  V30 7405 H 724.832 2.57958 -3.16104 0
M  V30 7406 H 723.507 1.63664 -3.82344 0
M  V30 7407 H 722.084 2.8271 -2.43165 0
M  V30 7408 N 724.269 1.44576 0.627338 0
M  V30 7409 C 725.685 1.28546 0.945938 0
M  V30 7410 C 725.885 0.224003 2.00251 0
M  V30 7411 O 724.941 -0.388817 2.49488 0
M  V30 7412 C 726.254 2.65825 1.40561 0
M  V30 7413 C 727.802 2.73566 1.52088 0
M  V30 7414 C 728.277 4.11323 2.01438 0
M  V30 7415 N 729.768 4.13519 2.08702 0
M  V30 7416 C 730.503 5.16964 2.48065 0
M  V30 7417 N 729.999 6.30768 2.86538 0
M  V30 7418 N 731.792 5.04319 2.48232 0
M  V30 7419 H 723.943 2.1228 -0.0713567 0
M  V30 7420 H 726.206 0.947503 0.0307081 0
M  V30 7421 H 725.912 3.44591 0.703539 0
M  V30 7422 H 725.786 2.92969 2.37591 0
M  V30 7423 H 728.173 1.95116 2.21391 0
M  V30 7424 H 728.254 2.50159 0.534237 0
M  V30 7425 H 727.898 4.9025 1.32729 0
M  V30 7426 H 727.828 4.32109 3.0098 0
M  V30 7427 H 730.319 3.31385 1.81638 0
M  V30 7428 H 730.632 7.0551 3.15398 0
M  V30 7429 H 728.977 6.342 2.84281 0
M  V30 7430 H 732.168 4.14465 2.17569 0
M  V30 7431 H 732.341 5.85059 2.78585 0
M  V30 7432 N 725.747 -0.868086 1.31537 0
M  V30 7433 C 726.972 -1.65926 1.24432 0
M  V30 7434 C 727.397 -1.87169 -0.186936 0
M  V30 7435 O 726.755 -1.4148 -1.13371 0
M  V30 7436 C 726.803 -3.00347 1.9956 0
M  V30 7437 O 725.907 -3.90221 1.33422 0
M  V30 7438 H 725.248 -0.506375 0.429512 0
M  V30 7439 H 727.778 -1.0822 1.73637 0
M  V30 7440 H 727.788 -3.50269 2.09226 0
M  V30 7441 H 726.463 -2.84205 3.03645 0
M  V30 7442 H 725.04 -3.48672 1.32219 0
M  V30 7443 N 727.225 -1.14528 -1.08264 0
M  V30 7444 C 728.473 -0.912599 -1.80322 0
M  V30 7445 C 728.794 0.562256 -1.86718 0
M  V30 7446 O 728.064 1.40869 -1.36135 0
M  V30 7447 H 726.644 -0.334645 -0.667849 0
M  V30 7448 H 729.306 -1.44415 -1.30883 0
M  V30 7449 H 728.402 -1.31384 -2.83098 0
M  V30 7450 N 728.703 1.26451 -0.940633 0
M  V30 7451 C 729.65 2.264 -0.448497 0
M  V30 7452 C 730.62 1.5866 0.491546 0
M  V30 7453 O 731.805 1.86389 0.407874 0
M  V30 7454 C 728.945 3.43956 0.280715 0
M  V30 7455 C 728.058 4.26374 -0.694937 0
M  V30 7456 C 727.193 5.31171 0.0554186 0
M  V30 7457 C 726.232 6.05266 -0.912091 0
M  V30 7458 N 725.369 7.01833 -0.193524 0
M  V30 7459 H 730.209 2.67869 -1.30576 0
M  V30 7460 H 727.746 1.31707 -0.655112 0
M  V30 7461 H 729.704 4.10941 0.71994 0
M  V30 7462 H 728.334 3.03403 1.10212 0
M  V30 7463 H 727.386 3.59183 -1.25267 0
M  V30 7464 H 728.698 4.77748 -1.43382 0
M  V30 7465 H 727.852 6.04166 0.553951 0
M  V30 7466 H 726.591 4.80634 0.827183 0
M  V30 7467 H 725.596 5.31099 -1.42175 0
M  V30 7468 H 726.821 6.57893 -1.68385 0
M  V30 7469 H 724.767 6.53607 0.559758 0
M  V30 7470 H 724.684 7.50957 -0.871744 0
M  V30 7471 H 725.952 7.78983 0.283932 0
M  V30 7472 N 730.181 0.707592 1.40822 0
M  V30 7473 C 731.597 0.38034 1.55002 0
M  V30 7474 C 731.797 -1.11163 1.68062 0
M  V30 7475 O 730.853 -1.89761 1.66574 0
M  V30 7476 C 732.166 1.1394 2.78277 0
M  V30 7477 C 733.714 1.12492 2.92087 0
M  V30 7478 C 734.189 1.86597 4.18265 0
M  V30 7479 N 735.68 1.83626 4.25248 0
M  V30 7480 C 736.415 2.37794 5.21768 0
M  V30 7481 N 735.911 3.00485 6.24244 0
M  V30 7482 N 737.704 2.27982 5.13791 0
M  V30 7483 H 729.855 1.67511 1.3059 0
M  V30 7484 H 732.118 0.707579 0.630901 0
M  V30 7485 H 731.824 2.19398 2.74877 0
M  V30 7486 H 731.698 0.725793 3.70151 0
M  V30 7487 H 734.085 0.0785564 2.94995 0
M  V30 7488 H 734.166 1.57768 2.01353 0
M  V30 7489 H 733.81 2.91219 4.16118 0
M  V30 7490 H 733.74 1.38746 5.07993 0
M  V30 7491 H 736.231 1.3793 3.51829 0
M  V30 7492 H 736.544 3.39355 6.94304 0
M  V30 7493 H 734.889 3.04567 6.24711 0
M  V30 7494 H 738.08 1.78669 4.3266 0
M  V30 7495 H 738.253 2.70499 5.88841 0
M  V30 7496 N 731.66 -1.50943 0.453197 0
M  V30 7497 C 733.076 -1.59245 0.106342 0
M  V30 7498 C 733.276 -1.46287 -1.38572 0
M  V30 7499 O 732.332 -1.31219 -2.15726 0
M  V30 7500 C 733.645 -2.93797 0.640595 0
M  V30 7501 C 735.193 -3.07148 0.602435 0
M  V30 7502 C 735.668 -4.44247 1.11393 0
M  V30 7503 N 737.159 -4.50611 1.07258 0
M  V30 7504 C 737.894 -5.55049 1.43905 0
M  V30 7505 N 737.39 -6.66828 1.87914 0
M  V30 7506 N 739.183 -5.45494 1.35621 0
M  V30 7507 H 731.334 -1.5761 1.42382 0
M  V30 7508 H 733.597 -0.74384 0.587713 0
M  V30 7509 H 733.303 -3.087 1.68515 0
M  V30 7510 H 733.177 -3.77127 0.0742272 0
M  V30 7511 H 735.564 -2.91903 -0.433171 0
M  V30 7512 H 735.645 -2.25619 1.20539 0
M  V30 7513 H 735.289 -4.60239 2.14808 0
M  V30 7514 H 735.219 -5.2434 0.487353 0
M  V30 7515 H 737.71 -3.70391 0.749585 0
M  V30 7516 H 738.023 -7.42558 2.14072 0
M  V30 7517 H 736.368 -6.67995 1.91853 0
M  V30 7518 H 739.559 -4.57053 1.01093 0
M  V30 7519 H 739.732 -6.2677 1.64508 0
M  V30 7520 N 733.138 -0.185124 -1.56509 0
M  V30 7521 C 734.386 0.455357 -1.96903 0
M  V30 7522 C 734.707 1.62839 -1.07277 0
M  V30 7523 O 733.977 1.95385 -0.141966 0
M  V30 7524 H 732.557 0.171218 -0.727113 0
M  V30 7525 H 735.219 -0.26953 -1.93027 0
M  V30 7526 H 734.315 0.80616 -3.01509 0
M  V30 7527 N 734.616 1.57351 0.0885366 0
M  V30 7528 C 735.526 2.05858 1.12516 0
M  V30 7529 C 736.542 0.984758 1.43452 0
M  V30 7530 O 737.718 1.29836 1.53963 0
M  V30 7531 C 734.783 2.47882 2.42395 0
M  V30 7532 C 733.844 3.69487 2.18582 0
M  V30 7533 C 733.077 4.09497 3.42268 0
M  V30 7534 O 733.3 3.49536 4.50755 0
M  V30 7535 O 732.234 5.02406 3.31469 0
M  V30 7536 H 736.06 2.94467 0.743146 0
M  V30 7537 H 733.645 1.46326 0.301507 0
M  V30 7538 H 735.527 2.75509 3.18862 0
M  V30 7539 H 734.202 1.62408 2.8001 0
M  V30 7540 H 733.109 3.46967 1.39875 0
M  V30 7541 H 734.442 4.55761 1.85857 0
M  V30 7542 N 736.094 -0.359525 1.53444 0
M  V30 7543 C 737.51 -0.701599 1.43352 0
M  V30 7544 C 737.71 -1.93049 0.577439 0
M  V30 7545 O 736.766 -2.52423 0.0622224 0
M  V30 7546 C 738.079 -0.90915 2.86627 0
M  V30 7547 C 739.627 -1.00878 2.96298 0
M  V30 7548 C 740.102 -1.24876 4.40647 0
M  V30 7549 N 741.593 -1.31632 4.44103 0
M  V30 7550 C 742.328 -1.51922 5.52908 0
M  V30 7551 N 741.824 -1.69489 6.71748 0
M  V30 7552 N 743.617 -1.54341 5.40496 0
M  V30 7553 H 735.768 0.448685 2.07607 0
M  V30 7554 H 738.031 0.138713 0.937797 0
M  V30 7555 H 737.737 -0.0778997 3.51614 0
M  V30 7556 H 737.611 -1.81551 3.30634 0
M  V30 7557 H 739.998 -1.83057 2.31461 0
M  V30 7558 H 740.079 -0.0796721 2.55676 0
M  V30 7559 H 739.723 -0.431961 5.0606 0
M  V30 7560 H 739.653 -2.19118 4.78848 0
M  V30 7561 H 742.144 -1.19646 3.5846 0
M  V30 7562 H 742.457 -1.84561 7.50438 0
M  V30 7563 H 740.802 -1.66655 6.74723 0
M  V30 7564 H 743.993 -1.40188 4.46615 0
M  V30 7565 H 744.166 -1.69812 6.25354 0
M  V30 7566 N 737.572 -1.44907 -0.619662 0
M  V30 7567 C 738.505 -1.47133 -1.74434 0
M  V30 7568 C 739.483 -0.328933 -1.59238 0
M  V30 7569 O 740.667 -0.527632 -1.80965 0
M  V30 7570 C 737.794 -1.31491 -3.12134 0
M  V30 7571 C 736.84 -2.49441 -3.4595 0
M  V30 7572 S 737.673 -4.11945 -3.42142 0
M  V30 7573 C 738.829 -3.98747 -4.82443 0
M  V30 7574 H 739.062 -2.42295 -1.7228 0
M  V30 7575 H 736.595 -1.32343 -0.795276 0
M  V30 7576 H 738.553 -1.23153 -3.91591 0
M  V30 7577 H 737.214 -0.378203 -3.11815 0
M  V30 7578 H 736.407 -2.3439 -4.46181 0
M  V30 7579 H 736.009 -2.54577 -2.73982 0
M  V30 7580 H 738.301 -3.63145 -5.71954 0
M  V30 7581 H 739.244 -4.98848 -5.0255 0
M  V30 7582 H 739.652 -3.30608 -4.57557 0
M  V30 7583 N 739.05 0.861098 -1.31996 0
M  V30 7584 C 739.96 2.00154 -1.22374 0
M  V30 7585 C 740.976 1.73447 -0.138631 0
M  V30 7586 O 742.152 1.98191 -0.358104 0
M  V30 7587 C 739.217 3.33696 -0.940645 0
M  V30 7588 C 738.278 3.73668 -2.11355 0
M  V30 7589 C 737.511 5.00837 -1.84386 0
M  V30 7590 O 737.734 5.64996 -0.783287 0
M  V30 7591 O 736.668 5.37787 -2.70313 0
M  V30 7592 H 740.494 2.11207 -2.18233 0
M  V30 7593 H 738.079 0.990768 -1.11822 0
M  V30 7594 H 739.961 4.13756 -0.798987 0
M  V30 7595 H 738.636 3.23698 -0.0121636 0
M  V30 7596 H 737.543 2.94211 -2.31065 0
M  V30 7597 H 738.876 3.88303 -3.02459 0
M  V30 7598 N 740.528 1.15101 1.07655 0
M  V30 7599 C 741.491 0.847625 2.12951 0
M  V30 7600 C 742.491 -0.151227 1.60087 0
M  V30 7601 O 743.681 0.0780399 1.74025 0
M  V30 7602 C 740.813 0.265 3.39868 0
M  V30 7603 H 742.006 1.7809 2.41296 0
M  V30 7604 H 739.559 0.958072 1.23494 0
M  V30 7605 H 740.294 -0.676625 3.17163 0
M  V30 7606 H 740.079 0.984554 3.79538 0
M  V30 7607 H 741.569 0.0702121 4.17541 0
M  V30 7608 N 742.006 -1.2595 0.947325 0
M  V30 7609 C 742.938 -2.25336 0.41906 0
M  V30 7610 C 743.951 -1.56135 -0.461051 0
M  V30 7611 O 745.14 -1.76438 -0.270505 0
M  V30 7612 C 742.24 -3.36334 -0.416233 0
M  V30 7613 C 741.413 -4.35088 0.449162 0
M  V30 7614 C 740.472 -5.25185 -0.326716 0
M  V30 7615 O 739.498 -5.68548 0.272374 0
M  V30 7616 N 740.7 -5.57388 -1.6217 0
M  V30 7617 H 743.465 -2.71298 1.27348 0
M  V30 7618 H 741.026 -1.39781 0.81688 0
M  V30 7619 H 743.018 -3.93564 -0.942826 0
M  V30 7620 H 741.588 -2.89819 -1.17148 0
M  V30 7621 H 740.808 -3.76841 1.15692 0
M  V30 7622 H 742.096 -4.98056 1.04008 0
M  V30 7623 H 741.494 -5.2405 -2.13046 0
M  V30 7624 H 740.051 -6.17234 -2.0944 0
M  V30 7625 N 743.484 -0.715051 -1.40445 0
M  V30 7626 C 744.732 -0.253826 -2.005 0
M  V30 7627 C 745.053 1.15681 -1.5698 0
M  V30 7628 O 744.323 1.78414 -0.809027 0
M  V30 7629 H 742.903 -0.0908537 -0.741454 0
M  V30 7630 H 745.565 -0.920561 -1.7179 0
M  V30 7631 H 744.661 -0.286499 -3.10782 0
M  V30 7632 N 744.962 1.50701 -0.461195 0
M  V30 7633 C 746.21 2.01867 0.0970051 0
M  V30 7634 C 746.531 1.34591 1.41104 0
M  V30 7635 O 745.801 0.488041 1.89723 0
M  V30 7636 H 744.381 0.74599 0.0388392 0
M  V30 7637 H 747.043 1.85129 -0.609357 0
M  V30 7638 H 746.139 3.11051 0.255688 0
M  V30 7639 N 746.441 0.193421 1.56409 0
M  V30 7640 C 747.388 -0.728124 2.19014 0
M  V30 7641 C 748.358 -1.21098 1.13686 0
M  V30 7642 O 749.543 -1.27517 1.4193 0
M  V30 7643 C 746.683 -1.94277 2.8522 0
M  V30 7644 C 745.796 -1.50143 4.05069 0
M  V30 7645 C 744.931 -2.67145 4.59137 0
M  V30 7646 C 743.97 -2.19609 5.71348 0
M  V30 7647 N 743.107 -3.29782 6.19829 0
M  V30 7648 H 747.947 -0.187499 2.9741 0
M  V30 7649 H 745.484 -0.0808064 1.46878 0
M  V30 7650 H 747.442 -2.65551 3.21774 0
M  V30 7651 H 746.072 -2.45673 2.09391 0
M  V30 7652 H 745.124 -0.684624 3.74189 0
M  V30 7653 H 746.436 -1.11266 4.86232 0
M  V30 7654 H 745.59 -3.46544 4.97988 0
M  V30 7655 H 744.329 -3.09295 3.77078 0
M  V30 7656 H 743.334 -1.38664 5.32027 0
M  V30 7657 H 744.559 -1.78492 6.55223 0
M  V30 7658 H 742.505 -3.71466 5.40693 0
M  V30 7659 H 742.422 -2.95069 6.96039 0
M  V30 7660 H 743.69 -4.094 6.63334 0
M  V30 7661 N 747.919 -1.57396 -0.0801906 0
M  V30 7662 C 748.849 -2.06145 -1.09665 0
M  V30 7663 C 749.83 -0.953273 -1.40878 0
M  V30 7664 O 751.015 -1.22548 -1.50651 0
M  V30 7665 C 748.145 -2.49836 -2.41245 0
M  V30 7666 C 747.099 -3.64454 -2.24405 0
M  V30 7667 C 746.425 -3.94172 -3.61293 0
M  V30 7668 C 747.725 -4.94807 -1.67223 0
M  V30 7669 H 749.419 -2.91316 -0.691028 0
M  V30 7670 H 746.965 -1.40145 -0.330957 0
M  V30 7671 H 748.918 -2.82552 -3.12638 0
M  V30 7672 H 747.642 -1.61683 -2.83771 0
M  V30 7673 H 746.301 -3.32008 -1.55454 0
M  V30 7674 H 745.949 -3.03163 -4.01374 0
M  V30 7675 H 745.649 -4.71345 -3.50867 0
M  V30 7676 H 747.173 -4.29376 -4.3413 0
M  V30 7677 H 748.587 -5.25807 -2.28472 0
M  V30 7678 H 746.984 -5.76245 -1.67515 0
M  V30 7679 H 748.054 -4.80751 -0.632944 0
M  V30 7680 N 749.397 0.351382 -1.53633 0
M  V30 7681 C 750.643 1.09411 -1.70754 0
M  V30 7682 C 750.976 1.88544 -0.465293 0
M  V30 7683 O 750.251 1.86923 0.537608 0
M  V30 7684 C 750.534 2.04173 -2.96623 0
M  V30 7685 C 750.387 1.28556 -4.31038 0
M  V30 7686 C 751.706 3.04102 -3.18136 0
M  V30 7687 H 748.825 0.396373 -0.621335 0
M  V30 7688 H 751.467 0.373464 -1.86293 0
M  V30 7689 H 749.617 2.65625 -2.83506 0
M  V30 7690 H 751.289 0.697786 -4.55992 0
M  V30 7691 H 749.532 0.587498 -4.29803 0
M  V30 7692 H 750.203 1.97989 -5.15271 0
M  V30 7693 H 752.679 2.5276 -3.30532 0
M  V30 7694 H 751.555 3.67616 -4.07615 0
M  V30 7695 H 751.816 3.75053 -2.34068 0
M  V30 7696 N 750.875 1.45233 0.611969 0
M  V30 7697 C 752.115 1.50558 1.38245 0
M  V30 7698 C 752.479 0.141959 1.91474 0
M  V30 7699 O 753.68 0.0698926 2.68709 0
M  V30 7700 C 751.951 2.55136 2.50281 0
M  V30 7701 S 753.51 2.79652 3.38142 0
M  V30 7702 H 750.328 0.532281 0.471378 0
M  V30 7703 H 752.93 1.82285 0.706578 0
M  V30 7704 H 751.634 3.52888 2.09518 0
M  V30 7705 H 751.165 2.25045 3.22674 0
M  V30 7706 H 753.18 2.12699 4.48301 0
M  V30 7707 N 752.353 -0.854086 1.3245 0
M  V30 7708 C 753.769 -1.14238 1.11453 0
M  V30 7709 C 753.969 -2.01228 -0.10461 0
M  V30 7710 O 753.025 -2.39845 -0.789339 0
M  V30 7711 C 754.338 -1.81916 2.39431 0
M  V30 7712 C 755.886 -1.94549 2.45193 0
M  V30 7713 C 756.361 -2.65642 3.73093 0
M  V30 7714 N 757.852 -2.73167 3.74078 0
M  V30 7715 C 758.587 -3.28828 4.69744 0
M  V30 7716 N 758.083 -3.85295 5.75778 0
M  V30 7717 N 759.876 -3.26936 4.57241 0
M  V30 7718 H 752.027 -0.274786 2.10615 0
M  V30 7719 H 754.29 -0.184375 0.929898 0
M  V30 7720 H 753.996 -1.25452 3.28565 0
M  V30 7721 H 753.87 -2.82068 2.50434 0
M  V30 7722 H 756.257 -2.50172 1.56518 0
M  V30 7723 H 756.338 -0.933914 2.38142 0
M  V30 7724 H 755.982 -2.10683 4.62142 0
M  V30 7725 H 755.912 -3.6724 3.77415 0
M  V30 7726 H 758.403 -2.33108 2.97438 0
M  V30 7727 H 758.716 -4.25925 6.44832 0
M  V30 7728 H 757.061 -3.83625 5.79531 0
M  V30 7729 H 760.252 -2.8207 3.7357 0
M  V30 7730 H 760.425 -3.70014 5.31971 0
M  V30 7731 N 753.831 -1.1567 -1.07043 0
M  V30 7732 C 754.794 -0.858906 -2.12498 0
M  V30 7733 C 755.794 0.142735 -1.60165 0
M  V30 7734 O 756.984 -0.0872678 -1.73981 0
M  V30 7735 C 754.116 -0.283021 -3.39723 0
M  V30 7736 H 755.309 -1.79368 -2.40348 0
M  V30 7737 H 752.862 -0.964608 -1.22984 0
M  V30 7738 H 753.597 0.659796 -3.17517 0
M  V30 7739 H 753.382 -1.00467 -3.7901 0
M  V30 7740 H 754.872 -0.0923543 -4.17498 0
M  V30 7741 N 755.309 1.25446 -0.953992 0
M  V30 7742 C 756.259 2.23627 -0.444413 0
M  V30 7743 C 757.243 1.54004 0.465993 0
M  V30 7744 O 758.435 1.74454 0.29915 0
M  V30 7745 C 755.564 3.42179 0.277175 0
M  V30 7746 C 754.65 4.1907 -0.651263 0
M  V30 7747 N 755.041 4.73346 -1.78262 0
M  V30 7748 C 753.339 4.43628 -0.459338 0
M  V30 7749 C 754.04 5.31576 -2.36224 0
M  V30 7750 N 753.016 5.17991 -1.64884 0
M  V30 7751 H 756.818 2.63197 -1.30785 0
M  V30 7752 H 754.332 1.40677 -0.811402 0
M  V30 7753 H 756.329 4.11653 0.659367 0
M  V30 7754 H 754.989 3.04134 1.13723 0
M  V30 7755 H 756 4.705 -2.1645 0
M  V30 7756 H 752.677 4.15963 0.357885 0
M  V30 7757 H 754.067 5.84361 -3.3162 0
M  V30 7758 N 756.787 0.722489 1.40064 0
M  V30 7759 C 757.735 0.063329 2.32514 0
M  V30 7760 C 758.729 -0.73953 1.52405 0
M  V30 7761 O 759.935 -0.642122 1.68157 0
M  V30 7762 H 756.31 0.00167692 0.751998 0
M  V30 7763 H 758.281 0.859656 2.85749 0
M  V30 7764 C 757.03 -0.839219 3.3742 0
M  V30 7765 H 756.353 -0.230836 3.99133 0
M  V30 7766 H 757.793 -1.26827 4.04587 0
M  V30 7767 C 756.252 -1.96783 2.73456 0
M  V30 7768 O 756.782 -3.05933 2.60323 0
M  V30 7769 N 754.988 -1.75351 2.31734 0
M  V30 7770 H 754.535 -0.865787 2.42615 0
M  V30 7771 H 754.493 -2.51043 1.89275 0
M  V30 7772 N 758.265 -1.50454 0.469181 0
M  V30 7773 C 759.228 -2.2703 -0.314643 0
M  V30 7774 C 760.228 -1.31734 -0.922111 0
M  V30 7775 O 761.418 -1.55176 -0.791588 0
M  V30 7776 C 758.55 -3.08616 -1.44806 0
M  V30 7777 H 759.743 -2.97769 0.356892 0
M  V30 7778 H 757.296 -1.54698 0.223191 0
M  V30 7779 H 758.031 -2.42369 -2.1547 0
M  V30 7780 H 757.816 -3.78647 -1.01829 0
M  V30 7781 H 759.306 -3.66536 -2.00103 0
M  V30 7782 N 759.743 -0.201713 -1.56304 0
M  V30 7783 C 760.99 0.435307 -1.97766 0
M  V30 7784 C 761.318 1.61169 -1.0888 0
M  V30 7785 O 760.573 1.95272 -0.12934 0
M  V30 7786 C 760.872 0.931432 -3.45049 0
M  V30 7787 C 760.538 -0.132287 -4.50706 0
M  V30 7788 C 759.2 -0.424552 -4.79323 0
M  V30 7789 C 761.552 -0.852703 -5.14177 0
M  V30 7790 C 758.88 -1.4421 -5.68701 0
M  V30 7791 C 761.232 -1.85944 -6.04655 0
M  V30 7792 C 759.896 -2.15884 -6.31625 0
M  V30 7793 H 759.166 0.15929 -0.723676 0
M  V30 7794 H 761.813 -0.300069 -1.89134 0
M  V30 7795 H 760.118 1.7452 -3.50785 0
M  V30 7796 H 761.815 1.43383 -3.74489 0
M  V30 7797 H 758.405 0.105671 -4.2847 0
M  V30 7798 H 762.589 -0.640139 -4.92154 0
M  V30 7799 H 757.845 -1.6799 -5.87869 0
M  V30 7800 H 762.019 -2.42286 -6.52894 0
M  V30 7801 H 759.646 -2.94875 -7.0068 0
M  V30 7802 N 761.222 1.57436 0.0718424 0
M  V30 7803 C 762.47 1.86878 0.769484 0
M  V30 7804 C 762.791 0.7937 1.78116 0
M  V30 7805 O 762.061 -0.177642 1.95093 0
M  V30 7806 H 760.641 0.689593 0.287177 0
M  V30 7807 H 763.303 1.94841 0.0479427 0
M  V30 7808 H 762.399 2.84387 1.28572 0
M  V30 7809 N 762.7 -0.34323 1.53817 0
M  V30 7810 C 763.948 -1.0813 1.70741 0
M  V30 7811 C 764.269 -1.89165 0.473461 0
M  V30 7812 O 763.539 -1.89075 -0.512605 0
M  V30 7813 H 762.119 -0.40219 0.629486 0
M  V30 7814 H 764.781 -0.384426 1.91071 0
M  V30 7815 H 763.877 -1.7585 2.57843 0
M  V30 7816 N 764.178 -1.45556 -0.604258 0
M  V30 7817 C 765.088 -1.57025 -1.74299 0
M  V30 7818 C 766.104 -0.45456 -1.67958 0
M  V30 7819 O 767.28 -0.715711 -1.88254 0
M  V30 7820 C 764.345 -1.53702 -3.10768 0
M  V30 7821 C 763.406 -2.76335 -3.28538 0
M  V30 7822 C 762.639 -2.73161 -4.58496 0
M  V30 7823 O 762.862 -1.80678 -5.41028 0
M  V30 7824 O 761.796 -3.64409 -4.79051 0
M  V30 7825 H 765.622 -2.53284 -1.67573 0
M  V30 7826 H 763.207 -1.28104 -0.768745 0
M  V30 7827 H 765.089 -1.54468 -3.92068 0
M  V30 7828 H 763.764 -0.605957 -3.17978 0
M  V30 7829 H 762.671 -2.8113 -2.46813 0
M  V30 7830 H 764.004 -3.68578 -3.26207 0
M  V30 7831 N 765.656 0.84705 -1.32902 0
M  V30 7832 C 766.904 1.5986 -1.2365 0
M  V30 7833 C 767.225 1.93974 0.199789 0
M  V30 7834 O 766.495 1.60273 1.12648 0
M  V30 7835 H 765.075 0.592696 -0.454665 0
M  V30 7836 H 767.737 1.01278 -1.66519 0
M  V30 7837 H 766.833 2.53218 -1.82448 0
M  V30 7838 N 767.134 1.16236 1.06428 0
M  V30 7839 C 768.38 0.944431 1.79467 0
M  V30 7840 C 768.713 -0.526558 1.86925 0
M  V30 7841 O 767.988 -1.39061 1.35986 0
M  V30 7842 C 768.271 1.57092 3.24028 0
M  V30 7843 C 768.124 3.11315 3.24658 0
M  V30 7844 C 769.443 1.26447 4.21544 0
M  V30 7845 H 766.562 0.344521 0.651517 0
M  V30 7846 H 769.204 1.43545 1.24478 0
M  V30 7847 H 767.354 1.15337 3.70985 0
M  V30 7848 H 769.026 3.62042 2.85873 0
M  V30 7849 H 767.269 3.44716 2.6335 0
M  V30 7850 H 767.94 3.50269 4.26633 0
M  V30 7851 H 770.416 1.62581 3.83023 0
M  V30 7852 H 769.292 1.72885 5.20963 0
M  V30 7853 H 769.553 0.183068 4.41721 0
M  V30 7854 N 768.612 -1.24939 0.960631 0
M  V30 7855 C 769.842 -1.96595 0.635123 0
M  V30 7856 C 770.25 -1.71538 -0.798206 0
M  V30 7857 O 769.593 -0.991727 -1.5463 0
M  V30 7858 C 769.655 -3.49994 0.821248 0
M  V30 7859 C 769.319 -3.98738 2.23287 0
M  V30 7860 C 770.316 -4.08965 3.21004 0
M  V30 7861 C 768.001 -4.32247 2.55867 0
M  V30 7862 C 769.995 -4.52025 4.49391 0
M  V30 7863 C 767.682 -4.74991 3.84482 0
M  V30 7864 C 768.68 -4.84844 4.81056 0
M  V30 7865 O 768.368 -5.26638 6.07378 0
M  V30 7866 H 768.1 -0.633265 0.23654 0
M  V30 7867 H 770.654 -1.5991 1.28911 0
M  V30 7868 H 768.884 -3.86543 0.110105 0
M  V30 7869 H 770.573 -4.02859 0.495892 0
M  V30 7870 H 771.339 -3.83302 2.97161 0
M  V30 7871 H 767.218 -4.23801 1.81421 0
M  V30 7872 H 770.762 -4.5963 5.24773 0
M  V30 7873 H 766.659 -5.00101 4.08129 0
M  V30 7874 H 767.427 -5.44807 6.10842 0
M  V30 7875 N 770.09 -0.729906 -1.39679 0
M  V30 7876 C 771.053 -0.0951668 -2.29002 0
M  V30 7877 C 772.053 0.672471 -1.46063 0
M  V30 7878 O 773.243 0.502245 -1.66803 0
M  V30 7879 C 770.375 0.874631 -3.29489 0
M  V30 7880 H 771.568 -0.882062 -2.86635 0
M  V30 7881 H 769.121 -0.495424 -1.4824 0
M  V30 7882 H 769.856 1.68807 -2.76902 0
M  V30 7883 H 769.641 0.326893 -3.90735 0
M  V30 7884 H 771.131 1.31548 -3.96339 0
M  V30 7885 N 771.568 1.50203 -0.477153 0
M  V30 7886 C 772.817 2.01551 0.0774548 0
M  V30 7887 C 773.13 1.36359 1.40234 0
M  V30 7888 O 774.336 1.78898 2.04225 0
M  V30 7889 C 772.792 3.59406 0.188539 0
M  V30 7890 C 772.4 4.3356 -1.12828 0
M  V30 7891 C 774.144 4.18776 0.694782 0
M  V30 7892 C 772.051 5.83213 -0.98066 0
M  V30 7893 H 770.981 0.75329 0.0327212 0
M  V30 7894 H 773.632 1.72959 -0.612969 0
M  V30 7895 H 772.014 3.84611 0.942881 0
M  V30 7896 H 773.188 4.20074 -1.89405 0
M  V30 7897 H 771.503 3.85827 -1.5661 0
M  V30 7898 H 774.1 5.28338 0.822356 0
M  V30 7899 H 774.443 3.80557 1.68766 0
M  V30 7900 H 774.976 3.978 -0.00234519 0
M  V30 7901 H 771.715 6.25914 -1.94709 0
M  V30 7902 H 771.235 5.99256 -0.255375 0
M  V30 7903 H 772.914 6.4373 -0.649717 0
M  V30 7904 N 773.046 0.209999 1.56195 0
M  V30 7905 C 774.009 -0.691232 2.18528 0
M  V30 7906 C 775.009 -1.13013 1.14388 0
M  V30 7907 O 776.199 -1.04081 1.39688 0
M  V30 7908 C 773.331 -1.94551 2.79934 0
M  V30 7909 H 774.524 -0.147953 2.99535 0
M  V30 7910 H 772.077 -0.0396243 1.5625 0
M  V30 7911 H 772.812 -2.53094 2.02766 0
M  V30 7912 H 772.597 -1.63938 3.56184 0
M  V30 7913 H 774.087 -2.58785 3.2775 0
M  V30 7914 N 774.524 -1.57472 -0.0634922 0
M  V30 7915 C 775.94 -1.54016 -0.418466 0
M  V30 7916 C 776.14 -0.931376 -1.78683 0
M  V30 7917 O 775.196 -0.537465 -2.46714 0
M  V30 7918 C 776.509 -2.98634 -0.351906 0
M  V30 7919 C 778.057 -3.10012 -0.431494 0
M  V30 7920 C 778.532 -4.56296 -0.394754 0
M  V30 7921 N 780.023 -4.60964 -0.454583 0
M  V30 7922 C 780.758 -5.71643 -0.448501 0
M  V30 7923 N 780.254 -6.91663 -0.396742 0
M  V30 7924 N 782.047 -5.5991 -0.495677 0
M  V30 7925 H 774.198 -1.95409 0.832408 0
M  V30 7926 H 776.461 -0.894769 0.313197 0
M  V30 7927 H 776.167 -3.46766 0.587048 0
M  V30 7928 H 776.041 -3.58955 -1.15893 0
M  V30 7929 H 778.428 -2.61848 -1.36087 0
M  V30 7930 H 778.509 -2.52585 0.404258 0
M  V30 7931 H 778.153 -5.05119 0.530811 0
M  V30 7932 H 778.083 -5.11594 -1.24815 0
M  V30 7933 H 780.574 -3.74598 -0.498496 0
M  V30 7934 H 780.887 -7.71783 -0.396256 0
M  V30 7935 H 779.232 -6.9405 -0.363304 0
M  V30 7936 H 782.423 -4.65046 -0.533864 0
M  V30 7937 H 782.596 -6.46164 -0.487469 0
M  V30 7938 N 776.003 0.335068 -1.53997 0
M  V30 7939 C 777.243 1.0827 -1.7337 0
M  V30 7940 C 777.607 1.85618 -0.490913 0
M  V30 7941 O 778.808 2.62864 -0.561799 0
M  V30 7942 C 777.079 1.99212 -2.96731 0
M  V30 7943 S 778.638 2.81083 -3.36954 0
M  V30 7944 H 775.456 0.365698 -0.609743 0
M  V30 7945 H 778.058 0.360079 -1.92155 0
M  V30 7946 H 776.762 1.41204 -3.85344 0
M  V30 7947 H 776.293 2.75898 -2.80436 0
M  V30 7948 H 778.308 4.01657 -2.91352 0
M  V30 7949 N 777.481 1.45874 0.596531 0
M  V30 7950 C 778.721 1.52015 1.36641 0
M  V30 7951 C 779.085 0.16226 1.91313 0
M  V30 7952 O 780.286 0.0983889 2.6862 0
M  V30 7953 C 778.557 2.57776 2.4756 0
M  V30 7954 S 780.116 2.83223 3.35157 0
M  V30 7955 H 776.934 0.537251 0.465706 0
M  V30 7956 H 779.536 1.83024 0.687205 0
M  V30 7957 H 778.24 3.55091 2.05764 0
M  V30 7958 H 777.771 2.28455 3.20269 0
M  V30 7959 H 779.786 2.17442 4.4602 0
M  V30 7960 N 778.959 -0.83999 1.33349 0
M  V30 7961 C 779.889 -1.965 1.26135 0
M  V30 7962 C 780.87 -1.69505 0.142152 0
M  V30 7963 O 782.055 -1.91346 0.331743 0
M  V30 7964 C 779.185 -3.32632 0.99866 0
M  V30 7965 C 778.139 -3.74021 2.08068 0
M  V30 7966 C 777.465 -5.07947 1.67014 0
M  V30 7967 C 778.765 -3.87925 3.49731 0
M  V30 7968 H 780.459 -2.02793 2.20262 0
M  V30 7969 H 778.005 -0.974297 1.06035 0
M  V30 7970 H 779.958 -4.10903 0.934696 0
M  V30 7971 H 778.682 -3.26593 0.0217759 0
M  V30 7972 H 777.341 -2.98012 2.13505 0
M  V30 7973 H 776.989 -4.98378 0.680316 0
M  V30 7974 H 776.689 -5.36611 2.39422 0
M  V30 7975 H 778.213 -5.88695 1.62082 0
M  V30 7976 H 779.627 -4.5651 3.46802 0
M  V30 7977 H 778.024 -4.28023 4.20614 0
M  V30 7978 H 779.094 -2.90407 3.88319 0
M  V30 7979 N 780.437 -1.16799 -1.0581 0
M  V30 7980 C 781.367 -0.902241 -2.15364 0
M  V30 7981 C 782.348 0.153351 -1.69407 0
M  V30 7982 O 783.533 0.00442032 -1.94199 0
M  V30 7983 C 780.663 -0.407911 -3.44896 0
M  V30 7984 C 779.617 -1.40197 -4.04387 0
M  V30 7985 C 778.943 -0.765848 -5.29187 0
M  V30 7986 C 780.243 -2.77316 -4.42598 0
M  V30 7987 H 781.937 -1.81841 -2.37853 0
M  V30 7988 H 779.483 -0.875731 -1.14311 0
M  V30 7989 H 781.436 -0.20945 -4.20879 0
M  V30 7990 H 780.16 0.54378 -3.22041 0
M  V30 7991 H 778.819 -1.58707 -3.30466 0
M  V30 7992 H 778.467 0.192482 -5.02632 0
M  V30 7993 H 778.167 -1.42939 -5.69949 0
M  V30 7994 H 779.691 -0.577519 -6.07863 0
M  V30 7995 H 781.105 -2.62561 -5.09642 0
M  V30 7996 H 779.502 -3.4019 -4.94359 0
M  V30 7997 H 780.572 -3.32199 -3.53231 0
M  V30 7998 N 781.915 1.24427 -0.967243 0
M  V30 7999 C 783.326 1.74349 -0.667785 0
M  V30 8000 C 783.677 1.78403 0.816509 0
M  V30 8001 O 782.802 1.41315 1.63887 0
M  V30 8002 C 783.397 3.16628 -1.20548 0
M  V30 8003 C 781.956 3.64059 -0.955934 0
M  V30 8004 C 781.103 2.42715 -1.34106 0
M  V30 8005 H 784.054 1.10136 -1.14262 0
M  V30 8006 H 784.075 3.76183 -0.571547 0
M  V30 8007 H 783.587 3.13646 -2.28578 0
M  V30 8008 H 781.688 3.72441 0.108858 0
M  V30 8009 H 781.801 4.51549 -1.60126 0
M  V30 8010 H 780.165 2.43114 -0.759452 0
M  V30 8011 H 780.948 2.42414 -2.43085 0
M  V30 8012 N 783.393 0.737304 1.3929 0
M  V30 8013 C 784.325 0.0592106 2.29124 0
M  V30 8014 C 785.338 -0.701026 1.46934 0
M  V30 8015 O 786.527 -0.544808 1.69983 0
M  V30 8016 C 783.627 -0.940358 3.25592 0
M  V30 8017 C 782.8 -0.241163 4.36735 0
M  V30 8018 C 781.859 -1.14916 5.13498 0
M  V30 8019 O 780.885 -0.625783 5.6575 0
M  V30 8020 N 782.087 -2.47869 5.2492 0
M  V30 8021 H 784.852 0.830647 2.87959 0
M  V30 8022 H 782.413 0.586718 1.50895 0
M  V30 8023 H 784.405 -1.55046 3.73822 0
M  V30 8024 H 782.975 -1.61299 2.67771 0
M  V30 8025 H 782.195 0.549441 3.90352 0
M  V30 8026 H 783.483 0.243299 5.08218 0
M  V30 8027 H 782.881 -2.92864 4.83991 0
M  V30 8028 H 781.438 -3.03969 5.76581 0
M  V30 8029 N 784.871 -1.49948 0.485112 0
M  V30 8030 C 785.834 -2.27351 -0.290546 0
M  V30 8031 C 786.834 -1.32704 -0.908087 0
M  V30 8032 O 788.024 -1.56007 -0.775085 0
M  V30 8033 C 785.156 -3.10135 -1.41524 0
M  V30 8034 H 786.349 -2.97374 0.388454 0
M  V30 8035 H 783.902 -1.54453 0.239586 0
M  V30 8036 H 784.637 -2.44641 -2.12888 0
M  V30 8037 H 784.422 -3.79705 -0.978074 0
M  V30 8038 H 785.912 -3.68638 -1.96204 0
M  V30 8039 N 786.349 -0.21828 -1.56081 0
M  V30 8040 C 787.297 0.709679 -2.21509 0
M  V30 8041 C 788.291 1.20221 -1.19346 0
M  V30 8042 O 789.497 1.16241 -1.37433 0
M  V30 8043 H 785.872 0.247271 -0.710184 0
M  V30 8044 H 787.843 0.134386 -2.98097 0
M  V30 8045 C 786.592 1.90853 -2.90638 0
M  V30 8046 H 785.915 1.53865 -3.69006 0
M  V30 8047 H 787.355 2.53568 -3.39822 0
M  V30 8048 C 785.814 2.76189 -1.92929 0
M  V30 8049 O 786.344 3.74842 -1.44416 0
M  V30 8050 N 784.55 2.42157 -1.6065 0
M  V30 8051 H 784.097 1.61987 -2.00294 0
M  V30 8052 H 784.055 2.99534 -0.955347 0
M  V30 8053 N 787.827 1.57504 0.0551401 0
M  V30 8054 C 789.067 1.89895 0.756252 0
M  V30 8055 C 789.431 0.813983 1.73892 0
M  V30 8056 O 790.632 1.02145 2.48636 0
M  V30 8057 C 788.903 3.27494 1.43116 0
M  V30 8058 S 790.462 3.81669 2.16504 0
M  V30 8059 H 787.28 0.665173 0.251129 0
M  V30 8060 H 789.882 1.95496 0.0117193 0
M  V30 8061 H 788.586 4.04345 0.702391 0
M  V30 8062 H 788.117 3.25132 2.21479 0
M  V30 8063 H 790.132 3.58295 3.43277 0
M  V30 8064 N 789.305 -0.326896 1.54172 0
M  V30 8065 C 790.53 -1.08924 1.76494 0
M  V30 8066 C 790.955 -1.81039 0.510523 0
M  V30 8067 O 790.313 -1.73141 -0.537756 0
M  V30 8068 C 790.361 -2.06558 2.95578 0
M  V30 8069 O 789.465 -3.14394 2.6689 0
M  V30 8070 H 788.806 -0.314216 0.584948 0
M  V30 8071 H 791.336 -0.372207 2.01186 0
M  V30 8072 H 791.346 -2.49487 3.22832 0
M  V30 8073 H 790.021 -1.53469 3.86549 0
M  V30 8074 H 788.598 -2.76164 2.50576 0
M  V30 8075 N 790.784 -1.46188 -0.588786 0
M  V30 8076 C 792.03 -1.51407 -1.34921 0
M  V30 8077 C 792.363 -0.162771 -1.93517 0
M  V30 8078 O 791.638 0.825082 -1.76132 0
M  V30 8079 C 791.921 -2.60795 -2.48311 0
M  V30 8080 C 791.774 -4.05435 -1.94789 0
M  V30 8081 C 793.093 -2.66313 -3.50379 0
M  V30 8082 H 790.212 -0.551213 -0.489217 0
M  V30 8083 H 792.854 -1.78095 -0.661993 0
M  V30 8084 H 791.004 -2.3817 -3.06932 0
M  V30 8085 H 792.676 -4.39328 -1.40672 0
M  V30 8086 H 790.919 -4.15202 -1.25659 0
M  V30 8087 H 791.59 -4.77691 -2.76613 0
M  V30 8088 H 794.066 -2.86634 -3.01629 0
M  V30 8089 H 792.942 -3.44681 -4.27184 0
M  V30 8090 H 793.203 -1.72127 -4.07216 0
M  V30 8091 N 792.262 0.832906 -1.33792 0
M  V30 8092 C 793.212 1.93178 -1.21105 0
M  V30 8093 C 794.196 1.60506 -0.112491 0
M  V30 8094 O 795.388 1.73681 -0.341179 0
M  V30 8095 C 792.517 3.29647 -0.958526 0
M  V30 8096 C 791.603 3.68469 -2.0998 0
M  V30 8097 N 791.994 3.78936 -3.35024 0
M  V30 8098 C 790.292 3.98249 -2.00782 0
M  V30 8099 C 790.993 4.12731 -4.09912 0
M  V30 8100 N 789.969 4.25419 -3.38407 0
M  V30 8101 H 793.771 1.99434 -2.15878 0
M  V30 8102 H 791.285 1.02598 -1.25886 0
M  V30 8103 H 793.282 4.08173 -0.848552 0
M  V30 8104 H 791.942 3.24694 -0.019387 0
M  V30 8105 H 792.953 3.62688 -3.69699 0
M  V30 8106 H 789.63 4.01474 -1.14564 0
M  V30 8107 H 791.02 4.28117 -5.17847 0
M  V30 8108 N 793.74 1.17359 1.05189 0
M  V30 8109 C 794.968 0.986529 1.81866 0
M  V30 8110 C 795.383 -0.46522 1.82979 0
M  V30 8111 O 794.74 -1.32305 1.25705 0
M  V30 8112 C 794.791 1.52021 3.27982 0
M  V30 8113 O 794.512 2.91511 3.27037 0
M  V30 8114 C 796.013 1.37774 4.21347 0
M  V30 8115 H 793.233 0.349021 0.573084 0
M  V30 8116 H 795.777 1.55648 1.32643 0
M  V30 8117 H 793.932 0.992287 3.74476 0
M  V30 8118 H 794.346 3.16178 4.18488 0
M  V30 8119 H 795.82 1.7993 5.21852 0
M  V30 8120 H 796.297 0.32483 4.37997 0
M  V30 8121 H 796.903 1.89583 3.80708 0
M  V30 8122 N 795.218 -1.23913 0.973828 0
M  V30 8123 C 796.181 -2.23367 0.51378 0
M  V30 8124 C 797.181 -1.55923 -0.39302 0
M  V30 8125 O 798.371 -1.73187 -0.187626 0
M  V30 8126 C 795.503 -3.39944 -0.255152 0
M  V30 8127 H 796.696 -2.65581 1.39307 0
M  V30 8128 H 794.249 -1.36632 0.759039 0
M  V30 8129 H 794.984 -3.03177 -1.15127 0
M  V30 8130 H 794.769 -3.90098 0.395673 0
M  V30 8131 H 796.259 -4.13749 -0.565842 0
M  V30 8132 N 796.696 -0.74468 -1.38897 0
M  V30 8133 C 798.107 -0.36568 -1.83084 0
M  V30 8134 C 798.458 1.10436 -1.62168 0
M  V30 8135 O 797.583 1.85281 -1.11804 0
M  V30 8136 C 798.178 -0.656946 -3.3237 0
M  V30 8137 C 796.737 -0.331329 -3.74939 0
M  V30 8138 C 795.884 -0.914661 -2.61781 0
M  V30 8139 H 798.835 -0.941551 -1.27752 0
M  V30 8140 H 798.856 0.0679546 -3.80439 0
M  V30 8141 H 798.368 -1.72693 -3.47561 0
M  V30 8142 H 796.469 0.732426 -3.6533 0
M  V30 8143 H 796.582 -0.820655 -4.72019 0
M  V30 8144 H 794.946 -0.34063 -2.52412 0
M  V30 8145 H 795.729 -1.98949 -2.79775 0
M  V30 8146 N 798.174 1.49689 -0.493057 0
M  V30 8147 C 799.585 1.8665 -0.0433032 0
M  V30 8148 C 799.936 1.40607 1.36836 0
M  V30 8149 O 799.061 0.780503 2.01834 0
M  V30 8150 C 799.656 3.38724 -0.0718069 0
M  V30 8151 C 798.215 3.75015 0.32257 0
M  V30 8152 C 797.362 2.7366 -0.4478 0
M  V30 8153 H 800.313 1.42119 -0.706246 0
M  V30 8154 H 800.334 3.73522 0.725347 0
M  V30 8155 H 799.846 3.72204 -1.09935 0
M  V30 8156 H 797.947 3.47142 1.35364 0
M  V30 8157 H 798.06 4.79099 0.00864259 0
M  V30 8158 H 796.424 2.54498 0.101354 0
M  V30 8159 H 797.207 3.09985 -1.47527 0
M  V30 8160 N 799.652 0.226554 1.55963 0
M  V30 8161 C 800.615 -0.668015 2.19249 0
M  V30 8162 C 801.615 -1.11794 1.1558 0
M  V30 8163 O 802.805 -1.02593 1.40784 0
M  V30 8164 C 799.937 -1.91571 2.81981 0
M  V30 8165 H 801.13 -0.116175 2.99675 0
M  V30 8166 H 798.683 -0.0230497 1.56283 0
M  V30 8167 H 799.418 -2.50929 2.05439 0
M  V30 8168 H 799.203 -1.6015 3.57903 0
M  V30 8169 H 800.693 -2.55294 3.30477 0
M  V30 8170 N 801.13 -1.57531 -0.0467866 0
M  V30 8171 C 802.04 -2.08768 -1.07018 0
M  V30 8172 C 803.056 -1.02245 -1.40791 0
M  V30 8173 O 804.232 -1.33873 -1.50466 0
M  V30 8174 C 801.297 -2.54221 -2.35738 0
M  V30 8175 C 800.358 -3.75152 -2.08709 0
M  V30 8176 C 799.591 -4.18428 -3.31291 0
M  V30 8177 O 799.814 -3.61365 -4.4133 0
M  V30 8178 O 798.748 -5.11018 -3.18032 0
M  V30 8179 H 802.574 -2.96334 -0.664812 0
M  V30 8180 H 800.159 -1.47074 -0.262605 0
M  V30 8181 H 802.041 -2.83866 -3.11445 0
M  V30 8182 H 800.716 -1.69774 -2.75605 0
M  V30 8183 H 799.623 -3.50553 -1.30627 0
M  V30 8184 H 800.956 -4.60528 -1.73708 0
M  V30 8185 N 802.608 0.318715 -1.54344 0
M  V30 8186 C 803.571 1.37545 -1.83342 0
M  V30 8187 C 804.571 1.445 -0.705444 0
M  V30 8188 O 805.761 1.44443 -0.973752 0
M  V30 8189 C 802.893 2.76225 -1.99781 0
M  V30 8190 H 804.086 1.13084 -2.77762 0
M  V30 8191 H 801.639 0.554457 -1.46135 0
M  V30 8192 H 802.374 3.05934 -1.07588 0
M  V30 8193 H 802.159 2.7257 -2.81865 0
M  V30 8194 H 803.649 3.52664 -2.23647 0
M  V30 8195 N 804.086 1.46499 0.581025 0
M  V30 8196 C 805.311 1.55708 1.37002 0
M  V30 8197 C 805.736 0.19942 1.8704 0
M  V30 8198 O 805.094 -0.820731 1.61659 0
M  V30 8199 C 805.142 2.56716 2.53238 0
M  V30 8200 O 804.246 2.10336 3.54729 0
M  V30 8201 H 803.587 0.523912 0.407937 0
M  V30 8202 H 806.117 1.92085 0.704602 0
M  V30 8203 H 806.127 2.76378 3.00132 0
M  V30 8204 H 804.802 3.55307 2.16171 0
M  V30 8205 H 803.379 2.00669 3.14303 0
M  V30 8206 N 805.565 -0.825799 1.34232 0
M  V30 8207 C 806.498 -1.94155 1.19914 0
M  V30 8208 C 807.476 -1.62343 0.0914533 0
M  V30 8209 O 808.66 -1.86752 0.256082 0
M  V30 8210 C 805.787 -3.28064 0.842138 0
M  V30 8211 C 804.833 -3.78839 1.95917 0
M  V30 8212 S 805.666 -3.98943 3.57218 0
M  V30 8213 C 806.822 -5.35783 3.23554 0
M  V30 8214 H 807.055 -2.06003 2.14359 0
M  V30 8215 H 804.588 -0.981053 1.19225 0
M  V30 8216 H 806.546 -4.05434 0.642952 0
M  V30 8217 H 805.207 -3.13988 -0.0839363 0
M  V30 8218 H 804.4 -4.75771 1.66306 0
M  V30 8219 H 804.002 -3.08406 2.11569 0
M  V30 8220 H 806.294 -6.19094 2.7519 0
M  V30 8221 H 807.237 -5.70376 4.19615 0
M  V30 8222 H 807.645 -5.01158 2.5981 0
M  V30 8223 N 807.043 -1.17915 -1.04565 0
M  V30 8224 C 808.291 -0.969505 -1.77327 0
M  V30 8225 C 808.612 0.502569 -1.88412 0
M  V30 8226 O 807.882 1.36467 -1.40547 0
M  V30 8227 H 806.462 -0.355723 -0.656864 0
M  V30 8228 H 809.124 -1.48506 -1.26223 0
M  V30 8229 H 808.22 -1.40324 -2.78775 0
M  V30 8230 N 808.521 1.23394 -0.980386 0
M  V30 8231 C 809.749 1.95844 -0.667286 0
M  V30 8232 C 810.164 1.72574 0.765735 0
M  V30 8233 O 809.521 1.01715 1.51526 0
M  V30 8234 C 809.572 3.48844 -0.948151 0
M  V30 8235 O 809.293 3.71325 -2.32485 0
M  V30 8236 C 810.794 4.38494 -0.651002 0
M  V30 8237 H 808.014 0.623535 -0.247882 0
M  V30 8238 H 810.558 1.56885 -1.31176 0
M  V30 8239 H 808.713 3.85819 -0.349681 0
M  V30 8240 H 809.127 4.65619 -2.41452 0
M  V30 8241 H 810.601 5.44648 -0.897887 0
M  V30 8242 H 811.078 4.37236 0.414922 0
M  V30 8243 H 811.684 4.07127 -1.22995 0
M  V30 8244 N 809.999 0.752036 1.385 0
M  V30 8245 C 811.415 0.42946 1.53713 0
M  V30 8246 C 811.615 -1.0576 1.71514 0
M  V30 8247 O 810.671 -1.84366 1.72527 0
M  V30 8248 C 811.984 1.22735 2.74511 0
M  V30 8249 C 813.532 1.21727 2.8836 0
M  V30 8250 C 814.007 1.99809 4.12117 0
M  V30 8251 N 815.498 1.97062 4.19191 0
M  V30 8252 C 816.233 2.54274 5.13938 0
M  V30 8253 N 815.729 3.20193 6.14368 0
M  V30 8254 N 817.522 2.44212 5.06277 0
M  V30 8255 H 809.673 1.71581 1.25195 0
M  V30 8256 H 811.936 0.727293 0.60807 0
M  V30 8257 H 811.642 2.28032 2.67758 0
M  V30 8258 H 811.516 0.843186 3.67655 0
M  V30 8259 H 813.903 0.172367 2.94596 0
M  V30 8260 H 813.984 1.64094 1.96232 0
M  V30 8261 H 813.628 3.0431 4.06642 0
M  V30 8262 H 813.558 1.54837 5.03322 0
M  V30 8263 H 816.049 1.49054 3.47263 0
M  V30 8264 H 816.362 3.61272 6.83156 0
M  V30 8265 H 814.707 3.24287 6.14705 0
M  V30 8266 H 817.898 1.92343 4.26757 0
M  V30 8267 H 818.071 2.89096 5.79937 0
M  V30 8268 N 811.477 -1.49425 0.500989 0
M  V30 8269 C 812.723 -2.02753 -0.0436 0
M  V30 8270 C 813.056 -1.37991 -1.36646 0
M  V30 8271 O 812.331 -0.515597 -1.87542 0
M  V30 8272 C 812.614 -3.59565 -0.19616 0
M  V30 8273 C 812.467 -4.34855 1.14982 0
M  V30 8274 C 813.786 -4.30014 -0.936795 0
M  V30 8275 H 810.905 -0.73686 -0.0143711 0
M  V30 8276 H 813.547 -1.78448 0.652397 0
M  V30 8277 H 811.697 -3.80405 -0.788959 0
M  V30 8278 H 813.369 -4.25512 1.7815 0
M  V30 8279 H 811.612 -3.97414 1.73911 0
M  V30 8280 H 812.283 -5.42933 0.996385 0
M  V30 8281 H 814.759 -4.1383 -0.434036 0
M  V30 8282 H 813.635 -5.39483 -1.01238 0
M  V30 8283 H 813.896 -3.95257 -1.9805 0
M  V30 8284 N 812.955 -0.234822 -1.55841 0
M  V30 8285 C 813.905 0.68346 -2.17515 0
M  V30 8286 C 814.889 1.14798 -1.1274 0
M  V30 8287 O 816.081 1.09976 -1.38688 0
M  V30 8288 C 813.21 1.88551 -2.86886 0
M  V30 8289 C 812.296 1.44006 -3.98903 0
M  V30 8290 N 812.687 0.708034 -5.0082 0
M  V30 8291 C 810.985 1.7263 -4.11236 0
M  V30 8292 C 811.686 0.479036 -5.79724 0
M  V30 8293 N 810.662 1.03968 -5.33565 0
M  V30 8294 H 814.464 0.115897 -2.93671 0
M  V30 8295 H 811.978 -0.0366273 -1.62359 0
M  V30 8296 H 813.975 2.55425 -3.2949 0
M  V30 8297 H 812.635 2.45742 -2.12229 0
M  V30 8298 H 813.646 0.359363 -5.16652 0
M  V30 8299 H 810.323 2.31046 -3.47741 0
M  V30 8300 H 811.713 -0.104514 -6.71819 0
M  V30 8301 N 814.433 1.57553 0.0384317 0
M  V30 8302 C 815.673 1.90687 0.736069 0
M  V30 8303 C 816.037 0.832381 1.73019 0
M  V30 8304 O 817.238 1.04777 2.47538 0
M  V30 8305 C 815.509 3.28994 1.39635 0
M  V30 8306 S 817.068 3.83944 2.12444 0
M  V30 8307 H 813.886 0.667799 0.244059 0
M  V30 8308 H 816.488 1.95498 -0.00901643 0
M  V30 8309 H 815.192 4.05067 0.659465 0
M  V30 8310 H 814.723 3.27463 2.18018 0
M  V30 8311 H 816.738 3.61916 3.39457 0
M  V30 8312 N 815.911 -0.310526 1.54511 0
M  V30 8313 C 816.861 -1.38405 1.81185 0
M  V30 8314 C 817.845 -1.46355 0.668499 0
M  V30 8315 O 819.037 -1.50668 0.928873 0
M  V30 8316 C 816.166 -2.75059 2.0542 0
M  V30 8317 C 815.252 -2.7137 3.25913 0
M  V30 8318 N 815.643 -2.37298 4.4668 0
M  V30 8319 C 813.941 -3.02484 3.27749 0
M  V30 8320 C 814.642 -2.42669 5.28665 0
M  V30 8321 N 813.618 -2.79639 4.66158 0
M  V30 8322 H 817.42 -1.11012 2.72128 0
M  V30 8323 H 814.934 -0.519068 1.53881 0
M  V30 8324 H 816.931 -3.52451 2.22674 0
M  V30 8325 H 815.591 -3.03372 1.15739 0
M  V30 8326 H 816.602 -2.09917 4.73451 0
M  V30 8327 H 813.279 -3.35754 2.48144 0
M  V30 8328 H 814.669 -2.19206 6.35136 0
M  V30 8329 N 817.389 -1.46805 -0.573248 0
M  V30 8330 C 818.321 -1.54127 -1.6964 0
M  V30 8331 C 819.334 -0.428778 -1.57052 0
M  V30 8332 O 820.523 -0.697612 -1.64303 0
M  V30 8333 C 817.623 -1.41438 -3.07975 0
M  V30 8334 C 816.796 -2.66974 -3.46474 0
M  V30 8335 C 815.855 -2.48349 -4.63906 0
M  V30 8336 O 814.881 -3.22109 -4.69292 0
M  V30 8337 N 816.083 -1.55129 -5.59388 0
M  V30 8338 H 818.848 -2.50971 -1.6381 0
M  V30 8339 H 816.409 -1.42981 -0.759479 0
M  V30 8340 H 818.401 -1.26737 -3.84343 0
M  V30 8341 H 816.971 -0.527388 -3.08119 0
M  V30 8342 H 816.191 -2.9655 -2.59715 0
M  V30 8343 H 817.479 -3.50347 -3.68964 0
M  V30 8344 H 816.877 -0.94324 -5.57781 0
M  V30 8345 H 815.434 -1.46387 -6.35149 0
M  V30 8346 N 818.867 0.818669 -1.34668 0
M  V30 8347 C 819.799 1.93754 -1.22442 0
M  V30 8348 C 820.812 1.62103 -0.150501 0
M  V30 8349 O 822.001 1.73898 -0.402728 0
M  V30 8350 C 819.101 3.27806 -0.860031 0
M  V30 8351 C 818.274 3.8745 -2.02981 0
M  V30 8352 C 817.333 4.99887 -1.64314 0
M  V30 8353 O 816.359 5.17957 -2.36029 0
M  V30 8354 N 817.561 5.77795 -0.55976 0
M  V30 8355 H 820.326 2.04773 -2.18833 0
M  V30 8356 H 817.887 0.995472 -1.27679 0
M  V30 8357 H 819.879 4.00478 -0.583068 0
M  V30 8358 H 818.449 3.12597 0.0138253 0
M  V30 8359 H 817.669 3.07119 -2.47127 0
M  V30 8360 H 818.957 4.2403 -2.81204 0
M  V30 8361 H 818.355 5.65688 0.0363329 0
M  V30 8362 H 816.912 6.50899 -0.342541 0
M  V30 8363 N 820.346 1.18468 1.03938 0
M  V30 8364 C 821.594 0.978895 1.76811 0
M  V30 8365 C 821.915 -0.49257 1.88676 0
M  V30 8366 O 821.185 -1.3572 1.41269 0
M  V30 8367 H 819.765 0.359201 0.654968 0
M  V30 8368 H 822.427 1.49173 1.25433 0
M  V30 8369 H 821.523 1.418 2.78027 0
M  V30 8370 N 821.824 -1.22873 0.986916 0
M  V30 8371 C 822.774 -2.2237 0.503547 0
M  V30 8372 C 823.758 -1.55186 -0.424998 0
M  V30 8373 O 824.95 -1.75186 -0.252791 0
M  V30 8374 C 822.079 -3.42794 -0.186355 0
M  V30 8375 C 821.165 -4.17196 0.762143 0
M  V30 8376 N 821.556 -4.68453 1.9075 0
M  V30 8377 C 819.854 -4.42255 0.576797 0
M  V30 8378 C 820.555 -5.25126 2.50235 0
M  V30 8379 N 819.531 -5.13437 1.7856 0
M  V30 8380 H 823.333 -2.59636 1.37718 0
M  V30 8381 H 820.847 -1.38476 0.848415 0
M  V30 8382 H 822.844 -4.13256 -0.549993 0
M  V30 8383 H 821.504 -3.07042 -1.05619 0
M  V30 8384 H 822.515 -4.64595 2.28848 0
M  V30 8385 H 819.192 -4.16766 -0.247474 0
M  V30 8386 H 820.582 -5.75363 3.46997 0
M  V30 8387 N 823.302 -0.75937 -1.38099 0
M  V30 8388 C 824.548 -0.318584 -2.00282 0
M  V30 8389 C 824.881 1.09854 -1.60143 0
M  V30 8390 O 824.156 1.75344 -0.841702 0
M  V30 8391 C 824.439 -0.448047 -3.57302 0
M  V30 8392 C 824.292 -1.9067 -4.07388 0
M  V30 8393 C 825.611 0.155119 -4.39827 0
M  V30 8394 H 822.73 -0.117233 -0.727616 0
M  V30 8395 H 825.372 -0.960097 -1.63958 0
M  V30 8396 H 823.522 0.0981003 -3.88376 0
M  V30 8397 H 825.194 -2.5116 -3.86932 0
M  V30 8398 H 823.437 -2.41979 -3.6004 0
M  V30 8399 H 824.108 -1.94841 -5.1647 0
M  V30 8400 H 826.584 -0.31073 -4.14938 0
M  V30 8401 H 825.46 0.0343264 -5.48889 0
M  V30 8402 H 825.721 1.24407 -4.24235 0
M  V30 8403 N 824.78 1.49157 -0.508906 0
M  V30 8404 C 825.71 2.32109 0.254469 0
M  V30 8405 C 826.691 1.40754 0.955111 0
M  V30 8406 O 827.876 1.69658 0.944983 0
M  V30 8407 C 825.006 3.21458 1.3146 0
M  V30 8408 C 823.96 4.2167 0.733368 0
M  V30 8409 C 823.286 5.00009 1.8946 0
M  V30 8410 C 824.586 5.21544 -0.280875 0
M  V30 8411 H 826.28 2.9618 -0.43795 0
M  V30 8412 H 823.826 1.4243 -0.212062 0
M  V30 8413 H 825.779 3.78305 1.85643 0
M  V30 8414 H 824.503 2.55346 2.03632 0
M  V30 8415 H 823.162 3.65979 0.213231 0
M  V30 8416 H 822.81 4.30338 2.60419 0
M  V30 8417 H 822.51 5.67821 1.51173 0
M  V30 8418 H 824.034 5.59702 2.44061 0
M  V30 8419 H 825.448 5.73039 0.173095 0
M  V30 8420 H 823.845 5.97291 -0.580006 0
M  V30 8421 H 824.915 4.69969 -1.19404 0
M  V30 8422 N 826.258 0.243083 1.55714 0
M  V30 8423 C 827.486 -0.386971 2.03249 0
M  V30 8424 C 827.901 -1.51812 1.12243 0
M  V30 8425 O 827.258 -1.81992 0.136119 0
M  V30 8426 C 827.309 -0.898361 3.5016 0
M  V30 8427 O 827.03 0.187708 4.37698 0
M  V30 8428 C 828.531 -1.59949 4.13438 0
M  V30 8429 H 825.751 -0.0923981 0.664608 0
M  V30 8430 H 828.295 0.365832 2.01201 0
M  V30 8431 H 826.45 -1.60136 3.52754 0
M  V30 8432 H 826.864 -0.200001 5.24119 0
M  V30 8433 H 828.338 -1.90907 5.17937 0
M  V30 8434 H 828.815 -2.52014 3.59702 0
M  V30 8435 H 829.421 -0.941163 4.14756 0
M  V30 8436 N 827.736 -1.57571 -0.0300757 0
M  V30 8437 C 828.984 -1.88852 -0.719666 0
M  V30 8438 C 829.305 -0.840645 -1.75949 0
M  V30 8439 O 828.575 0.125854 -1.95495 0
M  V30 8440 H 827.155 -0.696965 -0.268792 0
M  V30 8441 H 829.817 -1.949 0.00373285 0
M  V30 8442 H 828.913 -2.87695 -1.20987 0
M  V30 8443 N 829.214 0.302327 -1.54673 0
M  V30 8444 C 830.454 1.04568 -1.75627 0
M  V30 8445 C 830.818 1.84535 -0.530175 0
M  V30 8446 O 832.019 2.61613 -0.61743 0
M  V30 8447 C 830.29 1.92873 -3.0089 0
M  V30 8448 S 831.849 2.73872 -3.4284 0
M  V30 8449 H 828.667 0.352682 -0.617362 0
M  V30 8450 H 831.269 0.319239 -1.92876 0
M  V30 8451 H 829.973 1.32998 -3.88252 0
M  V30 8452 H 829.504 2.69887 -2.86225 0
M  V30 8453 H 831.519 3.95386 -2.99807 0
M  V30 8454 N 830.692 1.47107 0.565454 0
M  V30 8455 C 831.917 1.57153 1.35343 0
M  V30 8456 C 832.342 0.219247 1.86818 0
M  V30 8457 O 831.7 -0.803539 1.62521 0
M  V30 8458 C 831.748 2.59387 2.50501 0
M  V30 8459 O 830.852 2.14086 3.52478 0
M  V30 8460 H 830.193 0.528209 0.402357 0
M  V30 8461 H 832.723 1.92821 0.684189 0
M  V30 8462 H 832.733 2.79546 2.97184 0
M  V30 8463 H 831.408 3.57579 2.12391 0
M  V30 8464 H 829.985 2.03991 3.12157 0
M  V30 8465 N 832.17 -0.811516 1.35101 0
M  V30 8466 C 833.395 -1.60499 1.31358 0
M  V30 8467 C 833.82 -1.87793 -0.107383 0
M  V30 8468 O 833.178 -1.46161 -1.07268 0
M  V30 8469 C 833.226 -2.91612 2.12119 0
M  V30 8470 O 832.33 -3.84211 1.49853 0
M  V30 8471 H 831.671 -0.487702 0.450603 0
M  V30 8472 H 834.201 -1.00758 1.7807 0
M  V30 8473 H 834.211 -3.4108 2.23894 0
M  V30 8474 H 832.886 -2.71071 3.15426 0
M  V30 8475 H 831.463 -3.42751 1.46889 0
M  V30 8476 N 833.648 -1.19017 -1.03309 0
M  V30 8477 C 834.598 -0.89194 -2.0983 0
M  V30 8478 C 835.582 0.14151 -1.60277 0
M  V30 8479 O 836.774 -0.0635946 -1.76886 0
M  V30 8480 C 833.903 -0.427793 -3.40624 0
M  V30 8481 C 832.989 -1.49374 -3.96923 0
M  V30 8482 N 833.38 -2.71213 -4.26939 0
M  V30 8483 C 831.678 -1.35605 -4.24885 0
M  V30 8484 C 832.379 -3.39849 -4.72099 0
M  V30 8485 N 831.355 -2.67239 -4.73375 0
M  V30 8486 H 835.157 -1.81801 -2.30923 0
M  V30 8487 H 832.671 -1.08171 -1.21131 0
M  V30 8488 H 834.668 -0.195608 -4.16441 0
M  V30 8489 H 833.328 0.491848 -3.20953 0
M  V30 8490 H 834.339 -3.08014 -4.16351 0
M  V30 8491 H 831.016 -0.499537 -4.14501 0
M  V30 8492 H 832.406 -4.44018 -5.04279 0
M  V30 8493 N 835.127 1.22348 -0.993418 0
M  V30 8494 C 836.373 1.91689 -0.680217 0
M  V30 8495 C 836.728 1.75912 0.779269 0
M  V30 8496 O 836.021 1.11761 1.55628 0
M  V30 8497 C 836.215 3.42477 -1.02197 0
M  V30 8498 C 836.044 3.72923 -2.51313 0
M  V30 8499 C 834.814 3.9291 -3.17726 0
M  V30 8500 C 837.012 3.7736 -3.49434 0
M  V30 8501 N 834.994 4.10672 -4.56313 0
M  V30 8502 C 836.365 4.00269 -4.73481 0
M  V30 8503 C 838.42 3.60211 -3.43733 0
M  V30 8504 C 837.123 4.0781 -5.92523 0
M  V30 8505 C 839.149 3.69011 -4.62152 0
M  V30 8506 C 838.511 3.92371 -5.85 0
M  V30 8507 H 834.61 0.722086 -0.300193 0
M  V30 8508 H 837.194 1.47273 -1.27353 0
M  V30 8509 H 835.365 3.85699 -0.457223 0
M  V30 8510 H 837.097 3.99204 -0.664702 0
M  V30 8511 H 833.852 3.90345 -2.68193 0
M  V30 8512 H 834.276 4.2348 -5.28199 0
M  V30 8513 H 838.918 3.41137 -2.49771 0
M  V30 8514 H 836.636 4.25688 -6.86888 0
M  V30 8515 H 840.222 3.5708 -4.59331 0
M  V30 8516 H 839.102 3.9901 -6.75101 0
M  V30 8517 N 836.605 0.766683 1.37694 0
M  V30 8518 C 837.515 0.150158 2.34119 0
M  V30 8519 C 838.531 -0.685513 1.59927 0
M  V30 8520 O 839.707 -0.606616 1.92047 0
M  V30 8521 C 836.772 -0.722562 3.39087 0
M  V30 8522 C 835.833 0.128983 4.29106 0
M  V30 8523 C 835.066 -0.702178 5.29061 0
M  V30 8524 O 835.289 -1.93954 5.36412 0
M  V30 8525 O 834.223 -0.114056 6.01792 0
M  V30 8526 H 838.049 0.946829 2.88563 0
M  V30 8527 H 835.634 0.527765 1.39768 0
M  V30 8528 H 837.516 -1.22095 4.03325 0
M  V30 8529 H 836.191 -1.49751 2.86978 0
M  V30 8530 H 835.098 0.673612 3.67985 0
M  V30 8531 H 836.431 0.866892 4.84506 0
M  V30 8532 N 838.083 -1.48885 0.516809 0
M  V30 8533 C 839.329 -2.02788 -0.0220928 0
M  V30 8534 C 839.662 -1.39433 -1.35175 0
M  V30 8535 O 838.937 -0.535459 -1.86984 0
M  V30 8536 C 839.22 -3.59753 -0.158012 0
M  V30 8537 C 839.073 -4.33611 1.19588 0
M  V30 8538 C 840.392 -4.30984 -0.891133 0
M  V30 8539 H 837.511 -0.736971 -0.00655488 0
M  V30 8540 H 840.153 -1.77746 0.671287 0
M  V30 8541 H 838.303 -3.8122 -0.748568 0
M  V30 8542 H 839.975 -4.23598 1.82653 0
M  V30 8543 H 838.218 -3.95547 1.78116 0
M  V30 8544 H 838.889 -5.41846 1.05391 0
M  V30 8545 H 841.365 -4.14267 -0.39012 0
M  V30 8546 H 840.241 -5.40527 -0.955107 0
M  V30 8547 H 840.502 -3.97336 -1.93847 0
M  V30 8548 N 839.561 -0.251338 -1.55583 0
M  V30 8549 C 840.471 0.656978 -2.25213 0
M  V30 8550 C 841.487 1.18966 -1.26977 0
M  V30 8551 O 842.663 1.22499 -1.59862 0
M  V30 8552 C 839.728 1.83527 -2.94141 0
M  V30 8553 C 838.789 1.34162 -4.07798 0
M  V30 8554 C 838.022 2.46375 -4.73429 0
M  V30 8555 O 838.245 3.65205 -4.38157 0
M  V30 8556 O 837.179 2.15881 -5.61853 0
M  V30 8557 H 841.005 0.0936395 -3.03556 0
M  V30 8558 H 838.59 -0.0196638 -1.49387 0
M  V30 8559 H 840.472 2.52279 -3.3754 0
M  V30 8560 H 839.147 2.38614 -2.18735 0
M  V30 8561 H 838.054 0.621249 -3.68906 0
M  V30 8562 H 839.387 0.836779 -4.85035 0
M  V30 8563 N 841.039 1.57585 0.0217189 0
M  V30 8564 C 842.316 1.80779 0.74687 0
M  V30 8565 C 842.696 0.851163 1.9318 0
M  V30 8566 O 842.044 -0.105039 2.28258 0
M  V30 8567 C 842.254 3.28696 1.17302 0
M  V30 8568 C 843.602 3.93871 1.58589 0
M  V30 8569 O 844.626 3.3289 1.2674 0
M  V30 8570 O 843.485 5.01254 2.1773 0
M  V30 8571 H 840.579 0.743666 0.361786 0
M  V30 8572 H 843.125 1.697 -0.00206785 0
M  V30 8573 H 841.897 3.89927 0.327453 0
M  V30 8574 H 841.52 3.44692 1.98174 0
M  V30 8575 N 842.517 -0.29412 1.54831 0
M  V30 8576 C 843.447 -1.36757 1.89261 0
M  V30 8577 C 844.428 -1.52564 0.752214 0
M  V30 8578 O 845.613 -1.65958 1.00855 0
M  V30 8579 C 842.743 -2.73066 2.14597 0
M  V30 8580 C 841.697 -2.72017 3.3044 0
M  V30 8581 C 841.023 -4.11679 3.4121 0
M  V30 8582 C 842.323 -2.33149 4.67375 0
M  V30 8583 H 844.017 -1.08191 2.79169 0
M  V30 8584 H 841.563 -0.519014 1.34321 0
M  V30 8585 H 843.516 -3.48255 2.37269 0
M  V30 8586 H 842.24 -3.03172 1.21467 0
M  V30 8587 H 840.899 -1.99285 3.07703 0
M  V30 8588 H 840.547 -4.38973 2.45584 0
M  V30 8589 H 840.247 -4.11877 4.19084 0
M  V30 8590 H 841.771 -4.88637 3.6615 0
M  V30 8591 H 843.185 -2.98054 4.89731 0
M  V30 8592 H 841.582 -2.44546 5.48012 0
M  V30 8593 H 842.652 -1.28275 4.67626 0
M  V30 8594 N 843.995 -1.47404 -0.557645 0
M  V30 8595 C 845.243 -1.53703 -1.31224 0
M  V30 8596 C 845.564 -0.200742 -1.93964 0
M  V30 8597 O 844.834 0.775253 -1.79907 0
M  V30 8598 H 843.414 -0.566171 -0.487299 0
M  V30 8599 H 846.076 -1.83699 -0.651195 0
M  V30 8600 H 845.172 -2.30335 -2.10599 0
M  V30 8601 N 845.473 0.80434 -1.35529 0
M  V30 8602 C 846.701 1.59283 -1.32048 0
M  V30 8603 C 847.116 1.88527 0.101556 0
M  V30 8604 O 846.473 1.48975 1.05417 0
M  V30 8605 C 846.524 2.92276 -2.12737 0
M  V30 8606 O 846.245 2.64299 -3.49396 0
M  V30 8607 C 847.746 3.86631 -2.16867 0
M  V30 8608 H 844.966 0.494523 -0.453528 0
M  V30 8609 H 847.51 0.999415 -1.78415 0
M  V30 8610 H 845.665 3.48125 -1.69964 0
M  V30 8611 H 846.079 3.4923 -3.91329 0
M  V30 8612 H 847.553 4.77053 -2.77712 0
M  V30 8613 H 848.03 4.23384 -1.16803 0
M  V30 8614 H 848.636 3.36717 -2.59811 0
M  V30 8615 N 846.951 1.19563 1.02676 0
M  V30 8616 C 847.901 0.903055 2.09354 0
M  V30 8617 C 848.885 -0.133009 1.60349 0
M  V30 8618 O 850.077 0.0729744 1.7685 0
M  V30 8619 C 847.206 0.445852 3.40392 0
M  V30 8620 C 846.292 1.51477 3.96126 0
M  V30 8621 N 846.683 2.73474 4.25495 0
M  V30 8622 C 844.981 1.37856 4.2416 0
M  V30 8623 C 845.682 3.42348 4.7029 0
M  V30 8624 N 844.658 2.69746 4.71952 0
M  V30 8625 H 848.46 1.83023 2.29956 0
M  V30 8626 H 845.974 1.08812 1.20556 0
M  V30 8627 H 847.971 0.21769 4.16331 0
M  V30 8628 H 846.631 -0.47482 3.2121 0
M  V30 8629 H 847.642 3.10217 4.14711 0
M  V30 8630 H 844.319 0.521512 4.1423 0
M  V30 8631 H 845.709 4.46686 5.01917 0
M  V30 8632 N 848.429 -1.21819 0.999893 0
M  V30 8633 C 849.376 -2.24003 0.556005 0
M  V30 8634 C 850.346 -1.60825 -0.415287 0
M  V30 8635 O 851.531 -1.88123 -0.318481 0
M  V30 8636 C 848.671 -3.44904 -0.116289 0
M  V30 8637 C 847.784 -4.22573 0.897574 0
M  V30 8638 C 846.919 -5.30831 0.198073 0
M  V30 8639 C 845.958 -6.00225 1.19983 0
M  V30 8640 N 845.095 -7.00111 0.528157 0
M  V30 8641 H 849.935 -2.61334 1.43208 0
M  V30 8642 H 847.472 -1.28431 0.717205 0
M  V30 8643 H 849.43 -4.13908 -0.523055 0
M  V30 8644 H 848.06 -3.08315 -0.956108 0
M  V30 8645 H 847.112 -3.52797 1.42262 0
M  V30 8646 H 848.424 -4.70363 1.66013 0
M  V30 8647 H 847.578 -6.06121 -0.265065 0
M  V30 8648 H 846.317 -4.84033 -0.596924 0
M  V30 8649 H 845.322 -5.23711 1.67353 0
M  V30 8650 H 846.547 -6.4911 1.99582 0
M  V30 8651 H 844.493 -6.55534 -0.247276 0
M  V30 8652 H 844.41 -7.45943 1.22904 0
M  V30 8653 H 845.678 -7.7945 0.0880543 0
M  V30 8654 N 849.908 -0.773975 -1.37286 0
M  V30 8655 C 851.319 -0.404433 -1.82267 0
M  V30 8656 C 851.67 1.06971 -1.64474 0
M  V30 8657 O 850.795 1.82867 -1.15708 0
M  V30 8658 C 851.39 -0.727298 -3.30902 0
M  V30 8659 C 849.949 -0.410784 -3.74152 0
M  V30 8660 C 849.096 -0.969983 -2.59782 0
M  V30 8661 H 852.047 -0.968437 -1.25726 0
M  V30 8662 H 852.068 -0.0127575 -3.80498 0
M  V30 8663 H 851.58 -1.80026 -3.4382 0
M  V30 8664 H 849.681 0.65477 -3.66802 0
M  V30 8665 H 849.794 -0.920592 -4.70172 0
M  V30 8666 H 848.158 -0.394094 -2.51633 0
M  V30 8667 H 848.941 -2.04839 -2.75492 0
M  V30 8668 N 851.386 1.48609 -0.524698 0
M  V30 8669 C 852.797 1.86516 -0.0828846 0
M  V30 8670 C 853.148 1.43478 1.33822 0
M  V30 8671 O 852.273 0.823139 2.00133 0
M  V30 8672 C 852.868 3.38495 -0.143639 0
M  V30 8673 C 851.427 3.75615 0.242951 0
M  V30 8674 C 850.574 2.72649 -0.505747 0
M  V30 8675 H 853.525 1.40589 -0.736233 0
M  V30 8676 H 853.546 3.74977 0.645955 0
M  V30 8677 H 853.058 3.69789 -1.17805 0
M  V30 8678 H 851.159 3.49935 1.27971 0
M  V30 8679 H 851.272 4.7901 -0.0929834 0
M  V30 8680 H 849.636 2.54656 0.0473482 0
M  V30 8681 H 850.419 3.06786 -1.54069 0
M  V30 8682 N 852.864 0.259585 1.55447 0
M  V30 8683 C 854.11 -0.362143 1.9954 0
M  V30 8684 C 854.443 -1.5666 1.14767 0
M  V30 8685 O 853.718 -1.93319 0.214025 0
M  V30 8686 C 854.001 -0.759588 3.51998 0
M  V30 8687 C 853.854 0.451134 4.47532 0
M  V30 8688 C 855.173 -1.60186 4.09913 0
M  V30 8689 H 852.292 -0.130157 0.725416 0
M  V30 8690 H 854.934 0.363431 1.86492 0
M  V30 8691 H 853.084 -1.3778 3.63248 0
M  V30 8692 H 854.756 1.08965 4.48246 0
M  V30 8693 H 852.999 1.092 4.19831 0
M  V30 8694 H 853.67 0.129518 5.51848 0
M  V30 8695 H 856.146 -1.0799 4.01842 0
M  V30 8696 H 855.022 -1.84879 5.16828 0
M  V30 8697 H 855.283 -2.57787 3.59163 0
M  V30 8698 N 854.342 -1.57594 -0.0133615 0
M  V30 8699 C 855.272 -2.10611 -1.00823 0
M  V30 8700 C 856.253 -1.01217 -1.36708 0
M  V30 8701 O 857.438 -1.28827 -1.45318 0
M  V30 8702 C 854.568 -2.59844 -2.30431 0
M  V30 8703 C 853.522 -3.73644 -2.08745 0
M  V30 8704 C 852.848 -4.09141 -3.4425 0
M  V30 8705 C 854.148 -5.01454 -1.46086 0
M  V30 8706 H 855.842 -2.93985 -0.566849 0
M  V30 8707 H 853.388 -1.41423 -0.271219 0
M  V30 8708 H 855.341 -2.95557 -3.00373 0
M  V30 8709 H 854.065 -1.73573 -2.76658 0
M  V30 8710 H 852.724 -3.38303 -1.41232 0
M  V30 8711 H 852.372 -3.19914 -3.88155 0
M  V30 8712 H 852.072 -4.85802 -3.3056 0
M  V30 8713 H 853.596 -4.47402 -4.15528 0
M  V30 8714 H 855.01 -5.35024 -2.05966 0
M  V30 8715 H 853.407 -5.82832 -1.42924 0
M  V30 8716 H 854.477 -4.83003 -0.428471 0
M  V30 8717 N 855.82 0.285905 -1.54985 0
M  V30 8718 C 857.236 0.632405 -1.46536 0
M  V30 8719 C 857.436 1.90074 -0.668888 0
M  V30 8720 O 856.492 2.51839 -0.182586 0
M  V30 8721 C 857.805 0.771361 -2.90638 0
M  V30 8722 C 859.353 0.866262 -3.00774 0
M  V30 8723 C 859.828 1.0371 -4.46103 0
M  V30 8724 N 861.319 1.10294 -4.49877 0
M  V30 8725 C 862.054 1.25369 -5.59527 0
M  V30 8726 N 861.55 1.37246 -6.7907 0
M  V30 8727 N 863.343 1.28377 -5.47244 0
M  V30 8728 H 855.494 -0.547226 -2.0523 0
M  V30 8729 H 857.757 -0.183298 -0.930111 0
M  V30 8730 H 857.463 -0.0899485 -3.51585 0
M  V30 8731 H 857.337 1.65569 -3.3892 0
M  V30 8732 H 859.724 1.71805 -2.39931 0
M  V30 8733 H 859.805 -0.0424049 -2.55765 0
M  V30 8734 H 859.449 0.190021 -5.07544 0
M  V30 8735 H 859.379 1.96022 -4.88757 0
M  V30 8736 H 861.87 1.02407 -3.6376 0
M  V30 8737 H 862.183 1.48546 -7.58389 0
M  V30 8738 H 860.528 1.34274 -6.81906 0
M  V30 8739 H 863.719 1.1872 -4.52795 0
M  V30 8740 H 863.892 1.39782 -6.32744 0
M  V30 8741 N 857.298 1.47698 0.54982 0
M  V30 8742 C 858.709 1.48474 1.13191 0
M  V30 8743 C 859.06 0.243504 1.94683 0
M  V30 8744 O 858.185 -0.651009 2.06375 0
M  V30 8745 C 858.78 2.69022 2.05944 0
M  V30 8746 C 857.339 2.72733 2.5941 0
M  V30 8747 C 856.486 2.41691 1.35944 0
M  V30 8748 H 859.437 1.55101 0.336048 0
M  V30 8749 H 859.458 2.46412 2.89934 0
M  V30 8750 H 858.97 3.59345 1.46605 0
M  V30 8751 H 857.071 1.86568 3.22526 0
M  V30 8752 H 857.184 3.73628 2.99899 0
M  V30 8753 H 855.548 1.92428 1.66864 0
M  V30 8754 H 856.331 3.34231 0.783869 0
M  V30 8755 N 858.776 -0.797141 1.35954 0
M  V30 8756 C 860.192 -1.09408 1.16198 0
M  V30 8757 C 860.392 -2.01491 -0.0191682 0
M  V30 8758 O 859.448 -2.42977 -0.686902 0
M  V30 8759 C 860.761 -1.71597 2.46931 0
M  V30 8760 C 862.309 -1.83974 2.53224 0
M  V30 8761 C 862.784 -2.49579 3.84024 0
M  V30 8762 N 864.275 -2.57055 3.85327 0
M  V30 8763 C 865.01 -3.08608 4.83268 0
M  V30 8764 N 864.506 -3.60527 5.91601 0
M  V30 8765 N 866.299 -3.07249 4.70696 0
M  V30 8766 H 858.45 -0.185209 2.11591 0
M  V30 8767 H 860.713 -0.144768 0.936881 0
M  V30 8768 H 860.419 -1.11404 3.3359 0
M  V30 8769 H 860.293 -2.71193 2.62172 0
M  V30 8770 H 862.68 -2.43308 1.66988 0
M  V30 8771 H 862.761 -0.83207 2.41889 0
M  V30 8772 H 862.405 -1.90892 4.70662 0
M  V30 8773 H 862.335 -3.50902 3.92651 0
M  V30 8774 H 864.826 -2.20283 3.07057 0
M  V30 8775 H 865.139 -3.98192 6.62317 0
M  V30 8776 H 863.484 -3.587 5.95281 0
M  V30 8777 H 866.675 -2.65972 3.85197 0
M  V30 8778 H 866.848 -3.47119 5.47186 0
M  V30 8779 N 860.254 -1.20106 -1.0204 0
M  V30 8780 C 861.502 -1.0069 -1.75231 0
M  V30 8781 C 861.823 0.462491 -1.89436 0
M  V30 8782 O 861.093 1.33455 -1.4341 0
M  V30 8783 H 859.673 -0.369576 -0.649171 0
M  V30 8784 H 862.335 -1.51149 -1.23044 0
M  V30 8785 H 861.431 -1.46205 -2.75736 0
M  V30 8786 N 861.732 1.21287 -1.00634 0
M  V30 8787 C 862.664 2.2308 -0.526094 0
M  V30 8788 C 863.677 1.58157 0.386031 0
M  V30 8789 O 864.866 1.77528 0.186016 0
M  V30 8790 C 861.966 3.37937 0.255289 0
M  V30 8791 C 861.139 4.32449 -0.656236 0
M  V30 8792 C 860.198 5.26145 0.0757714 0
M  V30 8793 O 859.224 5.66601 -0.543325 0
M  V30 8794 N 860.426 5.6449 1.35391 0
M  V30 8795 H 863.191 2.64913 -1.40147 0
M  V30 8796 H 860.752 1.35724 -0.882641 0
M  V30 8797 H 862.744 3.97614 0.753977 0
M  V30 8798 H 861.314 2.95078 1.03187 0
M  V30 8799 H 860.534 3.70892 -1.3354 0
M  V30 8800 H 861.822 4.92526 -1.27653 0
M  V30 8801 H 861.22 5.33617 1.878 0
M  V30 8802 H 859.777 6.26524 1.79753 0
M  V30 8803 N 863.21 0.781244 1.36873 0
M  V30 8804 C 864.621 0.414093 1.8205 0
M  V30 8805 C 864.972 -1.06098 1.65039 0
M  V30 8806 O 864.097 -1.82251 1.16677 0
M  V30 8807 C 864.692 0.744837 3.30511 0
M  V30 8808 C 863.251 0.430621 3.73929 0
M  V30 8809 C 862.398 0.983746 2.59264 0
M  V30 8810 H 865.349 0.975091 1.2521 0
M  V30 8811 H 865.37 0.032936 3.80486 0
M  V30 8812 H 864.882 1.81847 3.42861 0
M  V30 8813 H 862.983 -0.635308 3.67144 0
M  V30 8814 H 863.096 0.945514 4.69677 0
M  V30 8815 H 861.46 0.407433 2.5142 0
M  V30 8816 H 862.243 2.06297 2.74402 0
M  V30 8817 N 864.689 -1.48329 0.532571 0
M  V30 8818 C 865.637 -2.31336 -0.242133 0
M  V30 8819 C 866.631 -1.41391 -0.933006 0
M  V30 8820 O 867.837 -1.58284 -0.857096 0
M  V30 8821 H 864.212 -0.745724 -0.0969536 0
M  V30 8822 H 866.183 -2.94555 0.477504 0
M  V30 8823 C 864.932 -3.23501 -1.27446 0
M  V30 8824 H 864.255 -3.92659 -0.752261 0
M  V30 8825 H 865.695 -3.84461 -1.78789 0
M  V30 8826 C 864.154 -2.45288 -2.30944 0
M  V30 8827 O 864.684 -2.17955 -3.37429 0
M  V30 8828 N 862.89 -2.06737 -2.04226 0
M  V30 8829 H 862.437 -2.29166 -1.17647 0
M  V30 8830 H 862.395 -1.54719 -2.73696 0
M  V30 8831 N 866.167 -0.267825 -1.55308 0
M  V30 8832 C 867.099 0.65591 -2.19614 0
M  V30 8833 C 868.112 1.12302 -1.17865 0
M  V30 8834 O 869.301 1.04618 -1.44628 0
M  V30 8835 C 866.401 1.90582 -2.80235 0
M  V30 8836 C 865.574 1.58673 -4.07605 0
M  V30 8837 C 864.633 2.68836 -4.52343 0
M  V30 8838 O 863.659 2.35331 -5.18274 0
M  V30 8839 N 864.861 3.98752 -4.21873 0
M  V30 8840 H 867.626 0.105566 -2.99514 0
M  V30 8841 H 865.187 -0.0886263 -1.61657 0
M  V30 8842 H 867.179 2.63561 -3.07112 0
M  V30 8843 H 865.749 2.3654 -2.04371 0
M  V30 8844 H 864.969 0.691113 -3.88094 0
M  V30 8845 H 866.257 1.34845 -4.90606 0
M  V30 8846 H 865.655 4.28797 -3.68985 0
M  V30 8847 H 864.212 4.68131 -4.53537 0
M  V30 8848 N 867.645 1.57599 0.00500368 0
M  V30 8849 C 868.885 1.92205 0.695456 0
M  V30 8850 C 869.249 0.868894 1.71214 0
M  V30 8851 O 870.45 1.10004 2.4526 0
M  V30 8852 C 868.721 3.31882 1.32625 0
M  V30 8853 S 870.28 3.88364 2.04252 0
M  V30 8854 H 867.098 0.672826 0.22984 0
M  V30 8855 H 869.7 1.95435 -0.0504824 0
M  V30 8856 H 868.404 4.06375 0.573396 0
M  V30 8857 H 867.935 3.32013 2.11023 0
M  V30 8858 H 869.95 3.69035 3.31704 0
M  V30 8859 N 869.123 -0.277682 1.55134 0
M  V30 8860 C 870.369 -1.0114 1.7578 0
M  V30 8861 C 870.702 -1.86109 0.554719 0
M  V30 8862 O 869.977 -1.89275 -0.447813 0
M  V30 8863 C 870.26 -1.89789 3.06027 0
M  V30 8864 C 870.113 -1.07844 4.3668 0
M  V30 8865 C 871.432 -2.88577 3.32282 0
M  V30 8866 H 868.551 -0.366277 0.639539 0
M  V30 8867 H 871.193 -0.284155 1.87863 0
M  V30 8868 H 869.343 -2.51796 2.95856 0
M  V30 8869 H 871.015 -0.479432 4.58802 0
M  V30 8870 H 869.258 -0.381764 4.32117 0
M  V30 8871 H 869.929 -1.73179 5.24131 0
M  V30 8872 H 872.405 -2.36702 3.42215 0
M  V30 8873 H 871.281 -3.47749 4.2469 0
M  V30 8874 H 871.542 -3.63458 2.51696 0
M  V30 8875 N 870.601 -1.47988 -0.541979 0
M  V30 8876 C 871.849 -1.55086 -1.29587 0
M  V30 8877 C 872.17 -0.221304 -1.9374 0
M  V30 8878 O 871.44 0.756128 -1.80719 0
M  V30 8879 H 870.02 -0.571307 -0.481266 0
M  V30 8880 H 872.682 -1.8438 -0.631675 0
M  V30 8881 H 871.778 -2.32556 -2.08144 0
M  V30 8882 N 872.079 0.78992 -1.36375 0
M  V30 8883 C 873.029 1.89227 -1.27189 0
M  V30 8884 C 874.013 1.60067 -0.163498 0
M  V30 8885 O 875.205 1.72507 -0.396262 0
M  V30 8886 C 872.334 3.26431 -1.06292 0
M  V30 8887 C 871.42 3.61602 -2.21596 0
M  V30 8888 N 871.811 3.68086 -3.4691 0
M  V30 8889 C 870.109 3.9166 -2.1335 0
M  V30 8890 C 870.81 3.99481 -4.22835 0
M  V30 8891 N 869.786 4.14438 -3.5177 0
M  V30 8892 H 873.588 1.92465 -2.22113 0
M  V30 8893 H 871.102 0.985414 -1.29087 0
M  V30 8894 H 873.099 4.05267 -0.97798 0
M  V30 8895 H 871.759 3.24468 -0.122676 0
M  V30 8896 H 872.77 3.50743 -3.81051 0
M  V30 8897 H 869.447 3.97626 -1.27279 0
M  V30 8898 H 870.837 4.11425 -5.31205 0
M  V30 8899 N 873.557 1.20646 1.01402 0
M  V30 8900 C 874.973 0.961866 1.27359 0
M  V30 8901 C 875.173 -0.357083 1.98311 0
M  V30 8902 O 874.229 -1.08498 2.28001 0
M  V30 8903 C 875.542 2.14627 2.10609 0
M  V30 8904 C 877.09 2.18753 2.23866 0
M  V30 8905 C 877.565 3.36686 3.10494 0
M  V30 8906 N 879.056 3.36716 3.18083 0
M  V30 8907 C 879.791 4.24615 3.85343 0
M  V30 8908 N 879.287 5.22697 4.54708 0
M  V30 8909 N 881.08 4.12449 3.81893 0
M  V30 8910 H 873.231 2.05481 0.537721 0
M  V30 8911 H 875.494 0.899292 0.299963 0
M  V30 8912 H 875.2 3.10159 1.65814 0
M  V30 8913 H 875.074 2.12935 3.11349 0
M  V30 8914 H 877.461 1.23782 2.67885 0
M  V30 8915 H 877.542 2.24492 1.22626 0
M  V30 8916 H 877.186 4.31945 2.67181 0
M  V30 8917 H 877.116 3.28185 4.11828 0
M  V30 8918 H 879.607 2.65728 2.68695 0
M  V30 8919 H 879.92 5.86087 5.03708 0
M  V30 8920 H 878.265 5.26631 4.53525 0
M  V30 8921 H 881.456 3.35091 3.26851 0
M  V30 8922 H 881.629 4.81162 4.34035 0
M  V30 8923 N 875.035 -1.20752 1.01276 0
M  V30 8924 C 875.945 -2.27079 0.589277 0
M  V30 8925 C 876.961 -1.6999 -0.371389 0
M  V30 8926 O 878.137 -2.00044 -0.233294 0
M  V30 8927 C 875.202 -3.4663 -0.0696715 0
M  V30 8928 C 874.263 -4.18962 0.936454 0
M  V30 8929 C 873.496 -5.32806 0.308856 0
M  V30 8930 O 873.719 -5.63376 -0.8924 0
M  V30 8931 O 872.653 -5.93131 1.02367 0
M  V30 8932 H 876.479 -2.6551 1.47438 0
M  V30 8933 H 874.064 -1.27297 0.782045 0
M  V30 8934 H 875.946 -4.19119 -0.437873 0
M  V30 8935 H 874.621 -3.10082 -0.929029 0
M  V30 8936 H 873.528 -3.48661 1.35595 0
M  V30 8937 H 874.861 -4.59441 1.76565 0
M  V30 8938 N 876.513 -0.788492 -1.36457 0
M  V30 8939 C 877.476 -0.192209 -2.28393 0
M  V30 8940 C 878.476 0.609916 -1.48784 0
M  V30 8941 O 879.666 0.431046 -1.68783 0
M  V30 8942 C 876.798 0.734096 -3.32902 0
M  V30 8943 H 877.991 -1.00284 -2.82636 0
M  V30 8944 H 875.544 -0.557852 -1.46006 0
M  V30 8945 H 876.279 1.5691 -2.83813 0
M  V30 8946 H 876.064 0.160875 -3.9177 0
M  V30 8947 H 877.554 1.1462 -4.01562 0
M  V30 8948 N 877.991 1.48044 -0.54043 0
M  V30 8949 C 879.216 2.07396 -0.0124765 0
M  V30 8950 C 879.641 1.39288 1.26414 0
M  V30 8951 O 878.999 0.462252 1.75308 0
M  V30 8952 C 879.047 3.60131 0.18377 0
M  V30 8953 O 878.151 3.92995 1.25014 0
M  V30 8954 H 877.492 0.662554 -0.0438026 0
M  V30 8955 H 880.022 1.90306 -0.751327 0
M  V30 8956 H 880.032 4.06003 0.403197 0
M  V30 8957 H 878.707 4.09105 -0.74874 0
M  V30 8958 H 877.284 3.5889 1.01254 0
M  V30 8959 N 879.47 0.276058 1.55163 0
M  V30 8960 C 880.719 -0.341098 1.98795 0
M  V30 8961 C 881.032 -1.56905 1.16791 0
M  V30 8962 O 882.238 -2.25922 1.50571 0
M  V30 8963 C 880.694 -0.658231 3.5383 0
M  V30 8964 C 880.302 0.549972 4.44611 0
M  V30 8965 C 882.046 -1.23796 4.06048 0
M  V30 8966 C 879.953 0.207373 5.91036 0
M  V30 8967 H 878.883 -0.131224 0.742493 0
M  V30 8968 H 881.534 0.380858 1.79504 0
M  V30 8969 H 879.916 -1.43911 3.68925 0
M  V30 8970 H 881.09 1.32681 4.41285 0
M  V30 8971 H 879.405 1.04661 4.03032 0
M  V30 8972 H 882.002 -1.50811 5.12991 0
M  V30 8973 H 882.345 -2.17214 3.55139 0
M  V30 8974 H 882.878 -0.519345 3.94395 0
M  V30 8975 H 879.617 1.10946 6.46043 0
M  V30 8976 H 879.137 -0.532687 5.9743 0
M  V30 8977 H 880.816 -0.200072 6.46691 0
M  V30 8978 N 880.948 -1.576 0.00335426 0
M  V30 8979 C 881.898 -2.05116 -0.995562 0
M  V30 8980 C 882.882 -0.946535 -1.30113 0
M  V30 8981 O 884.074 -1.21028 -1.29156 0
M  V30 8982 C 881.203 -2.56077 -2.28648 0
M  V30 8983 C 880.289 -3.73422 -2.0104 0
M  V30 8984 N 880.68 -4.84986 -1.43603 0
M  V30 8985 C 878.978 -3.81416 -2.31166 0
M  V30 8986 C 879.679 -5.66399 -1.32542 0
M  V30 8987 N 878.655 -5.12505 -1.81218 0
M  V30 8988 H 882.457 -2.88783 -0.546025 0
M  V30 8989 H 879.971 -1.61135 -0.202265 0
M  V30 8990 H 881.968 -2.88395 -3.01055 0
M  V30 8991 H 880.628 -1.73829 -2.74251 0
M  V30 8992 H 881.639 -5.05768 -1.11439 0
M  V30 8993 H 878.316 -3.1003 -2.7962 0
M  V30 8994 H 879.706 -6.66066 -0.88348 0
M  V30 8995 N 882.426 0.269451 -1.5528 0
M  V30 8996 C 883.389 1.31642 -1.87625 0
M  V30 8997 C 884.389 1.42182 -0.751058 0
M  V30 8998 O 885.579 1.41272 -1.01921 0
M  V30 8999 C 882.711 2.6973 -2.08467 0
M  V30 9000 H 883.904 1.0419 -2.81219 0
M  V30 9001 H 881.457 0.507685 -1.47825 0
M  V30 9002 H 882.192 3.02356 -1.17266 0
M  V30 9003 H 881.977 2.63465 -2.90394 0
M  V30 9004 H 883.467 3.4537 -2.34753 0
M  V30 9005 N 883.904 1.48273 0.534124 0
M  V30 9006 C 885.129 1.59988 1.31979 0
M  V30 9007 C 885.554 0.258824 1.86311 0
M  V30 9008 O 884.912 -0.768885 1.64188 0
M  V30 9009 C 884.96 2.64642 2.44943 0
M  V30 9010 O 884.064 2.21515 3.47858 0
M  V30 9011 H 883.405 0.536625 0.391063 0
M  V30 9012 H 885.935 1.94229 0.643135 0
M  V30 9013 H 885.945 2.85786 2.91187 0
M  V30 9014 H 884.62 3.62004 2.04758 0
M  V30 9015 H 883.197 2.10567 3.0776 0
M  V30 9016 N 885.382 -0.782676 1.36792 0
M  V30 9017 C 886.622 -1.55396 1.32784 0
M  V30 9018 C 886.986 -1.91789 -0.0900272 0
M  V30 9019 O 888.187 -2.6759 -0.254725 0
M  V30 9020 C 886.458 -2.79227 2.23085 0
M  V30 9021 S 888.017 -3.69404 2.36825 0
M  V30 9022 H 884.835 -0.532139 0.471539 0
M  V30 9023 H 887.437 -0.921285 1.72431 0
M  V30 9024 H 886.141 -2.50553 3.25041 0
M  V30 9025 H 885.672 -3.47462 1.84482 0
M  V30 9026 H 887.687 -4.70683 1.57074 0
M  V30 9027 N 886.86 -1.21182 -1.00761 0
M  V30 9028 C 888.1 -1.03886 -1.76031 0
M  V30 9029 C 888.464 0.420593 -1.87337 0
M  V30 9030 O 889.665 0.713994 -2.59144 0
M  V30 9031 C 887.936 -1.71394 -3.13622 0
M  V30 9032 S 889.495 -1.69319 -4.04816 0
M  V30 9033 H 886.313 -0.372327 -0.605717 0
M  V30 9034 H 888.915 -1.53885 -1.20581 0
M  V30 9035 H 887.619 -2.76773 -3.03026 0
M  V30 9036 H 887.15 -1.21564 -3.74147 0
M  V30 9037 H 889.165 -0.732434 -4.90765 0
M  V30 9038 N 888.338 1.20213 -1.01915 0
M  V30 9039 C 889.288 2.20957 -0.562327 0
M  V30 9040 C 890.272 1.56258 0.383704 0
M  V30 9041 O 891.464 1.75794 0.206255 0
M  V30 9042 C 888.593 3.43167 0.0954035 0
M  V30 9043 C 887.679 4.15028 -0.872487 0
M  V30 9044 N 888.07 4.63231 -2.03103 0
M  V30 9045 C 886.368 4.4057 -0.69385 0
M  V30 9046 C 887.069 5.18307 -2.64069 0
M  V30 9047 N 886.045 5.08522 -1.9211 0
M  V30 9048 H 889.847 2.55894 -1.44553 0
M  V30 9049 H 887.361 1.36178 -0.884831 0
M  V30 9050 H 889.358 4.14569 0.440232 0
M  V30 9051 H 888.018 3.09734 0.974413 0
M  V30 9052 H 889.029 4.58365 -2.41086 0
M  V30 9053 H 885.706 4.17276 0.136889 0
M  V30 9054 H 887.096 5.65961 -3.6213 0
M  V30 9055 N 889.816 0.795718 1.36037 0
M  V30 9056 C 890.779 0.204318 2.28287 0
M  V30 9057 C 891.779 -0.602017 1.49105 0
M  V30 9058 O 892.969 -0.422089 1.69009 0
M  V30 9059 C 890.101 -0.716431 3.33287 0
M  V30 9060 H 891.294 1.01781 2.821 0
M  V30 9061 H 888.847 0.565588 1.45708 0
M  V30 9062 H 889.582 -1.55403 2.84641 0
M  V30 9063 H 889.367 -0.140096 3.9185 0
M  V30 9064 H 890.857 -1.12488 4.02164 0
M  V30 9065 N 891.294 -1.47756 0.548274 0
M  V30 9066 C 892.705 -1.8636 0.112547 0
M  V30 9067 C 893.056 -1.45589 -1.31523 0
M  V30 9068 O 892.181 -0.854874 -1.98799 0
M  V30 9069 C 892.776 -3.38224 0.197473 0
M  V30 9070 C 891.335 -3.75954 -0.183163 0
M  V30 9071 C 890.482 -2.7181 0.549059 0
M  V30 9072 H 893.433 -1.394 0.758506 0
M  V30 9073 H 893.454 -3.75957 -0.586217 0
M  V30 9074 H 892.966 -3.67868 1.23673 0
M  V30 9075 H 891.067 -3.51926 -1.22387 0
M  V30 9076 H 891.18 -4.78801 0.169178 0
M  V30 9077 H 889.544 -2.54699 -0.00682862 0
M  V30 9078 H 890.327 -3.04296 1.5893 0
M  V30 9079 N 892.772 -0.284283 -1.55015 0
M  V30 9080 C 894.02 0.329212 -1.99401 0
M  V30 9081 C 894.341 1.55687 -1.17416 0
M  V30 9082 O 893.611 1.94087 -0.265937 0
M  V30 9083 H 892.191 0.12463 -0.73653 0
M  V30 9084 H 894.853 -0.391743 -1.90922 0
M  V30 9085 H 893.949 0.61278 -3.06025 0
M  V30 9086 N 894.251 1.57596 -0.0117121 0
M  V30 9087 C 895.181 2.12188 0.9746 0
M  V30 9088 C 896.162 1.03379 1.35081 0
M  V30 9089 O 897.347 1.31123 1.4325 0
M  V30 9090 C 894.477 2.63477 2.26268 0
M  V30 9091 C 893.431 3.76917 2.02774 0
M  V30 9092 C 892.757 4.14566 3.37697 0
M  V30 9093 C 894.057 5.03715 1.38089 0
M  V30 9094 H 895.751 2.9485 0.520007 0
M  V30 9095 H 893.297 1.41836 0.248685 0
M  V30 9096 H 895.25 3.00299 2.95633 0
M  V30 9097 H 893.974 1.77953 2.73862 0
M  V30 9098 H 892.633 3.40507 1.35832 0
M  V30 9099 H 892.281 3.26048 3.83016 0
M  V30 9100 H 891.981 4.91 3.22789 0
M  V30 9101 H 893.505 4.53956 4.08358 0
M  V30 9102 H 894.919 5.38233 1.97428 0
M  V30 9103 H 893.316 5.85032 1.33634 0
M  V30 9104 H 894.386 4.83624 0.351575 0
M  V30 9105 N 895.729 -0.261212 1.5542 0
M  V30 9106 C 896.639 -1.34493 1.92221 0
M  V30 9107 C 897.655 -1.53421 0.82086 0
M  V30 9108 O 898.831 -1.6732 1.12099 0
M  V30 9109 C 895.896 -2.68209 2.19692 0
M  V30 9110 C 894.957 -2.57927 3.43179 0
M  V30 9111 C 894.19 -3.85266 3.69331 0
M  V30 9112 O 894.413 -4.86493 2.97793 0
M  V30 9113 O 893.347 -3.8476 4.62865 0
M  V30 9114 H 897.173 -1.06278 2.84497 0
M  V30 9115 H 894.758 -0.460752 1.42118 0
M  V30 9116 H 896.64 -3.47252 2.38734 0
M  V30 9117 H 895.315 -2.96186 1.30597 0
M  V30 9118 H 894.222 -1.77219 3.2946 0
M  V30 9119 H 895.555 -2.34898 4.32532 0
M  V30 9120 N 897.207 -1.48554 -0.526253 0
M  V30 9121 C 898.447 -1.58362 -1.29232 0
M  V30 9122 C 898.811 -0.253353 -1.90321 0
M  V30 9123 O 900.012 -0.226439 -2.67845 0
M  V30 9124 C 898.283 -2.69294 -2.3498 0
M  V30 9125 S 899.842 -2.98891 -3.21262 0
M  V30 9126 H 896.66 -0.558859 -0.439543 0
M  V30 9127 H 899.262 -1.86094 -0.599099 0
M  V30 9128 H 897.966 -3.64504 -1.88587 0
M  V30 9129 H 897.497 -2.43475 -3.09004 0
M  V30 9130 H 899.512 -2.38475 -4.35137 0
M  V30 9131 N 898.685 0.775411 -1.37205 0
M  V30 9132 C 899.632 1.88857 -1.32671 0
M  V30 9133 C 900.602 1.64976 -0.192899 0
M  V30 9134 O 901.787 1.86944 -0.381673 0
M  V30 9135 C 898.927 3.25871 -1.13588 0
M  V30 9136 C 898.04 3.61731 -2.36167 0
M  V30 9137 C 897.175 4.87934 -2.09985 0
M  V30 9138 C 896.214 5.16514 -3.2845 0
M  V30 9139 N 895.351 6.33905 -3.01842 0
M  V30 9140 H 900.191 1.92068 -2.27846 0
M  V30 9141 H 897.728 0.939066 -1.13225 0
M  V30 9142 H 899.686 4.04903 -1.00546 0
M  V30 9143 H 898.316 3.22045 -0.220613 0
M  V30 9144 H 897.368 2.77712 -2.59962 0
M  V30 9145 H 898.68 3.78792 -3.24528 0
M  V30 9146 H 897.834 5.74863 -1.93953 0
M  V30 9147 H 896.573 4.7297 -1.18956 0
M  V30 9148 H 895.578 4.28063 -3.45025 0
M  V30 9149 H 896.803 5.33389 -4.20325 0
M  V30 9150 H 894.749 6.20306 -2.13439 0
M  V30 9151 H 894.666 6.51364 -3.83746 0
M  V30 9152 H 895.934 7.23779 -2.8942 0
M  V30 9153 N 900.163 1.21714 1.00117 0
M  V30 9154 C 901.409 1.03823 1.74208 0
M  V30 9155 C 901.742 -0.426733 1.89454 0
M  V30 9156 O 901.017 -1.31658 1.43166 0
M  V30 9157 C 901.3 1.74047 3.15246 0
M  V30 9158 C 901.153 3.28087 3.077 0
M  V30 9159 C 902.472 1.48614 4.14249 0
M  V30 9160 H 899.591 0.378573 0.632338 0
M  V30 9161 H 902.233 1.49942 1.16694 0
M  V30 9162 H 900.383 1.3484 3.64349 0
M  V30 9163 H 902.055 3.76686 2.6628 0
M  V30 9164 H 900.298 3.58191 2.44707 0
M  V30 9165 H 900.969 3.72392 4.07466 0
M  V30 9166 H 903.445 1.82656 3.73866 0
M  V30 9167 H 902.321 2.00257 5.11066 0
M  V30 9168 H 902.582 0.416957 4.40129 0
M  V30 9169 N 901.641 -1.19671 1.02551 0
M  V30 9170 C 902.588 -2.22773 0.603394 0
M  V30 9171 C 903.558 -1.61669 -0.381081 0
M  V30 9172 O 904.743 -1.88756 -0.278505 0
M  V30 9173 C 901.883 -3.45073 -0.0431034 0
M  V30 9174 C 900.996 -4.20574 0.987006 0
M  V30 9175 C 900.131 -5.30291 0.310626 0
M  V30 9176 C 899.17 -5.97545 1.32688 0
M  V30 9177 N 898.307 -6.98833 0.676542 0
M  V30 9178 H 903.147 -2.58238 1.48719 0
M  V30 9179 H 900.684 -1.26881 0.744286 0
M  V30 9180 H 902.642 -4.14925 -0.435141 0
M  V30 9181 H 901.272 -3.10274 -0.890495 0
M  V30 9182 H 900.324 -3.497 1.49713 0
M  V30 9183 H 901.636 -4.66736 1.75952 0
M  V30 9184 H 900.79 -6.06547 -0.136438 0
M  V30 9185 H 899.529 -4.8519 -0.49412 0
M  V30 9186 H 898.534 -5.20043 1.78424 0
M  V30 9187 H 899.759 -6.4473 2.13306 0
M  V30 9188 H 897.705 -6.55911 -0.108172 0
M  V30 9189 H 897.622 -7.43168 1.38699 0
M  V30 9190 H 898.89 -7.79088 0.253367 0
M  V30 9191 N 903.119 -0.802921 -1.35613 0
M  V30 9192 C 904.029 -0.212177 -2.33639 0
M  V30 9193 C 905.045 0.642871 -1.61689 0
M  V30 9194 O 906.221 0.555485 -1.93588 0
M  V30 9195 C 903.286 0.632406 -3.40883 0
M  V30 9196 C 902.347 -0.242708 -4.28613 0
M  V30 9197 C 901.58 0.56166 -5.30736 0
M  V30 9198 O 901.803 1.79664 -5.41366 0
M  V30 9199 O 900.737 -0.0455387 -6.01883 0
M  V30 9200 H 904.563 -1.023 -2.85952 0
M  V30 9201 H 902.148 -0.564636 -1.38319 0
M  V30 9202 H 904.03 1.11358 -4.0642 0
M  V30 9203 H 902.705 1.42089 -2.90848 0
M  V30 9204 H 901.612 -0.77094 -3.6607 0
M  V30 9205 H 902.945 -0.995046 -4.82037 0
M  V30 9206 N 904.597 1.47463 -0.556102 0
M  V30 9207 C 905.547 2.27007 0.212592 0
M  V30 9208 C 906.531 1.34288 0.886312 0
M  V30 9209 O 907.723 1.5865 0.784801 0
M  V30 9210 C 904.852 3.20021 1.24263 0
M  V30 9211 C 903.938 4.2022 0.572385 0
M  V30 9212 N 904.329 5.04539 -0.35691 0
M  V30 9213 C 902.627 4.38276 0.826441 0
M  V30 9214 C 903.328 5.76895 -0.746134 0
M  V30 9215 N 902.304 5.43506 -0.101225 0
M  V30 9216 H 906.106 2.89582 -0.501925 0
M  V30 9217 H 903.62 1.57988 -0.375961 0
M  V30 9218 H 905.617 3.7569 1.80728 0
M  V30 9219 H 904.277 2.59003 1.95826 0
M  V30 9220 H 905.288 5.12715 -0.731012 0
M  V30 9221 H 901.965 3.88429 1.53066 0
M  V30 9222 H 903.355 6.5472 -1.50967 0
M  V30 9223 N 906.075 0.2925 1.54862 0
M  V30 9224 C 907.323 -0.318633 1.99572 0
M  V30 9225 C 907.644 -1.55062 1.1824 0
M  V30 9226 O 906.914 -1.93943 0.276226 0
M  V30 9227 H 905.494 -0.120722 0.737181 0
M  V30 9228 H 908.156 0.401862 1.90712 0
M  V30 9229 H 907.252 -0.596542 3.06346 0
M  V30 9230 N 907.553 -1.57587 0.0200696 0
M  V30 9231 C 908.802 -1.90602 -0.659822 0
M  V30 9232 C 909.115 -0.897216 -1.73808 0
M  V30 9233 O 910.321 -1.11829 -2.47399 0
M  V30 9234 C 908.777 -3.38416 -1.22484 0
M  V30 9235 C 908.385 -4.47637 -0.180339 0
M  V30 9236 C 910.129 -3.80513 -1.88176 0
M  V30 9237 C 908.036 -5.86542 -0.756482 0
M  V30 9238 H 906.966 -0.711272 -0.250216 0
M  V30 9239 H 909.617 -1.83308 0.0838942 0
M  V30 9240 H 907.999 -3.40613 -2.01987 0
M  V30 9241 H 909.173 -4.56987 0.591573 0
M  V30 9242 H 907.488 -4.14687 0.377302 0
M  V30 9243 H 910.085 -4.8164 -2.32222 0
M  V30 9244 H 910.428 -3.15091 -2.72073 0
M  V30 9245 H 910.961 -3.80701 -1.15377 0
M  V30 9246 H 907.7 -6.55485 0.0441468 0
M  V30 9247 H 907.22 -5.80816 -1.49709 0
M  V30 9248 H 908.899 -6.3483 -1.249 0
M  V30 9249 N 909.032 0.252966 -1.55557 0
M  V30 9250 C 910.443 0.822503 -1.67606 0
M  V30 9251 C 910.794 1.86265 -0.616411 0
M  V30 9252 O 909.919 2.15082 0.238447 0
M  V30 9253 C 910.514 1.49866 -3.03852 0
M  V30 9254 C 909.073 2.01597 -3.17861 0
M  V30 9255 C 908.22 0.864943 -2.63465 0
M  V30 9256 H 911.171 0.0288958 -1.58674 0
M  V30 9257 H 911.192 2.36646 -2.97958 0
M  V30 9258 H 910.704 0.741378 -3.80953 0
M  V30 9259 H 908.805 2.80224 -2.45571 0
M  V30 9260 H 908.918 2.21752 -4.24692 0
M  V30 9261 H 907.282 1.2638 -2.21134 0
M  V30 9262 H 908.065 0.120847 -3.43087 0
M  V30 9263 N 910.51 1.48831 0.518367 0
M  V30 9264 C 911.473 1.63721 1.604 0
M  V30 9265 C 912.473 0.509857 1.52503 0
M  V30 9266 O 913.663 0.775922 1.55965 0
M  V30 9267 C 910.795 1.61831 3.00039 0
M  V30 9268 H 911.988 2.60534 1.48533 0
M  V30 9269 H 909.541 1.37602 0.741309 0
M  V30 9270 H 910.276 0.665387 3.17401 0
M  V30 9271 H 910.061 2.43686 3.0718 0
M  V30 9272 H 911.551 1.75467 3.78947 0
M  V30 9273 N 911.988 -0.768124 1.37614 0
M  V30 9274 C 913.399 -1.34462 1.29525 0
M  V30 9275 C 913.75 -1.96121 -0.0555168 0
M  V30 9276 O 912.875 -1.94069 -0.957406 0
M  V30 9277 C 913.47 -2.44475 2.34558 0
M  V30 9278 C 912.029 -2.97883 2.30093 0
M  V30 9279 C 911.176 -1.71131 2.18196 0
M  V30 9280 H 914.127 -0.568103 1.48183 0
M  V30 9281 H 914.148 -3.24047 1.99434 0
M  V30 9282 H 913.66 -1.99568 3.32858 0
M  V30 9283 H 911.761 -3.47156 1.35328 0
M  V30 9284 H 911.874 -3.53251 3.23652 0
M  V30 9285 H 910.238 -1.94197 1.64802 0
M  V30 9286 H 911.021 -1.28323 3.18415 0
M  V30 9287 N 913.466 -1.22244 -0.994698 0
M  V30 9288 C 914.398 -0.948706 -2.08644 0
M  V30 9289 C 915.411 0.0720049 -1.62641 0
M  V30 9290 O 916.6 -0.161778 -1.77765 0
M  V30 9291 C 913.7 -0.404885 -3.36473 0
M  V30 9292 C 912.873 -1.48239 -4.11514 0
M  V30 9293 C 911.932 -0.94597 -5.17627 0
M  V30 9294 O 910.958 -1.63177 -5.45309 0
M  V30 9295 N 912.16 0.23355 -5.8003 0
M  V30 9296 H 914.925 -1.88858 -2.32707 0
M  V30 9297 H 912.486 -1.12908 -1.16032 0
M  V30 9298 H 914.478 -0.0313903 -4.04688 0
M  V30 9299 H 913.048 0.440061 -3.09487 0
M  V30 9300 H 912.268 -2.02928 -3.37955 0
M  V30 9301 H 913.556 -2.20741 -4.58422 0
M  V30 9302 H 912.954 0.80756 -5.59906 0
M  V30 9303 H 911.511 0.54845 -6.49488 0
M  V30 9304 N 914.944 1.19125 -1.03184 0
M  V30 9305 C 915.854 2.26112 -0.625329 0
M  V30 9306 C 916.87 1.7056 0.344298 0
M  V30 9307 O 918.046 2.0039 0.20144 0
M  V30 9308 C 915.111 3.46697 0.0145169 0
M  V30 9309 C 914.172 4.17419 -1.00299 0
M  V30 9310 C 913.405 5.32247 -0.393581 0
M  V30 9311 O 913.628 5.64724 0.802659 0
M  V30 9312 O 912.562 5.91428 -1.1179 0
M  V30 9313 H 916.388 2.63131 -1.51643 0
M  V30 9314 H 913.973 1.26036 -0.802197 0
M  V30 9315 H 915.855 4.19762 0.371139 0
M  V30 9316 H 914.53 3.11521 0.879581 0
M  V30 9317 H 913.437 3.4646 -1.41125 0
M  V30 9318 H 914.77 4.56573 -1.83852 0
M  V30 9319 N 916.422 0.810101 1.35185 0
M  V30 9320 C 917.354 0.180581 2.28488 0
M  V30 9321 C 918.367 -0.622154 1.50443 0
M  V30 9322 O 919.556 -0.453938 1.72632 0
M  V30 9323 C 916.656 -0.766447 3.30119 0
M  V30 9324 C 915.829 -0.00932028 4.37399 0
M  V30 9325 C 914.888 -0.875354 5.18868 0
M  V30 9326 O 913.914 -0.325012 5.68271 0
M  V30 9327 N 915.116 -2.19695 5.37321 0
M  V30 9328 H 917.881 0.98212 2.83151 0
M  V30 9329 H 915.442 0.665879 1.47573 0
M  V30 9330 H 917.434 -1.35012 3.81515 0
M  V30 9331 H 916.004 -1.46878 2.75945 0
M  V30 9332 H 915.224 0.755585 3.86891 0
M  V30 9333 H 916.512 0.512352 5.06214 0
M  V30 9334 H 915.91 -2.66797 4.98834 0
M  V30 9335 H 914.467 -2.72978 5.91884 0
M  V30 9336 N 917.9 -1.47166 0.563914 0
M  V30 9337 C 919.146 -2.02756 0.0424338 0
M  V30 9338 C 919.479 -1.43662 -1.3067 0
M  V30 9339 O 918.754 -0.594676 -1.85186 0
M  V30 9340 C 919.037 -3.60074 -0.0434793 0
M  V30 9341 C 918.89 -4.29587 1.33323 0
M  V30 9342 C 920.209 -4.336 -0.753568 0
M  V30 9343 H 917.328 -0.736806 0.0168946 0
M  V30 9344 H 919.97 -1.75521 0.727496 0
M  V30 9345 H 918.12 -3.83409 -0.626906 0
M  V30 9346 H 919.792 -4.17573 1.96037 0
M  V30 9347 H 918.035 -3.8968 1.9061 0
M  V30 9348 H 918.706 -5.38218 1.22576 0
M  V30 9349 H 921.182 -4.15299 -0.258126 0
M  V30 9350 H 920.058 -5.43291 -0.782659 0
M  V30 9351 H 920.319 -4.03302 -1.81108 0
M  V30 9352 N 919.378 -0.300708 -1.54705 0
M  V30 9353 C 920.606 0.31127 -2.04545 0
M  V30 9354 C 921.021 1.47542 -1.178 0
M  V30 9355 O 920.378 1.81361 -0.203571 0
M  V30 9356 C 920.429 0.767783 -3.53253 0
M  V30 9357 O 920.15 -0.350027 -4.36699 0
M  V30 9358 C 921.651 1.44494 -4.1909 0
M  V30 9359 H 918.871 0.067668 -0.667579 0
M  V30 9360 H 921.415 -0.440254 -1.99705 0
M  V30 9361 H 919.57 1.46933 -3.58454 0
M  V30 9362 H 919.984 0.00534038 -5.245 0
M  V30 9363 H 921.458 1.71553 -5.24665 0
M  V30 9364 H 921.935 2.3849 -3.68808 0
M  V30 9365 H 922.541 0.786581 -4.17963 0
M  V30 9366 N 920.856 1.57574 -0.0284266 0
M  V30 9367 C 922.102 1.92056 0.651327 0
M  V30 9368 C 922.435 0.905092 1.71819 0
M  V30 9369 O 921.71 -0.0722703 1.94366 0
M  V30 9370 C 921.993 3.37021 1.26841 0
M  V30 9371 C 921.846 4.49304 0.211157 0
M  V30 9372 C 923.165 3.81936 2.18662 0
M  V30 9373 H 920.284 0.698428 0.235304 0
M  V30 9374 H 922.926 1.89807 -0.0855435 0
M  V30 9375 H 921.076 3.39068 1.89644 0
M  V30 9376 H 922.748 4.5939 -0.419379 0
M  V30 9377 H 920.991 4.31317 -0.463445 0
M  V30 9378 H 921.662 5.47764 0.682518 0
M  V30 9379 H 924.138 3.8162 1.65847 0
M  V30 9380 H 923.014 4.84064 2.58792 0
M  V30 9381 H 923.275 3.174 3.07749 0
M  V30 9382 N 922.334 -0.244713 1.55689 0
M  V30 9383 C 923.297 -1.2864 1.89695 0
M  V30 9384 C 924.297 -1.40969 0.773583 0
M  V30 9385 O 925.487 -1.39632 1.04156 0
M  V30 9386 C 922.619 -2.66379 2.12732 0
M  V30 9387 H 923.812 -0.997033 2.82841 0
M  V30 9388 H 921.365 -0.484103 1.48614 0
M  V30 9389 H 922.1 -3.00452 1.22062 0
M  V30 9390 H 921.885 -2.58812 2.94549 0
M  V30 9391 H 923.375 -3.41592 2.40218 0
M  V30 9392 N 923.813 -1.49104 -0.510467 0
M  V30 9393 C 925.053 -1.59723 -1.27545 0
M  V30 9394 C 925.417 -0.273525 -1.90042 0
M  V30 9395 O 926.618 -0.254835 -2.67589 0
M  V30 9396 C 924.889 -2.71771 -2.3211 0
M  V30 9397 S 926.448 -3.02282 -3.18074 0
M  V30 9398 H 923.266 -0.563489 -0.433591 0
M  V30 9399 H 925.868 -1.86719 -0.579328 0
M  V30 9400 H 924.572 -3.66483 -1.84711 0
M  V30 9401 H 924.103 -2.46739 -3.06404 0
M  V30 9402 H 926.118 -2.43076 -4.32583 0
M  V30 9403 N 925.291 0.760815 -1.38019 0
M  V30 9404 C 926.201 1.90526 -1.36884 0
M  V30 9405 C 927.217 1.71941 -0.266908 0
M  V30 9406 O 928.393 1.94988 -0.50413 0
M  V30 9407 C 925.458 3.25799 -1.18558 0
M  V30 9408 C 924.519 3.56961 -2.3849 0
M  V30 9409 C 923.752 4.8578 -2.21029 0
M  V30 9410 O 923.975 5.57629 -1.20023 0
M  V30 9411 O 922.909 5.16254 -3.0946 0
M  V30 9412 H 926.735 1.94437 -2.33298 0
M  V30 9413 H 924.32 0.905091 -1.18863 0
M  V30 9414 H 926.202 4.0669 -1.1037 0
M  V30 9415 H 924.877 3.22716 -0.252241 0
M  V30 9416 H 923.784 2.7626 -2.52252 0
M  V30 9417 H 925.117 3.64798 -3.30429 0
M  V30 9418 N 926.769 1.22769 0.988202 0
M  V30 9419 C 927.679 1.01844 2.11341 0
M  V30 9420 C 928.695 -0.0346937 1.73965 0
M  V30 9421 O 929.871 0.159061 2.00771 0
M  V30 9422 C 926.936 0.603837 3.41401 0
M  V30 9423 C 925.997 1.73113 3.92849 0
M  V30 9424 C 925.23 1.33621 5.16702 0
M  V30 9425 O 925.453 0.217041 5.69987 0
M  V30 9426 O 924.387 2.15444 5.62021 0
M  V30 9427 H 928.213 1.96127 2.31879 0
M  V30 9428 H 925.798 1.01405 1.09715 0
M  V30 9429 H 927.68 0.383196 4.19654 0
M  V30 9430 H 926.355 -0.310082 3.22211 0
M  V30 9431 H 925.262 2.00634 3.15748 0
M  V30 9432 H 926.595 2.62308 4.1648 0
M  V30 9433 N 928.247 -1.18576 1.03814 0
M  V30 9434 C 929.495 -1.88121 0.738574 0
M  V30 9435 C 929.816 -1.80587 -0.735744 0
M  V30 9436 O 929.086 -1.22251 -1.53074 0
M  V30 9437 H 927.666 -0.696417 0.270208 0
M  V30 9438 H 930.328 -1.43912 1.31435 0
M  V30 9439 H 929.424 -2.94222 1.04115 0
M  V30 9440 N 929.725 -0.817259 -1.34754 0
M  V30 9441 C 930.971 -0.412407 -1.99175 0
M  V30 9442 C 931.326 1.01192 -1.6364 0
M  V30 9443 O 930.619 1.69417 -0.894897 0
M  V30 9444 C 930.813 -0.5453 -3.53216 0
M  V30 9445 C 930.642 -1.981 -4.03716 0
M  V30 9446 C 929.412 -2.61167 -4.32574 0
M  V30 9447 C 931.61 -2.94698 -4.21494 0
M  V30 9448 N 929.592 -3.96035 -4.69073 0
M  V30 9449 C 930.963 -4.14462 -4.61109 0
M  V30 9450 C 933.018 -2.9139 -4.03728 0
M  V30 9451 C 931.721 -5.31363 -4.84815 0
M  V30 9452 C 933.747 -4.07502 -4.28598 0
M  V30 9453 C 933.109 -5.26016 -4.68494 0
M  V30 9454 H 929.208 -0.198899 -0.756282 0
M  V30 9455 H 931.792 -1.06076 -1.63266 0
M  V30 9456 H 929.963 0.073122 -3.88331 0
M  V30 9457 H 931.695 -0.113999 -4.04539 0
M  V30 9458 H 928.45 -2.12446 -4.23277 0
M  V30 9459 H 928.874 -4.65502 -4.91566 0
M  V30 9460 H 933.516 -2.00908 -3.72016 0
M  V30 9461 H 931.234 -6.22408 -5.15397 0
M  V30 9462 H 934.82 -4.06335 -4.16393 0
M  V30 9463 H 933.7 -6.14369 -4.87361 0
M  V30 9464 N 931.203 1.46865 -0.571711 0
M  V30 9465 C 932.431 2.06818 -0.0583975 0
M  V30 9466 C 932.846 1.42218 1.24175 0
M  V30 9467 O 932.203 0.523655 1.74826 0
M  V30 9468 C 932.254 3.61281 0.125673 0
M  V30 9469 O 931.975 4.23462 -1.123 0
M  V30 9470 C 933.476 4.38137 0.674604 0
M  V30 9471 H 930.696 0.668948 -0.052438 0
M  V30 9472 H 933.24 1.88656 -0.789251 0
M  V30 9473 H 931.395 3.78908 0.806707 0
M  V30 9474 H 931.809 5.16192 -0.929869 0
M  V30 9475 H 933.283 5.46845 0.752626 0
M  V30 9476 H 933.76 4.05419 1.68915 0
M  V30 9477 H 934.366 4.2529 0.0287979 0
M  V30 9478 N 932.681 0.308908 1.54543 0
M  V30 9479 C 933.611 -0.556657 2.26768 0
M  V30 9480 C 934.592 -1.13145 1.27013 0
M  V30 9481 O 935.777 -1.15931 1.558 0
M  V30 9482 C 932.907 -1.72481 3.01443 0
M  V30 9483 C 931.861 -1.28001 4.08411 0
M  V30 9484 C 931.187 -2.53395 4.70845 0
M  V30 9485 C 932.487 -0.405497 5.20724 0
M  V30 9486 H 934.181 0.0457618 2.99365 0
M  V30 9487 H 931.727 0.0234495 1.43981 0
M  V30 9488 H 933.68 -2.3365 3.50693 0
M  V30 9489 H 932.404 -2.35359 2.26437 0
M  V30 9490 H 931.063 -0.69133 3.60022 0
M  V30 9491 H 930.711 -3.14604 3.92471 0
M  V30 9492 H 930.411 -2.2433 5.43093 0
M  V30 9493 H 931.935 -3.15352 5.22863 0
M  V30 9494 H 933.349 -0.923076 5.6582 0
M  V30 9495 H 931.746 -0.208282 5.99738 0
M  V30 9496 H 932.816 0.567412 4.81569 0
M  V30 9497 N 934.159 -1.57557 0.0367827 0
M  V30 9498 C 935.387 -1.96419 -0.650168 0
M  V30 9499 C 935.802 -0.913656 -1.6522 0
M  V30 9500 O 935.159 0.103718 -1.82205 0
M  V30 9501 C 935.21 -3.35355 -1.3498 0
M  V30 9502 O 934.931 -4.36379 -0.387905 0
M  V30 9503 C 936.432 -3.88892 -2.12786 0
M  V30 9504 H 933.652 -0.646751 -0.178756 0
M  V30 9505 H 936.196 -2.04261 0.0988197 0
M  V30 9506 H 934.351 -3.28708 -2.05012 0
M  V30 9507 H 934.765 -5.16969 -0.885596 0
M  V30 9508 H 936.239 -4.88428 -2.5718 0
M  V30 9509 H 936.716 -3.23547 -2.97008 0
M  V30 9510 H 937.322 -3.98831 -1.47694 0
M  V30 9511 N 935.637 0.236453 -1.55816 0
M  V30 9512 C 936.885 0.96111 -1.77784 0
M  V30 9513 C 937.206 1.85454 -0.602648 0
M  V30 9514 O 936.476 1.92157 0.381137 0
M  V30 9515 H 935.056 0.35787 -0.655697 0
M  V30 9516 H 937.718 0.251888 -1.93265 0
M  V30 9517 H 936.814 1.5767 -2.69345 0
M  V30 9518 N 937.115 1.49373 0.502552 0
M  V30 9519 C 938.355 1.60398 1.26696 0
M  V30 9520 C 938.719 0.283599 1.89894 0
M  V30 9521 O 939.92 0.269022 2.6745 0
M  V30 9522 C 938.191 2.72998 2.30666 0
M  V30 9523 S 939.75 3.03964 3.16466 0
M  V30 9524 H 936.568 0.565781 0.430596 0
M  V30 9525 H 939.17 1.87024 0.569418 0
M  V30 9526 H 937.874 3.67458 1.82765 0
M  V30 9527 H 937.405 2.4836 3.05091 0
M  V30 9528 H 939.42 2.45367 4.31288 0
M  V30 9529 N 938.594 -0.753485 1.38421 0
M  V30 9530 C 939.819 -1.54783 1.38047 0
M  V30 9531 C 940.244 -1.8808 -0.0276371 0
M  V30 9532 O 939.602 -1.5058 -1.00973 0
M  V30 9533 C 939.65 -2.82353 2.24297 0
M  V30 9534 O 938.754 -3.77509 1.66014 0
M  V30 9535 H 938.095 -0.468151 0.470883 0
M  V30 9536 H 940.625 -0.931144 1.82184 0
M  V30 9537 H 940.635 -3.31277 2.38159 0
M  V30 9538 H 939.31 -2.57449 3.26639 0
M  V30 9539 H 937.887 -3.36212 1.61294 0
M  V30 9540 N 940.072 -1.23292 -0.981677 0
M  V30 9541 C 941.035 -1.01417 -2.05542 0
M  V30 9542 C 942.035 0.0235354 -1.60783 0
M  V30 9543 O 943.225 -0.216082 -1.72855 0
M  V30 9544 C 940.357 -0.534239 -3.36688 0
M  V30 9545 H 941.55 -1.96702 -2.26381 0
M  V30 9546 H 939.103 -1.05318 -1.1549 0
M  V30 9547 H 939.838 0.422452 -3.21537 0
M  V30 9548 H 939.623 -1.28304 -3.70514 0
M  V30 9549 H 941.113 -0.40179 -4.15663 0
M  V30 9550 N 941.55 1.18024 -1.04442 0
M  V30 9551 C 942.48 2.23988 -0.659683 0
M  V30 9552 C 943.461 1.6669 0.338904 0
M  V30 9553 O 944.646 1.92971 0.21817 0
M  V30 9554 C 941.776 3.4729 -0.0257672 0
M  V30 9555 C 940.73 4.17362 -0.948299 0
M  V30 9556 C 940.056 5.34401 -0.17866 0
M  V30 9557 C 941.356 4.70435 -2.26909 0
M  V30 9558 H 943.05 2.56425 -1.54553 0
M  V30 9559 H 940.596 1.23256 -0.744575 0
M  V30 9560 H 942.549 4.20627 0.255131 0
M  V30 9561 H 941.273 3.14098 0.894981 0
M  V30 9562 H 939.932 3.45928 -1.21364 0
M  V30 9563 H 939.58 4.97458 0.744614 0
M  V30 9564 H 939.28 5.8222 -0.793294 0
M  V30 9565 H 940.804 6.10526 0.0951315 0
M  V30 9566 H 942.218 5.35447 -2.04864 0
M  V30 9567 H 940.615 5.28803 -2.83703 0
M  V30 9568 H 941.685 3.87653 -2.91296 0
M  V30 9569 N 943.028 0.824394 1.34319 0
M  V30 9570 C 944.439 0.471802 1.8064 0
M  V30 9571 C 944.79 -1.00793 1.6833 0
M  V30 9572 O 943.915 -1.78447 1.22416 0
M  V30 9573 C 944.51 0.849609 3.27974 0
M  V30 9574 C 943.069 0.549365 3.72369 0
M  V30 9575 C 942.216 1.06573 2.56003 0
M  V30 9576 H 945.167 1.01443 1.22045 0
M  V30 9577 H 945.188 0.153968 3.80188 0
M  V30 9578 H 944.7 1.92663 3.36902 0
M  V30 9579 H 942.801 -0.518182 3.68979 0
M  V30 9580 H 942.914 1.09446 4.66432 0
M  V30 9581 H 941.278 0.487214 2.49997 0
M  V30 9582 H 942.061 2.14923 2.677 0
M  V30 9583 N 944.506 -1.46559 0.579492 0
M  V30 9584 C 945.754 -2.02 0.0637157 0
M  V30 9585 C 946.075 -1.45378 -1.29962 0
M  V30 9586 O 945.345 -0.637262 -1.85245 0
M  V30 9587 H 943.925 -0.746717 0.0205638 0
M  V30 9588 H 946.587 -1.79702 0.754544 0
M  V30 9589 H 945.683 -3.12099 -0.00770254 0
M  V30 9590 N 945.984 -0.3171 -1.54377 0
M  V30 9591 C 947.212 0.289558 -2.04864 0
M  V30 9592 C 947.627 1.46284 -1.19359 0
M  V30 9593 O 946.984 1.81135 -0.222795 0
M  V30 9594 C 947.035 0.730273 -3.54047 0
M  V30 9595 O 946.756 -0.396325 -4.36304 0
M  V30 9596 C 948.257 1.40041 -4.20599 0
M  V30 9597 H 945.477 0.0605836 -0.668259 0
M  V30 9598 H 948.021 -0.461411 -1.99227 0
M  V30 9599 H 946.176 1.43123 -3.59992 0
M  V30 9600 H 946.59 -0.0502901 -5.24476 0
M  V30 9601 H 948.064 1.65979 -5.26455 0
M  V30 9602 H 948.541 2.34565 -3.71316 0
M  V30 9603 H 949.147 0.742206 -4.18774 0
M  V30 9604 N 947.462 1.57535 -0.0451378 0
M  V30 9605 C 948.687 1.97172 0.64326 0
M  V30 9606 C 949.112 0.922266 1.63939 0
M  V30 9607 O 948.47 -0.115155 1.80934 0
M  V30 9608 C 948.518 3.35889 1.3119 0
M  V30 9609 O 947.622 3.33387 2.42748 0
M  V30 9610 H 946.963 0.642469 0.167719 0
M  V30 9611 H 949.493 2.04295 -0.111747 0
M  V30 9612 H 949.503 3.72481 1.66499 0
M  V30 9613 H 948.178 4.1181 0.581823 0
M  V30 9614 H 946.755 3.08533 2.09432 0
M  V30 9615 N 948.94 -0.228186 1.55939 0
M  V30 9616 C 949.89 -1.28607 1.88267 0
M  V30 9617 C 950.874 -1.42606 0.745139 0
M  V30 9618 O 952.066 -1.45533 1.00743 0
M  V30 9619 C 949.195 -2.63783 2.19712 0
M  V30 9620 C 948.281 -2.53712 3.3984 0
M  V30 9621 N 948.672 -2.13287 4.58631 0
M  V30 9622 C 946.97 -2.84686 3.43322 0
M  V30 9623 C 947.671 -2.14305 5.40785 0
M  V30 9624 N 946.647 -2.54536 4.80325 0
M  V30 9625 H 950.449 -0.964307 2.7763 0
M  V30 9626 H 947.963 -0.436769 1.56416 0
M  V30 9627 H 949.96 -3.40152 2.41044 0
M  V30 9628 H 948.62 -2.9681 1.31657 0
M  V30 9629 H 949.631 -1.84525 4.83912 0
M  V30 9630 H 946.308 -3.22129 2.65592 0
M  V30 9631 H 947.698 -1.85231 6.45863 0
M  V30 9632 N 950.418 -1.49637 -0.494624 0
M  V30 9633 C 951.664 -1.59681 -1.25019 0
M  V30 9634 C 951.997 -0.285511 -1.9209 0
M  V30 9635 O 951.272 0.711398 -1.81023 0
M  V30 9636 C 951.555 -2.76058 -2.31222 0
M  V30 9637 C 951.408 -4.17002 -1.68611 0
M  V30 9638 C 952.727 -2.88056 -3.32734 0
M  V30 9639 H 949.846 -0.581209 -0.453172 0
M  V30 9640 H 952.488 -1.81944 -0.547391 0
M  V30 9641 H 950.638 -2.57207 -2.91164 0
M  V30 9642 H 952.31 -4.47385 -1.12447 0
M  V30 9643 H 950.553 -4.22352 -0.989991 0
M  V30 9644 H 951.224 -4.94316 -2.45674 0
M  V30 9645 H 953.7 -3.05237 -2.82789 0
M  V30 9646 H 952.576 -3.71151 -4.04399 0
M  V30 9647 H 952.837 -1.97676 -3.95445 0
M  V30 9648 N 951.896 0.746133 -1.38819 0
M  V30 9649 C 952.826 1.87344 -1.39372 0
M  V30 9650 C 953.807 1.68123 -0.258583 0
M  V30 9651 O 954.992 1.88606 -0.462769 0
M  V30 9652 C 952.122 3.24962 -1.22543 0
M  V30 9653 C 951.076 3.58799 -2.33339 0
M  V30 9654 C 950.402 4.95235 -2.01609 0
M  V30 9655 C 951.702 3.62911 -3.75624 0
M  V30 9656 H 953.396 1.87138 -2.33709 0
M  V30 9657 H 950.942 0.898937 -1.12495 0
M  V30 9658 H 952.895 4.03488 -1.21554 0
M  V30 9659 H 951.619 3.25667 -0.246707 0
M  V30 9660 H 950.278 2.82596 -2.33527 0
M  V30 9661 H 949.926 4.92508 -1.02202 0
M  V30 9662 H 949.626 5.18843 -2.75819 0
M  V30 9663 H 951.15 5.76131 -2.02251 0
M  V30 9664 H 952.564 4.31535 -3.77426 0
M  V30 9665 H 950.961 3.98031 -4.491 0
M  V30 9666 H 952.031 2.62967 -4.07402 0
M  V30 9667 N 953.375 1.23811 0.975125 0
M  V30 9668 C 954.623 1.07124 1.71373 0
M  V30 9669 C 954.944 -0.391864 1.91022 0
M  V30 9670 O 954.214 -1.28041 1.48265 0
M  V30 9671 H 952.794 0.393415 0.635007 0
M  V30 9672 H 955.456 1.55612 1.17349 0
M  V30 9673 H 954.552 1.56338 2.7012 0
M  V30 9674 N 954.853 -1.17469 1.05066 0
M  V30 9675 C 955.816 -2.19648 0.654793 0
M  V30 9676 C 956.816 -1.58107 -0.293063 0
M  V30 9677 O 958.006 -1.74029 -0.077106 0
M  V30 9678 C 955.138 -3.40878 -0.0384437 0
M  V30 9679 H 956.331 -2.56184 1.55915 0
M  V30 9680 H 953.884 -1.31528 0.844396 0
M  V30 9681 H 954.619 -3.09885 -0.956133 0
M  V30 9682 H 954.404 -3.86792 0.642961 0
M  V30 9683 H 955.894 -4.1651 -0.301568 0
M  V30 9684 N 956.331 -0.831506 -1.3388 0
M  V30 9685 C 957.561 -0.436292 -2.01941 0
M  V30 9686 C 957.969 0.964979 -1.62741 0
M  V30 9687 O 957.312 1.63733 -0.832894 0
M  V30 9688 C 957.374 -0.468811 -3.5643 0
M  V30 9689 C 957.038 -1.82491 -4.18982 0
M  V30 9690 C 958.035 -2.78705 -4.38885 0
M  V30 9691 C 955.72 -2.11574 -4.55568 0
M  V30 9692 C 957.714 -4.02168 -4.94509 0
M  V30 9693 C 955.401 -3.35296 -5.10901 0
M  V30 9694 C 956.399 -4.3041 -5.30317 0
M  V30 9695 O 956.087 -5.51944 -5.84477 0
M  V30 9696 H 955.819 -0.172335 -0.653664 0
M  V30 9697 H 958.373 -1.12354 -1.71947 0
M  V30 9698 H 956.603 0.275179 -3.8572 0
M  V30 9699 H 958.292 -0.0924518 -4.05795 0
M  V30 9700 H 959.058 -2.57534 -4.10976 0
M  V30 9701 H 954.937 -1.38338 -4.39754 0
M  V30 9702 H 958.481 -4.76418 -5.09579 0
M  V30 9703 H 954.378 -3.56326 -5.3824 0
M  V30 9704 H 955.146 -5.53582 -6.029 0
M  V30 9705 N 957.809 1.4625 -0.587256 0
M  V30 9706 C 958.772 2.28812 0.133238 0
M  V30 9707 C 959.772 1.38645 0.814513 0
M  V30 9708 O 960.962 1.60975 0.665774 0
M  V30 9709 C 958.094 3.19147 1.19824 0
M  V30 9710 H 959.287 2.93991 -0.592386 0
M  V30 9711 H 956.84 1.52435 -0.345416 0
M  V30 9712 H 957.575 2.58725 1.95529 0
M  V30 9713 H 957.36 3.85541 0.71418 0
M  V30 9714 H 958.85 3.81278 1.70344 0
M  V30 9715 N 959.287 0.325282 1.54207 0
M  V30 9716 C 960.533 -0.277185 2.00897 0
M  V30 9717 C 960.866 -1.51651 1.21308 0
M  V30 9718 O 960.141 -1.92237 0.295825 0
M  V30 9719 C 960.424 -0.60961 3.54902 0
M  V30 9720 C 960.277 0.640542 4.45216 0
M  V30 9721 C 961.596 -1.42656 4.16338 0
M  V30 9722 H 958.715 -0.0992722 0.730284 0
M  V30 9723 H 961.357 0.442201 1.84783 0
M  V30 9724 H 959.507 -1.22249 3.68765 0
M  V30 9725 H 961.179 1.27878 4.43221 0
M  V30 9726 H 959.422 1.26908 4.14821 0
M  V30 9727 H 960.093 0.363459 5.50802 0
M  V30 9728 H 962.569 -0.908494 4.06061 0
M  V30 9729 H 961.445 -1.62792 5.24204 0
M  V30 9730 H 961.706 -2.42321 3.69774 0
M  V30 9731 N 960.765 -1.57509 0.0534917 0
M  V30 9732 C 962.042 -1.84137 -0.659767 0
M  V30 9733 C 962.422 -0.942362 -1.88899 0
M  V30 9734 O 961.77 -0.00398566 -2.285 0
M  V30 9735 C 961.98 -3.33919 -1.01486 0
M  V30 9736 C 963.328 -4.00989 -1.39616 0
M  V30 9737 O 964.352 -3.38557 -1.10713 0
M  V30 9738 O 963.211 -5.11071 -1.93567 0
M  V30 9739 H 960.305 -0.760081 -0.325893 0
M  V30 9740 H 962.851 -1.69497 0.0830315 0
M  V30 9741 H 961.623 -3.91046 -0.141041 0
M  V30 9742 H 961.246 -3.53755 -1.81503 0
M  V30 9743 N 962.243 0.219913 -1.56058 0
M  V30 9744 C 963.191 1.29215 -1.93407 0
M  V30 9745 C 964.185 1.48434 -0.816307 0
M  V30 9746 O 965.391 1.49589 -1.00115 0
M  V30 9747 H 961.766 0.433256 -0.614649 0
M  V30 9748 H 963.737 0.949977 -2.82875 0
M  V30 9749 C 962.486 2.63501 -2.26854 0
M  V30 9750 H 961.809 2.4952 -3.12377 0
M  V30 9751 H 963.249 3.37334 -2.56869 0
M  V30 9752 C 961.708 3.18634 -1.09425 0
M  V30 9753 O 962.238 4.00117 -0.356243 0
M  V30 9754 N 960.444 2.7703 -0.877642 0
M  V30 9755 H 959.991 2.10875 -1.47951 0
M  V30 9756 H 959.949 3.1426 -0.0936792 0
M  V30 9757 N 963.721 1.49897 0.486681 0
M  V30 9758 C 964.949 1.63837 1.26353 0
M  V30 9759 C 965.364 0.315428 1.86146 0
M  V30 9760 O 964.721 -0.700831 1.68507 0
M  V30 9761 C 964.772 2.71792 2.38351 0
M  V30 9762 O 964.493 3.98956 1.81013 0
M  V30 9763 C 965.994 2.96566 3.2949 0
M  V30 9764 H 963.214 0.551158 0.382709 0
M  V30 9765 H 965.758 1.96023 0.582694 0
M  V30 9766 H 963.913 2.42344 3.02238 0
M  V30 9767 H 964.327 4.58536 2.54647 0
M  V30 9768 H 965.801 3.75803 4.04322 0
M  V30 9769 H 966.278 2.07031 3.87343 0
M  V30 9770 H 966.884 3.27485 2.71355 0
M  V30 9771 N 965.199 -0.738761 1.39212 0
M  V30 9772 C 966.439 -1.51093 1.3766 0
M  V30 9773 C 966.803 -1.91978 -0.0289655 0
M  V30 9774 O 968.004 -2.68265 -0.169465 0
M  V30 9775 C 966.275 -2.71988 2.31856 0
M  V30 9776 S 967.834 -3.61683 2.48458 0
M  V30 9777 H 964.652 -0.516868 0.48823 0
M  V30 9778 H 967.254 -0.865961 1.75275 0
M  V30 9779 H 965.958 -2.40085 3.32847 0
M  V30 9780 H 965.489 -3.41417 1.95443 0
M  V30 9781 H 967.504 -4.65447 1.71969 0
M  V30 9782 N 966.677 -1.24326 -0.968545 0
M  V30 9783 C 967.923 -1.08406 -1.71394 0
M  V30 9784 C 968.256 0.376353 -1.90518 0
M  V30 9785 O 967.531 1.27816 -1.46606 0
M  V30 9786 C 967.814 -1.82344 -3.1052 0
M  V30 9787 C 967.667 -3.3613 -2.98893 0
M  V30 9788 C 968.986 -1.59545 -4.10163 0
M  V30 9789 H 966.105 -0.395205 -0.622079 0
M  V30 9790 H 968.747 -1.52983 -1.12677 0
M  V30 9791 H 966.897 -1.44452 -3.60646 0
M  V30 9792 H 968.569 -3.83614 -2.56199 0
M  V30 9793 H 966.812 -3.64553 -2.35124 0
M  V30 9794 H 967.483 -3.83064 -3.97449 0
M  V30 9795 H 969.959 -1.92504 -3.68892 0
M  V30 9796 H 968.835 -2.13736 -5.05577 0
M  V30 9797 H 969.096 -0.533503 -4.38869 0
M  V30 9798 N 968.156 1.1691 -1.05688 0
M  V30 9799 C 969.402 1.8757 -0.771071 0
M  V30 9800 C 969.735 1.8113 0.700399 0
M  V30 9801 O 969.01 1.22273 1.5126 0
M  V30 9802 C 969.293 3.37392 -1.25851 0
M  V30 9803 C 969.146 3.52556 -2.79329 0
M  V30 9804 C 970.465 4.31585 -0.861512 0
M  V30 9805 H 967.584 0.681089 -0.281579 0
M  V30 9806 H 970.226 1.37453 -1.31174 0
M  V30 9807 H 968.376 3.80204 -0.798563 0
M  V30 9808 H 970.048 3.18725 -3.33485 0
M  V30 9809 H 968.291 2.94668 -3.1836 0
M  V30 9810 H 968.962 4.57748 -3.08498 0
M  V30 9811 H 971.438 3.96642 -1.25756 0
M  V30 9812 H 970.314 5.34939 -1.23012 0
M  V30 9813 H 970.575 4.4148 0.234089 0
M  V30 9814 N 969.634 0.838594 1.33437 0
M  V30 9815 C 971.05 0.526347 1.50671 0
M  V30 9816 C 971.25 -0.946387 1.77893 0
M  V30 9817 O 970.306 -1.7302 1.83903 0
M  V30 9818 C 971.619 1.39945 2.6615 0
M  V30 9819 C 973.167 1.3982 2.80035 0
M  V30 9820 C 973.642 2.25614 3.98576 0
M  V30 9821 N 975.133 2.23322 4.0581 0
M  V30 9822 C 975.868 2.86443 4.96727 0
M  V30 9823 N 975.364 3.58616 5.92762 0
M  V30 9824 N 977.157 2.75915 4.89722 0
M  V30 9825 H 969.308 1.79195 1.1403 0
M  V30 9826 H 971.571 0.764491 0.560586 0
M  V30 9827 H 971.277 2.44599 2.52714 0
M  V30 9828 H 971.151 1.07529 3.61548 0
M  V30 9829 H 973.538 0.35937 2.92904 0
M  V30 9830 H 973.619 1.76241 1.85399 0
M  V30 9831 H 973.263 3.29555 3.86466 0
M  V30 9832 H 973.193 1.86533 4.92456 0
M  V30 9833 H 975.684 1.70836 3.37081 0
M  V30 9834 H 975.997 4.03987 6.58798 0
M  V30 9835 H 974.342 3.62724 5.92838 0
M  V30 9836 H 977.533 2.19094 4.13661 0
M  V30 9837 H 977.706 3.25393 5.60378 0
M  V30 9838 N 971.112 -1.45937 0.595003 0
M  V30 9839 C 972.337 -2.07207 0.0894416 0
M  V30 9840 C 972.762 -1.43884 -1.21157 0
M  V30 9841 O 972.12 -0.526998 -1.73472 0
M  V30 9842 C 972.168 -3.60565 -0.0499828 0
M  V30 9843 O 971.272 -3.97364 -1.10342 0
M  V30 9844 H 970.613 -0.660471 0.0683627 0
M  V30 9845 H 973.143 -1.87386 0.82144 0
M  V30 9846 H 973.153 -4.0722 -0.252234 0
M  V30 9847 H 971.828 -4.06044 0.90006 0
M  V30 9848 H 970.405 -3.62401 -0.878645 0
M  V30 9849 N 972.59 -0.333456 -1.54032 0
M  V30 9850 C 974.006 0.0188405 -1.59589 0
M  V30 9851 C 974.206 1.49615 -1.34972 0
M  V30 9852 O 973.262 2.2535 -1.13901 0
M  V30 9853 C 974.575 -0.408273 -2.97915 0
M  V30 9854 C 976.123 -0.359763 -3.10926 0
M  V30 9855 C 976.598 -0.76219 -4.51613 0
M  V30 9856 N 978.089 -0.715981 -4.57633 0
M  V30 9857 C 978.824 -0.999436 -5.64623 0
M  V30 9858 N 978.32 -1.35053 -6.79509 0
M  V30 9859 N 980.113 -0.924343 -5.54448 0
M  V30 9860 H 972.264 -1.29587 -1.68289 0
M  V30 9861 H 974.527 -0.527584 -0.787629 0
M  V30 9862 H 974.233 -1.43793 -3.20962 0
M  V30 9863 H 974.107 0.221685 -3.76548 0
M  V30 9864 H 976.494 0.660703 -2.87609 0
M  V30 9865 H 976.575 -1.02479 -2.34375 0
M  V30 9866 H 976.219 -1.78062 -4.75664 0
M  V30 9867 H 976.149 -0.0747478 -5.26547 0
M  V30 9868 H 978.64 -0.456875 -3.75128 0
M  V30 9869 H 978.953 -1.55194 -7.57057 0
M  V30 9870 H 977.298 -1.38889 -6.80981 0
M  V30 9871 H 980.489 -0.649469 -4.63573 0
M  V30 9872 H 980.662 -1.1486 -6.37739 0
M  V30 9873 N 974.068 1.57479 -0.061844 0
M  V30 9874 C 975.345 1.84484 0.649993 0
M  V30 9875 C 975.725 0.952366 1.88396 0
M  V30 9876 O 975.073 0.0161035 2.28494 0
M  V30 9877 C 975.283 3.34452 0.997133 0
M  V30 9878 C 976.631 4.01724 1.37488 0
M  V30 9879 O 977.655 3.3914 1.08916 0
M  V30 9880 O 976.514 5.12091 1.90854 0
M  V30 9881 H 973.608 0.761798 0.321858 0
M  V30 9882 H 976.154 1.6945 -0.0920192 0
M  V30 9883 H 974.926 3.91115 0.120301 0
M  V30 9884 H 974.549 3.54713 1.79624 0
M  V30 9885 N 975.546 -0.211634 1.56173 0
M  V30 9886 C 976.792 -0.935935 1.79911 0
M  V30 9887 C 977.125 -1.83589 0.633155 0
M  V30 9888 O 976.4 -1.91004 -0.367132 0
M  V30 9889 C 976.683 -1.76638 3.13801 0
M  V30 9890 C 976.536 -0.892259 4.40861 0
M  V30 9891 C 977.855 -2.74224 3.44223 0
M  V30 9892 H 974.974 -0.338822 0.654499 0
M  V30 9893 H 977.616 -0.20422 1.88899 0
M  V30 9894 H 975.766 -2.39021 3.0627 0
M  V30 9895 H 977.438 -0.284407 4.60422 0
M  V30 9896 H 975.681 -0.198145 4.33347 0
M  V30 9897 H 976.352 -1.50793 5.31004 0
M  V30 9898 H 978.828 -2.21975 3.51946 0
M  V30 9899 H 977.704 -3.29424 4.39057 0
M  V30 9900 H 977.965 -3.52455 2.66885 0
M  V30 9901 N 977.024 -1.50153 -0.478725 0
M  V30 9902 C 978.249 -1.64776 -1.2595 0
M  V30 9903 C 978.674 -0.327794 -1.85222 0
M  V30 9904 O 978.032 0.707418 -1.66929 0
M  V30 9905 C 978.08 -2.73551 -2.34952 0
M  V30 9906 O 977.184 -2.34273 -3.39397 0
M  V30 9907 H 976.525 -0.550769 -0.370877 0
M  V30 9908 H 979.055 -1.96482 -0.570605 0
M  V30 9909 H 979.065 -2.96397 -2.8038 0
M  V30 9910 H 977.74 -3.69354 -1.91181 0
M  V30 9911 H 976.317 -2.21844 -2.99733 0
M  V30 9912 N 978.502 0.731368 -1.39602 0
M  V30 9913 C 979.73 1.52059 -1.40305 0
M  V30 9914 C 980.145 1.888 0.00147921 0
M  V30 9915 O 979.502 1.54354 0.973715 0
M  V30 9916 C 979.553 2.80588 -2.27931 0
M  V30 9917 O 979.274 2.45406 -3.62915 0
M  V30 9918 C 980.775 3.74592 -2.37056 0
M  V30 9919 H 977.995 0.469787 -0.479104 0
M  V30 9920 H 980.539 0.903436 -1.83462 0
M  V30 9921 H 978.694 3.38626 -1.88178 0
M  V30 9922 H 979.108 3.27996 -4.09291 0
M  V30 9923 H 980.582 4.61662 -3.02609 0
M  V30 9924 H 981.059 4.16597 -1.39081 0
M  V30 9925 H 981.665 3.22471 -2.77295 0
M  V30 9926 N 979.98 1.24838 0.961938 0
M  V30 9927 C 981.208 1.11871 1.74047 0
M  V30 9928 C 981.623 -0.328209 1.85925 0
M  V30 9929 O 980.98 -1.22616 1.35173 0
M  V30 9930 C 981.031 1.75931 3.15801 0
M  V30 9931 O 980.752 3.14967 3.04512 0
M  V30 9932 C 982.253 1.68649 4.09966 0
M  V30 9933 H 979.473 0.390569 0.545616 0
M  V30 9934 H 982.017 1.65058 1.20732 0
M  V30 9935 H 980.172 1.26733 3.66084 0
M  V30 9936 H 980.586 3.46349 3.93882 0
M  V30 9937 H 982.06 2.18144 5.07067 0
M  V30 9938 H 982.537 0.648831 4.34381 0
M  V30 9939 H 983.143 2.17301 3.65596 0
M  V30 9940 N 981.458 -1.16348 1.06306 0
M  V30 9941 C 982.706 -1.86512 0.778311 0
M  V30 9942 C 983.027 -1.82107 -0.697273 0
M  V30 9943 O 982.297 -1.2547 -1.50446 0
M  V30 9944 H 980.877 -0.690529 0.284919 0
M  V30 9945 H 983.539 -1.41092 1.34458 0
M  V30 9946 H 982.635 -2.91947 1.10333 0
M  V30 9947 N 982.937 -0.845659 -1.3299 0
M  V30 9948 C 984.162 -0.457435 -2.02293 0
M  V30 9949 C 984.587 0.935634 -1.63179 0
M  V30 9950 O 983.945 1.61297 -0.827835 0
M  V30 9951 C 983.993 -0.593665 -3.5568 0
M  V30 9952 O 983.097 0.37729 -4.10671 0
M  V30 9953 H 982.438 -0.185022 -0.637701 0
M  V30 9954 H 984.968 -1.14237 -1.69738 0
M  V30 9955 H 984.978 -0.477834 -4.05192 0
M  V30 9956 H 983.653 -1.60957 -3.83491 0
M  V30 9957 H 982.23 0.218448 -3.7226 0
M  V30 9958 N 984.415 1.45619 -0.602734 0
M  V30 9959 C 985.643 2.06647 -0.102253 0
M  V30 9960 C 986.058 1.4482 1.21131 0
M  V30 9961 O 985.415 0.560621 1.73676 0
M  V30 9962 C 985.466 3.61467 0.0490113 0
M  V30 9963 O 985.187 4.20985 -1.21257 0
M  V30 9964 C 986.688 4.39469 0.581517 0
M  V30 9965 H 983.908 0.667685 -0.0666155 0
M  V30 9966 H 986.452 1.86939 -0.829091 0
M  V30 9967 H 984.607 3.80534 0.726153 0
M  V30 9968 H 985.021 5.14103 -1.03915 0
M  V30 9969 H 986.495 5.48318 0.636462 0
M  V30 9970 H 986.972 4.0891 1.60277 0
M  V30 9971 H 987.578 4.25256 -0.061419 0
M  V30 9972 N 985.893 0.34162 1.53853 0
M  V30 9973 C 987.118 -0.259608 2.05769 0
M  V30 9974 C 987.543 -1.43588 1.21507 0
M  V30 9975 O 986.901 -1.79856 0.228364 0
M  V30 9976 C 986.949 -0.654455 3.54611 0
M  V30 9977 O 986.053 -1.75472 3.73207 0
M  V30 9978 H 985.394 -0.0434621 0.662576 0
M  V30 9979 H 987.924 0.495274 1.98515 0
M  V30 9980 H 987.934 -0.932142 3.97209 0
M  V30 9981 H 986.609 0.205779 4.15391 0
M  V30 9982 H 985.186 -1.47444 3.42512 0
M  V30 9983 N 987.371 -1.57444 0.0701946 0
M  V30 9984 C 988.281 -2.16132 -0.912377 0
M  V30 9985 C 989.297 -1.12406 -1.32819 0
M  V30 9986 O 990.473 -1.44665 -1.40121 0
M  V30 9987 C 987.538 -2.71008 -2.16231 0
M  V30 9988 C 986.599 -3.896 -1.80306 0
M  V30 9989 C 985.832 -4.4185 -2.9934 0
M  V30 9990 O 986.055 -3.93106 -4.13309 0
M  V30 9991 O 984.989 -5.33201 -2.7925 0
M  V30 9992 H 988.815 -3.00449 -0.443167 0
M  V30 9993 H 986.4 -1.48617 -0.152786 0
M  V30 9994 H 988.282 -3.06186 -2.8953 0
M  V30 9995 H 986.957 -1.8975 -2.62253 0
M  V30 9996 H 985.864 -3.59277 -1.04264 0
M  V30 9997 H 987.197 -4.72145 -1.39068 0
M  V30 9998 N 988.849 0.203349 -1.56283 0
M  V30 9999 C 990.097 0.923183 -1.79782 0
M  V30 10000 C 990.418 1.84134 -0.64185 0
M  V30 10001 O 989.688 1.92922 0.340292 0
M  V30 10002 H 988.268 0.343881 -0.66314 0
M  V30 10003 H 990.93 0.210837 -1.93756 0
M  V30 10004 H 990.026 1.51921 -2.72629 0
M  V30 10005 N 990.327 1.50405 0.470755 0
M  V30 10006 C 991.29 1.68741 1.5511 0
M  V30 10007 C 992.29 0.558116 1.50804 0
M  V30 10008 O 993.48 0.825149 1.53418 0
M  V30 10009 C 990.612 1.71295 2.94739 0
M  V30 10010 H 991.805 2.65127 1.40169 0
M  V30 10011 H 989.358 1.39891 0.697156 0
M  V30 10012 H 990.093 0.766029 3.15123 0
M  V30 10013 H 989.878 2.53336 2.99271 0
M  V30 10014 H 991.368 1.87434 3.73173 0
M  V30 10015 N 991.805 -0.723954 1.39988 0
M  V30 10016 C 993.051 -1.48591 1.38017 0
M  V30 10017 C 993.384 -1.94189 -0.0203522 0
M  V30 10018 O 992.659 -1.67572 -0.987422 0
M  V30 10019 C 992.942 -2.71786 2.36229 0
M  V30 10020 C 992.795 -2.32136 3.8527 0
M  V30 10021 C 994.114 -3.73921 2.32102 0
M  V30 10022 H 991.233 -0.538993 0.502648 0
M  V30 10023 H 993.875 -0.826908 1.71062 0
M  V30 10024 H 992.025 -3.28015 2.0818 0
M  V30 10025 H 993.697 -1.81454 4.24113 0
M  V30 10026 H 991.94 -1.64234 4.01509 0
M  V30 10027 H 992.611 -3.20406 4.49493 0
M  V30 10028 H 995.087 -3.27303 2.56928 0
M  V30 10029 H 993.963 -4.5777 3.02882 0
M  V30 10030 H 994.224 -4.21627 1.32979 0
M  V30 10031 N 993.283 -1.25346 -0.955304 0
M  V30 10032 C 994.511 -1.12793 -1.73451 0
M  V30 10033 C 994.926 0.318344 -1.86097 0
M  V30 10034 O 994.283 1.21897 -1.35821 0
M  V30 10035 C 994.334 -1.77603 -3.14864 0
M  V30 10036 O 994.055 -3.16577 -3.02837 0
M  V30 10037 C 995.556 -1.70821 -4.09066 0
M  V30 10038 H 992.776 -0.393457 -0.543537 0
M  V30 10039 H 995.32 -1.65696 -1.19855 0
M  V30 10040 H 993.475 -1.28673 -3.65407 0
M  V30 10041 H 993.889 -3.48433 -3.92039 0
M  V30 10042 H 995.363 -2.2083 -5.05903 0
M  V30 10043 H 995.84 -0.671858 -4.34031 0
M  V30 10044 H 996.446 -2.19237 -3.64438 0
M  V30 10045 N 994.761 1.15782 -1.06922 0
M  V30 10046 C 995.724 2.18578 -0.689654 0
M  V30 10047 C 996.724 1.58553 0.267872 0
M  V30 10048 O 997.914 1.7413 0.0494097 0
M  V30 10049 C 995.046 3.40896 -0.0157919 0
M  V30 10050 H 996.239 2.53672 -1.59971 0
M  V30 10051 H 993.792 1.30168 -0.865214 0
M  V30 10052 H 994.527 3.11367 0.906712 0
M  V30 10053 H 994.312 3.85721 -0.704415 0
M  V30 10054 H 995.802 4.16937 0.235266 0
M  V30 10055 N 996.239 0.8527 1.3254 0
M  V30 10056 C 997.485 0.455798 1.97612 0
M  V30 10057 C 997.818 -0.985616 1.6733 0
M  V30 10058 O 997.093 -1.69129 0.960493 0
M  V30 10059 C 997.376 0.69312 3.53366 0
M  V30 10060 C 997.229 2.18281 3.93285 0
M  V30 10061 C 998.548 0.148236 4.3985 0
M  V30 10062 H 995.667 0.167078 0.717812 0
M  V30 10063 H 998.309 1.07076 1.56954 0
M  V30 10064 H 996.459 0.169677 3.88129 0
M  V30 10065 H 998.131 2.77218 3.68711 0
M  V30 10066 H 996.374 2.66206 3.42515 0
M  V30 10067 H 997.045 2.29957 5.01821 0
M  V30 10068 H 999.521 0.595834 4.11812 0
M  V30 10069 H 998.397 0.343873 5.47822 0
M  V30 10070 H 998.658 -0.948872 4.31797 0
M  V30 10071 N 997.718 -1.45297 0.610449 0
M  V30 10072 C 998.681 -2.28995 -0.0968194 0
M  V30 10073 C 999.681 -1.39923 -0.792353 0
M  V30 10074 O 1000.87 -1.62014 -0.64008 0
M  V30 10075 C 998.003 -3.21013 -1.14731 0
M  V30 10076 H 999.196 -2.93012 0.639082 0
M  V30 10077 H 996.749 -1.51867 0.369624 0
M  V30 10078 H 997.484 -2.61803 -1.91388 0
M  V30 10079 H 997.269 -3.86628 -0.652753 0
M  V30 10080 H 998.759 -3.8394 -1.64256 0
M  V30 10081 N 999.196 -0.349774 -1.5367 0
M  V30 10082 C 1000.44 0.245862 -2.00196 0
M  V30 10083 C 1000.76 1.51154 -1.24144 0
M  V30 10084 O 1001.96 2.18481 -1.61178 0
M  V30 10085 C 1000.42 0.488665 -3.56567 0
M  V30 10086 C 1000.03 -0.761475 -4.41481 0
M  V30 10087 C 1001.77 1.04282 -4.11492 0
M  V30 10088 C 999.679 -0.489128 -5.89374 0
M  V30 10089 H 998.609 0.0956493 -0.747909 0
M  V30 10090 H 1001.26 -0.466068 -1.77483 0
M  V30 10091 H 999.642 1.26145 -3.75371 0
M  V30 10092 H 1000.82 -1.53585 -4.34452 0
M  V30 10093 H 999.131 -1.23771 -3.9758 0
M  V30 10094 H 1001.73 1.26164 -5.19603 0
M  V30 10095 H 1002.07 2.00023 -3.65098 0
M  V30 10096 H 1002.6 0.330582 -3.96424 0
M  V30 10097 H 999.343 -1.41643 -6.40014 0
M  V30 10098 H 998.863 0.247039 -5.99291 0
M  V30 10099 H 1000.54 -0.1087 -6.46909 0
M  V30 10100 N 1000.67 1.57404 -0.0785433 0
M  V30 10101 C 1001.91 1.95621 0.592595 0
M  V30 10102 C 1002.28 0.958429 1.66367 0
M  V30 10103 O 1003.48 1.2285 2.39084 0
M  V30 10104 C 1001.75 3.38445 1.14846 0
M  V30 10105 S 1003.31 3.98645 1.83378 0
M  V30 10106 H 1000.13 0.684063 0.193851 0
M  V30 10107 H 1002.73 1.94892 -0.154007 0
M  V30 10108 H 1001.43 4.08843 0.357179 0
M  V30 10109 H 1000.96 3.42733 1.93127 0
M  V30 10110 H 1002.98 3.86099 3.11676 0
M  V30 10111 N 1002.15 -0.195058 1.56388 0
M  V30 10112 C 1003.39 -0.92221 1.82413 0
M  V30 10113 C 1003.76 -1.80444 0.656037 0
M  V30 10114 O 1004.96 -2.56738 0.796182 0
M  V30 10115 C 1003.23 -1.71687 3.13462 0
M  V30 10116 S 1004.79 -2.49604 3.60892 0
M  V30 10117 H 1001.6 -0.309316 0.640191 0
M  V30 10118 H 1004.21 -0.185613 1.94617 0
M  V30 10119 H 1002.91 -1.05936 3.96492 0
M  V30 10120 H 1002.44 -2.49529 3.04137 0
M  V30 10121 H 1004.46 -3.73794 3.26332 0
M  V30 10122 N 1003.63 -1.50653 -0.462772 0
M  V30 10123 C 1005.05 -1.38263 -0.797213 0
M  V30 10124 C 1005.25 -0.445172 -1.96521 0
M  V30 10125 O 1004.3 0.10913 -2.52264 0
M  V30 10126 C 1005.61 -2.798 -1.10146 0
M  V30 10127 C 1007.16 -2.88774 -1.20742 0
M  V30 10128 C 1007.64 -4.31163 -1.54476 0
M  V30 10129 N 1009.13 -4.34152 -1.61451 0
M  V30 10130 C 1009.86 -5.4133 -1.89074 0
M  V30 10131 N 1009.36 -6.58705 -2.1466 0
M  V30 10132 N 1011.15 -5.28783 -1.90645 0
M  V30 10133 H 1003.3 -2.10172 0.30684 0
M  V30 10134 H 1005.57 -0.945046 0.0747862 0
M  V30 10135 H 1005.27 -3.50276 -0.316207 0
M  V30 10136 H 1005.15 -3.17559 -2.03559 0
M  V30 10137 H 1007.53 -2.18512 -1.98334 0
M  V30 10138 H 1007.61 -2.54547 -0.252904 0
M  V30 10139 H 1007.26 -5.01965 -0.774207 0
M  V30 10140 H 1007.19 -4.62883 -2.51092 0
M  V30 10141 H 1009.68 -3.49519 -1.43684 0
M  V30 10142 H 1009.99 -7.36192 -2.35035 0
M  V30 10143 H 1008.34 -6.61866 -2.12035 0
M  V30 10144 H 1011.53 -4.36078 -1.70158 0
M  V30 10145 H 1011.7 -6.12396 -2.11836 0
M  V30 10146 N 1005.11 0.71652 -1.4037 0
M  V30 10147 C 1006.33 1.51069 -1.42102 0
M  V30 10148 C 1006.76 1.88087 -0.0222387 0
M  V30 10149 O 1006.12 1.53204 0.969448 0
M  V30 10150 C 1006.16 2.76307 -2.31704 0
M  V30 10151 O 1005.27 3.72975 -1.75964 0
M  V30 10152 H 1004.61 0.455502 -0.483129 0
M  V30 10153 H 1007.14 0.882514 -1.84588 0
M  V30 10154 H 1007.15 3.24846 -2.46859 0
M  V30 10155 H 1005.82 2.48698 -3.3335 0
M  V30 10156 H 1004.4 3.31818 -1.70151 0
M  V30 10157 N 1006.59 1.25851 0.948643 0
M  V30 10158 C 1008 1.02802 1.22081 0
M  V30 10159 C 1008.2 -0.251461 1.99925 0
M  V30 10160 O 1007.26 -0.962592 2.33432 0
M  V30 10161 C 1008.57 2.25489 1.98936 0
M  V30 10162 C 1010.12 2.30312 2.11956 0
M  V30 10163 C 1010.59 3.52671 2.92211 0
M  V30 10164 N 1012.09 3.53103 2.99787 0
M  V30 10165 C 1012.82 4.44445 3.62294 0
M  V30 10166 N 1012.32 5.46065 4.26362 0
M  V30 10167 N 1014.11 4.32113 3.59493 0
M  V30 10168 H 1006.26 2.08042 0.428044 0
M  V30 10169 H 1008.52 0.913928 0.251872 0
M  V30 10170 H 1008.23 3.18513 1.4914 0
M  V30 10171 H 1008.1 2.2914 2.99624 0
M  V30 10172 H 1010.49 1.37808 2.60946 0
M  V30 10173 H 1010.57 2.30676 1.10554 0
M  V30 10174 H 1010.22 4.45501 2.43909 0
M  V30 10175 H 1010.15 3.49554 3.93853 0
M  V30 10176 H 1012.64 2.79597 2.54232 0
M  V30 10177 H 1012.95 6.11964 4.71932 0
M  V30 10178 H 1011.29 5.49931 4.24972 0
M  V30 10179 H 1014.49 3.51946 3.08629 0
M  V30 10180 H 1014.66 5.03493 4.0792 0
M  V30 10181 N 1008.06 -1.15214 1.07534 0
M  V30 10182 C 1009.01 -2.18022 0.667108 0
M  V30 10183 C 1010 -1.57911 -0.308714 0
M  V30 10184 O 1011.19 -1.76578 -0.122147 0
M  V30 10185 C 1008.32 -3.43232 0.0684348 0
M  V30 10186 C 1007.41 -4.10393 1.06951 0
M  V30 10187 N 1007.8 -4.53013 2.24973 0
M  V30 10188 C 1006.09 -4.36758 0.903262 0
M  V30 10189 C 1006.8 -5.05118 2.88498 0
M  V30 10190 N 1005.77 -4.98777 2.16153 0
M  V30 10191 H 1009.57 -2.48706 1.56597 0
M  V30 10192 H 1007.09 -1.31801 0.948796 0
M  V30 10193 H 1009.08 -4.16197 -0.241934 0
M  V30 10194 H 1007.74 -3.14031 -0.825525 0
M  V30 10195 H 1008.76 -4.4634 2.6268 0
M  V30 10196 H 1005.43 -4.17453 0.0623543 0
M  V30 10197 H 1006.82 -5.48039 3.8872 0
M  V30 10198 N 1009.54 -0.859717 -1.32086 0
M  V30 10199 C 1010.47 -0.323502 -2.31248 0
M  V30 10200 C 1011.45 0.580085 -1.59903 0
M  V30 10201 O 1012.64 0.499265 -1.87673 0
M  V30 10202 C 1009.77 0.484661 -3.43902 0
M  V30 10203 C 1008.72 -0.324933 -4.26765 0
M  V30 10204 C 1008.05 0.608281 -5.31229 0
M  V30 10205 C 1009.35 -1.55344 -4.98664 0
M  V30 10206 H 1011.04 -1.15209 -2.76346 0
M  V30 10207 H 1008.59 -0.555442 -1.32856 0
M  V30 10208 H 1010.54 0.870238 -4.12316 0
M  V30 10209 H 1009.27 1.34666 -2.97544 0
M  V30 10210 H 1007.92 -0.692328 -3.60003 0
M  V30 10211 H 1007.57 1.46727 -4.81124 0
M  V30 10212 H 1007.27 0.0705571 -5.87558 0
M  V30 10213 H 1008.8 0.990925 -6.02506 0
M  V30 10214 H 1010.21 -1.23987 -5.59732 0
M  V30 10215 H 1008.61 -2.02947 -5.64741 0
M  V30 10216 H 1009.68 -2.31192 -4.26237 0
M  V30 10217 N 1011.02 1.44971 -0.618145 0
M  V30 10218 C 1011.98 2.29044 0.0846739 0
M  V30 10219 C 1012.98 1.40341 0.784921 0
M  V30 10220 O 1014.17 1.62351 0.631479 0
M  V30 10221 C 1011.31 3.21617 1.13027 0
M  V30 10222 H 1012.5 2.92668 -0.654612 0
M  V30 10223 H 1010.05 1.51668 -0.377672 0
M  V30 10224 H 1010.79 2.62815 1.89997 0
M  V30 10225 H 1010.57 3.86969 0.63224 0
M  V30 10226 H 1012.06 3.84805 1.62218 0
M  V30 10227 N 1012.5 0.357919 1.53482 0
M  V30 10228 C 1013.43 -0.526753 2.23065 0
M  V30 10229 C 1014.44 -1.05239 1.24212 0
M  V30 10230 O 1015.63 -0.960078 1.50482 0
M  V30 10231 C 1012.73 -1.73919 2.9087 0
M  V30 10232 C 1011.91 -1.34638 4.16163 0
M  V30 10233 C 1010.96 -2.42005 4.67247 0
M  V30 10234 O 1009.99 -2.04714 5.31113 0
M  V30 10235 N 1011.19 -3.73478 4.44404 0
M  V30 10236 H 1013.96 0.0692386 2.9962 0
M  V30 10237 H 1011.52 0.182726 1.60866 0
M  V30 10238 H 1013.51 -2.45207 3.21956 0
M  V30 10239 H 1012.08 -2.24223 2.17814 0
M  V30 10240 H 1011.3 -0.463667 3.91464 0
M  V30 10241 H 1012.59 -1.06012 4.97633 0
M  V30 10242 H 1011.99 -4.06555 3.93357 0
M  V30 10243 H 1010.54 -4.40893 4.80059 0
M  V30 10244 N 1013.98 -1.5736 0.0868897 0
M  V30 10245 C 1014.94 -2.12436 -0.860439 0
M  V30 10246 C 1015.94 -1.05175 -1.21634 0
M  V30 10247 O 1017.13 -1.31098 -1.14713 0
M  V30 10248 C 1014.26 -2.63818 -2.159 0
M  V30 10249 H 1015.45 -2.97453 -0.382346 0
M  V30 10250 H 1013.01 -1.55458 -0.162009 0
M  V30 10251 H 1013.74 -1.82298 -2.68212 0
M  V30 10252 H 1013.53 -3.42234 -1.91359 0
M  V30 10253 H 1015.02 -3.06452 -2.83685 0
M  V30 10254 N 1015.45 0.186762 -1.56489 0
M  V30 10255 C 1016.68 0.925916 -1.85584 0
M  V30 10256 C 1017.1 1.75708 -0.671446 0
M  V30 10257 O 1016.46 1.7728 0.379687 0
M  V30 10258 C 1016.51 1.79107 -3.12975 0
M  V30 10259 O 1015.61 2.89088 -2.94112 0
M  V30 10260 H 1014.96 0.260275 -0.610863 0
M  V30 10261 H 1017.49 0.189561 -2.0372 0
M  V30 10262 H 1017.5 2.19408 -3.43983 0
M  V30 10263 H 1016.17 1.18044 -3.98796 0
M  V30 10264 H 1014.75 2.52482 -2.74422 0
M  V30 10265 N 1016.93 1.50896 0.454776 0
M  V30 10266 C 1017.86 1.6712 1.56855 0
M  V30 10267 C 1018.88 0.552223 1.53148 0
M  V30 10268 O 1020.07 0.825969 1.5824 0
M  V30 10269 C 1017.17 1.65464 2.95762 0
M  V30 10270 C 1016.34 2.93662 3.24163 0
M  V30 10271 C 1015.4 2.84428 4.42704 0
M  V30 10272 O 1014.42 3.58382 4.42211 0
M  V30 10273 N 1015.63 1.9909 5.45292 0
M  V30 10274 H 1018.39 2.63194 1.43349 0
M  V30 10275 H 1015.95 1.48564 0.643457 0
M  V30 10276 H 1017.94 1.56878 3.73057 0
M  V30 10277 H 1016.51 0.770568 3.02954 0
M  V30 10278 H 1015.73 3.16251 2.35328 0
M  V30 10279 H 1017.02 3.78558 3.39957 0
M  V30 10280 H 1016.42 1.3835 5.48521 0
M  V30 10281 H 1014.98 1.96396 6.21508 0
M  V30 10282 N 1018.41 -0.709066 1.40748 0
M  V30 10283 C 1019.32 -1.85314 1.43861 0
M  V30 10284 C 1020.34 -1.70832 0.330539 0
M  V30 10285 O 1021.51 -1.92983 0.576152 0
M  V30 10286 C 1018.58 -3.21174 1.30568 0
M  V30 10287 C 1017.64 -3.47863 2.51574 0
M  V30 10288 C 1016.87 -4.77241 2.38906 0
M  V30 10289 O 1017.09 -5.52791 1.40636 0
M  V30 10290 O 1016.03 -5.04413 3.28407 0
M  V30 10291 H 1019.85 -1.85644 2.40354 0
M  V30 10292 H 1017.44 -0.860352 1.2214 0
M  V30 10293 H 1019.32 -4.02313 1.25388 0
M  V30 10294 H 1018 -3.21557 0.371841 0
M  V30 10295 H 1016.9 -2.66708 2.62331 0
M  V30 10296 H 1018.24 -3.52283 3.43741 0
M  V30 10297 N 1019.89 -1.26353 -0.941956 0
M  V30 10298 C 1020.82 -1.10341 -2.05784 0
M  V30 10299 C 1021.8 -0.00881565 -1.70098 0
M  V30 10300 O 1022.99 -0.180699 -1.93357 0
M  V30 10301 C 1020.12 -0.734788 -3.39438 0
M  V30 10302 C 1019.07 -1.78103 -3.89183 0
M  V30 10303 C 1018.4 -1.26675 -5.19478 0
M  V30 10304 C 1019.7 -3.1824 -4.14151 0
M  V30 10305 H 1021.39 -2.03684 -2.19438 0
M  V30 10306 H 1018.94 -0.980698 -1.05443 0
M  V30 10307 H 1020.89 -0.609653 -4.16967 0
M  V30 10308 H 1019.61 0.234354 -3.25758 0
M  V30 10309 H 1018.27 -1.89482 -3.13835 0
M  V30 10310 H 1017.92 -0.287472 -5.02178 0
M  V30 10311 H 1017.62 -1.96612 -5.53731 0
M  V30 10312 H 1019.14 -1.15427 -5.99591 0
M  V30 10313 H 1020.56 -3.09942 -4.82296 0
M  V30 10314 H 1018.95 -3.8576 -4.59684 0
M  V30 10315 H 1020.02 -3.64354 -3.19959 0
M  V30 10316 N 1021.37 1.14642 -1.08144 0
M  V30 10317 C 1022.3 2.19283 -0.6669 0
M  V30 10318 C 1023.31 1.60292 0.284668 0
M  V30 10319 O 1024.5 1.78352 0.0727383 0
M  V30 10320 C 1021.6 3.38877 0.0398572 0
M  V30 10321 C 1020.77 4.274 -0.929929 0
M  V30 10322 C 1019.83 5.25562 -0.258991 0
M  V30 10323 O 1018.86 5.61999 -0.902563 0
M  V30 10324 N 1020.06 5.71958 0.992177 0
M  V30 10325 H 1022.83 2.55464 -1.5671 0
M  V30 10326 H 1020.39 1.29836 -0.96717 0
M  V30 10327 H 1022.38 4.01605 0.499583 0
M  V30 10328 H 1020.95 3.01043 0.842118 0
M  V30 10329 H 1020.17 3.61649 -1.56857 0
M  V30 10330 H 1021.46 4.83411 -1.58717 0
M  V30 10331 H 1020.86 5.44481 1.53484 0
M  V30 10332 H 1019.41 6.36687 1.39544 0
M  V30 10333 O 1022.88 1.0004 1.26784 0
M  V30 10334 H 1023.58 0.653328 1.82349 0
M  V30 END ATOM
M  V30 BEGIN BOND
M  V30 END BOND
M  V30 END CTAB
M  END
$$$$
