drugbank_target|Q8NCM2 Potassium voltage-gated channel subfamily H member 5 (DB00228; DB01069; DB01110)
 OpenBabel12092121213D

  0  0  0     0  0            999 V3000
M  V30 BEGIN CTAB
M  V30 COUNTS 15784 15951 0 0 0
M  V30 BEGIN ATOM
M  V30 1 H -0.908 1.98254 -0.117106 0
M  V30 2 N 0 1.576 0 0
M  V30 3 C 0.933 2.03868 1.02534 0
M  V30 4 C 1.911 0.928543 1.3348 0
M  V30 5 O 3.095 1.19667 1.45644 0
M  V30 6 C 0.222 2.43627 2.35294 0
M  V30 7 C -0.732 3.65373 2.2001 0
M  V30 8 S 0.101 5.13292 1.52614 0
M  V30 9 C 1.257 5.56322 2.86805 0
M  V30 10 H 1.49 2.90518 0.631377 0
M  V30 11 H -0.977 1.52953 0.210867 0
M  V30 12 H 0.981 2.67203 3.11629 0
M  V30 13 H -0.358 1.57376 2.7183 0
M  V30 14 H -1.165 3.90944 3.18086 0
M  V30 15 H -1.563 3.418 1.51819 0
M  V30 16 H 0.729 5.58782 3.83104 0
M  V30 17 H 1.672 6.56266 2.65933 0
M  V30 18 H 2.08 4.83886 2.90714 0
M  V30 19 N 1.4781 -0.272755 1.55222 0
M  V30 20 C 2.8891 -0.84378 1.66545 0
M  V30 21 C 3.2401 -1.87035 0.592641 0
M  V30 22 O 2.3651 -2.14761 -0.265818 0
M  V30 23 C 2.9601 -1.53723 3.01918 0
M  V30 24 C 1.5191 -2.05628 3.15268 0
M  V30 25 C 0.6661 -0.898424 2.62343 0
M  V30 26 H 3.6171 -0.0490998 1.58624 0
M  V30 27 H 3.6381 -2.40421 2.94921 0
M  V30 28 H 3.1501 -0.78983 3.79978 0
M  V30 29 H 1.2511 -2.83329 2.41983 0
M  V30 30 H 1.3641 -2.27142 4.21833 0
M  V30 31 H -0.2719 -1.29186 2.19506 0
M  V30 32 H 0.5111 -0.164528 3.42906 0
M  V30 33 N 2.9562 -1.48159 -0.537278 0
M  V30 34 C 4.2042 -1.55497 -1.29094 0
M  V30 35 C 4.5252 -0.227454 -1.93669 0
M  V30 36 O 3.7952 0.750386 -1.80959 0
M  V30 37 H 2.3752 -0.572832 -0.47945 0
M  V30 38 H 5.0372 -1.84579 -0.625818 0
M  V30 39 H 4.1332 -2.33216 -2.07405 0
M  V30 40 N 4.4343 0.785586 -1.36625 0
M  V30 41 C 5.6823 1.54057 -1.30808 0
M  V30 42 C 6.0033 1.94683 0.111157 0
M  V30 43 O 5.2733 1.65241 1.05224 0
M  V30 44 H 3.8533 0.571354 -0.481211 0
M  V30 45 H 6.5153 0.935821 -1.70963 0
M  V30 46 H 5.6113 2.44637 -1.93801 0
M  V30 47 N 5.9124 1.20967 1.01018 0
M  V30 48 C 6.8594 0.964281 2.09691 0
M  V30 49 C 7.8294 -0.107853 1.65749 0
M  V30 50 O 9.0144 0.0381987 1.90762 0
M  V30 51 C 6.1544 0.52943 3.41015 0
M  V30 52 C 5.2674 1.67043 3.98398 0
M  V30 53 C 4.4024 1.18525 5.17808 0
M  V30 54 C 3.4414 2.29892 5.67288 0
M  V30 55 N 2.5784 1.82546 6.77954 0
M  V30 56 H 7.4184 1.89463 2.30017 0
M  V30 57 H 4.9554 0.944289 1.1279 0
M  V30 58 H 6.9134 0.258588 4.16398 0
M  V30 59 H 5.5434 -0.363919 3.20742 0
M  V30 60 H 4.5954 2.05603 3.20049 0
M  V30 61 H 5.9074 2.50877 4.31117 0
M  V30 62 H 5.0614 0.870762 6.00419 0
M  V30 63 H 3.8004 0.316887 4.86669 0
M  V30 64 H 2.8054 2.6215 4.83278 0
M  V30 65 H 4.0304 3.17216 6.00459 0
M  V30 66 H 1.9764 0.980454 6.48632 0
M  V30 67 H 1.8934 2.59956 7.09901 0
M  V30 68 H 3.1614 1.54115 7.64113 0
M  V30 69 N 7.3905 -1.2043 1.01659 0
M  V30 70 C 8.8065 -1.41852 0.731442 0
M  V30 71 C 9.0065 -1.89358 -0.688898 0
M  V30 72 O 8.0625 -2.06247 -1.45666 0
M  V30 73 C 9.3755 -2.44019 1.75714 0
M  V30 74 C 10.9235 -2.57785 1.77527 0
M  V30 75 C 11.3985 -3.63194 2.79023 0
M  V30 76 N 12.8895 -3.70678 2.77763 0
M  V30 77 C 13.6245 -4.51897 3.52954 0
M  V30 78 N 13.1205 -5.36921 4.37821 0
M  V30 79 N 14.9135 -4.4643 3.41551 0
M  V30 80 H 7.0645 -0.879093 1.93354 0
M  V30 81 H 9.3275 -0.448425 0.835236 0
M  V30 82 H 9.0335 -2.1611 2.77469 0
M  V30 83 H 8.9075 -3.43007 1.56927 0
M  V30 84 H 11.2945 -2.85023 0.764569 0
M  V30 85 H 11.3755 -1.58992 2.00387 0
M  V30 86 H 11.0195 -3.36699 3.80258 0
M  V30 87 H 10.9495 -4.61609 2.53425 0
M  V30 88 H 13.4405 -3.09944 2.16201 0
M  V30 89 H 13.7535 -5.95981 4.91962 0
M  V30 90 H 12.0985 -5.36424 4.41899 0
M  V30 91 H 15.2895 -3.79042 2.74672 0
M  V30 92 H 15.4625 -5.09491 4.00404 0
M  V30 93 N 8.8686 -0.792821 -1.36206 0
M  V30 94 C 10.1166 -0.366062 -1.98757 0
M  V30 95 C 10.4376 1.0668 -1.63231 0
M  V30 96 O 9.7076 1.73587 -0.907978 0
M  V30 97 H 8.2876 -0.132364 -0.735179 0
M  V30 98 H 10.9496 -1.01562 -1.66347 0
M  V30 99 H 10.0456 -0.460638 -3.08682 0
M  V30 100 N 10.3467 1.47872 -0.545128 0
M  V30 101 C 11.2767 2.32661 0.197793 0
M  V30 102 C 12.2577 1.43041 0.920504 0
M  V30 103 O 13.4427 1.71912 0.90333 0
M  V30 104 C 10.5727 3.24569 1.23582 0
M  V30 105 C 9.5267 4.23333 0.630323 0
M  V30 106 C 8.8527 5.0448 1.77211 0
M  V30 107 C 10.1527 5.20704 -0.407974 0
M  V30 108 H 11.8467 2.95024 -0.510045 0
M  V30 109 H 9.3927 1.4187 -0.246731 0
M  V30 110 H 11.3457 3.8272 1.76362 0
M  V30 111 H 10.0697 2.60236 1.97344 0
M  V30 112 H 8.7287 3.6639 0.123922 0
M  V30 113 H 8.3767 4.36561 2.49847 0
M  V30 114 H 8.0767 5.71339 1.37281 0
M  V30 115 H 9.6007 5.65487 2.3034 0
M  V30 116 H 11.0147 5.7329 0.033305 0
M  V30 117 H 9.4117 5.95699 -0.725486 0
M  V30 118 H 10.4817 4.66917 -1.30828 0
M  V30 119 N 11.8248 0.280983 1.55075 0
M  V30 120 C 13.0708 -0.33461 2.00021 0
M  V30 121 C 13.4038 -1.55063 1.16915 0
M  V30 122 O 12.6788 -1.93006 0.240646 0
M  V30 123 C 12.9618 -0.711007 3.53011 0
M  V30 124 C 12.8148 0.512766 4.46868 0
M  V30 125 C 14.1338 -1.54522 4.12081 0
M  V30 126 H 11.2528 -0.120147 0.727141 0
M  V30 127 H 13.8948 0.389097 1.85973 0
M  V30 128 H 12.0448 -1.32761 3.65112 0
M  V30 129 H 13.7168 1.15131 4.46702 0
M  V30 130 H 11.9598 1.14975 4.18286 0
M  V30 131 H 12.6308 0.205556 5.51617 0
M  V30 132 H 15.1068 -1.02442 4.03293 0
M  V30 133 H 13.9828 -1.77739 5.19327 0
M  V30 134 H 14.2438 -2.52813 3.62682 0
M  V30 135 N 13.3029 -1.57598 0.00835791 0
M  V30 136 C 14.2659 -2.07884 -0.965242 0
M  V30 137 C 15.2659 -0.989825 -1.26725 0
M  V30 138 O 16.4559 -1.25218 -1.21104 0
M  V30 139 C 13.5879 -2.52731 -2.28779 0
M  V30 140 H 14.7809 -2.95178 -0.530112 0
M  V30 141 H 12.3339 -1.54458 -0.239283 0
M  V30 142 H 13.0689 -1.68705 -2.76964 0
M  V30 143 H 12.8539 -3.32272 -2.08177 0
M  V30 144 H 14.3439 -2.91933 -2.98605 0
M  V30 145 N 14.781 0.264519 -1.55364 0
M  V30 146 C 16.192 0.834936 -1.6699 0
M  V30 147 C 16.543 1.86718 -0.602552 0
M  V30 148 O 15.668 2.14899 0.254425 0
M  V30 149 C 16.263 1.5212 -3.02729 0
M  V30 150 C 14.822 2.03954 -3.16354 0
M  V30 151 C 13.969 0.884498 -2.62815 0
M  V30 152 H 16.92 0.0406869 -1.58648 0
M  V30 153 H 16.941 2.38853 -2.96191 0
M  V30 154 H 16.453 0.769668 -3.80392 0
M  V30 155 H 14.554 2.82041 -2.43482 0
M  V30 156 H 14.667 2.24902 -4.23032 0
M  V30 157 H 13.031 1.2802 -2.20188 0
M  V30 158 H 13.814 0.14634 -3.42988 0
M  V30 159 N 16.2591 1.48442 0.529413 0
M  V30 160 C 17.1911 1.59095 1.64989 0
M  V30 161 C 18.2041 0.475212 1.5571 0
M  V30 162 O 19.3931 0.746081 1.6216 0
M  V30 163 C 16.4931 1.50518 3.0364 0
M  V30 164 C 15.6661 2.77142 3.38395 0
M  V30 165 C 14.7251 2.62012 4.56329 0
M  V30 166 O 13.7511 3.35898 4.59522 0
M  V30 167 N 14.9531 1.71667 5.54536 0
M  V30 168 H 17.7181 2.55723 1.56287 0
M  V30 169 H 15.2791 1.45173 0.716697 0
M  V30 170 H 17.2711 1.38091 3.80412 0
M  V30 171 H 15.8411 0.618627 3.06418 0
M  V30 172 H 15.0611 3.0413 2.50796 0
M  V30 173 H 16.3491 3.61146 3.58401 0
M  V30 174 H 15.7471 1.10841 5.54735 0
M  V30 175 H 14.3041 1.65178 6.30523 0
M  V30 176 N 17.7372 -0.778329 1.37039 0
M  V30 177 C 18.6852 -1.91278 1.32345 0
M  V30 178 C 19.6792 -1.68051 0.213331 0
M  V30 179 O 20.8852 -1.75922 0.38098 0
M  V30 180 H 17.2602 -0.628909 0.412283 0
M  V30 181 H 19.2312 -1.92355 2.28127 0
M  V30 182 C 17.9802 -3.28455 1.14073 0
M  V30 183 H 17.3032 -3.46901 1.98746 0
M  V30 184 H 18.7432 -4.08152 1.14837 0
M  V30 185 C 17.2022 -3.36548 -0.154015 0
M  V30 186 O 17.7322 -3.85186 -1.13993 0
M  V30 187 N 15.9382 -2.89894 -0.202475 0
M  V30 188 H 15.4852 -2.50504 0.600476 0
M  V30 189 H 15.4432 -2.9569 -1.06841 0
M  V30 190 N 19.2153 -1.21501 -1.00376 0
M  V30 191 C 20.4433 -1.059 -1.77744 0
M  V30 192 C 20.8583 0.391125 -1.84704 0
M  V30 193 O 20.2153 1.27133 -1.30933 0
M  V30 194 C 20.2663 -1.65111 -3.21591 0
M  V30 195 O 19.9873 -3.0445 -3.15027 0
M  V30 196 C 21.4883 -1.54637 -4.15454 0
M  V30 197 H 18.7083 -0.371825 -0.558558 0
M  V30 198 H 21.2523 -1.60865 -1.26264 0
M  V30 199 H 19.4073 -1.14235 -3.70175 0
M  V30 200 H 19.8213 -3.3278 -4.0541 0
M  V30 201 H 21.2953 -2.00808 -5.14179 0
M  V30 202 H 21.7723 -0.501022 -4.36333 0
M  V30 203 H 22.3783 -2.04767 -3.72761 0
M  V30 204 N 20.6934 1.19889 -1.02296 0
M  V30 205 C 21.9404 1.8942 -0.715972 0
M  V30 206 C 22.2684 1.79251 0.754944 0
M  V30 207 O 21.5234 1.17526 1.56481 0
M  V30 208 C 21.8224 3.39883 -1.10518 0
M  V30 209 C 21.4884 3.70254 -2.57337 0
M  V30 210 C 20.1504 3.78254 -2.97452 0
M  V30 211 C 22.5024 3.84052 -3.52354 0
M  V30 212 C 19.8304 3.97514 -4.31509 0
M  V30 213 C 22.1824 4.04824 -4.86108 0
M  V30 214 C 20.8464 4.11054 -5.25919 0
M  V30 215 H 20.1164 0.693138 -0.261993 0
M  V30 216 H 22.7634 1.42012 -1.28472 0
M  V30 217 H 21.0684 3.8915 -0.454953 0
M  V30 218 H 22.7654 3.9199 -0.845261 0
M  V30 219 H 19.3554 3.64632 -2.25258 0
M  V30 220 H 23.5394 3.77221 -3.22518 0
M  V30 221 H 18.7954 4.00574 -4.61898 0
M  V30 222 H 22.9694 4.14442 -5.59653 0
M  V30 223 H 20.5964 4.2573 -6.29808 0
M  V30 224 N 22.1715 0.800033 1.35784 0
M  V30 225 C 23.1015 0.220184 2.3246 0
M  V30 226 C 24.0825 -0.65073 1.57161 0
M  V30 227 O 25.2675 -0.582359 1.85263 0
M  V30 228 C 22.3975 -0.637353 3.41402 0
M  V30 229 C 21.3515 0.134531 4.27789 0
M  V30 230 C 20.6775 -0.844285 5.27992 0
M  V30 231 C 21.9775 1.32979 5.05088 0
M  V30 232 H 23.6715 1.02787 2.81203 0
M  V30 233 H 21.2175 0.495717 1.35199 0
M  V30 234 H 23.1705 -1.05302 4.08031 0
M  V30 235 H 21.8945 -1.47785 2.91251 0
M  V30 236 H 20.5535 0.531296 3.6273 0
M  V30 237 H 20.2015 -1.68011 4.74111 0
M  V30 238 H 19.9015 -0.332184 5.8666 0
M  V30 239 H 21.4255 -1.2583 5.97494 0
M  V30 240 H 22.8395 0.98934 5.64699 0
M  V30 241 H 21.2365 1.77593 5.7322 0
M  V30 242 H 22.3065 2.11978 4.36111 0
M  V30 243 N 23.6496 -1.47581 0.552962 0
M  V30 244 C 24.5596 -2.33743 -0.200353 0
M  V30 245 C 25.5756 -1.47928 -0.916151 0
M  V30 246 O 26.7516 -1.80865 -0.885993 0
M  V30 247 C 23.8166 -3.24536 -1.21973 0
M  V30 248 C 22.8776 -4.26238 -0.511819 0
M  V30 249 C 22.1106 -5.12693 -1.48263 0
M  V30 250 O 22.3336 -5.01525 -2.71714 0
M  V30 251 O 21.2676 -5.93375 -1.00945 0
M  V30 252 H 25.0936 -2.9945 0.506304 0
M  V30 253 H 22.6786 -1.46071 0.313622 0
M  V30 254 H 24.5606 -3.80631 -1.80827 0
M  V30 255 H 23.2356 -2.61462 -1.90839 0
M  V30 256 H 22.1426 -3.73914 0.117799 0
M  V30 257 H 23.4756 -4.92014 0.135308 0
M  V30 258 N 25.1277 -0.289203 -1.54924 0
M  V30 259 C 26.0757 0.607966 -2.24514 0
M  V30 260 C 27.0697 1.14655 -1.24702 0
M  V30 261 O 28.2757 1.09856 -1.4259 0
M  V30 262 H 24.6507 0.21464 -0.720718 0
M  V30 263 H 26.6217 -0.00164182 -2.984 0
M  V30 264 C 25.3707 1.77406 -2.99036 0
M  V30 265 H 24.6937 1.36884 -3.75637 0
M  V30 266 H 26.1337 2.37814 -3.51028 0
M  V30 267 C 24.5927 2.67107 -2.05318 0
M  V30 268 O 25.1227 3.6787 -1.61353 0
M  V30 269 N 23.3287 2.34582 -1.71521 0
M  V30 270 H 22.8757 1.52688 -2.07471 0
M  V30 271 H 22.8337 2.94867 -1.0909 0
M  V30 272 N 26.6058 1.57591 -0.0167156 0
M  V30 273 C 27.8548 1.90461 0.663877 0
M  V30 274 C 28.1678 0.893515 1.73999 0
M  V30 275 O 29.3738 1.11302 2.47637 0
M  V30 276 C 27.8298 3.38155 1.23204 0
M  V30 277 C 27.4378 4.47597 0.189866 0
M  V30 278 C 29.1818 3.80111 1.88986 0
M  V30 279 C 27.0888 5.86379 0.768964 0
M  V30 280 H 26.0188 0.710738 0.251729 0
M  V30 281 H 28.6698 1.83326 -0.0799926 0
M  V30 282 H 27.0518 3.40182 2.02712 0
M  V30 283 H 28.2258 4.57112 -0.581846 0
M  V30 284 H 26.5408 4.14766 -0.368475 0
M  V30 285 H 29.1378 4.81145 2.33247 0
M  V30 286 H 29.4808 3.14511 2.72743 0
M  V30 287 H 30.0138 3.80454 1.16187 0
M  V30 288 H 26.7528 6.55493 -0.0301957 0
M  V30 289 H 26.2728 5.80496 1.50945 0
M  V30 290 H 27.9518 6.34563 1.26251 0
M  V30 291 N 28.0839 -0.256276 1.55502 0
M  V30 292 C 29.3299 -0.987079 1.77157 0
M  V30 293 C 29.6629 -1.85327 0.580315 0
M  V30 294 O 28.9379 -1.89874 -0.421686 0
M  V30 295 C 29.2209 -1.85553 3.08613 0
M  V30 296 C 29.0739 -1.01816 4.38125 0
M  V30 297 C 30.3929 -2.8397 3.36228 0
M  V30 298 H 27.5119 -0.357428 0.644526 0
M  V30 299 H 30.1539 -0.258239 1.88237 0
M  V30 300 H 28.3039 -2.47695 2.99298 0
M  V30 301 H 29.9759 -0.416159 4.59419 0
M  V30 302 H 28.2189 -0.322178 4.32602 0
M  V30 303 H 28.8899 -1.65939 5.26468 0
M  V30 304 H 31.3659 -2.31964 3.45445 0
M  V30 305 H 30.2419 -3.41864 4.29442 0
M  V30 306 H 30.5029 -3.59955 2.56681 0
M  V30 307 N 29.562 -1.4872 -0.521534 0
M  V30 308 C 30.978 -1.35028 -0.850855 0
M  V30 309 C 31.178 -0.367712 -1.98116 0
M  V30 310 O 30.234 0.208037 -2.51642 0
M  V30 311 C 31.547 -2.75263 -1.21041 0
M  V30 312 C 33.095 -2.83813 -1.31981 0
M  V30 313 C 33.57 -4.24769 -1.71276 0
M  V30 314 N 35.061 -4.27482 -1.78363 0
M  V30 315 C 35.796 -5.33494 -2.1017 0
M  V30 316 N 35.292 -6.49775 -2.40343 0
M  V30 317 N 37.085 -5.20894 -2.11248 0
M  V30 318 H 29.236 -2.11214 0.22413 0
M  V30 319 H 31.499 -0.947252 0.0376439 0
M  V30 320 H 31.205 -3.48765 -0.453415 0
M  V30 321 H 31.079 -3.09327 -2.15863 0
M  V30 322 H 33.466 -2.10561 -2.06756 0
M  V30 323 H 33.547 -2.53358 -0.352596 0
M  V30 324 H 33.191 -4.9854 -0.970588 0
M  V30 325 H 33.121 -4.52673 -2.69062 0
M  V30 326 H 35.612 -3.43611 -1.57288 0
M  V30 327 H 35.925 -7.26402 -2.63743 0
M  V30 328 H 34.27 -6.53035 -2.37844 0
M  V30 329 H 37.461 -4.29065 -1.87139 0
M  V30 330 H 37.634 -6.03612 -2.35704 0
M  V30 331 N 31.0401 0.771051 -1.3745 0
M  V30 332 C 32.4561 1.07171 -1.18265 0
M  V30 333 C 32.6561 2.01491 -0.019287 0
M  V30 334 O 31.7121 2.44244 0.640408 0
M  V30 335 C 33.0251 1.66854 -2.50161 0
M  V30 336 C 34.5731 1.79109 -2.56689 0
M  V30 337 C 35.0481 2.42205 -3.88717 0
M  V30 338 N 36.5391 2.49655 -3.90162 0
M  V30 339 C 37.2741 2.9933 -4.8907 0
M  V30 340 N 36.7701 3.49172 -5.98374 0
M  V30 341 N 38.5631 2.9821 -4.76474 0
M  V30 342 H 30.7141 0.144796 -2.11906 0
M  V30 343 H 32.9771 0.126863 -0.939473 0
M  V30 344 H 32.6831 1.05017 -3.35655 0
M  V30 345 H 32.5571 2.6614 -2.673 0
M  V30 346 H 34.9441 2.40077 -1.71601 0
M  V30 347 H 35.0251 0.785757 -2.43433 0
M  V30 348 H 34.6691 1.81875 -4.74219 0
M  V30 349 H 34.5991 3.43345 -3.99276 0
M  V30 350 H 37.0901 2.14383 -3.11205 0
M  V30 351 H 37.4031 3.8548 -6.69795 0
M  V30 352 H 35.7481 3.47275 -6.02018 0
M  V30 353 H 38.9391 2.58572 -3.90203 0
M  V30 354 H 39.1121 3.36613 -5.53711 0
M  V30 355 N 32.5182 1.22032 0.997298 0
M  V30 356 C 33.7432 1.06921 1.77715 0
M  V30 357 C 34.1682 -0.376226 1.84299 0
M  V30 358 O 33.5262 -1.27165 1.29223 0
M  V30 359 C 33.5742 1.67996 3.19076 0
M  V30 360 O 32.6782 0.930653 4.01762 0
M  V30 361 H 32.0192 0.375814 0.547412 0
M  V30 362 H 34.5492 1.61737 1.25309 0
M  V30 363 H 34.5592 1.72538 3.69723 0
M  V30 364 H 33.2342 2.73182 3.13599 0
M  V30 365 H 31.8112 0.960917 3.60307 0
M  V30 366 N 33.9963 -1.19345 1.0293 0
M  V30 367 C 35.2213 -1.93538 0.745511 0
M  V30 368 C 35.6463 -1.75007 -0.689511 0
M  V30 369 O 35.0043 -1.05265 -1.47611 0
M  V30 370 C 35.0523 -3.43336 1.10239 0
M  V30 371 O 34.1563 -4.11806 0.221289 0
M  V30 372 H 33.4973 -0.604193 0.275404 0
M  V30 373 H 36.0273 -1.5141 1.37609 0
M  V30 374 H 36.0373 -3.94004 1.05947 0
M  V30 375 H 34.7123 -3.56146 2.14786 0
M  V30 376 H 33.2893 -3.715 0.322842 0
M  V30 377 N 35.4744 -0.807222 -1.35358 0
M  V30 378 C 36.3844 -0.219594 -2.3357 0
M  V30 379 C 37.4004 0.637734 -1.61892 0
M  V30 380 O 38.5764 0.549336 -1.93763 0
M  V30 381 C 35.6414 0.62158 -3.41083 0
M  V30 382 C 34.7024 -0.256315 -4.28534 0
M  V30 383 C 33.9354 0.544807 -5.30912 0
M  V30 384 O 34.1584 1.77944 -5.41934 0
M  V30 385 O 33.0924 -0.0646478 -6.01865 0
M  V30 386 H 36.9184 -1.03208 -2.85625 0
M  V30 387 H 34.5034 -0.569025 -1.38139 0
M  V30 388 H 36.3854 1.10067 -4.06772 0
M  V30 389 H 35.0604 1.41165 -2.91297 0
M  V30 390 H 33.9674 -0.782559 -3.65823 0
M  V30 391 H 35.3004 -1.01034 -4.81719 0
M  V30 392 N 36.9525 1.47285 -0.560781 0
M  V30 393 C 38.1775 2.07359 -0.0410566 0
M  V30 394 C 38.6025 1.41017 1.24483 0
M  V30 395 O 37.9605 0.486368 1.74654 0
M  V30 396 C 38.0085 3.6035 0.134123 0
M  V30 397 O 37.1125 3.94681 1.19587 0
M  V30 398 H 36.4535 0.661887 -0.0529291 0
M  V30 399 H 38.9835 1.89252 -0.777482 0
M  V30 400 H 38.9935 4.0652 0.347207 0
M  V30 401 H 37.6685 4.08034 -0.805047 0
M  V30 402 H 36.2455 3.60251 0.962987 0
M  V30 403 N 38.4306 0.297415 1.54768 0
M  V30 404 C 39.6556 -0.318435 2.04941 0
M  V30 405 C 40.0806 -1.4701 1.17345 0
M  V30 406 O 39.4386 -1.80436 0.176758 0
M  V30 407 C 39.4866 -0.755749 3.52592 0
M  V30 408 O 38.5906 -1.86088 3.68028 0
M  V30 409 H 37.9316 -0.062421 0.661059 0
M  V30 410 H 40.4616 0.438215 1.99852 0
M  V30 411 H 40.4716 -1.04552 3.94376 0
M  V30 412 H 39.1466 0.0867233 4.1581 0
M  V30 413 H 37.7236 -1.57193 3.38149 0
M  V30 414 N 39.9087 -1.5758 0.0250728 0
M  V30 415 C 41.1557 -1.91633 -0.654444 0
M  V30 416 C 41.4837 -0.901103 -1.72367 0
M  V30 417 O 40.7387 0.0905647 -1.9549 0
M  V30 418 C 41.0377 -3.32421 -1.31268 0
M  V30 419 C 40.7037 -4.49344 -0.374223 0
M  V30 420 C 39.3657 -4.8106 -0.115911 0
M  V30 421 C 41.7177 -5.20498 0.270432 0
M  V30 422 C 39.0457 -5.8129 0.79493 0
M  V30 423 C 41.3977 -6.21699 1.1693 0
M  V30 424 C 40.0617 -6.51859 1.43655 0
M  V30 425 H 39.3317 -0.701236 -0.239478 0
M  V30 426 H 41.9787 -1.91307 0.0859734 0
M  V30 427 H 40.2837 -3.28989 -2.12775 0
M  V30 428 H 41.9807 -3.56038 -1.84494 0
M  V30 429 H 38.5707 -4.24579 -0.58573 0
M  V30 430 H 42.7547 -4.96229 0.0839194 0
M  V30 431 H 38.0107 -6.03005 1.00973 0
M  V30 432 H 42.1847 -6.75955 1.67504 0
M  V30 433 H 39.8117 -7.2934 2.144 0
M  V30 434 N 41.3868 0.248026 -1.55636 0
M  V30 435 C 42.3168 1.31079 -1.93237 0
M  V30 436 C 43.2978 1.50264 -0.797174 0
M  V30 437 O 44.4828 1.62891 -1.05737 0
M  V30 438 C 41.6128 2.66575 -2.22609 0
M  V30 439 C 40.5668 2.62087 -3.3837 0
M  V30 440 C 39.8928 4.01369 -3.53281 0
M  V30 441 C 41.1928 2.19171 -4.7409 0
M  V30 442 H 42.8868 0.998556 -2.82257 0
M  V30 443 H 40.4328 0.47891 -1.35803 0
M  V30 444 H 42.3858 3.41057 -2.47503 0
M  V30 445 H 41.1098 2.99432 -1.30414 0
M  V30 446 H 39.7688 1.90063 -3.13483 0
M  V30 447 H 39.4168 4.31489 -2.58508 0
M  V30 448 H 39.1168 3.99254 -4.31127 0
M  V30 449 H 40.6408 4.77552 -3.80495 0
M  V30 450 H 42.0548 2.83384 -4.98363 0
M  V30 451 H 40.4518 2.2817 -5.5503 0
M  V30 452 H 41.5218 1.14336 -4.71227 0
M  V30 453 N 42.8649 1.48995 0.513639 0
M  V30 454 C 43.7949 1.67636 1.62544 0
M  V30 455 C 44.7759 0.525087 1.61793 0
M  V30 456 O 45.9609 0.759502 1.78732 0
M  V30 457 C 43.0909 1.73114 3.01079 0
M  V30 458 C 42.0449 2.87905 3.16693 0
M  V30 459 C 41.3709 2.78486 4.56453 0
M  V30 460 C 42.6709 4.29005 2.97913 0
M  V30 461 H 44.3649 2.60716 1.47198 0
M  V30 462 H 41.9109 1.25465 0.706714 0
M  V30 463 H 43.8639 1.84742 3.78746 0
M  V30 464 H 42.5879 0.766241 3.17484 0
M  V30 465 H 41.2469 2.75859 2.41448 0
M  V30 466 H 40.8949 1.7993 4.69717 0
M  V30 467 H 40.5949 3.55523 4.67843 0
M  V30 468 H 42.1189 2.92104 5.36197 0
M  V30 469 H 43.5329 4.41798 3.65359 0
M  V30 470 H 41.9299 5.07166 3.20785 0
M  V30 471 H 42.9999 4.44329 1.94165 0
M  V30 472 N 44.343 -0.763751 1.37857 0
M  V30 473 C 45.591 -1.51957 1.33243 0
M  V30 474 C 45.912 -1.94835 -0.0801709 0
M  V30 475 O 45.182 -1.66894 -1.02582 0
M  V30 476 H 43.762 -0.563626 0.49024 0
M  V30 477 H 46.424 -0.908504 1.7243 0
M  V30 478 H 45.52 -2.41523 1.97669 0
M  V30 479 N 45.8211 -1.22559 -0.990812 0
M  V30 480 C 46.7691 -0.994798 -2.10253 0
M  V30 481 C 47.7631 0.0627798 -1.69284 0
M  V30 482 O 48.9691 -0.0898392 -1.79776 0
M  V30 483 H 45.3441 -0.304527 -0.687581 0
M  V30 484 H 47.3151 -1.93812 -2.26891 0
M  V30 485 C 46.0641 -0.591439 -3.42633 0
M  V30 486 H 45.3871 -1.3969 -3.74602 0
M  V30 487 H 46.8271 -0.469385 -4.21394 0
M  V30 488 C 45.2861 0.699232 -3.29564 0
M  V30 489 O 45.8161 1.75112 -3.61523 0
M  V30 490 N 44.0221 0.671182 -2.82743 0
M  V30 491 H 43.5691 -0.185136 -2.56934 0
M  V30 492 H 43.5271 1.53502 -2.7438 0
M  V30 493 N 47.2992 1.18797 -1.03562 0
M  V30 494 C 48.2622 2.20464 -0.626769 0
M  V30 495 C 49.2622 1.57721 0.313173 0
M  V30 496 O 50.4522 1.73917 0.0992615 0
M  V30 497 C 47.5842 3.40802 0.0818498 0
M  V30 498 H 48.7772 2.58149 -1.5264 0
M  V30 499 H 46.3302 1.32593 -0.827578 0
M  V30 500 H 47.0652 3.08642 0.995518 0
M  V30 501 H 46.8502 3.8758 -0.593652 0
M  V30 502 H 48.3402 4.16092 0.354584 0
M  V30 503 N 48.7773 0.814389 1.34928 0
M  V30 504 C 49.7093 0.187834 2.28429 0
M  V30 505 C 50.7223 -0.617374 1.5064 0
M  V30 506 O 51.9113 -0.448454 1.72775 0
M  V30 507 C 49.0113 -0.755962 3.30361 0
M  V30 508 C 48.1843 0.00456686 4.374 0
M  V30 509 C 47.2433 -0.858876 5.19143 0
M  V30 510 O 46.2693 -0.306968 5.68372 0
M  V30 511 N 47.4713 -2.17988 5.38016 0
M  V30 512 H 50.2363 0.991105 2.82838 0
M  V30 513 H 47.7973 0.670561 1.4736 0
M  V30 514 H 49.7893 -1.338 3.81942 0
M  V30 515 H 48.3593 -1.46001 2.7641 0
M  V30 516 H 47.5793 0.767865 3.86649 0
M  V30 517 H 48.8673 0.528422 5.06049 0
M  V30 518 H 48.2653 -2.65212 4.99679 0
M  V30 519 H 46.8223 -2.71098 5.92747 0
M  V30 520 N 50.2554 -1.46986 0.568584 0
M  V30 521 C 51.5044 -2.01646 0.0465894 0
M  V30 522 C 51.8174 -1.44721 -1.31587 0
M  V30 523 O 53.0234 -1.91113 -1.92842 0
M  V30 524 C 51.4794 -3.59885 0.032752 0
M  V30 525 C 51.0874 -4.25804 1.39266 0
M  V30 526 C 52.8314 -4.22255 -0.436038 0
M  V30 527 C 50.7384 -5.76081 1.33732 0
M  V30 528 H 49.6684 -0.753876 0.013647 0
M  V30 529 H 52.3194 -1.68864 0.718131 0
M  V30 530 H 50.7014 -3.8968 -0.704669 0
M  V30 531 H 51.8754 -4.07637 2.1487 0
M  V30 532 H 50.1904 -3.7547 1.80032 0
M  V30 533 H 52.7874 -5.32394 -0.49602 0
M  V30 534 H 53.1304 -3.90212 -1.45053 0
M  V30 535 H 53.6634 -3.97033 0.246877 0
M  V30 536 H 50.4024 -6.12761 2.32817 0
M  V30 537 H 49.9224 -5.96553 0.623267 0
M  V30 538 H 51.6014 -6.38518 1.0442 0
M  V30 539 N 51.7335 -0.305618 -1.54608 0
M  V30 540 C 52.9795 0.302746 -2.00528 0
M  V30 541 C 53.3125 1.53184 -1.19367 0
M  V30 542 O 52.5875 1.92598 -0.271321 0
M  V30 543 C 52.8705 0.654756 -3.54097 0
M  V30 544 C 52.7235 -0.583793 -4.45995 0
M  V30 545 C 54.0425 1.47947 -4.14487 0
M  V30 546 H 51.1615 0.108564 -0.72896 0
M  V30 547 H 53.8035 -0.418634 -1.85331 0
M  V30 548 H 51.9535 1.26935 -3.67178 0
M  V30 549 H 53.6255 -1.22224 -4.44814 0
M  V30 550 H 51.8685 -1.21615 -4.16404 0
M  V30 551 H 52.5395 -0.293287 -5.5122 0
M  V30 552 H 55.0155 0.96013 -4.04871 0
M  V30 553 H 53.8915 1.69454 -5.22088 0
M  V30 554 H 54.1525 2.47011 -3.66658 0
M  V30 555 N 53.2116 1.57565 -0.0334293 0
M  V30 556 C 54.4886 1.83282 0.683163 0
M  V30 557 C 54.8686 0.91823 1.90084 0
M  V30 558 O 54.2166 -0.025113 2.28486 0
M  V30 559 C 54.4266 3.32599 1.0573 0
M  V30 560 C 55.7746 3.99179 1.44711 0
M  V30 561 O 56.7986 3.3712 1.15015 0
M  V30 562 O 55.6576 5.08565 2.0006 0
M  V30 563 H 52.7516 0.755869 0.335546 0
M  V30 564 H 55.2976 1.69589 -0.0614402 0
M  V30 565 H 54.0696 3.90834 0.190828 0
M  V30 566 H 53.6926 3.51415 1.85993 0
M  V30 567 N 54.6897 -0.239769 1.55765 0
M  V30 568 C 55.9357 -0.963942 1.79108 0
M  V30 569 C 56.2907 -1.82689 0.60352 0
M  V30 570 O 55.5837 -1.87313 -0.403033 0
M  V30 571 C 55.7777 -1.852 3.05672 0
M  V30 572 C 55.6067 -1.07651 4.36625 0
M  V30 573 C 54.3767 -0.778738 4.99263 0
M  V30 574 C 56.5747 -0.45062 5.12322 0
M  V30 575 N 54.5567 0.0200708 6.13897 0
M  V30 576 C 55.9277 0.212429 6.19636 0
M  V30 577 C 57.9827 -0.361806 4.96584 0
M  V30 578 C 56.6857 0.955772 7.12922 0
M  V30 579 C 58.7117 0.368023 5.90254 0
M  V30 580 C 58.0737 1.01968 6.96981 0
M  V30 581 H 54.1727 -0.333601 0.707272 0
M  V30 582 H 56.7567 -0.236425 1.93259 0
M  V30 583 H 54.9277 -2.55149 2.92837 0
M  V30 584 H 56.6597 -2.51228 3.1728 0
M  V30 585 H 53.4147 -1.09229 4.60832 0
M  V30 586 H 53.8387 0.407777 6.75771 0
M  V30 587 H 58.4807 -0.851286 4.14141 0
M  V30 588 H 56.1987 1.45683 7.9486 0
M  V30 589 H 59.7847 0.437504 5.80153 0
M  V30 590 H 58.6647 1.5754 7.68213 0
M  V30 591 N 56.1678 -1.49265 -0.50573 0
M  V30 592 C 57.5788 -1.51769 -1.08734 0
M  V30 593 C 57.9298 -0.301192 -1.93874 0
M  V30 594 O 57.0548 0.589456 -2.08217 0
M  V30 595 C 57.6498 -2.75017 -1.97867 0
M  V30 596 C 56.2088 -2.80314 -2.51199 0
M  V30 597 C 55.3558 -2.4562 -1.28709 0
M  V30 598 H 58.3068 -1.56031 -0.289855 0
M  V30 599 H 58.3278 -2.5491 -2.82491 0
M  V30 600 H 57.8398 -3.63539 -1.35873 0
M  V30 601 H 55.9408 -1.96061 -3.16845 0
M  V30 602 H 56.0538 -3.82366 -2.88675 0
M  V30 603 H 54.4178 -1.97297 -1.61078 0
M  V30 604 H 55.2008 -3.36411 -0.6843 0
M  V30 605 N 57.6459 0.756429 -1.3826 0
M  V30 606 C 58.8919 1.51772 -1.34511 0
M  V30 607 C 59.2249 1.94089 0.0656691 0
M  V30 608 O 58.4999 1.65221 1.02626 0
M  V30 609 C 58.7829 2.77226 -2.29821 0
M  V30 610 C 58.6359 2.41065 -3.79747 0
M  V30 611 C 59.9549 3.79236 -2.23312 0
M  V30 612 H 57.0739 0.550578 -0.489931 0
M  V30 613 H 59.7159 0.866607 -1.69086 0
M  V30 614 H 57.8659 3.32784 -2.00467 0
M  V30 615 H 59.5379 1.91303 -4.19763 0
M  V30 616 H 57.7809 1.7356 -3.97567 0
M  V30 617 H 58.4519 3.3081 -4.41892 0
M  V30 618 H 60.9279 3.3321 -2.49219 0
M  V30 619 H 59.8039 4.64714 -2.92116 0
M  V30 620 H 60.0649 4.24615 -1.23102 0
M  V30 621 N 59.124 1.23083 0.984299 0
M  V30 622 C 60.37 1.06214 1.72761 0
M  V30 623 C 60.703 -0.400584 1.90024 0
M  V30 624 O 59.978 -1.29672 1.44967 0
M  V30 625 C 60.261 1.78375 3.12817 0
M  V30 626 C 60.114 3.32296 3.03149 0
M  V30 627 C 61.433 1.54309 4.12161 0
M  V30 628 H 58.552 0.387251 0.627061 0
M  V30 629 H 61.194 1.51536 1.14616 0
M  V30 630 H 59.344 1.39848 3.62457 0
M  V30 631 H 61.016 3.8032 2.61064 0
M  V30 632 H 59.259 3.6153 2.39747 0
M  V30 633 H 59.93 3.77972 4.02295 0
M  V30 634 H 62.406 1.87791 3.71314 0
M  V30 635 H 61.282 2.07281 5.08258 0
M  V30 636 H 61.543 0.477572 4.39513 0
M  V30 637 N 60.6021 -1.18246 1.0419 0
M  V30 638 C 61.8321 -1.91916 0.764961 0
M  V30 639 C 62.2401 -1.76485 -0.681898 0
M  V30 640 O 61.5831 -1.09275 -1.47664 0
M  V30 641 C 61.6451 -3.4373 1.05309 0
M  V30 642 C 61.3091 -3.8294 2.4941 0
M  V30 643 C 62.3061 -3.86621 3.47592 0
M  V30 644 C 59.9911 -4.142 2.84155 0
M  V30 645 C 61.9851 -4.21013 4.78568 0
M  V30 646 C 59.6721 -4.48262 4.15337 0
M  V30 647 C 60.6701 -4.51645 5.12353 0
M  V30 648 O 60.3581 -4.84911 6.41183 0
M  V30 649 H 60.0901 -0.61606 0.278292 0
M  V30 650 H 62.6441 -1.50947 1.39299 0
M  V30 651 H 60.8741 -3.84946 0.367933 0
M  V30 652 H 62.5631 -3.9865 0.763752 0
M  V30 653 H 63.3291 -3.62607 3.22089 0
M  V30 654 H 59.2081 -4.10743 2.09311 0
M  V30 655 H 62.7521 -4.23568 5.54289 0
M  V30 656 H 58.6491 -4.71737 4.40607 0
M  V30 657 H 59.4171 -5.02809 6.45852 0
M  V30 658 N 62.0802 -0.821533 -1.34494 0
M  V30 659 C 63.3052 -0.420873 -2.03085 0
M  V30 660 C 63.7302 0.964915 -1.61465 0
M  V30 661 O 63.0882 1.62763 -0.798607 0
M  V30 662 C 63.1362 -0.529414 -3.56693 0
M  V30 663 O 62.2402 0.451302 -4.09923 0
M  V30 664 H 61.5812 -0.173489 -0.640935 0
M  V30 665 H 64.1112 -1.11157 -1.71771 0
M  V30 666 H 64.1212 -0.404671 -4.05988 0
M  V30 667 H 62.7962 -1.54014 -3.86332 0
M  V30 668 H 61.3732 0.285558 -3.71805 0
M  V30 669 N 63.5583 1.46682 -0.576371 0
M  V30 670 C 64.5063 2.31953 0.17335 0
M  V30 671 C 65.5003 1.44098 0.89062 0
M  V30 672 O 66.7063 1.60759 0.809728 0
M  V30 673 H 63.0813 0.748273 0.0747727 0
M  V30 674 H 65.0523 2.93007 -0.564738 0
M  V30 675 C 63.8013 3.27142 1.17786 0
M  V30 676 H 63.1243 3.94719 0.635361 0
M  V30 677 H 64.5643 3.896 1.67296 0
M  V30 678 C 63.0233 2.52036 2.23561 0
M  V30 679 O 63.5533 2.27877 3.3081 0
M  V30 680 N 61.7593 2.12709 1.97998 0
M  V30 681 H 61.3063 2.32557 1.10792 0
M  V30 682 H 61.2643 1.62776 2.68982 0
M  V30 683 N 65.0364 0.313813 1.54444 0
M  V30 684 C 66.3134 -0.345447 1.92525 0
M  V30 685 C 66.6934 -1.70667 1.24242 0
M  V30 686 O 66.0414 -2.25273 0.382654 0
M  V30 687 C 66.2514 -0.44737 3.46121 0
M  V30 688 C 67.5994 -0.712238 4.18584 0
M  V30 689 O 68.6234 -0.530678 3.52225 0
M  V30 690 O 67.4824 -1.06183 5.36085 0
M  V30 691 H 64.5764 -0.195407 0.803583 0
M  V30 692 H 67.1224 0.362813 1.65776 0
M  V30 693 H 65.8944 0.509043 3.87975 0
M  V30 694 H 65.5174 -1.20359 3.78945 0
M  V30 695 N 66.5145 -1.57545 0.0417849 0
M  V30 696 C 67.7625 -1.91937 -0.632829 0
M  V30 697 C 68.0835 -0.919978 -1.71934 0
M  V30 698 O 67.3535 0.0366064 -1.95866 0
M  V30 699 H 65.9335 -0.708493 -0.236742 0
M  V30 700 H 68.5955 -1.9468 0.0925745 0
M  V30 701 H 67.6915 -2.92912 -1.07746 0
M  V30 702 N 67.9926 0.231505 -1.5589 0
M  V30 703 C 69.2396 0.957352 -1.78441 0
M  V30 704 C 69.5676 1.84726 -0.60882 0
M  V30 705 O 68.8226 1.91416 0.40725 0
M  V30 706 C 69.1216 1.83577 -3.0665 0
M  V30 707 C 68.7876 1.09993 -4.37278 0
M  V30 708 C 67.4496 0.896629 -4.72773 0
M  V30 709 C 69.8016 0.579558 -5.17968 0
M  V30 710 C 67.1296 0.160896 -5.86479 0
M  V30 711 C 69.4816 -0.142783 -6.32439 0
M  V30 712 C 68.1456 -0.357427 -6.66542 0
M  V30 713 H 67.4156 0.35032 -0.65296 0
M  V30 714 H 70.0626 0.226259 -1.90159 0
M  V30 715 H 68.3676 2.63441 -2.90011 0
M  V30 716 H 70.0646 2.39934 -3.21298 0
M  V30 717 H 66.6546 1.26835 -4.09403 0
M  V30 718 H 70.8386 0.724125 -4.90989 0
M  V30 719 H 66.0946 -0.0157293 -6.11398 0
M  V30 720 H 70.2686 -0.553559 -6.94196 0
M  V30 721 H 67.8956 -0.929466 -7.54497 0
M  V30 722 N 69.4707 1.49531 0.497807 0
M  V30 723 C 70.7107 1.60799 1.26187 0
M  V30 724 C 71.0747 0.289627 1.89803 0
M  V30 725 O 72.2757 0.277512 2.67364 0
M  V30 726 C 70.5467 2.73729 2.29798 0
M  V30 727 S 72.1057 3.04968 3.155 0
M  V30 728 H 68.9237 0.567145 0.428798 0
M  V30 729 H 71.5257 1.87204 0.563477 0
M  V30 730 H 70.2297 3.68036 1.81597 0
M  V30 731 H 69.7607 2.49328 3.04301 0
M  V30 732 H 71.7757 2.46735 4.30507 0
M  V30 733 N 70.9488 -0.749086 1.3866 0
M  V30 734 C 71.8958 -1.86291 1.36251 0
M  V30 735 C 72.8658 -1.64578 0.224347 0
M  V30 736 O 74.0508 -1.86181 0.417279 0
M  V30 737 C 71.1908 -3.23644 1.19786 0
M  V30 738 C 70.3038 -3.57158 2.43027 0
M  V30 739 C 69.4388 -4.83838 2.19258 0
M  V30 740 C 68.4778 -5.10152 3.38247 0
M  V30 741 N 67.6148 -6.28029 3.13884 0
M  V30 742 H 72.4548 -1.87685 2.3147 0
M  V30 743 H 69.9918 -0.917287 1.14997 0
M  V30 744 H 71.9498 -4.0291 1.08254 0
M  V30 745 H 70.5798 -3.21566 0.282031 0
M  V30 746 H 69.6318 -2.72701 2.65214 0
M  V30 747 H 70.9438 -3.7253 3.31697 0
M  V30 748 H 70.0978 -5.71057 2.04888 0
M  V30 749 H 68.8368 -4.70614 1.2796 0
M  V30 750 H 67.8418 -4.21401 3.53131 0
M  V30 751 H 69.0668 -5.25271 4.30427 0
M  V30 752 H 67.0128 -6.1612 2.25238 0
M  V30 753 H 66.9298 -6.43922 3.96106 0
M  V30 754 H 68.1978 -7.18124 3.03179 0
M  V30 755 N 72.4269 -1.23603 -0.977757 0
M  V30 756 C 73.3569 -1.04401 -2.0886 0
M  V30 757 C 74.3379 0.0399052 -1.70053 0
M  V30 758 O 75.5229 -0.125246 -1.93796 0
M  V30 759 C 72.6529 -0.637269 -3.41403 0
M  V30 760 C 71.6069 -1.66883 -3.94124 0
M  V30 761 C 70.9329 -1.11745 -5.22893 0
M  V30 762 C 72.2329 -3.06247 -4.23096 0
M  V30 763 H 73.9269 -1.97316 -2.25182 0
M  V30 764 H 71.4729 -0.950096 -1.08209 0
M  V30 765 H 73.4259 -0.48998 -4.18542 0
M  V30 766 H 72.1499 0.327557 -3.24953 0
M  V30 767 H 70.8089 -1.80416 -3.19133 0
M  V30 768 H 70.4569 -0.143527 -5.02795 0
M  V30 769 H 70.1569 -1.80672 -5.59134 0
M  V30 770 H 71.6809 -0.982067 -6.02651 0
M  V30 771 H 73.0949 -2.96001 -4.90975 0
M  V30 772 H 71.4919 -3.72436 -4.70544 0
M  V30 773 H 72.5619 -3.55041 -3.30263 0
M  V30 774 N 73.905 1.17692 -1.04816 0
M  V30 775 C 75.13 1.92327 -0.776207 0
M  V30 776 C 75.555 1.76082 0.661581 0
M  V30 777 O 74.913 1.076 1.45917 0
M  V30 778 C 74.961 3.41539 -1.15687 0
M  V30 779 O 74.065 4.11402 -0.286775 0
M  V30 780 H 73.406 0.599735 -0.284981 0
M  V30 781 H 75.936 1.49201 -1.4 0
M  V30 782 H 75.946 3.92269 -1.12202 0
M  V30 783 H 74.621 3.52684 -2.20425 0
M  V30 784 H 73.198 3.70939 -0.381903 0
M  V30 785 N 75.3831 0.828654 1.34056 0
M  V30 786 C 76.6311 0.41863 1.97717 0
M  V30 787 C 76.9521 -1.02314 1.66002 0
M  V30 788 O 76.2221 -1.71119 0.953683 0
M  V30 789 H 74.8021 0.151809 0.731412 0
M  V30 790 H 77.4641 1.05936 1.63596 0
M  V30 791 H 76.5601 0.542318 3.07352 0
M  V30 792 N 76.8612 -1.46375 0.584142 0
M  V30 793 C 78.0912 -2.06461 0.0758195 0
M  V30 794 C 78.4992 -1.43322 -1.23512 0
M  V30 795 O 77.8422 -0.533216 -1.75791 0
M  V30 796 C 77.9042 -3.59131 -0.162773 0
M  V30 797 C 77.5682 -4.4447 1.06279 0
M  V30 798 C 78.5652 -4.80918 1.97519 0
M  V30 799 C 76.2502 -4.85584 1.28504 0
M  V30 800 C 78.2442 -5.57309 3.09331 0
M  V30 801 C 75.9312 -5.61734 2.4062 0
M  V30 802 C 76.9292 -5.9751 3.30863 0
M  V30 803 O 76.6172 -6.72121 4.41032 0
M  V30 804 H 76.3492 -0.673745 0.0551725 0
M  V30 805 H 78.9032 -1.88969 0.804984 0
M  V30 806 H 77.1332 -3.74936 -0.946565 0
M  V30 807 H 78.8222 -4.0114 -0.619782 0
M  V30 808 H 79.5882 -4.49732 1.81565 0
M  V30 809 H 75.4672 -4.57187 0.591702 0
M  V30 810 H 79.0112 -5.85152 3.79793 0
M  V30 811 H 74.9082 -5.92334 2.56537 0
M  V30 812 H 75.6762 -6.90547 4.39417 0
M  V30 813 N 78.3393 -0.321999 -1.54275 0
M  V30 814 C 79.2893 0.560185 -2.21011 0
M  V30 815 C 80.2733 1.08283 -1.19011 0
M  V30 816 O 81.4653 1.02011 -1.44647 0
M  V30 817 C 78.5943 1.72137 -2.97025 0
M  V30 818 C 77.6803 1.21369 -4.06363 0
M  V30 819 N 78.0713 0.425566 -5.04007 0
M  V30 820 C 76.3693 1.49255 -4.20284 0
M  V30 821 C 77.0703 0.152601 -5.815 0
M  V30 822 N 76.0463 0.738294 -5.38563 0
M  V30 823 H 79.8483 -0.049265 -2.93859 0
M  V30 824 H 77.3623 -0.127779 -1.61897 0
M  V30 825 H 79.3593 2.36512 -3.43319 0
M  V30 826 H 78.0193 2.33431 -2.25699 0
M  V30 827 H 79.0303 0.068551 -5.17855 0
M  V30 828 H 75.7073 2.11145 -3.60172 0
M  V30 829 H 77.0973 -0.481764 -6.70171 0
M  V30 830 N 79.8174 1.5752 -0.0501392 0
M  V30 831 C 81.2334 1.56631 0.306402 0
M  V30 832 C 81.4334 1.0577 1.71508 0
M  V30 833 O 80.4894 0.713837 2.422 0
M  V30 834 C 81.8024 3.00393 0.135811 0
M  V30 835 C 83.3504 3.12315 0.206993 0
M  V30 836 C 83.8254 4.57954 0.064944 0
M  V30 837 N 85.3164 4.63041 0.121254 0
M  V30 838 C 86.0514 5.73389 0.0354381 0
M  V30 839 N 85.5474 6.92724 -0.102666 0
M  V30 840 N 87.3404 5.62026 0.090946 0
M  V30 841 H 79.4914 1.88903 -0.971046 0
M  V30 842 H 81.7544 0.869876 -0.376855 0
M  V30 843 H 81.4604 3.41635 -0.835384 0
M  V30 844 H 81.3344 3.66373 0.897275 0
M  V30 845 H 83.7214 2.70973 1.16866 0
M  V30 846 H 83.8024 2.49016 -0.585208 0
M  V30 847 H 83.4464 4.99981 -0.893394 0
M  V30 848 H 83.3764 5.19258 0.876277 0
M  V30 849 H 85.8674 3.77216 0.227284 0
M  V30 850 H 86.1804 7.72633 -0.160882 0
M  V30 851 H 84.5254 6.94864 -0.137737 0
M  V30 852 H 87.7164 4.67684 0.197388 0
M  V30 853 H 87.8894 6.47997 0.0206089 0
M  V30 854 N 81.2955 -0.223234 1.56011 0
M  V30 855 C 82.2585 -1.26014 1.9145 0
M  V30 856 C 83.2585 -1.3989 0.792937 0
M  V30 857 O 84.4485 -1.38184 1.0607 0
M  V30 858 C 81.5805 -2.63422 2.16383 0
M  V30 859 H 82.7735 -0.95796 2.84189 0
M  V30 860 H 80.3265 -0.463576 1.49267 0
M  V30 861 H 81.0615 -2.98741 1.2619 0
M  V30 862 H 80.8465 -2.54728 2.98088 0
M  V30 863 H 82.3365 -3.38249 2.44903 0
M  V30 864 N 82.7736 -1.49793 -0.48987 0
M  V30 865 C 84.0506 -1.50348 -1.25119 0
M  V30 866 C 84.4306 -0.237466 -2.0976 0
M  V30 867 O 83.7786 0.77981 -2.14782 0
M  V30 868 C 83.9886 -2.78872 -2.09837 0
M  V30 869 C 85.3366 -3.288 -2.68655 0
M  V30 870 O 86.3606 -2.80065 -2.20096 0
M  V30 871 O 85.2196 -4.13707 -3.57083 0
M  V30 872 H 82.3136 -0.602242 -0.566775 0
M  V30 873 H 84.8596 -1.62067 -0.503229 0
M  V30 874 H 83.6316 -3.62499 -1.47343 0
M  V30 875 H 83.2546 -2.70066 -2.91805 0
M  V30 876 N 84.2517 0.741722 -1.39055 0
M  V30 877 C 85.4977 1.50336 -1.36113 0
M  V30 878 C 85.8307 1.94148 0.0450796 0
M  V30 879 O 85.1057 1.66301 1.00868 0
M  V30 880 C 85.3887 2.74773 -2.32749 0
M  V30 881 C 85.2417 2.37023 -3.82283 0
M  V30 882 C 86.5607 3.76846 -2.27322 0
M  V30 883 H 83.6797 0.545351 -0.495743 0
M  V30 884 H 86.3217 0.848624 -1.69995 0
M  V30 885 H 84.4717 3.30639 -2.03986 0
M  V30 886 H 86.1437 1.8684 -4.21768 0
M  V30 887 H 84.3867 1.69334 -3.99385 0
M  V30 888 H 85.0577 3.26104 -4.45376 0
M  V30 889 H 87.5337 3.30548 -2.5274 0
M  V30 890 H 86.4097 4.6159 -2.97028 0
M  V30 891 H 86.6707 4.23286 -1.27599 0
M  V30 892 N 85.7298 1.2412 0.971189 0
M  V30 893 C 86.6628 0.97373 2.06382 0
M  V30 894 C 87.6408 -0.0912662 1.62344 0
M  V30 895 O 88.8248 0.0449365 1.88446 0
M  V30 896 C 85.9518 0.468746 3.35441 0
M  V30 897 C 84.9978 1.52176 3.98428 0
M  V30 898 S 85.8308 3.10203 4.36503 0
M  V30 899 C 86.9868 2.61398 5.68702 0
M  V30 900 H 87.2198 1.89893 2.28753 0
M  V30 901 H 84.7528 1.07466 1.10862 0
M  V30 902 H 86.7108 0.184012 4.10087 0
M  V30 903 H 85.3718 -0.435688 3.11064 0
M  V30 904 H 84.5648 1.11876 4.91426 0
M  V30 905 H 84.1668 1.75632 3.30196 0
M  V30 906 H 86.4588 2.03992 6.4606 0
M  V30 907 H 87.4018 3.52972 6.13854 0
M  V30 908 H 87.8098 2.01941 5.27143 0
M  V30 909 N 87.2079 -1.17134 1.05439 0
M  V30 910 C 88.1399 -2.2078 0.615539 0
M  V30 911 C 89.1529 -1.59584 -0.322001 0
M  V30 912 O 90.3419 -1.78133 -0.114344 0
M  V30 913 C 87.4419 -3.38691 -0.118938 0
M  V30 914 C 86.6149 -4.29454 0.829924 0
M  V30 915 C 85.6739 -5.26024 0.136258 0
M  V30 916 O 84.6999 -5.63952 0.77115 0
M  V30 917 N 85.9019 -5.69487 -1.1254 0
M  V30 918 H 88.6669 -2.59052 1.50705 0
M  V30 919 H 86.2279 -1.32058 0.936603 0
M  V30 920 H 88.2199 -4.00329 -0.593179 0
M  V30 921 H 86.7899 -2.98996 -0.91215 0
M  V30 922 H 86.0099 -3.65211 1.48373 0
M  V30 923 H 87.2979 -4.86984 1.47392 0
M  V30 924 H 86.6959 -5.4075 -1.6615 0
M  V30 925 H 85.2529 -6.33257 -1.54366 0
M  V30 926 N 88.686 -0.835752 -1.33615 0
M  V30 927 C 89.633 -0.26473 -2.29277 0
M  V30 928 C 90.603 0.617712 -1.54187 0
M  V30 929 O 91.788 0.556641 -1.825 0
M  V30 930 C 88.928 0.556777 -3.40579 0
M  V30 931 C 88.041 -0.349339 -4.30585 0
M  V30 932 C 87.176 0.482969 -5.29 0
M  V30 933 C 86.215 -0.421732 -6.10645 0
M  V30 934 N 85.352 0.372262 -7.01112 0
M  V30 935 H 90.192 -1.08582 -2.77514 0
M  V30 936 H 87.729 -0.546927 -1.36554 0
M  V30 937 H 89.687 1.04852 -4.03809 0
M  V30 938 H 88.317 1.34286 -2.93542 0
M  V30 939 H 87.369 -0.959372 -3.68104 0
M  V30 940 H 88.681 -1.04445 -4.87742 0
M  V30 941 H 87.835 1.03866 -5.97743 0
M  V30 942 H 86.574 1.21153 -4.72412 0
M  V30 943 H 85.579 -0.989464 -5.40823 0
M  V30 944 H 86.804 -1.14861 -6.69316 0
M  V30 945 H 84.75 1.08426 -6.46977 0
M  V30 946 H 84.667 -0.264198 -7.55538 0
M  V30 947 H 85.935 0.910293 -7.74167 0
M  V30 948 N 90.1641 1.46063 -0.591896 0
M  V30 949 C 91.3891 2.07226 -0.0850314 0
M  V30 950 C 91.8141 1.43625 1.21463 0
M  V30 951 O 91.1721 0.523305 1.73583 0
M  V30 952 C 91.2201 3.60554 0.0576567 0
M  V30 953 O 90.3241 3.97128 1.11188 0
M  V30 954 H 89.6651 0.660615 -0.0669568 0
M  V30 955 H 92.1951 1.8756 -0.81745 0
M  V30 956 H 92.2051 4.07165 0.2609 0
M  V30 957 H 90.8801 4.06235 -0.891416 0
M  V30 958 H 89.4571 3.62213 0.886356 0
M  V30 959 N 91.6422 0.330177 1.54103 0
M  V30 960 C 92.8672 -0.274893 2.0557 0
M  V30 961 C 93.2922 -1.44487 1.20437 0
M  V30 962 O 92.6502 -1.80021 0.214991 0
M  V30 963 C 92.6982 -0.68079 3.54115 0
M  V30 964 O 91.8022 -1.7824 3.71893 0
M  V30 965 H 91.1432 -0.0483849 0.662235 0
M  V30 966 H 93.6732 0.480508 1.98878 0
M  V30 967 H 93.6832 -0.961635 3.96505 0
M  V30 968 H 92.3582 0.174903 4.15532 0
M  V30 969 H 90.9352 -1.49985 3.41407 0
M  V30 970 N 93.1203 -1.57491 0.0584922 0
M  V30 971 C 94.3483 -1.97296 -0.623037 0
M  V30 972 C 94.7633 -0.936338 -1.63946 0
M  V30 973 O 94.1203 0.0785981 -1.82331 0
M  V30 974 C 94.1713 -3.37183 -1.30345 0
M  V30 975 O 93.8923 -4.36872 -0.32773 0
M  V30 976 C 95.3933 -3.91788 -2.07406 0
M  V30 977 H 92.6133 -0.649153 -0.169826 0
M  V30 978 H 95.1573 -2.04106 0.12696 0
M  V30 979 H 93.3123 -3.31502 -2.00463 0
M  V30 980 H 93.7263 -5.18141 -0.814269 0
M  V30 981 H 95.2003 -4.91926 -2.50425 0
M  V30 982 H 95.6773 -3.27609 -2.92521 0
M  V30 983 H 96.2833 -4.00829 -1.42184 0
M  V30 984 N 94.5984 0.214957 -1.56127 0
M  V30 985 C 95.8384 0.945364 -1.81224 0
M  V30 986 C 96.2024 1.81265 -0.633005 0
M  V30 987 O 97.4034 2.57731 -0.763423 0
M  V30 988 C 95.6744 1.75665 -3.1125 0
M  V30 989 S 97.2334 2.54179 -3.57685 0
M  V30 990 H 94.0514 0.317443 -0.6362 0
M  V30 991 H 96.6534 0.210381 -1.94365 0
M  V30 992 H 95.3574 1.10977 -3.9511 0
M  V30 993 H 94.8884 2.53381 -3.00934 0
M  V30 994 H 96.9034 3.7792 -3.21545 0
M  V30 995 N 96.0765 1.50051 0.48192 0
M  V30 996 C 97.3015 1.64508 1.26301 0
M  V30 997 C 97.7265 0.323851 1.85291 0
M  V30 998 O 97.0845 -0.710969 1.66778 0
M  V30 999 C 97.1325 2.7305 2.35533 0
M  V30 1000 O 96.2365 2.3355 3.39895 0
M  V30 1001 H 95.5775 0.549978 0.372048 0
M  V30 1002 H 98.1075 1.9636 0.574786 0
M  V30 1003 H 98.1175 2.95799 2.8101 0
M  V30 1004 H 96.7925 3.68946 1.91967 0
M  V30 1005 H 95.3695 2.21205 3.00204 0
M  V30 1006 N 97.5546 -0.734337 1.39446 0
M  V30 1007 C 98.8016 -1.49391 1.36706 0
M  V30 1008 C 99.1296 -1.94465 -0.0367813 0
M  V30 1009 O 98.3846 -1.67154 -1.01774 0
M  V30 1010 C 98.6836 -2.74711 2.28623 0
M  V30 1011 C 98.3496 -2.48501 3.76242 0
M  V30 1012 C 97.0116 -2.41062 4.16464 0
M  V30 1013 C 99.3636 -2.26098 4.69606 0
M  V30 1014 C 96.6916 -2.09262 5.48112 0
M  V30 1015 C 99.0436 -1.95814 6.01531 0
M  V30 1016 C 97.7076 -1.86845 6.40816 0
M  V30 1017 H 96.9776 -0.546661 0.500243 0
M  V30 1018 H 99.6246 -0.842788 1.71957 0
M  V30 1019 H 97.9296 -3.44569 1.86492 0
M  V30 1020 H 99.6266 -3.32741 2.23796 0
M  V30 1021 H 96.2166 -2.55169 3.44364 0
M  V30 1022 H 100.401 -2.30812 4.39363 0
M  V30 1023 H 95.6566 -2.00841 5.77471 0
M  V30 1024 H 99.8306 -1.77488 6.73403 0
M  V30 1025 H 97.4576 -1.6197 7.42745 0
M  V30 1026 N 99.0327 -1.24633 -0.964593 0
M  V30 1027 C 99.9657 -0.984662 -2.05863 0
M  V30 1028 C 100.944 0.0826554 -1.6239 0
M  V30 1029 O 102.128 -0.0549296 -1.8842 0
M  V30 1030 C 99.2547 -0.486529 -3.35187 0
M  V30 1031 C 98.3007 -1.54286 -3.97615 0
M  V30 1032 S 99.1337 -3.12513 -4.34851 0
M  V30 1033 C 100.29 -2.6441 -5.67308 0
M  V30 1034 H 100.523 -1.91104 -2.27743 0
M  V30 1035 H 98.0557 -1.08052 -1.10291 0
M  V30 1036 H 100.014 -0.205757 -4.09984 0
M  V30 1037 H 98.6747 0.419186 -3.1129 0
M  V30 1038 H 97.8677 -1.14481 -4.90826 0
M  V30 1039 H 97.4697 -1.7738 -3.2926 0
M  V30 1040 H 99.7617 -2.07416 -6.44969 0
M  V30 1041 H 100.705 -3.56222 -6.11973 0
M  V30 1042 H 101.113 -2.04734 -5.26065 0
M  V30 1043 N 100.511 1.16574 -1.06058 0
M  V30 1044 C 101.741 1.90675 -0.795397 0
M  V30 1045 C 102.149 1.77547 0.653735 0
M  V30 1046 O 101.492 1.11611 1.45907 0
M  V30 1047 C 101.554 3.42011 -1.10764 0
M  V30 1048 C 101.218 3.78924 -2.55471 0
M  V30 1049 C 102.215 3.81042 -3.53699 0
M  V30 1050 C 99.8998 4.09626 -2.90708 0
M  V30 1051 C 101.894 4.13346 -4.85205 0
M  V30 1052 C 99.5808 4.41597 -4.22416 0
M  V30 1053 C 100.579 4.43436 -5.19474 0
M  V30 1054 O 100.267 4.74649 -6.48817 0
M  V30 1055 H 99.9988 0.611554 -0.288058 0
M  V30 1056 H 102.553 1.48711 -1.41683 0
M  V30 1057 H 100.783 3.84312 -0.429128 0
M  V30 1058 H 102.472 3.97384 -0.827077 0
M  V30 1059 H 103.238 3.57437 -3.27817 0
M  V30 1060 H 99.1168 4.07361 -2.15819 0
M  V30 1061 H 102.661 4.14696 -5.60957 0
M  V30 1062 H 98.5578 4.64667 -4.48056 0
M  V30 1063 H 99.3258 4.9247 -6.5377 0
M  V30 1064 N 101.989 0.842826 1.3317 0
M  V30 1065 C 103.237 0.439577 1.97262 0
M  V30 1066 C 103.558 -1.00548 1.67078 0
M  V30 1067 O 102.828 -1.70098 0.971779 0
M  V30 1068 H 101.408 0.159558 0.72976 0
M  V30 1069 H 104.07 1.07665 1.62463 0
M  V30 1070 H 103.166 0.574886 3.0676 0
M  V30 1071 N 103.467 -1.45747 0.599634 0
M  V30 1072 C 104.377 -2.34262 -0.125888 0
M  V30 1073 C 105.393 -1.50768 -0.868625 0
M  V30 1074 O 106.569 -1.83592 -0.828003 0
M  V30 1075 C 103.634 -3.28252 -1.11587 0
M  V30 1076 C 102.695 -4.27651 -0.375956 0
M  V30 1077 C 101.928 -5.1715 -1.31877 0
M  V30 1078 O 102.151 -5.09916 -2.55621 0
M  V30 1079 O 101.085 -5.96286 -0.820157 0
M  V30 1080 H 104.911 -2.97688 0.601315 0
M  V30 1081 H 102.496 -1.44999 0.359934 0
M  V30 1082 H 104.378 -3.86191 -1.68626 0
M  V30 1083 H 103.053 -2.67401 -1.82424 0
M  V30 1084 H 101.96 -3.7335 0.236698 0
M  V30 1085 H 103.293 -4.91334 0.29177 0
M  V30 1086 N 104.945 -0.338344 -1.53925 0
M  V30 1087 C 105.875 0.51328 -2.27789 0
M  V30 1088 C 106.856 1.107 -1.29149 0
M  V30 1089 O 108.041 1.12937 -1.57984 0
M  V30 1090 C 105.171 1.66697 -3.04679 0
M  V30 1091 C 104.125 1.20183 -4.1078 0
M  V30 1092 C 103.451 2.44363 -4.75595 0
M  V30 1093 C 104.751 0.30605 -5.21403 0
M  V30 1094 H 106.445 -0.102883 -2.99223 0
M  V30 1095 H 103.991 -0.0509219 -1.4391 0
M  V30 1096 H 105.944 2.26915 -3.55088 0
M  V30 1097 H 104.668 2.30995 -2.30887 0
M  V30 1098 H 103.327 0.622499 -3.61276 0
M  V30 1099 H 102.975 3.07057 -3.98403 0
M  V30 1100 H 102.675 2.13925 -5.47275 0
M  V30 1101 H 104.199 3.05317 -5.28786 0
M  V30 1102 H 105.613 0.814929 -5.67478 0
M  V30 1103 H 104.01 0.0937929 -6.00027 0
M  V30 1104 H 105.08 -0.65921 -4.80398 0
M  V30 1105 N 106.423 1.57458 -0.0668435 0
M  V30 1106 C 107.651 1.97624 0.612565 0
M  V30 1107 C 108.066 0.94502 1.63447 0
M  V30 1108 O 107.423 -0.0689276 1.8237 0
M  V30 1109 C 107.474 3.37869 1.28555 0
M  V30 1110 O 107.195 4.3704 0.304557 0
M  V30 1111 C 108.696 3.92882 2.05325 0
M  V30 1112 H 105.916 0.650045 0.166381 0
M  V30 1113 H 108.46 2.04035 -0.137782 0
M  V30 1114 H 106.615 3.3256 1.98702 0
M  V30 1115 H 107.029 5.18565 0.786779 0
M  V30 1116 H 108.503 4.93247 2.47812 0
M  V30 1117 H 108.98 3.29156 2.9078 0
M  V30 1118 H 109.586 4.01577 1.40056 0
M  V30 1119 N 107.901 -0.206675 1.56239 0
M  V30 1120 C 109.178 -0.954051 1.70755 0
M  V30 1121 C 109.558 -2.01841 0.618353 0
M  V30 1122 O 108.906 -2.25444 -0.372434 0
M  V30 1123 C 109.116 -1.551 3.12642 0
M  V30 1124 C 110.464 -2.03757 3.72516 0
M  V30 1125 O 111.488 -1.64965 3.15698 0
M  V30 1126 O 110.347 -2.75103 4.72208 0
M  V30 1127 H 107.441 -0.446636 0.696021 0
M  V30 1128 H 109.987 -0.197283 1.68549 0
M  V30 1129 H 108.759 -0.783212 3.83382 0
M  V30 1130 H 108.382 -2.37291 3.19028 0
M  V30 1131 N 109.379 -1.50304 -0.473955 0
M  V30 1132 C 110.326 -1.68959 -1.57231 0
M  V30 1133 C 111.296 -0.530899 -1.57387 0
M  V30 1134 O 112.481 -0.761133 -1.74961 0
M  V30 1135 C 109.621 -1.7871 -2.95223 0
M  V30 1136 C 108.734 -3.06061 -3.04878 0
M  V30 1137 C 107.869 -3.06626 -4.33767 0
M  V30 1138 C 106.908 -4.28443 -4.37154 0
M  V30 1139 N 106.045 -4.26763 -5.5751 0
M  V30 1140 H 110.885 -2.6273 -1.40631 0
M  V30 1141 H 108.422 -1.30241 -0.683789 0
M  V30 1142 H 110.38 -1.82344 -3.75242 0
M  V30 1143 H 109.01 -0.883806 -3.10465 0
M  V30 1144 H 108.062 -3.11911 -2.17751 0
M  V30 1145 H 109.374 -3.96039 -3.0324 0
M  V30 1146 H 108.528 -3.08973 -5.22131 0
M  V30 1147 H 107.267 -2.14473 -4.3801 0
M  V30 1148 H 106.272 -4.2631 -3.47188 0
M  V30 1149 H 107.497 -5.2182 -4.34605 0
M  V30 1150 H 105.443 -3.37462 -5.62544 0
M  V30 1151 H 105.36 -5.10507 -5.57601 0
M  V30 1152 H 106.628 -4.33253 -6.48006 0
M  V30 1153 N 110.857 0.726932 -1.39834 0
M  V30 1154 C 111.804 1.841 -1.39197 0
M  V30 1155 C 112.774 1.642 -0.250502 0
M  V30 1156 O 113.959 1.85494 -0.446846 0
M  V30 1157 C 111.099 3.21697 -1.24919 0
M  V30 1158 C 110.212 3.53247 -2.48678 0
M  V30 1159 C 109.347 4.80289 -2.26928 0
M  V30 1160 C 108.386 5.04707 -3.4632 0
M  V30 1161 N 107.523 6.22956 -3.23836 0
M  V30 1162 H 112.363 1.83979 -2.34427 0
M  V30 1163 H 109.9 0.898876 -1.16442 0
M  V30 1164 H 111.858 4.01137 -1.1465 0
M  V30 1165 H 110.488 3.21076 -0.333153 0
M  V30 1166 H 109.54 2.68447 -2.69519 0
M  V30 1167 H 110.852 3.67205 -3.37582 0
M  V30 1168 H 110.006 5.67725 -2.13947 0
M  V30 1169 H 108.745 4.68519 -1.35431 0
M  V30 1170 H 107.75 4.1573 -3.5979 0
M  V30 1171 H 108.975 5.18357 -4.38729 0
M  V30 1172 H 106.921 6.12459 -2.35011 0
M  V30 1173 H 106.838 6.37539 -4.063 0
M  V30 1174 H 108.106 7.1321 -3.14566 0
M  V30 1175 N 112.336 1.25143 0.95797 0
M  V30 1176 C 113.564 1.12424 1.73691 0
M  V30 1177 C 113.979 -0.322304 1.86029 0
M  V30 1178 O 113.336 -1.22186 1.35561 0
M  V30 1179 C 113.387 1.76933 3.15241 0
M  V30 1180 O 113.108 3.15932 3.03511 0
M  V30 1181 C 114.609 1.6995 4.09429 0
M  V30 1182 H 111.829 0.3923 0.544373 0
M  V30 1183 H 114.373 1.6544 1.20207 0
M  V30 1184 H 112.528 1.27895 3.6568 0
M  V30 1185 H 112.942 3.47598 3.9278 0
M  V30 1186 H 114.416 2.19753 5.06372 0
M  V30 1187 H 114.893 0.662619 4.34173 0
M  V30 1188 H 115.499 2.18461 3.64904 0
M  V30 1189 N 113.814 -1.1601 1.06675 0
M  V30 1190 C 115.063 -1.85973 0.780818 0
M  V30 1191 C 115.376 -1.82819 -0.695444 0
M  V30 1192 O 116.582 -2.484 -1.09589 0
M  V30 1193 C 115.038 -3.33757 1.34665 0
M  V30 1194 C 114.646 -3.45374 2.85343 0
M  V30 1195 C 116.39 -4.0895 1.13843 0
M  V30 1196 C 114.297 -4.87266 3.35151 0
M  V30 1197 H 113.227 -0.696661 0.288407 0
M  V30 1198 H 115.878 -1.30903 1.28595 0
M  V30 1199 H 114.26 -3.88456 0.769274 0
M  V30 1200 H 115.434 -3.00816 3.49065 0
M  V30 1201 H 113.749 -2.83619 3.04876 0
M  V30 1202 H 116.346 -5.13654 1.4854 0
M  V30 1203 H 116.689 -4.16229 0.0770282 0
M  V30 1204 H 117.222 -3.605 1.68179 0
M  V30 1205 H 113.961 -4.85168 4.40786 0
M  V30 1206 H 113.481 -5.32433 2.76179 0
M  V30 1207 H 115.16 -5.56097 3.30704 0
M  V30 1208 N 115.292 -0.849877 -1.32721 0
M  V30 1209 C 116.202 -0.293791 -2.32753 0
M  V30 1210 C 117.218 0.585906 -1.63839 0
M  V30 1211 O 118.394 0.487413 -1.95413 0
M  V30 1212 C 115.459 0.512752 -3.42887 0
M  V30 1213 C 114.52 -0.39252 -4.27502 0
M  V30 1214 C 113.753 0.375625 -5.32377 0
M  V30 1215 O 113.976 1.60613 -5.4732 0
M  V30 1216 O 112.91 -0.256094 -6.01355 0
M  V30 1217 H 116.736 -1.12242 -2.82197 0
M  V30 1218 H 114.321 -0.612685 -1.36259 0
M  V30 1219 H 116.203 0.970704 -4.10067 0
M  V30 1220 H 114.878 1.31826 -2.95641 0
M  V30 1221 H 113.785 -0.898547 -3.63149 0
M  V30 1222 H 115.118 -1.16309 -4.7826 0
M  V30 1223 N 116.77 1.45427 -0.607355 0
M  V30 1224 C 117.717 2.3053 0.111625 0
M  V30 1225 C 118.687 1.4209 0.860216 0
M  V30 1226 O 119.872 1.71019 0.845998 0
M  V30 1227 C 117.012 3.26992 1.10319 0
M  V30 1228 C 116.125 4.30535 0.355493 0
M  V30 1229 C 115.26 5.14105 1.33676 0
M  V30 1230 C 114.299 6.09376 0.576862 0
M  V30 1231 N 113.436 6.85727 1.5074 0
M  V30 1232 H 118.276 2.91477 -0.620093 0
M  V30 1233 H 115.813 1.43631 -0.317594 0
M  V30 1234 H 117.771 3.81385 1.6912 0
M  V30 1235 H 116.401 2.67799 1.80232 0
M  V30 1236 H 115.453 3.78805 -0.348023 0
M  V30 1237 H 116.765 4.98235 -0.237423 0
M  V30 1238 H 115.919 5.72897 1.99684 0
M  V30 1239 H 114.658 4.46423 1.9636 0
M  V30 1240 H 113.663 5.49715 -0.0968519 0
M  V30 1241 H 114.888 6.79085 -0.0449341 0
M  V30 1242 H 112.834 6.20735 2.12189 0
M  V30 1243 H 112.751 7.49778 0.967913 0
M  V30 1244 H 114.019 7.4906 2.15706 0
M  V30 1245 N 118.248 0.346503 1.53744 0
M  V30 1246 C 119.494 -0.249473 2.0126 0
M  V30 1247 C 119.827 -1.49965 1.23386 0
M  V30 1248 O 119.102 -1.91811 0.32229 0
M  V30 1249 C 119.385 -0.560643 3.55709 0
M  V30 1250 C 119.238 0.701836 4.44291 0
M  V30 1251 C 120.557 -1.36905 4.18264 0
M  V30 1252 H 117.676 -0.0891987 0.731582 0
M  V30 1253 H 120.318 0.467624 1.84156 0
M  V30 1254 H 118.468 -1.17156 3.70414 0
M  V30 1255 H 120.14 1.33974 4.41417 0
M  V30 1256 H 118.383 1.32612 4.13033 0
M  V30 1257 H 119.054 0.43933 5.50249 0
M  V30 1258 H 121.53 -0.852448 4.07275 0
M  V30 1259 H 120.406 -1.55553 5.26398 0
M  V30 1260 H 120.667 -2.37203 3.73078 0
M  V30 1261 N 119.726 -1.57421 0.075193 0
M  V30 1262 C 121.142 -1.57099 -0.281444 0
M  V30 1263 C 121.342 -1.08486 -1.69803 0
M  V30 1264 O 120.398 -0.752279 -2.41033 0
M  V30 1265 C 121.711 -3.00571 -0.0880041 0
M  V30 1266 C 123.259 -3.12605 -0.157281 0
M  V30 1267 C 123.734 -4.57999 0.0079207 0
M  V30 1268 N 125.225 -4.63176 -0.0475725 0
M  V30 1269 C 125.96 -5.73373 0.0557876 0
M  V30 1270 N 125.456 -6.92473 0.21286 0
M  V30 1271 N 127.249 -5.621 -0.00152098 0
M  V30 1272 H 119.4 -1.87335 1.00098 0
M  V30 1273 H 121.663 -0.86377 0.390646 0
M  V30 1274 H 121.369 -3.40262 0.889629 0
M  V30 1275 H 121.243 -3.67754 -0.838875 0
M  V30 1276 H 123.63 -2.72798 -1.1254 0
M  V30 1277 H 123.711 -2.48053 0.62475 0
M  V30 1278 H 123.355 -4.98496 0.972824 0
M  V30 1279 H 123.285 -5.20586 -0.793556 0
M  V30 1280 H 125.776 -3.7753 -0.167244 0
M  V30 1281 H 126.089 -7.72279 0.283781 0
M  V30 1282 H 124.434 -6.94556 0.248267 0
M  V30 1283 H 127.625 -4.67938 -0.122958 0
M  V30 1284 H 127.798 -6.47948 0.0824844 0
M  V30 1285 N 121.204 0.198386 -1.56346 0
M  V30 1286 C 122.136 1.26987 -1.90806 0
M  V30 1287 C 123.149 1.41877 -0.798419 0
M  V30 1288 O 124.338 1.42362 -1.07682 0
M  V30 1289 C 121.438 2.64246 -2.12196 0
M  V30 1290 C 120.611 2.71007 -3.43328 0
M  V30 1291 C 119.67 3.89439 -3.5387 0
M  V30 1292 O 118.696 3.76695 -4.26719 0
M  V30 1293 N 119.898 5.04752 -2.86715 0
M  V30 1294 H 122.663 0.977433 -2.83313 0
M  V30 1295 H 120.224 0.388322 -1.57174 0
M  V30 1296 H 122.216 3.41896 -2.1654 0
M  V30 1297 H 120.786 2.85992 -1.26204 0
M  V30 1298 H 120.006 1.79657 -3.50881 0
M  V30 1299 H 121.294 2.72512 -4.29668 0
M  V30 1300 H 120.692 5.18004 -2.2735 0
M  V30 1301 H 119.249 5.8036 -2.96691 0
M  V30 1302 N 122.682 1.50554 0.465978 0
M  V30 1303 C 123.91 1.65563 1.24083 0
M  V30 1304 C 124.325 0.341051 1.85694 0
M  V30 1305 O 123.682 -0.677543 1.69457 0
M  V30 1306 C 123.733 2.75051 2.34583 0
M  V30 1307 O 123.454 4.01413 1.75497 0
M  V30 1308 C 124.955 3.01078 3.25372 0
M  V30 1309 H 122.175 0.55638 0.375077 0
M  V30 1310 H 124.719 1.96807 0.555624 0
M  V30 1311 H 122.874 2.46486 2.9887 0
M  V30 1312 H 123.288 4.62002 2.48303 0
M  V30 1313 H 124.762 3.81339 3.99105 0
M  V30 1314 H 125.239 2.12349 3.84453 0
M  V30 1315 H 125.845 3.31194 2.66816 0
M  V30 1316 N 124.16 -0.719506 1.40217 0
M  V30 1317 C 125.407 -1.47933 1.38283 0
M  V30 1318 C 125.735 -1.94493 -0.0161536 0
M  V30 1319 O 124.99 -1.68224 -0.999956 0
M  V30 1320 C 125.289 -2.72271 2.31524 0
M  V30 1321 C 124.955 -2.44496 3.78857 0
M  V30 1322 C 123.617 -2.36631 4.18998 0
M  V30 1323 C 125.969 -2.21104 4.71977 0
M  V30 1324 C 123.297 -2.03437 5.503 0
M  V30 1325 C 125.649 -1.89423 6.03574 0
M  V30 1326 C 124.313 -1.80038 6.42762 0
M  V30 1327 H 123.583 -0.541325 0.506012 0
M  V30 1328 H 126.23 -0.824502 1.72842 0
M  V30 1329 H 124.535 -3.42572 1.90137 0
M  V30 1330 H 126.232 -3.30348 2.27313 0
M  V30 1331 H 122.822 -2.51503 3.47051 0
M  V30 1332 H 127.006 -2.26139 4.41786 0
M  V30 1333 H 122.262 -1.94705 5.79569 0
M  V30 1334 H 126.436 -1.70336 6.75247 0
M  V30 1335 H 124.063 -1.54083 7.44421 0
M  V30 1336 N 125.638 -1.25649 -0.95132 0
M  V30 1337 C 126.915 -1.01361 -1.67288 0
M  V30 1338 C 127.295 0.459135 -2.06046 0
M  V30 1339 O 126.643 1.43723 -1.7764 0
M  V30 1340 C 126.853 -1.95256 -2.89268 0
M  V30 1341 C 128.201 -2.23289 -3.61147 0
M  V30 1342 O 129.225 -1.93041 -2.99355 0
M  V30 1343 O 128.084 -2.74741 -4.72419 0
M  V30 1344 H 125.178 -0.38464 -0.732107 0
M  V30 1345 H 127.724 -1.36817 -1.00395 0
M  V30 1346 H 126.496 -2.94685 -2.57442 0
M  V30 1347 H 126.119 -1.60218 -3.6389 0
M  V30 1348 N 127.117 1.15442 -1.07289 0
M  V30 1349 C 128.065 2.22225 -0.686952 0
M  V30 1350 C 129.059 1.66688 0.30193 0
M  V30 1351 O 130.265 1.79236 0.165712 0
M  V30 1352 H 126.64 0.723783 -0.204064 0
M  V30 1353 H 128.611 2.52056 -1.5972 0
M  V30 1354 C 127.36 3.47556 -0.100149 0
M  V30 1355 H 126.683 3.90612 -0.852211 0
M  V30 1356 H 128.123 4.23794 0.132235 0
M  V30 1357 C 126.582 3.16337 1.159 0
M  V30 1358 O 127.112 3.33074 2.24555 0
M  V30 1359 N 125.318 2.70385 1.06491 0
M  V30 1360 H 124.865 2.56966 0.180668 0
M  V30 1361 H 124.823 2.49871 1.90819 0
M  V30 1362 N 128.595 0.856903 1.32268 0
M  V30 1363 C 129.825 0.47475 2.01071 0
M  V30 1364 C 130.233 -0.933746 1.64553 0
M  V30 1365 O 129.576 -1.62114 0.863989 0
M  V30 1366 C 129.638 0.536746 3.55471 0
M  V30 1367 C 129.302 1.90453 4.15423 0
M  V30 1368 C 130.299 2.87029 4.33486 0
M  V30 1369 C 127.984 2.20229 4.51447 0
M  V30 1370 C 129.978 4.11532 4.86744 0
M  V30 1371 C 127.665 3.44984 5.0441 0
M  V30 1372 C 128.663 4.40452 5.22007 0
M  V30 1373 O 128.351 5.62998 5.73837 0
M  V30 1374 H 128.083 0.184778 0.650256 0
M  V30 1375 H 130.637 1.15615 1.69771 0
M  V30 1376 H 128.867 -0.20152 3.86175 0
M  V30 1377 H 130.556 0.169875 4.05544 0
M  V30 1378 H 131.322 2.6533 4.05986 0
M  V30 1379 H 127.201 1.46705 4.37034 0
M  V30 1380 H 130.745 4.86056 5.00395 0
M  V30 1381 H 126.642 3.66532 5.31342 0
M  V30 1382 H 127.41 5.64987 5.92226 0
M  V30 1383 N 130.073 -1.45103 0.615059 0
M  V30 1384 C 130.983 -2.34382 -0.101034 0
M  V30 1385 C 131.999 -1.51681 -0.852585 0
M  V30 1386 O 133.175 -1.8446 -0.808484 0
M  V30 1387 C 130.24 -3.29417 -1.08099 0
M  V30 1388 C 129.301 -4.28025 -0.330577 0
M  V30 1389 C 128.534 -5.1852 -1.26385 0
M  V30 1390 O 128.757 -5.12598 -2.50198 0
M  V30 1391 O 127.691 -5.97122 -0.756866 0
M  V30 1392 H 131.517 -2.97033 0.632855 0
M  V30 1393 H 129.102 -1.4461 0.375293 0
M  V30 1394 H 130.984 -3.87958 -1.6452 0
M  V30 1395 H 129.659 -2.69321 -1.79577 0
M  V30 1396 H 128.566 -3.73078 0.276283 0
M  V30 1397 H 129.899 -4.90997 0.343866 0
M  V30 1398 N 131.551 -0.354651 -1.53558 0
M  V30 1399 C 132.776 0.242153 -2.05981 0
M  V30 1400 C 133.201 1.42553 -1.2272 0
M  V30 1401 O 132.559 1.79656 -0.243604 0
M  V30 1402 C 132.607 0.624367 -3.55154 0
M  V30 1403 O 131.711 1.72301 -3.74681 0
M  V30 1404 H 131.052 0.0378432 -0.662921 0
M  V30 1405 H 133.582 -0.512087 -1.98088 0
M  V30 1406 H 133.592 0.898433 -3.97985 0
M  V30 1407 H 132.267 -0.240989 -4.15201 0
M  V30 1408 H 130.844 1.44535 -3.4375 0
M  V30 1409 N 133.029 1.57378 -0.0835403 0
M  V30 1410 C 133.977 2.14602 0.89714 0
M  V30 1411 C 134.971 1.08589 1.30018 0
M  V30 1412 O 136.177 1.26952 1.27606 0
M  V30 1413 H 132.552 0.686346 0.3073 0
M  V30 1414 H 134.523 2.95845 0.38969 0
M  V30 1415 C 133.272 2.73188 2.15089 0
M  V30 1416 H 132.595 3.54442 1.84962 0
M  V30 1417 H 134.035 3.1681 2.81793 0
M  V30 1418 C 132.494 1.68517 2.91725 0
M  V30 1419 O 133.024 1.11718 3.85852 0
M  V30 1420 N 131.23 1.39277 2.55049 0
M  V30 1421 H 130.777 1.85655 1.78577 0
M  V30 1422 H 130.735 0.694791 3.06627 0
M  V30 1423 N 134.507 -0.190092 1.56449 0
M  V30 1424 C 135.747 -0.916414 1.82705 0
M  V30 1425 C 136.111 -1.80235 0.661763 0
M  V30 1426 O 137.312 -2.56484 0.80433 0
M  V30 1427 C 135.583 -1.70691 3.14005 0
M  V30 1428 S 137.142 -2.48457 3.61683 0
M  V30 1429 H 133.96 -0.307281 0.64117 0
M  V30 1430 H 136.562 -0.179433 1.94675 0
M  V30 1431 H 135.266 -1.04677 3.96826 0
M  V30 1432 H 134.797 -2.48562 3.04927 0
M  V30 1433 H 136.812 -3.72756 3.27517 0
M  V30 1434 N 135.985 -1.50799 -0.457987 0
M  V30 1435 C 137.232 -1.62442 -1.20908 0
M  V30 1436 C 137.56 -0.330865 -1.91665 0
M  V30 1437 O 136.815 0.68401 -1.83357 0
M  V30 1438 C 137.114 -2.76358 -2.2663 0
M  V30 1439 C 136.78 -4.16378 -1.73033 0
M  V30 1440 C 135.442 -4.54473 -1.58138 0
M  V30 1441 C 137.794 -5.03836 -1.33413 0
M  V30 1442 C 135.122 -5.77754 -1.02065 0
M  V30 1443 C 137.474 -6.27676 -0.78778 0
M  V30 1444 C 136.138 -6.64562 -0.625561 0
M  V30 1445 H 135.408 -0.594417 -0.442435 0
M  V30 1446 H 138.055 -1.84772 -0.503136 0
M  V30 1447 H 136.36 -2.48167 -3.03184 0
M  V30 1448 H 138.057 -2.82568 -2.84528 0
M  V30 1449 H 134.647 -3.86331 -1.85598 0
M  V30 1450 H 138.831 -4.75026 -1.4375 0
M  V30 1451 H 134.087 -6.04997 -0.882547 0
M  V30 1452 H 138.261 -6.94797 -0.472177 0
M  V30 1453 H 135.888 -7.59965 -0.188926 0
M  V30 1454 N 137.463 0.71206 -1.40597 0
M  V30 1455 C 138.373 1.8562 -1.43466 0
M  V30 1456 C 139.389 1.70902 -0.326902 0
M  V30 1457 O 140.565 1.93105 -0.572043 0
M  V30 1458 C 137.63 3.21451 -1.29884 0
M  V30 1459 C 136.691 3.48398 -2.50833 0
M  V30 1460 C 135.924 4.77749 -2.3789 0
M  V30 1461 O 136.147 5.53089 -1.39459 0
M  V30 1462 O 135.081 5.05111 -3.27333 0
M  V30 1463 H 138.907 1.86155 -2.39958 0
M  V30 1464 H 136.492 0.86295 -1.21957 0
M  V30 1465 H 138.374 4.02579 -1.24531 0
M  V30 1466 H 137.049 3.21636 -0.364997 0
M  V30 1467 H 135.956 2.67265 -2.61763 0
M  V30 1468 H 137.289 3.53014 -3.4299 0
M  V30 1469 N 138.941 1.26152 0.944643 0
M  V30 1470 C 140.187 1.11657 1.69294 0
M  V30 1471 C 140.52 -0.339926 1.91202 0
M  V30 1472 O 139.795 -1.24994 1.49019 0
M  V30 1473 C 140.078 1.88236 3.06984 0
M  V30 1474 C 139.931 3.41772 2.92424 0
M  V30 1475 C 141.25 1.67343 4.07043 0
M  V30 1476 H 138.369 0.407004 0.614424 0
M  V30 1477 H 141.011 1.55106 1.09737 0
M  V30 1478 H 139.161 1.51308 3.57824 0
M  V30 1479 H 140.833 3.88433 2.48832 0
M  V30 1480 H 139.076 3.68974 2.28124 0
M  V30 1481 H 139.747 3.90579 3.90067 0
M  V30 1482 H 142.223 1.99509 3.65151 0
M  V30 1483 H 141.099 2.23346 5.01406 0
M  V30 1484 H 141.36 0.617158 4.37771 0
M  V30 1485 N 140.419 -1.14872 1.07899 0
M  V30 1486 C 141.349 -2.2193 0.725887 0
M  V30 1487 C 142.33 -1.67622 -0.28927 0
M  V30 1488 O 143.515 -1.93533 -0.160787 0
M  V30 1489 C 140.645 -3.47061 0.128856 0
M  V30 1490 C 139.599 -4.14363 1.07178 0
M  V30 1491 C 138.925 -5.33636 0.337229 0
M  V30 1492 C 140.225 -4.63492 2.40775 0
M  V30 1493 H 141.919 -2.51724 1.62097 0
M  V30 1494 H 139.465 -1.20991 0.780838 0
M  V30 1495 H 141.418 -4.21199 -0.130147 0
M  V30 1496 H 140.142 -3.16617 -0.80134 0
M  V30 1497 H 138.801 -3.42173 1.3158 0
M  V30 1498 H 138.449 -4.99449 -0.596606 0
M  V30 1499 H 138.149 -5.79609 0.965788 0
M  V30 1500 H 139.673 -6.10539 0.0861567 0
M  V30 1501 H 141.087 -5.2913 2.20669 0
M  V30 1502 H 139.484 -5.20148 2.99276 0
M  V30 1503 H 140.554 -3.78834 3.02676 0
M  V30 1504 N 141.898 -0.863906 -1.31812 0
M  V30 1505 C 142.828 -0.330843 -2.31144 0
M  V30 1506 C 143.809 0.575005 -1.60087 0
M  V30 1507 O 144.994 0.493304 -1.8783 0
M  V30 1508 C 142.124 0.47374 -3.44054 0
M  V30 1509 C 141.078 -0.338481 -4.26659 0
M  V30 1510 C 140.404 0.591412 -5.31419 0
M  V30 1511 C 141.704 -1.56926 -4.98168 0
M  V30 1512 H 143.398 -1.16086 -2.75979 0
M  V30 1513 H 140.944 -0.559657 -1.32679 0
M  V30 1514 H 142.897 0.857143 -4.12591 0
M  V30 1515 H 141.621 1.33721 -2.9797 0
M  V30 1516 H 140.28 -0.703754 -3.59782 0
M  V30 1517 H 139.928 1.45199 -4.81587 0
M  V30 1518 H 139.628 0.0519022 -5.87577 0
M  V30 1519 H 141.152 0.97179 -6.02817 0
M  V30 1520 H 142.566 -1.25764 -5.59336 0
M  V30 1521 H 140.963 -2.04739 -5.64094 0
M  V30 1522 H 142.033 -2.32544 -4.25501 0
M  V30 1523 N 143.376 1.44774 -0.622745 0
M  V30 1524 C 144.606 2.06187 -0.130532 0
M  V30 1525 C 145.014 1.46547 1.19669 0
M  V30 1526 O 144.357 0.579636 1.74316 0
M  V30 1527 C 144.419 3.59437 0.0674983 0
M  V30 1528 C 144.083 4.41496 -1.18026 0
M  V30 1529 C 145.08 4.75512 -2.102 0
M  V30 1530 C 142.765 4.82007 -1.41333 0
M  V30 1531 C 144.759 5.48912 -3.23998 0
M  V30 1532 C 142.446 5.55157 -2.55429 0
M  V30 1533 C 143.444 5.88528 -3.46589 0
M  V30 1534 O 143.132 6.60191 -4.58697 0
M  V30 1535 H 142.864 0.672045 -0.0730162 0
M  V30 1536 H 145.418 1.86768 -0.854802 0
M  V30 1537 H 143.648 3.77314 0.846825 0
M  V30 1538 H 145.337 4.02642 0.513209 0
M  V30 1539 H 146.103 4.4476 -1.93425 0
M  V30 1540 H 141.982 4.55457 -0.712709 0
M  V30 1541 H 145.526 5.74877 -3.95174 0
M  V30 1542 H 141.423 5.85324 -2.72151 0
M  V30 1543 H 142.191 6.78654 -4.57571 0
M  V30 1544 N 144.854 0.36279 1.53368 0
M  V30 1545 C 145.801 -0.485008 2.25646 0
M  V30 1546 C 146.771 -1.07982 1.2621 0
M  V30 1547 O 147.956 -1.11284 1.54986 0
M  V30 1548 C 145.096 -1.62023 3.04701 0
M  V30 1549 C 144.209 -1.05086 4.19024 0
M  V30 1550 C 143.344 -2.15496 4.85525 0
M  V30 1551 C 142.383 -1.5601 5.91884 0
M  V30 1552 N 141.52 -2.60241 6.52088 0
M  V30 1553 H 146.36 0.137864 2.97681 0
M  V30 1554 H 143.897 0.0798061 1.46883 0
M  V30 1555 H 145.855 -2.28887 3.48807 0
M  V30 1556 H 144.485 -2.2138 2.34927 0
M  V30 1557 H 143.537 -0.27259 3.79422 0
M  V30 1558 H 144.849 -0.575926 4.95464 0
M  V30 1559 H 144.003 -2.90186 5.32801 0
M  V30 1560 H 142.742 -2.66341 4.08551 0
M  V30 1561 H 141.747 -0.798338 5.43973 0
M  V30 1562 H 142.972 -1.05994 6.70777 0
M  V30 1563 H 140.918 -3.10304 5.77968 0
M  V30 1564 H 140.835 -2.17426 7.24059 0
M  V30 1565 H 142.103 -3.34641 7.04014 0
M  V30 1566 N 146.332 -1.57332 0.0918853 0
M  V30 1567 C 147.279 -2.13847 -0.868211 0
M  V30 1568 C 148.249 -1.05618 -1.28196 0
M  V30 1569 O 149.434 -1.33387 -1.36427 0
M  V30 1570 C 146.574 -2.72062 -2.12312 0
M  V30 1571 C 145.687 -3.94514 -1.7602 0
M  V30 1572 C 144.822 -4.40903 -2.96273 0
M  V30 1573 C 143.861 -5.55953 -2.56092 0
M  V30 1574 N 142.998 -5.97209 -3.69169 0
M  V30 1575 H 147.838 -2.95575 -0.379406 0
M  V30 1576 H 145.375 -1.46048 -0.175606 0
M  V30 1577 H 147.333 -3.03931 -2.858 0
M  V30 1578 H 145.963 -1.93068 -2.58698 0
M  V30 1579 H 145.015 -3.68979 -0.925135 0
M  V30 1580 H 146.327 -4.7802 -1.42472 0
M  V30 1581 H 145.481 -4.74539 -3.78018 0
M  V30 1582 H 144.22 -3.56291 -3.33029 0
M  V30 1583 H 143.225 -5.21948 -1.72773 0
M  V30 1584 H 144.45 -6.42311 -2.20484 0
M  V30 1585 H 142.396 -5.15543 -4.05649 0
M  V30 1586 H 142.313 -6.75504 -3.39456 0
M  V30 1587 H 143.581 -6.35475 -4.51434 0
M  V30 1588 N 147.81 0.181792 -1.56548 0
M  V30 1589 C 148.758 1.24461 -1.965 0
M  V30 1590 C 149.752 1.464 -0.852261 0
M  V30 1591 O 150.958 1.47103 -1.03733 0
M  V30 1592 H 147.333 0.418138 -0.625031 0
M  V30 1593 H 149.304 0.880714 -2.85107 0
M  V30 1594 C 148.053 2.57891 -2.33212 0
M  V30 1595 H 147.376 2.41829 -3.18369 0
M  V30 1596 H 148.816 3.3097 -2.65019 0
M  V30 1597 C 147.275 3.15871 -1.17163 0
M  V30 1598 O 147.805 3.9913 -0.453708 0
M  V30 1599 N 146.011 2.74808 -0.944936 0
M  V30 1600 H 145.558 2.07205 -1.53049 0
M  V30 1601 H 145.516 3.13939 -0.170286 0
M  V30 1602 N 149.288 1.51039 0.449983 0
M  V30 1603 C 150.704 1.38934 0.785462 0
M  V30 1604 C 150.904 0.461817 1.96136 0
M  V30 1605 O 149.96 -0.0877389 2.52348 0
M  V30 1606 C 151.273 2.80724 1.0777 0
M  V30 1607 C 152.821 2.89787 1.1829 0
M  V30 1608 C 153.296 4.32457 1.50815 0
M  V30 1609 N 154.787 4.35505 1.57764 0
M  V30 1610 C 155.522 5.42914 1.84477 0
M  V30 1611 N 155.018 6.60502 2.09068 0
M  V30 1612 N 156.811 5.3038 1.86155 0
M  V30 1613 H 148.962 2.09904 -0.324647 0
M  V30 1614 H 151.225 0.944378 -0.0827957 0
M  V30 1615 H 150.931 3.50531 0.286498 0
M  V30 1616 H 150.805 3.19273 2.00859 0
M  V30 1617 H 153.192 2.20186 1.96474 0
M  V30 1618 H 153.273 2.54752 0.231314 0
M  V30 1619 H 152.917 5.02603 0.731622 0
M  V30 1620 H 152.847 4.64995 2.47158 0
M  V30 1621 H 155.338 3.50724 1.40715 0
M  V30 1622 H 155.651 7.38158 2.28785 0
M  V30 1623 H 153.996 6.63639 2.06416 0
M  V30 1624 H 157.187 4.37505 1.66454 0
M  V30 1625 H 157.36 6.1417 2.06637 0
M  V30 1626 N 150.766 -0.704594 1.40972 0
M  V30 1627 C 151.994 -1.49354 1.43182 0
M  V30 1628 C 152.409 -1.88768 0.0345508 0
M  V30 1629 O 151.766 -1.56184 -0.944081 0
M  V30 1630 C 151.817 -2.76187 2.33244 0
M  V30 1631 O 151.538 -2.38436 3.67532 0
M  V30 1632 C 153.039 -3.7 2.44162 0
M  V30 1633 H 150.259 -0.460559 0.487982 0
M  V30 1634 H 152.803 -0.868261 1.85153 0
M  V30 1635 H 150.958 -3.34974 1.94606 0
M  V30 1636 H 151.372 -3.20126 4.15475 0
M  V30 1637 H 152.846 -4.55803 3.11364 0
M  V30 1638 H 153.323 -4.13867 1.47006 0
M  V30 1639 H 153.929 -3.17121 2.83398 0
M  V30 1640 N 152.244 -1.26651 -0.937939 0
M  V30 1641 C 153.655 -1.1125 -1.49934 0
M  V30 1642 C 154.006 0.306077 -1.93798 0
M  V30 1643 O 153.131 1.19792 -1.80219 0
M  V30 1644 C 153.726 -2.01339 -2.72485 0
M  V30 1645 C 152.285 -1.90074 -3.24883 0
M  V30 1646 C 151.432 -1.94498 -1.97651 0
M  V30 1647 H 154.383 -1.39693 -0.753091 0
M  V30 1648 H 154.404 -1.56319 -3.46907 0
M  V30 1649 H 153.916 -3.04577 -2.40529 0
M  V30 1650 H 152.017 -0.897827 -3.61621 0
M  V30 1651 H 152.13 -2.75778 -3.9177 0
M  V30 1652 H 150.494 -1.38591 -2.13693 0
M  V30 1653 H 151.277 -2.99372 -1.68022 0
M  V30 1654 N 153.722 1.14298 -1.08507 0
M  V30 1655 C 154.968 1.85633 -0.816581 0
M  V30 1656 C 155.301 1.82784 0.656021 0
M  V30 1657 O 154.576 1.25926 1.48233 0
M  V30 1658 C 154.859 3.34223 -1.34041 0
M  V30 1659 C 154.712 3.45639 -2.87843 0
M  V30 1660 C 156.031 4.29356 -0.9665 0
M  V30 1661 H 153.15 0.67402 -0.298104 0
M  V30 1662 H 155.792 1.34214 -1.34487 0
M  V30 1663 H 153.942 3.78144 -0.89104 0
M  V30 1664 H 155.614 3.10498 -3.41158 0
M  V30 1665 H 153.857 2.86817 -3.25451 0
M  V30 1666 H 154.528 4.50089 -3.19569 0
M  V30 1667 H 157.004 3.93457 -1.35391 0
M  V30 1668 H 155.88 5.3178 -1.3602 0
M  V30 1669 H 156.141 4.41919 0.126362 0
M  V30 1670 N 155.201 0.870884 1.31352 0
M  V30 1671 C 156.447 0.492314 1.97352 0
M  V30 1672 C 156.802 -0.945174 1.67583 0
M  V30 1673 O 156.095 -1.65674 0.962423 0
M  V30 1674 C 156.289 0.687157 3.50732 0
M  V30 1675 C 156.118 2.14203 3.95407 0
M  V30 1676 C 154.888 2.78382 4.21701 0
M  V30 1677 C 157.086 3.1144 4.09279 0
M  V30 1678 N 155.068 4.14611 4.52737 0
M  V30 1679 C 156.439 4.32702 4.44037 0
M  V30 1680 C 158.494 3.07418 3.91661 0
M  V30 1681 C 157.197 5.50463 4.63015 0
M  V30 1682 C 159.223 4.24438 4.11833 0
M  V30 1683 C 158.585 5.44463 4.46923 0
M  V30 1684 H 154.684 0.229206 0.747655 0
M  V30 1685 H 157.268 1.12568 1.5886 0
M  V30 1686 H 155.439 0.083384 3.8831 0
M  V30 1687 H 157.171 0.276883 4.03752 0
M  V30 1688 H 153.926 2.29326 4.14375 0
M  V30 1689 H 154.35 4.84928 4.72413 0
M  V30 1690 H 158.992 2.15732 3.6362 0
M  V30 1691 H 156.71 6.42666 4.89904 0
M  V30 1692 H 160.296 4.2278 3.99685 0
M  V30 1693 H 159.176 6.33504 4.62214 0
M  V30 1694 N 156.679 -1.44442 0.630414 0
M  V30 1695 C 157.926 -2.02052 0.134617 0
M  V30 1696 C 158.254 -1.49576 -1.24327 0
M  V30 1697 O 157.509 -0.669806 -1.83881 0
M  V30 1698 C 157.808 -3.57332 0.0697835 0
M  V30 1699 C 157.474 -4.29058 1.38635 0
M  V30 1700 C 156.136 -4.4837 1.74694 0
M  V30 1701 C 158.488 -4.69872 2.25543 0
M  V30 1702 C 155.816 -5.05756 2.97369 0
M  V30 1703 C 158.168 -5.28616 3.47487 0
M  V30 1704 C 156.832 -5.46147 3.8377 0
M  V30 1705 H 156.102 -0.739361 0.0492598 0
M  V30 1706 H 158.749 -1.73217 0.816586 0
M  V30 1707 H 157.054 -3.85577 -0.695553 0
M  V30 1708 H 158.751 -3.99637 -0.330344 0
M  V30 1709 H 155.341 -4.14357 1.09574 0
M  V30 1710 H 159.525 -4.54666 1.98979 0
M  V30 1711 H 154.781 -5.17515 3.25558 0
M  V30 1712 H 158.955 -5.59192 4.15063 0
M  V30 1713 H 156.582 -5.9038 4.7891 0
M  V30 1714 N 158.157 -0.370918 -1.53173 0
M  V30 1715 C 159.387 0.217389 -2.05453 0
M  V30 1716 C 159.795 1.42568 -1.24382 0
M  V30 1717 O 159.138 1.81571 -0.278839 0
M  V30 1718 C 159.2 0.669827 -3.53205 0
M  V30 1719 C 158.864 -0.4225 -4.55043 0
M  V30 1720 C 159.861 -1.27407 -5.04047 0
M  V30 1721 C 157.546 -0.58427 -4.9889 0
M  V30 1722 C 159.54 -2.27271 -5.95505 0
M  V30 1723 C 157.227 -1.58627 -5.90153 0
M  V30 1724 C 158.225 -2.42892 -6.38351 0
M  V30 1725 O 157.913 -3.41382 -7.27814 0
M  V30 1726 H 157.645 0.0408171 -0.674767 0
M  V30 1727 H 160.199 -0.5292 -1.98466 0
M  V30 1728 H 158.429 1.4681 -3.57748 0
M  V30 1729 H 160.118 1.18173 -3.88317 0
M  V30 1730 H 160.884 -1.16031 -4.70916 0
M  V30 1731 H 156.763 0.061851 -4.60959 0
M  V30 1732 H 160.307 -2.93079 -6.33049 0
M  V30 1733 H 156.204 -1.70048 -6.22699 0
M  V30 1734 H 156.972 -3.37173 -7.45826 0
M  V30 1735 N 159.635 1.57281 -0.100228 0
M  V30 1736 C 160.568 2.09976 0.893612 0
M  V30 1737 C 161.546 1.01155 1.27304 0
M  V30 1738 O 162.73 1.28687 1.37739 0
M  V30 1739 C 159.857 2.58098 2.19324 0
M  V30 1740 C 158.903 3.78626 1.96328 0
M  V30 1741 S 159.736 5.21959 1.19662 0
M  V30 1742 C 160.892 5.73435 2.50844 0
M  V30 1743 H 161.125 2.93946 0.44534 0
M  V30 1744 H 158.658 1.53985 0.113167 0
M  V30 1745 H 160.616 2.8648 2.94005 0
M  V30 1746 H 159.277 1.74344 2.61272 0
M  V30 1747 H 158.47 4.10382 2.92579 0
M  V30 1748 H 158.072 3.50763 1.29775 0
M  V30 1749 H 160.364 5.82015 3.46792 0
M  V30 1750 H 161.307 6.7185 2.23659 0
M  V30 1751 H 161.715 5.01395 2.59352 0
M  V30 1752 N 161.113 -0.173488 1.56642 0
M  V30 1753 C 162.045 -1.23935 1.92802 0
M  V30 1754 C 163.058 -1.40589 0.820889 0
M  V30 1755 O 164.247 -1.40631 1.09933 0
M  V30 1756 C 161.347 -2.60837 2.16373 0
M  V30 1757 C 160.52 -2.6551 3.47596 0
M  V30 1758 C 159.579 -3.8376 3.60021 0
M  V30 1759 O 158.605 -3.69859 4.32658 0
M  V30 1760 N 159.807 -5.00127 2.94709 0
M  V30 1761 H 162.572 -0.932236 2.84832 0
M  V30 1762 H 160.133 -0.363268 1.57772 0
M  V30 1763 H 162.125 -3.38407 2.21952 0
M  V30 1764 H 160.695 -2.83948 1.30738 0
M  V30 1765 H 159.915 -1.74052 3.53694 0
M  V30 1766 H 161.203 -2.65641 4.33949 0
M  V30 1767 H 160.601 -5.14322 2.35563 0
M  V30 1768 H 159.158 -5.75567 3.05886 0
M  V30 1769 N 162.591 -1.51276 -0.441967 0
M  V30 1770 C 163.84 -1.6295 -1.18871 0
M  V30 1771 C 164.153 -0.349312 -1.92456 0
M  V30 1772 O 165.359 -0.345355 -2.69295 0
M  V30 1773 C 163.815 -2.87759 -2.16155 0
M  V30 1774 C 163.423 -4.22764 -1.48239 0
M  V30 1775 C 165.167 -3.08788 -2.91291 0
M  V30 1776 C 163.074 -5.38728 -2.4398 0
M  V30 1777 H 162.004 -0.606913 -0.447406 0
M  V30 1778 H 164.655 -1.77739 -0.456205 0
M  V30 1779 H 163.037 -2.66593 -2.92821 0
M  V30 1780 H 164.211 -4.54293 -0.771635 0
M  V30 1781 H 162.526 -4.07575 -0.852741 0
M  V30 1782 H 165.123 -3.92599 -3.63002 0
M  V30 1783 H 165.466 -2.21679 -3.5237 0
M  V30 1784 H 165.999 -3.30272 -2.21733 0
M  V30 1785 H 162.738 -6.28082 -1.87598 0
M  V30 1786 H 162.258 -5.1158 -3.13123 0
M  V30 1787 H 163.937 -5.70489 -3.05207 0
M  V30 1788 N 164.069 0.697108 -1.41344 0
M  V30 1789 C 165.032 1.79281 -1.42797 0
M  V30 1790 C 166.032 1.57607 -0.318837 0
M  V30 1791 O 167.222 1.64309 -0.578642 0
M  V30 1792 C 164.354 3.17632 -1.23785 0
M  V30 1793 H 165.547 1.79385 -2.40335 0
M  V30 1794 H 163.1 0.904582 -1.27464 0
M  V30 1795 H 163.835 3.23167 -0.270814 0
M  V30 1796 H 163.62 3.34765 -2.04144 0
M  V30 1797 H 165.11 3.97617 -1.27633 0
M  V30 1798 N 165.547 1.27147 0.931209 0
M  V30 1799 C 166.958 1.12044 1.49342 0
M  V30 1800 C 167.309 -0.295795 1.93957 0
M  V30 1801 O 166.434 -1.18835 1.80852 0
M  V30 1802 C 167.029 2.02781 2.71414 0
M  V30 1803 C 165.588 1.91794 3.2387 0
M  V30 1804 C 164.735 1.95543 1.96617 0
M  V30 1805 H 167.686 1.40091 0.745672 0
M  V30 1806 H 167.707 1.58156 3.46074 0
M  V30 1807 H 167.219 3.05848 2.38911 0
M  V30 1808 H 165.32 0.916992 3.6114 0
M  V30 1809 H 165.433 2.77852 3.90302 0
M  V30 1810 H 163.797 1.39722 2.12955 0
M  V30 1811 H 164.58 3.00259 1.66432 0
M  V30 1812 N 167.025 -1.13721 1.09112 0
M  V30 1813 C 168.274 -1.84275 0.82009 0
M  V30 1814 C 168.587 -1.84253 -0.656509 0
M  V30 1815 O 169.793 -2.50668 -1.04296 0
M  V30 1816 C 168.249 -3.30825 1.41714 0
M  V30 1817 C 167.857 -3.39244 2.92605 0
M  V30 1818 C 169.601 -4.06443 1.22492 0
M  V30 1819 C 167.508 -4.80047 3.45411 0
M  V30 1820 H 166.438 -0.690387 0.30312 0
M  V30 1821 H 169.089 -1.28146 1.31343 0
M  V30 1822 H 167.471 -3.86737 0.851498 0
M  V30 1823 H 168.645 -2.93344 3.55367 0
M  V30 1824 H 166.96 -2.77088 3.10823 0
M  V30 1825 H 169.557 -5.10387 1.59402 0
M  V30 1826 H 169.9 -4.15972 0.165299 0
M  V30 1827 H 170.433 -3.56852 1.75788 0
M  V30 1828 H 167.172 -4.75709 4.50978 0
M  V30 1829 H 166.692 -5.26455 2.87411 0
M  V30 1830 H 168.371 -5.48957 3.42425 0
M  V30 1831 N 168.503 -0.877838 -1.30888 0
M  V30 1832 C 169.919 -0.570844 -1.49042 0
M  V30 1833 C 170.119 0.893159 -1.80624 0
M  V30 1834 O 169.175 1.67485 -1.88958 0
M  V30 1835 C 170.488 -1.47784 -2.61878 0
M  V30 1836 C 172.036 -1.48071 -2.75761 0
M  V30 1837 C 172.511 -2.37347 -3.91702 0
M  V30 1838 N 174.002 -2.35271 -3.99001 0
M  V30 1839 C 174.737 -3.01063 -4.88004 0
M  V30 1840 N 174.233 -3.76055 -5.81854 0
M  V30 1841 N 176.026 -2.90332 -4.81315 0
M  V30 1842 H 168.177 -1.82502 -1.0866 0
M  V30 1843 H 170.44 -0.780797 -0.537644 0
M  V30 1844 H 170.146 -2.51993 -2.45341 0
M  V30 1845 H 170.02 -1.18215 -3.58197 0
M  V30 1846 H 172.407 -0.446166 -2.91708 0
M  V30 1847 H 172.488 -1.81668 -1.80085 0
M  V30 1848 H 172.132 -3.40883 -3.76512 0
M  V30 1849 H 172.062 -2.01071 -4.86701 0
M  V30 1850 H 174.553 -1.80768 -3.3186 0
M  V30 1851 H 174.866 -4.23366 -6.46514 0
M  V30 1852 H 173.211 -3.80163 -5.81808 0
M  V30 1853 H 176.402 -2.31278 -4.06974 0
M  V30 1854 H 176.575 -3.41885 -5.50471 0
M  V30 1855 N 169.982 1.44106 -0.638065 0
M  V30 1856 C 170.93 2.3248 0.0748149 0
M  V30 1857 C 171.924 1.47746 0.828702 0
M  V30 1858 O 173.13 1.64049 0.740816 0
M  V30 1859 H 169.505 0.750771 0.0429686 0
M  V30 1860 H 171.476 2.90348 -0.688504 0
M  V30 1861 C 170.225 3.31843 1.03805 0
M  V30 1862 H 169.548 3.97059 0.467375 0
M  V30 1863 H 170.988 3.96345 1.50622 0
M  V30 1864 C 169.447 2.61291 2.1267 0
M  V30 1865 O 169.977 2.41702 3.20847 0
M  V30 1866 N 168.183 2.20915 1.88798 0
M  V30 1867 H 167.73 2.37047 1.00829 0
M  V30 1868 H 167.688 1.74038 2.61836 0
M  V30 1869 N 171.46 0.379036 1.52974 0
M  V30 1870 C 172.37 -0.468639 2.29872 0
M  V30 1871 C 173.386 -1.08067 1.36373 0
M  V30 1872 O 174.562 -1.08871 1.69438 0
M  V30 1873 C 171.627 -1.58594 3.083 0
M  V30 1874 C 170.688 -1.00007 4.17489 0
M  V30 1875 C 169.921 -2.06413 4.92168 0
M  V30 1876 O 170.144 -3.27751 4.66835 0
M  V30 1877 O 169.078 -1.68717 5.7777 0
M  V30 1878 H 172.904 0.157508 3.03291 0
M  V30 1879 H 170.489 0.143035 1.48714 0
M  V30 1880 H 172.371 -2.23525 3.57232 0
M  V30 1881 H 171.046 -2.19724 2.37703 0
M  V30 1882 H 169.953 -0.314299 3.72777 0
M  V30 1883 H 171.286 -0.433135 4.90291 0
M  V30 1884 N 172.938 -1.57226 0.108567 0
M  V30 1885 C 173.888 -2.11305 -0.856396 0
M  V30 1886 C 174.872 -1.03129 -1.23504 0
M  V30 1887 O 176.064 -1.29381 -1.20787 0
M  V30 1888 C 173.193 -2.70771 -2.11041 0
M  V30 1889 C 172.279 -3.86011 -1.7566 0
M  V30 1890 N 172.67 -4.93492 -1.10902 0
M  V30 1891 C 170.968 -3.95999 -2.05185 0
M  V30 1892 C 171.669 -5.73984 -0.944308 0
M  V30 1893 N 170.645 -5.2346 -1.46596 0
M  V30 1894 H 174.447 -2.91784 -0.352002 0
M  V30 1895 H 171.961 -1.62126 -0.0942324 0
M  V30 1896 H 173.958 -3.07851 -2.81128 0
M  V30 1897 H 172.618 -1.91751 -2.62034 0
M  V30 1898 H 173.629 -5.1208 -0.774235 0
M  V30 1899 H 170.306 -3.28007 -2.58298 0
M  V30 1900 H 171.696 -6.70479 -0.436813 0
M  V30 1901 N 174.416 0.165178 -1.56732 0
M  V30 1902 C 175.326 1.22423 -2.00125 0
M  V30 1903 C 176.342 1.48084 -0.913619 0
M  V30 1904 O 177.518 1.60112 -1.22172 0
M  V30 1905 C 174.583 2.54197 -2.35764 0
M  V30 1906 C 173.644 2.36343 -3.58386 0
M  V30 1907 C 172.877 3.61834 -3.92316 0
M  V30 1908 O 173.1 4.67267 -3.27135 0
M  V30 1909 O 172.034 3.55579 -4.85641 0
M  V30 1910 H 175.86 0.885886 -2.90492 0
M  V30 1911 H 173.445 0.372518 -1.44681 0
M  V30 1912 H 175.327 3.3192 -2.59629 0
M  V30 1913 H 174.002 2.87598 -1.48557 0
M  V30 1914 H 172.909 1.56632 -3.39731 0
M  V30 1915 H 174.242 2.07865 -4.46154 0
M  V30 1916 N 175.894 1.51508 0.433938 0
M  V30 1917 C 176.841 1.73068 1.52696 0
M  V30 1918 C 177.811 0.572441 1.55924 0
M  V30 1919 O 178.996 0.807253 1.72882 0
M  V30 1920 C 176.136 1.86474 2.90381 0
M  V30 1921 C 175.249 3.14037 2.96656 0
M  V30 1922 C 174.384 3.18019 4.25485 0
M  V30 1923 C 173.423 4.39882 4.2564 0
M  V30 1924 N 172.56 4.41394 5.45999 0
M  V30 1925 H 177.4 2.66366 1.33615 0
M  V30 1926 H 174.937 1.32008 0.649018 0
M  V30 1927 H 176.895 1.92229 3.70275 0
M  V30 1928 H 175.525 0.965809 3.08013 0
M  V30 1929 H 174.577 3.17575 2.09404 0
M  V30 1930 H 175.889 4.0394 2.92633 0
M  V30 1931 H 175.043 3.22708 5.13755 0
M  V30 1932 H 173.782 2.2601 4.3217 0
M  V30 1933 H 172.787 4.35366 3.35763 0
M  V30 1934 H 174.012 5.33159 4.20617 0
M  V30 1935 H 171.958 3.52258 5.53399 0
M  V30 1936 H 171.875 5.25111 5.4387 0
M  V30 1937 H 173.143 4.50281 6.36292 0
M  V30 1938 N 177.372 -0.689602 1.41712 0
M  V30 1939 C 178.618 -1.45181 1.41599 0
M  V30 1940 C 178.951 -1.94181 0.0270081 0
M  V30 1941 O 178.226 -1.6993 -0.946265 0
M  V30 1942 C 178.509 -2.65945 2.42787 0
M  V30 1943 C 178.362 -2.22672 3.90816 0
M  V30 1944 C 179.681 -3.68149 2.41151 0
M  V30 1945 H 176.8 -0.526576 0.515642 0
M  V30 1946 H 179.442 -0.784947 1.73028 0
M  V30 1947 H 177.592 -3.2284 2.16116 0
M  V30 1948 H 179.264 -1.71058 4.28412 0
M  V30 1949 H 177.507 -1.54394 4.05395 0
M  V30 1950 H 178.178 -3.0935 4.57172 0
M  V30 1951 H 180.654 -3.2094 2.64834 0
M  V30 1952 H 179.53 -4.50248 3.13955 0
M  V30 1953 H 179.791 -4.18259 1.43221 0
M  V30 1954 N 178.85 -1.27639 -0.924453 0
M  V30 1955 C 180.096 -1.14336 -1.67497 0
M  V30 1956 C 180.429 0.309465 -1.91718 0
M  V30 1957 O 179.704 1.22608 -1.50989 0
M  V30 1958 C 179.987 -1.93096 -3.0395 0
M  V30 1959 C 179.84 -3.46381 -2.8695 0
M  V30 1960 C 181.159 -1.73798 -4.0433 0
M  V30 1961 H 178.278 -0.416728 -0.607871 0
M  V30 1962 H 180.92 -1.56832 -1.07256 0
M  V30 1963 H 179.07 -1.56982 -3.55372 0
M  V30 1964 H 180.742 -3.92343 -2.42621 0
M  V30 1965 H 178.985 -3.72557 -2.22225 0
M  V30 1966 H 179.656 -3.96735 -3.83804 0
M  V30 1967 H 182.132 -2.05293 -3.61931 0
M  V30 1968 H 181.008 -2.31294 -4.97789 0
M  V30 1969 H 181.269 -0.686725 -4.36734 0
M  V30 1970 N 180.328 1.1314 -1.09713 0
M  V30 1971 C 181.258 2.20748 -0.761102 0
M  V30 1972 C 182.239 1.68061 0.262566 0
M  V30 1973 O 183.424 1.93765 0.129977 0
M  V30 1974 C 180.554 3.46812 -0.184054 0
M  V30 1975 C 179.508 4.12606 -1.13757 0
M  V30 1976 C 178.834 5.33031 -0.422083 0
M  V30 1977 C 180.134 4.59603 -2.48118 0
M  V30 1978 H 181.828 2.49113 -1.66082 0
M  V30 1979 H 179.374 1.19734 -0.799987 0
M  V30 1980 H 181.327 4.21353 0.0631215 0
M  V30 1981 H 180.051 3.17851 0.750868 0
M  V30 1982 H 178.71 3.40036 -1.37007 0
M  V30 1983 H 178.358 5.00335 0.517072 0
M  V30 1984 H 178.058 5.77999 -1.05788 0
M  V30 1985 H 179.582 6.10325 -0.183277 0
M  V30 1986 H 180.996 5.25552 -2.29059 0
M  V30 1987 H 179.393 5.15321 -3.07514 0
M  V30 1988 H 180.463 3.73971 -3.08665 0
M  V30 1989 N 181.806 0.884767 1.30421 0
M  V30 1990 C 183.053 0.503105 1.96151 0
M  V30 1991 C 183.381 -0.947676 1.69851 0
M  V30 1992 O 182.636 -1.68467 0.995861 0
M  V30 1993 C 182.935 0.724318 3.49983 0
M  V30 1994 C 182.601 2.15015 3.96332 0
M  V30 1995 C 181.263 2.54005 4.08699 0
M  V30 1996 C 183.615 3.07936 4.20505 0
M  V30 1997 C 180.943 3.85128 4.42599 0
M  V30 1998 C 183.295 4.3859 4.55874 0
M  V30 1999 C 181.959 4.77474 4.66449 0
M  V30 2000 H 181.229 0.184099 0.717766 0
M  V30 2001 H 183.876 1.12058 1.55291 0
M  V30 2002 H 182.181 0.0238086 3.91793 0
M  V30 2003 H 183.878 0.408617 3.98913 0
M  V30 2004 H 180.468 1.8375 3.87213 0
M  V30 2005 H 184.652 2.79033 4.10431 0
M  V30 2006 H 179.908 4.14996 4.48986 0
M  V30 2007 H 184.082 5.10629 4.7353 0
M  V30 2008 H 181.709 5.79115 4.92473 0
M  V30 2009 N 183.284 -1.43765 0.645699 0
M  V30 2010 C 184.214 -2.33471 -0.0370477 0
M  V30 2011 C 185.195 -1.49042 -0.819779 0
M  V30 2012 O 186.38 -1.77726 -0.782758 0
M  V30 2013 C 183.51 -3.32311 -1.0093 0
M  V30 2014 C 182.464 -4.2667 -0.337201 0
M  V30 2015 C 181.79 -5.1549 -1.42037 0
M  V30 2016 C 183.09 -5.16657 0.765706 0
M  V30 2017 H 184.784 -2.90809 0.712069 0
M  V30 2018 H 182.33 -1.39834 0.343876 0
M  V30 2019 H 184.283 -3.9396 -1.49578 0
M  V30 2020 H 183.007 -2.73213 -1.78948 0
M  V30 2021 H 181.666 -3.66374 0.128771 0
M  V30 2022 H 181.314 -4.52735 -2.1918 0
M  V30 2023 H 181.014 -5.79438 -0.975966 0
M  V30 2024 H 182.538 -5.80012 -1.90838 0
M  V30 2025 H 183.952 -5.72158 0.361702 0
M  V30 2026 H 182.349 -5.89286 1.13413 0
M  V30 2027 H 183.419 -4.56796 1.62683 0
M  V30 2028 N 184.763 -0.387143 -1.52771 0
M  V30 2029 C 186.003 0.195537 -2.03463 0
M  V30 2030 C 186.367 1.44222 -1.26744 0
M  V30 2031 O 187.568 2.10192 -1.67549 0
M  V30 2032 C 185.839 0.459097 -3.54439 0
M  V30 2033 S 187.398 1.01237 -4.26962 0
M  V30 2034 H 184.216 0.0552675 -0.708849 0
M  V30 2035 H 186.818 -0.534992 -1.88037 0
M  V30 2036 H 185.522 -0.455382 -4.07866 0
M  V30 2037 H 185.053 1.21811 -3.74066 0
M  V30 2038 H 187.068 2.29492 -4.39941 0
M  V30 2039 N 186.241 1.57166 -0.116904 0
M  V30 2040 C 187.469 1.99473 0.549383 0
M  V30 2041 C 187.884 0.996541 1.60357 0
M  V30 2042 O 187.241 -0.0108731 1.82497 0
M  V30 2043 C 187.292 3.41788 1.17741 0
M  V30 2044 O 187.013 4.37788 0.165362 0
M  V30 2045 C 188.514 3.99216 1.92722 0
M  V30 2046 H 185.734 0.655009 0.145616 0
M  V30 2047 H 188.278 2.03494 -0.202625 0
M  V30 2048 H 186.433 3.38713 1.88021 0
M  V30 2049 H 186.847 5.20806 0.621403 0
M  V30 2050 H 188.321 5.00882 2.31995 0
M  V30 2051 H 188.798 3.3824 2.80161 0
M  V30 2052 H 189.404 4.0583 1.27209 0
M  V30 2053 N 187.719 -0.156864 1.56817 0
M  V30 2054 C 188.966 -0.871125 1.82805 0
M  V30 2055 C 189.294 -1.81611 0.696262 0
M  V30 2056 O 188.549 -1.93141 -0.315459 0
M  V30 2057 C 188.848 -1.68737 3.1506 0
M  V30 2058 C 188.514 -0.890045 4.42028 0
M  V30 2059 C 187.176 -0.670042 4.76512 0
M  V30 2060 C 189.528 -0.331769 5.20143 0
M  V30 2061 C 186.856 0.119104 5.86579 0
M  V30 2062 C 189.208 0.444365 6.31037 0
M  V30 2063 C 187.872 0.675035 6.64078 0
M  V30 2064 H 187.142 -0.318767 0.668931 0
M  V30 2065 H 189.789 -0.135274 1.91022 0
M  V30 2066 H 188.094 -2.49304 3.0225 0
M  V30 2067 H 189.791 -2.24331 3.3238 0
M  V30 2068 H 186.381 -1.07157 4.14988 0
M  V30 2069 H 190.565 -0.489043 4.93885 0
M  V30 2070 H 185.821 0.307417 6.10627 0
M  V30 2071 H 189.995 0.884139 6.90765 0
M  V30 2072 H 187.622 1.28839 7.49203 0
M  V30 2073 N 189.197 -1.51736 -0.425897 0
M  V30 2074 C 190.144 -1.73875 -1.51776 0
M  V30 2075 C 191.114 -0.580702 -1.55618 0
M  V30 2076 O 192.299 -0.81641 -1.72451 0
M  V30 2077 C 189.439 -1.88012 -2.89388 0
M  V30 2078 C 188.552 -3.15606 -2.94986 0
M  V30 2079 C 187.687 -3.20271 -4.23793 0
M  V30 2080 C 186.726 -4.42134 -4.23302 0
M  V30 2081 N 185.863 -4.44284 -5.43651 0
M  V30 2082 H 190.703 -2.67071 -1.32201 0
M  V30 2083 H 188.24 -1.32351 -0.642008 0
M  V30 2084 H 190.198 -1.9419 -3.69251 0
M  V30 2085 H 188.828 -0.98213 -3.07496 0
M  V30 2086 H 187.88 -3.18681 -2.07717 0
M  V30 2087 H 189.192 -4.05486 -2.90486 0
M  V30 2088 H 188.346 -3.25428 -5.12036 0
M  V30 2089 H 187.085 -2.28299 -4.30965 0
M  V30 2090 H 186.09 -4.3714 -3.3345 0
M  V30 2091 H 187.315 -5.35382 -4.17783 0
M  V30 2092 H 185.261 -3.55188 -5.51523 0
M  V30 2093 H 185.178 -5.27988 -5.41078 0
M  V30 2094 H 186.446 -4.53649 -6.33895 0
M  V30 2095 N 190.675 0.682077 -1.42076 0
M  V30 2096 C 191.952 1.43755 -1.32642 0
M  V30 2097 C 192.332 2.11063 0.0396611 0
M  V30 2098 O 191.68 2.02701 1.05474 0
M  V30 2099 C 191.89 2.44596 -2.48946 0
M  V30 2100 C 193.238 3.09454 -2.9073 0
M  V30 2101 O 194.262 2.54922 -2.48783 0
M  V30 2102 O 193.121 4.08253 -3.63307 0
M  V30 2103 H 190.215 0.640857 -0.522715 0
M  V30 2104 H 192.761 0.711415 -1.54068 0
M  V30 2105 H 191.533 1.93609 -3.40046 0
M  V30 2106 H 191.156 3.24701 -2.29467 0
M  V30 2107 N 192.153 1.28127 0.917671 0
M  V30 2108 C 193.402 1.14432 1.66097 0
M  V30 2109 C 193.715 -0.307247 1.93172 0
M  V30 2110 O 194.921 -0.565259 2.65551 0
M  V30 2111 C 193.377 2.00015 2.99202 0
M  V30 2112 C 192.985 3.49889 2.79789 0
M  V30 2113 C 194.729 1.94996 3.77064 0
M  V30 2114 C 192.636 4.27636 4.08511 0
M  V30 2115 H 191.566 0.424662 0.62304 0
M  V30 2116 H 194.217 1.52628 1.01868 0
M  V30 2117 H 192.599 1.54672 3.64544 0
M  V30 2118 H 193.773 4.03162 2.23152 0
M  V30 2119 H 192.088 3.56392 2.15345 0
M  V30 2120 H 194.685 2.50354 4.72469 0
M  V30 2121 H 195.028 0.925819 4.05875 0
M  V30 2122 H 195.561 2.38287 3.18534 0
M  V30 2123 H 192.3 5.30615 3.84874 0
M  V30 2124 H 191.82 3.79137 4.64774 0
M  V30 2125 H 193.499 4.37346 4.76799 0
M  V30 2126 N 193.631 -1.12557 1.10312 0
M  V30 2127 C 194.859 -1.87864 0.866873 0
M  V30 2128 C 195.274 -1.79588 -0.582557 0
M  V30 2129 O 194.631 -1.16887 -1.40156 0
M  V30 2130 C 194.682 -3.37125 1.30496 0
M  V30 2131 O 194.403 -3.45201 2.69755 0
M  V30 2132 C 195.904 -4.29373 1.10243 0
M  V30 2133 H 193.124 -0.594452 0.311236 0
M  V30 2134 H 195.668 -1.42429 1.46745 0
M  V30 2135 H 193.823 -3.80109 0.748081 0
M  V30 2136 H 194.237 -4.38056 2.88457 0
M  V30 2137 H 195.711 -5.32394 1.45811 0
M  V30 2138 H 196.188 -4.39181 0.0409492 0
M  V30 2139 H 196.794 -3.92169 1.64571 0
M  V30 2140 N 195.109 -0.891671 -1.2995 0
M  V30 2141 C 196.039 -0.379797 -2.30391 0
M  V30 2142 C 197.02 0.540919 -1.6127 0
M  V30 2143 O 198.205 0.453352 -1.88834 0
M  V30 2144 C 195.335 0.400654 -3.44981 0
M  V30 2145 C 194.289 -0.428905 -4.25846 0
M  V30 2146 C 193.615 0.478557 -5.32554 0
M  V30 2147 C 194.915 -1.67458 -4.94727 0
M  V30 2148 H 196.609 -1.21914 -2.73454 0
M  V30 2149 H 194.155 -0.587675 -1.31462 0
M  V30 2150 H 196.108 0.769434 -4.14316 0
M  V30 2151 H 194.832 1.27371 -3.0074 0
M  V30 2152 H 193.491 -0.779911 -3.58208 0
M  V30 2153 H 193.139 1.34951 -4.84559 0
M  V30 2154 H 192.839 -0.0727433 -5.87555 0
M  V30 2155 H 194.363 0.843705 -6.04743 0
M  V30 2156 H 195.777 -1.376 -5.56542 0
M  V30 2157 H 194.174 -2.16659 -5.59624 0
M  V30 2158 H 195.244 -2.41518 -4.20473 0
M  V30 2159 N 196.587 1.43421 -0.653314 0
M  V30 2160 C 197.834 2.01812 -0.166745 0
M  V30 2161 C 198.162 1.51535 1.21931 0
M  V30 2162 O 197.417 0.698975 1.82792 0
M  V30 2163 C 197.716 3.57176 -0.126623 0
M  V30 2164 C 197.382 4.26798 -1.45444 0
M  V30 2165 C 196.044 4.45534 -1.81805 0
M  V30 2166 C 198.396 4.66225 -2.32989 0
M  V30 2167 C 195.724 5.00961 -3.05377 0
M  V30 2168 C 198.076 5.23021 -3.55853 0
M  V30 2169 C 196.74 5.39973 -3.9241 0
M  V30 2170 H 196.01 0.738484 -0.0610162 0
M  V30 2171 H 198.657 1.71896 -0.84404 0
M  V30 2172 H 196.962 3.86634 0.634123 0
M  V30 2173 H 198.659 4.00112 0.266723 0
M  V30 2174 H 195.249 4.12561 -1.16153 0
M  V30 2175 H 199.433 4.51443 -2.06187 0
M  V30 2176 H 194.689 5.12271 -3.3375 0
M  V30 2177 H 198.863 5.52518 -4.23907 0
M  V30 2178 H 196.49 5.82687 -4.88242 0
M  V30 2179 N 198.065 0.39524 1.52563 0
M  V30 2180 C 199.012 -0.437036 2.26624 0
M  V30 2181 C 199.982 -1.05281 1.28472 0
M  V30 2182 O 201.167 -1.07971 1.57311 0
M  V30 2183 C 198.307 -1.55524 3.08069 0
M  V30 2184 C 197.42 -0.961745 4.21158 0
M  V30 2185 C 196.555 -2.05149 4.89987 0
M  V30 2186 C 195.594 -1.4342 5.95061 0
M  V30 2187 N 194.731 -2.46351 6.57462 0
M  V30 2188 H 199.571 0.200976 2.97322 0
M  V30 2189 H 197.108 0.110944 1.46681 0
M  V30 2190 H 199.066 -2.21437 3.53584 0
M  V30 2191 H 197.696 -2.16348 2.3957 0
M  V30 2192 H 196.748 -0.192048 3.79915 0
M  V30 2193 H 198.06 -0.470701 4.96574 0
M  V30 2194 H 197.214 -2.78819 5.38837 0
M  V30 2195 H 195.953 -2.57615 4.14109 0
M  V30 2196 H 194.958 -0.682774 5.45544 0
M  V30 2197 H 196.183 -0.917416 6.72875 0
M  V30 2198 H 194.129 -2.97975 5.8442 0
M  V30 2199 H 194.046 -2.02019 7.28508 0
M  V30 2200 H 195.314 -3.19633 7.10954 0
M  V30 2201 N 199.544 -1.57102 0.125237 0
M  V30 2202 C 200.476 -2.12726 -0.853237 0
M  V30 2203 C 201.489 -1.07145 -1.22571 0
M  V30 2204 O 202.678 -1.34497 -1.17358 0
M  V30 2205 C 199.778 -2.61709 -2.15317 0
M  V30 2206 C 198.951 -3.91456 -1.95143 0
M  V30 2207 C 198.01 -4.25973 -3.08923 0
M  V30 2208 O 197.036 -4.94682 -2.81564 0
M  V30 2209 N 198.238 -3.83795 -4.35524 0
M  V30 2210 H 201.003 -2.97307 -0.377964 0
M  V30 2211 H 198.564 -1.61792 -0.0590011 0
M  V30 2212 H 200.556 -2.81826 -2.90441 0
M  V30 2213 H 199.126 -1.81974 -2.54174 0
M  V30 2214 H 198.346 -3.80185 -1.04177 0
M  V30 2215 H 199.634 -4.76283 -1.78976 0
M  V30 2216 H 199.032 -3.2839 -4.60626 0
M  V30 2217 H 197.589 -4.09008 -5.07499 0
M  V30 2218 N 201.022 0.148545 -1.56898 0
M  V30 2219 C 202.433 0.708766 -1.72723 0
M  V30 2220 C 202.784 1.81734 -0.739395 0
M  V30 2221 O 201.909 2.16194 0.0943169 0
M  V30 2222 C 202.504 1.29245 -3.13179 0
M  V30 2223 C 201.063 1.79925 -3.30611 0
M  V30 2224 C 200.21 0.687111 -2.68652 0
M  V30 2225 H 203.161 -0.0771063 -1.58513 0
M  V30 2226 H 203.182 2.16224 -3.13093 0
M  V30 2227 H 202.694 0.485382 -3.85053 0
M  V30 2228 H 200.795 2.63203 -2.63732 0
M  V30 2229 H 200.908 1.92903 -4.38549 0
M  V30 2230 H 199.272 1.11335 -2.29078 0
M  V30 2231 H 200.055 -0.108483 -3.43129 0
M  V30 2232 N 202.5 1.5196 0.417844 0
M  V30 2233 C 203.749 1.6482 1.16264 0
M  V30 2234 C 204.062 0.379886 1.91876 0
M  V30 2235 O 205.268 0.388154 2.68711 0
M  V30 2236 C 203.724 2.91161 2.1155 0
M  V30 2237 C 203.332 4.25068 1.41495 0
M  V30 2238 C 205.076 3.13383 2.86341 0
M  V30 2239 C 202.983 5.42541 2.35379 0
M  V30 2240 H 201.913 0.613954 0.437694 0
M  V30 2241 H 204.564 1.78442 0.427871 0
M  V30 2242 H 202.946 2.71218 2.88543 0
M  V30 2243 H 204.12 4.55463 0.699263 0
M  V30 2244 H 202.435 4.0888 0.787792 0
M  V30 2245 H 205.032 3.98324 3.5671 0
M  V30 2246 H 205.375 2.27256 3.48798 0
M  V30 2247 H 205.908 3.33757 2.1645 0
M  V30 2248 H 202.647 6.30987 1.77582 0
M  V30 2249 H 202.167 5.16497 3.04945 0
M  V30 2250 H 203.846 5.75272 2.96093 0
M  V30 2251 N 203.978 -0.674533 1.42435 0
M  V30 2252 C 204.888 -1.81751 1.48337 0
M  V30 2253 C 205.904 -1.69975 0.372099 0
M  V30 2254 O 207.08 -1.91521 0.62304 0
M  V30 2255 C 204.145 -3.17895 1.38361 0
M  V30 2256 C 203.206 -3.41625 2.59982 0
M  V30 2257 C 202.439 -4.71274 2.50473 0
M  V30 2258 O 202.662 -5.49197 1.54075 0
M  V30 2259 O 201.596 -4.96254 3.4061 0
M  V30 2260 H 205.422 -1.79728 2.44809 0
M  V30 2261 H 203.007 -0.830312 1.24202 0
M  V30 2262 H 204.889 -3.99136 1.35161 0
M  V30 2263 H 203.564 -3.20555 0.450144 0
M  V30 2264 H 202.471 -2.60231 2.68757 0
M  V30 2265 H 203.804 -3.43796 3.52229 0
M  V30 2266 N 205.456 -1.28612 -0.910864 0
M  V30 2267 C 206.733 -1.06632 -1.63979 0
M  V30 2268 C 207.113 0.393351 -2.07403 0
M  V30 2269 O 206.461 1.37999 -1.82122 0
M  V30 2270 C 206.671 -2.0436 -2.8291 0
M  V30 2271 C 208.019 -2.34666 -3.5386 0
M  V30 2272 O 209.043 -2.02467 -2.93062 0
M  V30 2273 O 207.902 -2.89631 -4.63439 0
M  V30 2274 H 204.996 -0.407737 -0.7195 0
M  V30 2275 H 207.542 -1.39942 -0.959914 0
M  V30 2276 H 206.314 -3.02727 -2.47936 0
M  V30 2277 H 205.937 -1.71714 -3.58609 0
M  V30 2278 N 206.934 1.1197 -1.10907 0
M  V30 2279 C 208.211 1.79959 -0.766432 0
M  V30 2280 C 208.591 1.97466 0.746363 0
M  V30 2281 O 207.939 1.55491 1.67436 0
M  V30 2282 C 208.149 3.14009 -1.52314 0
M  V30 2283 C 209.497 3.89134 -1.69883 0
M  V30 2284 O 210.521 3.2368 -1.48692 0
M  V30 2285 O 209.38 5.06572 -2.05054 0
M  V30 2286 H 206.474 0.779208 -0.277062 0
M  V30 2287 H 209.02 1.18762 -1.21217 0
M  V30 2288 H 207.792 2.96587 -2.55249 0
M  V30 2289 H 207.415 3.82915 -1.07059 0
M  V30 2290 N 208.412 0.89855 1.29475 0
M  V30 2291 C 209.637 0.538561 2.00285 0
M  V30 2292 C 210.062 -0.869135 1.66816 0
M  V30 2293 O 209.42 -1.57831 0.892145 0
M  V30 2294 C 209.468 0.736475 3.52999 0
M  V30 2295 O 208.572 -0.211537 4.11857 0
M  V30 2296 H 207.913 0.210563 0.62973 0
M  V30 2297 H 210.443 1.20982 1.64998 0
M  V30 2298 H 210.453 0.640685 4.02938 0
M  V30 2299 H 209.128 1.76276 3.76696 0
M  V30 2300 H 207.705 -0.0682991 3.72837 0
M  V30 2301 N 209.89 -1.43072 0.660911 0
M  V30 2302 C 211.118 -2.06067 0.185422 0
M  V30 2303 C 211.533 -1.49582 -1.15198 0
M  V30 2304 O 210.89 -0.630134 -1.71276 0
M  V30 2305 C 210.941 -3.61371 0.0966523 0
M  V30 2306 O 210.662 -4.15758 1.38119 0
M  V30 2307 C 212.163 -4.41455 -0.403996 0
M  V30 2308 H 209.383 -0.664459 0.0934604 0
M  V30 2309 H 211.927 -1.83447 0.90373 0
M  V30 2310 H 210.082 -3.8315 -0.572259 0
M  V30 2311 H 210.496 -5.09499 1.24542 0
M  V30 2312 H 211.97 -5.50437 -0.415045 0
M  V30 2313 H 212.447 -4.15036 -1.43674 0
M  V30 2314 H 213.053 -4.24663 0.232691 0
M  V30 2315 N 211.368 -0.403325 -1.52352 0
M  V30 2316 C 212.315 0.425011 -2.26853 0
M  V30 2317 C 213.285 1.04598 -1.29029 0
M  V30 2318 O 214.47 1.07135 -1.57882 0
M  V30 2319 C 211.61 1.53888 -3.08889 0
M  V30 2320 C 210.723 0.939396 -4.21663 0
M  V30 2321 C 209.858 2.02547 -4.91068 0
M  V30 2322 C 208.897 1.40263 -5.95813 0
M  V30 2323 N 208.034 2.4286 -6.58759 0
M  V30 2324 H 212.874 -0.21674 -2.97211 0
M  V30 2325 H 210.411 -0.118722 -1.4662 0
M  V30 2326 H 212.369 2.19558 -3.54753 0
M  V30 2327 H 210.999 2.15074 -2.40714 0
M  V30 2328 H 210.051 0.171898 -3.80011 0
M  V30 2329 H 211.363 0.44436 -4.96817 0
M  V30 2330 H 210.517 2.75958 -5.40308 0
M  V30 2331 H 209.256 2.55415 -4.15469 0
M  V30 2332 H 208.261 0.653833 -5.45898 0
M  V30 2333 H 209.486 0.881719 -6.73352 0
M  V30 2334 H 207.432 2.94871 -5.85992 0
M  V30 2335 H 207.349 1.98152 -7.2957 0
M  V30 2336 H 208.617 3.15858 -7.12639 0
M  V30 2337 N 212.846 1.57033 -0.133567 0
M  V30 2338 C 214.094 1.953 0.519848 0
M  V30 2339 C 214.415 1.01866 1.66278 0
M  V30 2340 O 213.685 0.0776513 1.95746 0
M  V30 2341 H 212.265 0.721091 0.195032 0
M  V30 2342 H 214.927 1.93809 -0.205921 0
M  V30 2343 H 214.023 2.98695 0.904854 0
M  V30 2344 N 214.325 -0.140222 1.56975 0
M  V30 2345 C 215.571 -0.848084 1.84876 0
M  V30 2346 C 215.926 -1.78481 0.718481 0
M  V30 2347 O 215.219 -1.89497 -0.283093 0
M  V30 2348 C 215.413 -1.65386 3.16832 0
M  V30 2349 C 215.242 -0.79665 4.42587 0
M  V30 2350 C 214.012 -0.459648 5.03205 0
M  V30 2351 C 216.21 -0.12389 5.14151 0
M  V30 2352 N 214.192 0.410446 6.12526 0
M  V30 2353 C 215.563 0.606064 6.17031 0
M  V30 2354 C 217.618 -0.0452654 4.97879 0
M  V30 2355 C 216.321 1.40723 7.054 0
M  V30 2356 C 218.347 0.742658 5.86718 0
M  V30 2357 C 217.709 1.46087 6.89085 0
M  V30 2358 H 213.808 -0.287946 0.727056 0
M  V30 2359 H 216.392 -0.11304 1.94372 0
M  V30 2360 H 214.563 -2.36009 3.08471 0
M  V30 2361 H 216.295 -2.30541 3.32615 0
M  V30 2362 H 213.05 -0.797006 4.66846 0
M  V30 2363 H 213.474 0.836716 6.7181 0
M  V30 2364 H 218.116 -0.586184 4.18717 0
M  V30 2365 H 215.834 1.95938 7.83986 0
M  V30 2366 H 219.42 0.805574 5.76196 0
M  V30 2367 H 218.3 2.06077 7.56639 0
M  V30 2368 N 215.803 -1.52179 -0.40978 0
M  V30 2369 C 217.031 -1.70054 -1.17853 0
M  V30 2370 C 217.446 -0.409735 -1.843 0
M  V30 2371 O 216.803 0.614183 -1.71855 0
M  V30 2372 C 216.854 -2.83568 -2.24213 0
M  V30 2373 O 216.575 -4.0765 -1.60478 0
M  V30 2374 C 218.076 -3.12947 -3.13973 0
M  V30 2375 H 215.296 -0.569917 -0.354169 0
M  V30 2376 H 217.84 -1.98734 -0.482198 0
M  V30 2377 H 215.995 -2.57409 -2.89516 0
M  V30 2378 H 216.409 -4.70899 -2.30986 0
M  V30 2379 H 217.883 -3.95889 -3.84677 0
M  V30 2380 H 218.36 -2.26472 -3.76307 0
M  V30 2381 H 218.966 -3.40868 -2.5434 0
M  V30 2382 N 217.281 0.66697 -1.42791 0
M  V30 2383 C 218.228 1.7803 -1.4688 0
M  V30 2384 C 219.198 1.6299 -0.319919 0
M  V30 2385 O 220.383 1.83432 -0.525118 0
M  V30 2386 C 217.523 3.1611 -1.38451 0
M  V30 2387 C 216.636 3.42381 -2.63437 0
M  V30 2388 C 215.771 4.70232 -2.47094 0
M  V30 2389 C 214.81 4.89564 -3.67415 0
M  V30 2390 N 213.947 6.08661 -3.49966 0
M  V30 2391 H 218.787 1.7387 -2.42019 0
M  V30 2392 H 216.324 0.84868 -1.20149 0
M  V30 2393 H 218.282 3.95914 -1.31561 0
M  V30 2394 H 216.912 3.19374 -0.469033 0
M  V30 2395 H 215.964 2.56774 -2.80662 0
M  V30 2396 H 217.276 3.52557 -3.52853 0
M  V30 2397 H 216.43 5.5814 -2.37834 0
M  V30 2398 H 215.169 4.62353 -1.5518 0
M  V30 2399 H 214.174 4.00096 -3.77099 0
M  V30 2400 H 215.399 4.99282 -4.6032 0
M  V30 2401 H 213.345 6.0194 -2.60776 0
M  V30 2402 H 213.262 6.19733 -4.32975 0
M  V30 2403 H 214.53 6.99226 -3.44532 0
M  V30 2404 N 218.759 1.29093 0.90403 0
M  V30 2405 C 220.006 1.16813 1.65411 0
M  V30 2406 C 220.334 -0.28128 1.92455 0
M  V30 2407 O 219.589 -1.22006 1.53013 0
M  V30 2408 C 219.888 1.92224 3.01305 0
M  V30 2409 C 219.554 3.41968 2.93885 0
M  V30 2410 C 218.216 3.82807 2.91569 0
M  V30 2411 C 220.568 4.37409 2.83413 0
M  V30 2412 C 217.896 5.1741 2.76594 0
M  V30 2413 C 220.248 5.72097 2.69977 0
M  V30 2414 C 218.912 6.12199 2.66024 0
M  V30 2415 H 218.182 0.42745 0.605283 0
M  V30 2416 H 220.829 1.59981 1.05254 0
M  V30 2417 H 219.134 1.41635 3.65304 0
M  V30 2418 H 220.831 1.80131 3.58265 0
M  V30 2419 H 217.421 3.09504 2.96488 0
M  V30 2420 H 221.605 4.06813 2.84283 0
M  V30 2421 H 216.861 5.47596 2.71935 0
M  V30 2422 H 221.035 6.45704 2.60844 0
M  V30 2423 H 218.662 7.16448 2.54178 0
M  V30 2424 N 220.237 -1.11381 1.11499 0
M  V30 2425 C 221.2 -2.15622 0.777153 0
M  V30 2426 C 222.2 -1.59504 -0.203779 0
M  V30 2427 O 223.39 -1.74188 0.020782 0
M  V30 2428 C 220.522 -3.40556 0.153116 0
M  V30 2429 H 221.715 -2.47021 1.70061 0
M  V30 2430 H 219.268 -1.26577 0.916952 0
M  V30 2431 H 220.003 -3.14767 -0.780536 0
M  V30 2432 H 219.788 -3.8257 0.859238 0
M  V30 2433 H 221.278 -4.17546 -0.0671044 0
M  V30 2434 N 221.715 -0.905404 -1.28997 0
M  V30 2435 C 223.131 -0.60233 -1.47798 0
M  V30 2436 C 223.331 0.854645 -1.82478 0
M  V30 2437 O 222.387 1.63439 -1.92468 0
M  V30 2438 C 223.7 -1.53306 -2.58685 0
M  V30 2439 C 225.248 -1.53887 -2.72558 0
M  V30 2440 C 225.723 -2.45602 -3.86579 0
M  V30 2441 N 227.214 -2.43681 -3.93921 0
M  V30 2442 C 227.949 -3.11347 -4.81509 0
M  V30 2443 N 227.445 -3.88313 -5.73746 0
M  V30 2444 N 229.238 -3.00476 -4.75048 0
M  V30 2445 H 221.389 -1.84765 -1.04764 0
M  V30 2446 H 223.652 -0.792025 -0.520961 0
M  V30 2447 H 223.358 -2.57141 -2.39941 0
M  V30 2448 H 223.232 -1.25787 -3.55609 0
M  V30 2449 H 225.619 -0.507941 -2.90696 0
M  V30 2450 H 225.7 -1.85447 -1.76191 0
M  V30 2451 H 225.344 -3.48792 -3.69197 0
M  V30 2452 H 225.274 -2.11349 -4.82327 0
M  V30 2453 H 227.765 -1.87767 -3.27951 0
M  V30 2454 H 228.078 -4.36985 -6.37389 0
M  V30 2455 H 226.423 -3.92419 -5.73614 0
M  V30 2456 H 229.614 -2.39858 -4.01977 0
M  V30 2457 H 229.787 -3.53485 -5.43095 0
M  V30 2458 N 223.193 1.4272 -0.668489 0
M  V30 2459 C 224.123 2.335 -0.000100175 0
M  V30 2460 C 225.104 1.50328 0.795964 0
M  V30 2461 O 226.289 1.78949 0.754385 0
M  V30 2462 C 223.419 3.33874 0.956302 0
M  V30 2463 C 222.373 4.27152 0.269278 0
M  V30 2464 C 221.699 5.17684 1.33818 0
M  V30 2465 C 222.999 5.15373 -0.847805 0
M  V30 2466 H 224.693 2.89639 -0.758244 0
M  V30 2467 H 222.239 1.39269 -0.366079 0
M  V30 2468 H 224.192 3.9629 1.43292 0
M  V30 2469 H 222.916 2.76025 1.74579 0
M  V30 2470 H 221.575 3.66123 -0.187042 0
M  V30 2471 H 221.223 4.56165 2.1195 0
M  V30 2472 H 220.923 5.80918 0.883659 0
M  V30 2473 H 222.447 5.82974 1.81586 0
M  V30 2474 H 223.861 5.7151 -0.452681 0
M  V30 2475 H 222.258 5.87407 -1.22773 0
M  V30 2476 H 223.328 4.5415 -1.69929 0
M  V30 2477 N 224.671 0.411399 1.52136 0
M  V30 2478 C 225.899 -0.163076 2.06256 0
M  V30 2479 C 226.314 -1.3867 1.28125 0
M  V30 2480 O 225.671 -1.79423 0.333721 0
M  V30 2481 C 225.722 -0.511252 3.57867 0
M  V30 2482 O 225.443 0.66378 4.33042 0
M  V30 2483 C 226.944 -1.13921 4.28412 0
M  V30 2484 H 224.164 -0.0193897 0.67072 0
M  V30 2485 H 226.708 0.583007 1.96013 0
M  V30 2486 H 224.863 -1.20723 3.6811 0
M  V30 2487 H 225.277 0.372601 5.23175 0
M  V30 2488 H 226.751 -1.33302 5.35663 0
M  V30 2489 H 227.228 -2.11296 3.85033 0
M  V30 2490 H 227.834 -0.483373 4.22544 0
M  V30 2491 N 226.149 -1.5696 0.141893 0
M  V30 2492 C 227.565 -1.58151 -0.21456 0
M  V30 2493 C 227.765 -1.1559 -1.65049 0
M  V30 2494 O 226.821 -0.853832 -2.37626 0
M  V30 2495 C 228.134 -3.00674 0.0395576 0
M  V30 2496 C 229.682 -3.1299 -0.0245529 0
M  V30 2497 C 230.157 -4.57554 0.202167 0
M  V30 2498 N 231.648 -4.62961 0.148919 0
M  V30 2499 C 232.383 -5.7262 0.298924 0
M  V30 2500 N 231.879 -6.90947 0.50637 0
M  V30 2501 N 233.672 -5.61601 0.236886 0
M  V30 2502 H 225.823 -1.8292 1.07953 0
M  V30 2503 H 228.086 -0.846425 0.42693 0
M  V30 2504 H 227.792 -3.36183 1.03315 0
M  V30 2505 H 227.666 -3.70981 -0.682143 0
M  V30 2506 H 230.053 -2.77326 -1.00869 0
M  V30 2507 H 230.134 -2.4518 0.729396 0
M  V30 2508 H 229.778 -4.93922 1.18338 0
M  V30 2509 H 229.708 -5.23484 -0.572044 0
M  V30 2510 H 232.199 -3.77899 -0.00697015 0
M  V30 2511 H 232.512 -7.7038 0.611076 0
M  V30 2512 H 230.857 -6.92878 0.542628 0
M  V30 2513 H 234.048 -4.68039 0.0756209 0
M  V30 2514 H 234.221 -6.47015 0.357227 0
M  V30 2515 N 227.627 0.131896 -1.57047 0
M  V30 2516 C 228.59 1.14638 -1.98471 0
M  V30 2517 C 229.59 1.35029 -0.873148 0
M  V30 2518 O 230.78 1.31764 -1.13946 0
M  V30 2519 C 227.912 2.50358 -2.31373 0
M  V30 2520 H 229.105 0.79064 -2.8929 0
M  V30 2521 H 226.658 0.375761 -1.51716 0
M  V30 2522 H 227.393 2.90876 -1.43393 0
M  V30 2523 H 227.178 2.36915 -3.12432 0
M  V30 2524 H 228.668 3.23395 -2.64207 0
M  V30 2525 N 229.106 1.52395 0.401703 0
M  V30 2526 C 230.036 1.79231 1.49661 0
M  V30 2527 C 231.017 0.643654 1.57452 0
M  V30 2528 O 232.202 0.889989 1.72606 0
M  V30 2529 C 229.332 1.94971 2.87409 0
M  V30 2530 C 228.286 3.10604 2.94465 0
M  V30 2531 C 227.612 3.11577 4.34538 0
M  V30 2532 C 228.912 4.49921 2.6527 0
M  V30 2533 H 230.606 2.70917 1.27454 0
M  V30 2534 H 228.152 1.30362 0.6117 0
M  V30 2535 H 230.105 2.12328 3.63999 0
M  V30 2536 H 228.829 0.999632 3.10926 0
M  V30 2537 H 227.488 2.93009 2.20321 0
M  V30 2538 H 227.136 2.14277 4.55076 0
M  V30 2539 H 226.836 3.89247 4.40183 0
M  V30 2540 H 228.36 3.31073 5.13053 0
M  V30 2541 H 229.774 4.67683 3.31581 0
M  V30 2542 H 228.171 5.29564 2.82281 0
M  V30 2543 H 229.241 4.57507 1.60671 0
M  V30 2544 N 230.584 -0.659388 1.43143 0
M  V30 2545 C 231.812 -1.44723 1.47861 0
M  V30 2546 C 232.227 -1.88563 0.0945886 0
M  V30 2547 O 231.584 -1.59108 -0.893915 0
M  V30 2548 C 231.635 -2.68627 2.41913 0
M  V30 2549 O 231.356 -2.26623 3.74932 0
M  V30 2550 C 232.857 -3.62045 2.55809 0
M  V30 2551 H 230.077 -0.444801 0.502387 0
M  V30 2552 H 232.621 -0.808916 1.87821 0
M  V30 2553 H 230.776 -3.28613 2.05164 0
M  V30 2554 H 231.19 -3.06745 4.2545 0
M  V30 2555 H 232.664 -4.45666 3.25708 0
M  V30 2556 H 233.141 -4.08981 1.60099 0
M  V30 2557 H 233.747 -3.07944 2.93344 0
M  V30 2558 N 232.062 -1.29571 -0.897171 0
M  V30 2559 C 233.01 -1.14802 -2.02295 0
M  V30 2560 C 234.004 -0.0629637 -1.69283 0
M  V30 2561 O 235.21 -0.222945 -1.78614 0
M  V30 2562 H 231.585 -0.354692 -0.663097 0
M  V30 2563 H 233.556 -2.10108 -2.11889 0
M  V30 2564 C 232.305 -0.843966 -3.37302 0
M  V30 2565 H 231.628 -1.67093 -3.63208 0
M  V30 2566 H 233.068 -0.780672 -4.16751 0
M  V30 2567 C 231.527 0.452843 -3.33843 0
M  V30 2568 O 232.057 1.47813 -3.73516 0
M  V30 2569 N 230.263 0.459601 -2.86943 0
M  V30 2570 H 229.81 -0.375213 -2.54853 0
M  V30 2571 H 229.768 1.32726 -2.85011 0
M  V30 2572 N 233.54 1.10788 -1.12088 0
M  V30 2573 C 234.765 1.87002 -0.896949 0
M  V30 2574 C 235.19 1.79933 0.548261 0
M  V30 2575 O 234.548 1.16662 1.38779 0
M  V30 2576 C 234.596 3.3349 -1.37174 0
M  V30 2577 O 233.7 4.08745 -0.547831 0
M  V30 2578 H 233.041 0.580397 -0.322545 0
M  V30 2579 H 235.571 1.39996 -1.49206 0
M  V30 2580 H 235.581 3.84339 -1.36922 0
M  V30 2581 H 234.256 3.37951 -2.42408 0
M  V30 2582 H 232.833 3.6776 -0.617034 0
M  V30 2583 N 235.018 0.912232 1.28515 0
M  V30 2584 C 236.434 0.610159 1.47476 0
M  V30 2585 C 236.634 -0.844955 1.82928 0
M  V30 2586 O 235.69 -1.62416 1.93332 0
M  V30 2587 C 237.003 1.54675 2.57868 0
M  V30 2588 C 238.551 1.55331 2.71738 0
M  V30 2589 C 239.026 2.47649 3.85272 0
M  V30 2590 N 240.517 2.45767 3.92623 0
M  V30 2591 C 241.252 3.13896 4.79851 0
M  V30 2592 N 240.748 3.9135 5.71679 0
M  V30 2593 N 242.541 3.02991 4.73448 0
M  V30 2594 H 234.692 1.85318 1.03783 0
M  V30 2595 H 236.955 0.794777 0.516753 0
M  V30 2596 H 236.661 2.5841 2.38574 0
M  V30 2597 H 236.535 1.27671 3.54937 0
M  V30 2598 H 238.922 0.52335 2.90422 0
M  V30 2599 H 239.003 1.86378 1.75205 0
M  V30 2600 H 238.647 3.50745 3.67342 0
M  V30 2601 H 238.577 2.13904 4.81199 0
M  V30 2602 H 241.068 1.89503 3.26951 0
M  V30 2603 H 241.381 4.40359 6.35062 0
M  V30 2604 H 239.726 3.95455 5.71524 0
M  V30 2605 H 242.917 2.41987 4.007 0
M  V30 2606 H 243.09 3.5636 5.41213 0
M  V30 2607 N 236.496 -1.42363 0.676048 0
M  V30 2608 C 237.721 -2.06377 0.205705 0
M  V30 2609 C 238.146 -1.50463 -1.12883 0
M  V30 2610 O 237.504 -0.623619 -1.70237 0
M  V30 2611 C 237.552 -3.60277 0.152655 0
M  V30 2612 O 236.656 -4.02935 -0.87845 0
M  V30 2613 H 235.997 -0.655588 0.105359 0
M  V30 2614 H 238.527 -1.82475 0.925412 0
M  V30 2615 H 238.537 -4.07993 -0.0230675 0
M  V30 2616 H 237.212 -4.00346 1.12675 0
M  V30 2617 H 235.789 -3.66764 -0.673668 0
M  V30 2618 N 237.974 -0.419461 -1.51915 0
M  V30 2619 C 239.22 0.153166 -2.02221 0
M  V30 2620 C 239.553 1.43907 -1.30401 0
M  V30 2621 O 238.828 1.90055 -0.413438 0
M  V30 2622 C 239.111 0.390291 -3.57979 0
M  V30 2623 C 238.964 -0.913014 -4.40436 0
M  V30 2624 C 240.283 1.16794 -4.2432 0
M  V30 2625 H 237.402 0.0541924 -0.735005 0
M  V30 2626 H 240.044 -0.554955 -1.81715 0
M  V30 2627 H 238.194 0.993491 -3.75582 0
M  V30 2628 H 239.866 -1.54882 -4.34522 0
M  V30 2629 H 238.109 -1.52168 -4.06236 0
M  V30 2630 H 238.78 -0.701361 -5.47526 0
M  V30 2631 H 241.256 0.657161 -4.10878 0
M  V30 2632 H 240.132 1.3026 -5.3322 0
M  V30 2633 H 240.393 2.19132 -3.83971 0
M  V30 2634 N 239.452 1.56882 -0.150215 0
M  V30 2635 C 240.382 2.19935 0.784284 0
M  V30 2636 C 241.363 1.14854 1.25469 0
M  V30 2637 O 242.548 1.43209 1.31168 0
M  V30 2638 C 239.678 2.82349 2.02229 0
M  V30 2639 C 238.632 3.93285 1.68853 0
M  V30 2640 C 237.958 4.42649 2.99944 0
M  V30 2641 C 239.258 5.13904 0.932714 0
M  V30 2642 H 240.952 2.9828 0.258781 0
M  V30 2643 H 238.498 1.43473 0.123029 0
M  V30 2644 H 240.451 3.25126 2.68088 0
M  V30 2645 H 239.175 2.0134 2.57157 0
M  V30 2646 H 237.834 3.5113 1.05371 0
M  V30 2647 H 237.482 3.58458 3.52869 0
M  V30 2648 H 237.182 5.17476 2.78374 0
M  V30 2649 H 238.706 4.88099 3.66868 0
M  V30 2650 H 240.12 5.53506 1.49345 0
M  V30 2651 H 238.517 5.94515 0.81684 0
M  V30 2652 H 239.587 4.84842 -0.0749568 0
M  V30 2653 N 240.93 -0.123565 1.57115 0
M  V30 2654 C 241.862 -1.17739 1.96648 0
M  V30 2655 C 242.875 -1.37906 0.865201 0
M  V30 2656 O 244.064 -1.37062 1.14351 0
M  V30 2657 C 241.164 -2.53821 2.24562 0
M  V30 2658 C 240.337 -2.54317 3.55867 0
M  V30 2659 C 239.396 -3.72112 3.72047 0
M  V30 2660 O 238.422 -3.55907 4.44206 0
M  V30 2661 N 239.624 -4.90498 3.10471 0
M  V30 2662 H 242.389 -0.841147 2.87654 0
M  V30 2663 H 239.95 -0.31289 1.58848 0
M  V30 2664 H 241.942 -3.31175 2.32606 0
M  V30 2665 H 240.512 -2.79645 1.39705 0
M  V30 2666 H 239.732 -1.62711 3.59053 0
M  V30 2667 H 241.02 -2.51701 4.42181 0
M  V30 2668 H 240.418 -5.06567 2.51806 0
M  V30 2669 H 238.975 -5.65544 3.24043 0
M  V30 2670 N 242.408 -1.52605 -0.393616 0
M  V30 2671 C 243.34 -1.73303 -1.49995 0
M  V30 2672 C 244.353 -0.613473 -1.50799 0
M  V30 2673 O 245.542 -0.889049 -1.54784 0
M  V30 2674 C 242.642 -1.77245 -2.88855 0
M  V30 2675 C 241.815 -3.06483 -3.12069 0
M  V30 2676 C 240.874 -3.02033 -4.30886 0
M  V30 2677 O 239.9 -3.75907 -4.27414 0
M  V30 2678 N 241.102 -2.20897 -5.36828 0
M  V30 2679 H 243.867 -2.68756 -1.32629 0
M  V30 2680 H 241.428 -1.51036 -0.583083 0
M  V30 2681 H 243.42 -1.7178 -3.66434 0
M  V30 2682 H 241.99 -0.891993 -2.99603 0
M  V30 2683 H 241.21 -3.25474 -2.22396 0
M  V30 2684 H 242.498 -3.91947 -3.2443 0
M  V30 2685 H 241.896 -1.60336 -5.42502 0
M  V30 2686 H 240.453 -2.21275 -6.13091 0
M  V30 2687 N 243.887 0.651787 -1.4349 0
M  V30 2688 C 244.817 1.77621 -1.51569 0
M  V30 2689 C 245.798 1.66022 -0.370253 0
M  V30 2690 O 246.983 1.85095 -0.587658 0
M  V30 2691 C 244.113 3.16056 -1.43966 0
M  V30 2692 C 243.067 3.4242 -2.56774 0
M  V30 2693 C 242.393 4.8067 -2.34223 0
M  V30 2694 C 243.693 3.37023 -3.99015 0
M  V30 2695 H 245.387 1.71117 -2.45681 0
M  V30 2696 H 242.933 0.821825 -1.18246 0
M  V30 2697 H 244.886 3.94472 -1.48221 0
M  V30 2698 H 243.61 3.23293 -0.463586 0
M  V30 2699 H 242.269 2.66375 -2.51873 0
M  V30 2700 H 241.917 4.84585 -1.34856 0
M  V30 2701 H 241.617 4.9927 -3.09844 0
M  V30 2702 H 243.141 5.61342 -2.40265 0
M  V30 2703 H 244.555 4.05374 -4.05395 0
M  V30 2704 H 242.952 3.67159 -4.74673 0
M  V30 2705 H 244.022 2.3518 -4.2405 0
M  V30 2706 N 245.365 1.30045 0.890287 0
M  V30 2707 C 246.593 1.21472 1.67487 0
M  V30 2708 C 247.008 -0.223241 1.87476 0
M  V30 2709 O 246.365 -1.14828 1.41847 0
M  V30 2710 C 246.416 1.93394 3.05419 0
M  V30 2711 O 246.137 3.31576 2.86337 0
M  V30 2712 C 247.638 1.91414 3.99844 0
M  V30 2713 H 244.858 0.420604 0.522813 0
M  V30 2714 H 247.402 1.7158 1.11268 0
M  V30 2715 H 245.557 1.47099 3.58386 0
M  V30 2716 H 245.971 3.67929 3.73802 0
M  V30 2717 H 247.445 2.46285 4.94012 0
M  V30 2718 H 247.922 0.891833 4.3005 0
M  V30 2719 H 248.528 2.37496 3.52811 0
M  V30 2720 N 246.843 -1.10192 1.12674 0
M  V30 2721 C 248.254 -1.63707 0.897604 0
M  V30 2722 C 248.605 -1.87812 -0.567546 0
M  V30 2723 O 247.73 -1.62196 -1.43253 0
M  V30 2724 C 248.325 -2.974 1.62292 0
M  V30 2725 C 246.884 -3.47772 1.43986 0
M  V30 2726 C 246.031 -2.22332 1.65722 0
M  V30 2727 H 248.982 -0.936587 1.28116 0
M  V30 2728 H 249.003 -3.64986 1.07541 0
M  V30 2729 H 248.515 -2.79824 2.68924 0
M  V30 2730 H 246.616 -3.70487 0.396206 0
M  V30 2731 H 246.729 -4.25723 2.19765 0
M  V30 2732 H 245.093 -2.30599 1.08149 0
M  V30 2733 H 245.876 -2.07285 2.73657 0
M  V30 2734 N 248.321 -0.919034 -1.28029 0
M  V30 2735 C 249.254 -0.355887 -2.25408 0
M  V30 2736 C 250.232 0.542874 -1.5327 0
M  V30 2737 O 251.416 0.485338 -1.82145 0
M  V30 2738 C 248.543 0.490759 -3.35126 0
M  V30 2739 C 247.589 -0.343358 -4.25116 0
M  V30 2740 S 248.422 -1.75344 -5.05979 0
M  V30 2741 C 249.578 -0.914244 -6.19187 0
M  V30 2742 H 249.811 -1.18123 -2.72826 0
M  V30 2743 H 247.344 -0.720636 -1.36551 0
M  V30 2744 H 249.302 0.973404 -3.98792 0
M  V30 2745 H 247.963 1.29054 -2.86363 0
M  V30 2746 H 247.156 0.304266 -5.03081 0
M  V30 2747 H 246.758 -0.759851 -3.662 0
M  V30 2748 H 249.05 -0.146282 -6.77342 0
M  V30 2749 H 249.993 -1.66661 -6.88208 0
M  V30 2750 H 250.401 -0.460082 -5.62622 0
M  V30 2751 N 249.799 1.42003 -0.683588 0
M  V30 2752 C 250.747 2.326 0.000815408 0
M  V30 2753 C 251.741 1.50308 0.781278 0
M  V30 2754 O 252.947 1.66322 0.688251 0
M  V30 2755 H 249.322 0.751758 0.0190616 0
M  V30 2756 H 251.293 2.88011 -0.780528 0
M  V30 2757 C 250.042 3.34978 0.93195 0
M  V30 2758 H 249.365 3.98345 0.340817 0
M  V30 2759 H 250.805 4.00936 1.37936 0
M  V30 2760 C 249.264 2.67925 2.04249 0
M  V30 2761 O 249.794 2.51788 3.12995 0
M  V30 2762 N 248 2.2681 1.81675 0
M  V30 2763 H 247.547 2.40135 0.932363 0
M  V30 2764 H 247.505 1.8228 2.56167 0
M  V30 2765 N 251.277 0.427512 1.51691 0
M  V30 2766 C 252.224 -0.388867 2.275 0
M  V30 2767 C 253.194 -1.02532 1.30677 0
M  V30 2768 O 254.379 -1.0461 1.59566 0
M  V30 2769 C 251.519 -1.48954 3.11298 0
M  V30 2770 C 250.632 -0.872194 4.23104 0
M  V30 2771 C 249.767 -1.94709 4.94228 0
M  V30 2772 C 248.806 -1.30766 5.97969 0
M  V30 2773 N 247.943 -2.32349 6.62539 0
M  V30 2774 H 252.783 0.263997 2.96828 0
M  V30 2775 H 250.32 0.142033 1.46413 0
M  V30 2776 H 252.278 -2.13887 3.58201 0
M  V30 2777 H 250.908 -2.11217 2.44105 0
M  V30 2778 H 249.96 -0.111419 3.80237 0
M  V30 2779 H 251.272 -0.365264 4.97461 0
M  V30 2780 H 250.426 -2.67327 5.44629 0
M  V30 2781 H 249.165 -2.48773 4.1948 0
M  V30 2782 H 248.17 -0.566902 5.4687 0
M  V30 2783 H 249.395 -0.774483 6.74669 0
M  V30 2784 H 247.341 -2.85511 5.90609 0
M  V30 2785 H 247.258 -1.8652 7.3263 0
M  V30 2786 H 248.526 -3.04481 7.17574 0
M  V30 2787 N 252.755 -1.56801 0.158532 0
M  V30 2788 C 253.983 -2.00859 -0.496303 0
M  V30 2789 C 254.398 -1.03871 -1.57659 0
M  V30 2790 O 253.755 -0.0375165 -1.82461 0
M  V30 2791 C 253.806 -3.4479 -1.08638 0
M  V30 2792 O 253.527 -4.38072 -0.0492322 0
M  V30 2793 C 255.028 -4.04185 -1.8207 0
M  V30 2794 H 252.248 -0.65864 -0.128199 0
M  V30 2795 H 254.792 -2.02885 0.256506 0
M  V30 2796 H 252.947 -3.43579 -1.78975 0
M  V30 2797 H 253.361 -5.2227 -0.483102 0
M  V30 2798 H 254.835 -5.06857 -2.18633 0
M  V30 2799 H 255.312 -3.45549 -2.71095 0
M  V30 2800 H 255.918 -4.0906 -1.16405 0
M  V30 2801 N 254.233 0.115231 -1.57178 0
M  V30 2802 C 255.143 1.15994 -2.03918 0
M  V30 2803 C 256.159 1.45103 -0.960268 0
M  V30 2804 O 257.335 1.56144 -1.27204 0
M  V30 2805 C 254.4 2.46568 -2.43732 0
M  V30 2806 C 253.461 2.24822 -3.65723 0
M  V30 2807 C 252.694 3.4917 -4.03629 0
M  V30 2808 O 252.917 4.56623 -3.41835 0
M  V30 2809 O 251.851 3.39949 -4.96708 0
M  V30 2810 H 255.677 0.793019 -2.93164 0
M  V30 2811 H 253.262 0.3263 -1.45793 0
M  V30 2812 H 255.144 3.23492 -2.70057 0
M  V30 2813 H 253.819 2.82726 -1.57631 0
M  V30 2814 H 252.726 1.45744 -3.44542 0
M  V30 2815 H 254.059 1.93566 -4.52541 0
M  V30 2816 N 255.711 1.52812 0.385517 0
M  V30 2817 C 256.957 1.68275 1.13188 0
M  V30 2818 C 257.29 0.423179 1.89533 0
M  V30 2819 O 256.565 -0.579113 1.85679 0
M  V30 2820 C 256.848 2.92001 2.1073 0
M  V30 2821 C 256.701 4.28067 1.38125 0
M  V30 2822 C 258.02 3.11283 3.11113 0
M  V30 2823 H 255.139 0.612352 0.410115 0
M  V30 2824 H 257.781 1.85415 0.414869 0
M  V30 2825 H 255.931 2.77519 2.71874 0
M  V30 2826 H 257.603 4.54324 0.799187 0
M  V30 2827 H 255.846 4.28388 0.683092 0
M  V30 2828 H 256.517 5.10733 2.09417 0
M  V30 2829 H 258.993 3.2482 2.6006 0
M  V30 2830 H 257.869 3.99325 3.76605 0
M  V30 2831 H 258.13 2.25656 3.80173 0
M  V30 2832 N 257.189 -0.644168 1.43834 0
M  V30 2833 C 258.435 -1.40603 1.46146 0
M  V30 2834 C 258.768 -1.93997 0.0887717 0
M  V30 2835 O 258.043 -1.72854 -0.891724 0
M  V30 2836 C 258.326 -2.58086 2.51124 0
M  V30 2837 C 258.179 -2.10126 3.97702 0
M  V30 2838 C 259.498 -3.60291 2.52742 0
M  V30 2839 H 256.617 -0.509905 0.532134 0
M  V30 2840 H 259.259 -0.729502 1.75437 0
M  V30 2841 H 257.409 -3.15801 2.26278 0
M  V30 2842 H 259.081 -1.57342 4.33637 0
M  V30 2843 H 257.324 -1.41419 4.10101 0
M  V30 2844 H 257.995 -2.94649 4.66783 0
M  V30 2845 H 260.471 -3.12352 2.7491 0
M  V30 2846 H 259.347 -4.40032 3.28121 0
M  V30 2847 H 259.608 -4.1349 1.56455 0
M  V30 2848 N 258.668 -1.30515 -0.883378 0
M  V30 2849 C 259.618 -1.13641 -1.9766 0
M  V30 2850 C 260.602 -0.0511314 -1.60819 0
M  V30 2851 O 261.794 -0.274623 -1.74857 0
M  V30 2852 C 258.923 -0.831976 -3.33066 0
M  V30 2853 C 258.009 -1.95759 -3.76217 0
M  V30 2854 N 258.4 -3.20313 -3.9145 0
M  V30 2855 C 256.698 -1.85431 -4.05625 0
M  V30 2856 C 257.399 -3.93856 -4.2808 0
M  V30 2857 N 256.375 -3.21919 -4.38029 0
M  V30 2858 H 260.177 -2.08106 -2.07531 0
M  V30 2859 H 257.691 -1.21877 -1.0733 0
M  V30 2860 H 259.688 -0.692102 -4.11115 0
M  V30 2861 H 258.348 0.104588 -3.24532 0
M  V30 2862 H 259.359 -3.55583 -3.76538 0
M  V30 2863 H 256.036 -0.991531 -4.05555 0
M  V30 2864 H 257.426 -5.01125 -4.47575 0
M  V30 2865 N 260.146 1.09593 -1.13257 0
M  V30 2866 C 261.093 2.1618 -0.808381 0
M  V30 2867 C 262.063 1.64517 0.228754 0
M  V30 2868 O 263.248 1.9053 0.101381 0
M  V30 2869 C 260.388 3.43973 -0.278675 0
M  V30 2870 C 259.501 4.09545 -1.37466 0
M  V30 2871 C 258.636 5.25088 -0.803479 0
M  V30 2872 C 257.675 5.82579 -1.87799 0
M  V30 2873 N 256.812 6.89486 -1.32488 0
M  V30 2874 H 261.652 2.43254 -1.72138 0
M  V30 2875 H 259.189 1.19392 -0.859294 0
M  V30 2876 H 261.147 4.17174 0.0465583 0
M  V30 2877 H 259.777 3.17223 0.597459 0
M  V30 2878 H 258.829 3.34226 -1.81652 0
M  V30 2879 H 260.141 4.48307 -2.18684 0
M  V30 2880 H 259.295 6.05178 -0.429427 0
M  V30 2881 H 258.034 4.87684 0.0397956 0
M  V30 2882 H 257.039 5.01152 -2.26113 0
M  V30 2883 H 258.264 6.22045 -2.72463 0
M  V30 2884 H 256.21 6.54064 -0.503575 0
M  V30 2885 H 256.127 7.27007 -2.07355 0
M  V30 2886 H 257.395 7.73336 -0.978336 0
M  V30 2887 N 261.624 0.925811 1.2754 0
M  V30 2888 C 262.574 0.394488 2.24561 0
M  V30 2889 C 263.558 -0.500183 1.52928 0
M  V30 2890 O 264.75 -0.337936 1.73744 0
M  V30 2891 C 261.879 -0.353328 3.41477 0
M  V30 2892 C 260.965 0.557752 4.20416 0
M  V30 2893 N 261.356 1.67674 4.77199 0
M  V30 2894 C 259.654 0.360404 4.44541 0
M  V30 2895 C 260.355 2.24324 5.36706 0
M  V30 2896 N 259.331 1.53305 5.21535 0
M  V30 2897 H 263.133 1.2489 2.66045 0
M  V30 2898 H 260.647 0.779864 1.4245 0
M  V30 2899 H 262.644 -0.7509 4.10082 0
M  V30 2900 H 261.304 -1.20469 3.01525 0
M  V30 2901 H 262.315 2.05915 4.75204 0
M  V30 2902 H 258.992 -0.450454 4.15063 0
M  V30 2903 H 260.382 3.18521 5.91603 0
M  V30 2904 N 263.102 -1.41638 0.69111 0
M  V30 2905 C 264.327 -2.06148 0.227583 0
M  V30 2906 C 264.752 -1.51652 -1.11281 0
M  V30 2907 O 264.11 -0.64164 -1.69566 0
M  V30 2908 C 264.158 -3.60095 0.190858 0
M  V30 2909 O 263.262 -4.03845 -0.835664 0
M  V30 2910 H 262.603 -0.654434 0.112306 0
M  V30 2911 H 265.133 -1.81484 0.944714 0
M  V30 2912 H 265.143 -4.07995 0.020207 0
M  V30 2913 H 263.818 -3.99129 1.16915 0
M  V30 2914 H 262.395 -3.67458 -0.63473 0
M  V30 2915 N 264.58 -0.43555 -1.51462 0
M  V30 2916 C 265.996 -0.0877501 -1.59359 0
M  V30 2917 C 266.196 1.4027 -1.4466 0
M  V30 2918 O 265.252 2.17243 -1.28693 0
M  V30 2919 C 266.565 -0.606264 -2.94525 0
M  V30 2920 C 268.113 -0.566548 -3.0783 0
M  V30 2921 C 268.588 -1.06201 -4.45517 0
M  V30 2922 N 270.079 -1.01992 -4.51832 0
M  V30 2923 C 270.814 -1.37417 -5.5669 0
M  V30 2924 N 270.31 -1.80119 -6.68976 0
M  V30 2925 N 272.103 -1.29245 -5.47039 0
M  V30 2926 H 264.254 -1.40533 -1.59261 0
M  V30 2927 H 266.517 -0.578992 -0.750648 0
M  V30 2928 H 266.223 -1.64901 -3.10645 0
M  V30 2929 H 266.097 -0.0302097 -3.77188 0
M  V30 2930 H 268.484 0.467208 -2.91378 0
M  V30 2931 H 268.565 -1.17898 -2.2701 0
M  V30 2932 H 268.209 -2.09422 -4.62715 0
M  V30 2933 H 268.139 -0.426127 -5.24873 0
M  V30 2934 H 270.63 -0.706308 -3.71241 0
M  V30 2935 H 270.943 -2.05392 -7.45006 0
M  V30 2936 H 269.288 -1.84044 -6.70189 0
M  V30 2937 H 272.479 -0.957522 -4.58202 0
M  V30 2938 H 272.652 -1.57182 -6.28648 0
M  V30 2939 N 266.058 1.56714 -0.166846 0
M  V30 2940 C 266.988 2.20754 0.760913 0
M  V30 2941 C 267.969 1.16178 1.24244 0
M  V30 2942 O 269.154 1.44592 1.29641 0
M  V30 2943 C 266.284 2.84478 1.99223 0
M  V30 2944 C 265.238 3.95053 1.64672 0
M  V30 2945 C 264.564 4.45805 2.95232 0
M  V30 2946 C 265.864 5.14865 0.878155 0
M  V30 2947 H 267.558 2.98537 0.22713 0
M  V30 2948 H 265.104 1.43596 0.107805 0
M  V30 2949 H 267.057 3.27951 2.64624 0
M  V30 2950 H 265.781 2.04056 2.55007 0
M  V30 2951 H 264.44 3.52228 1.01641 0
M  V30 2952 H 264.088 3.62181 3.49047 0
M  V30 2953 H 263.788 5.204 2.7287 0
M  V30 2954 H 265.312 4.91962 3.6167 0
M  V30 2955 H 266.726 5.55059 1.43466 0
M  V30 2956 H 265.123 5.95348 0.753738 0
M  V30 2957 H 266.193 4.84735 -0.126377 0
M  V30 2958 N 267.536 -0.106894 1.57237 0
M  V30 2959 C 268.499 -1.11466 2.0027 0
M  V30 2960 C 269.499 -1.33623 0.894519 0
M  V30 2961 O 270.689 -1.29935 1.16028 0
M  V30 2962 C 267.821 -2.46646 2.35327 0
M  V30 2963 H 269.014 -0.744516 2.90512 0
M  V30 2964 H 266.567 -0.351576 1.52295 0
M  V30 2965 H 267.302 -2.88558 1.48003 0
M  V30 2966 H 267.087 -2.31915 3.16161 0
M  V30 2967 H 268.577 -3.19151 2.69318 0
M  V30 2968 N 269.014 -1.53014 -0.377408 0
M  V30 2969 C 269.924 -1.81557 -1.48574 0
M  V30 2970 C 270.94 -0.703102 -1.59162 0
M  V30 2971 O 272.116 -0.99192 -1.75279 0
M  V30 2972 C 269.181 -1.9889 -2.83978 0
M  V30 2973 C 268.242 -3.22801 -2.83016 0
M  V30 2974 C 267.475 -3.39298 -4.11962 0
M  V30 2975 O 267.698 -2.60345 -5.0752 0
M  V30 2976 O 266.632 -4.32604 -4.18494 0
M  V30 2977 H 270.458 -2.75695 -1.27382 0
M  V30 2978 H 268.043 -1.38248 -0.566373 0
M  V30 2979 H 269.925 -2.11931 -3.6423 0
M  V30 2980 H 268.6 -1.07942 -3.05172 0
M  V30 2981 H 267.507 -3.15193 -2.01505 0
M  V30 2982 H 268.84 -4.13632 -2.66775 0
M  V30 2983 N 270.492 0.636531 -1.44174 0
M  V30 2984 C 271.738 1.39826 -1.4689 0
M  V30 2985 C 272.071 1.93947 -0.0990585 0
M  V30 2986 O 271.346 1.73325 0.882544 0
M  V30 2987 C 271.629 2.56751 -2.5249 0
M  V30 2988 C 271.482 2.08014 -3.98811 0
M  V30 2989 C 272.801 3.58946 -2.54649 0
M  V30 2990 H 269.92 0.507075 -0.53483 0
M  V30 2991 H 272.562 0.720188 -1.75822 0
M  V30 2992 H 270.712 3.14597 -2.2795 0
M  V30 2993 H 272.384 1.5504 -4.34466 0
M  V30 2994 H 270.627 1.39242 -4.10846 0
M  V30 2995 H 271.298 2.92169 -4.68339 0
M  V30 2996 H 273.774 3.1089 -2.76563 0
M  V30 2997 H 272.65 4.38286 -3.3045 0
M  V30 2998 H 272.911 4.12655 -1.58646 0
M  V30 2999 N 271.97 1.30982 0.876444 0
M  V30 3000 C 272.9 1.20668 1.99903 0
M  V30 3001 C 273.881 0.095354 1.69833 0
M  V30 3002 O 275.066 0.27885 1.92188 0
M  V30 3003 C 272.196 0.90655 3.3526 0
M  V30 3004 C 271.15 1.97675 3.79617 0
M  V30 3005 C 270.476 1.52943 5.1236 0
M  V30 3006 C 271.776 3.389 3.97422 0
M  V30 3007 H 273.47 2.14586 2.0879 0
M  V30 3008 H 271.016 1.03308 1.00317 0
M  V30 3009 H 272.969 0.821025 4.13324 0
M  V30 3010 H 271.693 -0.0682969 3.26529 0
M  V30 3011 H 270.352 2.05205 3.03787 0
M  V30 3012 H 270 0.54262 5.00065 0
M  V30 3013 H 269.7 2.24532 5.43009 0
M  V30 3014 H 271.224 1.45786 5.92941 0
M  V30 3015 H 272.638 3.34081 4.659 0
M  V30 3016 H 271.035 4.0865 4.3946 0
M  V30 3017 H 272.105 3.80163 3.01006 0
M  V30 3018 N 273.449 -1.08991 1.13837 0
M  V30 3019 C 274.381 -2.15606 0.777612 0
M  V30 3020 C 275.394 -1.61533 -0.202739 0
M  V30 3021 O 276.583 -1.78491 0.0181055 0
M  V30 3022 C 273.683 -3.3864 0.132623 0
M  V30 3023 C 272.856 -4.22115 1.1462 0
M  V30 3024 C 271.915 -5.23564 0.526074 0
M  V30 3025 O 270.941 -5.56678 1.18735 0
M  V30 3026 N 272.143 -5.76266 -0.699866 0
M  V30 3027 H 274.908 -2.47159 1.69506 0
M  V30 3028 H 272.469 -1.24747 1.03198 0
M  V30 3029 H 274.461 -4.03626 -0.29459 0
M  V30 3030 H 273.031 -3.04938 -0.687849 0
M  V30 3031 H 272.251 -3.53199 1.75055 0
M  V30 3032 H 273.539 -4.74709 1.83109 0
M  V30 3033 H 272.937 -5.51585 -1.25581 0
M  V30 3034 H 271.494 -6.42963 -1.06968 0
M  V30 3035 N 274.927 -0.932562 -1.27047 0
M  V30 3036 C 275.857 -0.452902 -2.29066 0
M  V30 3037 C 276.838 0.489338 -1.62909 0
M  V30 3038 O 278.023 0.393046 -1.90181 0
M  V30 3039 C 275.153 0.290698 -3.46081 0
M  V30 3040 C 274.107 -0.564168 -4.24265 0
M  V30 3041 C 273.433 0.308886 -5.33807 0
M  V30 3042 C 274.733 -1.83112 -4.89149 0
M  V30 3043 H 276.427 -1.30552 -2.69437 0
M  V30 3044 H 273.973 -0.629201 -1.29526 0
M  V30 3045 H 275.926 0.637233 -4.16554 0
M  V30 3046 H 274.65 1.17738 -3.0464 0
M  V30 3047 H 273.309 -0.893477 -3.55545 0
M  V30 3048 H 272.957 1.19467 -4.88607 0
M  V30 3049 H 272.657 -0.259633 -5.87026 0
M  V30 3050 H 274.181 0.650884 -6.07121 0
M  V30 3051 H 275.595 -1.55236 -5.51883 0
M  V30 3052 H 273.992 -2.34353 -5.52448 0
M  V30 3053 H 275.062 -2.54772 -4.12576 0
M  V30 3054 N 276.405 1.4127 -0.698611 0
M  V30 3055 C 277.653 2.00782 -0.230409 0
M  V30 3056 C 277.974 1.5562 1.17505 0
M  V30 3057 O 277.244 0.78815 1.79346 0
M  V30 3058 H 275.824 0.742464 -0.0821944 0
M  V30 3059 H 278.486 1.72852 -0.90045 0
M  V30 3060 H 277.582 3.11095 -0.25021 0
M  V30 3061 N 277.883 0.443576 1.51229 0
M  V30 3062 C 279.108 -0.121648 2.07043 0
M  V30 3063 C 279.533 -1.35156 1.30823 0
M  V30 3064 O 278.891 -1.7793 0.347934 0
M  V30 3065 C 278.939 -0.41624 3.5819 0
M  V30 3066 O 278.043 -1.50163 3.8409 0
M  V30 3067 H 277.384 0.000871367 0.663999 0
M  V30 3068 H 279.914 0.626706 1.94765 0
M  V30 3069 H 279.924 -0.664867 4.02546 0
M  V30 3070 H 278.599 0.482653 4.1309 0
M  V30 3071 H 277.176 -1.24248 3.51592 0
M  V30 3072 N 279.361 -1.56624 0.175154 0
M  V30 3073 C 280.638 -1.88688 -0.515373 0
M  V30 3074 C 281.018 -1.08564 -1.81044 0
M  V30 3075 O 280.366 -0.180703 -2.27784 0
M  V30 3076 C 280.576 -3.40768 -0.753552 0
M  V30 3077 C 281.924 -4.10587 -1.08184 0
M  V30 3078 O 282.948 -3.46106 -0.841961 0
M  V30 3079 O 281.807 -5.24512 -1.53459 0
M  V30 3080 H 278.901 -0.78301 -0.26613 0
M  V30 3081 H 281.447 -1.68347 0.213877 0
M  V30 3082 H 280.219 -3.90965 0.161829 0
M  V30 3083 H 279.842 -3.66733 -1.53598 0
M  V30 3084 N 280.839 0.0985539 -1.57292 0
M  V30 3085 C 282.088 0.801358 -1.85098 0
M  V30 3086 C 282.401 1.80066 -0.763902 0
M  V30 3087 O 283.607 2.55112 -0.928981 0
M  V30 3088 C 282.063 1.47599 -3.28242 0
M  V30 3089 C 281.671 0.516624 -4.45011 0
M  V30 3090 C 283.415 2.16272 -3.65276 0
M  V30 3091 C 281.322 1.19564 -5.79188 0
M  V30 3092 H 280.252 0.303022 -0.69043 0
M  V30 3093 H 282.903 0.0542623 -1.8342 0
M  V30 3094 H 281.285 2.27042 -3.2445 0
M  V30 3095 H 282.459 -0.246065 -4.60143 0
M  V30 3096 H 280.774 -0.064227 -4.1635 0
M  V30 3097 H 283.371 2.67802 -4.62803 0
M  V30 3098 H 283.714 2.95009 -2.93727 0
M  V30 3099 H 284.247 1.43693 -3.70941 0
M  V30 3100 H 280.986 0.449157 -6.53959 0
M  V30 3101 H 280.506 1.92984 -5.67906 0
M  V30 3102 H 282.185 1.7231 -6.23633 0
M  V30 3103 N 282.317 1.53212 0.369288 0
M  V30 3104 C 283.247 1.82365 1.45826 0
M  V30 3105 C 284.228 0.676907 1.56051 0
M  V30 3106 O 285.413 0.926401 1.70679 0
M  V30 3107 C 282.543 2.01023 2.83208 0
M  V30 3108 C 281.497 3.1678 2.8781 0
M  V30 3109 C 280.823 3.20724 4.27832 0
M  V30 3110 C 282.123 4.55447 2.55667 0
M  V30 3111 H 283.817 2.73559 1.21678 0
M  V30 3112 H 281.363 1.3163 0.583911 0
M  V30 3113 H 283.316 2.20001 3.59413 0
M  V30 3114 H 282.04 1.06536 3.08736 0
M  V30 3115 H 280.699 2.97616 2.14056 0
M  V30 3116 H 280.347 2.23882 4.50429 0
M  V30 3117 H 280.047 3.98496 4.31827 0
M  V30 3118 H 281.571 3.41881 5.05915 0
M  V30 3119 H 282.985 4.74611 3.21586 0
M  V30 3120 H 281.382 5.35432 2.70984 0
M  V30 3121 H 282.452 4.60812 1.5093 0
M  V30 3122 N 283.795 -0.628877 1.44509 0
M  V30 3123 C 285.206 -1.21054 1.42137 0
M  V30 3124 C 285.557 -1.95715 0.137881 0
M  V30 3125 O 284.682 -2.02554 -0.761645 0
M  V30 3126 C 285.277 -2.20189 2.57493 0
M  V30 3127 C 283.836 -2.73777 2.58308 0
M  V30 3128 C 282.983 -1.48813 2.33987 0
M  V30 3129 H 285.934 -0.41942 1.53057 0
M  V30 3130 H 285.955 -3.02833 2.30375 0
M  V30 3131 H 285.467 -1.6582 3.50892 0
M  V30 3132 H 283.568 -3.32142 1.68856 0
M  V30 3133 H 283.681 -3.19662 3.56865 0
M  V30 3134 H 282.045 -1.77024 1.83124 0
M  V30 3135 H 282.828 -0.963442 3.29504 0
M  V30 3136 N 285.273 -1.31445 -0.869486 0
M  V30 3137 C 286.205 -1.14955 -1.98287 0
M  V30 3138 C 287.218 -0.0885037 -1.62559 0
M  V30 3139 O 288.407 -0.336044 -1.75308 0
M  V30 3140 C 285.507 -0.734255 -3.3085 0
M  V30 3141 C 284.68 -1.88042 -3.94917 0
M  V30 3142 C 283.739 -1.4511 -5.05796 0
M  V30 3143 O 282.765 -2.16082 -5.2659 0
M  V30 3144 N 283.967 -0.338763 -5.79511 0
M  V30 3145 H 286.732 -2.10856 -2.12979 0
M  V30 3146 H 284.293 -1.23786 -1.04349 0
M  V30 3147 H 286.285 -0.42975 -4.02412 0
M  V30 3148 H 284.855 0.133158 -3.12316 0
M  V30 3149 H 284.075 -2.35222 -3.1633 0
M  V30 3150 H 285.363 -2.6481 -4.34457 0
M  V30 3151 H 284.761 0.252274 -5.65137 0
M  V30 3152 H 283.318 -0.0937925 -6.51733 0
M  V30 3153 N 286.751 1.08385 -1.14413 0
M  V30 3154 C 287.981 1.8425 -0.934644 0
M  V30 3155 C 288.389 1.81907 0.520234 0
M  V30 3156 O 287.732 1.22126 1.37226 0
M  V30 3157 C 287.794 3.32853 -1.35828 0
M  V30 3158 C 287.458 3.5893 -2.82875 0
M  V30 3159 C 288.455 3.53756 -3.80989 0
M  V30 3160 C 286.14 3.86934 -3.20293 0
M  V30 3161 C 288.134 3.76216 -5.14529 0
M  V30 3162 C 285.821 4.09047 -4.54008 0
M  V30 3163 C 286.819 4.03682 -5.50936 0
M  V30 3164 O 286.507 4.25214 -6.82238 0
M  V30 3165 H 286.239 0.588502 -0.332628 0
M  V30 3166 H 288.793 1.37792 -1.52324 0
M  V30 3167 H 287.023 3.8007 -0.713019 0
M  V30 3168 H 288.712 3.90154 -1.11957 0
M  V30 3169 H 289.478 3.32135 -3.53428 0
M  V30 3170 H 285.357 3.9023 -2.45442 0
M  V30 3171 H 288.901 3.71943 -5.90173 0
M  V30 3172 H 284.798 4.30151 -4.8129 0
M  V30 3173 H 285.566 4.42619 -6.88499 0
M  V30 3174 N 288.23 0.939286 1.26551 0
M  V30 3175 C 289.177 0.446088 2.26448 0
M  V30 3176 C 290.147 -0.493234 1.58608 0
M  V30 3177 O 291.332 -0.409857 1.86346 0
M  V30 3178 C 288.472 -0.284375 3.43926 0
M  V30 3179 C 287.585 0.690399 4.26448 0
M  V30 3180 C 286.72 -0.0610712 5.31165 0
M  V30 3181 C 285.759 0.905649 6.05363 0
M  V30 3182 N 284.896 0.186055 7.01853 0
M  V30 3183 H 289.736 1.30291 2.68008 0
M  V30 3184 H 287.273 0.65371 1.31776 0
M  V30 3185 H 289.231 -0.724313 4.10864 0
M  V30 3186 H 287.861 -1.10535 3.03285 0
M  V30 3187 H 286.913 1.24885 3.59316 0
M  V30 3188 H 288.225 1.42873 4.779 0
M  V30 3189 H 287.379 -0.56038 6.04106 0
M  V30 3190 H 286.118 -0.832297 4.80546 0
M  V30 3191 H 285.123 1.4161 5.3125 0
M  V30 3192 H 286.348 1.67685 6.58072 0
M  V30 3193 H 284.294 -0.566714 6.53548 0
M  V30 3194 H 284.211 0.863752 7.51049 0
M  V30 3195 H 285.479 -0.292221 7.78952 0
M  V30 3196 N 289.708 -1.40897 0.706093 0
M  V30 3197 C 290.64 -2.29199 0.00815776 0
M  V30 3198 C 291.653 -1.45336 -0.733582 0
M  V30 3199 O 292.842 -1.68727 -0.582537 0
M  V30 3200 C 289.942 -3.23417 -1.01265 0
M  V30 3201 C 289.115 -4.36089 -0.338387 0
M  V30 3202 C 288.174 -5.10811 -1.26326 0
M  V30 3203 O 287.2 -5.64215 -0.751651 0
M  V30 3204 N 288.402 -5.19269 -2.595 0
M  V30 3205 H 291.167 -2.89738 0.766297 0
M  V30 3206 H 288.728 -1.52164 0.55296 0
M  V30 3207 H 290.72 -3.70276 -1.63334 0
M  V30 3208 H 289.29 -2.64112 -1.67223 0
M  V30 3209 H 288.51 -3.91479 0.462352 0
M  V30 3210 H 289.798 -5.08634 0.130031 0
M  V30 3211 H 289.196 -4.77347 -3.03573 0
M  V30 3212 H 287.753 -5.69667 -3.16737 0
M  V30 3213 N 291.186 -0.45159 -1.50991 0
M  V30 3214 C 292.096 0.358431 -2.31846 0
M  V30 3215 C 293.112 1.01438 -1.41373 0
M  V30 3216 O 294.288 1.00663 -1.74439 0
M  V30 3217 C 291.353 1.43704 -3.15515 0
M  V30 3218 C 290.414 0.799742 -4.21785 0
M  V30 3219 C 289.647 1.82696 -5.01456 0
M  V30 3220 O 289.87 3.05105 -4.81941 0
M  V30 3221 O 288.804 1.40958 -5.85162 0
M  V30 3222 H 292.63 -0.302032 -3.02194 0
M  V30 3223 H 290.215 -0.213825 -1.47862 0
M  V30 3224 H 292.097 2.06227 -3.67489 0
M  V30 3225 H 290.772 2.08133 -2.47916 0
M  V30 3226 H 289.679 0.136084 -3.73852 0
M  V30 3227 H 291.012 0.198718 -4.91799 0
M  V30 3228 N 292.664 1.56529 -0.183458 0
M  V30 3229 C 293.627 2.17324 0.728223 0
M  V30 3230 C 294.627 1.12453 1.14939 0
M  V30 3231 O 295.817 1.37902 1.06437 0
M  V30 3232 C 292.949 2.76591 1.99274 0
M  V30 3233 H 294.142 2.99241 0.198772 0
M  V30 3234 H 291.695 1.5616 0.0661391 0
M  V30 3235 H 292.43 1.98441 2.56499 0
M  V30 3236 H 292.215 3.5335 1.69959 0
M  V30 3237 H 293.705 3.23311 2.6431 0
M  V30 3238 N 294.142 -0.090211 1.57342 0
M  V30 3239 C 295.553 -0.644173 1.75235 0
M  V30 3240 C 295.904 -1.78865 0.806335 0
M  V30 3241 O 295.029 -2.16395 -0.0140128 0
M  V30 3242 C 295.624 -1.17532 3.1776 0
M  V30 3243 C 294.183 -1.67531 3.37061 0
M  V30 3244 C 293.33 -0.58693 2.71017 0
M  V30 3245 H 296.281 0.135884 1.58117 0
M  V30 3246 H 296.302 -2.04455 3.20902 0
M  V30 3247 H 295.814 -0.342138 3.86589 0
M  V30 3248 H 293.915 -2.53234 2.73319 0
M  V30 3249 H 294.028 -1.76493 4.45406 0
M  V30 3250 H 292.392 -1.02756 2.33052 0
M  V30 3251 H 293.175 0.235758 3.4249 0
M  V30 3252 N 295.62 -1.53406 -0.361157 0
M  V30 3253 C 296.567 -1.80156 -1.44265 0
M  V30 3254 C 297.537 -0.646183 -1.53015 0
M  V30 3255 O 298.722 -0.888818 -1.68833 0
M  V30 3256 C 295.862 -2.00116 -2.81154 0
M  V30 3257 C 294.975 -3.27833 -2.81335 0
M  V30 3258 C 294.11 -3.37957 -4.09828 0
M  V30 3259 C 293.149 -4.59689 -4.04168 0
M  V30 3260 N 292.286 -4.66942 -5.24318 0
M  V30 3261 H 297.126 -2.72438 -1.20754 0
M  V30 3262 H 294.663 -1.34954 -0.585296 0
M  V30 3263 H 296.621 -2.09677 -3.60682 0
M  V30 3264 H 295.251 -1.11167 -3.03054 0
M  V30 3265 H 294.303 -3.27204 -1.94014 0
M  V30 3266 H 295.615 -4.17442 -2.73027 0
M  V30 3267 H 294.769 -3.46853 -4.97773 0
M  V30 3268 H 293.508 -2.46372 -4.20894 0
M  V30 3269 H 292.513 -4.50889 -3.14609 0
M  V30 3270 H 293.738 -5.5262 -3.947 0
M  V30 3271 H 291.684 -3.7826 -5.35962 0
M  V30 3272 H 291.601 -5.50462 -5.18197 0
M  V30 3273 H 292.869 -4.80127 -6.14084 0
M  V30 3274 N 297.098 0.621204 -1.44841 0
M  V30 3275 C 298.326 1.40752 -1.51646 0
M  V30 3276 C 298.741 1.88246 -0.144549 0
M  V30 3277 O 298.098 1.61422 0.851416 0
M  V30 3278 C 298.149 2.62119 -2.4895 0
M  V30 3279 O 297.87 2.16602 -3.80808 0
M  V30 3280 C 299.371 3.55135 -2.65319 0
M  V30 3281 H 296.591 0.431325 -0.514004 0
M  V30 3282 H 299.135 0.758835 -1.899 0
M  V30 3283 H 297.29 3.23058 -2.13805 0
M  V30 3284 H 297.704 2.95358 -4.33433 0
M  V30 3285 H 299.178 4.36874 -3.37409 0
M  V30 3286 H 299.655 4.04592 -1.70886 0
M  V30 3287 H 300.261 3.00058 -3.01405 0
M  V30 3288 N 298.576 1.31904 0.862503 0
M  V30 3289 C 299.987 1.19803 1.43193 0
M  V30 3290 C 300.338 -0.192567 1.95253 0
M  V30 3291 O 299.463 -1.09081 1.86896 0
M  V30 3292 C 300.058 2.16883 2.60283 0
M  V30 3293 C 298.617 2.08692 3.13248 0
M  V30 3294 C 297.764 2.05691 1.85975 0
M  V30 3295 H 300.715 1.43846 0.670365 0
M  V30 3296 H 300.736 1.76278 3.37204 0
M  V30 3297 H 300.248 3.18083 2.22363 0
M  V30 3298 H 298.349 1.10713 3.55771 0
M  V30 3299 H 298.462 2.9815 3.75025 0
M  V30 3300 H 296.826 1.50814 2.05249 0
M  V30 3301 H 297.609 3.08659 1.50282 0
M  V30 3302 N 300.054 -1.07777 1.14986 0
M  V30 3303 C 301.465 -1.61766 0.932127 0
M  V30 3304 C 301.816 -1.88974 -0.527581 0
M  V30 3305 O 300.941 -1.65198 -1.39781 0
M  V30 3306 C 301.536 -2.93891 1.68563 0
M  V30 3307 C 300.095 -3.44639 1.5133 0
M  V30 3308 C 299.242 -2.18767 1.704 0
M  V30 3309 H 302.193 -0.909201 1.30074 0
M  V30 3310 H 302.214 -3.62623 1.15259 0
M  V30 3311 H 301.726 -2.74057 2.74799 0
M  V30 3312 H 299.827 -3.69564 0.474702 0
M  V30 3313 H 299.94 -4.20966 2.28746 0
M  V30 3314 H 298.304 -2.28253 1.13016 0
M  V30 3315 H 299.087 -2.01433 2.77992 0
M  V30 3316 N 301.532 -0.945985 -1.26051 0
M  V30 3317 C 302.482 -0.430164 -2.23905 0
M  V30 3318 C 303.466 0.47579 -1.53704 0
M  V30 3319 O 304.658 0.310252 -1.7426 0
M  V30 3320 C 301.787 0.298957 -3.41996 0
M  V30 3321 C 300.873 -0.624566 -4.19476 0
M  V30 3322 N 301.264 -1.75245 -4.74471 0
M  V30 3323 C 299.562 -0.431082 -4.43912 0
M  V30 3324 C 300.263 -2.32834 -5.3307 0
M  V30 3325 N 299.239 -1.61583 -5.1903 0
M  V30 3326 H 303.041 -1.29107 -2.64024 0
M  V30 3327 H 300.555 -0.802428 -1.41191 0
M  V30 3328 H 302.552 0.685565 -4.11225 0
M  V30 3329 H 301.212 1.15657 -3.03403 0
M  V30 3330 H 302.223 -2.13449 -4.71868 0
M  V30 3331 H 298.9 0.384364 -4.15727 0
M  V30 3332 H 300.29 -3.27893 -5.86461 0
M  V30 3333 N 303.011 1.40521 -0.713556 0
M  V30 3334 C 304.26 2.00155 -0.249192 0
M  V30 3335 C 304.573 1.57224 1.16362 0
M  V30 3336 O 305.779 2.09542 1.72639 0
M  V30 3337 C 304.235 3.5773 -0.3946 0
M  V30 3338 C 303.843 4.09635 -1.81392 0
M  V30 3339 C 305.587 4.24499 0.00907364 0
M  V30 3340 C 303.494 5.59707 -1.91003 0
M  V30 3341 H 302.424 0.74868 -0.0894114 0
M  V30 3342 H 305.075 1.60784 -0.884352 0
M  V30 3343 H 303.457 3.94792 0.30911 0
M  V30 3344 H 304.631 3.83955 -2.54785 0
M  V30 3345 H 302.946 3.55456 -2.16888 0
M  V30 3346 H 305.543 5.34683 -0.0420404 0
M  V30 3347 H 305.886 4.02824 1.05065 0
M  V30 3348 H 306.419 3.92536 -0.645007 0
M  V30 3349 H 303.158 5.86234 -2.93275 0
M  V30 3350 H 302.678 5.87258 -1.22019 0
M  V30 3351 H 304.357 6.24776 -1.6812 0
M  V30 3352 N 304.489 0.459591 1.5075 0
M  V30 3353 C 305.738 -0.100971 2.01447 0
M  V30 3354 C 306.051 -1.41816 1.34713 0
M  V30 3355 O 307.257 -2.06299 1.76502 0
M  V30 3356 C 305.713 -0.23047 3.59161 0
M  V30 3357 C 305.321 1.0776 4.34847 0
M  V30 3358 C 307.065 -0.743608 4.17936 0
M  V30 3359 C 304.972 0.91253 5.84317 0
M  V30 3360 H 303.902 -0.0415102 0.752856 0
M  V30 3361 H 306.553 0.592742 1.73663 0
M  V30 3362 H 304.935 -0.987703 3.83485 0
M  V30 3363 H 306.109 1.8449 4.22256 0
M  V30 3364 H 304.424 1.52097 3.87628 0
M  V30 3365 H 307.021 -0.883959 5.27343 0
M  V30 3366 H 307.364 -1.73196 3.78562 0
M  V30 3367 H 307.897 -0.04408 3.97776 0
M  V30 3368 H 304.636 1.87391 6.28144 0
M  V30 3369 H 304.156 0.185422 5.99513 0
M  V30 3370 H 305.835 0.574547 6.44444 0
M  V30 3371 N 305.967 -1.56429 0.191757 0
M  V30 3372 C 306.897 -2.21937 -0.725696 0
M  V30 3373 C 307.878 -1.1814 -1.2238 0
M  V30 3374 O 309.063 -1.46636 -1.27325 0
M  V30 3375 C 306.193 -2.87611 -1.94672 0
M  V30 3376 C 305.147 -3.97623 -1.58366 0
M  V30 3377 C 304.473 -4.50446 -2.88102 0
M  V30 3378 C 305.773 -5.16197 -0.796133 0
M  V30 3379 H 307.467 -2.98861 -0.179606 0
M  V30 3380 H 305.013 -1.43749 -0.0849464 0
M  V30 3381 H 306.966 -3.3212 -2.59373 0
M  V30 3382 H 305.69 -2.08087 -2.51728 0
M  V30 3383 H 304.349 -3.53801 -0.960247 0
M  V30 3384 H 303.997 -3.67688 -3.43241 0
M  V30 3385 H 303.697 -5.24675 -2.64556 0
M  V30 3386 H 305.221 -4.97654 -3.53798 0
M  V30 3387 H 306.635 -5.57271 -1.34618 0
M  V30 3388 H 305.032 -5.96471 -0.658928 0
M  V30 3389 H 306.102 -4.84473 0.203478 0
M  V30 3390 N 307.445 0.0818655 -1.57387 0
M  V30 3391 C 308.395 1.10501 -1.99433 0
M  V30 3392 C 309.379 1.35041 -0.874798 0
M  V30 3393 O 310.571 1.35511 -1.13868 0
M  V30 3394 C 307.7 2.42159 -2.43339 0
M  V30 3395 C 306.786 2.20937 -3.62005 0
M  V30 3396 N 307.177 1.69616 -4.76512 0
M  V30 3397 C 305.475 2.51451 -3.68359 0
M  V30 3398 C 306.176 1.62973 -5.58404 0
M  V30 3399 N 305.152 2.08664 -5.01956 0
M  V30 3400 H 308.954 0.701373 -2.85408 0
M  V30 3401 H 306.468 0.289096 -1.59806 0
M  V30 3402 H 308.465 3.16208 -2.71695 0
M  V30 3403 H 307.125 2.83249 -1.58746 0
M  V30 3404 H 308.136 1.38624 -4.99003 0
M  V30 3405 H 304.813 2.95975 -2.94457 0
M  V30 3406 H 306.203 1.24233 -6.60315 0
M  V30 3407 N 308.923 1.53595 0.353017 0
M  V30 3408 C 310.153 1.74058 1.11299 0
M  V30 3409 C 310.561 0.475205 1.83135 0
M  V30 3410 O 309.904 -0.562344 1.74881 0
M  V30 3411 C 309.966 2.85994 2.17825 0
M  V30 3412 C 309.63 4.25923 1.65647 0
M  V30 3413 C 310.627 5.07829 1.11383 0
M  V30 3414 C 308.312 4.72377 1.7078 0
M  V30 3415 C 310.306 6.34285 0.629439 0
M  V30 3416 C 307.993 5.98808 1.21953 0
M  V30 3417 C 308.991 6.79594 0.681265 0
M  V30 3418 O 308.679 8.03651 0.200248 0
M  V30 3419 H 308.411 0.585327 0.338183 0
M  V30 3420 H 310.965 2.01186 0.413927 0
M  V30 3421 H 309.195 2.54368 2.91262 0
M  V30 3422 H 310.884 2.94515 2.79313 0
M  V30 3423 H 311.65 4.73107 1.06746 0
M  V30 3424 H 307.529 4.0956 2.11617 0
M  V30 3425 H 311.073 6.97288 0.208636 0
M  V30 3426 H 306.97 6.33026 1.26287 0
M  V30 3427 H 307.738 8.1788 0.318416 0
M  V30 3428 N 310.401 -0.613514 1.45168 0
M  V30 3429 C 311.641 -1.38405 1.5041 0
M  V30 3430 C 312.005 -1.91489 0.139922 0
M  V30 3431 O 313.206 -2.68716 0.067033 0
M  V30 3432 C 311.477 -2.50552 2.5487 0
M  V30 3433 S 313.036 -3.38439 2.79292 0
M  V30 3434 H 309.854 -0.471945 0.531779 0
M  V30 3435 H 312.456 -0.708518 1.82209 0
M  V30 3436 H 311.16 -2.09894 3.52665 0
M  V30 3437 H 310.691 -3.22913 2.24701 0
M  V30 3438 H 312.706 -4.48527 2.12222 0
M  V30 3439 N 311.879 -1.3236 -0.855495 0
M  V30 3440 C 312.842 -1.21164 -1.94556 0
M  V30 3441 C 313.842 -0.134908 -1.60233 0
M  V30 3442 O 315.032 -0.385249 -1.69887 0
M  V30 3443 C 312.164 -0.863192 -3.29791 0
M  V30 3444 H 313.357 -2.18038 -2.05911 0
M  V30 3445 H 310.91 -1.16179 -1.04557 0
M  V30 3446 H 311.645 0.103769 -3.24134 0
M  V30 3447 H 311.43 -1.64166 -3.56078 0
M  V30 3448 H 312.92 -0.809156 -4.09686 0
M  V30 3449 N 313.357 1.07166 -1.15556 0
M  V30 3450 C 314.604 1.79798 -0.931604 0
M  V30 3451 C 314.932 1.8682 0.54115 0
M  V30 3452 O 314.187 1.34942 1.41736 0
M  V30 3453 C 314.486 3.24707 -1.49332 0
M  V30 3454 C 314.152 3.37781 -2.98688 0
M  V30 3455 C 312.814 3.41057 -3.39461 0
M  V30 3456 C 315.166 3.40424 -3.94665 0
M  V30 3457 C 312.494 3.4458 -4.74849 0
M  V30 3458 C 314.846 3.45485 -5.29927 0
M  V30 3459 C 313.51 3.47039 -5.70193 0
M  V30 3460 H 312.78 0.657928 -0.340898 0
M  V30 3461 H 315.427 1.26091 -1.44129 0
M  V30 3462 H 313.732 3.81208 -0.904859 0
M  V30 3463 H 315.429 3.79486 -1.29582 0
M  V30 3464 H 312.019 3.35932 -2.66172 0
M  V30 3465 H 316.203 3.37113 -3.64237 0
M  V30 3466 H 311.459 3.44083 -5.05388 0
M  V30 3467 H 315.633 3.46476 -6.04092 0
M  V30 3468 H 313.26 3.49522 -6.75084 0
M  V30 3469 N 314.835 0.952656 1.25548 0
M  V30 3470 C 315.782 0.47008 2.25962 0
M  V30 3471 C 316.752 -0.476384 1.59122 0
M  V30 3472 O 317.937 -0.39007 1.8677 0
M  V30 3473 C 315.077 -0.247881 3.44209 0
M  V30 3474 C 314.19 0.735591 4.25691 0
M  V30 3475 C 313.325 -0.0047306 5.312 0
M  V30 3476 C 312.364 0.969805 6.04368 0
M  V30 3477 N 311.501 0.260486 7.01617 0
M  V30 3478 H 316.341 1.33126 2.66611 0
M  V30 3479 H 313.878 0.66765 1.31076 0
M  V30 3480 H 315.836 -0.680695 4.1161 0
M  V30 3481 H 314.466 -1.07312 3.0444 0
M  V30 3482 H 313.518 1.28689 3.57971 0
M  V30 3483 H 314.83 1.47934 4.76358 0
M  V30 3484 H 313.984 -0.496275 6.04667 0
M  V30 3485 H 312.723 -0.781282 4.81401 0
M  V30 3486 H 311.728 1.47237 5.29718 0
M  V30 3487 H 312.953 1.74655 6.56256 0
M  V30 3488 H 310.899 -0.497364 6.54112 0
M  V30 3489 H 310.816 0.943362 7.50091 0
M  V30 3490 H 312.084 -0.209587 7.79218 0
M  V30 3491 N 316.313 -1.40141 0.720998 0
M  V30 3492 C 317.541 -2.05096 0.272656 0
M  V30 3493 C 317.956 -1.54334 -1.0875 0
M  V30 3494 O 317.313 -0.702211 -1.6845 0
M  V30 3495 C 317.364 -3.60636 0.249835 0
M  V30 3496 O 317.085 -4.09526 1.55629 0
M  V30 3497 C 318.586 -4.42772 -0.216396 0
M  V30 3498 H 315.806 -0.659897 0.121558 0
M  V30 3499 H 318.35 -1.79449 0.980723 0
M  V30 3500 H 316.505 -3.85232 -0.409237 0
M  V30 3501 H 316.919 -5.03758 1.4604 0
M  V30 3502 H 318.393 -5.51702 -0.181212 0
M  V30 3503 H 318.87 -4.20756 -1.25941 0
M  V30 3504 H 319.476 -4.23294 0.412596 0
M  V30 3505 N 317.792 -0.46758 -1.50504 0
M  V30 3506 C 319.02 0.0864133 -2.06719 0
M  V30 3507 C 319.435 1.33819 -1.33184 0
M  V30 3508 O 318.792 1.78061 -0.400083 0
M  V30 3509 C 318.843 0.378079 -3.59517 0
M  V30 3510 O 318.564 -0.824044 -4.3028 0
M  V30 3511 C 320.065 0.979426 -4.32345 0
M  V30 3512 H 317.285 -0.00551697 -0.670977 0
M  V30 3513 H 319.829 -0.655354 -1.93715 0
M  V30 3514 H 317.984 1.06977 -3.72337 0
M  V30 3515 H 318.398 -0.566518 -5.21432 0
M  V30 3516 H 319.872 1.1333 -5.40241 0
M  V30 3517 H 320.349 1.9686 -3.9261 0
M  V30 3518 H 320.955 0.326216 -4.24047 0
M  V30 3519 N 319.27 1.56325 -0.20005 0
M  V30 3520 C 320.516 1.98772 0.431408 0
M  V30 3521 C 320.871 1.0849 1.58895 0
M  V30 3522 O 320.164 0.130331 1.91156 0
M  V30 3523 C 320.358 3.4495 0.935103 0
M  V30 3524 C 320.187 4.49371 -0.172096 0
M  V30 3525 C 318.957 5.0134 -0.631377 0
M  V30 3526 C 321.155 5.04822 -0.982806 0
M  V30 3527 N 319.137 5.89433 -1.71588 0
M  V30 3528 C 320.508 5.89632 -1.91661 0
M  V30 3529 C 322.563 4.87242 -1.02467 0
M  V30 3530 C 321.266 6.58741 -2.88881 0
M  V30 3531 C 323.292 5.57094 -1.98494 0
M  V30 3532 C 322.654 6.41655 -2.90617 0
M  V30 3533 H 318.753 0.771922 0.125144 0
M  V30 3534 H 321.337 1.92266 -0.306883 0
M  V30 3535 H 319.508 3.51946 1.64282 0
M  V30 3536 H 321.24 3.74354 1.53758 0
M  V30 3537 H 317.995 4.73071 -0.223827 0
M  V30 3538 H 318.419 6.38182 -2.25948 0
M  V30 3539 H 323.061 4.21538 -0.326408 0
M  V30 3540 H 320.779 7.23641 -3.5968 0
M  V30 3541 H 324.365 5.45466 -2.0238 0
M  V30 3542 H 323.245 6.94755 -3.63711 0
M  V30 3543 N 320.748 -0.0735177 1.57428 0
M  V30 3544 C 322.025 -0.805903 1.78226 0
M  V30 3545 C 322.405 -1.95874 0.787189 0
M  V30 3546 O 321.753 -2.2779 -0.180029 0
M  V30 3547 C 321.963 -1.28045 3.24662 0
M  V30 3548 C 323.311 -1.71453 3.88444 0
M  V30 3549 O 324.335 -1.37616 3.28543 0
M  V30 3550 O 323.194 -2.34093 4.93825 0
M  V30 3551 H 320.288 -0.386041 0.73137 0
M  V30 3552 H 322.834 -0.0537269 1.69615 0
M  V30 3553 H 321.606 -0.455476 3.8864 0
M  V30 3554 H 321.229 -2.094 3.37991 0
M  V30 3555 N 322.226 -1.5378 -0.344866 0
M  V30 3556 C 323.472 -1.72158 -1.0832 0
M  V30 3557 C 323.827 -0.478218 -1.86362 0
M  V30 3558 O 323.12 0.529152 -1.84148 0
M  V30 3559 C 323.314 -2.92407 -2.05506 0
M  V30 3560 C 323.143 -4.28318 -1.37017 0
M  V30 3561 C 321.913 -4.92832 -1.11558 0
M  V30 3562 C 324.111 -5.08086 -0.797071 0
M  V30 3563 N 322.093 -6.12619 -0.396358 0
M  V30 3564 C 323.464 -6.1965 -0.208336 0
M  V30 3565 C 325.519 -4.92986 -0.697787 0
M  V30 3566 C 324.222 -7.17763 0.470023 0
M  V30 3567 C 326.248 -5.91391 -0.033171 0
M  V30 3568 C 325.61 -7.02292 0.544599 0
M  V30 3569 H 321.709 -0.683017 -0.380805 0
M  V30 3570 H 324.293 -1.91211 -0.366961 0
M  V30 3571 H 322.464 -2.74857 -2.74423 0
M  V30 3572 H 324.196 -2.9951 -2.72169 0
M  V30 3573 H 320.951 -4.52362 -1.40234 0
M  V30 3574 H 321.375 -6.7698 -0.0515119 0
M  V30 3575 H 326.017 -4.07414 -1.13022 0
M  V30 3576 H 323.735 -8.0291 0.914351 0
M  V30 3577 H 327.321 -5.81784 0.0430009 0
M  V30 3578 H 326.201 -7.77129 1.05073 0
M  V30 3579 N 323.704 0.605807 -1.45491 0
M  V30 3580 C 324.95 1.36679 -1.49823 0
M  V30 3581 C 325.283 1.93693 -0.140175 0
M  V30 3582 O 324.558 1.75158 0.845581 0
M  V30 3583 C 324.841 2.51337 -2.57879 0
M  V30 3584 C 324.694 1.99508 -4.03134 0
M  V30 3585 C 326.013 3.53463 -2.62205 0
M  V30 3586 H 323.132 0.495617 -0.545466 0
M  V30 3587 H 325.774 0.682732 -1.7731 0
M  V30 3588 H 323.924 3.09691 -2.34571 0
M  V30 3589 H 325.596 1.45789 -4.37656 0
M  V30 3590 H 323.839 1.30496 -4.13707 0
M  V30 3591 H 324.51 2.82169 -4.74431 0
M  V30 3592 H 326.986 3.04953 -2.83095 0
M  V30 3593 H 325.862 4.31178 -3.39672 0
M  V30 3594 H 326.123 4.09197 -1.67363 0
M  V30 3595 N 325.182 1.32811 0.848464 0
M  V30 3596 C 326.431 1.23075 1.59798 0
M  V30 3597 C 326.744 -0.204419 1.94529 0
M  V30 3598 O 327.95 -0.423701 2.68173 0
M  V30 3599 C 326.406 2.15594 2.88179 0
M  V30 3600 C 326.014 3.64228 2.60849 0
M  V30 3601 C 327.758 2.14709 3.66197 0
M  V30 3602 C 325.665 4.48689 3.85269 0
M  V30 3603 H 324.595 0.457091 0.599653 0
M  V30 3604 H 327.246 1.57813 0.936342 0
M  V30 3605 H 325.628 1.73778 3.55833 0
M  V30 3606 H 326.802 4.14424 2.01467 0
M  V30 3607 H 325.117 3.67306 1.96151 0
M  V30 3608 H 327.714 2.75046 4.58534 0
M  V30 3609 H 328.057 1.13966 4.00397 0
M  V30 3610 H 328.59 2.54837 3.05455 0
M  V30 3611 H 325.329 5.5027 3.56207 0
M  V30 3612 H 324.849 4.03241 4.44024 0
M  V30 3613 H 326.528 4.62006 4.52946 0
M  V30 3614 N 326.66 -1.06551 1.16123 0
M  V30 3615 C 327.59 -2.15935 0.88851 0
M  V30 3616 C 328.571 -1.69306 -0.164135 0
M  V30 3617 O 329.756 -1.94193 -0.0167857 0
M  V30 3618 C 326.886 -3.45149 0.385942 0
M  V30 3619 C 325.84 -4.05271 1.3762 0
M  V30 3620 C 325.166 -5.29664 0.732137 0
M  V30 3621 C 326.466 -4.44355 2.74493 0
M  V30 3622 H 328.16 -2.39006 1.80323 0
M  V30 3623 H 325.706 -1.14866 0.868435 0
M  V30 3624 H 327.659 -4.21004 0.182647 0
M  V30 3625 H 326.383 -3.21689 -0.564274 0
M  V30 3626 H 325.042 -3.3147 1.56599 0
M  V30 3627 H 324.69 -5.02499 -0.224483 0
M  V30 3628 H 324.39 -5.70848 1.39307 0
M  V30 3629 H 325.914 -6.08218 0.538802 0
M  V30 3630 H 327.328 -5.11303 2.59311 0
M  V30 3631 H 325.725 -4.96515 3.37035 0
M  V30 3632 H 326.795 -3.55339 3.29943 0
M  V30 3633 N 328.138 -0.959301 -1.25041 0
M  V30 3634 C 329.387 -0.612254 -1.92183 0
M  V30 3635 C 329.7 0.855347 -1.75907 0
M  V30 3636 O 330.906 1.31256 -2.37664 0
M  V30 3637 C 329.362 -1.04435 -3.44414 0
M  V30 3638 C 328.97 -2.53482 -3.69393 0
M  V30 3639 C 330.714 -0.770055 -4.17457 0
M  V30 3640 C 328.621 -2.90468 -5.15153 0
M  V30 3641 H 327.551 -0.225279 -0.719559 0
M  V30 3642 H 330.202 -1.16438 -1.41825 0
M  V30 3643 H 328.584 -0.4206 -3.9376 0
M  V30 3644 H 329.758 -3.20916 -3.30681 0
M  V30 3645 H 328.073 -2.78432 -3.0962 0
M  V30 3646 H 330.67 -1.02249 -5.24832 0
M  V30 3647 H 331.013 0.293611 -4.15263 0
M  V30 3648 H 331.546 -1.35437 -3.74034 0
M  V30 3649 H 328.285 -3.95871 -5.22462 0
M  V30 3650 H 327.805 -2.27711 -5.54894 0
M  V30 3651 H 329.484 -2.79914 -5.83315 0
M  V30 3652 N 329.616 1.39756 -0.72842 0
M  V30 3653 C 330.546 2.33289 -0.0991354 0
M  V30 3654 C 331.527 1.53568 0.731489 0
M  V30 3655 O 332.712 1.81987 0.677807 0
M  V30 3656 C 329.842 3.3763 0.813834 0
M  V30 3657 C 328.796 4.2791 0.0878663 0
M  V30 3658 C 328.122 5.22894 1.11741 0
M  V30 3659 C 329.422 5.11314 -1.06563 0
M  V30 3660 H 331.116 2.86163 -0.880408 0
M  V30 3661 H 328.662 1.37591 -0.424819 0
M  V30 3662 H 330.615 4.0201 1.26355 0
M  V30 3663 H 329.339 2.83181 1.62715 0
M  V30 3664 H 327.998 3.65 -0.342159 0
M  V30 3665 H 327.646 4.64744 1.92412 0
M  V30 3666 H 327.346 5.84143 0.636477 0
M  V30 3667 H 328.87 5.90151 1.56697 0
M  V30 3668 H 330.284 5.69076 -0.694671 0
M  V30 3669 H 328.681 5.81671 -1.47577 0
M  V30 3670 H 329.751 4.46534 -1.89038 0
M  V30 3671 N 331.094 0.475555 1.50254 0
M  V30 3672 C 332.322 -0.0754493 2.06762 0
M  V30 3673 C 332.737 -1.33111 1.33891 0
M  V30 3674 O 332.094 -1.77846 0.40952 0
M  V30 3675 C 332.145 -0.359008 3.59713 0
M  V30 3676 O 331.866 0.846851 4.29837 0
M  V30 3677 C 333.367 -0.956484 4.32858 0
M  V30 3678 H 330.587 0.00907525 0.670939 0
M  V30 3679 H 333.131 0.665618 1.93364 0
M  V30 3680 H 331.286 -1.05001 3.72899 0
M  V30 3681 H 331.7 0.594162 5.21124 0
M  V30 3682 H 333.174 -1.10463 5.40834 0
M  V30 3683 H 333.651 -1.94775 3.93649 0
M  V30 3684 H 334.257 -0.303723 4.24214 0
M  V30 3685 N 332.573 -1.56217 0.208337 0
M  V30 3686 C 333.82 -1.97949 -0.42692 0
M  V30 3687 C 334.148 -1.09562 -1.60706 0
M  V30 3688 O 333.403 -0.137616 -1.95216 0
M  V30 3689 C 333.702 -3.45441 -0.916797 0
M  V30 3690 C 333.368 -4.50646 0.151391 0
M  V30 3691 C 332.03 -4.79139 0.444867 0
M  V30 3692 C 334.382 -5.13811 0.874492 0
M  V30 3693 C 331.71 -5.68084 1.46619 0
M  V30 3694 C 334.062 -6.03861 1.88506 0
M  V30 3695 C 332.726 -6.30704 2.18559 0
M  V30 3696 H 331.996 -0.724345 -0.156221 0
M  V30 3697 H 334.643 -1.89006 0.308084 0
M  V30 3698 H 332.948 -3.51521 -1.73032 0
M  V30 3699 H 334.645 -3.75094 -1.41794 0
M  V30 3700 H 331.235 -4.28511 -0.0875068 0
M  V30 3701 H 335.419 -4.91879 0.660996 0
M  V30 3702 H 330.675 -5.87151 1.7048 0
M  V30 3703 H 334.849 -6.51861 2.45051 0
M  V30 3704 H 332.476 -6.99424 2.97843 0
M  V30 3705 N 334.051 0.0651679 -1.57465 0
M  V30 3706 C 335.281 0.774683 -1.91526 0
M  V30 3707 C 335.689 1.71305 -0.803196 0
M  V30 3708 O 335.032 1.82231 0.231881 0
M  V30 3709 C 335.094 1.61645 -3.21109 0
M  V30 3710 C 334.758 0.846753 -4.49087 0
M  V30 3711 C 335.755 0.163024 -5.19644 0
M  V30 3712 C 333.44 0.811966 -4.95694 0
M  V30 3713 C 335.434 -0.54519 -6.35064 0
M  V30 3714 C 333.121 0.0999836 -6.11018 0
M  V30 3715 C 334.119 -0.577388 -6.80555 0
M  V30 3716 O 333.807 -1.27789 -7.93678 0
M  V30 3717 H 333.539 0.225031 -0.637446 0
M  V30 3718 H 336.093 0.0377134 -2.05365 0
M  V30 3719 H 334.323 2.39638 -3.03497 0
M  V30 3720 H 336.012 2.20525 -3.40769 0
M  V30 3721 H 336.778 0.181163 -4.84662 0
M  V30 3722 H 332.657 1.32867 -4.41438 0
M  V30 3723 H 336.201 -1.07446 -6.89276 0
M  V30 3724 H 332.098 0.0797945 -6.45451 0
M  V30 3725 H 332.866 -1.18784 -8.09835 0
M  V30 3726 N 335.529 1.53961 0.336706 0
M  V30 3727 C 336.757 1.75483 1.09605 0
M  V30 3728 C 337.172 0.4972 1.82136 0
M  V30 3729 O 336.529 -0.53149 1.74589 0
M  V30 3730 C 336.58 2.93943 2.10428 0
M  V30 3731 O 336.301 4.14842 1.40846 0
M  V30 3732 C 337.802 3.27571 2.98684 0
M  V30 3733 H 335.022 0.586166 0.326574 0
M  V30 3734 H 337.566 2.00808 0.38683 0
M  V30 3735 H 335.721 2.70929 2.76905 0
M  V30 3736 H 336.135 4.81383 2.08255 0
M  V30 3737 H 337.609 4.13791 3.6535 0
M  V30 3738 H 338.086 2.44168 3.65074 0
M  V30 3739 H 338.692 3.52615 2.37787 0
M  V30 3740 N 337.007 -0.598083 1.45811 0
M  V30 3741 C 337.97 -1.69018 1.54808 0
M  V30 3742 C 338.97 -1.55037 0.426652 0
M  V30 3743 O 340.16 -1.59932 0.690456 0
M  V30 3744 C 337.292 -3.0835 1.45371 0
M  V30 3745 H 338.485 -1.62403 2.52121 0
M  V30 3746 H 336.038 -0.814626 1.33392 0
M  V30 3747 H 336.773 -3.20534 0.492793 0
M  V30 3748 H 336.558 -3.19907 2.26721 0
M  V30 3749 H 338.048 -3.8788 1.54721 0
M  V30 3750 N 338.485 -1.33259 -0.841409 0
M  V30 3751 C 339.734 -1.23921 -1.59143 0
M  V30 3752 C 340.047 0.1941 -1.94635 0
M  V30 3753 O 341.253 0.409474 -2.68394 0
M  V30 3754 C 339.709 -2.17119 -2.87032 0
M  V30 3755 C 339.317 -3.65606 -2.58914 0
M  V30 3756 C 341.061 -2.16648 -3.65053 0
M  V30 3757 C 338.968 -4.50726 -3.82884 0
M  V30 3758 H 337.898 -0.460264 -0.597221 0
M  V30 3759 H 340.549 -1.58307 -0.927959 0
M  V30 3760 H 338.931 -1.75663 -3.54906 0
M  V30 3761 H 340.105 -4.15487 -1.99267 0
M  V30 3762 H 338.42 -3.68341 -1.942 0
M  V30 3763 H 341.017 -2.77474 -4.57069 0
M  V30 3764 H 341.36 -1.16088 -3.99787 0
M  V30 3765 H 341.893 -2.56453 -3.041 0
M  V30 3766 H 338.632 -5.52151 -3.53283 0
M  V30 3767 H 338.152 -4.0559 -4.41879 0
M  V30 3768 H 339.831 -4.64401 -4.50489 0
M  V30 3769 N 339.963 1.05934 -1.16686 0
M  V30 3770 C 340.896 2.1295 -0.820225 0
M  V30 3771 C 341.874 1.61242 0.209722 0
M  V30 3772 O 343.058 1.88271 0.0929688 0
M  V30 3773 C 340.185 3.3797 -0.22223 0
M  V30 3774 C 339.231 4.08488 -1.22637 0
M  V30 3775 S 340.064 4.58015 -2.77457 0
M  V30 3776 C 341.22 5.86292 -2.19117 0
M  V30 3777 H 341.453 2.42025 -1.72659 0
M  V30 3778 H 338.986 1.18423 -0.990722 0
M  V30 3779 H 340.944 4.10335 0.116322 0
M  V30 3780 H 339.605 3.07045 0.66196 0
M  V30 3781 H 338.798 4.98291 -0.756455 0
M  V30 3782 H 338.4 3.42154 -1.51019 0
M  V30 3783 H 340.692 6.59246 -1.56209 0
M  V30 3784 H 341.635 6.38019 -3.07144 0
M  V30 3785 H 342.043 5.40497 -1.62858 0
M  V30 3786 N 341.441 0.965919 1.2453 0
M  V30 3787 C 342.687 0.62776 1.92839 0
M  V30 3788 C 343.02 -0.834694 1.75347 0
M  V30 3789 O 342.295 -1.60031 1.10546 0
M  V30 3790 C 342.578 1.00109 3.45905 0
M  V30 3791 C 342.431 2.52011 3.72573 0
M  V30 3792 C 343.75 0.53435 4.36844 0
M  V30 3793 H 340.869 0.229537 0.700344 0
M  V30 3794 H 343.511 1.2046 1.46933 0
M  V30 3795 H 341.661 0.510238 3.85135 0
M  V30 3796 H 343.333 3.08559 3.42912 0
M  V30 3797 H 341.576 2.95287 3.17786 0
M  V30 3798 H 342.247 2.73183 4.79661 0
M  V30 3799 H 344.723 0.955565 4.04979 0
M  V30 3800 H 343.599 0.824152 5.42678 0
M  V30 3801 H 343.86 -0.565589 4.38467 0
M  V30 3802 N 342.919 -1.39368 0.735821 0
M  V30 3803 C 344.33 -1.83313 0.354015 0
M  V30 3804 C 344.681 -1.61461 -1.11466 0
M  V30 3805 O 343.806 -1.10621 -1.85989 0
M  V30 3806 C 344.401 -3.32781 0.635769 0
M  V30 3807 C 342.96 -3.75142 0.307448 0
M  V30 3808 C 342.107 -2.62358 0.897974 0
M  V30 3809 H 345.058 -1.28349 0.933398 0
M  V30 3810 H 345.079 -3.80388 -0.0921773 0
M  V30 3811 H 344.591 -3.48654 1.70476 0
M  V30 3812 H 342.692 -3.64857 -0.755674 0
M  V30 3813 H 342.805 -4.72532 0.790583 0
M  V30 3814 H 341.169 -2.52624 0.324551 0
M  V30 3815 H 341.952 -2.81036 1.97164 0
M  V30 3816 N 344.397 -0.483516 -1.5 0
M  V30 3817 C 345.627 0.0643896 -2.065 0
M  V30 3818 C 346.035 1.32949 -1.34615 0
M  V30 3819 O 345.378 1.79003 -0.412756 0
M  V30 3820 C 345.44 0.405983 -3.572 0
M  V30 3821 C 345.104 -0.758875 -4.50655 0
M  V30 3822 C 346.101 -1.64445 -4.93208 0
M  V30 3823 C 343.786 -0.952725 -4.93182 0
M  V30 3824 C 345.78 -2.70818 -5.77006 0
M  V30 3825 C 343.467 -2.01966 -5.76761 0
M  V30 3826 C 344.465 -2.89574 -6.18576 0
M  V30 3827 O 344.153 -3.94429 -7.00486 0
M  V30 3828 H 343.885 -0.00934786 -0.675935 0
M  V30 3829 H 346.439 -0.674959 -1.93993 0
M  V30 3830 H 344.669 1.19869 -3.67652 0
M  V30 3831 H 346.358 0.890433 -3.96013 0
M  V30 3832 H 347.124 -1.50643 -4.61012 0
M  V30 3833 H 343.003 -0.280247 -4.60147 0
M  V30 3834 H 346.547 -3.3923 -6.09565 0
M  V30 3835 H 342.444 -2.1577 -6.0837 0
M  V30 3836 H 343.212 -3.91568 -7.1876 0
M  V30 3837 N 345.875 1.56104 -0.216619 0
M  V30 3838 C 346.823 2.21434 0.712036 0
M  V30 3839 C 347.817 1.19218 1.20348 0
M  V30 3840 O 349.023 1.3731 1.16387 0
M  V30 3841 H 345.398 0.70992 0.248026 0
M  V30 3842 H 347.369 2.98083 0.137558 0
M  V30 3843 C 346.118 2.90434 1.91163 0
M  V30 3844 H 345.441 3.68842 1.54258 0
M  V30 3845 H 346.881 3.39552 2.5393 0
M  V30 3846 C 345.34 1.92635 2.76394 0
M  V30 3847 O 345.87 1.44017 3.74996 0
M  V30 3848 N 344.076 1.60392 2.42328 0
M  V30 3849 H 343.623 2.00122 1.622 0
M  V30 3850 H 343.581 0.952159 2.99635 0
M  V30 3851 N 347.353 -0.0568162 1.57498 0
M  V30 3852 C 348.599 -0.75422 1.88253 0
M  V30 3853 C 348.932 -1.76461 0.810865 0
M  V30 3854 O 348.207 -1.93691 -0.177259 0
M  V30 3855 C 348.49 -1.44878 3.2967 0
M  V30 3856 C 348.343 -0.453789 4.47505 0
M  V30 3857 C 349.662 -2.38994 3.69554 0
M  V30 3858 H 346.781 -0.272724 0.684683 0
M  V30 3859 H 349.423 -0.0172113 1.89992 0
M  V30 3860 H 347.573 -2.077 3.28318 0
M  V30 3861 H 349.245 0.170371 4.60985 0
M  V30 3862 H 347.488 0.229552 4.33192 0
M  V30 3863 H 348.159 -0.977699 5.43273 0
M  V30 3864 H 350.635 -1.86239 3.72095 0
M  V30 3865 H 349.511 -2.84587 4.69363 0
M  V30 3866 H 349.772 -3.24461 3.00296 0
M  V30 3867 N 348.832 -1.54138 -0.328536 0
M  V30 3868 C 350.057 -1.76378 -1.09112 0
M  V30 3869 C 350.482 -0.508596 -1.81094 0
M  V30 3870 O 349.84 0.539598 -1.73084 0
M  V30 3871 C 349.888 -2.95358 -2.06872 0
M  V30 3872 O 348.992 -2.66556 -3.14677 0
M  V30 3873 H 348.333 -0.584614 -0.314838 0
M  V30 3874 H 350.863 -2.01146 -0.374348 0
M  V30 3875 H 350.873 -3.22566 -2.4983 0
M  V30 3876 H 349.548 -3.86385 -1.5388 0
M  V30 3877 H 348.125 -2.50282 -2.7643 0
M  V30 3878 N 350.31 0.590341 -1.46126 0
M  V30 3879 C 351.557 1.34882 -1.5104 0
M  V30 3880 C 351.885 1.93849 -0.159021 0
M  V30 3881 O 351.14 1.76544 0.844436 0
M  V30 3882 C 351.439 2.5032 -2.55097 0
M  V30 3883 C 351.105 2.09394 -3.99331 0
M  V30 3884 C 349.767 1.97947 -4.38601 0
M  V30 3885 C 352.119 1.77712 -4.89967 0
M  V30 3886 C 349.447 1.53065 -5.66381 0
M  V30 3887 C 351.799 1.34312 -6.18177 0
M  V30 3888 C 350.463 1.21436 -6.56361 0
M  V30 3889 H 349.733 0.493568 -0.552695 0
M  V30 3890 H 352.38 0.665539 -1.79563 0
M  V30 3891 H 350.685 3.24062 -2.20207 0
M  V30 3892 H 352.382 3.08541 -2.56132 0
M  V30 3893 H 348.972 2.19235 -3.68285 0
M  V30 3894 H 353.156 1.85445 -4.60352 0
M  V30 3895 H 348.412 1.41733 -5.94745 0
M  V30 3896 H 352.586 1.08849 -6.87841 0
M  V30 3897 H 350.213 0.864345 -7.5527 0
M  V30 3898 N 351.788 1.33704 0.83433 0
M  V30 3899 C 352.735 1.24335 1.94447 0
M  V30 3900 C 353.705 0.120991 1.65659 0
M  V30 3901 O 354.89 0.300035 1.88426 0
M  V30 3902 C 352.03 0.993124 3.30501 0
M  V30 3903 C 351.143 2.20217 3.71657 0
M  V30 3904 C 350.278 1.88572 4.96602 0
M  V30 3905 C 349.317 3.05683 5.30306 0
M  V30 3906 N 348.454 2.73997 6.46429 0
M  V30 3907 H 353.294 2.1928 2.01792 0
M  V30 3908 H 350.831 1.09035 0.987404 0
M  V30 3909 H 352.789 0.828467 4.08892 0
M  V30 3910 H 351.419 0.0803902 3.227 0
M  V30 3911 H 350.471 2.47642 2.88752 0
M  V30 3912 H 351.783 3.07752 3.92543 0
M  V30 3913 H 350.937 1.68776 5.82752 0
M  V30 3914 H 349.676 0.982799 4.77695 0
M  V30 3915 H 348.681 3.26088 4.42659 0
M  V30 3916 H 349.906 3.96737 5.51159 0
M  V30 3917 H 347.852 1.86268 6.28999 0
M  V30 3918 H 347.769 3.55064 6.67432 0
M  V30 3919 H 349.037 2.57679 7.35678 0
M  V30 3920 N 353.266 -1.05314 1.17247 0
M  V30 3921 C 354.494 -1.81971 0.984593 0
M  V30 3922 C 354.909 -1.82929 -0.467166 0
M  V30 3923 O 354.266 -1.25564 -1.32438 0
M  V30 3924 C 354.317 -3.28143 1.51672 0
M  V30 3925 O 354.038 -3.27347 2.91163 0
M  V30 3926 C 355.539 -4.21493 1.37326 0
M  V30 3927 H 352.759 -0.573455 0.348411 0
M  V30 3928 H 355.303 -1.32808 1.55506 0
M  V30 3929 H 353.458 -3.74582 0.988302 0
M  V30 3930 H 353.872 -4.18824 3.15732 0
M  V30 3931 H 355.346 -5.22043 1.79375 0
M  V30 3932 H 355.823 -4.38031 0.320169 0
M  V30 3933 H 356.429 -3.80909 1.89178 0
M  V30 3934 N 354.744 -0.972509 -1.24016 0
M  V30 3935 C 355.691 -0.505969 -2.25186 0
M  V30 3936 C 356.661 0.451009 -1.5986 0
M  V30 3937 O 357.846 0.360307 -1.87367 0
M  V30 3938 C 354.986 0.193089 -3.44559 0
M  V30 3939 C 354.099 -0.803222 -4.24467 0
M  V30 3940 C 353.234 -0.0797793 -5.3114 0
M  V30 3941 C 352.273 -1.06583 -6.02749 0
M  V30 3942 N 351.41 -0.372074 -7.01113 0
M  V30 3943 H 356.25 -1.37351 -2.64459 0
M  V30 3944 H 353.787 -0.688419 -1.29997 0
M  V30 3945 H 355.745 0.615125 -4.1264 0
M  V30 3946 H 354.375 1.02455 -3.06109 0
M  V30 3947 H 353.427 -1.34368 -3.55878 0
M  V30 3948 H 354.739 -1.55494 -4.73944 0
M  V30 3949 H 353.893 0.400015 -6.0538 0
M  V30 3950 H 352.632 0.704597 -4.82583 0
M  V30 3951 H 351.637 -1.55645 -5.27309 0
M  V30 3952 H 352.862 -1.85074 -6.53395 0
M  V30 3953 H 350.808 0.393238 -6.5482 0
M  V30 3954 H 350.725 -1.06258 -7.48495 0
M  V30 3955 H 351.993 0.0855932 -7.79453 0
M  V30 3956 N 356.222 1.38976 -0.743202 0
M  V30 3957 C 357.154 2.29096 -0.0689228 0
M  V30 3958 C 358.167 1.47229 0.694791 0
M  V30 3959 O 359.356 1.70212 0.537597 0
M  V30 3960 C 356.456 3.25988 0.926548 0
M  V30 3961 C 355.629 4.36833 0.222647 0
M  V30 3962 C 354.688 5.13981 1.12739 0
M  V30 3963 O 353.714 5.6601 0.601795 0
M  V30 3964 N 354.916 5.25966 2.45641 0
M  V30 3965 H 357.681 2.87604 -0.842846 0
M  V30 3966 H 355.242 1.50645 -0.593109 0
M  V30 3967 H 357.234 3.74476 1.5346 0
M  V30 3968 H 355.804 2.68453 1.60162 0
M  V30 3969 H 355.024 3.90116 -0.565983 0
M  V30 3970 H 356.312 5.0811 -0.264841 0
M  V30 3971 H 355.71 4.85228 2.9081 0
M  V30 3972 H 354.267 5.77865 3.01522 0
M  V30 3973 N 357.7 0.491464 1.49741 0
M  V30 3974 C 358.648 -0.305837 2.30581 0
M  V30 3975 C 359.642 -0.971642 1.38764 0
M  V30 3976 O 360.848 -0.90042 1.5586 0
M  V30 3977 H 357.223 -0.117482 0.742767 0
M  V30 3978 H 359.194 0.396093 2.95759 0
M  V30 3979 C 357.943 -1.36319 3.19863 0
M  V30 3980 H 357.266 -0.860258 3.90435 0
M  V30 3981 H 358.706 -1.89323 3.79385 0
M  V30 3982 C 357.165 -2.37621 2.38826 0
M  V30 3983 O 357.695 -3.43311 2.08567 0
M  V30 3984 N 355.901 -2.09849 2.01026 0
M  V30 3985 H 355.448 -1.23922 2.25834 0
M  V30 3986 H 355.406 -2.77859 1.47112 0
M  V30 3987 N 359.178 -1.55987 0.224894 0
M  V30 3988 C 360.126 -2.21808 -0.700283 0
M  V30 3989 C 361.12 -1.19854 -1.19714 0
M  V30 3990 O 362.326 -1.37925 -1.15658 0
M  V30 3991 H 358.701 -0.711226 -0.244258 0
M  V30 3992 H 360.672 -2.98152 -0.121749 0
M  V30 3993 C 359.421 -2.91444 -1.8962 0
M  V30 3994 H 358.744 -3.69655 -1.52299 0
M  V30 3995 H 360.184 -3.40894 -2.52125 0
M  V30 3996 C 358.643 -1.94098 -2.75368 0
M  V30 3997 O 359.173 -1.46004 -3.74227 0
M  V30 3998 N 357.379 -1.61675 -2.41474 0
M  V30 3999 H 356.926 -2.00979 -1.61137 0
M  V30 4000 H 356.884 -0.968036 -2.99126 0
M  V30 4001 N 360.656 0.0484629 -1.57525 0
M  V30 4002 C 361.905 0.742065 -1.87553 0
M  V30 4003 C 362.218 1.77545 -0.820802 0
M  V30 4004 O 363.424 2.52027 -1.00967 0
M  V30 4005 C 361.88 1.37081 -3.32771 0
M  V30 4006 C 361.488 0.374786 -4.4643 0
M  V30 4007 C 363.232 2.04542 -3.71972 0
M  V30 4008 C 361.139 1.01077 -5.82698 0
M  V30 4009 H 360.069 0.280903 -0.699721 0
M  V30 4010 H 362.72 -0.00411877 -1.835 0
M  V30 4011 H 361.102 2.16605 -3.31509 0
M  V30 4012 H 362.276 -0.392331 -4.59127 0
M  V30 4013 H 360.591 -0.196653 -4.15935 0
M  V30 4014 H 363.188 2.52943 -4.71088 0
M  V30 4015 H 363.531 2.85515 -3.02964 0
M  V30 4016 H 364.064 1.31819 -3.75325 0
M  V30 4017 H 360.803 0.240878 -6.55057 0
M  V30 4018 H 360.323 1.74819 -5.73758 0
M  V30 4019 H 362.002 1.52383 -6.28799 0
M  V30 4020 N 362.134 1.5431 0.320358 0
M  V30 4021 C 363.097 1.83195 1.3774 0
M  V30 4022 C 364.097 0.703906 1.44575 0
M  V30 4023 O 365.287 0.972214 1.44546 0
M  V30 4024 C 362.419 1.99487 2.76438 0
M  V30 4025 H 363.612 2.77642 1.1338 0
M  V30 4026 H 361.165 1.46076 0.556012 0
M  V30 4027 H 361.9 1.07262 3.06048 0
M  V30 4028 H 361.685 2.81575 2.7287 0
M  V30 4029 H 363.175 2.23271 3.52902 0
M  V30 4030 N 363.613 -0.582584 1.46437 0
M  V30 4031 C 364.859 -1.34064 1.52965 0
M  V30 4032 C 365.214 -1.91566 0.178968 0
M  V30 4033 O 364.507 -1.73526 -0.812365 0
M  V30 4034 C 364.701 -2.48964 2.56421 0
M  V30 4035 C 364.53 -2.02717 4.01417 0
M  V30 4036 C 363.3 -1.87728 4.69134 0
M  V30 4037 C 365.498 -1.58675 4.8921 0
M  V30 4038 N 363.48 -1.35554 5.98747 0
M  V30 4039 C 364.851 -1.18093 6.08649 0
M  V30 4040 C 366.906 -1.46494 4.75861 0
M  V30 4041 C 365.609 -0.665427 7.16215 0
M  V30 4042 C 367.635 -0.96347 5.83499 0
M  V30 4043 C 366.997 -0.567432 7.02111 0
M  V30 4044 H 363.096 -0.483551 0.614575 0
M  V30 4045 H 365.68 -0.663309 1.83053 0
M  V30 4046 H 363.851 -3.1426 2.28244 0
M  V30 4047 H 365.583 -3.15913 2.52944 0
M  V30 4048 H 362.338 -2.09678 4.24655 0
M  V30 4049 H 362.762 -1.11628 6.67734 0
M  V30 4050 H 367.404 -1.75731 3.8455 0
M  V30 4051 H 365.122 -0.360639 8.07295 0
M  V30 4052 H 368.708 -0.873129 5.75211 0
M  V30 4053 H 367.588 -0.185389 7.83981 0
M  V30 4054 N 365.091 -1.34144 -0.827227 0
M  V30 4055 C 366.021 -1.28005 -1.95287 0
M  V30 4056 C 367.002 -0.158321 -1.69362 0
M  V30 4057 O 368.187 -0.349987 -1.9102 0
M  V30 4058 C 365.317 -1.03036 -3.31664 0
M  V30 4059 C 364.271 -2.11628 -3.72019 0
M  V30 4060 C 363.597 -1.71854 -5.0633 0
M  V30 4061 C 364.897 -3.53417 -3.8457 0
M  V30 4062 H 366.591 -2.22187 -2.00682 0
M  V30 4063 H 364.137 -1.0696 -0.964135 0
M  V30 4064 H 366.09 -0.973863 -4.09993 0
M  V30 4065 H 364.814 -0.0529391 -3.26557 0
M  V30 4066 H 363.473 -2.16339 -2.95961 0
M  V30 4067 H 363.121 -0.727841 -4.97706 0
M  V30 4068 H 362.821 -2.44531 -5.34302 0
M  V30 4069 H 364.345 -1.67692 -5.87122 0
M  V30 4070 H 365.759 -3.51142 -4.5318 0
M  V30 4071 H 364.156 -4.24679 -4.2399 0
M  V30 4072 H 365.226 -3.91072 -2.86689 0
M  V30 4073 N 366.569 1.04691 -1.17803 0
M  V30 4074 C 367.815 1.78045 -0.970969 0
M  V30 4075 C 368.148 1.87686 0.498751 0
M  V30 4076 O 367.423 1.38035 1.37027 0
M  V30 4077 C 367.706 3.2166 -1.61884 0
M  V30 4078 C 367.559 3.20001 -3.161 0
M  V30 4079 C 368.878 4.1962 -1.3269 0
M  V30 4080 H 365.997 0.64633 -0.354155 0
M  V30 4081 H 368.639 1.22333 -1.45378 0
M  V30 4082 H 366.789 3.69232 -1.20831 0
M  V30 4083 H 368.461 2.80467 -3.66246 0
M  V30 4084 H 366.704 2.58203 -3.48588 0
M  V30 4085 H 367.375 4.21386 -3.56564 0
M  V30 4086 H 369.851 3.80567 -1.68249 0
M  V30 4087 H 368.727 5.18339 -1.80599 0
M  V30 4088 H 368.988 4.414 -0.248622 0
M  V30 4089 N 368.047 0.979072 1.23499 0
M  V30 4090 C 368.977 0.537606 2.27227 0
M  V30 4091 C 369.958 -0.428539 1.64613 0
M  V30 4092 O 371.143 -0.322191 1.91509 0
M  V30 4093 C 368.273 -0.162052 3.46922 0
M  V30 4094 C 367.227 0.721242 4.21879 0
M  V30 4095 C 366.553 -0.110555 5.34586 0
M  V30 4096 C 367.853 2.01141 4.82016 0
M  V30 4097 H 369.547 1.40462 2.64406 0
M  V30 4098 H 367.093 0.67684 1.27102 0
M  V30 4099 H 369.046 -0.482192 4.18632 0
M  V30 4100 H 367.77 -1.06351 3.08799 0
M  V30 4101 H 366.429 1.02482 3.51984 0
M  V30 4102 H 366.077 -1.0125 4.92704 0
M  V30 4103 H 365.777 0.477325 5.85658 0
M  V30 4104 H 367.301 -0.425107 6.09118 0
M  V30 4105 H 368.715 1.75612 5.45741 0
M  V30 4106 H 367.112 2.54695 5.43369 0
M  V30 4107 H 368.182 2.69909 4.02836 0
M  V30 4108 N 369.525 -1.3858 0.750561 0
M  V30 4109 C 370.802 -1.94231 0.231009 0
M  V30 4110 C 371.182 -1.68611 -1.27018 0
M  V30 4111 O 370.53 -1.02296 -2.04323 0
M  V30 4112 C 370.74 -3.44123 0.581428 0
M  V30 4113 C 372.088 -4.2116 0.539389 0
M  V30 4114 O 373.112 -3.52391 0.519541 0
M  V30 4115 O 371.971 -5.43749 0.54765 0
M  V30 4116 H 369.065 -0.825639 0.0474263 0
M  V30 4117 H 371.611 -1.4799 0.830478 0
M  V30 4118 H 370.383 -3.56267 1.61833 0
M  V30 4119 H 370.006 -3.97573 -0.0462047 0
M  V30 4120 N 371.003 -0.499398 -1.49478 0
M  V30 4121 C 372.228 0.044722 -2.07352 0
M  V30 4122 C 372.653 1.30207 -1.35749 0
M  V30 4123 O 372.011 1.76516 -0.413732 0
M  V30 4124 C 372.059 0.283013 -3.59488 0
M  V30 4125 O 371.163 1.35804 -3.89398 0
M  V30 4126 H 370.504 -0.0255147 -0.66351 0
M  V30 4127 H 373.034 -0.698561 -1.92305 0
M  V30 4128 H 373.044 0.515007 -4.04737 0
M  V30 4129 H 371.719 -0.635636 -4.11014 0
M  V30 4130 H 370.296 1.11113 -3.55961 0
M  V30 4131 N 372.481 1.55866 -0.233164 0
M  V30 4132 C 373.727 1.98897 0.395959 0
M  V30 4133 C 374.06 1.12091 1.58585 0
M  V30 4134 O 373.335 0.181182 1.93654 0
M  V30 4135 C 373.618 3.50658 0.819224 0
M  V30 4136 C 373.471 4.48233 -0.375109 0
M  V30 4137 C 374.79 4.07135 1.67121 0
M  V30 4138 H 371.909 0.723102 0.142451 0
M  V30 4139 H 374.551 1.87082 -0.331725 0
M  V30 4140 H 372.701 3.60857 1.43925 0
M  V30 4141 H 374.373 4.50031 -1.01341 0
M  V30 4142 H 372.616 4.21624 -1.02058 0
M  V30 4143 H 373.287 5.51988 -0.0358328 0
M  V30 4144 H 375.763 3.99952 1.14795 0
M  V30 4145 H 374.639 5.13615 1.93625 0
M  V30 4146 H 374.9 3.54736 2.63846 0
M  V30 4147 N 373.959 -0.0401083 1.57549 0
M  V30 4148 C 375.205 -0.734211 1.89043 0
M  V30 4149 C 375.538 -1.75591 0.829535 0
M  V30 4150 O 374.813 -1.93868 -0.156706 0
M  V30 4151 C 375.096 -1.41374 3.31188 0
M  V30 4152 C 374.949 -0.406299 4.47961 0
M  V30 4153 C 376.268 -2.35061 3.72068 0
M  V30 4154 H 373.387 -0.265447 0.687537 0
M  V30 4155 H 376.029 0.00294087 1.9 0
M  V30 4156 H 374.179 -2.04206 3.30503 0
M  V30 4157 H 375.851 0.219255 4.60779 0
M  V30 4158 H 374.094 0.275485 4.32924 0
M  V30 4159 H 374.765 -0.920022 5.44279 0
M  V30 4160 H 377.241 -1.82282 3.74049 0
M  V30 4161 H 376.117 -2.79593 4.72355 0
M  V30 4162 H 376.378 -3.21258 3.0372 0
M  V30 4163 N 375.437 -1.54477 -0.31217 0
M  V30 4164 C 376.714 -1.63891 -1.06767 0
M  V30 4165 C 377.094 -0.480028 -2.0557 0
M  V30 4166 O 376.442 0.524487 -2.22399 0
M  V30 4167 C 376.652 -3.01402 -1.75948 0
M  V30 4168 C 378 -3.57838 -2.28554 0
M  V30 4169 O 379.024 -3.03782 -1.85998 0
M  V30 4170 O 377.883 -4.52462 -3.06497 0
M  V30 4171 H 374.977 -0.664125 -0.492816 0
M  V30 4172 H 377.523 -1.66823 -0.311149 0
M  V30 4173 H 376.295 -3.77187 -1.04144 0
M  V30 4174 H 375.918 -3.02199 -2.58383 0
M  V30 4175 N 376.915 0.57481 -1.46744 0
M  V30 4176 C 378.161 1.3347 -1.52688 0
M  V30 4177 C 378.494 1.93353 -0.181229 0
M  V30 4178 O 377.769 1.76912 0.808237 0
M  V30 4179 C 378.052 2.45811 -2.63152 0
M  V30 4180 C 377.905 1.90912 -4.07275 0
M  V30 4181 C 379.224 3.47822 -2.69644 0
M  V30 4182 H 376.343 0.483935 -0.555856 0
M  V30 4183 H 378.985 0.644968 -1.78718 0
M  V30 4184 H 377.135 3.04646 -2.41088 0
M  V30 4185 H 378.807 1.36473 -4.4065 0
M  V30 4186 H 377.05 1.21691 -4.16382 0
M  V30 4187 H 377.721 2.72042 -4.80309 0
M  V30 4188 H 380.197 2.9888 -2.895 0
M  V30 4189 H 379.073 4.23876 -3.48742 0
M  V30 4190 H 379.334 4.05555 -1.76005 0
M  V30 4191 N 378.394 1.34581 0.820102 0
M  V30 4192 C 379.643 1.26437 1.57151 0
M  V30 4193 C 379.956 -0.163111 1.94919 0
M  V30 4194 O 381.162 -0.366722 2.69012 0
M  V30 4195 C 379.618 2.21658 2.83541 0
M  V30 4196 C 379.226 3.69679 2.53065 0
M  V30 4197 C 380.97 2.22428 3.61561 0
M  V30 4198 C 378.877 4.56761 3.75664 0
M  V30 4199 H 377.807 0.469707 0.589823 0
M  V30 4200 H 380.458 1.59763 0.902656 0
M  V30 4201 H 378.84 1.81287 3.52067 0
M  V30 4202 H 380.014 4.18605 1.92631 0
M  V30 4203 H 378.329 3.71384 1.88316 0
M  V30 4204 H 380.926 2.8471 4.52597 0
M  V30 4205 H 381.269 1.22434 3.97889 0
M  V30 4206 H 381.802 2.61259 2.99981 0
M  V30 4207 H 378.541 5.57702 3.44454 0
M  V30 4208 H 378.061 4.12568 4.35371 0
M  V30 4209 H 379.74 4.71509 4.43044 0
M  V30 4210 N 379.872 -1.04064 1.18357 0
M  V30 4211 C 381.119 -1.77265 0.978947 0
M  V30 4212 C 381.447 -1.88189 -0.491428 0
M  V30 4213 O 380.702 -1.38653 -1.38108 0
M  V30 4214 C 381.001 -3.20634 1.57888 0
M  V30 4215 C 380.667 -3.29743 3.07539 0
M  V30 4216 C 379.329 -3.31937 3.48384 0
M  V30 4217 C 381.681 -3.29841 4.03552 0
M  V30 4218 C 379.009 -3.3187 4.83818 0
M  V30 4219 C 381.361 -3.31313 5.38901 0
M  V30 4220 C 380.025 -3.31799 5.79194 0
M  V30 4221 H 379.295 -0.648659 0.358222 0
M  V30 4222 H 381.942 -1.22225 1.47422 0
M  V30 4223 H 380.247 -3.78675 1.00561 0
M  V30 4224 H 381.944 -3.75917 1.39598 0
M  V30 4225 H 378.534 -3.28757 2.74986 0
M  V30 4226 H 382.718 -3.27337 3.73047 0
M  V30 4227 H 377.974 -3.30562 5.14333 0
M  V30 4228 H 382.148 -3.30338 6.13066 0
M  V30 4229 H 379.775 -3.315 6.84114 0
M  V30 4230 N 381.35 -0.985608 -1.22978 0
M  V30 4231 C 382.28 -0.549649 -2.26939 0
M  V30 4232 C 383.261 0.419803 -1.64838 0
M  V30 4233 O 384.446 0.31203 -1.91677 0
M  V30 4234 C 381.576 0.143652 -3.47003 0
M  V30 4235 C 380.53 -0.743606 -4.21491 0
M  V30 4236 C 379.856 0.0822027 -5.34637 0
M  V30 4237 C 381.156 -2.03694 -4.80943 0
M  V30 4238 H 382.85 -1.41862 -2.63658 0
M  V30 4239 H 380.396 -0.683571 -1.26741 0
M  V30 4240 H 382.349 0.459985 -4.18882 0
M  V30 4241 H 381.073 1.04711 -3.09359 0
M  V30 4242 H 379.732 -1.04347 -3.51436 0
M  V30 4243 H 379.38 0.986359 -4.93234 0
M  V30 4244 H 379.08 -0.508377 -5.85397 0
M  V30 4245 H 380.604 0.392797 -6.09335 0
M  V30 4246 H 382.018 -1.78504 -5.44802 0
M  V30 4247 H 380.415 -2.57573 -5.42011 0
M  V30 4248 H 381.485 -2.72042 -4.01399 0
M  V30 4249 N 382.828 1.3818 -0.7579 0
M  V30 4250 C 384.074 2.00316 -0.316453 0
M  V30 4251 C 384.407 1.60026 1.10025 0
M  V30 4252 O 383.682 0.839835 1.75434 0
M  V30 4253 C 383.965 3.57349 -0.444245 0
M  V30 4254 C 383.818 4.07591 -1.90236 0
M  V30 4255 C 385.137 4.3981 0.1598 0
M  V30 4256 H 382.256 0.727741 -0.116459 0
M  V30 4257 H 384.898 1.6406 -0.958352 0
M  V30 4258 H 383.048 3.88365 0.102233 0
M  V30 4259 H 384.72 3.87199 -2.50748 0
M  V30 4260 H 382.963 3.60297 -2.41595 0
M  V30 4261 H 383.634 5.16677 -1.94291 0
M  V30 4262 H 386.11 4.14971 -0.306314 0
M  V30 4263 H 384.986 5.48885 0.0401675 0
M  V30 4264 H 385.247 4.24102 1.24859 0
M  V30 4265 N 384.306 0.507319 1.49211 0
M  V30 4266 C 385.583 -0.0982702 1.95353 0
M  V30 4267 C 385.963 -1.53516 1.449 0
M  V30 4268 O 385.311 -2.18594 0.66551 0
M  V30 4269 C 385.521 -0.00440283 3.49 0
M  V30 4270 C 386.869 -0.175147 4.24239 0
M  V30 4271 O 387.893 -0.0792891 3.56112 0
M  V30 4272 O 386.752 -0.37276 5.45227 0
M  V30 4273 H 383.846 -0.0918236 0.821887 0
M  V30 4274 H 386.392 0.570307 1.5983 0
M  V30 4275 H 385.164 0.997402 3.78375 0
M  V30 4276 H 384.787 -0.712845 3.91158 0
M  V30 4277 N 385.784 -1.5574 0.241426 0
M  V30 4278 C 387.033 -1.97986 -0.385295 0
M  V30 4279 C 387.346 -1.13267 -1.59468 0
M  V30 4280 O 388.552 -1.45501 -2.2922 0
M  V30 4281 C 387.008 -3.52275 -0.736884 0
M  V30 4282 C 386.616 -4.45726 0.450796 0
M  V30 4283 C 388.36 -4.03189 -1.3281 0
M  V30 4284 C 386.267 -5.91352 0.0756662 0
M  V30 4285 H 385.197 -0.739386 -0.147731 0
M  V30 4286 H 387.848 -1.80308 0.340779 0
M  V30 4287 H 386.23 -3.65628 -1.52094 0
M  V30 4288 H 387.404 -4.44131 1.22819 0
M  V30 4289 H 385.719 -4.05264 0.956573 0
M  V30 4290 H 388.316 -5.09505 -1.62201 0
M  V30 4291 H 388.659 -3.50212 -2.25071 0
M  V30 4292 H 389.192 -3.93141 -0.607069 0
M  V30 4293 H 385.931 -6.48354 0.965272 0
M  V30 4294 H 385.451 -5.96095 -0.665635 0
M  V30 4295 H 387.13 -6.46084 -0.344075 0
M  V30 4296 N 387.262 0.0317525 -1.57568 0
M  V30 4297 C 388.508 0.724175 -1.8943 0
M  V30 4298 C 388.841 1.75149 -0.838836 0
M  V30 4299 O 388.116 1.93948 0.146422 0
M  V30 4300 C 388.399 1.39615 -3.31933 0
M  V30 4301 C 388.252 0.382537 -4.4817 0
M  V30 4302 C 389.571 2.33084 -3.73309 0
M  V30 4303 H 386.69 0.261797 -0.688935 0
M  V30 4304 H 389.332 -0.013017 -1.89996 0
M  V30 4305 H 387.482 2.02451 -3.31581 0
M  V30 4306 H 389.154 -0.243689 -4.60656 0
M  V30 4307 H 387.397 -0.29844 -4.32772 0
M  V30 4308 H 388.068 0.891145 -5.44759 0
M  V30 4309 H 390.544 1.80295 -3.7501 0
M  V30 4310 H 389.42 2.77084 -4.73831 0
M  V30 4311 H 389.681 3.19643 -3.05419 0
M  V30 4312 N 388.74 1.54641 0.303973 0
M  V30 4313 C 389.67 1.88386 1.3796 0
M  V30 4314 C 390.651 0.742485 1.5304 0
M  V30 4315 O 391.836 0.997959 1.66597 0
M  V30 4316 C 388.966 2.12854 2.74427 0
M  V30 4317 C 387.92 3.28702 2.74115 0
M  V30 4318 C 387.246 3.38582 4.13844 0
M  V30 4319 C 388.546 4.65881 2.3612 0
M  V30 4320 H 390.24 2.78474 1.09966 0
M  V30 4321 H 387.786 1.33988 0.527556 0
M  V30 4322 H 389.739 2.35047 3.49758 0
M  V30 4323 H 388.463 1.19535 3.03939 0
M  V30 4324 H 387.122 3.06428 2.0124 0
M  V30 4325 H 386.77 2.42784 4.40528 0
M  V30 4326 H 386.47 4.16453 4.14537 0
M  V30 4327 H 387.994 3.63031 4.90959 0
M  V30 4328 H 389.408 4.87823 3.01167 0
M  V30 4329 H 387.805 5.46444 2.48031 0
M  V30 4330 H 388.875 4.66799 1.3125 0
M  V30 4331 N 390.218 -0.567019 1.47046 0
M  V30 4332 C 391.166 -1.69593 1.59188 0
M  V30 4333 C 392.16 -1.63046 0.459609 0
M  V30 4334 O 393.366 -1.6835 0.637058 0
M  V30 4335 H 389.741 -0.560993 0.500791 0
M  V30 4336 H 391.712 -1.56488 2.54075 0
M  V30 4337 C 390.461 -3.07964 1.61411 0
M  V30 4338 H 389.784 -3.13679 2.47881 0
M  V30 4339 H 391.224 -3.86671 1.73958 0
M  V30 4340 C 389.683 -3.35123 0.34559 0
M  V30 4341 O 390.213 -3.97812 -0.557521 0
M  V30 4342 N 388.419 -2.89699 0.22864 0
M  V30 4343 H 387.966 -2.38863 0.964479 0
M  V30 4344 H 387.924 -3.08242 -0.619192 0
M  V30 4345 N 391.696 -1.35014 -0.812953 0
M  V30 4346 C 392.943 -1.27931 -1.56971 0
M  V30 4347 C 393.271 0.148034 -1.93936 0
M  V30 4348 O 392.526 1.11175 -1.61054 0
M  V30 4349 C 392.825 -2.12524 -2.87347 0
M  V30 4350 C 392.491 -3.61401 -2.6963 0
M  V30 4351 C 391.153 -4.01983 -2.64506 0
M  V30 4352 C 393.505 -4.55894 -2.52607 0
M  V30 4353 C 390.833 -5.35235 -2.40293 0
M  V30 4354 C 393.185 -5.89336 -2.29925 0
M  V30 4355 C 391.849 -6.2907 -2.23219 0
M  V30 4356 H 391.119 -0.468131 -0.574399 0
M  V30 4357 H 393.766 -1.66851 -0.939836 0
M  V30 4358 H 392.071 -1.66463 -3.54679 0
M  V30 4359 H 393.768 -2.04383 -3.45005 0
M  V30 4360 H 390.358 -3.29193 -2.74463 0
M  V30 4361 H 394.542 -4.25431 -2.55583 0
M  V30 4362 H 389.798 -5.65028 -2.33566 0
M  V30 4363 H 393.972 -6.62139 -2.15743 0
M  V30 4364 H 391.599 -7.32256 -2.04219 0
M  V30 4365 N 393.175 1.03435 -1.18907 0
M  V30 4366 C 394.125 2.09924 -0.889706 0
M  V30 4367 C 395.109 1.60261 0.143216 0
M  V30 4368 O 396.301 1.76892 -0.0617122 0
M  V30 4369 C 393.43 3.40669 -0.424168 0
M  V30 4370 C 392.516 3.97082 -1.48952 0
M  V30 4371 N 392.907 4.27227 -2.70759 0
M  V30 4372 C 391.205 4.25029 -1.35152 0
M  V30 4373 C 391.906 4.7246 -3.39347 0
M  V30 4374 N 390.882 4.7366 -2.66735 0
M  V30 4375 H 394.684 2.31116 -1.81555 0
M  V30 4376 H 392.198 1.21246 -1.08042 0
M  V30 4377 H 394.195 4.16461 -0.191176 0
M  V30 4378 H 392.855 3.20901 0.495263 0
M  V30 4379 H 393.866 4.16678 -3.0757 0
M  V30 4380 H 390.543 4.14554 -0.495126 0
M  V30 4381 H 391.933 5.04751 -4.43481 0
M  V30 4382 N 394.653 0.992116 1.22453 0
M  V30 4383 C 395.881 0.685944 1.95198 0
M  V30 4384 C 396.296 -0.749233 1.73297 0
M  V30 4385 O 395.653 -1.50549 1.03156 0
M  V30 4386 C 395.704 0.981395 3.47924 0
M  V30 4387 O 395.425 2.36018 3.6909 0
M  V30 4388 C 396.926 0.692815 4.37853 0
M  V30 4389 H 394.146 0.253821 0.621141 0
M  V30 4390 H 396.69 1.32668 1.55626 0
M  V30 4391 H 394.845 0.386481 3.85467 0
M  V30 4392 H 395.259 2.45884 4.63294 0
M  V30 4393 H 396.733 0.949818 5.43767 0
M  V30 4394 H 397.21 -0.373181 4.37612 0
M  V30 4395 H 397.816 1.26874 4.05935 0
M  V30 4396 N 396.131 -1.37776 0.765217 0
M  V30 4397 C 397.359 -2.04124 0.337767 0
M  V30 4398 C 397.774 -1.57715 -1.03785 0
M  V30 4399 O 397.131 -0.755447 -1.6613 0
M  V30 4400 C 397.182 -3.59658 0.364442 0
M  V30 4401 O 396.903 -4.04367 1.68579 0
M  V30 4402 C 398.404 -4.43236 -0.0754221 0
M  V30 4403 H 395.624 -0.655696 0.142491 0
M  V30 4404 H 398.168 -1.76238 1.03732 0
M  V30 4405 H 396.323 -3.86339 -0.286471 0
M  V30 4406 H 396.737 -4.98857 1.61993 0
M  V30 4407 H 398.211 -5.52 -0.00560067 0
M  V30 4408 H 398.688 -4.2455 -1.12491 0
M  V30 4409 H 399.294 -4.21767 0.547055 0
M  V30 4410 N 397.609 -0.515225 -1.4894 0
M  V30 4411 C 398.856 0.024215 -2.02486 0
M  V30 4412 C 399.184 1.35671 -1.39368 0
M  V30 4413 O 398.439 1.88566 -0.523574 0
M  V30 4414 C 398.738 0.210595 -3.56779 0
M  V30 4415 C 398.404 -1.04569 -4.38607 0
M  V30 4416 C 397.066 -1.39002 -4.60686 0
M  V30 4417 C 399.418 -1.88008 -4.86109 0
M  V30 4418 C 396.746 -2.568 -5.27514 0
M  V30 4419 C 399.098 -3.04972 -5.54234 0
M  V30 4420 C 397.762 -3.39768 -5.74555 0
M  V30 4421 H 397.032 0.00886088 -0.740947 0
M  V30 4422 H 399.679 -0.678263 -1.79086 0
M  V30 4423 H 397.984 0.99572 -3.78936 0
M  V30 4424 H 399.681 0.642659 -3.95817 0
M  V30 4425 H 396.271 -0.767497 -4.21672 0
M  V30 4426 H 400.455 -1.62719 -4.68867 0
M  V30 4427 H 395.711 -2.8398 -5.41447 0
M  V30 4428 H 399.885 -3.69943 -5.90013 0
M  V30 4429 H 397.512 -4.31148 -6.26112 0
M  V30 4430 N 399.087 1.5561 -0.249682 0
M  V30 4431 C 400.333 1.99306 0.374841 0
M  V30 4432 C 400.666 1.13767 1.57387 0
M  V30 4433 O 399.941 0.201711 1.93451 0
M  V30 4434 C 400.224 3.51507 0.781986 0
M  V30 4435 C 400.077 4.4781 -0.422629 0
M  V30 4436 C 401.396 4.08884 1.62793 0
M  V30 4437 H 398.515 0.724572 0.134773 0
M  V30 4438 H 401.157 1.86719 -0.351549 0
M  V30 4439 H 399.307 3.62363 1.4009 0
M  V30 4440 H 400.979 4.48931 -1.06108 0
M  V30 4441 H 399.222 4.20518 -1.06524 0
M  V30 4442 H 399.893 5.51919 -0.0943766 0
M  V30 4443 H 402.369 4.01147 1.10547 0
M  V30 4444 H 401.245 5.1564 1.88166 0
M  V30 4445 H 401.506 3.57515 2.60068 0
M  V30 4446 N 400.565 -0.0233959 1.57583 0
M  V30 4447 C 401.813 -0.711654 1.89156 0
M  V30 4448 C 402.134 -1.75591 0.848096 0
M  V30 4449 O 401.404 -1.95547 -0.117566 0
M  V30 4450 H 399.984 -0.265835 0.698098 0
M  V30 4451 H 402.646 0.0119948 1.94896 0
M  V30 4452 H 401.742 -1.19766 2.88206 0
M  V30 4453 N 402.043 -1.548 -0.295768 0
M  V30 4454 C 403.454 -1.65274 -0.868411 0
M  V30 4455 C 403.805 -0.56481 -1.87894 0
M  V30 4456 O 402.93 0.29767 -2.14343 0
M  V30 4457 C 403.525 -2.99603 -1.58188 0
M  V30 4458 C 402.084 -3.12181 -2.10286 0
M  V30 4459 C 401.231 -2.6098 -0.93727 0
M  V30 4460 H 404.182 -1.58534 -0.0726422 0
M  V30 4461 H 404.203 -2.91319 -2.44772 0
M  V30 4462 H 403.715 -3.78764 -0.846151 0
M  V30 4463 H 401.816 -2.3775 -2.8689 0
M  V30 4464 H 401.929 -4.18415 -2.33379 0
M  V30 4465 H 400.293 -2.17564 -1.32431 0
M  V30 4466 H 401.076 -3.42623 -0.215414 0
M  V30 4467 N 403.521 0.559213 -1.47345 0
M  V30 4468 C 404.769 1.31388 -1.53563 0
M  V30 4469 C 405.09 1.93985 -0.198678 0
M  V30 4470 O 404.36 1.79825 0.777167 0
M  V30 4471 H 402.94 0.487901 -0.565652 0
M  V30 4472 H 405.602 0.65315 -1.8363 0
M  V30 4473 H 404.698 2.10844 -2.30111 0
M  V30 4474 N 404.999 1.35443 0.805782 0
M  V30 4475 C 406.247 1.28507 1.55982 0
M  V30 4476 C 406.568 -0.140046 1.94496 0
M  V30 4477 O 405.838 -1.07666 1.63661 0
M  V30 4478 H 404.418 0.472676 0.578434 0
M  V30 4479 H 407.08 1.69555 0.961098 0
M  V30 4480 H 406.176 1.90148 2.47488 0
M  V30 4481 N 406.477 -1.02803 1.19454 0
M  V30 4482 C 407.387 -2.14575 0.948408 0
M  V30 4483 C 408.403 -1.73757 -0.091871 0
M  V30 4484 O 409.579 -2.01185 0.0929654 0
M  V30 4485 C 406.644 -3.43202 0.491265 0
M  V30 4486 C 405.705 -3.98328 1.60103 0
M  V30 4487 C 404.938 -5.20816 1.16561 0
M  V30 4488 O 405.161 -5.70392 0.0295238 0
M  V30 4489 O 404.095 -5.68801 1.96849 0
M  V30 4490 H 407.921 -2.38202 1.88397 0
M  V30 4491 H 405.506 -1.12989 0.977433 0
M  V30 4492 H 407.388 -4.20687 0.245015 0
M  V30 4493 H 406.063 -3.21018 -0.415851 0
M  V30 4494 H 404.97 -3.22174 1.90144 0
M  V30 4495 H 406.303 -4.24879 2.48473 0
M  V30 4496 N 407.956 -0.998596 -1.21925 0
M  V30 4497 C 409.202 -0.678667 -1.91107 0
M  V30 4498 C 409.535 0.78791 -1.77498 0
M  V30 4499 O 408.81 1.57043 -1.1475 0
M  V30 4500 C 409.093 -1.09245 -3.43129 0
M  V30 4501 C 408.946 -2.61801 -3.6576 0
M  V30 4502 C 410.265 -0.649984 -4.35274 0
M  V30 4503 H 407.384 -0.248025 -0.694012 0
M  V30 4504 H 410.026 -1.24314 -1.43688 0
M  V30 4505 H 408.176 -0.612171 -3.83647 0
M  V30 4506 H 409.848 -3.17543 -3.34611 0
M  V30 4507 H 408.091 -3.03609 -3.09845 0
M  V30 4508 H 408.762 -2.85804 -4.7225 0
M  V30 4509 H 411.238 -1.0626 -4.02303 0
M  V30 4510 H 410.114 -0.967743 -5.40302 0
M  V30 4511 H 410.375 0.449139 -4.39813 0
M  V30 4512 N 409.434 1.37368 -0.772513 0
M  V30 4513 C 410.683 1.98918 -0.333861 0
M  V30 4514 C 410.996 1.62017 1.09589 0
M  V30 4515 O 412.202 2.16676 1.63596 0
M  V30 4516 C 410.658 3.55735 -0.545971 0
M  V30 4517 C 410.266 4.01573 -1.98603 0
M  V30 4518 C 412.01 4.24156 -0.170979 0
M  V30 4519 C 409.917 5.51102 -2.1457 0
M  V30 4520 H 408.847 0.744214 -0.121085 0
M  V30 4521 H 411.498 1.56888 -0.95175 0
M  V30 4522 H 409.88 3.95748 0.141387 0
M  V30 4523 H 411.054 3.72803 -2.7084 0
M  V30 4524 H 409.369 3.45937 -2.31769 0
M  V30 4525 H 411.966 5.34024 -0.26878 0
M  V30 4526 H 412.309 4.06917 0.878855 0
M  V30 4527 H 412.842 3.89447 -0.810914 0
M  V30 4528 H 409.581 5.73268 -3.17875 0
M  V30 4529 H 409.101 5.81554 -1.46817 0
M  V30 4530 H 410.78 6.17083 -1.94468 0
M  V30 4531 N 410.912 0.523116 1.48665 0
M  V30 4532 C 412.137 -0.0117284 2.07397 0
M  V30 4533 C 412.562 -1.28031 1.37803 0
M  V30 4534 O 411.92 -1.75836 0.441762 0
M  V30 4535 C 411.968 -0.225786 3.59892 0
M  V30 4536 O 411.072 -1.29592 3.91509 0
M  V30 4537 H 410.413 0.0360673 0.66302 0
M  V30 4538 H 412.943 0.729066 1.9117 0
M  V30 4539 H 412.953 -0.450552 4.05505 0
M  V30 4540 H 411.628 0.700944 4.09951 0
M  V30 4541 H 410.205 -1.05436 3.57684 0
M  V30 4542 N 412.39 -1.55475 0.257931 0
M  V30 4543 C 413.667 -1.91155 -0.414629 0
M  V30 4544 C 414.047 -1.18008 -1.75035 0
M  V30 4545 O 413.395 -0.301193 -2.26506 0
M  V30 4546 C 413.605 -3.44283 -0.571859 0
M  V30 4547 C 414.953 -4.15744 -0.862678 0
M  V30 4548 O 415.977 -3.50083 -0.657314 0
M  V30 4549 O 414.836 -5.31909 -1.2544 0
M  V30 4550 H 411.93 -0.796016 -0.22425 0
M  V30 4551 H 414.476 -1.66976 0.302814 0
M  V30 4552 H 413.248 -3.89558 0.368844 0
M  V30 4553 H 412.871 -3.7436 -1.33943 0
M  V30 4554 N 413.868 0.0150385 -1.57593 0
M  V30 4555 C 415.279 0.559832 -1.78109 0
M  V30 4556 C 415.63 1.74814 -0.890756 0
M  V30 4557 O 414.755 2.16216 -0.0892482 0
M  V30 4558 C 415.35 1.02238 -3.23006 0
M  V30 4559 C 413.909 1.51258 -3.44671 0
M  V30 4560 C 413.056 0.456955 -2.73509 0
M  V30 4561 H 416.007 -0.211169 -1.57289 0
M  V30 4562 H 416.028 1.88912 -3.30292 0
M  V30 4563 H 415.54 0.157302 -3.87781 0
M  V30 4564 H 413.641 2.39905 -2.8509 0
M  V30 4565 H 413.754 1.55042 -4.5332 0
M  V30 4566 H 412.118 0.915196 -2.37689 0
M  V30 4567 H 412.901 -0.398896 -3.40975 0
M  V30 4568 N 415.346 1.54954 0.287554 0
M  V30 4569 C 416.293 1.86834 1.35505 0
M  V30 4570 C 417.263 0.718452 1.49758 0
M  V30 4571 O 418.448 0.968358 1.644 0
M  V30 4572 C 415.588 2.13303 2.71286 0
M  V30 4573 C 414.701 3.40883 2.65373 0
M  V30 4574 C 413.836 3.57125 3.93236 0
M  V30 4575 C 412.875 4.78449 3.81776 0
M  V30 4576 N 412.012 4.91426 5.01443 0
M  V30 4577 H 416.852 2.77889 1.07619 0
M  V30 4578 H 414.389 1.37593 0.520241 0
M  V30 4579 H 416.347 2.26646 3.50267 0
M  V30 4580 H 414.977 1.25499 2.97405 0
M  V30 4581 H 414.029 3.36088 1.78182 0
M  V30 4582 H 415.341 4.29993 2.52799 0
M  V30 4583 H 414.495 3.70207 4.80658 0
M  V30 4584 H 413.234 2.66173 4.0866 0
M  V30 4585 H 412.239 4.65386 2.92738 0
M  V30 4586 H 413.464 5.70822 3.67884 0
M  V30 4587 H 411.41 4.03401 5.17304 0
M  V30 4588 H 411.327 5.74559 4.91343 0
M  V30 4589 H 412.595 5.08879 5.90477 0
M  V30 4590 N 416.824 -0.551391 1.4764 0
M  V30 4591 C 417.754 -1.66757 1.63445 0
M  V30 4592 C 418.735 -1.63077 0.483742 0
M  V30 4593 O 419.92 -1.80607 0.71377 0
M  V30 4594 C 417.05 -3.05387 1.65396 0
M  V30 4595 C 416.004 -3.23918 2.79752 0
M  V30 4596 C 415.33 -4.63393 2.66779 0
M  V30 4597 C 416.63 -3.08735 4.21284 0
M  V30 4598 H 418.324 -1.53786 2.56886 0
M  V30 4599 H 415.87 -0.738415 1.23626 0
M  V30 4600 H 417.823 -3.83325 1.75043 0
M  V30 4601 H 416.547 -3.19332 0.685195 0
M  V30 4602 H 415.206 -2.48391 2.69625 0
M  V30 4603 H 414.854 -4.74144 1.67918 0
M  V30 4604 H 414.554 -4.7674 3.43501 0
M  V30 4605 H 416.078 -5.43458 2.78364 0
M  V30 4606 H 417.492 -3.76484 4.32357 0
M  V30 4607 H 415.889 -3.33588 4.98838 0
M  V30 4608 H 416.959 -2.0541 4.39243 0
M  V30 4609 N 418.302 -1.35869 -0.798587 0
M  V30 4610 C 419.551 -1.28921 -1.5512 0
M  V30 4611 C 419.864 0.13208 -1.95154 0
M  V30 4612 O 421.07 0.323879 -2.69561 0
M  V30 4613 C 419.526 -2.26141 -2.79979 0
M  V30 4614 C 419.134 -3.73658 -2.47151 0
M  V30 4615 C 420.878 -2.28152 -3.57976 0
M  V30 4616 C 418.785 -4.62679 -3.6835 0
M  V30 4617 H 417.715 -0.479031 -0.582276 0
M  V30 4618 H 420.366 -1.61179 -0.877125 0
M  V30 4619 H 418.748 -1.86865 -3.49138 0
M  V30 4620 H 419.922 -4.21616 -1.85947 0
M  V30 4621 H 418.237 -3.74333 -1.82383 0
M  V30 4622 H 420.834 -2.91875 -4.4801 0
M  V30 4623 H 421.177 -1.28748 -3.95891 0
M  V30 4624 H 421.71 -2.65998 -2.95787 0
M  V30 4625 H 418.449 -5.63111 -3.35538 0
M  V30 4626 H 417.969 -4.19442 -4.28752 0
M  V30 4627 H 419.648 -4.78498 -4.35487 0
M  V30 4628 N 419.78 1.02168 -1.19998 0
M  V30 4629 C 421.196 1.27969 -0.953737 0
M  V30 4630 C 421.396 1.98079 0.369703 0
M  V30 4631 O 420.452 2.27306 1.09947 0
M  V30 4632 C 421.765 2.11971 -2.13281 0
M  V30 4633 C 423.313 2.25255 -2.17323 0
M  V30 4634 C 423.788 3.12632 -3.34702 0
M  V30 4635 N 425.279 3.2022 -3.34684 0
M  V30 4636 C 426.014 3.88039 -4.22153 0
M  V30 4637 N 425.51 4.58027 -5.19791 0
M  V30 4638 N 427.303 3.84511 -4.10009 0
M  V30 4639 H 419.454 0.550794 -2.05134 0
M  V30 4640 H 421.717 0.305683 -0.897364 0
M  V30 4641 H 421.423 1.67785 -3.09097 0
M  V30 4642 H 421.297 3.12699 -2.10949 0
M  V30 4643 H 423.684 2.68667 -1.22073 0
M  V30 4644 H 423.765 1.24053 -2.23706 0
M  V30 4645 H 423.409 2.69926 -4.30235 0
M  V30 4646 H 423.339 4.13909 -3.25556 0
M  V30 4647 H 425.83 2.70382 -2.64012 0
M  V30 4648 H 426.143 5.07429 -5.82868 0
M  V30 4649 H 424.488 4.56869 -5.23733 0
M  V30 4650 H 427.679 3.28978 -3.33003 0
M  V30 4651 H 427.852 4.3709 -4.78389 0
M  V30 4652 N 421.258 1.00505 1.21394 0
M  V30 4653 C 422.191 0.51032 2.22421 0
M  V30 4654 C 423.169 -0.436 1.56645 0
M  V30 4655 O 424.353 -0.358709 1.85055 0
M  V30 4656 C 421.48 -0.258733 3.3771 0
M  V30 4657 C 420.526 0.635395 4.2174 0
M  V30 4658 S 421.359 2.09783 4.92698 0
M  V30 4659 C 422.515 1.33862 6.11418 0
M  V30 4660 H 422.748 1.36637 2.64041 0
M  V30 4661 H 420.281 0.812991 1.31262 0
M  V30 4662 H 422.239 -0.696372 4.0455 0
M  V30 4663 H 420.9 -1.0902 2.94573 0
M  V30 4664 H 420.093 0.0430189 5.03982 0
M  V30 4665 H 419.695 1.01031 3.60095 0
M  V30 4666 H 421.987 0.612541 6.74725 0
M  V30 4667 H 422.93 2.13675 6.75092 0
M  V30 4668 H 423.338 0.846568 5.58116 0
M  V30 4669 N 422.737 -1.36956 0.779787 0
M  V30 4670 C 423.685 -2.32053 0.15942 0
M  V30 4671 C 424.679 -1.55333 -0.675878 0
M  V30 4672 O 425.885 -1.70668 -0.57204 0
M  V30 4673 H 422.26 -0.751286 0.0327707 0
M  V30 4674 H 424.231 -2.8195 0.977078 0
M  V30 4675 C 422.98 -3.40602 -0.698977 0
M  V30 4676 H 422.303 -3.99746 -0.0655966 0
M  V30 4677 H 423.743 -4.09486 -1.09989 0
M  V30 4678 C 422.202 -2.81359 -1.85307 0
M  V30 4679 O 422.732 -2.72751 -2.94906 0
M  V30 4680 N 420.938 -2.38786 -1.65619 0
M  V30 4681 H 420.485 -2.45987 -0.764725 0
M  V30 4682 H 420.443 -1.99493 -2.43002 0
M  V30 4683 N 424.215 -0.530993 -1.48385 0
M  V30 4684 C 425.445 -0.00133928 -2.066 0
M  V30 4685 C 425.853 1.28599 -1.38777 0
M  V30 4686 O 425.196 1.77599 -0.469495 0
M  V30 4687 C 425.258 0.292137 -3.58311 0
M  V30 4688 C 424.922 -0.901864 -4.48013 0
M  V30 4689 C 425.919 -1.80053 -4.87726 0
M  V30 4690 C 423.604 -1.10915 -4.89901 0
M  V30 4691 C 425.598 -2.89038 -5.68098 0
M  V30 4692 C 423.285 -2.20213 -5.70043 0
M  V30 4693 C 424.283 -3.09107 -6.0905 0
M  V30 4694 O 423.971 -4.16514 -6.87583 0
M  V30 4695 H 423.703 -0.0308475 -0.675296 0
M  V30 4696 H 426.257 -0.736335 -1.91748 0
M  V30 4697 H 424.487 1.08112 -3.7128 0
M  V30 4698 H 426.176 0.763994 -3.98645 0
M  V30 4699 H 426.942 -1.65234 -4.55986 0
M  V30 4700 H 422.821 -0.426498 -4.59023 0
M  V30 4701 H 426.365 -3.58451 -5.98464 0
M  V30 4702 H 422.262 -2.35016 -6.01197 0
M  V30 4703 H 423.03 -4.14237 -7.05939 0
M  V30 4704 N 425.693 1.55336 -0.266172 0
M  V30 4705 C 426.623 2.25146 0.618981 0
M  V30 4706 C 427.604 1.23845 1.16604 0
M  V30 4707 O 428.789 1.52544 1.20183 0
M  V30 4708 C 425.919 2.96572 1.80728 0
M  V30 4709 C 424.873 4.04726 1.39215 0
M  V30 4710 C 424.199 4.63678 2.66283 0
M  V30 4711 C 425.499 5.19407 0.548942 0
M  V30 4712 H 427.193 2.99377 0.0368116 0
M  V30 4713 H 424.739 1.43991 0.0162651 0
M  V30 4714 H 426.692 3.44116 2.43232 0
M  V30 4715 H 425.416 2.19861 2.41514 0
M  V30 4716 H 424.075 3.57979 0.790351 0
M  V30 4717 H 423.723 3.83646 3.25308 0
M  V30 4718 H 423.423 5.367 2.39222 0
M  V30 4719 H 424.947 5.13967 3.29651 0
M  V30 4720 H 426.361 5.63059 1.07876 0
M  V30 4721 H 424.758 5.98936 0.373593 0
M  V30 4722 H 425.828 4.8295 -0.434394 0
M  V30 4723 N 427.171 -0.0066808 1.57599 0
M  V30 4724 C 428.118 -1.00024 2.08 0
M  V30 4725 C 429.088 -1.34549 0.973943 0
M  V30 4726 O 430.273 -1.44502 1.24595 0
M  V30 4727 C 427.413 -2.2891 2.58252 0
M  V30 4728 C 426.526 -2.00346 3.82734 0
M  V30 4729 C 425.661 -3.23265 4.21513 0
M  V30 4730 C 424.7 -2.90357 5.3885 0
M  V30 4731 N 423.837 -4.05793 5.72954 0
M  V30 4732 H 428.677 -0.563499 2.92624 0
M  V30 4733 H 426.214 -0.266592 1.44664 0
M  V30 4734 H 428.172 -3.04247 2.85464 0
M  V30 4735 H 426.802 -2.70265 1.76512 0
M  V30 4736 H 425.854 -1.15406 3.62471 0
M  V30 4737 H 427.166 -1.72086 4.68175 0
M  V30 4738 H 426.32 -4.06953 4.49971 0
M  V30 4739 H 425.059 -3.54657 3.34768 0
M  V30 4740 H 424.064 -2.05075 5.10122 0
M  V30 4741 H 425.289 -2.60219 6.27266 0
M  V30 4742 H 423.235 -4.37094 4.89167 0
M  V30 4743 H 423.152 -3.81034 6.52954 0
M  V30 4744 H 424.42 -4.90289 6.06001 0
M  V30 4745 N 428.649 -1.55105 -0.279332 0
M  V30 4746 C 429.877 -1.7943 -1.03017 0
M  V30 4747 C 430.292 -0.564456 -1.80165 0
M  V30 4748 O 429.649 0.466326 -1.76442 0
M  V30 4749 C 429.7 -3.0155 -1.99374 0
M  V30 4750 O 429.421 -4.19784 -1.25352 0
M  V30 4751 C 430.922 -3.3843 -2.86321 0
M  V30 4752 H 428.142 -0.597882 -0.304594 0
M  V30 4753 H 430.686 -2.02105 -0.312035 0
M  V30 4754 H 428.841 -2.81019 -2.66659 0
M  V30 4755 H 429.255 -4.88781 -1.90246 0
M  V30 4756 H 430.729 -4.27066 -3.49741 0
M  V30 4757 H 431.206 -2.57549 -3.5576 0
M  V30 4758 H 431.812 -3.61197 -2.24536 0
M  V30 4759 N 430.127 0.543554 -1.4793 0
M  V30 4760 C 431.373 1.29961 -1.56466 0
M  V30 4761 C 431.728 1.91024 -0.229696 0
M  V30 4762 O 431.021 1.75619 0.766072 0
M  V30 4763 C 431.215 2.42078 -2.62932 0
M  V30 4764 C 431.044 1.92003 -4.06651 0
M  V30 4765 C 429.814 1.75223 -4.73946 0
M  V30 4766 C 432.012 1.45648 -4.93245 0
M  V30 4767 N 429.994 1.19632 -6.02131 0
M  V30 4768 C 431.365 1.01914 -6.11566 0
M  V30 4769 C 433.42 1.33826 -4.79578 0
M  V30 4770 C 432.123 0.475301 -7.17728 0
M  V30 4771 C 434.149 0.808427 -5.85848 0
M  V30 4772 C 433.511 0.381081 -7.03368 0
M  V30 4773 H 429.61 0.467086 -0.62718 0
M  V30 4774 H 432.194 0.614543 -1.84747 0
M  V30 4775 H 430.365 3.08098 -2.36496 0
M  V30 4776 H 432.097 3.09096 -2.61231 0
M  V30 4777 H 428.852 1.98345 -4.30065 0
M  V30 4778 H 429.276 0.93885 -6.70458 0
M  V30 4779 H 433.918 1.65474 -3.89074 0
M  V30 4780 H 431.636 0.146472 -8.07967 0
M  V30 4781 H 435.222 0.720315 -5.77324 0
M  V30 4782 H 434.102 -0.0225344 -7.84197 0
M  V30 4783 N 431.605 1.3629 0.791371 0
M  V30 4784 C 432.852 1.30412 1.54916 0
M  V30 4785 C 433.18 -0.117162 1.94147 0
M  V30 4786 O 432.435 -1.08599 1.62803 0
M  V30 4787 C 432.734 2.17068 2.8393 0
M  V30 4788 C 432.4 3.65645 2.63846 0
M  V30 4789 C 431.062 4.0614 2.58077 0
M  V30 4790 C 433.414 4.59855 2.45322 0
M  V30 4791 C 430.742 5.3899 2.31748 0
M  V30 4792 C 433.094 5.9292 2.2052 0
M  V30 4793 C 431.758 6.32542 2.13183 0
M  V30 4794 H 431.028 0.47721 0.566879 0
M  V30 4795 H 433.675 1.68325 0.913172 0
M  V30 4796 H 431.98 1.72085 3.51986 0
M  V30 4797 H 433.677 2.09846 3.4171 0
M  V30 4798 H 430.267 3.33518 2.69191 0
M  V30 4799 H 434.451 4.29443 2.48782 0
M  V30 4800 H 429.707 5.68672 2.24548 0
M  V30 4801 H 433.881 6.65487 2.05182 0
M  V30 4802 H 431.508 7.35412 1.92544 0
M  V30 4803 N 433.083 -1.0153 1.20538 0
M  V30 4804 C 434.329 -1.75408 1.01783 0
M  V30 4805 C 434.662 -1.88943 -0.448814 0
M  V30 4806 O 433.937 -1.4162 -1.33319 0
M  V30 4807 C 434.22 -3.17255 1.70356 0
M  V30 4808 C 434.073 -3.11508 3.24473 0
M  V30 4809 C 435.392 -4.15955 1.43769 0
M  V30 4810 H 432.511 -0.636713 0.371167 0
M  V30 4811 H 435.153 -1.18436 1.4857 0
M  V30 4812 H 433.303 -3.65898 1.30578 0
M  V30 4813 H 434.975 -2.70658 3.73553 0
M  V30 4814 H 433.218 -2.4887 3.55311 0
M  V30 4815 H 433.889 -4.11784 3.67611 0
M  V30 4816 H 436.365 -3.75973 1.7828 0
M  V30 4817 H 435.241 -5.13368 1.94279 0
M  V30 4818 H 435.502 -4.40586 0.365564 0
M  V30 4819 N 434.561 -1.01147 -1.20859 0
M  V30 4820 C 435.81 -0.693214 -1.89413 0
M  V30 4821 C 436.123 0.779969 -1.79376 0
M  V30 4822 O 437.329 1.21057 -2.43017 0
M  V30 4823 C 435.785 -1.18949 -3.39675 0
M  V30 4824 C 435.393 -2.68921 -3.58309 0
M  V30 4825 C 437.137 -0.94642 -4.13815 0
M  V30 4826 C 435.044 -3.12056 -5.0237 0
M  V30 4827 H 433.974 -0.255595 -0.709357 0
M  V30 4828 H 436.625 -1.22349 -1.36759 0
M  V30 4829 H 435.007 -0.587228 -3.91622 0
M  V30 4830 H 436.181 -3.34652 -3.16772 0
M  V30 4831 H 434.496 -2.91314 -2.97532 0
M  V30 4832 H 437.093 -1.24417 -5.20023 0
M  V30 4833 H 437.436 0.117219 -4.16135 0
M  V30 4834 H 437.969 -1.5118 -3.67953 0
M  V30 4835 H 434.708 -4.17674 -5.05202 0
M  V30 4836 H 434.228 -2.51041 -5.44737 0
M  V30 4837 H 435.907 -3.04403 -5.70918 0
M  V30 4838 N 436.039 1.36541 -0.78704 0
M  V30 4839 C 437.316 1.9355 -0.282424 0
M  V30 4840 C 437.696 1.71919 1.22503 0
M  V30 4841 O 437.044 1.07677 2.01539 0
M  V30 4842 C 437.254 3.4246 -0.672462 0
M  V30 4843 C 438.602 4.19582 -0.650863 0
M  V30 4844 O 439.626 3.50889 -0.612789 0
M  V30 4845 O 438.485 5.42106 -0.691623 0
M  V30 4846 H 435.579 0.824091 -0.0693 0
M  V30 4847 H 438.125 1.45736 -0.869423 0
M  V30 4848 H 436.897 3.51851 -1.71221 0
M  V30 4849 H 436.52 3.97556 -0.0592211 0
M  V30 4850 N 437.518 0.538854 1.48102 0
M  V30 4851 C 438.448 -0.207654 2.32575 0
M  V30 4852 C 439.429 -0.926559 1.4265 0
M  V30 4853 O 440.614 -0.91061 1.71527 0
M  V30 4854 C 437.744 -1.24957 3.24042 0
M  V30 4855 C 436.698 -0.648263 4.23062 0
M  V30 4856 C 436.024 -1.79348 5.03725 0
M  V30 4857 C 437.324 0.385897 5.20872 0
M  V30 4858 H 439.018 0.497534 2.95237 0
M  V30 4859 H 436.564 0.240715 1.41974 0
M  V30 4860 H 438.517 -1.77983 3.81969 0
M  V30 4861 H 437.241 -1.98446 2.59397 0
M  V30 4862 H 435.9 -0.139452 3.66335 0
M  V30 4863 H 435.548 -2.51696 4.35498 0
M  V30 4864 H 435.248 -1.39702 5.70751 0
M  V30 4865 H 436.772 -2.32735 5.64506 0
M  V30 4866 H 438.186 -0.057607 5.73271 0
M  V30 4867 H 436.583 0.700227 5.96001 0
M  V30 4868 H 437.653 1.28848 4.67468 0
M  V30 4869 N 438.996 -1.55193 0.274407 0
M  V30 4870 C 439.926 -2.25471 -0.607032 0
M  V30 4871 C 440.907 -1.24461 -1.15946 0
M  V30 4872 O 442.092 -1.53179 -1.19373 0
M  V30 4873 C 439.222 -2.97526 -1.79153 0
M  V30 4874 C 438.176 -4.05459 -1.37067 0
M  V30 4875 C 437.502 -4.65084 -2.6382 0
M  V30 4876 C 438.802 -5.19691 -0.521389 0
M  V30 4877 H 440.496 -2.99393 -0.0209343 0
M  V30 4878 H 438.042 -1.43997 -0.00862866 0
M  V30 4879 H 439.995 -3.45402 -2.41404 0
M  V30 4880 H 438.719 -2.21138 -2.40344 0
M  V30 4881 H 437.378 -3.58393 -0.771355 0
M  V30 4882 H 437.026 -3.85365 -3.23268 0
M  V30 4883 H 436.726 -5.37961 -2.36372 0
M  V30 4884 H 438.25 -5.15708 -3.26921 0
M  V30 4885 H 439.664 -5.63623 -1.04889 0
M  V30 4886 H 438.061 -5.99126 -0.341825 0
M  V30 4887 H 439.131 -4.82713 0.46 0
M  V30 4888 N 440.474 -0.00167713 -1.576 0
M  V30 4889 C 441.699 0.69739 -1.95323 0
M  V30 4890 C 442.124 1.6642 -0.876706 0
M  V30 4891 O 441.482 1.80548 0.165007 0
M  V30 4892 C 441.53 1.40403 -3.32144 0
M  V30 4893 O 440.634 2.5185 -3.26566 0
M  V30 4894 H 439.975 0.185373 -0.637599 0
M  V30 4895 H 442.505 -0.0553665 -2.04525 0
M  V30 4896 H 442.515 1.76707 -3.67748 0
M  V30 4897 H 441.19 0.695167 -4.10049 0
M  V30 4898 H 439.767 2.17861 -3.0264 0
M  V30 4899 N 441.952 1.55251 0.271103 0
M  V30 4900 C 443.192 1.77698 1.01008 0
M  V30 4901 C 443.556 0.567246 1.83429 0
M  V30 4902 O 444.757 0.670013 2.60316 0
M  V30 4903 C 443.028 3.04715 1.86772 0
M  V30 4904 S 444.587 3.48289 2.66909 0
M  V30 4905 H 441.405 0.624343 0.340172 0
M  V30 4906 H 444.007 1.9348 0.280315 0
M  V30 4907 H 442.711 3.90853 1.25149 0
M  V30 4908 H 442.242 2.91604 2.64066 0
M  V30 4909 H 444.257 3.07712 3.89266 0
M  V30 4910 N 443.43 -0.535701 1.48216 0
M  V30 4911 C 444.36 -1.65014 1.65204 0
M  V30 4912 C 445.341 -1.62554 0.501011 0
M  V30 4913 O 446.526 -1.7984 0.732886 0
M  V30 4914 C 443.656 -3.03616 1.68626 0
M  V30 4915 C 442.61 -3.20932 2.83172 0
M  V30 4916 C 441.936 -4.60537 2.71679 0
M  V30 4917 C 443.236 -3.04249 4.24535 0
M  V30 4918 H 444.93 -1.51053 2.58502 0
M  V30 4919 H 442.476 -0.725262 1.24402 0
M  V30 4920 H 444.429 -3.81446 1.79099 0
M  V30 4921 H 443.153 -3.18587 0.719026 0
M  V30 4922 H 441.812 -2.45517 2.72244 0
M  V30 4923 H 441.46 -4.72336 1.72937 0
M  V30 4924 H 441.16 -4.73069 3.48538 0
M  V30 4925 H 442.684 -5.40475 2.84112 0
M  V30 4926 H 444.098 -3.71877 4.36326 0
M  V30 4927 H 442.495 -3.28278 5.02348 0
M  V30 4928 H 443.565 -2.00739 4.41397 0
M  V30 4929 N 444.908 -1.36708 -0.784132 0
M  V30 4930 C 446.319 -1.27947 -1.35965 0
M  V30 4931 C 446.67 0.0784013 -1.96043 0
M  V30 4932 O 445.795 0.979989 -1.92938 0
M  V30 4933 C 446.39 -2.31689 -2.47195 0
M  V30 4934 C 444.949 -2.26601 -3.00548 0
M  V30 4935 C 444.096 -2.16184 -1.73666 0
M  V30 4936 H 447.047 -1.4751 -0.585358 0
M  V30 4937 H 447.068 -1.95638 -3.26352 0
M  V30 4938 H 446.58 -3.30506 -2.03439 0
M  V30 4939 H 444.681 -1.31268 -3.48711 0
M  V30 4940 H 444.794 -3.19508 -3.57004 0
M  V30 4941 H 443.158 -1.62524 -1.96107 0
M  V30 4942 H 443.941 -3.16896 -1.32031 0
M  V30 4943 N 446.386 1.0089 -1.21074 0
M  V30 4944 C 447.616 1.77933 -1.04993 0
M  V30 4945 C 448.024 1.84847 0.403495 0
M  V30 4946 O 447.367 1.30606 1.29181 0
M  V30 4947 C 447.429 3.23541 -1.56722 0
M  V30 4948 C 447.093 3.40214 -3.05129 0
M  V30 4949 C 448.09 3.2881 -4.02716 0
M  V30 4950 C 445.775 3.65781 -3.44252 0
M  V30 4951 C 447.769 3.42732 -5.37414 0
M  V30 4952 C 445.456 3.79346 -4.79103 0
M  V30 4953 C 446.454 3.67827 -5.75493 0
M  V30 4954 O 446.142 3.80965 -7.07899 0
M  V30 4955 H 445.874 0.566157 -0.369381 0
M  V30 4956 H 448.428 1.27826 -1.60779 0
M  V30 4957 H 446.658 3.74766 -0.953285 0
M  V30 4958 H 448.347 3.82245 -1.36543 0
M  V30 4959 H 449.113 3.08986 -3.73835 0
M  V30 4960 H 444.992 3.73831 -2.69762 0
M  V30 4961 H 448.536 3.33658 -6.12632 0
M  V30 4962 H 444.433 3.98672 -5.07672 0
M  V30 4963 H 445.201 3.97937 -7.15254 0
M  V30 4964 N 447.864 1.01787 1.20321 0
M  V30 4965 C 449.141 0.622978 1.85414 0
M  V30 4966 C 449.521 -0.898887 1.91006 0
M  V30 4967 O 448.869 -1.79112 1.41884 0
M  V30 4968 C 449.079 1.27226 3.24984 0
M  V30 4969 C 450.427 1.3885 4.01255 0
M  V30 4970 O 451.451 1.22857 3.34342 0
M  V30 4971 O 450.31 1.64705 5.2109 0
M  V30 4972 H 447.404 0.215116 0.798533 0
M  V30 4973 H 449.95 1.11533 1.27901 0
M  V30 4974 H 448.722 2.31209 3.15687 0
M  V30 4975 H 448.345 0.767069 3.90131 0
M  V30 4976 N 449.342 -1.36122 0.79427 0
M  V30 4977 C 450.591 -1.98361 0.365464 0
M  V30 4978 C 450.904 -1.6374 -1.06997 0
M  V30 4979 O 452.11 -2.19251 -1.60129 0
M  V30 4980 C 450.566 -3.54821 0.602496 0
M  V30 4981 C 450.174 -3.98362 2.04967 0
M  V30 4982 C 451.918 -4.2383 0.238437 0
M  V30 4983 C 449.825 -5.47619 2.2331 0
M  V30 4984 H 448.755 -0.742193 0.13291 0
M  V30 4985 H 451.406 -1.55354 0.976589 0
M  V30 4986 H 449.788 -3.95922 -0.078409 0
M  V30 4987 H 450.962 -3.68447 2.76737 0
M  V30 4988 H 449.277 -3.42206 2.37243 0
M  V30 4989 H 451.874 -5.33529 0.353705 0
M  V30 4990 H 452.217 -4.08264 -0.814006 0
M  V30 4991 H 452.75 -3.88108 0.872769 0
M  V30 4992 H 449.489 -5.68138 3.26955 0
M  V30 4993 H 449.009 -5.79145 1.5605 0
M  V30 4994 H 450.688 -6.13911 2.0426 0
M  V30 4995 N 450.82 -0.546701 -1.47814 0
M  V30 4996 C 452.069 -0.0166497 -2.01693 0
M  V30 4997 C 452.382 1.33721 -1.42752 0
M  V30 4998 O 453.588 1.95658 -1.8823 0
M  V30 4999 C 452.044 0.0206769 -3.59894 0
M  V30 5000 C 451.652 -1.3293 -4.27824 0
M  V30 5001 C 453.396 0.498674 -4.21561 0
M  V30 5002 C 451.303 -1.25165 -5.78003 0
M  V30 5003 H 450.233 -0.0024541 -0.753996 0
M  V30 5004 H 452.884 -0.692984 -1.69912 0
M  V30 5005 H 451.266 0.76244 -3.88591 0
M  V30 5006 H 452.44 -2.08795 -4.10781 0
M  V30 5007 H 450.755 -1.74438 -3.78101 0
M  V30 5008 H 453.352 0.575 -5.31599 0
M  V30 5009 H 453.695 1.5083 -3.88016 0
M  V30 5010 H 454.228 -0.18791 -3.97356 0
M  V30 5011 H 450.967 -2.23695 -6.1615 0
M  V30 5012 H 450.487 -0.53464 -5.97412 0
M  V30 5013 H 452.166 -0.949299 -6.39998 0
M  V30 5014 N 452.299 1.55045 -0.282633 0
M  V30 5015 C 453.247 2.24254 0.617478 0
M  V30 5016 C 454.241 1.24215 1.15183 0
M  V30 5017 O 455.447 1.42123 1.10459 0
M  V30 5018 H 451.822 0.719801 0.217693 0
M  V30 5019 H 453.793 2.98398 0.0110076 0
M  V30 5020 C 452.542 2.98281 1.78672 0
M  V30 5021 H 451.865 3.75053 1.38475 0
M  V30 5022 H 453.305 3.50017 2.393 0
M  V30 5023 C 451.764 2.04184 2.67975 0
M  V30 5024 O 452.294 1.59792 3.6855 0
M  V30 5025 N 450.5 1.70526 2.35307 0
M  V30 5026 H 450.047 2.06821 1.53567 0
M  V30 5027 H 450.005 1.07839 2.95327 0
M  V30 5028 N 453.777 0.010035 1.57597 0
M  V30 5029 C 454.74 -0.963029 2.07986 0
M  V30 5030 C 455.74 -1.26619 0.991173 0
M  V30 5031 O 456.93 -1.2097 1.25347 0
M  V30 5032 C 454.062 -2.2851 2.52974 0
M  V30 5033 H 455.255 -0.526971 2.95234 0
M  V30 5034 H 452.808 -0.237639 1.54483 0
M  V30 5035 H 453.543 -2.76784 1.69 0
M  V30 5036 H 453.328 -2.07824 3.32493 0
M  V30 5037 H 454.818 -2.98294 2.9225 0
M  V30 5038 N 455.255 -1.55392 -0.262866 0
M  V30 5039 C 456.502 -1.76476 -0.993109 0
M  V30 5040 C 456.83 -0.571479 -1.85915 0
M  V30 5041 O 456.085 0.445733 -1.90556 0
M  V30 5042 C 456.384 -3.02889 -1.89718 0
M  V30 5043 C 456.05 -4.34974 -1.18781 0
M  V30 5044 C 454.712 -4.7087 -0.991699 0
M  V30 5045 C 457.064 -5.16695 -0.683798 0
M  V30 5046 C 454.392 -5.86036 -0.279024 0
M  V30 5047 C 456.744 -6.32598 0.0153327 0
M  V30 5048 C 455.408 -6.67127 0.223062 0
M  V30 5049 H 454.678 -0.64577 -0.363404 0
M  V30 5050 H 457.325 -1.89664 -0.264525 0
M  V30 5051 H 455.63 -2.84644 -2.6923 0
M  V30 5052 H 457.327 -3.16399 -2.46359 0
M  V30 5053 H 453.917 -4.06765 -1.35058 0
M  V30 5054 H 458.101 -4.8943 -0.8229 0
M  V30 5055 H 453.357 -6.11306 -0.107456 0
M  V30 5056 H 457.531 -6.95171 0.413584 0
M  V30 5057 H 455.158 -7.56216 0.777265 0
M  V30 5058 N 456.733 0.527833 -1.48498 0
M  V30 5059 C 457.643 1.65907 -1.65867 0
M  V30 5060 C 458.659 1.6537 -0.541192 0
M  V30 5061 O 459.835 1.84282 -0.812534 0
M  V30 5062 C 456.9 3.02364 -1.69637 0
M  V30 5063 C 455.961 3.1374 -2.93028 0
M  V30 5064 C 455.194 4.43688 -2.96609 0
M  V30 5065 O 455.417 5.30913 -2.08538 0
M  V30 5066 O 454.351 4.59475 -3.88802 0
M  V30 5067 H 458.177 1.5419 -2.61647 0
M  V30 5068 H 455.762 0.701163 -1.31924 0
M  V30 5069 H 457.644 3.83515 -1.74625 0
M  V30 5070 H 456.319 3.14401 -0.770312 0
M  V30 5071 H 455.226 2.31877 -2.93571 0
M  V30 5072 H 456.559 3.06621 -3.85026 0
M  V30 5073 N 458.211 1.37122 0.776871 0
M  V30 5074 C 459.159 1.32549 1.91138 0
M  V30 5075 C 460.153 0.215119 1.68029 0
M  V30 5076 O 461.359 0.382852 1.75881 0
M  V30 5077 H 457.734 0.412952 0.62847 0
M  V30 5078 H 459.705 2.28332 1.92112 0
M  V30 5079 C 458.454 1.14422 3.28333 0
M  V30 5080 H 457.777 1.99115 3.46689 0
M  V30 5081 H 459.217 1.15272 4.0803 0
M  V30 5082 C 457.676 -0.150434 3.36564 0
M  V30 5083 O 458.206 -1.13584 3.85307 0
M  V30 5084 N 456.412 -0.19939 2.89915 0
M  V30 5085 H 455.959 0.603142 2.5044 0
M  V30 5086 H 455.917 -1.06526 2.95803 0
M  V30 5087 N 459.689 -1.00246 1.21608 0
M  V30 5088 C 460.935 -1.74319 1.03638 0
M  V30 5089 C 461.268 -1.89408 -0.428749 0
M  V30 5090 O 460.543 -1.43026 -1.3181 0
M  V30 5091 C 460.826 -3.15431 1.73711 0
M  V30 5092 C 460.679 -3.08049 3.27759 0
M  V30 5093 C 461.998 -4.14407 1.48173 0
M  V30 5094 H 459.117 -0.632741 0.377899 0
M  V30 5095 H 461.759 -1.16853 1.49818 0
M  V30 5096 H 459.909 -3.64493 1.34452 0
M  V30 5097 H 461.581 -2.66681 3.76403 0
M  V30 5098 H 459.824 -2.45088 3.57931 0
M  V30 5099 H 460.495 -4.07862 3.71958 0
M  V30 5100 H 462.971 -3.74061 1.82258 0
M  V30 5101 H 461.847 -5.11279 1.99713 0
M  V30 5102 H 462.108 -4.40174 0.412273 0
M  V30 5103 N 461.167 -1.02423 -1.1978 0
M  V30 5104 C 462.444 -0.632802 -1.85081 0
M  V30 5105 C 462.824 0.888745 -1.9148 0
M  V30 5106 O 462.172 1.78357 -1.42832 0
M  V30 5107 C 462.382 -1.28947 -3.24305 0
M  V30 5108 C 463.73 -1.40976 -4.00513 0
M  V30 5109 O 464.754 -1.24628 -3.33686 0
M  V30 5110 O 463.613 -1.67467 -5.20209 0
M  V30 5111 H 460.707 -0.219348 -0.79738 0
M  V30 5112 H 463.253 -1.12209 -1.27307 0
M  V30 5113 H 462.025 -2.3288 -3.14456 0
M  V30 5114 H 461.648 -0.787748 -3.89718 0
M  V30 5115 N 462.645 1.35699 -0.801477 0
M  V30 5116 C 463.555 2.33661 -0.209691 0
M  V30 5117 C 464.571 1.6162 0.644591 0
M  V30 5118 O 465.747 1.93529 0.557545 0
M  V30 5119 C 462.812 3.40816 0.636033 0
M  V30 5120 C 461.873 4.28639 -0.238147 0
M  V30 5121 C 461.106 5.30676 0.567307 0
M  V30 5122 O 461.329 5.41174 1.8024 0
M  V30 5123 O 460.263 6.01887 -0.0391336 0
M  V30 5124 H 464.089 2.8606 -1.01996 0
M  V30 5125 H 461.674 1.38379 -0.563164 0
M  V30 5126 H 463.556 4.06301 1.11791 0
M  V30 5127 H 462.231 2.90696 1.42399 0
M  V30 5128 H 461.138 3.66152 -0.767044 0
M  V30 5129 H 462.471 4.82143 -0.989915 0
M  V30 5130 N 464.123 0.554532 1.47522 0
M  V30 5131 C 465.371 0.0294208 2.02079 0
M  V30 5132 C 465.692 -1.32411 1.43151 0
M  V30 5133 O 464.962 -1.863 0.605728 0
M  V30 5134 H 463.542 0.00788672 0.746958 0
M  V30 5135 H 466.204 0.723934 1.80956 0
M  V30 5136 H 465.3 -0.0606745 3.12041 0
M  V30 5137 N 465.601 -1.54893 0.290851 0
M  V30 5138 C 466.85 -1.99111 -0.322113 0
M  V30 5139 C 467.163 -1.18283 -1.55784 0
M  V30 5140 O 468.369 -1.5272 -2.24475 0
M  V30 5141 C 466.825 -3.54442 -0.624438 0
M  V30 5142 C 466.433 -4.44066 0.592373 0
M  V30 5143 C 468.177 -4.07211 -1.19916 0
M  V30 5144 C 466.084 -5.90812 0.263762 0
M  V30 5145 H 465.014 -0.743712 -0.124133 0
M  V30 5146 H 467.665 -1.79132 0.39797 0
M  V30 5147 H 466.047 -3.70281 -1.40384 0
M  V30 5148 H 467.221 -4.39999 1.36886 0
M  V30 5149 H 465.536 -4.02015 1.08502 0
M  V30 5150 H 468.133 -5.14407 -1.45909 0
M  V30 5151 H 468.476 -3.57196 -2.13815 0
M  V30 5152 H 469.009 -3.94873 -0.481687 0
M  V30 5153 H 465.748 -6.44955 1.17105 0
M  V30 5154 H 465.268 -5.97911 -0.475655 0
M  V30 5155 H 466.947 -6.46852 -0.138354 0
M  V30 5156 N 467.08 -0.0183926 -1.57589 0
M  V30 5157 C 468.305 0.676634 -1.96052 0
M  V30 5158 C 468.73 1.6548 -0.894307 0
M  V30 5159 O 468.088 1.80712 0.145849 0
M  V30 5160 C 468.136 1.36872 -3.33614 0
M  V30 5161 O 467.24 2.48372 -3.29219 0
M  V30 5162 H 466.581 0.1786 -0.63953 0
M  V30 5163 H 469.111 -0.077056 -2.04455 0
M  V30 5164 H 469.121 1.72797 -3.69601 0
M  V30 5165 H 467.796 0.651636 -4.10763 0
M  V30 5166 H 466.373 2.14639 -3.04934 0
M  V30 5167 N 468.558 1.5553 0.254621 0
M  V30 5168 C 469.783 1.81383 1.00573 0
M  V30 5169 C 470.208 0.594419 1.78461 0
M  V30 5170 O 469.566 -0.456403 1.75461 0
M  V30 5171 C 469.614 3.04892 1.92545 0
M  V30 5172 O 468.718 2.81266 3.01601 0
M  V30 5173 H 468.059 0.598969 0.286587 0
M  V30 5174 H 470.589 2.02703 0.277952 0
M  V30 5175 H 470.599 3.34119 2.34155 0
M  V30 5176 H 469.274 3.93287 1.3527 0
M  V30 5177 H 467.851 2.63185 2.64174 0
M  V30 5178 N 470.036 -0.519951 1.48776 0
M  V30 5179 C 470.966 -1.63253 1.66945 0
M  V30 5180 C 471.947 -1.62014 0.518224 0
M  V30 5181 O 473.132 -1.79053 0.751919 0
M  V30 5182 C 470.262 -3.0181 1.71836 0
M  V30 5183 C 469.216 -3.17911 2.8656 0
M  V30 5184 C 468.542 -4.5763 2.76548 0
M  V30 5185 C 469.842 -2.99729 4.27738 0
M  V30 5186 H 471.536 -1.48302 2.6009 0
M  V30 5187 H 469.082 -0.712026 1.25165 0
M  V30 5188 H 471.035 -3.79525 1.83135 0
M  V30 5189 H 469.759 -3.17806 0.752775 0
M  V30 5190 H 468.418 -2.42616 2.74833 0
M  V30 5191 H 468.066 -4.70476 1.77937 0
M  V30 5192 H 467.766 -4.69346 3.53536 0
M  V30 5193 H 469.29 -5.37431 2.89828 0
M  V30 5194 H 470.704 -3.67228 4.40246 0
M  V30 5195 H 469.101 -3.22932 5.05801 0
M  V30 5196 H 470.171 -1.96047 4.43502 0
M  V30 5197 N 471.514 -1.37532 -0.769588 0
M  V30 5198 C 472.761 -1.3286 -1.52822 0
M  V30 5199 C 473.089 0.0862597 -1.94309 0
M  V30 5200 O 472.344 1.05995 -1.6451 0
M  V30 5201 C 472.643 -2.21558 -2.8044 0
M  V30 5202 C 472.309 -3.69796 -2.57996 0
M  V30 5203 C 470.971 -4.10194 -2.51583 0
M  V30 5204 C 473.323 -4.63699 -2.37976 0
M  V30 5205 C 470.651 -5.42608 -2.23144 0
M  V30 5206 C 473.003 -5.96353 -2.1106 0
M  V30 5207 C 471.667 -6.35853 -2.03093 0
M  V30 5208 H 470.937 -0.486168 -0.559215 0
M  V30 5209 H 473.584 -1.69757 -0.886277 0
M  V30 5210 H 471.889 -1.77663 -3.49204 0
M  V30 5211 H 473.586 -2.15256 -3.38328 0
M  V30 5212 H 470.176 -3.37759 -2.63851 0
M  V30 5213 H 474.36 -4.33346 -2.41919 0
M  V30 5214 H 469.616 -5.72173 -2.15472 0
M  V30 5215 H 473.79 -6.68667 -1.94568 0
M  V30 5216 H 471.417 -7.38382 -1.8082 0
M  V30 5217 N 472.992 0.995999 -1.22138 0
M  V30 5218 C 474.217 1.77601 -1.0711 0
M  V30 5219 C 474.642 1.84339 0.374264 0
M  V30 5220 O 474 1.29359 1.27028 0
M  V30 5221 C 474.048 3.18897 -1.68336 0
M  V30 5222 O 473.152 4.01663 -0.934928 0
M  V30 5223 H 472.493 0.547011 -0.376397 0
M  V30 5224 H 475.023 1.25137 -1.6187 0
M  V30 5225 H 475.033 3.69539 -1.72931 0
M  V30 5226 H 473.708 3.13308 -2.73516 0
M  V30 5227 H 472.285 3.60204 -0.964751 0
M  V30 5228 N 474.47 1.03057 1.19235 0
M  V30 5229 C 475.695 0.74757 1.93458 0
M  V30 5230 C 476.12 -0.687648 1.7508 0
M  V30 5231 O 475.478 -1.47499 1.05422 0
M  V30 5232 C 475.526 1.10604 3.43219 0
M  V30 5233 O 474.63 0.225671 4.11782 0
M  V30 5234 H 473.971 0.276047 0.603899 0
M  V30 5235 H 476.501 1.3777 1.51263 0
M  V30 5236 H 476.511 1.06366 3.93891 0
M  V30 5237 H 475.186 2.15165 3.55917 0
M  V30 5238 H 473.763 0.326795 3.71465 0
M  V30 5239 N 475.948 -1.35272 0.808662 0
M  V30 5240 C 476.878 -2.32315 0.234981 0
M  V30 5241 C 477.859 -1.57572 -0.64071 0
M  V30 5242 O 479.044 -1.8563 -0.570551 0
M  V30 5243 C 476.174 -3.41801 -0.615601 0
M  V30 5244 C 475.128 -4.27694 0.161767 0
M  V30 5245 C 474.454 -5.28519 -0.810649 0
M  V30 5246 C 475.754 -5.04231 1.36193 0
M  V30 5247 H 477.448 -2.80543 1.04575 0
M  V30 5248 H 474.994 -1.3488 0.504315 0
M  V30 5249 H 476.947 -4.08693 -1.02702 0
M  V30 5250 H 475.671 -2.92186 -1.45928 0
M  V30 5251 H 474.33 -3.62384 0.554382 0
M  V30 5252 H 473.978 -4.75171 -1.64988 0
M  V30 5253 H 473.678 -5.8686 -0.294822 0
M  V30 5254 H 475.202 -5.98283 -1.22023 0
M  V30 5255 H 476.616 -5.64058 1.02528 0
M  V30 5256 H 475.013 -5.72077 1.81239 0
M  V30 5257 H 476.083 -4.34753 2.14751 0
M  V30 5258 N 477.426 -0.562348 -1.47226 0
M  V30 5259 C 478.373 0.182461 -2.30078 0
M  V30 5260 C 479.343 0.903503 -1.39377 0
M  V30 5261 O 480.528 0.898188 -1.68337 0
M  V30 5262 C 477.668 1.20322 -3.23445 0
M  V30 5263 C 476.781 0.487717 -4.29238 0
M  V30 5264 C 475.916 1.49422 -5.09752 0
M  V30 5265 C 474.955 0.763976 -6.07314 0
M  V30 5266 N 474.092 1.71755 -6.80768 0
M  V30 5267 H 478.932 -0.530169 -2.93246 0
M  V30 5268 H 476.469 -0.273276 -1.44539 0
M  V30 5269 H 478.427 1.80768 -3.76004 0
M  V30 5270 H 477.057 1.88382 -2.6213 0
M  V30 5271 H 476.109 -0.231374 -3.79696 0
M  V30 5272 H 477.421 -0.0841003 -4.98729 0
M  V30 5273 H 476.575 2.17206 -5.66486 0
M  V30 5274 H 475.314 2.09995 -4.40174 0
M  V30 5275 H 474.319 0.0722344 -5.49753 0
M  V30 5276 H 475.544 0.16391 -6.78902 0
M  V30 5277 H 473.49 2.31177 -6.13916 0
M  V30 5278 H 473.407 1.19802 -7.46447 0
M  V30 5279 H 474.675 2.38638 -7.42073 0
M  V30 5280 N 478.904 1.54736 -0.299062 0
M  V30 5281 C 480.15 2.00397 0.311244 0
M  V30 5282 C 480.483 1.18716 1.53688 0
M  V30 5283 O 479.758 0.263154 1.92712 0
M  V30 5284 C 480.041 3.53817 0.669761 0
M  V30 5285 C 479.894 4.46239 -0.564882 0
M  V30 5286 C 481.213 4.13856 1.49702 0
M  V30 5287 H 478.332 0.728493 0.111653 0
M  V30 5288 H 480.974 1.85506 -0.410774 0
M  V30 5289 H 479.124 3.66637 1.28491 0
M  V30 5290 H 480.796 4.45328 -1.20337 0
M  V30 5291 H 479.039 4.16916 -1.19849 0
M  V30 5292 H 479.71 5.5134 -0.269918 0
M  V30 5293 H 482.186 4.04461 0.977284 0
M  V30 5294 H 481.062 5.21365 1.71666 0
M  V30 5295 H 481.323 3.65608 2.48563 0
M  V30 5296 N 480.382 0.0267497 1.57577 0
M  V30 5297 C 481.628 -0.653371 1.91987 0
M  V30 5298 C 481.961 -1.71915 0.903263 0
M  V30 5299 O 481.236 -1.94358 -0.0743387 0
M  V30 5300 C 481.519 -1.272 3.36886 0
M  V30 5301 C 481.372 -0.215938 4.49281 0
M  V30 5302 C 482.691 -2.19069 3.81703 0
M  V30 5303 H 479.81 -0.236047 0.698177 0
M  V30 5304 H 482.452 0.0835236 1.89816 0
M  V30 5305 H 480.602 -1.90005 3.38866 0
M  V30 5306 H 482.274 0.41449 4.59434 0
M  V30 5307 H 480.517 0.458855 4.31366 0
M  V30 5308 H 481.188 -0.688347 5.47691 0
M  V30 5309 H 483.664 -1.66253 3.81444 0
M  V30 5310 H 482.54 -2.59307 4.83788 0
M  V30 5311 H 482.801 -3.08087 3.17072 0
M  V30 5312 N 481.861 -1.55662 -0.24637 0
M  V30 5313 C 483.277 -1.48098 -0.594907 0
M  V30 5314 C 483.477 -0.717044 -1.8831 0
M  V30 5315 O 482.533 -0.246618 -2.51293 0
M  V30 5316 C 483.846 -2.92507 -0.697146 0
M  V30 5317 C 485.394 -3.02881 -0.789436 0
M  V30 5318 C 485.869 -4.48598 -0.923232 0
M  V30 5319 N 487.36 -4.52538 -0.988088 0
M  V30 5320 C 488.095 -5.62536 -1.11089 0
M  V30 5321 N 487.591 -6.82342 -1.19919 0
M  V30 5322 N 489.384 -5.50334 -1.14408 0
M  V30 5323 H 481.535 -2.0377 0.599278 0
M  V30 5324 H 483.798 -0.925145 0.20691 0
M  V30 5325 H 483.504 -3.51242 0.179396 0
M  V30 5326 H 483.378 -3.43024 -1.5689 0
M  V30 5327 H 485.765 -2.44226 -1.65643 0
M  V30 5328 H 485.846 -2.55574 0.107482 0
M  V30 5329 H 485.49 -5.07864 -0.0607927 0
M  V30 5330 H 485.42 -4.93587 -1.8352 0
M  V30 5331 H 487.911 -3.66248 -0.931167 0
M  V30 5332 H 488.224 -7.61924 -1.29197 0
M  V30 5333 H 486.569 -6.85102 -1.16876 0
M  V30 5334 H 489.76 -4.5567 -1.07158 0
M  V30 5335 H 489.933 -6.36096 -1.23634 0
M  V30 5336 N 483.339 0.512053 -1.4905 0
M  V30 5337 C 484.269 1.62365 -1.67809 0
M  V30 5338 C 485.25 1.61737 -0.526809 0
M  V30 5339 O 486.435 1.78651 -0.761404 0
M  V30 5340 C 483.565 3.00895 -1.73435 0
M  V30 5341 C 482.519 3.16387 -2.88242 0
M  V30 5342 C 481.845 4.56157 -2.78971 0
M  V30 5343 C 483.145 2.97457 -4.29321 0
M  V30 5344 H 484.839 1.46921 -2.60873 0
M  V30 5345 H 482.385 0.705379 -1.2554 0
M  V30 5346 H 484.338 3.78549 -1.85145 0
M  V30 5347 H 483.062 3.17403 -0.769619 0
M  V30 5348 H 481.721 2.41155 -2.76116 0
M  V30 5349 H 481.369 4.69525 -1.8043 0
M  V30 5350 H 481.069 4.67465 -3.5602 0
M  V30 5351 H 482.593 5.35886 -2.92675 0
M  V30 5352 H 484.007 3.64888 -4.42187 0
M  V30 5353 H 482.404 3.20245 -5.07507 0
M  V30 5354 H 483.474 1.93692 -4.44535 0
M  V30 5355 N 484.817 1.37938 0.762283 0
M  V30 5356 C 485.747 1.37176 1.88958 0
M  V30 5357 C 486.728 0.238945 1.68413 0
M  V30 5358 O 487.913 0.440726 1.89133 0
M  V30 5359 C 485.043 1.18742 3.2637 0
M  V30 5360 C 483.997 2.29136 3.61498 0
M  V30 5361 C 483.323 1.95816 4.97554 0
M  V30 5362 C 484.623 3.71363 3.6727 0
M  V30 5363 H 486.317 2.31509 1.89853 0
M  V30 5364 H 483.863 1.11438 0.912005 0
M  V30 5365 H 485.816 1.16837 4.04879 0
M  V30 5366 H 484.54 0.208683 3.25933 0
M  V30 5367 H 483.199 2.30213 2.85303 0
M  V30 5368 H 482.847 0.964475 4.93667 0
M  V30 5369 H 482.547 2.69745 5.22026 0
M  V30 5370 H 484.071 1.95513 5.78452 0
M  V30 5371 H 485.485 3.72364 4.35911 0
M  V30 5372 H 483.882 4.44425 4.03245 0
M  V30 5373 H 484.952 4.04305 2.67704 0
M  V30 5374 N 486.295 -0.989507 1.22664 0
M  V30 5375 C 487.711 -1.25395 0.987331 0
M  V30 5376 C 487.911 -1.9899 -0.317056 0
M  V30 5377 O 486.967 -2.30141 -1.03882 0
M  V30 5378 C 488.28 -2.06242 2.18826 0
M  V30 5379 C 489.828 -2.19413 2.23219 0
M  V30 5380 C 490.303 -3.03648 3.42873 0
M  V30 5381 N 491.794 -3.11234 3.43056 0
M  V30 5382 C 492.529 -3.7671 4.32293 0
M  V30 5383 N 492.025 -4.44085 5.31752 0
M  V30 5384 N 493.818 -3.73505 4.2006 0
M  V30 5385 H 485.969 -0.496212 2.06522 0
M  V30 5386 H 488.232 -0.281784 0.905153 0
M  V30 5387 H 487.938 -1.59531 3.13437 0
M  V30 5388 H 487.812 -3.06996 2.19165 0
M  V30 5389 H 490.199 -2.65336 1.29154 0
M  V30 5390 H 490.28 -1.18078 2.26917 0
M  V30 5391 H 489.924 -2.58424 4.37241 0
M  V30 5392 H 489.854 -4.05132 3.36416 0
M  V30 5393 H 492.345 -2.63287 2.71088 0
M  V30 5394 H 492.658 -4.91797 5.96117 0
M  V30 5395 H 491.003 -4.42822 5.35662 0
M  V30 5396 H 494.194 -3.20033 3.41609 0
M  V30 5397 H 494.367 -4.24253 4.8981 0
M  V30 5398 N 487.773 -1.03688 -1.18687 0
M  V30 5399 C 488.703 -0.645407 -2.24403 0
M  V30 5400 C 489.684 0.349511 -1.66471 0
M  V30 5401 O 490.869 0.230453 -1.92828 0
M  V30 5402 C 487.999 -0.00365337 -3.473 0
M  V30 5403 C 486.953 -0.921705 -4.17958 0
M  V30 5404 C 486.279 -0.144629 -5.34504 0
M  V30 5405 C 487.579 -2.23909 -4.71871 0
M  V30 5406 H 489.273 -1.52917 -2.57404 0
M  V30 5407 H 486.819 -0.736711 -1.23728 0
M  V30 5408 H 488.772 0.281908 -4.20456 0
M  V30 5409 H 487.496 0.914963 -3.13522 0
M  V30 5410 H 486.155 -1.19159 -3.46694 0
M  V30 5411 H 485.803 0.776274 -4.96974 0
M  V30 5412 H 485.503 -0.756206 -5.82714 0
M  V30 5413 H 487.027 0.134004 -6.10453 0
M  V30 5414 H 488.441 -2.0145 -5.36741 0
M  V30 5415 H 486.838 -2.8033 -5.30599 0
M  V30 5416 H 487.908 -2.88822 -3.895 0
M  V30 5417 N 489.251 1.34841 -0.815825 0
M  V30 5418 C 490.499 1.98107 -0.399744 0
M  V30 5419 C 490.82 1.65019 1.03894 0
M  V30 5420 O 490.09 0.937311 1.72021 0
M  V30 5421 H 488.67 0.732827 -0.144823 0
M  V30 5422 H 491.332 1.64599 -1.0437 0
M  V30 5423 H 490.428 3.07856 -0.512965 0
M  V30 5424 N 490.729 0.570148 1.46925 0
M  V30 5425 C 492.145 0.23087 1.57921 0
M  V30 5426 C 492.345 -1.26676 1.56702 0
M  V30 5427 O 491.401 -2.04774 1.47729 0
M  V30 5428 C 492.714 0.868973 2.8787 0
M  V30 5429 C 494.262 0.841397 3.01479 0
M  V30 5430 C 494.737 1.45881 4.34146 0
M  V30 5431 N 496.228 1.42258 4.40814 0
M  V30 5432 C 496.963 1.8698 5.42057 0
M  V30 5433 N 496.459 2.39618 6.50042 0
M  V30 5434 N 498.252 1.77972 5.33181 0
M  V30 5435 H 490.403 1.54301 1.45962 0
M  V30 5436 H 492.666 0.644224 0.69547 0
M  V30 5437 H 492.372 1.922 2.94537 0
M  V30 5438 H 492.246 0.369682 3.75384 0
M  V30 5439 H 494.633 -0.202973 2.94401 0
M  V30 5440 H 494.714 1.37858 2.15474 0
M  V30 5441 H 494.358 2.50231 4.4198 0
M  V30 5442 H 494.288 0.896958 5.18905 0
M  V30 5443 H 496.779 1.03768 3.63374 0
M  V30 5444 H 497.092 2.71633 7.23488 0
M  V30 5445 H 495.437 2.43636 6.50897 0
M  V30 5446 H 498.628 1.36617 4.4772 0
M  V30 5447 H 498.801 2.13143 6.11943 0
M  V30 5448 N 492.207 -1.54576 0.307264 0
M  V30 5449 C 493.453 -2.0056 -0.300612 0
M  V30 5450 C 493.786 -1.1953 -1.53057 0
M  V30 5451 O 493.061 -0.27337 -1.92569 0
M  V30 5452 C 493.344 -3.54167 -0.650987 0
M  V30 5453 C 493.197 -4.45933 0.588539 0
M  V30 5454 C 494.516 -4.14645 -1.47506 0
M  V30 5455 H 491.635 -0.729075 -0.107788 0
M  V30 5456 H 494.277 -1.85286 0.420606 0
M  V30 5457 H 492.427 -3.67313 -1.26544 0
M  V30 5458 H 494.099 -4.44683 1.22697 0
M  V30 5459 H 492.342 -4.16274 1.22058 0
M  V30 5460 H 493.013 -5.51189 0.299153 0
M  V30 5461 H 495.489 -4.04973 -0.955821 0
M  V30 5462 H 494.365 -5.22269 -1.68899 0
M  V30 5463 H 494.626 -3.66921 -2.4662 0
M  V30 5464 N 493.685 -0.035106 -1.57561 0
M  V30 5465 C 494.648 0.929819 -2.09492 0
M  V30 5466 C 495.648 1.25026 -1.01119 0
M  V30 5467 O 496.838 1.18961 -1.27255 0
M  V30 5468 C 493.97 2.24457 -2.56577 0
M  V30 5469 H 495.163 0.479935 -2.96035 0
M  V30 5470 H 492.716 0.213033 -1.54841 0
M  V30 5471 H 493.451 2.74061 -1.73382 0
M  V30 5472 H 493.236 2.02508 -3.35757 0
M  V30 5473 H 494.726 2.93607 -2.96959 0
M  V30 5474 N 495.163 1.55791 0.238111 0
M  V30 5475 C 496.579 1.48411 0.587045 0
M  V30 5476 C 496.779 0.72702 1.87927 0
M  V30 5477 O 495.835 0.259942 2.51158 0
M  V30 5478 C 497.148 2.92873 0.681623 0
M  V30 5479 C 498.696 3.03295 0.773363 0
M  V30 5480 C 499.171 4.49082 0.899428 0
M  V30 5481 N 500.662 4.53056 0.964075 0
M  V30 5482 C 501.397 5.63117 1.08104 0
M  V30 5483 N 500.893 6.82969 1.16299 0
M  V30 5484 N 502.686 5.50933 1.11488 0
M  V30 5485 H 494.837 2.0345 -0.610076 0
M  V30 5486 H 497.1 0.924034 -0.211813 0
M  V30 5487 H 496.806 3.51142 -0.19802 0
M  V30 5488 H 496.68 3.43851 1.55069 0
M  V30 5489 H 499.067 2.45101 1.64346 0
M  V30 5490 H 499.148 2.55513 -0.121034 0
M  V30 5491 H 498.792 5.07889 0.0338586 0
M  V30 5492 H 498.722 4.94553 1.809 0
M  V30 5493 H 501.213 3.66737 0.91173 0
M  V30 5494 H 501.526 7.62598 1.25155 0
M  V30 5495 H 499.871 6.85712 1.13241 0
M  V30 5496 H 503.062 4.56231 1.0474 0
M  V30 5497 H 503.235 6.36743 1.20259 0
M  V30 5498 N 496.642 -0.504142 1.49319 0
M  V30 5499 C 497.589 -1.60603 1.65756 0
M  V30 5500 C 498.559 -1.58425 0.499082 0
M  V30 5501 O 499.744 -1.76459 0.725728 0
M  V30 5502 C 496.884 -2.98764 1.72726 0
M  V30 5503 C 495.997 -3.10982 2.99857 0
M  V30 5504 C 495.132 -4.39857 2.97824 0
M  V30 5505 C 494.171 -4.45697 4.19548 0
M  V30 5506 N 493.308 -5.65995 4.15444 0
M  V30 5507 H 498.148 -1.45895 2.59843 0
M  V30 5508 H 495.685 -0.709891 1.28837 0
M  V30 5509 H 497.643 -3.78839 1.74747 0
M  V30 5510 H 496.273 -3.12183 0.821075 0
M  V30 5511 H 495.325 -2.23991 3.07461 0
M  V30 5512 H 496.637 -3.11157 3.89849 0
M  V30 5513 H 495.791 -5.2825 2.98391 0
M  V30 5514 H 494.53 -4.42242 2.05604 0
M  V30 5515 H 493.535 -3.55707 4.19229 0
M  V30 5516 H 494.76 -4.4503 5.12957 0
M  V30 5517 H 492.706 -5.69229 3.26059 0
M  V30 5518 H 492.623 -5.67773 4.99169 0
M  V30 5519 H 493.891 -6.56604 4.20109 0
M  V30 5520 N 498.12 -1.38341 -0.754957 0
M  V30 5521 C 499.05 -1.38176 -1.88227 0
M  V30 5522 C 500.031 -0.247873 -1.68284 0
M  V30 5523 O 501.216 -0.45075 -1.88896 0
M  V30 5524 C 498.346 -1.20471 -3.25736 0
M  V30 5525 C 497.3 -2.3105 -3.60278 0
M  V30 5526 C 496.626 -1.98452 -4.96509 0
M  V30 5527 C 497.926 -3.73305 -3.65295 0
M  V30 5528 H 499.62 -2.32512 -1.88622 0
M  V30 5529 H 497.166 -1.1192 -0.906082 0
M  V30 5530 H 499.119 -1.18982 -4.04254 0
M  V30 5531 H 497.843 -0.225965 -3.25817 0
M  V30 5532 H 496.502 -2.31723 -2.84078 0
M  V30 5533 H 496.15 -0.990641 -4.93148 0
M  V30 5534 H 495.85 -2.7251 -5.20588 0
M  V30 5535 H 497.374 -1.98578 -5.77407 0
M  V30 5536 H 498.788 -3.7467 -4.3393 0
M  V30 5537 H 497.185 -4.46557 -4.00883 0
M  V30 5538 H 498.255 -4.05719 -2.65556 0
M  V30 5539 N 499.598 0.982988 -1.23187 0
M  V30 5540 C 500.875 1.69814 -0.970707 0
M  V30 5541 C 501.255 2.04811 0.511424 0
M  V30 5542 O 500.603 1.73924 1.48198 0
M  V30 5543 C 500.813 2.94143 -1.87831 0
M  V30 5544 C 502.161 3.66712 -2.14026 0
M  V30 5545 O 503.185 3.04171 -1.8536 0
M  V30 5546 O 502.044 4.79258 -2.62629 0
M  V30 5547 H 499.138 0.741659 -0.365884 0
M  V30 5548 H 501.684 1.03844 -1.34218 0
M  V30 5549 H 500.456 2.64858 -2.88038 0
M  V30 5550 H 500.079 3.6785 -1.50905 0
M  V30 5551 N 501.076 1.04316 1.18135 0
M  V30 5552 C 502.026 0.606731 2.19779 0
M  V30 5553 C 503.01 -0.352144 1.56999 0
M  V30 5554 O 504.202 -0.170795 1.76174 0
M  V30 5555 C 501.331 -0.0262443 3.4329 0
M  V30 5556 C 500.417 0.955928 4.13186 0
M  V30 5557 N 500.808 2.12395 4.59045 0
M  V30 5558 C 499.106 0.782473 4.39082 0
M  V30 5559 C 499.807 2.74458 5.12882 0
M  V30 5560 N 498.783 2.02316 5.04548 0
M  V30 5561 H 502.585 1.49679 2.5293 0
M  V30 5562 H 500.099 0.912088 1.34368 0
M  V30 5563 H 502.096 -0.356617 4.15372 0
M  V30 5564 H 500.756 -0.911811 3.11635 0
M  V30 5565 H 501.767 2.50272 4.53414 0
M  V30 5566 H 498.444 -0.0527906 4.17467 0
M  V30 5567 H 499.834 3.73459 5.5855 0
M  V30 5568 N 502.554 -1.34406 0.822964 0
M  V30 5569 C 503.784 -2.02214 0.423424 0
M  V30 5570 C 504.192 -1.62124 -0.975322 0
M  V30 5571 O 503.535 -0.822452 -1.6426 0
M  V30 5572 C 503.597 -3.56721 0.446107 0
M  V30 5573 C 503.261 -4.20136 1.79819 0
M  V30 5574 C 504.258 -4.4065 2.75904 0
M  V30 5575 C 501.943 -4.56906 2.08669 0
M  V30 5576 C 503.937 -4.9706 3.99012 0
M  V30 5577 C 501.624 -5.13026 3.32036 0
M  V30 5578 C 502.622 -5.33047 4.27024 0
M  V30 5579 O 502.31 -5.87979 5.48211 0
M  V30 5580 H 502.042 -0.654748 0.168169 0
M  V30 5581 H 504.596 -1.72659 1.11257 0
M  V30 5582 H 502.826 -3.85537 -0.299734 0
M  V30 5583 H 504.515 -4.05845 0.0666114 0
M  V30 5584 H 505.281 -4.12607 2.54912 0
M  V30 5585 H 501.16 -4.40626 1.35535 0
M  V30 5586 H 504.704 -5.12603 4.73164 0
M  V30 5587 H 500.601 -5.40498 3.52891 0
M  V30 5588 H 501.369 -6.06413 5.49732 0
M  V30 5589 N 504.032 -0.577932 -1.46621 0
M  V30 5590 C 504.962 0.145917 -2.33044 0
M  V30 5591 C 505.943 0.888412 -1.45056 0
M  V30 5592 O 507.128 0.864812 -1.73881 0
M  V30 5593 C 504.258 1.16322 -3.27241 0
M  V30 5594 C 503.212 0.535868 -4.24632 0
M  V30 5595 C 502.538 1.65929 -5.08303 0
M  V30 5596 C 503.838 -0.523861 -5.19666 0
M  V30 5597 H 505.532 -0.575636 -2.93814 0
M  V30 5598 H 503.078 -0.278272 -1.41286 0
M  V30 5599 H 505.031 1.67793 -3.86553 0
M  V30 5600 H 503.755 1.91498 -2.64567 0
M  V30 5601 H 502.414 0.0422759 -3.66576 0
M  V30 5602 H 502.062 2.40061 -4.42018 0
M  V30 5603 H 501.762 1.2452 -5.74255 0
M  V30 5604 H 503.286 2.17686 -5.70478 0
M  V30 5605 H 504.7 -0.0944059 -5.73222 0
M  V30 5606 H 503.097 -0.858 -5.93935 0
M  V30 5607 H 504.167 -1.41197 -4.63887 0
M  V30 5608 N 505.51 1.54411 -0.315457 0
M  V30 5609 C 506.42 2.27737 0.56329 0
M  V30 5610 C 507.436 1.31787 1.13614 0
M  V30 5611 O 508.612 1.64791 1.15784 0
M  V30 5612 C 505.677 3.01478 1.71207 0
M  V30 5613 C 504.738 4.12997 1.17185 0
M  V30 5614 C 503.971 4.83212 2.26588 0
M  V30 5615 O 504.194 4.52884 3.46775 0
M  V30 5616 O 503.128 5.70299 1.92463 0
M  V30 5617 H 506.954 3.03683 -0.0319614 0
M  V30 5618 H 504.539 1.49178 -0.0814188 0
M  V30 5619 H 506.421 3.47683 2.38106 0
M  V30 5620 H 505.096 2.28414 2.29366 0
M  V30 5621 H 504.003 3.71159 0.468174 0
M  V30 5622 H 505.336 4.8808 0.635501 0
M  V30 5623 N 506.988 0.0434614 1.5754 0
M  V30 5624 C 508.218 -0.640905 1.96408 0
M  V30 5625 C 508.626 -1.65365 0.919297 0
M  V30 5626 O 507.969 -1.83395 -0.105795 0
M  V30 5627 C 508.031 -1.39141 3.31482 0
M  V30 5628 C 507.695 -0.535375 4.53853 0
M  V30 5629 C 508.692 0.195335 5.19533 0
M  V30 5630 C 506.377 -0.468564 5.0011 0
M  V30 5631 C 508.371 0.981377 6.298 0
M  V30 5632 C 506.058 0.321171 6.10255 0
M  V30 5633 C 507.056 1.04484 6.74961 0
M  V30 5634 O 506.744 1.8216 7.8299 0
M  V30 5635 H 506.476 -0.180584 0.651433 0
M  V30 5636 H 509.03 0.103848 2.05137 0
M  V30 5637 H 507.26 -2.18162 3.19284 0
M  V30 5638 H 508.949 -1.96526 3.55151 0
M  V30 5639 H 509.715 0.15314 4.84758 0
M  V30 5640 H 505.594 -1.02142 4.49542 0
M  V30 5641 H 509.138 1.54674 6.80237 0
M  V30 5642 H 505.035 0.365032 6.44467 0
M  V30 5643 H 505.803 1.74289 7.99728 0
M  V30 5644 N 508.466 -1.55915 -0.229846 0
M  V30 5645 C 509.714 -1.7819 -0.953565 0
M  V30 5646 C 510.035 -0.610504 -1.85197 0
M  V30 5647 O 509.305 0.372988 -1.92316 0
M  V30 5648 H 507.885 -0.657208 -0.355087 0
M  V30 5649 H 510.547 -1.9337 -0.243693 0
M  V30 5650 H 509.643 -2.70011 -1.56527 0
M  V30 5651 N 509.944 0.496216 -1.49584 0
M  V30 5652 C 510.907 1.57952 -1.66084 0
M  V30 5653 C 511.907 1.51729 -0.53244 0
M  V30 5654 O 513.097 1.54796 -0.79899 0
M  V30 5655 C 510.229 2.97604 -1.66268 0
M  V30 5656 H 511.422 1.44649 -2.6271 0
M  V30 5657 H 508.975 0.7208 -1.38687 0
M  V30 5658 H 509.71 3.16378 -0.712432 0
M  V30 5659 H 509.495 3.03528 -2.4822 0
M  V30 5660 H 510.985 3.76301 -1.81073 0
M  V30 5661 N 511.423 1.38739 0.74761 0
M  V30 5662 C 512.386 1.36241 1.84312 0
M  V30 5663 C 513.386 0.261811 1.58654 0
M  V30 5664 O 514.576 0.519031 1.66288 0
M  V30 5665 C 511.708 1.12253 3.21888 0
M  V30 5666 H 512.901 2.33712 1.87933 0
M  V30 5667 H 510.454 1.2412 0.949946 0
M  V30 5668 H 511.189 0.154133 3.23934 0
M  V30 5669 H 510.974 1.91943 3.41907 0
M  V30 5670 H 512.464 1.13215 4.0196 0
M  V30 5671 N 512.901 -0.976442 1.23707 0
M  V30 5672 C 514.147 -1.72081 1.07312 0
M  V30 5673 C 514.48 -1.90275 -0.388476 0
M  V30 5674 O 513.755 -1.4579 -1.28746 0
M  V30 5675 C 514.038 -3.11675 1.80363 0
M  V30 5676 C 513.891 -3.01027 3.3422 0
M  V30 5677 C 515.21 -4.1117 1.5693 0
M  V30 5678 H 512.329 -0.624583 0.391236 0
M  V30 5679 H 514.971 -1.13649 1.52263 0
M  V30 5680 H 513.121 -3.61559 1.42153 0
M  V30 5681 H 514.793 -2.58637 3.81975 0
M  V30 5682 H 513.036 -2.3744 3.63049 0
M  V30 5683 H 513.707 -3.9988 3.80525 0
M  V30 5684 H 516.183 -3.7011 1.90151 0
M  V30 5685 H 515.059 -5.06928 2.10513 0
M  V30 5686 H 515.32 -4.392 0.505548 0
M  V30 5687 N 514.379 -1.04941 -1.1758 0
M  V30 5688 C 515.309 -0.669172 -2.23706 0
M  V30 5689 C 516.29 0.331835 -1.66832 0
M  V30 5690 O 517.475 0.209988 -1.93061 0
M  V30 5691 C 514.605 -0.0404889 -3.47276 0
M  V30 5692 C 513.559 -0.965983 -4.16957 0
M  V30 5693 C 512.885 -0.201312 -5.34321 0
M  V30 5694 C 514.185 -2.28902 -4.69469 0
M  V30 5695 H 515.879 -1.55639 -2.55767 0
M  V30 5696 H 513.425 -0.749793 -1.22939 0
M  V30 5697 H 515.378 0.237298 -4.20731 0
M  V30 5698 H 514.102 0.881658 -3.14475 0
M  V30 5699 H 512.761 -1.22829 -3.45411 0
M  V30 5700 H 512.409 0.723519 -4.97769 0
M  V30 5701 H 512.109 -0.817968 -5.81879 0
M  V30 5702 H 513.633 0.0692499 -6.10561 0
M  V30 5703 H 515.047 -2.07132 -5.34574 0
M  V30 5704 H 513.444 -2.85942 -5.27596 0
M  V30 5705 H 514.514 -2.92937 -3.86414 0
M  V30 5706 N 515.857 1.33968 -0.830081 0
M  V30 5707 C 517.103 1.98357 -0.422191 0
M  V30 5708 C 517.436 1.65633 1.01387 0
M  V30 5709 O 516.711 0.931648 1.70735 0
M  V30 5710 C 516.994 3.54492 -0.633043 0
M  V30 5711 C 516.847 3.96934 -2.11574 0
M  V30 5712 C 518.166 4.40039 -0.0735584 0
M  V30 5713 H 515.285 0.720544 -0.154871 0
M  V30 5714 H 517.927 1.58749 -1.04397 0
M  V30 5715 H 516.077 3.88361 -0.103775 0
M  V30 5716 H 517.749 3.73363 -2.7092 0
M  V30 5717 H 515.992 3.46984 -2.60354 0
M  V30 5718 H 516.663 5.05651 -2.21406 0
M  V30 5719 H 519.139 4.12764 -0.52585 0
M  V30 5720 H 518.015 5.48327 -0.250841 0
M  V30 5721 H 518.276 4.30124 1.02202 0
M  V30 5722 N 517.335 0.585699 1.46312 0
M  V30 5723 C 518.265 -0.133556 2.33118 0
M  V30 5724 C 519.246 -0.880707 1.45525 0
M  V30 5725 O 520.431 -0.855579 1.74337 0
M  V30 5726 C 517.561 -1.14585 3.27853 0
M  V30 5727 C 516.515 -0.513341 4.2491 0
M  V30 5728 C 515.841 -1.63231 5.09175 0
M  V30 5729 C 517.141 0.551413 5.19381 0
M  V30 5730 H 518.835 0.59121 2.93505 0
M  V30 5731 H 516.381 0.285761 1.41136 0
M  V30 5732 H 518.334 -1.65741 3.87438 0
M  V30 5733 H 517.058 -1.90093 2.65579 0
M  V30 5734 H 515.717 -0.0228349 3.66593 0
M  V30 5735 H 515.365 -2.37713 4.43285 0
M  V30 5736 H 515.065 -1.21473 5.74907 0
M  V30 5737 H 516.589 -2.14658 5.71624 0
M  V30 5738 H 518.003 0.124804 5.73164 0
M  V30 5739 H 516.4 0.889486 5.93471 0
M  V30 5740 H 517.47 1.43655 4.63132 0
M  V30 5741 N 518.813 -1.54241 0.323641 0
M  V30 5742 C 519.743 -2.27289 -0.534993 0
M  V30 5743 C 520.724 -1.28087 -1.11927 0
M  V30 5744 O 521.909 -1.56899 -1.14439 0
M  V30 5745 C 519.039 -3.03075 -1.69596 0
M  V30 5746 C 517.993 -4.09614 -1.24098 0
M  V30 5747 C 517.319 -4.73242 -2.4889 0
M  V30 5748 C 518.619 -5.21087 -0.355789 0
M  V30 5749 H 520.313 -2.99308 0.0743257 0
M  V30 5750 H 517.859 -1.43952 0.0371874 0
M  V30 5751 H 519.812 -3.52907 -2.30293 0
M  V30 5752 H 518.536 -2.28673 -2.33187 0
M  V30 5753 H 517.195 -3.60666 -0.656945 0
M  V30 5754 H 516.843 -3.95455 -3.10845 0
M  V30 5755 H 516.543 -5.45209 -2.19138 0
M  V30 5756 H 518.067 -5.25848 -3.10348 0
M  V30 5757 H 519.481 -5.66675 -0.869042 0
M  V30 5758 H 517.878 -5.9991 -0.151045 0
M  V30 5759 H 518.948 -4.81005 0.613339 0
M  V30 5760 N 520.291 -0.0518155 -1.57515 0
M  V30 5761 C 521.537 0.622745 -1.93002 0
M  V30 5762 C 521.87 1.70456 -0.930499 0
M  V30 5763 O 521.145 1.94452 0.0434086 0
M  V30 5764 C 521.428 1.21824 -3.38867 0
M  V30 5765 C 521.281 0.144434 -4.49568 0
M  V30 5766 C 522.6 2.12968 -3.8514 0
M  V30 5767 H 519.719 0.22491 -0.701844 0
M  V30 5768 H 522.361 -0.113711 -1.89659 0
M  V30 5769 H 520.511 1.8459 -3.41846 0
M  V30 5770 H 522.183 -0.48753 -4.58717 0
M  V30 5771 H 520.426 -0.527424 -4.30582 0
M  V30 5772 H 521.097 0.601127 -5.48717 0
M  V30 5773 H 523.573 1.60163 -3.8404 0
M  V30 5774 H 522.449 2.51578 -4.87852 0
M  V30 5775 H 522.71 3.03004 -3.21934 0
M  V30 5776 N 521.769 1.56035 0.221574 0
M  V30 5777 C 523.009 1.80822 0.953038 0
M  V30 5778 C 523.373 0.625316 1.81532 0
M  V30 5779 O 524.574 0.752491 2.58052 0
M  V30 5780 C 522.845 3.10503 1.76983 0
M  V30 5781 S 524.404 3.56604 2.55693 0
M  V30 5782 H 521.222 0.634849 0.320137 0
M  V30 5783 H 523.824 1.94274 0.218619 0
M  V30 5784 H 522.528 3.94636 1.12651 0
M  V30 5785 H 522.059 2.99858 2.54655 0
M  V30 5786 H 524.074 3.1994 3.79279 0
M  V30 5787 N 523.247 -0.488276 1.49845 0
M  V30 5788 C 524.493 -1.24341 1.6021 0
M  V30 5789 C 524.826 -1.91967 0.293651 0
M  V30 5790 O 524.101 -1.81323 -0.703718 0
M  V30 5791 C 524.384 -2.3005 2.77036 0
M  V30 5792 C 524.237 -1.66842 4.17713 0
M  V30 5793 C 525.556 -3.31509 2.89464 0
M  V30 5794 H 522.675 -0.450704 0.583125 0
M  V30 5795 H 525.317 -0.539673 1.82174 0
M  V30 5796 H 523.467 -2.90071 2.58439 0
M  V30 5797 H 525.139 -1.1055 4.47858 0
M  V30 5798 H 523.382 -0.972079 4.22768 0
M  V30 5799 H 524.053 -2.43576 4.95353 0
M  V30 5800 H 526.529 -2.81493 3.06433 0
M  V30 5801 H 525.405 -4.02822 3.72861 0
M  V30 5802 H 525.666 -3.94603 1.99351 0
M  V30 5803 N 524.725 -1.39134 -0.740242 0
M  V30 5804 C 525.972 -1.36071 -1.49969 0
M  V30 5805 C 526.3 0.0450245 -1.94448 0
M  V30 5806 O 525.555 1.02482 -1.66721 0
M  V30 5807 C 525.854 -2.27457 -2.75678 0
M  V30 5808 C 525.52 -3.75185 -2.50094 0
M  V30 5809 C 524.182 -4.15439 -2.42825 0
M  V30 5810 C 526.534 -4.68643 -2.28086 0
M  V30 5811 C 523.862 -5.4722 -2.11584 0
M  V30 5812 C 526.214 -6.00695 -1.98363 0
M  V30 5813 C 524.878 -6.40018 -1.8956 0
M  V30 5814 H 524.148 -0.497921 -0.548777 0
M  V30 5815 H 526.795 -1.71599 -0.85007 0
M  V30 5816 H 525.1 -1.8503 -3.45356 0
M  V30 5817 H 526.797 -2.22384 -3.33686 0
M  V30 5818 H 523.387 -3.43279 -2.56627 0
M  V30 5819 H 527.571 -4.3838 -2.32672 0
M  V30 5820 H 522.827 -5.76615 -2.03287 0
M  V30 5821 H 527.001 -6.72644 -1.80341 0
M  V30 5822 H 524.628 -7.42051 -1.65117 0
M  V30 5823 N 526.204 0.969867 -1.24223 0
M  V30 5824 C 527.452 1.70918 -1.0785 0
M  V30 5825 C 527.773 1.91186 0.383763 0
M  V30 5826 O 527.043 1.48806 1.27411 0
M  V30 5827 H 525.623 0.633334 -0.396103 0
M  V30 5828 H 528.285 1.16689 -1.56108 0
M  V30 5829 H 527.381 2.69455 -1.57482 0
M  V30 5830 N 527.682 1.05563 1.17022 0
M  V30 5831 C 528.612 0.681026 2.23348 0
M  V30 5832 C 529.593 -0.322983 1.67005 0
M  V30 5833 O 530.778 -0.199746 1.9317 0
M  V30 5834 C 527.908 0.0589053 3.4725 0
M  V30 5835 C 526.862 0.988082 4.16438 0
M  V30 5836 C 526.188 0.229646 5.34207 0
M  V30 5837 C 527.488 2.31388 4.68249 0
M  V30 5838 H 529.182 1.56993 2.54938 0
M  V30 5839 H 526.728 0.756302 1.2254 0
M  V30 5840 H 528.681 -0.214982 4.20851 0
M  V30 5841 H 527.405 -0.864968 3.14938 0
M  V30 5842 H 526.064 1.24659 3.44754 0
M  V30 5843 H 525.712 -0.697111 4.98146 0
M  V30 5844 H 525.412 0.848815 5.81437 0
M  V30 5845 H 526.936 -0.0368694 6.10589 0
M  V30 5846 H 528.35 2.09964 5.33468 0
M  V30 5847 H 526.747 2.88736 5.26072 0
M  V30 5848 H 527.817 2.94982 3.84855 0
M  V30 5849 N 529.16 -1.33526 0.837174 0
M  V30 5850 C 530.406 -1.9813 0.432704 0
M  V30 5851 C 530.739 -1.66168 -1.00508 0
M  V30 5852 O 530.014 -0.94069 -1.70239 0
M  V30 5853 C 530.297 -3.54151 0.651834 0
M  V30 5854 C 530.15 -3.95806 2.13676 0
M  V30 5855 C 531.469 -4.39993 0.0968937 0
M  V30 5856 H 528.588 -0.719713 0.15869 0
M  V30 5857 H 531.23 -1.58193 1.05237 0
M  V30 5858 H 529.38 -3.88301 0.124369 0
M  V30 5859 H 531.052 -3.71921 2.72896 0
M  V30 5860 H 529.295 -3.45599 2.62191 0
M  V30 5861 H 529.966 -5.0447 2.24084 0
M  V30 5862 H 532.442 -4.12479 0.547733 0
M  V30 5863 H 531.318 -5.48186 0.279917 0
M  V30 5864 H 531.579 -4.3066 -0.9992 0
M  V30 5865 N 530.638 -0.59345 -1.46 0
M  V30 5866 C 531.601 0.123538 -2.28867 0
M  V30 5867 C 532.601 0.808628 -1.38989 0
M  V30 5868 O 533.791 0.658945 -1.61256 0
M  V30 5869 C 530.923 1.1847 -3.19653 0
M  V30 5870 H 532.116 -0.604843 -2.93737 0
M  V30 5871 H 529.669 -0.351875 -1.52288 0
M  V30 5872 H 530.404 1.94431 -2.59552 0
M  V30 5873 H 530.189 0.69783 -3.8584 0
M  V30 5874 H 531.679 1.68726 -3.81997 0
M  V30 5875 N 532.116 1.54067 -0.331816 0
M  V30 5876 C 533.066 2.21363 0.546101 0
M  V30 5877 C 534.05 1.19698 1.07523 0
M  V30 5878 O 535.242 1.45293 1.01088 0
M  V30 5879 C 532.371 2.98115 1.70242 0
M  V30 5880 C 531.457 4.07127 1.18779 0
M  V30 5881 N 531.848 5.04267 0.393465 0
M  V30 5882 C 530.146 4.21226 1.46576 0
M  V30 5883 C 530.847 5.81585 0.115572 0
M  V30 5884 N 529.823 5.39022 0.703987 0
M  V30 5885 H 533.625 2.93821 -0.0679751 0
M  V30 5886 H 531.139 1.61812 -0.138085 0
M  V30 5887 H 533.136 3.44818 2.34321 0
M  V30 5888 H 531.796 2.27181 2.31989 0
M  V30 5889 H 532.807 5.17888 0.0355757 0
M  V30 5890 H 529.484 3.61509 2.08848 0
M  V30 5891 H 530.874 6.6985 -0.524426 0
M  V30 5892 N 533.594 0.0601682 1.57485 0
M  V30 5893 C 534.84 -0.606552 1.94146 0
M  V30 5894 C 535.195 -1.67918 0.939225 0
M  V30 5895 O 534.488 -1.91558 -0.0402649 0
M  V30 5896 C 534.682 -1.23831 3.35262 0
M  V30 5897 C 534.511 -0.228408 4.4912 0
M  V30 5898 C 533.281 0.182813 5.04969 0
M  V30 5899 C 535.479 0.52975 5.11564 0
M  V30 5900 N 533.461 1.18464 6.02362 0
M  V30 5901 C 534.832 1.38439 6.04346 0
M  V30 5902 C 536.887 0.587084 4.94427 0
M  V30 5903 C 535.59 2.29125 6.81832 0
M  V30 5904 C 537.616 1.4814 5.72546 0
M  V30 5905 C 536.978 2.32375 6.64967 0
M  V30 5906 H 533.077 -0.193328 0.757726 0
M  V30 5907 H 535.661 0.1346 1.94234 0
M  V30 5908 H 533.832 -1.94944 3.35933 0
M  V30 5909 H 535.564 -1.86456 3.59188 0
M  V30 5910 H 532.319 -0.197968 4.73186 0
M  V30 5911 H 532.743 1.68271 6.55754 0
M  V30 5912 H 537.385 -0.049944 4.22771 0
M  V30 5913 H 535.103 2.93868 7.52773 0
M  V30 5914 H 538.689 1.53045 5.6131 0
M  V30 5915 H 537.569 3.00454 7.2436 0
M  V30 5916 N 535.072 -1.5615 -0.213296 0
M  V30 5917 C 536.002 -1.96109 -1.26742 0
M  V30 5918 C 536.983 -0.830448 -1.48451 0
M  V30 5919 O 538.168 -1.09339 -1.60495 0
M  V30 5920 C 535.298 -2.28492 -2.61551 0
M  V30 5921 C 534.252 -3.44124 -2.54485 0
M  V30 5922 C 533.578 -3.62134 -3.93399 0
M  V30 5923 C 534.878 -4.78855 -2.08556 0
M  V30 5924 H 536.572 -2.84412 -0.935434 0
M  V30 5925 H 534.118 -1.36836 -0.44854 0
M  V30 5926 H 536.071 -2.55039 -3.3546 0
M  V30 5927 H 534.795 -1.37052 -2.96453 0
M  V30 5928 H 533.454 -3.17639 -1.83033 0
M  V30 5929 H 533.102 -2.68055 -4.25623 0
M  V30 5930 H 532.802 -4.39913 -3.89551 0
M  V30 5931 H 534.326 -3.91038 -4.68958 0
M  V30 5932 H 535.74 -5.04552 -2.72213 0
M  V30 5933 H 534.137 -5.59975 -2.1575 0
M  V30 5934 H 535.207 -4.73657 -1.03811 0
M  V30 5935 N 536.55 0.480323 -1.50102 0
M  V30 5936 C 537.513 1.56181 -1.6775 0
M  V30 5937 C 538.513 1.51156 -0.548503 0
M  V30 5938 O 539.703 1.5394 -0.815363 0
M  V30 5939 C 536.835 2.95823 -1.69415 0
M  V30 5940 H 538.028 1.41855 -2.6423 0
M  V30 5941 H 535.581 0.70605 -1.39444 0
M  V30 5942 H 536.316 3.15604 -0.745948 0
M  V30 5943 H 536.101 3.00878 -2.51425 0
M  V30 5944 H 537.591 3.74359 -1.85054 0
M  V30 5945 N 538.028 1.39524 0.732853 0
M  V30 5946 C 539.268 1.383 1.50508 0
M  V30 5947 C 539.632 -0.0208271 1.91989 0
M  V30 5948 O 540.833 -0.158091 2.68335 0
M  V30 5949 C 539.104 2.33007 2.71003 0
M  V30 5950 S 540.663 2.49989 3.60626 0
M  V30 5951 H 537.481 0.490417 0.514794 0
M  V30 5952 H 540.083 1.75641 0.858524 0
M  V30 5953 H 538.787 3.33862 2.38672 0
M  V30 5954 H 538.318 1.96889 3.40585 0
M  V30 5955 H 540.333 1.7394 4.64714 0
M  V30 5956 N 539.506 -0.963266 1.24736 0
M  V30 5957 C 540.755 -1.70115 1.08369 0
M  V30 5958 C 541.068 -1.91939 -0.376688 0
M  V30 5959 O 542.274 -2.6334 -0.660624 0
M  V30 5960 C 540.73 -3.06218 1.89099 0
M  V30 5961 C 540.338 -2.92221 3.39574 0
M  V30 5962 C 542.082 -3.83848 1.81275 0
M  V30 5963 C 539.989 -4.23662 4.12631 0
M  V30 5964 H 538.919 -0.637944 0.401924 0
M  V30 5965 H 541.57 -1.07304 1.48856 0
M  V30 5966 H 539.952 -3.69884 1.41429 0
M  V30 5967 H 541.126 -2.37541 3.94856 0
M  V30 5968 H 539.441 -2.28054 3.48397 0
M  V30 5969 H 542.038 -4.81188 2.33158 0
M  V30 5970 H 542.381 -4.08949 0.778895 0
M  V30 5971 H 542.914 -3.26918 2.26649 0
M  V30 5972 H 539.653 -4.03753 5.16395 0
M  V30 5973 H 539.173 -4.78141 3.62135 0
M  V30 5974 H 540.852 -4.92256 4.19873 0
M  V30 5975 N 540.985 -1.06182 -1.16461 0
M  V30 5976 C 542.231 -0.788825 -1.87481 0
M  V30 5977 C 542.586 0.677298 -1.80085 0
M  V30 5978 O 541.879 1.48976 -1.20486 0
M  V30 5979 C 542.073 -1.21633 -3.36066 0
M  V30 5980 C 541.902 -2.72247 -3.57927 0
M  V30 5981 C 540.672 -3.39696 -3.74079 0
M  V30 5982 C 542.87 -3.70461 -3.56739 0
M  V30 5983 N 540.852 -4.79072 -3.83879 0
M  V30 5984 C 542.223 -4.95616 -3.72511 0
M  V30 5985 C 544.278 -3.63788 -3.39945 0
M  V30 5986 C 542.981 -6.14895 -3.73225 0
M  V30 5987 C 545.007 -4.82517 -3.41953 0
M  V30 5988 C 544.369 -6.065 -3.58242 0
M  V30 5989 H 540.468 -0.341034 -0.703719 0
M  V30 5990 H 543.052 -1.35575 -1.39741 0
M  V30 5991 H 541.223 -0.67725 -3.8245 0
M  V30 5992 H 542.955 -0.892119 -3.94745 0
M  V30 5993 H 539.71 -2.90097 -3.74354 0
M  V30 5994 H 540.134 -5.51573 -3.92551 0
M  V30 5995 H 544.776 -2.68888 -3.26281 0
M  V30 5996 H 542.494 -7.10129 -3.85672 0
M  V30 5997 H 546.08 -4.79017 -3.30203 0
M  V30 5998 H 544.96 -6.96833 -3.59712 0
M  V30 5999 N 542.463 1.3308 -0.844243 0
M  V30 6000 C 543.693 2.01515 -0.455541 0
M  V30 6001 C 544.101 1.63655 0.949406 0
M  V30 6002 O 543.444 0.84848 1.62931 0
M  V30 6003 C 543.506 3.55967 -0.502801 0
M  V30 6004 C 543.17 4.17222 -1.86481 0
M  V30 6005 C 544.167 4.36205 -2.8288 0
M  V30 6006 C 541.852 4.53528 -2.15911 0
M  V30 6007 C 543.846 4.90649 -4.06869 0
M  V30 6008 C 541.533 5.07679 -3.40155 0
M  V30 6009 C 542.531 5.26186 -4.35451 0
M  V30 6010 O 542.219 5.79183 -5.57496 0
M  V30 6011 H 541.951 0.65199 -0.178565 0
M  V30 6012 H 544.505 1.70867 -1.1399 0
M  V30 6013 H 542.735 3.85965 0.23836 0
M  V30 6014 H 544.424 4.05688 -0.131169 0
M  V30 6015 H 545.19 4.085 -2.61444 0
M  V30 6016 H 541.069 4.38414 -1.42528 0
M  V30 6017 H 544.613 5.0501 -4.81259 0
M  V30 6018 H 540.51 5.34815 -3.61446 0
M  V30 6019 H 541.278 5.97591 -5.5931 0
M  V30 6020 N 543.941 0.601185 1.45683 0
M  V30 6021 C 545.166 0.0982245 2.07167 0
M  V30 6022 C 545.591 -1.20546 1.44396 0
M  V30 6023 O 544.949 -1.73247 0.534347 0
M  V30 6024 C 544.997 -0.0346976 3.60583 0
M  V30 6025 O 544.101 -1.08657 3.97828 0
M  V30 6026 H 543.442 0.0711618 0.660176 0
M  V30 6027 H 545.972 0.829376 1.87036 0
M  V30 6028 H 545.982 -0.234969 4.07323 0
M  V30 6029 H 544.657 0.917265 4.05659 0
M  V30 6030 H 543.234 -0.863275 3.6277 0
M  V30 6031 N 545.419 -1.53889 0.339982 0
M  V30 6032 C 546.668 -2.00035 -0.258604 0
M  V30 6033 C 546.981 -1.23179 -1.51942 0
M  V30 6034 O 548.187 -1.59784 -2.19503 0
M  V30 6035 C 546.643 -3.56249 -0.511359 0
M  V30 6036 C 546.251 -4.41957 0.733349 0
M  V30 6037 C 547.995 -4.1082 -1.069 0
M  V30 6038 C 545.902 -5.89673 0.451591 0
M  V30 6039 H 544.832 -0.747284 -0.10041 0
M  V30 6040 H 547.483 -1.77776 0.454758 0
M  V30 6041 H 545.865 -3.7456 -1.28533 0
M  V30 6042 H 547.039 -4.35421 1.50815 0
M  V30 6043 H 545.354 -3.9836 1.21237 0
M  V30 6044 H 547.951 -5.18789 -1.2947 0
M  V30 6045 H 548.294 -3.63817 -2.02343 0
M  V30 6046 H 548.827 -3.96205 -0.355817 0
M  V30 6047 H 545.566 -6.40903 1.37565 0
M  V30 6048 H 545.086 -5.99122 -0.285193 0
M  V30 6049 H 546.765 -6.46965 0.0675067 0
M  V30 6050 N 546.897 -0.0685191 -1.57451 0
M  V30 6051 C 548.145 0.60016 -1.92983 0
M  V30 6052 C 548.466 1.70348 -0.949028 0
M  V30 6053 O 547.736 1.959 0.00335647 0
M  V30 6054 H 546.316 0.224682 -0.712409 0
M  V30 6055 H 548.978 -0.125605 -1.94495 0
M  V30 6056 H 548.074 1.02759 -2.94698 0
M  V30 6057 N 548.375 1.56261 0.205012 0
M  V30 6058 C 549.652 1.70856 0.952233 0
M  V30 6059 C 550.032 0.620501 2.01775 0
M  V30 6060 O 549.38 -0.370035 2.25484 0
M  V30 6061 C 549.59 3.12807 1.54767 0
M  V30 6062 C 550.938 3.72733 2.0336 0
M  V30 6063 O 551.962 3.15873 1.64629 0
M  V30 6064 O 550.821 4.72501 2.746 0
M  V30 6065 H 547.915 0.696496 0.445895 0
M  V30 6066 H 550.461 1.6857 0.195489 0
M  V30 6067 H 549.233 3.83465 0.779132 0
M  V30 6068 H 548.856 3.1928 2.36951 0
M  V30 6069 N 549.853 -0.472356 1.50355 0
M  V30 6070 C 551.083 -1.24603 1.64796 0
M  V30 6071 C 551.491 -1.86297 0.330156 0
M  V30 6072 O 550.834 -1.69934 -0.697728 0
M  V30 6073 C 550.896 -2.39578 2.68035 0
M  V30 6074 C 550.56 -1.98531 4.11624 0
M  V30 6075 C 551.557 -1.50856 4.97532 0
M  V30 6076 C 549.242 -2.0729 4.57532 0
M  V30 6077 C 551.236 -1.12481 6.27397 0
M  V30 6078 C 548.923 -1.68527 5.87403 0
M  V30 6079 C 549.921 -1.212 6.7216 0
M  V30 6080 O 549.609 -0.829728 7.99607 0
M  V30 6081 H 549.341 -0.383035 0.55701 0
M  V30 6082 H 551.895 -0.570392 1.97321 0
M  V30 6083 H 550.125 -3.10309 2.30749 0
M  V30 6084 H 551.814 -3.01544 2.71709 0
M  V30 6085 H 552.58 -1.43511 4.63281 0
M  V30 6086 H 548.459 -2.43076 3.91708 0
M  V30 6087 H 552.003 -0.754698 6.93506 0
M  V30 6088 H 547.9 -1.7553 6.21176 0
M  V30 6089 H 548.668 -0.958689 8.12866 0
M  V30 6090 N 551.331 -1.39911 -0.725443 0
M  V30 6091 C 552.241 -1.41688 -1.8698 0
M  V30 6092 C 553.257 -0.310579 -1.71206 0
M  V30 6093 O 554.433 -0.55359 -1.93642 0
M  V30 6094 C 551.498 -1.26811 -3.22676 0
M  V30 6095 C 550.559 -2.47497 -3.50776 0
M  V30 6096 C 549.792 -2.3332 -4.79997 0
M  V30 6097 O 550.015 -1.34175 -5.54394 0
M  V30 6098 O 548.949 -3.22498 -5.08211 0
M  V30 6099 H 552.775 -2.38171 -1.88436 0
M  V30 6100 H 550.36 -1.21128 -0.874548 0
M  V30 6101 H 552.242 -1.20684 -4.03749 0
M  V30 6102 H 550.917 -0.334289 -3.21969 0
M  V30 6103 H 549.824 -2.59201 -2.69751 0
M  V30 6104 H 551.157 -3.39606 -3.5627 0
M  V30 6105 N 552.809 0.956637 -1.25245 0
M  V30 6106 C 554.055 1.70352 -1.10036 0
M  V30 6107 C 554.388 1.90869 0.358156 0
M  V30 6108 O 553.663 1.47819 1.26411 0
M  V30 6109 C 553.946 3.08766 -1.85298 0
M  V30 6110 C 553.799 2.95672 -3.38966 0
M  V30 6111 C 555.118 4.08622 -1.63451 0
M  V30 6112 H 552.237 0.618279 -0.401123 0
M  V30 6113 H 554.879 1.11212 -1.54051 0
M  V30 6114 H 553.029 3.59252 -1.47887 0
M  V30 6115 H 554.701 2.52527 -3.86041 0
M  V30 6116 H 552.944 2.31634 -3.6678 0
M  V30 6117 H 553.615 3.93776 -3.86839 0
M  V30 6118 H 556.091 3.67038 -1.96015 0
M  V30 6119 H 554.967 5.03514 -2.18551 0
M  V30 6120 H 555.228 4.3834 -0.575357 0
M  V30 6121 N 554.287 1.06798 1.15896 0
M  V30 6122 C 555.536 0.782796 1.8589 0
M  V30 6123 C 555.849 -0.693498 1.82893 0
M  V30 6124 O 557.055 -1.09325 2.48516 0
M  V30 6125 C 555.511 1.3502 3.33613 0
M  V30 6126 C 555.119 2.8571 3.45071 0
M  V30 6127 C 556.863 1.14278 4.08829 0
M  V30 6128 C 554.77 3.35669 4.86909 0
M  V30 6129 H 553.7 0.289149 0.696354 0
M  V30 6130 H 556.351 1.28734 1.30766 0
M  V30 6131 H 554.733 0.773407 3.88374 0
M  V30 6132 H 555.907 3.49385 3.00445 0
M  V30 6133 H 554.222 3.05178 2.83294 0
M  V30 6134 H 556.819 1.49087 5.13495 0
M  V30 6135 H 557.162 0.0814575 4.1622 0
M  V30 6136 H 557.695 1.68563 3.60321 0
M  V30 6137 H 554.434 4.41302 4.84698 0
M  V30 6138 H 553.954 2.76745 5.32139 0
M  V30 6139 H 555.633 3.31296 5.55745 0
M  V30 6140 N 555.766 -1.3263 0.851289 0
M  V30 6141 C 557.043 -1.91982 0.374448 0
M  V30 6142 C 557.423 -1.77568 -1.14161 0
M  V30 6143 O 556.771 -1.1717 -1.96172 0
M  V30 6144 C 556.981 -3.38862 0.835088 0
M  V30 6145 C 558.329 -4.15999 0.850309 0
M  V30 6146 O 559.353 -3.47566 0.779505 0
M  V30 6147 O 558.212 -5.38189 0.949481 0
M  V30 6148 H 555.306 -0.819846 0.10854 0
M  V30 6149 H 557.852 -1.41422 0.937966 0
M  V30 6150 H 556.624 -3.43281 1.87814 0
M  V30 6151 H 556.247 -3.96821 0.248833 0
M  V30 6152 N 557.244 -0.608902 -1.45362 0
M  V30 6153 C 558.154 0.110969 -2.34337 0
M  V30 6154 C 559.17 0.859007 -1.51318 0
M  V30 6155 O 560.346 0.816296 -1.84116 0
M  V30 6156 C 557.411 1.09494 -3.28956 0
M  V30 6157 C 556.472 0.348718 -4.27881 0
M  V30 6158 C 555.705 1.28582 -5.17979 0
M  V30 6159 O 555.928 2.52369 -5.11533 0
M  V30 6160 O 554.862 0.782172 -5.96796 0
M  V30 6161 H 558.688 -0.620258 -2.97299 0
M  V30 6162 H 556.273 -0.36916 -1.44767 0
M  V30 6163 H 558.155 1.66163 -3.87257 0
M  V30 6164 H 556.83 1.80717 -2.68557 0
M  V30 6165 H 555.737 -0.260465 -3.73192 0
M  V30 6166 H 557.07 -0.323049 -4.91139 0
M  V30 6167 N 558.722 1.53707 -0.348139 0
M  V30 6168 C 559.968 2.01286 0.247332 0
M  V30 6169 C 560.301 1.23546 1.49834 0
M  V30 6170 O 559.576 0.324331 1.91777 0
M  V30 6171 C 559.859 3.55768 0.556858 0
M  V30 6172 C 559.712 4.44216 -0.706564 0
M  V30 6173 C 561.031 4.1841 1.3646 0
M  V30 6174 H 558.15 0.731677 0.0884201 0
M  V30 6175 H 560.792 1.84106 -0.469584 0
M  V30 6176 H 558.942 3.70539 1.16761 0
M  V30 6177 H 560.614 4.41274 -1.34444 0
M  V30 6178 H 558.857 4.12892 -1.33052 0
M  V30 6179 H 559.528 5.50202 -0.445186 0
M  V30 6180 H 562.004 4.07365 0.848113 0
M  V30 6181 H 560.88 5.26563 1.54992 0
M  V30 6182 H 561.141 3.7333 2.36805 0
M  V30 6183 N 560.2 0.0768682 1.57412 0
M  V30 6184 C 561.428 -0.59997 1.9801 0
M  V30 6185 C 561.843 -1.62842 0.955408 0
M  V30 6186 O 561.2 -1.8241 -0.057314 0
M  V30 6187 C 561.251 -1.26401 3.38681 0
M  V30 6188 O 560.972 -0.276723 4.37225 0
M  V30 6189 C 562.473 -2.0282 3.94182 0
M  V30 6190 H 559.693 -0.162239 0.651091 0
M  V30 6191 H 562.237 0.150771 2.03943 0
M  V30 6192 H 560.392 -1.96581 3.33819 0
M  V30 6193 H 560.806 -0.753744 5.19056 0
M  V30 6194 H 562.28 -2.44667 4.94815 0
M  V30 6195 H 562.757 -2.88678 3.31001 0
M  V30 6196 H 563.363 -1.37496 4.02461 0
M  V30 6197 N 561.678 -1.56367 -0.196722 0
M  V30 6198 C 562.626 -1.95304 -1.2633 0
M  V30 6199 C 563.62 -0.838252 -1.47206 0
M  V30 6200 O 564.826 -1.02325 -1.48087 0
M  V30 6201 H 561.201 -0.621013 -0.424083 0
M  V30 6202 H 563.172 -2.84254 -0.907879 0
M  V30 6203 C 561.921 -2.3074 -2.60104 0
M  V30 6204 H 561.244 -3.16047 -2.44856 0
M  V30 6205 H 562.684 -2.61849 -3.33484 0
M  V30 6206 C 561.143 -1.14143 -3.16975 0
M  V30 6207 O 561.673 -0.415602 -3.99544 0
M  V30 6208 N 559.879 -0.91867 -2.75697 0
M  V30 6209 H 559.426 -1.51065 -2.08656 0
M  V30 6210 H 559.384 -0.140321 -3.14087 0
M  V30 6211 N 563.156 0.464375 -1.50603 0
M  V30 6212 C 564.384 1.23907 -1.65695 0
M  V30 6213 C 564.799 1.85658 -0.343027 0
M  V30 6214 O 564.156 1.69529 0.675739 0
M  V30 6215 C 564.207 2.3429 -2.75301 0
M  V30 6216 O 563.928 1.7507 -4.01599 0
M  V30 6217 C 565.429 3.25051 -3.01424 0
M  V30 6218 H 562.649 0.374485 -0.556778 0
M  V30 6219 H 565.193 0.55353 -1.96866 0
M  V30 6220 H 563.348 2.98607 -2.46804 0
M  V30 6221 H 563.762 2.47812 -4.62266 0
M  V30 6222 H 565.236 3.98699 -3.81763 0
M  V30 6223 H 565.713 3.84227 -2.12758 0
M  V30 6224 H 566.319 2.66463 -3.31477 0
M  V30 6225 N 564.634 1.40294 0.718013 0
M  V30 6226 C 565.883 1.37746 1.4734 0
M  V30 6227 C 566.196 -0.0180754 1.95592 0
M  V30 6228 O 567.402 -0.166166 2.70991 0
M  V30 6229 C 565.858 2.4208 2.66318 0
M  V30 6230 C 565.466 3.87432 2.24945 0
M  V30 6231 C 567.21 2.48635 3.44065 0
M  V30 6232 C 565.117 4.83368 3.40748 0
M  V30 6233 H 564.047 0.512165 0.553356 0
M  V30 6234 H 566.698 1.66019 0.781661 0
M  V30 6235 H 565.08 2.06903 3.3765 0
M  V30 6236 H 566.254 4.3174 1.6105 0
M  V30 6237 H 564.569 3.8433 1.60249 0
M  V30 6238 H 567.166 3.17499 4.30231 0
M  V30 6239 H 567.509 1.51611 3.87711 0
M  V30 6240 H 568.042 2.82791 2.79775 0
M  V30 6241 H 564.781 5.81716 3.02136 0
M  V30 6242 H 564.301 4.43726 4.03568 0
M  V30 6243 H 565.98 5.03074 4.06848 0
M  V30 6244 N 566.112 -0.949982 1.2575 0
M  V30 6245 C 567.044 -2.05088 1.02331 0
M  V30 6246 C 568.057 -1.62795 -0.0133247 0
M  V30 6247 O 569.246 -1.77067 0.225759 0
M  V30 6248 C 566.346 -3.34794 0.525924 0
M  V30 6249 C 565.519 -4.05903 1.62978 0
M  V30 6250 C 564.578 -5.1388 1.13196 0
M  V30 6251 O 563.604 -5.39072 1.82729 0
M  V30 6252 N 564.806 -5.80495 -0.0242926 0
M  V30 6253 H 567.571 -2.25747 1.97125 0
M  V30 6254 H 565.132 -1.11886 1.17018 0
M  V30 6255 H 567.124 -4.04312 0.177263 0
M  V30 6256 H 565.694 -3.10872 -0.328202 0
M  V30 6257 H 564.914 -3.3042 2.1498 0
M  V30 6258 H 566.202 -4.50166 2.37124 0
M  V30 6259 H 565.6 -5.62454 -0.605184 0
M  V30 6260 H 564.157 -6.51043 -0.313947 0
M  V30 6261 N 567.59 -1.07411 -1.15328 0
M  V30 6262 C 568.839 -0.792643 -1.85473 0
M  V30 6263 C 569.152 0.683789 -1.83259 0
M  V30 6264 O 570.358 1.08005 -2.49093 0
M  V30 6265 C 568.814 -1.36787 -3.32892 0
M  V30 6266 C 568.422 -2.87536 -3.43551 0
M  V30 6267 C 570.166 -1.16444 -4.08217 0
M  V30 6268 C 568.073 -3.38247 -4.85122 0
M  V30 6269 H 567.003 -0.292838 -0.694811 0
M  V30 6270 H 569.654 -1.29426 -1.30082 0
M  V30 6271 H 568.036 -0.793993 -3.87958 0
M  V30 6272 H 569.21 -3.50973 -2.98588 0
M  V30 6273 H 567.525 -3.06676 -2.81672 0
M  V30 6274 H 570.122 -1.51808 -5.12697 0
M  V30 6275 H 570.465 -0.10353 -4.16171 0
M  V30 6276 H 570.998 -1.70472 -3.59422 0
M  V30 6277 H 567.737 -4.43866 -4.82351 0
M  V30 6278 H 567.257 -2.79564 -5.30664 0
M  V30 6279 H 568.936 -3.34238 -5.5398 0
M  V30 6280 N 569.068 1.32177 -0.85831 0
M  V30 6281 C 570.345 1.91781 -0.384624 0
M  V30 6282 C 570.725 1.78171 1.13217 0
M  V30 6283 O 570.073 1.18209 1.95548 0
M  V30 6284 C 570.283 3.38414 -0.853047 0
M  V30 6285 C 571.631 4.15542 -0.872359 0
M  V30 6286 O 572.655 3.47148 -0.797926 0
M  V30 6287 O 571.514 5.37678 -0.978009 0
M  V30 6288 H 568.608 0.819259 -0.112886 0
M  V30 6289 H 571.154 1.40923 -0.945453 0
M  V30 6290 H 569.926 3.4228 -1.89632 0
M  V30 6291 H 569.549 3.96683 -0.269874 0
M  V30 6292 N 570.547 0.616602 1.45037 0
M  V30 6293 C 571.772 0.120192 2.07051 0
M  V30 6294 C 572.197 -1.19008 1.45666 0
M  V30 6295 O 571.555 -1.7267 0.552692 0
M  V30 6296 C 571.603 0.00354901 3.606 0
M  V30 6297 O 570.707 -1.04431 3.98958 0
M  V30 6298 H 570.048 0.0781599 0.659384 0
M  V30 6299 H 572.578 0.849167 1.86146 0
M  V30 6300 H 572.588 -0.191754 4.07549 0
M  V30 6301 H 571.263 0.960239 4.04663 0
M  V30 6302 H 569.84 -0.824749 3.63665 0
M  V30 6303 N 572.025 -1.5352 0.356285 0
M  V30 6304 C 573.271 -2.02104 -0.229271 0
M  V30 6305 C 573.626 -1.23923 -1.47176 0
M  V30 6306 O 572.919 -0.321957 -1.88876 0
M  V30 6307 C 573.113 -3.52607 -0.583369 0
M  V30 6308 C 572.942 -4.4536 0.623253 0
M  V30 6309 C 571.712 -4.92446 1.13248 0
M  V30 6310 C 573.91 -4.92375 1.48563 0
M  V30 6311 N 571.892 -5.69183 2.3001 0
M  V30 6312 C 573.263 -5.67362 2.50001 0
M  V30 6313 C 575.318 -4.74464 1.50959 0
M  V30 6314 C 574.021 -6.26341 3.5368 0
M  V30 6315 C 576.047 -5.34302 2.53526 0
M  V30 6316 C 575.409 -6.09166 3.53688 0
M  V30 6317 H 571.508 -0.780595 -0.0468602 0
M  V30 6318 H 574.092 -1.88204 0.49873 0
M  V30 6319 H 572.263 -3.66686 -1.28046 0
M  V30 6320 H 573.995 -3.87922 -1.15321 0
M  V30 6321 H 570.75 -4.6842 0.698562 0
M  V30 6322 H 571.174 -6.12216 2.88998 0
M  V30 6323 H 575.816 -4.16117 0.748785 0
M  V30 6324 H 573.534 -6.8379 4.30648 0
M  V30 6325 H 577.12 -5.22342 2.56223 0
M  V30 6326 H 576 -6.54644 4.31753 0
M  V30 6327 N 573.503 -0.0852151 -1.57369 0
M  V30 6328 C 574.433 0.874556 -2.16503 0
M  V30 6329 C 575.414 1.30111 -1.09568 0
M  V30 6330 O 576.599 1.36977 -1.37662 0
M  V30 6331 C 573.729 2.13731 -2.73745 0
M  V30 6332 C 572.683 1.84971 -3.85966 0
M  V30 6333 C 572.009 3.17991 -4.29867 0
M  V30 6334 C 573.309 1.14442 -5.09608 0
M  V30 6335 H 575.003 0.381899 -2.96954 0
M  V30 6336 H 572.549 0.18225 -1.42842 0
M  V30 6337 H 574.502 2.81302 -3.13763 0
M  V30 6338 H 573.226 2.65263 -1.90534 0
M  V30 6339 H 571.885 1.19801 -3.46473 0
M  V30 6340 H 571.533 3.6739 -3.4356 0
M  V30 6341 H 571.233 2.99534 -5.05523 0
M  V30 6342 H 572.757 3.86737 -4.72511 0
M  V30 6343 H 574.171 1.72105 -5.46857 0
M  V30 6344 H 572.568 1.06197 -5.90629 0
M  V30 6345 H 573.638 0.12559 -4.84737 0
M  V30 6346 N 574.981 1.5647 0.188427 0
M  V30 6347 C 576.211 1.84863 0.922463 0
M  V30 6348 C 576.619 0.666413 1.77075 0
M  V30 6349 O 575.962 -0.374044 1.79852 0
M  V30 6350 C 576.024 3.07447 1.86324 0
M  V30 6351 C 575.688 4.41066 1.19625 0
M  V30 6352 C 576.685 5.16767 0.569946 0
M  V30 6353 C 574.37 4.87802 1.19811 0
M  V30 6354 C 576.364 6.37384 -0.045594 0
M  V30 6355 C 574.051 6.08353 0.57874 0
M  V30 6356 C 575.049 6.82987 -0.0420259 0
M  V30 6357 O 574.737 8.01254 -0.651675 0
M  V30 6358 H 574.469 0.61784 0.274316 0
M  V30 6359 H 577.023 2.04437 0.198613 0
M  V30 6360 H 575.253 2.83774 2.62696 0
M  V30 6361 H 576.942 3.2243 2.46564 0
M  V30 6362 H 577.708 4.81749 0.560601 0
M  V30 6363 H 573.587 4.29662 1.67069 0
M  V30 6364 H 577.131 6.95578 -0.530731 0
M  V30 6365 H 573.028 6.42838 0.58561 0
M  V30 6366 H 573.796 8.16655 -0.549236 0
M  V30 6367 N 576.459 -0.456382 1.50847 0
M  V30 6368 C 577.391 -1.57033 1.66953 0
M  V30 6369 C 578.404 -1.53207 0.550593 0
M  V30 6370 O 579.593 -1.58328 0.824285 0
M  V30 6371 C 576.693 -2.95937 1.65149 0
M  V30 6372 C 575.866 -3.24475 2.93317 0
M  V30 6373 C 574.925 -4.43007 2.83957 0
M  V30 6374 O 573.951 -4.42592 3.57912 0
M  V30 6375 N 575.153 -5.45503 1.9851 0
M  V30 6376 H 577.918 -1.43629 2.63042 0
M  V30 6377 H 575.479 -0.645037 1.48495 0
M  V30 6378 H 577.471 -3.73224 1.56481 0
M  V30 6379 H 576.041 -3.03036 0.767343 0
M  V30 6380 H 575.261 -2.35664 3.16 0
M  V30 6381 H 576.549 -3.4036 3.78196 0
M  V30 6382 H 575.947 -5.48668 1.37766 0
M  V30 6383 H 574.504 -6.21716 1.95735 0
M  V30 6384 N 577.937 -1.40673 -0.710563 0
M  V30 6385 C 578.867 -1.44095 -1.83736 0
M  V30 6386 C 579.848 -0.301286 -1.67411 0
M  V30 6387 O 581.033 -0.510618 -1.87367 0
M  V30 6388 C 578.163 -1.30773 -3.21738 0
M  V30 6389 C 577.117 -2.42395 -3.52745 0
M  V30 6390 C 576.443 -2.14147 -4.89944 0
M  V30 6391 C 577.743 -3.84738 -3.53234 0
M  V30 6392 H 579.437 -2.38396 -1.81129 0
M  V30 6393 H 576.983 -1.14746 -0.870017 0
M  V30 6394 H 578.936 -1.31783 -4.00264 0
M  V30 6395 H 577.66 -0.329507 -3.24934 0
M  V30 6396 H 576.319 -2.40643 -2.76562 0
M  V30 6397 H 575.967 -1.14703 -4.89747 0
M  V30 6398 H 575.667 -2.88934 -5.11655 0
M  V30 6399 H 577.191 -2.16848 -5.70797 0
M  V30 6400 H 578.605 -3.88286 -4.2179 0
M  V30 6401 H 577.002 -4.59085 -3.86473 0
M  V30 6402 H 578.072 -4.13962 -2.52514 0
M  V30 6403 N 579.415 0.9433 -1.26252 0
M  V30 6404 C 580.378 2.02326 -1.07689 0
M  V30 6405 C 581.378 1.60779 -0.0259174 0
M  V30 6406 O 582.568 1.72108 -0.269134 0
M  V30 6407 C 579.7 3.34886 -0.63752 0
M  V30 6408 H 580.893 2.20225 -2.0357 0
M  V30 6409 H 578.446 1.12197 -1.08819 0
M  V30 6410 H 579.181 3.22684 0.323377 0
M  V30 6411 H 578.966 3.66393 -1.39637 0
M  V30 6412 H 580.456 4.14231 -0.529418 0
M  V30 6413 N 580.893 1.08022 1.14757 0
M  V30 6414 C 581.823 0.728248 2.21853 0
M  V30 6415 C 582.804 -0.287486 1.67653 0
M  V30 6416 O 583.989 -0.158727 1.9355 0
M  V30 6417 C 581.119 0.132549 3.47047 0
M  V30 6418 C 580.073 1.07619 4.14249 0
M  V30 6419 C 579.399 0.342907 5.33599 0
M  V30 6420 C 580.699 2.41268 4.63235 0
M  V30 6421 H 582.393 1.62365 2.51551 0
M  V30 6422 H 579.939 0.782125 1.20908 0
M  V30 6423 H 581.892 -0.125665 4.21213 0
M  V30 6424 H 580.616 -0.797971 3.16702 0
M  V30 6425 H 579.275 1.31944 3.42033 0
M  V30 6426 H 578.923 -0.59129 4.99513 0
M  V30 6427 H 578.623 0.971955 5.79506 0
M  V30 6428 H 580.147 0.0926538 6.1053 0
M  V30 6429 H 581.561 2.21232 5.28894 0
M  V30 6430 H 579.958 2.9983 5.19829 0
M  V30 6431 H 581.028 3.03079 3.78512 0
M  V30 6432 N 582.371 -1.3172 0.865308 0
M  V30 6433 C 583.596 -2.01591 0.487415 0
M  V30 6434 C 584.021 -1.6455 -0.911307 0
M  V30 6435 O 583.379 -0.851689 -1.6005 0
M  V30 6436 C 583.427 -3.54759 0.646401 0
M  V30 6437 O 582.531 -4.11185 -0.316284 0
M  V30 6438 H 581.872 -0.634884 0.194468 0
M  V30 6439 H 584.402 -1.68024 1.16744 0
M  V30 6440 H 584.412 -4.04438 0.537932 0
M  V30 6441 H 583.087 -3.8106 1.66632 0
M  V30 6442 H 581.664 -3.72543 -0.163162 0
M  V30 6443 N 583.85 -0.624285 -1.44708 0
M  V30 6444 C 585.099 -0.123539 -2.01321 0
M  V30 6445 C 585.412 1.25966 -1.49639 0
M  V30 6446 O 586.618 1.85405 -1.98336 0
M  V30 6447 C 585.074 -0.170124 -3.59498 0
M  V30 6448 C 584.682 -1.55421 -4.20176 0
M  V30 6449 C 586.426 0.274513 -4.23611 0
M  V30 6450 C 584.332 -1.55628 -5.70556 0
M  V30 6451 H 583.263 -0.0424183 -0.752806 0
M  V30 6452 H 585.913 -0.782076 -1.65999 0
M  V30 6453 H 584.296 0.555385 -3.92086 0
M  V30 6454 H 585.47 -2.30276 -3.99136 0
M  V30 6455 H 583.784 -1.94235 -3.68323 0
M  V30 6456 H 586.382 0.292402 -5.339 0
M  V30 6457 H 586.725 1.3005 -3.95465 0
M  V30 6458 H 587.258 -0.398275 -3.95801 0
M  V30 6459 H 583.997 -2.56041 -6.03426 0
M  V30 6460 H 583.517 -0.850563 -5.93739 0
M  V30 6461 H 585.196 -1.28721 -6.34066 0
M  V30 6462 N 585.328 1.53329 -0.364422 0
M  V30 6463 C 586.576 2.00842 0.225189 0
M  V30 6464 C 586.897 1.25345 1.49378 0
M  V30 6465 O 586.167 0.366396 1.92443 0
M  V30 6466 H 584.747 0.742009 0.0862027 0
M  V30 6467 H 587.409 1.8863 -0.490389 0
M  V30 6468 H 586.505 3.08795 0.452987 0
M  V30 6469 N 586.806 0.0935595 1.57322 0
M  V30 6470 C 588.034 -0.578934 1.98635 0
M  V30 6471 C 588.449 -1.61819 0.972626 0
M  V30 6472 O 587.806 -1.82461 -0.0379638 0
M  V30 6473 C 587.857 -1.22802 3.40003 0
M  V30 6474 O 587.578 -0.230334 4.37494 0
M  V30 6475 C 589.079 -1.98627 3.96311 0
M  V30 6476 H 586.299 -0.155324 0.652775 0
M  V30 6477 H 588.843 0.172393 2.03772 0
M  V30 6478 H 586.998 -1.93029 3.35885 0
M  V30 6479 H 587.412 -0.698649 5.19826 0
M  V30 6480 H 588.886 -2.39405 4.97382 0
M  V30 6481 H 589.363 -2.85151 3.34044 0
M  V30 6482 H 589.969 -1.3322 4.03897 0
M  V30 6483 N 588.284 -1.56567 -0.180126 0
M  V30 6484 C 589.695 -1.7126 -0.743422 0
M  V30 6485 C 590.046 -0.70263 -1.83187 0
M  V30 6486 O 589.171 0.137856 -2.1596 0
M  V30 6487 C 589.766 -3.10512 -1.35528 0
M  V30 6488 C 588.325 -3.26919 -1.8655 0
M  V30 6489 C 587.472 -2.67213 -0.741099 0
M  V30 6490 H 590.423 -1.58636 0.0451543 0
M  V30 6491 H 590.444 -3.08673 -2.22489 0
M  V30 6492 H 589.956 -3.83997 -0.562862 0
M  V30 6493 H 588.057 -2.58376 -2.68464 0
M  V30 6494 H 588.17 -4.34574 -2.01699 0
M  V30 6495 H 586.534 -2.26788 -1.15927 0
M  V30 6496 H 587.317 -3.43277 0.0393291 0
M  V30 6497 N 589.762 0.448376 -1.51087 0
M  V30 6498 C 590.992 1.21965 -1.66757 0
M  V30 6499 C 591.4 1.85748 -0.359753 0
M  V30 6500 O 590.743 1.71022 0.670604 0
M  V30 6501 C 590.805 2.35284 -2.71812 0
M  V30 6502 C 590.469 1.91957 -4.1473 0
M  V30 6503 C 591.466 1.42921 -4.9987 0
M  V30 6504 C 589.151 1.99985 -4.60772 0
M  V30 6505 C 591.145 1.02485 -6.29107 0
M  V30 6506 C 588.832 1.5916 -5.90009 0
M  V30 6507 C 589.83 1.10491 -6.74004 0
M  V30 6508 O 589.518 0.702413 -8.00825 0
M  V30 6509 H 589.25 0.374125 -0.563034 0
M  V30 6510 H 591.804 0.538927 -1.98204 0
M  V30 6511 H 590.034 3.06599 -2.35657 0
M  V30 6512 H 591.723 2.97184 -2.76472 0
M  V30 6513 H 592.489 1.36123 -4.65506 0
M  V30 6514 H 588.368 2.36814 -3.95525 0
M  V30 6515 H 591.912 0.644271 -6.94619 0
M  V30 6516 H 587.809 1.65626 -6.2389 0
M  V30 6517 H 588.577 0.829248 -8.14288 0
M  V30 6518 N 591.24 1.41047 0.703093 0
M  V30 6519 C 592.656 1.23351 1.01275 0
M  V30 6520 C 592.856 0.11754 2.01157 0
M  V30 6521 O 591.912 -0.520518 2.47077 0
M  V30 6522 C 593.225 2.58001 1.54454 0
M  V30 6523 C 594.773 2.65119 1.66376 0
M  V30 6524 C 595.248 4.00067 2.22958 0
M  V30 6525 N 596.739 4.01875 2.30328 0
M  V30 6526 C 597.474 5.03087 2.75119 0
M  V30 6527 N 596.97 6.14692 3.19571 0
M  V30 6528 N 598.763 4.90451 2.74616 0
M  V30 6529 H 590.914 2.1236 0.0412686 0
M  V30 6530 H 593.177 0.944543 0.08089 0
M  V30 6531 H 592.883 3.40378 0.88521 0
M  V30 6532 H 592.757 2.79962 2.52786 0
M  V30 6533 H 595.144 1.83106 2.31422 0
M  V30 6534 H 595.225 2.46975 0.666089 0
M  V30 6535 H 594.869 4.82526 1.58529 0
M  V30 6536 H 594.799 4.15547 3.23462 0
M  V30 6537 H 597.29 3.21291 1.98949 0
M  V30 6538 H 597.603 6.87799 3.52352 0
M  V30 6539 H 595.948 6.18239 3.17498 0
M  V30 6540 H 599.139 4.0235 2.39233 0
M  V30 6541 H 599.312 5.6947 3.09206 0
M  V30 6542 N 592.718 -0.936591 1.26751 0
M  V30 6543 C 593.948 -1.71509 1.15188 0
M  V30 6544 C 594.356 -1.86885 -0.295037 0
M  V30 6545 O 593.699 -1.37915 -1.21347 0
M  V30 6546 C 593.761 -3.13853 1.75318 0
M  V30 6547 C 593.425 -3.21845 3.24445 0
M  V30 6548 C 594.422 -3.04771 4.21201 0
M  V30 6549 C 592.107 -3.45088 3.64992 0
M  V30 6550 C 594.101 -3.10816 5.56482 0
M  V30 6551 C 591.788 -3.50767 5.00405 0
M  V30 6552 C 592.786 -3.33648 5.9596 0
M  V30 6553 O 592.474 -3.39045 7.28906 0
M  V30 6554 H 592.206 -0.543658 0.401761 0
M  V30 6555 H 594.76 -1.18234 1.67958 0
M  V30 6556 H 592.99 -3.6857 1.17016 0
M  V30 6557 H 594.679 -3.73634 1.58596 0
M  V30 6558 H 595.445 -2.86665 3.91214 0
M  V30 6559 H 591.324 -3.57467 2.91098 0
M  V30 6560 H 594.868 -2.97372 6.31043 0
M  V30 6561 H 590.765 -3.68396 5.30052 0
M  V30 6562 H 591.533 -3.55558 7.37238 0
M  V30 6563 N 594.196 -1.08629 -1.14182 0
M  V30 6564 C 595.144 -0.71284 -2.21408 0
M  V30 6565 C 596.138 0.282457 -1.67029 0
M  V30 6566 O 597.344 0.144783 -1.79417 0
M  V30 6567 H 593.719 -0.212497 -0.721352 0
M  V30 6568 H 595.69 -1.6265 -2.50175 0
M  V30 6569 C 594.439 -0.140704 -3.47415 0
M  V30 6570 H 593.762 -0.897739 -3.8959 0
M  V30 6571 H 595.202 0.0827677 -4.23919 0
M  V30 6572 C 593.661 1.122 -3.17668 0
M  V30 6573 O 594.191 2.20652 -3.35672 0
M  V30 6574 N 592.397 1.03328 -2.71609 0
M  V30 6575 H 591.944 0.150666 -2.57159 0
M  V30 6576 H 591.902 1.8789 -2.52081 0
M  V30 6577 N 595.674 1.31259 -0.872281 0
M  V30 6578 C 596.902 2.00795 -0.498907 0
M  V30 6579 C 597.317 1.65464 0.909238 0
M  V30 6580 O 596.674 0.885073 1.59602 0
M  V30 6581 C 596.725 3.55625 -0.649092 0
M  V30 6582 O 596.446 3.89692 -2.00179 0
M  V30 6583 C 597.947 4.42434 -0.277034 0
M  V30 6584 H 595.167 0.642299 -0.194145 0
M  V30 6585 H 597.711 1.67438 -1.17408 0
M  V30 6586 H 595.866 3.87394 -0.0214402 0
M  V30 6587 H 596.28 4.84407 -2.01122 0
M  V30 6588 H 597.754 5.50299 -0.433064 0
M  V30 6589 H 598.231 4.32146 0.783989 0
M  V30 6590 H 598.837 4.16086 -0.880483 0
M  V30 6591 N 597.152 0.631951 1.44375 0
M  V30 6592 C 598.377 0.142146 2.06912 0
M  V30 6593 C 598.802 -1.17456 1.4692 0
M  V30 6594 O 598.16 -1.72074 0.570975 0
M  V30 6595 C 598.208 0.0417952 3.60576 0
M  V30 6596 O 597.312 -1.00194 4.00044 0
M  V30 6597 H 596.653 0.0851491 0.658518 0
M  V30 6598 H 599.183 0.868863 1.85235 0
M  V30 6599 H 599.193 -0.148517 4.0773 0
M  V30 6600 H 597.868 1.0031 4.03622 0
M  V30 6601 H 596.445 -0.786131 3.64519 0
M  V30 6602 N 598.631 -1.53133 0.372548 0
M  V30 6603 C 599.594 -2.24569 -0.458389 0
M  V30 6604 C 600.594 -1.25603 -1.00402 0
M  V30 6605 O 601.784 -1.49827 -0.888672 0
M  V30 6606 C 598.916 -2.98783 -1.6414 0
M  V30 6607 H 600.109 -2.99436 0.166799 0
M  V30 6608 H 597.662 -1.55805 0.124357 0
M  V30 6609 H 598.397 -2.28176 -2.30448 0
M  V30 6610 H 598.182 -3.71404 -1.25704 0
M  V30 6611 H 599.672 -3.53068 -2.23008 0
M  V30 6612 N 600.109 -0.101901 -1.5727 0
M  V30 6613 C 601.357 0.559091 -1.94213 0
M  V30 6614 C 601.678 1.68297 -0.984948 0
M  V30 6615 O 600.948 1.95863 -0.0381975 0
M  V30 6616 H 599.528 0.20952 -0.717015 0
M  V30 6617 H 602.19 -0.166831 -1.94185 0
M  V30 6618 H 601.286 0.96485 -2.96811 0
M  V30 6619 N 601.587 1.56661 0.17182 0
M  V30 6620 C 602.836 1.81158 0.886831 0
M  V30 6621 C 603.149 0.679072 1.83434 0
M  V30 6622 O 604.355 0.808964 2.59168 0
M  V30 6623 C 602.811 3.20999 1.6275 0
M  V30 6624 C 602.419 4.42117 0.723652 0
M  V30 6625 C 604.163 3.5479 2.33076 0
M  V30 6626 C 602.07 5.7298 1.46452 0
M  V30 6627 H 601 0.675543 0.334899 0
M  V30 6628 H 603.651 1.82967 0.139765 0
M  V30 6629 H 602.033 3.13506 2.4193 0
M  V30 6630 H 603.207 4.60789 -0.0311485 0
M  V30 6631 H 601.522 4.16197 0.130063 0
M  V30 6632 H 604.119 4.49806 2.89099 0
M  V30 6633 H 604.462 2.79646 3.08389 0
M  V30 6634 H 604.995 3.63834 1.6084 0
M  V30 6635 H 601.734 6.51152 0.753729 0
M  V30 6636 H 601.254 5.58285 2.19266 0
M  V30 6637 H 602.933 6.14916 2.01214 0
M  V30 6638 N 603.065 -0.440357 1.51323 0
M  V30 6639 C 604.311 -1.18874 1.65047 0
M  V30 6640 C 604.666 -1.88988 0.360742 0
M  V30 6641 O 603.959 -1.80479 -0.643272 0
M  V30 6642 C 604.153 -2.2339 2.78984 0
M  V30 6643 C 603.982 -1.63534 4.18911 0
M  V30 6644 C 602.752 -1.42158 4.84891 0
M  V30 6645 C 604.95 -1.11324 5.02107 0
M  V30 6646 N 602.932 -0.778679 6.08942 0
M  V30 6647 C 604.303 -0.595421 6.17134 0
M  V30 6648 C 606.358 -1.00471 4.87658 0
M  V30 6649 C 605.061 0.0202557 7.19297 0
M  V30 6650 C 607.087 -0.402928 5.90026 0
M  V30 6651 C 606.449 0.10436 7.04323 0
M  V30 6652 H 602.548 -0.422771 0.657866 0
M  V30 6653 H 605.132 -0.485814 1.88542 0
M  V30 6654 H 603.303 -2.91074 2.57158 0
M  V30 6655 H 605.035 -2.90366 2.81904 0
M  V30 6656 H 601.79 -1.68247 4.42707 0
M  V30 6657 H 602.214 -0.474755 6.75333 0
M  V30 6658 H 606.856 -1.38278 3.99548 0
M  V30 6659 H 604.574 0.410468 8.07057 0
M  V30 6660 H 608.16 -0.320897 5.80914 0
M  V30 6661 H 607.04 0.562697 7.82179 0
M  V30 6662 N 604.543 -1.41418 -0.695603 0
M  V30 6663 C 605.453 -1.45622 -1.83933 0
M  V30 6664 C 606.469 -0.346825 -1.70508 0
M  V30 6665 O 607.645 -0.59454 -1.92424 0
M  V30 6666 C 604.71 -1.33627 -3.19914 0
M  V30 6667 C 603.771 -2.54882 -3.45447 0
M  V30 6668 C 603.004 -2.43449 -4.7494 0
M  V30 6669 O 603.227 -1.45905 -5.51424 0
M  V30 6670 O 602.161 -3.33206 -5.01256 0
M  V30 6671 H 605.987 -2.42114 -1.83342 0
M  V30 6672 H 603.572 -1.22956 -0.848658 0
M  V30 6673 H 605.454 -1.29221 -4.01098 0
M  V30 6674 H 604.129 -0.402508 -3.21188 0
M  V30 6675 H 603.036 -2.64865 -2.64192 0
M  V30 6676 H 604.369 -3.47087 -3.48987 0
M  V30 6677 N 606.021 0.929856 -1.27246 0
M  V30 6678 C 607.269 1.674 -1.13233 0
M  V30 6679 C 607.59 1.92311 0.322744 0
M  V30 6680 O 606.86 1.52784 1.22612 0
M  V30 6681 H 605.44 0.620411 -0.416052 0
M  V30 6682 H 608.102 1.11663 -1.59741 0
M  V30 6683 H 607.198 2.64308 -1.65975 0
M  V30 6684 N 607.499 1.09233 1.13605 0
M  V30 6685 C 608.747 0.825525 1.84471 0
M  V30 6686 C 609.068 -0.650702 1.83823 0
M  V30 6687 O 608.338 -1.47204 1.29259 0
M  V30 6688 H 606.918 0.3024 0.683054 0
M  V30 6689 H 609.58 1.38006 1.37624 0
M  V30 6690 H 608.676 1.17727 2.89045 0
M  V30 6691 N 608.977 -1.30795 0.87923 0
M  V30 6692 C 610.388 -1.78535 0.546093 0
M  V30 6693 C 610.739 -1.72354 -0.937467 0
M  V30 6694 O 609.864 -1.2969 -1.73233 0
M  V30 6695 C 610.459 -3.24181 0.9845 0
M  V30 6696 C 609.018 -3.69779 0.702871 0
M  V30 6697 C 608.165 -2.51377 1.17068 0
M  V30 6698 H 611.116 -1.17746 1.06403 0
M  V30 6699 H 611.137 -3.79227 0.311045 0
M  V30 6700 H 610.649 -3.28647 2.06429 0
M  V30 6701 H 608.75 -3.70806 -0.365166 0
M  V30 6702 H 608.863 -4.61507 1.28639 0
M  V30 6703 H 607.227 -2.47768 0.590172 0
M  V30 6704 H 608.01 -2.58584 2.25808 0
M  V30 6705 N 610.455 -0.639598 -1.44038 0
M  V30 6706 C 611.68 -0.153117 -2.06834 0
M  V30 6707 C 612.105 1.16676 -1.47541 0
M  V30 6708 O 611.463 1.71769 -0.580093 0
M  V30 6709 C 611.511 -0.0609169 -3.60549 0
M  V30 6710 O 610.615 0.98071 -4.00569 0
M  V30 6711 H 609.956 -0.0886402 -0.658057 0
M  V30 6712 H 612.486 -0.878674 -1.84771 0
M  V30 6713 H 612.496 0.126892 -4.07803 0
M  V30 6714 H 611.171 -1.0245 -4.03084 0
M  V30 6715 H 609.748 0.766789 -3.64931 0
M  V30 6716 N 611.933 1.52934 -0.380664 0
M  V30 6717 C 612.88 2.26197 0.458641 0
M  V30 6718 C 613.85 1.27462 1.06502 0
M  V30 6719 O 615.035 1.56274 1.09467 0
M  V30 6720 C 612.175 3.06571 1.58456 0
M  V30 6721 C 611.288 4.20222 1.00189 0
M  V30 6722 C 610.423 4.88007 2.09815 0
M  V30 6723 C 609.462 5.93665 1.49092 0
M  V30 6724 N 608.599 6.55081 2.52613 0
M  V30 6725 H 613.439 2.975 -0.172595 0
M  V30 6726 H 610.976 1.4678 -0.0969426 0
M  V30 6727 H 612.934 3.51455 2.24801 0
M  V30 6728 H 611.564 2.37494 2.18624 0
M  V30 6729 H 610.616 3.79714 0.228292 0
M  V30 6730 H 611.928 4.96102 0.518064 0
M  V30 6731 H 611.082 5.36151 2.83948 0
M  V30 6732 H 609.821 4.11632 2.61555 0
M  V30 6733 H 608.826 5.44868 0.7348 0
M  V30 6734 H 610.051 6.71969 0.981582 0
M  V30 6735 H 607.997 5.8155 3.03538 0
M  V30 6736 H 607.914 7.26548 2.08961 0
M  V30 6737 H 609.182 7.07871 3.26402 0
M  V30 6738 N 613.412 0.11024 1.57214 0
M  V30 6739 C 614.689 -0.592956 1.86396 0
M  V30 6740 C 615.069 -1.85379 1.00985 0
M  V30 6741 O 614.417 -2.28337 0.0863592 0
M  V30 6742 C 614.627 -0.893816 3.3736 0
M  V30 6743 C 615.975 -1.25069 4.05762 0
M  V30 6744 O 616.999 -0.984356 3.42329 0
M  V30 6745 O 615.858 -1.75017 5.17718 0
M  V30 6746 H 612.952 -0.29828 0.771335 0
M  V30 6747 H 615.498 0.144083 1.69087 0
M  V30 6748 H 614.27 2.6031e-05 3.913 0
M  V30 6749 H 613.893 -1.68631 3.60068 0
M  V30 6750 N 614.89 -1.56749 -0.16351 0
M  V30 6751 C 616.115 -1.86938 -0.898264 0
M  V30 6752 C 616.54 -0.697456 -1.74692 0
M  V30 6753 O 615.898 0.353327 -1.77824 0
M  V30 6754 C 615.946 -3.15599 -1.74441 0
M  V30 6755 O 615.05 -2.98371 -2.8469 0
M  V30 6756 H 614.391 -0.614659 -0.251178 0
M  V30 6757 H 616.921 -2.03979 -0.159298 0
M  V30 6758 H 616.931 -3.47202 -2.14277 0
M  V30 6759 H 615.606 -4.00505 -1.1211 0
M  V30 6760 H 614.183 -2.7814 -2.4838 0
M  V30 6761 N 616.368 0.432326 -1.51554 0
M  V30 6762 C 617.298 1.53242 -1.76179 0
M  V30 6763 C 618.279 1.58717 -0.611801 0
M  V30 6764 O 619.464 1.74364 -0.855033 0
M  V30 6765 C 616.594 2.91278 -1.89141 0
M  V30 6766 C 615.548 3.00663 -3.04608 0
M  V30 6767 C 614.874 4.40728 -3.02759 0
M  V30 6768 C 616.174 2.74281 -4.44485 0
M  V30 6769 H 617.868 1.32886 -2.68294 0
M  V30 6770 H 615.414 0.637841 -1.29103 0
M  V30 6771 H 617.367 3.68203 -2.04951 0
M  V30 6772 H 616.091 3.12877 -0.936785 0
M  V30 6773 H 614.75 2.26179 -2.88511 0
M  V30 6774 H 614.398 4.59301 -2.05065 0
M  V30 6775 H 614.098 4.47936 -3.80299 0
M  V30 6776 H 615.622 5.19619 -3.20669 0
M  V30 6777 H 617.036 3.40936 -4.60907 0
M  V30 6778 H 615.433 2.92893 -5.23769 0
M  V30 6779 H 616.503 1.69856 -4.54177 0
M  V30 6780 N 617.846 1.41785 0.688094 0
M  V30 6781 C 619.076 1.44705 1.47459 0
M  V30 6782 C 619.484 0.052916 1.89126 0
M  V30 6783 O 618.827 -0.939781 1.57841 0
M  V30 6784 C 618.889 2.29935 2.76352 0
M  V30 6785 C 618.553 3.77996 2.56843 0
M  V30 6786 C 619.55 4.69976 2.22304 0
M  V30 6787 C 617.235 4.2212 2.7225 0
M  V30 6788 C 619.229 6.04068 2.03421 0
M  V30 6789 C 616.916 5.56275 2.52985 0
M  V30 6790 C 617.914 6.47065 2.18621 0
M  V30 6791 O 617.602 7.78744 1.9953 0
M  V30 6792 H 617.334 0.494703 0.460701 0
M  V30 6793 H 619.888 1.86802 0.854057 0
M  V30 6794 H 618.118 1.82664 3.40839 0
M  V30 6795 H 619.807 2.24467 3.38186 0
M  V30 6796 H 620.573 4.37175 2.10008 0
M  V30 6797 H 616.452 3.51752 2.97979 0
M  V30 6798 H 619.996 6.74897 1.76523 0
M  V30 6799 H 615.893 5.88653 2.64873 0
M  V30 6800 H 616.661 7.89966 2.14234 0
M  V30 6801 N 619.324 -0.923095 1.27737 0
M  V30 6802 C 620.57 -1.67375 1.14514 0
M  V30 6803 C 620.903 -1.91751 -0.307424 0
M  V30 6804 O 620.178 -1.51119 -1.22447 0
M  V30 6805 C 620.461 -3.03745 1.9342 0
M  V30 6806 C 620.314 -2.86581 3.46686 0
M  V30 6807 C 621.633 -4.04144 1.74228 0
M  V30 6808 H 618.752 -0.607427 0.417374 0
M  V30 6809 H 621.394 -1.07089 1.56946 0
M  V30 6810 H 619.544 -3.55204 1.5736 0
M  V30 6811 H 621.216 -2.42203 3.92601 0
M  V30 6812 H 619.459 -2.21829 3.72793 0
M  V30 6813 H 620.13 -3.83381 3.97143 0
M  V30 6814 H 622.606 -3.61712 2.05678 0
M  V30 6815 H 621.482 -4.97543 2.31824 0
M  V30 6816 H 621.743 -4.36661 0.691373 0
M  V30 6817 N 620.802 -1.09834 -1.13024 0
M  V30 6818 C 622.027 -0.85909 -1.88771 0
M  V30 6819 C 622.452 0.584402 -1.78791 0
M  V30 6820 O 621.81 1.41101 -1.13842 0
M  V30 6821 C 621.858 -1.30427 -3.36186 0
M  V30 6822 O 620.962 -0.465368 -4.09766 0
M  V30 6823 H 620.303 -0.310786 -0.586778 0
M  V30 6824 H 622.833 -1.46355 -1.42973 0
M  V30 6825 H 622.843 -1.2915 -3.8702 0
M  V30 6826 H 621.518 -2.3555 -3.42767 0
M  V30 6827 H 620.095 -0.542814 -3.68928 0
M  V30 6828 N 622.28 1.30327 -0.886154 0
M  V30 6829 C 623.505 2.0079 -0.519425 0
M  V30 6830 C 623.93 1.65979 0.885013 0
M  V30 6831 O 623.288 0.877043 1.58675 0
M  V30 6832 C 623.336 3.53686 -0.702758 0
M  V30 6833 O 622.44 4.11637 0.250828 0
M  V30 6834 H 621.781 0.63171 -0.204544 0
M  V30 6835 H 624.311 1.66145 -1.19402 0
M  V30 6836 H 624.321 4.03531 -0.602207 0
M  V30 6837 H 622.996 3.78361 -1.72673 0
M  V30 6838 H 621.573 3.72755 0.103873 0
M  V30 6839 N 623.758 0.647228 1.43697 0
M  V30 6840 C 624.688 -0.0345631 2.33474 0
M  V30 6841 C 625.669 -0.818193 1.4913 0
M  V30 6842 O 626.854 -0.780867 1.77809 0
M  V30 6843 C 623.984 -1.00576 3.32418 0
M  V30 6844 C 622.938 -0.33266 4.26705 0
M  V30 6845 C 622.264 -1.41489 5.1564 0
M  V30 6846 C 623.564 0.771204 5.16575 0
M  V30 6847 H 625.258 0.715163 2.90733 0
M  V30 6848 H 622.804 0.345364 1.39797 0
M  V30 6849 H 624.757 -1.49159 3.94119 0
M  V30 6850 H 623.481 -1.78657 2.73403 0
M  V30 6851 H 622.14 0.13267 3.6636 0
M  V30 6852 H 621.788 -2.18698 4.52968 0
M  V30 6853 H 621.488 -0.969799 5.79542 0
M  V30 6854 H 623.012 -1.9022 5.80214 0
M  V30 6855 H 624.426 0.36779 5.72119 0
M  V30 6856 H 622.823 1.1404 5.89165 0
M  V30 6857 H 623.893 1.63169 4.56622 0
M  V30 6858 N 625.236 -1.5273 0.388769 0
M  V30 6859 C 626.466 -2.05693 -0.193397 0
M  V30 6860 C 626.874 -1.26038 -1.41107 0
M  V30 6861 O 626.217 -0.30001 -1.81234 0
M  V30 6862 C 626.279 -3.53962 -0.628561 0
M  V30 6863 C 625.943 -4.54519 0.475576 0
M  V30 6864 C 626.94 -5.02526 1.33281 0
M  V30 6865 C 624.625 -4.98174 0.642453 0
M  V30 6866 C 626.619 -5.92812 2.34205 0
M  V30 6867 C 624.306 -5.88262 1.65503 0
M  V30 6868 C 625.304 -6.35473 2.50325 0
M  V30 6869 O 624.992 -7.23781 3.49852 0
M  V30 6870 H 624.724 -0.675197 -0.0329395 0
M  V30 6871 H 627.278 -1.97835 0.552326 0
M  V30 6872 H 625.508 -3.59437 -1.42625 0
M  V30 6873 H 627.197 -3.89669 -1.13633 0
M  V30 6874 H 627.963 -4.6953 1.21519 0
M  V30 6875 H 623.842 -4.60999 -0.00805093 0
M  V30 6876 H 627.386 -6.29585 3.00447 0
M  V30 6877 H 623.283 -6.20672 1.77304 0
M  V30 6878 H 624.051 -7.4184 3.45855 0
M  V30 6879 N 626.714 -0.118576 -1.57153 0
M  V30 6880 C 627.961 0.539526 -1.9518 0
M  V30 6881 C 628.289 1.66714 -1.00184 0
M  V30 6882 O 627.544 1.95683 -0.0256482 0
M  V30 6883 C 627.843 1.11303 -3.39627 0
M  V30 6884 C 627.509 0.106809 -4.50773 0
M  V30 6885 C 626.171 -0.169876 -4.809 0
M  V30 6886 C 628.523 -0.57895 -5.17975 0
M  V30 6887 C 625.851 -1.13861 -5.75545 0
M  V30 6888 C 628.203 -1.53631 -6.13661 0
M  V30 6889 C 626.867 -1.82099 -6.42181 0
M  V30 6890 H 626.137 0.197427 -0.714215 0
M  V30 6891 H 628.784 -0.199391 -1.90459 0
M  V30 6892 H 627.089 1.92869 -3.4104 0
M  V30 6893 H 628.786 1.63032 -3.66363 0
M  V30 6894 H 625.376 0.332645 -4.27307 0
M  V30 6895 H 629.56 -0.378359 -4.94856 0
M  V30 6896 H 624.816 -1.36592 -5.95947 0
M  V30 6897 H 628.99 -2.07337 -6.64819 0
M  V30 6898 H 626.617 -2.57319 -7.15326 0
M  V30 6899 N 628.193 1.56834 0.155195 0
M  V30 6900 C 629.421 1.87049 0.884326 0
M  V30 6901 C 629.836 0.705839 1.7511 0
M  V30 6902 O 629.193 -0.324641 1.79589 0
M  V30 6903 C 629.244 3.1644 1.74781 0
M  V30 6904 O 628.965 4.28417 0.915978 0
M  V30 6905 C 630.466 3.60113 2.58522 0
M  V30 6906 H 627.686 0.620196 0.25612 0
M  V30 6907 H 630.23 2.03946 0.150445 0
M  V30 6908 H 628.385 3.01321 2.43484 0
M  V30 6909 H 628.799 5.02353 1.50803 0
M  V30 6910 H 630.273 4.53508 3.14698 0
M  V30 6911 H 630.75 2.85005 3.34169 0
M  V30 6912 H 631.356 3.77898 1.95124 0
M  V30 6913 N 629.671 -0.424282 1.51781 0
M  V30 6914 C 630.604 -1.53633 1.68737 0
M  V30 6915 C 631.582 -1.53549 0.534915 0
M  V30 6916 O 632.766 -1.72483 0.760391 0
M  V30 6917 C 629.893 -2.92195 1.71288 0
M  V30 6918 C 628.939 -3.10251 2.92654 0
M  V30 6919 S 629.772 -2.85166 4.53256 0
M  V30 6920 C 630.928 -4.25986 4.58571 0
M  V30 6921 H 631.161 -1.39018 2.62795 0
M  V30 6922 H 628.694 -0.614854 1.41629 0
M  V30 6923 H 630.652 -3.72059 1.73443 0
M  V30 6924 H 629.313 -3.04162 0.783847 0
M  V30 6925 H 628.506 -4.1159 2.90877 0
M  V30 6926 H 628.108 -2.38231 2.88308 0
M  V30 6927 H 630.4 -5.19392 4.35015 0
M  V30 6928 H 631.343 -4.32792 5.60444 0
M  V30 6929 H 631.751 -4.1025 3.87757 0
M  V30 6930 N 631.149 -1.42148 -0.680565 0
M  V30 6931 C 632.377 -1.45696 -1.46902 0
M  V30 6932 C 632.792 -0.0665858 -1.88683 0
M  V30 6933 O 632.149 0.917436 -1.57764 0
M  V30 6934 C 632.2 -2.37898 -2.72188 0
M  V30 6935 O 631.921 -3.71526 -2.32163 0
M  V30 6936 C 633.422 -2.50407 -3.65802 0
M  V30 6937 H 630.642 -0.495729 -0.45221 0
M  V30 6938 H 633.186 -1.866 -0.836709 0
M  V30 6939 H 631.341 -2.00263 -3.31622 0
M  V30 6940 H 631.755 -4.20849 -3.13027 0
M  V30 6941 H 633.229 -3.19056 -4.50452 0
M  V30 6942 H 633.706 -1.5401 -4.11312 0
M  V30 6943 H 634.312 -2.8874 -3.12265 0
M  V30 6944 N 632.627 0.916307 -1.28225 0
M  V30 6945 C 633.852 1.7043 -1.18188 0
M  V30 6946 C 634.277 1.86346 0.256274 0
M  V30 6947 O 633.635 1.37175 1.18544 0
M  V30 6948 C 633.683 3.07546 -1.88275 0
M  V30 6949 O 632.787 3.94904 -1.18848 0
M  V30 6950 H 632.128 0.521967 -0.410423 0
M  V30 6951 H 634.658 1.14589 -1.69501 0
M  V30 6952 H 634.668 3.57793 -1.96082 0
M  V30 6953 H 633.343 2.95279 -2.92887 0
M  V30 6954 H 631.92 3.53339 -1.19187 0
M  V30 6955 N 634.105 1.10431 1.1244 0
M  V30 6956 C 635.035 0.775143 2.20258 0
M  V30 6957 C 636.016 -0.25186 1.68225 0
M  V30 6958 O 637.201 -0.117637 1.93843 0
M  V30 6959 C 634.331 0.206133 3.46688 0
M  V30 6960 C 633.285 1.16382 4.11873 0
M  V30 6961 C 632.611 0.456014 5.32752 0
M  V30 6962 C 633.911 2.5104 4.58013 0
M  V30 6963 H 635.605 1.67665 2.4805 0
M  V30 6964 H 633.151 0.807595 1.19222 0
M  V30 6965 H 635.104 -0.036291 4.21384 0
M  V30 6966 H 633.828 -0.730614 3.18323 0
M  V30 6967 H 632.487 1.39169 3.39157 0
M  V30 6968 H 632.135 -0.485203 5.00654 0
M  V30 6969 H 631.835 1.09466 5.77314 0
M  V30 6970 H 633.359 0.222135 6.10196 0
M  V30 6971 H 634.773 2.32401 5.24083 0
M  V30 6972 H 633.17 3.10789 5.13352 0
M  V30 6973 H 634.24 3.11039 3.71998 0
M  V30 6974 N 635.583 -1.29855 0.893053 0
M  V30 6975 C 636.811 -1.99976 0.530788 0
M  V30 6976 C 637.226 -1.66889 -0.882799 0
M  V30 6977 O 636.583 -0.910352 -1.58173 0
M  V30 6978 C 636.634 -3.54547 0.705587 0
M  V30 6979 O 636.355 -3.86458 2.06353 0
M  V30 6980 C 637.856 -4.41937 0.347387 0
M  V30 6981 H 635.076 -0.639129 0.204339 0
M  V30 6982 H 637.62 -1.65549 1.20057 0
M  V30 6983 H 635.775 -3.87311 0.0830685 0
M  V30 6984 H 636.189 -4.81146 2.08803 0
M  V30 6985 H 637.663 -5.4954 0.520557 0
M  V30 6986 H 638.14 -4.33339 -0.715139 0
M  V30 6987 H 638.746 -4.14633 0.946567 0
M  V30 6988 N 637.061 -0.65484 -1.43351 0
M  V30 6989 C 638.289 -0.176685 -2.06144 0
M  V30 6990 C 638.704 1.15831 -1.49093 0
M  V30 6991 O 638.061 1.71542 -0.622868 0
M  V30 6992 C 638.112 -0.0813326 -3.61408 0
M  V30 6993 O 637.833 -1.36355 -4.1634 0
M  V30 6994 C 639.334 0.422706 -4.4128 0
M  V30 6995 H 636.554 -0.0906429 -0.66485 0
M  V30 6996 H 639.098 -0.895945 -1.83829 0
M  V30 6997 H 637.253 0.588496 -3.82904 0
M  V30 6998 H 637.667 -1.22381 -5.10023 0
M  V30 6999 H 639.141 0.438375 -5.50257 0
M  V30 7000 H 639.618 1.45432 -4.14423 0
M  V30 7001 H 640.224 -0.214687 -4.24758 0
M  V30 7002 N 638.539 1.52521 -0.396863 0
M  V30 7003 C 639.788 2.00857 0.184184 0
M  V30 7004 C 640.101 1.28733 1.47265 0
M  V30 7005 O 641.307 1.67821 2.13421 0
M  V30 7006 C 639.763 3.57901 0.378787 0
M  V30 7007 C 639.371 4.38931 -0.896873 0
M  V30 7008 C 641.115 4.14504 0.915789 0
M  V30 7009 C 639.022 5.87591 -0.670133 0
M  V30 7010 H 637.952 0.750496 0.0726055 0
M  V30 7011 H 640.603 1.75965 -0.520425 0
M  V30 7012 H 638.985 3.79072 1.14543 0
M  V30 7013 H 640.159 4.29524 -1.66872 0
M  V30 7014 H 638.474 3.93586 -1.35938 0
M  V30 7015 H 641.071 5.23236 1.10126 0
M  V30 7016 H 641.414 3.71076 1.88701 0
M  V30 7017 H 641.947 3.97253 0.208523 0
M  V30 7018 H 638.686 6.35355 -1.61257 0
M  V30 7019 H 638.206 5.99767 0.0626368 0
M  V30 7020 H 639.885 6.46268 -0.307577 0
M  V30 7021 N 640.017 0.126909 1.57088 0
M  V30 7022 C 641.265 -0.528123 1.95078 0
M  V30 7023 C 641.586 -1.66708 1.0116 0
M  V30 7024 O 640.856 -1.95777 0.0693527 0
M  V30 7025 H 639.436 -0.198087 0.720257 0
M  V30 7026 H 642.098 0.197703 1.93895 0
M  V30 7027 H 641.194 -0.917507 2.98309 0
M  V30 7028 N 641.495 -1.56914 -0.146875 0
M  V30 7029 C 642.742 -1.83356 -0.859467 0
M  V30 7030 C 643.07 -0.707811 -1.81164 0
M  V30 7031 O 642.325 0.303155 -1.93338 0
M  V30 7032 C 642.624 -3.16128 -1.66727 0
M  V30 7033 C 642.29 -4.42586 -0.861881 0
M  V30 7034 C 640.952 -4.76929 -0.639687 0
M  V30 7035 C 643.304 -5.20344 -0.298643 0
M  V30 7036 C 640.632 -5.86491 0.156451 0
M  V30 7037 C 642.984 -6.30742 0.484536 0
M  V30 7038 C 641.648 -6.63635 0.717306 0
M  V30 7039 H 640.918 -0.670947 -0.314501 0
M  V30 7040 H 643.565 -1.91104 -0.123108 0
M  V30 7041 H 641.87 -3.03831 -2.47374 0
M  V30 7042 H 643.567 -3.33802 -2.2221 0
M  V30 7043 H 640.157 -4.15662 -1.04513 0
M  V30 7044 H 644.341 -4.94186 -0.457585 0
M  V30 7045 H 639.597 -6.10419 0.346292 0
M  V30 7046 H 643.771 -6.90188 0.928105 0
M  V30 7047 H 641.398 -7.48367 1.33607 0
M  V30 7048 N 642.974 0.416227 -1.52004 0
M  V30 7049 C 644.222 1.16153 -1.65387 0
M  V30 7050 C 644.543 1.91208 -0.382669 0
M  V30 7051 O 643.813 1.86413 0.602231 0
M  V30 7052 H 642.393 0.431765 -0.60958 0
M  V30 7053 H 645.055 0.475151 -1.89019 0
M  V30 7054 H 644.151 1.87952 -2.4916 0
M  V30 7055 N 644.452 1.42507 0.673017 0
M  V30 7056 C 645.4 1.46362 1.80779 0
M  V30 7057 C 646.394 0.339166 1.6597 0
M  V30 7058 O 647.6 0.512262 1.72557 0
M  V30 7059 H 643.975 0.458433 0.596107 0
M  V30 7060 H 645.946 2.41953 1.74646 0
M  V30 7061 C 644.695 1.38462 3.18941 0
M  V30 7062 H 644.018 2.24283 3.30964 0
M  V30 7063 H 645.458 1.45221 3.98355 0
M  V30 7064 C 643.917 0.0996354 3.36753 0
M  V30 7065 O 644.447 -0.846894 3.92671 0
M  V30 7066 N 642.653 0.016211 2.90595 0
M  V30 7067 H 642.2 0.78725 2.45276 0
M  V30 7068 H 642.158 -0.84291 3.0289 0
M  V30 7069 N 645.93 -0.909495 1.28709 0
M  V30 7070 C 647.179 -1.65365 1.15487 0
M  V30 7071 C 647.492 -1.93364 -0.294941 0
M  V30 7072 O 648.698 -2.65905 -0.548338 0
M  V30 7073 C 647.154 -2.97923 2.01916 0
M  V30 7074 C 646.762 -2.77556 3.51663 0
M  V30 7075 C 648.506 -3.75814 1.97393 0
M  V30 7076 C 646.413 -4.0578 4.30229 0
M  V30 7077 H 645.343 -0.620323 0.42862 0
M  V30 7078 H 647.994 -1.00894 1.53273 0
M  V30 7079 H 646.376 -3.63552 1.5699 0
M  V30 7080 H 647.55 -2.2058 4.04575 0
M  V30 7081 H 645.865 -2.13072 3.57756 0
M  V30 7082 H 648.462 -4.70866 2.53357 0
M  V30 7083 H 648.805 -4.05277 0.951643 0
M  V30 7084 H 649.338 -3.1701 2.40311 0
M  V30 7085 H 646.077 -3.81488 5.33055 0
M  V30 7086 H 645.597 -4.62351 3.82089 0
M  V30 7087 H 647.276 -4.74004 4.40374 0
M  V30 7088 N 647.408 -1.11026 -1.11852 0
M  V30 7089 C 648.371 -0.768006 -2.1595 0
M  V30 7090 C 649.371 0.210538 -1.59416 0
M  V30 7091 O 650.561 -0.0133978 -1.74195 0
M  V30 7092 C 647.693 -0.138678 -3.40618 0
M  V30 7093 H 648.886 -1.69012 -2.4774 0
M  V30 7094 H 646.439 -0.911578 -1.26964 0
M  V30 7095 H 647.174 0.793872 -3.14433 0
M  V30 7096 H 646.959 -0.843012 -3.8293 0
M  V30 7097 H 648.449 0.0848039 -4.17514 0
M  V30 7098 N 648.886 1.2938 -0.899927 0
M  V30 7099 C 650.297 1.77644 -0.574427 0
M  V30 7100 C 650.648 1.73824 0.909928 0
M  V30 7101 O 649.773 1.32429 1.71147 0
M  V30 7102 C 650.368 3.22573 -1.03595 0
M  V30 7103 C 648.927 3.68614 -0.76161 0
M  V30 7104 C 648.074 2.49483 -1.21052 0
M  V30 7105 H 651.025 1.16038 -1.08263 0
M  V30 7106 H 651.046 3.78684 -0.371337 0
M  V30 7107 H 650.558 3.25321 -2.11631 0
M  V30 7108 H 648.659 3.7134 0.306127 0
M  V30 7109 H 648.772 4.59402 -1.35965 0
M  V30 7110 H 647.136 2.46798 -0.629515 0
M  V30 7111 H 647.919 2.54959 -2.29893 0
M  V30 7112 N 650.364 0.662433 1.43002 0
M  V30 7113 C 651.592 0.187615 2.06048 0
M  V30 7114 C 652.007 -1.15039 1.49705 0
M  V30 7115 O 651.364 -1.71209 0.631956 0
M  V30 7116 C 651.415 0.100498 3.6136 0
M  V30 7117 O 651.136 1.38562 4.15611 0
M  V30 7118 C 652.637 -0.399298 4.41498 0
M  V30 7119 H 649.857 0.0941675 0.664359 0
M  V30 7120 H 652.401 0.905681 1.83351 0
M  V30 7121 H 650.556 -0.568181 3.83211 0
M  V30 7122 H 650.97 1.25084 5.09366 0
M  V30 7123 H 652.444 -0.409187 5.50481 0
M  V30 7124 H 652.921 -1.43232 4.15188 0
M  V30 7125 H 653.527 0.23721 4.24638 0
M  V30 7126 N 651.842 -1.52309 0.404946 0
M  V30 7127 C 653.07 -2.06185 -0.171818 0
M  V30 7128 C 653.485 -1.27536 -1.39212 0
M  V30 7129 O 652.842 -0.326112 -1.79563 0
M  V30 7130 C 652.893 -3.57647 -0.526417 0
M  V30 7131 O 652.614 -4.3332 0.645417 0
M  V30 7132 C 654.115 -4.27925 -1.15736 0
M  V30 7133 H 651.335 -0.670632 -0.0222328 0
M  V30 7134 H 653.879 -1.96259 0.574692 0
M  V30 7135 H 652.034 -3.67595 -1.22282 0
M  V30 7136 H 652.448 -5.23328 0.35042 0
M  V30 7137 H 653.922 -5.35093 -1.35572 0
M  V30 7138 H 654.399 -3.84134 -2.12926 0
M  V30 7139 H 655.005 -4.22335 -0.501281 0
M  V30 7140 N 653.32 -0.135238 -1.57019 0
M  V30 7141 C 654.597 0.563227 -1.87316 0
M  V30 7142 C 654.977 1.83749 -1.03921 0
M  V30 7143 O 654.325 2.2817 -0.122675 0
M  V30 7144 C 654.535 0.840031 -3.3874 0
M  V30 7145 C 655.883 1.18598 -4.077 0
M  V30 7146 O 656.907 0.92977 -3.43851 0
M  V30 7147 O 655.766 1.66758 -5.20436 0
M  V30 7148 H 652.86 0.285971 -0.775983 0
M  V30 7149 H 655.406 -0.170965 -1.68837 0
M  V30 7150 H 654.178 -0.0622785 -3.9125 0
M  V30 7151 H 653.801 1.62882 -3.62706 0
M  V30 7152 N 654.798 1.5699 0.138552 0
M  V30 7153 C 656.044 1.84081 0.85099 0
M  V30 7154 C 656.377 0.718107 1.80435 0
M  V30 7155 O 655.652 -0.277633 1.92508 0
M  V30 7156 C 655.935 3.21699 1.61808 0
M  V30 7157 C 655.788 4.44544 0.685633 0
M  V30 7158 C 657.107 3.5664 2.57868 0
M  V30 7159 H 654.226 0.669592 0.307922 0
M  V30 7160 H 656.868 1.89646 0.11588 0
M  V30 7161 H 655.018 3.17086 2.24474 0
M  V30 7162 H 656.69 4.61248 0.0693179 0
M  V30 7163 H 654.933 4.338 -0.00421993 0
M  V30 7164 H 655.604 5.3746 1.25858 0
M  V30 7165 H 658.08 3.61918 2.05316 0
M  V30 7166 H 656.956 4.53946 3.08584 0
M  V30 7167 H 657.217 2.83036 3.39622 0
M  V30 7168 N 656.276 -0.40816 1.52223 0
M  V30 7169 C 657.186 -1.52202 1.78526 0
M  V30 7170 C 658.202 -1.60546 0.670892 0
M  V30 7171 O 659.378 -1.77242 0.956404 0
M  V30 7172 C 656.443 -2.87928 1.93128 0
M  V30 7173 C 655.504 -2.89463 3.17033 0
M  V30 7174 C 654.737 -4.18715 3.30929 0
M  V30 7175 O 654.96 -5.12662 2.50067 0
M  V30 7176 O 653.894 -4.27125 4.24084 0
M  V30 7177 H 657.72 -1.32911 2.73072 0
M  V30 7178 H 655.305 -0.594112 1.37079 0
M  V30 7179 H 657.187 -3.68426 2.04549 0
M  V30 7180 H 655.862 -3.07285 1.01772 0
M  V30 7181 H 654.769 -2.07815 3.11069 0
M  V30 7182 H 656.102 -2.75055 4.08174 0
M  V30 7183 N 657.755 -1.42862 -0.66545 0
M  V30 7184 C 658.702 -1.4707 -1.77874 0
M  V30 7185 C 659.672 -0.321654 -1.62956 0
M  V30 7186 O 660.857 -0.52707 -1.83376 0
M  V30 7187 C 657.997 -1.38788 -3.15962 0
M  V30 7188 C 657.11 -2.63801 -3.42101 0
M  V30 7189 C 656.245 -2.47594 -4.69969 0
M  V30 7190 C 655.284 -3.67936 -4.89172 0
M  V30 7191 N 654.421 -3.50614 -6.08288 0
M  V30 7192 H 659.261 -2.42204 -1.73613 0
M  V30 7193 H 656.798 -1.20239 -0.847401 0
M  V30 7194 H 658.756 -1.31982 -3.95773 0
M  V30 7195 H 657.386 -0.472431 -3.19324 0
M  V30 7196 H 656.438 -2.80935 -2.56475 0
M  V30 7197 H 657.75 -3.53228 -3.52181 0
M  V30 7198 H 656.904 -2.38427 -5.57886 0
M  V30 7199 H 655.643 -1.55672 -4.62188 0
M  V30 7200 H 654.648 -3.77525 -3.99694 0
M  V30 7201 H 655.873 -4.60851 -4.98792 0
M  V30 7202 H 653.819 -2.61417 -6.01662 0
M  V30 7203 H 653.736 -4.33634 -6.19272 0
M  V30 7204 H 655.004 -3.45276 -6.98859 0
M  V30 7205 N 659.233 0.902656 -1.29189 0
M  V30 7206 C 660.166 2.00816 -1.0839 0
M  V30 7207 C 661.144 1.626 0.00335266 0
M  V30 7208 O 662.328 1.87928 -0.146765 0
M  V30 7209 C 659.455 3.32415 -0.649435 0
M  V30 7210 C 658.501 3.89617 -1.73496 0
M  V30 7211 S 659.334 4.19091 -3.33351 0
M  V30 7212 C 660.49 5.53736 -2.91766 0
M  V30 7213 H 660.723 2.18151 -2.01984 0
M  V30 7214 H 658.256 1.0489 -1.13303 0
M  V30 7215 H 660.214 4.08492 -0.405479 0
M  V30 7216 H 658.875 3.12964 0.266857 0
M  V30 7217 H 658.068 4.84658 -1.38284 0
M  V30 7218 H 657.67 3.20217 -1.93229 0
M  V30 7219 H 659.962 6.34085 -2.38627 0
M  V30 7220 H 660.905 5.93871 -3.85647 0
M  V30 7221 H 661.313 5.15453 -2.30149 0
M  V30 7222 N 660.711 1.11618 1.11262 0
M  V30 7223 C 661.958 0.86618 1.8304 0
M  V30 7224 C 662.286 -0.608149 1.84748 0
M  V30 7225 O 661.541 -1.46508 1.29745 0
M  V30 7226 C 661.84 1.37529 3.2988 0
M  V30 7227 C 661.506 2.86317 3.4833 0
M  V30 7228 C 660.168 3.26945 3.53073 0
M  V30 7229 C 662.52 3.82136 3.54431 0
M  V30 7230 C 659.848 4.62117 3.61475 0
M  V30 7231 C 662.2 5.17128 3.64365 0
M  V30 7232 C 660.864 5.57312 3.67369 0
M  V30 7233 H 660.134 0.316958 0.66979 0
M  V30 7234 H 662.781 1.3949 1.31205 0
M  V30 7235 H 661.086 0.766842 3.84222 0
M  V30 7236 H 662.783 1.15817 3.83911 0
M  V30 7237 H 659.373 2.53889 3.45309 0
M  V30 7238 H 663.557 3.51847 3.50025 0
M  V30 7239 H 658.813 4.92655 3.62079 0
M  V30 7240 H 662.987 5.91208 3.68029 0
M  V30 7241 H 660.614 6.62045 3.73632 0
M  V30 7242 N 662.189 -1.289 0.906776 0
M  V30 7243 C 663.414 -1.99939 0.551303 0
M  V30 7244 C 663.839 -1.67366 -0.858496 0
M  V30 7245 O 663.197 -0.902176 -1.57259 0
M  V30 7246 C 663.245 -3.52523 0.758937 0
M  V30 7247 O 662.349 -4.11983 -0.185308 0
M  V30 7248 H 661.69 -0.628376 0.214568 0
M  V30 7249 H 664.22 -1.64225 1.2203 0
M  V30 7250 H 664.23 -4.02522 0.666329 0
M  V30 7251 H 662.905 -3.75566 1.78671 0
M  V30 7252 H 661.482 -3.72873 -0.0445577 0
M  V30 7253 N 663.667 -0.670007 -1.42649 0
M  V30 7254 C 664.913 -0.190568 -2.01903 0
M  V30 7255 C 665.246 1.19817 -1.52832 0
M  V30 7256 O 664.521 1.80342 -0.728485 0
M  V30 7257 C 664.804 -0.21991 -3.59428 0
M  V30 7258 C 664.657 -1.64376 -4.18689 0
M  V30 7259 C 665.976 0.434519 -4.3795 0
M  V30 7260 H 663.095 -0.0707219 -0.733599 0
M  V30 7261 H 665.737 -0.853883 -1.69732 0
M  V30 7262 H 663.887 0.344894 -3.86966 0
M  V30 7263 H 665.559 -2.26044 -4.02122 0
M  V30 7264 H 663.802 -2.18591 -3.747 0
M  V30 7265 H 664.473 -1.61601 -5.27815 0
M  V30 7266 H 666.949 -0.0462156 -4.16074 0
M  V30 7267 H 665.825 0.38333 -5.4756 0
M  V30 7268 H 666.086 1.51135 -4.15464 0
M  V30 7269 N 665.145 1.52092 -0.413018 0
M  V30 7270 C 666.108 2.25706 0.398687 0
M  V30 7271 C 667.108 1.28221 0.970368 0
M  V30 7272 O 668.298 1.52131 0.848635 0
M  V30 7273 C 665.43 3.03029 1.5616 0
M  V30 7274 H 666.623 2.98888 -0.246131 0
M  V30 7275 H 664.176 1.5542 -0.165622 0
M  V30 7276 H 664.911 2.34205 2.24317 0
M  V30 7277 H 664.696 3.74606 1.15812 0
M  V30 7278 H 666.186 3.58857 2.13569 0
M  V30 7279 N 666.623 0.143563 1.56945 0
M  V30 7280 C 667.556 -0.835367 2.1236 0
M  V30 7281 C 668.534 -1.24466 1.04627 0
M  V30 7282 O 669.718 -1.34138 1.32436 0
M  V30 7283 C 666.845 -2.12123 2.64048 0
M  V30 7284 C 665.891 -1.85812 3.83896 0
M  V30 7285 S 666.724 -1.05222 5.25061 0
M  V30 7286 C 667.88 -2.34935 5.80135 0
M  V30 7287 H 668.113 -0.364109 2.95062 0
M  V30 7288 H 665.646 -0.0706601 1.54238 0
M  V30 7289 H 667.604 -2.85993 2.94479 0
M  V30 7290 H 666.265 -2.56364 1.81483 0
M  V30 7291 H 665.458 -2.81151 4.18294 0
M  V30 7292 H 665.06 -1.20052 3.54208 0
M  V30 7293 H 667.352 -3.3061 5.91357 0
M  V30 7294 H 668.295 -2.05046 6.77762 0
M  V30 7295 H 668.703 -2.45426 5.08356 0
M  V30 7296 N 668.101 -1.57061 -0.130224 0
M  V30 7297 C 669.034 -1.94698 -1.19029 0
M  V30 7298 C 670.012 -0.815074 -1.40696 0
M  V30 7299 O 671.196 -1.07223 -1.55034 0
M  V30 7300 C 668.323 -2.23352 -2.5462 0
M  V30 7301 C 667.369 -3.45945 -2.49448 0
M  V30 7302 S 668.202 -4.98927 -1.94505 0
M  V30 7303 C 669.358 -5.30721 -3.31792 0
M  V30 7304 H 669.591 -2.84308 -0.869272 0
M  V30 7305 H 667.124 -1.50688 -0.336531 0
M  V30 7306 H 669.082 -2.40539 -3.32643 0
M  V30 7307 H 667.743 -1.34376 -2.83905 0
M  V30 7308 H 666.936 -3.63324 -3.49302 0
M  V30 7309 H 666.538 -3.28086 -1.79543 0
M  V30 7310 H 668.83 -5.25215 -4.27966 0
M  V30 7311 H 669.773 -6.32048 -3.19251 0
M  V30 7312 H 670.181 -4.5821 -3.29703 0
M  V30 7313 N 669.579 0.400081 -1.52437 0
M  V30 7314 C 670.512 1.50929 -1.7116 0
M  V30 7315 C 671.49 1.52679 -0.559275 0
M  V30 7316 O 672.674 1.71251 -0.787735 0
M  V30 7317 C 669.801 2.89433 -1.75915 0
M  V30 7318 C 668.847 3.05556 -2.97553 0
M  V30 7319 S 669.68 2.77919 -4.57735 0
M  V30 7320 C 670.836 4.18636 -4.6529 0
M  V30 7321 H 671.069 1.3482 -2.64973 0
M  V30 7322 H 668.602 0.592245 -1.4259 0
M  V30 7323 H 670.56 3.69253 -1.7934 0
M  V30 7324 H 669.221 3.02877 -0.832137 0
M  V30 7325 H 668.414 4.0691 -2.97388 0
M  V30 7326 H 668.016 2.33615 -2.92062 0
M  V30 7327 H 670.308 5.12406 -4.43223 0
M  V30 7328 H 671.251 4.23821 -5.67258 0
M  V30 7329 H 671.659 4.04029 -3.94234 0
M  V30 7330 N 671.057 1.43213 0.657864 0
M  V30 7331 C 672.303 1.44798 1.41991 0
M  V30 7332 C 672.636 0.070256 1.94073 0
M  V30 7333 O 671.911 -0.908177 1.71995 0
M  V30 7334 C 672.194 2.4865 2.60471 0
M  V30 7335 C 672.047 3.95679 2.13911 0
M  V30 7336 C 673.366 2.49292 3.62686 0
M  V30 7337 H 670.485 0.527244 0.514959 0
M  V30 7338 H 673.127 1.74733 0.74621 0
M  V30 7339 H 671.277 2.23254 3.17946 0
M  V30 7340 H 672.949 4.32116 1.61472 0
M  V30 7341 H 671.192 4.08733 1.45325 0
M  V30 7342 H 671.863 4.6395 2.99089 0
M  V30 7343 H 674.339 2.71917 3.14961 0
M  V30 7344 H 673.215 3.23907 4.43143 0
M  V30 7345 H 673.476 1.52502 4.14964 0
M  V30 7346 N 672.536 -0.895792 1.29666 0
M  V30 7347 C 673.784 -1.64339 1.17631 0
M  V30 7348 C 674.105 -1.93099 -0.271643 0
M  V30 7349 O 673.375 -1.55981 -1.18518 0
M  V30 7350 H 671.955 -0.609162 0.432354 0
M  V30 7351 H 674.617 -1.07389 1.62646 0
M  V30 7352 H 673.713 -2.59815 1.72924 0
M  V30 7353 N 674.014 -1.12206 -1.10668 0
M  V30 7354 C 675.239 -0.898938 -1.86906 0
M  V30 7355 C 675.664 0.546346 -1.79991 0
M  V30 7356 O 675.022 1.38655 -1.1681 0
M  V30 7357 C 675.07 -1.37529 -3.33344 0
M  V30 7358 O 674.174 -0.55218 -4.08687 0
M  V30 7359 H 673.515 -0.323163 -0.580053 0
M  V30 7360 H 676.045 -1.49355 -1.39837 0
M  V30 7361 H 676.055 -1.3733 -3.84193 0
M  V30 7362 H 674.73 -2.42767 -3.37693 0
M  V30 7363 H 673.307 -0.620947 -3.67694 0
M  V30 7364 N 675.492 1.28418 -0.913599 0
M  V30 7365 C 676.422 2.29713 -0.418847 0
M  V30 7366 C 677.403 1.62165 0.513469 0
M  V30 7367 O 678.588 1.89576 0.421235 0
M  V30 7368 C 675.718 3.45612 0.342042 0
M  V30 7369 C 674.672 4.25056 -0.501123 0
M  V30 7370 C 673.998 5.3329 0.388097 0
M  V30 7371 C 675.298 4.91814 -1.75831 0
M  V30 7372 H 676.992 2.71346 -1.26538 0
M  V30 7373 H 674.538 1.30446 -0.609903 0
M  V30 7374 H 676.491 4.15562 0.699 0
M  V30 7375 H 675.215 3.02858 1.22248 0
M  V30 7376 H 673.874 3.56833 -0.840598 0
M  V30 7377 H 673.522 4.8678 1.26707 0
M  V30 7378 H 673.222 5.87347 -0.172459 0
M  V30 7379 H 674.746 6.06088 0.74094 0
M  V30 7380 H 676.16 5.54126 -1.47026 0
M  V30 7381 H 674.557 5.55866 -2.26126 0
M  V30 7382 H 675.627 4.16313 -2.4862 0
M  V30 7383 N 676.97 0.677563 1.42291 0
M  V30 7384 C 677.9 0.014968 2.33495 0
M  V30 7385 C 678.881 -0.786376 1.50831 0
M  V30 7386 O 680.066 -0.742975 1.79426 0
M  V30 7387 C 677.196 -0.935023 3.34477 0
M  V30 7388 C 676.15 -0.242074 4.27315 0
M  V30 7389 C 675.476 -1.30519 5.18526 0
M  V30 7390 C 676.776 0.880604 5.14823 0
M  V30 7391 H 678.47 0.776671 2.89151 0
M  V30 7392 H 676.016 0.37494 1.39033 0
M  V30 7393 H 677.969 -1.40766 3.97194 0
M  V30 7394 H 676.693 -1.72818 2.77131 0
M  V30 7395 H 675.352 0.210351 3.65996 0
M  V30 7396 H 675 -2.09041 4.57505 0
M  V30 7397 H 674.7 -0.846652 5.81468 0
M  V30 7398 H 676.224 -1.7787 5.84119 0
M  V30 7399 H 677.638 0.489062 5.7121 0
M  V30 7400 H 676.035 1.26511 5.86613 0
M  V30 7401 H 677.105 1.72818 4.53059 0
M  V30 7402 N 678.448 -1.51871 0.421078 0
M  V30 7403 C 679.678 -2.06057 -0.149723 0
M  V30 7404 C 680.086 -1.29002 -1.38402 0
M  V30 7405 O 679.429 -0.338385 -1.80556 0
M  V30 7406 C 679.491 -3.55216 -0.553339 0
M  V30 7407 C 679.155 -4.53408 0.571879 0
M  V30 7408 C 680.152 -4.99586 1.4391 0
M  V30 7409 C 677.837 -4.967 0.747979 0
M  V30 7410 C 679.831 -5.87711 2.46727 0
M  V30 7411 C 677.518 -5.84619 1.77944 0
M  V30 7412 C 678.516 -6.30021 2.63748 0
M  V30 7413 O 678.204 -7.16197 3.65126 0
M  V30 7414 H 677.936 -0.675744 -0.0186102 0
M  V30 7415 H 680.49 -1.96618 0.594166 0
M  V30 7416 H 678.72 -3.62381 -1.34969 0
M  V30 7417 H 680.409 -3.91992 -1.05342 0
M  V30 7418 H 681.175 -4.66846 1.31451 0
M  V30 7419 H 677.054 -4.60913 0.0897357 0
M  V30 7420 H 680.598 -6.2307 3.13734 0
M  V30 7421 H 676.495 -6.16771 1.90429 0
M  V30 7422 H 677.263 -7.34337 3.61512 0
M  V30 7423 N 679.926 -0.151884 -1.56866 0
M  V30 7424 C 680.889 0.771861 -2.15812 0
M  V30 7425 C 681.889 1.17181 -1.10115 0
M  V30 7426 O 683.079 1.09194 -1.35729 0
M  V30 7427 C 680.211 2.04806 -2.7252 0
M  V30 7428 H 681.404 0.259021 -2.98779 0
M  V30 7429 H 678.957 0.097588 -1.55995 0
M  V30 7430 H 679.692 2.60445 -1.93233 0
M  V30 7431 H 679.477 1.77044 -3.49854 0
M  V30 7432 H 680.967 2.70771 -3.1792 0
M  V30 7433 N 681.404 1.57128 0.121893 0
M  V30 7434 C 682.632 1.88883 0.844451 0
M  V30 7435 C 683.047 0.742824 1.73573 0
M  V30 7436 O 682.404 -0.286475 1.80238 0
M  V30 7437 C 682.455 3.20076 1.68029 0
M  V30 7438 O 682.176 4.30264 0.824898 0
M  V30 7439 C 683.677 3.65515 2.50826 0
M  V30 7440 H 680.897 0.62549 0.242907 0
M  V30 7441 H 683.441 2.04219 0.107151 0
M  V30 7442 H 681.596 3.06418 2.37038 0
M  V30 7443 H 682.01 5.05439 1.40113 0
M  V30 7444 H 683.484 4.60081 3.05008 0
M  V30 7445 H 683.961 2.92029 3.28048 0
M  V30 7446 H 684.567 3.81952 1.87064 0
M  V30 7447 N 682.882 -0.391992 1.52647 0
M  V30 7448 C 684.131 -1.13449 1.6677 0
M  V30 7449 C 684.444 -1.91203 0.412399 0
M  V30 7450 O 685.65 -2.68013 0.433707 0
M  V30 7451 C 684.106 -2.06577 2.9471 0
M  V30 7452 C 683.714 -1.3426 4.27409 0
M  V30 7453 C 685.458 -2.80981 3.18198 0
M  V30 7454 C 683.365 -2.26136 5.46458 0
M  V30 7455 H 682.295 -0.427211 0.621295 0
M  V30 7456 H 684.946 -0.397522 1.79142 0
M  V30 7457 H 683.328 -2.83898 2.76076 0
M  V30 7458 H 684.502 -0.621856 4.56585 0
M  V30 7459 H 682.817 -0.718279 4.10158 0
M  V30 7460 H 685.414 -3.49898 4.04321 0
M  V30 7461 H 685.757 -3.44891 2.33144 0
M  V30 7462 H 686.29 -2.10754 3.37383 0
M  V30 7463 H 683.029 -1.66846 6.33911 0
M  V30 7464 H 682.549 -2.96134 5.21598 0
M  V30 7465 H 684.228 -2.86286 5.80215 0
M  V30 7466 N 684.36 -1.4356 -0.65026 0
M  V30 7467 C 685.607 -1.45333 -1.41012 0
M  V30 7468 C 685.935 -0.0787282 -1.94341 0
M  V30 7469 O 685.19 0.916715 -1.72901 0
M  V30 7470 C 685.489 -2.44528 -2.60654 0
M  V30 7471 C 685.155 -3.90331 -2.25727 0
M  V30 7472 C 683.817 -4.3004 -2.15914 0
M  V30 7473 C 686.169 -4.822 -1.97821 0
M  V30 7474 C 683.497 -5.59568 -1.76354 0
M  V30 7475 C 685.849 -6.12095 -1.59759 0
M  V30 7476 C 684.513 -6.50778 -1.48473 0
M  V30 7477 H 683.783 -0.531813 -0.516 0
M  V30 7478 H 686.43 -1.76657 -0.739219 0
M  V30 7479 H 684.735 -2.06619 -3.3289 0
M  V30 7480 H 686.432 -2.43155 -3.18868 0
M  V30 7481 H 683.022 -3.58905 -2.34276 0
M  V30 7482 H 687.206 -4.5229 -2.04322 0
M  V30 7483 H 682.462 -5.88376 -1.66205 0
M  V30 7484 H 686.636 -6.82751 -1.37198 0
M  V30 7485 H 684.263 -7.5105 -1.17591 0
M  V30 7486 N 685.838 0.888903 -1.30139 0
M  V30 7487 C 687.086 1.63713 -1.18501 0
M  V30 7488 C 687.407 1.9324 0.261399 0
M  V30 7489 O 686.677 1.56608 1.17689 0
M  V30 7490 H 685.257 0.606861 -0.435579 0
M  V30 7491 H 687.919 1.06525 -1.63213 0
M  V30 7492 H 687.015 2.58894 -1.743 0
M  V30 7493 N 687.317 1.12792 1.10072 0
M  V30 7494 C 688.265 0.794523 2.18609 0
M  V30 7495 C 689.259 -0.220271 1.67962 0
M  V30 7496 O 690.465 -0.0780938 1.79831 0
M  V30 7497 H 686.84 0.239123 0.712969 0
M  V30 7498 H 688.811 1.71823 2.43966 0
M  V30 7499 C 687.56 0.269548 3.46654 0
M  V30 7500 H 686.883 1.04171 3.8599 0
M  V30 7501 H 688.323 0.0746242 4.23934 0
M  V30 7502 C 686.782 -1.00333 3.21613 0
M  V30 7503 O 687.312 -2.08042 3.4363 0
M  V30 7504 N 685.518 -0.931763 2.75257 0
M  V30 7505 H 685.065 -0.0551197 2.57541 0
M  V30 7506 H 685.023 -1.78405 2.58881 0
M  V30 7507 N 688.795 -1.27931 0.920396 0
M  V30 7508 C 690.041 -1.94977 0.557832 0
M  V30 7509 C 690.374 -1.72224 -0.897365 0
M  V30 7510 O 689.649 -1.04705 -1.63912 0
M  V30 7511 C 689.932 -3.49289 0.875741 0
M  V30 7512 C 689.785 -3.81416 2.38416 0
M  V30 7513 C 691.104 -4.38486 0.376517 0
M  V30 7514 H 688.223 -0.708164 0.20414 0
M  V30 7515 H 690.865 -1.5118 1.15085 0
M  V30 7516 H 689.015 -3.86724 0.371062 0
M  V30 7517 H 690.687 -3.53813 2.95997 0
M  V30 7518 H 688.93 -3.28225 2.83639 0
M  V30 7519 H 689.601 -4.89198 2.55713 0
M  V30 7520 H 692.077 -4.08161 0.808945 0
M  V30 7521 H 690.953 -5.45296 0.627976 0
M  V30 7522 H 691.214 -4.36143 -0.723293 0
M  V30 7523 N 690.273 -0.685099 -1.4193 0
M  V30 7524 C 691.501 -0.220372 -2.05723 0
M  V30 7525 C 691.916 1.12642 -1.51516 0
M  V30 7526 O 691.273 1.70182 -0.659114 0
M  V30 7527 C 691.324 -0.157974 -3.61155 0
M  V30 7528 O 691.045 -1.45156 -4.13354 0
M  V30 7529 C 692.546 0.329009 -4.42077 0
M  V30 7530 H 689.766 -0.104725 -0.662777 0
M  V30 7531 H 692.31 -0.934736 -1.81887 0
M  V30 7532 H 690.465 0.507144 -3.84066 0
M  V30 7533 H 690.879 -1.33172 -5.07312 0
M  V30 7534 H 692.353 0.321559 -5.51063 0
M  V30 7535 H 692.83 1.36608 -4.17414 0
M  V30 7536 H 693.436 -0.304737 -4.24207 0
M  V30 7537 N 691.751 1.51645 -0.429126 0
M  V30 7538 C 692.979 2.06433 0.138994 0
M  V30 7539 C 693.394 1.29735 1.37165 0
M  V30 7540 O 692.751 0.354638 1.79021 0
M  V30 7541 C 692.802 3.58439 0.469452 0
M  V30 7542 O 692.523 4.32238 -0.714273 0
M  V30 7543 C 694.024 4.29712 1.08914 0
M  V30 7544 H 691.244 0.6709 0.0115608 0
M  V30 7545 H 693.788 1.9532 -0.605843 0
M  V30 7546 H 691.943 3.69494 1.16419 0
M  V30 7547 H 692.357 5.22704 -0.433633 0
M  V30 7548 H 693.831 5.37182 1.27042 0
M  V30 7549 H 694.308 3.87473 2.06788 0
M  V30 7550 H 694.914 4.2308 0.434028 0
M  V30 7551 N 693.229 0.160201 1.56784 0
M  V30 7552 C 694.478 -0.487619 1.95717 0
M  V30 7553 C 694.791 -1.65136 1.0483 0
M  V30 7554 O 695.997 -2.36468 1.33398 0
M  V30 7555 C 694.453 -0.91888 3.47972 0
M  V30 7556 C 694.061 0.218655 4.47466 0
M  V30 7557 C 695.805 -1.53575 3.95746 0
M  V30 7558 C 693.712 -0.231614 5.90946 0
M  V30 7559 H 692.642 -0.185939 0.730714 0
M  V30 7560 H 695.293 0.246657 1.81835 0
M  V30 7561 H 693.675 -1.70881 3.57234 0
M  V30 7562 H 694.849 0.995825 4.49911 0
M  V30 7563 H 693.164 0.744767 4.09685 0
M  V30 7564 H 695.761 -1.88448 5.00391 0
M  V30 7565 H 696.104 -2.42959 3.38048 0
M  V30 7566 H 696.637 -0.810467 3.89456 0
M  V30 7567 H 693.376 0.62718 6.52493 0
M  V30 7568 H 692.896 -0.974379 5.91833 0
M  V30 7569 H 694.575 -0.67922 6.43425 0
M  V30 7570 N 694.707 -1.5719 -0.113559 0
M  V30 7571 C 695.954 -1.85138 -0.820382 0
M  V30 7572 C 696.282 -0.74608 -1.79622 0
M  V30 7573 O 695.537 0.262077 -1.93937 0
M  V30 7574 C 695.836 -3.19593 -1.59984 0
M  V30 7575 C 695.502 -4.44315 -0.767809 0
M  V30 7576 C 694.164 -4.78179 -0.538379 0
M  V30 7577 C 696.516 -5.2086 -0.188203 0
M  V30 7578 C 693.844 -5.86028 0.28082 0
M  V30 7579 C 696.196 -6.29572 0.618217 0
M  V30 7580 C 694.86 -6.61964 0.857912 0
M  V30 7581 H 694.13 -0.677467 -0.300199 0
M  V30 7582 H 696.777 -1.91322 -0.0825443 0
M  V30 7583 H 695.082 -3.0901 -2.40874 0
M  V30 7584 H 696.779 -3.3844 -2.1508 0
M  V30 7585 H 693.369 -4.17786 -0.956724 0
M  V30 7586 H 697.553 -4.95045 -0.352658 0
M  V30 7587 H 692.809 -6.09547 0.475693 0
M  V30 7588 H 696.983 -6.88064 1.0743 0
M  V30 7589 H 694.61 -7.45365 1.49451 0
M  V30 7590 N 696.185 0.383891 -1.52853 0
M  V30 7591 C 697.117 1.48889 -1.74255 0
M  V30 7592 C 698.13 1.50405 -0.623063 0
M  V30 7593 O 699.319 1.54215 -0.898887 0
M  V30 7594 C 696.419 2.87721 -1.79081 0
M  V30 7595 C 695.592 3.10111 -3.08464 0
M  V30 7596 C 694.651 4.28954 -3.0477 0
M  V30 7597 O 693.677 4.25012 -3.78621 0
M  V30 7598 N 694.879 5.35411 -2.24311 0
M  V30 7599 H 697.644 1.30915 -2.69595 0
M  V30 7600 H 695.205 0.573454 -1.51404 0
M  V30 7601 H 697.197 3.65333 -1.7411 0
M  V30 7602 H 695.767 2.99029 -0.911052 0
M  V30 7603 H 694.987 2.20319 -3.26884 0
M  V30 7604 H 696.275 3.21928 -3.94005 0
M  V30 7605 H 695.673 5.41471 -1.63787 0
M  V30 7606 H 694.23 6.1167 -2.25175 0
M  V30 7607 N 697.663 1.43903 0.642637 0
M  V30 7608 C 698.595 1.45857 1.768 0
M  V30 7609 C 699.608 0.353358 1.58919 0
M  V30 7610 O 700.797 0.618426 1.67445 0
M  V30 7611 C 697.897 1.26583 3.14372 0
M  V30 7612 C 697.07 2.50139 3.58817 0
M  V30 7613 C 696.129 2.25933 4.75227 0
M  V30 7614 O 695.155 2.99351 4.84125 0
M  V30 7615 N 696.357 1.28263 5.66153 0
M  V30 7616 H 699.122 2.42869 1.75598 0
M  V30 7617 H 696.683 1.39194 0.826832 0
M  V30 7618 H 698.675 1.08255 3.89953 0
M  V30 7619 H 697.245 0.37978 3.10284 0
M  V30 7620 H 696.465 2.83821 2.73568 0
M  V30 7621 H 697.753 3.32344 3.8526 0
M  V30 7622 H 697.151 0.676041 5.61646 0
M  V30 7623 H 695.708 1.15916 6.4141 0
M  V30 7624 N 699.141 -0.881989 1.30609 0
M  V30 7625 C 700.074 -1.99066 1.11571 0
M  V30 7626 C 701.052 -1.62584 0.022516 0
M  V30 7627 O 702.236 -1.87671 0.176644 0
M  V30 7628 C 699.363 -3.3134 0.702237 0
M  V30 7629 C 698.409 -3.86807 1.79673 0
M  V30 7630 S 699.242 -4.13735 3.39976 0
M  V30 7631 C 700.398 -5.49024 3.00538 0
M  V30 7632 H 700.631 -2.1491 2.05429 0
M  V30 7633 H 698.164 -1.03074 1.14957 0
M  V30 7634 H 700.122 -4.07796 0.470415 0
M  V30 7635 H 698.783 -3.13349 -0.217034 0
M  V30 7636 H 697.976 -4.82397 1.45977 0
M  V30 7637 H 697.578 -3.17102 1.98298 0
M  V30 7638 H 699.87 -6.30208 2.48684 0
M  V30 7639 H 700.813 -5.8766 3.95046 0
M  V30 7640 H 701.221 -5.11726 2.3832 0
M  V30 7641 N 700.619 -1.13374 -1.09472 0
M  V30 7642 C 701.849 -0.917019 -1.85133 0
M  V30 7643 C 702.257 0.537568 -1.81402 0
M  V30 7644 O 701.6 1.38385 -1.20811 0
M  V30 7645 C 701.662 -1.32646 -3.34134 0
M  V30 7646 C 701.326 -2.79437 -3.61613 0
M  V30 7647 C 702.323 -3.77596 -3.57375 0
M  V30 7648 C 700.008 -3.16586 -3.89973 0
M  V30 7649 C 702.002 -5.10916 -3.81108 0
M  V30 7650 C 699.689 -4.50085 -4.13361 0
M  V30 7651 C 700.687 -5.47059 -4.0892 0
M  V30 7652 O 700.375 -6.78149 -4.31705 0
M  V30 7653 H 700.107 -0.326997 -0.591649 0
M  V30 7654 H 702.661 -1.51002 -1.39239 0
M  V30 7655 H 700.891 -0.676719 -3.80733 0
M  V30 7656 H 702.58 -1.08229 -3.91205 0
M  V30 7657 H 703.346 -3.50242 -3.35493 0
M  V30 7658 H 699.225 -2.41707 -3.92554 0
M  V30 7659 H 702.769 -5.86597 -3.77558 0
M  V30 7660 H 698.666 -4.77163 -4.34724 0
M  V30 7661 H 699.434 -6.84244 -4.49168 0
M  V30 7662 N 702.098 1.27442 -0.927168 0
M  V30 7663 C 703.061 2.2512 -0.430525 0
M  V30 7664 C 704.061 1.54357 0.450619 0
M  V30 7665 O 705.251 1.72371 0.251774 0
M  V30 7666 C 702.383 3.38763 0.381144 0
M  V30 7667 H 703.576 2.70569 -1.29354 0
M  V30 7668 H 701.129 1.39355 -0.707806 0
M  V30 7669 H 701.864 2.98695 1.263 0
M  V30 7670 H 701.649 3.91298 -0.250618 0
M  V30 7671 H 703.139 4.11364 0.719012 0
M  V30 7672 N 703.576 0.692616 1.41565 0
M  V30 7673 C 704.524 0.0139952 2.32596 0
M  V30 7674 C 705.518 -0.771691 1.50802 0
M  V30 7675 O 706.724 -0.677646 1.66757 0
M  V30 7676 H 703.099 -0.0142745 0.751865 0
M  V30 7677 H 705.07 0.798851 2.87508 0
M  V30 7678 C 703.819 -0.910602 3.35564 0
M  V30 7679 H 703.142 -0.315446 3.98554 0
M  V30 7680 H 704.582 -1.3538 4.01806 0
M  V30 7681 C 703.041 -2.02539 2.6922 0
M  V30 7682 O 703.571 -3.11386 2.53775 0
M  V30 7683 N 701.777 -1.80227 2.27962 0
M  V30 7684 H 701.324 -0.917054 2.40724 0
M  V30 7685 H 701.282 -2.55001 1.83907 0
M  V30 7686 N 705.054 -1.51416 0.437162 0
M  V30 7687 C 706.282 -2.06503 -0.128045 0
M  V30 7688 C 706.697 -1.30461 -1.36475 0
M  V30 7689 O 706.054 -0.364127 -1.78831 0
M  V30 7690 C 706.105 -3.58683 -0.450437 0
M  V30 7691 O 705.826 -4.31853 0.737186 0
M  V30 7692 C 707.327 -4.30284 -1.06633 0
M  V30 7693 H 704.547 -0.670952 -0.00800269 0
M  V30 7694 H 707.091 -1.94996 0.616193 0
M  V30 7695 H 705.246 -3.70106 -1.14457 0
M  V30 7696 H 705.66 -5.22467 0.461347 0
M  V30 7697 H 707.134 -5.37848 -1.24191 0
M  V30 7698 H 707.611 -3.88564 -2.0473 0
M  V30 7699 H 708.217 -4.23304 -0.411585 0
M  V30 7700 N 706.532 -0.168513 -1.56696 0
M  V30 7701 C 707.48 0.779791 -2.19139 0
M  V30 7702 C 708.474 1.23957 -1.1546 0
M  V30 7703 O 709.68 1.20555 -1.33666 0
M  V30 7704 H 706.055 0.269739 -0.701958 0
M  V30 7705 H 708.026 0.229156 -2.97519 0
M  V30 7706 C 706.775 2.00003 -2.84419 0
M  V30 7707 H 706.098 1.65527 -3.63924 0
M  V30 7708 H 707.538 2.64251 -3.31583 0
M  V30 7709 C 705.997 2.82187 -1.84044 0
M  V30 7710 O 706.527 3.79247 -1.32418 0
M  V30 7711 N 704.733 2.47145 -1.52864 0
M  V30 7712 H 704.28 1.68277 -1.9504 0
M  V30 7713 H 704.238 3.02422 -0.859569 0
M  V30 7714 N 708.01 1.57248 0.105221 0
M  V30 7715 C 709.426 1.52853 0.459153 0
M  V30 7716 C 709.626 0.883674 1.8109 0
M  V30 7717 O 708.682 0.471864 2.48052 0
M  V30 7718 C 709.995 2.97596 0.43096 0
M  V30 7719 C 711.543 3.08758 0.513536 0
M  V30 7720 C 712.018 4.55089 0.515593 0
M  V30 7721 N 713.509 4.59597 0.576639 0
M  V30 7722 C 714.244 5.70253 0.599904 0
M  V30 7723 N 713.74 6.90368 0.579985 0
M  V30 7724 N 715.533 5.58399 0.643953 0
M  V30 7725 H 707.684 1.97547 -0.780306 0
M  V30 7726 H 709.947 0.902758 -0.289363 0
M  V30 7727 H 709.653 3.48201 -0.494903 0
M  V30 7728 H 709.527 3.55756 1.2537 0
M  V30 7729 H 711.914 2.58148 1.42982 0
M  V30 7730 H 711.995 2.53568 -0.337148 0
M  V30 7731 H 711.639 5.06348 -0.396701 0
M  V30 7732 H 711.569 5.08105 1.38335 0
M  V30 7733 H 714.06 3.73144 0.597639 0
M  V30 7734 H 714.373 7.70462 0.600741 0
M  V30 7735 H 712.718 6.92843 0.547191 0
M  V30 7736 H 715.909 4.63467 0.656975 0
M  V30 7737 H 716.082 6.44644 0.658616 0
M  V30 7738 N 709.488 -0.375779 1.53054 0
M  V30 7739 C 710.718 -1.1387 1.72386 0
M  V30 7740 C 711.126 -1.8382 0.447966 0
M  V30 7741 O 710.469 -1.74027 -0.588244 0
M  V30 7742 C 710.531 -2.22047 2.82728 0
M  V30 7743 C 710.195 -1.71951 4.23417 0
M  V30 7744 C 711.192 -1.18909 5.06119 0
M  V30 7745 C 708.877 -1.77773 4.69789 0
M  V30 7746 C 710.871 -0.723529 6.3328 0
M  V30 7747 C 708.558 -1.30829 5.96931 0
M  V30 7748 C 709.556 -0.782077 6.78508 0
M  V30 7749 O 709.244 -0.319529 8.03265 0
M  V30 7750 H 708.976 -0.346835 0.580242 0
M  V30 7751 H 711.53 -0.443748 2.00549 0
M  V30 7752 H 709.76 -2.95006 2.50017 0
M  V30 7753 H 711.449 -2.83654 2.90336 0
M  V30 7754 H 712.215 -1.13758 4.7147 0
M  V30 7755 H 708.094 -2.17673 4.06373 0
M  V30 7756 H 711.638 -0.312126 6.96901 0
M  V30 7757 H 707.535 -1.3567 6.31081 0
M  V30 7758 H 708.303 -0.439796 8.17318 0
M  V30 7759 N 710.966 -1.44241 -0.634997 0
M  V30 7760 C 711.916 -1.47247 -1.74076 0
M  V30 7761 C 712.9 -0.338708 -1.57295 0
M  V30 7762 O 714.092 -0.583751 -1.67097 0
M  V30 7763 C 711.221 -1.41579 -3.12746 0
M  V30 7764 C 710.307 -2.60055 -3.35011 0
M  V30 7765 N 710.698 -3.85321 -3.27661 0
M  V30 7766 C 708.996 -2.55168 -3.65794 0
M  V30 7767 C 709.697 -4.64241 -3.50508 0
M  V30 7768 N 708.673 -3.95254 -3.73196 0
M  V30 7769 H 712.475 -2.4195 -1.66845 0
M  V30 7770 H 709.989 -1.3915 -0.837326 0
M  V30 7771 H 711.986 -1.41816 -3.92038 0
M  V30 7772 H 710.646 -0.479108 -3.21146 0
M  V30 7773 H 711.657 -4.17345 -3.06665 0
M  V30 7774 H 708.334 -1.70276 -3.81198 0
M  V30 7775 H 709.724 -5.73267 -3.50449 0
M  V30 7776 N 712.444 0.87505 -1.31075 0
M  V30 7777 C 713.354 2.01441 -1.20244 0
M  V30 7778 C 714.37 1.73584 -0.120227 0
M  V30 7779 O 715.546 1.98559 -0.337063 0
M  V30 7780 C 712.611 3.34675 -0.905199 0
M  V30 7781 C 711.672 3.75889 -2.0738 0
M  V30 7782 C 710.905 5.02764 -1.79064 0
M  V30 7783 O 711.128 5.65795 -0.723318 0
M  V30 7784 O 710.062 5.40623 -2.64594 0
M  V30 7785 H 713.888 2.13509 -2.1598 0
M  V30 7786 H 711.473 1.00257 -1.10765 0
M  V30 7787 H 713.355 4.1458 -0.755057 0
M  V30 7788 H 712.03 3.23692 0.0221695 0
M  V30 7789 H 710.937 2.96645 -2.27931 0
M  V30 7790 H 712.27 3.91489 -2.98324 0
M  V30 7791 N 713.922 1.13953 1.08869 0
M  V30 7792 C 714.855 0.765765 2.14968 0
M  V30 7793 C 715.833 -0.250689 1.60656 0
M  V30 7794 O 717.017 -0.140852 1.87973 0
M  V30 7795 C 714.144 0.136146 3.38426 0
M  V30 7796 C 713.19 1.12201 4.11477 0
M  V30 7797 S 714.023 2.65711 4.64928 0
M  V30 7798 C 715.179 2.04125 5.91679 0
M  V30 7799 H 715.412 1.66444 2.46341 0
M  V30 7800 H 712.945 0.960263 1.20906 0
M  V30 7801 H 714.903 -0.220712 4.09906 0
M  V30 7802 H 713.564 -0.739887 3.05261 0
M  V30 7803 H 712.757 0.629398 5.00055 0
M  V30 7804 H 712.359 1.42262 3.45886 0
M  V30 7805 H 714.651 1.39381 6.63008 0
M  V30 7806 H 715.594 2.90808 6.45629 0
M  V30 7807 H 716.002 1.4905 5.44467 0
M  V30 7808 N 715.4 -1.26948 0.933913 0
M  V30 7809 C 716.33 -2.29017 0.45534 0
M  V30 7810 C 717.311 -1.62961 -0.487605 0
M  V30 7811 O 718.496 -1.90223 -0.391022 0
M  V30 7812 C 715.626 -3.46112 -0.287015 0
M  V30 7813 C 714.58 -4.24205 0.568682 0
M  V30 7814 C 713.906 -5.3384 -0.303206 0
M  V30 7815 C 715.206 -4.88954 1.83633 0
M  V30 7816 H 716.9 -2.69298 1.30839 0
M  V30 7817 H 714.446 -1.29459 0.630579 0
M  V30 7818 H 716.399 -4.16622 -0.6328 0
M  V30 7819 H 715.123 -3.04765 -1.17414 0
M  V30 7820 H 713.782 -3.5545 0.897261 0
M  V30 7821 H 713.43 -4.88734 -1.18947 0
M  V30 7822 H 713.13 -5.86998 0.265879 0
M  V30 7823 H 714.654 -6.0719 -0.644423 0
M  V30 7824 H 716.068 -5.51717 1.55823 0
M  V30 7825 H 714.465 -5.52198 2.34941 0
M  V30 7826 H 715.535 -4.12305 2.55211 0
M  V30 7827 N 716.879 -0.700114 -1.41195 0
M  V30 7828 C 717.827 -0.0263301 -2.32585 0
M  V30 7829 C 718.821 0.763683 -1.51209 0
M  V30 7830 O 720.027 0.668793 -1.67114 0
M  V30 7831 H 716.402 0.0102869 -0.75193 0
M  V30 7832 H 718.373 -0.814087 -2.8708 0
M  V30 7833 C 717.122 0.892793 -3.36042 0
M  V30 7834 H 716.445 0.294306 -3.98715 0
M  V30 7835 H 717.885 1.33247 -4.02518 0
M  V30 7836 C 716.344 2.01109 -2.7029 0
M  V30 7837 O 716.874 3.10035 -2.55423 0
M  V30 7838 N 715.08 1.79015 -2.28915 0
M  V30 7839 H 714.627 0.904275 -2.41207 0
M  V30 7840 H 714.585 2.54022 -1.85257 0
M  V30 7841 N 718.357 1.51182 -0.445186 0
M  V30 7842 C 719.305 2.29531 0.376597 0
M  V30 7843 C 720.299 1.35711 1.01385 0
M  V30 7844 O 721.505 1.53018 0.947922 0
M  V30 7845 H 717.88 0.738803 0.140267 0
M  V30 7846 H 719.851 2.96838 -0.304958 0
M  V30 7847 C 718.6 3.1552 1.4609 0
M  V30 7848 H 717.923 3.87605 0.979912 0
M  V30 7849 H 719.363 3.73384 2.009 0
M  V30 7850 C 717.822 2.31406 2.44852 0
M  V30 7851 O 718.352 1.97912 3.49562 0
M  V30 7852 N 716.558 1.94478 2.15932 0
M  V30 7853 H 716.105 2.21917 1.30808 0
M  V30 7854 H 716.063 1.38498 2.82251 0
M  V30 7855 N 719.835 0.176821 1.56605 0
M  V30 7856 C 721.081 -0.467406 1.9734 0
M  V30 7857 C 721.414 -1.62523 1.06301 0
M  V30 7858 O 720.689 -1.94182 0.11125 0
M  V30 7859 C 720.972 -0.945106 3.47476 0
M  V30 7860 C 720.825 0.213273 4.49294 0
M  V30 7861 C 722.144 -1.8169 4.00845 0
M  V30 7862 H 719.263 -0.168426 0.717497 0
M  V30 7863 H 721.905 0.264065 1.88156 0
M  V30 7864 H 720.055 -1.56841 3.55434 0
M  V30 7865 H 721.727 0.850508 4.53392 0
M  V30 7866 H 719.97 0.867918 4.25029 0
M  V30 7867 H 720.641 -0.163187 5.51759 0
M  V30 7868 H 723.117 -1.29139 3.95553 0
M  V30 7869 H 721.993 -2.12015 5.06301 0
M  V30 7870 H 722.254 -2.76463 3.44994 0
M  V30 7871 N 721.313 -1.57302 -0.09688 0
M  V30 7872 C 722.729 -1.53094 -0.451041 0
M  V30 7873 C 722.929 -0.893265 -1.80618 0
M  V30 7874 O 721.985 -0.485013 -2.47798 0
M  V30 7875 C 723.298 -2.9782 -0.415172 0
M  V30 7876 C 724.846 -3.09026 -0.497155 0
M  V30 7877 C 725.321 -4.55356 -0.491452 0
M  V30 7878 N 726.812 -4.59896 -0.552258 0
M  V30 7879 C 727.547 -5.70563 -0.569654 0
M  V30 7880 N 727.043 -6.90666 -0.543365 0
M  V30 7881 N 728.836 -5.58733 -0.614331 0
M  V30 7882 H 720.987 -1.97131 0.790771 0
M  V30 7883 H 723.25 -0.901211 0.294147 0
M  V30 7884 H 722.956 -3.47933 0.513362 0
M  V30 7885 H 722.83 -3.56416 -1.23481 0
M  V30 7886 H 725.217 -2.58902 -1.41611 0
M  V30 7887 H 725.298 -2.53386 0.35059 0
M  V30 7888 H 724.942 -5.06131 0.423549 0
M  V30 7889 H 724.872 -5.08832 -1.35639 0
M  V30 7890 H 727.363 -3.73456 -0.577842 0
M  V30 7891 H 727.676 -7.70769 -0.559873 0
M  V30 7892 H 726.021 -6.93123 -0.510441 0
M  V30 7893 H 729.212 -4.63809 -0.632387 0
M  V30 7894 H 729.385 -6.44984 -0.62442 0
M  V30 7895 N 722.791 0.367657 -1.53252 0
M  V30 7896 C 724.068 1.12606 -1.59935 0
M  V30 7897 C 724.448 2.07167 -0.405606 0
M  V30 7898 O 723.796 2.20364 0.604323 0
M  V30 7899 C 724.006 1.86699 -2.94863 0
M  V30 7900 C 725.354 2.41306 -3.49366 0
M  V30 7901 O 726.378 1.96828 -2.96879 0
M  V30 7902 O 725.237 3.2261 -4.41118 0
M  V30 7903 H 722.331 0.516438 -0.645926 0
M  V30 7904 H 724.877 0.371088 -1.65593 0
M  V30 7905 H 723.649 1.17674 -3.73187 0
M  V30 7906 H 723.272 2.6911 -2.92687 0
M  V30 7907 N 724.269 1.44576 0.627338 0
M  V30 7908 C 725.516 1.47558 1.38682 0
M  V30 7909 C 725.844 0.109636 1.94191 0
M  V30 7910 O 725.099 -0.889092 1.74338 0
M  V30 7911 C 725.398 2.48644 2.56731 0
M  V30 7912 C 725.064 3.93873 2.19489 0
M  V30 7913 C 723.726 4.33421 2.09045 0
M  V30 7914 C 726.078 4.85286 1.90124 0
M  V30 7915 C 723.406 5.62303 1.6743 0
M  V30 7916 C 725.758 6.14559 1.50001 0
M  V30 7917 C 724.422 6.53058 1.38101 0
M  V30 7918 H 723.692 0.539955 0.507474 0
M  V30 7919 H 726.339 1.77811 0.711021 0
M  V30 7920 H 724.644 2.11889 3.29561 0
M  V30 7921 H 726.341 2.48197 3.14959 0
M  V30 7922 H 722.931 3.62587 2.28537 0
M  V30 7923 H 727.115 4.55483 1.971 0
M  V30 7924 H 722.371 5.90945 1.56823 0
M  V30 7925 H 726.545 6.84848 1.26319 0
M  V30 7926 H 724.172 7.52826 1.05628 0
M  V30 7927 N 725.747 -0.868086 1.31537 0
M  V30 7928 C 726.677 -1.99131 1.21939 0
M  V30 7929 C 727.658 -1.69768 0.106166 0
M  V30 7930 O 728.843 -1.92006 0.291081 0
M  V30 7931 C 725.973 -3.34676 0.927879 0
M  V30 7932 C 724.927 -3.7835 2.00088 0
M  V30 7933 C 724.253 -5.11375 1.56203 0
M  V30 7934 C 725.553 -3.95256 3.41424 0
M  V30 7935 H 727.247 -2.07419 2.15911 0
M  V30 7936 H 724.793 -0.996569 1.03945 0
M  V30 7937 H 726.746 -4.12793 0.847327 0
M  V30 7938 H 725.47 -3.26565 -0.0475042 0
M  V30 7939 H 724.129 -3.02474 2.07135 0
M  V30 7940 H 723.777 -4.99709 0.57445 0
M  V30 7941 H 723.477 -5.41568 2.27985 0
M  V30 7942 H 725.001 -5.92001 1.49558 0
M  V30 7943 H 726.415 -4.63764 3.3704 0
M  V30 7944 H 724.812 -4.36849 4.1144 0
M  V30 7945 H 725.882 -2.98579 3.82072 0
M  V30 7946 N 727.225 -1.14528 -1.08264 0
M  V30 7947 C 728.172 -0.833556 -2.15222 0
M  V30 7948 C 729.142 0.209539 -1.64773 0
M  V30 7949 O 730.327 0.0791388 -1.90636 0
M  V30 7950 C 727.467 -0.318799 -3.43624 0
M  V30 7951 C 726.58 -1.42237 -4.07913 0
M  V30 7952 C 725.715 -0.864704 -5.24115 0
M  V30 7953 C 724.754 -1.94585 -5.80347 0
M  V30 7954 N 723.891 -1.40525 -6.87893 0
M  V30 7955 H 728.731 -1.74965 -2.41228 0
M  V30 7956 H 726.268 -0.873169 -1.18381 0
M  V30 7957 H 728.226 -0.00213088 -4.172 0
M  V30 7958 H 726.856 0.560397 -3.17898 0
M  V30 7959 H 725.908 -1.8554 -3.32083 0
M  V30 7960 H 727.22 -2.23901 -4.45724 0
M  V30 7961 H 726.374 -0.500025 -6.04636 0
M  V30 7962 H 725.113 -0.0171219 -4.87697 0
M  V30 7963 H 724.118 -2.31946 -4.98479 0
M  V30 7964 H 725.343 -2.79704 -6.18823 0
M  V30 7965 H 723.289 -0.579873 -6.53432 0
M  V30 7966 H 723.206 -2.15825 -7.24538 0
M  V30 7967 H 724.474 -1.06852 -7.72142 0
M  V30 7968 N 728.703 1.26451 -0.940633 0
M  V30 7969 C 729.633 2.28773 -0.467479 0
M  V30 7970 C 730.614 1.63218 0.478955 0
M  V30 7971 O 731.799 1.90427 0.380929 0
M  V30 7972 C 728.929 3.46259 0.268656 0
M  V30 7973 C 727.883 4.23898 -0.591171 0
M  V30 7974 C 727.209 5.33993 0.274891 0
M  V30 7975 C 728.509 4.87974 -1.86223 0
M  V30 7976 H 730.203 2.68601 -1.32265 0
M  V30 7977 H 727.749 1.29123 -0.637436 0
M  V30 7978 H 729.702 4.16951 0.610696 0
M  V30 7979 H 728.426 3.05383 1.15796 0
M  V30 7980 H 727.085 3.54969 -0.916098 0
M  V30 7981 H 726.733 4.89358 1.16353 0
M  V30 7982 H 726.433 5.86849 -0.297006 0
M  V30 7983 H 727.957 6.07523 0.612213 0
M  V30 7984 H 729.371 5.50883 -1.58747 0
M  V30 7985 H 727.768 5.50945 -2.37866 0
M  V30 7986 H 728.838 4.10945 -2.57394 0
M  V30 7987 N 730.181 0.707592 1.40822 0
M  V30 7988 C 731.411 0.252706 2.05049 0
M  V30 7989 C 731.819 -1.10758 1.53393 0
M  V30 7990 O 731.162 -1.70567 0.682097 0
M  V30 7991 C 731.224 0.146001 3.59203 0
M  V30 7992 C 730.888 1.44027 4.33711 0
M  V30 7993 C 731.885 2.38058 4.62195 0
M  V30 7994 C 729.57 1.69698 4.72766 0
M  V30 7995 C 731.564 3.56013 5.28709 0
M  V30 7996 C 729.251 2.87936 5.39014 0
M  V30 7997 C 730.249 3.80915 5.66915 0
M  V30 7998 O 729.937 4.9708 6.31796 0
M  V30 7999 H 729.669 0.112784 0.666525 0
M  V30 8000 H 732.223 0.96417 1.81364 0
M  V30 8001 H 730.453 -0.621338 3.81676 0
M  V30 8002 H 732.142 -0.273275 4.04979 0
M  V30 8003 H 732.908 2.19487 4.32493 0
M  V30 8004 H 728.787 0.981835 4.50423 0
M  V30 8005 H 732.331 4.28604 5.50404 0
M  V30 8006 H 728.228 3.06419 5.68135 0
M  V30 8007 H 728.996 4.97053 6.50293 0
M  V30 8008 N 731.66 -1.50943 0.453197 0
M  V30 8009 C 732.592 -2.25922 -0.38623 0
M  V30 8010 C 733.605 -1.3055 -0.972652 0
M  V30 8011 O 734.794 -1.56191 -0.864097 0
M  V30 8012 C 731.894 -3.01176 -1.5539 0
M  V30 8013 C 731.067 -4.23768 -1.0835 0
M  V30 8014 C 730.126 -4.81466 -2.12313 0
M  V30 8015 O 729.152 -5.42875 -1.71101 0
M  V30 8016 N 730.354 -4.66889 -3.44956 0
M  V30 8017 H 733.119 -2.98601 0.256468 0
M  V30 8018 H 730.68 -1.59408 0.282965 0
M  V30 8019 H 732.672 -3.36659 -2.24594 0
M  V30 8020 H 731.242 -2.31409 -2.10163 0
M  V30 8021 H 730.462 -3.93597 -0.217961 0
M  V30 8022 H 731.75 -5.03289 -0.746857 0
M  V30 8023 H 731.148 -4.18011 -3.81161 0
M  V30 8024 H 729.705 -5.06691 -4.1001 0
M  V30 8025 N 733.138 -0.185124 -1.56509 0
M  V30 8026 C 734.384 0.456934 -1.97585 0
M  V30 8027 C 734.717 1.61957 -1.07161 0
M  V30 8028 O 733.992 1.9412 -0.121546 0
M  V30 8029 C 734.275 0.926666 -3.47973 0
M  V30 8030 C 734.128 -0.237097 -4.49175 0
M  V30 8031 C 735.447 1.79561 -4.01803 0
M  V30 8032 H 732.566 0.164619 -0.71838 0
M  V30 8033 H 735.208 -0.274039 -1.88013 0
M  V30 8034 H 733.358 1.54954 -3.56261 0
M  V30 8035 H 735.03 -0.87454 -4.52934 0
M  V30 8036 H 733.273 -0.890446 -4.24563 0
M  V30 8037 H 733.944 0.133924 -5.51838 0
M  V30 8038 H 736.42 1.27039 -3.96232 0
M  V30 8039 H 735.296 2.09327 -5.07418 0
M  V30 8040 H 735.557 2.74629 -3.46455 0
M  V30 8041 N 734.616 1.57351 0.0885366 0
M  V30 8042 C 736.027 1.75303 0.642308 0
M  V30 8043 C 736.378 0.808238 1.78779 0
M  V30 8044 O 735.503 -0.01171 2.16397 0
M  V30 8045 C 736.098 3.17885 1.17194 0
M  V30 8046 C 734.657 3.37239 1.67172 0
M  V30 8047 C 733.804 2.7108 0.584045 0
M  V30 8048 H 736.755 1.58103 -0.137567 0
M  V30 8049 H 736.776 3.2112 2.04114 0
M  V30 8050 H 736.288 3.86625 0.338024 0
M  V30 8051 H 734.389 2.73588 2.52943 0
M  V30 8052 H 734.502 4.45594 1.76019 0
M  V30 8053 H 732.866 2.33161 1.02508 0
M  V30 8054 H 733.649 3.42464 -0.239403 0
M  V30 8055 N 736.094 -0.359525 1.53444 0
M  V30 8056 C 737.041 -1.44073 1.8031 0
M  V30 8057 C 738.011 -1.52946 0.647811 0
M  V30 8058 O 739.196 -1.68739 0.890614 0
M  V30 8059 C 736.336 -2.80941 2.00416 0
M  V30 8060 C 735.449 -2.80986 3.28132 0
M  V30 8061 C 734.584 -4.09468 3.38393 0
M  V30 8062 C 733.623 -4.03679 4.60119 0
M  V30 8063 N 732.76 -5.23821 4.675 0
M  V30 8064 H 737.6 -1.20464 2.72566 0
M  V30 8065 H 735.137 -0.583859 1.35017 0
M  V30 8066 H 737.095 -3.60459 2.1006 0
M  V30 8067 H 735.725 -3.02936 1.11489 0
M  V30 8068 H 734.777 -1.93666 3.27411 0
M  V30 8069 H 736.089 -2.72583 4.17732 0
M  V30 8070 H 735.243 -4.97404 3.47382 0
M  V30 8071 H 733.982 -4.20632 2.4682 0
M  V30 8072 H 732.987 -3.14129 4.51224 0
M  V30 8073 H 734.212 -3.94112 5.5304 0
M  V30 8074 H 732.158 -5.35559 3.7883 0
M  V30 8075 H 732.075 -5.17611 5.51013 0
M  V30 8076 H 733.343 -6.13572 4.8078 0
M  V30 8077 N 737.572 -1.44907 -0.619662 0
M  V30 8078 C 738.82 -1.47999 -1.37625 0
M  V30 8079 C 739.141 -0.118295 -1.94641 0
M  V30 8080 O 738.411 0.85086 -1.76457 0
M  V30 8081 H 736.991 -0.544993 -0.510873 0
M  V30 8082 H 739.653 -1.80772 -0.728522 0
M  V30 8083 H 738.749 -2.21196 -2.20179 0
M  V30 8084 N 739.05 0.861098 -1.31996 0
M  V30 8085 C 739.98 1.98482 -1.22993 0
M  V30 8086 C 740.961 1.6971 -0.115168 0
M  V30 8087 O 742.146 1.91849 -0.30126 0
M  V30 8088 C 739.276 3.34179 -0.945615 0
M  V30 8089 C 738.23 3.77284 -2.02091 0
M  V30 8090 C 737.556 5.1054 -1.58912 0
M  V30 8091 C 738.856 3.93439 -3.43515 0
M  V30 8092 H 740.55 2.06271 -2.17008 0
M  V30 8093 H 738.096 0.991043 -1.04472 0
M  V30 8094 H 740.049 4.12338 -0.869206 0
M  V30 8095 H 738.773 3.26586 0.0301849 0
M  V30 8096 H 737.432 3.01371 -2.08737 0
M  V30 8097 H 737.08 4.99397 -0.600942 0
M  V30 8098 H 736.78 5.40352 -2.30854 0
M  V30 8099 H 738.304 5.91199 -1.52696 0
M  V30 8100 H 739.718 4.6197 -3.39495 0
M  V30 8101 H 738.115 4.34661 -4.13751 0
M  V30 8102 H 739.185 2.96548 -3.8365 0
M  V30 8103 N 740.528 1.15101 1.07655 0
M  V30 8104 C 741.753 0.948177 1.84457 0
M  V30 8105 C 742.178 -0.498432 1.81376 0
M  V30 8106 O 741.536 -1.35509 1.20445 0
M  V30 8107 C 741.584 1.46318 3.29581 0
M  V30 8108 O 740.688 0.660342 4.07079 0
M  V30 8109 H 740.029 0.338428 0.571281 0
M  V30 8110 H 742.559 1.5301 1.35828 0
M  V30 8111 H 742.569 1.47468 3.80417 0
M  V30 8112 H 741.244 2.51635 3.31138 0
M  V30 8113 H 739.821 0.718216 3.65918 0
M  V30 8114 N 742.006 -1.2595 0.947325 0
M  V30 8115 C 742.916 -2.29883 0.468079 0
M  V30 8116 C 743.932 -1.67783 -0.460975 0
M  V30 8117 O 745.108 -1.98526 -0.339006 0
M  V30 8118 C 742.173 -3.45773 -0.253315 0
M  V30 8119 C 741.234 -4.23337 0.713054 0
M  V30 8120 C 740.467 -5.33694 0.025993 0
M  V30 8121 O 740.69 -5.57853 -1.18978 0
M  V30 8122 O 739.624 -5.97724 0.70782 0
M  V30 8123 H 743.45 -2.72952 1.33156 0
M  V30 8124 H 741.035 -1.31263 0.713468 0
M  V30 8125 H 742.917 -4.16209 -0.659423 0
M  V30 8126 H 741.592 -3.04721 -1.09209 0
M  V30 8127 H 740.499 -3.55359 1.16923 0
M  V30 8128 H 741.832 -4.68154 1.51963 0
M  V30 8129 N 743.484 -0.715051 -1.40445 0
M  V30 8130 C 744.9 -0.388555 -1.54798 0
M  V30 8131 C 745.1 1.10271 -1.68649 0
M  V30 8132 O 744.156 1.88875 -1.67578 0
M  V30 8133 C 745.469 -1.15414 -2.77669 0
M  V30 8134 C 747.017 -1.14039 -2.91486 0
M  V30 8135 C 747.492 -1.88812 -4.1727 0
M  V30 8136 N 748.983 -1.85878 -4.24268 0
M  V30 8137 C 749.718 -2.40558 -5.20499 0
M  V30 8138 N 749.214 -3.03791 -6.22642 0
M  V30 8139 N 751.007 -2.30703 -5.12574 0
M  V30 8140 H 743.158 -1.68201 -1.297 0
M  V30 8141 H 745.421 -0.710915 -0.627139 0
M  V30 8142 H 745.127 -2.20853 -2.7371 0
M  V30 8143 H 745.001 -0.745412 -3.69761 0
M  V30 8144 H 747.388 -0.0941996 -2.9495 0
M  V30 8145 H 747.469 -1.58834 -2.00513 0
M  V30 8146 H 747.113 -2.93422 -4.14568 0
M  V30 8147 H 747.043 -1.41438 -5.0725 0
M  V30 8148 H 749.534 -1.39794 -3.51093 0
M  V30 8149 H 749.847 -3.43032 -6.92495 0
M  V30 8150 H 748.192 -3.07875 -6.23087 0
M  V30 8151 H 751.383 -1.80961 -4.31707 0
M  V30 8152 H 751.556 -2.73618 -5.87398 0
M  V30 8153 N 744.962 1.50701 -0.461195 0
M  V30 8154 C 746.208 2.02566 0.0973411 0
M  V30 8155 C 746.541 1.3432 1.40257 0
M  V30 8156 O 745.816 0.465692 1.88843 0
M  V30 8157 C 746.099 3.58919 0.291423 0
M  V30 8158 C 745.952 4.37751 -1.03413 0
M  V30 8159 C 747.271 4.27379 1.05048 0
M  V30 8160 H 744.39 0.73622 0.0339026 0
M  V30 8161 H 747.032 1.80115 -0.604855 0
M  V30 8162 H 745.182 3.78179 0.889539 0
M  V30 8163 H 746.854 4.30085 -1.66806 0
M  V30 8164 H 745.097 4.01885 -1.63313 0
M  V30 8165 H 745.768 5.45384 -0.852085 0
M  V30 8166 H 748.244 4.12534 0.543603 0
M  V30 8167 H 747.12 5.36609 1.15506 0
M  V30 8168 H 747.381 3.89868 2.0846 0
M  V30 8169 N 746.441 0.193421 1.56409 0
M  V30 8170 C 747.374 -0.767384 2.1491 0
M  V30 8171 C 748.352 -1.21075 1.08534 0
M  V30 8172 O 749.536 -1.29856 1.36637 0
M  V30 8173 C 746.663 -2.03615 2.70663 0
M  V30 8174 C 745.709 -1.73505 3.89613 0
M  V30 8175 S 746.542 -0.884645 5.28142 0
M  V30 8176 C 747.698 -2.1636 5.87315 0
M  V30 8177 H 747.931 -0.270053 2.96071 0
M  V30 8178 H 745.464 -0.0215546 1.54385 0
M  V30 8179 H 747.422 -2.7648 3.03429 0
M  V30 8180 H 746.083 -2.50461 1.89547 0
M  V30 8181 H 745.276 -2.67701 4.27027 0
M  V30 8182 H 744.878 -1.08723 3.57848 0
M  V30 8183 H 747.17 -3.11629 6.01576 0
M  V30 8184 H 748.113 -1.8338 6.83943 0
M  V30 8185 H 748.521 -2.29129 5.15907 0
M  V30 8186 N 747.919 -1.57396 -0.0801906 0
M  V30 8187 C 749.196 -1.77883 -0.813451 0
M  V30 8188 C 749.576 -0.778879 -1.96206 0
M  V30 8189 O 748.924 0.189683 -2.27711 0
M  V30 8190 C 749.134 -3.24116 -1.2942 0
M  V30 8191 C 750.482 -3.87714 -1.73098 0
M  V30 8192 O 751.506 -3.27956 -1.39007 0
M  V30 8193 O 750.365 -4.92828 -2.36184 0
M  V30 8194 H 747.459 -0.729727 -0.389138 0
M  V30 8195 H 750.005 -1.69591 -0.0609166 0
M  V30 8196 H 748.777 -3.88443 -0.471947 0
M  V30 8197 H 748.4 -3.371 -2.1083 0
M  V30 8198 N 749.397 0.351382 -1.53633 0
M  V30 8199 C 750.627 1.11113 -1.74176 0
M  V30 8200 C 751.035 1.83084 -0.477154 0
M  V30 8201 O 750.378 1.74941 0.560483 0
M  V30 8202 C 750.44 2.17521 -2.86225 0
M  V30 8203 C 750.104 1.65193 -4.26099 0
M  V30 8204 C 751.101 1.10842 -5.07947 0
M  V30 8205 C 748.786 1.70277 -4.72558 0
M  V30 8206 C 750.78 0.622689 -6.34351 0
M  V30 8207 C 748.467 1.21316 -5.98937 0
M  V30 8208 C 749.465 0.674033 -6.79666 0
M  V30 8209 O 749.153 0.191696 -8.03671 0
M  V30 8210 H 748.885 0.33756 -0.585687 0
M  V30 8211 H 751.439 0.411786 -2.0123 0
M  V30 8212 H 749.669 2.90991 -2.54678 0
M  V30 8213 H 751.358 2.78999 -2.94812 0
M  V30 8214 H 752.124 1.06243 -4.7322 0
M  V30 8215 H 748.003 2.11181 -4.09785 0
M  V30 8216 H 751.547 0.201216 -6.9731 0
M  V30 8217 H 747.444 1.25613 -6.3316 0
M  V30 8218 H 748.212 0.309712 -8.17914 0
M  V30 8219 N 750.875 1.45233 0.611969 0
M  V30 8220 C 752.124 1.48296 1.36716 0
M  V30 8221 C 752.437 0.12706 1.95187 0
M  V30 8222 O 753.643 0.0353066 2.71477 0
M  V30 8223 C 752.099 2.61168 2.47627 0
M  V30 8224 C 751.707 4.03051 1.95587 0
M  V30 8225 C 753.451 2.73472 3.24674 0
M  V30 8226 C 751.358 5.07312 3.03954 0
M  V30 8227 H 750.288 0.5518 0.513841 0
M  V30 8228 H 752.939 1.7136 0.656359 0
M  V30 8229 H 751.321 2.31379 3.21372 0
M  V30 8230 H 752.495 4.42497 1.2858 0
M  V30 8231 H 750.81 3.95158 1.31298 0
M  V30 8232 H 753.407 3.48537 4.05494 0
M  V30 8233 H 753.75 1.79953 3.75397 0
M  V30 8234 H 754.283 3.02765 2.58028 0
M  V30 8235 H 751.022 6.02525 2.58154 0
M  V30 8236 H 750.542 4.7244 3.69541 0
M  V30 8237 H 752.221 5.31867 3.6841 0
M  V30 8238 N 752.353 -0.854086 1.3245 0
M  V30 8239 C 753.599 -1.61069 1.23225 0
M  V30 8240 C 753.932 -1.93111 -0.205349 0
M  V30 8241 O 753.207 -1.57397 -1.14265 0
M  V30 8242 C 753.49 -2.93065 2.09249 0
M  V30 8243 C 753.343 -2.67801 3.6139 0
M  V30 8244 C 754.662 -3.94341 1.95406 0
M  V30 8245 H 751.781 -0.584449 0.448986 0
M  V30 8246 H 754.423 -0.986189 1.62402 0
M  V30 8247 H 752.573 -3.46364 1.75967 0
M  V30 8248 H 754.245 -2.21052 4.04887 0
M  V30 8249 H 752.488 -2.01756 3.84027 0
M  V30 8250 H 753.159 -3.6179 4.16907 0
M  V30 8251 H 755.635 -3.50301 2.24562 0
M  V30 8252 H 754.511 -4.84555 2.57872 0
M  V30 8253 H 754.772 -4.32382 0.921865 0
M  V30 8254 N 753.831 -1.1567 -1.07043 0
M  V30 8255 C 755.056 -0.957946 -1.83952 0
M  V30 8256 C 755.481 0.488807 -1.81638 0
M  V30 8257 O 754.839 1.34869 -1.21162 0
M  V30 8258 C 754.887 -1.48064 -3.288 0
M  V30 8259 O 753.991 -0.681921 -4.06723 0
M  V30 8260 H 753.332 -0.341453 -0.569479 0
M  V30 8261 H 755.862 -1.53728 -1.35015 0
M  V30 8262 H 755.872 -1.49484 -3.7963 0
M  V30 8263 H 754.547 -2.53388 -3.29799 0
M  V30 8264 H 753.124 -0.737612 -3.65532 0
M  V30 8265 N 755.309 1.25446 -0.953992 0
M  V30 8266 C 756.537 1.97215 -0.625595 0
M  V30 8267 C 756.952 1.70911 0.802168 0
M  V30 8268 O 756.309 0.984782 1.5365 0
M  V30 8269 C 756.36 3.50777 -0.873943 0
M  V30 8270 O 756.081 3.76173 -2.24556 0
M  V30 8271 C 757.582 4.39776 -0.557845 0
M  V30 8272 H 754.802 0.628652 -0.2346 0
M  V30 8273 H 757.346 1.59632 -1.27819 0
M  V30 8274 H 755.501 3.86474 -0.267765 0
M  V30 8275 H 755.915 4.70636 -2.31522 0
M  V30 8276 H 757.389 5.46431 -0.782157 0
M  V30 8277 H 757.866 4.36257 0.507573 0
M  V30 8278 H 758.472 4.09644 -1.14332 0
M  V30 8279 N 756.787 0.722489 1.40064 0
M  V30 8280 C 758.033 0.27422 2.01543 0
M  V30 8281 C 758.388 -1.12224 1.5628 0
M  V30 8282 O 757.681 -1.75179 0.776063 0
M  V30 8283 C 757.875 0.300682 3.56133 0
M  V30 8284 C 757.704 1.69818 4.16404 0
M  V30 8285 C 756.474 2.30747 4.49537 0
M  V30 8286 C 758.672 2.64962 4.40794 0
M  V30 8287 N 756.654 3.62781 4.9524 0
M  V30 8288 C 758.025 3.81712 4.88565 0
M  V30 8289 C 760.08 2.62885 4.22842 0
M  V30 8290 C 758.783 4.96703 5.20268 0
M  V30 8291 C 760.809 3.77009 4.55652 0
M  V30 8292 C 760.171 4.92492 5.03618 0
M  V30 8293 H 756.27 0.146328 0.768188 0
M  V30 8294 H 758.854 0.94577 1.70186 0
M  V30 8295 H 757.025 -0.340461 3.86905 0
M  V30 8296 H 758.757 -0.164951 4.04364 0
M  V30 8297 H 755.512 1.82783 4.36907 0
M  V30 8298 H 755.936 4.30533 5.22465 0
M  V30 8299 H 760.578 1.74803 3.84972 0
M  V30 8300 H 758.296 5.85425 5.57049 0
M  V30 8301 H 761.882 3.76685 4.43396 0
M  V30 8302 H 760.762 5.79336 5.28525 0
M  V30 8303 N 758.265 -1.50454 0.469181 0
M  V30 8304 C 759.49 -2.0722 -0.0864892 0
M  V30 8305 C 759.915 -1.33098 -1.32916 0
M  V30 8306 O 759.273 -0.378084 -1.77314 0
M  V30 8307 C 759.321 -3.58845 -0.355384 0
M  V30 8308 O 758.425 -3.86583 -1.43622 0
M  V30 8309 H 757.766 -0.663889 0.0121414 0
M  V30 8310 H 760.296 -1.93674 0.659674 0
M  V30 8311 H 760.306 -4.03617 -0.596447 0
M  V30 8312 H 758.981 -4.12211 0.552698 0
M  V30 8313 H 757.558 -3.5365 -1.18262 0
M  V30 8314 N 759.743 -0.201713 -1.56304 0
M  V30 8315 C 760.676 0.755976 -2.15314 0
M  V30 8316 C 761.654 1.20497 -1.09175 0
M  V30 8317 O 762.838 1.2913 -1.37323 0
M  V30 8318 C 759.965 2.02177 -2.71739 0
M  V30 8319 C 759.011 1.71436 -3.90528 0
M  V30 8320 S 759.844 0.856624 -5.28604 0
M  V30 8321 C 761 2.13242 -5.88455 0
M  V30 8322 H 761.233 0.254348 -2.9621 0
M  V30 8323 H 758.766 0.0133669 -1.54394 0
M  V30 8324 H 760.724 2.74867 -3.04891 0
M  V30 8325 H 759.385 2.49452 -1.90873 0
M  V30 8326 H 758.578 2.65433 -4.28441 0
M  V30 8327 H 758.18 1.06823 -3.5842 0
M  V30 8328 H 760.472 3.08435 -6.0322 0
M  V30 8329 H 761.415 1.7975 -6.84905 0
M  V30 8330 H 761.823 2.2639 -5.17115 0
M  V30 8331 N 761.222 1.57436 0.0718424 0
M  V30 8332 C 762.447 1.91858 0.787745 0
M  V30 8333 C 762.872 0.798119 1.70328 0
M  V30 8334 O 762.23 -0.24905 1.79581 0
M  V30 8335 C 762.278 3.25232 1.55744 0
M  V30 8336 O 761.382 3.14462 2.6681 0
M  V30 8337 H 760.723 0.628258 0.214914 0
M  V30 8338 H 763.253 2.04561 0.0401012 0
M  V30 8339 H 763.263 3.59105 1.9367 0
M  V30 8340 H 761.938 4.0636 0.885691 0
M  V30 8341 H 760.515 2.92148 2.31741 0
M  V30 8342 N 762.7 -0.34323 1.53817 0
M  V30 8343 C 763.647 -1.42153 1.81827 0
M  V30 8344 C 764.617 -1.52251 0.663996 0
M  V30 8345 O 765.802 -1.67784 0.908461 0
M  V30 8346 C 762.942 -2.78799 2.03384 0
M  V30 8347 C 762.055 -2.7749 3.31094 0
M  V30 8348 C 761.19 -4.05856 3.42717 0
M  V30 8349 C 760.229 -3.98776 4.64375 0
M  V30 8350 N 759.366 -5.18833 4.73029 0
M  V30 8351 H 764.206 -1.17567 2.73829 0
M  V30 8352 H 761.743 -0.569506 1.35628 0
M  V30 8353 H 763.701 -3.58211 2.13872 0
M  V30 8354 H 762.331 -3.01736 1.14696 0
M  V30 8355 H 761.383 -1.90182 3.29446 0
M  V30 8356 H 762.695 -2.68137 4.206 0
M  V30 8357 H 761.849 -4.93691 3.52638 0
M  V30 8358 H 760.588 -4.1799 2.51267 0
M  V30 8359 H 759.593 -3.09325 4.5453 0
M  V30 8360 H 760.818 -3.88224 5.57189 0
M  V30 8361 H 758.764 -5.31511 3.84489 0
M  V30 8362 H 758.681 -5.11737 5.56472 0
M  V30 8363 H 759.949 -6.08439 4.87261 0
M  V30 8364 N 764.178 -1.45556 -0.604258 0
M  V30 8365 C 765.426 -1.4945 -1.36048 0
M  V30 8366 C 765.747 -0.138933 -1.94504 0
M  V30 8367 O 765.017 0.832097 -1.7735 0
M  V30 8368 H 763.597 -0.550381 -0.505064 0
M  V30 8369 H 766.259 -1.81535 -0.709308 0
M  V30 8370 H 765.355 -2.23519 -2.17821 0
M  V30 8371 N 765.656 0.84705 -1.32902 0
M  V30 8372 C 766.905 1.59667 -1.23245 0
M  V30 8373 C 767.218 1.94551 0.202349 0
M  V30 8374 O 768.424 2.68218 0.420847 0
M  V30 8375 C 766.88 2.8795 -2.15901 0
M  V30 8376 C 766.488 2.60461 -3.64505 0
M  V30 8377 C 768.232 3.65968 -2.15098 0
M  V30 8378 C 766.139 3.84791 -4.49099 0
M  V30 8379 H 765.069 0.599167 -0.457728 0
M  V30 8380 H 767.72 0.934662 -1.57912 0
M  V30 8381 H 766.102 3.55648 -1.74157 0
M  V30 8382 H 767.276 2.01026 -4.14639 0
M  V30 8383 H 765.591 1.9576 -3.67515 0
M  V30 8384 H 768.188 4.58241 -2.75534 0
M  V30 8385 H 768.531 4.00275 -1.14392 0
M  V30 8386 H 769.064 3.05184 -2.55162 0
M  V30 8387 H 765.803 3.55621 -5.50649 0
M  V30 8388 H 765.323 4.43594 -4.03713 0
M  V30 8389 H 767.002 4.52454 -4.62487 0
M  V30 8390 N 767.134 1.16236 1.06428 0
M  V30 8391 C 768.411 0.853294 1.76006 0
M  V30 8392 C 768.791 -0.649162 2.00871 0
M  V30 8393 O 768.139 -1.59653 1.63472 0
M  V30 8394 C 768.349 1.67448 3.06206 0
M  V30 8395 C 769.697 1.8866 3.80385 0
M  V30 8396 O 770.721 1.64303 3.16043 0
M  V30 8397 O 769.58 2.29518 4.95968 0
M  V30 8398 H 766.674 0.314737 0.764767 0
M  V30 8399 H 769.22 1.26865 1.12709 0
M  V30 8400 H 767.992 2.69411 2.83784 0
M  V30 8401 H 767.615 1.25608 3.77238 0
M  V30 8402 N 768.612 -1.24939 0.960631 0
M  V30 8403 C 769.84 -1.96881 0.636045 0
M  V30 8404 C 770.255 -1.71334 -0.793093 0
M  V30 8405 O 769.612 -0.992917 -1.53125 0
M  V30 8406 C 769.663 -3.50309 0.892533 0
M  V30 8407 O 769.384 -3.74977 2.26548 0
M  V30 8408 C 770.885 -4.39474 0.581159 0
M  V30 8409 H 768.105 -0.627399 0.237931 0
M  V30 8410 H 770.649 -1.58952 1.28664 0
M  V30 8411 H 768.804 -3.86326 0.288257 0
M  V30 8412 H 769.218 -4.69401 2.34014 0
M  V30 8413 H 770.692 -5.46008 0.811125 0
M  V30 8414 H 771.169 -4.3652 -0.48443 0
M  V30 8415 H 771.775 -4.09032 1.16502 0
M  V30 8416 N 770.09 -0.729906 -1.39679 0
M  V30 8417 C 771 -0.0880322 -2.34435 0
M  V30 8418 C 772.016 0.727674 -1.58053 0
M  V30 8419 O 773.192 0.657321 -1.90371 0
M  V30 8420 C 770.257 0.812211 -3.37052 0
M  V30 8421 C 769.318 -0.0151681 -4.29297 0
M  V30 8422 C 768.551 0.842202 -5.27013 0
M  V30 8423 O 768.774 2.08108 -5.31081 0
M  V30 8424 O 767.708 0.27357 -6.01278 0
M  V30 8425 H 771.534 -0.869989 -2.90972 0
M  V30 8426 H 769.119 -0.490522 -1.41118 0
M  V30 8427 H 771.001 1.32745 -3.99946 0
M  V30 8428 H 769.676 1.57307 -2.82907 0
M  V30 8429 H 768.583 -0.575811 -3.69642 0
M  V30 8430 H 769.916 -0.738129 -4.86634 0
M  V30 8431 N 771.568 1.50203 -0.477153 0
M  V30 8432 C 772.515 2.28656 0.31386 0
M  V30 8433 C 773.485 1.33977 0.981802 0
M  V30 8434 O 774.67 1.62919 0.993072 0
M  V30 8435 C 771.81 3.16027 1.38639 0
M  V30 8436 C 770.923 4.25743 0.732615 0
M  V30 8437 C 770.058 5.00363 1.78355 0
M  V30 8438 C 769.097 6.01945 1.11035 0
M  V30 8439 N 768.234 6.6982 2.10441 0
M  V30 8440 H 773.074 2.958 -0.361445 0
M  V30 8441 H 770.611 1.45867 -0.190093 0
M  V30 8442 H 772.569 3.6504 2.01994 0
M  V30 8443 H 771.199 2.50917 2.03077 0
M  V30 8444 H 770.251 3.80398 -0.0136546 0
M  V30 8445 H 771.563 4.98393 0.201513 0
M  V30 8446 H 770.717 5.53124 2.49276 0
M  V30 8447 H 769.456 4.27432 2.34847 0
M  V30 8448 H 768.461 5.48438 0.386797 0
M  V30 8449 H 769.686 6.76851 0.552248 0
M  V30 8450 H 767.632 5.99677 2.65939 0
M  V30 8451 H 767.549 7.38366 1.62332 0
M  V30 8452 H 768.817 7.27196 2.80724 0
M  V30 8453 N 773.046 0.209999 1.56195 0
M  V30 8454 C 774.292 -0.425442 1.98287 0
M  V30 8455 C 774.625 -1.60232 1.09724 0
M  V30 8456 O 773.9 -1.93902 0.152414 0
M  V30 8457 C 774.183 -0.871189 3.49403 0
M  V30 8458 C 774.036 0.308527 4.48741 0
M  V30 8459 C 775.355 -1.73146 4.04609 0
M  V30 8460 H 772.474 -0.153169 0.720908 0
M  V30 8461 H 775.116 0.303916 1.87554 0
M  V30 8462 H 773.266 -1.49266 3.58681 0
M  V30 8463 H 774.938 0.946487 4.51486 0
M  V30 8464 H 773.181 0.957878 4.23092 0
M  V30 8465 H 773.852 -0.0461143 5.51981 0
M  V30 8466 H 776.328 -1.2072 3.98203 0
M  V30 8467 H 775.204 -2.01228 5.10684 0
M  V30 8468 H 775.465 -2.69083 3.5078 0
M  V30 8469 N 774.524 -1.57472 -0.0634922 0
M  V30 8470 C 775.454 -2.07297 -1.07473 0
M  V30 8471 C 776.435 -0.968162 -1.39859 0
M  V30 8472 O 777.62 -1.24139 -1.49343 0
M  V30 8473 C 774.75 -2.52381 -2.38581 0
M  V30 8474 C 773.704 -3.66813 -2.20526 0
M  V30 8475 C 773.03 -3.97982 -3.57092 0
M  V30 8476 C 774.33 -4.96553 -1.61965 0
M  V30 8477 H 776.024 -2.92033 -0.660092 0
M  V30 8478 H 773.57 -1.40488 -0.316074 0
M  V30 8479 H 775.523 -2.85852 -3.09624 0
M  V30 8480 H 774.247 -1.64684 -2.8204 0
M  V30 8481 H 772.906 -3.33639 -1.51924 0
M  V30 8482 H 772.554 -3.07403 -3.98136 0
M  V30 8483 H 772.254 -4.7504 -3.45848 0
M  V30 8484 H 773.778 -4.33956 -4.29552 0
M  V30 8485 H 775.192 -5.28201 -2.22883 0
M  V30 8486 H 773.589 -5.7799 -1.61394 0
M  V30 8487 H 774.659 -4.81396 -0.581918 0
M  V30 8488 N 776.003 0.335068 -1.53997 0
M  V30 8489 C 777.228 1.09859 -1.75914 0
M  V30 8490 C 777.653 1.81308 -0.500915 0
M  V30 8491 O 777.011 1.72854 0.54693 0
M  V30 8492 C 777.059 2.08122 -2.94478 0
M  V30 8493 O 776.163 3.15805 -2.65219 0
M  V30 8494 H 775.504 0.317313 -0.583274 0
M  V30 8495 H 778.034 0.382872 -2.00986 0
M  V30 8496 H 778.044 2.51195 -3.21504 0
M  V30 8497 H 776.719 1.55517 -3.8573 0
M  V30 8498 H 775.296 2.77489 -2.49107 0
M  V30 8499 N 777.481 1.45874 0.596531 0
M  V30 8500 C 778.73 1.49737 1.35135 0
M  V30 8501 C 779.043 0.147755 1.95041 0
M  V30 8502 O 780.249 0.0640984 2.71424 0
M  V30 8503 C 778.705 2.6378 2.44843 0
M  V30 8504 C 778.313 4.05102 1.91301 0
M  V30 8505 C 780.057 2.769 3.21755 0
M  V30 8506 C 777.964 5.10508 2.98557 0
M  V30 8507 H 776.894 0.557219 0.507959 0
M  V30 8508 H 779.545 1.72046 0.638147 0
M  V30 8509 H 777.927 2.34774 3.189 0
M  V30 8510 H 779.101 4.43836 1.2388 0
M  V30 8511 H 777.416 3.96528 1.271 0
M  V30 8512 H 780.013 3.52819 4.01775 0
M  V30 8513 H 780.356 1.83924 3.73467 0
M  V30 8514 H 780.889 3.05485 2.54802 0
M  V30 8515 H 777.628 6.0523 2.51749 0
M  V30 8516 H 777.148 4.76332 3.6451 0
M  V30 8517 H 778.827 5.35745 3.62748 0
M  V30 8518 N 778.959 -0.83999 1.33349 0
M  V30 8519 C 780.199 -1.60888 1.26073 0
M  V30 8520 C 780.563 -1.91234 -0.17129 0
M  V30 8521 O 781.764 -2.66269 -0.36799 0
M  V30 8522 C 780.035 -2.88438 2.11042 0
M  V30 8523 S 781.594 -3.79116 2.20944 0
M  V30 8524 H 778.412 -0.55166 0.448545 0
M  V30 8525 H 781.014 -0.99359 1.68369 0
M  V30 8526 H 779.718 -2.64113 3.14121 0
M  V30 8527 H 779.249 -3.54974 1.69579 0
M  V30 8528 H 781.264 -4.76921 1.36969 0
M  V30 8529 N 780.437 -1.16799 -1.0581 0
M  V30 8530 C 781.848 -0.95945 -1.60161 0
M  V30 8531 C 782.199 0.49543 -1.89842 0
M  V30 8532 O 781.324 1.36957 -1.67546 0
M  V30 8533 C 781.919 -1.73527 -2.90987 0
M  V30 8534 C 780.478 -1.57158 -3.42021 0
M  V30 8535 C 779.625 -1.74089 -2.15843 0
M  V30 8536 H 782.576 -1.31598 -0.886992 0
M  V30 8537 H 782.597 -1.21397 -3.60615 0
M  V30 8538 H 782.109 -2.79411 -2.69353 0
M  V30 8539 H 780.21 -0.537361 -3.68705 0
M  V30 8540 H 780.323 -2.35858 -4.17022 0
M  V30 8541 H 778.687 -1.16874 -2.26302 0
M  V30 8542 H 779.47 -2.81371 -1.96686 0
M  V30 8543 N 781.915 1.24427 -0.967243 0
M  V30 8544 C 782.862 2.25398 -0.496419 0
M  V30 8545 C 783.832 1.59667 0.457781 0
M  V30 8546 O 785.017 1.87213 0.368246 0
M  V30 8547 C 782.157 3.44474 0.207693 0
M  V30 8548 C 781.27 4.24804 -0.785221 0
M  V30 8549 C 780.405 5.31169 -0.0572631 0
M  V30 8550 C 779.444 6.03195 -1.04027 0
M  V30 8551 N 778.581 7.01265 -0.34235 0
M  V30 8552 H 783.421 2.65039 -1.36229 0
M  V30 8553 H 780.958 1.30288 -0.682902 0
M  V30 8554 H 782.916 4.12376 0.632612 0
M  V30 8555 H 781.546 3.05672 1.03752 0
M  V30 8556 H 780.598 3.56445 -1.32858 0
M  V30 8557 H 781.91 4.74599 -1.53483 0
M  V30 8558 H 781.064 6.05205 0.425674 0
M  V30 8559 H 779.803 4.8228 0.725047 0
M  V30 8560 H 778.808 5.27964 -1.53409 0
M  V30 8561 H 780.033 6.54173 -1.82302 0
M  V30 8562 H 777.979 6.54648 0.420993 0
M  V30 8563 H 777.896 7.48939 -1.03084 0
M  V30 8564 H 779.164 7.7941 0.118634 0
M  V30 8565 N 783.393 0.737304 1.3929 0
M  V30 8566 C 784.67 0.212464 1.94443 0
M  V30 8567 C 785.05 -1.28621 1.67391 0
M  V30 8568 O 784.398 -2.0529 1.00342 0
M  V30 8569 C 784.608 0.548565 3.44662 0
M  V30 8570 C 785.956 0.499177 4.21656 0
M  V30 8571 O 786.98 0.485892 3.5287 0
M  V30 8572 O 785.839 0.495739 5.44247 0
M  V30 8573 H 782.933 0.0395457 0.826054 0
M  V30 8574 H 785.479 0.816319 1.48776 0
M  V30 8575 H 784.251 1.58426 3.57795 0
M  V30 8576 H 783.874 -0.0841399 3.97511 0
M  V30 8577 N 784.871 -1.49948 0.485112 0
M  V30 8578 C 785.804 -2.25531 -0.348027 0
M  V30 8579 C 786.782 -1.29433 -0.984172 0
M  V30 8580 O 787.966 -1.58687 -1.01738 0
M  V30 8581 C 785.093 -3.04225 -1.48878 0
M  V30 8582 C 784.139 -4.15355 -0.968616 0
M  V30 8583 S 784.972 -5.35347 0.127934 0
M  V30 8584 C 786.128 -6.17593 -1.01637 0
M  V30 8585 H 786.361 -2.95847 0.293529 0
M  V30 8586 H 783.894 -1.52018 0.27018 0
M  V30 8587 H 785.852 -3.50153 -2.14251 0
M  V30 8588 H 784.513 -2.33407 -2.1019 0
M  V30 8589 H 783.706 -4.69873 -1.82305 0
M  V30 8590 H 783.308 -3.71936 -0.392377 0
M  V30 8591 H 785.6 -6.49576 -1.92503 0
M  V30 8592 H 786.543 -7.0626 -0.510149 0
M  V30 8593 H 786.951 -5.49877 -1.27653 0
M  V30 8594 N 786.349 -0.21828 -1.56081 0
M  V30 8595 C 787.765 0.137168 -1.59009 0
M  V30 8596 C 787.965 1.59215 -1.23503 0
M  V30 8597 O 787.021 2.33178 -0.968716 0
M  V30 8598 C 788.334 -0.186162 -3.00123 0
M  V30 8599 C 789.882 -0.128135 -3.12738 0
M  V30 8600 C 790.357 -0.425094 -4.56023 0
M  V30 8601 N 791.848 -0.374547 -4.61683 0
M  V30 8602 C 792.583 -0.57786 -5.70481 0
M  V30 8603 N 792.079 -0.842771 -6.87655 0
M  V30 8604 N 793.872 -0.510521 -5.59777 0
M  V30 8605 H 786.023 -1.16746 -1.77437 0
M  V30 8606 H 788.286 -0.467706 -0.824594 0
M  V30 8607 H 787.992 -1.19589 -3.30744 0
M  V30 8608 H 787.866 0.500388 -3.73866 0
M  V30 8609 H 790.253 0.872224 -2.81915 0
M  V30 8610 H 790.334 -0.848112 -2.41331 0
M  V30 8611 H 789.978 -1.42288 -4.87562 0
M  V30 8612 H 789.908 0.316038 -5.25651 0
M  V30 8613 H 792.399 -0.177356 -3.77484 0
M  V30 8614 H 792.712 -0.986095 -7.66483 0
M  V30 8615 H 791.057 -0.879929 -6.89407 0
M  V30 8616 H 794.248 -0.303813 -4.67113 0
M  V30 8617 H 794.421 -0.672378 -6.44502 0
M  V30 8618 N 787.827 1.57504 0.0551401 0
M  V30 8619 C 788.79 2.03826 1.04821 0
M  V30 8620 C 789.79 0.937968 1.30609 0
M  V30 8621 O 790.98 1.20237 1.2605 0
M  V30 8622 C 788.112 2.43309 2.38775 0
M  V30 8623 H 789.305 2.92802 0.6486 0
M  V30 8624 H 786.858 1.53368 0.301315 0
M  V30 8625 H 787.593 1.5741 2.83536 0
M  V30 8626 H 787.378 3.23615 2.21395 0
M  V30 8627 H 788.868 2.79666 3.10124 0
M  V30 8628 N 789.305 -0.326896 1.54172 0
M  V30 8629 C 790.582 -1.08326 1.62864 0
M  V30 8630 C 790.962 -2.06018 0.46039 0
M  V30 8631 O 790.31 -2.21889 -0.545685 0
M  V30 8632 C 790.52 -1.78816 2.9971 0
M  V30 8633 C 791.868 -2.31958 3.55641 0
M  V30 8634 O 792.892 -1.88888 3.01993 0
M  V30 8635 O 791.751 -3.10801 4.49517 0
M  V30 8636 H 788.845 -0.499131 0.659392 0
M  V30 8637 H 791.391 -0.327054 1.66519 0
M  V30 8638 H 790.163 -1.07739 3.76176 0
M  V30 8639 H 789.786 -2.61255 2.99719 0
M  V30 8640 N 790.784 -1.46188 -0.588786 0
M  V30 8641 C 792.033 -1.50452 -1.34339 0
M  V30 8642 C 792.346 -0.158096 -1.9496 0
M  V30 8643 O 793.552 -0.0784918 -2.71387 0
M  V30 8644 C 792.008 -2.65074 -2.43441 0
M  V30 8645 C 791.616 -4.06111 -1.8915 0
M  V30 8646 C 793.36 -2.78603 -3.20282 0
M  V30 8647 C 791.267 -5.12084 -2.95845 0
M  V30 8648 H 790.197 -0.559905 -0.504997 0
M  V30 8649 H 792.848 -1.72382 -0.629014 0
M  V30 8650 H 791.23 -2.36462 -3.1765 0
M  V30 8651 H 792.404 -4.44487 -1.21524 0
M  V30 8652 H 790.719 -3.97197 -1.24995 0
M  V30 8653 H 793.316 -3.54944 -3.99898 0
M  V30 8654 H 793.659 -1.85902 -3.72486 0
M  V30 8655 H 794.192 -3.06832 -2.53178 0
M  V30 8656 H 790.931 -6.06556 -2.48535 0
M  V30 8657 H 790.451 -4.78259 -3.61979 0
M  V30 8658 H 792.13 -5.37661 -3.59902 0
M  V30 8659 N 792.262 0.832906 -1.33792 0
M  V30 8660 C 793.502 1.60217 -1.26925 0
M  V30 8661 C 793.866 1.91323 0.161146 0
M  V30 8662 O 795.067 2.66461 0.353864 0
M  V30 8663 C 793.338 2.87314 -2.12568 0
M  V30 8664 S 794.897 3.77939 -2.22952 0
M  V30 8665 H 791.715 0.549273 -0.451464 0
M  V30 8666 H 794.317 0.984648 -1.68893 0
M  V30 8667 H 793.021 2.62444 -3.15518 0
M  V30 8668 H 792.552 3.5407 -1.71459 0
M  V30 8669 H 794.567 4.76188 -1.39496 0
M  V30 8670 N 793.74 1.17359 1.05189 0
M  V30 8671 C 794.986 0.963413 1.78455 0
M  V30 8672 C 795.319 -0.506703 1.87473 0
M  V30 8673 O 794.594 -1.37611 1.37453 0
M  V30 8674 C 794.877 1.60519 3.22344 0
M  V30 8675 C 794.73 3.14741 3.21338 0
M  V30 8676 C 796.049 1.3091 4.20179 0
M  V30 8677 H 793.168 0.351412 0.647826 0
M  V30 8678 H 795.81 1.44858 1.22948 0
M  V30 8679 H 793.96 1.19265 3.69741 0
M  V30 8680 H 795.632 3.65053 2.82017 0
M  V30 8681 H 793.875 3.4749 2.59679 0
M  V30 8682 H 794.546 3.54775 4.22894 0
M  V30 8683 H 797.022 1.66635 3.81277 0
M  V30 8684 H 795.898 1.784 5.191 0
M  V30 8685 H 796.159 0.229908 4.41502 0
M  V30 8686 N 795.218 -1.23913 0.973828 0
M  V30 8687 C 796.168 -2.22892 0.479933 0
M  V30 8688 C 797.152 -1.54726 -0.441434 0
M  V30 8689 O 798.344 -1.74908 -0.271358 0
M  V30 8690 C 795.473 -3.42577 -0.222702 0
M  V30 8691 C 794.559 -4.17981 0.717851 0
M  V30 8692 N 794.95 -4.7045 1.8577 0
M  V30 8693 C 793.248 -4.42841 0.529858 0
M  V30 8694 C 793.949 -5.27751 2.44651 0
M  V30 8695 N 792.925 -5.15302 1.73104 0
M  V30 8696 H 796.727 -2.61083 1.34956 0
M  V30 8697 H 794.241 -1.39368 0.83368 0
M  V30 8698 H 796.238 -4.1265 -0.593793 0
M  V30 8699 H 794.898 -3.05904 -1.0887 0
M  V30 8700 H 795.909 -4.66997 2.23908 0
M  V30 8701 H 792.586 -4.1648 -0.291664 0
M  V30 8702 H 793.976 -5.79011 3.40875 0
M  V30 8703 N 796.696 -0.74468 -1.38897 0
M  V30 8704 C 797.626 -0.126355 -2.33158 0
M  V30 8705 C 798.607 0.713517 -1.54412 0
M  V30 8706 O 799.792 0.656523 -1.82766 0
M  V30 8707 C 796.922 0.774375 -3.38557 0
M  V30 8708 C 795.876 0.0379214 -4.27983 0
M  V30 8709 C 795.202 1.05631 -5.24162 0
M  V30 8710 C 796.502 -1.12523 -5.10035 0
M  V30 8711 H 798.196 -0.913744 -2.85116 0
M  V30 8712 H 795.742 -0.440847 -1.37086 0
M  V30 8713 H 797.695 1.21655 -4.03458 0
M  V30 8714 H 796.419 1.59399 -2.85061 0
M  V30 8715 H 795.078 -0.384733 -3.64576 0
M  V30 8716 H 794.726 1.86975 -4.66958 0
M  V30 8717 H 794.426 0.568261 -5.84846 0
M  V30 8718 H 795.95 1.49799 -5.9194 0
M  V30 8719 H 797.364 -0.761037 -5.68226 0
M  V30 8720 H 795.761 -1.54355 -5.79909 0
M  V30 8721 H 796.831 -1.94237 -4.44297 0
M  V30 8722 N 798.174 1.49689 -0.493057 0
M  V30 8723 C 799.122 2.30613 0.303383 0
M  V30 8724 C 800.116 1.38867 0.970165 0
M  V30 8725 O 801.322 1.55956 0.898761 0
M  V30 8726 H 797.697 0.742891 0.116691 0
M  V30 8727 H 799.668 2.95717 -0.39924 0
M  V30 8728 C 798.417 3.20008 1.35978 0
M  V30 8729 H 797.74 3.90526 0.856103 0
M  V30 8730 H 799.18 3.79586 1.88919 0
M  V30 8731 C 797.639 2.39079 2.37367 0
M  V30 8732 O 798.169 2.08933 3.43089 0
M  V30 8733 N 796.375 2.0125 2.09635 0
M  V30 8734 H 795.922 2.25966 1.23682 0
M  V30 8735 H 795.88 1.47408 2.77702 0
M  V30 8736 N 799.652 0.226554 1.55963 0
M  V30 8737 C 801.068 -0.128733 1.5908 0
M  V30 8738 C 801.268 -1.58558 1.24345 0
M  V30 8739 O 800.324 -2.32661 0.981069 0
M  V30 8740 C 801.637 0.202076 3.0002 0
M  V30 8741 C 803.185 0.144718 3.12665 0
M  V30 8742 C 803.66 0.449272 4.55791 0
M  V30 8743 N 805.151 0.399026 4.61478 0
M  V30 8744 C 805.886 0.608106 5.70166 0
M  V30 8745 N 805.382 0.879227 6.87198 0
M  V30 8746 N 807.175 0.5402 5.59498 0
M  V30 8747 H 799.326 1.17686 1.76816 0
M  V30 8748 H 801.589 0.472072 0.822102 0
M  V30 8749 H 801.295 1.21341 3.30105 0
M  V30 8750 H 801.169 -0.480554 3.74126 0
M  V30 8751 H 803.556 -0.857261 2.82374 0
M  V30 8752 H 803.637 0.860899 2.40878 0
M  V30 8753 H 803.281 1.44871 4.86801 0
M  V30 8754 H 803.211 -0.288157 5.25811 0
M  V30 8755 H 805.702 0.197372 3.77384 0
M  V30 8756 H 806.015 1.02673 7.65949 0
M  V30 8757 H 804.36 0.916477 6.88931 0
M  V30 8758 H 807.551 0.328581 4.66945 0
M  V30 8759 H 807.724 0.706548 6.44137 0
M  V30 8760 N 801.13 -1.57531 -0.0467866 0
M  V30 8761 C 802.077 -2.05387 -1.05285 0
M  V30 8762 C 803.047 -0.939385 -1.36985 0
M  V30 8763 O 804.232 -1.20877 -1.47626 0
M  V30 8764 C 801.372 -2.52343 -2.35408 0
M  V30 8765 C 800.485 -3.77512 -2.10022 0
M  V30 8766 C 799.62 -4.1315 -3.33887 0
M  V30 8767 C 798.659 -5.31286 -3.03976 0
M  V30 8768 N 797.796 -5.62441 -4.20243 0
M  V30 8769 H 802.636 -2.91095 -0.637788 0
M  V30 8770 H 800.173 -1.43939 -0.303322 0
M  V30 8771 H 802.131 -2.77628 -3.11413 0
M  V30 8772 H 800.761 -1.69577 -2.7467 0
M  V30 8773 H 799.813 -3.59417 -1.24594 0
M  V30 8774 H 801.125 -4.63644 -1.83945 0
M  V30 8775 H 800.279 -4.39469 -4.18273 0
M  V30 8776 H 799.018 -3.25634 -3.63062 0
M  V30 8777 H 798.023 -5.04738 -2.17991 0
M  V30 8778 H 799.248 -6.20441 -2.76098 0
M  V30 8779 H 797.194 -4.77885 -4.49402 0
M  V30 8780 H 797.111 -6.43046 -3.97528 0
M  V30 8781 H 798.379 -5.93327 -5.05553 0
M  V30 8782 N 802.608 0.318715 -1.54344 0
M  V30 8783 C 803.854 1.05765 -1.73037 0
M  V30 8784 C 804.187 1.87514 -0.505181 0
M  V30 8785 O 803.462 1.88021 0.497838 0
M  V30 8786 C 803.745 1.97836 -3.00887 0
M  V30 8787 C 803.598 1.19384 -4.33668 0
M  V30 8788 C 804.917 2.97285 -3.24514 0
M  V30 8789 H 802.036 0.383104 -0.629603 0
M  V30 8790 H 804.678 0.333864 -1.87044 0
M  V30 8791 H 802.828 2.59552 -2.89076 0
M  V30 8792 H 804.5 0.600906 -4.57369 0
M  V30 8793 H 802.743 0.496198 -4.30953 0
M  V30 8794 H 803.414 1.87014 -5.19355 0
M  V30 8795 H 805.89 2.45693 -3.35819 0
M  V30 8796 H 804.766 3.58887 -4.15321 0
M  V30 8797 H 805.027 3.70003 -2.41971 0
M  V30 8798 N 804.086 1.46499 0.581025 0
M  V30 8799 C 805.333 1.51896 1.33918 0
M  V30 8800 C 805.661 0.171361 1.93744 0
M  V30 8801 O 804.916 -0.833178 1.77078 0
M  V30 8802 C 805.215 2.56686 2.48691 0
M  V30 8803 C 804.881 4.00656 2.06847 0
M  V30 8804 C 803.543 4.39852 1.9515 0
M  V30 8805 C 805.895 4.91089 1.74589 0
M  V30 8806 C 803.223 5.67345 1.49456 0
M  V30 8807 C 805.575 6.1902 1.30373 0
M  V30 8808 C 804.239 6.57121 1.17255 0
M  V30 8809 H 803.509 0.555826 0.490039 0
M  V30 8810 H 806.156 1.79983 0.654092 0
M  V30 8811 H 804.461 2.22266 3.22653 0
M  V30 8812 H 806.158 2.58091 3.06904 0
M  V30 8813 H 802.748 3.69674 2.16886 0
M  V30 8814 H 806.932 4.61523 1.8251 0
M  V30 8815 H 802.188 5.95635 1.37944 0
M  V30 8816 H 806.362 6.8852 1.04467 0
M  V30 8817 H 803.989 7.55805 0.816236 0
M  V30 8818 N 805.565 -0.825799 1.34232 0
M  V30 8819 C 806.513 -1.95792 1.25572 0
M  V30 8820 C 807.507 -1.68695 0.154404 0
M  V30 8821 O 808.713 -1.77147 0.319196 0
M  V30 8822 H 805.088 -0.642949 0.390027 0
M  V30 8823 H 807.059 -2.00219 2.21258 0
M  V30 8824 C 805.808 -3.32245 1.02511 0
M  V30 8825 H 805.131 -3.53642 1.86487 0
M  V30 8826 H 806.571 -4.1192 1.00487 0
M  V30 8827 C 805.03 -3.35803 -0.27167 0
M  V30 8828 O 805.56 -3.80962 -1.274 0
M  V30 8829 N 803.766 -2.89008 -0.303778 0
M  V30 8830 H 803.313 -2.52451 0.512464 0
M  V30 8831 H 803.271 -2.9177 -1.17121 0
M  V30 8832 N 807.043 -1.17915 -1.04565 0
M  V30 8833 C 807.953 -0.916449 -2.15959 0
M  V30 8834 C 808.969 0.117655 -1.73602 0
M  V30 8835 O 810.145 -0.063089 -2.01301 0
M  V30 8836 C 807.21 -0.440262 -3.43893 0
M  V30 8837 C 806.271 -1.54172 -4.00661 0
M  V30 8838 C 805.504 -1.08816 -5.22489 0
M  V30 8839 O 805.727 0.0551547 -5.70373 0
M  V30 8840 O 804.661 -1.88383 -5.7166 0
M  V30 8841 H 808.487 -1.8484 -2.40972 0
M  V30 8842 H 806.072 -0.960552 -1.14428 0
M  V30 8843 H 807.954 -0.182537 -4.21004 0
M  V30 8844 H 806.629 0.46346 -3.20365 0
M  V30 8845 H 805.536 -1.85341 -3.24961 0
M  V30 8846 H 806.869 -2.42139 -4.2852 0
M  V30 8847 N 808.521 1.23394 -0.980386 0
M  V30 8848 C 809.471 2.22634 -0.491747 0
M  V30 8849 C 810.455 1.54958 0.433222 0
M  V30 8850 O 811.647 1.75049 0.262078 0
M  V30 8851 C 808.776 3.4269 0.204531 0
M  V30 8852 C 807.862 4.17594 -0.740007 0
M  V30 8853 N 808.253 4.69458 -1.88263 0
M  V30 8854 C 806.551 4.42554 -0.553335 0
M  V30 8855 C 807.252 5.26446 -2.47446 0
M  V30 8856 N 806.228 5.14377 -1.75834 0
M  V30 8857 H 810.03 2.60363 -1.36339 0
M  V30 8858 H 807.544 1.38924 -0.841059 0
M  V30 8859 H 809.541 4.12959 0.571901 0
M  V30 8860 H 808.201 3.06477 1.07246 0
M  V30 8861 H 809.212 4.65803 -2.26381 0
M  V30 8862 H 805.889 4.16629 0.269573 0
M  V30 8863 H 807.279 5.77195 -3.43941 0
M  V30 8864 N 809.999 0.752036 1.385 0
M  V30 8865 C 811.41 0.375385 1.82887 0
M  V30 8866 C 811.761 -1.09575 1.62751 0
M  V30 8867 O 810.886 -1.84685 1.12785 0
M  V30 8868 C 811.481 0.674563 3.32017 0
M  V30 8869 C 810.04 0.351208 3.74758 0
M  V30 8870 C 809.187 0.928531 2.61292 0
M  V30 8871 H 812.138 0.948313 1.27251 0
M  V30 8872 H 812.159 -0.0477781 3.8047 0
M  V30 8873 H 811.671 1.74533 3.46641 0
M  V30 8874 H 809.772 -0.713042 3.65714 0
M  V30 8875 H 809.885 0.845675 4.71577 0
M  V30 8876 H 808.249 0.354012 2.52228 0
M  V30 8877 H 809.032 2.0043 2.78716 0
M  V30 8878 N 811.477 -1.49425 0.500989 0
M  V30 8879 C 812.44 -2.27646 -0.266416 0
M  V30 8880 C 813.44 -1.3366 -0.893961 0
M  V30 8881 O 814.63 -1.5682 -0.758495 0
M  V30 8882 C 811.762 -3.11618 -1.38227 0
M  V30 8883 H 812.955 -2.96945 0.419973 0
M  V30 8884 H 810.508 -1.5419 0.255954 0
M  V30 8885 H 811.243 -2.46885 -2.10281 0
M  V30 8886 H 811.028 -3.80721 -0.937746 0
M  V30 8887 H 812.518 -3.70698 -1.92283 0
M  V30 8888 N 812.955 -0.234822 -1.55841 0
M  V30 8889 C 814.202 0.39326 -1.98645 0
M  V30 8890 C 814.53 1.58823 -1.12274 0
M  V30 8891 O 813.785 1.94954 -0.170731 0
M  V30 8892 C 814.084 0.858032 -3.46947 0
M  V30 8893 C 813.75 -0.227858 -4.50324 0
M  V30 8894 C 812.412 -0.526128 -4.78315 0
M  V30 8895 C 814.764 -0.961576 -5.12253 0
M  V30 8896 C 812.092 -1.5624 -5.65514 0
M  V30 8897 C 814.444 -1.98728 -6.00575 0
M  V30 8898 C 813.108 -2.29233 -6.26904 0
M  V30 8899 H 812.378 0.143904 -0.726892 0
M  V30 8900 H 815.025 -0.34012 -1.88455 0
M  V30 8901 H 813.33 1.67041 -3.54408 0
M  V30 8902 H 815.027 1.35407 -3.77447 0
M  V30 8903 H 811.617 0.0147624 -4.28597 0
M  V30 8904 H 815.801 -0.744388 -4.90686 0
M  V30 8905 H 811.057 -1.80422 -5.84173 0
M  V30 8906 H 815.231 -2.5608 -6.47608 0
M  V30 8907 H 812.858 -3.09671 -6.94268 0
M  V30 8908 N 814.433 1.57553 0.0384317 0
M  V30 8909 C 815.849 1.54663 0.39391 0
M  V30 8910 C 816.049 0.959685 1.77179 0
M  V30 8911 O 815.105 0.576647 2.45827 0
M  V30 8912 C 816.418 2.99156 0.304352 0
M  V30 8913 C 817.966 3.10659 0.382119 0
M  V30 8914 C 818.441 4.56866 0.322111 0
M  V30 8915 N 819.932 4.61629 0.38119 0
M  V30 8916 C 820.667 5.72284 0.357501 0
M  V30 8917 N 820.163 6.92207 0.286654 0
M  V30 8918 N 821.956 5.60628 0.406538 0
M  V30 8919 H 814.107 1.9406 -0.86339 0
M  V30 8920 H 816.37 0.889673 -0.327392 0
M  V30 8921 H 816.076 3.45788 -0.642141 0
M  V30 8922 H 815.95 3.60753 1.10168 0
M  V30 8923 H 818.337 2.6398 1.31904 0
M  V30 8924 H 818.418 2.5191 -0.444391 0
M  V30 8925 H 818.062 5.0421 -0.611104 0
M  V30 8926 H 817.992 5.13515 1.1666 0
M  V30 8927 H 820.483 3.75343 0.438838 0
M  V30 8928 H 820.796 7.72316 0.273421 0
M  V30 8929 H 819.141 6.9454 0.252841 0
M  V30 8930 H 822.332 4.65836 0.459812 0
M  V30 8931 H 822.505 6.46858 0.384608 0
M  V30 8932 N 815.911 -0.310526 1.54511 0
M  V30 8933 C 816.841 -1.38757 1.878 0
M  V30 8934 C 817.822 -1.53353 0.735991 0
M  V30 8935 O 819.007 -1.67018 0.990887 0
M  V30 8936 C 816.137 -2.75327 2.11689 0
M  V30 8937 C 815.091 -2.75506 3.27537 0
M  V30 8938 C 814.417 -4.15275 3.36824 0
M  V30 8939 C 815.717 -2.38093 4.64875 0
M  V30 8940 H 817.411 -1.11146 2.78005 0
M  V30 8941 H 814.957 -0.533232 1.33763 0
M  V30 8942 H 816.91 -3.50752 2.33562 0
M  V30 8943 H 815.634 -3.04443 1.18245 0
M  V30 8944 H 814.293 -2.02538 3.05572 0
M  V30 8945 H 813.941 -4.41553 2.40915 0
M  V30 8946 H 813.641 -4.16299 4.14692 0
M  V30 8947 H 815.165 -4.92493 3.60947 0
M  V30 8948 H 816.579 -3.03232 4.86542 0
M  V30 8949 H 814.976 -2.50345 5.45387 0
M  V30 8950 H 816.046 -1.33227 4.66239 0
M  V30 8951 N 817.389 -1.46805 -0.573248 0
M  V30 8952 C 818.352 -1.57655 -1.66366 0
M  V30 8953 C 819.352 -0.452905 -1.5429 0
M  V30 8954 O 820.542 -0.717502 -1.58737 0
M  V30 8955 C 817.674 -1.50584 -3.05839 0
M  V30 8956 H 818.867 -2.54842 -1.581 0
M  V30 8957 H 816.42 -1.34756 -0.791868 0
M  V30 8958 H 817.155 -0.547127 -3.19651 0
M  V30 8959 H 816.94 -2.32118 -3.16012 0
M  V30 8960 H 818.43 -1.61282 -3.85199 0
M  V30 8961 N 818.867 0.818669 -1.34668 0
M  V30 8962 C 820.092 1.61193 -1.30505 0
M  V30 8963 C 820.517 1.87734 0.117341 0
M  V30 8964 O 819.875 1.45591 1.08042 0
M  V30 8965 C 819.923 2.92733 -2.1057 0
M  V30 8966 O 819.027 3.85 -1.47813 0
M  V30 8967 H 818.368 0.490085 -0.44801 0
M  V30 8968 H 820.898 1.01701 -1.77534 0
M  V30 8969 H 820.908 3.42262 -2.22082 0
M  V30 8970 H 819.583 2.7274 -3.13984 0
M  V30 8971 H 818.16 3.43525 -1.45069 0
M  V30 8972 N 820.346 1.18468 1.03938 0
M  V30 8973 C 821.623 0.890435 1.74157 0
M  V30 8974 C 822.003 -0.606409 2.02203 0
M  V30 8975 O 821.351 -1.5615 1.66822 0
M  V30 8976 C 821.561 1.73906 3.02585 0
M  V30 8977 C 822.909 1.96686 3.76297 0
M  V30 8978 O 823.933 1.70969 3.12487 0
M  V30 8979 O 822.792 2.39986 4.90988 0
M  V30 8980 H 819.886 0.330889 0.757919 0
M  V30 8981 H 822.432 1.29228 1.09992 0
M  V30 8982 H 821.204 2.75369 2.78006 0
M  V30 8983 H 820.827 1.33581 3.74489 0
M  V30 8984 N 821.824 -1.22873 0.986916 0
M  V30 8985 C 823.072 -1.91084 0.658121 0
M  V30 8986 C 823.393 -1.77304 -0.811675 0
M  V30 8987 O 822.663 -1.15649 -1.58121 0
M  V30 8988 H 821.243 -0.707251 0.240427 0
M  V30 8989 H 823.905 -1.49357 1.25213 0
M  V30 8990 H 823.001 -2.98373 0.915428 0
M  V30 8991 N 823.302 -0.75937 -1.38099 0
M  V30 8992 C 824.542 -0.323116 -2.0183 0
M  V30 8993 C 824.906 1.07658 -1.58977 0
M  V30 8994 O 826.107 1.61227 -2.1508 0
M  V30 8995 C 824.378 -0.448234 -3.54578 0
M  V30 8996 S 825.937 -0.0954152 -4.38696 0
M  V30 8997 H 822.755 -0.125013 -0.699923 0
M  V30 8998 H 825.357 -0.991262 -1.68506 0
M  V30 8999 H 824.061 -1.46778 -3.83255 0
M  V30 9000 H 823.592 0.236895 -3.92686 0
M  V30 9001 H 825.607 1.11312 -4.83554 0
M  V30 9002 N 824.78 1.49157 -0.508906 0
M  V30 9003 C 825.71 2.32109 0.254469 0
M  V30 9004 C 826.691 1.40754 0.955111 0
M  V30 9005 O 827.876 1.69658 0.944983 0
M  V30 9006 C 825.006 3.21458 1.3146 0
M  V30 9007 C 823.96 4.2167 0.733368 0
M  V30 9008 C 823.286 5.00009 1.8946 0
M  V30 9009 C 824.586 5.21544 -0.280875 0
M  V30 9010 H 826.28 2.9618 -0.43795 0
M  V30 9011 H 823.826 1.4243 -0.212062 0
M  V30 9012 H 825.779 3.78305 1.85643 0
M  V30 9013 H 824.503 2.55346 2.03632 0
M  V30 9014 H 823.162 3.65979 0.213231 0
M  V30 9015 H 822.81 4.30338 2.60419 0
M  V30 9016 H 822.51 5.67821 1.51173 0
M  V30 9017 H 824.034 5.59702 2.44061 0
M  V30 9018 H 825.448 5.73039 0.173095 0
M  V30 9019 H 823.845 5.97291 -0.580006 0
M  V30 9020 H 824.915 4.69969 -1.19404 0
M  V30 9021 N 826.258 0.243083 1.55714 0
M  V30 9022 C 827.674 -0.111853 1.59208 0
M  V30 9023 C 827.874 -1.5723 1.2602 0
M  V30 9024 O 826.93 -2.31608 1.00569 0
M  V30 9025 C 828.243 0.233885 2.99789 0
M  V30 9026 C 829.791 0.177873 3.12494 0
M  V30 9027 C 830.266 0.49759 4.55289 0
M  V30 9028 N 831.757 0.447949 4.61029 0
M  V30 9029 C 832.492 0.668545 5.69489 0
M  V30 9030 N 831.988 0.952064 6.86227 0
M  V30 9031 N 833.781 0.599512 5.58894 0
M  V30 9032 H 825.932 1.19554 1.75558 0
M  V30 9033 H 828.195 0.480765 0.817049 0
M  V30 9034 H 827.901 1.24835 3.28799 0
M  V30 9035 H 827.775 -0.440846 3.74615 0
M  V30 9036 H 830.162 -0.827263 2.83267 0
M  V30 9037 H 830.243 0.886399 2.39951 0
M  V30 9038 H 829.887 1.50026 4.85237 0
M  V30 9039 H 829.817 -0.232371 5.26087 0
M  V30 9040 H 832.308 0.237388 3.77154 0
M  V30 9041 H 832.621 1.10791 7.64817 0
M  V30 9042 H 830.966 0.989496 6.8792 0
M  V30 9043 H 834.157 0.378088 4.66571 0
M  V30 9044 H 834.33 0.774828 6.43351 0
M  V30 9045 N 827.736 -1.57571 -0.0300757 0
M  V30 9046 C 828.699 -2.05468 -1.01565 0
M  V30 9047 C 829.699 -0.958628 -1.29101 0
M  V30 9048 O 830.889 -1.22228 -1.24121 0
M  V30 9049 C 828.021 -2.47077 -2.34874 0
M  V30 9050 H 829.214 -2.93797 -0.601936 0
M  V30 9051 H 826.767 -1.53828 -0.276878 0
M  V30 9052 H 827.502 -1.61901 -2.80996 0
M  V30 9053 H 827.287 -3.27097 -2.16218 0
M  V30 9054 H 828.777 -2.84564 -3.05635 0
M  V30 9055 N 829.214 0.302327 -1.54673 0
M  V30 9056 C 830.144 1.37759 -1.88533 0
M  V30 9057 C 831.125 1.52961 -0.744113 0
M  V30 9058 O 832.31 1.6649 -0.999731 0
M  V30 9059 C 829.44 2.74201 -2.13146 0
M  V30 9060 C 828.394 2.73765 -3.28993 0
M  V30 9061 C 827.72 4.13483 -3.39022 0
M  V30 9062 C 829.02 2.35624 -4.66132 0
M  V30 9063 H 830.714 1.0967 -2.78591 0
M  V30 9064 H 828.26 0.52613 -1.34044 0
M  V30 9065 H 830.213 3.49508 -2.35419 0
M  V30 9066 H 828.937 3.03812 -1.19858 0
M  V30 9067 H 827.596 2.00914 -3.06642 0
M  V30 9068 H 827.244 4.40269 -2.43253 0
M  V30 9069 H 826.944 4.14093 -4.16894 0
M  V30 9070 H 828.468 4.90572 -3.63553 0
M  V30 9071 H 829.882 3.00647 -4.88143 0
M  V30 9072 H 828.279 2.47449 -5.46707 0
M  V30 9073 H 829.349 1.30753 -4.66939 0
M  V30 9074 N 830.692 1.47107 0.565454 0
M  V30 9075 C 831.655 1.58535 1.65527 0
M  V30 9076 C 832.655 0.461081 1.54048 0
M  V30 9077 O 833.845 0.725911 1.58355 0
M  V30 9078 C 830.977 1.52204 3.05036 0
M  V30 9079 H 832.17 2.55676 1.56747 0
M  V30 9080 H 829.723 1.35174 0.78471 0
M  V30 9081 H 830.458 0.564071 3.19357 0
M  V30 9082 H 830.243 2.3379 3.14777 0
M  V30 9083 H 831.733 1.63322 3.84338 0
M  V30 9084 N 832.17 -0.811516 1.35101 0
M  V30 9085 C 833.416 -1.57068 1.28287 0
M  V30 9086 C 833.749 -1.93667 -0.143808 0
M  V30 9087 O 833.024 -1.60953 -1.09199 0
M  V30 9088 C 833.307 -2.86259 2.18466 0
M  V30 9089 C 833.16 -2.56168 3.69727 0
M  V30 9090 C 834.479 -3.87924 2.07852 0
M  V30 9091 H 831.598 -0.569869 0.467353 0
M  V30 9092 H 834.24 -0.934023 1.65457 0
M  V30 9093 H 832.39 -3.4059 1.86898 0
M  V30 9094 H 834.062 -2.08059 4.11715 0
M  V30 9095 H 832.305 -1.89436 3.90252 0
M  V30 9096 H 832.976 -3.48344 4.28206 0
M  V30 9097 H 835.452 -3.4298 2.35593 0
M  V30 9098 H 834.328 -4.76106 2.73157 0
M  V30 9099 H 834.589 -4.2923 1.05896 0
M  V30 9100 N 833.648 -1.19017 -1.03309 0
M  V30 9101 C 834.558 -0.939303 -2.14975 0
M  V30 9102 C 835.574 0.0992359 -1.73717 0
M  V30 9103 O 836.75 -0.0844362 -2.01223 0
M  V30 9104 C 833.815 -0.476712 -3.43407 0
M  V30 9105 C 832.876 -1.58413 -3.99003 0
M  V30 9106 C 832.109 -1.14352 -5.21305 0
M  V30 9107 O 832.332 -0.00534408 -5.704 0
M  V30 9108 O 831.266 -1.94436 -5.6963 0
M  V30 9109 H 835.092 -1.87386 -2.38998 0
M  V30 9110 H 832.677 -0.972635 -1.13403 0
M  V30 9111 H 834.559 -0.22718 -4.20787 0
M  V30 9112 H 833.234 0.429455 -3.20839 0
M  V30 9113 H 832.141 -1.88777 -3.22977 0
M  V30 9114 H 833.474 -2.4667 -4.25928 0
M  V30 9115 N 835.127 1.22348 -0.993418 0
M  V30 9116 C 836.374 1.9111 -0.669568 0
M  V30 9117 C 836.702 1.77357 0.79843 0
M  V30 9118 O 835.957 1.13675 1.593 0
M  V30 9119 C 836.256 3.42477 -1.02197 0
M  V30 9120 C 835.922 3.7642 -2.48232 0
M  V30 9121 C 834.584 3.85395 -2.88139 0
M  V30 9122 C 836.936 3.9253 -3.42884 0
M  V30 9123 C 834.264 4.07918 -4.21687 0
M  V30 9124 C 836.616 4.16557 -4.76091 0
M  V30 9125 C 835.28 4.23757 -5.15739 0
M  V30 9126 H 834.55 0.699321 -0.245012 0
M  V30 9127 H 837.197 1.45102 -1.2497 0
M  V30 9128 H 835.502 3.90143 -0.359921 0
M  V30 9129 H 837.199 3.93935 -0.74942 0
M  V30 9130 H 833.789 3.70017 -2.16299 0
M  V30 9131 H 837.973 3.84974 -3.13224 0
M  V30 9132 H 833.229 4.11719 -4.51993 0
M  V30 9133 H 837.403 4.27966 -5.4938 0
M  V30 9134 H 835.03 4.40962 -6.19239 0
M  V30 9135 N 836.605 0.766683 1.37694 0
M  V30 9136 C 837.537 0.107798 2.28946 0
M  V30 9137 C 838.55 -0.669701 1.48387 0
M  V30 9138 O 839.739 -0.508629 1.711 0
M  V30 9139 C 836.839 -0.871084 3.27514 0
M  V30 9140 C 836.012 -0.148471 4.37148 0
M  V30 9141 C 835.071 -1.03998 5.1582 0
M  V30 9142 O 834.097 -0.505639 5.6695 0
M  V30 9143 N 835.299 -2.36679 5.3006 0
M  V30 9144 H 838.064 0.89154 2.86132 0
M  V30 9145 H 835.625 0.618593 1.49616 0
M  V30 9146 H 837.617 -1.47081 3.77027 0
M  V30 9147 H 836.187 -1.55582 2.71133 0
M  V30 9148 H 835.407 0.632117 3.89099 0
M  V30 9149 H 836.695 0.351045 5.07588 0
M  V30 9150 H 836.093 -2.82532 4.90094 0
M  V30 9151 H 834.65 -2.9167 5.82899 0
M  V30 9152 N 838.083 -1.48885 0.516809 0
M  V30 9153 C 839.311 -2.06892 -0.0184017 0
M  V30 9154 C 839.726 -1.37511 -1.29368 0
M  V30 9155 O 839.083 -0.458409 -1.76649 0
M  V30 9156 C 839.134 -3.60566 -0.259673 0
M  V30 9157 O 838.855 -4.27338 0.965065 0
M  V30 9158 C 840.356 -4.35331 -0.836751 0
M  V30 9159 H 837.576 -0.670433 0.0275743 0
M  V30 9160 H 840.12 -1.91455 0.718689 0
M  V30 9161 H 838.275 -3.75653 -0.94678 0
M  V30 9162 H 838.689 -5.19287 0.737647 0
M  V30 9163 H 840.163 -5.43675 -0.955065 0
M  V30 9164 H 840.64 -3.9887 -1.83845 0
M  V30 9165 H 841.246 -4.2489 -0.186622 0
M  V30 9166 N 839.561 -0.251338 -1.55583 0
M  V30 9167 C 840.81 0.372681 -1.98227 0
M  V30 9168 C 841.123 1.58743 -1.1428 0
M  V30 9169 O 842.329 2.28289 -1.46957 0
M  V30 9170 C 840.785 0.714439 -3.52738 0
M  V30 9171 C 840.393 -0.479168 -4.4543 0
M  V30 9172 C 842.137 1.3024 -4.04027 0
M  V30 9173 C 840.044 -0.113318 -5.91291 0
M  V30 9174 H 838.974 0.14302 -0.740312 0
M  V30 9175 H 841.625 -0.352253 -1.80087 0
M  V30 9176 H 840.007 1.49762 -3.66589 0
M  V30 9177 H 841.181 -1.25644 -4.4334 0
M  V30 9178 H 839.496 -0.982359 -4.04646 0
M  V30 9179 H 842.093 1.58953 -5.10527 0
M  V30 9180 H 842.436 2.22837 -3.51638 0
M  V30 9181 H 842.969 0.582024 -3.93519 0
M  V30 9182 H 839.708 -1.00654 -6.47726 0
M  V30 9183 H 839.228 0.627666 -5.96507 0
M  V30 9184 H 840.907 0.30293 -6.4629 0
M  V30 9185 N 841.039 1.57585 0.0217189 0
M  V30 9186 C 841.989 2.03506 1.02807 0
M  V30 9187 C 842.973 0.925716 1.31603 0
M  V30 9188 O 844.165 1.18958 1.31065 0
M  V30 9189 C 841.294 2.52407 2.32693 0
M  V30 9190 C 840.38 3.70176 2.06955 0
M  V30 9191 N 840.771 4.82641 1.513 0
M  V30 9192 C 839.069 3.77691 2.37204 0
M  V30 9193 C 839.77 5.64218 1.41536 0
M  V30 9194 N 838.746 5.09557 1.89348 0
M  V30 9195 H 842.548 2.87878 0.591899 0
M  V30 9196 H 840.062 1.60793 0.227875 0
M  V30 9197 H 842.059 2.83569 3.05605 0
M  V30 9198 H 840.719 1.69444 2.76982 0
M  V30 9199 H 841.73 5.03931 1.19472 0
M  V30 9200 H 838.407 3.05542 2.84517 0
M  V30 9201 H 839.797 6.64576 0.989333 0
M  V30 9202 N 842.517 -0.29412 1.54831 0
M  V30 9203 C 843.757 -1.03635 1.76179 0
M  V30 9204 C 844.121 -1.84251 0.539953 0
M  V30 9205 O 845.322 -2.61282 0.631295 0
M  V30 9206 C 843.593 -1.91275 3.01909 0
M  V30 9207 S 845.152 -2.7205 3.44288 0
M  V30 9208 H 841.97 -0.349403 0.619224 0
M  V30 9209 H 844.572 -0.309006 1.93042 0
M  V30 9210 H 843.276 -1.30937 3.88952 0
M  V30 9211 H 842.807 -2.68365 2.87652 0
M  V30 9212 H 844.822 -3.93791 3.01899 0
M  V30 9213 N 843.995 -1.47404 -0.557645 0
M  V30 9214 C 844.958 -1.59411 -1.64684 0
M  V30 9215 C 845.958 -0.469244 -1.53801 0
M  V30 9216 O 847.148 -0.734298 -1.57967 0
M  V30 9217 C 844.28 -1.5382 -3.04224 0
M  V30 9218 H 845.473 -2.56504 -1.55389 0
M  V30 9219 H 843.026 -1.35588 -0.777531 0
M  V30 9220 H 843.761 -0.581 -3.19053 0
M  V30 9221 H 843.546 -2.35456 -3.13533 0
M  V30 9222 H 845.036 -1.65358 -3.83466 0
M  V30 9223 N 845.473 0.80434 -1.35529 0
M  V30 9224 C 846.884 1.37849 -1.25915 0
M  V30 9225 C 847.235 1.95905 0.107495 0
M  V30 9226 O 846.36 1.91462 1.00852 0
M  V30 9227 C 846.955 2.50608 -2.27994 0
M  V30 9228 C 845.514 3.03879 -2.22114 0
M  V30 9229 C 844.661 1.76856 -2.13582 0
M  V30 9230 H 847.612 0.607192 -1.46625 0
M  V30 9231 H 847.633 3.29221 -1.90772 0
M  V30 9232 H 847.145 2.08323 -3.27449 0
M  V30 9233 H 845.246 3.50622 -1.26077 0
M  V30 9234 H 845.359 3.61707 -3.14173 0
M  V30 9235 H 843.723 1.98498 -1.59595 0
M  V30 9236 H 844.506 1.36721 -3.14901 0
M  V30 9237 N 846.951 1.19563 1.02676 0
M  V30 9238 C 848.199 0.997593 1.75763 0
M  V30 9239 C 848.52 -0.47253 1.89188 0
M  V30 9240 O 847.79 -1.34214 1.42701 0
M  V30 9241 H 846.37 0.366128 0.651122 0
M  V30 9242 H 849.032 1.50495 1.23844 0
M  V30 9243 H 848.128 1.44741 2.76508 0
M  V30 9244 N 848.429 -1.21819 0.999893 0
M  V30 9245 C 849.706 -1.86318 0.595384 0
M  V30 9246 C 850.086 -1.8965 -0.927143 0
M  V30 9247 O 849.434 -1.3921 -1.81199 0
M  V30 9248 C 849.644 -3.26837 1.22387 0
M  V30 9249 C 850.992 -4.03272 1.32878 0
M  V30 9250 O 852.016 -3.36129 1.1788 0
M  V30 9251 O 850.875 -5.23477 1.56952 0
M  V30 9252 H 847.969 -0.801638 0.203238 0
M  V30 9253 H 850.515 -1.29542 1.09622 0
M  V30 9254 H 849.287 -3.19084 2.26497 0
M  V30 9255 H 848.91 -3.91226 0.709069 0
M  V30 9256 N 849.908 -0.773975 -1.37286 0
M  V30 9257 C 850.838 -0.175782 -2.32837 0
M  V30 9258 C 851.819 0.680603 -1.5589 0
M  V30 9259 O 853.004 0.617607 -1.84117 0
M  V30 9260 C 850.134 0.702388 -3.40123 0
M  V30 9261 C 849.088 -0.0528687 -4.27967 0
M  V30 9262 C 848.414 0.944891 -5.26285 0
M  V30 9263 C 849.714 -1.23316 -5.07534 0
M  V30 9264 H 851.408 -0.974016 -2.83114 0
M  V30 9265 H 848.954 -0.469826 -1.3612 0
M  V30 9266 H 850.907 1.13069 -4.05947 0
M  V30 9267 H 849.631 1.53316 -2.88378 0
M  V30 9268 H 848.29 -0.461978 -3.63678 0
M  V30 9269 H 847.938 1.77028 -4.70819 0
M  V30 9270 H 847.638 0.444079 -5.8592 0
M  V30 9271 H 849.162 1.37209 -5.94984 0
M  V30 9272 H 850.576 -0.881395 -5.66484 0
M  V30 9273 H 848.973 -1.66621 -5.76504 0
M  V30 9274 H 850.043 -2.03617 -4.40077 0
M  V30 9275 N 851.386 1.48609 -0.524698 0
M  V30 9276 C 852.635 2.01696 0.0132937 0
M  V30 9277 C 852.948 1.40751 1.35825 0
M  V30 9278 O 854.154 1.85304 1.9843 0
M  V30 9279 C 852.61 3.59824 0.0741012 0
M  V30 9280 C 852.218 4.2975 -1.26564 0
M  V30 9281 C 853.962 4.20774 0.5612 0
M  V30 9282 C 851.869 5.79798 -1.16571 0
M  V30 9283 H 850.799 0.753949 0.00873931 0
M  V30 9284 H 853.45 1.70922 -0.667684 0
M  V30 9285 H 851.832 3.87416 0.820043 0
M  V30 9286 H 853.006 4.13836 -2.02674 0
M  V30 9287 H 851.321 3.80649 -1.68806 0
M  V30 9288 H 853.918 5.30687 0.653853 0
M  V30 9289 H 854.261 3.85734 1.56573 0
M  V30 9290 H 854.794 3.97591 -0.128901 0
M  V30 9291 H 851.533 6.19403 -2.14523 0
M  V30 9292 H 851.053 5.9814 -0.445894 0
M  V30 9293 H 852.732 6.41337 -0.854186 0
M  V30 9294 N 852.864 0.259585 1.55447 0
M  V30 9295 C 854.094 -0.364863 2.03353 0
M  V30 9296 C 854.502 -1.5116 1.13786 0
M  V30 9297 O 853.845 -1.83109 0.147283 0
M  V30 9298 C 853.907 -0.922587 3.4746 0
M  V30 9299 C 853.571 0.0935207 4.56904 0
M  V30 9300 C 854.568 0.907571 5.11917 0
M  V30 9301 C 852.253 0.223276 5.01804 0
M  V30 9302 C 854.247 1.83771 6.10333 0
M  V30 9303 C 851.934 1.15691 6.00049 0
M  V30 9304 C 852.932 1.96264 6.54194 0
M  V30 9305 O 852.62 2.88052 7.50521 0
M  V30 9306 H 852.352 -0.0893313 0.670072 0
M  V30 9307 H 854.906 0.384821 2.01763 0
M  V30 9308 H 853.136 -1.72206 3.4624 0
M  V30 9309 H 854.825 -1.45846 3.78792 0
M  V30 9310 H 855.591 0.817979 4.78052 0
M  V30 9311 H 851.47 -0.393834 4.59315 0
M  V30 9312 H 855.014 2.46703 6.52521 0
M  V30 9313 H 850.911 1.24738 6.33333 0
M  V30 9314 H 851.679 2.82557 7.68182 0
M  V30 9315 N 854.342 -1.57594 -0.0133615 0
M  V30 9316 C 855.292 -2.04048 -1.01726 0
M  V30 9317 C 856.276 -0.932682 -1.3111 0
M  V30 9318 O 857.468 -1.19652 -1.30432 0
M  V30 9319 C 854.597 -2.53637 -2.31351 0
M  V30 9320 C 853.683 -3.71269 -2.04989 0
M  V30 9321 N 854.074 -4.83436 -1.48739 0
M  V30 9322 C 852.372 -3.78943 -2.35198 0
M  V30 9323 C 853.073 -5.64961 -1.38542 0
M  V30 9324 N 852.049 -5.10554 -1.86643 0
M  V30 9325 H 855.851 -2.88188 -0.576623 0
M  V30 9326 H 853.365 -1.60912 -0.219344 0
M  V30 9327 H 855.362 -2.85186 -3.04096 0
M  V30 9328 H 854.022 -1.7091 -2.76079 0
M  V30 9329 H 855.033 -5.04558 -1.16798 0
M  V30 9330 H 851.71 -3.07047 -2.82893 0
M  V30 9331 H 853.1 -6.65092 -0.954075 0
M  V30 9332 N 855.82 0.285905 -1.54985 0
M  V30 9333 C 856.783 1.33625 -1.86218 0
M  V30 9334 C 857.783 1.42971 -0.735936 0
M  V30 9335 O 858.973 1.42345 -1.00417 0
M  V30 9336 C 856.105 2.71926 -2.05595 0
M  V30 9337 H 857.298 1.07167 -2.80099 0
M  V30 9338 H 854.851 0.523335 -1.47278 0
M  V30 9339 H 855.586 3.03583 -1.14053 0
M  V30 9340 H 855.371 2.6653 -2.87583 0
M  V30 9341 H 856.861 3.47841 -2.31077 0
M  V30 9342 N 857.298 1.47698 0.54982 0
M  V30 9343 C 858.546 1.54397 1.30407 0
M  V30 9344 C 858.867 0.211026 1.93855 0
M  V30 9345 O 858.137 -0.765701 1.80316 0
M  V30 9346 H 856.717 0.568747 0.484289 0
M  V30 9347 H 859.379 1.84042 0.641444 0
M  V30 9348 H 858.475 2.31449 2.09375 0
M  V30 9349 N 858.776 -0.797141 1.35954 0
M  V30 9350 C 859.686 -1.94088 1.31784 0
M  V30 9351 C 860.702 -1.72588 0.221227 0
M  V30 9352 O 861.878 -1.96256 0.452255 0
M  V30 9353 C 858.943 -3.28828 1.09878 0
M  V30 9354 C 858.004 -3.63158 2.28942 0
M  V30 9355 C 857.237 -4.91469 2.08072 0
M  V30 9356 O 857.46 -5.60616 1.05196 0
M  V30 9357 O 856.394 -5.24277 2.95664 0
M  V30 9358 H 860.22 -2.00554 2.28061 0
M  V30 9359 H 857.805 -0.936288 1.16422 0
M  V30 9360 H 859.687 -4.09473 0.995485 0
M  V30 9361 H 858.362 -3.23271 0.16659 0
M  V30 9362 H 857.269 -2.82851 2.44839 0
M  V30 9363 H 858.602 -3.7343 3.20641 0
M  V30 9364 N 860.254 -1.20106 -1.0204 0
M  V30 9365 C 861.479 -1.0351 -1.79723 0
M  V30 9366 C 861.904 0.411328 -1.83548 0
M  V30 9367 O 861.262 1.29608 -1.26773 0
M  V30 9368 C 861.31 -1.61876 -3.22224 0
M  V30 9369 O 860.414 -0.853813 -4.03465 0
M  V30 9370 H 859.755 -0.365299 -0.554484 0
M  V30 9371 H 862.285 -1.59316 -1.28373 0
M  V30 9372 H 862.295 -1.65451 -3.72948 0
M  V30 9373 H 860.97 -2.67148 -3.18755 0
M  V30 9374 H 859.547 -0.891983 -3.62075 0
M  V30 9375 N 861.732 1.21287 -1.00634 0
M  V30 9376 C 862.978 1.90671 -0.690822 0
M  V30 9377 C 863.311 1.77996 0.776592 0
M  V30 9378 O 862.586 1.15748 1.5631 0
M  V30 9379 C 862.869 3.42426 -1.11428 0
M  V30 9380 C 862.722 3.64086 -2.64124 0
M  V30 9381 C 864.041 4.34851 -0.677686 0
M  V30 9382 H 861.16 0.692419 -0.252439 0
M  V30 9383 H 863.802 1.42893 -1.25226 0
M  V30 9384 H 861.952 3.83249 -0.636586 0
M  V30 9385 H 863.624 3.32582 -3.19667 0
M  V30 9386 H 861.867 3.07906 -3.05576 0
M  V30 9387 H 862.538 4.7042 -2.88806 0
M  V30 9388 H 865.014 4.01619 -1.0882 0
M  V30 9389 H 863.89 5.39675 -1.00213 0
M  V30 9390 H 864.151 4.4009 0.421125 0
M  V30 9391 N 863.21 0.781244 1.36873 0
M  V30 9392 C 864.487 0.274217 1.93668 0
M  V30 9393 C 864.867 -1.2323 1.71399 0
M  V30 9394 O 864.215 -2.01993 1.06822 0
M  V30 9395 C 864.425 0.657939 3.42742 0
M  V30 9396 C 865.773 0.63307 4.19854 0
M  V30 9397 O 866.797 0.597909 3.51146 0
M  V30 9398 O 865.656 0.668636 5.42394 0
M  V30 9399 H 862.75 0.0658059 0.824378 0
M  V30 9400 H 865.296 0.863238 1.46104 0
M  V30 9401 H 864.068 1.69728 3.52573 0
M  V30 9402 H 863.691 0.0423678 3.97577 0
M  V30 9403 N 864.689 -1.48329 0.532571 0
M  V30 9404 C 865.652 -2.2816 -0.218069 0
M  V30 9405 C 866.652 -1.35526 -0.865409 0
M  V30 9406 O 867.842 -1.58394 -0.725061 0
M  V30 9407 C 864.974 -3.1448 -1.31586 0
M  V30 9408 H 866.167 -2.95987 0.482865 0
M  V30 9409 H 863.72 -1.53612 0.288603 0
M  V30 9410 H 864.455 -2.5129 -2.04997 0
M  V30 9411 H 864.24 -3.82625 -0.856779 0
M  V30 9412 H 865.73 -3.74693 -1.84377 0
M  V30 9413 N 866.167 -0.267825 -1.55308 0
M  V30 9414 C 867.097 0.616585 -2.25212 0
M  V30 9415 C 868.078 1.16472 -1.23969 0
M  V30 9416 O 869.263 1.20021 -1.52672 0
M  V30 9417 C 866.393 1.80412 -2.96764 0
M  V30 9418 C 865.347 1.38784 -4.04874 0
M  V30 9419 C 864.673 2.65789 -4.63961 0
M  V30 9420 C 865.973 0.543415 -5.19465 0
M  V30 9421 H 867.667 0.0336257 -2.99381 0
M  V30 9422 H 865.213 0.0147328 -1.43992 0
M  V30 9423 H 867.166 2.42866 -3.44375 0
M  V30 9424 H 865.89 2.4128 -2.20118 0
M  V30 9425 H 864.549 0.786541 -3.58063 0
M  V30 9426 H 864.197 3.24899 -3.83992 0
M  V30 9427 H 863.897 2.38651 -5.36954 0
M  V30 9428 H 865.421 3.29104 -5.14318 0
M  V30 9429 H 866.835 1.07277 -5.63174 0
M  V30 9430 H 865.232 0.367219 -5.98975 0
M  V30 9431 H 866.302 -0.439534 -4.82904 0
M  V30 9432 N 867.645 1.57599 0.00500368 0
M  V30 9433 C 868.885 1.92205 0.695456 0
M  V30 9434 C 869.249 0.868894 1.71214 0
M  V30 9435 O 870.45 1.10004 2.4526 0
M  V30 9436 C 868.721 3.31882 1.32625 0
M  V30 9437 S 870.28 3.88364 2.04252 0
M  V30 9438 H 867.098 0.672826 0.22984 0
M  V30 9439 H 869.7 1.95435 -0.0504824 0
M  V30 9440 H 868.404 4.06375 0.573396 0
M  V30 9441 H 867.935 3.32013 2.11023 0
M  V30 9442 H 869.95 3.69035 3.31704 0
M  V30 9443 N 869.123 -0.277682 1.55134 0
M  V30 9444 C 870.37 -1.0099 1.7552 0
M  V30 9445 C 870.698 -1.86452 0.553712 0
M  V30 9446 O 869.953 -1.90122 -0.463896 0
M  V30 9447 C 870.252 -1.92599 3.01065 0
M  V30 9448 C 869.918 -1.22926 4.3382 0
M  V30 9449 C 868.58 -1.03659 4.69902 0
M  V30 9450 C 870.932 -0.733071 5.16019 0
M  V30 9451 C 868.26 -0.334933 5.85743 0
M  V30 9452 C 870.612 -0.0450319 6.32584 0
M  V30 9453 C 869.276 0.159393 6.6731 0
M  V30 9454 H 868.546 -0.36955 0.642273 0
M  V30 9455 H 871.193 -0.282611 1.89403 0
M  V30 9456 H 869.498 -2.71934 2.82062 0
M  V30 9457 H 871.195 -2.49367 3.14034 0
M  V30 9458 H 867.785 -1.38933 4.05457 0
M  V30 9459 H 871.969 -0.869565 4.88623 0
M  V30 9460 H 867.225 -0.165783 6.11175 0
M  V30 9461 H 871.399 0.34723 6.95534 0
M  V30 9462 H 869.026 0.70507 7.56923 0
M  V30 9463 N 870.601 -1.47988 -0.541979 0
M  V30 9464 C 871.847 -1.55623 -1.30036 0
M  V30 9465 C 872.18 -0.224254 -1.92901 0
M  V30 9466 O 871.455 0.768629 -1.78668 0
M  V30 9467 C 871.738 -2.68562 -2.39888 0
M  V30 9468 C 871.591 -4.11426 -1.81792 0
M  V30 9469 C 872.91 -2.77325 -3.41729 0
M  V30 9470 H 870.029 -0.566498 -0.471433 0
M  V30 9471 H 872.671 -1.8011 -0.604998 0
M  V30 9472 H 870.821 -2.47814 -2.992 0
M  V30 9473 H 872.493 -4.43581 -1.26624 0
M  V30 9474 H 870.736 -4.18989 -1.12386 0
M  V30 9475 H 871.407 -4.8625 -2.61276 0
M  V30 9476 H 873.883 -2.96085 -2.92357 0
M  V30 9477 H 872.759 -3.58097 -4.16002 0
M  V30 9478 H 873.02 -1.84995 -4.01534 0
M  V30 9479 N 872.079 0.78992 -1.36375 0
M  V30 9480 C 873.325 1.55007 -1.3077 0
M  V30 9481 C 873.658 1.93871 0.112979 0
M  V30 9482 O 872.933 1.6267 1.06625 0
M  V30 9483 C 873.216 2.82748 -2.22993 0
M  V30 9484 C 873.069 2.50253 -3.73756 0
M  V30 9485 C 874.388 3.84569 -2.13998 0
M  V30 9486 H 871.507 0.562362 -0.476359 0
M  V30 9487 H 874.149 0.907582 -1.66922 0
M  V30 9488 H 872.299 3.37573 -1.92292 0
M  V30 9489 H 873.971 2.01482 -4.14973 0
M  V30 9490 H 872.214 1.83203 -3.93216 0
M  V30 9491 H 872.885 3.41487 -4.33694 0
M  V30 9492 H 875.361 3.39188 -2.4102 0
M  V30 9493 H 874.237 4.717 -2.80697 0
M  V30 9494 H 874.498 4.27491 -1.12711 0
M  V30 9495 N 873.557 1.20646 1.01402 0
M  V30 9496 C 874.782 1.04462 1.79172 0
M  V30 9497 C 875.207 -0.401588 1.83763 0
M  V30 9498 O 874.565 -1.28934 1.27459 0
M  V30 9499 C 874.613 1.63583 3.21361 0
M  V30 9500 O 873.717 0.875198 4.03006 0
M  V30 9501 H 873.058 0.368235 0.552539 0
M  V30 9502 H 875.588 1.59994 1.27526 0
M  V30 9503 H 875.598 1.67426 3.72065 0
M  V30 9504 H 874.273 2.68835 3.17334 0
M  V30 9505 H 872.85 0.911172 3.61597 0
M  V30 9506 N 875.035 -1.20752 1.01276 0
M  V30 9507 C 876.283 -1.89645 0.698505 0
M  V30 9508 C 876.604 -1.78986 -0.773883 0
M  V30 9509 O 875.874 -1.18977 -1.55632 0
M  V30 9510 H 874.454 -0.701992 0.255375 0
M  V30 9511 H 877.116 -1.46668 1.28353 0
M  V30 9512 H 876.212 -2.96364 0.978512 0
M  V30 9513 N 876.513 -0.788492 -1.36457 0
M  V30 9514 C 877.738 -0.371224 -2.04051 0
M  V30 9515 C 878.163 1.004 -1.59064 0
M  V30 9516 O 877.521 1.64663 -0.758679 0
M  V30 9517 C 877.569 -0.442275 -3.57877 0
M  V30 9518 O 876.673 0.55113 -4.08701 0
M  V30 9519 H 876.014 -0.157808 -0.644975 0
M  V30 9520 H 878.544 -1.06935 -1.74431 0
M  V30 9521 H 878.554 -0.305548 -4.06854 0
M  V30 9522 H 877.229 -1.44547 -3.89973 0
M  V30 9523 H 875.806 0.37614 -3.70998 0
M  V30 9524 N 877.991 1.48044 -0.54043 0
M  V30 9525 C 878.921 2.32597 0.205178 0
M  V30 9526 C 879.902 1.42748 0.925041 0
M  V30 9527 O 881.087 1.71624 0.908784 0
M  V30 9528 C 878.217 3.24175 1.24612 0
M  V30 9529 C 877.171 4.23131 0.64376 0
M  V30 9530 C 876.497 5.03915 1.78812 0
M  V30 9531 C 877.797 5.20831 -0.39144 0
M  V30 9532 H 879.491 2.95184 -0.500676 0
M  V30 9533 H 877.037 1.41948 -0.242225 0
M  V30 9534 H 878.99 3.82158 1.77576 0
M  V30 9535 H 877.714 2.59608 1.98169 0
M  V30 9536 H 876.373 3.66349 0.135554 0
M  V30 9537 H 876.021 4.35765 2.51232 0
M  V30 9538 H 875.721 5.709 1.39094 0
M  V30 9539 H 877.245 5.64753 2.32134 0
M  V30 9540 H 878.659 5.73277 0.0515064 0
M  V30 9541 H 877.056 5.95926 -0.706569 0
M  V30 9542 H 878.126 4.6733 -1.29345 0
M  V30 9543 N 879.47 0.276058 1.55163 0
M  V30 9544 C 880.38 -0.621066 2.2623 0
M  V30 9545 C 881.396 -1.16931 1.28853 0
M  V30 9546 O 882.572 -1.1994 1.61791 0
M  V30 9547 C 879.637 -1.78824 2.97023 0
M  V30 9548 C 878.698 -1.27657 4.09881 0
M  V30 9549 C 877.931 -2.38812 4.77289 0
M  V30 9550 O 878.154 -3.58188 4.43912 0
M  V30 9551 O 877.088 -2.06915 5.65217 0
M  V30 9552 H 880.914 -0.0453346 3.03666 0
M  V30 9553 H 878.499 0.0434275 1.49337 0
M  V30 9554 H 880.381 -2.46877 3.41511 0
M  V30 9555 H 879.056 -2.35104 2.22503 0
M  V30 9556 H 877.963 -0.56248 3.69847 0
M  V30 9557 H 879.296 -0.759509 4.86305 0
M  V30 9558 N 880.948 -1.576 0.00335426 0
M  V30 9559 C 882.194 -1.90996 -0.681799 0
M  V30 9560 C 882.527 -0.877643 -1.73237 0
M  V30 9561 O 881.802 0.103183 -1.94226 0
M  V30 9562 C 882.085 -3.34961 -1.32187 0
M  V30 9563 C 881.938 -4.48911 -0.28261 0
M  V30 9564 C 883.257 -3.78408 -2.24711 0
M  V30 9565 H 880.376 -0.694596 -0.246386 0
M  V30 9566 H 883.018 -1.89919 0.055336 0
M  V30 9567 H 881.168 -3.36008 -1.95014 0
M  V30 9568 H 882.84 -4.59999 0.346241 0
M  V30 9569 H 881.083 -4.32 0.394768 0
M  V30 9570 H 881.754 -5.46609 -0.769576 0
M  V30 9571 H 884.23 -3.78934 -1.71897 0
M  V30 9572 H 883.106 -4.79885 -2.66461 0
M  V30 9573 H 883.367 -3.12464 -3.1276 0
M  V30 9574 N 882.426 0.269451 -1.5528 0
M  V30 9575 C 883.675 0.998381 -1.75258 0
M  V30 9576 C 883.988 1.87321 -0.563034 0
M  V30 9577 O 885.194 2.63719 -0.645313 0
M  V30 9578 C 883.65 1.82505 -3.10193 0
M  V30 9579 C 883.258 0.99871 -4.36726 0
M  V30 9580 C 885.002 2.54807 -3.3952 0
M  V30 9581 C 882.909 1.81997 -5.627 0
M  V30 9582 H 881.839 0.376488 -0.653278 0
M  V30 9583 H 884.49 0.253909 -1.81735 0
M  V30 9584 H 882.872 2.61061 -2.97763 0
M  V30 9585 H 884.046 0.257064 -4.60082 0
M  V30 9586 H 882.361 0.390074 -4.14569 0
M  V30 9587 H 884.958 3.16662 -4.30847 0
M  V30 9588 H 885.301 3.25273 -2.59813 0
M  V30 9589 H 885.834 1.83278 -3.53064 0
M  V30 9590 H 882.573 1.15945 -6.45164 0
M  V30 9591 H 882.093 2.53749 -5.43481 0
M  V30 9592 H 883.772 2.39274 -6.0113 0
M  V30 9593 N 883.904 1.48273 0.534124 0
M  V30 9594 C 884.836 1.5857 1.65494 0
M  V30 9595 C 885.849 0.470266 1.5586 0
M  V30 9596 O 887.038 0.740928 1.62396 0
M  V30 9597 C 884.138 1.49554 3.04117 0
M  V30 9598 C 883.311 2.76066 3.39273 0
M  V30 9599 C 882.37 2.60562 4.57159 0
M  V30 9600 O 881.396 3.34438 4.60587 0
M  V30 9601 N 882.598 1.69906 5.55079 0
M  V30 9602 H 885.363 2.55226 1.57099 0
M  V30 9603 H 882.924 1.44944 0.721303 0
M  V30 9604 H 884.916 1.36882 3.80848 0
M  V30 9605 H 883.486 0.608895 3.06613 0
M  V30 9606 H 882.706 3.03332 2.51761 0
M  V30 9607 H 883.994 3.60006 3.59546 0
M  V30 9608 H 883.392 1.09079 5.55084 0
M  V30 9609 H 881.949 1.63175 6.31044 0
M  V30 9610 N 885.382 -0.782676 1.36792 0
M  V30 9611 C 886.659 -1.52939 1.21939 0
M  V30 9612 C 887.039 -2.10228 -0.191639 0
M  V30 9613 O 886.387 -1.94574 -1.19805 0
M  V30 9614 C 886.597 -2.61898 2.30674 0
M  V30 9615 C 887.945 -3.29598 2.67676 0
M  V30 9616 O 888.969 -2.72186 2.29768 0
M  V30 9617 O 887.828 -4.3337 3.32946 0
M  V30 9618 H 884.922 -0.676856 0.47518 0
M  V30 9619 H 887.468 -0.82058 1.48542 0
M  V30 9620 H 886.24 -2.17607 3.25212 0
M  V30 9621 H 885.863 -3.40391 2.05475 0
M  V30 9622 N 886.86 -1.21182 -1.00761 0
M  V30 9623 C 888.137 -0.936297 -1.71735 0
M  V30 9624 C 888.517 0.552585 -2.03739 0
M  V30 9625 O 887.865 1.51672 -1.70903 0
M  V30 9626 C 888.075 -1.81867 -2.97868 0
M  V30 9627 C 889.423 -2.06594 -3.7095 0
M  V30 9628 O 890.447 -1.79194 -3.07844 0
M  V30 9629 O 889.306 -2.5292 -4.84452 0
M  V30 9630 H 886.4 -0.350867 -0.74888 0
M  V30 9631 H 888.946 -1.32098 -1.06527 0
M  V30 9632 H 887.718 -2.82643 -2.70607 0
M  V30 9633 H 887.341 -1.43463 -3.70815 0
M  V30 9634 N 888.338 1.20213 -1.01915 0
M  V30 9635 C 889.248 2.26763 -0.601311 0
M  V30 9636 C 890.264 1.70185 0.362369 0
M  V30 9637 O 891.44 2.00165 0.222682 0
M  V30 9638 C 888.505 3.46662 0.0512879 0
M  V30 9639 C 887.566 4.18459 -0.958659 0
M  V30 9640 C 886.799 5.32634 -0.337107 0
M  V30 9641 O 887.022 5.63841 0.86251 0
M  V30 9642 O 885.956 5.9258 -1.05511 0
M  V30 9643 H 889.782 2.64725 -1.48844 0
M  V30 9644 H 887.367 1.2688 -0.788784 0
M  V30 9645 H 889.249 4.19345 0.41564 0
M  V30 9646 H 887.924 3.1057 0.912572 0
M  V30 9647 H 886.831 3.47937 -1.37442 0
M  V30 9648 H 888.164 4.58498 -1.78999 0
M  V30 9649 N 889.816 0.795718 1.36037 0
M  V30 9650 C 891.062 0.371574 1.99367 0
M  V30 9651 C 891.395 -1.0557 1.62999 0
M  V30 9652 O 890.67 -1.73051 0.887895 0
M  V30 9653 C 890.953 0.542622 3.55988 0
M  V30 9654 C 890.806 2.01404 4.0219 0
M  V30 9655 C 892.125 -0.0384527 4.40083 0
M  V30 9656 H 889.244 0.136483 0.724252 0
M  V30 9657 H 891.886 1.00323 1.61355 0
M  V30 9658 H 890.036 0.0049053 3.885 0
M  V30 9659 H 891.708 2.6133 3.80137 0
M  V30 9660 H 889.951 2.51439 3.53498 0
M  V30 9661 H 890.622 2.08466 5.11122 0
M  V30 9662 H 893.098 0.420634 4.13968 0
M  V30 9663 H 891.974 0.111214 5.48787 0
M  V30 9664 H 892.235 -1.13116 4.27384 0
M  V30 9665 N 891.294 -1.47756 0.548274 0
M  V30 9666 C 892.54 -2.02789 0.0209265 0
M  V30 9667 C 892.873 -1.42268 -1.32187 0
M  V30 9668 O 892.148 -0.575001 -1.85806 0
M  V30 9669 C 892.431 -3.60007 -0.0816674 0
M  V30 9670 C 892.284 -4.30977 1.28759 0
M  V30 9671 C 893.603 -4.32777 -0.799515 0
M  V30 9672 H 890.722 -0.736944 0.00907884 0
M  V30 9673 H 893.364 -1.76282 0.708839 0
M  V30 9674 H 891.514 -3.82722 -0.667537 0
M  V30 9675 H 893.186 -4.19629 1.91597 0
M  V30 9676 H 891.429 -3.9168 1.86466 0
M  V30 9677 H 892.1 -5.39488 1.16861 0
M  V30 9678 H 894.576 -4.15001 -0.30216 0
M  V30 9679 H 893.452 -5.42431 -0.840239 0
M  V30 9680 H 893.713 -4.01358 -1.85375 0
M  V30 9681 N 892.772 -0.284283 -1.55015 0
M  V30 9682 C 893.735 0.586182 -2.21577 0
M  V30 9683 C 894.735 1.07427 -1.1965 0
M  V30 9684 O 895.925 0.972977 -1.44495 0
M  V30 9685 C 893.057 1.80973 -2.88897 0
M  V30 9686 H 894.25 0.00487253 -2.999 0
M  V30 9687 H 891.803 -0.0349696 -1.56261 0
M  V30 9688 H 892.538 2.43131 -2.14611 0
M  V30 9689 H 892.323 1.46757 -3.636 0
M  V30 9690 H 893.813 2.42853 -3.39724 0
M  V30 9691 N 894.251 1.57596 -0.0117121 0
M  V30 9692 C 895.5 1.9025 0.669921 0
M  V30 9693 C 895.813 0.887986 1.74282 0
M  V30 9694 O 897.019 1.10516 2.47989 0
M  V30 9695 C 895.475 3.37762 1.24277 0
M  V30 9696 C 895.083 4.47535 0.204076 0
M  V30 9697 C 896.827 3.79509 1.90192 0
M  V30 9698 C 894.734 5.86132 0.787577 0
M  V30 9699 H 893.664 0.709935 0.253984 0
M  V30 9700 H 896.315 1.8335 -0.0741718 0
M  V30 9701 H 894.697 3.39537 2.03791 0
M  V30 9702 H 895.871 4.57294 -0.56733 0
M  V30 9703 H 894.186 4.14881 -0.355305 0
M  V30 9704 H 896.783 4.80402 2.34773 0
M  V30 9705 H 897.126 3.13643 2.7374 0
M  V30 9706 H 897.659 3.80084 1.17394 0
M  V30 9707 H 894.398 6.55499 -0.00938418 0
M  V30 9708 H 893.918 5.80014 1.52787 0
M  V30 9709 H 895.597 6.34158 1.28265 0
M  V30 9710 N 895.729 -0.261212 1.5542 0
M  V30 9711 C 896.659 -1.32712 1.92119 0
M  V30 9712 C 897.64 -1.50934 0.784406 0
M  V30 9713 O 898.825 -1.63781 1.04352 0
M  V30 9714 C 895.955 -2.68453 2.20341 0
M  V30 9715 C 894.909 -2.64947 3.36136 0
M  V30 9716 C 894.235 -4.04349 3.49865 0
M  V30 9717 C 895.535 -2.23182 4.72215 0
M  V30 9718 H 897.229 -1.02245 2.81401 0
M  V30 9719 H 894.775 -0.490406 1.35392 0
M  V30 9720 H 896.728 -3.43144 2.44603 0
M  V30 9721 H 895.452 -3.00527 1.27871 0
M  V30 9722 H 894.111 -1.92714 3.11861 0
M  V30 9723 H 893.759 -4.33665 2.5484 0
M  V30 9724 H 893.459 -4.02895 4.27726 0
M  V30 9725 H 894.983 -4.80761 3.76432 0
M  V30 9726 H 896.397 -2.87599 4.95943 0
M  V30 9727 H 894.794 -2.32867 5.53076 0
M  V30 9728 H 895.864 -1.18327 4.70241 0
M  V30 9729 N 897.207 -1.48554 -0.526253 0
M  V30 9730 C 898.455 -1.56452 -1.27935 0
M  V30 9731 C 898.776 -0.24184 -1.93495 0
M  V30 9732 O 898.046 0.736917 -1.81511 0
M  V30 9733 H 896.626 -0.576379 -0.47518 0
M  V30 9734 H 899.288 -1.85039 -0.612083 0
M  V30 9735 H 898.384 -2.34751 -2.05666 0
M  V30 9736 N 898.685 0.775411 -1.37205 0
M  V30 9737 C 899.632 1.88857 -1.32671 0
M  V30 9738 C 900.602 1.64976 -0.192899 0
M  V30 9739 O 901.787 1.86944 -0.381673 0
M  V30 9740 C 898.927 3.25871 -1.13588 0
M  V30 9741 C 898.04 3.61731 -2.36167 0
M  V30 9742 C 897.175 4.87934 -2.09985 0
M  V30 9743 C 896.214 5.16514 -3.2845 0
M  V30 9744 N 895.351 6.33905 -3.01842 0
M  V30 9745 H 900.191 1.92068 -2.27846 0
M  V30 9746 H 897.728 0.939066 -1.13225 0
M  V30 9747 H 899.686 4.04903 -1.00546 0
M  V30 9748 H 898.316 3.22045 -0.220613 0
M  V30 9749 H 897.368 2.77712 -2.59962 0
M  V30 9750 H 898.68 3.78792 -3.24528 0
M  V30 9751 H 897.834 5.74863 -1.93953 0
M  V30 9752 H 896.573 4.7297 -1.18956 0
M  V30 9753 H 895.578 4.28063 -3.45025 0
M  V30 9754 H 896.803 5.33389 -4.20325 0
M  V30 9755 H 894.749 6.20306 -2.13439 0
M  V30 9756 H 894.666 6.51364 -3.83746 0
M  V30 9757 H 895.934 7.23779 -2.8942 0
M  V30 9758 N 900.163 1.21714 1.00117 0
M  V30 9759 C 901.411 1.03465 1.73607 0
M  V30 9760 C 901.732 -0.432295 1.90148 0
M  V30 9761 O 901.002 -1.31157 1.45515 0
M  V30 9762 H 899.582 0.379857 0.643209 0
M  V30 9763 H 902.244 1.53088 1.20624 0
M  V30 9764 H 901.34 1.50574 2.73375 0
M  V30 9765 N 901.641 -1.19671 1.02551 0
M  V30 9766 C 902.918 -1.85014 0.634771 0
M  V30 9767 C 903.298 -1.91574 -0.886706 0
M  V30 9768 O 902.646 -1.43022 -1.78205 0
M  V30 9769 C 902.856 -3.24167 1.29292 0
M  V30 9770 C 904.204 -4.00363 1.41402 0
M  V30 9771 O 905.228 -3.33553 1.24983 0
M  V30 9772 O 904.087 -5.2003 1.6802 0
M  V30 9773 H 901.181 -0.797147 0.220196 0
M  V30 9774 H 903.727 -1.27188 1.12345 0
M  V30 9775 H 902.499 -3.14208 2.33215 0
M  V30 9776 H 902.122 -3.89634 0.791895 0
M  V30 9777 N 903.119 -0.802921 -1.35613 0
M  V30 9778 C 904.365 -0.382141 -1.99167 0
M  V30 9779 C 904.698 1.04704 -1.63556 0
M  V30 9780 O 903.973 1.72578 -0.89706 0
M  V30 9781 C 904.256 -0.561493 -3.55695 0
M  V30 9782 C 904.109 -2.03534 -4.01116 0
M  V30 9783 C 905.428 0.0151135 -4.40097 0
M  V30 9784 H 902.547 -0.140322 -0.723518 0
M  V30 9785 H 905.189 -1.01177 -1.6082 0
M  V30 9786 H 903.339 -0.0255083 -3.88492 0
M  V30 9787 H 905.011 -2.63343 -3.78746 0
M  V30 9788 H 903.254 -2.5331 -3.52159 0
M  V30 9789 H 903.925 -2.11173 -5.1001 0
M  V30 9790 H 906.401 -0.442582 -4.1374 0
M  V30 9791 H 905.277 -0.140316 -5.48721 0
M  V30 9792 H 905.538 1.10848 -4.27978 0
M  V30 9793 N 904.597 1.47463 -0.556102 0
M  V30 9794 C 905.844 2.02475 -0.0316337 0
M  V30 9795 C 906.172 1.43057 1.31777 0
M  V30 9796 O 905.427 0.575376 1.87051 0
M  V30 9797 C 905.726 3.57224 0.112126 0
M  V30 9798 C 905.392 4.35557 -1.16624 0
M  V30 9799 C 904.054 4.56678 -1.51654 0
M  V30 9800 C 906.406 4.8074 -2.01342 0
M  V30 9801 C 903.734 5.20231 -2.7125 0
M  V30 9802 C 906.086 5.45613 -3.2014 0
M  V30 9803 C 904.75 5.64967 -3.55484 0
M  V30 9804 H 904.02 0.74091 -0.0115756 0
M  V30 9805 H 906.667 1.77148 -0.727392 0
M  V30 9806 H 904.972 3.81538 0.890842 0
M  V30 9807 H 906.669 3.97438 0.533261 0
M  V30 9808 H 903.259 4.19395 -0.883489 0
M  V30 9809 H 907.443 4.64201 -1.75587 0
M  V30 9810 H 902.699 5.3341 -2.98804 0
M  V30 9811 H 906.873 5.79587 -3.86073 0
M  V30 9812 H 904.5 6.13984 -4.4825 0
M  V30 9813 N 906.075 0.2925 1.54862 0
M  V30 9814 C 907.323 -0.318633 1.99572 0
M  V30 9815 C 907.644 -1.55062 1.1824 0
M  V30 9816 O 906.914 -1.93943 0.276226 0
M  V30 9817 H 905.494 -0.120722 0.737181 0
M  V30 9818 H 908.156 0.401862 1.90712 0
M  V30 9819 H 907.252 -0.596542 3.06346 0
M  V30 9820 N 907.553 -1.57587 0.0200696 0
M  V30 9821 C 908.83 -1.82696 -0.698677 0
M  V30 9822 C 909.21 -0.902082 -1.90855 0
M  V30 9823 O 908.558 0.0444834 -2.28457 0
M  V30 9824 C 908.768 -3.31691 -1.08546 0
M  V30 9825 C 910.116 -3.97938 -1.4809 0
M  V30 9826 O 911.14 -3.36133 -1.17869 0
M  V30 9827 O 909.999 -5.06851 -2.04364 0
M  V30 9828 H 907.093 -0.752997 -0.341942 0
M  V30 9829 H 909.639 -1.69635 0.04706 0
M  V30 9830 H 908.411 -3.90659 -0.223956 0
M  V30 9831 H 908.034 -3.49825 -1.88965 0
M  V30 9832 N 909.032 0.252966 -1.55557 0
M  V30 9833 C 910.281 0.979736 -1.76307 0
M  V30 9834 C 910.594 1.86714 -0.582871 0
M  V30 9835 O 911.8 2.6302 -0.673247 0
M  V30 9836 C 910.256 1.79205 -3.12112 0
M  V30 9837 C 909.864 0.952333 -4.37761 0
M  V30 9838 C 911.608 2.51191 -3.42203 0
M  V30 9839 C 909.515 1.76018 -5.64599 0
M  V30 9840 H 908.445 0.369538 -0.657235 0
M  V30 9841 H 911.096 0.234619 -1.81994 0
M  V30 9842 H 909.478 2.57888 -3.00515 0
M  V30 9843 H 910.652 0.208251 -4.60329 0
M  V30 9844 H 908.967 0.346082 -4.14959 0
M  V30 9845 H 911.564 3.12074 -4.34182 0
M  V30 9846 H 911.907 3.22499 -2.63249 0
M  V30 9847 H 912.44 1.79523 -3.54988 0
M  V30 9848 H 909.179 1.09095 -6.46358 0
M  V30 9849 H 908.699 2.4797 -5.46142 0
M  V30 9850 H 910.378 2.32884 -6.03634 0
M  V30 9851 N 910.51 1.48831 0.518367 0
M  V30 9852 C 911.757 1.57439 1.27355 0
M  V30 9853 C 912.085 0.25338 1.92843 0
M  V30 9854 O 911.34 -0.757323 1.80452 0
M  V30 9855 C 911.639 2.67003 2.3758 0
M  V30 9856 C 911.305 4.09069 1.89667 0
M  V30 9857 C 909.967 4.47733 1.76319 0
M  V30 9858 C 912.319 4.98052 1.53603 0
M  V30 9859 C 909.647 5.73173 1.25258 0
M  V30 9860 C 911.999 6.23992 1.04001 0
M  V30 9861 C 910.663 6.61503 0.892784 0
M  V30 9862 H 909.933 0.57611 0.466023 0
M  V30 9863 H 912.58 1.82595 0.577166 0
M  V30 9864 H 910.885 2.35751 3.12936 0
M  V30 9865 H 912.582 2.70876 2.95681 0
M  V30 9866 H 909.172 3.7854 2.01011 0
M  V30 9867 H 913.356 4.68849 1.62771 0
M  V30 9868 H 908.612 6.0095 1.12557 0
M  V30 9869 H 912.786 6.92331 0.751706 0
M  V30 9870 H 910.413 7.58587 0.494939 0
M  V30 9871 N 911.988 -0.768124 1.37614 0
M  V30 9872 C 913.234 -1.52823 1.34226 0
M  V30 9873 C 913.589 -1.92266 -0.0717482 0
M  V30 9874 O 912.882 -1.61484 -1.03119 0
M  V30 9875 C 913.076 -2.80204 2.21856 0
M  V30 9876 C 912.905 -2.53213 3.71636 0
M  V30 9877 C 911.675 -2.47159 4.40727 0
M  V30 9878 C 913.873 -2.20965 4.64413 0
M  V30 9879 N 911.855 -2.12289 5.76026 0
M  V30 9880 C 913.226 -1.96264 5.88116 0
M  V30 9881 C 915.281 -2.07151 4.52761 0
M  V30 9882 C 913.984 -1.59145 7.01474 0
M  V30 9883 C 916.01 -1.71432 5.66008 0
M  V30 9884 C 915.372 -1.47594 6.88764 0
M  V30 9885 H 911.471 -0.559388 0.546451 0
M  V30 9886 H 914.055 -0.895795 1.72869 0
M  V30 9887 H 912.226 -3.4128 1.85424 0
M  V30 9888 H 913.958 -3.46133 2.097 0
M  V30 9889 H 910.713 -2.63137 3.93772 0
M  V30 9890 H 911.137 -1.97541 6.47539 0
M  V30 9891 H 915.779 -2.24262 3.58422 0
M  V30 9892 H 913.497 -1.40773 7.95744 0
M  V30 9893 H 917.083 -1.61397 5.58965 0
M  V30 9894 H 915.963 -1.20365 7.74908 0
M  V30 9895 N 913.466 -1.22244 -0.994698 0
M  V30 9896 C 914.413 -0.990906 -2.08446 0
M  V30 9897 C 915.383 0.086737 -1.65873 0
M  V30 9898 O 916.568 -0.0624882 -1.90698 0
M  V30 9899 C 913.708 -0.572813 -3.40313 0
M  V30 9900 C 912.821 -1.72103 -3.96238 0
M  V30 9901 C 911.956 -1.2511 -5.16257 0
M  V30 9902 C 910.995 -2.37098 -5.64315 0
M  V30 9903 N 910.132 -1.91164 -6.75574 0
M  V30 9904 H 914.972 -1.92377 -2.27585 0
M  V30 9905 H 912.509 -0.958576 -1.11578 0
M  V30 9906 H 914.467 -0.311594 -4.16035 0
M  V30 9907 H 913.097 0.323044 -3.21179 0
M  V30 9908 H 912.149 -2.09662 -3.17405 0
M  V30 9909 H 913.461 -2.56347 -4.27888 0
M  V30 9910 H 912.615 -0.947152 -5.99261 0
M  V30 9911 H 911.354 -0.378836 -4.86226 0
M  V30 9912 H 910.359 -2.68283 -4.799 0
M  V30 9913 H 911.584 -3.24837 -5.96371 0
M  V30 9914 H 909.53 -1.06298 -6.47331 0
M  V30 9915 H 909.447 -2.68975 -7.06533 0
M  V30 9916 H 910.715 -1.63833 -7.62088 0
M  V30 9917 N 914.944 1.19125 -1.03184 0
M  V30 9918 C 915.854 2.26112 -0.625329 0
M  V30 9919 C 916.87 1.7056 0.344298 0
M  V30 9920 O 918.046 2.0039 0.20144 0
M  V30 9921 C 915.111 3.46697 0.0145169 0
M  V30 9922 C 914.172 4.17419 -1.00299 0
M  V30 9923 C 913.405 5.32247 -0.393581 0
M  V30 9924 O 913.628 5.64724 0.802659 0
M  V30 9925 O 912.562 5.91428 -1.1179 0
M  V30 9926 H 916.388 2.63131 -1.51643 0
M  V30 9927 H 913.973 1.26036 -0.802197 0
M  V30 9928 H 915.855 4.19762 0.371139 0
M  V30 9929 H 914.53 3.11521 0.879581 0
M  V30 9930 H 913.437 3.4646 -1.41125 0
M  V30 9931 H 914.77 4.56573 -1.83852 0
M  V30 9932 N 916.422 0.810101 1.35185 0
M  V30 9933 C 917.65 0.404696 2.02903 0
M  V30 9934 C 918.065 -0.985434 1.61042 0
M  V30 9935 O 917.422 -1.63557 0.809658 0
M  V30 9936 C 917.473 0.482493 3.58266 0
M  V30 9937 O 917.194 1.81782 3.98606 0
M  V30 9938 C 918.695 0.070345 4.43244 0
M  V30 9939 H 915.915 0.163972 0.650657 0
M  V30 9940 H 918.459 1.0947 1.72733 0
M  V30 9941 H 916.614 -0.159296 3.87072 0
M  V30 9942 H 917.028 1.78306 4.93262 0
M  V30 9943 H 918.502 0.175888 5.5172 0
M  V30 9944 H 918.979 -0.984724 4.28018 0
M  V30 9945 H 919.585 0.685427 4.1974 0
M  V30 9946 N 917.9 -1.47166 0.563914 0
M  V30 9947 C 919.128 -2.06846 0.0474287 0
M  V30 9948 C 919.543 -1.41557 -1.24928 0
M  V30 9949 O 918.9 -0.514376 -1.75101 0
M  V30 9950 C 918.951 -3.6121 -0.144831 0
M  V30 9951 O 918.672 -4.24052 1.10053 0
M  V30 9952 C 920.173 -4.37773 -0.69783 0
M  V30 9953 H 917.393 -0.669217 0.0488896 0
M  V30 9954 H 919.937 -1.89072 0.779235 0
M  V30 9955 H 918.092 -3.78474 -0.82679 0
M  V30 9956 H 918.506 -5.16677 0.902481 0
M  V30 9957 H 919.98 -5.46438 -0.781616 0
M  V30 9958 H 920.457 -4.04517 -1.71063 0
M  V30 9959 H 921.063 -4.25269 -0.0513516 0
M  V30 9960 N 919.378 -0.300708 -1.54705 0
M  V30 9961 C 920.308 0.568675 -2.26469 0
M  V30 9962 C 921.289 1.13817 -1.26411 0
M  V30 9963 O 922.474 1.16756 -1.55183 0
M  V30 9964 C 919.604 1.74077 -3.00524 0
M  V30 9965 C 918.558 1.30165 -4.07727 0
M  V30 9966 C 917.884 2.55888 -4.69495 0
M  V30 9967 C 919.184 0.433106 -5.20501 0
M  V30 9968 H 920.878 -0.0298851 -2.99385 0
M  V30 9969 H 918.424 -0.0158135 -1.43991 0
M  V30 9970 H 920.377 2.35506 -3.49449 0
M  V30 9971 H 919.101 2.36556 -2.25186 0
M  V30 9972 H 917.76 0.710414 -3.59651 0
M  V30 9973 H 917.408 3.16681 -3.90797 0
M  V30 9974 H 917.108 2.27207 -5.41895 0
M  V30 9975 H 918.632 3.18121 -5.21183 0
M  V30 9976 H 920.046 0.95307 -5.65322 0
M  V30 9977 H 918.443 0.240085 -5.9962 0
M  V30 9978 H 919.513 -0.541866 -4.81863 0
M  V30 9979 N 920.856 1.57574 -0.0284266 0
M  V30 9980 C 921.819 2.09096 0.938691 0
M  V30 9981 C 922.819 1.00588 1.25454 0
M  V30 9982 O 924.009 1.2675 1.19499 0
M  V30 9983 C 921.141 2.55624 2.25542 0
M  V30 9984 H 922.334 2.95829 0.49248 0
M  V30 9985 H 919.887 1.5475 0.219594 0
M  V30 9986 H 920.622 1.72218 2.74793 0
M  V30 9987 H 920.407 3.34896 2.03929 0
M  V30 9988 H 921.897 2.95712 2.94863 0
M  V30 9989 N 922.334 -0.244713 1.55689 0
M  V30 9990 C 923.284 -1.30596 1.86892 0
M  V30 9991 C 924.268 -1.43388 0.729972 0
M  V30 9992 O 925.46 -1.46593 0.99194 0
M  V30 9993 C 922.589 -2.66099 2.16902 0
M  V30 9994 C 921.675 -2.57302 3.37129 0
M  V30 9995 N 922.066 -2.18139 4.56343 0
M  V30 9996 C 920.364 -2.88311 3.40283 0
M  V30 9997 C 921.065 -2.20028 5.38482 0
M  V30 9998 N 920.041 -2.59616 4.77599 0
M  V30 9999 H 923.843 -0.993699 2.76591 0
M  V30 10000 H 921.357 -0.453334 1.55944 0
M  V30 10001 H 923.354 -3.4269 2.37422 0
M  V30 10002 H 922.014 -2.9819 1.28502 0
M  V30 10003 H 923.025 -1.89647 4.81928 0
M  V30 10004 H 919.702 -3.24928 2.62161 0
M  V30 10005 H 921.092 -1.9207 6.43862 0
M  V30 10006 N 923.813 -1.49104 -0.510467 0
M  V30 10007 C 924.776 -1.64569 -1.59529 0
M  V30 10008 C 925.776 -0.517937 -1.5223 0
M  V30 10009 O 926.966 -0.784183 -1.55551 0
M  V30 10010 C 924.098 -1.6342 -2.99177 0
M  V30 10011 H 925.291 -2.61318 -1.4715 0
M  V30 10012 H 922.844 -1.37993 -0.734001 0
M  V30 10013 H 923.579 -0.68221 -3.17043 0
M  V30 10014 H 923.364 -2.45312 -3.05883 0
M  V30 10015 H 924.854 -1.77474 -3.78011 0
M  V30 10016 N 925.291 0.760815 -1.38019 0
M  V30 10017 C 926.531 1.53264 -1.35239 0
M  V30 10018 C 926.895 1.91908 0.0595038 0
M  V30 10019 O 928.096 2.67962 0.212122 0
M  V30 10020 C 926.367 2.75643 -2.27499 0
M  V30 10021 S 927.926 3.6559 -2.42672 0
M  V30 10022 H 924.744 0.52457 -0.479945 0
M  V30 10023 H 927.346 0.893737 -1.73875 0
M  V30 10024 H 926.05 2.4535 -3.28986 0
M  V30 10025 H 925.581 3.44483 -1.89987 0
M  V30 10026 H 927.596 4.68124 -1.64542 0
M  V30 10027 N 926.769 1.22769 0.988202 0
M  V30 10028 C 927.732 1.00325 2.06076 0
M  V30 10029 C 928.732 -0.0320618 1.60768 0
M  V30 10030 O 929.922 0.206912 1.72967 0
M  V30 10031 C 927.054 0.516376 3.36966 0
M  V30 10032 H 928.247 1.95499 2.27421 0
M  V30 10033 H 925.8 1.04704 1.16047 0
M  V30 10034 H 926.535 -0.439498 3.21308 0
M  V30 10035 H 926.32 1.26337 3.71189 0
M  V30 10036 H 927.81 0.37974 4.1587 0
M  V30 10037 N 928.247 -1.18576 1.03814 0
M  V30 10038 C 929.195 -2.24166 0.620678 0
M  V30 10039 C 930.189 -1.65718 -0.351282 0
M  V30 10040 O 931.395 -1.78665 -0.218848 0
M  V30 10041 H 927.77 -0.729522 0.182487 0
M  V30 10042 H 929.741 -2.56686 1.52166 0
M  V30 10043 C 928.49 -3.477 -0.00307331 0
M  V30 10044 H 927.813 -3.92969 0.735874 0
M  V30 10045 H 929.253 -4.23214 -0.257988 0
M  V30 10046 C 927.712 -3.12757 -1.2524 0
M  V30 10047 O 928.242 -3.26261 -2.34344 0
M  V30 10048 N 926.448 -2.67104 -1.14471 0
M  V30 10049 H 925.995 -2.56316 -0.256873 0
M  V30 10050 H 925.953 -2.44096 -1.98153 0
M  V30 10051 N 929.725 -0.817259 -1.34754 0
M  V30 10052 C 930.971 -0.403244 -1.98751 0
M  V30 10053 C 931.304 1.02963 -1.64658 0
M  V30 10054 O 930.579 1.71617 -0.915314 0
M  V30 10055 C 930.862 -0.599188 -3.5508 0
M  V30 10056 C 930.715 -2.07777 -3.98934 0
M  V30 10057 C 932.034 -0.0315656 -4.40089 0
M  V30 10058 H 929.153 -0.147988 -0.721989 0
M  V30 10059 H 931.795 -1.02877 -1.59738 0
M  V30 10060 H 929.945 -0.0667116 -3.88443 0
M  V30 10061 H 931.617 -2.67345 -3.75931 0
M  V30 10062 H 929.86 -2.57031 -3.49453 0
M  V30 10063 H 930.531 -2.16571 -5.07741 0
M  V30 10064 H 933.007 -0.48644 -4.13247 0
M  V30 10065 H 931.883 -0.198507 -5.48541 0
M  V30 10066 H 932.144 1.06302 -4.2913 0
M  V30 10067 N 931.203 1.46865 -0.571711 0
M  V30 10068 C 932.619 1.57897 -0.23255 0
M  V30 10069 C 932.819 1.56836 1.26509 0
M  V30 10070 O 931.875 1.47947 2.04617 0
M  V30 10071 C 933.188 2.87778 -0.872036 0
M  V30 10072 C 934.736 3.01389 -0.844605 0
M  V30 10073 C 935.211 4.33991 -1.46343 0
M  V30 10074 N 936.702 4.40662 -1.42727 0
M  V30 10075 C 937.437 5.41858 -1.87557 0
M  V30 10076 N 936.933 6.49787 -2.4031 0
M  V30 10077 N 938.726 5.32992 -1.7854 0
M  V30 10078 H 930.877 1.45798 -1.54457 0
M  V30 10079 H 933.14 0.694785 -0.644964 0
M  V30 10080 H 932.846 2.94332 -1.92513 0
M  V30 10081 H 932.72 3.75345 -0.373677 0
M  V30 10082 H 935.107 2.94423 0.19984 0
M  V30 10083 H 935.188 2.15327 -1.38087 0
M  V30 10084 H 934.832 4.41714 -2.50701 0
M  V30 10085 H 934.762 5.18809 -0.902479 0
M  V30 10086 H 937.253 3.63263 -1.04155 0
M  V30 10087 H 937.566 7.23199 -2.72403 0
M  V30 10088 H 935.911 6.50637 -2.44329 0
M  V30 10089 H 939.102 4.47575 -1.37093 0
M  V30 10090 H 939.275 6.11716 -2.13794 0
M  V30 10091 N 932.681 0.308908 1.54543 0
M  V30 10092 C 933.644 -0.550857 2.22482 0
M  V30 10093 C 934.644 -1.0551 1.21344 0
M  V30 10094 O 935.834 -0.949866 1.46025 0
M  V30 10095 C 932.966 -1.76354 2.9174 0
M  V30 10096 H 934.159 0.0428395 2.99869 0
M  V30 10097 H 931.712 0.059825 1.56185 0
M  V30 10098 H 932.447 -2.39686 2.18451 0
M  V30 10099 H 932.232 -1.40954 3.65889 0
M  V30 10100 H 933.722 -2.37417 3.43545 0
M  V30 10101 N 934.159 -1.57557 0.0367827 0
M  V30 10102 C 935.089 -2.13712 -0.940719 0
M  V30 10103 C 936.07 -1.05515 -1.33419 0
M  V30 10104 O 937.255 -1.33385 -1.41146 0
M  V30 10105 C 934.385 -2.67043 -2.22048 0
M  V30 10106 C 933.339 -3.80096 -1.96752 0
M  V30 10107 C 932.665 -4.19886 -3.31059 0
M  V30 10108 C 933.965 -5.05848 -1.30058 0
M  V30 10109 H 935.659 -2.9564 -0.473033 0
M  V30 10110 H 933.205 -1.42214 -0.226089 0
M  V30 10111 H 935.158 -3.04964 -2.90818 0
M  V30 10112 H 933.882 -1.82287 -2.70996 0
M  V30 10113 H 932.541 -3.42625 -1.30398 0
M  V30 10114 H 932.189 -3.32101 -3.77781 0
M  V30 10115 H 931.889 -4.96073 -3.14937 0
M  V30 10116 H 933.413 -4.60395 -4.01084 0
M  V30 10117 H 934.827 -5.41306 -1.8884 0
M  V30 10118 H 933.224 -5.87084 -1.24309 0
M  V30 10119 H 934.294 -4.84122 -0.274591 0
M  V30 10120 N 935.637 0.236453 -1.55816 0
M  V30 10121 C 936.865 0.980295 -1.82203 0
M  V30 10122 C 937.28 1.7854 -0.613926 0
M  V30 10123 O 936.637 1.77661 0.417491 0
M  V30 10124 C 936.688 1.90982 -3.06933 0
M  V30 10125 O 936.409 1.13728 -4.23081 0
M  V30 10126 C 937.91 2.76879 -3.46198 0
M  V30 10127 H 935.13 0.28799 -0.606055 0
M  V30 10128 H 937.674 0.256182 -2.02889 0
M  V30 10129 H 935.829 2.58808 -2.88266 0
M  V30 10130 H 936.243 1.76694 -4.93842 0
M  V30 10131 H 937.717 3.37831 -4.36548 0
M  V30 10132 H 938.194 3.48522 -2.67262 0
M  V30 10133 H 938.8 2.1449 -3.67252 0
M  V30 10134 N 937.115 1.49373 0.502552 0
M  V30 10135 C 938.345 1.62252 1.27898 0
M  V30 10136 C 938.753 0.292555 1.86924 0
M  V30 10137 O 938.096 -0.731823 1.68493 0
M  V30 10138 C 938.158 2.63153 2.4493 0
M  V30 10139 C 937.822 4.07541 2.06784 0
M  V30 10140 C 938.819 4.94392 1.60849 0
M  V30 10141 C 936.504 4.53263 2.16466 0
M  V30 10142 C 938.498 6.25003 1.25098 0
M  V30 10143 C 936.185 5.83888 1.80327 0
M  V30 10144 C 937.183 6.69582 1.34718 0
M  V30 10145 O 936.871 7.97773 0.990661 0
M  V30 10146 H 936.603 0.54918 0.394179 0
M  V30 10147 H 939.157 1.96132 0.610031 0
M  V30 10148 H 937.387 2.2445 3.14895 0
M  V30 10149 H 939.076 2.65578 3.06957 0
M  V30 10150 H 939.842 4.60296 1.52816 0
M  V30 10151 H 935.721 3.86731 2.50919 0
M  V30 10152 H 939.265 6.91844 0.894269 0
M  V30 10153 H 935.162 6.17513 1.8801 0
M  V30 10154 H 935.93 8.1077 1.12227 0
M  V30 10155 N 938.594 -0.753485 1.38421 0
M  V30 10156 C 939.834 -1.52544 1.3605 0
M  V30 10157 C 940.198 -1.91937 -0.0493257 0
M  V30 10158 O 941.399 -2.6807 -0.197908 0
M  V30 10159 C 939.67 -2.74432 2.28958 0
M  V30 10160 S 941.229 -3.64297 2.44607 0
M  V30 10161 H 938.047 -0.522017 0.48272 0
M  V30 10162 H 940.649 -0.884503 1.74347 0
M  V30 10163 H 939.353 -2.43602 3.30282 0
M  V30 10164 H 938.884 -3.43471 1.91811 0
M  V30 10165 H 940.899 -4.67245 1.67022 0
M  V30 10166 N 940.072 -1.23292 -0.981677 0
M  V30 10167 C 941.349 -0.972514 -1.6971 0
M  V30 10168 C 941.729 0.509244 -2.04866 0
M  V30 10169 O 941.077 1.48013 -1.74082 0
M  V30 10170 C 941.287 -1.88144 -2.93943 0
M  V30 10171 C 942.635 -2.14416 -3.66485 0
M  V30 10172 O 943.659 -1.85684 -3.03974 0
M  V30 10173 O 942.518 -2.63139 -4.78978 0
M  V30 10174 H 939.612 -0.366673 -0.741269 0
M  V30 10175 H 942.158 -1.34328 -1.03701 0
M  V30 10176 H 940.93 -2.8832 -2.64551 0
M  V30 10177 H 940.553 -1.51296 -3.67689 0
M  V30 10178 N 941.55 1.18024 -1.04442 0
M  V30 10179 C 942.48 2.23988 -0.659683 0
M  V30 10180 C 943.461 1.6669 0.338904 0
M  V30 10181 O 944.646 1.92971 0.21817 0
M  V30 10182 C 941.776 3.4729 -0.0257672 0
M  V30 10183 C 940.73 4.17362 -0.948299 0
M  V30 10184 C 940.056 5.34401 -0.17866 0
M  V30 10185 C 941.356 4.70435 -2.26909 0
M  V30 10186 H 943.05 2.56425 -1.54553 0
M  V30 10187 H 940.596 1.23256 -0.744575 0
M  V30 10188 H 942.549 4.20627 0.255131 0
M  V30 10189 H 941.273 3.14098 0.894981 0
M  V30 10190 H 939.932 3.45928 -1.21364 0
M  V30 10191 H 939.58 4.97458 0.744614 0
M  V30 10192 H 939.28 5.8222 -0.793294 0
M  V30 10193 H 940.804 6.10526 0.0951315 0
M  V30 10194 H 942.218 5.35447 -2.04864 0
M  V30 10195 H 940.615 5.28803 -2.83703 0
M  V30 10196 H 941.685 3.87653 -2.91296 0
M  V30 10197 N 943.028 0.824394 1.34319 0
M  V30 10198 C 943.978 0.219624 2.2694 0
M  V30 10199 C 944.962 -0.616964 1.48601 0
M  V30 10200 O 946.154 -0.471303 1.7061 0
M  V30 10201 C 943.283 -0.616379 3.37721 0
M  V30 10202 C 942.369 0.230917 4.23471 0
M  V30 10203 N 942.76 1.30264 4.88738 0
M  V30 10204 C 941.058 0.0155016 4.45997 0
M  V30 10205 C 941.759 1.82141 5.52449 0
M  V30 10206 N 940.735 1.12508 5.3183 0
M  V30 10207 H 944.537 1.03939 2.74907 0
M  V30 10208 H 942.051 0.667353 1.48055 0
M  V30 10209 H 944.048 -1.06582 4.03046 0
M  V30 10210 H 942.708 -1.43429 2.91304 0
M  V30 10211 H 943.719 1.68545 4.89707 0
M  V30 10212 H 940.396 -0.770128 4.10336 0
M  V30 10213 H 941.786 2.7181 6.14466 0
M  V30 10214 N 944.506 -1.46559 0.579492 0
M  V30 10215 C 945.755 -2.01606 0.0615735 0
M  V30 10216 C 946.068 -1.45695 -1.30508 0
M  V30 10217 O 947.274 -1.92541 -1.91416 0
M  V30 10218 C 945.73 -3.59851 0.059496 0
M  V30 10219 C 945.338 -4.24757 1.42427 0
M  V30 10220 C 947.082 -4.22567 -0.404646 0
M  V30 10221 C 944.989 -5.75072 1.38009 0
M  V30 10222 H 943.919 -0.753754 0.0192491 0
M  V30 10223 H 946.57 -1.68326 0.73066 0
M  V30 10224 H 944.952 -3.90193 -0.675691 0
M  V30 10225 H 946.126 -4.06029 2.17893 0
M  V30 10226 H 944.441 -3.74121 1.82817 0
M  V30 10227 H 947.038 -5.32748 -0.456441 0
M  V30 10228 H 947.381 -3.91279 -1.42149 0
M  V30 10229 H 947.914 -3.96839 0.276376 0
M  V30 10230 H 944.653 -6.11014 2.37364 0
M  V30 10231 H 944.173 -5.96073 0.667583 0
M  V30 10232 H 945.852 -6.37724 1.09163 0
M  V30 10233 N 945.984 -0.3171 -1.54377 0
M  V30 10234 C 947.233 0.288271 -1.99629 0
M  V30 10235 C 947.546 1.53754 -1.2091 0
M  V30 10236 O 948.752 2.2185 -1.56508 0
M  V30 10237 C 947.208 0.564188 -3.5545 0
M  V30 10238 C 946.816 -0.667659 -4.42997 0
M  V30 10239 C 948.56 1.12987 -4.09187 0
M  V30 10240 C 946.467 -0.364003 -5.90279 0
M  V30 10241 H 945.397 0.111492 -0.745711 0
M  V30 10242 H 948.048 -0.428317 -1.78431 0
M  V30 10243 H 946.43 1.34079 -3.72611 0
M  V30 10244 H 947.604 -1.44335 -4.37612 0
M  V30 10245 H 945.919 -1.1531 -4.00116 0
M  V30 10246 H 948.516 1.37157 -5.1681 0
M  V30 10247 H 948.859 2.07722 -3.60773 0
M  V30 10248 H 949.392 0.414595 -3.95634 0
M  V30 10249 H 946.131 -1.28035 -6.42874 0
M  V30 10250 H 945.651 0.374102 -5.98632 0
M  V30 10251 H 947.33 0.0285433 -6.46994 0
M  V30 10252 N 947.462 1.57535 -0.0451378 0
M  V30 10253 C 948.409 2.11176 0.931313 0
M  V30 10254 C 949.379 1.01765 1.31275 0
M  V30 10255 O 950.564 1.29279 1.40327 0
M  V30 10256 C 947.704 2.65639 2.20295 0
M  V30 10257 C 946.817 3.89114 1.87654 0
M  V30 10258 C 945.952 4.31914 3.09232 0
M  V30 10259 C 944.991 5.48105 2.72484 0
M  V30 10260 N 944.128 5.85986 3.86736 0
M  V30 10261 H 948.968 2.94318 0.466986 0
M  V30 10262 H 946.505 1.45462 0.218886 0
M  V30 10263 H 948.463 2.95312 2.94697 0
M  V30 10264 H 947.093 1.85303 2.64316 0
M  V30 10265 H 946.145 3.6607 1.03427 0
M  V30 10266 H 947.457 4.7358 1.56601 0
M  V30 10267 H 946.611 4.63108 3.91939 0
M  V30 10268 H 945.35 3.46247 3.43459 0
M  V30 10269 H 944.355 5.16589 1.88192 0
M  V30 10270 H 945.58 6.35482 2.39455 0
M  V30 10271 H 943.526 5.03273 4.20775 0
M  V30 10272 H 943.443 6.65129 3.5936 0
M  V30 10273 H 944.711 6.21793 4.701 0
M  V30 10274 N 948.94 -0.228186 1.55939 0
M  V30 10275 C 950.356 -0.577583 1.48782 0
M  V30 10276 C 950.556 -1.87461 0.738972 0
M  V30 10277 O 949.612 -2.50988 0.275929 0
M  V30 10278 C 950.925 -0.662961 2.93301 0
M  V30 10279 C 952.473 -0.754035 3.03782 0
M  V30 10280 C 952.948 -0.870815 4.49645 0
M  V30 10281 N 954.439 -0.935208 4.53661 0
M  V30 10282 C 955.174 -1.04516 5.63794 0
M  V30 10283 N 954.67 -1.11948 6.83696 0
M  V30 10284 N 956.463 -1.07978 5.51631 0
M  V30 10285 H 948.614 0.623018 2.03057 0
M  V30 10286 H 950.877 0.217692 0.922667 0
M  V30 10287 H 950.583 0.220375 3.51009 0
M  V30 10288 H 950.457 -1.52876 3.44831 0
M  V30 10289 H 952.844 -1.62782 2.46143 0
M  V30 10290 H 952.925 0.137301 2.55431 0
M  V30 10291 H 952.569 -0.0015186 5.079 0
M  V30 10292 H 952.499 -1.77747 4.95695 0
M  V30 10293 H 954.99 -0.88836 3.6731 0
M  V30 10294 H 955.303 -1.20297 7.6338 0
M  V30 10295 H 953.648 -1.08873 6.8642 0
M  V30 10296 H 956.839 -1.01833 4.56889 0
M  V30 10297 H 957.012 -1.16202 6.37496 0
M  V30 10298 N 950.418 -1.49637 -0.494624 0
M  V30 10299 C 951.328 -1.69522 -1.62172 0
M  V30 10300 C 952.344 -0.577894 -1.64123 0
M  V30 10301 O 953.52 -0.853382 -1.82426 0
M  V30 10302 C 950.585 -1.7633 -2.9851 0
M  V30 10303 C 949.646 -2.99944 -3.07135 0
M  V30 10304 C 948.879 -3.06419 -4.36971 0
M  V30 10305 O 949.102 -2.20312 -5.26136 0
M  V30 10306 O 948.036 -3.9894 -4.507 0
M  V30 10307 H 951.862 -2.65017 -1.48324 0
M  V30 10308 H 949.447 -1.33454 -0.671603 0
M  V30 10309 H 951.329 -1.83125 -3.7953 0
M  V30 10310 H 950.004 -0.840155 -3.12607 0
M  V30 10311 H 948.911 -2.98664 -2.2528 0
M  V30 10312 H 950.244 -3.9176 -2.97968 0
M  V30 10313 N 951.896 0.746133 -1.38819 0
M  V30 10314 C 952.859 1.84167 -1.36437 0
M  V30 10315 C 953.859 1.58626 -0.263499 0
M  V30 10316 O 955.049 1.66233 -0.520801 0
M  V30 10317 C 952.181 3.21769 -1.12596 0
M  V30 10318 H 953.374 1.87684 -2.33912 0
M  V30 10319 H 950.927 0.948625 -1.24221 0
M  V30 10320 H 951.662 3.23917 -0.15758 0
M  V30 10321 H 951.447 3.41702 -1.92307 0
M  V30 10322 H 952.937 4.0184 -1.13643 0
M  V30 10323 N 953.375 1.23811 0.975125 0
M  V30 10324 C 954.305 1.04846 2.08638 0
M  V30 10325 C 955.286 -0.0362859 1.70061 0
M  V30 10326 O 956.471 0.12937 1.93769 0
M  V30 10327 C 953.601 0.644534 3.41267 0
M  V30 10328 C 952.555 1.67722 3.93768 0
M  V30 10329 C 951.881 1.12857 5.22654 0
M  V30 10330 C 953.181 3.07147 4.22443 0
M  V30 10331 H 954.875 1.97795 2.24761 0
M  V30 10332 H 952.421 0.952397 1.08006 0
M  V30 10333 H 954.374 0.498887 4.18436 0
M  V30 10334 H 953.098 -0.320641 3.25022 0
M  V30 10335 H 951.757 1.81095 3.18748 0
M  V30 10336 H 951.405 0.154227 5.02764 0
M  V30 10337 H 951.105 1.81862 5.58749 0
M  V30 10338 H 952.629 0.994891 6.0244 0
M  V30 10339 H 954.043 2.97045 4.90344 0
M  V30 10340 H 952.44 3.73437 4.6975 0
M  V30 10341 H 953.51 3.55743 3.29507 0
M  V30 10342 N 954.853 -1.17469 1.05066 0
M  V30 10343 C 955.783 -2.23635 0.671552 0
M  V30 10344 C 956.764 -1.66867 -0.33006 0
M  V30 10345 O 957.949 -1.93084 -0.207933 0
M  V30 10346 C 955.079 -3.47272 0.0441845 0
M  V30 10347 C 954.033 -4.16854 0.97042 0
M  V30 10348 C 953.359 -5.34299 0.206998 0
M  V30 10349 C 954.659 -4.69225 2.29401 0
M  V30 10350 H 956.353 -2.55602 1.55911 0
M  V30 10351 H 953.899 -1.2286 0.751101 0
M  V30 10352 H 955.852 -4.20756 -0.23282 0
M  V30 10353 H 954.576 -3.14568 -0.878311 0
M  V30 10354 H 953.235 -3.4528 1.23197 0
M  V30 10355 H 952.883 -4.97846 -0.718222 0
M  V30 10356 H 952.583 -5.81792 0.82416 0
M  V30 10357 H 954.107 -6.10568 -0.0627525 0
M  V30 10358 H 955.521 -5.34353 2.077 0
M  V30 10359 H 953.918 -5.27291 2.86503 0
M  V30 10360 H 954.988 -3.86102 2.93348 0
M  V30 10361 N 956.331 -0.831506 -1.3388 0
M  V30 10362 C 957.278 -0.257449 -2.2936 0
M  V30 10363 C 958.248 0.622604 -1.5399 0
M  V30 10364 O 959.433 0.562432 -1.82322 0
M  V30 10365 C 956.573 0.567587 -3.404 0
M  V30 10366 C 955.686 -0.335666 -4.30694 0
M  V30 10367 C 954.821 0.499762 -5.28844 0
M  V30 10368 C 953.86 -0.402343 -6.10776 0
M  V30 10369 N 952.997 0.39452 -7.00991 0
M  V30 10370 H 957.837 -1.077 -2.77857 0
M  V30 10371 H 955.374 -0.542589 -1.36727 0
M  V30 10372 H 957.332 1.06133 -4.03474 0
M  V30 10373 H 955.962 1.35217 -2.93115 0
M  V30 10374 H 955.014 -0.94768 -3.68406 0
M  V30 10375 H 956.326 -1.02896 -4.88072 0
M  V30 10376 H 955.48 1.05763 -5.9741 0
M  V30 10377 H 954.219 1.22652 -4.72025 0
M  V30 10378 H 953.224 -0.972288 -5.41135 0
M  V30 10379 H 954.449 -1.12735 -6.69677 0
M  V30 10380 H 952.395 1.1048 -6.4663 0
M  V30 10381 H 952.312 -0.240209 -7.55618 0
M  V30 10382 H 953.58 0.934867 -7.73874 0
M  V30 10383 N 957.809 1.4625 -0.587256 0
M  V30 10384 C 959.055 2.02662 -0.0746851 0
M  V30 10385 C 959.388 1.45723 1.28368 0
M  V30 10386 O 958.663 0.624062 1.84216 0
M  V30 10387 C 958.946 3.60097 -0.0138109 0
M  V30 10388 C 958.799 4.27412 -1.4014 0
M  V30 10389 C 960.118 4.34744 0.684491 0
M  V30 10390 H 957.237 0.736444 -0.0286144 0
M  V30 10391 H 959.879 1.74341 -0.755328 0
M  V30 10392 H 958.029 3.84357 0.56583 0
M  V30 10393 H 959.701 4.14401 -2.02656 0
M  V30 10394 H 957.944 3.86598 -1.96785 0
M  V30 10395 H 958.615 5.362 -1.31124 0
M  V30 10396 H 961.091 4.15657 0.192023 0
M  V30 10397 H 959.967 5.44468 0.696127 0
M  V30 10398 H 960.228 4.06132 1.74669 0
M  V30 10399 N 959.287 0.325282 1.54207 0
M  V30 10400 C 960.217 -0.532574 2.27345 0
M  V30 10401 C 961.198 -1.11791 1.28206 0
M  V30 10402 O 962.383 -1.14272 1.57021 0
M  V30 10403 C 959.513 -1.69274 3.03255 0
M  V30 10404 C 958.467 -1.23662 4.09746 0
M  V30 10405 C 957.793 -2.48386 4.73506 0
M  V30 10406 C 959.093 -0.350244 5.21124 0
M  V30 10407 H 960.787 0.0775108 2.993 0
M  V30 10408 H 958.333 0.0387193 1.43948 0
M  V30 10409 H 960.286 -2.29917 3.53152 0
M  V30 10410 H 959.01 -2.32944 2.28921 0
M  V30 10411 H 957.669 -0.653106 3.60735 0
M  V30 10412 H 957.317 -3.10424 3.95786 0
M  V30 10413 H 957.017 -2.18558 5.45441 0
M  V30 10414 H 958.541 -3.09789 5.26178 0
M  V30 10415 H 959.955 -0.863011 5.66767 0
M  V30 10416 H 958.352 -0.14466 5.99926 0
M  V30 10417 H 959.422 0.618457 4.8094 0
M  V30 10418 N 960.765 -1.57509 0.0534917 0
M  V30 10419 C 962.042 -1.84137 -0.659767 0
M  V30 10420 C 962.422 -0.942362 -1.88899 0
M  V30 10421 O 961.77 -0.00398566 -2.285 0
M  V30 10422 C 961.98 -3.33919 -1.01486 0
M  V30 10423 C 963.328 -4.00989 -1.39616 0
M  V30 10424 O 964.352 -3.38557 -1.10713 0
M  V30 10425 O 963.211 -5.11071 -1.93567 0
M  V30 10426 H 960.305 -0.760081 -0.325893 0
M  V30 10427 H 962.851 -1.69497 0.0830315 0
M  V30 10428 H 961.623 -3.91046 -0.141041 0
M  V30 10429 H 961.246 -3.53755 -1.81503 0
M  V30 10430 N 962.243 0.219913 -1.56058 0
M  V30 10431 C 963.49 0.944064 -1.79147 0
M  V30 10432 C 963.818 1.84268 -0.622531 0
M  V30 10433 O 963.073 1.91713 0.393013 0
M  V30 10434 C 963.372 1.81293 -3.08006 0
M  V30 10435 C 963.038 1.0674 -4.38084 0
M  V30 10436 C 961.7 0.86147 -4.73426 0
M  V30 10437 C 964.052 0.541049 -5.18384 0
M  V30 10438 C 961.38 0.117307 -5.86583 0
M  V30 10439 C 963.732 -0.189779 -6.32315 0
M  V30 10440 C 962.396 -0.406951 -6.66258 0
M  V30 10441 H 961.666 0.345458 -0.655546 0
M  V30 10442 H 964.313 0.212121 -1.90322 0
M  V30 10443 H 962.618 2.61278 -2.9196 0
M  V30 10444 H 964.315 2.3754 -3.23072 0
M  V30 10445 H 960.905 1.23789 -4.10334 0
M  V30 10446 H 965.089 0.687617 -4.91514 0
M  V30 10447 H 960.345 -0.0611651 -6.11369 0
M  V30 10448 H 964.519 -0.605134 -6.93766 0
M  V30 10449 H 962.146 -0.985511 -7.53785 0
M  V30 10450 N 963.721 1.49897 0.486681 0
M  V30 10451 C 964.951 1.63599 1.2617 0
M  V30 10452 C 965.359 0.312365 1.86604 0
M  V30 10453 O 964.702 -0.713911 1.6926 0
M  V30 10454 C 964.764 2.65736 2.42125 0
M  V30 10455 C 964.428 4.09711 2.0245 0
M  V30 10456 C 965.425 4.9607 1.55596 0
M  V30 10457 C 963.11 4.55534 2.11647 0
M  V30 10458 C 965.104 6.26295 1.18462 0
M  V30 10459 C 962.791 5.85768 1.74124 0
M  V30 10460 C 963.789 6.70973 1.27608 0
M  V30 10461 O 963.477 7.98778 0.905991 0
M  V30 10462 H 963.209 0.55333 0.388332 0
M  V30 10463 H 965.763 1.96768 0.589195 0
M  V30 10464 H 963.993 2.27778 3.12497 0
M  V30 10465 H 965.682 2.68819 3.04123 0
M  V30 10466 H 966.448 4.61891 1.47925 0
M  V30 10467 H 962.327 3.8937 2.46803 0
M  V30 10468 H 965.871 6.92754 0.820839 0
M  V30 10469 H 961.768 6.19473 1.8145 0
M  V30 10470 H 962.536 8.11914 1.03621 0
M  V30 10471 N 965.199 -0.738761 1.39212 0
M  V30 10472 C 966.427 -1.52801 1.39497 0
M  V30 10473 C 966.842 -1.88797 -0.0114917 0
M  V30 10474 O 966.199 -1.53835 -0.981887 0
M  V30 10475 C 966.25 -2.81793 2.2644 0
M  V30 10476 O 965.971 -2.47328 3.61608 0
M  V30 10477 C 967.472 -3.75844 2.35067 0
M  V30 10478 H 964.692 -0.472322 0.476606 0
M  V30 10479 H 967.236 -0.913153 1.8298 0
M  V30 10480 H 965.391 -3.3962 1.8638 0
M  V30 10481 H 965.805 -3.30162 4.07545 0
M  V30 10482 H 967.279 -4.6326 3.00157 0
M  V30 10483 H 967.756 -4.17329 1.3687 0
M  V30 10484 H 968.362 -3.23937 2.75581 0
M  V30 10485 N 966.677 -1.24326 -0.968545 0
M  V30 10486 C 967.64 -1.03591 -2.04454 0
M  V30 10487 C 968.64 0.0064809 -1.60799 0
M  V30 10488 O 969.83 -0.234404 -1.72616 0
M  V30 10489 C 966.962 -0.56992 -3.36102 0
M  V30 10490 H 968.155 -1.99092 -2.24282 0
M  V30 10491 H 965.708 -1.06537 -1.14366 0
M  V30 10492 H 966.443 0.388325 -3.21967 0
M  V30 10493 H 966.228 -1.32227 -3.69132 0
M  V30 10494 H 967.718 -0.445854 -4.15213 0
M  V30 10495 N 968.156 1.1691 -1.05688 0
M  V30 10496 C 969.403 1.87292 -0.76993 0
M  V30 10497 C 969.731 1.81339 0.703295 0
M  V30 10498 O 968.986 1.21959 1.5305 0
M  V30 10499 C 969.285 3.36578 -1.20207 0
M  V30 10500 C 968.951 3.62732 -2.67836 0
M  V30 10501 C 967.613 3.69579 -3.08163 0
M  V30 10502 C 969.965 3.73803 -3.63209 0
M  V30 10503 C 967.293 3.84992 -4.42717 0
M  V30 10504 C 969.645 3.90735 -4.97503 0
M  V30 10505 C 968.309 3.95823 -5.37476 0
M  V30 10506 H 967.579 0.68535 -0.281737 0
M  V30 10507 H 970.226 1.38274 -1.32486 0
M  V30 10508 H 968.531 3.87687 -0.566222 0
M  V30 10509 H 970.228 3.89409 -0.957183 0
M  V30 10510 H 966.818 3.58031 -2.35609 0
M  V30 10511 H 971.002 3.67829 -3.3319 0
M  V30 10512 H 966.258 3.87181 -4.73182 0
M  V30 10513 H 970.432 3.98243 -5.71293 0
M  V30 10514 H 968.059 4.07518 -6.41742 0
M  V30 10515 N 969.634 0.838594 1.33437 0
M  V30 10516 C 970.597 0.276843 2.27522 0
M  V30 10517 C 971.597 -0.554275 1.50945 0
M  V30 10518 O 972.787 -0.368107 1.70266 0
M  V30 10519 C 969.919 -0.610036 3.35397 0
M  V30 10520 H 971.112 1.10705 2.78719 0
M  V30 10521 H 968.665 0.611657 1.43835 0
M  V30 10522 H 969.4 -1.46269 2.89441 0
M  V30 10523 H 969.185 -0.0153615 3.92097 0
M  V30 10524 H 970.675 -0.996368 4.05539 0
M  V30 10525 N 971.112 -1.45937 0.595003 0
M  V30 10526 C 972.06 -2.32155 -0.143798 0
M  V30 10527 C 973.054 -1.45221 -0.872198 0
M  V30 10528 O 974.26 -1.61777 -0.789191 0
M  V30 10529 H 970.635 -0.749165 -0.0652377 0
M  V30 10530 H 972.606 -2.92264 0.602005 0
M  V30 10531 C 971.355 -3.28615 -1.13611 0
M  V30 10532 H 970.678 -3.95496 -0.585044 0
M  V30 10533 H 972.118 -3.91699 -1.62321 0
M  V30 10534 C 970.577 -2.54863 -2.20333 0
M  V30 10535 O 971.107 -2.32071 -3.27881 0
M  V30 10536 N 969.313 -2.15213 -1.95274 0
M  V30 10537 H 968.86 -2.33949 -1.07822 0
M  V30 10538 H 968.818 -1.66188 -2.66888 0
M  V30 10539 N 972.59 -0.333456 -1.54032 0
M  V30 10540 C 973.815 0.270517 -2.05628 0
M  V30 10541 C 974.24 1.44231 -1.20744 0
M  V30 10542 O 973.598 1.79975 -0.218822 0
M  V30 10543 C 973.646 0.673251 -3.54259 0
M  V30 10544 O 972.75 1.77448 -3.72271 0
M  V30 10545 H 972.091 0.0469753 -0.662336 0
M  V30 10546 H 974.621 -0.484739 -1.98775 0
M  V30 10547 H 974.631 0.953194 -3.96709 0
M  V30 10548 H 973.306 -0.183747 -4.15494 0
M  V30 10549 H 971.883 1.49259 -3.41725 0
M  V30 10550 N 974.068 1.57479 -0.061844 0
M  V30 10551 C 975.315 1.93108 0.60954 0
M  V30 10552 C 975.643 0.941086 1.70217 0
M  V30 10553 O 974.898 -0.044914 1.95648 0
M  V30 10554 C 975.197 3.35394 1.23474 0
M  V30 10555 C 974.863 4.50095 0.269247 0
M  V30 10556 C 973.525 4.812 0.00360316 0
M  V30 10557 C 975.877 5.19725 -0.391839 0
M  V30 10558 C 973.205 5.79276 -0.930383 0
M  V30 10559 C 975.557 6.18801 -1.31408 0
M  V30 10560 C 974.221 6.48328 -1.58829 0
M  V30 10561 H 973.491 0.706634 0.223046 0
M  V30 10562 H 976.138 1.91054 -0.1306 0
M  V30 10563 H 974.443 3.33866 2.05039 0
M  V30 10564 H 976.14 3.60247 1.76134 0
M  V30 10565 H 972.73 4.2583 0.486477 0
M  V30 10566 H 976.914 4.95898 -0.199713 0
M  V30 10567 H 972.17 6.00484 -1.15019 0
M  V30 10568 H 976.344 6.71862 -1.83234 0
M  V30 10569 H 973.971 7.24137 -2.31363 0
M  V30 10570 N 975.546 -0.211634 1.56173 0
M  V30 10571 C 976.771 -0.955324 1.84088 0
M  V30 10572 C 977.196 -1.76754 0.643407 0
M  V30 10573 O 976.554 -1.76653 -0.407842 0
M  V30 10574 C 976.602 -1.84063 3.10085 0
M  V30 10575 O 975.706 -2.9373 2.89476 0
M  V30 10576 H 975.047 -0.26996 0.606645 0
M  V30 10577 H 977.577 -0.221947 2.03393 0
M  V30 10578 H 977.587 -2.24852 3.40449 0
M  V30 10579 H 976.262 -1.24373 3.96868 0
M  V30 10580 H 974.839 -2.56816 2.7037 0
M  V30 10581 N 977.024 -1.50153 -0.478725 0
M  V30 10582 C 978.44 -1.3741 -0.811833 0
M  V30 10583 C 978.64 -0.424303 -1.96982 0
M  V30 10584 O 977.696 0.13588 -2.52134 0
M  V30 10585 C 979.009 -2.78616 -1.13108 0
M  V30 10586 C 980.557 -2.87477 -1.23798 0
M  V30 10587 C 981.032 -4.295 -1.5904 0
M  V30 10588 N 982.523 -4.32415 -1.66047 0
M  V30 10589 C 983.258 -5.39295 -1.94805 0
M  V30 10590 N 982.754 -6.56392 -2.21635 0
M  V30 10591 N 984.547 -5.26731 -1.96243 0
M  V30 10592 H 976.698 -2.10486 0.284531 0
M  V30 10593 H 978.961 -0.945786 0.0647585 0
M  V30 10594 H 978.667 -3.49921 -0.35334 0
M  V30 10595 H 978.541 -3.15382 -2.06915 0
M  V30 10596 H 980.928 -2.16396 -2.00641 0
M  V30 10597 H 981.009 -2.54264 -0.279888 0
M  V30 10598 H 980.653 -5.01115 -0.827404 0
M  V30 10599 H 980.583 -4.60194 -2.55987 0
M  V30 10600 H 983.074 -3.47975 -1.47383 0
M  V30 10601 H 983.387 -7.33658 -2.4283 0
M  V30 10602 H 981.732 -6.59579 -2.19043 0
M  V30 10603 H 984.923 -4.34249 -1.74773 0
M  V30 10604 H 985.096 -6.10115 -2.1832 0
M  V30 10605 N 978.502 0.731368 -1.39602 0
M  V30 10606 C 979.45 1.86676 -1.38761 0
M  V30 10607 C 980.444 1.6723 -0.270247 0
M  V30 10608 O 981.65 1.74528 -0.440471 0
M  V30 10609 H 978.025 0.614553 -0.433391 0
M  V30 10610 H 979.996 1.84501 -2.34525 0
M  V30 10611 C 978.745 3.24394 -1.25155 0
M  V30 10612 H 978.068 3.39955 -2.10406 0
M  V30 10613 H 979.508 4.04019 -1.28625 0
M  V30 10614 C 977.967 3.36877 0.0396976 0
M  V30 10615 O 978.497 3.88833 1.00854 0
M  V30 10616 N 976.703 2.90414 0.103965 0
M  V30 10617 H 976.25 2.48321 -0.685155 0
M  V30 10618 H 976.208 2.99146 0.967435 0
M  V30 10619 N 979.98 1.24838 0.961938 0
M  V30 10620 C 980.91 1.07053 2.07514 0
M  V30 10621 C 981.891 -0.0182465 1.7009 0
M  V30 10622 O 983.076 0.149915 1.9362 0
M  V30 10623 C 980.206 0.680693 3.40564 0
M  V30 10624 C 979.16 1.71889 3.91967 0
M  V30 10625 C 978.486 1.18395 5.21428 0
M  V30 10626 C 979.786 3.1161 4.19161 0
M  V30 10627 H 981.48 2.00167 2.22651 0
M  V30 10628 H 979.026 0.963799 1.0699 0
M  V30 10629 H 980.979 0.54324 4.17884 0
M  V30 10630 H 979.703 -0.28615 3.25344 0
M  V30 10631 H 978.362 1.84465 3.16809 0
M  V30 10632 H 978.01 0.207543 5.02572 0
M  V30 10633 H 977.71 1.87778 5.56788 0
M  V30 10634 H 979.234 1.05873 6.01351 0
M  V30 10635 H 980.648 3.0223 4.87165 0
M  V30 10636 H 979.045 3.78398 4.65763 0
M  V30 10637 H 980.115 3.59218 3.25715 0
M  V30 10638 N 981.458 -1.16348 1.06306 0
M  V30 10639 C 982.686 -1.90782 0.800614 0
M  V30 10640 C 983.101 -1.77439 -0.645033 0
M  V30 10641 O 982.458 -1.11912 -1.4416 0
M  V30 10642 C 982.509 -3.41484 1.18621 0
M  V30 10643 O 982.23 -3.54428 2.57512 0
M  V30 10644 C 983.731 -4.32968 0.951525 0
M  V30 10645 H 980.951 -0.604977 0.290247 0
M  V30 10646 H 983.495 -1.47476 1.41672 0
M  V30 10647 H 981.65 -3.82493 0.614633 0
M  V30 10648 H 982.064 -4.4788 2.72954 0
M  V30 10649 H 983.538 -5.37169 1.27095 0
M  V30 10650 H 984.015 -4.39055 -0.112734 0
M  V30 10651 H 984.621 -3.97687 1.50749 0
M  V30 10652 N 982.937 -0.845659 -1.3299 0
M  V30 10653 C 983.867 -0.298957 -2.31578 0
M  V30 10654 C 984.848 0.597012 -1.59279 0
M  V30 10655 O 986.033 0.519142 -1.87132 0
M  V30 10656 C 983.163 0.521109 -3.43368 0
M  V30 10657 C 982.117 -0.279651 -4.27085 0
M  V30 10658 C 981.443 0.664591 -5.30554 0
M  V30 10659 C 982.743 -1.50046 -5.00283 0
M  V30 10660 H 984.437 -1.12272 -2.77552 0
M  V30 10661 H 981.983 -0.54132 -1.33438 0
M  V30 10662 H 983.936 0.913921 -4.1137 0
M  V30 10663 H 982.66 1.37815 -2.96099 0
M  V30 10664 H 981.319 -0.654106 -3.60717 0
M  V30 10665 H 980.967 1.51822 -4.79541 0
M  V30 10666 H 980.667 0.132871 -5.8745 0
M  V30 10667 H 982.191 1.05477 -6.01421 0
M  V30 10668 H 983.605 -1.18044 -5.61016 0
M  V30 10669 H 982.002 -1.96946 -5.66862 0
M  V30 10670 H 983.072 -2.26659 -4.28665 0
M  V30 10671 N 984.415 1.45619 -0.602734 0
M  V30 10672 C 985.643 2.06647 -0.102253 0
M  V30 10673 C 986.058 1.4482 1.21131 0
M  V30 10674 O 985.415 0.560621 1.73676 0
M  V30 10675 C 985.466 3.61467 0.0490113 0
M  V30 10676 O 985.187 4.20985 -1.21257 0
M  V30 10677 C 986.688 4.39469 0.581517 0
M  V30 10678 H 983.908 0.667685 -0.0666155 0
M  V30 10679 H 986.452 1.86939 -0.829091 0
M  V30 10680 H 984.607 3.80534 0.726153 0
M  V30 10681 H 985.021 5.14103 -1.03915 0
M  V30 10682 H 986.495 5.48318 0.636462 0
M  V30 10683 H 986.972 4.0891 1.60277 0
M  V30 10684 H 987.578 4.25256 -0.061419 0
M  V30 10685 N 985.893 0.34162 1.53853 0
M  V30 10686 C 987.133 -0.255853 2.02792 0
M  V30 10687 C 987.497 -1.47921 1.22407 0
M  V30 10688 O 988.698 -2.15073 1.61236 0
M  V30 10689 C 986.969 -0.564117 3.5292 0
M  V30 10690 S 988.528 -1.13868 4.23768 0
M  V30 10691 H 985.346 -0.0762867 0.706896 0
M  V30 10692 H 987.948 0.478934 1.89543 0
M  V30 10693 H 986.652 0.334098 4.09038 0
M  V30 10694 H 986.183 -1.32862 3.70285 0
M  V30 10695 H 988.198 -2.42451 4.32934 0
M  V30 10696 N 987.371 -1.57444 0.0701946 0
M  V30 10697 C 988.319 -2.13834 -0.915302 0
M  V30 10698 C 989.313 -1.07483 -1.30934 0
M  V30 10699 O 990.519 -1.25865 -1.28678 0
M  V30 10700 H 986.894 -0.683716 -0.313108 0
M  V30 10701 H 988.865 -2.95503 -0.414758 0
M  V30 10702 C 987.614 -2.71355 -2.17398 0
M  V30 10703 H 986.937 -3.52861 -1.87961 0
M  V30 10704 H 988.377 -3.1441 -2.84469 0
M  V30 10705 C 986.836 -1.66038 -2.93143 0
M  V30 10706 O 987.366 -1.08443 -3.86786 0
M  V30 10707 N 985.572 -1.3711 -2.56221 0
M  V30 10708 H 985.119 -1.84135 -1.80145 0
M  V30 10709 H 985.077 -0.66877 -3.07205 0
M  V30 10710 N 988.849 0.203349 -1.56283 0
M  V30 10711 C 989.779 1.2549 -1.96912 0
M  V30 10712 C 990.76 1.47919 -0.839884 0
M  V30 10713 O 991.945 1.59795 -1.10359 0
M  V30 10714 C 989.075 2.6009 -2.30153 0
M  V30 10715 C 988.029 2.52289 -3.45738 0
M  V30 10716 C 987.355 3.91086 -3.64632 0
M  V30 10717 C 988.655 2.05503 -4.80173 0
M  V30 10718 H 990.349 0.917306 -2.85002 0
M  V30 10719 H 987.895 0.439818 -1.37119 0
M  V30 10720 H 989.848 3.33829 -2.5717 0
M  V30 10721 H 988.572 2.95574 -1.38937 0
M  V30 10722 H 987.231 1.81006 -3.18798 0
M  V30 10723 H 986.879 4.23908 -2.7076 0
M  V30 10724 H 986.579 3.86742 -4.42385 0
M  V30 10725 H 988.103 4.66459 -3.94016 0
M  V30 10726 H 989.517 2.68995 -5.06275 0
M  V30 10727 H 987.914 2.1218 -5.61337 0
M  V30 10728 H 988.984 1.00793 -4.74309 0
M  V30 10729 N 990.327 1.50405 0.470755 0
M  V30 10730 C 991.743 1.37838 0.804534 0
M  V30 10731 C 991.943 0.434743 1.96754 0
M  V30 10732 O 990.999 -0.122507 2.52203 0
M  V30 10733 C 992.312 2.79212 1.11629 0
M  V30 10734 C 993.86 2.88129 1.22272 0
M  V30 10735 C 994.335 4.30337 1.5676 0
M  V30 10736 N 995.826 4.3329 1.63751 0
M  V30 10737 C 996.561 5.4032 1.91942 0
M  V30 10738 N 996.057 6.57558 2.18151 0
M  V30 10739 N 997.85 5.27764 1.93446 0
M  V30 10740 H 990.001 2.10332 -0.295689 0
M  V30 10741 H 992.264 0.945429 -0.0697733 0
M  V30 10742 H 991.97 3.50103 0.334778 0
M  V30 10743 H 991.844 3.16475 2.0524 0
M  V30 10744 H 994.231 2.17457 1.9949 0
M  V30 10745 H 994.312 2.54409 0.2664 0
M  V30 10746 H 993.956 5.01547 0.800817 0
M  V30 10747 H 993.886 4.61545 2.53543 0
M  V30 10748 H 996.377 3.48752 1.45535 0
M  V30 10749 H 996.69 7.34935 2.38936 0
M  V30 10750 H 995.035 6.60732 2.15542 0
M  V30 10751 H 998.226 4.35169 1.72468 0
M  V30 10752 H 998.399 6.11264 2.15081 0
M  V30 10753 N 991.805 -0.723954 1.39988 0
M  V30 10754 C 992.752 -1.83803 1.39589 0
M  V30 10755 C 993.722 -1.64146 0.253996 0
M  V30 10756 O 994.907 -1.85398 0.450793 0
M  V30 10757 C 992.047 -3.21431 1.25604 0
M  V30 10758 C 991.16 -3.52717 2.49429 0
M  V30 10759 C 990.295 -4.79805 2.27949 0
M  V30 10760 C 989.334 -5.03968 3.47394 0
M  V30 10761 N 988.471 -6.22266 3.25161 0
M  V30 10762 H 993.311 -1.83479 2.34818 0
M  V30 10763 H 990.848 -0.896396 1.16633 0
M  V30 10764 H 992.806 -4.00892 1.15504 0
M  V30 10765 H 991.436 -3.21005 0.339986 0
M  V30 10766 H 990.488 -2.67872 2.7009 0
M  V30 10767 H 991.8 -3.66486 3.38363 0
M  V30 10768 H 990.954 -5.67268 2.15155 0
M  V30 10769 H 989.693 -4.68229 1.36428 0
M  V30 10770 H 988.698 -4.14963 3.60674 0
M  V30 10771 H 989.923 -5.17422 4.39831 0
M  V30 10772 H 987.869 -6.11957 2.36314 0
M  V30 10773 H 987.786 -6.36673 4.07656 0
M  V30 10774 H 989.054 -7.12539 3.16083 0
M  V30 10775 N 993.283 -1.25346 -0.955304 0
M  V30 10776 C 994.699 -1.02154 -1.22625 0
M  V30 10777 C 994.899 0.26206 -1.99789 0
M  V30 10778 O 993.955 0.974958 -2.32918 0
M  V30 10779 C 995.268 -2.2443 -2.00129 0
M  V30 10780 C 996.816 -2.29185 -2.13174 0
M  V30 10781 C 997.291 -3.51117 -2.94077 0
M  V30 10782 N 998.782 -3.51509 -3.01655 0
M  V30 10783 C 999.517 -4.42517 -3.64645 0
M  V30 10784 N 999.013 -5.43796 -4.29252 0
M  V30 10785 N 1000.81 -4.302 -3.61779 0
M  V30 10786 H 992.957 -2.07812 -0.439071 0
M  V30 10787 H 995.22 -0.91258 -0.256715 0
M  V30 10788 H 994.926 -3.17717 -1.50827 0
M  V30 10789 H 994.8 -2.27548 -3.00835 0
M  V30 10790 H 997.187 -1.36422 -2.61674 0
M  V30 10791 H 997.268 -2.30087 -1.11775 0
M  V30 10792 H 996.912 -4.44201 -2.46268 0
M  V30 10793 H 996.842 -3.4746 -3.95701 0
M  V30 10794 H 999.333 -2.78245 -2.55711 0
M  V30 10795 H 999.646 -6.09453 -4.75171 0
M  V30 10796 H 997.991 -5.4767 -4.27882 0
M  V30 10797 H 1001.18 -3.50304 -3.10491 0
M  V30 10798 H 1001.36 -5.01323 -4.10584 0
M  V30 10799 N 994.761 1.15782 -1.06922 0
M  V30 10800 C 996.01 1.85807 -0.784774 0
M  V30 10801 C 996.323 1.82967 0.691551 0
M  V30 10802 O 997.529 2.48632 1.0906 0
M  V30 10803 C 995.985 3.33469 -1.35375 0
M  V30 10804 C 995.593 3.44766 -2.86077 0
M  V30 10805 C 997.337 4.08707 -1.14713 0
M  V30 10806 C 995.244 4.86551 -3.36187 0
M  V30 10807 H 994.174 0.696046 -0.28989 0
M  V30 10808 H 996.825 1.30629 -1.28873 0
M  V30 10809 H 995.207 3.88292 -0.77754 0
M  V30 10810 H 996.381 3.00073 -3.49704 0
M  V30 10811 H 994.696 2.82969 -3.05479 0
M  V30 10812 H 997.293 5.13336 -1.49633 0
M  V30 10813 H 997.636 4.16211 -0.0858868 0
M  V30 10814 H 998.169 3.60142 -1.68946 0
M  V30 10815 H 994.908 4.84229 -4.41818 0
M  V30 10816 H 994.428 5.31844 -2.77312 0
M  V30 10817 H 996.107 5.55392 -3.31887 0
M  V30 10818 N 996.239 0.8527 1.3254 0
M  V30 10819 C 997.488 0.45136 1.96585 0
M  V30 10820 C 997.801 -0.997773 1.68237 0
M  V30 10821 O 999.007 -1.50445 2.26006 0
M  V30 10822 C 997.463 0.75619 3.51866 0
M  V30 10823 C 997.071 2.22092 3.89075 0
M  V30 10824 C 998.815 0.422478 4.22392 0
M  V30 10825 C 996.722 2.46908 5.37392 0
M  V30 10826 H 995.652 0.165052 0.735713 0
M  V30 10827 H 998.303 1.04321 1.50962 0
M  V30 10828 H 996.685 0.0937988 3.95889 0
M  V30 10829 H 997.859 2.92494 3.56067 0
M  V30 10830 H 996.174 2.51896 3.31568 0
M  V30 10831 H 998.771 0.58533 5.31487 0
M  V30 10832 H 999.114 -0.635737 4.11417 0
M  V30 10833 H 999.647 1.04068 3.83946 0
M  V30 10834 H 996.386 3.51346 5.53386 0
M  V30 10835 H 995.906 1.81082 5.71812 0
M  V30 10836 H 997.585 2.30758 6.0445 0
M  V30 10837 N 997.718 -1.45297 0.610449 0
M  V30 10838 C 998.965 -2.02218 0.106759 0
M  V30 10839 C 999.293 -1.47849 -1.26376 0
M  V30 10840 O 998.548 -0.644402 -1.84786 0
M  V30 10841 C 998.847 -3.57394 0.0205329 0
M  V30 10842 C 998.513 -4.30928 1.32709 0
M  V30 10843 C 997.175 -4.50735 1.68498 0
M  V30 10844 C 999.527 -4.72936 2.19046 0
M  V30 10845 C 996.855 -5.09806 2.90371 0
M  V30 10846 C 999.207 -5.33355 3.40169 0
M  V30 10847 C 997.871 -5.51384 3.76207 0
M  V30 10848 H 997.141 -0.739969 0.039066 0
M  V30 10849 H 999.788 -1.74326 0.792638 0
M  V30 10850 H 998.093 -3.84581 -0.748623 0
M  V30 10851 H 999.79 -3.99144 -0.385386 0
M  V30 10852 H 996.38 -4.15827 1.03854 0
M  V30 10853 H 1000.56 -4.57365 1.92695 0
M  V30 10854 H 995.82 -5.21953 3.18395 0
M  V30 10855 H 999.994 -5.64859 4.07318 0
M  V30 10856 H 997.621 -5.96924 4.70729 0
M  V30 10857 N 999.196 -0.349774 -1.5367 0
M  V30 10858 C 1000.61 0.00191293 -1.596 0
M  V30 10859 C 1000.81 1.48175 -1.36552 0
M  V30 10860 O 999.868 2.24129 -1.16285 0
M  V30 10861 C 1001.18 -0.439848 -2.97466 0
M  V30 10862 C 1002.73 -0.392721 -3.10526 0
M  V30 10863 C 1003.2 -0.810047 -4.5078 0
M  V30 10864 N 1004.69 -0.764478 -4.56848 0
M  V30 10865 C 1005.43 -1.05927 -5.63531 0
M  V30 10866 N 1004.93 -1.42253 -6.78038 0
M  V30 10867 N 1006.72 -0.983098 -5.53436 0
M  V30 10868 H 998.87 -1.31364 -1.66905 0
M  V30 10869 H 1001.13 -0.535908 -0.781989 0
M  V30 10870 H 1000.84 -1.47189 -3.19419 0
M  V30 10871 H 1000.71 0.181735 -3.76762 0
M  V30 10872 H 1003.1 0.630161 -2.88293 0
M  V30 10873 H 1003.18 -1.04959 -2.33275 0
M  V30 10874 H 1002.82 -1.83097 -4.73749 0
M  V30 10875 H 1002.75 -0.130591 -5.26438 0
M  V30 10876 H 1005.25 -0.496637 -3.74622 0
M  V30 10877 H 1005.56 -1.63215 -7.55368 0
M  V30 10878 H 1003.9 -1.46104 -6.79469 0
M  V30 10879 H 1007.09 -0.698601 -4.62858 0
M  V30 10880 H 1007.27 -1.21618 -6.36485 0
M  V30 10881 N 1000.67 1.57404 -0.0785433 0
M  V30 10882 C 1001.62 2.13104 0.88631 0
M  V30 10883 C 1002.59 1.04527 1.29086 0
M  V30 10884 O 1003.78 1.32226 1.37553 0
M  V30 10885 C 1000.92 2.70252 2.14611 0
M  V30 10886 C 1000.03 3.93007 1.79358 0
M  V30 10887 C 999.164 4.38376 3 0
M  V30 10888 C 998.203 5.53761 2.60796 0
M  V30 10889 N 997.34 5.94058 3.74219 0
M  V30 10890 H 1002.18 2.95243 0.404452 0
M  V30 10891 H 999.717 1.45894 0.187982 0
M  V30 10892 H 1001.67 3.01497 2.88367 0
M  V30 10893 H 1000.3 1.90868 2.60326 0
M  V30 10894 H 999.357 3.68181 0.956384 0
M  V30 10895 H 1000.67 4.76795 1.4652 0
M  V30 10896 H 999.823 4.71317 3.82027 0
M  V30 10897 H 998.562 3.53455 3.36037 0
M  V30 10898 H 997.567 5.20464 1.77192 0
M  V30 10899 H 998.792 6.40419 2.25922 0
M  V30 10900 H 996.738 5.12085 4.10005 0
M  V30 10901 H 996.655 6.72602 3.45171 0
M  V30 10902 H 997.923 6.31624 4.56805 0
M  V30 10903 N 1002.15 -0.195058 1.56388 0
M  V30 10904 C 1003.4 -0.913626 1.79821 0
M  V30 10905 C 1003.71 -1.84422 0.651767 0
M  V30 10906 O 1004.92 -2.6034 0.770402 0
M  V30 10907 C 1003.38 -1.67497 3.18548 0
M  V30 10908 C 1002.98 -0.789205 4.40994 0
M  V30 10909 C 1004.73 -2.38318 3.5129 0
M  V30 10910 C 1002.63 -1.54942 5.70742 0
M  V30 10911 H 1001.56 -0.344891 0.670497 0
M  V30 10912 H 1004.22 -0.166912 1.82739 0
M  V30 10913 H 1002.6 -2.46557 3.0988 0
M  V30 10914 H 1003.77 -0.0372595 4.60785 0
M  V30 10915 H 1002.09 -0.191834 4.15958 0
M  V30 10916 H 1004.68 -2.95745 4.45465 0
M  V30 10917 H 1005.03 -3.12507 2.75037 0
M  V30 10918 H 1005.56 -1.66224 3.61406 0
M  V30 10919 H 1002.3 -0.85031 6.49962 0
M  V30 10920 H 1001.82 -2.2753 5.54969 0
M  V30 10921 H 1003.5 -2.1032 6.11861 0
M  V30 10922 N 1003.63 -1.50653 -0.462772 0
M  V30 10923 C 1004.85 -1.66103 -1.24196 0
M  V30 10924 C 1005.28 -0.347421 -1.84864 0
M  V30 10925 O 1004.64 0.689673 -1.6767 0
M  V30 10926 C 1004.69 -2.76027 -2.32037 0
M  V30 10927 O 1003.79 -2.37859 -3.36893 0
M  V30 10928 H 1003.13 -0.554672 -0.365014 0
M  V30 10929 H 1005.66 -1.97076 -0.549734 0
M  V30 10930 H 1005.67 -2.99354 -2.77221 0
M  V30 10931 H 1004.35 -3.71361 -1.87253 0
M  V30 10932 H 1002.92 -2.2501 -2.97363 0
M  V30 10933 N 1005.11 0.71652 -1.4037 0
M  V30 10934 C 1006.39 1.46947 -1.29097 0
M  V30 10935 C 1006.77 2.10903 0.0911182 0
M  V30 10936 O 1006.11 2.00068 1.10385 0
M  V30 10937 C 1006.32 2.50594 -2.42907 0
M  V30 10938 C 1007.67 3.16451 -2.83097 0
M  V30 10939 O 1008.7 2.60913 -2.42493 0
M  V30 10940 O 1007.55 4.16991 -3.53244 0
M  V30 10941 H 1004.65 0.653413 -0.506932 0
M  V30 10942 H 1007.19 0.748774 -1.52287 0
M  V30 10943 H 1005.97 2.01843 -3.35224 0
M  V30 10944 H 1005.59 3.302 -2.21481 0
M  V30 10945 N 1006.59 1.25851 0.948643 0
M  V30 10946 C 1007.83 1.11119 1.69648 0
M  V30 10947 C 1008.17 -0.345995 1.91093 0
M  V30 10948 O 1007.44 -1.25467 1.48621 0
M  V30 10949 C 1007.72 1.87261 3.0758 0
M  V30 10950 C 1007.58 3.40842 2.93507 0
M  V30 10951 C 1008.9 1.6605 4.07573 0
M  V30 10952 H 1006.01 0.405052 0.615713 0
M  V30 10953 H 1008.66 1.54756 1.10229 0
M  V30 10954 H 1006.81 1.50172 3.58303 0
M  V30 10955 H 1008.48 3.87641 2.50064 0
M  V30 10956 H 1006.72 3.68248 2.29294 0
M  V30 10957 H 1007.39 3.89339 3.91305 0
M  V30 10958 H 1009.87 1.98348 3.65783 0
M  V30 10959 H 1008.74 2.21753 5.02113 0
M  V30 10960 H 1009.01 0.603256 4.37965 0
M  V30 10961 N 1008.06 -1.15214 1.07534 0
M  V30 10962 C 1009.01 -2.20013 0.697337 0
M  V30 10963 C 1009.98 -1.6314 -0.312168 0
M  V30 10964 O 1011.17 -1.89768 -0.198196 0
M  V30 10965 C 1008.31 -3.44945 0.103293 0
M  V30 10966 C 1007.42 -4.16009 1.1645 0
M  V30 10967 C 1006.55 -5.28496 0.535261 0
M  V30 10968 C 1005.59 -5.9138 1.57912 0
M  V30 10969 N 1004.73 -6.95335 0.972332 0
M  V30 10970 H 1009.57 -2.51698 1.59538 0
M  V30 10971 H 1007.11 -1.2361 0.797431 0
M  V30 10972 H 1009.07 -4.16397 -0.258766 0
M  V30 10973 H 1007.7 -3.13772 -0.758096 0
M  V30 10974 H 1006.75 -3.43035 1.64411 0
M  V30 10975 H 1008.06 -4.58853 1.9559 0
M  V30 10976 H 1007.21 -6.06579 0.120942 0
M  V30 10977 H 1005.95 -4.8685 -0.287889 0
M  V30 10978 H 1004.96 -5.12008 2.0032 0
M  V30 10979 H 1006.18 -6.35103 2.40459 0
M  V30 10980 H 1004.13 -6.55779 0.170119 0
M  V30 10981 H 1004.05 -7.36616 1.70095 0
M  V30 10982 H 1005.31 -7.77312 0.583577 0
M  V30 10983 N 1009.54 -0.859717 -1.32086 0
M  V30 10984 C 1010.49 -0.306042 -2.28762 0
M  V30 10985 C 1011.46 0.589801 -1.55276 0
M  V30 10986 O 1012.64 0.523633 -1.83474 0
M  V30 10987 C 1009.78 0.495256 -3.41528 0
M  V30 10988 C 1008.9 -0.426947 -4.29885 0
M  V30 10989 C 1008.03 0.387474 -5.29785 0
M  V30 10990 C 1007.07 -0.531807 -6.09785 0
M  V30 10991 N 1006.21 0.245741 -7.0167 0
M  V30 10992 H 1011.05 -1.1357 -2.7551 0
M  V30 10993 H 1008.59 -0.571468 -1.35546 0
M  V30 10994 H 1010.54 0.97551 -4.05635 0
M  V30 10995 H 1009.17 1.28969 -2.95917 0
M  V30 10996 H 1008.23 -1.02561 -3.66313 0
M  V30 10997 H 1009.54 -1.13226 -4.85779 0
M  V30 10998 H 1008.69 0.930677 -5.99519 0
M  V30 10999 H 1007.43 1.12612 -4.74521 0
M  V30 11000 H 1006.44 -1.08685 -5.3895 0
M  V30 11001 H 1007.66 -1.26915 -6.67135 0
M  V30 11002 H 1005.61 0.967391 -6.48828 0
M  V30 11003 H 1005.52 -0.400432 -7.54939 0
M  V30 11004 H 1006.79 0.770507 -7.75683 0
M  V30 11005 N 1011.02 1.44971 -0.618145 0
M  V30 11006 C 1011.93 2.34403 0.0960457 0
M  V30 11007 C 1012.95 1.51862 0.849355 0
M  V30 11008 O 1014.12 1.84632 0.804557 0
M  V30 11009 C 1011.19 3.29646 1.07397 0
M  V30 11010 C 1010.25 4.28095 0.321466 0
M  V30 11011 C 1009.48 5.18787 1.25281 0
M  V30 11012 O 1009.7 5.1313 2.49106 0
M  V30 11013 O 1008.64 5.97282 0.744156 0
M  V30 11014 H 1012.46 2.96898 -0.639176 0
M  V30 11015 H 1010.05 1.44529 -0.37837 0
M  V30 11016 H 1011.93 3.88307 1.63694 0
M  V30 11017 H 1010.61 2.69702 1.79004 0
M  V30 11018 H 1009.51 3.73019 -0.284223 0
M  V30 11019 H 1010.85 4.90923 -0.354315 0
M  V30 11020 N 1012.5 0.357919 1.53482 0
M  V30 11021 C 1013.41 -0.500273 2.29204 0
M  V30 11022 C 1014.42 -1.09936 1.3487 0
M  V30 11023 O 1015.6 -1.11195 1.67921 0
M  V30 11024 C 1012.67 -1.62828 3.06085 0
M  V30 11025 C 1011.73 -1.05751 4.16071 0
M  V30 11026 C 1010.96 -2.13176 4.89277 0
M  V30 11027 O 1011.18 -3.34153 4.62274 0
M  V30 11028 O 1010.12 -1.76663 5.7539 0
M  V30 11029 H 1013.94 0.115696 3.0348 0
M  V30 11030 H 1011.53 0.122527 1.48897 0
M  V30 11031 H 1013.41 -2.28427 3.54117 0
M  V30 11032 H 1012.08 -2.22979 2.34653 0
M  V30 11033 H 1010.99 -0.365642 3.72309 0
M  V30 11034 H 1012.32 -0.500661 4.89647 0
M  V30 11035 N 1013.98 -1.5736 0.0868897 0
M  V30 11036 C 1014.89 -2.17087 -0.889402 0
M  V30 11037 C 1015.9 -1.13809 -1.31619 0
M  V30 11038 O 1017.08 -1.46143 -1.38579 0
M  V30 11039 C 1014.14 -2.73286 -2.13344 0
M  V30 11040 C 1013.2 -3.91491 -1.76164 0
M  V30 11041 C 1012.44 -4.45 -2.94637 0
M  V30 11042 O 1012.66 -3.97467 -4.09116 0
M  V30 11043 O 1011.59 -5.36133 -2.73579 0
M  V30 11044 H 1015.42 -3.00902 -0.411275 0
M  V30 11045 H 1013.01 -1.4877 -0.137015 0
M  V30 11046 H 1014.89 -3.0924 -2.86266 0
M  V30 11047 H 1013.56 -1.92521 -2.60225 0
M  V30 11048 H 1012.47 -3.60363 -1.00447 0
M  V30 11049 H 1013.8 -4.73593 -1.34053 0
M  V30 11050 N 1015.45 0.186762 -1.56489 0
M  V30 11051 C 1016.36 1.25169 -1.98419 0
M  V30 11052 C 1017.38 1.49329 -0.893124 0
M  V30 11053 O 1018.56 1.61781 -1.19954 0
M  V30 11054 C 1015.62 2.57422 -2.32239 0
M  V30 11055 C 1014.68 2.4126 -3.55095 0
M  V30 11056 C 1013.92 3.67206 -3.87292 0
M  V30 11057 O 1014.14 4.71731 -3.20665 0
M  V30 11058 O 1013.07 3.62238 -4.80695 0
M  V30 11059 H 1016.9 0.925834 -2.89244 0
M  V30 11060 H 1014.48 0.392421 -1.44154 0
M  V30 11061 H 1016.37 3.35466 -2.5503 0
M  V30 11062 H 1015.04 2.89618 -1.44579 0
M  V30 11063 H 1013.95 1.61299 -3.37541 0
M  V30 11064 H 1015.28 2.13994 -4.43247 0
M  V30 11065 N 1016.93 1.50896 0.454776 0
M  V30 11066 C 1018.35 1.38684 0.78987 0
M  V30 11067 C 1018.55 0.455587 1.96282 0
M  V30 11068 O 1017.6 -0.0957503 2.52318 0
M  V30 11069 C 1018.92 2.80381 1.08661 0
M  V30 11070 C 1020.47 2.8941 1.19209 0
M  V30 11071 C 1020.94 4.31976 1.52187 0
M  V30 11072 N 1022.43 4.35002 1.59146 0
M  V30 11073 C 1023.17 5.42326 1.862 0
M  V30 11074 N 1022.66 6.59835 2.11164 0
M  V30 11075 N 1024.46 5.29786 1.87838 0
M  V30 11076 H 1016.61 2.10006 -0.317981 0
M  V30 11077 H 1018.87 0.944636 -0.0797969 0
M  V30 11078 H 1018.58 3.50438 0.297626 0
M  V30 11079 H 1018.45 3.18634 2.01872 0
M  V30 11080 H 1020.84 2.19561 1.97173 0
M  V30 11081 H 1020.92 2.54677 0.239401 0
M  V30 11082 H 1020.56 5.02368 0.747576 0
M  V30 11083 H 1020.49 4.64208 2.48633 0
M  V30 11084 H 1022.98 3.50276 1.41828 0
M  V30 11085 H 1023.3 7.37428 2.31128 0
M  V30 11086 H 1021.64 6.62981 2.08522 0
M  V30 11087 H 1024.83 4.36974 1.67843 0
M  V30 11088 H 1025 6.13511 2.08585 0
M  V30 11089 N 1018.41 -0.709066 1.40748 0
M  V30 11090 C 1019.34 -1.83583 1.4429 0
M  V30 11091 C 1020.32 -1.67378 0.303067 0
M  V30 11092 O 1021.51 -1.87312 0.512612 0
M  V30 11093 C 1018.64 -3.21599 1.31116 0
M  V30 11094 C 1017.59 -3.52486 2.4277 0
M  V30 11095 C 1016.92 -4.89716 2.14668 0
M  V30 11096 C 1018.22 -3.52824 3.85113 0
M  V30 11097 H 1019.91 -1.80876 2.38588 0
M  V30 11098 H 1017.46 -0.868795 1.14839 0
M  V30 11099 H 1019.41 -4.00123 1.32209 0
M  V30 11100 H 1018.13 -3.24898 0.332965 0
M  V30 11101 H 1016.79 -2.76305 2.40937 0
M  V30 11102 H 1016.44 -4.89625 1.15224 0
M  V30 11103 H 1016.14 -5.11347 2.89478 0
M  V30 11104 H 1017.66 -5.70566 2.17455 0
M  V30 11105 H 1019.08 -4.21377 3.88734 0
M  V30 11106 H 1017.48 -3.85984 4.59496 0
M  V30 11107 H 1018.55 -2.52073 4.14231 0
M  V30 11108 N 1019.89 -1.26353 -0.941956 0
M  V30 11109 C 1021.31 -1.03448 -1.21534 0
M  V30 11110 C 1021.51 0.240855 -2.00055 0
M  V30 11111 O 1020.56 0.950199 -2.33939 0
M  V30 11112 C 1021.87 -2.2654 -1.97737 0
M  V30 11113 C 1023.42 -2.31433 -2.10731 0
M  V30 11114 C 1023.9 -3.54216 -2.90336 0
M  V30 11115 N 1025.39 -3.54688 -2.9791 0
M  V30 11116 C 1026.12 -4.4636 -3.59931 0
M  V30 11117 N 1025.62 -5.48319 -4.2346 0
M  V30 11118 N 1027.41 -4.34013 -3.57196 0
M  V30 11119 H 1019.56 -2.08266 -0.417005 0
M  V30 11120 H 1021.83 -0.915251 -0.247021 0
M  V30 11121 H 1021.53 -3.19299 -1.47449 0
M  V30 11122 H 1021.41 -2.30726 -2.98405 0
M  V30 11123 H 1023.79 -1.3919 -2.60212 0
M  V30 11124 H 1023.87 -2.31259 -1.09329 0
M  V30 11125 H 1023.52 -4.46788 -2.41543 0
M  V30 11126 H 1023.45 -3.51637 -3.91993 0
M  V30 11127 H 1025.94 -2.80942 -2.52745 0
M  V30 11128 H 1026.25 -6.14458 -4.6868 0
M  V30 11129 H 1024.6 -5.52177 -4.22049 0
M  V30 11130 H 1027.79 -3.53578 -3.06758 0
M  V30 11131 H 1027.96 -5.0565 -4.05244 0
M  V30 11132 N 1021.37 1.14642 -1.08144 0
M  V30 11133 C 1022.3 2.19283 -0.6669 0
M  V30 11134 C 1023.31 1.60292 0.284668 0
M  V30 11135 O 1024.5 1.78352 0.0727383 0
M  V30 11136 C 1021.6 3.38877 0.0398572 0
M  V30 11137 C 1020.77 4.274 -0.929929 0
M  V30 11138 C 1019.83 5.25562 -0.258991 0
M  V30 11139 O 1018.86 5.61999 -0.902563 0
M  V30 11140 N 1020.06 5.71958 0.992177 0
M  V30 11141 H 1022.83 2.55464 -1.5671 0
M  V30 11142 H 1020.39 1.29836 -0.96717 0
M  V30 11143 H 1022.38 4.01605 0.499583 0
M  V30 11144 H 1020.95 3.01043 0.842118 0
M  V30 11145 H 1020.17 3.61649 -1.56857 0
M  V30 11146 H 1021.46 4.83411 -1.58717 0
M  V30 11147 H 1020.86 5.44481 1.53484 0
M  V30 11148 H 1019.41 6.36687 1.39544 0
M  V30 11149 N 1022.85 0.866709 1.31628 0
M  V30 11150 C 1023.79 0.318169 2.28596 0
M  V30 11151 C 1024.76 -0.581558 1.55586 0
M  V30 11152 O 1025.95 -0.513895 1.83749 0
M  V30 11153 C 1023.09 -0.477137 3.41786 0
M  V30 11154 C 1022.2 0.449739 4.29653 0
M  V30 11155 C 1021.34 -0.359373 5.29983 0
M  V30 11156 C 1020.37 0.564138 6.09495 0
M  V30 11157 N 1019.51 -0.208526 7.0179 0
M  V30 11158 H 1024.35 1.15029 2.74904 0
M  V30 11159 H 1021.89 0.578649 1.35241 0
M  V30 11160 H 1023.85 -0.953985 4.06146 0
M  V30 11161 H 1022.48 -1.27398 2.96597 0
M  V30 11162 H 1021.53 1.04502 3.65764 0
M  V30 11163 H 1022.84 1.158 4.85172 0
M  V30 11164 H 1021.99 -0.89887 6.00004 0
M  V30 11165 H 1020.73 -1.10094 4.75111 0
M  V30 11166 H 1019.74 1.11542 5.38366 0
M  V30 11167 H 1020.96 1.30451 6.66453 0
M  V30 11168 H 1018.91 -0.932969 6.49332 0
M  V30 11169 H 1018.83 0.440463 7.54716 0
M  V30 11170 H 1020.09 -0.72936 7.7608 0
M  V30 11171 N 1024.32 -1.44642 0.625825 0
M  V30 11172 C 1025.27 -2.32408 -0.0945221 0
M  V30 11173 C 1026.27 -1.47038 -0.841198 0
M  V30 11174 O 1027.47 -1.63415 -0.754698 0
M  V30 11175 H 1023.85 -0.75038 -0.0493321 0
M  V30 11176 H 1025.82 -2.90922 0.663863 0
M  V30 11177 C 1024.57 -3.30951 -1.06615 0
M  V30 11178 H 1023.89 -3.96648 -0.501021 0
M  V30 11179 H 1025.33 -3.95054 -1.53976 0
M  V30 11180 C 1023.79 -2.59479 -2.14877 0
M  V30 11181 O 1024.32 -2.38974 -3.22885 0
M  V30 11182 N 1022.52 -2.19307 -1.90665 0
M  V30 11183 H 1022.07 -2.36184 -1.02835 0
M  V30 11184 H 1022.03 -1.71811 -2.63303 0
M  V30 11185 N 1025.8 -0.366053 -1.5329 0
M  V30 11186 C 1026.71 0.488111 -2.29466 0
M  V30 11187 C 1027.73 1.09219 -1.35452 0
M  V30 11188 O 1028.9 1.10303 -1.68509 0
M  V30 11189 C 1025.97 1.61202 -3.06944 0
M  V30 11190 C 1025.03 1.03543 -4.16626 0
M  V30 11191 C 1024.26 2.10578 -4.904 0
M  V30 11192 O 1024.49 3.31697 -4.6404 0
M  V30 11193 O 1023.42 1.73609 -5.76319 0
M  V30 11194 H 1027.25 -0.131789 -3.03414 0
M  V30 11195 H 1024.83 -0.130421 -1.4883 0
M  V30 11196 H 1026.71 2.26546 -3.55324 0
M  V30 11197 H 1025.39 2.21732 -2.35832 0
M  V30 11198 H 1024.29 0.345892 -3.72498 0
M  V30 11199 H 1025.63 0.474687 -4.89906 0
M  V30 11200 N 1027.28 1.57312 -0.0952337 0
M  V30 11201 C 1028.53 1.94646 0.569284 0
M  V30 11202 C 1028.86 0.977152 1.67825 0
M  V30 11203 O 1028.13 0.0102318 1.94497 0
M  V30 11204 C 1028.42 3.42098 1.12433 0
M  V30 11205 C 1028.27 4.49795 0.0204016 0
M  V30 11206 C 1029.59 3.90866 2.02266 0
M  V30 11207 H 1026.71 0.707779 0.205469 0
M  V30 11208 H 1029.35 1.89274 -0.16597 0
M  V30 11209 H 1027.5 3.46807 1.75092 0
M  V30 11210 H 1029.17 4.57198 -0.613845 0
M  V30 11211 H 1027.41 4.28964 -0.645965 0
M  V30 11212 H 1028.09 5.50166 0.449579 0
M  V30 11213 H 1030.56 3.88311 1.49512 0
M  V30 11214 H 1029.44 4.94604 2.38029 0
M  V30 11215 H 1029.7 3.30167 2.9401 0
M  V30 11216 N 1028.76 -0.17846 1.56586 0
M  V30 11217 C 1029.99 -0.911996 1.85715 0
M  V30 11218 C 1030.4 -1.76138 0.679766 0
M  V30 11219 O 1029.76 -1.79088 -0.351266 0
M  V30 11220 C 1029.81 -1.79459 3.1381 0
M  V30 11221 O 1029.53 -0.979476 4.2701 0
M  V30 11222 C 1031.03 -2.6384 3.56235 0
M  V30 11223 H 1028.25 -0.265299 0.616326 0
M  V30 11224 H 1030.79 -0.180704 2.037 0
M  V30 11225 H 1028.95 -2.4793 2.97673 0
M  V30 11226 H 1029.36 -1.58244 5.00059 0
M  V30 11227 H 1030.84 -3.21396 4.48786 0
M  V30 11228 H 1031.31 -3.38363 2.80013 0
M  V30 11229 H 1031.92 -2.00712 3.7496 0
M  V30 11230 N 1030.24 -1.51135 -0.446768 0
M  V30 11231 C 1031.17 -1.74709 -1.54916 0
M  V30 11232 C 1032.15 -0.596628 -1.59293 0
M  V30 11233 O 1033.33 -0.838356 -1.75172 0
M  V30 11234 C 1030.46 -1.86353 -2.9307 0
M  V30 11235 C 1029.42 -3.01725 -3.03556 0
M  V30 11236 C 1028.74 -2.9854 -4.43597 0
M  V30 11237 C 1030.04 -4.41848 -2.7851 0
M  V30 11238 H 1031.74 -2.67014 -1.3544 0
M  V30 11239 H 1029.28 -1.28489 -0.650131 0
M  V30 11240 H 1031.23 -2.01428 -3.70141 0
M  V30 11241 H 1029.96 -0.906887 -3.13756 0
M  V30 11242 H 1028.62 -2.86339 -2.28922 0
M  V30 11243 H 1028.27 -2.00673 -4.61237 0
M  V30 11244 H 1027.97 -3.76008 -4.51544 0
M  V30 11245 H 1029.49 -3.15696 -5.22655 0
M  V30 11246 H 1030.9 -4.57633 -3.45319 0
M  V30 11247 H 1029.3 -5.2095 -2.97877 0
M  V30 11248 H 1030.37 -4.52536 -1.74182 0
M  V30 11249 N 1031.71 0.701592 -1.41122 0
M  V30 11250 C 1032.94 1.49553 -1.43696 0
M  V30 11251 C 1033.36 1.88053 -0.0421865 0
M  V30 11252 O 1032.72 1.54223 0.953144 0
M  V30 11253 C 1032.77 2.73834 -2.34622 0
M  V30 11254 O 1031.87 3.71088 -1.7991 0
M  V30 11255 H 1031.21 0.450352 -0.487933 0
M  V30 11256 H 1033.74 0.862886 -1.85514 0
M  V30 11257 H 1033.75 3.22209 -2.5029 0
M  V30 11258 H 1032.43 2.45149 -3.35969 0
M  V30 11259 H 1031.01 3.29994 -1.73661 0
M  V30 11260 N 1033.19 1.2685 0.935242 0
M  V30 11261 C 1034.44 1.12132 1.67658 0
M  V30 11262 C 1034.75 -0.333839 1.9273 0
M  V30 11263 O 1035.96 -0.601801 2.64746 0
M  V30 11264 C 1034.42 1.95873 3.0193 0
M  V30 11265 C 1034.02 3.46 2.84584 0
M  V30 11266 C 1035.77 1.89781 3.79715 0
M  V30 11267 C 1033.67 4.21966 4.14365 0
M  V30 11268 H 1032.6 0.416035 0.628833 0
M  V30 11269 H 1035.26 1.51209 1.03962 0
M  V30 11270 H 1033.64 1.49633 3.66641 0
M  V30 11271 H 1034.81 4.00049 2.28687 0
M  V30 11272 H 1033.13 3.53391 2.20236 0
M  V30 11273 H 1035.72 2.43819 4.75875 0
M  V30 11274 H 1036.07 0.869797 4.07112 0
M  V30 11275 H 1036.6 2.33875 3.21788 0
M  V30 11276 H 1033.34 5.2526 3.9215 0
M  V30 11277 H 1032.86 3.72696 4.69955 0
M  V30 11278 H 1034.54 4.30734 4.82781 0
M  V30 11279 N 1034.67 -1.14067 1.0875 0
M  V30 11280 C 1036.08 -1.66747 0.839778 0
M  V30 11281 C 1036.43 -1.85711 -0.632909 0
M  V30 11282 O 1035.56 -1.57084 -1.48841 0
M  V30 11283 C 1036.15 -3.02896 1.51787 0
M  V30 11284 C 1034.71 -3.52596 1.3173 0
M  V30 11285 C 1033.86 -2.27994 1.57841 0
M  V30 11286 H 1036.81 -0.980838 1.24761 0
M  V30 11287 H 1036.83 -3.68526 0.947057 0
M  V30 11288 H 1036.34 -2.89062 2.58969 0
M  V30 11289 H 1034.44 -3.71647 0.266339 0
M  V30 11290 H 1034.56 -4.33151 2.04736 0
M  V30 11291 H 1032.92 -2.34241 1.00015 0
M  V30 11292 H 1033.7 -2.16732 2.66237 0
M  V30 11293 N 1036.15 -0.873678 -1.31166 0
M  V30 11294 C 1037.39 -0.487178 -1.96861 0
M  V30 11295 C 1037.73 0.95887 -1.68877 0
M  V30 11296 O 1037 1.6758 -0.987279 0
M  V30 11297 C 1037.29 -0.74925 -3.52219 0
M  V30 11298 C 1037.14 -2.2451 -3.89763 0
M  V30 11299 C 1038.46 -0.218194 -4.39559 0
M  V30 11300 H 1035.58 -0.178477 -0.715063 0
M  V30 11301 H 1038.22 -1.0956 -1.55231 0
M  V30 11302 H 1036.37 -0.231403 -3.8781 0
M  V30 11303 H 1038.04 -2.83049 -3.64254 0
M  V30 11304 H 1036.28 -2.71621 -3.38237 0
M  V30 11305 H 1036.95 -2.37911 -4.98099 0
M  V30 11306 H 1039.43 -0.661274 -4.10812 0
M  V30 11307 H 1038.31 -0.430983 -5.47205 0
M  V30 11308 H 1038.57 0.880056 -4.33252 0
M  V30 11309 N 1037.63 1.44308 -0.633487 0
M  V30 11310 C 1038.9 1.95476 -0.0697262 0
M  V30 11311 C 1039.28 1.57539 1.40516 0
M  V30 11312 O 1038.63 0.850632 2.12077 0
M  V30 11313 C 1038.84 3.4775 -0.295093 0
M  V30 11314 C 1040.19 4.24177 -0.189542 0
M  V30 11315 O 1041.21 3.55479 -0.226586 0
M  V30 11316 O 1040.07 5.46415 -0.096479 0
M  V30 11317 H 1037.17 0.826734 0.0209582 0
M  V30 11318 H 1039.71 1.54347 -0.705354 0
M  V30 11319 H 1038.48 3.6842 -1.31841 0
M  V30 11320 H 1038.11 3.95832 0.37456 0
M  V30 11321 N 1039.1 0.374177 1.53094 0
M  V30 11322 C 1040.05 -0.484848 2.22785 0
M  V30 11323 C 1041.04 -1.04181 1.22617 0
M  V30 11324 O 1042.23 -0.97043 1.48026 0
M  V30 11325 C 1039.36 -1.61956 3.02696 0
M  V30 11326 C 1038.45 -1.07506 4.10248 0
M  V30 11327 N 1038.84 -0.254253 5.05161 0
M  V30 11328 C 1037.13 -1.34904 4.25108 0
M  V30 11329 C 1037.84 0.0448558 5.81683 0
M  V30 11330 N 1036.81 -0.555073 5.40759 0
M  V30 11331 H 1040.61 0.148976 2.93522 0
M  V30 11332 H 1038.13 0.182656 1.6137 0
M  V30 11333 H 1040.12 -2.24723 3.51148 0
M  V30 11334 H 1038.78 -2.25636 2.33492 0
M  V30 11335 H 1039.8 0.107256 5.17789 0
M  V30 11336 H 1036.47 -1.98799 3.67131 0
M  V30 11337 H 1037.86 0.708952 6.68149 0
M  V30 11338 N 1040.58 -1.57259 0.103575 0
M  V30 11339 C 1041.99 -1.81816 -0.424239 0
M  V30 11340 C 1042.34 -1.01976 -1.67617 0
M  V30 11341 O 1041.47 -0.251673 -2.14932 0
M  V30 11342 C 1042.06 -3.29783 -0.776453 0
M  V30 11343 C 1040.62 -3.55074 -1.24897 0
M  V30 11344 C 1039.77 -2.76172 -0.249875 0
M  V30 11345 H 1042.72 -1.55254 0.328913 0
M  V30 11346 H 1042.74 -3.43569 -1.63526 0
M  V30 11347 H 1042.25 -3.87865 0.134906 0
M  V30 11348 H 1040.36 -3.02332 -2.17775 0
M  V30 11349 H 1040.47 -4.637 -1.20495 0
M  V30 11350 H 1038.83 -2.43902 -0.733767 0
M  V30 11351 H 1039.62 -3.37007 0.65431 0
M  V30 11352 N 1042.06 0.170153 -1.56679 0
M  V30 11353 C 1043.31 0.887906 -1.8233 0
M  V30 11354 C 1043.64 1.81845 -0.681608 0
M  V30 11355 O 1042.91 1.9191 0.316362 0
M  V30 11356 C 1043.2 1.68256 -3.18374 0
M  V30 11357 C 1043.05 0.775059 -4.43072 0
M  V30 11358 C 1044.37 2.65001 -3.51372 0
M  V30 11359 H 1041.49 0.32135 -0.663252 0
M  V30 11360 H 1044.13 0.154065 -1.89374 0
M  V30 11361 H 1042.28 2.30817 -3.12499 0
M  V30 11362 H 1043.95 0.162234 -4.61015 0
M  V30 11363 H 1042.2 0.0831809 -4.3372 0
M  V30 11364 H 1042.87 1.36661 -5.34816 0
M  V30 11365 H 1045.34 2.12566 -3.57708 0
M  V30 11366 H 1044.22 3.17667 -4.47637 0
M  V30 11367 H 1044.48 3.45255 -2.76136 0
M  V30 11368 N 1043.54 1.5137 0.438746 0
M  V30 11369 C 1044.95 1.39514 0.775116 0
M  V30 11370 C 1045.15 0.47638 1.95788 0
M  V30 11371 O 1044.21 -0.0689832 2.52406 0
M  V30 11372 C 1045.52 2.81517 1.05681 0
M  V30 11373 C 1047.07 2.90658 1.16133 0
M  V30 11374 C 1047.55 4.33566 1.47597 0
M  V30 11375 N 1049.04 4.36665 1.54524 0
M  V30 11376 C 1049.77 5.4427 1.80438 0
M  V30 11377 N 1049.27 6.62037 2.04154 0
M  V30 11378 N 1051.06 5.31749 1.82208 0
M  V30 11379 H 1043.21 2.09657 -0.340237 0
M  V30 11380 H 1045.48 0.943736 -0.0898115 0
M  V30 11381 H 1045.18 3.50734 0.260441 0
M  V30 11382 H 1045.06 3.20757 1.98481 0
M  V30 11383 H 1047.44 2.2164 1.94833 0
M  V30 11384 H 1047.52 2.54917 0.212376 0
M  V30 11385 H 1047.17 5.03133 0.694251 0
M  V30 11386 H 1047.1 4.66819 2.43696 0
M  V30 11387 H 1049.59 3.51761 1.38105 0
M  V30 11388 H 1049.9 7.39838 2.23293 0
M  V30 11389 H 1048.25 6.65155 2.01479 0
M  V30 11390 H 1051.44 4.3873 1.63198 0
M  V30 11391 H 1051.61 6.15689 2.02067 0
M  V30 11392 N 1045.02 -0.694098 1.41492 0
M  V30 11393 C 1045.96 -1.80801 1.43456 0
M  V30 11394 C 1046.93 -1.63571 0.288757 0
M  V30 11395 O 1048.12 -1.844 0.490017 0
M  V30 11396 C 1045.26 -3.18694 1.32394 0
M  V30 11397 C 1044.37 -3.47346 2.56855 0
M  V30 11398 C 1043.51 -4.74862 2.38075 0
M  V30 11399 C 1042.55 -4.96486 3.58005 0
M  V30 11400 N 1041.68 -6.15229 3.38287 0
M  V30 11401 H 1046.52 -1.78457 2.38657 0
M  V30 11402 H 1044.06 -0.871455 1.18508 0
M  V30 11403 H 1046.02 -3.98352 1.23982 0
M  V30 11404 H 1044.65 -3.20211 0.407999 0
M  V30 11405 H 1043.7 -2.62083 2.75711 0
M  V30 11406 H 1045.01 -3.59226 3.4606 0
M  V30 11407 H 1044.17 -5.62577 2.27139 0
M  V30 11408 H 1042.9 -4.6523 1.46329 0
M  V30 11409 H 1041.91 -4.07219 3.69395 0
M  V30 11410 H 1043.13 -5.07976 4.50708 0
M  V30 11411 H 1041.08 -6.06807 2.49242 0
M  V30 11412 H 1041 -6.27883 4.21069 0
M  V30 11413 H 1042.27 -7.05674 3.31126 0
M  V30 11414 N 1046.49 -1.27344 -0.928501 0
M  V30 11415 C 1047.42 -1.12517 -2.04602 0
M  V30 11416 C 1048.41 -0.0268563 -1.70079 0
M  V30 11417 O 1049.59 -0.201197 -1.93155 0
M  V30 11418 C 1046.72 -0.770749 -3.3864 0
M  V30 11419 C 1045.67 -1.8222 -3.87272 0
M  V30 11420 C 1045 -1.32178 -5.18105 0
M  V30 11421 C 1046.3 -3.22614 -4.10752 0
M  V30 11422 H 1047.99 -2.06 -2.17265 0
M  V30 11423 H 1045.54 -0.991827 -1.04397 0
M  V30 11424 H 1047.49 -0.653843 -4.16297 0
M  V30 11425 H 1046.22 0.19979 -3.25988 0
M  V30 11426 H 1044.88 -1.928 -3.11807 0
M  V30 11427 H 1044.52 -0.340719 -5.01845 0
M  V30 11428 H 1044.22 -2.02474 -5.51614 0
M  V30 11429 H 1045.75 -1.2178 -5.98333 0
M  V30 11430 H 1047.16 -3.1504 -4.78981 0
M  V30 11431 H 1045.56 -3.90614 -4.55566 0
M  V30 11432 H 1046.63 -3.67727 -3.16077 0
M  V30 11433 N 1047.97 1.13488 -1.09353 0
M  V30 11434 C 1049.22 1.84748 -0.829126 0
M  V30 11435 C 1049.55 1.83485 0.645247 0
M  V30 11436 O 1048.8 1.26767 1.49093 0
M  V30 11437 C 1049.1 3.32584 -1.30854 0
M  V30 11438 C 1048.77 3.54028 -2.7924 0
M  V30 11439 C 1047.43 3.59588 -3.19765 0
M  V30 11440 C 1049.78 3.62058 -3.74918 0
M  V30 11441 C 1047.11 3.70712 -4.54741 0
M  V30 11442 C 1049.46 3.7471 -5.09682 0
M  V30 11443 C 1048.13 3.78523 -5.49797 0
M  V30 11444 H 1047.4 0.67604 -0.303399 0
M  V30 11445 H 1050.04 1.33989 -1.36818 0
M  V30 11446 H 1048.35 3.85689 -0.689275 0
M  V30 11447 H 1050.04 3.86166 -1.08059 0
M  V30 11448 H 1046.63 3.50354 -2.4688 0
M  V30 11449 H 1050.82 3.57043 -3.44723 0
M  V30 11450 H 1046.07 3.71931 -4.8526 0
M  V30 11451 H 1050.25 3.79866 -5.83674 0
M  V30 11452 H 1047.88 3.86895 -6.54382 0
M  V30 11453 N 1049.45 0.880621 1.30701 0
M  V30 11454 C 1050.38 0.301443 2.27209 0
M  V30 11455 C 1051.4 -0.541533 1.53529 0
M  V30 11456 O 1052.59 -0.361791 1.74795 0
M  V30 11457 C 1049.69 -0.59038 3.33718 0
M  V30 11458 C 1048.86 0.222549 4.36833 0
M  V30 11459 C 1047.92 -0.599083 5.22779 0
M  V30 11460 O 1046.94 -0.0233267 5.69195 0
M  V30 11461 N 1048.15 -1.90904 5.48211 0
M  V30 11462 H 1050.91 1.13083 2.77547 0
M  V30 11463 H 1048.47 0.743168 1.43835 0
M  V30 11464 H 1050.46 -1.14599 3.88135 0
M  V30 11465 H 1049.03 -1.32044 2.83343 0
M  V30 11466 H 1048.25 0.959606 3.82342 0
M  V30 11467 H 1049.54 0.779965 5.02786 0
M  V30 11468 H 1048.94 -2.3998 5.12275 0
M  V30 11469 H 1047.5 -2.4122 6.05521 0
M  V30 11470 N 1050.93 -1.4397 0.641131 0
M  V30 11471 C 1051.88 -2.30728 -0.0577905 0
M  V30 11472 C 1052.85 -1.44059 -0.826819 0
M  V30 11473 O 1054.03 -1.72947 -0.805853 0
M  V30 11474 C 1051.17 -3.29478 -1.02657 0
M  V30 11475 C 1050.28 -4.31247 -0.254913 0
M  V30 11476 C 1049.42 -5.17085 -1.2164 0
M  V30 11477 C 1048.46 -6.10556 -0.434481 0
M  V30 11478 N 1047.6 -6.89059 -1.34694 0
M  V30 11479 H 1052.44 -2.8995 0.687953 0
M  V30 11480 H 1049.97 -1.4285 0.351029 0
M  V30 11481 H 1051.93 -3.85228 -1.60173 0
M  V30 11482 H 1050.56 -2.71932 -1.73933 0
M  V30 11483 H 1049.61 -3.77889 0.436338 0
M  V30 11484 H 1050.92 -4.97545 0.353642 0
M  V30 11485 H 1050.08 -5.77402 -1.86258 0
M  V30 11486 H 1048.82 -4.50885 -1.85888 0
M  V30 11487 H 1047.82 -5.49339 0.225125 0
M  V30 11488 H 1049.05 -6.78795 0.203415 0
M  V30 11489 H 1046.99 -6.25518 -1.97644 0
M  V30 11490 H 1046.91 -7.51833 -0.792657 0
M  V30 11491 H 1048.18 -7.5389 -1.98165 0
M  V30 11492 N 1052.41 -0.382291 -1.52893 0
M  V30 11493 C 1053.65 0.202133 -2.01489 0
M  V30 11494 C 1053.98 1.47399 -1.26901 0
M  V30 11495 O 1053.24 1.92439 -0.355771 0
M  V30 11496 C 1053.54 0.523437 -3.53546 0
M  V30 11497 C 1053.2 -0.656042 -4.46102 0
M  V30 11498 C 1051.86 -0.979633 -4.71123 0
M  V30 11499 C 1054.22 -1.44545 -5.00756 0
M  V30 11500 C 1051.54 -2.0943 -5.48047 0
M  V30 11501 C 1053.9 -2.55066 -5.78899 0
M  V30 11502 C 1052.56 -2.87942 -6.02201 0
M  V30 11503 H 1051.83 0.0739659 -0.737299 0
M  V30 11504 H 1054.48 -0.518196 -1.84356 0
M  V30 11505 H 1052.78 1.325 -3.68715 0
M  V30 11506 H 1054.48 0.988148 -3.88634 0
M  V30 11507 H 1051.07 -0.393818 -4.26787 0
M  V30 11508 H 1055.25 -1.20869 -4.81357 0
M  V30 11509 H 1050.51 -2.3528 -5.64317 0
M  V30 11510 H 1054.68 -3.1664 -6.20252 0
M  V30 11511 H 1052.31 -3.74435 -6.61591 0
M  V30 11512 N 1053.89 1.57202 -0.111913 0
M  V30 11513 C 1054.83 2.14936 0.840908 0
M  V30 11514 C 1055.8 1.07242 1.2684 0
M  V30 11515 O 1056.99 1.35114 1.34718 0
M  V30 11516 C 1054.13 2.74743 2.0883 0
M  V30 11517 C 1053.24 3.96723 1.70982 0
M  V30 11518 C 1052.38 4.4464 2.90634 0
M  V30 11519 C 1051.41 5.59169 2.48992 0
M  V30 11520 N 1050.55 6.01862 3.61534 0
M  V30 11521 H 1055.39 2.96034 0.341735 0
M  V30 11522 H 1052.93 1.4626 0.156993 0
M  V30 11523 H 1054.89 3.07546 2.81907 0
M  V30 11524 H 1053.52 1.96346 2.56218 0
M  V30 11525 H 1052.57 3.70127 0.878072 0
M  V30 11526 H 1053.88 4.79795 1.36373 0
M  V30 11527 H 1053.03 4.79315 3.71944 0
M  V30 11528 H 1051.77 3.60503 3.28464 0
M  V30 11529 H 1050.78 5.24106 1.66113 0
M  V30 11530 H 1052 6.45067 2.12287 0
M  V30 11531 H 1049.95 5.20667 3.99051 0
M  V30 11532 H 1049.87 6.79772 3.30827 0
M  V30 11533 H 1051.13 6.41172 4.43305 0
M  V30 11534 N 1055.36 -0.161842 1.56767 0
M  V30 11535 C 1056.3 -1.22499 1.93718 0
M  V30 11536 C 1057.31 -1.39975 0.831314 0
M  V30 11537 O 1058.5 -1.3981 1.10975 0
M  V30 11538 C 1055.6 -2.59222 2.18306 0
M  V30 11539 C 1054.77 -2.6292 3.4956 0
M  V30 11540 C 1053.83 -3.81074 3.62863 0
M  V30 11541 O 1052.86 -3.66633 4.35395 0
M  V30 11542 N 1054.06 -4.97923 2.98418 0
M  V30 11543 H 1056.82 -0.911043 2.85517 0
M  V30 11544 H 1054.38 -0.351533 1.58038 0
M  V30 11545 H 1056.38 -3.36749 2.24461 0
M  V30 11546 H 1054.95 -2.82969 1.32844 0
M  V30 11547 H 1054.17 -1.71418 3.54978 0
M  V30 11548 H 1055.45 -2.62409 4.35911 0
M  V30 11549 H 1054.85 -5.12557 2.39378 0
M  V30 11550 H 1053.41 -5.73277 3.10155 0
M  V30 11551 N 1056.84 -1.516 -0.430713 0
M  V30 11552 C 1057.77 -1.69594 -1.54177 0
M  V30 11553 C 1058.79 -0.576518 -1.5225 0
M  V30 11554 O 1059.98 -0.85104 -1.56906 0
M  V30 11555 C 1057.08 -1.70148 -2.93092 0
M  V30 11556 C 1056.25 -2.98782 -3.1945 0
M  V30 11557 C 1055.31 -2.91435 -4.38123 0
M  V30 11558 O 1054.33 -3.65372 -4.36454 0
M  V30 11559 N 1055.54 -2.0774 -5.42056 0
M  V30 11560 H 1058.3 -2.65442 -1.39143 0
M  V30 11561 H 1055.86 -1.49569 -0.61974 0
M  V30 11562 H 1057.85 -1.62793 -3.70514 0
M  V30 11563 H 1056.42 -0.818667 -3.0169 0
M  V30 11564 H 1055.64 -3.19954 -2.30267 0
M  V30 11565 H 1056.93 -3.83919 -3.33892 0
M  V30 11566 H 1056.33 -1.47059 -5.46251 0
M  V30 11567 H 1054.89 -2.06259 -6.18305 0
M  V30 11568 N 1058.32 0.686584 -1.41858 0
M  V30 11569 C 1059.27 1.80038 -1.44413 0
M  V30 11570 C 1060.24 1.63415 -0.297427 0
M  V30 11571 O 1061.42 1.84138 -0.499789 0
M  V30 11572 C 1058.56 3.17988 -1.34082 0
M  V30 11573 C 1057.67 3.45979 -2.58693 0
M  V30 11574 C 1056.81 4.73592 -2.4059 0
M  V30 11575 C 1055.85 4.94581 -3.60633 0
M  V30 11576 N 1054.99 6.13426 -3.41545 0
M  V30 11577 H 1059.83 1.77189 -2.396 0
M  V30 11578 H 1057.36 0.865158 -1.18968 0
M  V30 11579 H 1059.32 3.97689 -1.26092 0
M  V30 11580 H 1057.95 3.1999 -0.424975 0
M  V30 11581 H 1057 2.60617 -2.77097 0
M  V30 11582 H 1058.31 3.57386 -3.47961 0
M  V30 11583 H 1057.47 5.61364 -2.30119 0
M  V30 11584 H 1056.21 4.64448 -1.48794 0
M  V30 11585 H 1055.21 4.05254 -3.71549 0
M  V30 11586 H 1056.44 5.05578 -4.53395 0
M  V30 11587 H 1054.38 6.05477 -2.52456 0
M  V30 11588 H 1054.3 6.25641 -4.24393 0
M  V30 11589 H 1055.57 7.03908 -3.34864 0
M  V30 11590 N 1059.8 1.27835 0.921735 0
M  V30 11591 C 1060.71 1.12904 2.05645 0
M  V30 11592 C 1061.72 0.0575704 1.73905 0
M  V30 11593 O 1062.9 0.265261 1.99645 0
M  V30 11594 C 1059.96 0.783957 3.3772 0
M  V30 11595 C 1059.03 1.93694 3.8312 0
M  V30 11596 C 1058.26 1.60823 5.08893 0
M  V30 11597 O 1058.48 0.518873 5.68035 0
M  V30 11598 O 1057.42 2.44932 5.49811 0
M  V30 11599 H 1061.24 2.08143 2.21157 0
M  V30 11600 H 1058.83 1.07078 1.04185 0
M  V30 11601 H 1060.71 0.605107 4.17033 0
M  V30 11602 H 1059.38 -0.138849 3.23402 0
M  V30 11603 H 1058.29 2.17089 3.04669 0
M  V30 11604 H 1059.62 2.84016 4.0199 0
M  V30 11605 N 1061.28 -1.12907 1.09954 0
M  V30 11606 C 1062.21 -2.20585 0.765799 0
M  V30 11607 C 1063.19 -1.68117 -0.258989 0
M  V30 11608 O 1064.37 -1.93792 -0.125853 0
M  V30 11609 C 1061.5 -3.46772 0.191435 0
M  V30 11610 C 1060.46 -4.12363 1.14635 0
M  V30 11611 C 1059.78 -5.3294 0.433426 0
M  V30 11612 C 1061.08 -4.59073 2.49096 0
M  V30 11613 H 1062.78 -2.48759 1.66612 0
M  V30 11614 H 1060.32 -1.19563 0.802534 0
M  V30 11615 H 1062.27 -4.21365 -0.0541535 0
M  V30 11616 H 1061 -3.18011 -0.744101 0
M  V30 11617 H 1059.66 -3.39744 1.37731 0
M  V30 11618 H 1059.31 -5.00444 -0.506422 0
M  V30 11619 H 1059.01 -5.77772 1.07018 0
M  V30 11620 H 1060.53 -6.10284 0.196267 0
M  V30 11621 H 1061.94 -5.25063 2.30177 0
M  V30 11622 H 1060.34 -5.14665 3.0861 0
M  V30 11623 H 1061.41 -3.73313 3.0946 0
M  V30 11624 N 1062.75 -0.88754 -1.30232 0
M  V30 11625 C 1064.17 -0.581904 -1.48614 0
M  V30 11626 C 1064.37 0.879711 -1.81282 0
M  V30 11627 O 1063.43 1.66076 -1.90198 0
M  V30 11628 C 1064.74 -1.49726 -2.60773 0
M  V30 11629 C 1066.29 -1.50117 -2.74653 0
M  V30 11630 C 1066.76 -2.40251 -3.89927 0
M  V30 11631 N 1068.25 -2.38229 -3.97242 0
M  V30 11632 C 1068.99 -3.04682 -4.85754 0
M  V30 11633 N 1068.48 -3.80369 -5.79043 0
M  V30 11634 N 1070.28 -2.93901 -4.79144 0
M  V30 11635 H 1062.43 -1.83304 -1.073 0
M  V30 11636 H 1064.69 -0.78477 -0.531826 0
M  V30 11637 H 1064.4 -2.5381 -2.43462 0
M  V30 11638 H 1064.27 -1.20874 -3.57308 0
M  V30 11639 H 1066.66 -0.467832 -2.91368 0
M  V30 11640 H 1066.74 -1.83001 -1.7873 0
M  V30 11641 H 1066.38 -3.43671 -3.73969 0
M  V30 11642 H 1066.31 -2.04682 -4.85194 0
M  V30 11643 H 1068.8 -1.83229 -3.30508 0
M  V30 11644 H 1069.12 -4.28159 -6.4335 0
M  V30 11645 H 1067.46 -3.84477 -5.78967 0
M  V30 11646 H 1070.65 -2.34296 -4.05245 0
M  V30 11647 H 1070.83 -3.45967 -5.47915 0
M  V30 11648 N 1064.23 1.43628 -0.648757 0
M  V30 11649 C 1065.18 2.32529 0.057536 0
M  V30 11650 C 1066.17 1.48358 0.817699 0
M  V30 11651 O 1067.38 1.64595 0.728605 0
M  V30 11652 H 1063.76 0.75107 0.037388 0
M  V30 11653 H 1065.73 2.89829 -0.710062 0
M  V30 11654 C 1064.48 3.32605 1.01336 0
M  V30 11655 H 1063.8 3.97395 0.437855 0
M  V30 11656 H 1065.24 3.97453 1.47672 0
M  V30 11657 C 1063.7 2.62865 2.10722 0
M  V30 11658 O 1064.23 2.4408 3.19042 0
M  V30 11659 N 1062.43 2.22312 1.87152 0
M  V30 11660 H 1061.98 2.3779 0.990644 0
M  V30 11661 H 1061.94 1.75979 2.60536 0
M  V30 11662 N 1065.71 0.390394 1.52688 0
M  V30 11663 C 1066.64 -0.479319 2.24132 0
M  V30 11664 C 1067.66 -1.0258 1.26416 0
M  V30 11665 O 1068.84 -0.927943 1.52484 0
M  V30 11666 C 1065.94 -1.67711 2.94493 0
M  V30 11667 C 1065.12 -1.2578 4.18925 0
M  V30 11668 C 1064.18 -2.3204 4.72275 0
M  V30 11669 O 1063.2 -1.93402 5.35336 0
M  V30 11670 N 1064.4 -3.63967 4.52226 0
M  V30 11671 H 1067.17 0.132777 2.99406 0
M  V30 11672 H 1064.73 0.216807 1.60442 0
M  V30 11673 H 1066.72 -2.38323 3.27084 0
M  V30 11674 H 1065.29 -2.19552 2.22521 0
M  V30 11675 H 1064.51 -0.380528 3.92359 0
M  V30 11676 H 1065.8 -0.954329 4.9977 0
M  V30 11677 H 1065.2 -3.98119 4.01892 0
M  V30 11678 H 1063.76 -4.30611 4.89303 0
M  V30 11679 N 1067.19 -1.57141 0.120249 0
M  V30 11680 C 1068.44 -1.94852 -0.536387 0
M  V30 11681 C 1068.76 -1.00452 -1.67136 0
M  V30 11682 O 1068.03 -0.061053 -1.95805 0
M  V30 11683 H 1066.61 -0.719411 -0.201138 0
M  V30 11684 H 1069.27 -1.93977 0.189482 0
M  V30 11685 H 1068.37 -2.97917 -0.930145 0
M  V30 11686 N 1068.67 0.153526 -1.5685 0
M  V30 11687 C 1069.89 0.886343 -1.87507 0
M  V30 11688 C 1070.32 1.74244 -0.708565 0
M  V30 11689 O 1069.67 1.78045 0.341997 0
M  V30 11690 C 1069.72 1.72428 -3.16703 0
M  V30 11691 O 1068.83 2.82784 -3.00178 0
M  V30 11692 H 1068.17 0.247259 -0.616246 0
M  V30 11693 H 1070.7 0.146306 -2.04076 0
M  V30 11694 H 1070.71 2.12062 -3.4856 0
M  V30 11695 H 1069.38 1.09558 -4.01211 0
M  V30 11696 H 1067.96 2.46604 -2.79716 0
M  V30 11697 N 1070.14 1.51827 0.422667 0
M  V30 11698 C 1071.37 1.69049 1.1929 0
M  V30 11699 C 1071.79 0.394095 1.84641 0
M  V30 11700 O 1071.14 -0.628731 1.71328 0
M  V30 11701 C 1071.2 2.81657 2.26609 0
M  V30 11702 O 1070.92 4.06275 1.63929 0
M  V30 11703 C 1072.42 3.10274 3.16615 0
M  V30 11704 H 1069.64 0.566894 0.358988 0
M  V30 11705 H 1072.18 1.98318 0.499029 0
M  V30 11706 H 1070.34 2.54945 2.91688 0
M  V30 11707 H 1070.75 4.68924 2.3497 0
M  V30 11708 H 1072.22 3.92613 3.88019 0
M  V30 11709 H 1072.7 2.23273 3.78214 0
M  V30 11710 H 1073.31 3.387 2.57221 0
M  V30 11711 N 1071.62 -0.679052 1.4222 0
M  V30 11712 C 1072.55 -1.80455 1.41311 0
M  V30 11713 C 1073.57 -1.59767 0.312799 0
M  V30 11714 O 1074.76 -1.68964 0.575612 0
M  V30 11715 C 1071.86 -3.17492 1.18541 0
M  V30 11716 C 1071.03 -3.65066 2.40926 0
M  V30 11717 C 1070.09 -4.80823 2.13765 0
M  V30 11718 O 1069.11 -4.91587 2.86934 0
M  V30 11719 N 1070.32 -5.69233 1.13813 0
M  V30 11720 H 1073.08 -1.81722 2.38322 0
M  V30 11721 H 1070.64 -0.861988 1.37045 0
M  V30 11722 H 1072.63 -3.92581 0.982958 0
M  V30 11723 H 1071.2 -3.1115 0.300691 0
M  V30 11724 H 1070.42 -2.80702 2.76767 0
M  V30 11725 H 1071.71 -3.93593 3.22431 0
M  V30 11726 H 1071.11 -5.63185 0.532887 0
M  V30 11727 H 1069.67 -6.44152 0.995554 0
M  V30 11728 N 1073.1 -1.28322 -0.914942 0
M  V30 11729 C 1074.35 -1.15179 -1.66067 0
M  V30 11730 C 1074.67 0.300279 -1.92674 0
M  V30 11731 O 1073.94 1.20821 -1.54205 0
M  V30 11732 H 1072.52 -0.423264 -0.615513 0
M  V30 11733 H 1075.18 -1.61034 -1.09791 0
M  V30 11734 H 1074.28 -1.69048 -2.62353 0
M  V30 11735 N 1074.58 1.12322 -1.10551 0
M  V30 11736 C 1075.86 1.80201 -0.760715 0
M  V30 11737 C 1076.24 1.97228 0.752628 0
M  V30 11738 O 1075.58 1.54958 1.67929 0
M  V30 11739 C 1075.79 3.14491 -1.51316 0
M  V30 11740 C 1077.14 3.89671 -1.68647 0
M  V30 11741 O 1078.17 3.24151 -1.47664 0
M  V30 11742 O 1077.02 5.0722 -2.03445 0
M  V30 11743 H 1074.12 0.780084 -0.274587 0
M  V30 11744 H 1076.66 1.19147 -1.20839 0
M  V30 11745 H 1075.44 2.97396 -2.54306 0
M  V30 11746 H 1075.06 3.83253 -1.05842 0
M  V30 11747 N 1076.06 0.894434 1.2976 0
M  V30 11748 C 1077.47 0.566892 1.77885 0
M  V30 11749 C 1077.82 -0.917289 1.73437 0
M  V30 11750 O 1076.94 -1.71707 1.31703 0
M  V30 11751 C 1077.54 1.02227 3.2301 0
M  V30 11752 C 1076.1 0.745978 3.68934 0
M  V30 11753 C 1075.24 1.19993 2.49994 0
M  V30 11754 H 1078.2 1.0777 1.16496 0
M  V30 11755 H 1078.22 0.355281 3.78838 0
M  V30 11756 H 1077.73 2.1025 3.26215 0
M  V30 11757 H 1075.83 -0.321866 3.71207 0
M  V30 11758 H 1075.94 1.34017 4.59974 0
M  V30 11759 H 1074.31 0.619047 2.47063 0
M  V30 11760 H 1075.09 2.28811 2.55931 0
M  V30 11761 N 1077.53 -1.43282 0.656365 0
M  V30 11762 C 1078.44 -2.34576 -0.033864 0
M  V30 11763 C 1079.46 -1.5406 -0.808793 0
M  V30 11764 O 1080.64 -1.867 -0.755322 0
M  V30 11765 C 1077.7 -3.32378 -0.986197 0
M  V30 11766 C 1076.76 -4.28797 -0.207851 0
M  V30 11767 C 1076 -5.21927 -1.11482 0
M  V30 11768 O 1076.22 -5.19554 -2.35414 0
M  V30 11769 O 1075.15 -5.99045 -0.585536 0
M  V30 11770 H 1078.98 -2.95099 0.717668 0
M  V30 11771 H 1076.56 -1.43475 0.416556 0
M  V30 11772 H 1078.45 -3.9251 -1.53341 0
M  V30 11773 H 1077.12 -2.74354 -1.7179 0
M  V30 11774 H 1076.03 -3.72134 0.383022 0
M  V30 11775 H 1077.36 -4.89811 0.48435 0
M  V30 11776 N 1079.01 -0.398486 -1.52479 0
M  V30 11777 C 1080.43 -0.0488635 -1.59525 0
M  V30 11778 C 1080.63 1.43756 -1.41197 0
M  V30 11779 O 1079.69 2.20317 -1.23357 0
M  V30 11780 C 1081 -0.534262 -2.95916 0
M  V30 11781 C 1082.55 -0.491314 -3.0912 0
M  V30 11782 C 1083.02 -0.953049 -4.47974 0
M  V30 11783 N 1084.51 -0.909434 -4.54184 0
M  V30 11784 C 1085.25 -1.23801 -5.59876 0
M  V30 11785 N 1084.74 -1.63752 -6.73169 0
M  V30 11786 N 1086.54 -1.15867 -5.50028 0
M  V30 11787 H 1078.69 -1.36608 -1.62641 0
M  V30 11788 H 1080.95 -0.560515 -0.764544 0
M  V30 11789 H 1080.66 -1.57277 -3.14574 0
M  V30 11790 H 1080.53 0.0617787 -3.77149 0
M  V30 11791 H 1082.92 0.538123 -2.90152 0
M  V30 11792 H 1083 -1.12327 -2.29818 0
M  V30 11793 H 1082.64 -1.98076 -4.67684 0
M  V30 11794 H 1082.57 -0.298007 -5.25756 0
M  V30 11795 H 1085.06 -0.615569 -3.72853 0
M  V30 11796 H 1085.38 -1.87163 -7.49793 0
M  V30 11797 H 1083.72 -1.67647 -6.74477 0
M  V30 11798 H 1086.91 -0.845502 -4.60401 0
M  V30 11799 H 1087.09 -1.41805 -6.32294 0
M  V30 11800 N 1080.49 1.57075 -0.12858 0
M  V30 11801 C 1081.44 2.17084 0.835308 0
M  V30 11802 C 1082.43 1.12268 1.26855 0
M  V30 11803 O 1083.64 1.30554 1.23917 0
M  V30 11804 H 1080.01 0.694866 0.287516 0
M  V30 11805 H 1081.99 2.96839 0.304798 0
M  V30 11806 C 1080.73 2.79237 2.07177 0
M  V30 11807 H 1080.06 3.59594 1.74735 0
M  V30 11808 H 1081.5 3.24751 2.72604 0
M  V30 11809 C 1079.96 1.76803 2.86779 0
M  V30 11810 O 1080.49 1.22723 3.82494 0
M  V30 11811 N 1078.69 1.46525 2.50956 0
M  V30 11812 H 1078.24 1.90694 1.73187 0
M  V30 11813 H 1078.2 0.782326 3.04511 0
M  V30 11814 N 1081.97 -0.145205 1.5693 0
M  V30 11815 C 1082.9 -1.20438 1.95006 0
M  V30 11816 C 1083.91 -1.39085 0.846114 0
M  V30 11817 O 1085.1 -1.38625 1.12452 0
M  V30 11818 C 1082.2 -2.56892 2.21043 0
M  V30 11819 C 1081.38 -2.59197 3.52329 0
M  V30 11820 C 1080.44 -3.77204 3.66884 0
M  V30 11821 O 1079.46 -3.61995 4.39259 0
M  V30 11822 N 1080.66 -4.9473 3.03682 0
M  V30 11823 H 1083.43 -0.880709 2.86467 0
M  V30 11824 H 1080.99 -0.334751 1.58401 0
M  V30 11825 H 1082.98 -3.34349 2.2802 0
M  V30 11826 H 1081.55 -2.81544 1.35838 0
M  V30 11827 H 1080.77 -1.67644 3.56776 0
M  V30 11828 H 1082.06 -2.57771 4.3867 0
M  V30 11829 H 1081.46 -5.09989 2.44801 0
M  V30 11830 H 1080.01 -5.69956 3.16218 0
M  V30 11831 N 1083.45 -1.52049 -0.414609 0
M  V30 11832 C 1084.38 -1.77956 -1.51175 0
M  V30 11833 C 1085.36 -0.630282 -1.57992 0
M  V30 11834 O 1086.54 -0.875324 -1.73354 0
M  V30 11835 C 1083.67 -1.92527 -2.89051 0
M  V30 11836 C 1082.63 -3.08096 -2.97087 0
M  V30 11837 C 1081.95 -3.07882 -4.37164 0
M  V30 11838 C 1083.25 -4.47656 -2.69075 0
M  V30 11839 H 1084.95 -2.69827 -1.29746 0
M  V30 11840 H 1082.49 -1.29839 -0.62273 0
M  V30 11841 H 1084.45 -2.09234 -3.65786 0
M  V30 11842 H 1083.17 -0.973235 -3.11762 0
M  V30 11843 H 1081.83 -2.91131 -2.22797 0
M  V30 11844 H 1081.48 -2.10411 -4.56877 0
M  V30 11845 H 1081.18 -3.85501 -4.43467 0
M  V30 11846 H 1082.7 -3.26712 -5.15841 0
M  V30 11847 H 1084.12 -4.64855 -3.35534 0
M  V30 11848 H 1082.51 -5.27151 -2.8676 0
M  V30 11849 H 1083.58 -4.56129 -1.64544 0
M  V30 11850 N 1084.93 0.6715 -1.42579 0
M  V30 11851 C 1085.86 1.79703 -1.42266 0
M  V30 11852 C 1086.87 1.59599 -0.321268 0
M  V30 11853 O 1088.06 1.68657 -0.584564 0
M  V30 11854 C 1085.16 3.16859 -1.20224 0
M  V30 11855 C 1084.33 3.63783 -2.42859 0
M  V30 11856 C 1083.39 4.79683 -2.16312 0
M  V30 11857 O 1082.42 4.90058 -2.89537 0
M  V30 11858 N 1083.62 5.68622 -1.16831 0
M  V30 11859 H 1086.38 1.80455 -2.39282 0
M  V30 11860 H 1083.95 0.854708 -1.375 0
M  V30 11861 H 1085.94 3.92054 -1.00376 0
M  V30 11862 H 1084.51 3.10987 -0.317188 0
M  V30 11863 H 1083.73 2.7923 -2.78252 0
M  V30 11864 H 1085.02 3.91877 -3.24514 0
M  V30 11865 H 1084.41 5.62894 -0.562746 0
M  V30 11866 H 1082.97 6.43615 -1.0297 0
M  V30 11867 N 1086.4 1.28806 0.908124 0
M  V30 11868 C 1087.65 1.1646 1.66027 0
M  V30 11869 C 1087.98 -0.285025 1.92097 0
M  V30 11870 O 1087.26 -1.20675 1.52538 0
M  V30 11871 C 1087.54 1.96951 3.01467 0
M  V30 11872 C 1087.39 3.50007 2.82515 0
M  V30 11873 C 1088.71 1.78932 4.02084 0
M  V30 11874 H 1085.83 0.424435 0.602515 0
M  V30 11875 H 1088.47 1.58185 1.0525 0
M  V30 11876 H 1086.62 1.61495 3.53344 0
M  V30 11877 H 1088.3 3.95401 2.37605 0
M  V30 11878 H 1086.54 3.75356 2.17463 0
M  V30 11879 H 1087.21 4.01591 3.7872 0
M  V30 11880 H 1089.69 2.09885 3.59287 0
M  V30 11881 H 1088.56 2.37615 4.94803 0
M  V30 11882 H 1088.82 0.742286 4.35824 0
M  V30 11883 N 1087.88 -1.11734 1.11145 0
M  V30 11884 C 1088.79 -2.21267 0.779607 0
M  V30 11885 C 1089.81 -1.72526 -0.225986 0
M  V30 11886 O 1090.98 -2.01302 -0.0629166 0
M  V30 11887 C 1088.05 -3.45973 0.22435 0
M  V30 11888 C 1087.11 -4.09518 1.28816 0
M  V30 11889 C 1086.34 -5.28271 0.7593 0
M  V30 11890 O 1086.57 -5.68912 -0.411725 0
M  V30 11891 O 1085.5 -5.82322 1.52266 0
M  V30 11892 H 1089.33 -2.5206 1.6941 0
M  V30 11893 H 1086.91 -1.20211 0.887115 0
M  V30 11894 H 1088.79 -4.21322 -0.0810921 0
M  V30 11895 H 1087.47 -3.1684 -0.662891 0
M  V30 11896 H 1086.37 -3.35915 1.64657 0
M  V30 11897 H 1087.71 -4.42824 2.14868 0
M  V30 11898 N 1089.36 -0.901303 -1.29284 0
M  V30 11899 C 1090.58 -0.542823 -2.0017 0
M  V30 11900 C 1091.01 0.865583 -1.67001 0
M  V30 11901 O 1090.37 1.5764 -0.895502 0
M  V30 11902 C 1090.42 -0.743987 -3.52842 0
M  V30 11903 O 1089.52 0.202771 -4.11901 0
M  V30 11904 H 1088.86 -0.211903 -0.62928 0
M  V30 11905 H 1091.39 -1.21333 -1.64741 0
M  V30 11906 H 1091.4 -0.64926 -4.02801 0
M  V30 11907 H 1090.08 -1.77077 -3.7632 0
M  V30 11908 H 1088.65 0.0603637 -3.72851 0
M  V30 11909 N 1090.84 1.42931 -0.663954 0
M  V30 11910 C 1092.25 1.56098 -0.332496 0
M  V30 11911 C 1092.45 1.64564 1.16279 0
M  V30 11912 O 1091.51 1.6066 1.94794 0
M  V30 11913 C 1092.82 2.81649 -1.05329 0
M  V30 11914 C 1094.37 2.95408 -1.03457 0
M  V30 11915 C 1094.85 4.23805 -1.73647 0
M  V30 11916 N 1096.34 4.30693 -1.70462 0
M  V30 11917 C 1097.07 5.28833 -2.21637 0
M  V30 11918 N 1096.57 6.33189 -2.81147 0
M  V30 11919 N 1098.36 5.20558 -2.12075 0
M  V30 11920 H 1090.51 1.3568 -1.63416 0
M  V30 11921 H 1092.77 0.652361 -0.687844 0
M  V30 11922 H 1092.48 2.81494 -2.10842 0
M  V30 11923 H 1092.35 3.72208 -0.611626 0
M  V30 11924 H 1094.74 2.95097 0.0121936 0
M  V30 11925 H 1094.82 2.06109 -1.51502 0
M  V30 11926 H 1094.47 4.24876 -2.78285 0
M  V30 11927 H 1094.4 5.12019 -1.2306 0
M  V30 11928 H 1096.89 3.55904 -1.27046 0
M  V30 11929 H 1097.2 7.04411 -3.17844 0
M  V30 11930 H 1095.55 6.33781 -2.85212 0
M  V30 11931 H 1098.74 4.3795 -1.6528 0
M  V30 11932 H 1098.91 5.96881 -2.52264 0
M  V30 11933 N 1092.32 0.406567 1.52266 0
M  V30 11934 C 1093.54 -0.172101 2.06685 0
M  V30 11935 C 1093.97 -1.38306 1.27488 0
M  V30 11936 O 1093.32 -1.78726 0.304441 0
M  V30 11937 C 1093.37 -0.503463 3.57068 0
M  V30 11938 O 1092.48 -1.59485 3.80314 0
M  V30 11939 H 1091.82 -0.0153209 0.663823 0
M  V30 11940 H 1094.35 0.579025 1.96236 0
M  V30 11941 H 1094.36 -0.762833 4.00805 0
M  V30 11942 H 1093.03 0.381775 4.14144 0
M  V30 11943 H 1091.61 -1.32784 3.48458 0
M  V30 11944 N 1093.79 -1.57004 0.136909 0
M  V30 11945 C 1094.72 -2.19262 -0.802902 0
M  V30 11946 C 1095.71 -1.13786 -1.26439 0
M  V30 11947 O 1096.89 -1.42091 -1.32377 0
M  V30 11948 C 1094.02 -2.80624 -2.04615 0
M  V30 11949 C 1092.97 -3.91839 -1.72181 0
M  V30 11950 C 1092.3 -4.4009 -3.03686 0
M  V30 11951 C 1093.6 -5.13095 -0.976249 0
M  V30 11952 H 1095.29 -2.98049 -0.28406 0
M  V30 11953 H 1092.84 -1.43364 -0.135189 0
M  V30 11954 H 1094.79 -3.22842 -2.70834 0
M  V30 11955 H 1093.52 -1.99153 -2.58855 0
M  V30 11956 H 1092.18 -3.50224 -1.08344 0
M  V30 11957 H 1091.82 -3.55454 -3.55896 0
M  V30 11958 H 1091.52 -5.15098 -2.82751 0
M  V30 11959 H 1093.05 -4.84971 -3.70993 0
M  V30 11960 H 1094.46 -5.5222 -1.54033 0
M  V30 11961 H 1092.86 -5.93801 -0.867214 0
M  V30 11962 H 1093.93 -4.84888 0.0338488 0
M  V30 11963 N 1095.27 0.136881 -1.57004 0
M  V30 11964 C 1096.2 1.19402 -1.95642 0
M  V30 11965 C 1097.22 1.38635 -0.853478 0
M  V30 11966 O 1098.41 1.38027 -1.13185 0
M  V30 11967 C 1095.51 2.55716 -2.22402 0
M  V30 11968 C 1094.68 2.57325 -3.53698 0
M  V30 11969 C 1093.74 3.75253 -3.68879 0
M  V30 11970 O 1092.76 3.5966 -4.41173 0
M  V30 11971 N 1093.97 4.93112 -3.06302 0
M  V30 11972 H 1096.73 0.865504 -2.8693 0
M  V30 11973 H 1094.29 0.326346 -1.58577 0
M  V30 11974 H 1096.28 3.33135 -2.29789 0
M  V30 11975 H 1094.85 2.80819 -1.37329 0
M  V30 11976 H 1094.07 1.65749 -3.5766 0
M  V30 11977 H 1095.36 2.55441 -4.40031 0
M  V30 11978 H 1094.76 5.08684 -2.47502 0
M  V30 11979 H 1093.32 5.68271 -3.19236 0
M  V30 11980 N 1096.75 1.52266 0.40654 0
M  V30 11981 C 1097.7 1.76409 1.516 0
M  V30 11982 C 1098.69 0.631311 1.57197 0
M  V30 11983 O 1099.9 0.813413 1.60573 0
M  V30 11984 H 1096.27 0.557904 0.50423 0
M  V30 11985 H 1098.24 2.69351 1.28424 0
M  V30 11986 C 1096.99 1.93415 2.88939 0
M  V30 11987 H 1096.32 2.8 2.85377 0
M  V30 11988 H 1097.76 2.14306 3.65854 0
M  V30 11989 C 1096.22 0.701938 3.29506 0
M  V30 11990 O 1096.75 -0.128965 4.01493 0
M  V30 11991 N 1094.95 0.537089 2.85594 0
M  V30 11992 H 1094.5 1.21435 2.27181 0
M  V30 11993 H 1094.46 -0.286055 3.13096 0
M  V30 11994 N 1098.23 -0.663929 1.42933 0
M  V30 11995 C 1099.48 -1.42111 1.43697 0
M  V30 11996 C 1099.8 -1.94913 0.0583858 0
M  V30 11997 O 1099.07 -1.73757 -0.904719 0
M  V30 11998 H 1097.65 -0.527391 0.529026 0
M  V30 11999 H 1100.31 -0.783766 1.78446 0
M  V30 12000 H 1099.41 -2.26877 2.1432 0
M  V30 12001 N 1099.71 -1.29285 -0.901281 0
M  V30 12002 C 1100.67 -1.14283 -1.98676 0
M  V30 12003 C 1101.67 -0.0787641 -1.60607 0
M  V30 12004 O 1102.86 -0.325574 -1.71131 0
M  V30 12005 C 1099.99 -0.747279 -3.32609 0
M  V30 12006 H 1101.18 -2.10701 -2.13413 0
M  V30 12007 H 1098.74 -1.12449 -1.08558 0
M  V30 12008 H 1099.47 0.217111 -3.23572 0
M  V30 12009 H 1099.26 -1.51608 -3.61604 0
M  V30 12010 H 1100.75 -0.665322 -4.12266 0
M  V30 12011 N 1101.18 1.11143 -1.11736 0
M  V30 12012 C 1102.41 1.87285 -0.891007 0
M  V30 12013 C 1102.83 1.79758 0.553971 0
M  V30 12014 O 1102.19 1.16221 1.39149 0
M  V30 12015 C 1102.24 3.33924 -1.36114 0
M  V30 12016 O 1101.34 4.08917 -0.534851 0
M  V30 12017 H 1100.69 0.581418 -0.320701 0
M  V30 12018 H 1103.22 1.40469 -1.4876 0
M  V30 12019 H 1103.23 3.84772 -1.35701 0
M  V30 12020 H 1101.9 3.38719 -2.41334 0
M  V30 12021 H 1100.48 3.67954 -0.605355 0
M  V30 12022 N 1102.66 0.908147 1.28804 0
M  V30 12023 C 1103.91 0.534332 1.94494 0
M  V30 12024 C 1104.22 -0.92552 1.72318 0
M  V30 12025 O 1105.43 -1.40724 2.32183 0
M  V30 12026 C 1103.89 0.904748 3.48342 0
M  V30 12027 C 1103.49 2.38394 3.79305 0
M  V30 12028 C 1105.24 0.601249 4.2022 0
M  V30 12029 C 1103.15 2.69478 5.26437 0
M  V30 12030 H 1102.08 0.196107 0.728051 0
M  V30 12031 H 1104.73 1.1063 1.46401 0
M  V30 12032 H 1103.11 0.261624 3.95135 0
M  V30 12033 H 1104.28 3.07333 3.43341 0
M  V30 12034 H 1102.6 2.65733 3.20586 0
M  V30 12035 H 1105.19 0.810225 5.28526 0
M  V30 12036 H 1105.54 -0.460669 4.13743 0
M  V30 12037 H 1106.07 1.20259 3.79187 0
M  V30 12038 H 1102.81 3.74501 5.37986 0
M  V30 12039 H 1102.33 2.05171 5.63618 0
M  V30 12040 H 1104.01 2.56187 5.94119 0
M  V30 12041 N 1104.14 -1.42577 0.671525 0
M  V30 12042 C 1105.37 -2.05924 0.200731 0
M  V30 12043 C 1105.78 -1.50434 -1.14083 0
M  V30 12044 O 1105.14 -0.642845 -1.70803 0
M  V30 12045 C 1105.19 -3.61289 0.123505 0
M  V30 12046 O 1104.91 -4.1472 1.41205 0
M  V30 12047 C 1106.41 -4.41743 -0.371178 0
M  V30 12048 H 1103.63 -0.663746 0.0983958 0
M  V30 12049 H 1106.18 -1.82771 0.917338 0
M  V30 12050 H 1104.33 -3.83565 -0.543769 0
M  V30 12051 H 1104.75 -5.0856 1.28325 0
M  V30 12052 H 1106.22 -5.50731 -0.374128 0
M  V30 12053 H 1106.7 -4.16092 -1.40585 0
M  V30 12054 H 1107.3 -4.24478 0.264244 0
M  V30 12055 N 1105.62 -0.414636 -1.52048 0
M  V30 12056 C 1106.87 0.159034 -2.01473 0
M  V30 12057 C 1107.19 1.45176 -1.30188 0
M  V30 12058 O 1106.46 1.91134 -0.429469 0
M  V30 12059 H 1105.04 0.0617604 -0.744443 0
M  V30 12060 H 1107.7 -0.552141 -1.86916 0
M  V30 12061 H 1106.8 0.351217 -3.10118 0
M  V30 12062 N 1107.1 1.56929 -0.145233 0
M  V30 12063 C 1108.32 2.00431 0.513314 0
M  V30 12064 C 1108.74 1.0253 1.58534 0
M  V30 12065 O 1108.1 0.0220459 1.82487 0
M  V30 12066 C 1108.15 3.43856 1.11557 0
M  V30 12067 O 1107.87 4.38015 0.0863707 0
M  V30 12068 C 1109.37 4.02627 1.8549 0
M  V30 12069 H 1106.59 0.657529 0.133778 0
M  V30 12070 H 1109.13 2.03095 -0.239296 0
M  V30 12071 H 1107.29 3.4205 1.81881 0
M  V30 12072 H 1107.7 5.21842 0.527363 0
M  V30 12073 H 1109.18 5.04985 2.22923 0
M  V30 12074 H 1109.65 3.43239 2.74014 0
M  V30 12075 H 1110.26 4.08058 1.19869 0
M  V30 12076 N 1108.58 -0.128553 1.57075 0
M  V30 12077 C 1109.8 -0.8564 1.88893 0
M  V30 12078 C 1110.23 -1.73095 0.736196 0
M  V30 12079 O 1109.58 -1.78567 -0.313629 0
M  V30 12080 C 1109.63 -1.67368 3.19406 0
M  V30 12081 O 1108.74 -2.77973 3.04639 0
M  V30 12082 H 1108.08 -0.237424 0.620102 0
M  V30 12083 H 1110.61 -0.113821 2.04283 0
M  V30 12084 H 1110.62 -2.0649 3.51889 0
M  V30 12085 H 1109.29 -1.03161 4.02903 0
M  V30 12086 H 1107.87 -2.42123 2.83603 0
M  V30 12087 N 1110.05 -1.5248 -0.398459 0
M  V30 12088 C 1111.3 -1.67309 -1.1461 0
M  V30 12089 C 1111.63 -0.407095 -1.89885 0
M  V30 12090 O 1110.91 0.594834 -1.85181 0
M  V30 12091 C 1111.19 -2.90204 -2.13198 0
M  V30 12092 C 1111.04 -4.26881 -1.4175 0
M  V30 12093 C 1112.36 -3.08634 -3.13741 0
M  V30 12094 H 1109.48 -0.608853 -0.415292 0
M  V30 12095 H 1112.12 -1.85057 -0.430573 0
M  V30 12096 H 1110.27 -2.75204 -2.74218 0
M  V30 12097 H 1111.95 -4.53631 -0.837676 0
M  V30 12098 H 1110.19 -4.27793 -0.719387 0
M  V30 12099 H 1110.86 -5.08939 -2.1374 0
M  V30 12100 H 1113.34 -3.22603 -2.62805 0
M  V30 12101 H 1112.21 -3.96117 -3.79977 0
M  V30 12102 H 1112.47 -2.22425 -3.82073 0
M  V30 12103 N 1111.53 0.65634 -1.43283 0
M  V30 12104 C 1112.78 1.41837 -1.44949 0
M  V30 12105 C 1113.11 1.94065 -0.0723212 0
M  V30 12106 O 1112.39 1.72092 0.906346 0
M  V30 12107 C 1112.67 2.60206 -2.48927 0
M  V30 12108 C 1112.52 2.1349 -3.95907 0
M  V30 12109 C 1113.84 3.62421 -2.49678 0
M  V30 12110 H 1110.96 0.514398 -0.527792 0
M  V30 12111 H 1113.6 0.74435 -1.74813 0
M  V30 12112 H 1111.75 3.17708 -2.23592 0
M  V30 12113 H 1113.42 1.61012 -4.32288 0
M  V30 12114 H 1111.67 1.4489 -4.08888 0
M  V30 12115 H 1112.34 2.98596 -4.64268 0
M  V30 12116 H 1114.81 3.14671 -2.72252 0
M  V30 12117 H 1113.69 4.42798 -3.24378 0
M  V30 12118 H 1113.95 4.14802 -1.52944 0
M  V30 12119 N 1113.01 1.29761 0.894412 0
M  V30 12120 C 1114.24 1.2094 1.67872 0
M  V30 12121 C 1114.65 -0.229192 1.87404 0
M  V30 12122 O 1114.01 -1.15278 1.41482 0
M  V30 12123 C 1114.06 1.92424 3.06032 0
M  V30 12124 O 1113.78 3.30665 2.87388 0
M  V30 12125 C 1115.28 1.90144 4.0045 0
M  V30 12126 H 1112.5 0.418942 0.524145 0
M  V30 12127 H 1115.05 1.71226 1.11813 0
M  V30 12128 H 1113.2 1.4596 3.58851 0
M  V30 12129 H 1113.62 3.66741 3.74969 0
M  V30 12130 H 1115.09 2.44716 4.94791 0
M  V30 12131 H 1115.57 0.878175 4.30331 0
M  V30 12132 H 1116.17 2.36375 3.53563 0
M  V30 12133 N 1114.49 -1.10549 1.12324 0
M  V30 12134 C 1115.73 -1.82755 0.879117 0
M  V30 12135 C 1116.07 -1.84905 -0.593604 0
M  V30 12136 O 1115.34 -1.30884 -1.43873 0
M  V30 12137 C 1115.62 -3.29481 1.45308 0
M  V30 12138 C 1115.48 -3.3567 2.99408 0
M  V30 12139 C 1116.8 -4.25828 1.11167 0
M  V30 12140 H 1113.92 -0.663513 0.32081 0
M  V30 12141 H 1116.56 -1.29572 1.38965 0
M  V30 12142 H 1114.71 -3.74902 1.01887 0
M  V30 12143 H 1116.38 -2.98739 3.515 0
M  V30 12144 H 1114.62 -2.75606 3.34998 0
M  V30 12145 H 1115.29 -4.38983 3.34661 0
M  V30 12146 H 1117.77 -3.88635 1.48667 0
M  V30 12147 H 1116.65 -5.26857 1.53991 0
M  V30 12148 H 1116.91 -4.42094 0.0237046 0
M  V30 12149 N 1115.97 -0.914965 -1.28321 0
M  V30 12150 C 1117.19 -0.564023 -1.99583 0
M  V30 12151 C 1117.62 0.847821 -1.6791 0
M  V30 12152 O 1116.97 1.56682 -0.912171 0
M  V30 12153 C 1117.02 -0.781368 -3.52033 0
M  V30 12154 O 1116.13 0.159072 -4.12093 0
M  V30 12155 H 1115.47 -0.218565 -0.626997 0
M  V30 12156 H 1118 -1.23074 -1.63444 0
M  V30 12157 H 1118.01 -0.691946 -4.0209 0
M  V30 12158 H 1116.68 -1.81059 -3.7442 0
M  V30 12159 H 1115.26 0.0208145 -3.72894 0
M  V30 12160 N 1117.44 1.42219 -0.679077 0
M  V30 12161 C 1118.38 2.29172 0.035583 0
M  V30 12162 C 1119.39 1.43909 0.761183 0
M  V30 12163 O 1120.58 1.67584 0.61463 0
M  V30 12164 C 1117.68 3.21426 1.07419 0
M  V30 12165 C 1116.85 4.35364 0.421547 0
M  V30 12166 C 1115.91 5.08307 1.36051 0
M  V30 12167 O 1114.94 5.62678 0.859186 0
M  V30 12168 N 1116.14 5.14222 2.69362 0
M  V30 12169 H 1118.9 2.91147 -0.710865 0
M  V30 12170 H 1116.46 1.53192 -0.523821 0
M  V30 12171 H 1118.46 3.67091 1.70371 0
M  V30 12172 H 1117.03 2.60873 1.72233 0
M  V30 12173 H 1116.25 3.9229 -0.387559 0
M  V30 12174 H 1117.53 5.08789 -0.0329421 0
M  V30 12175 H 1116.93 4.71467 3.12627 0
M  V30 12176 H 1115.49 5.63519 3.27551 0
M  V30 12177 N 1118.92 0.422693 1.51826 0
M  V30 12178 C 1120.17 -0.150066 2.01141 0
M  V30 12179 C 1120.48 -1.45059 1.31214 0
M  V30 12180 O 1121.69 -2.10542 1.71419 0
M  V30 12181 C 1120.15 -0.317985 3.58492 0
M  V30 12182 C 1119.75 0.971244 4.37345 0
M  V30 12183 C 1121.5 -0.845303 4.15999 0
M  V30 12184 C 1119.4 0.769769 5.86369 0
M  V30 12185 H 1118.33 -0.0598567 0.75162 0
M  V30 12186 H 1120.99 0.550217 1.75057 0
M  V30 12187 H 1119.37 -1.08092 3.80962 0
M  V30 12188 H 1120.54 1.74138 4.26629 0
M  V30 12189 H 1118.86 1.42599 3.91222 0
M  V30 12190 H 1121.45 -1.01229 5.2503 0
M  V30 12191 H 1121.8 -1.82375 3.74226 0
M  V30 12192 H 1122.33 -0.141067 3.9755 0
M  V30 12193 H 1119.07 1.72017 6.32527 0
M  V30 12194 H 1118.59 0.0391717 5.99787 0
M  V30 12195 H 1120.27 0.417225 6.45653 0
M  V30 12196 N 1120.4 -1.5685 0.153553 0
M  V30 12197 C 1121.63 -2.00701 -0.502678 0
M  V30 12198 C 1122.04 -1.0337 -1.57988 0
M  V30 12199 O 1121.4 -0.0317233 -1.82472 0
M  V30 12200 C 1121.45 -3.44443 -1.09732 0
M  V30 12201 O 1121.17 -4.38054 -0.0631405 0
M  V30 12202 C 1122.67 -4.03605 -1.83352 0
M  V30 12203 H 1119.89 -0.658229 -0.130289 0
M  V30 12204 H 1122.44 -2.02965 0.250063 0
M  V30 12205 H 1120.59 -3.43009 -1.80065 0
M  V30 12206 H 1121.01 -5.22114 -0.499681 0
M  V30 12207 H 1122.48 -5.0616 -2.20241 0
M  V30 12208 H 1122.96 -3.44687 -2.7219 0
M  V30 12209 H 1123.56 -4.08688 -1.17703 0
M  V30 12210 N 1121.88 0.120221 -1.57141 0
M  V30 12211 C 1123.29 0.677497 -1.73974 0
M  V30 12212 C 1123.64 1.80371 -0.772055 0
M  V30 12213 O 1122.76 2.16329 0.0553062 0
M  V30 12214 C 1123.36 1.23575 -3.1546 0
M  V30 12215 C 1121.92 1.73933 -3.33803 0
M  V30 12216 C 1121.07 0.638542 -2.69848 0
M  V30 12217 H 1124.02 -0.105685 -1.58348 0
M  V30 12218 H 1124.04 2.10542 -3.16942 0
M  V30 12219 H 1123.55 0.415851 -3.85866 0
M  V30 12220 H 1121.65 2.58404 -2.68437 0
M  V30 12221 H 1121.76 1.84961 -4.41957 0
M  V30 12222 H 1120.13 1.07185 -2.31049 0
M  V30 12223 H 1120.91 -0.170356 -3.42877 0
M  V30 12224 N 1123.36 1.52689 0.390367 0
M  V30 12225 C 1124.61 1.6689 1.13272 0
M  V30 12226 C 1124.92 0.414433 1.91159 0
M  V30 12227 O 1126.12 0.436559 2.67967 0
M  V30 12228 C 1124.58 2.94929 2.06264 0
M  V30 12229 C 1124.19 4.27551 1.33805 0
M  V30 12230 C 1125.93 3.18497 2.80642 0
M  V30 12231 C 1123.84 5.46698 2.25554 0
M  V30 12232 H 1122.77 0.621749 0.426549 0
M  V30 12233 H 1125.42 1.79185 0.395615 0
M  V30 12234 H 1123.8 2.76378 2.83604 0
M  V30 12235 H 1124.98 4.56651 0.616997 0
M  V30 12236 H 1123.29 4.10234 0.713913 0
M  V30 12237 H 1125.89 4.04693 3.49467 0
M  V30 12238 H 1126.23 2.33511 3.44642 0
M  V30 12239 H 1126.76 3.37607 2.10395 0
M  V30 12240 H 1123.5 6.34088 1.66171 0
M  V30 12241 H 1123.02 5.21913 2.95579 0
M  V30 12242 H 1124.7 5.80519 2.85668 0
M  V30 12243 N 1124.83 -0.648732 1.43629 0
M  V30 12244 C 1125.77 -1.77417 1.45107 0
M  V30 12245 C 1126.78 -1.59067 0.346618 0
M  V30 12246 O 1127.97 -1.67705 0.611322 0
M  V30 12247 C 1125.07 -3.14906 1.25249 0
M  V30 12248 C 1124.24 -3.59874 2.48616 0
M  V30 12249 C 1123.3 -4.76181 2.23916 0
M  V30 12250 O 1122.33 -4.8539 2.97296 0
M  V30 12251 N 1123.53 -5.66691 1.25862 0
M  V30 12252 H 1126.29 -1.76626 2.42123 0
M  V30 12253 H 1123.85 -0.832725 1.38843 0
M  V30 12254 H 1125.85 -3.90408 1.06601 0
M  V30 12255 H 1124.42 -3.10443 0.366623 0
M  V30 12256 H 1123.64 -2.74768 2.82659 0
M  V30 12257 H 1124.92 -3.86665 3.30708 0
M  V30 12258 H 1124.32 -5.61927 0.652227 0
M  V30 12259 H 1122.88 -6.41895 1.13196 0
M  V30 12260 N 1126.31 -1.30234 -0.887518 0
M  V30 12261 C 1127.54 -1.21829 -1.67229 0
M  V30 12262 C 1127.96 0.219251 -1.87523 0
M  V30 12263 O 1127.31 1.14526 -1.42091 0
M  V30 12264 C 1127.36 -1.94044 -3.05007 0
M  V30 12265 O 1127.08 -3.32185 -2.85631 0
M  V30 12266 C 1128.59 -1.92265 -3.99436 0
M  V30 12267 H 1125.81 -0.421716 -0.521916 0
M  V30 12268 H 1128.35 -1.71816 -1.10903 0
M  V30 12269 H 1126.5 -1.47861 -3.58072 0
M  V30 12270 H 1126.92 -3.68724 -3.73018 0
M  V30 12271 H 1128.39 -2.47336 -4.93486 0
M  V30 12272 H 1128.87 -0.900984 -4.29859 0
M  V30 12273 H 1129.48 -2.38247 -3.52305 0
M  V30 12274 N 1127.79 1.09952 -1.12909 0
M  V30 12275 C 1129.02 1.8633 -0.910821 0
M  V30 12276 C 1129.44 1.80335 0.534874 0
M  V30 12277 O 1128.8 1.1769 1.37908 0
M  V30 12278 C 1128.85 3.32462 -1.39648 0
M  V30 12279 O 1127.95 4.08327 -0.578192 0
M  V30 12280 H 1127.29 0.577984 -0.32685 0
M  V30 12281 H 1129.82 1.38883 -1.50242 0
M  V30 12282 H 1129.83 3.83311 -1.39774 0
M  V30 12283 H 1128.51 3.36141 -2.44913 0
M  V30 12284 H 1127.08 3.67291 -0.644347 0
M  V30 12285 N 1129.27 0.921757 1.27833 0
M  V30 12286 C 1130.2 0.433466 2.29441 0
M  V30 12287 C 1131.18 -0.503133 1.62489 0
M  V30 12288 O 1132.36 -0.409156 1.89841 0
M  V30 12289 C 1129.49 -0.320029 3.45822 0
M  V30 12290 C 1128.45 0.528178 4.24728 0
M  V30 12291 C 1127.77 -0.354132 5.33526 0
M  V30 12292 C 1129.07 1.78959 4.90684 0
M  V30 12293 H 1130.77 1.28263 2.70535 0
M  V30 12294 H 1128.31 0.618197 1.30055 0
M  V30 12295 H 1130.27 -0.672526 4.15999 0
M  V30 12296 H 1128.99 -1.20317 3.0363 0
M  V30 12297 H 1127.65 0.863302 3.5629 0
M  V30 12298 H 1127.3 -1.23605 4.87576 0
M  V30 12299 H 1127 0.209855 5.87225 0
M  V30 12300 H 1128.52 -0.702333 6.06547 0
M  V30 12301 H 1129.94 1.50552 5.53179 0
M  V30 12302 H 1128.33 2.29661 5.54415 0
M  V30 12303 H 1129.4 2.51265 4.14721 0
M  V30 12304 N 1130.75 -1.41857 0.686609 0
M  V30 12305 C 1131.71 -2.29187 0.0247022 0
M  V30 12306 C 1132.71 -1.43926 -0.717069 0
M  V30 12307 O 1133.9 -1.65179 -0.5533 0
M  V30 12308 C 1131.03 -3.26644 -0.975537 0
M  V30 12309 H 1132.22 -2.89212 0.793503 0
M  V30 12310 H 1129.78 -1.49694 0.449605 0
M  V30 12311 H 1130.51 -2.7158 -1.77242 0
M  V30 12312 H 1130.3 -3.89545 -0.446892 0
M  V30 12313 H 1131.79 -3.92107 -1.43673 0
M  V30 12314 N 1132.22 -0.430739 -1.51599 0
M  V30 12315 C 1133.45 0.136599 -2.06148 0
M  V30 12316 C 1133.86 1.37577 -1.29881 0
M  V30 12317 O 1133.21 1.80337 -0.349875 0
M  V30 12318 C 1133.27 0.53071 -3.55561 0
M  V30 12319 C 1132.93 -0.600738 -4.53034 0
M  V30 12320 C 1133.93 -1.47089 -4.98659 0
M  V30 12321 C 1131.61 -0.77959 -4.96213 0
M  V30 12322 C 1133.61 -2.50464 -5.86128 0
M  V30 12323 C 1131.29 -1.81663 -5.83474 0
M  V30 12324 C 1132.29 -2.67755 -6.28328 0
M  V30 12325 O 1131.98 -3.69679 -7.13858 0
M  V30 12326 H 1131.71 0.0143071 -0.675849 0
M  V30 12327 H 1134.27 -0.606673 -1.96236 0
M  V30 12328 H 1132.5 1.32659 -3.63233 0
M  V30 12329 H 1134.19 1.02844 -3.92655 0
M  V30 12330 H 1134.95 -1.34421 -4.66 0
M  V30 12331 H 1130.83 -0.119082 -4.60846 0
M  V30 12332 H 1134.37 -3.17695 -6.2106 0
M  V30 12333 H 1130.27 -1.94353 -6.15546 0
M  V30 12334 H 1131.04 -3.66181 -7.3202 0
M  V30 12335 N 1133.7 1.56767 -0.161869 0
M  V30 12336 C 1134.95 1.96885 0.486215 0
M  V30 12337 C 1135.28 1.04745 1.6353 0
M  V30 12338 O 1134.56 0.0927156 1.94279 0
M  V30 12339 C 1134.84 3.46559 0.97822 0
M  V30 12340 C 1134.69 4.49477 -0.17039 0
M  V30 12341 C 1136.01 3.99093 1.85506 0
M  V30 12342 H 1133.13 0.715857 0.175265 0
M  V30 12343 H 1135.77 1.88399 -0.246098 0
M  V30 12344 H 1133.92 3.53921 1.60225 0
M  V30 12345 H 1135.59 4.54183 -0.807205 0
M  V30 12346 H 1133.84 4.25838 -0.827322 0
M  V30 12347 H 1134.51 5.51578 0.21583 0
M  V30 12348 H 1136.98 3.94303 1.32908 0
M  V30 12349 H 1135.86 5.04255 2.16837 0
M  V30 12350 H 1136.12 3.4234 2.79742 0
M  V30 12351 N 1135.18 -0.111886 1.57202 0
M  V30 12352 C 1136.13 -1.13688 2.00858 0
M  V30 12353 C 1137.1 -1.40752 0.881939 0
M  V30 12354 O 1138.28 -1.52498 1.14669 0
M  V30 12355 C 1135.42 -2.45641 2.42393 0
M  V30 12356 C 1134.54 -2.25452 3.68504 0
M  V30 12357 C 1133.67 -3.50686 3.9899 0
M  V30 12358 C 1132.71 -3.25685 5.18262 0
M  V30 12359 N 1131.85 -4.4314 5.44583 0
M  V30 12360 H 1136.69 -0.757611 2.88209 0
M  V30 12361 H 1134.22 -0.362582 1.42561 0
M  V30 12362 H 1136.18 -3.22627 2.64514 0
M  V30 12363 H 1134.81 -2.81447 1.58074 0
M  V30 12364 H 1133.86 -1.39349 3.53958 0
M  V30 12365 H 1135.18 -2.0296 4.55641 0
M  V30 12366 H 1134.33 -4.36087 4.21797 0
M  V30 12367 H 1133.07 -3.76216 3.10343 0
M  V30 12368 H 1132.07 -2.38675 4.95292 0
M  V30 12369 H 1133.3 -3.01518 6.08493 0
M  V30 12370 H 1131.24 -4.68778 4.58893 0
M  V30 12371 H 1131.16 -4.23778 6.26058 0
M  V30 12372 H 1132.43 -5.29654 5.71915 0
M  V30 12373 N 1136.66 -1.52894 -0.382264 0
M  V30 12374 C 1137.89 -1.72152 -1.14766 0
M  V30 12375 C 1138.3 -0.442911 -1.83531 0
M  V30 12376 O 1137.66 0.583085 -1.72935 0
M  V30 12377 C 1137.71 -2.87566 -2.19062 0
M  V30 12378 O 1137.43 -4.10478 -1.53099 0
M  V30 12379 C 1138.93 -3.18559 -3.08277 0
M  V30 12380 H 1136.15 -0.576212 -0.343832 0
M  V30 12381 H 1138.7 -1.99571 -0.446273 0
M  V30 12382 H 1136.85 -2.62589 -2.84826 0
M  V30 12383 H 1137.26 -4.74989 -2.22454 0
M  V30 12384 H 1138.74 -4.02763 -3.77473 0
M  V30 12385 H 1139.22 -2.33222 -3.72161 0
M  V30 12386 H 1139.82 -3.454 -2.48151 0
M  V30 12387 N 1138.14 0.641106 -1.43971 0
M  V30 12388 C 1139.36 1.43324 -1.4991 0
M  V30 12389 C 1139.79 1.87705 -0.121908 0
M  V30 12390 O 1139.15 1.58127 0.886875 0
M  V30 12391 C 1139.19 2.63637 -2.46025 0
M  V30 12392 O 1138.3 3.63123 -1.95488 0
M  V30 12393 H 1137.64 0.429252 -0.506595 0
M  V30 12394 H 1140.17 0.783427 -1.89007 0
M  V30 12395 H 1140.18 3.11304 -2.63731 0
M  V30 12396 H 1138.85 2.30678 -3.46064 0
M  V30 12397 H 1137.43 3.22332 -1.87501 0
M  V30 12398 N 1139.62 1.30703 0.880598 0
M  V30 12399 C 1140.53 1.19389 2.01949 0
M  V30 12400 C 1141.54 0.112868 1.73634 0
M  V30 12401 O 1142.72 0.328643 1.98701 0
M  V30 12402 C 1139.78 0.891004 3.35055 0
M  V30 12403 C 1138.84 2.05784 3.76764 0
M  V30 12404 C 1138.08 1.76931 5.03519 0
M  V30 12405 O 1138.3 0.699326 5.66097 0
M  V30 12406 O 1137.23 2.623 5.4174 0
M  V30 12407 H 1141.06 2.15073 2.14423 0
M  V30 12408 H 1138.64 1.10339 1.00726 0
M  V30 12409 H 1140.53 0.737476 4.14897 0
M  V30 12410 H 1139.2 -0.0358909 3.2368 0
M  V30 12411 H 1138.11 2.26672 2.97608 0
M  V30 12412 H 1139.44 2.96661 3.9275 0
M  V30 12413 N 1141.09 -1.09351 1.1349 0
M  V30 12414 C 1142.32 -1.85844 0.92069 0
M  V30 12415 C 1142.74 -1.80616 -0.525303 0
M  V30 12416 O 1142.1 -1.1842 -1.37282 0
M  V30 12417 C 1142.15 -3.31716 1.4141 0
M  V30 12418 O 1141.25 -4.08014 0.599838 0
M  V30 12419 H 1140.59 -0.576242 0.32991 0
M  V30 12420 H 1143.12 -1.38084 1.50976 0
M  V30 12421 H 1143.13 -3.82564 1.41805 0
M  V30 12422 H 1141.81 -3.34837 2.46692 0
M  V30 12423 H 1140.39 -3.66944 0.663816 0
M  V30 12424 N 1142.57 -0.928524 -1.27343 0
M  V30 12425 C 1143.5 -0.445627 -2.29208 0
M  V30 12426 C 1144.48 0.494508 -1.62753 0
M  V30 12427 O 1145.67 0.399082 -1.90055 0
M  V30 12428 C 1142.8 0.301684 -3.45987 0
M  V30 12429 C 1141.75 -0.550695 -4.24442 0
M  V30 12430 C 1141.08 0.325833 -5.33706 0
M  V30 12431 C 1142.38 -1.81559 -4.89728 0
M  V30 12432 H 1144.07 -1.29696 -2.69851 0
M  V30 12433 H 1141.62 -0.625085 -1.29725 0
M  V30 12434 H 1143.57 0.650455 -4.1635 0
M  V30 12435 H 1142.29 1.18705 -3.04264 0
M  V30 12436 H 1140.95 -0.882185 -3.55827 0
M  V30 12437 H 1140.6 1.21018 -4.88225 0
M  V30 12438 H 1140.3 -0.240994 -5.87106 0
M  V30 12439 H 1141.83 0.670156 -6.06911 0
M  V30 12440 H 1143.24 -1.53483 -5.52373 0
M  V30 12441 H 1141.64 -2.32598 -5.53189 0
M  V30 12442 H 1142.71 -2.53461 -4.13383 0
M  V30 12443 N 1144.05 1.41491 -0.694123 0
M  V30 12444 C 1145 2.30783 -0.0278824 0
M  V30 12445 C 1145.97 1.47028 0.772783 0
M  V30 12446 O 1147.15 1.75819 0.74111 0
M  V30 12447 C 1144.29 3.33061 0.903579 0
M  V30 12448 C 1143.4 4.31896 0.0946823 0
M  V30 12449 C 1142.54 5.21243 1.02365 0
M  V30 12450 C 1141.58 6.11748 0.207578 0
M  V30 12451 N 1140.72 6.93583 1.09028 0
M  V30 12452 H 1145.56 2.87197 -0.795092 0
M  V30 12453 H 1143.09 1.41449 -0.403806 0
M  V30 12454 H 1145.05 3.90907 1.45765 0
M  V30 12455 H 1143.68 2.782 1.6372 0
M  V30 12456 H 1142.73 3.76009 -0.576289 0
M  V30 12457 H 1144.04 4.95889 -0.538059 0
M  V30 12458 H 1143.2 5.83917 1.647 0
M  V30 12459 H 1141.94 4.57473 1.69025 0
M  V30 12460 H 1140.94 5.48125 -0.428854 0
M  V30 12461 H 1142.17 6.77573 -0.455206 0
M  V30 12462 H 1140.11 6.32422 1.74292 0
M  V30 12463 H 1140.03 7.54257 0.513073 0
M  V30 12464 H 1141.3 7.60726 1.70048 0
M  V30 12465 N 1145.53 0.438773 1.51369 0
M  V30 12466 C 1146.46 -0.407771 2.25543 0
M  V30 12467 C 1147.47 -0.985065 1.29616 0
M  V30 12468 O 1148.66 -0.878961 1.55359 0
M  V30 12469 C 1145.76 -1.58257 2.9968 0
M  V30 12470 C 1144.93 -1.12389 4.22714 0
M  V30 12471 C 1143.99 -2.16897 4.79418 0
M  V30 12472 O 1143.02 -1.76273 5.41218 0
M  V30 12473 N 1144.22 -3.49396 4.63576 0
M  V30 12474 H 1146.99 0.227963 2.98832 0
M  V30 12475 H 1144.55 0.267741 1.59671 0
M  V30 12476 H 1146.54 -2.27796 3.34501 0
M  V30 12477 H 1145.11 -2.12362 2.29393 0
M  V30 12478 H 1144.33 -0.255509 3.93371 0
M  V30 12479 H 1145.62 -0.794848 5.02553 0
M  V30 12480 H 1145.02 -3.85132 4.14355 0
M  V30 12481 H 1143.57 -4.14826 5.02755 0
M  V30 12482 N 1147.01 -1.56678 0.170181 0
M  V30 12483 C 1147.95 -2.19222 -0.777459 0
M  V30 12484 C 1148.95 -1.15592 -1.23834 0
M  V30 12485 O 1150.15 -1.33794 -1.20412 0
M  V30 12486 H 1146.53 -0.702244 -0.268992 0
M  V30 12487 H 1148.5 -2.97543 -0.225989 0
M  V30 12488 C 1147.25 -2.84631 -1.997 0
M  V30 12489 H 1146.57 -3.641 -1.65139 0
M  V30 12490 H 1148.01 -3.31864 -2.63898 0
M  V30 12491 C 1146.47 -1.84345 -2.81991 0
M  V30 12492 O 1147 -1.32821 -3.79106 0
M  V30 12493 N 1145.21 -1.53127 -2.46983 0
M  V30 12494 H 1144.75 -1.95219 -1.6807 0
M  V30 12495 H 1144.71 -0.862787 -3.0233 0
M  V30 12496 N 1148.48 0.103547 -1.57259 0
M  V30 12497 C 1149.43 1.14513 -2.02459 0
M  V30 12498 C 1150.43 1.4197 -0.924163 0
M  V30 12499 O 1151.63 1.41751 -1.10936 0
M  V30 12500 H 1148.01 0.386469 -0.645094 0
M  V30 12501 H 1149.98 0.737531 -2.89142 0
M  V30 12502 C 1148.73 2.45948 -2.45775 0
M  V30 12503 H 1148.05 2.25662 -3.30026 0
M  V30 12504 H 1149.49 3.17351 -2.81184 0
M  V30 12505 C 1147.95 3.09639 -1.32759 0
M  V30 12506 O 1148.48 3.96372 -0.652059 0
M  V30 12507 N 1146.68 2.69757 -1.08072 0
M  V30 12508 H 1146.23 1.9932 -1.63185 0
M  V30 12509 H 1146.19 3.127 -0.326532 0
M  V30 12510 N 1149.96 1.53094 0.37415 0
M  V30 12511 C 1151.38 1.42676 0.715246 0
M  V30 12512 C 1151.58 0.558992 1.93591 0
M  V30 12513 O 1150.63 0.0381328 2.52471 0
M  V30 12514 C 1151.95 2.85746 0.936459 0
M  V30 12515 C 1153.49 2.95322 1.03701 0
M  V30 12516 C 1153.97 4.39436 1.29075 0
M  V30 12517 N 1155.46 4.42826 1.35864 0
M  V30 12518 C 1156.2 5.51433 1.57191 0
M  V30 12519 N 1155.69 6.701 1.75891 0
M  V30 12520 N 1157.48 5.38998 1.59491 0
M  V30 12521 H 1149.64 2.08025 -0.428854 0
M  V30 12522 H 1151.9 0.939078 -0.129758 0
M  V30 12523 H 1151.6 3.51523 0.111448 0
M  V30 12524 H 1151.48 3.28887 1.84698 0
M  V30 12525 H 1153.87 2.29704 1.85257 0
M  V30 12526 H 1153.95 2.55588 0.104066 0
M  V30 12527 H 1153.59 5.05625 0.480231 0
M  V30 12528 H 1153.52 4.76735 2.23677 0
M  V30 12529 H 1156.01 3.57301 1.23061 0
M  V30 12530 H 1156.32 7.48643 1.91713 0
M  V30 12531 H 1154.67 6.73102 1.73086 0
M  V30 12532 H 1157.86 4.45257 1.44444 0
M  V30 12533 H 1158.03 6.23705 1.75771 0
M  V30 12534 N 1151.44 -0.633461 1.44309 0
M  V30 12535 C 1152.72 -1.3917 1.37444 0
M  V30 12536 C 1153.1 -2.11076 0.0319994 0
M  V30 12537 O 1152.44 -2.06164 -0.98533 0
M  V30 12538 C 1152.65 -2.36005 2.57104 0
M  V30 12539 C 1154 -2.99407 3.01065 0
M  V30 12540 O 1155.03 -2.46331 2.57292 0
M  V30 12541 O 1153.89 -3.95686 3.76954 0
M  V30 12542 H 1150.98 -0.622746 0.544166 0
M  V30 12543 H 1153.53 -0.658712 1.56394 0
M  V30 12544 H 1152.3 -1.81955 3.46422 0
M  V30 12545 H 1151.92 -3.16725 2.40356 0
M  V30 12546 N 1152.92 -1.31168 -0.873655 0
M  V30 12547 C 1153.88 -1.18471 -1.96207 0
M  V30 12548 C 1154.88 -0.112814 -1.60404 0
M  V30 12549 O 1156.07 -0.3618 -1.70401 0
M  V30 12550 C 1153.2 -0.817662 -3.30949 0
M  V30 12551 H 1154.4 -2.1518 -2.08896 0
M  V30 12552 H 1151.95 -1.14727 -1.06149 0
M  V30 12553 H 1152.68 0.148428 -3.2396 0
M  V30 12554 H 1152.47 -1.59244 -3.58307 0
M  V30 12555 H 1153.96 -0.75262 -4.10762 0
M  V30 12556 N 1154.4 1.08748 -1.14068 0
M  V30 12557 C 1155.33 2.14886 -0.768052 0
M  V30 12558 C 1156.31 1.60682 0.248979 0
M  V30 12559 O 1157.49 1.87988 0.138852 0
M  V30 12560 C 1154.62 3.38412 -0.139747 0
M  V30 12561 C 1153.66 4.11357 -1.12639 0
M  V30 12562 S 1154.5 4.64645 -2.66206 0
M  V30 12563 C 1155.65 5.91461 -2.04755 0
M  V30 12564 H 1155.89 2.46163 -1.66706 0
M  V30 12565 H 1153.42 1.20804 -0.961549 0
M  V30 12566 H 1155.38 4.09929 0.21635 0
M  V30 12567 H 1154.04 3.0534 0.736638 0
M  V30 12568 H 1153.23 4.99987 -0.634719 0
M  V30 12569 H 1152.83 3.45735 -1.4263 0
M  V30 12570 H 1155.13 6.62859 -1.40086 0
M  V30 12571 H 1156.07 6.45319 -2.91494 0
M  V30 12572 H 1156.48 5.44308 -1.49629 0
M  V30 12573 N 1155.87 0.935264 1.26849 0
M  V30 12574 C 1156.78 0.446122 2.30319 0
M  V30 12575 C 1157.8 -0.476965 1.67335 0
M  V30 12576 O 1158.98 -0.357934 1.98194 0
M  V30 12577 C 1156.04 -0.286297 3.45516 0
M  V30 12578 C 1155.1 0.672626 4.23998 0
M  V30 12579 C 1154.34 -0.0249345 5.33694 0
M  V30 12580 O 1154.56 -1.24296 5.56693 0
M  V30 12581 O 1153.49 0.650752 5.98372 0
M  V30 12582 H 1157.32 1.30546 2.74211 0
M  V30 12583 H 1154.9 0.70091 1.31938 0
M  V30 12584 H 1156.79 -0.699109 4.1556 0
M  V30 12585 H 1155.46 -1.12112 3.03665 0
M  V30 12586 H 1154.37 1.13527 3.56458 0
M  V30 12587 H 1155.7 1.47489 4.69583 0
M  V30 12588 N 1157.35 -1.41121 0.701616 0
M  V30 12589 C 1158.28 -2.33436 0.0545974 0
M  V30 12590 C 1159.26 -1.52144 -0.760662 0
M  V30 12591 O 1160.45 -1.80661 -0.712414 0
M  V30 12592 C 1157.58 -3.36015 -0.878117 0
M  V30 12593 C 1156.53 -4.27664 -0.169511 0
M  V30 12594 C 1155.86 -5.20666 -1.21699 0
M  V30 12595 C 1157.16 -5.13254 0.967859 0
M  V30 12596 H 1158.85 -2.87791 0.825637 0
M  V30 12597 H 1156.4 -1.38377 0.398484 0
M  V30 12598 H 1158.35 -3.99526 -1.34004 0
M  V30 12599 H 1157.08 -2.80024 -1.68089 0
M  V30 12600 H 1155.73 -3.65586 0.272441 0
M  V30 12601 H 1155.38 -4.60987 -2.01246 0
M  V30 12602 H 1155.08 -5.82822 -0.747836 0
M  V30 12603 H 1156.61 -5.87053 -1.6793 0
M  V30 12604 H 1158.02 -5.70298 0.585944 0
M  V30 12605 H 1156.42 -5.84381 1.3645 0
M  V30 12606 H 1157.49 -4.5006 1.80483 0
M  V30 12607 N 1158.83 -0.446794 -1.51134 0
M  V30 12608 C 1159.78 0.359865 -2.27977 0
M  V30 12609 C 1160.75 1.0086 -1.31972 0
M  V30 12610 O 1161.93 1.02569 -1.60886 0
M  V30 12611 C 1159.07 1.44978 -3.1317 0
M  V30 12612 C 1158.19 0.818243 -4.2418 0
M  V30 12613 C 1157.32 1.884 -4.96668 0
M  V30 12614 C 1156.36 1.2314 -5.99586 0
M  V30 12615 N 1155.5 2.23894 -6.65444 0
M  V30 12616 H 1160.34 -0.301775 -2.96468 0
M  V30 12617 H 1157.87 -0.160666 -1.4622 0
M  V30 12618 H 1159.83 2.09308 -3.60896 0
M  V30 12619 H 1158.46 2.08092 -2.46775 0
M  V30 12620 H 1157.51 0.0629889 -3.80348 0
M  V30 12621 H 1158.83 0.301885 -4.97886 0
M  V30 12622 H 1157.98 2.6037 -5.4799 0
M  V30 12623 H 1156.72 2.43411 -4.22614 0
M  V30 12624 H 1155.72 0.497215 -5.47547 0
M  V30 12625 H 1156.95 0.688505 -6.75601 0
M  V30 12626 H 1154.89 2.77967 -5.94197 0
M  V30 12627 H 1154.81 1.77176 -7.34945 0
M  V30 12628 H 1156.08 2.95318 -7.21393 0
M  V30 12629 N 1160.31 1.56586 -0.178487 0
M  V30 12630 C 1161.72 1.83633 0.337009 0
M  V30 12631 C 1162.07 1.09857 1.6256 0
M  V30 12632 O 1161.2 0.353933 2.13486 0
M  V30 12633 C 1161.79 3.33112 0.618225 0
M  V30 12634 C 1160.35 3.60629 1.07814 0
M  V30 12635 C 1159.5 2.7705 0.117825 0
M  V30 12636 H 1162.45 1.53508 -0.402612 0
M  V30 12637 H 1162.47 3.5098 1.46947 0
M  V30 12638 H 1161.98 3.8678 -0.319808 0
M  V30 12639 H 1160.08 3.12378 2.03103 0
M  V30 12640 H 1160.19 4.68921 0.982339 0
M  V30 12641 H 1158.56 2.47125 0.616563 0
M  V30 12642 H 1159.34 3.33501 -0.814356 0
M  V30 12643 N 1161.79 -0.095206 1.57312 0
M  V30 12644 C 1162.73 -1.13438 2.03063 0
M  V30 12645 C 1163.73 -1.41478 0.931679 0
M  V30 12646 O 1164.93 -1.41161 1.11686 0
M  V30 12647 H 1161.31 -0.383042 0.647134 0
M  V30 12648 H 1163.28 -0.722186 2.89529 0
M  V30 12649 C 1162.03 -2.44641 2.47075 0
M  V30 12650 H 1161.35 -2.23908 3.31218 0
M  V30 12651 H 1162.79 -3.15855 2.82863 0
M  V30 12652 C 1161.25 -3.08931 1.34399 0
M  V30 12653 O 1161.78 -3.96021 0.673071 0
M  V30 12654 N 1159.99 -2.6918 1.09501 0
M  V30 12655 H 1159.53 -1.98451 1.6424 0
M  V30 12656 H 1159.49 -3.12522 0.34311 0
M  V30 12657 N 1163.26 -1.53291 -0.366026 0
M  V30 12658 C 1164.51 -1.69117 -1.10653 0
M  V30 12659 C 1164.83 -0.445327 -1.89847 0
M  V30 12660 O 1164.1 0.540616 -1.88293 0
M  V30 12661 H 1162.68 -0.623446 -0.41149 0
M  V30 12662 H 1165.35 -1.90479 -0.412749 0
M  V30 12663 H 1164.44 -2.55205 -1.79658 0
M  V30 12664 N 1164.74 0.6258 -1.44643 0
M  V30 12665 C 1165.99 1.38251 -1.47414 0
M  V30 12666 C 1166.31 1.94689 -0.110043 0
M  V30 12667 O 1165.58 1.76095 0.858333 0
M  V30 12668 H 1164.16 0.513179 -0.542823 0
M  V30 12669 H 1166.82 0.736179 -1.80462 0
M  V30 12670 H 1165.92 2.21115 -2.2026 0
M  V30 12671 N 1166.22 1.31629 0.866686 0
M  V30 12672 C 1167.18 1.1951 1.95576 0
M  V30 12673 C 1168.18 0.121319 1.60342 0
M  V30 12674 O 1169.37 0.370832 1.70207 0
M  V30 12675 C 1166.51 0.835201 3.30511 0
M  V30 12676 H 1167.7 2.16285 2.07752 0
M  V30 12677 H 1165.25 1.15288 1.05539 0
M  V30 12678 H 1165.99 -0.131245 3.24034 0
M  V30 12679 H 1165.77 1.61142 3.57457 0
M  V30 12680 H 1167.26 0.774393 4.10357 0
M  V30 12681 N 1167.7 -1.08142 1.14644 0
M  V30 12682 C 1168.98 -1.77254 0.827071 0
M  V30 12683 C 1169.36 -1.99885 -0.67891 0
M  V30 12684 O 1168.7 -1.61084 -1.62062 0
M  V30 12685 C 1168.91 -3.08658 1.62884 0
M  V30 12686 C 1170.26 -3.83143 1.82993 0
M  V30 12687 O 1171.29 -3.18447 1.59593 0
M  V30 12688 O 1170.15 -4.9932 2.2213 0
M  V30 12689 H 1167.24 -0.769356 0.30335 0
M  V30 12690 H 1169.79 -1.1458 1.25178 0
M  V30 12691 H 1168.56 -2.87753 2.65168 0
M  V30 12692 H 1168.18 -3.79061 1.19994 0
M  V30 12693 N 1169.18 -0.941978 -1.26351 0
M  V30 12694 C 1170.11 -0.409504 -2.25512 0
M  V30 12695 C 1171.12 0.467665 -1.55938 0
M  V30 12696 O 1172.31 0.277982 -1.76322 0
M  V30 12697 C 1169.41 0.430487 -3.36155 0
M  V30 12698 C 1168.58 -0.430714 -4.35274 0
M  V30 12699 C 1167.64 0.348976 -5.25042 0
M  V30 12700 O 1166.67 -0.24827 -5.68658 0
M  V30 12701 N 1167.87 1.64531 -5.56695 0
M  V30 12702 H 1170.64 -1.26196 -2.71836 0
M  V30 12703 H 1168.2 -0.810947 -1.40126 0
M  V30 12704 H 1170.19 0.959501 -3.93161 0
M  V30 12705 H 1168.76 1.18375 -2.8932 0
M  V30 12706 H 1167.98 -1.14093 -3.77328 0
M  V30 12707 H 1169.27 -1.01896 -4.98492 0
M  V30 12708 H 1168.67 2.15266 -5.23142 0
M  V30 12709 H 1167.22 2.12055 -6.16341 0
M  V30 12710 N 1170.66 1.40747 -0.709091 0
M  V30 12711 C 1171.6 2.30741 -0.0523584 0
M  V30 12712 C 1172.57 1.4784 0.757145 0
M  V30 12713 O 1173.76 1.76595 0.72242 0
M  V30 12714 C 1170.9 3.34 0.868203 0
M  V30 12715 C 1170.01 4.31972 0.0488686 0
M  V30 12716 C 1169.15 5.223 0.968311 0
M  V30 12717 C 1168.18 6.11934 0.142682 0
M  V30 12718 N 1167.32 6.947 1.01665 0
M  V30 12719 H 1172.16 2.86338 -0.825509 0
M  V30 12720 H 1169.7 1.41013 -0.418785 0
M  V30 12721 H 1171.66 3.92431 1.41611 0
M  V30 12722 H 1170.29 2.79921 1.6076 0
M  V30 12723 H 1169.34 3.75377 -0.616137 0
M  V30 12724 H 1170.65 4.95291 -0.590625 0
M  V30 12725 H 1169.8 5.85631 1.58498 0
M  V30 12726 H 1168.54 4.5924 1.64164 0
M  V30 12727 H 1167.55 5.47639 -0.486965 0
M  V30 12728 H 1168.77 6.77052 -0.527046 0
M  V30 12729 H 1166.72 6.34236 1.67575 0
M  V30 12730 H 1166.64 7.54759 0.433045 0
M  V30 12731 H 1167.9 7.62487 1.6197 0
M  V30 12732 N 1172.13 0.454803 1.50895 0
M  V30 12733 C 1173.37 -0.104722 2.04132 0
M  V30 12734 C 1173.74 -1.38434 1.33042 0
M  V30 12735 O 1174.94 -2.02521 1.76745 0
M  V30 12736 C 1173.21 -0.300775 3.56132 0
M  V30 12737 S 1174.77 -0.821197 4.31047 0
M  V30 12738 H 1171.59 -0.0236407 0.710607 0
M  V30 12739 H 1174.19 0.618213 1.85468 0
M  V30 12740 H 1172.89 0.636592 4.05433 0
M  V30 12741 H 1172.42 -1.05029 3.79121 0
M  V30 12742 H 1174.44 -2.09669 4.49726 0
M  V30 12743 N 1173.61 -1.56489 0.186789 0
M  V30 12744 C 1174.54 -2.21705 -0.732739 0
M  V30 12745 C 1175.52 -1.17751 -1.22755 0
M  V30 12746 O 1176.71 -1.46231 -1.27789 0
M  V30 12747 C 1173.84 -2.86992 -1.95584 0
M  V30 12748 C 1172.79 -3.97118 -1.59628 0
M  V30 12749 C 1172.12 -4.49529 -2.89531 0
M  V30 12750 C 1173.42 -5.15941 -0.812518 0
M  V30 12751 H 1175.11 -2.98802 -0.189094 0
M  V30 12752 H 1172.66 -1.43722 -0.0895099 0
M  V30 12753 H 1174.61 -3.31295 -2.60426 0
M  V30 12754 H 1173.33 -2.07287 -2.52388 0
M  V30 12755 H 1171.99 -3.53494 -0.971475 0
M  V30 12756 H 1171.64 -3.66596 -3.44407 0
M  V30 12757 H 1171.34 -5.23832 -2.66221 0
M  V30 12758 H 1172.87 -4.96528 -3.55376 0
M  V30 12759 H 1174.28 -5.56841 -1.36386 0
M  V30 12760 H 1172.68 -5.96259 -0.677862 0
M  V30 12761 H 1173.75 -4.84535 0.188095 0
M  V30 12762 N 1175.09 0.086862 -1.5736 0
M  V30 12763 C 1176.04 1.10478 -2.02641 0
M  V30 12764 C 1177.01 1.39331 -0.904219 0
M  V30 12765 O 1178.19 1.50654 -1.17081 0
M  V30 12766 C 1175.33 2.41754 -2.4627 0
M  V30 12767 C 1174.44 2.19561 -3.72044 0
M  V30 12768 C 1173.58 3.44294 -4.04519 0
M  V30 12769 C 1172.62 3.17399 -5.23378 0
M  V30 12770 N 1171.76 4.3442 -5.51564 0
M  V30 12771 H 1176.6 0.711663 -2.89378 0
M  V30 12772 H 1174.13 0.339856 -1.4312 0
M  V30 12773 H 1176.09 3.18378 -2.69613 0
M  V30 12774 H 1174.72 2.78896 -1.62532 0
M  V30 12775 H 1173.77 1.337 -3.5613 0
M  V30 12776 H 1175.08 1.95685 -4.58812 0
M  V30 12777 H 1174.24 4.29321 -4.28682 0
M  V30 12778 H 1172.98 3.71232 -3.16289 0
M  V30 12779 H 1171.98 2.30765 -4.99026 0
M  V30 12780 H 1173.21 2.91799 -6.13213 0
M  V30 12781 H 1171.15 4.61418 -4.66293 0
M  V30 12782 H 1171.07 4.13764 -6.3272 0
M  V30 12783 H 1172.34 5.20489 -5.80269 0
M  V30 12784 N 1176.57 1.53483 0.357892 0
M  V30 12785 C 1177.81 1.70289 1.10134 0
M  V30 12786 C 1178.15 0.457296 1.88739 0
M  V30 12787 O 1177.42 -0.545527 1.86693 0
M  V30 12788 C 1177.7 2.95755 2.05429 0
M  V30 12789 C 1177.56 4.30489 1.30382 0
M  V30 12790 C 1178.88 3.16844 3.05447 0
M  V30 12791 H 1176 0.61965 0.399003 0
M  V30 12792 H 1178.64 1.86133 0.381357 0
M  V30 12793 H 1176.79 2.82377 2.66825 0
M  V30 12794 H 1178.46 4.55692 0.71711 0
M  V30 12795 H 1176.7 4.2955 0.605712 0
M  V30 12796 H 1177.37 5.14427 2.00171 0
M  V30 12797 H 1179.85 3.29458 2.54159 0
M  V30 12798 H 1178.73 4.06053 3.69341 0
M  V30 12799 H 1178.99 2.32476 3.76041 0
M  V30 12800 N 1178.05 -0.61812 1.44973 0
M  V30 12801 C 1178.99 -1.75059 1.53157 0
M  V30 12802 C 1179.99 -1.64554 0.402282 0
M  V30 12803 O 1181.19 -1.70475 0.577767 0
M  V30 12804 H 1177.57 -0.57817 0.480856 0
M  V30 12805 H 1179.54 -1.65281 2.48445 0
M  V30 12806 C 1178.29 -3.13423 1.50538 0
M  V30 12807 H 1177.61 -3.2216 2.36755 0
M  V30 12808 H 1179.05 -3.92521 1.60323 0
M  V30 12809 C 1177.51 -3.36127 0.228127 0
M  V30 12810 O 1178.04 -3.95618 -0.696364 0
M  V30 12811 N 1176.25 -2.90322 0.127142 0
M  V30 12812 H 1175.79 -2.42091 0.880317 0
M  V30 12813 H 1175.75 -3.05887 -0.726659 0
M  V30 12814 N 1179.52 -1.32087 -0.859693 0
M  V30 12815 C 1180.75 -1.25486 -1.6513 0
M  V30 12816 C 1181.17 0.175015 -1.87284 0
M  V30 12817 O 1180.53 1.12468 -1.42199 0
M  V30 12818 C 1180.58 -2.01469 -2.9907 0
M  V30 12819 O 1179.68 -1.35904 -3.89363 0
M  V30 12820 H 1179.02 -0.432728 -0.503629 0
M  V30 12821 H 1181.55 -1.74322 -1.07112 0
M  V30 12822 H 1181.56 -2.11452 -3.4893 0
M  V30 12823 H 1180.24 -3.05448 -2.82266 0
M  V30 12824 H 1178.82 -1.34437 -3.47823 0
M  V30 12825 N 1181 1.07532 -1.15215 0
M  V30 12826 C 1182.41 1.61567 -0.935568 0
M  V30 12827 C 1182.76 1.89085 0.523557 0
M  V30 12828 O 1181.89 1.65495 1.39429 0
M  V30 12829 C 1182.48 2.93531 -1.69189 0
M  V30 12830 C 1181.04 3.44316 -1.52063 0
M  V30 12831 C 1180.19 2.18404 -1.70866 0
M  V30 12832 H 1183.14 0.906431 -1.30267 0
M  V30 12833 H 1183.16 3.62377 -1.16031 0
M  V30 12834 H 1182.67 2.73471 -2.75381 0
M  V30 12835 H 1180.77 3.69462 -0.482567 0
M  V30 12836 H 1180.89 4.20478 -2.29642 0
M  V30 12837 H 1179.25 2.28012 -1.13502 0
M  V30 12838 H 1180.03 2.00841 -2.7842 0
M  V30 12839 N 1182.48 0.948665 1.2585 0
M  V30 12840 C 1183.73 0.595938 1.92695 0
M  V30 12841 C 1184.04 -0.870229 1.75175 0
M  V30 12842 O 1185.25 -1.33266 2.36543 0
M  V30 12843 C 1183.7 1.01511 3.45288 0
M  V30 12844 C 1183.31 2.50341 3.71528 0
M  V30 12845 C 1185.06 0.734635 4.18095 0
M  V30 12846 C 1182.96 2.8609 5.17597 0
M  V30 12847 H 1181.89 0.219171 0.721443 0
M  V30 12848 H 1184.54 1.15231 1.42807 0
M  V30 12849 H 1182.93 0.387201 3.94102 0
M  V30 12850 H 1184.1 3.18101 3.3339 0
M  V30 12851 H 1182.42 2.75797 3.11969 0
M  V30 12852 H 1185.01 0.977962 5.25681 0
M  V30 12853 H 1185.36 -0.328807 4.14999 0
M  V30 12854 H 1185.89 1.32262 3.75169 0
M  V30 12855 H 1182.63 3.91427 5.25799 0
M  V30 12856 H 1182.15 2.22999 5.56805 0
M  V30 12857 H 1183.83 2.74959 5.85668 0
M  V30 12858 N 1183.96 -1.40369 0.716545 0
M  V30 12859 C 1185.37 -1.54757 0.390202 0
M  V30 12860 C 1185.57 -1.68767 -1.10091 0
M  V30 12861 O 1184.63 -1.67779 -1.88697 0
M  V30 12862 C 1185.94 -2.77546 1.15709 0
M  V30 12863 C 1187.49 -2.91364 1.14349 0
M  V30 12864 C 1187.97 -4.17068 1.89256 0
M  V30 12865 N 1189.46 -4.2407 1.8633 0
M  V30 12866 C 1190.19 -5.20243 2.41112 0
M  V30 12867 N 1189.69 -6.22318 3.04454 0
M  V30 12868 N 1191.48 -5.12328 2.31249 0
M  V30 12869 H 1183.63 -1.29521 1.68339 0
M  V30 12870 H 1185.9 -0.626382 0.711582 0
M  V30 12871 H 1185.6 -2.73474 2.21144 0
M  V30 12872 H 1185.48 -3.69682 0.749347 0
M  V30 12873 H 1187.86 -2.94939 0.0973383 0
M  V30 12874 H 1187.94 -2.00344 1.59047 0
M  V30 12875 H 1187.59 -4.14255 2.93863 0
M  V30 12876 H 1187.52 -5.07099 1.41978 0
M  V30 12877 H 1190.01 -3.50944 1.40168 0
M  V30 12878 H 1190.32 -6.92129 3.43769 0
M  V30 12879 H 1188.67 -6.22759 3.08538 0
M  V30 12880 H 1191.86 -4.31514 1.8142 0
M  V30 12881 H 1192.03 -5.87107 2.74243 0
M  V30 12882 N 1185.44 -0.462799 -1.50652 0
M  V30 12883 C 1186.37 0.381469 -2.24989 0
M  V30 12884 C 1187.35 1.00328 -1.27957 0
M  V30 12885 O 1188.53 1.04082 -1.5716 0
M  V30 12886 C 1185.66 1.53378 -3.01981 0
M  V30 12887 C 1184.7 1.03017 -4.13872 0
M  V30 12888 S 1185.54 -0.048447 -5.35478 0
M  V30 12889 C 1186.69 1.10794 -6.16016 0
M  V30 12890 H 1186.93 -0.249578 -2.96251 0
M  V30 12891 H 1184.46 -0.247583 -1.52402 0
M  V30 12892 H 1186.42 2.19425 -3.46934 0
M  V30 12893 H 1185.08 2.13632 -2.30261 0
M  V30 12894 H 1184.27 1.8926 -4.67115 0
M  V30 12895 H 1183.87 0.447548 -3.71313 0
M  V30 12896 H 1186.17 2.02125 -6.46646 0
M  V30 12897 H 1187.11 0.614937 -7.05425 0
M  V30 12898 H 1187.52 1.35802 -5.47922 0
M  V30 12899 N 1186.91 1.56388 -0.195085 0
M  V30 12900 C 1187.86 2.19091 0.725793 0
M  V30 12901 C 1188.83 1.13814 1.20977 0
M  V30 12902 O 1190.02 1.42065 1.27366 0
M  V30 12903 C 1187.16 2.85427 1.93973 0
M  V30 12904 C 1186.27 4.05229 1.49712 0
M  V30 12905 C 1185.4 4.59421 2.66656 0
M  V30 12906 C 1184.44 5.71581 2.19001 0
M  V30 12907 N 1183.58 6.2018 3.29123 0
M  V30 12908 H 1188.42 2.97429 0.184334 0
M  V30 12909 H 1185.96 1.46886 0.0792434 0
M  V30 12910 H 1187.92 3.22057 2.65208 0
M  V30 12911 H 1186.55 2.09652 2.4545 0
M  V30 12912 H 1185.6 3.74261 0.680641 0
M  V30 12913 H 1186.91 4.8635 1.10749 0
M  V30 12914 H 1186.06 4.98357 3.46014 0
M  V30 12915 H 1184.8 3.77407 3.08893 0
M  V30 12916 H 1183.81 5.32174 1.38097 0
M  V30 12917 H 1185.03 6.55413 1.77795 0
M  V30 12918 H 1182.98 5.41088 3.70891 0
M  V30 12919 H 1182.9 6.96353 2.94328 0
M  V30 12920 H 1184.16 6.63769 4.08694 0
M  V30 12921 N 1188.39 -0.0785156 1.57404 0
M  V30 12922 C 1189.34 -1.11278 2.04255 0
M  V30 12923 C 1190.33 -1.40482 0.946633 0
M  V30 12924 O 1191.54 -1.39968 1.13177 0
M  V30 12925 H 1187.92 -0.376157 0.65116 0
M  V30 12926 H 1189.89 -0.691437 2.90279 0
M  V30 12927 C 1188.64 -2.42006 2.49656 0
M  V30 12928 H 1187.96 -2.20383 3.33574 0
M  V30 12929 H 1189.4 -3.12837 2.86197 0
M  V30 12930 C 1187.86 -3.07488 1.37669 0
M  V30 12931 O 1188.39 -3.95285 0.715036 0
M  V30 12932 N 1186.59 -2.68004 1.1235 0
M  V30 12933 H 1186.14 -1.96698 1.66336 0
M  V30 12934 H 1186.1 -3.12141 0.376238 0
M  V30 12935 N 1189.87 -1.5367 -0.349747 0
M  V30 12936 C 1191.12 -1.70281 -1.08853 0
M  V30 12937 C 1191.44 -0.465438 -1.89364 0
M  V30 12938 O 1190.71 0.520615 -1.88856 0
M  V30 12939 H 1189.29 -0.627775 -0.404854 0
M  V30 12940 H 1191.95 -1.90906 -0.392523 0
M  V30 12941 H 1191.05 -2.57096 -1.76941 0
M  V30 12942 N 1191.35 0.610423 -1.45298 0
M  V30 12943 C 1192.3 1.74245 -1.54083 0
M  V30 12944 C 1193.29 1.64338 -0.411003 0
M  V30 12945 O 1194.5 1.70167 -0.586799 0
M  V30 12946 H 1190.87 0.575612 -0.483916 0
M  V30 12947 H 1192.84 1.63961 -2.49318 0
M  V30 12948 C 1191.59 3.1262 -1.52198 0
M  V30 12949 H 1190.91 3.209 -2.3846 0
M  V30 12950 H 1192.35 3.91665 -1.62403 0
M  V30 12951 C 1190.81 3.36001 -0.24595 0
M  V30 12952 O 1191.34 3.95982 0.675374 0
M  V30 12953 N 1189.55 2.9025 -0.142537 0
M  V30 12954 H 1189.1 2.41621 -0.893143 0
M  V30 12955 H 1189.05 3.06268 0.710427 0
M  V30 12956 N 1192.83 1.32541 0.852676 0
M  V30 12957 C 1194.07 1.22971 1.60383 0
M  V30 12958 C 1194.4 -0.208009 1.93887 0
M  V30 12959 O 1193.67 -1.13326 1.59794 0
M  V30 12960 H 1192.25 0.452149 0.594618 0
M  V30 12961 H 1194.91 1.66089 1.01983 0
M  V30 12962 H 1194 1.81373 2.53989 0
M  V30 12963 N 1194.3 -1.0692 1.15784 0
M  V30 12964 C 1195.25 -2.14235 0.858616 0
M  V30 12965 C 1196.22 -1.65006 -0.190295 0
M  V30 12966 O 1197.41 -1.90715 -0.0568853 0
M  V30 12967 C 1194.55 -3.43229 0.35888 0
M  V30 12968 C 1193.66 -4.06225 1.46987 0
M  V30 12969 C 1192.79 -5.2307 0.925812 0
M  V30 12970 C 1191.83 -5.78037 2.01345 0
M  V30 12971 N 1190.97 -6.86206 1.48544 0
M  V30 12972 H 1195.81 -2.3917 1.77769 0
M  V30 12973 H 1193.35 -1.17354 0.886925 0
M  V30 12974 H 1195.31 -4.17169 0.0508198 0
M  V30 12975 H 1193.94 -3.18531 -0.523259 0
M  V30 12976 H 1192.99 -3.29895 1.89403 0
M  V30 12977 H 1194.3 -4.43081 2.29088 0
M  V30 12978 H 1193.45 -6.04011 0.570555 0
M  V30 12979 H 1192.19 -4.87644 0.0740371 0
M  V30 12980 H 1191.2 -4.95738 2.37748 0
M  V30 12981 H 1192.42 -6.15517 2.86907 0
M  V30 12982 H 1190.37 -6.52711 0.656092 0
M  V30 12983 H 1190.29 -7.2197 2.24266 0
M  V30 12984 H 1191.55 -7.70842 1.15856 0
M  V30 12985 N 1195.78 -0.955326 -1.25345 0
M  V30 12986 C 1197.03 -0.609278 -1.92697 0
M  V30 12987 C 1197.35 0.856535 -1.75181 0
M  V30 12988 O 1196.62 1.61013 -1.11587 0
M  V30 12989 H 1195.2 -0.22235 -0.713141 0
M  V30 12990 H 1197.86 -1.21372 -1.52496 0
M  V30 12991 H 1196.96 -0.839198 -3.00606 0
M  V30 12992 N 1197.26 1.39987 -0.723979 0
M  V30 12993 C 1198.51 2.01514 -0.276365 0
M  V30 12994 C 1198.86 1.56399 1.12058 0
M  V30 12995 O 1198.16 0.777927 1.75097 0
M  V30 12996 C 1198.35 3.56101 -0.304472 0
M  V30 12997 C 1198.18 4.16223 -1.70261 0
M  V30 12998 C 1196.95 4.49292 -2.31225 0
M  V30 12999 C 1199.15 4.40512 -2.65431 0
M  V30 13000 N 1197.13 4.94854 -3.63308 0
M  V30 13001 C 1198.5 4.88158 -3.82232 0
M  V30 13002 C 1200.55 4.22562 -2.63335 0
M  V30 13003 C 1199.26 5.19739 -4.97256 0
M  V30 13004 C 1201.28 4.5525 -3.77493 0
M  V30 13005 C 1200.65 5.03093 -4.93028 0
M  V30 13006 H 1196.74 0.768031 -0.147146 0
M  V30 13007 H 1199.33 1.70085 -0.947581 0
M  V30 13008 H 1197.5 3.86941 0.336344 0
M  V30 13009 H 1199.23 4.04381 0.160647 0
M  V30 13010 H 1195.99 4.36712 -1.83248 0
M  V30 13011 H 1196.41 5.22007 -4.31089 0
M  V30 13012 H 1201.05 3.84786 -1.75212 0
M  V30 13013 H 1198.77 5.56426 -5.86017 0
M  V30 13014 H 1202.36 4.42995 -3.77156 0
M  V30 13015 H 1201.24 5.27909 -5.79898 0
M  V30 13016 N 1198.74 0.470782 1.50404 0
M  V30 13017 C 1199.67 -0.313458 2.31386 0
M  V30 13018 C 1200.65 -0.990623 1.38278 0
M  V30 13019 O 1201.84 -0.987854 1.67198 0
M  V30 13020 C 1198.97 -1.39599 3.18009 0
M  V30 13021 C 1197.92 -0.840443 4.19667 0
M  V30 13022 C 1197.25 -2.02124 4.95025 0
M  V30 13023 C 1198.55 0.148055 5.2209 0
M  V30 13024 H 1200.24 0.362432 2.97198 0
M  V30 13025 H 1197.79 0.175745 1.42924 0
M  V30 13026 H 1199.74 -1.9521 3.73458 0
M  V30 13027 H 1198.46 -2.10064 2.50081 0
M  V30 13028 H 1197.12 -0.306302 3.65318 0
M  V30 13029 H 1196.77 -2.71286 4.23571 0
M  V30 13030 H 1196.47 -1.65574 5.6379 0
M  V30 13031 H 1197.99 -2.58226 5.5331 0
M  V30 13032 H 1199.41 -0.318874 5.72413 0
M  V30 13033 H 1197.8 0.427811 5.98573 0
M  V30 13034 H 1198.87 1.07404 4.72855 0
M  V30 13035 N 1200.22 -1.56282 0.203376 0
M  V30 13036 C 1201.63 -1.58871 -0.152335 0
M  V30 13037 C 1201.83 -1.21978 -1.60386 0
M  V30 13038 O 1200.89 -0.946422 -2.34092 0
M  V30 13039 C 1202.2 -3.00287 0.157515 0
M  V30 13040 C 1203.75 -3.12846 0.098287 0
M  V30 13041 C 1204.23 -4.56408 0.38156 0
M  V30 13042 N 1205.72 -4.6202 0.330475 0
M  V30 13043 C 1206.45 -5.71006 0.523397 0
M  V30 13044 N 1205.95 -6.88428 0.777115 0
M  V30 13045 N 1207.74 -5.60238 0.457082 0
M  V30 13046 H 1199.89 -1.78543 1.15048 0
M  V30 13047 H 1202.15 -0.829019 0.459816 0
M  V30 13048 H 1201.86 -3.3187 1.16427 0
M  V30 13049 H 1201.73 -3.73372 -0.536041 0
M  V30 13050 H 1204.12 -2.8107 -0.899085 0
M  V30 13051 H 1204.2 -2.42129 0.825045 0
M  V30 13052 H 1203.85 -4.88897 1.37629 0
M  V30 13053 H 1203.78 -5.25325 -0.366182 0
M  V30 13054 H 1206.27 -3.77636 0.141327 0
M  V30 13055 H 1206.58 -7.67389 0.912911 0
M  V30 13056 H 1204.93 -6.90215 0.814104 0
M  V30 13057 H 1208.12 -4.67382 0.259226 0
M  V30 13058 H 1208.29 -6.45114 0.610848 0
M  V30 13059 N 1201.7 0.070167 -1.57444 0
M  V30 13060 C 1202.63 1.08351 -2.06839 0
M  V30 13061 C 1203.61 1.40269 -0.962224 0
M  V30 13062 O 1204.79 1.49867 -1.23505 0
M  V30 13063 C 1201.92 2.39649 -2.51368 0
M  V30 13064 C 1200.88 2.22079 -3.65875 0
M  V30 13065 C 1200.2 3.58776 -3.96464 0
M  V30 13066 C 1201.5 1.64069 -4.95862 0
M  V30 13067 H 1203.2 0.672465 -2.9175 0
M  V30 13068 H 1200.74 0.322027 -1.40353 0
M  V30 13069 H 1202.69 3.10833 -2.84537 0
M  V30 13070 H 1201.42 2.82736 -1.63487 0
M  V30 13071 H 1200.08 1.53337 -3.32992 0
M  V30 13072 H 1199.73 3.99436 -3.05712 0
M  V30 13073 H 1199.43 3.47859 -4.7357 0
M  V30 13074 H 1200.95 4.31387 -4.32131 0
M  V30 13075 H 1202.36 2.2512 -5.27251 0
M  V30 13076 H 1200.76 1.63843 -5.773 0
M  V30 13077 H 1201.83 0.60232 -4.81145 0
M  V30 13078 N 1203.17 1.53854 0.341593 0
M  V30 13079 C 1204.12 1.81979 1.41959 0
M  V30 13080 C 1205.09 0.665616 1.5218 0
M  V30 13081 O 1206.28 0.910246 1.67688 0
M  V30 13082 C 1203.42 2.03681 2.78583 0
M  V30 13083 C 1202.53 3.31389 2.77137 0
M  V30 13084 C 1201.66 3.43148 4.05491 0
M  V30 13085 C 1200.7 4.64799 3.98282 0
M  V30 13086 N 1199.84 4.73581 5.18329 0
M  V30 13087 H 1204.68 2.73953 1.17275 0
M  V30 13088 H 1202.22 1.35689 0.568062 0
M  V30 13089 H 1204.17 2.14253 3.57983 0
M  V30 13090 H 1202.8 1.15017 3.01614 0
M  V30 13091 H 1201.86 3.29649 1.89832 0
M  V30 13092 H 1203.17 4.20885 2.67689 0
M  V30 13093 H 1202.32 3.53163 4.93316 0
M  V30 13094 H 1201.06 2.51712 4.17723 0
M  V30 13095 H 1200.07 4.54859 3.08842 0
M  V30 13096 H 1201.29 5.57601 3.87631 0
M  V30 13097 H 1199.24 3.85055 5.31102 0
M  V30 13098 H 1199.15 5.57016 5.11145 0
M  V30 13099 H 1200.42 4.87908 6.0792 0
M  V30 13100 N 1204.65 -0.602709 1.4562 0
M  V30 13101 C 1205.6 -1.73425 1.55005 0
M  V30 13102 C 1206.59 -1.64118 0.419713 0
M  V30 13103 O 1207.8 -1.69853 0.595815 0
M  V30 13104 H 1204.17 -0.573038 0.486962 0
M  V30 13105 H 1206.15 -1.62637 2.50184 0
M  V30 13106 C 1204.89 -3.11808 1.53853 0
M  V30 13107 H 1204.22 -3.19631 2.40158 0
M  V30 13108 H 1205.66 -3.90798 1.64477 0
M  V30 13109 C 1204.12 -3.35866 0.263765 0
M  V30 13110 O 1204.65 -3.96334 -0.654364 0
M  V30 13111 N 1202.85 -2.90171 0.157927 0
M  V30 13112 H 1202.4 -2.41144 0.905944 0
M  V30 13113 H 1202.36 -3.06641 -0.694175 0
M  V30 13114 N 1206.13 -1.32992 -0.845635 0
M  V30 13115 C 1207.08 -1.22652 -1.97634 0
M  V30 13116 C 1208.07 -0.129344 -1.68905 0
M  V30 13117 O 1209.28 -0.292863 -1.77602 0
M  V30 13118 H 1205.65 -0.380439 -0.648668 0
M  V30 13119 H 1207.62 -2.18261 -2.03481 0
M  V30 13120 C 1206.37 -0.975677 -3.3373 0
M  V30 13121 H 1205.7 -1.81217 -3.56371 0
M  V30 13122 H 1207.14 -0.943608 -4.13367 0
M  V30 13123 C 1205.59 0.321491 -3.35363 0
M  V30 13124 O 1206.12 1.33042 -3.79029 0
M  V30 13125 N 1204.33 0.346648 -2.88525 0
M  V30 13126 H 1203.88 -0.474931 -2.53184 0
M  V30 13127 H 1203.84 1.2144 -2.9 0
M  V30 13128 N 1207.61 1.06304 -1.1635 0
M  V30 13129 C 1208.54 2.13209 -0.81346 0
M  V30 13130 C 1209.52 1.61174 0.21484 0
M  V30 13131 O 1210.7 1.8824 0.0989458 0
M  V30 13132 C 1207.83 3.38039 -0.211498 0
M  V30 13133 C 1206.88 4.08875 -1.21339 0
M  V30 13134 S 1207.71 4.58894 -2.76001 0
M  V30 13135 C 1208.86 5.86985 -2.17254 0
M  V30 13136 H 1209.1 2.42572 -1.7189 0
M  V30 13137 H 1206.63 1.18737 -0.986957 0
M  V30 13138 H 1208.59 4.10296 0.129349 0
M  V30 13139 H 1207.25 3.06834 0.671705 0
M  V30 13140 H 1206.44 4.98528 -0.740631 0
M  V30 13141 H 1206.04 3.42632 -1.49932 0
M  V30 13142 H 1208.34 6.59738 -1.54115 0
M  V30 13143 H 1209.28 6.38991 -3.05117 0
M  V30 13144 H 1209.69 5.41012 -1.61141 0
M  V30 13145 N 1209.09 0.96196 1.24836 0
M  V30 13146 C 1210.33 0.619489 1.92371 0
M  V30 13147 C 1210.65 -0.847233 1.75633 0
M  V30 13148 O 1209.92 -1.60419 1.12439 0
M  V30 13149 H 1208.5 0.226129 0.711951 0
M  V30 13150 H 1211.17 1.22179 1.5185 0
M  V30 13151 H 1210.26 0.855128 3.00157 0
M  V30 13152 N 1210.56 -1.39601 0.731392 0
M  V30 13153 C 1211.53 -2.28992 0.0976037 0
M  V30 13154 C 1212.53 -1.46135 -0.670917 0
M  V30 13155 O 1213.72 -1.66856 -0.50047 0
M  V30 13156 C 1210.85 -3.29582 -0.871124 0
M  V30 13157 H 1212.04 -2.86541 0.885112 0
M  V30 13158 H 1209.59 -1.48188 0.497002 0
M  V30 13159 H 1210.33 -2.77082 -1.68512 0
M  V30 13160 H 1210.11 -3.9077 -0.322735 0
M  V30 13161 H 1211.6 -3.96479 -1.31126 0
M  V30 13162 N 1212.04 -0.478751 -1.50152 0
M  V30 13163 C 1212.99 0.330224 -2.25596 0
M  V30 13164 C 1213.98 0.954871 -1.29503 0
M  V30 13165 O 1215.17 0.866153 -1.54359 0
M  V30 13166 C 1212.3 1.40719 -3.13134 0
M  V30 13167 C 1211.38 0.789896 -4.16679 0
M  V30 13168 N 1211.77 -0.094345 -5.05712 0
M  V30 13169 C 1210.07 1.05299 -4.33391 0
M  V30 13170 C 1210.77 -0.445458 -5.79992 0
M  V30 13171 N 1209.75 0.181237 -5.43298 0
M  V30 13172 H 1213.55 -0.350824 -2.91799 0
M  V30 13173 H 1211.07 -0.293386 -1.59728 0
M  V30 13174 H 1213.06 1.99999 -3.65795 0
M  V30 13175 H 1211.72 2.09015 -2.48481 0
M  V30 13176 H 1212.73 -0.463695 -5.1582 0
M  V30 13177 H 1209.41 1.73036 -3.79954 0
M  V30 13178 H 1210.8 -1.16754 -6.61678 0
M  V30 13179 N 1213.52 1.56172 -0.211661 0
M  V30 13180 C 1214.43 2.23468 0.714081 0
M  V30 13181 C 1215.45 1.23908 1.22159 0
M  V30 13182 O 1216.62 1.56693 1.26528 0
M  V30 13183 C 1213.69 2.89375 1.90953 0
M  V30 13184 C 1212.75 4.04251 1.44497 0
M  V30 13185 C 1211.98 4.67006 2.58343 0
M  V30 13186 O 1212.2 4.28721 3.76237 0
M  V30 13187 O 1211.14 5.56177 2.3011 0
M  V30 13188 H 1214.96 3.03219 0.170862 0
M  V30 13189 H 1212.55 1.49389 0.0183607 0
M  V30 13190 H 1214.43 3.3101 2.60787 0
M  V30 13191 H 1213.11 2.12591 2.44104 0
M  V30 13192 H 1212.01 3.67205 0.714932 0
M  V30 13193 H 1213.35 4.82748 0.959947 0
M  V30 13194 N 1215 -0.0618163 1.57479 0
M  V30 13195 C 1215.91 -1.09006 2.07738 0
M  V30 13196 C 1216.92 -1.4176 1.00896 0
M  V30 13197 O 1218.1 -1.51737 1.32431 0
M  V30 13198 C 1215.17 -2.38153 2.5196 0
M  V30 13199 C 1214.23 -2.12279 3.73143 0
M  V30 13200 C 1213.46 -3.35269 4.15248 0
M  V30 13201 O 1213.68 -4.44758 3.57137 0
M  V30 13202 O 1212.62 -3.22894 5.0796 0
M  V30 13203 H 1216.44 -0.693059 2.95686 0
M  V30 13204 H 1214.03 -0.276628 1.46817 0
M  V30 13205 H 1215.91 -3.14139 2.80882 0
M  V30 13206 H 1214.58 -2.77213 1.67137 0
M  V30 13207 H 1213.49 -1.33966 3.49291 0
M  V30 13208 H 1214.82 -1.78094 4.5885 0
M  V30 13209 N 1216.48 -1.54033 -0.333429 0
M  V30 13210 C 1217.42 -1.82729 -1.40992 0
M  V30 13211 C 1218.39 -0.673677 -1.51825 0
M  V30 13212 O 1219.58 -0.919126 -1.67203 0
M  V30 13213 C 1216.72 -2.05155 -2.77498 0
M  V30 13214 C 1215.83 -3.32854 -2.75376 0
M  V30 13215 C 1214.97 -3.45294 -4.03665 0
M  V30 13216 C 1214.01 -4.66905 -3.95811 0
M  V30 13217 N 1213.14 -4.76323 -5.1581 0
M  V30 13218 H 1217.98 -2.74572 -1.15821 0
M  V30 13219 H 1215.52 -1.35988 -0.560859 0
M  V30 13220 H 1217.48 -2.16148 -3.56841 0
M  V30 13221 H 1216.11 -1.16615 -3.01 0
M  V30 13222 H 1215.16 -3.30651 -1.88081 0
M  V30 13223 H 1216.47 -4.22299 -2.65453 0
M  V30 13224 H 1215.63 -3.55775 -4.91436 0
M  V30 13225 H 1214.36 -2.53924 -4.16382 0
M  V30 13226 H 1213.37 -4.56491 -3.06425 0
M  V30 13227 H 1214.59 -5.59649 -3.84668 0
M  V30 13228 H 1212.54 -3.87866 -5.29052 0
M  V30 13229 H 1212.46 -5.59719 -5.08184 0
M  V30 13230 H 1213.73 -4.91125 -6.05324 0
M  V30 13231 N 1217.95 0.594978 -1.45938 0
M  V30 13232 C 1218.9 1.70489 -1.5557 0
M  V30 13233 C 1219.87 1.61193 -0.400751 0
M  V30 13234 O 1221.06 1.80587 -0.615882 0
M  V30 13235 C 1218.2 3.08817 -1.54033 0
M  V30 13236 C 1217.31 3.28827 -2.80173 0
M  V30 13237 C 1216.44 4.57333 -2.70222 0
M  V30 13238 C 1215.48 4.70644 -3.91357 0
M  V30 13239 N 1214.62 5.90463 -3.79865 0
M  V30 13240 H 1219.46 1.61593 -2.50383 0
M  V30 13241 H 1217 0.787747 -1.24229 0
M  V30 13242 H 1218.96 3.88865 -1.51129 0
M  V30 13243 H 1217.59 3.1664 -0.627617 0
M  V30 13244 H 1216.64 2.42467 -2.9311 0
M  V30 13245 H 1217.95 3.34534 -3.69985 0
M  V30 13246 H 1217.1 5.45593 -2.65354 0
M  V30 13247 H 1215.84 4.54045 -1.7803 0
M  V30 13248 H 1214.85 3.80805 -3.9657 0
M  V30 13249 H 1216.07 4.75721 -4.8463 0
M  V30 13250 H 1214.02 5.88196 -2.90451 0
M  V30 13251 H 1213.94 5.97385 -4.63322 0
M  V30 13252 H 1215.2 6.81187 -3.78952 0
M  V30 13253 N 1219.43 1.33438 0.838571 0
M  V30 13254 C 1220.34 1.25753 1.98049 0
M  V30 13255 C 1221.36 0.168051 1.73187 0
M  V30 13256 O 1222.53 0.391691 1.97554 0
M  V30 13257 C 1219.6 0.997148 3.32051 0
M  V30 13258 C 1218.66 2.17667 3.70027 0
M  V30 13259 C 1217.89 1.92861 4.97635 0
M  V30 13260 O 1218.12 0.879072 5.63585 0
M  V30 13261 O 1217.05 2.79402 5.33121 0
M  V30 13262 H 1220.88 2.21786 2.07472 0
M  V30 13263 H 1218.46 1.13488 0.971645 0
M  V30 13264 H 1220.34 0.869099 4.1234 0
M  V30 13265 H 1219.02 0.0671036 3.2363 0
M  V30 13266 H 1217.93 2.36025 2.90246 0
M  V30 13267 H 1219.26 3.09006 3.83114 0
M  V30 13268 N 1220.91 -1.05686 1.16912 0
M  V30 13269 C 1222.19 -1.7546 0.864483 0
M  V30 13270 C 1222.57 -2.0128 -0.636359 0
M  V30 13271 O 1221.92 -1.64485 -1.58609 0
M  V30 13272 C 1222.13 -3.05134 1.69395 0
M  V30 13273 C 1223.47 -3.79176 1.91079 0
M  V30 13274 O 1224.5 -3.1499 1.66312 0
M  V30 13275 O 1223.36 -4.94496 2.32671 0
M  V30 13276 H 1220.45 -0.762748 0.319601 0
M  V30 13277 H 1223 -1.11899 1.27581 0
M  V30 13278 H 1221.77 -2.82063 2.71212 0
M  V30 13279 H 1221.39 -3.76431 1.28007 0
M  V30 13280 N 1222.39 -0.968567 -1.24324 0
M  V30 13281 C 1223.63 -0.641458 -1.9302 0
M  V30 13282 C 1223.99 0.814553 -1.74307 0
M  V30 13283 O 1223.28 1.57848 -1.08603 0
M  V30 13284 C 1223.48 -0.952762 -3.44467 0
M  V30 13285 C 1223.31 -2.43748 -3.77911 0
M  V30 13286 C 1222.08 -3.09746 -3.99231 0
M  V30 13287 C 1224.27 -3.4176 -3.84324 0
M  V30 13288 N 1222.26 -4.47947 -4.19782 0
M  V30 13289 C 1223.63 -4.65321 -4.09728 0
M  V30 13290 C 1225.68 -3.36406 -3.67064 0
M  V30 13291 C 1224.38 -5.84186 -4.19665 0
M  V30 13292 C 1226.41 -4.54624 -3.78248 0
M  V30 13293 C 1225.77 -5.76976 -4.04077 0
M  V30 13294 H 1221.87 -0.285584 -0.727987 0
M  V30 13295 H 1224.46 -1.2436 -1.49808 0
M  V30 13296 H 1222.63 -0.379421 -3.86542 0
M  V30 13297 H 1224.36 -0.584137 -4.00462 0
M  V30 13298 H 1221.11 -2.60274 -3.95669 0
M  V30 13299 H 1221.54 -5.19559 -4.34036 0
M  V30 13300 H 1226.18 -2.42847 -3.461 0
M  V30 13301 H 1223.9 -6.78172 -4.3944 0
M  V30 13302 H 1227.48 -4.52043 -3.66262 0
M  V30 13303 H 1226.36 -6.66925 -4.1253 0
M  V30 13304 N 1223.87 1.39211 -0.738786 0
M  V30 13305 C 1224.81 2.32424 -0.0904601 0
M  V30 13306 C 1225.81 1.53258 0.721694 0
M  V30 13307 O 1227.01 1.68895 0.622454 0
M  V30 13308 H 1223.39 0.751927 -0.010453 0
M  V30 13309 H 1225.36 2.84726 -0.892945 0
M  V30 13310 C 1224.11 3.38377 0.799783 0
M  V30 13311 H 1223.43 3.99375 0.18424 0
M  V30 13312 H 1224.87 4.0604 1.22096 0
M  V30 13313 C 1223.33 2.75734 1.93578 0
M  V30 13314 O 1223.86 2.63876 3.02874 0
M  V30 13315 N 1222.07 2.33764 1.72634 0
M  V30 13316 H 1221.61 2.43609 0.837413 0
M  V30 13317 H 1221.57 1.92191 2.48817 0
M  V30 13318 N 1225.34 0.486708 1.49896 0
M  V30 13319 C 1226.29 -0.313156 2.30482 0
M  V30 13320 C 1227.29 -0.976043 1.38455 0
M  V30 13321 O 1228.49 -0.905364 1.55574 0
M  V30 13322 H 1224.87 -0.119839 0.74239 0
M  V30 13323 H 1226.84 0.386701 2.95884 0
M  V30 13324 C 1225.59 -1.37334 3.19429 0
M  V30 13325 H 1224.91 -0.87265 3.9016 0
M  V30 13326 H 1226.35 -1.90526 3.78782 0
M  V30 13327 C 1224.81 -2.38378 2.38071 0
M  V30 13328 O 1225.34 -3.43972 2.07476 0
M  V30 13329 N 1223.55 -2.10486 2.00359 0
M  V30 13330 H 1223.09 -1.24638 2.2544 0
M  V30 13331 H 1223.05 -2.78324 1.46229 0
M  V30 13332 N 1226.82 -1.56058 0.219941 0
M  V30 13333 C 1228.07 -1.98554 -0.412808 0
M  V30 13334 C 1228.4 -1.10742 -1.5953 0
M  V30 13335 O 1227.68 -0.164757 -1.93801 0
M  V30 13336 C 1227.96 -3.4995 -0.848923 0
M  V30 13337 C 1227.81 -4.48535 0.337094 0
M  V30 13338 C 1229.13 -4.05703 -1.70567 0
M  V30 13339 H 1226.25 -0.721869 -0.148576 0
M  V30 13340 H 1228.89 -1.87356 0.315852 0
M  V30 13341 H 1227.04 -3.59624 -1.46979 0
M  V30 13342 H 1228.72 -4.50874 0.975216 0
M  V30 13343 H 1226.96 -4.22474 0.984798 0
M  V30 13344 H 1227.63 -5.51999 -0.0109665 0
M  V30 13345 H 1230.11 -3.98964 -1.18182 0
M  V30 13346 H 1228.98 -5.11955 -1.97972 0
M  V30 13347 H 1229.24 -3.52487 -2.66844 0
M  V30 13348 N 1228.3 0.053464 -1.57509 0
M  V30 13349 C 1229.53 0.761533 -1.92375 0
M  V30 13350 C 1229.94 1.70179 -0.817585 0
M  V30 13351 O 1229.3 1.81313 0.207843 0
M  V30 13352 C 1229.35 1.53954 -3.27078 0
M  V30 13353 O 1229.07 0.637054 -4.33443 0
M  V30 13354 C 1230.57 2.34697 -3.76075 0
M  V30 13355 H 1227.79 0.215483 -0.635459 0
M  V30 13356 H 1230.34 0.0182624 -2.04492 0
M  V30 13357 H 1228.49 2.23492 -3.16434 0
M  V30 13358 H 1228.91 1.18006 -5.11053 0
M  V30 13359 H 1230.38 2.84716 -4.72906 0
M  V30 13360 H 1230.86 3.15041 -3.06016 0
M  V30 13361 H 1231.46 1.70281 -3.89724 0
M  V30 13362 N 1229.78 1.54207 0.325255 0
M  V30 13363 C 1230.73 1.83474 1.40021 0
M  V30 13364 C 1231.7 0.681719 1.51466 0
M  V30 13365 O 1232.88 0.92798 1.66713 0
M  V30 13366 C 1230.02 2.06624 2.76407 0
M  V30 13367 C 1229.13 3.3431 2.73607 0
M  V30 13368 C 1228.27 3.4743 4.01828 0
M  V30 13369 C 1227.31 4.68997 3.93329 0
M  V30 13370 N 1226.45 4.79052 5.13277 0
M  V30 13371 H 1231.29 2.75182 1.14363 0
M  V30 13372 H 1228.82 1.36284 0.553639 0
M  V30 13373 H 1230.78 2.18037 3.5569 0
M  V30 13374 H 1229.41 1.18209 3.00377 0
M  V30 13375 H 1228.46 3.31643 1.86324 0
M  V30 13376 H 1229.77 4.237 2.6321 0
M  V30 13377 H 1228.93 3.58376 4.89542 0
M  V30 13378 H 1227.67 2.56128 4.1503 0
M  V30 13379 H 1226.67 4.58109 3.04 0
M  V30 13380 H 1227.9 5.61681 3.81695 0
M  V30 13381 H 1225.84 3.90666 5.26988 0
M  V30 13382 H 1225.76 5.62406 5.05208 0
M  V30 13383 H 1227.03 4.94328 6.02711 0
M  V30 13384 N 1231.26 -0.58723 1.46251 0
M  V30 13385 C 1232.22 -1.67863 1.5606 0
M  V30 13386 C 1233.22 -1.54715 0.438162 0
M  V30 13387 O 1234.41 -1.59415 0.702323 0
M  V30 13388 C 1231.54 -3.07262 1.47659 0
M  V30 13389 H 1232.74 -1.60525 2.53321 0
M  V30 13390 H 1230.29 -0.804691 1.33994 0
M  V30 13391 H 1231.02 -3.20159 0.5166 0
M  V30 13392 H 1230.81 -3.18213 2.29092 0
M  V30 13393 H 1232.3 -3.8672 1.57599 0
M  V30 13394 N 1232.74 -1.33881 -0.831482 0
M  V30 13395 C 1233.65 -1.26802 -1.97379 0
M  V30 13396 C 1234.66 -0.177233 -1.73095 0
M  V30 13397 O 1235.84 -0.402163 -1.97344 0
M  V30 13398 C 1232.9 -1.01474 -3.31517 0
M  V30 13399 C 1231.96 -2.19626 -3.68867 0
M  V30 13400 C 1231.2 -1.95497 -4.96605 0
M  V30 13401 O 1231.42 -0.908948 -5.63111 0
M  V30 13402 O 1230.35 -2.82226 -5.31632 0
M  V30 13403 H 1234.18 -2.22883 -2.06293 0
M  V30 13404 H 1231.76 -1.14001 -0.965613 0
M  V30 13405 H 1233.65 -0.890954 -4.11874 0
M  V30 13406 H 1232.32 -0.0842656 -3.2359 0
M  V30 13407 H 1231.23 -2.37561 -2.88991 0
M  V30 13408 H 1232.56 -3.11034 -3.81469 0
M  V30 13409 N 1234.21 1.05064 -1.1747 0
M  V30 13410 C 1235.44 1.82299 -0.98903 0
M  V30 13411 C 1235.86 1.82441 0.457907 0
M  V30 13412 O 1235.22 1.23433 1.32793 0
M  V30 13413 C 1235.27 3.26239 -1.53624 0
M  V30 13414 O 1234.37 4.05507 -0.750857 0
M  V30 13415 H 1233.71 0.563601 -0.35107 0
M  V30 13416 H 1236.24 1.32386 -1.55997 0
M  V30 13417 H 1236.25 3.77038 -1.55906 0
M  V30 13418 H 1234.93 3.25451 -2.58949 0
M  V30 13419 H 1233.51 3.64227 -0.799548 0
M  V30 13420 N 1235.69 0.975146 1.23809 0
M  V30 13421 C 1236.62 0.45593 2.23599 0
M  V30 13422 C 1237.6 -0.474069 1.55536 0
M  V30 13423 O 1238.79 -0.40373 1.84126 0
M  V30 13424 C 1235.91 -0.341008 3.36979 0
M  V30 13425 C 1234.96 0.532362 4.23164 0
M  V30 13426 S 1235.79 1.97706 4.97667 0
M  V30 13427 C 1236.95 1.18912 6.145 0
M  V30 13428 H 1237.18 1.30157 2.67295 0
M  V30 13429 H 1234.71 0.78074 1.33206 0
M  V30 13430 H 1236.67 -0.794817 4.02732 0
M  V30 13431 H 1235.33 -1.16171 2.91827 0
M  V30 13432 H 1234.53 -0.0798928 5.03937 0
M  V30 13433 H 1234.13 0.922202 3.62452 0
M  V30 13434 H 1236.42 0.447823 6.76018 0
M  V30 13435 H 1237.36 1.97148 6.80102 0
M  V30 13436 H 1237.77 0.710216 5.60014 0
M  V30 13437 N 1237.17 -1.38817 0.746158 0
M  V30 13438 C 1238.42 -1.99885 0.298425 0
M  V30 13439 C 1238.74 -1.59518 -1.12156 0
M  V30 13440 O 1238.01 -0.848568 -1.76568 0
M  V30 13441 H 1236.59 -0.739247 0.107347 0
M  V30 13442 H 1239.25 -1.69696 0.9586 0
M  V30 13443 H 1238.35 -3.10067 0.355656 0
M  V30 13444 N 1238.65 -0.49465 -1.49636 0
M  V30 13445 C 1239.58 0.276606 -2.31856 0
M  V30 13446 C 1240.56 0.968499 -1.39836 0
M  V30 13447 O 1241.74 0.96113 -1.68748 0
M  V30 13448 C 1238.87 1.34522 -3.20189 0
M  V30 13449 C 1237.83 0.773571 -4.20951 0
M  V30 13450 C 1237.15 1.94223 -4.98178 0
M  V30 13451 C 1238.45 -0.231096 -5.21788 0
M  V30 13452 H 1240.15 -0.409668 -2.96584 0
M  V30 13453 H 1237.69 -0.198461 -1.42626 0
M  V30 13454 H 1239.65 1.89244 -3.76517 0
M  V30 13455 H 1238.37 2.06059 -2.53392 0
M  V30 13456 H 1237.03 0.248144 -3.65759 0
M  V30 13457 H 1236.68 2.64514 -4.27834 0
M  V30 13458 H 1236.38 1.56584 -5.66353 0
M  V30 13459 H 1237.9 2.49391 -5.57348 0
M  V30 13460 H 1239.32 0.227768 -5.72847 0
M  V30 13461 H 1237.71 -0.522984 -5.97817 0
M  V30 13462 H 1238.78 -1.14914 -4.71087 0
M  V30 13463 N 1240.13 1.55939 -0.228214 0
M  V30 13464 C 1241.06 2.2357 0.6737 0
M  V30 13465 C 1242.04 1.20964 1.1959 0
M  V30 13466 O 1243.22 1.49568 1.23867 0
M  V30 13467 C 1240.35 2.92076 1.87906 0
M  V30 13468 C 1239.31 4.01211 1.49043 0
M  V30 13469 C 1238.63 4.57047 2.77511 0
M  V30 13470 C 1239.93 5.17914 0.67544 0
M  V30 13471 H 1241.63 2.99199 0.109806 0
M  V30 13472 H 1239.17 1.43908 0.0513732 0
M  V30 13473 H 1241.12 3.38083 2.51551 0
M  V30 13474 H 1239.85 2.13906 2.46803 0
M  V30 13475 H 1238.51 3.55945 0.877411 0
M  V30 13476 H 1238.16 3.75599 3.34566 0
M  V30 13477 H 1237.86 5.30707 2.52239 0
M  V30 13478 H 1239.38 5.05776 3.42087 0
M  V30 13479 H 1240.79 5.60261 1.21575 0
M  V30 13480 H 1239.19 5.97847 0.519536 0
M  V30 13481 H 1240.26 4.83866 -0.316495 0
M  V30 13482 N 1241.6 -0.0451101 1.57535 0
M  V30 13483 C 1242.83 -0.755068 1.93167 0
M  V30 13484 C 1243.25 -1.68949 0.826915 0
M  V30 13485 O 1242.61 -1.79978 -0.218534 0
M  V30 13486 C 1242.66 -1.50201 3.27829 0
M  V30 13487 O 1241.76 -2.61434 3.18945 0
M  V30 13488 H 1241.11 -0.204219 0.631815 0
M  V30 13489 H 1243.64 -0.00537504 2.04599 0
M  V30 13490 H 1243.65 -1.87547 3.6234 0
M  V30 13491 H 1242.32 -0.816591 4.07805 0
M  V30 13492 H 1240.9 -2.26749 2.96039 0
M  V30 13493 N 1243.08 -1.54377 -0.317073 0
M  V30 13494 C 1243.99 -1.87247 -1.41335 0
M  V30 13495 C 1245.01 -0.765017 -1.5628 0
M  V30 13496 O 1246.18 -1.05994 -1.71252 0
M  V30 13497 C 1243.25 -2.0988 -2.75955 0
M  V30 13498 C 1242.31 -3.33658 -2.70131 0
M  V30 13499 C 1241.54 -3.55202 -3.9833 0
M  V30 13500 O 1241.77 -2.80061 -4.96913 0
M  V30 13501 O 1240.7 -4.48693 -4.01196 0
M  V30 13502 H 1244.53 -2.80481 -1.16465 0
M  V30 13503 H 1242.11 -1.40364 -0.511687 0
M  V30 13504 H 1243.99 -2.2606 -3.55633 0
M  V30 13505 H 1242.67 -1.19834 -3.00702 0
M  V30 13506 H 1241.58 -3.22857 -1.88981 0
M  V30 13507 H 1242.91 -4.23782 -2.50338 0
M  V30 13508 N 1244.56 0.579466 -1.4656 0
M  V30 13509 C 1245.84 1.33973 -1.42515 0
M  V30 13510 C 1246.22 2.10812 -0.110317 0
M  V30 13511 O 1245.57 2.09679 0.908135 0
M  V30 13512 C 1245.78 2.26301 -2.65686 0
M  V30 13513 C 1247.12 2.88027 -3.1197 0
M  V30 13514 O 1248.15 2.36612 -2.66257 0
M  V30 13515 O 1247.01 3.81423 -3.9138 0
M  V30 13516 H 1244.1 0.602121 -0.566903 0
M  V30 13517 H 1246.65 0.600214 -1.58731 0
M  V30 13518 H 1245.42 1.68973 -3.52936 0
M  V30 13519 H 1245.04 3.07586 -2.51945 0
M  V30 13520 N 1246.04 1.3432 0.824371 0
M  V30 13521 C 1247.45 1.23855 1.39703 0
M  V30 13522 C 1247.8 -0.136566 1.95724 0
M  V30 13523 O 1246.93 -1.03683 1.89944 0
M  V30 13524 C 1247.52 2.24249 2.53965 0
M  V30 13525 C 1246.08 2.17578 3.07143 0
M  V30 13526 C 1245.23 2.10933 1.80008 0
M  V30 13527 H 1248.18 1.45707 0.628891 0
M  V30 13528 H 1248.2 1.85864 3.32016 0
M  V30 13529 H 1247.71 3.24321 2.13161 0
M  V30 13530 H 1245.81 1.20858 3.52455 0
M  V30 13531 H 1245.92 3.08769 3.66331 0
M  V30 13532 H 1244.29 1.56631 2.00845 0
M  V30 13533 H 1245.07 3.12836 1.4138 0
M  V30 13534 N 1247.52 -1.0444 1.18026 0
M  V30 13535 C 1248.46 -2.12365 0.903865 0
M  V30 13536 C 1249.43 -1.65373 -0.155252 0
M  V30 13537 O 1250.62 -1.90793 -0.016419 0
M  V30 13538 C 1247.76 -3.4239 0.431603 0
M  V30 13539 C 1246.87 -4.03016 1.55571 0
M  V30 13540 C 1246.01 -5.20988 1.03655 0
M  V30 13541 C 1245.05 -5.73636 2.1356 0
M  V30 13542 N 1244.18 -6.82901 1.63066 0
M  V30 13543 H 1249.02 -2.35346 1.82802 0
M  V30 13544 H 1246.56 -1.15447 0.911618 0
M  V30 13545 H 1248.52 -4.16967 0.139296 0
M  V30 13546 H 1247.15 -3.19569 -0.455576 0
M  V30 13547 H 1246.2 -3.25803 1.96358 0
M  V30 13548 H 1247.51 -4.38122 2.38434 0
M  V30 13549 H 1246.67 -6.02665 0.698546 0
M  V30 13550 H 1245.4 -4.87377 0.177457 0
M  V30 13551 H 1244.41 -4.90583 2.4821 0
M  V30 13552 H 1245.63 -6.09293 2.99899 0
M  V30 13553 H 1243.58 -6.51172 0.794394 0
M  V30 13554 H 1243.5 -7.1705 2.3953 0
M  V30 13555 H 1244.77 -7.68211 1.32181 0
M  V30 13556 N 1248.99 -0.981699 -1.2329 0
M  V30 13557 C 1250.22 -0.669025 -1.96313 0
M  V30 13558 C 1250.64 0.757624 -1.72168 0
M  V30 13559 O 1250 1.51626 -0.993942 0
M  V30 13560 C 1250.05 -0.966875 -3.47396 0
M  V30 13561 O 1249.15 -0.0595933 -4.12357 0
M  V30 13562 H 1248.5 -0.251493 -0.61453 0
M  V30 13563 H 1251.03 -1.31564 -1.56691 0
M  V30 13564 H 1251.04 -0.904112 -3.97857 0
M  V30 13565 H 1249.71 -2.00651 -3.64296 0
M  V30 13566 H 1248.29 -0.176878 -3.7248 0
M  V30 13567 N 1250.47 1.3842 -0.753509 0
M  V30 13568 C 1251.7 2.04929 -0.319174 0
M  V30 13569 C 1252.12 1.56457 1.04416 0
M  V30 13570 O 1251.48 0.716527 1.6654 0
M  V30 13571 C 1251.53 3.58887 -0.351054 0
M  V30 13572 O 1250.63 4.07166 0.654963 0
M  V30 13573 H 1249.97 0.648782 -0.141343 0
M  V30 13574 H 1252.5 1.77096 -1.02461 0
M  V30 13575 H 1252.51 4.075 -0.201907 0
M  V30 13576 H 1251.19 3.93525 -1.34576 0
M  V30 13577 H 1249.77 3.69921 0.470435 0
M  V30 13578 N 1251.95 0.502579 1.49372 0
M  V30 13579 C 1253.23 -0.104472 1.95321 0
M  V30 13580 C 1253.61 -1.53975 1.44412 0
M  V30 13581 O 1252.96 -2.18804 0.658566 0
M  V30 13582 C 1253.17 -0.0154833 3.48997 0
M  V30 13583 C 1254.51 -0.188615 4.24181 0
M  V30 13584 O 1255.54 -0.090595 3.56085 0
M  V30 13585 O 1254.4 -0.390068 5.45106 0
M  V30 13586 H 1251.49 -0.0944325 0.821591 0
M  V30 13587 H 1254.04 0.565229 1.6001 0
M  V30 13588 H 1252.81 0.985383 3.7869 0
M  V30 13589 H 1252.43 -0.72526 3.90929 0
M  V30 13590 N 1253.43 -1.55816 0.23648 0
M  V30 13591 C 1254.65 -2.03534 -0.398575 0
M  V30 13592 C 1255.08 -1.11488 -1.51499 0
M  V30 13593 O 1254.44 -0.105848 -1.80991 0
M  V30 13594 C 1254.48 -3.49356 -0.893467 0
M  V30 13595 O 1253.59 -3.60446 -2.00381 0
M  V30 13596 H 1252.93 -0.658102 -0.0883021 0
M  V30 13597 H 1255.46 -2.01417 0.359488 0
M  V30 13598 H 1255.47 -3.89972 -1.19941 0
M  V30 13599 H 1254.14 -4.1583 -0.0764388 0
M  V30 13600 H 1252.72 -3.31723 -1.70336 0
M  V30 13601 N 1254.91 0.036755 -1.57557 0
M  V30 13602 C 1255.82 1.05687 -2.09446 0
M  V30 13603 C 1256.83 1.40137 -1.03139 0
M  V30 13604 O 1258.01 1.49611 -1.34828 0
M  V30 13605 C 1255.07 2.34114 -2.55717 0
M  V30 13606 C 1254.13 2.06316 -3.76473 0
M  V30 13607 C 1253.37 3.2862 -4.20529 0
M  V30 13608 O 1253.59 4.3902 -3.64167 0
M  V30 13609 O 1252.52 3.14772 -5.13033 0
M  V30 13610 H 1256.35 0.64593 -2.96751 0
M  V30 13611 H 1253.94 0.253235 -1.47238 0
M  V30 13612 H 1255.82 3.09631 -2.85844 0
M  V30 13613 H 1254.49 2.74519 -1.71526 0
M  V30 13614 H 1253.4 1.28392 -3.51378 0
M  V30 13615 H 1254.73 1.70772 -4.61625 0
M  V30 13616 N 1256.39 1.54543 0.308881 0
M  V30 13617 C 1257.33 1.85693 1.40074 0
M  V30 13618 C 1258.33 0.730004 1.52864 0
M  V30 13619 O 1259.53 0.913884 1.55075 0
M  V30 13620 H 1255.91 0.588842 0.467728 0
M  V30 13621 H 1257.88 2.76973 1.11034 0
M  V30 13622 C 1256.63 2.11399 2.76054 0
M  V30 13623 H 1255.95 2.97583 2.66992 0
M  V30 13624 H 1257.39 2.37139 3.51484 0
M  V30 13625 C 1255.85 0.91007 3.24375 0
M  V30 13626 O 1256.38 0.12663 4.015 0
M  V30 13627 N 1254.59 0.717629 2.816 0
M  V30 13628 H 1254.13 1.35637 2.18998 0
M  V30 13629 H 1254.09 -0.0863585 3.14281 0
M  V30 13630 N 1257.86 -0.571685 1.46866 0
M  V30 13631 C 1259.09 -1.36008 1.56578 0
M  V30 13632 C 1259.51 -1.86909 0.211326 0
M  V30 13633 O 1258.87 -1.62179 -0.810421 0
M  V30 13634 C 1258.92 -2.51598 2.58323 0
M  V30 13635 O 1258.02 -3.53383 2.1259 0
M  V30 13636 H 1257.36 -0.404593 0.526498 0
M  V30 13637 H 1259.89 -0.692357 1.92529 0
M  V30 13638 H 1259.9 -2.98366 2.78283 0
M  V30 13639 H 1258.58 -2.13904 3.56676 0
M  V30 13640 H 1257.16 -3.13019 2.02666 0
M  V30 13641 N 1259.34 -1.34755 -0.817236 0
M  V30 13642 C 1260.59 -1.2762 -1.5761 0
M  V30 13643 C 1260.92 0.152017 -1.93604 0
M  V30 13644 O 1260.2 1.09881 -1.60488 0
M  V30 13645 C 1260.48 -2.17251 -2.87183 0
M  V30 13646 C 1260.33 -3.68638 -2.57733 0
M  V30 13647 C 1261.65 -2.06206 -3.88802 0
M  V30 13648 H 1258.77 -0.464933 -0.571845 0
M  V30 13649 H 1261.41 -1.6506 -0.941028 0
M  V30 13650 H 1259.56 -1.85452 -3.41379 0
M  V30 13651 H 1261.23 -4.10829 -2.09802 0
M  V30 13652 H 1259.48 -3.89445 -1.91089 0
M  V30 13653 H 1260.15 -4.26726 -3.50156 0
M  V30 13654 H 1262.62 -2.34137 -3.43975 0
M  V30 13655 H 1261.5 -2.71136 -4.77259 0
M  V30 13656 H 1261.76 -1.04075 -4.29675 0
M  V30 13657 N 1260.82 1.03812 -1.18578 0
M  V30 13658 C 1262.05 1.80702 -1.00769 0
M  V30 13659 C 1262.46 1.83509 0.443833 0
M  V30 13660 O 1261.82 1.2724 1.30829 0
M  V30 13661 C 1261.87 3.26185 -1.55838 0
M  V30 13662 O 1261.59 3.23612 -2.95308 0
M  V30 13663 C 1263.09 4.1971 -1.42682 0
M  V30 13664 H 1260.31 0.568972 -0.355685 0
M  V30 13665 H 1262.86 1.30817 -1.57185 0
M  V30 13666 H 1261.01 3.73293 -1.03592 0
M  V30 13667 H 1261.43 4.14769 -3.2104 0
M  V30 13668 H 1262.9 5.19716 -1.86008 0
M  V30 13669 H 1263.38 4.37588 -0.375924 0
M  V30 13670 H 1263.98 3.78469 -1.94013 0
M  V30 13671 N 1262.3 0.988223 1.22768 0
M  V30 13672 C 1263.24 0.534605 2.24523 0
M  V30 13673 C 1264.21 -0.430615 1.60421 0
M  V30 13674 O 1265.4 -0.336417 1.87811 0
M  V30 13675 C 1262.54 -0.149195 3.44777 0
M  V30 13676 C 1261.65 0.85721 4.2341 0
M  V30 13677 C 1260.79 0.147411 5.30995 0
M  V30 13678 C 1259.83 1.1425 6.01343 0
M  V30 13679 N 1258.96 0.461327 7.00583 0
M  V30 13680 H 1263.8 1.40708 2.62689 0
M  V30 13681 H 1261.34 0.704918 1.2911 0
M  V30 13682 H 1263.3 -0.562527 4.1339 0
M  V30 13683 H 1261.93 -0.985485 3.07389 0
M  V30 13684 H 1260.98 1.38889 3.54138 0
M  V30 13685 H 1262.29 1.61517 4.71926 0
M  V30 13686 H 1261.45 -0.32289 6.0584 0
M  V30 13687 H 1260.19 -0.643085 4.83442 0
M  V30 13688 H 1259.19 1.62348 5.25284 0
M  V30 13689 H 1260.42 1.93379 6.50985 0
M  V30 13690 H 1258.36 -0.309818 6.55268 0
M  V30 13691 H 1258.28 1.15781 7.47082 0
M  V30 13692 H 1259.55 0.0136734 7.79499 0
M  V30 13693 N 1263.78 -1.38018 0.760839 0
M  V30 13694 C 1264.72 -2.32251 0.127425 0
M  V30 13695 C 1265.72 -1.54387 -0.69722 0
M  V30 13696 O 1266.92 -1.69864 -0.595505 0
M  V30 13697 H 1263.3 -0.751666 0.0224141 0
M  V30 13698 H 1265.27 -2.8327 0.93813 0
M  V30 13699 C 1264.02 -3.39606 -0.745849 0
M  V30 13700 H 1263.34 -3.99618 -0.120679 0
M  V30 13701 H 1264.78 -4.07931 -1.15621 0
M  V30 13702 C 1263.24 -2.78778 -1.89167 0
M  V30 13703 O 1263.77 -2.68661 -2.98637 0
M  V30 13704 N 1261.98 -2.36481 -1.68894 0
M  V30 13705 H 1261.52 -2.4491 -0.798551 0
M  V30 13706 H 1261.48 -1.96126 -2.45728 0
M  V30 13707 N 1265.25 -0.510493 -1.49103 0
M  V30 13708 C 1266.66 -0.0650831 -1.86587 0
M  V30 13709 C 1267.02 1.35185 -1.42195 0
M  V30 13710 O 1266.14 2.0091 -0.804004 0
M  V30 13711 C 1266.74 -0.111333 -3.38617 0
M  V30 13712 C 1265.29 0.278782 -3.75366 0
M  V30 13713 C 1264.44 -0.479707 -2.73119 0
M  V30 13714 H 1267.39 -0.722784 -1.41285 0
M  V30 13715 H 1267.41 0.681706 -3.74343 0
M  V30 13716 H 1266.93 -1.14271 -3.70896 0
M  V30 13717 H 1265.03 1.31304 -3.48698 0
M  V30 13718 H 1265.14 -0.047271 -4.79077 0
M  V30 13719 H 1263.5 0.0716459 -2.54599 0
M  V30 13720 H 1264.29 -1.51135 -3.08242 0
M  V30 13721 N 1266.73 1.55688 -0.24474 0
M  V30 13722 C 1267.66 2.24272 0.64995 0
M  V30 13723 C 1268.64 1.22226 1.183 0
M  V30 13724 O 1269.83 1.50873 1.22274 0
M  V30 13725 C 1266.96 2.94053 1.84798 0
M  V30 13726 C 1265.91 4.02769 1.44779 0
M  V30 13727 C 1265.24 4.59965 2.72647 0
M  V30 13728 C 1266.54 5.18601 0.62047 0
M  V30 13729 H 1268.23 2.99298 0.0780654 0
M  V30 13730 H 1265.78 1.43955 0.0361069 0
M  V30 13731 H 1267.73 3.40732 2.47951 0
M  V30 13732 H 1266.45 2.16511 2.44521 0
M  V30 13733 H 1265.11 3.56856 0.839609 0
M  V30 13734 H 1264.76 3.79126 3.30564 0
M  V30 13735 H 1264.46 5.33352 2.46596 0
M  V30 13736 H 1265.99 5.09376 3.36703 0
M  V30 13737 H 1267.4 5.61519 1.15625 0
M  V30 13738 H 1265.8 5.98364 0.456097 0
M  V30 13739 H 1266.87 4.83503 -0.367798 0
M  V30 13740 N 1268.21 -0.0283989 1.57574 0
M  V30 13741 C 1269.63 -0.384054 1.5491 0
M  V30 13742 C 1269.83 -1.76564 0.970947 0
M  V30 13743 O 1268.88 -2.45455 0.592288 0
M  V30 13744 C 1270.19 -0.285297 2.99344 0
M  V30 13745 C 1271.74 -0.36233 3.10896 0
M  V30 13746 C 1272.22 -0.293014 4.57062 0
M  V30 13747 N 1273.71 -0.351788 4.61862 0
M  V30 13748 C 1274.44 -0.321054 5.725 0
M  V30 13749 N 1273.94 -0.242573 6.92375 0
M  V30 13750 N 1275.73 -0.370832 5.60875 0
M  V30 13751 H 1267.88 0.87573 1.93506 0
M  V30 13752 H 1270.15 0.33305 0.887571 0
M  V30 13753 H 1269.85 0.664146 3.45372 0
M  V30 13754 H 1269.73 -1.07869 3.61447 0
M  V30 13755 H 1272.11 -1.30221 2.64814 0
M  V30 13756 H 1272.19 0.460422 2.51622 0
M  V30 13757 H 1271.84 0.643197 5.03811 0
M  V30 13758 H 1271.77 -1.13388 5.14248 0
M  V30 13759 H 1274.26 -0.414929 3.75615 0
M  V30 13760 H 1274.57 -0.224239 7.72475 0
M  V30 13761 H 1272.92 -0.208612 6.94687 0
M  V30 13762 H 1276.11 -0.430141 4.6612 0
M  V30 13763 H 1276.28 -0.343412 6.47089 0
M  V30 13764 N 1269.69 -1.54705 -0.300681 0
M  V30 13765 C 1270.63 -1.85678 -1.37084 0
M  V30 13766 C 1271.6 -0.70573 -1.50362 0
M  V30 13767 O 1272.79 -0.954385 -1.65215 0
M  V30 13768 C 1269.93 -2.10995 -2.73084 0
M  V30 13769 C 1269.04 -3.38621 -2.68254 0
M  V30 13770 C 1268.18 -3.53779 -3.9625 0
M  V30 13771 C 1267.22 -4.75195 -3.85818 0
M  V30 13772 N 1266.35 -4.87157 -5.05591 0
M  V30 13773 H 1271.19 -2.76967 -1.09971 0
M  V30 13774 H 1268.73 -1.37147 -0.531887 0
M  V30 13775 H 1270.69 -2.23669 -3.52176 0
M  V30 13776 H 1269.32 -1.22973 -2.98458 0
M  V30 13777 H 1268.37 -3.34566 -1.81025 0
M  V30 13778 H 1269.68 -4.27834 -2.56436 0
M  V30 13779 H 1268.84 -3.66119 -4.83779 0
M  V30 13780 H 1267.58 -2.62699 -4.10902 0
M  V30 13781 H 1266.58 -4.62888 -2.96673 0
M  V30 13782 H 1267.81 -5.67683 -3.72711 0
M  V30 13783 H 1265.75 -3.99001 -5.20706 0
M  V30 13784 H 1265.67 -5.70372 -4.96197 0
M  V30 13785 H 1266.94 -5.03854 -5.9477 0
M  V30 13786 N 1271.17 0.563888 -1.47167 0
M  V30 13787 C 1272.39 1.34693 -1.57052 0
M  V30 13788 C 1272.81 1.87534 -0.218308 0
M  V30 13789 O 1272.17 1.64639 0.787416 0
M  V30 13790 C 1272.22 2.52148 -2.59044 0
M  V30 13791 O 1271.94 2.01492 -3.89015 0
M  V30 13792 C 1273.44 3.4445 -2.7905 0
M  V30 13793 H 1270.66 0.410822 -0.530534 0
M  V30 13794 H 1273.2 0.683731 -1.92731 0
M  V30 13795 H 1271.36 3.14419 -2.26317 0
M  V30 13796 H 1271.77 2.78122 -4.44689 0
M  V30 13797 H 1273.25 4.23297 -3.54293 0
M  V30 13798 H 1273.72 3.97575 -1.86631 0
M  V30 13799 H 1274.33 2.88 -3.12948 0
M  V30 13800 N 1272.64 1.35187 0.810078 0
M  V30 13801 C 1273.92 1.18832 1.55365 0
M  V30 13802 C 1274.3 -0.233956 2.098 0
M  V30 13803 O 1273.65 -1.23701 1.92121 0
M  V30 13804 C 1273.86 2.25351 2.66492 0
M  V30 13805 C 1275.21 2.60981 3.34924 0
M  V30 13806 O 1276.23 2.24238 2.7676 0
M  V30 13807 O 1275.09 3.24147 4.3999 0
M  V30 13808 H 1272.18 0.461446 0.686292 0
M  V30 13809 H 1274.73 1.46858 0.850341 0
M  V30 13810 H 1273.5 3.20762 2.24115 0
M  V30 13811 H 1273.13 1.98575 3.44462 0
M  V30 13812 N 1274.12 -1.03182 1.19127 0
M  V30 13813 C 1275.35 -1.80703 1.01791 0
M  V30 13814 C 1275.77 -1.83147 -0.428824 0
M  V30 13815 O 1275.13 -1.2553 -1.30812 0
M  V30 13816 C 1275.18 -3.23754 1.58794 0
M  V30 13817 O 1274.28 -4.04261 0.815274 0
M  V30 13818 H 1273.62 -0.557944 0.359992 0
M  V30 13819 H 1276.15 -1.29887 1.58084 0
M  V30 13820 H 1276.16 -3.7451 1.61884 0
M  V30 13821 H 1274.84 -3.2129 2.64094 0
M  V30 13822 H 1273.42 -3.62909 0.857392 0
M  V30 13823 N 1275.6 -0.99472 -1.22242 0
M  V30 13824 C 1276.84 -0.679831 -1.92763 0
M  V30 13825 C 1277.2 0.774024 -1.75707 0
M  V30 13826 O 1278.41 1.20041 -2.40507 0
M  V30 13827 C 1276.68 -1.07685 -3.40791 0
M  V30 13828 S 1278.24 -0.880607 -4.29873 0
M  V30 13829 H 1275.05 -0.248508 -0.666157 0
M  V30 13830 H 1277.66 -1.27738 -1.47997 0
M  V30 13831 H 1276.36 -2.1313 -3.50719 0
M  V30 13832 H 1275.89 -0.471172 -3.90568 0
M  V30 13833 H 1277.91 0.227887 -4.95676 0
M  V30 13834 N 1277.08 1.37613 -0.768148 0
M  V30 13835 C 1278.36 1.93921 -0.255724 0
M  V30 13836 C 1278.74 1.70215 1.2486 0
M  V30 13837 O 1278.08 1.0489 2.03003 0
M  V30 13838 C 1278.29 3.43354 -0.625204 0
M  V30 13839 C 1279.64 4.20439 -0.592978 0
M  V30 13840 O 1280.67 3.51701 -0.564375 0
M  V30 13841 O 1279.52 5.43008 -0.616849 0
M  V30 13842 H 1276.62 0.824968 -0.0579366 0
M  V30 13843 H 1279.16 1.46921 -0.849257 0
M  V30 13844 H 1277.94 3.54177 -1.66356 0
M  V30 13845 H 1277.56 3.976 -0.00442816 0
M  V30 13846 N 1278.56 0.518393 1.4883 0
M  V30 13847 C 1279.78 -0.0183131 2.07392 0
M  V30 13848 C 1280.21 -1.28468 1.37396 0
M  V30 13849 O 1279.56 -1.75975 0.436177 0
M  V30 13850 C 1279.61 -0.237211 3.59819 0
M  V30 13851 O 1278.72 -1.30835 3.91096 0
M  V30 13852 H 1278.06 0.0339621 0.663131 0
M  V30 13853 H 1280.59 0.722993 1.914 0
M  V30 13854 H 1280.6 -0.463424 4.0536 0
M  V30 13855 H 1279.27 0.687925 4.10171 0
M  V30 13856 H 1277.85 -1.06571 3.57347 0
M  V30 13857 N 1280.03 -1.55556 0.252993 0
M  V30 13858 C 1281.28 -1.98697 -0.369319 0
M  V30 13859 C 1281.6 -1.14256 -1.58021 0
M  V30 13860 O 1280.87 -0.226779 -1.94583 0
M  V30 13861 H 1279.45 -0.733869 -0.139444 0
M  V30 13862 H 1282.12 -1.91673 0.353197 0
M  V30 13863 H 1281.21 -3.04728 -0.674312 0
M  V30 13864 N 1281.51 0.0200419 -1.57587 0
M  V30 13865 C 1282.76 0.708115 -1.88861 0
M  V30 13866 C 1283.07 1.76036 -0.852693 0
M  V30 13867 O 1284.28 2.50165 -1.05497 0
M  V30 13868 C 1282.74 1.31057 -3.3519 0
M  V30 13869 C 1282.34 0.294202 -4.47033 0
M  V30 13870 C 1284.09 1.97799 -3.756 0
M  V30 13871 C 1282 0.905508 -5.84427 0
M  V30 13872 H 1280.93 0.268236 -0.704674 0
M  V30 13873 H 1283.58 -0.0372162 -1.83462 0
M  V30 13874 H 1281.96 2.1059 -3.35362 0
M  V30 13875 H 1283.13 -0.475081 -4.58344 0
M  V30 13876 H 1281.45 -0.271644 -4.15513 0
M  V30 13877 H 1284.04 2.44404 -4.75574 0
M  V30 13878 H 1284.39 2.80004 -3.08064 0
M  V30 13879 H 1284.92 1.25028 -3.77641 0
M  V30 13880 H 1281.66 0.122685 -6.55385 0
M  V30 13881 H 1281.18 1.64442 -5.76818 0
M  V30 13882 H 1282.86 1.41016 -6.31446 0
M  V30 13883 N 1282.99 1.54862 0.292472 0
M  V30 13884 C 1284.22 1.7855 1.04534 0
M  V30 13885 C 1284.63 0.549161 1.80637 0
M  V30 13886 O 1283.99 -0.481268 1.7604 0
M  V30 13887 C 1284.04 2.99849 2.01923 0
M  V30 13888 O 1283.76 4.18706 1.28907 0
M  V30 13889 C 1285.26 3.35991 2.8918 0
M  V30 13890 H 1282.48 0.595279 0.309652 0
M  V30 13891 H 1285.03 2.01834 0.329159 0
M  V30 13892 H 1283.18 2.78749 2.69032 0
M  V30 13893 H 1283.6 4.87151 1.94383 0
M  V30 13894 H 1285.07 4.24085 3.53349 0
M  V30 13895 H 1285.55 2.54524 3.57931 0
M  V30 13896 H 1286.15 3.59281 2.27591 0
M  V30 13897 N 1284.47 -0.556076 1.47464 0
M  V30 13898 C 1285.42 -1.66304 1.60036 0
M  V30 13899 C 1286.39 -1.60074 0.443348 0
M  V30 13900 O 1287.57 -1.7889 0.663545 0
M  V30 13901 C 1284.71 -3.04624 1.62167 0
M  V30 13902 C 1283.82 -3.21283 2.88793 0
M  V30 13903 C 1282.96 -4.50008 2.82252 0
M  V30 13904 C 1282 -4.60103 4.03698 0
M  V30 13905 N 1281.13 -5.80184 3.95387 0
M  V30 13906 H 1285.97 -1.54897 2.5458 0
M  V30 13907 H 1283.51 -0.754533 1.26274 0
M  V30 13908 H 1285.47 -3.84721 1.61386 0
M  V30 13909 H 1284.1 -3.14865 0.711348 0
M  V30 13910 H 1283.15 -2.34611 2.99436 0
M  V30 13911 H 1284.46 -3.24607 3.78724 0
M  V30 13912 H 1283.62 -5.38366 2.79726 0
M  V30 13913 H 1282.36 -4.49165 1.90005 0
M  V30 13914 H 1281.36 -3.70157 4.06527 0
M  V30 13915 H 1282.59 -4.62704 4.97073 0
M  V30 13916 H 1280.53 -5.80288 3.05944 0
M  V30 13917 H 1280.45 -5.8489 4.78998 0
M  V30 13918 H 1281.72 -6.709 3.96879 0
M  V30 13919 N 1285.95 -1.35615 -0.802897 0
M  V30 13920 C 1287.17 -1.32377 -1.59659 0
M  V30 13921 C 1287.6 0.0954235 -1.87858 0
M  V30 13922 O 1286.96 1.06336 -1.46842 0
M  V30 13923 C 1287 -2.13972 -2.90256 0
M  V30 13924 O 1286.11 -1.52296 -3.83249 0
M  V30 13925 H 1285.45 -0.453699 -0.484823 0
M  V30 13926 H 1287.98 -1.78708 -0.996217 0
M  V30 13927 H 1287.99 -2.26061 -3.39647 0
M  V30 13928 H 1286.66 -3.17145 -2.69057 0
M  V30 13929 H 1285.24 -1.49068 -3.41809 0
M  V30 13930 N 1287.43 1.02549 -1.19673 0
M  V30 13931 C 1288.7 1.73106 -0.9107 0
M  V30 13932 C 1289.08 2.02897 0.582769 0
M  V30 13933 O 1288.43 1.68633 1.54192 0
M  V30 13934 C 1288.64 3.00535 -1.77425 0
M  V30 13935 C 1289.99 3.73976 -2.01065 0
M  V30 13936 O 1291.01 3.1047 -1.74605 0
M  V30 13937 O 1289.87 4.88153 -2.457 0
M  V30 13938 H 1286.97 0.754006 -0.339711 0
M  V30 13939 H 1289.51 1.08477 -1.30502 0
M  V30 13940 H 1288.28 2.74773 -2.78595 0
M  V30 13941 H 1287.91 3.72904 -1.37943 0
M  V30 13942 N 1288.9 1.00119 1.21713 0
M  V30 13943 C 1289.83 0.578504 2.2622 0
M  V30 13944 C 1290.81 -0.398777 1.6536 0
M  V30 13945 O 1292 -0.287596 1.92059 0
M  V30 13946 C 1289.13 -0.0994508 3.47158 0
M  V30 13947 C 1288.08 0.79722 4.2051 0
M  V30 13948 C 1287.41 -0.0141125 5.34698 0
M  V30 13949 C 1288.71 2.09802 4.7831 0
M  V30 13950 H 1290.4 1.45208 2.6183 0
M  V30 13951 H 1287.95 0.699656 1.2586 0
M  V30 13952 H 1289.9 -0.406605 4.19434 0
M  V30 13953 H 1288.63 -1.00763 3.10667 0
M  V30 13954 H 1287.29 1.08814 3.50079 0
M  V30 13955 H 1286.93 -0.923468 4.9445 0
M  V30 13956 H 1286.63 0.582883 5.84702 0
M  V30 13957 H 1288.16 -0.31517 6.09786 0
M  V30 13958 H 1289.57 1.85427 5.42485 0
M  V30 13959 H 1287.97 2.64455 5.38687 0
M  V30 13960 H 1289.04 2.77132 3.97902 0
M  V30 13961 N 1290.38 -1.37203 0.775435 0
M  V30 13962 C 1291.8 -1.52962 0.455488 0
M  V30 13963 C 1292 -1.73284 -1.02834 0
M  V30 13964 O 1291.05 -1.75631 -1.81411 0
M  V30 13965 C 1292.37 -2.72389 1.27377 0
M  V30 13966 C 1293.91 -2.86252 1.26604 0
M  V30 13967 C 1294.39 -4.08666 2.06775 0
M  V30 13968 N 1295.88 -4.15786 2.04148 0
M  V30 13969 C 1296.62 -5.09548 2.6296 0
M  V30 13970 N 1296.11 -6.08845 3.30574 0
M  V30 13971 N 1297.9 -5.02059 2.5277 0
M  V30 13972 H 1290.06 -1.22265 1.73681 0
M  V30 13973 H 1292.32 -0.595638 0.737509 0
M  V30 13974 H 1292.02 -2.63849 2.32544 0
M  V30 13975 H 1291.9 -3.66171 0.905467 0
M  V30 13976 H 1294.29 -2.94261 0.222345 0
M  V30 13977 H 1294.37 -1.93418 1.67401 0
M  V30 13978 H 1294.01 -4.01419 3.11168 0
M  V30 13979 H 1293.94 -5.00621 1.63358 0
M  V30 13980 H 1296.43 -3.44683 1.54926 0
M  V30 13981 H 1296.74 -6.76926 3.72815 0
M  V30 13982 H 1295.09 -6.09113 3.34674 0
M  V30 13983 H 1298.28 -4.23431 1.99559 0
M  V30 13984 H 1298.45 -5.74947 2.98898 0
M  V30 13985 N 1291.86 -0.526279 -1.48553 0
M  V30 13986 C 1292.79 0.227364 -2.3239 0
M  V30 13987 C 1293.77 0.93862 -1.41859 0
M  V30 13988 O 1294.96 0.925119 -1.70749 0
M  V30 13989 C 1292.09 1.277 -3.22971 0
M  V30 13990 C 1291.04 0.684107 -4.22497 0
M  V30 13991 C 1290.37 1.83612 -5.02186 0
M  V30 13992 C 1291.67 -0.341723 -5.21181 0
M  V30 13993 H 1293.36 -0.472486 -2.95648 0
M  V30 13994 H 1290.91 -0.228669 -1.42173 0
M  V30 13995 H 1292.86 1.81215 -3.80446 0
M  V30 13996 H 1291.58 2.00638 -2.57705 0
M  V30 13997 H 1290.24 0.170505 -3.66203 0
M  V30 13998 H 1289.89 2.55379 -4.33348 0
M  V30 13999 H 1289.59 1.44536 -5.69547 0
M  V30 14000 H 1291.11 2.37513 -5.62512 0
M  V30 14001 H 1292.53 0.106207 -5.73202 0
M  V30 14002 H 1290.92 -0.649673 -5.96573 0
M  V30 14003 H 1291.99 -1.2488 -4.68543 0
M  V30 14004 N 1293.34 1.5542 -0.261239 0
M  V30 14005 C 1294.61 1.91243 0.41056 0
M  V30 14006 C 1294.99 1.1838 1.74784 0
M  V30 14007 O 1294.34 0.306013 2.26442 0
M  V30 14008 C 1294.55 3.44404 0.56453 0
M  V30 14009 C 1295.9 4.15927 0.853827 0
M  V30 14010 O 1296.92 3.50222 0.649861 0
M  V30 14011 O 1295.78 5.32175 1.24308 0
M  V30 14012 H 1292.88 0.796491 0.222555 0
M  V30 14013 H 1295.42 1.66912 -0.306367 0
M  V30 14014 H 1294.2 3.89478 -0.377134 0
M  V30 14015 H 1293.82 3.74644 1.33145 0
M  V30 14016 N 1294.82 -0.0116844 1.57596 0
M  V30 14017 C 1295.76 -1.00684 2.07681 0
M  V30 14018 C 1296.73 -1.34858 0.969666 0
M  V30 14019 O 1297.92 -1.44896 1.24136 0
M  V30 14020 C 1295.06 -2.29729 2.57524 0
M  V30 14021 C 1294.17 -2.0156 3.82096 0
M  V30 14022 C 1293.31 -3.24601 4.20485 0
M  V30 14023 C 1292.34 -2.92066 5.37925 0
M  V30 14024 N 1291.48 -4.0761 5.71663 0
M  V30 14025 H 1296.32 -0.572787 2.92443 0
M  V30 14026 H 1293.86 -0.271184 1.44579 0
M  V30 14027 H 1295.82 -3.05152 2.84496 0
M  V30 14028 H 1294.45 -2.70824 1.75653 0
M  V30 14029 H 1293.5 -1.16556 3.62103 0
M  V30 14030 H 1294.81 -1.73572 4.67626 0
M  V30 14031 H 1293.96 -4.08379 4.48677 0
M  V30 14032 H 1292.7 -3.55718 3.3364 0
M  V30 14033 H 1291.71 -2.06693 5.09468 0
M  V30 14034 H 1292.93 -2.62209 6.26437 0
M  V30 14035 H 1290.88 -4.38645 4.87777 0
M  V30 14036 H 1290.8 -3.83105 6.51741 0
M  V30 14037 H 1292.06 -4.92211 6.04441 0
M  V30 14038 N 1296.29 -1.55015 -0.284256 0
M  V30 14039 C 1297.26 -1.8636 -1.33426 0
M  V30 14040 C 1298.26 -0.737457 -1.42892 0
M  V30 14041 O 1299.45 -1.00569 -1.42238 0
M  V30 14042 C 1296.58 -2.05884 -2.71707 0
M  V30 14043 H 1297.77 -2.80212 -1.06869 0
M  V30 14044 H 1295.32 -1.47334 -0.521767 0
M  V30 14045 H 1296.06 -1.14376 -3.03461 0
M  V30 14046 H 1295.84 -2.87867 -2.66224 0
M  V30 14047 H 1297.33 -2.31447 -3.47595 0
M  V30 14048 N 1297.77 0.548248 -1.47757 0
M  V30 14049 C 1299.02 1.30243 -1.54535 0
M  V30 14050 C 1299.34 1.93832 -0.213089 0
M  V30 14051 O 1298.61 1.80397 0.763782 0
M  V30 14052 H 1297.19 0.483684 -0.569262 0
M  V30 14053 H 1299.85 0.639485 -1.8411 0
M  V30 14054 H 1298.95 2.09128 -2.31672 0
M  V30 14055 N 1299.25 1.36039 0.795694 0
M  V30 14056 C 1300.16 1.31991 1.93948 0
M  V30 14057 C 1301.18 0.223064 1.72564 0
M  V30 14058 O 1302.35 0.454344 1.96208 0
M  V30 14059 C 1299.42 1.10228 3.28711 0
M  V30 14060 C 1298.48 2.29328 3.62914 0
M  V30 14061 C 1297.71 2.08595 4.91247 0
M  V30 14062 O 1297.93 1.05793 5.60503 0
M  V30 14063 O 1296.87 2.96222 5.23962 0
M  V30 14064 H 1300.69 2.28274 2.00311 0
M  V30 14065 H 1298.28 1.16521 0.935048 0
M  V30 14066 H 1300.16 0.999842 4.09367 0
M  V30 14067 H 1298.84 0.17003 3.23253 0
M  V30 14068 H 1297.74 2.4514 2.8259 0
M  V30 14069 H 1299.08 3.21038 3.73089 0
M  V30 14070 N 1300.73 -1.01913 1.20215 0
M  V30 14071 C 1301.69 -2.08563 0.950481 0
M  V30 14072 C 1302.69 -1.60634 -0.0729659 0
M  V30 14073 O 1303.88 -1.73437 0.162826 0
M  V30 14074 C 1301.01 -3.38171 0.430453 0
M  V30 14075 H 1302.21 -2.32323 1.89647 0
M  V30 14076 H 1299.76 -1.18674 1.01716 0
M  V30 14077 H 1300.49 -3.20086 -0.521126 0
M  V30 14078 H 1300.28 -3.74284 1.1685 0
M  V30 14079 H 1301.77 -4.16702 0.273781 0
M  V30 14080 N 1302.21 -1.00763 -1.2118 0
M  V30 14081 C 1303.62 -0.720905 -1.42391 0
M  V30 14082 C 1303.82 0.702918 -1.88842 0
M  V30 14083 O 1302.88 1.47191 -2.05161 0
M  V30 14084 C 1304.19 -1.739 -2.45315 0
M  V30 14085 C 1305.74 -1.75611 -2.59094 0
M  V30 14086 C 1306.21 -2.76323 -3.65253 0
M  V30 14087 N 1307.71 -2.75007 -3.72727 0
M  V30 14088 C 1308.44 -3.49594 -4.54502 0
M  V30 14089 N 1307.94 -4.33828 -5.40153 0
M  V30 14090 N 1309.73 -3.38232 -4.4895 0
M  V30 14091 H 1301.88 -1.92697 -0.893404 0
M  V30 14092 H 1304.14 -0.831888 -0.454606 0
M  V30 14093 H 1303.85 -2.75859 -2.18162 0
M  V30 14094 H 1303.72 -1.5438 -3.44161 0
M  V30 14095 H 1306.11 -0.743416 -2.85582 0
M  V30 14096 H 1306.19 -1.99203 -1.60474 0
M  V30 14097 H 1305.84 -3.77751 -3.39509 0
M  V30 14098 H 1305.77 -2.49996 -4.63476 0
M  V30 14099 H 1308.26 -2.13897 -3.11539 0
M  V30 14100 H 1308.57 -4.8753 -5.99612 0
M  V30 14101 H 1306.91 -4.3791 -5.39685 0
M  V30 14102 H 1310.11 -2.71855 -3.81068 0
M  V30 14103 H 1310.28 -3.96615 -5.12445 0
M  V30 14104 N 1303.68 1.3679 -0.7827 0
M  V30 14105 C 1304.91 2.04206 -0.362571 0
M  V30 14106 C 1305.33 1.58637 1.01074 0
M  V30 14107 O 1304.69 0.751692 1.64983 0
M  V30 14108 C 1304.74 3.58062 -0.4271 0
M  V30 14109 O 1303.84 4.08463 0.56845 0
M  V30 14110 H 1303.19 0.645638 -0.155073 0
M  V30 14111 H 1305.72 1.74883 -1.06194 0
M  V30 14112 H 1305.73 4.0698 -0.288298 0
M  V30 14113 H 1304.4 3.90582 -1.42893 0
M  V30 14114 H 1302.98 3.70835 0.391863 0
M  V30 14115 N 1305.16 0.53415 1.48272 0
M  V30 14116 C 1306.57 0.0947592 1.86459 0
M  V30 14117 C 1306.92 -1.32906 1.44328 0
M  V30 14118 O 1306.05 -1.99605 0.835866 0
M  V30 14119 C 1306.64 0.16519 3.38397 0
M  V30 14120 C 1305.2 -0.219029 3.75762 0
M  V30 14121 C 1304.35 0.523097 2.72321 0
M  V30 14122 H 1307.3 0.74517 1.40117 0
M  V30 14123 H 1307.32 -0.622065 3.75381 0
M  V30 14124 H 1306.83 1.20157 3.69031 0
M  V30 14125 H 1304.94 -1.2574 3.50742 0
M  V30 14126 H 1305.05 0.123482 4.78941 0
M  V30 14127 H 1303.41 -0.0311323 2.54681 0
M  V30 14128 H 1304.2 1.56019 3.05799 0
M  V30 14129 N 1306.64 -1.55279 0.269478 0
M  V30 14130 C 1307.57 -2.25278 -0.614188 0
M  V30 14131 C 1308.55 -1.24092 -1.1634 0
M  V30 14132 O 1309.74 -1.52799 -1.19858 0
M  V30 14133 C 1306.87 -2.96956 -1.80096 0
M  V30 14134 C 1305.82 -4.05021 -1.38353 0
M  V30 14135 C 1305.15 -4.64244 -2.65295 0
M  V30 14136 C 1306.45 -5.19523 -0.537886 0
M  V30 14137 H 1308.14 -2.99385 -0.0304397 0
M  V30 14138 H 1305.69 -1.43994 -0.0132004 0
M  V30 14139 H 1307.64 -3.44633 -2.42499 0
M  V30 14140 H 1306.36 -2.20374 -2.41045 0
M  V30 14141 H 1305.02 -3.58146 -0.78273 0
M  V30 14142 H 1304.67 -3.84337 -3.2449 0
M  V30 14143 H 1304.37 -5.37208 -2.38079 0
M  V30 14144 H 1305.89 -5.14668 -3.28557 0
M  V30 14145 H 1307.31 -5.63287 -1.06677 0
M  V30 14146 H 1305.71 -5.99014 -0.360845 0
M  V30 14147 H 1306.78 -4.82857 0.444672 0
M  V30 14148 N 1308.12 0.00332656 -1.576 0
M  V30 14149 C 1309.03 1.01221 -2.1164 0
M  V30 14150 C 1310.04 1.37918 -1.06088 0
M  V30 14151 O 1311.22 1.46717 -1.37971 0
M  V30 14152 C 1308.29 2.28638 -2.60626 0
M  V30 14153 C 1307.35 1.98284 -3.80765 0
M  V30 14154 C 1306.58 3.19626 -4.27405 0
M  V30 14155 O 1306.8 4.31196 -3.73398 0
M  V30 14156 O 1305.74 3.03819 -5.19594 0
M  V30 14157 H 1309.56 0.582839 -2.98055 0
M  V30 14158 H 1307.15 0.221947 -1.47742 0
M  V30 14159 H 1309.03 3.03498 -2.92347 0
M  V30 14160 H 1307.7 2.70819 -1.7731 0
M  V30 14161 H 1306.61 1.2091 -3.54022 0
M  V30 14162 H 1307.94 1.60942 -4.65144 0
M  V30 14163 N 1309.6 1.55164 0.276031 0
M  V30 14164 C 1310.55 1.84223 1.34335 0
M  V30 14165 C 1311.53 0.700934 1.4483 0
M  V30 14166 O 1312.72 0.962204 1.48562 0
M  V30 14167 C 1309.85 2.11496 2.70415 0
M  V30 14168 C 1308.94 3.31877 2.64043 0
M  V30 14169 N 1309.33 4.51856 2.27289 0
M  V30 14170 C 1307.63 3.34406 2.95108 0
M  V30 14171 C 1308.33 5.33939 2.30833 0
M  V30 14172 N 1307.3 4.72271 2.69186 0
M  V30 14173 H 1311.11 2.74533 1.04922 0
M  V30 14174 H 1308.62 1.54999 0.484661 0
M  V30 14175 H 1310.62 2.3047 3.47404 0
M  V30 14176 H 1309.28 1.22468 3.00719 0
M  V30 14177 H 1310.29 4.78009 1.99318 0
M  V30 14178 H 1306.96 2.55561 3.30144 0
M  V30 14179 H 1308.35 6.39862 2.05004 0
M  V30 14180 N 1311.07 -0.540404 1.48045 0
M  V30 14181 C 1312.3 -1.32656 1.59427 0
M  V30 14182 C 1312.72 -1.86419 0.250924 0
M  V30 14183 O 1312.08 -1.63861 -0.775838 0
M  V30 14184 C 1312.13 -2.46062 2.63602 0
M  V30 14185 O 1311.23 -3.48794 2.20038 0
M  V30 14186 H 1310.58 -0.393334 0.534962 0
M  V30 14187 H 1313.11 -0.651363 1.93955 0
M  V30 14188 H 1313.12 -2.92396 2.84549 0
M  V30 14189 H 1311.79 -2.06291 3.61133 0
M  V30 14190 H 1310.37 -3.0865 2.0926 0
M  V30 14191 N 1312.55 -1.36459 -0.788468 0
M  V30 14192 C 1313.96 -1.27515 -1.3637 0
M  V30 14193 C 1314.31 0.0846251 -1.96017 0
M  V30 14194 O 1313.44 0.98611 -1.92626 0
M  V30 14195 C 1314.03 -2.30903 -2.4793 0
M  V30 14196 C 1312.59 -2.25645 -3.01266 0
M  V30 14197 C 1311.74 -2.15631 -1.74352 0
M  V30 14198 H 1314.69 -1.47324 -0.590039 0
M  V30 14199 H 1314.71 -1.94601 -3.26972 0
M  V30 14200 H 1314.22 -3.29858 -2.04487 0
M  V30 14201 H 1312.33 -1.3016 -3.49126 0
M  V30 14202 H 1312.44 -3.18373 -3.58016 0
M  V30 14203 H 1310.8 -1.61901 -1.96622 0
M  V30 14204 H 1311.59 -3.16475 -1.33036 0
M  V30 14205 N 1314.03 1.01274 -1.20754 0
M  V30 14206 C 1315.28 1.74342 -1.01428 0
M  V30 14207 C 1315.59 1.90265 0.453708 0
M  V30 14208 O 1316.8 2.60465 0.76618 0
M  V30 14209 C 1315.25 3.13588 -1.76609 0
M  V30 14210 C 1314.86 3.05664 -3.27526 0
M  V30 14211 C 1316.61 3.9084 -1.65664 0
M  V30 14212 C 1314.51 4.39942 -3.95228 0
M  V30 14213 H 1313.44 0.653619 -0.375897 0
M  V30 14214 H 1316.09 1.13214 -1.44412 0
M  V30 14215 H 1314.48 3.75281 -1.26413 0
M  V30 14216 H 1315.65 2.53256 -3.84965 0
M  V30 14217 H 1313.97 2.41904 -3.38927 0
M  V30 14218 H 1316.56 4.9019 -2.13583 0
M  V30 14219 H 1316.91 4.11754 -0.61351 0
M  V30 14220 H 1317.44 3.35783 -2.13294 0
M  V30 14221 H 1314.18 4.24229 -4.9971 0
M  V30 14222 H 1313.7 4.92342 -3.42578 0
M  V30 14223 H 1315.38 5.08771 -3.99701 0
M  V30 14224 N 1315.51 1.01404 1.20644 0
M  V30 14225 C 1316.44 0.540288 2.22741 0
M  V30 14226 C 1317.45 -0.375953 1.584 0
M  V30 14227 O 1318.64 -0.174708 1.77643 0
M  V30 14228 C 1315.74 -0.233766 3.38093 0
M  V30 14229 C 1314.92 0.683759 4.32023 0
M  V30 14230 C 1313.98 -0.0422681 5.26183 0
M  V30 14231 O 1313 0.579392 5.66243 0
M  V30 14232 N 1314.2 -1.31794 5.65341 0
M  V30 14233 H 1316.97 1.41831 2.64015 0
M  V30 14234 H 1314.53 0.891265 1.35159 0
M  V30 14235 H 1316.52 -0.728645 3.98087 0
M  V30 14236 H 1315.09 -1.01306 2.9573 0
M  V30 14237 H 1314.31 1.35899 3.70034 0
M  V30 14238 H 1315.6 1.30786 4.91704 0
M  V30 14239 H 1315 -1.84399 5.34802 0
M  V30 14240 H 1313.55 -1.7576 6.27656 0
M  V30 14241 N 1316.99 -1.36373 0.789944 0
M  V30 14242 C 1317.95 -2.28372 0.194639 0
M  V30 14243 C 1318.95 -1.48849 -0.608332 0
M  V30 14244 O 1320.14 -1.68829 -0.42925 0
M  V30 14245 C 1317.27 -3.3298 -0.730553 0
M  V30 14246 H 1318.47 -2.82529 1.00585 0
M  V30 14247 H 1316.02 -1.45946 0.559406 0
M  V30 14248 H 1316.75 -2.8398 -1.56608 0
M  V30 14249 H 1316.54 -3.91787 -0.156706 0
M  V30 14250 H 1318.03 -4.01684 -1.14192 0
M  V30 14251 N 1318.47 -0.542005 -1.47987 0
M  V30 14252 C 1319.74 0.0526494 -1.95529 0
M  V30 14253 C 1320.12 1.50092 -1.48444 0
M  V30 14254 O 1319.47 2.16981 -0.716347 0
M  V30 14255 C 1319.68 -0.0770524 -3.48915 0
M  V30 14256 C 1321.03 0.0760849 -4.24532 0
M  V30 14257 O 1322.05 -0.00384644 -3.562 0
M  V30 14258 O 1320.91 0.245406 -5.45949 0
M  V30 14259 H 1318.01 0.0726163 -0.823806 0
M  V30 14260 H 1320.55 -0.607454 -1.58455 0
M  V30 14261 H 1319.32 -1.08544 -3.75944 0
M  V30 14262 H 1318.95 0.621357 -3.92715 0
M  V30 14263 N 1319.94 1.55134 -0.277709 0
M  V30 14264 C 1320.91 2.21327 0.595569 0
M  V30 14265 C 1321.91 1.19193 1.07933 0
M  V30 14266 O 1323.1 1.44081 0.979093 0
M  V30 14267 C 1320.23 2.88127 1.82196 0
M  V30 14268 H 1321.42 2.99895 0.0175855 0
M  V30 14269 H 1318.97 1.56274 -0.0283453 0
M  V30 14270 H 1319.71 2.13578 2.44039 0
M  V30 14271 H 1319.49 3.62974 1.48297 0
M  V30 14272 H 1320.98 3.38691 2.44291 0
M  V30 14273 N 1321.42 0.00503138 1.57599 0
M  V30 14274 C 1322.37 -0.984754 2.08737 0
M  V30 14275 C 1323.34 -1.33822 0.983915 0
M  V30 14276 O 1324.52 -1.43572 1.25665 0
M  V30 14277 C 1321.66 -2.26984 2.59946 0
M  V30 14278 C 1320.78 -1.97496 3.84212 0
M  V30 14279 C 1319.91 -3.20123 4.23904 0
M  V30 14280 C 1318.95 -2.86344 5.40993 0
M  V30 14281 N 1318.09 -4.01524 5.75954 0
M  V30 14282 H 1322.93 -0.541737 2.93034 0
M  V30 14283 H 1320.46 -0.255834 1.44858 0
M  V30 14284 H 1322.42 -3.02117 2.87717 0
M  V30 14285 H 1321.05 -2.68946 1.78516 0
M  V30 14286 H 1320.1 -1.12709 3.63319 0
M  V30 14287 H 1321.42 -1.68602 4.69441 0
M  V30 14288 H 1320.57 -4.03598 4.52983 0
M  V30 14289 H 1319.31 -3.5216 3.37394 0
M  V30 14290 H 1318.31 -2.01278 5.11632 0
M  V30 14291 H 1319.54 -2.5555 6.29183 0
M  V30 14292 H 1317.49 -4.33447 4.92402 0
M  V30 14293 H 1317.4 -3.76171 6.55768 0
M  V30 14294 H 1318.67 -4.85772 6.09628 0
M  V30 14295 N 1322.9 -1.55308 -0.267798 0
M  V30 14296 C 1323.85 -1.84933 -1.33356 0
M  V30 14297 C 1324.83 -0.708605 -1.44456 0
M  V30 14298 O 1326.03 -0.970069 -1.4805 0
M  V30 14299 C 1323.15 -2.12927 -2.69289 0
M  V30 14300 C 1322.24 -3.33273 -2.62279 0
M  V30 14301 N 1322.63 -4.53055 -2.24889 0
M  V30 14302 C 1320.93 -3.35966 -2.93331 0
M  V30 14303 C 1321.63 -5.35156 -2.27998 0
M  V30 14304 N 1320.61 -4.73692 -2.66677 0
M  V30 14305 H 1324.41 -2.75086 -1.03465 0
M  V30 14306 H 1321.92 -1.55254 -0.476435 0
M  V30 14307 H 1323.92 -2.32309 -3.46177 0
M  V30 14308 H 1322.58 -1.24061 -3.00065 0
M  V30 14309 H 1323.59 -4.79059 -1.9678 0
M  V30 14310 H 1320.27 -2.57308 -3.28784 0
M  V30 14311 H 1321.66 -6.4094 -2.01608 0
M  V30 14312 N 1324.38 0.532545 -1.4833 0
M  V30 14313 C 1325.79 1.11451 -1.49785 0
M  V30 14314 C 1326.14 1.94386 -0.266207 0
M  V30 14315 O 1325.26 2.07121 0.62688 0
M  V30 14316 C 1325.86 2.0279 -2.71407 0
M  V30 14317 C 1324.42 2.56209 -2.75742 0
M  V30 14318 C 1323.57 1.33114 -2.43261 0
M  V30 14319 H 1326.52 0.317924 -1.55483 0
M  V30 14320 H 1326.54 2.87038 -2.49779 0
M  V30 14321 H 1326.05 1.42401 -3.61031 0
M  V30 14322 H 1324.15 3.20327 -1.9032 0
M  V30 14323 H 1324.26 2.95518 -3.77102 0
M  V30 14324 H 1322.63 1.64607 -1.94362 0
M  V30 14325 H 1323.41 0.744809 -3.35123 0
M  V30 14326 N 1325.86 1.36875 0.78122 0
M  V30 14327 C 1327.1 1.31559 1.53943 0
M  V30 14328 C 1327.43 -0.10273 1.94229 0
M  V30 14329 O 1326.69 -1.07386 1.63605 0
M  V30 14330 C 1326.98 2.19173 2.82309 0
M  V30 14331 C 1326.65 3.67595 2.61121 0
M  V30 14332 C 1325.31 4.08047 2.55051 0
M  V30 14333 C 1327.66 4.61665 2.41898 0
M  V30 14334 C 1324.99 5.40697 2.27736 0
M  V30 14335 C 1327.34 5.94542 2.16108 0
M  V30 14336 C 1326.01 6.34109 2.08476 0
M  V30 14337 H 1325.28 0.48141 0.563317 0
M  V30 14338 H 1327.93 1.68999 0.900638 0
M  V30 14339 H 1326.23 1.74696 3.50697 0
M  V30 14340 H 1327.93 2.12379 3.40141 0
M  V30 14341 H 1324.52 3.35509 2.66705 0
M  V30 14342 H 1328.7 4.3128 2.45584 0
M  V30 14343 H 1323.96 5.70325 2.20315 0
M  V30 14344 H 1328.13 6.66994 2.0023 0
M  V30 14345 H 1325.76 7.36823 1.87073 0
M  V30 14346 N 1327.33 -1.00632 1.21289 0
M  V30 14347 C 1328.56 -1.77709 1.05371 0
M  V30 14348 C 1328.97 -1.84933 -0.39956 0
M  V30 14349 O 1328.31 -1.30881 -1.28903 0
M  V30 14350 C 1328.38 -3.23206 1.5741 0
M  V30 14351 C 1328.04 -3.39563 3.05852 0
M  V30 14352 C 1329.04 -3.27952 4.03415 0
M  V30 14353 C 1326.72 -3.65048 3.4503 0
M  V30 14354 C 1328.72 -3.41587 5.38142 0
M  V30 14355 C 1326.4 -3.78325 4.7991 0
M  V30 14356 C 1327.4 -3.66601 5.76275 0
M  V30 14357 O 1327.09 -3.79458 7.08708 0
M  V30 14358 H 1326.82 -0.565369 0.370585 0
M  V30 14359 H 1329.38 -1.27483 1.6105 0
M  V30 14360 H 1327.61 -3.74562 0.96126 0
M  V30 14361 H 1329.29 -3.81953 1.37356 0
M  V30 14362 H 1330.06 -3.0819 3.74492 0
M  V30 14363 H 1325.94 -3.73256 2.70557 0
M  V30 14364 H 1329.48 -3.32353 6.13341 0
M  V30 14365 H 1325.38 -3.97591 5.08519 0
M  V30 14366 H 1326.15 -3.96413 7.161 0
M  V30 14367 N 1328.81 -1.02043 -1.20104 0
M  V30 14368 C 1330.22 -0.742954 -1.71281 0
M  V30 14369 C 1330.57 0.738173 -1.81784 0
M  V30 14370 O 1329.7 1.57588 -1.48307 0
M  V30 14371 C 1330.29 -1.342 -3.11088 0
M  V30 14372 C 1328.85 -1.11331 -3.59559 0
M  V30 14373 C 1328 -1.44532 -2.36655 0
M  V30 14374 H 1330.95 -1.18942 -1.05064 0
M  V30 14375 H 1330.97 -0.734558 -3.73342 0
M  V30 14376 H 1330.48 -2.41998 -3.03411 0
M  V30 14377 H 1328.58 -0.05317 -3.72562 0
M  V30 14378 H 1328.7 -1.79606 -4.4416 0
M  V30 14379 H 1327.06 -0.864431 -2.39582 0
M  V30 14380 H 1327.84 -2.53394 -2.31616 0
M  V30 14381 N 1330.29 1.35952 -0.797165 0
M  V30 14382 C 1331.54 1.98283 -0.369685 0
M  V30 14383 C 1331.85 1.63968 1.06649 0
M  V30 14384 O 1333.06 2.19591 1.59662 0
M  V30 14385 C 1331.51 3.54692 -0.610046 0
M  V30 14386 C 1331.12 3.97925 -2.05814 0
M  V30 14387 C 1332.87 4.23778 -0.247457 0
M  V30 14388 C 1330.77 5.47142 -2.24475 0
M  V30 14389 H 1329.7 0.741909 -0.134489 0
M  V30 14390 H 1332.35 1.55146 -0.979893 0
M  V30 14391 H 1330.74 3.95938 0.0699822 0
M  V30 14392 H 1331.91 3.67857 -2.77521 0
M  V30 14393 H 1330.23 3.417 -2.37971 0
M  V30 14394 H 1332.82 5.33452 -0.365059 0
M  V30 14395 H 1333.17 4.08436 0.805315 0
M  V30 14396 H 1333.7 3.87921 -0.881028 0
M  V30 14397 H 1330.44 5.67441 -3.28163 0
M  V30 14398 H 1329.96 5.78811 -1.57282 0
M  V30 14399 H 1331.64 6.13475 -2.05567 0
M  V30 14400 N 1331.77 0.549846 1.47697 0
M  V30 14401 C 1333.18 0.11453 1.86348 0
M  V30 14402 C 1333.53 -1.31368 1.45729 0
M  V30 14403 O 1332.66 -1.98707 0.856989 0
M  V30 14404 C 1333.25 0.201072 3.38203 0
M  V30 14405 C 1331.81 -0.179162 3.75973 0
M  V30 14406 C 1330.96 0.551951 2.71751 0
M  V30 14407 H 1333.91 0.759989 1.39319 0
M  V30 14408 H 1333.93 -0.582216 3.76019 0
M  V30 14409 H 1333.44 1.24065 3.67736 0
M  V30 14410 H 1331.54 -1.22013 3.52056 0
M  V30 14411 H 1331.65 0.174273 4.78783 0
M  V30 14412 H 1330.02 -0.00411819 2.547 0
M  V30 14413 H 1330.8 1.59254 3.04127 0
M  V30 14414 N 1333.25 -1.54984 0.285932 0
M  V30 14415 C 1334.16 -2.26621 -0.606648 0
M  V30 14416 C 1335.17 -1.29595 -1.16108 0
M  V30 14417 O 1336.35 -1.62551 -1.18908 0
M  V30 14418 C 1333.41 -2.98156 -1.76929 0
M  V30 14419 C 1332.47 -4.10685 -1.25045 0
M  V30 14420 C 1331.71 -4.788 -2.35768 0
M  V30 14421 O 1331.93 -4.46183 -3.55354 0
M  V30 14422 O 1330.86 -5.66523 -2.03312 0
M  V30 14423 H 1334.69 -3.03689 -0.0259981 0
M  V30 14424 H 1332.28 -1.49306 0.0529355 0
M  V30 14425 H 1334.16 -3.43076 -2.44697 0
M  V30 14426 H 1332.83 -2.23996 -2.33683 0
M  V30 14427 H 1331.74 -3.70198 -0.538919 0
M  V30 14428 H 1333.07 -4.86778 -0.728528 0
M  V30 14429 N 1334.72 -0.0133892 -1.57594 0
M  V30 14430 C 1335.66 1.00211 -2.06132 0
M  V30 14431 C 1336.67 1.29869 -0.98173 0
M  V30 14432 O 1337.86 1.2661 -1.25826 0
M  V30 14433 C 1334.96 2.33354 -2.45763 0
M  V30 14434 C 1334.13 2.22441 -3.76615 0
M  V30 14435 C 1333.19 3.38385 -4.02967 0
M  V30 14436 O 1332.22 3.15973 -4.73445 0
M  V30 14437 N 1333.42 4.61672 -3.51908 0
M  V30 14438 H 1336.18 0.588079 -2.93874 0
M  V30 14439 H 1333.74 0.173714 -1.60965 0
M  V30 14440 H 1335.74 3.09716 -2.60496 0
M  V30 14441 H 1334.31 2.66451 -1.6347 0
M  V30 14442 H 1333.53 1.30905 -3.7183 0
M  V30 14443 H 1334.81 2.12337 -4.62375 0
M  V30 14444 H 1334.21 4.82777 -2.9486 0
M  V30 14445 H 1332.77 5.35256 -3.71947 0
M  V30 14446 N 1336.2 1.55448 0.259558 0
M  V30 14447 C 1337.17 1.88459 1.30445 0
M  V30 14448 C 1338.17 0.760096 1.41701 0
M  V30 14449 O 1339.36 1.02819 1.4062 0
M  V30 14450 C 1336.49 2.10181 2.68397 0
M  V30 14451 H 1337.68 2.81877 1.02398 0
M  V30 14452 H 1335.23 1.48145 0.498262 0
M  V30 14453 H 1335.97 1.19189 3.01603 0
M  V30 14454 H 1335.75 2.92066 2.6161 0
M  V30 14455 H 1337.24 2.36947 3.43869 0
M  V30 14456 N 1337.68 -0.524672 1.4861 0
M  V30 14457 C 1338.61 -1.63782 1.66426 0
M  V30 14458 C 1339.59 -1.62177 0.513077 0
M  V30 14459 O 1340.78 -1.7929 0.74623 0
M  V30 14460 C 1337.91 -3.02354 1.70877 0
M  V30 14461 C 1336.86 -3.18819 2.85549 0
M  V30 14462 C 1336.19 -4.58506 2.75094 0
M  V30 14463 C 1337.49 -3.01086 4.26784 0
M  V30 14464 H 1339.18 -1.49127 2.59618 0
M  V30 14465 H 1336.73 -0.715997 1.24938 0
M  V30 14466 H 1338.68 -3.80105 1.81929 0
M  V30 14467 H 1337.4 -3.18044 0.742682 0
M  V30 14468 H 1336.06 -2.43487 2.74061 0
M  V30 14469 H 1335.71 -4.71038 1.76443 0
M  V30 14470 H 1335.41 -4.70466 3.52044 0
M  V30 14471 H 1336.93 -5.38348 2.88121 0
M  V30 14472 H 1338.35 -3.68624 4.39077 0
M  V30 14473 H 1336.75 -3.24536 5.04774 0
M  V30 14474 H 1337.82 -1.97454 4.42877 0
M  V30 14475 N 1339.16 -1.37287 -0.77395 0
M  V30 14476 C 1340.09 -1.28746 -1.89624 0
M  V30 14477 C 1341.1 -0.203715 -1.6152 0
M  V30 14478 O 1342.29 -0.459684 -1.72479 0
M  V30 14479 C 1339.39 -0.967342 -3.24801 0
M  V30 14480 C 1338.57 -2.1561 -3.80567 0
M  V30 14481 C 1337.62 -1.80661 -4.94215 0
M  V30 14482 O 1336.65 -2.5293 -5.09917 0
M  V30 14483 N 1337.85 -0.749424 -5.75642 0
M  V30 14484 H 1340.62 -2.25447 -1.97468 0
M  V30 14485 H 1338.18 -1.30883 -0.952956 0
M  V30 14486 H 1340.17 -0.714421 -3.98344 0
M  V30 14487 H 1338.74 -0.0889573 -3.12473 0
M  V30 14488 H 1337.96 -2.57091 -2.98828 0
M  V30 14489 H 1339.25 -2.94993 -4.14556 0
M  V30 14490 H 1338.65 -0.149673 -5.65502 0
M  V30 14491 H 1337.2 -0.556358 -6.49421 0
M  V30 14492 N 1340.64 0.999871 -1.21821 0
M  V30 14493 C 1341.86 1.77405 -1.06467 0
M  V30 14494 C 1342.28 1.84828 0.385227 0
M  V30 14495 O 1341.64 1.31338 1.26714 0
M  V30 14496 C 1341.69 3.21062 -1.66137 0
M  V30 14497 O 1341.41 3.14054 -3.05454 0
M  V30 14498 C 1342.91 4.14958 -1.55963 0
M  V30 14499 H 1340.13 0.557368 -0.373607 0
M  V30 14500 H 1342.67 1.2575 -1.61267 0
M  V30 14501 H 1340.83 3.69808 -1.15416 0
M  V30 14502 H 1341.24 4.04346 -3.34073 0
M  V30 14503 H 1342.72 5.13536 -2.02448 0
M  V30 14504 H 1343.19 4.36171 -0.514949 0
M  V30 14505 H 1343.8 3.72105 -2.05956 0
M  V30 14506 N 1342.11 1.02678 1.19562 0
M  V30 14507 C 1343.34 0.741569 1.93154 0
M  V30 14508 C 1343.76 -0.699292 1.75372 0
M  V30 14509 O 1343.11 -1.47533 1.07426 0
M  V30 14510 C 1343.17 1.08064 3.4497 0
M  V30 14511 O 1342.89 2.46492 3.62179 0
M  V30 14512 C 1344.39 0.817935 4.35689 0
M  V30 14513 H 1341.61 0.271506 0.613617 0
M  V30 14514 H 1344.15 1.3707 1.51763 0
M  V30 14515 H 1342.31 0.496723 3.84202 0
M  V30 14516 H 1342.72 2.59053 4.56061 0
M  V30 14517 H 1344.19 1.10517 5.40823 0
M  V30 14518 H 1344.67 -0.247693 4.38501 0
M  V30 14519 H 1345.28 1.38449 4.02134 0
M  V30 14520 N 1343.59 -1.35528 0.804364 0
M  V30 14521 C 1344.52 -2.32388 0.227604 0
M  V30 14522 C 1345.5 -1.57368 -0.645709 0
M  V30 14523 O 1346.69 -1.85448 -0.576441 0
M  V30 14524 C 1343.82 -3.41603 -0.62645 0
M  V30 14525 C 1342.77 -4.27743 0.148187 0
M  V30 14526 C 1342.1 -5.28259 -0.827425 0
M  V30 14527 C 1343.4 -5.04661 1.34591 0
M  V30 14528 H 1345.09 -2.80874 1.03684 0
M  V30 14529 H 1342.64 -1.3504 0.500031 0
M  V30 14530 H 1344.59 -4.08365 -1.03999 0
M  V30 14531 H 1343.32 -2.91721 -1.46855 0
M  V30 14532 H 1341.97 -3.62558 0.542874 0
M  V30 14533 H 1341.62 -4.74645 -1.66496 0
M  V30 14534 H 1341.32 -5.86763 -0.313453 0
M  V30 14535 H 1342.85 -5.97893 -1.23921 0
M  V30 14536 H 1344.26 -5.6438 1.00736 0
M  V30 14537 H 1342.66 -5.7265 1.79422 0
M  V30 14538 H 1343.73 -4.35432 2.1337 0
M  V30 14539 N 1345.07 -0.557671 -1.47404 0
M  V30 14540 C 1346 0.227253 -2.28071 0
M  V30 14541 C 1347.02 0.878951 -1.37034 0
M  V30 14542 O 1348.21 0.752725 -1.61853 0
M  V30 14543 C 1345.31 1.33942 -3.11308 0
M  V30 14544 C 1344.48 0.784425 -4.30309 0
M  V30 14545 C 1343.54 1.78114 -4.95138 0
M  V30 14546 O 1342.56 1.32708 -5.53514 0
M  V30 14547 N 1343.77 3.11453 -4.89875 0
M  V30 14548 H 1346.53 -0.464709 -2.96075 0
M  V30 14549 H 1344.09 -0.393777 -1.57038 0
M  V30 14550 H 1346.08 2.00495 -3.51545 0
M  V30 14551 H 1344.65 1.93461 -2.45543 0
M  V30 14552 H 1343.87 -0.0578917 -3.94157 0
M  V30 14553 H 1345.16 0.39298 -5.0728 0
M  V30 14554 H 1344.56 3.50987 -4.43649 0
M  V30 14555 H 1343.12 3.73563 -5.34129 0
M  V30 14556 N 1346.55 1.54831 -0.294147 0
M  V30 14557 C 1347.46 2.26939 0.594621 0
M  V30 14558 C 1348.48 1.30209 1.15419 0
M  V30 14559 O 1349.65 1.6318 1.18044 0
M  V30 14560 C 1346.72 2.9909 1.75345 0
M  V30 14561 C 1345.78 4.11342 1.22865 0
M  V30 14562 C 1345.01 4.80043 2.33225 0
M  V30 14563 O 1345.23 4.48062 3.52983 0
M  V30 14564 O 1344.17 5.67593 2.00304 0
M  V30 14565 H 1347.99 3.03698 0.00989235 0
M  V30 14566 H 1345.58 1.49276 -0.0608528 0
M  V30 14567 H 1347.46 3.44369 2.42875 0
M  V30 14568 H 1346.14 2.25232 2.32492 0
M  V30 14569 H 1345.04 3.70478 0.519279 0
M  V30 14570 H 1346.38 4.87158 0.702703 0
M  V30 14571 N 1348.03 0.0217466 1.57585 0
M  V30 14572 C 1349.27 -0.659463 1.91778 0
M  V30 14573 C 1349.61 -1.72201 0.897801 0
M  V30 14574 O 1348.88 -1.94333 -0.080509 0
M  V30 14575 C 1349.16 -1.28269 3.36481 0
M  V30 14576 C 1349.02 -0.230201 4.49211 0
M  V30 14577 C 1350.34 -2.20279 3.81005 0
M  V30 14578 H 1347.46 -0.238263 0.697424 0
M  V30 14579 H 1350.1 0.0774967 1.89842 0
M  V30 14580 H 1348.25 -1.9108 3.38262 0
M  V30 14581 H 1349.92 0.399901 4.59563 0
M  V30 14582 H 1348.16 0.445157 4.3151 0
M  V30 14583 H 1348.83 -0.705732 5.4747 0
M  V30 14584 H 1351.31 -1.67463 3.80914 0
M  V30 14585 H 1350.19 -2.60842 4.82962 0
M  V30 14586 H 1350.45 -3.09092 3.16093 0
M  V30 14587 N 1349.51 -1.55583 -0.251311 0
M  V30 14588 C 1350.45 -1.89946 -1.31108 0
M  V30 14589 C 1351.42 -0.753209 -1.4804 0
M  V30 14590 O 1352.61 -1.00646 -1.62095 0
M  V30 14591 C 1349.75 -2.19576 -2.66233 0
M  V30 14592 C 1348.86 -3.46983 -2.57345 0
M  V30 14593 C 1348 -3.66206 -3.84794 0
M  V30 14594 C 1347.03 -4.87229 -3.70505 0
M  V30 14595 N 1346.17 -5.02996 -4.89836 0
M  V30 14596 H 1351.01 -2.80325 -1.01104 0
M  V30 14597 H 1348.55 -1.3877 -0.487986 0
M  V30 14598 H 1350.51 -2.3476 -3.44882 0
M  V30 14599 H 1349.14 -1.32406 -2.94395 0
M  V30 14600 H 1348.19 -3.40156 -1.70289 0
M  V30 14601 H 1349.5 -4.35776 -2.42695 0
M  V30 14602 H 1348.65 -3.81324 -4.71886 0
M  V30 14603 H 1347.39 -2.75638 -4.02337 0
M  V30 14604 H 1346.4 -4.72092 -2.81797 0
M  V30 14605 H 1347.62 -5.79253 -3.54462 0
M  V30 14606 H 1345.57 -4.15364 -5.07748 0
M  V30 14607 H 1345.49 -5.8587 -4.778 0
M  V30 14608 H 1346.75 -5.22521 -5.78439 0
M  V30 14609 N 1350.98 0.516783 -1.48886 0
M  V30 14610 C 1351.93 1.61653 -1.60786 0
M  V30 14611 C 1352.92 1.54056 -0.464271 0
M  V30 14612 O 1354.11 1.61853 -0.716412 0
M  V30 14613 C 1351.24 3.0033 -1.66304 0
M  V30 14614 C 1350.32 3.12982 -2.86187 0
M  V30 14615 N 1350.72 2.95568 -4.10455 0
M  V30 14616 C 1349.01 3.44059 -2.83795 0
M  V30 14617 C 1349.71 3.11986 -4.90958 0
M  V30 14618 N 1348.69 3.40156 -4.24022 0
M  V30 14619 H 1352.49 1.4682 -2.546 0
M  V30 14620 H 1350.01 0.722555 -1.4544 0
M  V30 14621 H 1352 3.79345 -1.72924 0
M  V30 14622 H 1350.66 3.16245 -0.736158 0
M  V30 14623 H 1351.67 2.72062 -4.40684 0
M  V30 14624 H 1348.35 3.66249 -2.0042 0
M  V30 14625 H 1349.74 3.03149 -5.99625 0
M  V30 14626 N 1352.46 1.37696 0.766659 0
M  V30 14627 C 1353.37 1.36075 1.91104 0
M  V30 14628 C 1354.39 0.259617 1.72052 0
M  V30 14629 O 1355.56 0.49586 1.952 0
M  V30 14630 C 1352.63 1.17176 3.26298 0
M  V30 14631 C 1351.69 2.36975 3.57968 0
M  V30 14632 C 1350.92 2.18968 4.86712 0
M  V30 14633 O 1351.15 1.17658 5.58133 0
M  V30 14634 O 1350.08 3.07269 5.17561 0
M  V30 14635 H 1353.91 2.32472 1.95424 0
M  V30 14636 H 1351.49 1.18478 0.910122 0
M  V30 14637 H 1353.37 1.08645 4.07154 0
M  V30 14638 H 1352.05 0.238559 3.2282 0
M  V30 14639 H 1350.95 2.51079 2.77327 0
M  V30 14640 H 1352.29 3.2888 3.66195 0
M  V30 14641 N 1353.94 -0.993397 1.22349 0
M  V30 14642 C 1354.87 -2.10171 1.01737 0
M  V30 14643 C 1355.85 -1.69989 -0.0615276 0
M  V30 14644 O 1357.04 -1.93939 0.100591 0
M  V30 14645 C 1354.17 -3.42186 0.593801 0
M  V30 14646 C 1353.12 -3.96215 1.61858 0
M  V30 14647 C 1352.45 -5.24272 1.05086 0
M  V30 14648 C 1353.75 -4.26956 3.00842 0
M  V30 14649 H 1355.44 -2.27673 1.94436 0
M  V30 14650 H 1352.99 -1.09408 0.936258 0
M  V30 14651 H 1354.94 -4.19131 0.436715 0
M  V30 14652 H 1353.66 -3.2451 -0.368855 0
M  V30 14653 H 1352.32 -3.21401 1.76343 0
M  V30 14654 H 1351.97 -5.02937 0.0795747 0
M  V30 14655 H 1351.67 -5.61387 1.73547 0
M  V30 14656 H 1353.19 -6.03851 0.905349 0
M  V30 14657 H 1354.61 -4.94699 2.89734 0
M  V30 14658 H 1353 -4.75242 3.66422 0
M  V30 14659 H 1354.07 -3.34752 3.50812 0
M  V30 14660 N 1355.42 -1.03311 -1.19015 0
M  V30 14661 C 1356.36 -0.617567 -2.22384 0
M  V30 14662 C 1357.33 0.370779 -1.61909 0
M  V30 14663 O 1358.52 0.266481 -1.8893 0
M  V30 14664 C 1355.66 0.0211303 -3.45094 0
M  V30 14665 C 1354.77 -1.01377 -4.19937 0
M  V30 14666 C 1353.91 -0.344385 -5.30082 0
M  V30 14667 C 1352.95 -1.3649 -5.96688 0
M  V30 14668 N 1352.08 -0.721026 -6.98388 0
M  V30 14669 H 1356.92 -1.5036 -2.57286 0
M  V30 14670 H 1354.46 -0.75235 -1.26405 0
M  V30 14671 H 1356.42 0.408713 -4.15193 0
M  V30 14672 H 1355.05 0.870721 -3.10835 0
M  V30 14673 H 1354.1 -1.51937 -3.4874 0
M  V30 14674 H 1355.41 -1.78921 -4.65606 0
M  V30 14675 H 1354.57 0.097814 -6.06621 0
M  V30 14676 H 1353.31 0.463216 -4.85495 0
M  V30 14677 H 1352.31 -1.81732 -5.18897 0
M  V30 14678 H 1353.54 -2.17407 -6.43359 0
M  V30 14679 H 1351.48 0.0664057 -6.55966 0
M  V30 14680 H 1351.4 -1.43428 -7.4227 0
M  V30 14681 H 1352.67 -0.30297 -7.78911 0
M  V30 14682 N 1356.9 1.35099 -0.81154 0
M  V30 14683 C 1357.81 2.33499 -0.22705 0
M  V30 14684 C 1358.82 1.62095 0.632562 0
M  V30 14685 O 1360 1.93938 0.543147 0
M  V30 14686 C 1357.06 3.41279 0.610687 0
M  V30 14687 C 1356.12 4.2845 -0.269994 0
M  V30 14688 C 1355.36 5.31083 0.527854 0
M  V30 14689 O 1355.58 5.42499 1.76213 0
M  V30 14690 O 1354.51 6.01842 -0.083862 0
M  V30 14691 H 1358.34 2.85294 -1.04119 0
M  V30 14692 H 1355.92 1.37957 -0.573432 0
M  V30 14693 H 1357.81 4.07121 1.08768 0
M  V30 14694 H 1356.48 2.91746 1.40235 0
M  V30 14695 H 1355.39 3.65572 -0.794234 0
M  V30 14696 H 1356.72 4.81394 -1.02572 0
M  V30 14697 N 1358.37 0.56548 1.47106 0
M  V30 14698 C 1359.65 -0.0215358 1.95588 0
M  V30 14699 C 1360.03 -1.47712 1.50813 0
M  V30 14700 O 1359.38 -2.15814 0.750776 0
M  V30 14701 C 1359.59 0.132552 3.48748 0
M  V30 14702 C 1360.94 -0.00853591 4.24599 0
M  V30 14703 O 1361.96 0.0605142 3.56149 0
M  V30 14704 O 1360.82 -0.158519 5.4627 0
M  V30 14705 H 1357.91 -0.0595011 0.824857 0
M  V30 14706 H 1360.46 0.632586 1.57469 0
M  V30 14707 H 1359.23 1.14511 3.7417 0
M  V30 14708 H 1358.85 -0.558801 3.93654 0
M  V30 14709 N 1359.85 -1.54672 0.302354 0
M  V30 14710 C 1361.1 -1.99345 -0.307307 0
M  V30 14711 C 1361.41 -1.19437 -1.549 0
M  V30 14712 O 1362.62 -1.54384 -2.23334 0
M  V30 14713 C 1361.08 -3.54896 -0.59808 0
M  V30 14714 C 1360.68 -4.43614 0.625357 0
M  V30 14715 C 1362.43 -4.08091 -1.16886 0
M  V30 14716 C 1360.34 -5.90599 0.307661 0
M  V30 14717 H 1359.27 -0.744614 -0.118603 0
M  V30 14718 H 1361.92 -1.78832 0.411271 0
M  V30 14719 H 1360.3 -3.71314 -1.37629 0
M  V30 14720 H 1361.47 -4.38969 1.40152 0
M  V30 14721 H 1359.79 -4.01198 1.11487 0
M  V30 14722 H 1362.38 -5.15477 -1.42082 0
M  V30 14723 H 1362.73 -3.58775 -2.11155 0
M  V30 14724 H 1363.26 -3.9522 -0.452329 0
M  V30 14725 H 1360 -6.44067 1.21895 0
M  V30 14726 H 1359.52 -5.98248 -0.431208 0
M  V30 14727 H 1361.2 -6.46937 -0.0902796 0
M  V30 14728 N 1361.33 -0.0301034 -1.57571 0
M  V30 14729 C 1362.26 0.980187 -2.07183 0
M  V30 14730 C 1363.28 1.2882 -0.995449 0
M  V30 14731 O 1364.46 1.25268 -1.27162 0
M  V30 14732 C 1361.56 2.30734 -2.48224 0
M  V30 14733 C 1360.74 2.18434 -3.78953 0
M  V30 14734 C 1359.8 3.34092 -4.06533 0
M  V30 14735 O 1358.82 3.10934 -4.76769 0
M  V30 14736 N 1360.02 4.57914 -3.56784 0
M  V30 14737 H 1362.79 0.556877 -2.94481 0
M  V30 14738 H 1360.35 0.156632 -1.61141 0
M  V30 14739 H 1362.34 3.06936 -2.63766 0
M  V30 14740 H 1360.91 2.64703 -1.66287 0
M  V30 14741 H 1360.13 1.26953 -3.73198 0
M  V30 14742 H 1361.42 2.07421 -4.64601 0
M  V30 14743 H 1360.82 4.79623 -2.99964 0
M  V30 14744 H 1359.38 5.31281 -3.77603 0
M  V30 14745 N 1362.81 1.55714 0.243056 0
M  V30 14746 C 1363.74 1.93655 1.30461 0
M  V30 14747 C 1364.72 0.801968 1.50008 0
M  V30 14748 O 1365.9 1.06256 1.62552 0
M  V30 14749 C 1363.03 2.23459 2.65863 0
M  V30 14750 C 1361.99 3.39205 2.61006 0
M  V30 14751 C 1361.31 3.5456 4.00239 0
M  V30 14752 C 1362.61 4.74787 2.17656 0
M  V30 14753 H 1364.31 2.82575 0.98954 0
M  V30 14754 H 1361.85 1.35955 0.474572 0
M  V30 14755 H 1363.81 2.48591 3.40266 0
M  V30 14756 H 1362.53 1.31369 2.99014 0
M  V30 14757 H 1361.19 3.14088 1.89061 0
M  V30 14758 H 1360.84 2.59884 4.30661 0
M  V30 14759 H 1360.54 4.32399 3.97876 0
M  V30 14760 H 1362.06 3.82017 4.76335 0
M  V30 14761 H 1363.48 4.99266 2.81792 0
M  V30 14762 H 1361.87 5.55756 2.26397 0
M  V30 14763 H 1362.94 4.7159 1.12831 0
M  V30 14764 N 1364.29 -0.50888 1.49158 0
M  V30 14765 C 1365.22 -1.62008 1.68154 0
M  V30 14766 C 1366.2 -1.61624 0.53025 0
M  V30 14767 O 1367.38 -1.78489 0.765205 0
M  V30 14768 C 1364.51 -3.00525 1.74075 0
M  V30 14769 C 1363.47 -3.15773 2.88915 0
M  V30 14770 C 1362.79 -4.55562 2.79942 0
M  V30 14771 C 1364.09 -2.96542 4.29953 0
M  V30 14772 H 1365.79 -1.46365 2.61185 0
M  V30 14773 H 1363.33 -0.702705 1.2569 0
M  V30 14774 H 1365.29 -3.78154 1.8595 0
M  V30 14775 H 1364.01 -3.17238 0.776373 0
M  V30 14776 H 1362.67 -2.40567 2.76628 0
M  V30 14777 H 1362.32 -4.6914 1.81429 0
M  V30 14778 H 1362.02 -4.66706 3.57015 0
M  V30 14779 H 1363.54 -5.35262 2.93814 0
M  V30 14780 H 1364.95 -3.63947 4.42963 0
M  V30 14781 H 1363.35 -3.19164 5.08187 0
M  V30 14782 H 1364.42 -1.92745 4.44946 0
M  V30 14783 N 1365.76 -1.381 -0.759346 0
M  V30 14784 C 1366.99 -1.37389 -1.55367 0
M  V30 14785 C 1367.41 0.0356097 -1.88066 0
M  V30 14786 O 1366.77 1.0161 -1.5015 0
M  V30 14787 C 1366.82 -2.23098 -2.83302 0
M  V30 14788 O 1365.92 -1.64412 -3.7821 0
M  V30 14789 H 1365.27 -0.468894 -0.470143 0
M  V30 14790 H 1367.8 -1.81787 -0.938858 0
M  V30 14791 H 1367.81 -2.36753 -3.32283 0
M  V30 14792 H 1366.48 -3.25544 -2.58831 0
M  V30 14793 H 1365.06 -1.59867 -3.36893 0
M  V30 14794 N 1367.24 0.986894 -1.22875 0
M  V30 14795 C 1368.48 1.74243 -1.06859 0
M  V30 14796 C 1368.85 1.88024 0.388736 0
M  V30 14797 O 1370.05 2.60318 0.669907 0
M  V30 14798 C 1368.32 3.10668 -1.76692 0
M  V30 14799 S 1369.88 4.01884 -1.76166 0
M  V30 14800 H 1366.7 0.59931 -0.382555 0
M  V30 14801 H 1369.3 1.17951 -1.55909 0
M  V30 14802 H 1368 2.98285 -2.81877 0
M  V30 14803 H 1367.53 3.7203 -1.27897 0
M  V30 14804 H 1369.55 4.89451 -0.815627 0
M  V30 14805 N 1368.72 1.0394 1.18466 0
M  V30 14806 C 1370.14 0.758404 1.40429 0
M  V30 14807 C 1370.34 -0.652603 1.90639 0
M  V30 14808 O 1369.39 -1.417 2.08991 0
M  V30 14809 C 1370.71 1.80343 2.40618 0
M  V30 14810 C 1372.25 1.82419 2.54347 0
M  V30 14811 C 1372.73 2.8591 3.57798 0
M  V30 14812 N 1374.22 2.84793 3.65304 0
M  V30 14813 C 1374.95 3.61521 4.45073 0
M  V30 14814 N 1374.45 4.47997 5.28461 0
M  V30 14815 N 1376.24 3.50016 4.39824 0
M  V30 14816 H 1368.39 1.94998 0.842 0
M  V30 14817 H 1370.66 0.843649 0.43239 0
M  V30 14818 H 1370.36 2.81547 2.10771 0
M  V30 14819 H 1370.24 1.63451 3.39947 0
M  V30 14820 H 1372.62 0.818872 2.83511 0
M  V30 14821 H 1372.71 2.03388 1.55136 0
M  V30 14822 H 1372.35 3.8662 3.29375 0
M  V30 14823 H 1372.28 2.62196 4.56684 0
M  V30 14824 H 1374.77 2.22082 3.05758 0
M  V30 14825 H 1375.08 5.03257 5.86475 0
M  V30 14826 H 1373.43 4.52065 5.27885 0
M  V30 14827 H 1376.62 2.81862 3.73726 0
M  V30 14828 H 1376.79 4.10063 5.0175 0
M  V30 14829 N 1370.2 -1.34667 0.818693 0
M  V30 14830 C 1371.13 -2.27466 0.182904 0
M  V30 14831 C 1372.11 -1.48682 -0.65821 0
M  V30 14832 O 1373.29 -1.77912 -0.622868 0
M  V30 14833 C 1370.42 -3.30406 -0.744971 0
M  V30 14834 C 1369.47 -4.26496 0.018069 0
M  V30 14835 S 1370.3 -5.1788 1.36236 0
M  V30 14836 C 1371.46 -6.24357 0.43925 0
M  V30 14837 H 1371.69 -2.81042 0.969668 0
M  V30 14838 H 1369.22 -1.4165 0.614372 0
M  V30 14839 H 1371.18 -3.90205 -1.27478 0
M  V30 14840 H 1369.84 -2.75684 -1.50522 0
M  V30 14841 H 1369.03 -4.99294 -0.687141 0
M  V30 14842 H 1368.64 -3.70929 0.478291 0
M  V30 14843 H 1370.93 -6.76484 -0.370837 0
M  V30 14844 H 1371.87 -6.98916 1.13678 0
M  V30 14845 H 1372.28 -5.64492 0.0295605 0
M  V30 14846 N 1371.68 -0.573274 -1.46804 0
M  V30 14847 C 1372.9 -0.0605984 -2.06811 0
M  V30 14848 C 1373.32 1.24024 -1.4235 0
M  V30 14849 O 1372.68 1.7477 -0.525515 0
M  V30 14850 C 1372.73 0.121828 -3.61295 0
M  V30 14851 O 1372.45 -1.12751 -4.23342 0
M  V30 14852 C 1373.95 0.669941 -4.38208 0
M  V30 14853 H 1371.17 -0.0531498 -0.668892 0
M  V30 14854 H 1373.71 -0.791259 -1.88572 0
M  V30 14855 H 1371.87 0.802674 -3.78993 0
M  V30 14856 H 1372.28 -0.935361 -5.16092 0
M  V30 14857 H 1373.76 0.746806 -5.46925 0
M  V30 14858 H 1374.23 1.68483 -4.05598 0
M  V30 14859 H 1374.84 0.0242721 -4.25293 0
M  V30 14860 N 1373.15 1.5451 -0.310553 0
M  V30 14861 C 1374.12 2.2254 0.548489 0
M  V30 14862 C 1375.12 1.21456 1.05381 0
M  V30 14863 O 1376.31 1.46126 0.948311 0
M  V30 14864 C 1373.44 2.91927 1.76043 0
M  V30 14865 H 1374.63 2.99865 -0.0460306 0
M  V30 14866 H 1372.19 1.56179 -0.061487 0
M  V30 14867 H 1372.92 2.18706 2.39454 0
M  V30 14868 H 1372.71 3.66038 1.40564 0
M  V30 14869 H 1374.2 3.43797 2.37051 0
M  V30 14870 N 1374.63 0.0384594 1.57553 0
M  V30 14871 C 1375.56 -0.938444 2.13812 0
M  V30 14872 C 1376.54 -1.33307 1.05657 0
M  V30 14873 O 1377.73 -1.41003 1.33535 0
M  V30 14874 C 1374.86 -2.21764 2.67279 0
M  V30 14875 C 1373.81 -1.96347 3.80305 0
M  V30 14876 C 1373.14 -3.30612 4.20238 0
M  V30 14877 C 1374.44 -1.2952 5.05986 0
M  V30 14878 H 1376.13 -0.469887 2.9569 0
M  V30 14879 H 1373.68 -0.224576 1.42238 0
M  V30 14880 H 1375.63 -2.90493 3.05273 0
M  V30 14881 H 1374.36 -2.70802 1.82576 0
M  V30 14882 H 1373.02 -1.30033 3.42764 0
M  V30 14883 H 1372.66 -3.77427 3.32502 0
M  V30 14884 H 1372.36 -3.14409 4.96408 0
M  V30 14885 H 1373.89 -4.00594 4.60822 0
M  V30 14886 H 1375.3 -1.88264 5.41507 0
M  V30 14887 H 1373.7 -1.23685 5.87216 0
M  V30 14888 H 1374.77 -0.269439 4.84151 0
M  V30 14889 N 1376.11 -1.55841 -0.234795 0
M  V30 14890 C 1377.02 -1.94476 -1.31211 0
M  V30 14891 C 1378.04 -0.846782 -1.52005 0
M  V30 14892 O 1379.21 -1.14922 -1.65393 0
M  V30 14893 C 1376.28 -2.24213 -2.64442 0
M  V30 14894 C 1375.34 -3.47508 -2.52065 0
M  V30 14895 C 1374.57 -3.75817 -3.78942 0
M  V30 14896 O 1374.8 -3.06007 -4.81369 0
M  V30 14897 O 1373.73 -4.69328 -3.76848 0
M  V30 14898 H 1377.56 -2.8626 -1.01434 0
M  V30 14899 H 1375.14 -1.42879 -0.436563 0
M  V30 14900 H 1377.02 -2.44594 -3.4315 0
M  V30 14901 H 1375.7 -1.35605 -2.93927 0
M  V30 14902 H 1374.6 -3.32421 -1.71602 0
M  V30 14903 H 1375.94 -4.36457 -2.27523 0
M  V30 14904 N 1377.59 0.500963 -1.49426 0
M  V30 14905 C 1378.54 1.6025 -1.66098 0
M  V30 14906 C 1379.51 1.58318 -0.502453 0
M  V30 14907 O 1380.69 1.76304 -0.729482 0
M  V30 14908 C 1377.83 2.98396 -1.73361 0
M  V30 14909 C 1376.94 3.10343 -3.00518 0
M  V30 14910 C 1376.08 4.39222 -2.9876 0
M  V30 14911 C 1375.12 4.44803 -4.20496 0
M  V30 14912 N 1374.26 5.6511 -4.16648 0
M  V30 14913 H 1379.1 1.45342 -2.60153 0
M  V30 14914 H 1376.63 0.707147 -1.28988 0
M  V30 14915 H 1378.59 3.78467 -1.75553 0
M  V30 14916 H 1377.22 3.12007 -0.827718 0
M  V30 14917 H 1376.27 2.23336 -3.07937 0
M  V30 14918 H 1377.58 3.10327 -3.90511 0
M  V30 14919 H 1376.74 5.27613 -2.99515 0
M  V30 14920 H 1375.48 4.41804 -2.06545 0
M  V30 14921 H 1374.48 3.54814 -4.19985 0
M  V30 14922 H 1375.71 4.43937 -5.13903 0
M  V30 14923 H 1373.65 5.68533 -3.2727 0
M  V30 14924 H 1373.57 5.6671 -5.00376 0
M  V30 14925 H 1374.84 6.55708 -4.21506 0
M  V30 14926 N 1379.07 1.38501 0.752011 0
M  V30 14927 C 1380 1.31746 1.87551 0
M  V30 14928 C 1381.01 0.229386 1.61176 0
M  V30 14929 O 1382.2 0.487066 1.71726 0
M  V30 14930 C 1379.3 1.01889 3.23221 0
M  V30 14931 C 1378.47 2.21637 3.77088 0
M  V30 14932 C 1377.53 1.885 4.91278 0
M  V30 14933 O 1376.56 2.61011 5.05828 0
M  V30 14934 N 1377.76 0.840909 5.74377 0
M  V30 14935 H 1380.53 2.28561 1.93856 0
M  V30 14936 H 1378.09 1.32383 0.932013 0
M  V30 14937 H 1380.08 0.777704 3.97157 0
M  V30 14938 H 1378.65 0.138658 3.12292 0
M  V30 14939 H 1377.87 2.61812 2.947 0
M  V30 14940 H 1379.16 3.01551 4.0981 0
M  V30 14941 H 1378.56 0.23962 5.65192 0
M  V30 14942 H 1377.11 0.659604 6.48454 0
M  V30 14943 N 1380.55 -0.980364 1.23396 0
M  V30 14944 C 1381.79 -1.72421 1.06765 0
M  V30 14945 C 1382.12 -1.90151 -0.394515 0
M  V30 14946 O 1381.4 -1.4538 -1.29209 0
M  V30 14947 C 1381.68 -3.12246 1.79372 0
M  V30 14948 C 1381.54 -3.02087 3.33262 0
M  V30 14949 C 1382.85 -4.11667 1.55624 0
M  V30 14950 H 1379.97 -0.625822 0.389251 0
M  V30 14951 H 1382.62 -1.14132 1.51901 0
M  V30 14952 H 1380.77 -3.62008 1.41004 0
M  V30 14953 H 1382.44 -2.59848 3.81152 0
M  V30 14954 H 1380.68 -2.38592 3.62293 0
M  V30 14955 H 1381.35 -4.01087 3.79254 0
M  V30 14956 H 1383.83 -3.70712 1.88975 0
M  V30 14957 H 1382.7 -5.07593 2.08902 0
M  V30 14958 H 1382.96 -4.39358 0.491601 0
M  V30 14959 N 1382.02 -1.04567 -1.17913 0
M  V30 14960 C 1382.99 -0.645476 -2.19923 0
M  V30 14961 C 1383.99 0.299763 -1.57981 0
M  V30 14962 O 1385.18 0.0844825 -1.73995 0
M  V30 14963 C 1382.31 0.0528935 -3.40859 0
M  V30 14964 H 1383.5 -1.54828 -2.56843 0
M  V30 14965 H 1381.05 -0.838812 -1.31885 0
M  V30 14966 H 1381.79 0.969261 -3.09477 0
M  V30 14967 H 1381.57 -0.626558 -3.87062 0
M  V30 14968 H 1383.06 0.319221 -4.16378 0
M  V30 14969 N 1383.5 1.34231 -0.825823 0
M  V30 14970 C 1384.41 2.33245 -0.251803 0
M  V30 14971 C 1385.43 1.62756 0.615334 0
M  V30 14972 O 1386.6 1.94503 0.522547 0
M  V30 14973 C 1383.67 3.41908 0.574456 0
M  V30 14974 C 1382.73 4.2814 -0.315422 0
M  V30 14975 C 1381.96 5.31613 0.471496 0
M  V30 14976 O 1382.19 5.44337 1.70449 0
M  V30 14977 O 1381.12 6.01719 -0.147691 0
M  V30 14978 H 1384.95 2.84174 -1.07139 0
M  V30 14979 H 1382.53 1.37341 -0.588032 0
M  V30 14980 H 1384.41 4.08252 1.04444 0
M  V30 14981 H 1383.09 2.93217 1.37132 0
M  V30 14982 H 1381.99 3.64709 -0.832963 0
M  V30 14983 H 1383.33 4.80279 -1.07672 0
M  V30 14984 N 1384.98 0.581051 1.46498 0
M  V30 14985 C 1386.23 0.0637189 2.01599 0
M  V30 14986 C 1386.54 -1.30353 1.45834 0
M  V30 14987 O 1387.75 -1.91211 1.92745 0
M  V30 14988 C 1386.2 0.0633254 3.59844 0
M  V30 14989 C 1385.81 1.42879 4.24605 0
M  V30 14990 C 1387.56 -0.400149 4.2261 0
M  V30 14991 C 1385.46 1.38621 5.74924 0
M  V30 14992 H 1384.39 0.0200512 0.753733 0
M  V30 14993 H 1387.04 0.732451 1.68248 0
M  V30 14994 H 1385.43 -0.671538 3.90264 0
M  V30 14995 H 1386.6 2.18325 4.05796 0
M  V30 14996 H 1384.91 1.83215 3.73927 0
M  V30 14997 H 1387.51 -0.450771 5.32797 0
M  V30 14998 H 1387.85 -1.41733 3.9143 0
M  V30 14999 H 1388.39 0.280598 3.96809 0
M  V30 15000 H 1385.13 2.38014 6.10761 0
M  V30 15001 H 1384.65 0.673926 5.96002 0
M  V30 15002 H 1386.33 1.09841 6.37608 0
M  V30 15003 N 1386.46 -1.54343 0.318742 0
M  V30 15004 C 1387.39 -2.27118 -0.542206 0
M  V30 15005 C 1388.37 -1.27731 -1.12334 0
M  V30 15006 O 1389.55 -1.56535 -1.14937 0
M  V30 15007 C 1386.68 -3.02535 -1.70558 0
M  V30 15008 C 1385.64 -4.09218 -1.25398 0
M  V30 15009 C 1384.96 -4.72449 -2.50391 0
M  V30 15010 C 1386.26 -5.20971 -0.372332 0
M  V30 15011 H 1387.96 -2.9933 0.0648226 0
M  V30 15012 H 1385.5 -1.43963 0.0326168 0
M  V30 15013 H 1387.46 -3.52174 -2.31412 0
M  V30 15014 H 1386.18 -2.27931 -2.33912 0
M  V30 15015 H 1384.84 -3.60455 -0.668392 0
M  V30 15016 H 1384.49 -3.94466 -3.12099 0
M  V30 15017 H 1384.19 -5.4451 -2.20868 0
M  V30 15018 H 1385.71 -5.2486 -3.12016 0
M  V30 15019 H 1387.13 -5.66396 -0.887029 0
M  V30 15020 H 1385.52 -5.99859 -0.17009 0
M  V30 15021 H 1386.59 -4.81198 0.598064 0
M  V30 15022 N 1387.94 -0.0468143 -1.5753 0
M  V30 15023 C 1388.88 0.929065 -2.11275 0
M  V30 15024 C 1389.85 1.31166 -1.01905 0
M  V30 15025 O 1391.04 1.40189 -1.29428 0
M  V30 15026 C 1388.18 2.20012 -2.65873 0
M  V30 15027 C 1387.29 1.8724 -3.89314 0
M  V30 15028 C 1386.43 3.08772 -4.32242 0
M  V30 15029 C 1385.46 2.719 -5.48395 0
M  V30 15030 N 1384.6 3.86112 -5.86397 0
M  V30 15031 H 1389.44 0.463854 -2.94368 0
M  V30 15032 H 1386.98 0.217338 -1.45486 0
M  V30 15033 H 1388.94 2.94383 -2.95626 0
M  V30 15034 H 1387.57 2.64118 -1.85584 0
M  V30 15035 H 1386.62 1.03037 -3.6618 0
M  V30 15036 H 1387.93 1.56096 -4.73746 0
M  V30 15037 H 1387.08 3.91446 -4.63525 0
M  V30 15038 H 1385.82 3.4309 -3.46613 0
M  V30 15039 H 1384.83 1.87642 -5.16789 0
M  V30 15040 H 1386.05 2.38779 -6.35737 0
M  V30 15041 H 1384 4.2024 -5.03721 0
M  V30 15042 H 1383.92 3.58652 -6.65511 0
M  V30 15043 H 1385.18 4.69438 -6.22293 0
M  V30 15044 N 1389.41 1.55964 0.226527 0
M  V30 15045 C 1390.66 1.77944 0.94967 0
M  V30 15046 C 1390.98 0.614478 1.85697 0
M  V30 15047 O 1392.18 0.717793 2.6184 0
M  V30 15048 C 1390.64 3.15108 1.73881 0
M  V30 15049 C 1390.25 4.39314 0.877894 0
M  V30 15050 C 1391.99 3.46418 2.45347 0
M  V30 15051 C 1389.9 5.67505 1.6641 0
M  V30 15052 H 1388.83 0.663412 0.35833 0
M  V30 15053 H 1391.48 1.82366 0.203695 0
M  V30 15054 H 1389.86 3.04849 2.52751 0
M  V30 15055 H 1391.03 4.60616 0.130089 0
M  V30 15056 H 1389.35 4.15487 0.2756 0
M  V30 15057 H 1391.95 4.39416 3.0466 0
M  V30 15058 H 1392.29 2.68685 3.17985 0
M  V30 15059 H 1392.82 3.57984 1.73471 0
M  V30 15060 H 1389.56 6.48116 0.981089 0
M  V30 15061 H 1389.08 5.50272 2.38665 0
M  V30 15062 H 1390.76 6.075 2.22605 0
M  V30 15063 N 1390.89 -0.493031 1.4969 0
M  V30 15064 C 1391.82 -1.60215 1.69863 0
M  V30 15065 C 1392.8 -1.61053 0.547362 0
M  V30 15066 O 1393.99 -1.77667 0.784093 0
M  V30 15067 C 1391.12 -2.98662 1.77252 0
M  V30 15068 C 1390.07 -3.1269 2.92248 0
M  V30 15069 C 1389.4 -4.52567 2.84758 0
M  V30 15070 C 1390.7 -2.91965 4.33074 0
M  V30 15071 H 1392.39 -1.43587 2.62723 0
M  V30 15072 H 1389.94 -0.689334 1.26429 0
M  V30 15073 H 1391.89 -3.7616 1.89951 0
M  V30 15074 H 1390.62 -3.16397 0.809976 0
M  V30 15075 H 1389.27 -2.37619 2.79164 0
M  V30 15076 H 1388.92 -4.6719 1.86394 0
M  V30 15077 H 1388.62 -4.62893 3.61944 0
M  V30 15078 H 1390.15 -5.32116 2.99475 0
M  V30 15079 H 1391.56 -3.59228 4.46798 0
M  V30 15080 H 1389.96 -3.13756 5.11544 0
M  V30 15081 H 1391.03 -1.88015 4.46966 0
M  V30 15082 N 1392.37 -1.38898 -0.744656 0
M  V30 15083 C 1393.6 -1.3903 -1.53901 0
M  V30 15084 C 1394.02 0.0156607 -1.88093 0
M  V30 15085 O 1393.38 1.00012 -1.51219 0
M  V30 15086 C 1393.43 -2.2609 -2.80919 0
M  V30 15087 O 1392.53 -1.68414 -3.76444 0
M  V30 15088 H 1391.87 -0.473854 -0.465144 0
M  V30 15089 H 1394.4 -1.82773 -0.919525 0
M  V30 15090 H 1394.41 -2.40264 -3.29754 0
M  V30 15091 H 1393.09 -3.28271 -2.55364 0
M  V30 15092 H 1391.66 -1.63431 -3.35179 0
M  V30 15093 N 1393.85 0.973806 -1.23914 0
M  V30 15094 C 1394.76 2.10138 -1.04304 0
M  V30 15095 C 1395.77 1.73994 0.0143888 0
M  V30 15096 O 1396.95 2.00572 -0.182481 0
M  V30 15097 C 1394.02 3.40673 -0.643639 0
M  V30 15098 C 1393.08 3.90802 -1.77686 0
M  V30 15099 C 1392.31 5.15108 -1.39642 0
M  V30 15100 O 1392.53 5.69695 -0.283546 0
M  V30 15101 O 1391.47 5.59468 -2.21988 0
M  V30 15102 H 1395.29 2.29574 -1.9882 0
M  V30 15103 H 1392.88 1.08524 -1.02679 0
M  V30 15104 H 1394.76 4.19178 -0.432145 0
M  V30 15105 H 1393.43 3.22551 0.272458 0
M  V30 15106 H 1392.34 3.13385 -2.04305 0
M  V30 15107 H 1393.67 4.1339 -2.67151 0
M  V30 15108 N 1395.33 1.05191 1.17357 0
M  V30 15109 C 1396.27 0.652868 2.21374 0
M  V30 15110 C 1397.24 -0.344974 1.62478 0
M  V30 15111 O 1398.43 -0.23639 1.8933 0
M  V30 15112 C 1395.57 0.0337737 3.45083 0
M  V30 15113 C 1394.68 1.08045 4.18271 0
M  V30 15114 C 1393.82 0.428673 5.29468 0
M  V30 15115 C 1392.86 1.45966 5.94441 0
M  V30 15116 N 1391.99 0.832042 6.97152 0
M  V30 15117 H 1396.83 1.54434 2.54861 0
M  V30 15118 H 1394.37 0.772365 1.25192 0
M  V30 15119 H 1396.33 -0.342607 4.15791 0
M  V30 15120 H 1394.96 -0.821159 3.12181 0
M  V30 15121 H 1394.01 1.57466 3.46278 0
M  V30 15122 H 1395.32 1.86305 4.62701 0
M  V30 15123 H 1394.48 -0.00129344 6.067 0
M  V30 15124 H 1393.21 -0.385919 4.86171 0
M  V30 15125 H 1392.22 1.89964 5.1594 0
M  V30 15126 H 1393.44 2.27615 6.39819 0
M  V30 15127 H 1391.39 0.0379612 6.55989 0
M  V30 15128 H 1391.31 1.55219 7.39894 0
M  V30 15129 H 1392.58 0.42685 7.7833 0
M  V30 15130 N 1396.8 -1.33791 0.83293 0
M  V30 15131 C 1398.03 -2.0272 0.438111 0
M  V30 15132 C 1398.45 -1.62279 -0.951163 0
M  V30 15133 O 1397.81 -0.812406 -1.62079 0
M  V30 15134 C 1397.86 -3.5623 0.559698 0
M  V30 15135 O 1396.96 -4.10292 -0.41646 0
M  V30 15136 H 1396.31 -0.639438 0.178928 0
M  V30 15137 H 1398.84 -1.70821 1.12612 0
M  V30 15138 H 1398.85 -4.0563 0.439148 0
M  V30 15139 H 1397.52 -3.8501 1.5729 0
M  V30 15140 H 1396.1 -3.72034 -0.25396 0
M  V30 15141 N 1398.28 -0.588812 -1.46187 0
M  V30 15142 C 1399.53 -0.0768417 -2.02654 0
M  V30 15143 C 1399.86 1.28213 -1.4586 0
M  V30 15144 O 1399.14 1.8415 -0.626022 0
M  V30 15145 C 1399.42 -0.0176429 -3.60096 0
M  V30 15146 C 1399.27 -1.40595 -4.27262 0
M  V30 15147 C 1400.59 0.679864 -4.34817 0
M  V30 15148 H 1397.71 -0.0293981 -0.736413 0
M  V30 15149 H 1400.35 -0.757183 -1.74261 0
M  V30 15150 H 1398.5 0.56174 -3.84417 0
M  V30 15151 H 1400.17 -2.03097 -4.14185 0
M  V30 15152 H 1398.42 -1.97196 -3.86388 0
M  V30 15153 H 1399.09 -1.31694 -5.3606 0
M  V30 15154 H 1401.56 0.1876 -4.15677 0
M  V30 15155 H 1400.44 0.690333 -5.44542 0
M  V30 15156 H 1400.7 1.74237 -4.06318 0
M  V30 15157 N 1399.76 1.54172 -0.326923 0
M  V30 15158 C 1401.17 1.86009 0.160446 0
M  V30 15159 C 1401.52 1.24851 1.51349 0
M  V30 15160 O 1400.65 0.555804 2.09141 0
M  V30 15161 C 1401.24 3.37488 0.297909 0
M  V30 15162 C 1399.8 3.69263 0.7295 0
M  V30 15163 C 1398.95 2.76911 -0.146778 0
M  V30 15164 H 1401.9 1.48972 -0.547093 0
M  V30 15165 H 1401.92 3.63388 1.12825 0
M  V30 15166 H 1401.43 3.81971 -0.687007 0
M  V30 15167 H 1399.53 3.30314 1.72404 0
M  V30 15168 H 1399.65 4.76149 0.53092 0
M  V30 15169 H 1398.01 2.51876 0.378212 0
M  V30 15170 H 1398.79 3.24221 -1.12852 0
M  V30 15171 N 1401.24 0.0551678 1.57503 0
M  V30 15172 C 1402.17 -0.947102 2.08717 0
M  V30 15173 C 1403.18 -1.2722 1.01582 0
M  V30 15174 O 1404.37 -1.23229 1.29139 0
M  V30 15175 C 1401.47 -2.26756 2.51863 0
M  V30 15176 C 1400.65 -2.12378 3.8238 0
M  V30 15177 C 1399.7 -3.27582 4.11797 0
M  V30 15178 O 1398.73 -3.03309 4.81656 0
M  V30 15179 N 1399.93 -4.5218 3.64024 0
M  V30 15180 H 1402.7 -0.509957 2.9533 0
M  V30 15181 H 1400.26 -0.130976 1.61369 0
M  V30 15182 H 1402.25 -3.02701 2.68616 0
M  V30 15183 H 1400.82 -2.62024 1.70477 0
M  V30 15184 H 1400.04 -1.21 3.7517 0
M  V30 15185 H 1401.33 -2.00003 4.67842 0
M  V30 15186 H 1400.73 -4.7479 3.07556 0
M  V30 15187 H 1399.28 -5.25206 3.86008 0
M  V30 15188 N 1402.72 -1.56081 -0.218252 0
M  V30 15189 C 1403.68 -1.91851 -1.25402 0
M  V30 15190 C 1404.68 -0.797399 -1.39636 0
M  V30 15191 O 1405.87 -1.06511 -1.37844 0
M  V30 15192 C 1403 -2.17223 -2.6273 0
M  V30 15193 H 1404.19 -2.84493 -0.948882 0
M  V30 15194 H 1401.75 -1.49414 -0.458809 0
M  V30 15195 H 1402.48 -1.27144 -2.98337 0
M  V30 15196 H 1402.27 -2.98899 -2.53775 0
M  V30 15197 H 1403.76 -2.45981 -3.37466 0
M  V30 15198 N 1404.2 0.485086 -1.49949 0
M  V30 15199 C 1405.42 1.26648 -1.64241 0
M  V30 15200 C 1405.85 1.85359 -0.319939 0
M  V30 15201 O 1405.2 1.66628 0.714487 0
M  V30 15202 C 1405.25 2.36109 -2.72552 0
M  V30 15203 O 1404.36 3.40387 -2.32832 0
M  V30 15204 H 1403.7 0.373208 -0.549192 0
M  V30 15205 H 1406.23 0.578929 -1.96239 0
M  V30 15206 H 1406.24 2.81634 -2.95205 0
M  V30 15207 H 1404.91 1.92745 -3.6854 0
M  V30 15208 H 1403.49 3.0067 -2.20571 0
M  V30 15209 N 1405.67 1.39291 0.737279 0
M  V30 15210 C 1406.9 1.39844 1.53162 0
M  V30 15211 C 1407.32 -0.00568546 1.88099 0
M  V30 15212 O 1406.68 -0.992085 1.51748 0
M  V30 15213 C 1406.73 2.27577 2.79716 0
M  V30 15214 O 1405.83 1.70408 3.75546 0
M  V30 15215 H 1405.17 0.476314 0.462624 0
M  V30 15216 H 1407.7 1.83258 0.909819 0
M  V30 15217 H 1407.71 2.42009 3.28475 0
M  V30 15218 H 1406.39 3.29621 2.53619 0
M  V30 15219 H 1404.97 1.65206 3.34307 0
M  V30 15220 N 1407.15 -0.967221 1.24429 0
M  V30 15221 C 1408.56 -1.52488 1.07723 0
M  V30 15222 C 1408.91 -1.93031 -0.351191 0
M  V30 15223 O 1408.04 -1.77376 -1.23963 0
M  V30 15224 C 1408.63 -2.77107 1.94929 0
M  V30 15225 C 1407.19 -3.29227 1.82446 0
M  V30 15226 C 1406.34 -2.02133 1.89835 0
M  V30 15227 H 1409.29 -0.785465 1.37899 0
M  V30 15228 H 1409.31 -3.50459 1.48186 0
M  V30 15229 H 1408.82 -2.47567 2.98885 0
M  V30 15230 H 1406.92 -3.63617 0.813246 0
M  V30 15231 H 1407.04 -3.98095 2.66566 0
M  V30 15232 H 1405.4 -2.16867 1.3357 0
M  V30 15233 H 1406.18 -1.74958 2.95372 0
M  V30 15234 N 1408.63 -1.05812 -1.16797 0
M  V30 15235 C 1409.58 -0.664599 -2.21024 0
M  V30 15236 C 1410.55 0.336352 -1.62659 0
M  V30 15237 O 1411.73 0.226346 -1.89453 0
M  V30 15238 C 1408.87 -0.0520739 -3.45061 0
M  V30 15239 C 1407.98 -1.10261 -4.17692 0
M  V30 15240 C 1407.12 -0.456746 -5.29233 0
M  V30 15241 C 1406.16 -1.49116 -5.93659 0
M  V30 15242 N 1405.3 -0.869002 -6.96701 0
M  V30 15243 H 1410.14 -1.55784 -2.54038 0
M  V30 15244 H 1407.67 -0.778993 -1.2478 0
M  V30 15245 H 1409.63 0.320552 -4.15967 0
M  V30 15246 H 1408.26 0.804592 -3.12612 0
M  V30 15247 H 1407.31 -1.593 -3.45438 0
M  V30 15248 H 1408.62 -1.88757 -4.61706 0
M  V30 15249 H 1407.78 -0.0308814 -6.06692 0
M  V30 15250 H 1406.52 0.360131 -4.86369 0
M  V30 15251 H 1405.52 -1.92697 -5.14925 0
M  V30 15252 H 1406.75 -2.31005 -6.38603 0
M  V30 15253 H 1404.69 -0.0727494 -6.5596 0
M  V30 15254 H 1404.61 -1.59141 -7.3906 0
M  V30 15255 H 1405.88 -0.46812 -7.78093 0
M  V30 15256 N 1410.11 1.33347 -0.840014 0
M  V30 15257 C 1411.33 2.02485 -0.448856 0
M  V30 15258 C 1411.76 1.62781 0.942543 0
M  V30 15259 O 1411.12 0.82099 1.61646 0
M  V30 15260 C 1411.16 3.55928 -0.578582 0
M  V30 15261 O 1410.27 4.10507 0.394695 0
M  V30 15262 H 1409.61 0.63848 -0.182317 0
M  V30 15263 H 1412.14 1.70221 -1.13516 0
M  V30 15264 H 1412.15 4.05391 -0.460653 0
M  V30 15265 H 1410.82 3.8417 -1.5933 0
M  V30 15266 H 1409.4 3.72164 0.234227 0
M  V30 15267 N 1411.59 0.596556 1.45873 0
M  V30 15268 C 1412.52 -0.166704 2.28593 0
M  V30 15269 C 1413.53 -0.84231 1.39316 0
M  V30 15270 O 1414.72 -0.709548 1.63792 0
M  V30 15271 C 1411.82 -1.25641 3.1475 0
M  V30 15272 C 1410.99 -0.67006 4.32237 0
M  V30 15273 C 1410.05 -1.64924 4.99686 0
M  V30 15274 O 1409.08 -1.17986 5.56838 0
M  V30 15275 N 1410.28 -2.98355 4.9796 0
M  V30 15276 H 1413.04 0.543045 2.94739 0
M  V30 15277 H 1410.61 0.435274 1.55939 0
M  V30 15278 H 1412.6 -1.91104 3.56737 0
M  V30 15279 H 1411.17 -1.86883 2.50586 0
M  V30 15280 H 1410.39 0.162375 3.93865 0
M  V30 15281 H 1411.68 -0.258345 5.08144 0
M  V30 15282 H 1411.07 -3.39101 4.52799 0
M  V30 15283 H 1409.63 -3.5927 5.43846 0
M  V30 15284 N 1413.06 -1.53996 0.335095 0
M  V30 15285 C 1414 -2.21007 -0.568424 0
M  V30 15286 C 1414.97 -1.19112 -1.10685 0
M  V30 15287 O 1416.16 -1.47898 -1.1687 0
M  V30 15288 C 1413.29 -2.88086 -1.78113 0
M  V30 15289 C 1412.33 -4.03798 -1.37292 0
M  V30 15290 S 1413.16 -5.34005 -0.399865 0
M  V30 15291 C 1414.32 -6.04582 -1.6196 0
M  V30 15292 H 1414.55 -2.973 0.000770174 0
M  V30 15293 H 1412.09 -1.53939 0.119169 0
M  V30 15294 H 1414.04 -3.27353 -2.4769 0
M  V30 15295 H 1412.71 -2.11575 -2.32153 0
M  V30 15296 H 1411.9 -4.49637 -2.27689 0
M  V30 15297 H 1411.5 -3.66264 -0.75673 0
M  V30 15298 H 1413.79 -6.27462 -2.55534 0
M  V30 15299 H 1414.74 -6.97804 -1.20315 0
M  V30 15300 H 1415.14 -5.34634 -1.81181 0
M  V30 15301 N 1414.54 -0.0635198 -1.57472 0
M  V30 15302 C 1415.95 0.470372 -1.80678 0
M  V30 15303 C 1416.3 1.70158 -0.976771 0
M  V30 15304 O 1415.43 2.15502 -0.196893 0
M  V30 15305 C 1416.02 0.860129 -3.277 0
M  V30 15306 C 1414.58 1.33893 -3.51781 0
M  V30 15307 C 1413.73 0.320078 -2.75447 0
M  V30 15308 H 1416.68 -0.289295 -1.56041 0
M  V30 15309 H 1416.7 1.72216 -3.39296 0
M  V30 15310 H 1416.21 -0.0361525 -3.88083 0
M  V30 15311 H 1414.31 2.25399 -2.96692 0
M  V30 15312 H 1414.43 1.32257 -4.60483 0
M  V30 15313 H 1412.79 0.795601 -2.41955 0
M  V30 15314 H 1413.57 -0.568332 -3.38563 0
M  V30 15315 N 1416.02 1.56195 0.209972 0
M  V30 15316 C 1416.95 1.96378 1.26324 0
M  V30 15317 C 1417.93 0.833606 1.48273 0
M  V30 15318 O 1419.12 1.0968 1.60262 0
M  V30 15319 C 1416.25 2.29048 2.61064 0
M  V30 15320 C 1415.2 3.44665 2.53752 0
M  V30 15321 C 1414.53 3.6297 3.92628 0
M  V30 15322 C 1415.83 4.79297 2.07536 0
M  V30 15323 H 1417.52 2.8461 0.929379 0
M  V30 15324 H 1415.07 1.36931 0.445627 0
M  V30 15325 H 1417.02 2.55752 3.34916 0
M  V30 15326 H 1415.74 1.37682 2.96161 0
M  V30 15327 H 1414.4 3.18028 1.82356 0
M  V30 15328 H 1414.05 2.68961 4.25052 0
M  V30 15329 H 1413.75 4.40741 3.88614 0
M  V30 15330 H 1415.27 3.92035 4.68125 0
M  V30 15331 H 1416.69 5.05131 2.71138 0
M  V30 15332 H 1415.08 5.60433 2.14557 0
M  V30 15333 H 1416.15 4.73877 1.02802 0
M  V30 15334 N 1417.5 -0.477127 1.50204 0
M  V30 15335 C 1418.43 -1.59319 1.64773 0
M  V30 15336 C 1419.44 -1.53951 0.529427 0
M  V30 15337 O 1420.63 -1.59449 0.802388 0
M  V30 15338 C 1417.73 -2.98185 1.61055 0
M  V30 15339 C 1416.9 -3.28486 2.88817 0
M  V30 15340 C 1415.96 -4.46878 2.77825 0
M  V30 15341 O 1414.99 -4.47483 3.51778 0
M  V30 15342 N 1416.19 -5.48187 1.90974 0
M  V30 15343 H 1418.96 -1.4724 2.61037 0
M  V30 15344 H 1416.52 -0.66544 1.47592 0
M  V30 15345 H 1418.51 -3.75345 1.51323 0
M  V30 15346 H 1417.08 -3.04064 0.725509 0
M  V30 15347 H 1416.3 -2.39997 3.12722 0
M  V30 15348 H 1417.59 -3.4554 3.7347 0
M  V30 15349 H 1416.99 -5.50515 1.30192 0
M  V30 15350 H 1415.54 -6.24355 1.87148 0
M  V30 15351 N 1418.98 -1.3968 -0.729882 0
M  V30 15352 C 1420.22 -1.37385 -1.49175 0
M  V30 15353 C 1420.56 0.0285839 -1.94179 0
M  V30 15354 O 1419.83 0.994516 -1.67152 0
M  V30 15355 C 1420.11 -2.35075 -2.72785 0
M  V30 15356 C 1419.97 -3.84282 -2.33767 0
M  V30 15357 C 1421.29 -2.30515 -3.74901 0
M  V30 15358 H 1418.4 -0.500359 -0.541119 0
M  V30 15359 H 1421.05 -1.7071 -0.834152 0
M  V30 15360 H 1419.2 -2.06787 -3.28894 0
M  V30 15361 H 1420.87 -4.2334 -1.8325 0
M  V30 15362 H 1419.11 -4.00809 -1.65935 0
M  V30 15363 H 1419.78 -4.48131 -3.22309 0
M  V30 15364 H 1422.26 -2.55539 -3.28389 0
M  V30 15365 H 1421.13 -3.00939 -4.5905 0
M  V30 15366 H 1421.4 -1.3119 -4.22187 0
M  V30 15367 N 1420.45 0.960609 -1.2494 0
M  V30 15368 C 1421.87 1.51915 -1.0853 0
M  V30 15369 C 1422.22 1.93215 0.340949 0
M  V30 15370 O 1421.34 1.78031 1.2302 0
M  V30 15371 C 1421.94 2.76069 -1.96396 0
M  V30 15372 C 1420.5 3.28255 -1.84189 0
M  V30 15373 C 1419.64 2.01124 -1.90905 0
M  V30 15374 H 1422.59 0.778141 -1.38314 0
M  V30 15375 H 1422.61 3.49668 -1.50042 0
M  V30 15376 H 1422.13 2.45979 -3.00193 0
M  V30 15377 H 1420.23 3.6318 -0.832518 0
M  V30 15378 H 1420.34 3.96675 -2.68673 0
M  V30 15379 H 1418.7 2.16155 -1.34718 0
M  V30 15380 H 1419.49 1.73389 -2.96295 0
M  V30 15381 N 1421.93 1.0643 1.16234 0
M  V30 15382 C 1423.34 0.806012 1.68405 0
M  V30 15383 C 1423.69 -0.670197 1.84398 0
M  V30 15384 O 1422.82 -1.51975 1.54054 0
M  V30 15385 C 1423.41 1.45654 3.05893 0
M  V30 15386 C 1421.97 1.24599 3.55179 0
M  V30 15387 C 1421.12 1.53216 2.31128 0
M  V30 15388 H 1424.07 1.22759 1.00578 0
M  V30 15389 H 1424.09 0.872616 3.70359 0
M  V30 15390 H 1423.6 2.53092 2.94221 0
M  V30 15391 H 1421.71 0.191407 3.72108 0
M  V30 15392 H 1421.82 1.95967 4.37188 0
M  V30 15393 H 1420.18 0.952755 2.36209 0
M  V30 15394 H 1420.97 2.61816 2.22052 0
M  V30 15395 N 1423.41 -1.329 0.847073 0
M  V30 15396 C 1424.34 -2.27903 0.243522 0
M  V30 15397 C 1425.36 -1.52101 -0.58043 0
M  V30 15398 O 1426.54 -1.73818 -0.406158 0
M  V30 15399 C 1423.64 -3.32107 -0.675118 0
M  V30 15400 C 1422.82 -4.37258 0.111305 0
M  V30 15401 C 1421.88 -5.21085 -0.731933 0
M  V30 15402 O 1420.9 -5.68951 -0.168176 0
M  V30 15403 N 1422.1 -5.43175 -2.04794 0
M  V30 15404 H 1424.87 -2.80335 1.05983 0
M  V30 15405 H 1422.43 -1.4568 0.706322 0
M  V30 15406 H 1424.42 -3.85093 -1.2444 0
M  V30 15407 H 1422.99 -2.79891 -1.39212 0
M  V30 15408 H 1422.21 -3.8466 0.861991 0
M  V30 15409 H 1423.5 -5.04608 0.651756 0
M  V30 15410 H 1422.9 -5.06002 -2.5294 0
M  V30 15411 H 1421.46 -5.99186 -2.56552 0
M  V30 15412 N 1424.89 -0.604284 -1.45555 0
M  V30 15413 C 1426.14 -0.0957836 -2.01472 0
M  V30 15414 C 1426.45 1.28016 -1.47889 0
M  V30 15415 O 1427.66 1.88121 -1.95762 0
M  V30 15416 C 1426.11 -0.120566 -3.59698 0
M  V30 15417 C 1425.72 -1.49616 -4.22278 0
M  V30 15418 C 1427.46 0.332865 -4.23193 0
M  V30 15419 C 1425.37 -1.4775 -5.72646 0
M  V30 15420 H 1424.3 -0.0320399 -0.753319 0
M  V30 15421 H 1426.95 -0.759125 -1.67061 0
M  V30 15422 H 1425.33 0.609365 -3.91283 0
M  V30 15423 H 1426.51 -2.24753 -4.02272 0
M  V30 15424 H 1424.82 -1.89141 -3.70965 0
M  V30 15425 H 1427.42 0.365951 -5.33446 0
M  V30 15426 H 1427.76 1.35487 -3.93635 0
M  V30 15427 H 1428.3 -0.343692 -3.96313 0
M  V30 15428 H 1425.04 -2.47701 -6.06898 0
M  V30 15429 H 1424.56 -0.768659 -5.94854 0
M  V30 15430 H 1426.23 -1.19971 -6.3578 0
M  V30 15431 N 1426.37 1.53816 -0.343257 0
M  V30 15432 C 1427.78 1.86169 0.140709 0
M  V30 15433 C 1428.13 1.26449 1.50017 0
M  V30 15434 O 1427.25 0.577955 2.08539 0
M  V30 15435 C 1427.85 3.37785 0.262097 0
M  V30 15436 C 1426.41 3.70016 0.690294 0
M  V30 15437 C 1425.55 2.7674 -0.17614 0
M  V30 15438 H 1428.51 1.48383 -0.562863 0
M  V30 15439 H 1428.53 3.64564 1.08964 0
M  V30 15440 H 1428.04 3.81221 -0.727481 0
M  V30 15441 H 1426.14 3.32124 1.68891 0
M  V30 15442 H 1426.25 4.76686 0.480388 0
M  V30 15443 H 1424.62 2.52263 0.351476 0
M  V30 15444 H 1425.4 3.23006 -1.16285 0
M  V30 15445 N 1427.84 0.0718701 1.57436 0
M  V30 15446 C 1429.08 -0.600882 1.95368 0
M  V30 15447 C 1429.45 -1.66772 0.951368 0
M  V30 15448 O 1430.65 -2.39603 1.21835 0
M  V30 15449 C 1428.92 -1.1628 3.37955 0
M  V30 15450 S 1430.48 -1.85067 3.97864 0
M  V30 15451 H 1427.3 -0.196749 0.683235 0
M  V30 15452 H 1429.9 0.145744 1.94956 0
M  V30 15453 H 1428.6 -0.374507 4.08688 0
M  V30 15454 H 1428.13 -1.94578 3.41911 0
M  V30 15455 H 1430.15 -3.1331 3.84774 0
M  V30 15456 N 1429.32 -1.56304 -0.201686 0
M  V30 15457 C 1430.25 -1.90538 -1.27389 0
M  V30 15458 C 1431.27 -0.795422 -1.42045 0
M  V30 15459 O 1432.46 -1.07381 -1.42589 0
M  V30 15460 C 1429.56 -2.11638 -2.64694 0
M  V30 15461 C 1428.73 -3.42755 -2.71731 0
M  V30 15462 C 1427.79 -3.53047 -3.90185 0
M  V30 15463 O 1426.81 -4.25923 -3.77595 0
M  V30 15464 N 1428.02 -2.85649 -5.05356 0
M  V30 15465 H 1430.78 -2.83106 -0.983411 0
M  V30 15466 H 1428.34 -1.57092 -0.391638 0
M  V30 15467 H 1430.33 -2.15818 -3.42352 0
M  V30 15468 H 1428.9 -1.256 -2.86258 0
M  V30 15469 H 1428.12 -3.50501 -1.80397 0
M  V30 15470 H 1429.41 -4.29092 -2.73418 0
M  V30 15471 H 1428.81 -2.26256 -5.18483 0
M  V30 15472 H 1427.37 -2.95465 -5.80985 0
M  V30 15473 N 1430.8 0.469154 -1.50455 0
M  V30 15474 C 1432.08 1.23033 -1.5206 0
M  V30 15475 C 1432.46 2.09412 -0.266388 0
M  V30 15476 O 1431.81 2.15837 0.750099 0
M  V30 15477 C 1432.02 2.05969 -2.81741 0
M  V30 15478 C 1433.36 2.64093 -3.32476 0
M  V30 15479 O 1434.39 2.1621 -2.83075 0
M  V30 15480 O 1433.25 3.51341 -4.18595 0
M  V30 15481 H 1430.34 0.55841 -0.610006 0
M  V30 15482 H 1432.89 0.480818 -1.62746 0
M  V30 15483 H 1431.66 1.42327 -3.64498 0
M  V30 15484 H 1431.28 2.8805 -2.74067 0
M  V30 15485 N 1432.28 1.40065 0.722464 0
M  V30 15486 C 1433.53 1.37277 1.47776 0
M  V30 15487 C 1433.84 -0.0242852 1.95585 0
M  V30 15488 O 1435.05 -0.174769 2.70937 0
M  V30 15489 C 1433.5 2.41233 2.67085 0
M  V30 15490 C 1433.11 3.86716 2.26174 0
M  V30 15491 C 1434.85 2.47541 3.44853 0
M  V30 15492 C 1432.76 4.82284 3.42281 0
M  V30 15493 H 1431.69 0.510405 0.55498 0
M  V30 15494 H 1434.34 1.6577 0.786928 0
M  V30 15495 H 1432.72 2.0583 3.38305 0
M  V30 15496 H 1433.9 4.31227 1.6242 0
M  V30 15497 H 1432.21 3.83819 1.61468 0
M  V30 15498 H 1434.81 3.16131 4.31237 0
M  V30 15499 H 1435.15 1.50379 3.8819 0
M  V30 15500 H 1435.69 2.81901 2.80672 0
M  V30 15501 H 1432.43 5.80754 3.03982 0
M  V30 15502 H 1431.95 4.42443 4.04975 0
M  V30 15503 H 1433.62 5.0178 4.08443 0
M  V30 15504 N 1433.76 -0.95397 1.25448 0
M  V30 15505 C 1435 -1.69866 1.10235 0
M  V30 15506 C 1435.33 -1.91204 -0.356552 0
M  V30 15507 O 1434.59 -1.4811 -1.27914 0
M  V30 15508 C 1434.89 -3.08613 1.80258 0
M  V30 15509 C 1434.55 -3.07072 3.30178 0
M  V30 15510 C 1433.21 -3.0636 3.71076 0
M  V30 15511 C 1435.57 -3.00351 4.25956 0
M  V30 15512 C 1432.89 -2.96675 5.06163 0
M  V30 15513 C 1435.25 -2.92209 5.61067 0
M  V30 15514 C 1433.91 -2.89832 6.01293 0
M  V30 15515 H 1433.18 -0.621583 0.40338 0
M  V30 15516 H 1435.83 -1.11448 1.55729 0
M  V30 15517 H 1434.13 -3.70578 1.27197 0
M  V30 15518 H 1435.83 -3.65055 1.6594 0
M  V30 15519 H 1432.42 -3.084 2.97637 0
M  V30 15520 H 1436.6 -3.0002 3.9535 0
M  V30 15521 H 1431.86 -2.93204 5.36508 0
M  V30 15522 H 1436.03 -2.8597 6.34976 0
M  V30 15523 H 1433.66 -2.82084 7.05927 0
M  V30 15524 N 1435.24 -1.07045 -1.15668 0
M  V30 15525 C 1436.46 -0.812802 -1.9081 0
M  V30 15526 C 1436.89 0.627827 -1.77313 0
M  V30 15527 O 1436.24 1.43836 -1.10368 0
M  V30 15528 C 1436.29 -1.2219 -3.39267 0
M  V30 15529 O 1435.4 -0.365305 -4.10779 0
M  V30 15530 H 1434.74 -0.296385 -0.594182 0
M  V30 15531 H 1437.27 -1.42825 -1.465 0
M  V30 15532 H 1437.28 -1.19674 -3.90054 0
M  V30 15533 H 1435.95 -2.27121 -3.48409 0
M  V30 15534 H 1434.53 -0.452687 -3.70142 0
M  V30 15535 N 1436.71 1.32449 -0.85411 0
M  V30 15536 C 1437.96 1.97563 -0.4579 0
M  V30 15537 C 1438.29 1.67435 0.983835 0
M  V30 15538 O 1437.57 0.962292 1.69027 0
M  V30 15539 C 1437.85 3.53292 -0.69688 0
M  V30 15540 C 1437.7 3.93053 -2.18699 0
M  V30 15541 C 1439.02 4.39834 -0.152917 0
M  V30 15542 H 1436.14 0.717634 -0.167842 0
M  V30 15543 H 1438.78 1.5684 -1.07243 0
M  V30 15544 H 1436.93 3.88111 -0.173807 0
M  V30 15545 H 1438.61 3.68416 -2.7761 0
M  V30 15546 H 1436.85 3.42232 -2.6657 0
M  V30 15547 H 1437.52 5.01576 -2.3049 0
M  V30 15548 H 1440 4.11748 -0.600216 0
M  V30 15549 H 1438.87 5.47785 -0.349703 0
M  V30 15550 H 1439.13 4.31898 0.944276 0
M  V30 15551 N 1438.19 0.611994 1.45232 0
M  V30 15552 C 1439.42 0.113618 2.07089 0
M  V30 15553 C 1439.84 -1.1947 1.45288 0
M  V30 15554 O 1439.2 -1.72845 0.547207 0
M  V30 15555 C 1439.25 -0.00789978 3.60599 0
M  V30 15556 O 1438.35 -1.05697 3.98625 0
M  V30 15557 H 1437.69 0.076066 0.659629 0
M  V30 15558 H 1440.22 0.843253 1.86415 0
M  V30 15559 H 1440.23 -0.204692 4.07486 0
M  V30 15560 H 1438.91 0.947386 4.04966 0
M  V30 15561 H 1437.48 -0.836291 3.63401 0
M  V30 15562 N 1439.67 -1.53632 0.351409 0
M  V30 15563 C 1441.09 -1.596 -0.000214515 0
M  V30 15564 C 1441.29 -1.36709 -1.4803 0
M  V30 15565 O 1440.34 -1.16524 -2.24006 0
M  V30 15566 C 1441.65 -2.97419 0.443013 0
M  V30 15567 C 1443.2 -3.10485 0.396025 0
M  V30 15568 C 1443.68 -4.50693 0.814843 0
M  V30 15569 N 1445.17 -4.56766 0.76934 0
M  V30 15570 C 1445.9 -5.63418 1.06526 0
M  V30 15571 N 1445.4 -6.77887 1.42974 0
M  V30 15572 N 1447.19 -5.53331 0.988986 0
M  V30 15573 H 1439.34 -1.66765 1.31542 0
M  V30 15574 H 1441.61 -0.781418 0.53674 0
M  V30 15575 H 1441.31 -3.19262 1.47529 0
M  V30 15576 H 1441.19 -3.76781 -0.177725 0
M  V30 15577 H 1443.57 -2.8836 -0.627092 0
M  V30 15578 H 1443.65 -2.33163 1.05207 0
M  V30 15579 H 1443.3 -4.73554 1.83601 0
M  V30 15580 H 1443.23 -5.26424 0.136193 0
M  V30 15581 H 1445.72 -3.74569 0.500623 0
M  V30 15582 H 1446.03 -7.55194 1.64018 0
M  V30 15583 H 1444.38 -6.79314 1.46827 0
M  V30 15584 H 1447.57 -4.62783 0.703526 0
M  V30 15585 H 1447.74 -6.36355 1.22295 0
M  V30 15586 N 1441.15 -0.0802183 -1.57396 0
M  V30 15587 C 1442.56 0.451183 -1.81166 0
M  V30 15588 C 1442.91 1.69112 -0.994764 0
M  V30 15589 O 1442.03 2.15281 -0.219739 0
M  V30 15590 C 1442.63 0.825324 -3.28594 0
M  V30 15591 C 1441.19 1.30154 -3.53181 0
M  V30 15592 C 1440.34 0.290846 -2.75771 0
M  V30 15593 H 1443.29 -0.305829 -1.55725 0
M  V30 15594 H 1443.31 1.68608 -3.41104 0
M  V30 15595 H 1442.82 -0.0773119 -3.88023 0
M  V30 15596 H 1440.92 2.22239 -2.99066 0
M  V30 15597 H 1441.03 1.27365 -4.6186 0
M  V30 15598 H 1439.4 0.769894 -2.42785 0
M  V30 15599 H 1440.18 -0.604209 -3.37941 0
M  V30 15600 N 1442.63 1.56409 0.193394 0
M  V30 15601 C 1443.54 1.97886 1.26009 0
M  V30 15602 C 1444.55 0.886786 1.49707 0
M  V30 15603 O 1445.73 1.19267 1.62288 0
M  V30 15604 C 1442.79 2.31145 2.58404 0
M  V30 15605 C 1441.85 3.54069 2.42763 0
M  V30 15606 C 1441.09 3.85732 3.68845 0
M  V30 15607 O 1441.31 3.18662 4.73086 0
M  V30 15608 O 1440.24 4.79155 3.64272 0
M  V30 15609 H 1444.07 2.88849 0.938087 0
M  V30 15610 H 1441.65 1.43987 0.398528 0
M  V30 15611 H 1443.54 2.53606 3.36544 0
M  V30 15612 H 1442.21 1.4335 2.90228 0
M  V30 15613 H 1441.12 3.36854 1.62728 0
M  V30 15614 H 1442.45 4.42335 2.15871 0
M  V30 15615 N 1444.1 -0.461169 1.50702 0
M  V30 15616 C 1445.33 -1.24019 1.66235 0
M  V30 15617 C 1445.75 -1.84827 0.349388 0
M  V30 15618 O 1445.11 -1.67743 -0.687888 0
M  V30 15619 C 1445.16 -2.31743 2.76274 0
M  V30 15620 O 1444.26 -3.3664 2.38217 0
M  V30 15621 H 1443.6 -0.364424 0.55506 0
M  V30 15622 H 1446.13 -0.547636 1.97135 0
M  V30 15623 H 1446.14 -2.76902 2.99649 0
M  V30 15624 H 1444.82 -1.86858 3.7156 0
M  V30 15625 H 1443.4 -2.97123 2.25327 0
M  V30 15626 N 1445.58 -1.40446 -0.715026 0
M  V30 15627 C 1446.99 -1.34564 -1.29419 0
M  V30 15628 C 1447.34 -0.0193984 -1.9619 0
M  V30 15629 O 1446.47 0.882616 -1.97582 0
M  V30 15630 C 1447.06 -2.43721 -2.35342 0
M  V30 15631 C 1445.62 -2.41297 -2.88881 0
M  V30 15632 C 1444.77 -2.2457 -1.62676 0
M  V30 15633 H 1447.72 -1.50244 -0.511116 0
M  V30 15634 H 1447.74 -2.1166 -3.16197 0
M  V30 15635 H 1447.25 -3.40234 -1.86715 0
M  V30 15636 H 1445.35 -1.48483 -3.41736 0
M  V30 15637 H 1445.47 -3.36903 -3.40637 0
M  V30 15638 H 1443.83 -1.72096 -1.87763 0
M  V30 15639 H 1444.61 -3.23082 -1.16074 0
M  V30 15640 N 1447.06 0.947303 -1.25952 0
M  V30 15641 C 1447.97 2.07878 -1.08738 0
M  V30 15642 C 1448.99 1.73985 -0.0225212 0
M  V30 15643 O 1450.16 2.00139 -0.224984 0
M  V30 15644 C 1447.23 3.39231 -0.715756 0
M  V30 15645 C 1446.29 3.86945 -1.85935 0
M  V30 15646 C 1445.52 5.1203 -1.50537 0
M  V30 15647 O 1445.74 5.68965 -0.404323 0
M  V30 15648 O 1444.68 5.54634 -2.33805 0
M  V30 15649 H 1448.5 2.25305 -2.03645 0
M  V30 15650 H 1446.09 1.06321 -1.04958 0
M  V30 15651 H 1447.97 4.18167 -0.520962 0
M  V30 15652 H 1446.65 3.23057 0.203978 0
M  V30 15653 H 1445.55 3.08981 -2.10906 0
M  V30 15654 H 1446.89 4.0763 -2.75859 0
M  V30 15655 N 1448.54 1.07657 1.15099 0
M  V30 15656 C 1449.76 0.82291 1.90376 0
M  V30 15657 C 1450.19 -0.618415 1.77644 0
M  V30 15658 O 1449.55 -1.43248 1.11129 0
M  V30 15659 C 1449.59 1.23988 3.38614 0
M  V30 15660 O 1448.7 0.387085 4.10579 0
M  V30 15661 H 1448.04 0.299532 0.592602 0
M  V30 15662 H 1450.57 1.436 1.4574 0
M  V30 15663 H 1450.58 1.21741 3.89414 0
M  V30 15664 H 1449.25 2.28966 3.472 0
M  V30 15665 H 1447.83 0.472311 3.69897 0
M  V30 15666 N 1450.02 -1.31994 0.861122 0
M  V30 15667 C 1451.29 -1.91699 0.388705 0
M  V30 15668 C 1451.67 -1.78412 -1.12838 0
M  V30 15669 O 1451.02 -1.18625 -1.95296 0
M  V30 15670 C 1451.23 -3.38232 0.860248 0
M  V30 15671 C 1452.58 -4.15355 0.881201 0
M  V30 15672 O 1453.6 -3.46977 0.805313 0
M  V30 15673 O 1452.46 -5.37468 0.98945 0
M  V30 15674 H 1449.56 -0.819017 0.114629 0
M  V30 15675 H 1452.1 -1.40721 0.94845 0
M  V30 15676 H 1450.87 -3.41876 1.9036 0
M  V30 15677 H 1450.5 -3.96625 0.278316 0
M  V30 15678 N 1451.49 -0.619688 -1.44906 0
M  V30 15679 C 1452.44 0.0920359 -2.30616 0
M  V30 15680 C 1453.41 0.848114 -1.42815 0
M  V30 15681 O 1454.6 0.831439 -1.71732 0
M  V30 15682 C 1451.74 1.07537 -3.27917 0
M  V30 15683 C 1450.85 0.318904 -4.30821 0
M  V30 15684 C 1449.98 1.29303 -5.15222 0
M  V30 15685 C 1449.02 0.525071 -6.09844 0
M  V30 15686 N 1448.16 1.44909 -6.86983 0
M  V30 15687 H 1453 -0.644834 -2.9094 0
M  V30 15688 H 1450.54 -0.329785 -1.43356 0
M  V30 15689 H 1452.5 1.65874 -3.82808 0
M  V30 15690 H 1451.13 1.7795 -2.6932 0
M  V30 15691 H 1450.18 -0.380192 -3.78495 0
M  V30 15692 H 1451.49 -0.279742 -4.98015 0
M  V30 15693 H 1450.64 1.94809 -5.74573 0
M  V30 15694 H 1449.38 1.92561 -4.48076 0
M  V30 15695 H 1448.39 -0.14355 -5.49613 0
M  V30 15696 H 1449.61 -0.102625 -6.79022 0
M  V30 15697 H 1447.56 2.06908 -6.22515 0
M  V30 15698 H 1447.48 0.90418 -7.50574 0
M  V30 15699 H 1448.74 2.09335 -7.50866 0
M  V30 15700 N 1452.97 1.53444 -0.359552 0
M  V30 15701 C 1454.25 1.93467 0.288106 0
M  V30 15702 C 1454.63 1.29256 1.66901 0
M  V30 15703 O 1453.98 0.449402 2.24037 0
M  V30 15704 C 1454.19 3.47297 0.344359 0
M  V30 15705 C 1455.54 4.20515 0.587585 0
M  V30 15706 O 1456.56 3.53646 0.425818 0
M  V30 15707 O 1455.42 5.39003 0.902119 0
M  V30 15708 H 1452.51 0.809033 0.171451 0
M  V30 15709 H 1455.06 1.64625 -0.411896 0
M  V30 15710 H 1453.83 3.86292 -0.624064 0
M  V30 15711 H 1453.45 3.82353 1.0905 0
M  V30 15712 N 1454.45 0.0885642 1.57351 0
M  V30 15713 C 1455.36 -0.887092 2.17182 0
M  V30 15714 C 1456.38 -1.31498 1.13949 0
M  V30 15715 O 1457.55 -1.38424 1.4629 0
M  V30 15716 C 1454.62 -2.13053 2.73513 0
M  V30 15717 C 1453.68 -1.75747 3.91678 0
M  V30 15718 C 1452.91 -2.94163 4.45313 0
M  V30 15719 O 1453.13 -4.08693 3.97903 0
M  V30 15720 O 1452.07 -2.73008 5.36424 0
M  V30 15721 H 1455.89 -0.408073 3.00946 0
M  V30 15722 H 1453.48 -0.135431 1.48785 0
M  V30 15723 H 1455.36 -2.85937 3.09545 0
M  V30 15724 H 1454.04 -2.6002 1.92798 0
M  V30 15725 H 1452.94 -1.00064 3.60469 0
M  V30 15726 H 1454.28 -1.33549 4.73736 0
M  V30 15727 N 1455.93 -1.56509 -0.185096 0
M  V30 15728 C 1457.18 -1.804 -0.902158 0
M  V30 15729 C 1457.49 -0.663496 -1.84003 0
M  V30 15730 O 1458.7 -0.786963 -2.59844 0
M  V30 15731 C 1457.15 -3.19608 -1.65466 0
M  V30 15732 C 1456.76 -4.41487 -0.761109 0
M  V30 15733 C 1458.5 -3.52801 -2.36076 0
M  V30 15734 C 1456.41 -5.71717 -1.51305 0
M  V30 15735 H 1455.34 -0.67268 -0.340614 0
M  V30 15736 H 1457.99 -1.82842 -0.155273 0
M  V30 15737 H 1456.37 -3.11443 -2.44579 0
M  V30 15738 H 1457.55 -4.60799 -0.00791878 0
M  V30 15739 H 1455.86 -4.16072 -0.165344 0
M  V30 15740 H 1458.46 -4.47339 -2.92902 0
M  V30 15741 H 1458.8 -2.77021 -3.10749 0
M  V30 15742 H 1459.34 -3.62457 -1.63919 0
M  V30 15743 H 1456.08 -6.5049 -0.808907 0
M  V30 15744 H 1455.6 -5.56406 -2.23992 0
M  V30 15745 H 1457.27 -6.13188 -2.0642 0
M  V30 15746 N 1457.41 0.45317 -1.50944 0
M  V30 15747 C 1458.36 1.54689 -1.67498 0
M  V30 15748 C 1459.34 1.51949 -0.529193 0
M  V30 15749 O 1460.53 1.58669 -0.784415 0
M  V30 15750 C 1457.66 2.93006 -1.78892 0
M  V30 15751 C 1456.75 3.00562 -2.99204 0
M  V30 15752 N 1457.14 2.77893 -4.22621 0
M  V30 15753 C 1455.44 3.31712 -2.98132 0
M  V30 15754 C 1456.14 2.90882 -5.03749 0
M  V30 15755 N 1455.11 3.21866 -4.38068 0
M  V30 15756 H 1458.92 1.35889 -2.60598 0
M  V30 15757 H 1456.43 0.660219 -1.48374 0
M  V30 15758 H 1458.43 3.71669 -1.88858 0
M  V30 15759 H 1457.09 3.12838 -0.869626 0
M  V30 15760 H 1458.1 2.53126 -4.51827 0
M  V30 15761 H 1454.77 3.57419 -2.15773 0
M  V30 15762 H 1456.16 2.77444 -6.11943 0
M  V30 15763 N 1458.88 1.40823 0.707568 0
M  V30 15764 C 1460.13 1.39535 1.46753 0
M  V30 15765 C 1460.46 0.000370511 1.945 0
M  V30 15766 O 1459.71 -0.985628 1.69068 0
M  V30 15767 C 1460.01 2.33829 2.70294 0
M  V30 15768 C 1459.68 3.8092 2.41269 0
M  V30 15769 C 1458.34 4.20993 2.33063 0
M  V30 15770 C 1460.69 4.73839 2.17086 0
M  V30 15771 C 1458.02 5.52009 1.98754 0
M  V30 15772 C 1460.37 6.05161 1.84289 0
M  V30 15773 C 1459.04 6.44268 1.74571 0
M  V30 15774 H 1458.31 0.510593 0.537006 0
M  V30 15775 H 1460.95 1.73536 0.809789 0
M  V30 15776 H 1459.26 1.9304 3.40944 0
M  V30 15777 H 1460.96 2.30111 3.28405 0
M  V30 15778 H 1457.55 3.49175 2.48545 0
M  V30 15779 H 1461.73 4.43691 2.22377 0
M  V30 15780 H 1456.99 5.81202 1.89774 0
M  V30 15781 H 1461.16 6.7667 1.64593 0
M  V30 15782 H 1458.79 7.45703 1.47753 0
M  V30 15783 O 1460.4 -0.849379 1.3736 0
M  V30 15784 H 1461.09 -1.49021 1.23743 0
M  V30 END ATOM
M  V30 BEGIN BOND
M  V30 END BOND
M  V30 END CTAB
M  END
$$$$
