drugbank_target|Q8NEB9 Phosphatidylinositol 3-kinase catalytic subunit type 3 (DB06836)
 OpenBabel12092120373D

  0  0  0     0  0            999 V3000
M  V30 BEGIN CTAB
M  V30 COUNTS 14293 14447 0 0 0
M  V30 BEGIN ATOM
M  V30 1 H -0.908 1.98254 -0.117106 0
M  V30 2 N 0 1.576 0 0
M  V30 3 C 0.933 2.03868 1.02534 0
M  V30 4 C 1.911 0.928543 1.3348 0
M  V30 5 O 3.095 1.19667 1.45644 0
M  V30 6 C 0.222 2.43627 2.35294 0
M  V30 7 C -0.732 3.65373 2.2001 0
M  V30 8 S 0.101 5.13292 1.52614 0
M  V30 9 C 1.257 5.56322 2.86805 0
M  V30 10 H 1.49 2.90518 0.631377 0
M  V30 11 H -0.977 1.52953 0.210867 0
M  V30 12 H 0.981 2.67203 3.11629 0
M  V30 13 H -0.358 1.57376 2.7183 0
M  V30 14 H -1.165 3.90944 3.18086 0
M  V30 15 H -1.563 3.418 1.51819 0
M  V30 16 H 0.729 5.58782 3.83104 0
M  V30 17 H 1.672 6.56266 2.65933 0
M  V30 18 H 2.08 4.83886 2.90714 0
M  V30 19 N 1.4781 -0.272755 1.55222 0
M  V30 20 C 2.7261 -1.00234 1.75492 0
M  V30 21 C 3.0471 -1.8681 0.5592 0
M  V30 22 O 2.3171 -1.91215 -0.425882 0
M  V30 23 H 0.8971 -0.373076 0.647166 0
M  V30 24 H 3.5591 -0.296926 1.92625 0
M  V30 25 H 2.6551 -1.63913 2.65592 0
M  V30 26 N 2.9562 -1.48159 -0.537278 0
M  V30 27 C 3.8662 -1.64807 -1.6696 0
M  V30 28 C 4.8822 -0.530651 -1.65711 0
M  V30 29 O 6.0582 -0.800784 -1.84796 0
M  V30 30 C 3.1232 -1.67708 -3.03438 0
M  V30 31 C 2.1842 -2.91025 -3.156 0
M  V30 32 C 1.4172 -2.93778 -4.45567 0
M  V30 33 O 1.6402 -2.05153 -5.3223 0
M  V30 34 O 0.5742 -3.85868 -4.61941 0
M  V30 35 H 4.4002 -2.6066 -1.55853 0
M  V30 36 H 1.9852 -1.31475 -0.709549 0
M  V30 37 H 3.8672 -1.7218 -3.84619 0
M  V30 38 H 2.5422 -0.750278 -3.14885 0
M  V30 39 H 1.4492 -2.92089 -2.33741 0
M  V30 40 H 2.7822 -3.83065 -3.09066 0
M  V30 41 N 4.4343 0.785586 -1.36625 0
M  V30 42 C 5.3973 1.87999 -1.31107 0
M  V30 43 C 6.3973 1.59316 -0.217959 0
M  V30 44 O 7.5873 1.67656 -0.472977 0
M  V30 45 C 4.7193 3.24861 -1.03334 0
M  V30 46 H 5.9123 1.94307 -2.2844 0
M  V30 47 H 3.4653 0.983813 -1.21453 0
M  V30 48 H 4.2003 3.24235 -0.0647432 0
M  V30 49 H 3.9853 3.4707 -1.82441 0
M  V30 50 H 5.4753 4.04929 -1.02088 0
M  V30 51 N 5.9124 1.20967 1.01018 0
M  V30 52 C 6.8224 0.980157 2.13143 0
M  V30 53 C 7.8384 -0.0660665 1.73875 0
M  V30 54 O 9.0144 0.122821 2.01025 0
M  V30 55 C 6.0794 0.54216 3.42435 0
M  V30 56 C 5.1404 1.65999 3.95908 0
M  V30 57 C 4.3734 1.2428 5.19028 0
M  V30 58 O 4.5964 0.114196 5.70286 0
M  V30 59 O 3.5304 2.05271 5.65816 0
M  V30 60 H 7.3564 1.91913 2.35379 0
M  V30 61 H 4.9414 0.994099 1.11526 0
M  V30 62 H 6.8234 0.30744 4.20277 0
M  V30 63 H 5.4984 -0.36815 3.216 0
M  V30 64 H 4.4054 1.94906 3.19316 0
M  V30 65 H 5.7384 2.54753 4.21143 0
M  V30 66 N 7.3905 -1.2043 1.01659 0
M  V30 67 C 8.3375 -2.23215 0.586822 0
M  V30 68 C 9.3075 -1.61382 -0.393085 0
M  V30 69 O 10.4925 -1.88544 -0.292525 0
M  V30 70 C 7.6325 -3.45032 -0.0687464 0
M  V30 71 C 6.7455 -4.21296 0.955724 0
M  V30 72 C 5.8805 -5.30507 0.271208 0
M  V30 73 C 4.9195 -5.98515 1.28244 0
M  V30 74 N 4.0565 -6.99316 0.62459 0
M  V30 75 H 8.8965 -2.59336 1.46796 0
M  V30 76 H 6.4335 -1.27431 0.734836 0
M  V30 77 H 8.3915 -4.1459 -0.465965 0
M  V30 78 H 7.0215 -3.09604 -0.913529 0
M  V30 79 H 6.0735 -3.50803 1.4711 0
M  V30 80 H 7.3855 -4.6803 1.72479 0
M  V30 81 H 6.5395 -6.06428 -0.18151 0
M  V30 82 H 5.2785 -4.8481 -0.530163 0
M  V30 83 H 4.2835 -5.21355 1.74554 0
M  V30 84 H 5.5085 -6.46298 2.08509 0
M  V30 85 H 3.4545 -6.55812 -0.156914 0
M  V30 86 H 3.3715 -7.44178 1.33172 0
M  V30 87 H 4.6395 -7.79255 0.195462 0
M  V30 88 N 8.8686 -0.792821 -1.36206 0
M  V30 89 C 10.1156 -0.366786 -1.99151 0
M  V30 90 C 10.4436 1.06243 -1.62919 0
M  V30 91 O 9.6986 1.74927 -0.877442 0
M  V30 92 C 9.9976 -0.481501 -3.54142 0
M  V30 93 C 9.6636 -1.87202 -4.10203 0
M  V30 94 C 8.3256 -2.25248 -4.25226 0
M  V30 95 C 10.6776 -2.78237 -4.40719 0
M  V30 96 C 8.0056 -3.53723 -4.68078 0
M  V30 97 C 10.3576 -4.06144 -4.85005 0
M  V30 98 C 9.0216 -4.44207 -4.98234 0
M  V30 99 H 8.2916 -0.134217 -0.728743 0
M  V30 100 H 10.9386 -1.01094 -1.62641 0
M  V30 101 H 9.2436 0.246146 -3.91026 0
M  V30 102 H 10.9406 -0.132844 -4.0078 0
M  V30 103 H 7.5306 -1.56639 -3.98951 0
M  V30 104 H 11.7146 -2.50097 -4.28679 0
M  V30 105 H 6.9706 -3.8308 -4.76508 0
M  V30 106 H 11.1446 -4.76796 -5.07581 0
M  V30 107 H 8.7716 -5.43814 -5.31197 0
M  V30 108 N 10.3467 1.47872 -0.545128 0
M  V30 109 C 11.2967 2.26842 0.229456 0
M  V30 110 C 12.2807 1.33626 0.896267 0
M  V30 111 O 13.4727 1.58063 0.79657 0
M  V30 112 C 10.6017 3.19089 1.26638 0
M  V30 113 C 9.6877 4.19783 0.603598 0
M  V30 114 N 10.0787 5.0479 -0.319405 0
M  V30 115 C 8.3767 4.3765 0.858989 0
M  V30 116 C 9.0777 5.77433 -0.703241 0
M  V30 117 N 8.0537 5.43566 -0.0608309 0
M  V30 118 H 11.8557 2.89947 -0.480391 0
M  V30 119 H 9.3697 1.58263 -0.364209 0
M  V30 120 H 11.3667 3.74337 1.83515 0
M  V30 121 H 10.0267 2.5754 1.97745 0
M  V30 122 H 11.0377 5.13244 -0.692889 0
M  V30 123 H 7.7147 3.87281 1.55948 0
M  V30 124 H 9.1047 6.55824 -1.46098 0
M  V30 125 N 11.8248 0.280983 1.55075 0
M  V30 126 C 13.0548 -0.336804 2.03836 0
M  V30 127 C 13.4628 -1.49577 1.15859 0
M  V30 128 O 12.8058 -1.82888 0.172503 0
M  V30 129 C 12.8678 -0.874616 3.48699 0
M  V30 130 C 12.5318 0.156478 4.56732 0
M  V30 131 C 13.5288 0.978032 5.10618 0
M  V30 132 C 11.2138 0.292409 5.01448 0
M  V30 133 C 13.2078 1.92165 6.07743 0
M  V30 134 C 10.8948 1.23949 5.98398 0
M  V30 135 C 11.8928 2.05261 6.51427 0
M  V30 136 O 11.5808 2.98367 7.4648 0
M  V30 137 H 11.3128 -0.0800885 0.671239 0
M  V30 138 H 13.8668 0.412589 2.01213 0
M  V30 139 H 12.0968 -1.67418 3.4858 0
M  V30 140 H 13.7858 -1.40612 3.80766 0
M  V30 141 H 14.5518 0.883782 4.7688 0
M  V30 142 H 10.4308 -0.330498 4.59814 0
M  V30 143 H 13.9748 2.55672 6.49059 0
M  V30 144 H 9.8718 1.33454 6.31554 0
M  V30 145 H 10.6398 2.93116 7.64215 0
M  V30 146 N 13.3029 -1.57598 0.00835791 0
M  V30 147 C 14.5519 -1.90107 -0.673968 0
M  V30 148 C 14.8649 -0.884275 -1.7447 0
M  V30 149 O 16.0709 -1.09987 -2.48224 0
M  V30 150 C 14.5269 -3.37497 -1.24995 0
M  V30 151 C 14.1349 -4.47491 -0.2136 0
M  V30 152 C 15.8789 -3.79104 -1.90999 0
M  V30 153 C 13.7859 -5.85963 -0.80005 0
M  V30 154 H 12.7159 -0.709393 -0.255495 0
M  V30 155 H 15.3669 -1.83365 0.0702693 0
M  V30 156 H 13.7489 -3.39102 -2.04513 0
M  V30 157 H 14.9229 -4.57414 0.557596 0
M  V30 158 H 13.2379 -4.14956 0.346474 0
M  V30 159 H 15.8349 -4.79901 -2.35795 0
M  V30 160 H 16.1779 -3.1306 -2.74407 0
M  V30 161 H 16.7109 -3.79833 -1.18203 0
M  V30 162 H 13.4499 -6.555 -0.00456708 0
M  V30 163 H 12.9699 -5.79687 -1.54021 0
M  V30 164 H 14.6489 -6.33884 -1.29615 0
M  V30 165 N 14.781 0.264519 -1.55364 0
M  V30 166 C 16.011 1.01153 -1.80143 0
M  V30 167 C 16.419 1.80115 -0.579253 0
M  V30 168 O 15.762 1.77813 0.46132 0
M  V30 169 C 15.824 2.01098 -2.97993 0
M  V30 170 C 15.488 1.40995 -4.34706 0
M  V30 171 C 16.485 0.821316 -5.13372 0
M  V30 172 C 14.17 1.43461 -4.81378 0
M  V30 173 C 16.164 0.265339 -6.36847 0
M  V30 174 C 13.851 0.874771 -6.04807 0
M  V30 175 C 14.849 0.291146 -6.82379 0
M  V30 176 O 14.537 -0.260093 -8.03479 0
M  V30 177 H 14.269 0.304125 -0.603725 0
M  V30 178 H 16.823 0.298089 -2.03225 0
M  V30 179 H 15.053 2.76224 -2.70623 0
M  V30 180 H 16.742 2.61997 -3.1002 0
M  V30 181 H 17.508 0.794903 -4.78442 0
M  V30 182 H 13.387 1.87826 -4.21002 0
M  V30 183 H 16.931 -0.190837 -6.97339 0
M  V30 184 H 12.828 0.898452 -6.39217 0
M  V30 185 H 13.596 -0.150265 -8.18362 0
M  V30 186 N 16.2591 1.48442 0.529413 0
M  V30 187 C 17.4841 1.60406 1.31471 0
M  V30 188 C 17.9091 0.264738 1.86228 0
M  V30 189 O 17.2671 -0.763668 1.64432 0
M  V30 190 C 17.3151 2.65419 2.44101 0
M  V30 191 O 16.4191 2.22618 3.47153 0
M  V30 192 H 15.7601 0.537863 0.389357 0
M  V30 193 H 18.2901 1.94432 0.636965 0
M  V30 194 H 18.3001 2.86709 2.90279 0
M  V30 195 H 16.9751 3.62652 2.03608 0
M  V30 196 H 15.5521 2.11543 3.0709 0
M  V30 197 N 17.7372 -0.778329 1.37039 0
M  V30 198 C 18.9772 -1.54973 1.33276 0
M  V30 199 C 19.3412 -1.91816 -0.0839376 0
M  V30 200 O 20.5422 -2.6767 -0.246228 0
M  V30 201 C 18.8132 -2.78517 2.23971 0
M  V30 202 S 20.3722 -3.6865 2.37997 0
M  V30 203 H 17.1902 -0.530639 0.473226 0
M  V30 204 H 19.7922 -0.915806 1.72723 0
M  V30 205 H 18.4962 -2.4952 3.25835 0
M  V30 206 H 18.0272 -3.46875 1.85584 0
M  V30 207 H 20.0422 -4.70182 1.58567 0
M  V30 208 N 19.2153 -1.21501 -1.00376 0
M  V30 209 C 20.4923 -0.941745 -1.71437 0
M  V30 210 C 20.8723 0.546114 -2.03914 0
M  V30 211 O 20.2203 1.51128 -1.71384 0
M  V30 212 C 20.4303 -1.82812 -2.97289 0
M  V30 213 C 21.7783 -2.07771 -3.70292 0
M  V30 214 O 22.8023 -1.80171 -3.07273 0
M  V30 215 O 21.6613 -2.54456 -4.83647 0
M  V30 216 H 18.7553 -0.353243 -0.747762 0
M  V30 217 H 21.3013 -1.32436 -1.06108 0
M  V30 218 H 20.0733 -2.83501 -2.69709 0
M  V30 219 H 19.6963 -1.4464 -3.70358 0
M  V30 220 N 20.6934 1.19889 -1.02296 0
M  V30 221 C 21.6234 2.25141 -0.619174 0
M  V30 222 C 22.6044 1.66051 0.368915 0
M  V30 223 O 23.7894 1.92546 0.252941 0
M  V30 224 C 20.9194 3.4728 0.0368783 0
M  V30 225 C 19.8734 4.19005 -0.872865 0
M  V30 226 C 19.1994 5.34637 -0.0822402 0
M  V30 227 C 20.4994 4.74452 -2.18387 0
M  V30 228 H 22.1934 2.59171 -1.49903 0
M  V30 229 H 19.7394 1.24579 -0.722222 0
M  V30 230 H 21.6924 4.20098 0.330958 0
M  V30 231 H 20.4164 3.12433 0.95149 0
M  V30 232 H 19.0754 3.48061 -1.15105 0
M  V30 233 H 18.7234 4.96034 0.83422 0
M  V30 234 H 18.4234 5.83557 -0.688149 0
M  V30 235 H 19.9474 6.10255 0.205238 0
M  V30 236 H 21.3614 5.39055 -1.95172 0
M  V30 237 H 19.7584 5.33834 -2.74119 0
M  V30 238 H 20.8284 3.92844 -2.84257 0
M  V30 239 N 22.1715 0.800033 1.35784 0
M  V30 240 C 23.4485 0.30088 1.93272 0
M  V30 241 C 23.8285 -1.20857 1.73081 0
M  V30 242 O 23.1765 -2.00502 1.09596 0
M  V30 243 C 23.3865 0.70511 3.41803 0
M  V30 244 C 24.7345 0.690871 4.18942 0
M  V30 245 O 25.7585 0.646244 3.50289 0
M  V30 246 O 24.6175 0.74332 5.41421 0
M  V30 247 H 21.7115 0.0771605 0.823393 0
M  V30 248 H 24.2575 0.88329 1.449 0
M  V30 249 H 23.0295 1.74571 3.50201 0
M  V30 250 H 22.6525 0.0971541 3.97481 0
M  V30 251 N 23.6496 -1.47581 0.552962 0
M  V30 252 C 24.8986 -2.01684 0.0251995 0
M  V30 253 C 25.2116 -1.43317 -1.33115 0
M  V30 254 O 26.4176 -1.89057 -1.94858 0
M  V30 255 C 24.8736 -3.599 -0.00542052 0
M  V30 256 C 24.4816 -4.27257 1.34742 0
M  V30 257 C 26.2256 -4.21768 -0.4808 0
M  V30 258 C 24.1326 -5.77467 1.27614 0
M  V30 259 H 23.0626 -0.753979 0.00565033 0
M  V30 260 H 25.7136 -1.69616 0.70018 0
M  V30 261 H 24.0956 -3.88911 -0.745961 0
M  V30 262 H 25.2696 -4.09893 2.10534 0
M  V30 263 H 23.5846 -3.77358 1.76039 0
M  V30 264 H 26.1816 -5.31838 -0.55246 0
M  V30 265 H 26.5246 -3.88651 -1.49184 0
M  V30 266 H 27.0576 -3.97273 0.204752 0
M  V30 267 H 23.7966 -6.15196 2.26304 0
M  V30 268 H 23.3166 -5.9718 0.55996 0
M  V30 269 H 24.9956 -6.3959 0.976421 0
M  V30 270 N 25.1277 -0.289203 -1.54924 0
M  V30 271 C 26.0757 0.607966 -2.24514 0
M  V30 272 C 27.0697 1.14655 -1.24702 0
M  V30 273 O 28.2757 1.09856 -1.4259 0
M  V30 274 H 24.6507 0.21464 -0.720718 0
M  V30 275 H 26.6217 -0.00164182 -2.984 0
M  V30 276 C 25.3707 1.77406 -2.99036 0
M  V30 277 H 24.6937 1.36884 -3.75637 0
M  V30 278 H 26.1337 2.37814 -3.51028 0
M  V30 279 C 24.5927 2.67107 -2.05318 0
M  V30 280 O 25.1227 3.6787 -1.61353 0
M  V30 281 N 23.3287 2.34582 -1.71521 0
M  V30 282 H 22.8757 1.52688 -2.07471 0
M  V30 283 H 22.8337 2.94867 -1.0909 0
M  V30 284 N 26.6058 1.57591 -0.0167156 0
M  V30 285 C 27.8518 1.91567 0.665582 0
M  V30 286 C 28.1848 0.892298 1.72487 0
M  V30 287 O 27.4598 -0.0867127 1.94307 0
M  V30 288 C 27.7428 3.36069 1.29342 0
M  V30 289 C 27.5958 4.49135 0.244541 0
M  V30 290 C 28.9148 3.803 2.21495 0
M  V30 291 H 26.0338 0.69666 0.240488 0
M  V30 292 H 28.6758 1.89866 -0.0714356 0
M  V30 293 H 26.8258 3.3765 1.92158 0
M  V30 294 H 28.4978 4.59689 -0.385228 0
M  V30 295 H 26.7408 4.3165 -0.431379 0
M  V30 296 H 27.4118 5.47242 0.723207 0
M  V30 297 H 29.8878 3.80377 1.68678 0
M  V30 298 H 28.7638 4.82127 2.62382 0
M  V30 299 H 29.0248 3.15104 3.101 0
M  V30 300 N 28.0839 -0.256276 1.55502 0
M  V30 301 C 29.0159 -1.33981 1.85962 0
M  V30 302 C 30.0289 -1.44743 0.745212 0
M  V30 303 O 31.2179 -1.4626 1.02324 0
M  V30 304 C 28.3179 -2.7194 2.02242 0
M  V30 305 C 27.4909 -2.83562 3.33033 0
M  V30 306 C 26.5499 -4.02304 3.39172 0
M  V30 307 O 25.5759 -3.92273 4.12444 0
M  V30 308 N 26.7779 -5.15045 2.67784 0
M  V30 309 H 29.5429 -1.08191 2.7949 0
M  V30 310 H 27.1039 -0.446388 1.55624 0
M  V30 311 H 29.0959 -3.49697 2.03701 0
M  V30 312 H 27.6659 -2.90479 1.15502 0
M  V30 313 H 26.8859 -1.92555 3.43971 0
M  V30 314 H 28.1739 -2.88271 4.19258 0
M  V30 315 H 27.5719 -5.26085 2.07968 0
M  V30 316 H 26.1289 -5.90972 2.74947 0
M  V30 317 N 29.562 -1.4872 -0.521534 0
M  V30 318 C 30.492 -1.66771 -1.63431 0
M  V30 319 C 31.473 -0.516499 -1.62069 0
M  V30 320 O 32.658 -0.750013 -1.79132 0
M  V30 321 C 29.788 -1.71515 -3.01993 0
M  V30 322 C 28.742 -2.86222 -3.18216 0
M  V30 323 C 28.068 -2.76061 -4.57924 0
M  V30 324 C 29.368 -4.27419 -3.00184 0
M  V30 325 H 31.062 -2.59932 -1.48579 0
M  V30 326 H 28.608 -1.25089 -0.713358 0
M  V30 327 H 30.561 -1.82731 -3.7972 0
M  V30 328 H 29.285 -0.749393 -3.17886 0
M  V30 329 H 27.944 -2.74575 -2.42908 0
M  V30 330 H 27.592 -1.77437 -4.70665 0
M  V30 331 H 27.292 -3.53037 -4.69722 0
M  V30 332 H 28.816 -2.89256 -5.37739 0
M  V30 333 H 30.23 -4.39855 -3.67697 0
M  V30 334 H 28.627 -5.05458 -3.2347 0
M  V30 335 H 29.697 -4.43293 -1.96518 0
M  V30 336 N 31.0401 0.771051 -1.3745 0
M  V30 337 C 31.9871 1.88435 -1.3327 0
M  V30 338 C 32.9571 1.64914 -0.198136 0
M  V30 339 O 34.1421 1.86821 -0.387606 0
M  V30 340 C 31.2821 3.25509 -1.14622 0
M  V30 341 C 30.3951 3.60979 -2.37314 0
M  V30 342 C 29.5301 4.87265 -2.11533 0
M  V30 343 C 28.5691 5.15469 -3.30088 0
M  V30 344 N 27.7061 6.32944 -3.03853 0
M  V30 345 H 32.5461 1.91344 -2.28455 0
M  V30 346 H 30.0831 0.935466 -1.13523 0
M  V30 347 H 32.0411 4.04582 -1.01831 0
M  V30 348 H 30.6711 3.21974 -0.230837 0
M  V30 349 H 29.7231 2.76885 -2.60842 0
M  V30 350 H 31.0351 3.77759 -3.25729 0
M  V30 351 H 30.1891 5.74244 -1.95777 0
M  V30 352 H 28.9281 4.7259 -1.20457 0
M  V30 353 H 27.9331 4.26966 -3.46382 0
M  V30 354 H 29.1581 5.32052 -4.22016 0
M  V30 355 H 27.1041 6.19625 -2.15407 0
M  V30 356 H 27.0211 6.50143 -3.85812 0
M  V30 357 H 28.2891 7.22857 -2.91716 0
M  V30 358 N 32.5182 1.22032 0.997298 0
M  V30 359 C 33.7672 1.03637 1.73038 0
M  V30 360 C 34.0802 -0.429475 1.90827 0
M  V30 361 O 35.2862 -0.732995 2.61418 0
M  V30 362 C 33.7422 1.80582 3.11317 0
M  V30 363 C 33.3502 3.31387 3.01474 0
M  V30 364 C 35.0942 1.70621 3.88701 0
M  V30 365 C 33.0012 4.00791 4.3488 0
M  V30 366 H 31.9312 0.384179 0.648785 0
M  V30 367 H 34.5822 1.4584 1.11368 0
M  V30 368 H 32.9642 1.31175 3.73643 0
M  V30 369 H 34.1382 3.88155 2.4834 0
M  V30 370 H 32.4532 3.41976 2.37575 0
M  V30 371 H 35.0502 2.19799 4.87434 0
M  V30 372 H 35.3932 0.665823 4.10941 0
M  V30 373 H 35.9262 2.17547 3.33044 0
M  V30 374 H 32.6652 5.05064 4.1784 0
M  V30 375 H 32.1852 3.48811 4.87945 0
M  V30 376 H 33.8642 4.06139 5.03647 0
M  V30 377 N 33.9963 -1.19345 1.0293 0
M  V30 378 C 35.2443 -1.88665 0.724574 0
M  V30 379 C 35.5653 -1.80036 -0.749144 0
M  V30 380 O 34.8353 -1.2111 -1.53978 0
M  V30 381 H 33.4153 -0.698406 0.265025 0
M  V30 382 H 36.0773 -1.44885 1.30362 0
M  V30 383 H 35.1733 -2.94987 1.01926 0
M  V30 384 N 35.4744 -0.807222 -1.35358 0
M  V30 385 C 36.6994 -0.399309 -2.0352 0
M  V30 386 C 37.1244 0.981986 -1.60433 0
M  V30 387 O 36.4824 1.63601 -0.781299 0
M  V30 388 C 36.5304 -0.491552 -3.57234 0
M  V30 389 O 35.6344 0.494754 -4.09421 0
M  V30 390 H 34.9754 -0.166682 -0.642739 0
M  V30 391 H 37.5054 -1.09328 -1.72941 0
M  V30 392 H 37.5154 -0.361588 -4.06395 0
M  V30 393 H 36.1904 -1.49907 -3.87944 0
M  V30 394 H 34.7674 0.324977 -3.71481 0
M  V30 395 N 36.9525 1.47285 -0.560781 0
M  V30 396 C 37.8825 2.32857 0.173105 0
M  V30 397 C 38.8635 1.44009 0.905281 0
M  V30 398 O 40.0485 1.7286 0.885046 0
M  V30 399 C 37.1785 3.25861 1.20133 0
M  V30 400 C 36.1325 4.23978 0.585388 0
M  V30 401 C 35.4585 5.06332 1.7185 0
M  V30 402 C 36.7585 5.20242 -0.463178 0
M  V30 403 H 38.4525 2.94466 -0.541307 0
M  V30 404 H 35.9985 1.41601 -0.261764 0
M  V30 405 H 37.9515 3.84569 1.72293 0
M  V30 406 H 36.6755 2.62315 1.94573 0
M  V30 407 H 35.3345 3.66501 0.085054 0
M  V30 408 H 34.9825 4.39186 2.45203 0
M  V30 409 H 34.6825 5.72762 1.31213 0
M  V30 410 H 36.2065 5.67899 2.24329 0
M  V30 411 H 37.6205 5.73293 -0.027502 0
M  V30 412 H 36.0175 5.94896 -0.788627 0
M  V30 413 H 37.0875 4.65504 -1.35773 0
M  V30 414 N 38.4306 0.297415 1.54768 0
M  V30 415 C 39.3406 -0.58983 2.27064 0
M  V30 416 C 40.3566 -1.15144 1.30453 0
M  V30 417 O 41.5326 -1.17699 1.63428 0
M  V30 418 C 38.5976 -1.74714 2.9946 0
M  V30 419 C 37.6586 -1.21997 4.11601 0
M  V30 420 C 36.8916 -2.32212 4.80535 0
M  V30 421 O 37.1146 -3.52036 4.48806 0
M  V30 422 O 36.0486 -1.99106 5.68014 0
M  V30 423 H 39.8746 -0.00348199 3.037 0
M  V30 424 H 37.4596 0.0640035 1.49263 0
M  V30 425 H 39.3416 -2.42147 3.44881 0
M  V30 426 H 38.0166 -2.32016 2.25722 0
M  V30 427 H 36.9236 -0.511458 3.70587 0
M  V30 428 H 38.2566 -0.692419 4.87305 0
M  V30 429 N 39.9087 -1.5758 0.0250728 0
M  V30 430 C 41.1567 -1.91255 -0.653151 0
M  V30 431 C 41.4777 -0.901691 -1.729 0
M  V30 432 O 40.7477 0.0573785 -1.95816 0
M  V30 433 H 39.3277 -0.705942 -0.244243 0
M  V30 434 H 41.9897 -1.94767 0.0719209 0
M  V30 435 H 41.0857 -2.91752 -1.10847 0
M  V30 436 N 41.3868 0.248026 -1.55636 0
M  V30 437 C 42.3338 1.30707 -1.90222 0
M  V30 438 C 43.3038 1.47881 -0.756332 0
M  V30 439 O 44.4888 1.61883 -1.00988 0
M  V30 440 C 41.6288 2.65769 -2.20138 0
M  V30 441 C 40.7418 2.56612 -3.47526 0
M  V30 442 C 39.8768 3.8402 -3.67017 0
M  V30 443 C 38.9158 3.69476 -4.8801 0
M  V30 444 N 38.0528 4.88774 -5.04029 0
M  V30 445 H 42.8928 1.00512 -2.80538 0
M  V30 446 H 40.4298 0.485055 -1.38873 0
M  V30 447 H 42.3878 3.44386 -2.35487 0
M  V30 448 H 41.0178 2.94115 -1.33027 0
M  V30 449 H 40.0698 1.69571 -3.40514 0
M  V30 450 H 41.3818 2.41774 -4.36287 0
M  V30 451 H 40.5358 4.7108 -3.8232 0
M  V30 452 H 39.2748 4.01754 -2.76487 0
M  V30 453 H 38.2798 2.80799 -4.72686 0
M  V30 454 H 39.5048 3.53238 -5.8 0
M  V30 455 H 37.4508 5.0687 -4.16435 0
M  V30 456 H 37.3678 4.76562 -5.86877 0
M  V30 457 H 38.6358 5.77335 -5.23741 0
M  V30 458 N 42.8649 1.48995 0.513639 0
M  V30 459 C 44.2809 1.35478 0.843682 0
M  V30 460 C 44.4809 0.378213 1.97919 0
M  V30 461 O 43.5369 -0.194689 2.51748 0
M  V30 462 C 44.8499 2.75901 1.1958 0
M  V30 463 C 46.3979 2.84509 1.30474 0
M  V30 464 C 46.8729 4.25671 1.69021 0
M  V30 465 N 48.3639 4.28422 1.76094 0
M  V30 466 C 49.0989 5.34601 2.07338 0
M  V30 467 N 48.5949 6.5104 2.36894 0
M  V30 468 N 50.3879 5.22007 2.08483 0
M  V30 469 H 42.5389 2.11092 -0.235328 0
M  V30 470 H 44.8019 0.947039 -0.0426669 0
M  V30 471 H 44.5079 3.49001 0.434913 0
M  V30 472 H 44.3819 3.10467 2.1422 0
M  V30 473 H 46.7689 2.11655 2.05637 0
M  V30 474 H 46.8499 2.53542 0.339155 0
M  V30 475 H 46.4939 4.99048 0.944135 0
M  V30 476 H 46.4239 4.54094 2.66658 0
M  V30 477 H 48.9149 3.44441 1.55464 0
M  V30 478 H 49.2279 7.2779 2.59887 0
M  V30 479 H 47.5729 6.54287 2.34378 0
M  V30 480 H 50.7639 4.30051 1.84861 0
M  V30 481 H 50.9369 6.04854 2.325 0
M  V30 482 N 44.343 -0.763751 1.37857 0
M  V30 483 C 45.253 -1.90817 1.36478 0
M  V30 484 C 46.269 -1.71997 0.263248 0
M  V30 485 O 47.445 -1.95095 0.499979 0
M  V30 486 C 44.51 -3.2605 1.17864 0
M  V30 487 C 43.571 -3.57467 2.3773 0
M  V30 488 C 42.804 -4.86249 2.19995 0
M  V30 489 O 43.027 -5.57884 1.18836 0
M  V30 490 O 41.961 -5.16911 3.08361 0
M  V30 491 H 45.787 -1.94933 2.32884 0
M  V30 492 H 43.372 -0.907619 1.1867 0
M  V30 493 H 45.254 -4.06924 1.09504 0
M  V30 494 H 43.929 -3.22769 0.245372 0
M  V30 495 H 42.836 -2.76796 2.51664 0
M  V30 496 H 44.169 -3.655 3.29652 0
M  V30 497 N 45.8211 -1.22559 -0.990812 0
M  V30 498 C 46.7531 -0.955325 -2.08342 0
M  V30 499 C 47.7661 0.0668408 -1.62663 0
M  V30 500 O 48.9551 -0.167421 -1.77713 0
M  V30 501 C 46.0551 -0.415566 -3.36342 0
M  V30 502 C 45.2281 -1.49544 -4.11042 0
M  V30 503 C 44.2871 -0.962399 -5.17324 0
M  V30 504 O 43.3131 -1.64907 -5.44788 0
M  V30 505 N 44.5151 0.215134 -5.80101 0
M  V30 506 H 47.2801 -1.89596 -2.32106 0
M  V30 507 H 44.8411 -1.13276 -1.15673 0
M  V30 508 H 46.8331 -0.0442386 -4.04676 0
M  V30 509 H 45.4031 0.430232 -3.09625 0
M  V30 510 H 44.6231 -2.04 -3.37309 0
M  V30 511 H 45.9111 -2.22195 -4.57719 0
M  V30 512 H 45.3091 0.789779 -5.6016 0
M  V30 513 H 43.8661 0.527826 -6.49659 0
M  V30 514 N 47.2992 1.18797 -1.03562 0
M  V30 515 C 48.2462 2.22253 -0.622259 0
M  V30 516 C 49.2162 1.61987 0.36736 0
M  V30 517 O 50.4012 1.88986 0.262492 0
M  V30 518 C 47.5412 3.45097 0.0138462 0
M  V30 519 C 46.6542 4.19722 -1.02263 0
M  V30 520 C 45.7892 5.30009 -0.355573 0
M  V30 521 C 44.8282 5.96399 -1.37749 0
M  V30 522 N 43.9652 6.98234 -0.735766 0
M  V30 523 H 48.8052 2.56968 -1.50903 0
M  V30 524 H 46.3422 1.26245 -0.755017 0
M  V30 525 H 48.3002 4.15279 0.399948 0
M  V30 526 H 46.9302 3.11018 0.864158 0
M  V30 527 H 45.9822 3.48418 -1.52673 0
M  V30 528 H 47.2942 4.65227 -1.79903 0
M  V30 529 H 46.4482 6.0664 0.0850095 0
M  V30 530 H 45.1872 4.85592 0.452967 0
M  V30 531 H 44.1922 5.18512 -1.82826 0
M  V30 532 H 45.4172 6.42899 -2.18764 0
M  V30 533 H 43.3632 6.55979 0.0525597 0
M  V30 534 H 43.2802 7.41965 -1.44995 0
M  V30 535 H 44.5482 7.78845 -0.31941 0
M  V30 536 N 48.7773 0.814389 1.34928 0
M  V30 537 C 50.0023 0.410097 2.03305 0
M  V30 538 C 50.4273 -0.973464 1.60951 0
M  V30 539 O 49.7853 -1.63185 0.789964 0
M  V30 540 C 49.8333 0.51049 3.56968 0
M  V30 541 O 48.9373 -0.473035 4.09678 0
M  V30 542 H 48.2783 0.170088 0.641846 0
M  V30 543 H 50.8083 1.10244 1.72358 0
M  V30 544 H 50.8183 0.383135 4.06197 0
M  V30 545 H 49.4933 1.51963 3.87144 0
M  V30 546 H 48.0703 -0.305272 3.71648 0
M  V30 547 N 50.2554 -1.46986 0.568584 0
M  V30 548 C 51.4854 -2.0653 0.0539173 0
M  V30 549 C 51.8934 -1.42004 -1.25026 0
M  V30 550 O 51.2364 -0.514541 -1.76347 0
M  V30 551 C 51.2984 -3.58938 -0.200854 0
M  V30 552 C 50.9624 -4.45572 1.01559 0
M  V30 553 C 51.9594 -4.82986 1.92407 0
M  V30 554 C 49.6444 -4.8692 1.23346 0
M  V30 555 C 51.6384 -5.60559 3.03402 0
M  V30 556 C 49.3254 -5.64255 2.34649 0
M  V30 557 C 50.3234 -6.00986 3.24507 0
M  V30 558 O 50.0114 -6.76761 4.33878 0
M  V30 559 H 49.7434 -0.674292 0.0480234 0
M  V30 560 H 52.2974 -1.89812 0.784896 0
M  V30 561 H 50.5274 -3.73911 -0.986279 0
M  V30 562 H 52.2164 -4.0046 -0.662294 0
M  V30 563 H 52.9824 -4.51633 1.76785 0
M  V30 564 H 48.8614 -4.57789 0.543178 0
M  V30 565 H 52.4054 -5.89147 3.73565 0
M  V30 566 H 48.3024 -5.95021 2.5024 0
M  V30 567 H 49.0704 -6.95168 4.32068 0
M  V30 568 N 51.7335 -0.305618 -1.54608 0
M  V30 569 C 52.6805 0.568421 -2.23691 0
M  V30 570 C 53.6505 1.12592 -1.22116 0
M  V30 571 O 54.8355 1.16959 -1.50749 0
M  V30 572 C 51.9755 1.7322 -2.98477 0
M  V30 573 C 51.0885 1.20566 -4.14835 0
M  V30 574 C 50.2235 2.33368 -4.77193 0
M  V30 575 C 49.2625 1.7787 -5.85686 0
M  V30 576 N 48.3995 2.84263 -6.4198 0
M  V30 577 H 53.2395 -0.0272867 -2.97988 0
M  V30 578 H 50.7765 -0.0252363 -1.47078 0
M  V30 579 H 52.7345 2.41675 -3.40072 0
M  V30 580 H 51.3645 2.29947 -2.26548 0
M  V30 581 H 50.4165 0.413223 -3.78149 0
M  V30 582 H 51.7285 0.759417 -4.92985 0
M  V30 583 H 50.8825 3.09761 -5.21664 0
M  V30 584 H 49.6215 2.8132 -3.98385 0
M  V30 585 H 48.6265 0.99968 -5.40635 0
M  V30 586 H 49.8515 1.30816 -6.66381 0
M  V30 587 H 47.7975 3.31541 -5.66053 0
M  V30 588 H 47.7145 2.44149 -7.15491 0
M  V30 589 H 48.9825 3.6054 -6.91109 0
M  V30 590 N 53.2116 1.57565 -0.0334293 0
M  V30 591 C 54.1746 2.09393 0.932048 0
M  V30 592 C 55.1746 1.00986 1.25134 0
M  V30 593 O 56.3646 1.27129 1.19096 0
M  V30 594 C 53.4966 2.56338 2.2473 0
M  V30 595 H 54.6896 2.95984 0.483085 0
M  V30 596 H 52.2426 1.54819 0.21468 0
M  V30 597 H 52.9776 1.7309 2.74245 0
M  V30 598 H 52.7626 3.35542 2.02865 0
M  V30 599 H 54.2526 2.96646 2.93923 0
M  V30 600 N 54.6897 -0.239769 1.55765 0
M  V30 601 C 55.9357 -0.968234 1.78194 0
M  V30 602 C 56.2687 -1.84701 0.599938 0
M  V30 603 O 55.5437 -1.9031 -0.401524 0
M  V30 604 C 55.8267 -1.8227 3.10564 0
M  V30 605 C 55.6797 -0.971633 4.3918 0
M  V30 606 C 56.9987 -2.80388 3.39221 0
M  V30 607 H 54.1177 -0.350572 0.648281 0
M  V30 608 H 56.7597 -0.238259 1.885 0
M  V30 609 H 54.9097 -2.44507 3.01908 0
M  V30 610 H 56.5817 -0.367408 4.59835 0
M  V30 611 H 54.8247 -0.276276 4.32919 0
M  V30 612 H 55.4957 -1.60346 5.28198 0
M  V30 613 H 57.9717 -2.28287 3.47885 0
M  V30 614 H 56.8477 -3.3729 4.33044 0
M  V30 615 H 57.1087 -3.57212 2.60484 0
M  V30 616 N 56.1678 -1.49265 -0.50573 0
M  V30 617 C 57.0978 -1.68495 -1.61653 0
M  V30 618 C 58.0788 -0.53366 -1.61512 0
M  V30 619 O 59.2638 -0.76897 -1.78327 0
M  V30 620 C 56.3938 -1.74709 -3.00157 0
M  V30 621 C 55.3478 -2.89581 -3.15162 0
M  V30 622 C 54.6738 -2.80903 -4.5497 0
M  V30 623 C 55.9738 -4.30578 -2.95634 0
M  V30 624 H 57.6678 -2.61493 -1.45814 0
M  V30 625 H 55.2138 -1.25838 -0.70005 0
M  V30 626 H 57.1668 -1.86748 -3.77761 0
M  V30 627 H 55.8908 -0.783067 -3.17074 0
M  V30 628 H 54.5498 -2.77136 -2.39982 0
M  V30 629 H 54.1978 -1.82419 -4.68756 0
M  V30 630 H 53.8978 -3.57999 -4.65951 0
M  V30 631 H 55.4218 -2.94944 -5.34641 0
M  V30 632 H 56.8358 -4.4373 -3.63011 0
M  V30 633 H 55.2328 -5.0886 -3.18091 0
M  V30 634 H 56.3028 -4.45352 -1.91806 0
M  V30 635 N 57.6459 0.756429 -1.3826 0
M  V30 636 C 58.5559 1.9009 -1.37488 0
M  V30 637 C 59.5719 1.71855 -0.272366 0
M  V30 638 O 60.7479 1.94827 -0.510318 0
M  V30 639 C 57.8129 3.25421 -1.19592 0
M  V30 640 C 56.8739 3.56202 -2.39622 0
M  V30 641 C 56.1069 4.85075 -2.2257 0
M  V30 642 O 56.3299 5.57246 -1.21793 0
M  V30 643 O 55.2639 5.15269 -3.11098 0
M  V30 644 H 59.0899 1.93695 -2.33914 0
M  V30 645 H 56.6749 0.901313 -1.1915 0
M  V30 646 H 58.5569 4.06337 -1.11661 0
M  V30 647 H 57.2319 3.22634 -0.262486 0
M  V30 648 H 56.1389 2.75458 -2.53128 0
M  V30 649 H 57.4719 3.63747 -3.31586 0
M  V30 650 N 59.124 1.23083 0.984299 0
M  V30 651 C 60.401 0.9689 1.69917 0
M  V30 652 C 60.781 -0.513604 2.04757 0
M  V30 653 O 60.129 -1.48383 1.73767 0
M  V30 654 C 60.339 1.87518 2.94343 0
M  V30 655 C 61.687 2.13636 3.6694 0
M  V30 656 O 62.711 1.85036 3.04368 0
M  V30 657 O 61.57 2.62119 4.79537 0
M  V30 658 H 58.664 0.365095 0.742048 0
M  V30 659 H 61.21 1.34107 1.03987 0
M  V30 660 H 59.982 2.87756 2.65164 0
M  V30 661 H 59.605 1.50514 3.6801 0
M  V30 662 N 60.6021 -1.18246 1.0419 0
M  V30 663 C 62.0131 -1.69914 0.773698 0
M  V30 664 C 62.3641 -1.83085 -0.705297 0
M  V30 665 O 61.4891 -1.51123 -1.5489 0
M  V30 666 C 62.0841 -3.08619 1.39784 0
M  V30 667 C 60.6431 -3.57494 1.17792 0
M  V30 668 C 59.7901 -2.34013 1.48773 0
M  V30 669 H 62.7411 -1.02904 1.20816 0
M  V30 670 H 62.7621 -3.71958 0.801714 0
M  V30 671 H 62.2741 -2.99001 2.47426 0
M  V30 672 H 60.3751 -3.72406 0.120295 0
M  V30 673 H 60.4881 -4.40852 1.87581 0
M  V30 674 H 58.8521 -2.37986 0.907463 0
M  V30 675 H 59.6351 -2.27013 2.57527 0
M  V30 676 N 62.0802 -0.821533 -1.34494 0
M  V30 677 C 63.0132 -0.187704 -2.27427 0
M  V30 678 C 63.9912 0.65507 -1.48821 0
M  V30 679 O 65.1752 0.619111 -1.78043 0
M  V30 680 C 62.3022 0.737996 -3.30562 0
M  V30 681 C 61.3482 -0.0270713 -4.26491 0
M  V30 682 S 62.1812 -1.37329 -5.17592 0
M  V30 683 C 63.3372 -0.452427 -6.24263 0
M  V30 684 H 63.5702 -0.975598 -2.80837 0
M  V30 685 H 61.1032 -0.61736 -1.4152 0
M  V30 686 H 63.0612 1.26654 -3.90473 0
M  V30 687 H 61.7222 1.4994 -2.76001 0
M  V30 688 H 60.9152 0.6766 -4.99438 0
M  V30 689 H 60.5172 -0.48612 -3.70827 0
M  V30 690 H 62.8092 0.356557 -6.76561 0
M  V30 691 H 63.7522 -1.15153 -6.98674 0
M  V30 692 H 64.1602 -0.0414755 -5.64485 0
M  V30 693 N 63.5583 1.46682 -0.576371 0
M  V30 694 C 64.4883 2.33028 0.148397 0
M  V30 695 C 65.4693 1.44961 0.889956 0
M  V30 696 O 66.6543 1.73789 0.866662 0
M  V30 697 C 63.7843 3.27117 1.1667 0
M  V30 698 C 62.7383 4.24575 0.540386 0
M  V30 699 C 62.0643 5.08126 1.6647 0
M  V30 700 C 63.3643 5.19722 -0.518331 0
M  V30 701 H 65.0583 2.93875 -0.572509 0
M  V30 702 H 62.6043 1.41315 -0.276768 0
M  V30 703 H 64.5573 3.86374 1.68204 0
M  V30 704 H 63.2813 2.64364 1.9178 0
M  V30 705 H 61.9403 3.66571 0.0461769 0
M  V30 706 H 61.5883 4.41762 2.40531 0
M  V30 707 H 61.2883 5.74122 1.25131 0
M  V30 708 H 62.8123 5.70246 2.18293 0
M  V30 709 H 64.2263 5.73232 -0.0883058 0
M  V30 710 H 62.6233 5.94026 -0.851679 0
M  V30 711 H 63.6933 4.64037 -1.40703 0
M  V30 712 N 65.0364 0.313813 1.54444 0
M  V30 713 C 65.9834 -0.55655 2.23989 0
M  V30 714 C 66.9534 -1.11943 1.22711 0
M  V30 715 O 68.1384 -1.16158 1.51367 0
M  V30 716 C 65.2784 -1.71635 2.99392 0
M  V30 717 C 64.3914 -1.18364 4.15468 0
M  V30 718 C 63.5264 -2.30834 4.78424 0
M  V30 719 C 62.5654 -1.74762 5.86622 0
M  V30 720 N 61.7024 -2.80855 6.43479 0
M  V30 721 H 66.5424 0.0430893 2.97969 0
M  V30 722 H 64.0794 0.0330359 1.47063 0
M  V30 723 H 66.0374 -2.39868 3.41349 0
M  V30 724 H 64.6674 -2.28742 2.27765 0
M  V30 725 H 63.7194 -0.393163 3.78363 0
M  V30 726 H 65.0314 -0.733262 4.93381 0
M  V30 727 H 64.1854 -3.0699 5.23299 0
M  V30 728 H 62.9244 -2.79204 3.99871 0
M  V30 729 H 61.9294 -0.970995 5.41158 0
M  V30 730 H 63.1544 -1.2728 6.67066 0
M  V30 731 H 61.1004 -3.28535 5.67804 0
M  V30 732 H 61.0174 -2.40351 7.16776 0
M  V30 733 H 62.2854 -3.5687 6.93011 0
M  V30 734 N 66.5145 -1.57545 0.0417849 0
M  V30 735 C 67.7615 -1.92317 -0.634082 0
M  V30 736 C 68.0895 -0.919334 -1.71402 0
M  V30 737 O 67.3445 0.0698253 -1.95575 0
M  V30 738 C 67.6435 -3.33794 -1.27735 0
M  V30 739 C 67.3095 -4.49716 -0.326543 0
M  V30 740 C 65.9715 -4.81156 -0.0648814 0
M  V30 741 C 68.3235 -5.20182 0.325623 0
M  V30 742 C 65.6515 -5.80414 0.856539 0
M  V30 743 C 68.0035 -6.20424 1.23518 0
M  V30 744 C 66.6675 -6.50298 1.5056 0
M  V30 745 H 65.9375 -0.703736 -0.232027 0
M  V30 746 H 68.5845 -1.91205 0.106259 0
M  V30 747 H 66.8895 -3.31228 -2.09274 0
M  V30 748 H 68.5865 -3.57975 -1.80707 0
M  V30 749 H 65.1765 -4.25176 -0.540665 0
M  V30 750 H 69.3605 -4.96112 0.136546 0
M  V30 751 H 64.6165 -6.019 1.07363 0
M  V30 752 H 68.7905 -6.74141 1.74664 0
M  V30 753 H 66.4175 -7.27025 2.22123 0
M  V30 754 N 67.9926 0.231505 -1.5589 0
M  V30 755 C 69.2176 0.978689 -1.82856 0
M  V30 756 C 69.6426 1.77559 -0.620846 0
M  V30 757 O 69.0006 1.76119 0.430305 0
M  V30 758 C 69.0486 1.87997 -3.07716 0
M  V30 759 O 68.1526 2.97393 -2.85712 0
M  V30 760 H 67.4936 0.277663 -0.603158 0
M  V30 761 H 70.0236 0.24783 -2.03093 0
M  V30 762 H 70.0336 2.2917 -3.37558 0
M  V30 763 H 68.7086 1.29417 -3.95252 0
M  V30 764 H 67.2856 2.60238 -2.67078 0
M  V30 765 N 69.4707 1.49531 0.497807 0
M  V30 766 C 70.7187 1.58865 1.24926 0
M  V30 767 C 71.0397 0.278721 1.92998 0
M  V30 768 O 70.3097 -0.702144 1.82885 0
M  V30 769 H 68.8897 0.585343 0.464094 0
M  V30 770 H 71.5517 1.86174 0.57666 0
M  V30 771 H 70.6477 2.38633 2.01149 0
M  V30 772 N 70.9488 -0.749086 1.3866 0
M  V30 773 C 71.8788 -1.8764 1.38973 0
M  V30 774 C 72.8598 -1.68178 0.255004 0
M  V30 775 O 74.0448 -1.88704 0.458754 0
M  V30 776 C 71.1748 -3.25222 1.21851 0
M  V30 777 C 70.1288 -3.59295 2.32575 0
M  V30 778 C 69.4548 -4.95663 2.00555 0
M  V30 779 C 70.7548 -3.63709 3.7485 0
M  V30 780 H 72.4488 -1.87635 2.3331 0
M  V30 781 H 69.9948 -0.901329 1.12303 0
M  V30 782 H 71.9478 -4.03746 1.20695 0
M  V30 783 H 70.6718 -3.25719 0.239775 0
M  V30 784 H 69.3308 -2.83093 2.32925 0
M  V30 785 H 68.9788 -4.92724 1.01154 0
M  V30 786 H 68.6788 -5.19429 2.74714 0
M  V30 787 H 70.2028 -5.7656 2.01024 0
M  V30 788 H 71.6168 -4.32338 3.76506 0
M  V30 789 H 70.0138 -3.98986 4.48252 0
M  V30 790 H 71.0838 -2.63834 4.06841 0
M  V30 791 N 72.4269 -1.23603 -0.977757 0
M  V30 792 C 73.6569 -1.09487 -1.75203 0
M  V30 793 C 74.0649 0.356321 -1.85814 0
M  V30 794 O 73.4079 1.25816 -1.33851 0
M  V30 795 C 73.4699 -1.64905 -3.19447 0
M  V30 796 C 73.1339 -3.13688 -3.32338 0
M  V30 797 C 74.1309 -4.10953 -3.18455 0
M  V30 798 C 71.8159 -3.53449 -3.56902 0
M  V30 799 C 73.8099 -5.45962 -3.28944 0
M  V30 800 C 71.4969 -4.88602 -3.6703 0
M  V30 801 C 72.4949 -5.84668 -3.53062 0
M  V30 802 O 72.1829 -7.17365 -3.62826 0
M  V30 803 H 71.9149 -0.38367 -0.556573 0
M  V30 804 H 74.4689 -1.6398 -1.23693 0
M  V30 805 H 72.6989 -1.04835 -3.72218 0
M  V30 806 H 74.3879 -1.46226 -3.78646 0
M  V30 807 H 75.1539 -3.81577 -2.99372 0
M  V30 808 H 71.0329 -2.79188 -3.66844 0
M  V30 809 H 74.5769 -6.20925 -3.17958 0
M  V30 810 H 70.4739 -5.17653 -3.85623 0
M  V30 811 H 71.2419 -7.2515 -3.79605 0
M  V30 812 N 73.905 1.17692 -1.04816 0
M  V30 813 C 74.837 2.21103 -0.603822 0
M  V30 814 C 75.85 1.59411 0.33046 0
M  V30 815 O 77.039 1.7807 0.12379 0
M  V30 816 C 74.139 3.38623 0.136898 0
M  V30 817 C 73.312 4.29888 -0.807137 0
M  V30 818 C 72.371 5.26088 -0.10836 0
M  V30 819 O 71.397 5.64353 -0.741232 0
M  V30 820 N 72.599 5.68882 1.15558 0
M  V30 821 H 75.364 2.59848 -1.49329 0
M  V30 822 H 72.925 1.32553 -0.929587 0
M  V30 823 H 74.917 4.00009 0.614401 0
M  V30 824 H 73.487 2.98508 0.927993 0
M  V30 825 H 72.707 3.65993 -1.46434 0
M  V30 826 H 73.995 4.87759 -1.44807 0
M  V30 827 H 73.393 5.39861 1.69015 0
M  V30 828 H 71.95 6.32429 1.57722 0
M  V30 829 N 75.3831 0.828654 1.34056 0
M  V30 830 C 76.2931 0.256725 2.33191 0
M  V30 831 C 77.3091 -0.611898 1.62886 0
M  V30 832 O 78.4851 -0.51844 1.94613 0
M  V30 833 C 75.5501 -0.567238 3.42028 0
M  V30 834 C 74.6111 0.324458 4.28072 0
M  V30 835 C 73.8441 -0.460274 5.31712 0
M  V30 836 O 74.0671 -1.693 5.44696 0
M  V30 837 O 73.0011 0.160391 6.01686 0
M  V30 838 H 76.8271 1.07739 2.83947 0
M  V30 839 H 74.4121 0.59093 1.37217 0
M  V30 840 H 76.2941 -1.03582 4.08471 0
M  V30 841 H 74.9691 -1.36513 2.93506 0
M  V30 842 H 73.8761 0.840659 3.64532 0
M  V30 843 H 75.2091 1.08685 4.8005 0
M  V30 844 N 76.8612 -1.46375 0.584142 0
M  V30 845 C 78.0892 -2.06761 0.0759296 0
M  V30 846 C 78.5042 -1.43266 -1.22965 0
M  V30 847 O 77.8612 -0.538458 -1.74376 0
M  V30 848 C 77.9122 -3.61375 -0.0950384 0
M  V30 849 O 77.6332 -4.22495 1.15887 0
M  V30 850 C 79.1342 -4.38693 -0.637434 0
M  V30 851 H 76.3542 -0.668479 0.0581075 0
M  V30 852 H 78.8982 -1.8798 0.805218 0
M  V30 853 H 77.0532 -3.79578 -0.774554 0
M  V30 854 H 77.4672 -5.15385 0.973598 0
M  V30 855 H 78.9412 -5.47464 -0.706237 0
M  V30 856 H 79.4182 -4.06836 -1.65472 0
M  V30 857 H 80.0242 -4.25299 0.00725967 0
M  V30 858 N 78.3393 -0.321999 -1.54275 0
M  V30 859 C 79.5793 0.281657 -2.0245 0
M  V30 860 C 79.9433 1.49468 -1.20513 0
M  V30 861 O 81.1443 2.17109 -1.58484 0
M  V30 862 C 79.4153 0.609014 -3.52173 0
M  V30 863 S 80.9743 1.19255 -4.22284 0
M  V30 864 H 77.7923 0.0852825 -0.705867 0
M  V30 865 H 80.3943 -0.454758 -1.90137 0
M  V30 866 H 79.0983 -0.281982 -4.0943 0
M  V30 867 H 78.6293 1.37567 -3.68563 0
M  V30 868 H 80.6443 2.47944 -4.29812 0
M  V30 869 N 79.8174 1.5752 -0.0501392 0
M  V30 870 C 81.0424 1.97376 0.636997 0
M  V30 871 C 81.4674 0.927466 1.63645 0
M  V30 872 O 80.8254 -0.10941 1.8097 0
M  V30 873 C 80.8734 3.36304 1.30123 0
M  V30 874 O 79.9774 3.34156 2.41689 0
M  V30 875 H 79.3184 0.642998 0.165679 0
M  V30 876 H 81.8484 2.04258 -0.118233 0
M  V30 877 H 81.8584 3.73008 1.65315 0
M  V30 878 H 80.5334 4.11993 0.568746 0
M  V30 879 H 79.1104 3.09196 2.08451 0
M  V30 880 N 81.2955 -0.223234 1.56011 0
M  V30 881 C 82.5725 -0.972108 1.69733 0
M  V30 882 C 82.9525 -2.02485 0.59691 0
M  V30 883 O 82.3005 -2.25037 -0.396324 0
M  V30 884 C 82.5105 -1.58407 3.10979 0
M  V30 885 C 83.8585 -2.07696 3.70334 0
M  V30 886 O 84.8825 -1.68304 3.1393 0
M  V30 887 O 83.7415 -2.80096 4.69264 0
M  V30 888 H 80.8355 -0.453993 0.691245 0
M  V30 889 H 83.3815 -0.215149 1.68331 0
M  V30 890 H 82.1535 -0.823831 3.82529 0
M  V30 891 H 81.7765 -2.40661 3.16493 0
M  V30 892 N 82.7736 -1.49793 -0.48987 0
M  V30 893 C 83.7036 -1.70201 -1.59856 0
M  V30 894 C 84.6846 -0.55076 -1.60937 0
M  V30 895 O 85.8696 -0.787841 -1.77501 0
M  V30 896 C 82.9996 -1.77882 -2.98287 0
M  V30 897 C 81.9536 -2.92907 -3.12073 0
M  V30 898 C 81.2796 -2.85712 -4.51965 0
M  V30 899 C 82.5796 -4.3369 -2.91051 0
M  V30 900 H 84.2736 -2.63025 -1.43032 0
M  V30 901 H 81.8196 -1.26574 -0.686664 0
M  V30 902 H 83.7726 -1.90744 -3.75759 0
M  V30 903 H 82.4966 -0.816653 -3.16225 0
M  V30 904 H 81.1556 -2.79665 -2.37029 0
M  V30 905 H 80.8036 -1.8738 -4.66795 0
M  V30 906 H 80.5036 -3.62921 -4.62128 0
M  V30 907 H 82.0276 -3.00598 -5.31482 0
M  V30 908 H 83.4416 -4.47555 -3.58284 0
M  V30 909 H 81.8386 -5.12205 -3.12675 0
M  V30 910 H 82.9086 -4.47362 -1.87071 0
M  V30 911 N 84.2517 0.741722 -1.39055 0
M  V30 912 C 85.4817 1.52876 -1.3897 0
M  V30 913 C 85.8897 1.8919 0.0193266 0
M  V30 914 O 85.2327 1.54138 0.999356 0
M  V30 915 C 85.2947 2.84929 -2.19216 0
M  V30 916 C 84.9587 2.71086 -3.67915 0
M  V30 917 C 85.9557 2.40084 -4.61146 0
M  V30 918 C 83.6407 2.88168 -4.11418 0
M  V30 919 C 85.6347 2.26335 -5.95862 0
M  V30 920 C 83.3217 2.74037 -5.46211 0
M  V30 921 C 84.3197 2.43166 -6.38247 0
M  V30 922 O 84.0077 2.29115 -7.70559 0
M  V30 923 H 83.7397 0.479252 -0.476753 0
M  V30 924 H 86.2937 0.924751 -1.83405 0
M  V30 925 H 84.5237 3.47564 -1.69518 0
M  V30 926 H 86.2127 3.46509 -2.11392 0
M  V30 927 H 86.9787 2.26545 -4.28838 0
M  V30 928 H 82.8577 3.11191 -3.40119 0
M  V30 929 H 86.4017 2.0216 -6.67665 0
M  V30 930 H 82.2987 2.87153 -5.78112 0
M  V30 931 H 83.0667 2.44237 -7.81211 0
M  V30 932 N 85.7298 1.2412 0.971189 0
M  V30 933 C 86.9758 1.08041 1.71625 0
M  V30 934 C 87.3088 -0.380407 1.90438 0
M  V30 935 O 86.5838 -1.28127 1.46334 0
M  V30 936 C 86.8668 1.81682 3.10908 0
M  V30 937 C 86.7198 3.35493 2.99608 0
M  V30 938 C 88.0388 1.58671 4.10501 0
M  V30 939 H 85.1578 0.39388 0.622919 0
M  V30 940 H 87.7998 1.52743 1.13003 0
M  V30 941 H 85.9498 1.43684 3.60953 0
M  V30 942 H 87.6218 3.83068 2.57015 0
M  V30 943 H 85.8648 3.64052 2.35899 0
M  V30 944 H 86.5358 3.82217 3.98264 0
M  V30 945 H 89.0118 1.91719 3.69301 0
M  V30 946 H 87.8878 2.1266 5.06031 0
M  V30 947 H 88.1488 0.524161 4.38982 0
M  V30 948 N 87.2079 -1.17134 1.05439 0
M  V30 949 C 88.4359 -1.91372 0.786414 0
M  V30 950 C 88.8509 -1.76955 -0.658202 0
M  V30 951 O 88.2079 -1.10838 -1.44987 0
M  V30 952 C 88.2589 -3.42356 1.1608 0
M  V30 953 O 87.9799 -3.56332 2.54871 0
M  V30 954 C 89.4809 -4.33663 0.919322 0
M  V30 955 H 86.7009 -0.607118 0.285743 0
M  V30 956 H 89.2449 -1.48525 1.40572 0
M  V30 957 H 87.3999 -3.82939 0.586191 0
M  V30 958 H 87.8139 -4.49896 2.69618 0
M  V30 959 H 89.2879 -5.38099 1.231 0
M  V30 960 H 89.7649 -4.38959 -0.145359 0
M  V30 961 H 90.3709 -3.98796 1.47789 0
M  V30 962 N 88.686 -0.835752 -1.33615 0
M  V30 963 C 89.926 -0.43599 -1.99696 0
M  V30 964 C 90.29 0.98557 -1.64774 0
M  V30 965 O 91.491 1.48889 -2.23798 0
M  V30 966 C 89.762 -0.646721 -3.515 0
M  V30 967 S 91.321 -0.341715 -4.37467 0
M  V30 968 H 88.139 -0.164136 -0.691795 0
M  V30 969 H 90.741 -1.08436 -1.62671 0
M  V30 970 H 89.445 -1.68077 -3.74404 0
M  V30 971 H 88.976 0.0159173 -3.93397 0
M  V30 972 H 90.991 0.839708 -4.89043 0
M  V30 973 N 90.1641 1.46063 -0.591896 0
M  V30 974 C 91.0961 2.28539 0.174001 0
M  V30 975 C 92.1091 1.39047 0.846753 0
M  V30 976 O 93.2981 1.63564 0.714774 0
M  V30 977 C 90.3981 3.14347 1.26645 0
M  V30 978 C 89.5711 4.32021 0.683856 0
M  V30 979 C 88.6301 4.99157 1.66518 0
M  V30 980 O 87.6561 5.56458 1.19763 0
M  V30 981 N 88.8581 4.97005 2.99943 0
M  V30 982 H 91.6231 2.94911 -0.533633 0
M  V30 983 H 89.1841 1.56077 -0.430294 0
M  V30 984 H 91.1761 3.56125 1.92242 0
M  V30 985 H 89.7461 2.49988 1.87682 0
M  V30 986 H 88.9661 3.93915 -0.1498 0
M  V30 987 H 90.2541 5.08059 0.274567 0
M  V30 988 H 89.6521 4.51714 3.40545 0
M  V30 989 H 88.2091 5.42696 3.61004 0
M  V30 990 N 91.6422 0.330177 1.54103 0
M  V30 991 C 92.8882 -0.270806 2.00984 0
M  V30 992 C 93.2212 -1.51265 1.21789 0
M  V30 993 O 92.4962 -1.92142 0.301927 0
M  V30 994 C 92.7792 -0.598339 3.55094 0
M  V30 995 C 92.6322 0.654674 4.4501 0
M  V30 996 C 93.9512 -1.41334 4.16789 0
M  V30 997 H 91.0702 -0.0969531 0.730595 0
M  V30 998 H 93.7122 0.448066 1.84641 0
M  V30 999 H 91.8622 -1.21078 3.69151 0
M  V30 1000 H 93.5342 1.29285 4.42813 0
M  V30 1001 H 91.7772 1.28224 4.14416 0
M  V30 1002 H 92.4482 0.380944 5.50684 0
M  V30 1003 H 94.9242 -0.895597 4.06347 0
M  V30 1004 H 93.8002 -1.61127 5.24718 0
M  V30 1005 H 94.0612 -2.41146 3.70541 0
M  V30 1006 N 93.1203 -1.57491 0.0584922 0
M  V30 1007 C 94.3673 -1.92978 -0.613648 0
M  V30 1008 C 94.6953 -0.937461 -1.70417 0
M  V30 1009 O 93.9503 0.049078 -1.95638 0
M  V30 1010 C 94.2493 -3.3513 -1.24188 0
M  V30 1011 C 93.9153 -4.50037 -0.278826 0
M  V30 1012 C 92.5773 -4.81198 -0.0138447 0
M  V30 1013 C 94.9293 -5.19807 0.380777 0
M  V30 1014 C 92.2573 -5.79473 0.918052 0
M  V30 1015 C 94.6093 -6.19079 1.30091 0
M  V30 1016 C 93.2733 -6.48665 1.57449 0
M  V30 1017 H 92.5433 -0.706157 -0.22455 0
M  V30 1018 H 95.1903 -1.91082 0.126533 0
M  V30 1019 H 93.4953 -3.33429 -2.05749 0
M  V30 1020 H 95.1923 -3.59871 -1.769 0
M  V30 1021 H 91.7823 -4.25726 -0.495539 0
M  V30 1022 H 95.9663 -4.95939 0.189158 0
M  V30 1023 H 91.2223 -6.00727 1.1374 0
M  V30 1024 H 95.3963 -6.7225 1.81804 0
M  V30 1025 H 93.0233 -7.24628 2.29822 0
M  V30 1026 N 94.5984 0.214957 -1.56127 0
M  V30 1027 C 95.5614 1.24997 -1.92116 0
M  V30 1028 C 96.5614 1.39467 -0.800344 0
M  V30 1029 O 97.7514 1.37619 -1.06802 0
M  V30 1030 C 94.8834 2.62271 -2.17777 0
M  V30 1031 H 96.0764 0.942875 -2.84693 0
M  V30 1032 H 93.6294 0.455654 -1.49511 0
M  V30 1033 H 94.3644 2.98068 -1.27773 0
M  V30 1034 H 94.1494 2.53143 -2.99434 0
M  V30 1035 H 95.6394 3.36946 -2.46693 0
M  V30 1036 N 96.0765 1.50051 0.48192 0
M  V30 1037 C 96.9865 1.7089 1.60728 0
M  V30 1038 C 98.0025 0.591788 1.63627 0
M  V30 1039 O 99.1785 0.868817 1.81696 0
M  V30 1040 C 96.2435 1.78855 2.97005 0
M  V30 1041 C 95.3045 3.02537 3.04581 0
M  V30 1042 C 94.5375 3.10112 4.34357 0
M  V30 1043 O 94.7605 2.24765 5.24249 0
M  V30 1044 O 93.6945 4.02747 4.47301 0
M  V30 1045 H 97.5205 2.66264 1.46072 0
M  V30 1046 H 95.1055 1.34018 0.660264 0
M  V30 1047 H 96.9875 1.86336 3.77964 0
M  V30 1048 H 95.6625 0.866628 3.11883 0
M  V30 1049 H 94.5695 3.00563 2.22739 0
M  V30 1050 H 95.9025 3.94272 2.94636 0
M  V30 1051 N 97.5546 -0.734337 1.39446 0
M  V30 1052 C 98.8026 -1.49096 1.36436 0
M  V30 1053 C 99.1236 -1.94961 -0.0388255 0
M  V30 1054 O 98.3936 -1.69033 -0.990191 0
M  V30 1055 H 96.9736 -0.5531 0.502085 0
M  V30 1056 H 99.6356 -0.871725 1.74319 0
M  V30 1057 H 98.7316 -2.37276 2.02747 0
M  V30 1058 N 99.0327 -1.24633 -0.964593 0
M  V30 1059 C 99.9797 -1.04144 -2.05968 0
M  V30 1060 C 100.95 0.046262 -1.66036 0
M  V30 1061 O 102.135 -0.108972 -1.90489 0
M  V30 1062 C 99.2747 -0.65563 -3.38815 0
M  V30 1063 C 98.3877 -1.81714 -3.91923 0
M  V30 1064 C 97.5227 -1.37662 -5.13052 0
M  V30 1065 C 96.5617 -2.50788 -5.58365 0
M  V30 1066 N 95.6987 -2.07582 -6.70712 0
M  V30 1067 H 100.539 -1.9787 -2.22827 0
M  V30 1068 H 98.0757 -0.9855 -1.09208 0
M  V30 1069 H 100.034 -0.412954 -4.15151 0
M  V30 1070 H 98.6637 0.244627 -3.21872 0
M  V30 1071 H 97.7157 -2.1734 -3.12198 0
M  V30 1072 H 99.0277 -2.66705 -4.21509 0
M  V30 1073 H 98.1817 -1.093 -5.96773 0
M  V30 1074 H 96.9207 -0.497293 -4.85158 0
M  V30 1075 H 95.9257 -2.79906 -4.73215 0
M  V30 1076 H 97.1507 -3.39283 -5.88272 0
M  V30 1077 H 95.0967 -1.22051 -6.44546 0
M  V30 1078 H 95.0137 -2.86125 -6.99763 0
M  V30 1079 H 96.2817 -1.82369 -7.57867 0
M  V30 1080 N 100.511 1.16574 -1.06058 0
M  V30 1081 C 101.922 1.68662 -0.800632 0
M  V30 1082 C 102.273 1.84184 0.67608 0
M  V30 1083 O 101.398 1.53568 1.52466 0
M  V30 1084 C 101.993 3.06356 -1.44676 0
M  V30 1085 C 100.552 3.55575 -1.23465 0
M  V30 1086 C 99.6988 2.31616 -1.52477 0
M  V30 1087 H 102.65 1.00969 -1.22438 0
M  V30 1088 H 102.671 3.70636 -0.860788 0
M  V30 1089 H 102.183 2.95027 -2.52152 0
M  V30 1090 H 100.284 3.72167 -0.179527 0
M  V30 1091 H 100.397 4.37812 -1.94571 0
M  V30 1092 H 98.7608 2.36512 -0.945209 0
M  V30 1093 H 99.5438 2.22887 -2.61106 0
M  V30 1094 N 101.989 0.842826 1.3317 0
M  V30 1095 C 102.919 0.294028 2.31641 0
M  V30 1096 C 103.9 -0.600401 1.59151 0
M  V30 1097 O 105.085 -0.523124 1.87022 0
M  V30 1098 C 102.215 -0.528416 3.43257 0
M  V30 1099 C 101.169 0.27056 4.27144 0
M  V30 1100 C 100.495 -0.675881 5.30411 0
M  V30 1101 C 101.795 1.48981 5.00602 0
M  V30 1102 H 103.489 1.11681 2.77791 0
M  V30 1103 H 101.035 0.538478 1.33553 0
M  V30 1104 H 102.988 -0.922674 4.11175 0
M  V30 1105 H 101.712 -1.38445 2.95805 0
M  V30 1106 H 100.371 0.646427 3.60856 0
M  V30 1107 H 100.019 -1.52842 4.79216 0
M  V30 1108 H 99.7189 -0.145374 5.8742 0
M  V30 1109 H 101.243 -1.06757 6.01195 0
M  V30 1110 H 102.657 1.16849 5.61266 0
M  V30 1111 H 101.054 1.95739 5.6728 0
M  V30 1112 H 102.124 2.25746 4.29147 0
M  V30 1113 N 103.467 -1.45747 0.599634 0
M  V30 1114 C 104.43 -2.28917 -0.113835 0
M  V30 1115 C 105.43 -1.3933 -0.802729 0
M  V30 1116 O 106.62 -1.61534 -0.652103 0
M  V30 1117 C 103.752 -3.20152 -1.17114 0
M  V30 1118 H 104.945 -2.93478 0.617289 0
M  V30 1119 H 102.498 -1.52137 0.358327 0
M  V30 1120 H 103.233 -2.60374 -1.93329 0
M  V30 1121 H 103.018 -3.86133 -0.681468 0
M  V30 1122 H 104.508 -3.82708 -1.67105 0
M  V30 1123 N 104.945 -0.338344 -1.53925 0
M  V30 1124 C 105.875 0.51328 -2.27789 0
M  V30 1125 C 106.856 1.107 -1.29149 0
M  V30 1126 O 108.041 1.12937 -1.57984 0
M  V30 1127 C 105.171 1.66697 -3.04679 0
M  V30 1128 C 104.125 1.20183 -4.1078 0
M  V30 1129 C 103.451 2.44363 -4.75595 0
M  V30 1130 C 104.751 0.30605 -5.21403 0
M  V30 1131 H 106.445 -0.102883 -2.99223 0
M  V30 1132 H 103.991 -0.0509219 -1.4391 0
M  V30 1133 H 105.944 2.26915 -3.55088 0
M  V30 1134 H 104.668 2.30995 -2.30887 0
M  V30 1135 H 103.327 0.622499 -3.61276 0
M  V30 1136 H 102.975 3.07057 -3.98403 0
M  V30 1137 H 102.675 2.13925 -5.47275 0
M  V30 1138 H 104.199 3.05317 -5.28786 0
M  V30 1139 H 105.613 0.814929 -5.67478 0
M  V30 1140 H 104.01 0.0937929 -6.00027 0
M  V30 1141 H 105.08 -0.65921 -4.80398 0
M  V30 1142 N 106.423 1.57458 -0.0668435 0
M  V30 1143 C 107.834 1.80776 0.466558 0
M  V30 1144 C 108.185 0.980361 1.69951 0
M  V30 1145 O 107.31 0.201441 2.1546 0
M  V30 1146 C 107.905 3.27881 0.85321 0
M  V30 1147 C 106.464 3.52062 1.3315 0
M  V30 1148 C 105.611 2.75513 0.314264 0
M  V30 1149 H 108.562 1.5598 -0.292588 0
M  V30 1150 H 108.583 3.39659 1.715 0
M  V30 1151 H 108.095 3.88075 -0.0443439 0
M  V30 1152 H 106.196 2.97167 2.24772 0
M  V30 1153 H 106.309 4.60762 1.31285 0
M  V30 1154 H 104.673 2.42123 0.790492 0
M  V30 1155 H 105.456 3.38442 -0.575477 0
M  V30 1156 N 107.901 -0.206675 1.56239 0
M  V30 1157 C 109.147 -0.930218 1.80208 0
M  V30 1158 C 109.48 -1.83387 0.638981 0
M  V30 1159 O 108.755 -1.91119 -0.361066 0
M  V30 1160 C 109.038 -1.75641 3.1436 0
M  V30 1161 C 108.891 -0.878257 4.41142 0
M  V30 1162 C 110.21 -2.73129 3.45092 0
M  V30 1163 H 107.329 -0.336742 0.655571 0
M  V30 1164 H 109.971 -0.198222 1.88963 0
M  V30 1165 H 108.121 -2.38048 3.07027 0
M  V30 1166 H 109.793 -0.269787 4.6051 0
M  V30 1167 H 108.036 -0.184385 4.33408 0
M  V30 1168 H 108.707 -1.49106 5.3148 0
M  V30 1169 H 111.183 -2.20856 3.52649 0
M  V30 1170 H 110.059 -3.28028 4.40101 0
M  V30 1171 H 110.32 -3.51606 2.68003 0
M  V30 1172 N 109.379 -1.50304 -0.473955 0
M  V30 1173 C 110.795 -1.37667 -0.807466 0
M  V30 1174 C 110.995 -0.430555 -1.96846 0
M  V30 1175 O 110.051 0.127874 -2.52176 0
M  V30 1176 C 111.364 -2.78974 -1.12223 0
M  V30 1177 C 112.912 -2.87868 -1.22885 0
M  V30 1178 C 113.387 -4.30003 -1.57676 0
M  V30 1179 N 114.878 -4.3294 -1.64673 0
M  V30 1180 C 115.613 -5.3991 -1.93091 0
M  V30 1181 N 115.109 -6.57092 -2.1955 0
M  V30 1182 N 116.902 -5.27351 -1.94569 0
M  V30 1183 H 109.053 -2.10394 0.291212 0
M  V30 1184 H 111.316 -0.945575 0.0677609 0
M  V30 1185 H 111.022 -3.50031 -0.342229 0
M  V30 1186 H 110.896 -3.16038 -2.05913 0
M  V30 1187 H 113.283 -2.17032 -1.99953 0
M  V30 1188 H 113.364 -2.54352 -0.271814 0
M  V30 1189 H 113.008 -5.01375 -0.81149 0
M  V30 1190 H 112.938 -4.61004 -2.54525 0
M  V30 1191 H 115.429 -3.48441 -1.46277 0
M  V30 1192 H 115.742 -7.34425 -2.405 0
M  V30 1193 H 114.087 -6.60272 -2.16948 0
M  V30 1194 H 117.278 -4.34801 -1.73394 0
M  V30 1195 H 117.451 -6.10805 -2.16381 0
M  V30 1196 N 110.857 0.726932 -1.39834 0
M  V30 1197 C 112.085 1.51613 -1.40787 0
M  V30 1198 C 112.5 1.88799 -0.00451505 0
M  V30 1199 O 111.857 1.54662 0.968809 0
M  V30 1200 C 111.908 2.79863 -2.28821 0
M  V30 1201 O 111.629 2.44253 -3.63692 0
M  V30 1202 C 113.13 3.73837 -2.38245 0
M  V30 1203 H 110.35 0.468264 -0.480593 0
M  V30 1204 H 112.894 0.897607 -1.83748 0
M  V30 1205 H 111.049 3.38027 -1.89252 0
M  V30 1206 H 111.463 3.26695 -4.1033 0
M  V30 1207 H 112.937 4.60699 -3.04073 0
M  V30 1208 H 113.414 4.16153 -1.40403 0
M  V30 1209 H 114.02 3.21589 -2.78317 0
M  V30 1210 N 112.336 1.25143 0.95797 0
M  V30 1211 C 113.561 1.12521 1.74223 0
M  V30 1212 C 113.986 -0.317402 1.85403 0
M  V30 1213 O 113.344 -1.2299 1.33204 0
M  V30 1214 C 113.392 1.78062 3.1357 0
M  V30 1215 O 112.496 1.058 3.98598 0
M  V30 1216 H 111.837 0.39304 0.535178 0
M  V30 1217 H 114.367 1.65641 1.201 0
M  V30 1218 H 114.377 1.84213 3.64046 0
M  V30 1219 H 113.052 2.83021 3.04749 0
M  V30 1220 H 111.629 1.07506 3.57067 0
M  V30 1221 N 113.814 -1.1601 1.06675 0
M  V30 1222 C 115.044 -1.90251 0.805497 0
M  V30 1223 C 115.452 -1.77891 -0.64431 0
M  V30 1224 O 114.795 -1.12383 -1.45313 0
M  V30 1225 C 114.857 -3.41419 1.12576 0
M  V30 1226 C 114.521 -3.77564 2.57477 0
M  V30 1227 C 115.518 -3.79161 3.55715 0
M  V30 1228 C 113.203 -4.08079 2.92877 0
M  V30 1229 C 115.197 -4.10767 4.8739 0
M  V30 1230 C 112.884 -4.39351 4.24751 0
M  V30 1231 C 113.882 -4.40675 5.21818 0
M  V30 1232 O 113.57 -4.71202 6.51325 0
M  V30 1233 H 113.302 -0.610018 0.291297 0
M  V30 1234 H 115.856 -1.47958 1.4247 0
M  V30 1235 H 114.086 -3.84079 0.449503 0
M  V30 1236 H 115.775 -3.9694 0.84814 0
M  V30 1237 H 116.541 -3.55693 3.29708 0
M  V30 1238 H 112.42 -4.06211 2.17976 0
M  V30 1239 H 115.964 -4.11715 5.63148 0
M  V30 1240 H 111.861 -4.62285 4.50514 0
M  V30 1241 H 112.629 -4.88996 6.56373 0
M  V30 1242 N 115.292 -0.849877 -1.32721 0
M  V30 1243 C 116.239 -0.289033 -2.28983 0
M  V30 1244 C 117.209 0.601324 -1.54833 0
M  V30 1245 O 118.394 0.537253 -1.8308 0
M  V30 1246 C 115.534 0.520623 -3.4115 0
M  V30 1247 C 114.647 -0.394989 -4.3019 0
M  V30 1248 C 113.782 0.426834 -5.29482 0
M  V30 1249 C 112.821 -0.486476 -6.10164 0
M  V30 1250 N 111.958 0.297879 -7.01468 0
M  V30 1251 H 116.798 -1.11519 -2.76347 0
M  V30 1252 H 114.335 -0.56138 -1.35967 0
M  V30 1253 H 116.293 1.00563 -4.04899 0
M  V30 1254 H 114.923 1.31165 -2.9495 0
M  V30 1255 H 113.975 -0.99836 -3.67065 0
M  V30 1256 H 115.287 -1.09612 -4.86607 0
M  V30 1257 H 114.441 0.975205 -5.98811 0
M  V30 1258 H 113.18 1.16136 -4.73671 0
M  V30 1259 H 112.185 -1.04677 -5.39743 0
M  V30 1260 H 113.41 -1.21953 -6.6806 0
M  V30 1261 H 111.356 1.01558 -6.48091 0
M  V30 1262 H 111.273 -0.344318 -7.55216 0
M  V30 1263 H 112.541 0.828131 -7.75089 0
M  V30 1264 N 116.77 1.45427 -0.607355 0
M  V30 1265 C 117.733 2.28974 0.101693 0
M  V30 1266 C 118.733 1.39754 0.795329 0
M  V30 1267 O 119.923 1.61878 0.643527 0
M  V30 1268 C 117.055 3.20768 1.15414 0
M  V30 1269 H 118.248 2.93147 -0.632844 0
M  V30 1270 H 115.801 1.51945 -0.366391 0
M  V30 1271 H 116.536 2.61395 1.91945 0
M  V30 1272 H 116.321 3.86489 0.66098 0
M  V30 1273 H 117.811 3.83589 1.65073 0
M  V30 1274 N 118.248 0.346503 1.53744 0
M  V30 1275 C 119.495 -0.249104 2.00962 0
M  V30 1276 C 119.823 -1.5032 1.23426 0
M  V30 1277 O 119.078 -1.93217 0.310761 0
M  V30 1278 C 119.377 -0.605809 3.52228 0
M  V30 1279 C 119.043 0.551747 4.47512 0
M  V30 1280 C 117.705 0.86941 4.73281 0
M  V30 1281 C 120.057 1.32818 5.03993 0
M  V30 1282 C 117.385 1.96582 5.52786 0
M  V30 1283 C 119.737 2.41486 5.84694 0
M  V30 1284 C 118.401 2.73808 6.08757 0
M  V30 1285 H 117.671 -0.0911538 0.735372 0
M  V30 1286 H 120.318 0.475027 1.85515 0
M  V30 1287 H 118.623 -1.4107 3.65522 0
M  V30 1288 H 120.32 -1.07858 3.86222 0
M  V30 1289 H 116.91 0.294102 4.2759 0
M  V30 1290 H 121.094 1.09602 4.84047 0
M  V30 1291 H 116.35 2.22045 5.69654 0
M  V30 1292 H 120.524 3.02078 6.27473 0
M  V30 1293 H 118.151 3.58892 6.7015 0
M  V30 1294 N 119.726 -1.57421 0.075193 0
M  V30 1295 C 120.951 -1.98364 -0.605515 0
M  V30 1296 C 121.376 -0.953383 -1.62149 0
M  V30 1297 O 120.734 0.0806053 -1.81121 0
M  V30 1298 C 120.782 -3.38332 -1.24756 0
M  V30 1299 O 119.886 -3.37959 -2.36342 0
M  V30 1300 H 119.227 -0.645553 -0.155428 0
M  V30 1301 H 121.757 -2.04044 0.150714 0
M  V30 1302 H 121.767 -3.75591 -1.5936 0
M  V30 1303 H 120.442 -4.12846 -0.503129 0
M  V30 1304 H 119.019 -3.12474 -2.03506 0
M  V30 1305 N 121.204 0.198386 -1.56346 0
M  V30 1306 C 122.432 0.935572 -1.84539 0
M  V30 1307 C 122.847 1.76989 -0.657281 0
M  V30 1308 O 122.204 1.78626 0.374043 0
M  V30 1309 C 122.255 1.8344 -3.11499 0
M  V30 1310 O 121.976 1.03377 -4.25728 0
M  V30 1311 C 123.477 2.68355 -3.52846 0
M  V30 1312 H 120.697 0.273126 -0.612897 0
M  V30 1313 H 123.241 0.20663 -2.03453 0
M  V30 1314 H 121.396 2.51701 -2.94492 0
M  V30 1315 H 121.81 1.64599 -4.98003 0
M  V30 1316 H 123.284 3.27085 -4.44657 0
M  V30 1317 H 123.761 3.41901 -2.75681 0
M  V30 1318 H 124.367 2.05471 -3.72373 0
M  V30 1319 N 122.682 1.50554 0.465978 0
M  V30 1320 C 124.098 1.38093 0.800154 0
M  V30 1321 C 124.298 0.440988 1.96615 0
M  V30 1322 O 123.354 -0.114499 2.5224 0
M  V30 1323 C 124.667 2.79565 1.10742 0
M  V30 1324 C 126.215 2.88516 1.21357 0
M  V30 1325 C 126.69 4.30833 1.55393 0
M  V30 1326 N 128.181 4.33807 1.62375 0
M  V30 1327 C 128.916 5.40927 1.90225 0
M  V30 1328 N 128.412 6.58247 2.16062 0
M  V30 1329 N 130.205 5.28376 1.9177 0
M  V30 1330 H 122.356 2.10237 -0.302366 0
M  V30 1331 H 124.619 0.945203 -0.0727746 0
M  V30 1332 H 124.325 3.50208 0.323661 0
M  V30 1333 H 124.199 3.17125 2.04234 0
M  V30 1334 H 126.586 2.1809 1.98799 0
M  V30 1335 H 126.667 2.54492 0.258321 0
M  V30 1336 H 126.311 5.01799 0.784889 0
M  V30 1337 H 126.241 4.62347 2.52076 0
M  V30 1338 H 128.732 3.49212 1.44427 0
M  V30 1339 H 129.045 7.3569 2.36601 0
M  V30 1340 H 127.39 6.61413 2.13444 0
M  V30 1341 H 130.581 4.35715 1.71085 0
M  V30 1342 H 130.754 6.11944 2.13139 0
M  V30 1343 N 124.16 -0.719506 1.40217 0
M  V30 1344 C 125.406 -1.48034 1.39491 0
M  V30 1345 C 125.761 -1.92399 -0.00443536 0
M  V30 1346 O 125.054 -1.64993 -0.974061 0
M  V30 1347 C 125.248 -2.72271 2.31524 0
M  V30 1348 C 125.077 -2.40055 3.80268 0
M  V30 1349 C 123.847 -2.31588 4.49105 0
M  V30 1350 C 126.045 -2.04581 4.71859 0
M  V30 1351 N 124.027 -1.92006 5.83101 0
M  V30 1352 C 125.398 -1.75568 5.94623 0
M  V30 1353 C 127.453 -1.91183 4.59732 0
M  V30 1354 C 126.156 -1.34505 7.06612 0
M  V30 1355 C 128.182 -1.51524 5.71659 0
M  V30 1356 C 127.544 -1.23406 6.93506 0
M  V30 1357 H 123.643 -0.539927 0.565688 0
M  V30 1358 H 126.227 -0.834764 1.75897 0
M  V30 1359 H 124.398 -3.34584 1.97251 0
M  V30 1360 H 126.13 -3.38584 2.21682 0
M  V30 1361 H 122.885 -2.49199 4.02737 0
M  V30 1362 H 123.309 -1.74764 6.54054 0
M  V30 1363 H 127.951 -2.11584 3.66049 0
M  V30 1364 H 125.669 -1.12846 8.00182 0
M  V30 1365 H 129.255 -1.41741 5.6427 0
M  V30 1366 H 128.135 -0.931788 7.78645 0
M  V30 1367 N 125.638 -1.25649 -0.95132 0
M  V30 1368 C 126.586 -1.06118 -2.06982 0
M  V30 1369 C 127.58 0.00889169 -1.69398 0
M  V30 1370 O 128.786 -0.146988 -1.79399 0
M  V30 1371 H 125.161 -0.326248 -0.677544 0
M  V30 1372 H 127.132 -2.00932 -2.2061 0
M  V30 1373 C 125.881 -0.700145 -3.40578 0
M  V30 1374 H 125.204 -1.51537 -3.69968 0
M  V30 1375 H 126.644 -0.603211 -4.19687 0
M  V30 1376 C 125.103 0.59403 -3.31622 0
M  V30 1377 O 125.633 1.63522 -3.66911 0
M  V30 1378 N 123.839 0.58089 -2.84735 0
M  V30 1379 H 123.386 -0.266783 -2.56215 0
M  V30 1380 H 123.344 1.44695 -2.79125 0
M  V30 1381 N 127.117 1.15442 -1.07289 0
M  V30 1382 C 128.363 1.8672 -0.806679 0
M  V30 1383 C 128.718 1.80723 0.660084 0
M  V30 1384 O 128.011 1.21902 1.47819 0
M  V30 1385 C 128.205 3.3489 -1.24834 0
M  V30 1386 C 128.034 3.55313 -2.7565 0
M  V30 1387 C 126.804 3.7082 -3.4325 0
M  V30 1388 C 129.002 3.53188 -3.73848 0
M  V30 1389 N 126.984 3.7929 -4.82713 0
M  V30 1390 C 128.355 3.67765 -4.99149 0
M  V30 1391 C 130.41 3.36459 -3.67015 0
M  V30 1392 C 129.113 3.6734 -6.18428 0
M  V30 1393 C 131.139 3.37333 -4.85758 0
M  V30 1394 C 130.501 3.52438 -6.09891 0
M  V30 1395 H 126.6 0.700433 -0.347733 0
M  V30 1396 H 129.184 1.38441 -1.36902 0
M  V30 1397 H 127.355 3.81786 -0.713713 0
M  V30 1398 H 129.087 3.93875 -0.929745 0
M  V30 1399 H 125.842 3.71568 -2.93656 0
M  V30 1400 H 126.266 3.8727 -5.55294 0
M  V30 1401 H 130.908 3.237 -2.71989 0
M  V30 1402 H 128.626 3.78878 -7.13777 0
M  V30 1403 H 132.212 3.25617 -4.82146 0
M  V30 1404 H 131.092 3.53047 -7.00234 0
M  V30 1405 N 128.595 0.856903 1.32268 0
M  V30 1406 C 129.543 0.291987 2.3076 0
M  V30 1407 C 130.537 -0.585857 1.58947 0
M  V30 1408 O 131.743 -0.47341 1.73663 0
M  V30 1409 H 128.118 0.075721 0.748178 0
M  V30 1410 H 130.089 1.13687 2.75895 0
M  V30 1411 C 128.838 -0.502869 3.44044 0
M  V30 1412 H 128.161 0.163328 3.99466 0
M  V30 1413 H 129.601 -0.863691 4.1511 0
M  V30 1414 C 128.06 -1.68898 2.91505 0
M  V30 1415 O 128.59 -2.78811 2.89184 0
M  V30 1416 N 126.796 -1.51679 2.47875 0
M  V30 1417 H 126.343 -0.622666 2.49961 0
M  V30 1418 H 126.301 -2.31184 2.13076 0
M  V30 1419 N 130.073 -1.45103 0.615059 0
M  V30 1420 C 130.983 -2.34382 -0.101034 0
M  V30 1421 C 131.999 -1.51681 -0.852585 0
M  V30 1422 O 133.175 -1.8446 -0.808484 0
M  V30 1423 C 130.24 -3.29417 -1.08099 0
M  V30 1424 C 129.301 -4.28025 -0.330577 0
M  V30 1425 C 128.534 -5.1852 -1.26385 0
M  V30 1426 O 128.757 -5.12598 -2.50198 0
M  V30 1427 O 127.691 -5.97122 -0.756866 0
M  V30 1428 H 131.517 -2.97033 0.632855 0
M  V30 1429 H 129.102 -1.4461 0.375293 0
M  V30 1430 H 130.984 -3.87958 -1.6452 0
M  V30 1431 H 129.659 -2.69321 -1.79577 0
M  V30 1432 H 128.566 -3.73078 0.276283 0
M  V30 1433 H 129.899 -4.90997 0.343866 0
M  V30 1434 N 131.551 -0.354651 -1.53558 0
M  V30 1435 C 132.797 0.231422 -2.02079 0
M  V30 1436 C 133.152 1.47308 -1.23767 0
M  V30 1437 O 132.445 1.8891 -0.319947 0
M  V30 1438 C 132.639 0.587121 -3.52545 0
M  V30 1439 C 132.468 -0.618513 -4.45426 0
M  V30 1440 C 131.238 -1.12724 -4.92566 0
M  V30 1441 C 133.436 -1.48039 -4.92533 0
M  V30 1442 N 131.418 -2.29404 -5.69427 0
M  V30 1443 C 132.789 -2.49397 -5.67628 0
M  V30 1444 C 134.844 -1.50454 -4.74624 0
M  V30 1445 C 133.547 -3.53013 -6.26717 0
M  V30 1446 C 135.573 -2.52958 -5.34571 0
M  V30 1447 C 134.935 -3.5304 -6.09543 0
M  V30 1448 H 131.034 0.0476909 -0.780544 0
M  V30 1449 H 133.618 -0.496727 -1.88257 0
M  V30 1450 H 131.789 1.28436 -3.6655 0
M  V30 1451 H 133.521 1.15734 -3.87799 0
M  V30 1452 H 130.276 -0.693577 -4.68494 0
M  V30 1453 H 130.7 -2.88347 -6.12524 0
M  V30 1454 H 135.342 -0.744356 -4.16196 0
M  V30 1455 H 133.06 -4.2992 -6.84247 0
M  V30 1456 H 136.646 -2.55667 -5.22614 0
M  V30 1457 H 135.526 -4.31056 -6.55103 0
M  V30 1458 N 133.029 1.57378 -0.0835403 0
M  V30 1459 C 133.959 2.1641 0.87686 0
M  V30 1460 C 134.94 1.09429 1.30228 0
M  V30 1461 O 136.125 1.37516 1.37124 0
M  V30 1462 C 133.255 2.73517 2.14022 0
M  V30 1463 C 132.209 3.85769 1.85381 0
M  V30 1464 C 131.535 4.29529 3.18448 0
M  V30 1465 C 132.835 5.09486 1.14984 0
M  V30 1466 H 134.529 2.96914 0.385059 0
M  V30 1467 H 132.075 1.42823 0.18377 0
M  V30 1468 H 134.028 3.13463 2.81636 0
M  V30 1469 H 132.752 1.90252 2.65465 0
M  V30 1470 H 131.411 3.46345 1.20169 0
M  V30 1471 H 131.059 3.43169 3.67755 0
M  V30 1472 H 130.759 5.05204 3.00071 0
M  V30 1473 H 132.283 4.72099 3.8724 0
M  V30 1474 H 133.697 5.46674 1.72687 0
M  V30 1475 H 132.094 5.90515 1.06826 0
M  V30 1476 H 133.164 4.84724 0.130749 0
M  V30 1477 N 134.507 -0.190092 1.56449 0
M  V30 1478 C 135.454 -1.23557 1.94942 0
M  V30 1479 C 136.424 -1.44972 0.810696 0
M  V30 1480 O 137.609 -1.58023 1.06927 0
M  V30 1481 C 134.749 -2.57416 2.2985 0
M  V30 1482 C 133.862 -2.43537 3.5681 0
M  V30 1483 C 132.997 -3.70134 3.81017 0
M  V30 1484 C 132.036 -3.51109 5.01387 0
M  V30 1485 N 131.173 -4.6973 5.21822 0
M  V30 1486 H 136.013 -0.900304 2.84075 0
M  V30 1487 H 133.55 -0.43318 1.40577 0
M  V30 1488 H 135.508 -3.35409 2.48106 0
M  V30 1489 H 134.138 -2.88975 1.43852 0
M  V30 1490 H 133.19 -1.56816 3.46573 0
M  V30 1491 H 134.502 -2.25415 4.4496 0
M  V30 1492 H 133.656 -4.56566 3.9954 0
M  V30 1493 H 132.395 -3.91215 2.91207 0
M  V30 1494 H 131.4 -2.63063 4.82782 0
M  V30 1495 H 132.625 -3.31468 5.9271 0
M  V30 1496 H 130.571 -4.91065 4.34961 0
M  V30 1497 H 130.488 -4.54452 6.0416 0
M  V30 1498 H 131.756 -5.57499 5.44808 0
M  V30 1499 N 135.985 -1.50799 -0.457987 0
M  V30 1500 C 136.915 -1.73553 -1.5621 0
M  V30 1501 C 137.896 -0.584774 -1.59732 0
M  V30 1502 O 139.081 -0.825314 -1.7579 0
M  V30 1503 C 136.211 -1.84169 -2.94447 0
M  V30 1504 C 135.165 -2.99461 -3.0579 0
M  V30 1505 C 134.491 -2.95235 -4.45803 0
M  V30 1506 C 135.791 -4.39766 -2.81786 0
M  V30 1507 H 137.485 -2.66 -1.37421 0
M  V30 1508 H 135.031 -1.28002 -0.659662 0
M  V30 1509 H 136.984 -1.98672 -3.71628 0
M  V30 1510 H 135.708 -0.883545 -3.14422 0
M  V30 1511 H 134.367 -2.8463 -2.31044 0
M  V30 1512 H 134.015 -1.97239 -4.62715 0
M  V30 1513 H 133.715 -3.72642 -4.54326 0
M  V30 1514 H 135.239 -3.11803 -5.24987 0
M  V30 1515 H 136.653 -4.55054 -3.4871 0
M  V30 1516 H 135.05 -5.18722 -3.0174 0
M  V30 1517 H 136.12 -4.51229 -1.7754 0
M  V30 1518 N 137.463 0.71206 -1.40597 0
M  V30 1519 C 138.874 1.29135 -1.34837 0
M  V30 1520 C 139.225 1.96186 -0.0235395 0
M  V30 1521 O 138.35 1.97768 0.878444 0
M  V30 1522 C 138.945 2.34827 -2.44217 0
M  V30 1523 C 137.504 2.88371 -2.41907 0
M  V30 1524 C 136.651 1.62202 -2.24913 0
M  V30 1525 H 139.602 0.507944 -1.50352 0
M  V30 1526 H 139.623 3.15749 -2.12327 0
M  V30 1527 H 139.135 1.85996 -3.40627 0
M  V30 1528 H 137.236 3.41422 -1.49204 0
M  V30 1529 H 137.349 3.39925 -3.37621 0
M  V30 1530 H 135.713 1.874 -1.72492 0
M  V30 1531 H 136.496 1.15391 -3.23326 0
M  V30 1532 N 138.941 1.26152 0.944643 0
M  V30 1533 C 140.187 1.11657 1.69294 0
M  V30 1534 C 140.52 -0.339926 1.91202 0
M  V30 1535 O 139.795 -1.24994 1.49019 0
M  V30 1536 C 140.078 1.88236 3.06984 0
M  V30 1537 C 139.931 3.41772 2.92424 0
M  V30 1538 C 141.25 1.67343 4.07043 0
M  V30 1539 H 138.369 0.407004 0.614424 0
M  V30 1540 H 141.011 1.55106 1.09737 0
M  V30 1541 H 139.161 1.51308 3.57824 0
M  V30 1542 H 140.833 3.88433 2.48832 0
M  V30 1543 H 139.076 3.68974 2.28124 0
M  V30 1544 H 139.747 3.90579 3.90067 0
M  V30 1545 H 142.223 1.99509 3.65151 0
M  V30 1546 H 141.099 2.23346 5.01406 0
M  V30 1547 H 141.36 0.617158 4.37771 0
M  V30 1548 N 140.419 -1.14872 1.07899 0
M  V30 1549 C 141.366 -2.19791 0.704319 0
M  V30 1550 C 142.336 -1.63238 -0.306987 0
M  V30 1551 O 143.521 -1.8983 -0.192171 0
M  V30 1552 C 140.661 -3.44911 0.114244 0
M  V30 1553 C 139.774 -4.15637 1.1777 0
M  V30 1554 C 138.909 -5.28324 0.552037 0
M  V30 1555 C 137.948 -5.90875 1.59789 0
M  V30 1556 N 137.085 -6.95022 0.994404 0
M  V30 1557 H 141.925 -2.5119 1.60336 0
M  V30 1558 H 139.462 -1.23356 0.801352 0
M  V30 1559 H 141.42 -4.16477 -0.245544 0
M  V30 1560 H 140.05 -3.14011 -0.74813 0
M  V30 1561 H 139.102 -3.42512 1.65499 0
M  V30 1562 H 140.414 -4.5823 1.97046 0
M  V30 1563 H 139.568 -6.06538 0.1402 0
M  V30 1564 H 138.307 -4.86939 -0.272431 0
M  V30 1565 H 137.312 -5.11369 2.01945 0
M  V30 1566 H 138.537 -6.34337 2.42474 0
M  V30 1567 H 136.483 -6.55722 0.190939 0
M  V30 1568 H 136.4 -7.36073 1.72432 0
M  V30 1569 H 137.668 -7.77123 0.608253 0
M  V30 1570 N 141.898 -0.863906 -1.31812 0
M  V30 1571 C 143.128 -0.485406 -2.00817 0
M  V30 1572 C 143.536 0.925007 -1.65046 0
M  V30 1573 O 142.879 1.61653 -0.872574 0
M  V30 1574 C 142.941 -0.555589 -3.55181 0
M  V30 1575 C 142.605 -1.92654 -4.14407 0
M  V30 1576 C 143.602 -2.89324 -4.31958 0
M  V30 1577 C 141.287 -2.2262 -4.50273 0
M  V30 1578 C 143.281 -4.14108 -4.84555 0
M  V30 1579 C 140.968 -3.47654 -5.02573 0
M  V30 1580 C 141.966 -4.43214 -5.19664 0
M  V30 1581 O 141.654 -5.66033 -5.70843 0
M  V30 1582 H 141.386 -0.188224 -0.649267 0
M  V30 1583 H 143.94 -1.16514 -1.69156 0
M  V30 1584 H 142.17 0.181037 -3.86276 0
M  V30 1585 H 143.859 -0.19138 -4.05449 0
M  V30 1586 H 144.625 -2.6748 -4.04573 0
M  V30 1587 H 140.504 -1.4902 -4.3625 0
M  V30 1588 H 144.048 -4.88703 -4.9781 0
M  V30 1589 H 139.945 -3.69345 -5.29391 0
M  V30 1590 H 140.713 -5.6812 -5.89222 0
M  V30 1591 N 143.376 1.44774 -0.622745 0
M  V30 1592 C 144.787 1.85546 -0.207226 0
M  V30 1593 C 145.138 1.52093 1.23944 0
M  V30 1594 O 144.263 0.95492 1.94191 0
M  V30 1595 C 144.858 3.36781 -0.369313 0
M  V30 1596 C 143.417 3.76399 -0.00836847 0
M  V30 1597 C 142.564 2.68664 -0.686651 0
M  V30 1598 H 145.515 1.3536 -0.828454 0
M  V30 1599 H 145.536 3.78453 0.394162 0
M  V30 1600 H 145.048 3.61098 -1.42231 0
M  V30 1601 H 143.149 3.57698 1.04322 0
M  V30 1602 H 143.262 4.7732 -0.412584 0
M  V30 1603 H 141.626 2.54404 -0.122777 0
M  V30 1604 H 142.409 2.95815 -1.74208 0
M  V30 1605 N 144.854 0.36279 1.53368 0
M  V30 1606 C 146.131 -0.284021 1.93527 0
M  V30 1607 C 146.511 -1.66628 1.29608 0
M  V30 1608 O 145.859 -2.23942 0.45413 0
M  V30 1609 C 146.069 -0.337028 3.47369 0
M  V30 1610 C 147.417 -0.578708 4.20638 0
M  V30 1611 O 148.441 -0.418352 3.53735 0
M  V30 1612 O 147.3 -0.89074 5.39192 0
M  V30 1613 H 144.394 -0.169743 0.809393 0
M  V30 1614 H 146.94 0.41537 1.64538 0
M  V30 1615 H 145.712 0.632217 3.86159 0
M  V30 1616 H 145.335 -1.08243 3.82582 0
M  V30 1617 N 146.332 -1.57332 0.0918853 0
M  V30 1618 C 147.262 -2.16872 -0.865371 0
M  V30 1619 C 148.243 -1.10118 -1.29646 0
M  V30 1620 O 149.428 -1.38242 -1.36392 0
M  V30 1621 C 146.558 -2.74649 -2.12569 0
M  V30 1622 C 145.512 -3.86747 -1.83333 0
M  V30 1623 C 144.838 -4.31212 -3.16166 0
M  V30 1624 C 146.138 -5.10089 -1.1228 0
M  V30 1625 H 147.832 -2.97114 -0.369307 0
M  V30 1626 H 145.378 -1.42918 -0.176194 0
M  V30 1627 H 147.331 -3.14952 -2.7997 0
M  V30 1628 H 146.055 -1.91657 -2.64452 0
M  V30 1629 H 144.714 -3.46978 -1.18331 0
M  V30 1630 H 144.362 -3.45115 -3.6593 0
M  V30 1631 H 144.062 -5.06788 -2.97388 0
M  V30 1632 H 145.586 -4.74146 -3.84731 0
M  V30 1633 H 147 -5.47582 -1.69785 0
M  V30 1634 H 145.397 -5.91073 -1.03693 0
M  V30 1635 H 146.467 -4.84786 -0.105041 0
M  V30 1636 N 147.81 0.181792 -1.56548 0
M  V30 1637 C 149.221 0.745244 -1.71181 0
M  V30 1638 C 149.572 1.83262 -0.70068 0
M  V30 1639 O 148.697 2.15946 0.140154 0
M  V30 1640 C 149.292 1.35859 -3.10367 0
M  V30 1641 C 147.851 1.86898 -3.2672 0
M  V30 1642 C 146.998 0.743942 -2.67134 0
M  V30 1643 H 149.949 -0.0434661 -1.5864 0
M  V30 1644 H 149.97 2.22817 -3.08436 0
M  V30 1645 H 149.482 0.566948 -3.83937 0
M  V30 1646 H 147.583 2.68738 -2.5809 0
M  V30 1647 H 147.696 2.02162 -4.34359 0
M  V30 1648 H 146.06 1.16169 -2.26665 0
M  V30 1649 H 146.843 -0.035676 -3.43281 0
M  V30 1650 N 149.288 1.51039 0.449983 0
M  V30 1651 C 150.704 1.38934 0.785462 0
M  V30 1652 C 150.904 0.461817 1.96136 0
M  V30 1653 O 149.96 -0.0877389 2.52348 0
M  V30 1654 C 151.273 2.80724 1.0777 0
M  V30 1655 C 152.821 2.89787 1.1829 0
M  V30 1656 C 153.296 4.32457 1.50815 0
M  V30 1657 N 154.787 4.35505 1.57764 0
M  V30 1658 C 155.522 5.42914 1.84477 0
M  V30 1659 N 155.018 6.60502 2.09068 0
M  V30 1660 N 156.811 5.3038 1.86155 0
M  V30 1661 H 148.962 2.09904 -0.324647 0
M  V30 1662 H 151.225 0.944378 -0.0827957 0
M  V30 1663 H 150.931 3.50531 0.286498 0
M  V30 1664 H 150.805 3.19273 2.00859 0
M  V30 1665 H 153.192 2.20186 1.96474 0
M  V30 1666 H 153.273 2.54752 0.231314 0
M  V30 1667 H 152.917 5.02603 0.731622 0
M  V30 1668 H 152.847 4.64995 2.47158 0
M  V30 1669 H 155.338 3.50724 1.40715 0
M  V30 1670 H 155.651 7.38158 2.28785 0
M  V30 1671 H 153.996 6.63639 2.06416 0
M  V30 1672 H 157.187 4.37505 1.66454 0
M  V30 1673 H 157.36 6.1417 2.06637 0
M  V30 1674 N 150.766 -0.704594 1.40972 0
M  V30 1675 C 151.714 -1.83994 1.42299 0
M  V30 1676 C 152.708 -1.66684 0.302111 0
M  V30 1677 O 153.914 -1.73655 0.473697 0
M  V30 1678 H 150.289 -0.606171 0.44504 0
M  V30 1679 H 152.26 -1.79992 2.38003 0
M  V30 1680 C 151.009 -3.21946 1.31323 0
M  V30 1681 H 150.332 -3.35878 2.16855 0
M  V30 1682 H 151.772 -4.01491 1.36311 0
M  V30 1683 C 150.231 -3.36891 0.0245977 0
M  V30 1684 O 150.761 -3.90687 -0.934153 0
M  V30 1685 N 148.967 -2.90559 -0.0485243 0
M  V30 1686 H 148.514 -2.46968 0.732419 0
M  V30 1687 H 148.472 -3.00937 -0.910171 0
M  V30 1688 N 152.244 -1.26651 -0.937939 0
M  V30 1689 C 153.207 -1.08546 -2.01867 0
M  V30 1690 C 154.207 -0.0327327 -1.60767 0
M  V30 1691 O 155.397 -0.276427 -1.71993 0
M  V30 1692 C 152.529 -0.651711 -3.34613 0
M  V30 1693 H 153.722 -2.04502 -2.1936 0
M  V30 1694 H 151.275 -1.09294 -1.11734 0
M  V30 1695 H 152.01 0.309696 -3.22818 0
M  V30 1696 H 151.795 -1.41189 -3.65798 0
M  V30 1697 H 153.285 -0.546973 -4.14002 0
M  V30 1698 N 153.722 1.14298 -1.08507 0
M  V30 1699 C 154.654 2.1907 -0.673859 0
M  V30 1700 C 155.667 1.60381 0.279577 0
M  V30 1701 O 156.856 1.78374 0.0670754 0
M  V30 1702 C 153.956 3.38888 0.0290979 0
M  V30 1703 C 153.129 4.27103 -0.943494 0
M  V30 1704 C 152.188 5.25477 -0.275676 0
M  V30 1705 O 151.214 5.61709 -0.920401 0
M  V30 1706 N 152.416 5.7227 0.974013 0
M  V30 1707 H 155.181 2.54965 -1.57521 0
M  V30 1708 H 152.742 1.29528 -0.971287 0
M  V30 1709 H 154.734 4.01761 0.48683 0
M  V30 1710 H 153.304 3.01309 0.832555 0
M  V30 1711 H 152.524 3.61149 -1.58004 0
M  V30 1712 H 153.812 4.82905 -1.60251 0
M  V30 1713 H 153.21 5.44965 1.51755 0
M  V30 1714 H 151.767 6.37127 1.37522 0
M  V30 1715 N 155.201 0.870884 1.31352 0
M  V30 1716 C 156.447 0.482987 1.96965 0
M  V30 1717 C 156.78 -0.962462 1.68672 0
M  V30 1718 O 156.055 -1.6779 0.98371 0
M  V30 1719 C 156.338 0.741752 3.52378 0
M  V30 1720 C 156.191 2.2368 3.9024 0
M  V30 1721 C 157.51 0.208838 4.39604 0
M  V30 1722 H 154.629 0.176955 0.715441 0
M  V30 1723 H 157.271 1.09229 1.55464 0
M  V30 1724 H 155.421 0.223149 3.87859 0
M  V30 1725 H 157.093 2.82273 3.64856 0
M  V30 1726 H 155.336 2.70901 3.38814 0
M  V30 1727 H 156.007 2.3685 4.98604 0
M  V30 1728 H 158.483 0.652529 4.10952 0
M  V30 1729 H 157.359 0.419336 5.47296 0
M  V30 1730 H 157.62 -0.889275 4.33064 0
M  V30 1731 N 156.679 -1.44442 0.630414 0
M  V30 1732 C 157.642 -2.29107 -0.0652523 0
M  V30 1733 C 158.642 -1.41002 -0.772995 0
M  V30 1734 O 159.832 -1.62881 -0.617692 0
M  V30 1735 C 156.964 -3.22564 -1.10296 0
M  V30 1736 H 158.157 -2.92103 0.679401 0
M  V30 1737 H 155.71 -1.51343 0.390517 0
M  V30 1738 H 156.445 -2.64416 -1.87762 0
M  V30 1739 H 156.23 -3.87491 -0.59941 0
M  V30 1740 H 157.72 -3.86167 -1.5895 0
M  V30 1741 N 158.157 -0.370918 -1.53173 0
M  V30 1742 C 159.087 0.464847 -2.28826 0
M  V30 1743 C 160.068 1.07936 -1.31468 0
M  V30 1744 O 161.253 1.0956 -1.60344 0
M  V30 1745 C 158.383 1.60196 -3.08147 0
M  V30 1746 C 157.337 1.11443 -4.13237 0
M  V30 1747 C 156.663 2.3422 -4.80672 0
M  V30 1748 C 157.963 0.195384 -5.21934 0
M  V30 1749 H 159.657 -0.166329 -2.98938 0
M  V30 1750 H 157.203 -0.0814359 -1.4377 0
M  V30 1751 H 159.156 2.19332 -3.59822 0
M  V30 1752 H 157.88 2.26045 -2.35735 0
M  V30 1753 H 156.539 0.545727 -3.62515 0
M  V30 1754 H 156.187 2.98537 -4.04827 0
M  V30 1755 H 155.887 2.02269 -5.51689 0
M  V30 1756 H 157.411 2.94032 -5.35143 0
M  V30 1757 H 158.825 0.694375 -5.69079 0
M  V30 1758 H 157.222 -0.0335027 -6.00091 0
M  V30 1759 H 158.292 -0.760961 -4.78892 0
M  V30 1760 N 159.635 1.57281 -0.100228 0
M  V30 1761 C 160.863 1.98879 0.570509 0
M  V30 1762 C 161.278 0.979476 1.61405 0
M  V30 1763 O 160.635 -0.0302288 1.82475 0
M  V30 1764 C 160.686 3.4052 1.2136 0
M  V30 1765 O 160.407 4.37588 0.211786 0
M  V30 1766 C 161.908 3.97149 1.96945 0
M  V30 1767 H 159.128 0.653428 0.152555 0
M  V30 1768 H 161.672 2.03697 -0.18103 0
M  V30 1769 H 159.827 3.367 1.91603 0
M  V30 1770 H 160.241 5.20118 0.676607 0
M  V30 1771 H 161.715 4.98393 2.37294 0
M  V30 1772 H 162.192 3.3525 2.83733 0
M  V30 1773 H 162.798 4.04458 1.31506 0
M  V30 1774 N 161.113 -0.173488 1.56642 0
M  V30 1775 C 162.362 -0.888758 1.81063 0
M  V30 1776 C 162.675 -1.83506 0.67712 0
M  V30 1777 O 163.881 -2.59254 0.806206 0
M  V30 1778 C 162.337 -1.63091 3.20826 0
M  V30 1779 C 161.945 -0.728357 4.4204 0
M  V30 1780 C 163.689 -2.33454 3.54541 0
M  V30 1781 C 161.596 -1.47062 5.72823 0
M  V30 1782 H 160.526 -0.335618 0.675186 0
M  V30 1783 H 163.177 -0.141712 1.82952 0
M  V30 1784 H 161.559 -2.42263 3.13248 0
M  V30 1785 H 162.733 0.0262449 4.60793 0
M  V30 1786 H 161.048 -0.134492 4.16183 0
M  V30 1787 H 163.645 -2.89578 4.49498 0
M  V30 1788 H 163.988 -3.08687 2.79317 0
M  V30 1789 H 164.521 -1.61227 3.63663 0
M  V30 1790 H 161.26 -0.760658 6.51072 0
M  V30 1791 H 160.78 -2.1986 5.58052 0
M  V30 1792 H 162.459 -2.01868 6.14702 0
M  V30 1793 N 162.591 -1.51276 -0.441967 0
M  V30 1794 C 163.837 -1.6492 -1.1905 0
M  V30 1795 C 164.192 -0.358731 -1.89026 0
M  V30 1796 O 163.485 0.645193 -1.8041 0
M  V30 1797 C 163.679 -2.78746 -2.23686 0
M  V30 1798 C 163.508 -4.18737 -1.63979 0
M  V30 1799 C 162.278 -4.84739 -1.42674 0
M  V30 1800 C 164.476 -5.01988 -1.11858 0
M  V30 1801 N 162.458 -6.08858 -0.785159 0
M  V30 1802 C 163.829 -6.17071 -0.601989 0
M  V30 1803 C 165.884 -4.87551 -1.0099 0
M  V30 1804 C 164.587 -7.19299 0.0126012 0
M  V30 1805 C 166.613 -5.89983 -0.409206 0
M  V30 1806 C 165.975 -7.04333 0.0968651 0
M  V30 1807 H 162.074 -0.657416 -0.423471 0
M  V30 1808 H 164.658 -1.8849 -0.48782 0
M  V30 1809 H 162.829 -2.56848 -2.91348 0
M  V30 1810 H 164.561 -2.81595 -2.90666 0
M  V30 1811 H 161.316 -4.42528 -1.68719 0
M  V30 1812 H 161.74 -6.75282 -0.481942 0
M  V30 1813 H 166.382 -3.99401 -1.38703 0
M  V30 1814 H 164.1 -8.071 0.401879 0
M  V30 1815 H 167.686 -5.8088 -0.327079 0
M  V30 1816 H 166.566 -7.82238 0.554373 0
M  V30 1817 N 164.069 0.697108 -1.41344 0
M  V30 1818 C 165.346 1.45154 -1.31109 0
M  V30 1819 C 165.726 2.11009 0.0620449 0
M  V30 1820 O 165.074 2.01571 1.07618 0
M  V30 1821 C 165.284 2.47223 -2.46337 0
M  V30 1822 C 166.632 3.1252 -2.87431 0
M  V30 1823 O 167.656 2.57547 -2.46065 0
M  V30 1824 O 166.515 4.12083 -3.58957 0
M  V30 1825 H 163.609 0.646365 -0.515889 0
M  V30 1826 H 166.155 0.727716 -1.53305 0
M  V30 1827 H 164.927 1.97204 -3.37974 0
M  V30 1828 H 164.55 3.27116 -2.2601 0
M  V30 1829 N 165.547 1.27147 0.931209 0
M  V30 1830 C 166.793 1.13446 1.68101 0
M  V30 1831 C 167.126 -0.319628 1.91552 0
M  V30 1832 O 166.401 -1.23407 1.50336 0
M  V30 1833 C 166.684 1.91482 3.0497 0
M  V30 1834 C 166.537 3.44855 2.88782 0
M  V30 1835 C 167.856 1.71651 4.05246 0
M  V30 1836 H 164.975 0.413498 0.610072 0
M  V30 1837 H 167.617 1.56261 1.08086 0
M  V30 1838 H 165.767 1.55095 3.56199 0
M  V30 1839 H 167.439 3.9105 2.44698 0
M  V30 1840 H 165.682 3.71373 2.24198 0
M  V30 1841 H 166.353 3.94694 3.85902 0
M  V30 1842 H 168.829 2.0337 3.63015 0
M  V30 1843 H 167.705 2.28651 4.99009 0
M  V30 1844 H 167.966 0.663555 4.37092 0
M  V30 1845 N 167.025 -1.13721 1.09112 0
M  V30 1846 C 168.255 -1.88499 0.845671 0
M  V30 1847 C 168.663 -1.79218 -0.606432 0
M  V30 1848 O 168.006 -1.1544 -1.42896 0
M  V30 1849 C 168.068 -3.38954 1.19793 0
M  V30 1850 C 167.732 -3.72018 2.65428 0
M  V30 1851 C 168.729 -3.7153 3.63677 0
M  V30 1852 C 166.414 -4.01775 3.01467 0
M  V30 1853 C 168.408 -4.00336 4.95994 0
M  V30 1854 C 166.095 -4.30243 4.33975 0
M  V30 1855 C 167.093 -4.29508 5.31048 0
M  V30 1856 O 166.781 -4.5728 6.61173 0
M  V30 1857 H 166.513 -0.603702 0.304171 0
M  V30 1858 H 169.067 -1.44903 1.45576 0
M  V30 1859 H 167.297 -3.83039 0.530871 0
M  V30 1860 H 168.986 -3.95052 0.932146 0
M  V30 1861 H 169.752 -3.4862 3.37179 0
M  V30 1862 H 165.631 -4.01496 2.26544 0
M  V30 1863 H 169.175 -3.99678 5.71755 0
M  V30 1864 H 165.072 -4.52625 4.60219 0
M  V30 1865 H 165.84 -4.74964 6.66597 0
M  V30 1866 N 168.503 -0.877838 -1.30888 0
M  V30 1867 C 169.751 -0.491723 -1.96027 0
M  V30 1868 C 170.072 0.960827 -1.69685 0
M  V30 1869 O 169.342 1.67462 -1.01654 0
M  V30 1870 H 167.922 -0.17885 -0.725273 0
M  V30 1871 H 170.584 -1.11935 -1.59551 0
M  V30 1872 H 169.68 -0.656016 -3.05128 0
M  V30 1873 N 169.982 1.44106 -0.638065 0
M  V30 1874 C 171.393 1.85316 -0.226894 0
M  V30 1875 C 171.744 1.53399 1.22324 0
M  V30 1876 O 170.869 0.975463 1.93167 0
M  V30 1877 C 171.464 3.3637 -0.405013 0
M  V30 1878 C 170.023 3.76369 -0.0482902 0
M  V30 1879 C 169.17 2.67921 -0.715108 0
M  V30 1880 H 172.121 1.34474 -0.842764 0
M  V30 1881 H 172.142 3.7885 0.354 0
M  V30 1882 H 171.654 3.59569 -1.46053 0
M  V30 1883 H 169.755 3.58784 1.00522 0
M  V30 1884 H 169.868 4.76856 -0.463187 0
M  V30 1885 H 168.232 2.54259 -0.149753 0
M  V30 1886 H 169.015 2.93951 -1.77335 0
M  V30 1887 N 171.46 0.379036 1.52974 0
M  V30 1888 C 172.708 -0.206014 2.01047 0
M  V30 1889 C 173.029 -1.48175 1.26765 0
M  V30 1890 O 172.299 -1.92085 0.384743 0
M  V30 1891 H 170.879 -0.0791184 0.742798 0
M  V30 1892 H 173.541 0.508366 1.88153 0
M  V30 1893 H 172.637 -0.423501 3.09213 0
M  V30 1894 N 172.938 -1.57226 0.108567 0
M  V30 1895 C 173.885 -2.14756 -0.845481 0
M  V30 1896 C 174.855 -1.06971 -1.27068 0
M  V30 1897 O 176.04 -1.34827 -1.35005 0
M  V30 1898 C 173.18 -2.74298 -2.09415 0
M  V30 1899 C 172.293 -3.96358 -1.71826 0
M  V30 1900 C 171.428 -4.44021 -2.9158 0
M  V30 1901 C 170.467 -5.58637 -2.50181 0
M  V30 1902 N 169.604 -6.01091 -3.62814 0
M  V30 1903 H 174.444 -2.95961 -0.348035 0
M  V30 1904 H 171.981 -1.46226 -0.160106 0
M  V30 1905 H 173.939 -3.06945 -2.82561 0
M  V30 1906 H 172.569 -1.95801 -2.56636 0
M  V30 1907 H 171.621 -3.69939 -0.885947 0
M  V30 1908 H 172.933 -4.79504 -1.37394 0
M  V30 1909 H 172.087 -4.78522 -3.72963 0
M  V30 1910 H 170.826 -3.59803 -3.29231 0
M  V30 1911 H 169.831 -5.23751 -1.67228 0
M  V30 1912 H 171.056 -6.44613 -2.13659 0
M  V30 1913 H 169.002 -5.19817 -4.00158 0
M  V30 1914 H 168.919 -6.79066 -3.32273 0
M  V30 1915 H 170.187 -6.40227 -4.44668 0
M  V30 1916 N 174.416 0.165178 -1.56732 0
M  V30 1917 C 175.379 1.18822 -1.95995 0
M  V30 1918 C 176.379 1.3685 -0.84431 0
M  V30 1919 O 177.569 1.34152 -1.11126 0
M  V30 1920 C 174.701 2.5521 -2.26011 0
M  V30 1921 H 175.894 0.851825 -2.87548 0
M  V30 1922 H 173.447 0.407857 -1.50885 0
M  V30 1923 H 174.182 2.93852 -1.37191 0
M  V30 1924 H 173.967 2.43489 -3.07336 0
M  V30 1925 H 175.457 3.28927 -2.57288 0
M  V30 1926 N 175.894 1.51508 0.433938 0
M  V30 1927 C 177.14 1.64588 1.18484 0
M  V30 1928 C 177.473 0.362666 1.90784 0
M  V30 1929 O 176.748 -0.637892 1.83742 0
M  V30 1930 C 177.031 2.85149 2.19913 0
M  V30 1931 C 176.884 4.23456 1.51674 0
M  V30 1932 C 178.203 3.01227 3.20858 0
M  V30 1933 H 175.322 0.598994 0.429389 0
M  V30 1934 H 177.964 1.84002 0.473647 0
M  V30 1935 H 176.114 2.68729 2.80566 0
M  V30 1936 H 177.786 4.51552 0.943322 0
M  V30 1937 H 176.029 4.25998 0.819035 0
M  V30 1938 H 176.7 5.03812 2.2556 0
M  V30 1939 H 179.176 3.16382 2.70263 0
M  V30 1940 H 178.052 3.87141 3.89118 0
M  V30 1941 H 178.313 2.13447 3.8716 0
M  V30 1942 N 177.372 -0.689602 1.41712 0
M  V30 1943 C 178.783 -1.26973 1.36875 0
M  V30 1944 C 179.134 -1.96124 0.054748 0
M  V30 1945 O 178.259 -1.99141 -0.84687 0
M  V30 1946 C 178.854 -2.30912 2.47922 0
M  V30 1947 C 177.413 -2.84486 2.46464 0
M  V30 1948 C 176.56 -1.58603 2.27465 0
M  V30 1949 H 179.511 -0.48396 1.51141 0
M  V30 1950 H 179.532 -3.12331 2.17323 0
M  V30 1951 H 179.044 -1.80554 3.43543 0
M  V30 1952 H 177.145 -3.39005 1.54617 0
M  V30 1953 H 177.258 -3.34511 3.42986 0
M  V30 1954 H 175.622 -1.84632 1.75451 0
M  V30 1955 H 176.405 -1.10233 3.25121 0
M  V30 1956 N 178.85 -1.27639 -0.924453 0
M  V30 1957 C 180.096 -1.14336 -1.67497 0
M  V30 1958 C 180.429 0.309465 -1.91718 0
M  V30 1959 O 179.704 1.22608 -1.50989 0
M  V30 1960 C 179.987 -1.93096 -3.0395 0
M  V30 1961 C 179.84 -3.46381 -2.8695 0
M  V30 1962 C 181.159 -1.73798 -4.0433 0
M  V30 1963 H 178.278 -0.416728 -0.607871 0
M  V30 1964 H 180.92 -1.56832 -1.07256 0
M  V30 1965 H 179.07 -1.56982 -3.55372 0
M  V30 1966 H 180.742 -3.92343 -2.42621 0
M  V30 1967 H 178.985 -3.72557 -2.22225 0
M  V30 1968 H 179.656 -3.96735 -3.83804 0
M  V30 1969 H 182.132 -2.05293 -3.61931 0
M  V30 1970 H 181.008 -2.31294 -4.97789 0
M  V30 1971 H 181.269 -0.686725 -4.36734 0
M  V30 1972 N 180.328 1.1314 -1.09713 0
M  V30 1973 C 181.576 1.84119 -0.833338 0
M  V30 1974 C 181.897 1.84097 0.642904 0
M  V30 1975 O 181.167 1.29881 1.46655 0
M  V30 1976 H 179.747 0.681766 -0.305293 0
M  V30 1977 H 182.409 1.37038 -1.38588 0
M  V30 1978 H 181.505 2.88543 -1.18951 0
M  V30 1979 N 181.806 0.884767 1.30421 0
M  V30 1980 C 183.054 0.502112 1.95763 0
M  V30 1981 C 183.375 -0.951815 1.70192 0
M  V30 1982 O 182.645 -1.6692 1.0254 0
M  V30 1983 H 181.225 0.182694 0.724315 0
M  V30 1984 H 183.887 1.1278 1.58955 0
M  V30 1985 H 182.983 0.672188 3.04775 0
M  V30 1986 N 183.284 -1.43765 0.645699 0
M  V30 1987 C 184.512 -2.06253 0.163556 0
M  V30 1988 C 184.927 -1.48352 -1.16778 0
M  V30 1989 O 184.284 -0.611932 -1.71935 0
M  V30 1990 C 184.335 -3.61453 0.0583186 0
M  V30 1991 O 184.056 -4.172 1.33702 0
M  V30 1992 C 185.557 -4.41002 -0.450795 0
M  V30 1993 H 182.777 -0.665413 0.0864077 0
M  V30 1994 H 185.321 -1.84396 0.884222 0
M  V30 1995 H 183.476 -3.82522 -0.612865 0
M  V30 1996 H 183.89 -5.10791 1.19131 0
M  V30 1997 H 185.364 -5.49966 -0.473403 0
M  V30 1998 H 185.841 -4.13488 -1.48068 0
M  V30 1999 H 186.447 -4.24886 0.187637 0
M  V30 2000 N 184.763 -0.387143 -1.52771 0
M  V30 2001 C 185.991 0.195869 -2.05971 0
M  V30 2002 C 186.406 1.40691 -1.25903 0
M  V30 2003 O 185.763 1.79931 -0.305134 0
M  V30 2004 C 185.814 0.56812 -3.57008 0
M  V30 2005 O 185.535 -0.594803 -4.34043 0
M  V30 2006 C 187.036 1.20723 -4.26545 0
M  V30 2007 H 184.256 0.0300578 -0.670326 0
M  V30 2008 H 186.8 -0.551749 -1.96916 0
M  V30 2009 H 184.955 1.26564 -3.66143 0
M  V30 2010 H 185.369 -0.289322 -5.23701 0
M  V30 2011 H 186.843 1.41807 -5.33474 0
M  V30 2012 H 187.32 2.17395 -3.81623 0
M  V30 2013 H 187.926 0.550535 -4.21722 0
M  V30 2014 N 186.241 1.57166 -0.116904 0
M  V30 2015 C 187.487 1.95412 0.542405 0
M  V30 2016 C 187.82 1.00019 1.66463 0
M  V30 2017 O 187.095 0.0370346 1.94465 0
M  V30 2018 C 187.378 3.43615 1.07708 0
M  V30 2019 C 187.231 4.49781 -0.0415868 0
M  V30 2020 C 188.55 3.93616 1.96861 0
M  V30 2021 H 185.669 0.710543 0.195696 0
M  V30 2022 H 188.311 1.89027 -0.192038 0
M  V30 2023 H 186.461 3.49187 1.70296 0
M  V30 2024 H 188.133 4.56308 -0.676793 0
M  V30 2025 H 186.376 4.28033 -0.705019 0
M  V30 2026 H 187.047 5.50733 0.373717 0
M  V30 2027 H 189.523 3.90335 1.44146 0
M  V30 2028 H 188.399 4.97838 2.3119 0
M  V30 2029 H 188.66 3.34188 2.89432 0
M  V30 2030 N 187.719 -0.156864 1.56817 0
M  V30 2031 C 188.944 -0.890331 1.87318 0
M  V30 2032 C 189.369 -1.74394 0.704855 0
M  V30 2033 O 188.727 -1.77972 -0.345786 0
M  V30 2034 C 188.775 -1.73102 3.16336 0
M  V30 2035 O 187.879 -2.83422 2.99576 0
M  V30 2036 H 187.22 -0.24857 0.615718 0
M  V30 2037 H 189.75 -0.150649 2.04045 0
M  V30 2038 H 189.76 -2.12803 3.48107 0
M  V30 2039 H 188.435 -1.10412 4.00976 0
M  V30 2040 H 187.012 -2.47199 2.7919 0
M  V30 2041 N 189.197 -1.51736 -0.425897 0
M  V30 2042 C 190.127 -1.76827 -1.52494 0
M  V30 2043 C 191.108 -0.618524 -1.58456 0
M  V30 2044 O 192.293 -0.862416 -1.74 0
M  V30 2045 C 189.423 -1.90374 -2.90474 0
M  V30 2046 C 188.377 -3.0588 -2.99369 0
M  V30 2047 C 187.703 -3.04625 -4.3944 0
M  V30 2048 C 189.003 -4.45644 -2.72394 0
M  V30 2049 H 190.697 -2.68855 -1.31748 0
M  V30 2050 H 188.243 -1.29372 -0.632362 0
M  V30 2051 H 190.196 -2.0651 -3.6733 0
M  V30 2052 H 188.92 -0.95004 -3.12477 0
M  V30 2053 H 187.579 -2.89467 -2.24954 0
M  V30 2054 H 187.227 -2.0701 -4.58428 0
M  V30 2055 H 186.927 -3.82195 -4.46319 0
M  V30 2056 H 188.451 -3.22869 -5.18255 0
M  V30 2057 H 189.865 -4.62348 -3.38979 0
M  V30 2058 H 188.262 -5.25006 -2.9067 0
M  V30 2059 H 189.332 -4.54893 -1.67929 0
M  V30 2060 N 190.675 0.682077 -1.42076 0
M  V30 2061 C 191.922 1.44215 -1.42156 0
M  V30 2062 C 192.25 1.94468 -0.0354186 0
M  V30 2063 O 191.505 1.70816 0.955002 0
M  V30 2064 C 191.804 2.66036 -2.38662 0
M  V30 2065 C 191.47 2.34366 -3.85206 0
M  V30 2066 C 190.132 2.25439 -4.25124 0
M  V30 2067 C 192.484 2.08513 -4.77673 0
M  V30 2068 C 189.812 1.88775 -5.55501 0
M  V30 2069 C 192.164 1.73354 -6.08384 0
M  V30 2070 C 190.828 1.62933 -6.47309 0
M  V30 2071 H 190.098 0.527718 -0.520187 0
M  V30 2072 H 192.745 0.778387 -1.74967 0
M  V30 2073 H 191.05 3.3741 -1.99152 0
M  V30 2074 H 192.747 3.24205 -2.35991 0
M  V30 2075 H 189.337 2.42213 -3.53597 0
M  V30 2076 H 193.521 2.14346 -4.47626 0
M  V30 2077 H 188.777 1.7927 -5.84527 0
M  V30 2078 H 192.951 1.52373 -6.79526 0
M  V30 2079 H 190.578 1.34292 -7.48244 0
M  V30 2080 N 192.153 1.28127 0.917671 0
M  V30 2081 C 193.401 1.14825 1.66312 0
M  V30 2082 C 193.722 -0.304379 1.9261 0
M  V30 2083 O 192.992 -1.21149 1.53947 0
M  V30 2084 H 191.572 0.421953 0.616413 0
M  V30 2085 H 194.234 1.608 1.10134 0
M  V30 2086 H 193.33 1.68489 2.62712 0
M  V30 2087 N 193.631 -1.12557 1.10312 0
M  V30 2088 C 194.578 -2.18247 0.750781 0
M  V30 2089 C 195.548 -1.63853 -0.272293 0
M  V30 2090 O 196.733 -1.90195 -0.151862 0
M  V30 2091 C 193.873 -3.44591 0.187379 0
M  V30 2092 C 192.986 -4.13046 1.2656 0
M  V30 2093 C 192.121 -5.27034 0.663978 0
M  V30 2094 C 191.16 -5.87353 1.72287 0
M  V30 2095 N 190.297 -6.92757 1.1416 0
M  V30 2096 H 195.137 -2.47732 1.65628 0
M  V30 2097 H 192.674 -1.21629 0.827337 0
M  V30 2098 H 194.632 -4.16904 -0.157148 0
M  V30 2099 H 193.262 -3.15527 -0.681355 0
M  V30 2100 H 192.314 -3.38924 1.72727 0
M  V30 2101 H 193.626 -4.53947 2.06721 0
M  V30 2102 H 192.78 -6.06104 0.268824 0
M  V30 2103 H 191.519 -4.87407 -0.169082 0
M  V30 2104 H 190.524 -5.06971 2.12746 0
M  V30 2105 H 191.749 -6.29051 2.55875 0
M  V30 2106 H 189.695 -6.5517 0.329984 0
M  V30 2107 H 189.612 -7.3225 1.88007 0
M  V30 2108 H 190.88 -7.75658 0.772956 0
M  V30 2109 N 195.109 -0.891671 -1.2995 0
M  V30 2110 C 196.339 -0.527893 -1.99742 0
M  V30 2111 C 196.747 0.88979 -1.66971 0
M  V30 2112 O 196.09 1.59766 -0.906667 0
M  V30 2113 C 196.152 -0.630804 -3.53922 0
M  V30 2114 C 195.816 -2.01401 -4.10228 0
M  V30 2115 C 196.813 -2.98422 -4.25724 0
M  V30 2116 C 194.498 -2.32121 -4.45449 0
M  V30 2117 C 196.492 -4.24293 -4.75662 0
M  V30 2118 C 194.179 -3.58237 -4.95086 0
M  V30 2119 C 195.177 -4.54137 -5.10146 0
M  V30 2120 O 194.865 -5.78014 -5.58708 0
M  V30 2121 H 194.597 -0.201953 -0.645129 0
M  V30 2122 H 197.151 -1.20076 -1.66646 0
M  V30 2123 H 195.381 0.0990616 -3.86573 0
M  V30 2124 H 197.07 -0.277338 -4.04951 0
M  V30 2125 H 197.836 -2.76001 -3.98809 0
M  V30 2126 H 193.715 -1.5824 -4.32991 0
M  V30 2127 H 197.259 -4.99153 -4.87332 0
M  V30 2128 H 193.156 -3.80491 -5.21437 0
M  V30 2129 H 193.924 -5.8049 -5.77039 0
M  V30 2130 N 196.587 1.43421 -0.653314 0
M  V30 2131 C 197.835 2.01414 -0.166415 0
M  V30 2132 C 198.156 1.51803 1.22397 0
M  V30 2133 O 197.426 0.730693 1.81763 0
M  V30 2134 H 196.006 0.744703 -0.0585319 0
M  V30 2135 H 198.668 1.75629 -0.845003 0
M  V30 2136 H 197.764 3.11734 -0.151111 0
M  V30 2137 N 198.065 0.39524 1.52563 0
M  V30 2138 C 198.998 -0.4813 2.23067 0
M  V30 2139 C 199.976 -1.05927 1.23362 0
M  V30 2140 O 201.16 -1.10979 1.52368 0
M  V30 2141 C 198.287 -1.66676 2.9485 0
M  V30 2142 C 197.333 -1.21348 4.08873 0
M  V30 2143 S 198.166 -0.190102 5.35162 0
M  V30 2144 C 199.322 -1.38121 6.1047 0
M  V30 2145 H 199.555 0.117381 2.97068 0
M  V30 2146 H 197.088 0.179458 1.53354 0
M  V30 2147 H 199.046 -2.3466 3.36816 0
M  V30 2148 H 197.707 -2.23676 2.20518 0
M  V30 2149 H 196.9 -2.09877 4.58222 0
M  V30 2150 H 196.502 -0.612486 3.68951 0
M  V30 2151 H 198.794 -2.30726 6.37002 0
M  V30 2152 H 199.737 -0.928521 7.01986 0
M  V30 2153 H 200.145 -1.60071 5.41329 0
M  V30 2154 N 199.544 -1.57102 0.125237 0
M  V30 2155 C 200.791 -1.95407 -0.531248 0
M  V30 2156 C 201.119 -1.0089 -1.66287 0
M  V30 2157 O 200.374 -0.0339431 -1.95671 0
M  V30 2158 C 200.673 -3.40096 -1.09862 0
M  V30 2159 C 200.339 -4.50815 -0.0876989 0
M  V30 2160 C 199.001 -4.80824 0.19026 0
M  V30 2161 C 201.353 -5.17724 0.600902 0
M  V30 2162 C 198.681 -5.75058 1.163 0
M  V30 2163 C 201.033 -6.13005 1.56231 0
M  V30 2164 C 199.697 -6.41403 1.8482 0
M  V30 2165 H 198.967 -0.715046 -0.194397 0
M  V30 2166 H 201.614 -1.90373 0.207463 0
M  V30 2167 H 199.919 -3.41855 -1.91422 0
M  V30 2168 H 201.616 -3.6705 -1.61478 0
M  V30 2169 H 198.206 -4.27444 -0.314528 0
M  V30 2170 H 202.39 -4.94691 0.399333 0
M  V30 2171 H 197.646 -5.95362 1.39117 0
M  V30 2172 H 201.82 -6.63934 2.10153 0
M  V30 2173 H 199.447 -7.14229 2.60349 0
M  V30 2174 N 201.022 0.148545 -1.56898 0
M  V30 2175 C 202.438 0.501131 -1.51528 0
M  V30 2176 C 202.638 1.83458 -0.833399 0
M  V30 2177 O 201.694 2.49259 -0.40328 0
M  V30 2178 C 203.007 0.512864 -2.96294 0
M  V30 2179 C 204.555 0.598487 -3.07225 0
M  V30 2180 C 205.03 0.640897 -4.53494 0
M  V30 2181 N 206.521 0.703163 -4.57832 0
M  V30 2182 C 207.256 0.756935 -5.68382 0
M  V30 2183 N 206.752 0.770147 -6.88506 0
M  V30 2184 N 208.545 0.797698 -5.56411 0
M  V30 2185 H 200.696 -0.725532 -1.99624 0
M  V30 2186 H 202.959 -0.264358 -0.910395 0
M  V30 2187 H 202.665 -0.398691 -3.49433 0
M  V30 2188 H 202.539 1.35133 -3.52163 0
M  V30 2189 H 204.926 1.50046 -2.54106 0
M  V30 2190 H 205.007 -0.267093 -2.54402 0
M  V30 2191 H 204.651 -0.256915 -5.0725 0
M  V30 2192 H 204.581 1.52295 -5.04097 0
M  V30 2193 H 207.072 0.700314 -3.71354 0
M  V30 2194 H 207.385 0.812983 -7.68512 0
M  V30 2195 H 205.73 0.738049 -6.9107 0
M  V30 2196 H 208.921 0.784535 -4.61479 0
M  V30 2197 H 209.094 0.83614 -6.42583 0
M  V30 2198 N 202.5 1.5196 0.417844 0
M  V30 2199 C 203.432 1.70895 1.52733 0
M  V30 2200 C 204.445 0.589405 1.51756 0
M  V30 2201 O 205.634 0.864312 1.56179 0
M  V30 2202 C 202.734 1.72627 2.91639 0
M  V30 2203 C 201.907 3.01479 3.16905 0
M  V30 2204 C 200.966 2.95139 4.35637 0
M  V30 2205 O 199.992 3.69059 4.3334 0
M  V30 2206 N 201.194 2.12328 5.40275 0
M  V30 2207 H 203.959 2.66612 1.36888 0
M  V30 2208 H 201.52 1.50089 0.607037 0
M  V30 2209 H 203.512 1.65928 3.6912 0
M  V30 2210 H 202.082 0.844216 3.00985 0
M  V30 2211 H 201.302 3.21895 2.27546 0
M  V30 2212 H 202.59 3.86736 3.30625 0
M  V30 2213 H 201.988 1.51685 5.44985 0
M  V30 2214 H 200.545 2.11494 6.16534 0
M  V30 2215 N 203.978 -0.674533 1.42435 0
M  V30 2216 C 205.226 -1.43175 1.42637 0
M  V30 2217 C 205.547 -1.94951 0.0438992 0
M  V30 2218 O 204.817 -1.7308 -0.917607 0
M  V30 2219 H 203.397 -0.531307 0.525092 0
M  V30 2220 H 206.059 -0.797006 1.77859 0
M  V30 2221 H 205.155 -2.28463 2.12629 0
M  V30 2222 N 205.456 -1.28612 -0.910864 0
M  V30 2223 C 206.389 -1.07109 -2.01502 0
M  V30 2224 C 207.367 0.013706 -1.62594 0
M  V30 2225 O 208.551 -0.134796 -1.88017 0
M  V30 2226 C 205.678 -0.628255 -3.32822 0
M  V30 2227 C 204.724 -1.71012 -3.90714 0
M  V30 2228 S 205.557 -3.30676 -4.21205 0
M  V30 2229 C 206.713 -2.88234 -5.55583 0
M  V30 2230 H 206.946 -2.00591 -2.19432 0
M  V30 2231 H 204.479 -1.12633 -1.05609 0
M  V30 2232 H 206.437 -0.37946 -4.08742 0
M  V30 2233 H 205.098 0.28678 -3.12788 0
M  V30 2234 H 204.291 -1.35195 -4.85529 0
M  V30 2235 H 203.893 -1.91186 -3.21441 0
M  V30 2236 H 206.185 -2.34584 -6.35591 0
M  V30 2237 H 207.128 -3.81857 -5.96314 0
M  V30 2238 H 207.536 -2.26862 -5.16908 0
M  V30 2239 N 206.934 1.1197 -1.10907 0
M  V30 2240 C 207.884 2.15946 -0.731538 0
M  V30 2241 C 208.868 1.58758 0.261699 0
M  V30 2242 O 210.06 1.76863 0.0696722 0
M  V30 2243 C 207.189 3.42877 -0.170299 0
M  V30 2244 C 206.275 4.07037 -1.19087 0
M  V30 2245 N 206.666 4.46135 -2.38322 0
M  V30 2246 C 204.964 4.33884 -1.03252 0
M  V30 2247 C 205.665 4.96331 -3.03366 0
M  V30 2248 N 204.641 4.9214 -2.30865 0
M  V30 2249 H 208.443 2.43947 -1.63912 0
M  V30 2250 H 205.957 1.28927 -0.987505 0
M  V30 2251 H 207.954 4.16732 0.118271 0
M  V30 2252 H 206.614 3.16343 0.731935 0
M  V30 2253 H 207.625 4.38345 -2.75815 0
M  V30 2254 H 204.302 4.17084 -0.186256 0
M  V30 2255 H 205.692 5.36257 -4.04818 0
M  V30 2256 N 208.412 0.89855 1.29475 0
M  V30 2257 C 209.689 0.443416 1.90508 0
M  V30 2258 C 210.069 -1.07685 1.81569 0
M  V30 2259 O 209.417 -1.9182 1.24166 0
M  V30 2260 C 209.627 0.956708 3.35631 0
M  V30 2261 C 210.975 0.999728 4.12663 0
M  V30 2262 O 211.999 0.904299 3.4453 0
M  V30 2263 O 210.858 1.14289 5.34416 0
M  V30 2264 H 207.952 0.138025 0.815401 0
M  V30 2265 H 210.498 0.98834 1.37949 0
M  V30 2266 H 209.27 2.00067 3.36287 0
M  V30 2267 H 208.893 0.391728 3.95666 0
M  V30 2268 N 209.89 -1.43072 0.660911 0
M  V30 2269 C 210.82 -2.33497 -0.0122829 0
M  V30 2270 C 211.801 -1.49903 -0.803925 0
M  V30 2271 O 212.986 -1.78546 -0.763864 0
M  V30 2272 C 210.116 -3.33363 -0.973994 0
M  V30 2273 C 209.07 -4.27003 -0.291928 0
M  V30 2274 C 208.396 -5.16967 -1.36562 0
M  V30 2275 C 209.696 -5.15816 0.820462 0
M  V30 2276 H 211.39 -2.90038 0.742873 0
M  V30 2277 H 208.936 -1.39461 0.358688 0
M  V30 2278 H 210.889 -3.95524 -1.45392 0
M  V30 2279 H 209.613 -2.75095 -1.7604 0
M  V30 2280 H 208.272 -3.66217 0.167623 0
M  V30 2281 H 207.92 -4.55034 -2.14366 0
M  V30 2282 H 207.62 -5.80441 -0.914454 0
M  V30 2283 H 209.144 -5.82003 -1.84675 0
M  V30 2284 H 210.558 -5.71742 0.422366 0
M  V30 2285 H 208.955 -5.8805 1.19656 0
M  V30 2286 H 210.025 -4.55045 1.67518 0
M  V30 2287 N 211.368 -0.403325 -1.52352 0
M  V30 2288 C 212.315 0.425011 -2.26853 0
M  V30 2289 C 213.285 1.04598 -1.29029 0
M  V30 2290 O 214.47 1.07135 -1.57882 0
M  V30 2291 C 211.61 1.53888 -3.08889 0
M  V30 2292 C 210.723 0.939396 -4.21663 0
M  V30 2293 C 209.858 2.02547 -4.91068 0
M  V30 2294 C 208.897 1.40263 -5.95813 0
M  V30 2295 N 208.034 2.4286 -6.58759 0
M  V30 2296 H 212.874 -0.21674 -2.97211 0
M  V30 2297 H 210.411 -0.118722 -1.4662 0
M  V30 2298 H 212.369 2.19558 -3.54753 0
M  V30 2299 H 210.999 2.15074 -2.40714 0
M  V30 2300 H 210.051 0.171898 -3.80011 0
M  V30 2301 H 211.363 0.44436 -4.96817 0
M  V30 2302 H 210.517 2.75958 -5.40308 0
M  V30 2303 H 209.256 2.55415 -4.15469 0
M  V30 2304 H 208.261 0.653833 -5.45898 0
M  V30 2305 H 209.486 0.881719 -6.73352 0
M  V30 2306 H 207.432 2.94871 -5.85992 0
M  V30 2307 H 207.349 1.98152 -7.2957 0
M  V30 2308 H 208.617 3.15858 -7.12639 0
M  V30 2309 N 212.846 1.57033 -0.133567 0
M  V30 2310 C 214.092 1.95976 0.521649 0
M  V30 2311 C 214.425 1.01779 1.65393 0
M  V30 2312 O 213.7 0.0576581 1.94415 0
M  V30 2313 C 213.983 3.44738 1.04057 0
M  V30 2314 C 213.836 4.49711 -0.0892897 0
M  V30 2315 C 215.155 3.95682 1.92675 0
M  V30 2316 H 212.274 0.712579 0.188149 0
M  V30 2317 H 214.916 1.88813 -0.212076 0
M  V30 2318 H 213.066 3.50973 1.66583 0
M  V30 2319 H 214.738 4.55565 -0.725152 0
M  V30 2320 H 212.981 4.27261 -0.750378 0
M  V30 2321 H 213.652 5.51099 0.315284 0
M  V30 2322 H 216.128 3.91841 1.39998 0
M  V30 2323 H 215.004 5.00262 2.25897 0
M  V30 2324 H 215.265 3.37239 2.85872 0
M  V30 2325 N 214.325 -0.140222 1.56975 0
M  V30 2326 C 215.571 -0.848084 1.84876 0
M  V30 2327 C 215.926 -1.78481 0.718481 0
M  V30 2328 O 215.219 -1.89497 -0.283093 0
M  V30 2329 C 215.413 -1.65386 3.16832 0
M  V30 2330 C 215.242 -0.79665 4.42587 0
M  V30 2331 C 214.012 -0.459648 5.03205 0
M  V30 2332 C 216.21 -0.12389 5.14151 0
M  V30 2333 N 214.192 0.410446 6.12526 0
M  V30 2334 C 215.563 0.606064 6.17031 0
M  V30 2335 C 217.618 -0.0452654 4.97879 0
M  V30 2336 C 216.321 1.40723 7.054 0
M  V30 2337 C 218.347 0.742658 5.86718 0
M  V30 2338 C 217.709 1.46087 6.89085 0
M  V30 2339 H 213.808 -0.287946 0.727056 0
M  V30 2340 H 216.392 -0.11304 1.94372 0
M  V30 2341 H 214.563 -2.36009 3.08471 0
M  V30 2342 H 216.295 -2.30541 3.32615 0
M  V30 2343 H 213.05 -0.797006 4.66846 0
M  V30 2344 H 213.474 0.836716 6.7181 0
M  V30 2345 H 218.116 -0.586184 4.18717 0
M  V30 2346 H 215.834 1.95938 7.83986 0
M  V30 2347 H 219.42 0.805574 5.76196 0
M  V30 2348 H 218.3 2.06077 7.56639 0
M  V30 2349 N 215.803 -1.52179 -0.40978 0
M  V30 2350 C 217.214 -1.58377 -0.988615 0
M  V30 2351 C 217.565 -0.423879 -1.91566 0
M  V30 2352 O 216.69 0.455844 -2.11544 0
M  V30 2353 C 217.285 -2.87044 -1.79976 0
M  V30 2354 C 215.844 -2.95722 -2.32863 0
M  V30 2355 C 214.991 -2.53309 -1.12828 0
M  V30 2356 H 217.942 -1.57558 -0.190039 0
M  V30 2357 H 217.963 -2.7236 -2.65707 0
M  V30 2358 H 217.475 -3.71444 -1.12478 0
M  V30 2359 H 215.576 -2.15814 -3.03735 0
M  V30 2360 H 215.689 -3.99951 -2.63773 0
M  V30 2361 H 214.053 -2.07142 -1.48204 0
M  V30 2362 H 214.836 -3.40082 -0.46897 0
M  V30 2363 N 217.281 0.66697 -1.42791 0
M  V30 2364 C 218.229 1.80157 -1.47127 0
M  V30 2365 C 219.223 1.65825 -0.346199 0
M  V30 2366 O 220.429 1.72338 -0.519572 0
M  V30 2367 H 216.804 0.594158 -0.460956 0
M  V30 2368 H 218.775 1.73619 -2.42692 0
M  V30 2369 C 217.524 3.18351 -1.39813 0
M  V30 2370 H 216.847 3.3001 -2.25684 0
M  V30 2371 H 218.287 3.97736 -1.46908 0
M  V30 2372 C 216.746 3.36707 -0.11391 0
M  V30 2373 O 217.276 3.93027 0.830241 0
M  V30 2374 N 215.482 2.90586 -0.0285295 0
M  V30 2375 H 215.029 2.4494 -0.79764 0
M  V30 2376 H 214.987 3.03245 0.830063 0
M  V30 2377 N 218.759 1.29093 0.90403 0
M  V30 2378 C 220.005 1.16986 1.65656 0
M  V30 2379 C 220.338 -0.278925 1.92186 0
M  V30 2380 O 219.613 -1.2019 1.5292 0
M  V30 2381 C 219.896 1.97908 3.0084 0
M  V30 2382 C 219.749 3.50903 2.81403 0
M  V30 2383 C 221.068 1.80208 4.01513 0
M  V30 2384 H 218.187 0.426346 0.601164 0
M  V30 2385 H 220.829 1.58518 1.04747 0
M  V30 2386 H 218.979 1.62616 3.52829 0
M  V30 2387 H 220.651 3.96153 2.36348 0
M  V30 2388 H 218.894 3.76045 2.1627 0
M  V30 2389 H 219.565 4.02791 3.77443 0
M  V30 2390 H 222.041 2.11025 3.58619 0
M  V30 2391 H 220.917 2.39184 4.94047 0
M  V30 2392 H 221.178 0.756119 4.35586 0
M  V30 2393 N 220.237 -1.11381 1.11499 0
M  V30 2394 C 221.147 -2.21019 0.786628 0
M  V30 2395 C 222.163 -1.72597 -0.220507 0
M  V30 2396 O 223.339 -2.01321 -0.0565251 0
M  V30 2397 C 220.404 -3.459 0.235333 0
M  V30 2398 C 219.465 -4.09107 1.30115 0
M  V30 2399 C 218.698 -5.28027 0.776068 0
M  V30 2400 O 218.921 -5.6904 -0.393661 0
M  V30 2401 O 217.855 -5.81835 1.54114 0
M  V30 2402 H 221.681 -2.51521 1.70209 0
M  V30 2403 H 219.266 -1.19928 0.890928 0
M  V30 2404 H 221.148 -4.21346 -0.067715 0
M  V30 2405 H 219.823 -3.17049 -0.652828 0
M  V30 2406 H 218.73 -3.35391 1.65722 0
M  V30 2407 H 220.063 -4.42139 2.16273 0
M  V30 2408 N 221.715 -0.905404 -1.28997 0
M  V30 2409 C 222.678 -0.392253 -2.25819 0
M  V30 2410 C 223.678 0.476753 -1.5357 0
M  V30 2411 O 224.868 0.280994 -1.71919 0
M  V30 2412 C 222 0.438588 -3.38067 0
M  V30 2413 H 223.193 -1.24743 -2.72725 0
M  V30 2414 H 220.746 -0.684051 -1.40536 0
M  V30 2415 H 221.481 1.31352 -2.96508 0
M  V30 2416 H 221.266 -0.184167 -3.91667 0
M  V30 2417 H 222.756 0.78873 -4.10084 0
M  V30 2418 N 223.193 1.4272 -0.668489 0
M  V30 2419 C 224.47 1.95248 -0.117373 0
M  V30 2420 C 224.85 1.60919 1.36632 0
M  V30 2421 O 224.198 0.902095 2.09939 0
M  V30 2422 C 224.408 3.46927 -0.379806 0
M  V30 2423 C 225.756 4.23588 -0.292923 0
M  V30 2424 O 226.78 3.5482 -0.313204 0
M  V30 2425 O 225.639 5.46017 -0.229697 0
M  V30 2426 H 222.733 0.827 0.00079152 0
M  V30 2427 H 225.279 1.52581 -0.742783 0
M  V30 2428 H 224.051 3.65096 -1.40786 0
M  V30 2429 H 223.674 3.96627 0.277923 0
M  V30 2430 N 224.671 0.411399 1.52136 0
M  V30 2431 C 225.919 -0.163322 2.01439 0
M  V30 2432 C 226.24 -1.45453 1.29879 0
M  V30 2433 O 225.51 -1.91225 0.4254 0
M  V30 2434 H 224.09 -0.0633447 0.744309 0
M  V30 2435 H 226.752 0.548161 1.87033 0
M  V30 2436 H 225.848 -0.357817 3.10042 0
M  V30 2437 N 226.149 -1.5696 0.141893 0
M  V30 2438 C 227.374 -2.00754 -0.520838 0
M  V30 2439 C 227.799 -1.0213 -1.57959 0
M  V30 2440 O 227.157 0.00371324 -1.813 0
M  V30 2441 C 227.205 -3.43318 -1.10294 0
M  V30 2442 O 226.309 -3.47679 -2.21795 0
M  V30 2443 H 225.65 -0.651564 -0.127908 0
M  V30 2444 H 228.18 -2.03221 0.23712 0
M  V30 2445 H 228.19 -3.82012 -1.43287 0
M  V30 2446 H 226.865 -4.14608 -0.327574 0
M  V30 2447 H 225.442 -3.20824 -1.9007 0
M  V30 2448 N 227.627 0.131896 -1.57047 0
M  V30 2449 C 228.537 1.1815 -2.02676 0
M  V30 2450 C 229.553 1.46113 -0.944824 0
M  V30 2451 O 230.729 1.57485 -1.25541 0
M  V30 2452 C 227.794 2.49139 -2.41103 0
M  V30 2453 C 226.855 2.28688 -3.63318 0
M  V30 2454 C 226.088 3.53431 -3.99903 0
M  V30 2455 O 226.311 4.60223 -3.36973 0
M  V30 2456 O 225.245 3.45198 -4.93074 0
M  V30 2457 H 229.071 0.824069 -2.92306 0
M  V30 2458 H 226.656 0.341745 -1.45439 0
M  V30 2459 H 228.538 3.26338 -2.66611 0
M  V30 2460 H 227.213 2.84382 -1.54624 0
M  V30 2461 H 226.12 1.4939 -3.42977 0
M  V30 2462 H 227.453 1.98355 -4.50462 0
M  V30 2463 N 229.106 1.52395 0.401703 0
M  V30 2464 C 230.517 1.58899 0.980202 0
M  V30 2465 C 230.868 0.434032 1.91339 0
M  V30 2466 O 229.993 -0.444619 2.11783 0
M  V30 2467 C 230.588 2.87994 1.78451 0
M  V30 2468 C 229.147 2.96953 2.31292 0
M  V30 2469 C 228.294 2.53903 1.11483 0
M  V30 2470 H 231.245 1.57657 0.18168 0
M  V30 2471 H 231.266 2.73765 2.64259 0
M  V30 2472 H 230.778 3.72035 1.10506 0
M  V30 2473 H 228.879 2.17422 3.02586 0
M  V30 2474 H 228.992 4.01344 2.61649 0
M  V30 2475 H 227.356 2.07925 1.47104 0
M  V30 2476 H 228.139 3.40326 0.450928 0
M  V30 2477 N 230.584 -0.659388 1.43143 0
M  V30 2478 C 231.812 -1.44723 1.47861 0
M  V30 2479 C 232.227 -1.88563 0.0945886 0
M  V30 2480 O 231.584 -1.59108 -0.893915 0
M  V30 2481 C 231.635 -2.68627 2.41913 0
M  V30 2482 O 231.356 -2.26623 3.74932 0
M  V30 2483 C 232.857 -3.62045 2.55809 0
M  V30 2484 H 230.077 -0.444801 0.502387 0
M  V30 2485 H 232.621 -0.808916 1.87821 0
M  V30 2486 H 230.776 -3.28613 2.05164 0
M  V30 2487 H 231.19 -3.06745 4.2545 0
M  V30 2488 H 232.664 -4.45666 3.25708 0
M  V30 2489 H 233.141 -4.08981 1.60099 0
M  V30 2490 H 233.747 -3.07944 2.93344 0
M  V30 2491 N 232.062 -1.29571 -0.897171 0
M  V30 2492 C 233.009 -1.14916 -2.00158 0
M  V30 2493 C 233.979 -0.0418149 -1.66047 0
M  V30 2494 O 235.164 -0.209793 -1.89643 0
M  V30 2495 C 232.304 -0.834307 -3.34863 0
M  V30 2496 C 231.417 -2.02234 -3.8174 0
M  V30 2497 C 230.552 -1.64664 -5.05034 0
M  V30 2498 C 229.591 -2.80033 -5.44286 0
M  V30 2499 N 228.728 -2.42843 -6.58765 0
M  V30 2500 H 233.568 -2.09403 -2.12025 0
M  V30 2501 H 231.105 -1.042 -1.0383 0
M  V30 2502 H 233.063 -0.632436 -4.12379 0
M  V30 2503 H 231.693 0.0736656 -3.22716 0
M  V30 2504 H 230.745 -2.33583 -3.00238 0
M  V30 2505 H 232.057 -2.88673 -4.06779 0
M  V30 2506 H 231.211 -1.4078 -5.9014 0
M  V30 2507 H 229.95 -0.753766 -4.8184 0
M  V30 2508 H 228.955 -3.04596 -4.57713 0
M  V30 2509 H 230.18 -3.69989 -5.6946 0
M  V30 2510 H 228.126 -1.56046 -6.3717 0
M  V30 2511 H 228.043 -3.22815 -6.83613 0
M  V30 2512 H 229.311 -2.22285 -7.47134 0
M  V30 2513 N 233.54 1.10788 -1.12088 0
M  V30 2514 C 234.768 1.86461 -0.896651 0
M  V30 2515 C 235.183 1.80492 0.553912 0
M  V30 2516 O 234.54 1.19102 1.38278 0
M  V30 2517 C 234.591 3.35006 -1.35843 0
M  V30 2518 O 234.312 3.40866 -2.75213 0
M  V30 2519 C 235.813 4.27565 -1.1706 0
M  V30 2520 H 233.033 0.589425 -0.320654 0
M  V30 2521 H 235.577 1.40076 -1.48993 0
M  V30 2522 H 233.732 3.7887 -0.808458 0
M  V30 2523 H 234.146 4.33411 -2.9539 0
M  V30 2524 H 235.62 5.30007 -1.54263 0
M  V30 2525 H 236.097 4.3906 -0.110814 0
M  V30 2526 H 236.703 3.89501 -1.70789 0
M  V30 2527 N 235.018 0.912232 1.28515 0
M  V30 2528 C 236.429 0.591352 1.77087 0
M  V30 2529 C 236.78 -0.8933 1.74684 0
M  V30 2530 O 235.905 -1.69876 1.34056 0
M  V30 2531 C 236.5 1.06668 3.2157 0
M  V30 2532 C 235.059 0.79675 3.67871 0
M  V30 2533 C 234.206 1.23427 2.48316 0
M  V30 2534 H 237.157 1.09365 1.15 0
M  V30 2535 H 237.178 0.407455 3.78312 0
M  V30 2536 H 236.69 2.14726 3.23287 0
M  V30 2537 H 234.791 -0.270679 3.71616 0
M  V30 2538 H 234.904 1.40343 4.58084 0
M  V30 2539 H 233.268 0.653036 2.46186 0
M  V30 2540 H 234.051 2.32316 2.52753 0
M  V30 2541 N 236.496 -1.42363 0.676048 0
M  V30 2542 C 237.744 -2.01123 0.198437 0
M  V30 2543 C 238.065 -1.53731 -1.19966 0
M  V30 2544 O 237.335 -0.759518 -1.80577 0
M  V30 2545 H 235.915 -0.743678 0.0703721 0
M  V30 2546 H 238.577 -1.74263 0.872837 0
M  V30 2547 H 237.673 -3.11454 0.200686 0
M  V30 2548 N 237.974 -0.419461 -1.51915 0
M  V30 2549 C 239.39 -0.0708431 -1.59443 0
M  V30 2550 C 239.59 1.41796 -1.43164 0
M  V30 2551 O 238.646 2.18596 -1.26381 0
M  V30 2552 C 239.959 -0.574991 -2.95151 0
M  V30 2553 C 241.507 -0.533867 -3.08413 0
M  V30 2554 C 241.982 -1.01469 -4.46618 0
M  V30 2555 N 243.473 -0.971939 -4.52888 0
M  V30 2556 C 244.208 -1.31505 -5.58116 0
M  V30 2557 N 243.704 -1.73014 -6.70849 0
M  V30 2558 N 245.497 -1.23436 -5.48379 0
M  V30 2559 H 237.648 -1.38836 -1.60743 0
M  V30 2560 H 239.911 -0.570998 -0.756747 0
M  V30 2561 H 239.617 -1.61597 -3.12377 0
M  V30 2562 H 239.491 0.00979777 -3.77199 0
M  V30 2563 H 241.878 0.498086 -2.90866 0
M  V30 2564 H 241.959 -1.15484 -2.28248 0
M  V30 2565 H 241.603 -2.04502 -4.6491 0
M  V30 2566 H 241.533 -0.370433 -5.25295 0
M  V30 2567 H 244.024 -0.666893 -3.71969 0
M  V30 2568 H 244.337 -1.97479 -7.47143 0
M  V30 2569 H 242.682 -1.76926 -6.72103 0
M  V30 2570 H 245.873 -0.908869 -4.59192 0
M  V30 2571 H 246.046 -1.50506 -6.30279 0
M  V30 2572 N 239.452 1.56882 -0.150215 0
M  V30 2573 C 240.68 2.00593 0.506948 0
M  V30 2574 C 241.095 1.03033 1.58208 0
M  V30 2575 O 240.452 0.0278396 1.82479 0
M  V30 2576 C 240.503 3.44209 1.10465 0
M  V30 2577 O 240.224 4.3804 0.0724636 0
M  V30 2578 C 241.725 4.03214 1.84211 0
M  V30 2579 H 238.945 0.65795 0.13169 0
M  V30 2580 H 241.489 2.03018 -0.245743 0
M  V30 2581 H 239.644 3.42625 1.80795 0
M  V30 2582 H 240.058 5.22007 0.510793 0
M  V30 2583 H 241.532 5.0569 2.21318 0
M  V30 2584 H 242.009 3.44107 2.72923 0
M  V30 2585 H 242.615 4.08437 1.18572 0
M  V30 2586 N 240.93 -0.123565 1.57115 0
M  V30 2587 C 242.155 -0.850398 1.89164 0
M  V30 2588 C 242.58 -1.7286 0.741688 0
M  V30 2589 O 241.938 -1.78665 -0.307958 0
M  V30 2590 C 241.986 -1.66353 3.19936 0
M  V30 2591 O 241.09 -2.77004 3.0552 0
M  V30 2592 H 240.431 -0.235454 0.620852 0
M  V30 2593 H 242.961 -0.107335 2.04318 0
M  V30 2594 H 242.971 -2.05372 3.52543 0
M  V30 2595 H 241.646 -1.01881 4.03228 0
M  V30 2596 H 240.223 -2.41221 2.84371 0
M  V30 2597 N 242.408 -1.52605 -0.393616 0
M  V30 2598 C 243.633 -1.71592 -1.16495 0
M  V30 2599 C 244.058 -0.43133 -1.83088 0
M  V30 2600 O 243.416 0.612523 -1.7064 0
M  V30 2601 C 243.464 -2.86318 -2.19213 0
M  V30 2602 O 242.568 -2.52969 -3.257 0
M  V30 2603 H 241.909 -0.570734 -0.33935 0
M  V30 2604 H 244.439 -1.99377 -0.459324 0
M  V30 2605 H 244.449 -3.1168 -2.63286 0
M  V30 2606 H 243.124 -3.79511 -1.7013 0
M  V30 2607 H 241.701 -2.38332 -2.86797 0
M  V30 2608 N 243.887 0.651787 -1.4349 0
M  V30 2609 C 245.115 1.43937 -1.48626 0
M  V30 2610 C 245.53 1.8851 -0.104587 0
M  V30 2611 O 244.887 1.5958 0.885464 0
M  V30 2612 C 244.938 2.6734 -2.43334 0
M  V30 2613 O 244.659 2.24631 -3.76128 0
M  V30 2614 C 246.16 3.60683 -2.57726 0
M  V30 2615 H 243.38 0.44213 -0.504739 0
M  V30 2616 H 245.924 0.798944 -1.88248 0
M  V30 2617 H 244.079 3.2752 -2.06904 0
M  V30 2618 H 244.493 3.04485 -4.2707 0
M  V30 2619 H 245.967 4.43933 -3.28067 0
M  V30 2620 H 246.444 4.08126 -1.62265 0
M  V30 2621 H 247.05 3.06384 -2.94973 0
M  V30 2622 N 245.365 1.30045 0.890287 0
M  V30 2623 C 246.295 1.18541 2.01172 0
M  V30 2624 C 247.276 0.0773356 1.69924 0
M  V30 2625 O 248.461 0.25845 1.92473 0
M  V30 2626 C 245.591 0.870941 3.36202 0
M  V30 2627 C 244.545 1.93637 3.81692 0
M  V30 2628 C 243.871 1.475 5.13953 0
M  V30 2629 C 245.171 3.34666 4.00994 0
M  V30 2630 H 246.865 2.12359 2.11054 0
M  V30 2631 H 244.411 1.02238 1.01407 0
M  V30 2632 H 246.364 0.777141 4.14172 0
M  V30 2633 H 245.088 -0.102926 3.26438 0
M  V30 2634 H 243.747 2.01972 3.05946 0
M  V30 2635 H 243.395 0.489551 5.00612 0
M  V30 2636 H 243.095 2.1876 5.4536 0
M  V30 2637 H 244.619 1.39489 5.94454 0
M  V30 2638 H 246.033 3.2912 4.69417 0
M  V30 2639 H 244.43 4.03966 4.43769 0
M  V30 2640 H 245.5 3.76949 3.05021 0
M  V30 2641 N 246.843 -1.10192 1.12674 0
M  V30 2642 C 248.068 -1.86523 0.906853 0
M  V30 2643 C 248.493 -1.80221 -0.538711 0
M  V30 2644 O 247.851 -1.17396 -1.38158 0
M  V30 2645 C 247.899 -3.32758 1.3894 0
M  V30 2646 O 247.003 -4.08449 0.5695 0
M  V30 2647 H 246.344 -0.578678 0.325619 0
M  V30 2648 H 248.874 -1.39203 1.49946 0
M  V30 2649 H 248.884 -3.83608 1.38958 0
M  V30 2650 H 247.559 -3.36661 2.44197 0
M  V30 2651 H 246.136 -3.67427 0.636528 0
M  V30 2652 N 248.321 -0.919034 -1.28029 0
M  V30 2653 C 249.231 -0.416756 -2.30869 0
M  V30 2654 C 250.247 0.498235 -1.66714 0
M  V30 2655 O 251.423 0.383144 -1.97722 0
M  V30 2656 C 248.488 0.330274 -3.45123 0
M  V30 2657 C 247.549 -0.618578 -4.2482 0
M  V30 2658 C 246.782 0.0928959 -5.33619 0
M  V30 2659 O 247.005 1.31375 -5.55065 0
M  V30 2660 O 245.939 -0.574499 -5.99152 0
M  V30 2661 H 249.765 -1.27043 -2.75851 0
M  V30 2662 H 247.35 -0.684052 -1.3282 0
M  V30 2663 H 249.232 0.751972 -4.14636 0
M  V30 2664 H 247.907 1.1597 -3.02213 0
M  V30 2665 H 246.814 -1.08978 -3.57875 0
M  V30 2666 H 248.147 -1.41497 -4.71423 0
M  V30 2667 N 249.799 1.42003 -0.683588 0
M  V30 2668 C 251.076 1.95112 -0.138075 0
M  V30 2669 C 251.456 1.62359 1.34918 0
M  V30 2670 O 250.804 0.924311 2.08971 0
M  V30 2671 C 251.014 3.46505 -0.416581 0
M  V30 2672 C 252.362 4.23254 -0.337834 0
M  V30 2673 O 253.386 3.54468 -0.35082 0
M  V30 2674 O 252.245 5.45743 -0.287596 0
M  V30 2675 H 249.339 0.826961 -0.00797996 0
M  V30 2676 H 251.885 1.51784 -0.758924 0
M  V30 2677 H 250.657 3.63582 -1.4465 0
M  V30 2678 H 250.28 3.969 0.235839 0
M  V30 2679 N 251.277 0.427512 1.51691 0
M  V30 2680 C 252.209 -0.424521 2.25234 0
M  V30 2681 C 253.222 -0.994671 1.2888 0
M  V30 2682 O 254.411 -0.890483 1.54702 0
M  V30 2683 C 251.511 -1.60479 2.98496 0
M  V30 2684 C 250.684 -1.15527 4.21868 0
M  V30 2685 C 249.743 -2.20454 4.77793 0
M  V30 2686 O 248.769 -1.8029 5.39893 0
M  V30 2687 N 249.971 -3.52831 4.60967 0
M  V30 2688 H 252.736 0.205749 2.98993 0
M  V30 2689 H 250.297 0.255867 1.59865 0
M  V30 2690 H 252.289 -2.30276 3.32799 0
M  V30 2691 H 250.859 -2.14061 2.27809 0
M  V30 2692 H 250.079 -0.284736 3.9317 0
M  V30 2693 H 251.367 -0.832173 5.01949 0
M  V30 2694 H 250.765 -3.88201 4.11481 0
M  V30 2695 H 249.322 -4.18551 4.99658 0
M  V30 2696 N 252.755 -1.56801 0.158532 0
M  V30 2697 C 253.688 -2.13148 -0.815065 0
M  V30 2698 C 254.666 -1.0581 -1.23462 0
M  V30 2699 O 255.85 -1.3371 -1.32868 0
M  V30 2700 C 252.977 -2.6606 -2.09594 0
M  V30 2701 C 252.023 -3.85651 -1.82141 0
M  V30 2702 S 252.856 -5.26041 -1.00207 0
M  V30 2703 C 254.012 -5.8235 -2.29389 0
M  V30 2704 H 254.245 -2.95396 -0.335937 0
M  V30 2705 H 251.778 -1.54299 -0.0559391 0
M  V30 2706 H 253.736 -2.97195 -2.8317 0
M  V30 2707 H 252.397 -1.83921 -2.54621 0
M  V30 2708 H 251.59 -4.20958 -2.77147 0
M  V30 2709 H 251.192 -3.55338 -1.16667 0
M  V30 2710 H 253.484 -5.94485 -3.24952 0
M  V30 2711 H 254.427 -6.79688 -1.9857 0
M  V30 2712 H 254.835 -5.10675 -2.40564 0
M  V30 2713 N 254.233 0.115231 -1.57178 0
M  V30 2714 C 255.458 0.840354 -1.89612 0
M  V30 2715 C 255.883 1.72464 -0.750845 0
M  V30 2716 O 255.241 1.78826 0.298478 0
M  V30 2717 C 255.289 1.64654 -3.20814 0
M  V30 2718 O 254.393 2.7538 -3.06985 0
M  V30 2719 H 253.734 0.232158 -0.622092 0
M  V30 2720 H 256.264 0.0964977 -2.04372 0
M  V30 2721 H 256.274 2.03499 -3.53627 0
M  V30 2722 H 254.949 0.997416 -4.03763 0
M  V30 2723 H 253.526 2.3971 -2.85646 0
M  V30 2724 N 255.711 1.52812 0.385517 0
M  V30 2725 C 257.127 1.4214 0.725829 0
M  V30 2726 C 257.327 0.544589 1.94001 0
M  V30 2727 O 256.383 0.0193693 2.52493 0
M  V30 2728 C 257.696 2.85042 0.957668 0
M  V30 2729 C 259.244 2.94543 1.05892 0
M  V30 2730 C 259.719 4.38464 1.32337 0
M  V30 2731 N 261.21 4.41804 1.39151 0
M  V30 2732 C 261.945 5.5025 1.61285 0
M  V30 2733 N 261.441 6.68775 1.80866 0
M  V30 2734 N 263.234 5.37798 1.63492 0
M  V30 2735 H 255.385 2.08338 -0.413383 0
M  V30 2736 H 257.648 0.940016 -0.122775 0
M  V30 2737 H 257.354 3.51431 0.137568 0
M  V30 2738 H 257.228 3.27505 1.87137 0
M  V30 2739 H 259.615 2.28321 1.86959 0
M  V30 2740 H 259.696 2.55504 0.123057 0
M  V30 2741 H 259.34 5.05254 0.517793 0
M  V30 2742 H 259.27 4.75059 2.27214 0
M  V30 2743 H 261.761 3.56377 1.25713 0
M  V30 2744 H 262.074 7.47197 1.97271 0
M  V30 2745 H 260.419 6.71797 1.78083 0
M  V30 2746 H 263.61 4.44171 1.47749 0
M  V30 2747 H 263.783 6.22382 1.80402 0
M  V30 2748 N 257.189 -0.644168 1.43834 0
M  V30 2749 C 258.119 -1.76814 1.52509 0
M  V30 2750 C 259.1 -1.65823 0.379052 0
M  V30 2751 O 260.285 -1.84781 0.597466 0
M  V30 2752 C 257.415 -3.15288 1.4564 0
M  V30 2753 C 256.369 -3.41053 2.58586 0
M  V30 2754 C 255.695 -4.79421 2.36769 0
M  V30 2755 C 256.995 -3.34902 4.00797 0
M  V30 2756 H 258.689 -1.69812 2.46586 0
M  V30 2757 H 256.235 -0.815542 1.1868 0
M  V30 2758 H 258.188 -3.93681 1.50311 0
M  V30 2759 H 256.912 -3.23043 0.480725 0
M  V30 2760 H 255.571 -2.65035 2.53282 0
M  V30 2761 H 255.219 -4.83863 1.37424 0
M  V30 2762 H 254.919 -4.9762 3.12487 0
M  V30 2763 H 256.443 -5.6006 2.43238 0
M  V30 2764 H 257.857 -4.03218 4.07539 0
M  V30 2765 H 256.254 -3.64637 4.76613 0
M  V30 2766 H 257.324 -2.32928 4.25291 0
M  V30 2767 N 258.668 -1.30515 -0.883378 0
M  V30 2768 C 259.631 -1.1701 -1.97082 0
M  V30 2769 C 260.631 -0.10089 -1.60483 0
M  V30 2770 O 261.821 -0.349127 -1.70666 0
M  V30 2771 C 258.953 -0.793045 -3.31547 0
M  V30 2772 H 260.146 -2.13622 -2.10489 0
M  V30 2773 H 257.699 -1.13935 -1.06998 0
M  V30 2774 H 258.434 0.172499 -3.23841 0
M  V30 2775 H 258.219 -1.56576 -3.5948 0
M  V30 2776 H 259.709 -0.722073 -4.1131 0
M  V30 2777 N 260.146 1.09593 -1.13257 0
M  V30 2778 C 261.093 2.1618 -0.808381 0
M  V30 2779 C 262.063 1.64517 0.228754 0
M  V30 2780 O 263.248 1.9053 0.101381 0
M  V30 2781 C 260.388 3.43973 -0.278675 0
M  V30 2782 C 259.501 4.09545 -1.37466 0
M  V30 2783 C 258.636 5.25088 -0.803479 0
M  V30 2784 C 257.675 5.82579 -1.87799 0
M  V30 2785 N 256.812 6.89486 -1.32488 0
M  V30 2786 H 261.652 2.43254 -1.72138 0
M  V30 2787 H 259.189 1.19392 -0.859294 0
M  V30 2788 H 261.147 4.17174 0.0465583 0
M  V30 2789 H 259.777 3.17223 0.597459 0
M  V30 2790 H 258.829 3.34226 -1.81652 0
M  V30 2791 H 260.141 4.48307 -2.18684 0
M  V30 2792 H 259.295 6.05178 -0.429427 0
M  V30 2793 H 258.034 4.87684 0.0397956 0
M  V30 2794 H 257.039 5.01152 -2.26113 0
M  V30 2795 H 258.264 6.22045 -2.72463 0
M  V30 2796 H 256.21 6.54064 -0.503575 0
M  V30 2797 H 256.127 7.27007 -2.07355 0
M  V30 2798 H 257.395 7.73336 -0.978336 0
M  V30 2799 N 261.624 0.925811 1.2754 0
M  V30 2800 C 262.554 0.440748 2.29303 0
M  V30 2801 C 263.535 -0.497971 1.62648 0
M  V30 2802 O 264.72 -0.403126 1.8997 0
M  V30 2803 C 261.85 -0.309048 3.45922 0
M  V30 2804 C 260.804 0.54166 4.24559 0
M  V30 2805 C 260.13 -0.337191 5.33636 0
M  V30 2806 C 261.43 1.80516 4.90114 0
M  V30 2807 H 263.124 1.29121 2.70126 0
M  V30 2808 H 260.67 0.622323 1.29858 0
M  V30 2809 H 262.623 -0.659315 4.1621 0
M  V30 2810 H 261.347 -1.19352 3.04011 0
M  V30 2811 H 260.006 0.874609 3.56014 0
M  V30 2812 H 259.654 -1.22056 4.87966 0
M  V30 2813 H 259.354 0.228497 5.87156 0
M  V30 2814 H 260.878 -0.683072 6.06767 0
M  V30 2815 H 262.292 1.52307 5.52698 0
M  V30 2816 H 260.689 2.3142 5.53683 0
M  V30 2817 H 261.759 2.52581 4.13921 0
M  V30 2818 N 263.102 -1.41638 0.69111 0
M  V30 2819 C 264.33 -2.05628 0.22909 0
M  V30 2820 C 264.745 -1.51992 -1.11999 0
M  V30 2821 O 264.102 -0.666322 -1.69901 0
M  V30 2822 C 264.153 -3.61084 0.173283 0
M  V30 2823 O 263.874 -4.12735 1.46907 0
M  V30 2824 C 265.375 -4.42213 -0.310266 0
M  V30 2825 H 262.595 -0.662327 0.107534 0
M  V30 2826 H 265.139 -1.81489 0.942438 0
M  V30 2827 H 263.294 -3.84278 -0.490858 0
M  V30 2828 H 263.708 -5.06743 1.35322 0
M  V30 2829 H 265.182 -5.51194 -0.298196 0
M  V30 2830 H 265.659 -4.1799 -1.34838 0
M  V30 2831 H 266.265 -4.24074 0.322716 0
M  V30 2832 N 264.58 -0.43555 -1.51462 0
M  V30 2833 C 265.527 0.376797 -2.27703 0
M  V30 2834 C 266.497 1.01838 -1.31219 0
M  V30 2835 O 267.682 1.03762 -1.60119 0
M  V30 2836 C 264.822 1.47301 -3.12084 0
M  V30 2837 C 263.935 0.849744 -4.2356 0
M  V30 2838 C 263.07 1.92086 -4.95254 0
M  V30 2839 C 262.109 1.27593 -5.98654 0
M  V30 2840 N 261.246 2.28833 -6.63762 0
M  V30 2841 H 266.086 -0.279734 -2.96684 0
M  V30 2842 H 263.623 -0.149795 -1.46335 0
M  V30 2843 H 265.581 2.11984 -3.59331 0
M  V30 2844 H 264.211 2.0992 -2.45221 0
M  V30 2845 H 263.263 0.0912529 -3.80291 0
M  V30 2846 H 264.575 0.338878 -4.97648 0
M  V30 2847 H 263.729 2.64435 -5.46039 0
M  V30 2848 H 262.468 2.46545 -4.20793 0
M  V30 2849 H 261.473 0.537893 -5.47162 0
M  V30 2850 H 262.698 0.738693 -6.7507 0
M  V30 2851 H 260.644 2.82375 -5.92115 0
M  V30 2852 H 260.561 1.82632 -7.33608 0
M  V30 2853 H 261.829 3.00671 -7.19178 0
M  V30 2854 N 266.058 1.56714 -0.166846 0
M  V30 2855 C 267.021 2.16539 0.751232 0
M  V30 2856 C 268.021 1.11228 1.16125 0
M  V30 2857 O 269.211 1.36765 1.07894 0
M  V30 2858 C 266.343 2.74462 2.02196 0
M  V30 2859 H 267.536 2.99013 0.230499 0
M  V30 2860 H 265.089 1.56081 0.0826982 0
M  V30 2861 H 265.824 1.95709 2.58589 0
M  V30 2862 H 265.609 3.51527 1.73698 0
M  V30 2863 H 267.099 3.20489 2.67725 0
M  V30 2864 N 267.536 -0.106894 1.57237 0
M  V30 2865 C 268.486 -1.1366 1.9765 0
M  V30 2866 C 269.47 -1.36416 0.853203 0
M  V30 2867 O 270.662 -1.37305 1.11697 0
M  V30 2868 C 267.791 -2.46 2.39455 0
M  V30 2869 C 266.877 -2.26668 3.58445 0
M  V30 2870 N 267.268 -1.77176 4.73754 0
M  V30 2871 C 265.566 -2.57279 3.64312 0
M  V30 2872 C 266.267 -1.71836 5.5574 0
M  V30 2873 N 265.243 -2.16623 4.98573 0
M  V30 2874 H 269.045 -0.74669 2.84256 0
M  V30 2875 H 266.559 -0.314483 1.59326 0
M  V30 2876 H 268.556 -3.2049 2.6663 0
M  V30 2877 H 267.216 -2.85738 1.54219 0
M  V30 2878 H 268.227 -1.46545 4.96734 0
M  V30 2879 H 264.904 -3.00622 2.89711 0
M  V30 2880 H 266.294 -1.34723 6.58255 0
M  V30 2881 N 269.014 -1.53014 -0.377408 0
M  V30 2882 C 270.43 -1.42523 -0.718281 0
M  V30 2883 C 270.63 -0.55487 -1.9371 0
M  V30 2884 O 269.686 -0.0327593 -2.52479 0
M  V30 2885 C 270.999 -2.85546 -0.942539 0
M  V30 2886 C 272.547 -2.95101 -1.04329 0
M  V30 2887 C 273.022 -4.3916 -1.3001 0
M  V30 2888 N 274.513 -4.42536 -1.36806 0
M  V30 2889 C 275.248 -5.51097 -1.58364 0
M  V30 2890 N 274.744 -6.69724 -1.77317 0
M  V30 2891 N 276.537 -5.38657 -1.60638 0
M  V30 2892 H 268.688 -2.08116 0.424426 0
M  V30 2893 H 270.951 -0.939352 0.127759 0
M  V30 2894 H 270.657 -3.51499 -0.118929 0
M  V30 2895 H 270.531 -3.28493 -1.85397 0
M  V30 2896 H 272.918 -2.29309 -1.85745 0
M  V30 2897 H 272.999 -2.55566 -0.109505 0
M  V30 2898 H 272.643 -5.05521 -0.490991 0
M  V30 2899 H 272.573 -4.76258 -2.24691 0
M  V30 2900 H 275.064 -3.57039 -1.23821 0
M  V30 2901 H 275.377 -7.48233 -1.93306 0
M  V30 2902 H 273.722 -6.72732 -1.74518 0
M  V30 2903 H 276.913 -4.44948 -1.45391 0
M  V30 2904 H 277.086 -6.2333 -1.77098 0
M  V30 2905 N 270.492 0.636531 -1.44174 0
M  V30 2906 C 271.424 1.7618 -1.46606 0
M  V30 2907 C 272.437 1.58768 -0.360091 0
M  V30 2908 O 273.626 1.67181 -0.625518 0
M  V30 2909 C 270.726 3.13833 -1.27915 0
M  V30 2910 C 269.899 3.57753 -2.51658 0
M  V30 2911 C 268.958 4.74265 -2.27945 0
M  V30 2912 O 267.984 4.82852 -3.01401 0
M  V30 2913 N 269.186 5.65604 -1.30662 0
M  V30 2914 H 271.951 1.74567 -2.43612 0
M  V30 2915 H 269.512 0.820924 -1.39544 0
M  V30 2916 H 271.504 3.8949 -1.09907 0
M  V30 2917 H 270.074 3.10121 -0.39293 0
M  V30 2918 H 269.294 2.72362 -2.84978 0
M  V30 2919 H 270.582 3.83847 -3.33974 0
M  V30 2920 H 269.98 5.61354 -0.699844 0
M  V30 2921 H 268.537 6.40913 -1.18634 0
M  V30 2922 N 271.97 1.30982 0.876444 0
M  V30 2923 C 273.218 1.20058 1.62575 0
M  V30 2924 C 273.539 -0.242947 1.93481 0
M  V30 2925 O 272.809 -1.1619 1.57724 0
M  V30 2926 H 271.389 0.44135 0.602677 0
M  V30 2927 H 274.051 1.64222 1.04962 0
M  V30 2928 H 273.147 1.76762 2.57219 0
M  V30 2929 N 273.449 -1.08991 1.13837 0
M  V30 2930 C 274.399 -2.1393 0.788535 0
M  V30 2931 C 275.383 -1.59396 -0.219516 0
M  V30 2932 O 276.575 -1.76985 -0.0227557 0
M  V30 2933 C 273.704 -3.42305 0.261147 0
M  V30 2934 C 272.79 -4.03736 1.29837 0
M  V30 2935 N 273.181 -4.39659 2.50067 0
M  V30 2936 C 271.479 -4.30993 1.1472 0
M  V30 2937 C 272.18 -4.88113 3.16419 0
M  V30 2938 N 271.156 -4.85846 2.43832 0
M  V30 2939 H 274.958 -2.39516 1.70322 0
M  V30 2940 H 272.472 -1.26263 1.02134 0
M  V30 2941 H 274.469 -4.16899 -0.0077405 0
M  V30 2942 H 273.129 -3.18172 -0.647805 0
M  V30 2943 H 274.14 -4.30878 2.8734 0
M  V30 2944 H 270.817 -4.16444 0.296773 0
M  V30 2945 H 272.207 -5.25336 4.18894 0
M  V30 2946 N 274.927 -0.932562 -1.27047 0
M  V30 2947 C 275.86 -0.379774 -2.25018 0
M  V30 2948 C 276.838 0.526587 -1.53837 0
M  V30 2949 O 278.022 0.465992 -1.82649 0
M  V30 2950 C 275.149 0.455187 -3.35627 0
M  V30 2951 C 274.195 -0.388428 -4.24728 0
M  V30 2952 S 275.028 -1.80701 -5.04091 0
M  V30 2953 C 276.184 -0.979865 -6.18182 0
M  V30 2954 H 276.417 -1.2101 -2.71558 0
M  V30 2955 H 273.95 -0.735078 -1.35779 0
M  V30 2956 H 275.908 0.931052 -3.99802 0
M  V30 2957 H 274.569 1.26009 -2.87716 0
M  V30 2958 H 273.762 0.25089 -5.03375 0
M  V30 2959 H 273.364 -0.798649 -3.65373 0
M  V30 2960 H 275.656 -0.218115 -6.77149 0
M  V30 2961 H 276.599 -1.73951 -6.86401 0
M  V30 2962 H 277.007 -0.51973 -5.62102 0
M  V30 2963 N 276.405 1.4127 -0.698611 0
M  V30 2964 C 277.651 2.01478 -0.231207 0
M  V30 2965 C 277.984 1.55215 1.16713 0
M  V30 2966 O 277.259 0.764672 1.78838 0
M  V30 2967 C 277.542 3.58912 -0.292281 0
M  V30 2968 C 277.395 4.15293 -1.72778 0
M  V30 2969 C 278.714 4.38736 0.346194 0
M  V30 2970 H 275.833 0.732025 -0.0854878 0
M  V30 2971 H 278.475 1.67977 -0.887906 0
M  V30 2972 H 276.625 3.87582 0.26686 0
M  V30 2973 H 278.297 3.97486 -2.341 0
M  V30 2974 H 276.54 3.7022 -2.26096 0
M  V30 2975 H 277.211 5.24452 -1.72202 0
M  V30 2976 H 279.687 4.15897 -0.130035 0
M  V30 2977 H 278.563 5.48221 0.272932 0
M  V30 2978 H 278.824 4.18425 1.42734 0
M  V30 2979 N 277.883 0.443576 1.51229 0
M  V30 2980 C 278.83 -0.364716 2.279 0
M  V30 2981 C 279.8 -1.0114 1.31757 0
M  V30 2982 O 280.985 -1.02912 1.60667 0
M  V30 2983 C 278.125 -1.45644 3.12861 0
M  V30 2984 C 277.238 -0.827269 4.24005 0
M  V30 2985 C 276.373 -1.89456 4.96266 0
M  V30 2986 C 275.412 -1.24416 5.99322 0
M  V30 2987 N 274.549 -2.25309 6.64966 0
M  V30 2988 H 279.389 0.295464 2.96532 0
M  V30 2989 H 276.926 0.157554 1.46254 0
M  V30 2990 H 278.884 -2.10076 3.6045 0
M  V30 2991 H 277.514 -2.08616 2.46331 0
M  V30 2992 H 276.566 -0.0710839 3.80334 0
M  V30 2993 H 277.878 -0.312481 4.9782 0
M  V30 2994 H 277.032 -2.61535 5.47434 0
M  V30 2995 H 275.771 -2.4431 4.22095 0
M  V30 2996 H 274.776 -0.508868 5.4744 0
M  V30 2997 H 276.001 -0.702882 6.75453 0
M  V30 2998 H 273.947 -2.79231 5.93604 0
M  V30 2999 H 273.864 -1.78739 7.34567 0
M  V30 3000 H 275.132 -2.96853 7.20763 0
M  V30 3001 N 279.361 -1.56624 0.175154 0
M  V30 3002 C 280.607 -1.9729 -0.469506 0
M  V30 3003 C 280.94 -1.06128 -1.62636 0
M  V30 3004 O 280.215 -0.109183 -1.94193 0
M  V30 3005 C 280.498 -3.47375 -0.948804 0
M  V30 3006 C 280.351 -4.49317 0.208491 0
M  V30 3007 C 281.67 -4.00652 -1.82116 0
M  V30 3008 H 278.789 -0.717317 -0.16919 0
M  V30 3009 H 281.431 -1.88184 0.262062 0
M  V30 3010 H 279.581 -3.55267 -1.57219 0
M  V30 3011 H 281.253 -4.53482 0.845682 0
M  V30 3012 H 279.496 -4.25121 0.863395 0
M  V30 3013 H 280.167 -5.51741 -0.169059 0
M  V30 3014 H 282.643 -3.95416 -1.2956 0
M  V30 3015 H 281.519 -5.06075 -2.12554 0
M  V30 3016 H 281.78 -3.44699 -2.7683 0
M  V30 3017 N 280.839 0.0985539 -1.57292 0
M  V30 3018 C 282.116 0.834155 -1.76921 0
M  V30 3019 C 282.496 1.97101 -0.755928 0
M  V30 3020 O 281.844 2.27474 0.216245 0
M  V30 3021 C 282.054 1.33194 -3.22584 0
M  V30 3022 C 283.402 1.77611 -3.85668 0
M  V30 3023 O 284.426 1.42825 -3.26312 0
M  V30 3024 O 283.285 2.4192 -4.90038 0
M  V30 3025 H 280.379 0.397628 -0.725135 0
M  V30 3026 H 282.925 0.0807044 -1.69508 0
M  V30 3027 H 281.697 0.517248 -3.87866 0
M  V30 3028 H 281.32 2.1475 -3.34616 0
M  V30 3029 N 282.317 1.53212 0.369288 0
M  V30 3030 C 283.563 1.70413 1.11046 0
M  V30 3031 C 283.918 0.448509 1.87099 0
M  V30 3032 O 283.211 -0.558382 1.83283 0
M  V30 3033 C 283.405 2.89101 2.10132 0
M  V30 3034 C 283.234 4.26084 1.43814 0
M  V30 3035 C 282.004 4.90994 1.19384 0
M  V30 3036 C 284.202 5.06754 0.877802 0
M  V30 3037 N 282.184 6.11911 0.49377 0
M  V30 3038 C 283.555 6.1924 0.306891 0
M  V30 3039 C 285.61 4.91814 0.776129 0
M  V30 3040 C 284.313 7.1842 -0.355774 0
M  V30 3041 C 286.339 5.91263 0.127252 0
M  V30 3042 C 285.701 7.03069 -0.432801 0
M  V30 3043 H 281.8 0.676872 0.391623 0
M  V30 3044 H 284.384 1.90603 0.397334 0
M  V30 3045 H 282.555 2.70456 2.78761 0
M  V30 3046 H 284.287 2.95142 2.76899 0
M  V30 3047 H 281.042 4.50074 1.47413 0
M  V30 3048 H 281.466 6.76813 0.159207 0
M  V30 3049 H 286.108 4.05564 1.19489 0
M  V30 3050 H 283.826 8.04264 -0.786499 0
M  V30 3051 H 287.412 5.81779 0.0495613 0
M  V30 3052 H 286.292 7.78702 -0.926958 0
M  V30 3053 N 283.795 -0.628877 1.44509 0
M  V30 3054 C 284.725 -1.75187 1.54376 0
M  V30 3055 C 285.706 -1.65411 0.396618 0
M  V30 3056 O 286.891 -1.84137 0.617031 0
M  V30 3057 C 284.021 -3.13725 1.48976 0
M  V30 3058 C 282.975 -3.38291 2.62189 0
M  V30 3059 C 282.301 -4.76883 2.41841 0
M  V30 3060 C 283.601 -3.30632 4.04326 0
M  V30 3061 H 285.295 -1.67187 2.48373 0
M  V30 3062 H 282.841 -0.802909 1.19538 0
M  V30 3063 H 284.794 -3.92064 1.54478 0
M  V30 3064 H 283.518 -3.22515 0.514961 0
M  V30 3065 H 282.177 -2.62334 2.56079 0
M  V30 3066 H 281.825 -4.82378 1.42548 0
M  V30 3067 H 281.525 -4.94278 3.17747 0
M  V30 3068 H 283.049 -5.57449 2.49165 0
M  V30 3069 H 284.463 -3.98873 4.11793 0
M  V30 3070 H 282.86 -3.59561 4.80454 0
M  V30 3071 H 283.93 -2.28404 4.27738 0
M  V30 3072 N 285.273 -1.31445 -0.869486 0
M  V30 3073 C 286.55 -1.11795 -1.60503 0
M  V30 3074 C 286.93 0.327168 -2.08549 0
M  V30 3075 O 286.278 1.32135 -1.8642 0
M  V30 3076 C 286.488 -2.13258 -2.76265 0
M  V30 3077 C 287.836 -2.45805 -3.46215 0
M  V30 3078 O 288.86 -2.11688 -2.86473 0
M  V30 3079 O 287.719 -3.04228 -4.5399 0
M  V30 3080 H 284.813 -0.430421 -0.706163 0
M  V30 3081 H 287.359 -1.42925 -0.914907 0
M  V30 3082 H 286.131 -3.10461 -2.3818 0
M  V30 3083 H 285.754 -1.83035 -3.52964 0
M  V30 3084 N 286.751 1.08385 -1.14413 0
M  V30 3085 C 288.167 1.32844 -0.884563 0
M  V30 3086 C 288.367 1.95841 0.474181 0
M  V30 3087 O 287.423 2.21158 1.21842 0
M  V30 3088 C 288.736 2.22978 -2.01745 0
M  V30 3089 C 290.284 2.36458 -2.05077 0
M  V30 3090 C 290.759 3.29934 -3.1766 0
M  V30 3091 N 292.25 3.37511 -3.17239 0
M  V30 3092 C 292.985 4.09871 -4.0099 0
M  V30 3093 N 292.481 4.84936 -4.94781 0
M  V30 3094 N 294.274 4.05704 -3.89051 0
M  V30 3095 H 286.425 0.658756 -2.01926 0
M  V30 3096 H 288.688 0.352821 -0.879899 0
M  V30 3097 H 288.394 1.83934 -2.99769 0
M  V30 3098 H 288.268 3.23441 -1.94077 0
M  V30 3099 H 290.655 2.7476 -1.0766 0
M  V30 3100 H 290.736 1.35736 -2.16816 0
M  V30 3101 H 290.38 2.92352 -4.15322 0
M  V30 3102 H 290.31 4.30584 -3.03158 0
M  V30 3103 H 292.801 2.83996 -2.49308 0
M  V30 3104 H 293.114 5.37612 -5.55151 0
M  V30 3105 H 291.459 4.83988 -4.98779 0
M  V30 3106 H 294.65 3.46167 -3.15097 0
M  V30 3107 H 294.823 4.61834 -4.54547 0
M  V30 3108 N 288.23 0.939286 1.26551 0
M  V30 3109 C 289.16 0.465044 2.28822 0
M  V30 3110 C 290.141 -0.480692 1.63167 0
M  V30 3111 O 291.326 -0.382955 1.90387 0
M  V30 3112 C 288.456 -0.27234 3.46231 0
M  V30 3113 C 287.41 0.58666 4.2396 0
M  V30 3114 C 286.736 -0.280573 5.33963 0
M  V30 3115 C 288.036 1.85704 4.88171 0
M  V30 3116 H 289.73 1.31979 2.68741 0
M  V30 3117 H 287.276 0.636061 1.29191 0
M  V30 3118 H 289.229 -0.615133 4.16886 0
M  V30 3119 H 287.953 -1.16121 3.0526 0
M  V30 3120 H 286.612 0.91232 3.55067 0
M  V30 3121 H 286.26 -1.16874 4.89234 0
M  V30 3122 H 285.96 0.29076 5.8688 0
M  V30 3123 H 287.484 -0.618678 6.07458 0
M  V30 3124 H 288.898 1.58161 5.51052 0
M  V30 3125 H 287.295 2.37279 5.51197 0
M  V30 3126 H 288.365 2.56957 4.11219 0
M  V30 3127 N 289.708 -1.40897 0.706093 0
M  V30 3128 C 290.936 -2.05373 0.250887 0
M  V30 3129 C 291.351 -1.53172 -1.10381 0
M  V30 3130 O 290.708 -0.684305 -1.69185 0
M  V30 3131 C 290.759 -3.6088 0.211571 0
M  V30 3132 O 290.48 -4.11153 1.51276 0
M  V30 3133 C 291.981 -4.42517 -0.263346 0
M  V30 3134 H 289.201 -0.66115 0.114552 0
M  V30 3135 H 291.745 -1.80479 0.961635 0
M  V30 3136 H 289.9 -3.84777 -0.450073 0
M  V30 3137 H 290.314 -5.05279 1.40689 0
M  V30 3138 H 291.788 -5.51479 -0.239718 0
M  V30 3139 H 292.265 -4.19396 -1.30397 0
M  V30 3140 H 292.871 -4.23708 0.367677 0
M  V30 3141 N 291.186 -0.45159 -1.50991 0
M  V30 3142 C 292.433 0.110074 -2.02201 0
M  V30 3143 C 292.761 1.4146 -1.33489 0
M  V30 3144 O 292.016 1.90617 -0.443125 0
M  V30 3145 C 292.315 0.361728 -3.55565 0
M  V30 3146 C 291.981 -0.858717 -4.42648 0
M  V30 3147 C 290.643 -1.19338 -4.66167 0
M  V30 3148 C 292.995 -1.67221 -4.93646 0
M  V30 3149 C 290.323 -2.34195 -5.37931 0
M  V30 3150 C 292.675 -2.8119 -5.6667 0
M  V30 3151 C 291.339 -3.15094 -5.88449 0
M  V30 3152 H 290.609 0.040279 -0.739904 0
M  V30 3153 H 293.256 -0.601696 -1.81802 0
M  V30 3154 H 291.561 1.15554 -3.74372 0
M  V30 3155 H 293.258 0.80996 -3.92735 0
M  V30 3156 H 289.848 -0.58796 -4.24548 0
M  V30 3157 H 294.032 -1.42686 -4.75347 0
M  V30 3158 H 289.288 -2.6076 -5.53005 0
M  V30 3159 H 293.462 -3.44585 -6.05173 0
M  V30 3160 H 291.089 -4.04204 -6.43835 0
M  V30 3161 N 292.664 1.56529 -0.183458 0
M  V30 3162 C 294.08 1.58664 0.172554 0
M  V30 3163 C 294.28 1.19925 1.61926 0
M  V30 3164 O 293.336 0.916534 2.35278 0
M  V30 3165 C 294.649 3.00463 -0.119262 0
M  V30 3166 C 296.197 3.12945 -0.0584396 0
M  V30 3167 C 296.672 4.56857 -0.323408 0
M  V30 3168 N 298.163 4.62403 -0.271612 0
M  V30 3169 C 298.898 5.71626 -0.450639 0
M  V30 3170 N 298.394 6.89362 -0.689384 0
M  V30 3171 N 300.187 5.60775 -0.385701 0
M  V30 3172 H 292.338 1.79994 -1.12765 0
M  V30 3173 H 294.601 0.834808 -0.449222 0
M  V30 3174 H 294.307 3.33326 -1.12192 0
M  V30 3175 H 294.181 3.72659 0.583544 0
M  V30 3176 H 296.568 2.79902 0.934805 0
M  V30 3177 H 296.649 2.4316 -0.794144 0
M  V30 3178 H 296.293 4.9061 -1.31392 0
M  V30 3179 H 296.223 5.24816 0.43305 0
M  V30 3180 H 298.714 3.77785 -0.0932256 0
M  V30 3181 H 299.027 7.68489 -0.815113 0
M  V30 3182 H 297.372 6.91196 -0.726142 0
M  V30 3183 H 300.563 4.67674 -0.199687 0
M  V30 3184 H 300.736 6.4584 -0.528646 0
M  V30 3185 N 294.142 -0.090211 1.57342 0
M  V30 3186 C 295.052 -1.12735 2.05738 0
M  V30 3187 C 296.068 -1.43557 0.983231 0
M  V30 3188 O 297.244 -1.54101 1.29672 0
M  V30 3189 C 294.309 -2.42659 2.47624 0
M  V30 3190 C 293.37 -2.18975 3.69254 0
M  V30 3191 C 292.603 -3.42704 4.09133 0
M  V30 3192 O 292.826 -4.51127 3.49057 0
M  V30 3193 O 291.76 -3.32003 5.02053 0
M  V30 3194 H 295.586 -0.746279 2.94388 0
M  V30 3195 H 293.171 -0.303064 1.46294 0
M  V30 3196 H 295.053 -3.19155 2.7517 0
M  V30 3197 H 293.728 -2.80182 1.62109 0
M  V30 3198 H 292.635 -1.40244 3.46818 0
M  V30 3199 H 293.968 -1.86342 4.55563 0
M  V30 3200 N 295.62 -1.53406 -0.361157 0
M  V30 3201 C 296.869 -1.69022 -1.10066 0
M  V30 3202 C 297.182 -0.450838 -1.90333 0
M  V30 3203 O 298.388 -0.487617 -2.67085 0
M  V30 3204 C 296.844 -2.98812 -2.00598 0
M  V30 3205 C 296.452 -4.30027 -1.25621 0
M  V30 3206 C 298.196 -3.23795 -2.74513 0
M  V30 3207 C 296.103 -5.50903 -2.1508 0
M  V30 3208 H 295.033 -0.629776 -0.414606 0
M  V30 3209 H 297.684 -1.79907 -0.361348 0
M  V30 3210 H 296.066 -2.8174 -2.78278 0
M  V30 3211 H 297.24 -4.57745 -0.529739 0
M  V30 3212 H 295.555 -4.11522 -0.635496 0
M  V30 3213 H 298.152 -4.11289 -3.41681 0
M  V30 3214 H 298.495 -2.40045 -3.40123 0
M  V30 3215 H 299.028 -3.41561 -2.03914 0
M  V30 3216 H 295.767 -6.37143 -1.54041 0
M  V30 3217 H 295.287 -5.27459 -2.85565 0
M  V30 3218 H 296.966 -5.85865 -2.74538 0
M  V30 3219 N 297.098 0.621204 -1.44841 0
M  V30 3220 C 298.008 1.7612 -1.5498 0
M  V30 3221 C 299.024 1.68477 -0.434927 0
M  V30 3222 O 300.2 1.89076 -0.693693 0
M  V30 3223 C 297.265 3.1254 -1.50065 0
M  V30 3224 C 296.326 3.31741 -2.72482 0
M  V30 3225 C 295.559 4.61653 -2.67792 0
M  V30 3226 O 295.782 5.431 -1.74352 0
M  V30 3227 O 294.716 4.83271 -3.58794 0
M  V30 3228 H 298.542 1.70518 -2.51311 0
M  V30 3229 H 296.127 0.783643 -1.27198 0
M  V30 3230 H 298.009 3.93844 -1.49882 0
M  V30 3231 H 296.684 3.18663 -0.568806 0
M  V30 3232 H 295.591 2.50077 -2.7823 0
M  V30 3233 H 296.924 3.30486 -3.64746 0
M  V30 3234 N 298.576 1.31904 0.862503 0
M  V30 3235 C 299.509 1.14514 1.97388 0
M  V30 3236 C 300.487 0.0466493 1.62533 0
M  V30 3237 O 301.671 0.204484 1.87388 0
M  V30 3238 C 298.798 0.751347 3.30261 0
M  V30 3239 C 297.844 1.85395 3.84098 0
M  V30 3240 S 298.677 3.46081 4.08642 0
M  V30 3241 C 299.833 3.08655 5.44502 0
M  V30 3242 H 300.066 2.08597 2.11836 0
M  V30 3243 H 297.599 1.16475 1.01356 0
M  V30 3244 H 299.557 0.530901 4.07052 0
M  V30 3245 H 298.218 -0.170493 3.13637 0
M  V30 3246 H 297.411 1.53122 4.80177 0
M  V30 3247 H 297.013 2.02984 3.14123 0
M  V30 3248 H 299.305 2.58012 6.26447 0
M  V30 3249 H 300.248 4.03726 5.81731 0
M  V30 3250 H 300.656 2.45891 5.08132 0
M  V30 3251 N 300.054 -1.07777 1.14986 0
M  V30 3252 C 301.303 -1.79669 0.916617 0
M  V30 3253 C 301.616 -1.87474 -0.557917 0
M  V30 3254 O 302.822 -2.55845 -0.908617 0
M  V30 3255 C 301.278 -3.22848 1.59051 0
M  V30 3256 C 300.886 -3.23257 3.10176 0
M  V30 3257 C 302.63 -3.99379 1.43864 0
M  V30 3258 C 300.537 -4.61063 3.70372 0
M  V30 3259 H 299.467 -0.673349 0.33929 0
M  V30 3260 H 302.118 -1.21003 1.37951 0
M  V30 3261 H 300.5 -3.8168 1.0553 0
M  V30 3262 H 301.674 -2.74095 3.70417 0
M  V30 3263 H 299.989 -2.60222 3.25074 0
M  V30 3264 H 302.586 -5.0122 1.86232 0
M  V30 3265 H 302.929 -4.14511 0.385564 0
M  V30 3266 H 303.462 -3.47032 1.94457 0
M  V30 3267 H 300.201 -4.51135 4.7556 0
M  V30 3268 H 299.721 -5.1048 3.14913 0
M  V30 3269 H 301.4 -5.30034 3.71043 0
M  V30 3270 N 301.532 -0.945985 -1.26051 0
M  V30 3271 C 302.48 -0.450259 -2.282 0
M  V30 3272 C 303.474 0.47497 -1.62605 0
M  V30 3273 O 304.68 0.352653 -1.76512 0
M  V30 3274 H 301.055 -0.127081 -0.741184 0
M  V30 3275 H 303.026 -1.32422 -2.67408 0
M  V30 3276 C 301.775 0.26467 -3.46691 0
M  V30 3277 H 301.098 -0.438123 -3.97392 0
M  V30 3278 H 302.538 0.575678 -4.20074 0
M  V30 3279 C 300.997 1.48416 -3.02447 0
M  V30 3280 O 301.527 2.58227 -3.07704 0
M  V30 3281 N 299.733 1.34243 -2.57735 0
M  V30 3282 H 299.28 0.448994 -2.53657 0
M  V30 3283 H 299.238 2.15957 -2.28495 0
M  V30 3284 N 303.011 1.40521 -0.713556 0
M  V30 3285 C 303.921 2.34522 -0.0606667 0
M  V30 3286 C 304.937 1.57193 0.74607 0
M  V30 3287 O 306.113 1.89591 0.679493 0
M  V30 3288 C 303.178 3.36081 0.851491 0
M  V30 3289 C 302.239 4.29286 0.0349339 0
M  V30 3290 C 301.472 5.25994 0.903649 0
M  V30 3291 O 301.695 5.28616 2.14292 0
M  V30 3292 O 300.629 6.00918 0.343723 0
M  V30 3293 H 304.455 2.91968 -0.835972 0
M  V30 3294 H 302.04 1.41681 -0.47402 0
M  V30 3295 H 303.922 3.98369 1.37404 0
M  V30 3296 H 302.597 2.81052 1.60598 0
M  V30 3297 H 301.504 3.70289 -0.532633 0
M  V30 3298 H 302.837 4.87462 -0.681287 0
M  V30 3299 N 304.489 0.459591 1.5075 0
M  V30 3300 C 305.714 -0.0996819 2.0716 0
M  V30 3301 C 306.139 -1.33761 1.32249 0
M  V30 3302 O 305.497 -1.77551 0.366786 0
M  V30 3303 C 305.545 -0.378226 3.58611 0
M  V30 3304 O 304.649 -1.46081 3.85661 0
M  V30 3305 H 303.99 0.00791392 0.663953 0
M  V30 3306 H 306.52 0.647329 1.9409 0
M  V30 3307 H 306.53 -0.622135 4.03229 0
M  V30 3308 H 305.205 0.526439 4.12555 0
M  V30 3309 H 303.782 -1.20511 3.5289 0
M  V30 3310 N 305.967 -1.56429 0.191757 0
M  V30 3311 C 306.877 -2.22541 -0.742481 0
M  V30 3312 C 307.893 -1.22342 -1.23727 0
M  V30 3313 O 309.069 -1.55069 -1.28513 0
M  V30 3314 C 306.134 -2.8692 -1.94623 0
M  V30 3315 C 305.195 -4.02378 -1.49633 0
M  V30 3316 C 304.428 -4.63678 -2.6427 0
M  V30 3317 O 304.651 -4.23895 -3.81666 0
M  V30 3318 O 303.585 -5.53202 -2.37174 0
M  V30 3319 H 307.411 -3.02977 -0.209462 0
M  V30 3320 H 304.996 -1.49353 -0.0373832 0
M  V30 3321 H 306.878 -3.27663 -2.64982 0
M  V30 3322 H 305.553 -2.09466 -2.46791 0
M  V30 3323 H 304.46 -3.66265 -0.761636 0
M  V30 3324 H 305.793 -4.81487 -1.02134 0
M  V30 3325 N 307.445 0.0818655 -1.57387 0
M  V30 3326 C 308.392 1.09834 -2.0299 0
M  V30 3327 C 309.362 1.39043 -0.908639 0
M  V30 3328 O 310.547 1.50282 -1.17559 0
M  V30 3329 C 307.687 2.40971 -2.47037 0
M  V30 3330 C 306.8 2.18379 -3.7274 0
M  V30 3331 C 305.935 3.43008 -4.0561 0
M  V30 3332 C 304.974 3.15736 -5.24383 0
M  V30 3333 N 304.111 4.32667 -5.52941 0
M  V30 3334 H 308.951 0.702472 -2.89602 0
M  V30 3335 H 306.488 0.33531 -1.43227 0
M  V30 3336 H 308.446 3.1752 -2.70623 0
M  V30 3337 H 307.076 2.78379 -1.63417 0
M  V30 3338 H 306.128 1.32569 -3.56552 0
M  V30 3339 H 307.44 1.94227 -4.59431 0
M  V30 3340 H 306.594 4.27958 -4.30043 0
M  V30 3341 H 305.333 3.70225 -3.17466 0
M  V30 3342 H 304.338 2.2918 -4.99757 0
M  V30 3343 H 305.563 2.8985 -6.14136 0
M  V30 3344 H 303.509 4.59935 -4.67756 0
M  V30 3345 H 303.426 4.11753 -6.34031 0
M  V30 3346 H 304.694 5.18644 -5.81918 0
M  V30 3347 N 308.923 1.53595 0.353017 0
M  V30 3348 C 310.339 1.43648 0.695516 0
M  V30 3349 C 310.539 0.585617 1.92802 0
M  V30 3350 O 309.595 0.0729223 2.52395 0
M  V30 3351 C 310.908 2.8701 0.896991 0
M  V30 3352 C 312.456 2.96723 0.996209 0
M  V30 3353 C 312.931 4.41173 1.23007 0
M  V30 3354 N 314.422 4.44657 1.29749 0
M  V30 3355 C 315.157 5.53547 1.49577 0
M  V30 3356 N 314.653 6.72461 1.66639 0
M  V30 3357 N 316.446 5.41145 1.52048 0
M  V30 3358 H 308.597 2.07415 -0.457481 0
M  V30 3359 H 310.86 0.9372 -0.142687 0
M  V30 3360 H 310.566 3.51644 0.0629938 0
M  V30 3361 H 310.44 3.31401 1.80148 0
M  V30 3362 H 312.827 2.32235 1.82074 0
M  V30 3363 H 312.908 2.55707 0.0688331 0
M  V30 3364 H 312.552 5.06238 0.410505 0
M  V30 3365 H 312.482 4.79772 2.17086 0
M  V30 3366 H 314.973 3.58963 1.18126 0
M  V30 3367 H 315.286 7.51214 1.81378 0
M  V30 3368 H 313.631 6.75423 1.63794 0
M  V30 3369 H 316.822 4.47205 1.38294 0
M  V30 3370 H 316.995 6.26068 1.67159 0
M  V30 3371 N 310.401 -0.613514 1.45168 0
M  V30 3372 C 311.626 -1.40437 1.52618 0
M  V30 3373 C 312.051 -1.87438 0.157707 0
M  V30 3374 O 311.409 -1.59791 -0.856537 0
M  V30 3375 C 311.457 -2.58894 2.51011 0
M  V30 3376 O 310.561 -3.59326 2.02382 0
M  V30 3377 H 309.902 -0.419506 0.514695 0
M  V30 3378 H 312.432 -0.747215 1.90467 0
M  V30 3379 H 312.442 -3.06214 2.69624 0
M  V30 3380 H 311.117 -2.24032 3.50403 0
M  V30 3381 H 309.694 -3.18695 1.93618 0
M  V30 3382 N 311.879 -1.3236 -0.855495 0
M  V30 3383 C 313.104 -1.2601 -1.64731 0
M  V30 3384 C 313.529 0.169068 -1.87339 0
M  V30 3385 O 312.887 1.12016 -1.42556 0
M  V30 3386 C 312.935 -2.02417 -2.98429 0
M  V30 3387 O 312.039 -1.3714 -3.8893 0
M  V30 3388 H 311.38 -0.434325 -0.502253 0
M  V30 3389 H 313.91 -1.74661 -1.06558 0
M  V30 3390 H 313.92 -2.12559 -3.48257 0
M  V30 3391 H 312.595 -3.06343 -2.81295 0
M  V30 3392 H 311.172 -1.3554 -3.47395 0
M  V30 3393 N 313.357 1.07166 -1.15556 0
M  V30 3394 C 314.305 2.16517 -0.8499 0
M  V30 3395 C 315.299 1.68468 0.177454 0
M  V30 3396 O 316.505 1.79971 0.0323026 0
M  V30 3397 H 312.88 0.706652 -0.25719 0
M  V30 3398 H 314.851 2.39514 -1.77976 0
M  V30 3399 C 313.6 3.45855 -0.357682 0
M  V30 3400 H 312.923 3.83214 -1.13961 0
M  V30 3401 H 314.363 4.23607 -0.182489 0
M  V30 3402 C 312.822 3.24062 0.921152 0
M  V30 3403 O 313.352 3.48813 1.9923 0
M  V30 3404 N 311.558 2.77539 0.86141 0
M  V30 3405 H 311.105 2.57598 -0.0104408 0
M  V30 3406 H 311.063 2.63337 1.71758 0
M  V30 3407 N 314.835 0.952656 1.25548 0
M  V30 3408 C 316.082 0.606373 1.93208 0
M  V30 3409 C 316.41 -0.85631 1.74636 0
M  V30 3410 O 315.665 -1.62951 1.08376 0
M  V30 3411 C 315.964 0.908818 3.45652 0
M  V30 3412 C 315.63 2.35722 3.84378 0
M  V30 3413 C 314.292 2.75312 3.9466 0
M  V30 3414 C 316.644 3.29793 4.03591 0
M  V30 3415 C 313.972 4.08047 4.21562 0
M  V30 3416 C 316.324 4.62138 4.31985 0
M  V30 3417 C 314.988 5.01528 4.40484 0
M  V30 3418 H 314.258 0.221888 0.706998 0
M  V30 3419 H 316.905 1.20132 1.49133 0
M  V30 3420 H 315.21 0.231456 3.91116 0
M  V30 3421 H 316.907 0.619498 3.96186 0
M  V30 3422 H 313.497 2.04017 3.76928 0
M  V30 3423 H 317.681 3.00397 3.95064 0
M  V30 3424 H 312.937 4.38212 4.26357 0
M  V30 3425 H 317.111 5.35012 4.45797 0
M  V30 3426 H 314.738 6.04406 4.61083 0
M  V30 3427 N 316.313 -1.40141 0.720998 0
M  V30 3428 C 317.246 -2.2819 0.020916 0
M  V30 3429 C 318.224 -1.43633 -0.762129 0
M  V30 3430 O 319.408 -1.7304 -0.747633 0
M  V30 3431 C 316.535 -3.24281 -0.977715 0
M  V30 3432 C 315.581 -4.25548 -0.284836 0
M  V30 3433 S 316.414 -5.26247 0.991169 0
M  V30 3434 C 317.57 -6.259 -0.0052214 0
M  V30 3435 H 317.803 -2.87218 0.767649 0
M  V30 3436 H 315.336 -1.45656 0.512233 0
M  V30 3437 H 317.294 -3.80167 -1.54865 0
M  V30 3438 H 315.955 -2.643 -1.69719 0
M  V30 3439 H 315.148 -4.93154 -1.03996 0
M  V30 3440 H 314.75 -3.73389 0.213684 0
M  V30 3441 H 317.042 -6.72143 -0.850279 0
M  V30 3442 H 317.985 -7.05224 0.637599 0
M  V30 3443 H 318.393 -5.63277 -0.371366 0
M  V30 3444 N 317.792 -0.46758 -1.50504 0
M  V30 3445 C 319.022 0.086288 -2.0642 0
M  V30 3446 C 319.43 1.34369 -1.33197 0
M  V30 3447 O 318.773 1.79431 -0.393747 0
M  V30 3448 C 318.835 0.443846 -3.5675 0
M  V30 3449 C 318.499 -0.711035 -4.51435 0
M  V30 3450 C 319.496 -1.59205 -4.94924 0
M  V30 3451 C 317.181 -0.900363 -4.94165 0
M  V30 3452 C 319.175 -2.64683 -5.79846 0
M  V30 3453 C 316.862 -1.95837 -5.7887 0
M  V30 3454 C 317.86 -2.82997 -6.21612 0
M  V30 3455 O 317.548 -3.86977 -7.0463 0
M  V30 3456 H 317.28 -0.00217814 -0.675996 0
M  V30 3457 H 319.834 -0.654346 -1.94698 0
M  V30 3458 H 318.064 1.23762 -3.6636 0
M  V30 3459 H 319.753 0.932386 -3.95046 0
M  V30 3460 H 320.519 -1.45745 -4.62583 0
M  V30 3461 H 316.398 -0.231427 -4.60419 0
M  V30 3462 H 319.942 -3.32745 -6.13128 0
M  V30 3463 H 315.839 -2.09305 -6.10624 0
M  V30 3464 H 316.607 -3.83923 -7.22873 0
M  V30 3465 N 319.27 1.56325 -0.20005 0
M  V30 3466 C 320.2 2.22318 0.713916 0
M  V30 3467 C 321.181 1.18788 1.21752 0
M  V30 3468 O 322.366 1.47309 1.26545 0
M  V30 3469 C 319.496 2.88639 1.93144 0
M  V30 3470 C 318.45 3.98457 1.56255 0
M  V30 3471 C 317.776 4.51967 2.85709 0
M  V30 3472 C 319.076 5.16612 0.768747 0
M  V30 3473 H 320.77 2.98952 0.163755 0
M  V30 3474 H 318.316 1.43792 0.0773219 0
M  V30 3475 H 320.269 3.33491 2.57608 0
M  V30 3476 H 318.993 2.09419 2.50621 0
M  V30 3477 H 317.652 3.54305 0.941471 0
M  V30 3478 H 317.3 3.69503 3.41287 0
M  V30 3479 H 317 5.26071 2.6177 0
M  V30 3480 H 318.524 4.99523 3.51154 0
M  V30 3481 H 319.938 5.57977 1.3166 0
M  V30 3482 H 318.335 5.96812 0.627286 0
M  V30 3483 H 319.405 4.84358 -0.229168 0
M  V30 3484 N 320.748 -0.0735177 1.57428 0
M  V30 3485 C 321.681 -1.11932 1.98863 0
M  V30 3486 C 322.659 -1.37666 0.865266 0
M  V30 3487 O 323.843 -1.51068 1.12742 0
M  V30 3488 C 320.97 -2.46403 2.32386 0
M  V30 3489 C 320.016 -2.36815 3.54713 0
M  V30 3490 S 320.849 -1.76392 5.05614 0
M  V30 3491 C 322.005 -3.12444 5.42337 0
M  V30 3492 H 322.238 -0.766212 2.87257 0
M  V30 3493 H 319.771 -0.281987 1.51803 0
M  V30 3494 H 321.729 -3.23755 2.52375 0
M  V30 3495 H 320.39 -2.78876 1.44524 0
M  V30 3496 H 319.583 -3.35977 3.7568 0
M  V30 3497 H 319.185 -1.67598 3.34345 0
M  V30 3498 H 321.477 -4.08753 5.40303 0
M  V30 3499 H 322.42 -2.96258 6.43146 0
M  V30 3500 H 322.828 -3.1297 4.69798 0
M  V30 3501 N 322.226 -1.5378 -0.344866 0
M  V30 3502 C 323.472 -1.71216 -1.08687 0
M  V30 3503 C 323.805 -0.473281 -1.88345 0
M  V30 3504 O 323.08 0.52968 -1.87149 0
M  V30 3505 C 323.363 -2.97486 -2.02914 0
M  V30 3506 C 323.216 -4.31579 -1.26727 0
M  V30 3507 C 324.535 -3.19422 -3.0275 0
M  V30 3508 H 321.654 -0.62301 -0.393735 0
M  V30 3509 H 324.296 -1.8645 -0.365563 0
M  V30 3510 H 322.446 -2.84629 -2.64421 0
M  V30 3511 H 324.118 -4.56284 -0.67845 0
M  V30 3512 H 322.361 -4.30049 -0.569273 0
M  V30 3513 H 323.032 -5.16106 -1.95803 0
M  V30 3514 H 325.508 -3.316 -2.51357 0
M  V30 3515 H 324.384 -4.09169 -3.65885 0
M  V30 3516 H 324.645 -2.35656 -3.74057 0
M  V30 3517 N 323.704 0.605807 -1.45491 0
M  V30 3518 C 324.614 1.74466 -1.56839 0
M  V30 3519 C 325.63 1.68006 -0.452772 0
M  V30 3520 O 326.806 1.8833 -0.713708 0
M  V30 3521 C 323.871 3.10931 -1.53371 0
M  V30 3522 C 322.932 3.28832 -2.75986 0
M  V30 3523 C 322.165 4.58787 -2.72673 0
M  V30 3524 O 322.388 5.4122 -1.80102 0
M  V30 3525 O 321.322 4.79438 -3.63899 0
M  V30 3526 H 325.148 1.67843 -2.53106 0
M  V30 3527 H 322.733 0.770108 -1.28022 0
M  V30 3528 H 324.615 3.92233 -1.54051 0
M  V30 3529 H 323.29 3.18042 -0.602572 0
M  V30 3530 H 322.197 2.47112 -2.80867 0
M  V30 3531 H 323.53 3.26599 -3.68231 0
M  V30 3532 N 325.182 1.32811 0.848464 0
M  V30 3533 C 326.429 1.23724 1.60308 0
M  V30 3534 C 326.757 -0.1994 1.93475 0
M  V30 3535 O 326.012 -1.15406 1.5805 0
M  V30 3536 C 326.311 2.04831 2.92881 0
M  V30 3537 C 325.977 3.54125 2.79117 0
M  V30 3538 C 324.639 3.94829 2.7507 0
M  V30 3539 C 326.991 4.49036 2.64606 0
M  V30 3540 C 324.319 5.28675 2.544 0
M  V30 3541 C 326.671 5.83033 2.4547 0
M  V30 3542 C 325.335 6.22931 2.39819 0
M  V30 3543 H 324.605 0.452737 0.586609 0
M  V30 3544 H 327.252 1.64301 0.983743 0
M  V30 3545 H 325.557 1.57001 3.58968 0
M  V30 3546 H 327.254 1.95164 3.50303 0
M  V30 3547 H 323.844 3.21801 2.83094 0
M  V30 3548 H 328.028 4.18505 2.66772 0
M  V30 3549 H 323.284 5.58637 2.48465 0
M  V30 3550 H 327.458 6.56186 2.33222 0
M  V30 3551 H 325.085 7.26584 2.23562 0
M  V30 3552 N 326.66 -1.06551 1.16123 0
M  V30 3553 C 328.076 -1.3142 0.905585 0
M  V30 3554 C 328.276 -1.96571 -0.442964 0
M  V30 3555 O 327.332 -2.23068 -1.18308 0
M  V30 3556 C 328.645 -2.19741 2.05267 0
M  V30 3557 C 330.193 -2.33165 2.08813 0
M  V30 3558 C 330.668 -3.24838 3.22868 0
M  V30 3559 N 332.159 -3.32421 3.22568 0
M  V30 3560 C 332.894 -4.0344 4.0746 0
M  V30 3561 N 332.39 -4.77003 5.02434 0
M  V30 3562 N 334.183 -3.99464 3.95456 0
M  V30 3563 H 326.334 -0.626548 2.02949 0
M  V30 3564 H 328.597 -0.338777 0.8854 0
M  V30 3565 H 328.303 -1.79142 3.02657 0
M  V30 3566 H 328.177 -3.20313 1.99198 0
M  V30 3567 H 330.564 -2.73013 1.12018 0
M  V30 3568 H 330.645 -1.3227 2.18948 0
M  V30 3569 H 330.289 -2.85708 4.19921 0
M  V30 3570 H 330.219 -4.25707 3.0997 0
M  V30 3571 H 332.71 -2.79994 2.53795 0
M  V30 3572 H 333.023 -5.28712 5.63634 0
M  V30 3573 H 331.368 -4.75992 5.06415 0
M  V30 3574 H 334.559 -3.4111 3.20564 0
M  V30 3575 H 334.732 -4.54544 4.61837 0
M  V30 3576 N 328.138 -0.959301 -1.25041 0
M  V30 3577 C 329.378 -0.624343 -1.94631 0
M  V30 3578 C 329.742 0.82403 -1.73418 0
M  V30 3579 O 330.943 1.26881 -2.3697 0
M  V30 3580 C 329.214 -0.978805 -3.43736 0
M  V30 3581 S 330.773 -0.757127 -4.32219 0
M  V30 3582 H 327.591 -0.229327 -0.673001 0
M  V30 3583 H 330.193 -1.23447 -1.51595 0
M  V30 3584 H 328.897 -2.02997 -3.56679 0
M  V30 3585 H 328.428 -0.359117 -3.91757 0
M  V30 3586 H 330.443 0.369759 -4.9482 0
M  V30 3587 N 329.616 1.39756 -0.72842 0
M  V30 3588 C 330.862 2.00942 -0.273892 0
M  V30 3589 C 331.195 1.57656 1.13394 0
M  V30 3590 O 330.47 0.802434 1.77176 0
M  V30 3591 C 330.753 3.58211 -0.368346 0
M  V30 3592 C 330.606 4.11534 -1.81548 0
M  V30 3593 C 331.925 4.39372 0.253054 0
M  V30 3594 H 329.044 0.730047 -0.100996 0
M  V30 3595 H 331.686 1.66056 -0.923337 0
M  V30 3596 H 329.836 3.88061 0.184588 0
M  V30 3597 H 331.508 3.92431 -2.42478 0
M  V30 3598 H 329.751 3.65341 -2.33898 0
M  V30 3599 H 330.422 5.20682 -1.83288 0
M  V30 3600 H 332.898 4.15527 -0.218224 0
M  V30 3601 H 331.774 5.48677 0.156585 0
M  V30 3602 H 332.035 4.21358 1.33826 0
M  V30 3603 N 331.094 0.475555 1.50254 0
M  V30 3604 C 332.041 -0.316293 2.28622 0
M  V30 3605 C 333.011 -0.983227 1.33873 0
M  V30 3606 O 334.196 -0.994805 1.62814 0
M  V30 3607 C 331.336 -1.38975 3.1588 0
M  V30 3608 C 330.449 -0.737146 4.25664 0
M  V30 3609 C 329.584 -1.78887 5.00173 0
M  V30 3610 C 328.623 -1.11676 6.01826 0
M  V30 3611 N 327.76 -2.11154 6.69596 0
M  V30 3612 H 332.6 0.358297 2.95838 0
M  V30 3613 H 330.137 0.188541 1.45887 0
M  V30 3614 H 332.095 -2.02383 3.64825 0
M  V30 3615 H 330.725 -2.03344 2.50701 0
M  V30 3616 H 329.777 0.0096065 3.80399 0
M  V30 3617 H 331.089 -0.206816 4.98371 0
M  V30 3618 H 330.243 -2.49865 5.52859 0
M  V30 3619 H 328.982 -2.35302 4.27182 0
M  V30 3620 H 327.987 -0.392633 5.48396 0
M  V30 3621 H 329.212 -0.55945 6.76792 0
M  V30 3622 H 327.158 -2.66577 5.99394 0
M  V30 3623 H 327.075 -1.63118 7.38193 0
M  V30 3624 H 328.343 -2.81497 7.26897 0
M  V30 3625 N 332.573 -1.56217 0.208337 0
M  V30 3626 C 333.813 -1.99849 -0.428927 0
M  V30 3627 C 334.177 -1.09262 -1.57879 0
M  V30 3628 O 335.378 -1.42185 -2.28116 0
M  V30 3629 C 333.649 -3.46777 -0.864879 0
M  V30 3630 S 335.208 -4.12434 -1.49811 0
M  V30 3631 H 332.026 -0.697742 -0.136665 0
M  V30 3632 H 334.628 -1.92953 0.314519 0
M  V30 3633 H 333.332 -4.10396 -0.0181326 0
M  V30 3634 H 332.863 -3.57518 -1.64147 0
M  V30 3635 H 334.878 -4.10532 -2.78707 0
M  V30 3636 N 334.051 0.0651679 -1.57465 0
M  V30 3637 C 335.328 0.79644 -1.78651 0
M  V30 3638 C 335.708 1.95454 -0.797566 0
M  V30 3639 O 335.056 2.27882 0.167946 0
M  V30 3640 C 335.266 1.26322 -3.25337 0
M  V30 3641 C 336.614 1.6939 -3.89348 0
M  V30 3642 O 337.638 1.35872 -3.29268 0
M  V30 3643 O 336.497 2.31471 -4.95059 0
M  V30 3644 H 333.591 0.382157 -0.733407 0
M  V30 3645 H 336.137 0.0447311 -1.69641 0
M  V30 3646 H 334.909 0.434859 -3.88876 0
M  V30 3647 H 334.532 2.07604 -3.39096 0
M  V30 3648 N 335.529 1.53961 0.336706 0
M  V30 3649 C 336.806 1.62171 1.09361 0
M  V30 3650 C 337.186 0.447263 2.06307 0
M  V30 3651 O 336.534 -0.559802 2.21537 0
M  V30 3652 C 336.744 2.98565 1.80721 0
M  V30 3653 C 338.092 3.54157 2.34218 0
M  V30 3654 O 339.116 3.00784 1.90807 0
M  V30 3655 O 337.975 4.47528 3.13657 0
M  V30 3656 H 335.069 0.6562 0.503319 0
M  V30 3657 H 337.615 1.66307 0.33765 0
M  V30 3658 H 336.387 3.75482 1.10132 0
M  V30 3659 H 336.01 2.9805 2.63158 0
M  V30 3660 N 337.007 -0.598083 1.45811 0
M  V30 3661 C 337.954 -1.7082 1.55207 0
M  V30 3662 C 338.924 -1.61278 0.39732 0
M  V30 3663 O 340.109 -1.80717 0.612038 0
M  V30 3664 C 337.249 -3.09144 1.53376 0
M  V30 3665 C 336.362 -3.29423 2.79472 0
M  V30 3666 C 335.497 -4.57907 2.69248 0
M  V30 3667 C 334.536 -4.71476 3.90354 0
M  V30 3668 N 333.673 -5.9127 3.78608 0
M  V30 3669 H 338.513 -1.62125 2.50039 0
M  V30 3670 H 336.05 -0.790389 1.24062 0
M  V30 3671 H 338.008 -3.89186 1.50301 0
M  V30 3672 H 336.638 -3.16773 0.620876 0
M  V30 3673 H 335.69 -2.43091 2.92594 0
M  V30 3674 H 337.002 -3.3532 3.69272 0
M  V30 3675 H 336.156 -5.46157 2.64192 0
M  V30 3676 H 334.895 -4.54423 1.77063 0
M  V30 3677 H 333.9 -3.81648 3.95759 0
M  V30 3678 H 335.125 -4.76751 4.83617 0
M  V30 3679 H 333.071 -5.88813 2.89199 0
M  V30 3680 H 332.988 -5.98369 4.6205 0
M  V30 3681 H 334.256 -6.81992 3.77501 0
M  V30 3682 N 338.485 -1.33259 -0.841409 0
M  V30 3683 C 339.395 -1.25332 -1.98316 0
M  V30 3684 C 340.411 -0.164364 -1.73222 0
M  V30 3685 O 341.587 -0.387486 -1.97637 0
M  V30 3686 C 338.652 -0.990078 -3.32262 0
M  V30 3687 C 337.713 -2.16879 -3.70489 0
M  V30 3688 C 336.946 -1.91801 -4.98044 0
M  V30 3689 O 337.169 -0.867075 -5.63771 0
M  V30 3690 O 336.103 -2.78267 -5.33714 0
M  V30 3691 H 339.929 -2.21344 -2.07944 0
M  V30 3692 H 337.514 -1.1328 -0.974058 0
M  V30 3693 H 339.396 -0.860321 -4.12524 0
M  V30 3694 H 338.071 -0.0602155 -3.23644 0
M  V30 3695 H 336.978 -2.35407 -2.90748 0
M  V30 3696 H 338.311 -3.0819 -3.8377 0
M  V30 3697 N 339.963 1.05934 -1.16686 0
M  V30 3698 C 341.193 1.82226 -0.973515 0
M  V30 3699 C 341.601 1.8297 0.481532 0
M  V30 3700 O 340.944 1.25009 1.34604 0
M  V30 3701 C 341.006 3.29897 -1.42858 0
M  V30 3702 C 340.67 3.52849 -2.90425 0
M  V30 3703 C 341.667 3.45595 -3.88407 0
M  V30 3704 C 339.352 3.80053 -3.28428 0
M  V30 3705 C 341.346 3.65217 -5.22394 0
M  V30 3706 C 339.033 3.99325 -4.62583 0
M  V30 3707 C 340.031 3.91905 -5.59374 0
M  V30 3708 O 339.719 4.10647 -6.91104 0
M  V30 3709 H 339.451 0.581314 -0.345036 0
M  V30 3710 H 342.005 1.3453 -1.55212 0
M  V30 3711 H 340.235 3.78472 -0.793477 0
M  V30 3712 H 341.924 3.87692 -1.20207 0
M  V30 3713 H 342.69 3.24564 -3.60393 0
M  V30 3714 H 338.569 3.84936 -2.53664 0
M  V30 3715 H 342.113 3.59341 -5.9793 0
M  V30 3716 H 338.01 4.19846 -4.90306 0
M  V30 3717 H 338.778 4.27915 -6.97733 0
M  V30 3718 N 341.441 0.965919 1.2453 0
M  V30 3719 C 342.689 0.625593 1.92174 0
M  V30 3720 C 343.01 -0.841652 1.75901 0
M  V30 3721 O 342.28 -1.60061 1.12948 0
M  V30 3722 H 340.86 0.228388 0.71123 0
M  V30 3723 H 343.522 1.2266 1.51461 0
M  V30 3724 H 342.618 0.864653 2.99884 0
M  V30 3725 N 342.919 -1.39368 0.735821 0
M  V30 3726 C 344.168 -1.99733 0.281004 0
M  V30 3727 C 344.481 -1.59055 -1.13846 0
M  V30 3728 O 345.687 -2.12262 -1.69284 0
M  V30 3729 C 344.143 -3.57057 0.451462 0
M  V30 3730 C 343.751 -4.06697 1.87886 0
M  V30 3731 C 345.495 -4.2446 0.0584616 0
M  V30 3732 C 343.402 -5.56598 1.99883 0
M  V30 3733 H 342.332 -0.747163 0.101311 0
M  V30 3734 H 344.983 -1.59357 0.909819 0
M  V30 3735 H 343.365 -3.95234 -0.246263 0
M  V30 3736 H 344.539 -3.79853 2.60861 0
M  V30 3737 H 342.854 -3.5196 2.22515 0
M  V30 3738 H 345.451 -5.34549 0.127099 0
M  V30 3739 H 345.794 -4.04444 -0.986433 0
M  V30 3740 H 346.327 -3.9146 0.707374 0
M  V30 3741 H 343.066 -5.81494 3.02564 0
M  V30 3742 H 342.586 -5.85242 1.31346 0
M  V30 3743 H 344.265 -6.22022 1.78039 0
M  V30 3744 N 344.397 -0.483516 -1.5 0
M  V30 3745 C 345.643 0.0672592 -2.02688 0
M  V30 3746 C 345.976 1.38247 -1.36387 0
M  V30 3747 O 345.251 1.88131 -0.493675 0
M  V30 3748 C 345.534 0.238109 -3.59312 0
M  V30 3749 C 345.387 -1.099 -4.36168 0
M  V30 3750 C 346.706 0.986916 -4.28892 0
M  V30 3751 H 343.825 0.0229696 -0.736642 0
M  V30 3752 H 346.467 -0.631527 -1.79197 0
M  V30 3753 H 344.617 0.8333 -3.79458 0
M  V30 3754 H 346.289 -1.73172 -4.27562 0
M  V30 3755 H 344.532 -1.69261 -3.99416 0
M  V30 3756 H 345.203 -0.932954 -5.44059 0
M  V30 3757 H 347.679 0.482302 -4.13295 0
M  V30 3758 H 346.555 1.07527 -5.38265 0
M  V30 3759 H 346.816 2.0265 -3.92919 0
M  V30 3760 N 345.875 1.56104 -0.216619 0
M  V30 3761 C 347.105 2.02269 0.420802 0
M  V30 3762 C 347.513 1.09575 1.5424 0
M  V30 3763 O 346.856 0.0967308 1.83445 0
M  V30 3764 C 346.918 3.44784 1.01806 0
M  V30 3765 C 346.582 4.56988 0.0325154 0
M  V30 3766 C 347.579 5.14225 -0.766055 0
M  V30 3767 C 345.264 5.02228 -0.0848092 0
M  V30 3768 C 347.258 6.15169 -1.6687 0
M  V30 3769 C 344.945 6.03011 -0.990994 0
M  V30 3770 C 345.943 6.59357 -1.78149 0
M  V30 3771 O 345.631 7.58179 -2.67245 0
M  V30 3772 H 345.363 0.667353 0.107776 0
M  V30 3773 H 347.917 2.02747 -0.329034 0
M  V30 3774 H 346.147 3.41359 1.81689 0
M  V30 3775 H 347.836 3.74626 1.56237 0
M  V30 3776 H 348.602 4.80126 -0.685836 0
M  V30 3777 H 344.481 4.58054 0.520349 0
M  V30 3778 H 348.025 6.59076 -2.28615 0
M  V30 3779 H 343.922 6.36532 -1.07225 0
M  V30 3780 H 344.69 7.75682 -2.61265 0
M  V30 3781 N 347.353 -0.0568162 1.57498 0
M  V30 3782 C 348.583 -0.764515 1.91934 0
M  V30 3783 C 348.991 -1.70877 0.81227 0
M  V30 3784 O 348.334 -1.82351 -0.222213 0
M  V30 3785 C 348.396 -1.5994 3.21962 0
M  V30 3786 C 348.06 -0.822925 4.4953 0
M  V30 3787 C 349.057 -0.135464 5.19723 0
M  V30 3788 C 346.742 -0.785666 4.96117 0
M  V30 3789 C 348.736 0.578861 6.34766 0
M  V30 3790 C 346.423 -0.0675784 6.11063 0
M  V30 3791 C 347.421 0.613471 6.80239 0
M  V30 3792 O 347.109 1.31996 7.92989 0
M  V30 3793 H 346.841 -0.221647 0.63863 0
M  V30 3794 H 349.395 -0.0268218 2.05382 0
M  V30 3795 H 347.625 -2.38026 3.04763 0
M  V30 3796 H 349.314 -2.18715 3.41934 0
M  V30 3797 H 350.08 -0.155458 4.84751 0
M  V30 3798 H 345.959 -1.30524 4.42136 0
M  V30 3799 H 349.503 1.111 6.88696 0
M  V30 3800 H 345.4 -0.0455636 6.45484 0
M  V30 3801 H 346.168 1.23077 8.09194 0
M  V30 3802 N 348.832 -1.54138 -0.328536 0
M  V30 3803 C 349.742 -1.86192 -1.42723 0
M  V30 3804 C 350.758 -0.753382 -1.56844 0
M  V30 3805 O 351.934 -1.04718 -1.72035 0
M  V30 3806 C 348.999 -2.07824 -2.77507 0
M  V30 3807 C 348.06 -3.31641 -2.72603 0
M  V30 3808 C 347.293 -3.52232 -4.00959 0
M  V30 3809 O 347.516 -2.7636 -4.9898 0
M  V30 3810 O 346.45 -4.45699 -4.0452 0
M  V30 3811 H 350.276 -2.79608 -1.18547 0
M  V30 3812 H 347.861 -1.3998 -0.522104 0
M  V30 3813 H 349.743 -2.23411 -3.57303 0
M  V30 3814 H 348.418 -1.17596 -3.01584 0
M  V30 3815 H 347.325 -3.21444 -1.91376 0
M  V30 3816 H 348.658 -4.2191 -2.53481 0
M  V30 3817 N 350.31 0.590341 -1.46126 0
M  V30 3818 C 351.257 1.69994 -1.56111 0
M  V30 3819 C 352.227 1.61065 -0.405867 0
M  V30 3820 O 353.412 1.8039 -0.621613 0
M  V30 3821 C 350.552 3.08326 -1.55013 0
M  V30 3822 C 349.665 3.27936 -2.81215 0
M  V30 3823 C 348.8 4.56473 -2.71673 0
M  V30 3824 C 347.839 4.694 -3.92849 0
M  V30 3825 N 346.976 5.89254 -3.81738 0
M  V30 3826 H 351.816 1.60797 -2.50895 0
M  V30 3827 H 349.353 0.783799 -1.24479 0
M  V30 3828 H 351.311 3.88383 -1.52362 0
M  V30 3829 H 349.941 3.16439 -0.637667 0
M  V30 3830 H 348.993 2.41536 -2.93879 0
M  V30 3831 H 350.305 3.33357 -3.71045 0
M  V30 3832 H 349.459 5.44748 -2.67085 0
M  V30 3833 H 348.198 4.53477 -1.7947 0
M  V30 3834 H 347.203 3.79544 -3.97777 0
M  V30 3835 H 348.428 4.7418 -4.86138 0
M  V30 3836 H 346.374 5.87271 -2.92317 0
M  V30 3837 H 346.291 5.95911 -4.65217 0
M  V30 3838 H 347.559 6.79981 -3.81112 0
M  V30 3839 N 351.788 1.33704 0.83433 0
M  V30 3840 C 353.065 1.16011 1.57483 0
M  V30 3841 C 353.445 -0.27176 2.09343 0
M  V30 3842 O 352.793 -1.27146 1.89858 0
M  V30 3843 C 353.003 2.20507 2.70514 0
M  V30 3844 C 354.351 2.54898 3.39577 0
M  V30 3845 O 355.375 2.19209 2.80759 0
M  V30 3846 O 354.234 3.16158 4.45765 0
M  V30 3847 H 351.328 0.448992 0.694503 0
M  V30 3848 H 353.874 1.453 0.876691 0
M  V30 3849 H 352.646 3.16667 2.29865 0
M  V30 3850 H 352.269 1.92329 3.47987 0
M  V30 3851 N 353.266 -1.05314 1.17247 0
M  V30 3852 C 354.514 -1.77941 0.958194 0
M  V30 3853 C 354.835 -1.88089 -0.514556 0
M  V30 3854 O 354.105 -1.39676 -1.37359 0
M  V30 3855 H 352.685 -0.659116 0.351533 0
M  V30 3856 H 355.347 -1.27166 1.47699 0
M  V30 3857 H 354.443 -2.79663 1.38546 0
M  V30 3858 N 354.744 -0.972509 -1.24016 0
M  V30 3859 C 356.021 -0.553733 -1.87598 0
M  V30 3860 C 356.401 0.969158 -1.87538 0
M  V30 3861 O 355.749 1.84255 -1.35139 0
M  V30 3862 C 355.959 -1.15076 -3.29482 0
M  V30 3863 C 357.307 -1.23862 -4.06132 0
M  V30 3864 O 358.331 -1.10363 -3.38672 0
M  V30 3865 O 357.19 -1.45252 -5.26844 0
M  V30 3866 H 354.284 -0.185331 -0.805966 0
M  V30 3867 H 356.83 -1.06709 -1.31952 0
M  V30 3868 H 355.602 -2.19333 -3.2405 0
M  V30 3869 H 355.225 -0.621746 -3.92709 0
M  V30 3870 N 356.222 1.38976 -0.743202 0
M  V30 3871 C 357.132 2.3434 -0.110399 0
M  V30 3872 C 358.148 1.58741 0.712559 0
M  V30 3873 O 359.324 1.9099 0.639125 0
M  V30 3874 C 356.389 3.37812 0.780012 0
M  V30 3875 C 355.45 4.29263 -0.0561319 0
M  V30 3876 C 354.683 5.27793 0.791875 0
M  V30 3877 O 354.906 5.33043 2.03031 0
M  V30 3878 O 353.84 6.01512 0.216183 0
M  V30 3879 H 357.666 2.90129 -0.897714 0
M  V30 3880 H 355.251 1.40643 -0.503966 0
M  V30 3881 H 357.133 4.01194 1.28923 0
M  V30 3882 H 355.808 2.84395 1.546 0
M  V30 3883 H 354.715 3.69076 -0.611056 0
M  V30 3884 H 356.048 4.85907 -0.784531 0
M  V30 3885 N 357.7 0.491464 1.49741 0
M  V30 3886 C 358.925 -0.0557177 2.07325 0
M  V30 3887 C 359.35 -1.30925 1.35056 0
M  V30 3888 O 358.708 -1.76733 0.404365 0
M  V30 3889 C 358.756 -0.302074 3.59333 0
M  V30 3890 O 357.86 -1.37868 3.88672 0
M  V30 3891 H 357.201 0.0219956 0.663636 0
M  V30 3892 H 359.731 0.688352 1.92673 0
M  V30 3893 H 359.741 -0.536464 4.04458 0
M  V30 3894 H 358.416 0.61383 4.11345 0
M  V30 3895 H 356.993 -1.12999 3.55367 0
M  V30 3896 N 359.178 -1.55987 0.224894 0
M  V30 3897 C 360.403 -2.03232 -0.41369 0
M  V30 3898 C 360.828 -1.10359 -1.52323 0
M  V30 3899 O 360.186 -0.092395 -1.81064 0
M  V30 3900 C 360.234 -3.48682 -0.919405 0
M  V30 3901 O 359.338 -3.58947 -2.03054 0
M  V30 3902 H 358.679 -0.657428 -0.0931903 0
M  V30 3903 H 361.209 -2.01679 0.34451 0
M  V30 3904 H 361.219 -3.8907 -1.22835 0
M  V30 3905 H 359.894 -4.15761 -0.107339 0
M  V30 3906 H 358.471 -3.30448 -1.72796 0
M  V30 3907 N 360.656 0.0484629 -1.57525 0
M  V30 3908 C 362.067 0.597486 -1.76881 0
M  V30 3909 C 362.418 1.76664 -0.853475 0
M  V30 3910 O 361.543 2.16357 -0.0433656 0
M  V30 3911 C 362.138 1.09066 -3.20765 0
M  V30 3912 C 360.697 1.58535 -3.41385 0
M  V30 3913 C 359.844 0.514868 -2.72478 0
M  V30 3914 H 362.795 -0.177758 -1.57701 0
M  V30 3915 H 362.816 1.95875 -3.2621 0
M  V30 3916 H 362.328 0.239521 -3.8736 0
M  V30 3917 H 360.429 2.45898 -2.79937 0
M  V30 3918 H 360.542 1.64622 -4.49929 0
M  V30 3919 H 358.906 0.965407 -2.35695 0
M  V30 3920 H 359.689 -0.32648 -3.41744 0
M  V30 3921 N 362.134 1.5431 0.320358 0
M  V30 3922 C 363.383 1.7188 1.05546 0
M  V30 3923 C 363.696 0.501143 1.89071 0
M  V30 3924 O 364.902 0.558258 2.65699 0
M  V30 3925 C 363.358 3.04025 1.92605 0
M  V30 3926 C 362.966 4.33207 1.14176 0
M  V30 3927 C 364.71 3.30959 2.65832 0
M  V30 3928 C 362.617 5.56412 2.00399 0
M  V30 3929 H 361.547 0.640547 0.397763 0
M  V30 3930 H 364.198 1.80802 0.313522 0
M  V30 3931 H 362.58 2.89019 2.7071 0
M  V30 3932 H 363.754 4.58989 0.40819 0
M  V30 3933 H 362.069 4.13062 0.526165 0
M  V30 3934 H 364.666 4.20203 3.30656 0
M  V30 3935 H 365.009 2.48979 3.33639 0
M  V30 3936 H 365.542 3.46847 1.94787 0
M  V30 3937 H 362.281 6.41004 1.37094 0
M  V30 3938 H 361.801 5.34844 2.7148 0
M  V30 3939 H 363.48 5.92938 2.58908 0
M  V30 3940 N 363.613 -0.582584 1.46437 0
M  V30 3941 C 364.543 -1.70187 1.59871 0
M  V30 3942 C 365.524 -1.64066 0.449042 0
M  V30 3943 O 366.709 -1.82081 0.6753 0
M  V30 3944 C 363.839 -3.08827 1.58881 0
M  V30 3945 C 362.793 -3.29779 2.72819 0
M  V30 3946 C 362.119 -4.68947 2.5689 0
M  V30 3947 C 363.419 -3.17601 4.1464 0
M  V30 3948 H 365.113 -1.592 2.53566 0
M  V30 3949 H 362.659 -0.764472 1.22032 0
M  V30 3950 H 364.612 -3.86951 1.66873 0
M  V30 3951 H 363.336 -3.20713 0.617306 0
M  V30 3952 H 361.995 -2.54054 2.64296 0
M  V30 3953 H 361.643 -4.77599 1.57823 0
M  V30 3954 H 361.343 -4.83919 3.33312 0
M  V30 3955 H 362.867 -5.4924 2.66773 0
M  V30 3956 H 364.281 -3.8557 4.24274 0
M  V30 3957 H 362.678 -3.44094 4.9165 0
M  V30 3958 H 363.748 -2.14681 4.34788 0
M  V30 3959 N 365.091 -1.34144 -0.827227 0
M  V30 3960 C 366.319 -1.29325 -1.61501 0
M  V30 3961 C 366.734 0.13354 -1.88327 0
M  V30 3962 O 366.091 1.0793 -1.47164 0
M  V30 3963 C 366.142 -2.07746 -2.95844 0
M  V30 3964 O 365.863 -3.4486 -2.70191 0
M  V30 3965 C 367.364 -2.10273 -3.90256 0
M  V30 3966 H 364.584 -0.445069 -0.50215 0
M  V30 3967 H 367.128 -1.76693 -1.02955 0
M  V30 3968 H 365.283 -1.6403 -3.5096 0
M  V30 3969 H 365.697 -3.85345 -3.55822 0
M  V30 3970 H 367.171 -2.69575 -4.81698 0
M  V30 3971 H 367.648 -1.096 -4.25305 0
M  V30 3972 H 368.254 -2.54059 -3.41078 0
M  V30 3973 N 366.569 1.04691 -1.17803 0
M  V30 3974 C 367.794 1.81984 -0.994813 0
M  V30 3975 C 368.219 1.82586 0.452112 0
M  V30 3976 O 367.577 1.23854 1.324 0
M  V30 3977 C 367.625 3.2575 -1.54659 0
M  V30 3978 O 366.729 4.05267 -0.763728 0
M  V30 3979 H 366.07 0.562483 -0.352857 0
M  V30 3980 H 368.6 1.3189 -1.56417 0
M  V30 3981 H 368.61 3.76541 -1.57102 0
M  V30 3982 H 367.285 3.24627 -2.59981 0
M  V30 3983 H 365.862 3.63972 -0.811108 0
M  V30 3984 N 368.047 0.979072 1.23499 0
M  V30 3985 C 369.294 0.647219 1.91878 0
M  V30 3986 C 369.622 -0.819074 1.76413 0
M  V30 3987 O 368.877 -1.60616 1.11808 0
M  V30 3988 C 369.176 0.981932 3.43646 0
M  V30 3989 C 368.842 2.43822 3.79291 0
M  V30 3990 C 367.504 2.83622 3.88731 0
M  V30 3991 C 369.856 3.3828 3.96505 0
M  V30 3992 C 367.184 4.16897 4.12812 0
M  V30 3993 C 369.536 4.71197 4.22085 0
M  V30 3994 C 368.2 5.10758 4.29747 0
M  V30 3995 H 367.47 0.236834 0.702133 0
M  V30 3996 H 370.117 1.23268 1.46551 0
M  V30 3997 H 368.422 0.314365 3.90537 0
M  V30 3998 H 370.119 0.703395 3.94783 0
M  V30 3999 H 366.709 2.11966 3.72516 0
M  V30 4000 H 370.893 3.0871 3.88603 0
M  V30 4001 H 366.149 4.47157 4.16966 0
M  V30 4002 H 370.323 5.44348 4.34348 0
M  V30 4003 H 367.95 6.1405 4.48159 0
M  V30 4004 N 369.525 -1.3858 0.750561 0
M  V30 4005 C 370.435 -2.34278 0.122825 0
M  V30 4006 C 371.451 -1.59116 -0.704131 0
M  V30 4007 O 372.627 -1.91326 -0.628987 0
M  V30 4008 C 369.692 -3.38221 -0.762086 0
M  V30 4009 C 368.753 -4.29227 0.078896 0
M  V30 4010 C 367.986 -5.28205 -0.763874 0
M  V30 4011 O 368.209 -5.34112 -2.00201 0
M  V30 4012 O 367.143 -6.01618 -0.18428 0
M  V30 4013 H 370.969 -2.89649 0.913088 0
M  V30 4014 H 368.554 -1.40374 0.511417 0
M  V30 4015 H 370.436 -4.01872 -1.26793 0
M  V30 4016 H 369.111 -2.85211 -1.5309 0
M  V30 4017 H 368.018 -3.68747 0.630621 0
M  V30 4018 H 369.351 -4.85484 0.810289 0
M  V30 4019 N 371.003 -0.499398 -1.49478 0
M  V30 4020 C 371.933 0.269244 -2.31943 0
M  V30 4021 C 372.914 0.964054 -1.40143 0
M  V30 4022 O 374.099 0.955767 -1.69052 0
M  V30 4023 C 371.229 1.33504 -3.20615 0
M  V30 4024 C 370.183 0.760202 -4.21195 0
M  V30 4025 C 369.509 1.9264 -4.98792 0
M  V30 4026 C 370.809 -0.247661 -5.21712 0
M  V30 4027 H 372.503 -0.419082 -2.96452 0
M  V30 4028 H 370.049 -0.202988 -1.42562 0
M  V30 4029 H 372.002 1.88048 -3.77115 0
M  V30 4030 H 370.726 2.05253 -2.54045 0
M  V30 4031 H 369.385 0.23653 -3.65836 0
M  V30 4032 H 369.033 2.63154 -4.28671 0
M  V30 4033 H 368.733 1.54785 -5.66847 0
M  V30 4034 H 370.257 2.4762 -5.58137 0
M  V30 4035 H 371.671 0.209579 -5.72917 0
M  V30 4036 H 370.068 -0.541962 -5.97648 0
M  V30 4037 H 371.138 -1.16409 -4.7072 0
M  V30 4038 N 372.481 1.55866 -0.233164 0
M  V30 4039 C 373.727 1.98897 0.395959 0
M  V30 4040 C 374.06 1.12091 1.58585 0
M  V30 4041 O 373.335 0.181182 1.93654 0
M  V30 4042 C 373.618 3.50658 0.819224 0
M  V30 4043 C 373.471 4.48233 -0.375109 0
M  V30 4044 C 374.79 4.07135 1.67121 0
M  V30 4045 H 371.909 0.723102 0.142451 0
M  V30 4046 H 374.551 1.87082 -0.331725 0
M  V30 4047 H 372.701 3.60857 1.43925 0
M  V30 4048 H 374.373 4.50031 -1.01341 0
M  V30 4049 H 372.616 4.21624 -1.02058 0
M  V30 4050 H 373.287 5.51988 -0.0358328 0
M  V30 4051 H 375.763 3.99952 1.14795 0
M  V30 4052 H 374.639 5.13615 1.93625 0
M  V30 4053 H 374.9 3.54736 2.63846 0
M  V30 4054 N 373.959 -0.0401083 1.57549 0
M  V30 4055 C 374.906 -1.04413 2.05831 0
M  V30 4056 C 375.876 -1.36585 0.945184 0
M  V30 4057 O 377.061 -1.47112 1.21502 0
M  V30 4058 C 374.201 -2.34336 2.53339 0
M  V30 4059 C 373.314 -2.08419 3.78398 0
M  V30 4060 C 372.449 -3.32133 4.14561 0
M  V30 4061 C 371.488 -3.01721 5.3257 0
M  V30 4062 N 370.625 -4.17855 5.64218 0
M  V30 4063 H 375.465 -0.625442 2.91363 0
M  V30 4064 H 373.002 -0.297218 1.44066 0
M  V30 4065 H 374.96 -3.10234 2.78946 0
M  V30 4066 H 373.59 -2.73948 1.7074 0
M  V30 4067 H 372.642 -1.23069 3.59942 0
M  V30 4068 H 373.954 -1.81978 4.64419 0
M  V30 4069 H 373.108 -4.16406 4.41238 0
M  V30 4070 H 371.847 -3.61678 3.2717 0
M  V30 4071 H 370.852 -2.15849 5.05657 0
M  V30 4072 H 372.077 -2.73466 6.21605 0
M  V30 4073 H 370.023 -4.47372 4.79786 0
M  V30 4074 H 369.94 -3.94798 6.44725 0
M  V30 4075 H 371.208 -5.03033 5.95465 0
M  V30 4076 N 375.437 -1.54477 -0.31217 0
M  V30 4077 C 376.683 -1.73483 -1.0503 0
M  V30 4078 C 377.016 -0.513125 -1.87298 0
M  V30 4079 O 376.291 0.489864 -1.8823 0
M  V30 4080 C 376.574 -3.01723 -1.96558 0
M  V30 4081 C 376.427 -4.3417 -1.17545 0
M  V30 4082 C 377.746 -3.25772 -2.95907 0
M  V30 4083 H 374.865 -0.631222 -0.380432 0
M  V30 4084 H 377.507 -1.87184 -0.325932 0
M  V30 4085 H 375.657 -2.90174 -2.58324 0
M  V30 4086 H 377.329 -4.5762 -0.581513 0
M  V30 4087 H 375.572 -4.31159 -0.477925 0
M  V30 4088 H 376.243 -5.20143 -1.84811 0
M  V30 4089 H 378.719 -3.36857 -2.44267 0
M  V30 4090 H 377.595 -4.16838 -3.57123 0
M  V30 4091 H 377.856 -2.43537 -3.68974 0
M  V30 4092 N 376.915 0.57481 -1.46744 0
M  V30 4093 C 378.326 1.15695 -1.46532 0
M  V30 4094 C 378.677 1.95068 -0.210425 0
M  V30 4095 O 377.802 2.05241 0.685944 0
M  V30 4096 C 378.397 2.1048 -2.65487 0
M  V30 4097 C 376.956 2.64002 -2.68291 0
M  V30 4098 C 376.103 1.40026 -2.39349 0
M  V30 4099 H 379.054 0.362325 -1.54509 0
M  V30 4100 H 379.075 2.94074 -2.41455 0
M  V30 4101 H 378.587 1.52683 -3.56805 0
M  V30 4102 H 376.688 3.25646 -1.81067 0
M  V30 4103 H 376.801 3.06197 -3.68483 0
M  V30 4104 H 375.165 1.70106 -1.89568 0
M  V30 4105 H 375.948 0.840485 -3.32852 0
M  V30 4106 N 378.394 1.34581 0.820102 0
M  V30 4107 C 379.671 1.17675 1.56244 0
M  V30 4108 C 380.051 -0.249541 2.0962 0
M  V30 4109 O 379.399 -1.25125 1.91196 0
M  V30 4110 C 379.609 2.23364 2.6816 0
M  V30 4111 C 380.957 2.58485 3.36854 0
M  V30 4112 O 381.981 2.22175 2.78418 0
M  V30 4113 O 380.84 3.20868 4.42386 0
M  V30 4114 H 377.934 0.456333 0.689702 0
M  V30 4115 H 380.48 1.46222 0.861231 0
M  V30 4116 H 379.252 3.19087 2.26493 0
M  V30 4117 H 378.875 1.96009 3.45928 0
M  V30 4118 N 379.872 -1.04064 1.18357 0
M  V30 4119 C 381.283 -1.58719 0.98312 0
M  V30 4120 C 381.634 -1.90556 -0.467193 0
M  V30 4121 O 380.759 -1.69561 -1.34454 0
M  V30 4122 C 381.354 -2.88379 1.77828 0
M  V30 4123 C 379.913 -3.3965 1.62218 0
M  V30 4124 C 379.06 -2.13235 1.77274 0
M  V30 4125 H 382.011 -0.867359 1.32901 0
M  V30 4126 H 382.032 -3.58773 1.26737 0
M  V30 4127 H 381.544 -2.65176 2.83379 0
M  V30 4128 H 379.645 -3.67866 0.592036 0
M  V30 4129 H 379.758 -4.13475 2.42023 0
M  V30 4130 H 378.122 -2.24542 1.20221 0
M  V30 4131 H 378.905 -1.92487 2.8426 0
M  V30 4132 N 381.35 -0.985608 -1.22978 0
M  V30 4133 C 382.282 -0.488154 -2.23941 0
M  V30 4134 C 383.295 0.41282 -1.57479 0
M  V30 4135 O 384.484 0.216121 -1.77187 0
M  V30 4136 C 381.584 0.312611 -3.37455 0
M  V30 4137 C 380.757 -0.582741 -4.33501 0
M  V30 4138 C 379.816 0.165064 -5.25941 0
M  V30 4139 O 378.842 -0.447077 -5.67442 0
M  V30 4140 N 380.044 1.44953 -5.62111 0
M  V30 4141 H 382.809 -1.3563 -2.67254 0
M  V30 4142 H 380.37 -0.859477 -1.37203 0
M  V30 4143 H 382.362 0.821357 -3.96277 0
M  V30 4144 H 380.932 1.0818 -2.93285 0
M  V30 4145 H 380.152 -1.27225 -3.73105 0
M  V30 4146 H 381.44 -1.19275 -4.94622 0
M  V30 4147 H 380.838 1.9683 -5.30353 0
M  V30 4148 H 379.395 1.90361 -6.23383 0
M  V30 4149 N 382.828 1.3818 -0.7579 0
M  V30 4150 C 383.761 2.28055 -0.0814093 0
M  V30 4151 C 384.739 1.45603 0.723779 0
M  V30 4152 O 385.923 1.74961 0.701491 0
M  V30 4153 C 383.05 3.2676 0.891394 0
M  V30 4154 C 382.096 4.26153 0.171909 0
M  V30 4155 S 382.929 5.23434 -1.13035 0
M  V30 4156 C 384.085 6.25694 -0.160727 0
M  V30 4157 H 384.318 2.85082 -0.84353 0
M  V30 4158 H 381.851 1.44246 -0.550671 0
M  V30 4159 H 383.809 3.8414 1.44731 0
M  V30 4160 H 382.47 2.68706 1.62652 0
M  V30 4161 H 381.663 4.95738 0.908843 0
M  V30 4162 H 381.265 3.72691 -0.312606 0
M  V30 4163 H 383.557 6.74161 0.671773 0
M  V30 4164 H 384.5 7.03285 -0.824353 0
M  V30 4165 H 384.908 5.64064 0.221892 0
M  V30 4166 N 384.306 0.507319 1.49211 0
M  V30 4167 C 385.531 -0.033725 2.07373 0
M  V30 4168 C 385.956 -1.29485 1.36437 0
M  V30 4169 O 385.314 -1.76294 0.423087 0
M  V30 4170 C 385.362 -0.263945 3.59633 0
M  V30 4171 O 384.466 -1.33737 3.90113 0
M  V30 4172 H 383.807 0.0290331 0.663365 0
M  V30 4173 H 386.337 0.708749 1.91932 0
M  V30 4174 H 386.347 -0.493536 4.05004 0
M  V30 4175 H 385.022 0.657424 4.10671 0
M  V30 4176 H 383.599 -1.09224 3.56545 0
M  V30 4177 N 385.784 -1.5574 0.241426 0
M  V30 4178 C 386.717 -2.17168 -0.700935 0
M  V30 4179 C 387.695 -1.12206 -1.1768 0
M  V30 4180 O 388.879 -1.40565 -1.25593 0
M  V30 4181 C 386.006 -2.76796 -1.95196 0
M  V30 4182 C 385.052 -3.94764 -1.61442 0
M  V30 4183 S 385.885 -5.30613 -0.72182 0
M  V30 4184 C 387.041 -5.93691 -1.98197 0
M  V30 4185 H 387.274 -2.96761 -0.178882 0
M  V30 4186 H 384.807 -1.54378 0.0259299 0
M  V30 4187 H 386.765 -3.11787 -2.67019 0
M  V30 4188 H 385.426 -1.9716 -2.44514 0
M  V30 4189 H 384.619 -4.35057 -2.54443 0
M  V30 4190 H 384.221 -3.61022 -0.976672 0
M  V30 4191 H 386.513 -6.10874 -2.92983 0
M  V30 4192 H 387.456 -6.89258 -1.62262 0
M  V30 4193 H 387.864 -5.22709 -2.13156 0
M  V30 4194 N 387.262 0.0317525 -1.57568 0
M  V30 4195 C 388.172 1.05021 -2.0978 0
M  V30 4196 C 389.188 1.39809 -1.03583 0
M  V30 4197 O 390.364 1.49182 -1.35302 0
M  V30 4198 C 387.429 2.33301 -2.56459 0
M  V30 4199 C 386.49 2.0512 -3.77127 0
M  V30 4200 C 385.723 3.27283 -4.2157 0
M  V30 4201 O 385.946 4.37861 -3.65559 0
M  V30 4202 O 384.88 3.13141 -5.14029 0
M  V30 4203 H 388.706 0.636505 -2.96955 0
M  V30 4204 H 386.291 0.248559 -1.47318 0
M  V30 4205 H 388.173 3.08722 -2.86825 0
M  V30 4206 H 386.848 2.73973 -1.72397 0
M  V30 4207 H 385.755 1.27276 -3.51784 0
M  V30 4208 H 387.088 1.69305 -4.62165 0
M  V30 4209 N 388.74 1.54641 0.303973 0
M  V30 4210 C 389.688 1.86137 1.39484 0
M  V30 4211 C 390.682 0.734854 1.52631 0
M  V30 4212 O 391.888 0.918803 1.54784 0
M  V30 4213 H 388.263 0.590324 0.465856 0
M  V30 4214 H 390.234 2.77324 1.10154 0
M  V30 4215 C 388.983 2.12274 2.75382 0
M  V30 4216 H 388.306 2.98429 2.66046 0
M  V30 4217 H 389.746 2.38254 3.5073 0
M  V30 4218 C 388.205 0.920365 3.24085 0
M  V30 4219 O 388.735 0.139377 4.01458 0
M  V30 4220 N 386.941 0.726566 2.81371 0
M  V30 4221 H 386.488 1.36332 2.18567 0
M  V30 4222 H 386.446 -0.0763799 3.14307 0
M  V30 4223 N 390.218 -0.567019 1.47046 0
M  V30 4224 C 391.148 -1.68482 1.61667 0
M  V30 4225 C 392.129 -1.6358 0.466418 0
M  V30 4226 O 393.314 -1.81354 0.694574 0
M  V30 4227 C 390.444 -3.07124 1.62148 0
M  V30 4228 C 389.398 -3.26867 2.76301 0
M  V30 4229 C 388.724 -4.66196 2.61849 0
M  V30 4230 C 390.024 -3.13186 4.17986 0
M  V30 4231 H 391.718 -1.56502 2.5524 0
M  V30 4232 H 389.264 -0.751486 1.22836 0
M  V30 4233 H 391.217 -3.8516 1.70968 0
M  V30 4234 H 389.941 -3.2004 0.651287 0
M  V30 4235 H 388.6 -2.51237 2.66975 0
M  V30 4236 H 388.248 -4.75898 1.62879 0
M  V30 4237 H 387.948 -4.80356 3.38425 0
M  V30 4238 H 389.472 -5.46379 2.72584 0
M  V30 4239 H 390.886 -3.81049 4.2834 0
M  V30 4240 H 389.283 -3.3886 4.95272 0
M  V30 4241 H 390.353 -2.10057 4.3704 0
M  V30 4242 N 391.696 -1.35014 -0.812953 0
M  V30 4243 C 392.942 -1.2812 -1.57204 0
M  V30 4244 C 393.275 0.145869 -1.93651 0
M  V30 4245 O 392.55 1.0937 -1.60836 0
M  V30 4246 C 392.833 -2.18162 -2.86492 0
M  V30 4247 C 392.686 -3.69454 -2.56561 0
M  V30 4248 C 394.005 -2.07439 -3.88145 0
M  V30 4249 H 391.124 -0.466746 -0.570366 0
M  V30 4250 H 393.766 -1.65357 -0.935783 0
M  V30 4251 H 391.916 -1.86535 -3.40789 0
M  V30 4252 H 393.588 -4.11493 -2.08497 0
M  V30 4253 H 391.831 -3.9005 -1.89851 0
M  V30 4254 H 392.502 -4.27835 -3.48799 0
M  V30 4255 H 394.978 -2.35228 -3.4323 0
M  V30 4256 H 393.854 -2.7265 -4.76396 0
M  V30 4257 H 394.115 -1.05439 -4.29343 0
M  V30 4258 N 393.175 1.03435 -1.18907 0
M  V30 4259 C 394.085 2.15075 -0.937015 0
M  V30 4260 C 395.101 1.73706 0.101085 0
M  V30 4261 O 396.277 2.01232 -0.0822948 0
M  V30 4262 C 393.342 3.43458 -0.473057 0
M  V30 4263 C 392.403 3.99172 -1.57989 0
M  V30 4264 C 391.636 5.21427 -1.13797 0
M  V30 4265 O 391.859 5.704 0.000725941 0
M  V30 4266 O 390.793 5.69837 -1.9383 0
M  V30 4267 H 394.619 2.39198 -1.87131 0
M  V30 4268 H 392.204 1.13506 -0.971427 0
M  V30 4269 H 394.086 4.20811 -0.222702 0
M  V30 4270 H 392.761 3.20793 0.432869 0
M  V30 4271 H 391.668 3.23178 -1.88433 0
M  V30 4272 H 393.001 4.2619 -2.46217 0
M  V30 4273 N 394.653 0.992116 1.22453 0
M  V30 4274 C 395.878 0.685644 1.95739 0
M  V30 4275 C 396.303 -0.743 1.72804 0
M  V30 4276 O 395.661 -1.50778 1.00676 0
M  V30 4277 C 395.709 0.996293 3.46564 0
M  V30 4278 O 394.813 0.0945512 4.12292 0
M  V30 4279 H 394.154 0.256694 0.612376 0
M  V30 4280 H 396.684 1.32888 1.5557 0
M  V30 4281 H 396.694 0.93781 3.97076 0
M  V30 4282 H 395.369 2.03733 3.62582 0
M  V30 4283 H 393.946 0.208451 3.72317 0
M  V30 4284 N 396.131 -1.37776 0.765217 0
M  V30 4285 C 397.078 -2.30342 0.145274 0
M  V30 4286 C 398.048 -1.5077 -0.696971 0
M  V30 4287 O 399.233 -1.79362 -0.650689 0
M  V30 4288 C 396.373 -3.37227 -0.732939 0
M  V30 4289 C 395.486 -4.31819 0.125199 0
M  V30 4290 C 394.621 -5.25777 -0.757107 0
M  V30 4291 C 393.66 -6.12012 0.103963 0
M  V30 4292 N 392.797 -6.98232 -0.735953 0
M  V30 4293 H 397.637 -2.8278 0.940195 0
M  V30 4294 H 395.174 -1.39211 0.475255 0
M  V30 4295 H 397.132 -3.97818 -1.25686 0
M  V30 4296 H 395.762 -2.86171 -1.49353 0
M  V30 4297 H 394.814 -3.7259 0.766865 0
M  V30 4298 H 396.126 -4.92509 0.789683 0
M  V30 4299 H 395.28 -5.91541 -1.34776 0
M  V30 4300 H 394.019 -4.65481 -1.45529 0
M  V30 4301 H 393.024 -5.45233 0.707197 0
M  V30 4302 H 394.249 -6.74379 0.799381 0
M  V30 4303 H 392.195 -6.40472 -1.41887 0
M  V30 4304 H 392.112 -7.55891 -0.128624 0
M  V30 4305 H 393.38 -7.68393 -1.31121 0
M  V30 4306 N 397.609 -0.515225 -1.4894 0
M  V30 4307 C 398.559 0.275113 -2.26334 0
M  V30 4308 C 399.543 0.923007 -1.31793 0
M  V30 4309 O 400.735 0.828254 -1.56426 0
M  V30 4310 C 397.864 1.33041 -3.16473 0
M  V30 4311 C 396.95 0.688051 -4.18481 0
M  V30 4312 N 397.341 -0.217638 -5.05332 0
M  V30 4313 C 395.639 0.94699 -4.3583 0
M  V30 4314 C 396.34 -0.58676 -5.78733 0
M  V30 4315 N 395.316 0.0486966 -5.43578 0
M  V30 4316 H 399.118 -0.421876 -2.90856 0
M  V30 4317 H 396.632 -0.332249 -1.58965 0
M  V30 4318 H 398.629 1.9102 -3.70563 0
M  V30 4319 H 397.289 2.02894 -2.53504 0
M  V30 4320 H 398.3 -0.589343 -5.14536 0
M  V30 4321 H 394.977 1.63719 -3.8406 0
M  V30 4322 H 396.367 -1.32855 -6.58634 0
M  V30 4323 N 399.087 1.5561 -0.249682 0
M  V30 4324 C 400.037 2.18157 0.662673 0
M  V30 4325 C 401.021 1.1383 1.13717 0
M  V30 4326 O 402.213 1.39731 1.08648 0
M  V30 4327 C 399.342 2.88672 1.85805 0
M  V30 4328 C 398.428 4.00258 1.40193 0
M  V30 4329 N 398.819 5.01473 0.660213 0
M  V30 4330 C 397.117 4.12864 1.68698 0
M  V30 4331 C 397.818 5.80155 0.423695 0
M  V30 4332 N 396.794 5.34533 0.988721 0
M  V30 4333 H 400.596 2.93769 0.0878688 0
M  V30 4334 H 398.11 1.62316 -0.0521183 0
M  V30 4335 H 400.107 3.31912 2.5227 0
M  V30 4336 H 398.767 2.14564 2.43705 0
M  V30 4337 H 399.778 5.16971 0.310047 0
M  V30 4338 H 396.455 3.4993 2.27717 0
M  V30 4339 H 397.845 6.71688 -0.168616 0
M  V30 4340 N 400.565 -0.0233959 1.57583 0
M  V30 4341 C 401.512 -1.02224 2.06927 0
M  V30 4342 C 402.482 -1.35575 0.959617 0
M  V30 4343 O 403.667 -1.45815 1.23055 0
M  V30 4344 C 400.807 -2.31636 2.5581 0
M  V30 4345 C 399.92 -2.04394 3.80588 0
M  V30 4346 C 399.055 -3.27717 4.18061 0
M  V30 4347 C 398.094 -2.96056 5.3574 0
M  V30 4348 N 397.231 -4.11847 5.68618 0
M  V30 4349 H 402.071 -0.594504 2.9201 0
M  V30 4350 H 399.608 -0.281921 1.44373 0
M  V30 4351 H 401.566 -3.07258 2.82221 0
M  V30 4352 H 400.196 -2.72122 1.73636 0
M  V30 4353 H 399.248 -1.19244 3.61227 0
M  V30 4354 H 400.56 -1.77042 4.66323 0
M  V30 4355 H 399.714 -4.11702 4.4563 0
M  V30 4356 H 398.453 -3.58188 3.30988 0
M  V30 4357 H 397.458 -2.10474 5.07918 0
M  V30 4358 H 398.683 -2.66857 6.24471 0
M  V30 4359 H 396.629 -4.42258 4.84504 0
M  V30 4360 H 396.546 -3.87938 6.48876 0
M  V30 4361 H 397.814 -4.96689 6.00766 0
M  V30 4362 N 402.043 -1.548 -0.295768 0
M  V30 4363 C 402.973 -1.89115 -1.36959 0
M  V30 4364 C 403.954 -0.75059 -1.52644 0
M  V30 4365 O 405.139 -1.00678 -1.66065 0
M  V30 4366 C 402.269 -2.14307 -2.73295 0
M  V30 4367 C 401.223 -3.30151 -2.72368 0
M  V30 4368 C 400.549 -3.40772 -4.12042 0
M  V30 4369 C 401.849 -4.67126 -2.33646 0
M  V30 4370 H 403.543 -2.79053 -1.08488 0
M  V30 4371 H 401.089 -1.34266 -0.520443 0
M  V30 4372 H 403.042 -2.36898 -3.48507 0
M  V30 4373 H 401.766 -1.21145 -3.03301 0
M  V30 4374 H 400.425 -3.0749 -1.99613 0
M  V30 4375 H 400.073 -2.45117 -4.39234 0
M  V30 4376 H 399.773 -4.18645 -4.12322 0
M  V30 4377 H 401.297 -3.6563 -4.89027 0
M  V30 4378 H 402.711 -4.89414 -2.98575 0
M  V30 4379 H 401.108 -5.47751 -2.45129 0
M  V30 4380 H 402.178 -4.67489 -1.28772 0
M  V30 4381 N 403.521 0.559213 -1.47345 0
M  V30 4382 C 404.484 1.64854 -1.59235 0
M  V30 4383 C 405.484 1.53851 -0.467607 0
M  V30 4384 O 406.674 1.58045 -0.732617 0
M  V30 4385 C 403.806 3.04388 -1.53496 0
M  V30 4386 H 404.999 1.55662 -2.56339 0
M  V30 4387 H 402.552 0.778973 -1.35505 0
M  V30 4388 H 403.287 3.19115 -0.577604 0
M  V30 4389 H 403.072 3.13783 -2.35123 0
M  V30 4390 H 404.562 3.83642 -1.6495 0
M  V30 4391 N 404.999 1.35443 0.805782 0
M  V30 4392 C 406.415 1.15499 1.10146 0
M  V30 4393 C 406.615 -0.0319975 2.01475 0
M  V30 4394 O 405.671 -0.70236 2.42535 0
M  V30 4395 C 406.984 2.45833 1.73166 0
M  V30 4396 C 408.532 2.52047 1.85583 0
M  V30 4397 C 409.007 3.82427 2.52019 0
M  V30 4398 N 410.498 3.83682 2.59504 0
M  V30 4399 C 411.233 4.81294 3.11679 0
M  V30 4400 N 410.729 5.89294 3.64287 0
M  V30 4401 N 412.522 4.6873 3.1024 0
M  V30 4402 H 404.673 2.11469 0.198678 0
M  V30 4403 H 406.936 0.93594 0.150731 0
M  V30 4404 H 406.642 3.32874 1.13526 0
M  V30 4405 H 406.516 2.6044 2.72857 0
M  V30 4406 H 408.903 1.65435 2.44367 0
M  V30 4407 H 408.984 2.41354 0.847455 0
M  V30 4408 H 408.628 4.69437 1.93885 0
M  V30 4409 H 408.558 3.90409 3.53395 0
M  V30 4410 H 411.049 3.05648 2.22234 0
M  V30 4411 H 411.362 6.59768 4.02401 0
M  V30 4412 H 409.707 5.92985 3.62483 0
M  V30 4413 H 412.898 3.83496 2.68419 0
M  V30 4414 H 413.071 5.44965 3.50596 0
M  V30 4415 N 406.477 -1.02803 1.19454 0
M  V30 4416 C 407.702 -1.80378 1.02364 0
M  V30 4417 C 408.127 -1.83282 -0.423007 0
M  V30 4418 O 407.485 -1.25945 -1.30413 0
M  V30 4419 C 407.533 -3.23248 1.59821 0
M  V30 4420 O 406.637 -4.04 0.828105 0
M  V30 4421 H 405.978 -0.556799 0.361761 0
M  V30 4422 H 408.508 -1.29385 1.58495 0
M  V30 4423 H 408.518 -3.73994 1.63073 0
M  V30 4424 H 407.193 -3.2045 2.65113 0
M  V30 4425 H 405.77 -3.62635 0.86891 0
M  V30 4426 N 407.956 -0.998596 -1.21925 0
M  V30 4427 C 408.886 -0.573688 -2.26343 0
M  V30 4428 C 409.867 0.402296 -1.65274 0
M  V30 4429 O 411.052 0.291683 -1.91997 0
M  V30 4430 C 408.182 0.106839 -3.47136 0
M  V30 4431 C 407.136 -0.788269 -4.20678 0
M  V30 4432 C 406.462 0.0254927 -5.34694 0
M  V30 4433 C 407.762 -2.08784 -4.78755 0
M  V30 4434 H 409.456 -1.44651 -2.62138 0
M  V30 4435 H 407.002 -0.696975 -1.26009 0
M  V30 4436 H 408.955 0.415531 -4.19346 0
M  V30 4437 H 407.679 1.01424 -3.10452 0
M  V30 4438 H 406.338 -1.08069 -3.50309 0
M  V30 4439 H 405.986 0.933989 -4.94253 0
M  V30 4440 H 405.686 -0.570437 -5.84825 0
M  V30 4441 H 407.21 0.328147 -6.09718 0
M  V30 4442 H 408.624 -1.84272 -5.42878 0
M  V30 4443 H 407.021 -2.63307 -5.39249 0
M  V30 4444 H 408.091 -2.76284 -3.98491 0
M  V30 4445 N 409.434 1.37368 -0.772513 0
M  V30 4446 C 410.85 1.53059 -0.452231 0
M  V30 4447 C 411.05 1.73065 1.03203 0
M  V30 4448 O 410.106 1.75245 1.81784 0
M  V30 4449 C 411.419 2.72659 -1.26797 0
M  V30 4450 C 412.967 2.86521 -1.25995 0
M  V30 4451 C 413.442 4.09105 -2.05905 0
M  V30 4452 N 414.933 4.16219 -2.03263 0
M  V30 4453 C 415.668 5.10107 -2.61875 0
M  V30 4454 N 415.164 6.09547 -3.29278 0
M  V30 4455 N 416.957 5.02596 -2.51701 0
M  V30 4456 H 409.108 1.22634 -1.7342 0
M  V30 4457 H 411.371 0.597206 -0.736239 0
M  V30 4458 H 411.077 2.64343 -2.31982 0
M  V30 4459 H 410.951 3.66363 -0.897672 0
M  V30 4460 H 413.338 2.94308 -0.216081 0
M  V30 4461 H 413.419 1.93774 -1.66989 0
M  V30 4462 H 413.063 4.0208 -3.10313 0
M  V30 4463 H 412.993 5.00968 -1.62292 0
M  V30 4464 H 415.484 3.45012 -1.54192 0
M  V30 4465 H 415.797 6.77718 -3.71374 0
M  V30 4466 H 414.142 6.09824 -3.33377 0
M  V30 4467 H 417.333 4.23855 -1.98657 0
M  V30 4468 H 417.506 5.75582 -2.97673 0
M  V30 4469 N 410.912 0.523116 1.48665 0
M  V30 4470 C 412.137 -0.0117284 2.07397 0
M  V30 4471 C 412.562 -1.28031 1.37803 0
M  V30 4472 O 411.92 -1.75836 0.441762 0
M  V30 4473 C 411.968 -0.225786 3.59892 0
M  V30 4474 O 411.072 -1.29592 3.91509 0
M  V30 4475 H 410.413 0.0360673 0.66302 0
M  V30 4476 H 412.943 0.729066 1.9117 0
M  V30 4477 H 412.953 -0.450552 4.05505 0
M  V30 4478 H 411.628 0.700944 4.09951 0
M  V30 4479 H 410.205 -1.05436 3.57684 0
M  V30 4480 N 412.39 -1.55475 0.257931 0
M  V30 4481 C 413.638 -1.98813 -0.363009 0
M  V30 4482 C 413.959 -1.14757 -1.57657 0
M  V30 4483 O 413.229 -0.232956 -1.9451 0
M  V30 4484 H 411.809 -0.734308 -0.137113 0
M  V30 4485 H 414.471 -1.9156 0.359281 0
M  V30 4486 H 413.567 -3.04941 -0.664634 0
M  V30 4487 N 413.868 0.0150385 -1.57593 0
M  V30 4488 C 415.279 0.559832 -1.78109 0
M  V30 4489 C 415.63 1.74814 -0.890756 0
M  V30 4490 O 414.755 2.16216 -0.0892482 0
M  V30 4491 C 415.35 1.02238 -3.23006 0
M  V30 4492 C 413.909 1.51258 -3.44671 0
M  V30 4493 C 413.056 0.456955 -2.73509 0
M  V30 4494 H 416.007 -0.211169 -1.57289 0
M  V30 4495 H 416.028 1.88912 -3.30292 0
M  V30 4496 H 415.54 0.157302 -3.87781 0
M  V30 4497 H 413.641 2.39905 -2.8509 0
M  V30 4498 H 413.754 1.55042 -4.5332 0
M  V30 4499 H 412.118 0.915196 -2.37689 0
M  V30 4500 H 412.901 -0.398896 -3.40975 0
M  V30 4501 N 415.346 1.54954 0.287554 0
M  V30 4502 C 416.571 1.79209 1.04397 0
M  V30 4503 C 416.996 0.556431 1.79682 0
M  V30 4504 O 416.354 -0.493518 1.74454 0
M  V30 4505 C 416.402 3.00739 1.98969 0
M  V30 4506 O 415.506 2.74805 3.075 0
M  V30 4507 H 414.847 0.592755 0.299227 0
M  V30 4508 H 417.377 2.02068 0.320886 0
M  V30 4509 H 417.387 3.29077 2.4119 0
M  V30 4510 H 416.062 3.90329 1.43582 0
M  V30 4511 H 414.639 2.57523 2.69697 0
M  V30 4512 N 416.824 -0.551391 1.4764 0
M  V30 4513 C 418.101 -1.31229 1.45046 0
M  V30 4514 C 418.481 -2.10563 0.150527 0
M  V30 4515 O 417.829 -2.11374 -0.867956 0
M  V30 4516 C 418.039 -2.21189 2.69956 0
M  V30 4517 C 419.387 -2.82021 3.1741 0
M  V30 4518 O 420.411 -2.31488 2.70724 0
M  V30 4519 O 419.27 -3.73885 3.98588 0
M  V30 4520 H 416.364 -0.591193 0.578291 0
M  V30 4521 H 418.91 -0.569813 1.59847 0
M  V30 4522 H 417.682 -1.62207 3.56096 0
M  V30 4523 H 417.305 -3.02722 2.57769 0
M  V30 4524 N 418.302 -1.35869 -0.798587 0
M  V30 4525 C 419.252 -1.25982 -1.90033 0
M  V30 4526 C 420.236 -0.153303 -1.60168 0
M  V30 4527 O 421.428 -0.38527 -1.72756 0
M  V30 4528 C 418.557 -1.04211 -3.27101 0
M  V30 4529 C 417.643 -2.19289 -3.63006 0
M  V30 4530 N 418.034 -3.44559 -3.70287 0
M  V30 4531 C 416.332 -2.10852 -3.93011 0
M  V30 4532 C 417.033 -4.20283 -4.02166 0
M  V30 4533 N 416.009 -3.49124 -4.16669 0
M  V30 4534 H 419.811 -2.20883 -1.93876 0
M  V30 4535 H 417.325 -1.28457 -0.993614 0
M  V30 4536 H 419.322 -0.952155 -4.05881 0
M  V30 4537 H 417.982 -0.102013 -3.2454 0
M  V30 4538 H 418.993 -3.7881 -3.53162 0
M  V30 4539 H 415.67 -1.24744 -3.98428 0
M  V30 4540 H 417.06 -5.28575 -4.14799 0
M  V30 4541 N 419.78 1.02168 -1.19998 0
M  V30 4542 C 421.057 1.72816 -0.916191 0
M  V30 4543 C 421.437 2.03081 0.576325 0
M  V30 4544 O 420.785 1.69122 1.53656 0
M  V30 4545 C 420.995 2.9997 -1.78378 0
M  V30 4546 C 422.343 3.73336 -2.02251 0
M  V30 4547 O 423.367 3.09914 -1.75589 0
M  V30 4548 O 422.226 4.87371 -2.47249 0
M  V30 4549 H 419.32 0.752924 -0.342103 0
M  V30 4550 H 421.866 1.08062 -1.30846 0
M  V30 4551 H 420.638 2.73888 -2.79466 0
M  V30 4552 H 420.261 3.72464 -1.39126 0
M  V30 4553 N 421.258 1.00505 1.21394 0
M  V30 4554 C 422.188 0.585684 2.26035 0
M  V30 4555 C 423.169 -0.393525 1.65485 0
M  V30 4556 O 424.354 -0.281497 1.92149 0
M  V30 4557 C 421.484 -0.0884283 3.47187 0
M  V30 4558 C 420.438 0.810567 4.20254 0
M  V30 4559 C 419.764 0.00286382 5.347 0
M  V30 4560 C 421.064 2.1132 4.77641 0
M  V30 4561 H 422.758 1.46039 2.61368 0
M  V30 4562 H 420.304 0.703648 1.25638 0
M  V30 4563 H 422.257 -0.393286 4.19561 0
M  V30 4564 H 420.981 -0.997766 3.10986 0
M  V30 4565 H 419.64 1.09925 3.49731 0
M  V30 4566 H 419.288 -0.907765 4.94741 0
M  V30 4567 H 418.988 0.601444 5.84514 0
M  V30 4568 H 420.512 -0.295808 6.09883 0
M  V30 4569 H 421.926 1.87148 5.41893 0
M  V30 4570 H 420.323 2.66164 5.37845 0
M  V30 4571 H 421.393 2.78393 3.9702 0
M  V30 4572 N 422.737 -1.36956 0.779787 0
M  V30 4573 C 423.684 -2.30175 0.169697 0
M  V30 4574 C 424.654 -1.51501 -0.68094 0
M  V30 4575 O 425.839 -1.80042 -0.631629 0
M  V30 4576 C 422.979 -3.37985 -0.697131 0
M  V30 4577 C 422.092 -4.31661 0.170992 0
M  V30 4578 C 421.227 -5.2655 -0.701298 0
M  V30 4579 C 420.266 -6.11867 0.168869 0
M  V30 4580 N 419.403 -6.98973 -0.661855 0
M  V30 4581 H 424.243 -2.81767 0.970135 0
M  V30 4582 H 421.78 -1.38699 0.489994 0
M  V30 4583 H 423.738 -3.99128 -1.2146 0
M  V30 4584 H 422.368 -2.87739 -1.46309 0
M  V30 4585 H 421.42 -3.71756 0.80634 0
M  V30 4586 H 422.732 -4.91644 0.841875 0
M  V30 4587 H 421.886 -5.92937 -1.28494 0
M  V30 4588 H 420.625 -4.66998 -1.40584 0
M  V30 4589 H 419.63 -5.44452 0.764986 0
M  V30 4590 H 420.855 -6.73493 0.870863 0
M  V30 4591 H 418.801 -6.41941 -1.35086 0
M  V30 4592 H 418.718 -7.55984 -0.0484447 0
M  V30 4593 H 419.986 -7.6974 -1.22963 0
M  V30 4594 N 424.215 -0.530993 -1.48385 0
M  V30 4595 C 425.626 -0.0907905 -1.86479 0
M  V30 4596 C 425.977 1.33213 -1.44044 0
M  V30 4597 O 425.102 1.99783 -0.831615 0
M  V30 4598 C 425.697 -0.157987 -3.38431 0
M  V30 4599 C 424.256 0.227026 -3.75715 0
M  V30 4600 C 423.403 -0.5173 -2.72432 0
M  V30 4601 H 426.354 -0.742186 -1.40276 0
M  V30 4602 H 426.375 0.630053 -3.75247 0
M  V30 4603 H 425.887 -1.19372 -3.69286 0
M  V30 4604 H 423.988 1.26486 -3.50474 0
M  V30 4605 H 424.101 -0.113288 -4.78966 0
M  V30 4606 H 422.465 0.0365527 -2.54674 0
M  V30 4607 H 423.248 -1.55368 -3.0613 0
M  V30 4608 N 425.693 1.55336 -0.266172 0
M  V30 4609 C 426.641 2.23587 0.641228 0
M  V30 4610 C 427.635 1.22986 1.16494 0
M  V30 4611 O 428.841 1.40943 1.1196 0
M  V30 4612 H 425.216 0.717452 0.225315 0
M  V30 4613 H 427.187 2.9837 0.0426561 0
M  V30 4614 C 425.936 2.96369 1.81826 0
M  V30 4615 H 425.259 3.73563 1.42445 0
M  V30 4616 H 426.699 3.47459 2.42998 0
M  V30 4617 C 425.158 2.0133 2.70125 0
M  V30 4618 O 425.688 1.55875 3.70224 0
M  V30 4619 N 423.894 1.6802 2.37102 0
M  V30 4620 H 423.441 2.05181 1.55751 0
M  V30 4621 H 423.399 1.047 2.96454 0
M  V30 4622 N 427.171 -0.0066808 1.57599 0
M  V30 4623 C 428.134 -0.985035 2.06953 0
M  V30 4624 C 429.134 -1.27663 0.977687 0
M  V30 4625 O 430.324 -1.22293 1.24057 0
M  V30 4626 C 427.456 -2.3118 2.50536 0
M  V30 4627 H 428.649 -0.558255 2.94658 0
M  V30 4628 H 426.202 -0.254011 1.54222 0
M  V30 4629 H 426.937 -2.78561 1.66054 0
M  V30 4630 H 426.722 -2.11338 3.3027 0
M  V30 4631 H 428.212 -3.01377 2.8907 0
M  V30 4632 N 428.649 -1.55105 -0.279332 0
M  V30 4633 C 429.612 -1.86783 -1.32834 0
M  V30 4634 C 430.612 -0.74199 -1.42657 0
M  V30 4635 O 431.802 -1.0102 -1.41918 0
M  V30 4636 C 428.934 -2.06746 -2.71052 0
M  V30 4637 H 430.127 -2.8055 -1.05979 0
M  V30 4638 H 427.68 -1.47499 -0.517087 0
M  V30 4639 H 428.415 -1.15339 -3.03097 0
M  V30 4640 H 428.2 -2.88711 -2.65309 0
M  V30 4641 H 429.69 -2.32549 -3.46858 0
M  V30 4642 N 430.127 0.543554 -1.4793 0
M  V30 4643 C 431.355 1.32516 -1.58894 0
M  V30 4644 C 431.77 1.87215 -0.244131 0
M  V30 4645 O 431.127 1.65709 0.764652 0
M  V30 4646 C 431.178 2.48554 -2.62494 0
M  V30 4647 O 430.899 1.96112 -3.91755 0
M  V30 4648 C 432.4 3.40572 -2.8377 0
M  V30 4649 H 429.62 0.403472 -0.536145 0
M  V30 4650 H 432.164 0.657106 -1.93655 0
M  V30 4651 H 430.319 3.1127 -2.30629 0
M  V30 4652 H 430.733 2.71967 -4.4848 0
M  V30 4653 H 432.207 4.18375 -3.60093 0
M  V30 4654 H 432.684 3.94965 -1.92092 0
M  V30 4655 H 433.29 2.8366 -3.16887 0
M  V30 4656 N 431.605 1.3629 0.791371 0
M  V30 4657 C 433.021 1.16661 1.08914 0
M  V30 4658 C 433.221 -0.0106266 2.01497 0
M  V30 4659 O 432.277 -0.676596 2.43266 0
M  V30 4660 C 433.59 2.47656 1.70549 0
M  V30 4661 C 435.138 2.54002 1.82899 0
M  V30 4662 C 435.613 3.85078 2.47949 0
M  V30 4663 N 437.104 3.86413 2.5542 0
M  V30 4664 C 437.839 4.84572 3.06557 0
M  V30 4665 N 437.335 5.93124 3.58016 0
M  V30 4666 N 439.128 4.71994 3.05251 0
M  V30 4667 H 431.279 2.11668 0.176238 0
M  V30 4668 H 433.542 0.937486 0.140796 0
M  V30 4669 H 433.248 3.34059 1.09989 0
M  V30 4670 H 433.122 2.63319 2.70079 0
M  V30 4671 H 435.509 1.68018 2.42598 0
M  V30 4672 H 435.59 2.42239 0.821808 0
M  V30 4673 H 435.234 4.71467 1.88895 0
M  V30 4674 H 435.164 3.94135 3.49235 0
M  V30 4675 H 437.655 3.07988 2.18979 0
M  V30 4676 H 437.968 6.63999 3.95381 0
M  V30 4677 H 436.313 5.96796 3.56173 0
M  V30 4678 H 439.504 3.86321 2.64336 0
M  V30 4679 H 439.677 5.48653 3.44796 0
M  V30 4680 N 433.083 -1.0153 1.20538 0
M  V30 4681 C 434.36 -1.72327 0.925343 0
M  V30 4682 C 434.74 -2.03383 -0.565547 0
M  V30 4683 O 434.088 -1.69934 -1.52757 0
M  V30 4684 C 434.298 -2.9902 1.79967 0
M  V30 4685 C 435.646 -3.72258 2.04228 0
M  V30 4686 O 436.67 -3.08979 1.77231 0
M  V30 4687 O 435.529 -4.86053 2.4983 0
M  V30 4688 H 432.623 -0.751099 0.346092 0
M  V30 4689 H 435.169 -1.07366 1.31417 0
M  V30 4690 H 433.941 -2.72402 2.80915 0
M  V30 4691 H 433.564 -3.71721 1.41099 0
M  V30 4692 N 434.561 -1.01147 -1.20859 0
M  V30 4693 C 435.493 -0.535546 -2.22855 0
M  V30 4694 C 436.506 0.379323 -1.58319 0
M  V30 4695 O 437.695 0.178489 -1.77605 0
M  V30 4696 C 434.795 0.240962 -3.38042 0
M  V30 4697 C 433.968 -0.674562 -4.32167 0
M  V30 4698 C 433.027 0.053467 -5.26173 0
M  V30 4699 O 432.053 -0.567339 -5.66366 0
M  V30 4700 N 433.255 1.32997 -5.65059 0
M  V30 4701 H 436.02 -1.41268 -2.64317 0
M  V30 4702 H 433.581 -0.888386 -1.35349 0
M  V30 4703 H 435.573 0.737115 -3.97931 0
M  V30 4704 H 434.143 1.01935 -2.95513 0
M  V30 4705 H 433.363 -1.35111 -3.70322 0
M  V30 4706 H 434.651 -1.2974 -4.91981 0
M  V30 4707 H 434.049 1.85536 -5.34409 0
M  V30 4708 H 432.606 1.77095 -6.2728 0
M  V30 4709 N 436.039 1.36541 -0.78704 0
M  V30 4710 C 436.969 2.32659 -0.197992 0
M  V30 4711 C 437.95 1.56533 0.665697 0
M  V30 4712 O 439.135 1.84698 0.60001 0
M  V30 4713 C 436.265 3.40778 0.669901 0
M  V30 4714 C 435.219 4.27897 -0.0937039 0
M  V30 4715 C 434.545 5.27163 0.894629 0
M  V30 4716 C 435.845 5.06334 -1.28154 0
M  V30 4717 H 437.539 2.82171 -1.00099 0
M  V30 4718 H 435.085 1.35665 -0.482793 0
M  V30 4719 H 437.038 4.07008 1.09191 0
M  V30 4720 H 435.762 2.89827 1.50558 0
M  V30 4721 H 434.421 3.6322 -0.49666 0
M  V30 4722 H 434.069 4.72486 1.72527 0
M  V30 4723 H 433.769 5.86317 0.388149 0
M  V30 4724 H 435.293 5.96266 1.31525 0
M  V30 4725 H 436.707 5.65617 -0.93541 0
M  V30 4726 H 435.104 5.74888 -1.72115 0
M  V30 4727 H 436.174 4.38114 -2.07807 0
M  V30 4728 N 437.518 0.538854 1.48102 0
M  V30 4729 C 438.466 -0.232325 2.31437 0
M  V30 4730 C 439.46 -0.927004 1.41785 0
M  V30 4731 O 440.666 -0.850378 1.58646 0
M  V30 4732 H 437.041 -0.0937916 0.746128 0
M  V30 4733 H 439.012 0.489986 2.9435 0
M  V30 4734 C 437.761 -1.26074 3.24038 0
M  V30 4735 H 437.084 -0.735609 3.92974 0
M  V30 4736 H 438.524 -1.77157 3.85216 0
M  V30 4737 C 436.983 -2.29902 2.46265 0
M  V30 4738 O 437.513 -3.36502 2.19384 0
M  V30 4739 N 435.719 -2.03348 2.07601 0
M  V30 4740 H 435.266 -1.16675 2.29662 0
M  V30 4741 H 435.224 -2.73038 1.55877 0
M  V30 4742 N 438.996 -1.55193 0.274407 0
M  V30 4743 C 440.245 -1.98758 -0.343213 0
M  V30 4744 C 440.558 -1.16624 -1.5703 0
M  V30 4745 O 441.764 -1.5033 -2.26082 0
M  V30 4746 C 440.22 -3.53759 -0.661996 0
M  V30 4747 C 439.828 -4.4467 0.54524 0
M  V30 4748 C 441.572 -4.05916 -1.24228 0
M  V30 4749 C 439.479 -5.91058 0.201084 0
M  V30 4750 H 438.409 -0.742353 -0.132014 0
M  V30 4751 H 441.06 -1.79545 0.378948 0
M  V30 4752 H 439.442 -3.68772 -1.44304 0
M  V30 4753 H 440.616 -4.41426 1.32212 0
M  V30 4754 H 438.931 -4.03143 1.04232 0
M  V30 4755 H 441.528 -5.12831 -1.51357 0
M  V30 4756 H 441.871 -3.54908 -2.17592 0
M  V30 4757 H 442.404 -3.9434 -0.523542 0
M  V30 4758 H 439.143 -6.46161 1.10258 0
M  V30 4759 H 438.663 -5.97373 -0.539045 0
M  V30 4760 H 440.342 -6.46669 -0.206954 0
M  V30 4761 N 440.474 -0.00167713 -1.576 0
M  V30 4762 C 441.723 0.682021 -1.89819 0
M  V30 4763 C 442.036 1.74844 -0.876871 0
M  V30 4764 O 443.242 2.48688 -1.08934 0
M  V30 4765 C 441.698 1.26425 -3.36964 0
M  V30 4766 C 441.306 0.232568 -4.47396 0
M  V30 4767 C 443.05 1.92604 -3.78291 0
M  V30 4768 C 440.957 0.824882 -5.85619 0
M  V30 4769 H 439.887 0.258499 -0.708304 0
M  V30 4770 H 442.538 -0.0624957 -1.83394 0
M  V30 4771 H 440.92 2.05949 -3.38232 0
M  V30 4772 H 442.094 -0.5382 -4.57646 0
M  V30 4773 H 440.409 -0.32888 -4.15099 0
M  V30 4774 H 443.006 2.37827 -4.78897 0
M  V30 4775 H 443.349 2.75732 -3.11894 0
M  V30 4776 H 443.882 1.19812 -3.79328 0
M  V30 4777 H 440.621 0.0323542 -6.55492 0
M  V30 4778 H 440.141 1.56477 -5.79029 0
M  V30 4779 H 441.82 1.32301 -6.33329 0
M  V30 4780 N 441.952 1.55251 0.271103 0
M  V30 4781 C 443.198 1.76207 1.00394 0
M  V30 4782 C 443.531 0.562604 1.85872 0
M  V30 4783 O 442.806 -0.439785 1.89463 0
M  V30 4784 C 443.089 3.06828 1.8849 0
M  V30 4785 C 442.942 4.37134 1.05992 0
M  V30 4786 C 444.261 3.33503 2.87165 0
M  V30 4787 H 441.38 0.641086 0.363562 0
M  V30 4788 H 444.022 1.87982 0.276189 0
M  V30 4789 H 442.172 2.96921 2.5054 0
M  V30 4790 H 443.844 4.59001 0.459978 0
M  V30 4791 H 442.087 4.32275 0.363443 0
M  V30 4792 H 442.758 5.2486 1.70955 0
M  V30 4793 H 445.234 3.43215 2.3525 0
M  V30 4794 H 444.11 4.2616 3.45946 0
M  V30 4795 H 444.371 2.53235 3.62387 0
M  V30 4796 N 443.43 -0.535701 1.48216 0
M  V30 4797 C 444.655 -1.32149 1.59848 0
M  V30 4798 C 445.08 -1.86338 0.256842 0
M  V30 4799 O 444.438 -1.64107 -0.770632 0
M  V30 4800 C 444.486 -2.45224 2.64381 0
M  V30 4801 O 443.59 -3.48093 2.21144 0
M  V30 4802 H 442.931 -0.391634 0.536208 0
M  V30 4803 H 445.461 -0.645202 1.94161 0
M  V30 4804 H 445.471 -2.91491 2.85476 0
M  V30 4805 H 444.146 -2.05143 3.61786 0
M  V30 4806 H 442.723 -3.07984 2.10239 0
M  V30 4807 N 444.908 -1.36708 -0.784132 0
M  V30 4808 C 446.138 -1.34203 -1.57077 0
M  V30 4809 C 446.546 0.0774945 -1.89041 0
M  V30 4810 O 445.889 1.04628 -1.50992 0
M  V30 4811 C 445.951 -2.10351 -2.91535 0
M  V30 4812 C 445.615 -3.59405 -2.82272 0
M  V30 4813 C 446.612 -4.53545 -2.54151 0
M  V30 4814 C 444.297 -4.02362 -3.00683 0
M  V30 4815 C 446.291 -5.8862 -2.44551 0
M  V30 4816 C 443.978 -5.37526 -2.90704 0
M  V30 4817 C 444.976 -6.30468 -2.62677 0
M  V30 4818 O 444.664 -7.63149 -2.52702 0
M  V30 4819 H 444.396 -0.461791 -0.493685 0
M  V30 4820 H 446.95 -1.80475 -0.980712 0
M  V30 4821 H 445.18 -1.5875 -3.52612 0
M  V30 4822 H 446.869 -2.00636 -3.52845 0
M  V30 4823 H 447.635 -4.21669 -2.39625 0
M  V30 4824 H 443.514 -3.30389 -3.21503 0
M  V30 4825 H 447.058 -6.61133 -2.22596 0
M  V30 4826 H 442.955 -5.69008 -3.04795 0
M  V30 4827 H 443.723 -7.73331 -2.68144 0
M  V30 4828 N 446.386 1.0089 -1.21074 0
M  V30 4829 C 447.797 1.56056 -1.02486 0
M  V30 4830 C 448.148 1.91728 0.416506 0
M  V30 4831 O 447.273 1.73066 1.29912 0
M  V30 4832 C 447.868 2.83563 -1.85411 0
M  V30 4833 C 446.427 3.3523 -1.71166 0
M  V30 4834 C 445.574 2.0846 -1.82865 0
M  V30 4835 H 448.525 0.831818 -1.35154 0
M  V30 4836 H 448.546 3.55286 -1.36205 0
M  V30 4837 H 448.058 2.57569 -2.9031 0
M  V30 4838 H 446.159 3.66167 -0.689361 0
M  V30 4839 H 446.272 4.06913 -2.52901 0
M  V30 4840 H 444.636 2.21275 -1.26132 0
M  V30 4841 H 445.419 1.84883 -2.89263 0
M  V30 4842 N 447.864 1.01787 1.20321 0
M  V30 4843 C 449.275 0.739307 1.71438 0
M  V30 4844 C 449.626 -0.742041 1.81627 0
M  V30 4845 O 448.751 -1.57903 1.47971 0
M  V30 4846 C 449.346 1.33538 3.11373 0
M  V30 4847 C 447.905 1.10566 3.59795 0
M  V30 4848 C 447.052 1.44028 2.36962 0
M  V30 4849 H 450.003 1.18718 1.05317 0
M  V30 4850 H 450.024 0.726611 3.73498 0
M  V30 4851 H 449.536 2.41352 3.03926 0
M  V30 4852 H 447.637 0.0452405 3.72573 0
M  V30 4853 H 447.75 1.78661 4.44542 0
M  V30 4854 H 446.114 0.85933 2.39766 0
M  V30 4855 H 446.897 2.52901 2.32155 0
M  V30 4856 N 449.342 -1.36122 0.79427 0
M  V30 4857 C 450.57 -2.03362 0.380989 0
M  V30 4858 C 450.985 -1.59881 -1.00416 0
M  V30 4859 O 450.342 -0.790515 -1.6449 0
M  V30 4860 C 450.393 -3.58804 0.440649 0
M  V30 4861 O 450.114 -4.007 1.77118 0
M  V30 4862 C 451.615 -4.43296 0.0186117 0
M  V30 4863 H 448.835 -0.652526 0.156367 0
M  V30 4864 H 451.379 -1.73998 1.07447 0
M  V30 4865 H 449.534 -3.8686 -0.204458 0
M  V30 4866 H 449.948 -4.95309 1.72538 0
M  V30 4867 H 451.422 -5.51887 0.111488 0
M  V30 4868 H 451.899 -4.2684 -1.03461 0
M  V30 4869 H 452.505 -4.20512 0.636395 0
M  V30 4870 N 450.82 -0.546701 -1.47814 0
M  V30 4871 C 451.767 0.206854 -2.29871 0
M  V30 4872 C 452.737 0.918235 -1.38411 0
M  V30 4873 O 453.922 0.915991 -1.67375 0
M  V30 4874 C 451.062 1.23746 -3.22151 0
M  V30 4875 C 450.175 0.533216 -4.28697 0
M  V30 4876 C 449.31 1.5482 -5.08138 0
M  V30 4877 C 448.349 0.828347 -6.06469 0
M  V30 4878 N 447.486 1.78966 -6.78908 0
M  V30 4879 H 452.326 -0.499037 -2.93792 0
M  V30 4880 H 449.863 -0.25793 -1.44821 0
M  V30 4881 H 451.821 1.84746 -3.74065 0
M  V30 4882 H 450.451 1.91151 -2.60117 0
M  V30 4883 H 449.503 -0.191089 -3.7992 0
M  V30 4884 H 450.815 -0.0311987 -4.9879 0
M  V30 4885 H 449.969 2.23202 -5.6415 0
M  V30 4886 H 448.708 2.14652 -4.37922 0
M  V30 4887 H 447.713 0.130539 -5.49645 0
M  V30 4888 H 448.938 0.235907 -6.7869 0
M  V30 4889 H 446.884 2.37675 -6.1143 0
M  V30 4890 H 446.801 1.27712 -7.45135 0
M  V30 4891 H 448.069 2.46496 -7.395 0
M  V30 4892 N 452.299 1.55045 -0.282633 0
M  V30 4893 C 453.231 2.2023 0.634924 0
M  V30 4894 C 454.244 1.18931 1.11172 0
M  V30 4895 O 455.433 1.4562 1.03233 0
M  V30 4896 C 452.533 2.82041 1.87899 0
M  V30 4897 C 451.706 4.091 1.54776 0
M  V30 4898 C 450.765 4.54887 2.64507 0
M  V30 4899 O 449.791 5.20496 2.30375 0
M  V30 4900 N 450.993 4.25659 3.94709 0
M  V30 4901 H 453.758 2.99601 0.0769811 0
M  V30 4902 H 451.319 1.61565 -0.104048 0
M  V30 4903 H 453.311 3.09613 2.60619 0
M  V30 4904 H 451.881 2.06618 2.3458 0
M  V30 4905 H 451.101 3.88736 0.654049 0
M  V30 4906 H 452.389 4.9187 1.30158 0
M  V30 4907 H 451.787 3.7306 4.25256 0
M  V30 4908 H 450.344 4.57984 4.63782 0
M  V30 4909 N 453.777 0.010035 1.57597 0
M  V30 4910 C 454.707 -0.976857 2.12084 0
M  V30 4911 C 455.688 -1.35191 1.03235 0
M  V30 4912 O 456.873 -1.43389 1.3097 0
M  V30 4913 C 454.003 -2.26548 2.63236 0
M  V30 4914 C 452.957 -2.03175 3.76701 0
M  V30 4915 C 452.283 -3.38138 4.14206 0
M  V30 4916 C 453.583 -1.38625 5.03568 0
M  V30 4917 H 455.277 -0.523145 2.94794 0
M  V30 4918 H 452.823 -0.250195 1.4181 0
M  V30 4919 H 454.776 -2.95952 2.99984 0
M  V30 4920 H 453.5 -2.74051 1.77661 0
M  V30 4921 H 452.159 -1.36195 3.40362 0
M  V30 4922 H 451.807 -3.83363 3.25641 0
M  V30 4923 H 451.507 -3.23312 4.90656 0
M  V30 4924 H 453.031 -4.08841 4.53521 0
M  V30 4925 H 454.445 -1.98 5.38023 0
M  V30 4926 H 452.842 -1.34256 5.84889 0
M  V30 4927 H 453.912 -0.356722 4.83586 0
M  V30 4928 N 455.255 -1.55392 -0.262866 0
M  V30 4929 C 456.483 -1.80513 -1.01108 0
M  V30 4930 C 456.898 -0.583533 -1.79556 0
M  V30 4931 O 456.255 0.447585 -1.76926 0
M  V30 4932 C 456.306 -3.03648 -1.96164 0
M  V30 4933 O 456.027 -4.2109 -1.20893 0
M  V30 4934 C 457.528 -3.41448 -2.82715 0
M  V30 4935 H 454.748 -0.601079 -0.298236 0
M  V30 4936 H 457.292 -2.02425 -0.290582 0
M  V30 4937 H 455.447 -2.83832 -2.63663 0
M  V30 4938 H 455.861 -4.90771 -1.85051 0
M  V30 4939 H 457.335 -4.30751 -3.45192 0
M  V30 4940 H 457.812 -2.61308 -3.53008 0
M  V30 4941 H 458.418 -3.63559 -2.20693 0
M  V30 4942 N 456.733 0.527833 -1.48498 0
M  V30 4943 C 457.963 1.30633 -1.60058 0
M  V30 4944 C 458.371 1.87394 -0.260786 0
M  V30 4945 O 457.714 1.67227 0.760317 0
M  V30 4946 C 457.776 2.49361 -2.58958 0
M  V30 4947 C 457.44 2.13671 -4.03972 0
M  V30 4948 C 458.437 1.69217 -4.91591 0
M  V30 4949 C 456.122 2.24129 -4.49524 0
M  V30 4950 C 458.116 1.35689 -6.2279 0
M  V30 4951 C 455.803 1.90212 -5.80743 0
M  V30 4952 C 456.801 1.46063 -6.67199 0
M  V30 4953 O 456.489 1.12593 -7.95976 0
M  V30 4954 H 456.221 0.403444 -0.54241 0
M  V30 4955 H 458.775 0.643233 -1.95068 0
M  V30 4956 H 457.005 3.18659 -2.19073 0
M  V30 4957 H 458.694 3.11421 -2.6033 0
M  V30 4958 H 459.46 1.60607 -4.57636 0
M  V30 4959 H 455.339 2.57447 -3.82416 0
M  V30 4960 H 458.883 1.01157 -6.90227 0
M  V30 4961 H 454.78 1.98464 -6.14233 0
M  V30 4962 H 455.548 1.25972 -8.08748 0
M  V30 4963 N 458.211 1.37122 0.776871 0
M  V30 4964 C 459.121 1.34651 1.9211 0
M  V30 4965 C 460.137 0.246824 1.7224 0
M  V30 4966 O 461.313 0.48134 1.95563 0
M  V30 4967 C 458.378 1.14748 3.2716 0
M  V30 4968 C 457.439 2.34308 3.5972 0
M  V30 4969 C 456.672 2.15345 4.88326 0
M  V30 4970 O 456.895 1.13507 5.58992 0
M  V30 4971 O 455.829 3.03414 5.1983 0
M  V30 4972 H 459.655 2.31013 1.97146 0
M  V30 4973 H 457.24 1.17799 0.918901 0
M  V30 4974 H 459.122 1.05616 4.0795 0
M  V30 4975 H 457.797 0.214562 3.22988 0
M  V30 4976 H 456.704 2.49011 2.79185 0
M  V30 4977 H 458.037 3.26149 3.68629 0
M  V30 4978 N 459.689 -1.00246 1.21608 0
M  V30 4979 C 460.599 -2.12515 0.993709 0
M  V30 4980 C 461.615 -1.73913 -0.0549939 0
M  V30 4981 O 462.791 -2.00943 0.135619 0
M  V30 4982 C 459.856 -3.42083 0.563953 0
M  V30 4983 C 458.917 -3.94843 1.68516 0
M  V30 4984 C 458.15 -5.18226 1.27582 0
M  V30 4985 O 458.373 -5.70201 0.150506 0
M  V30 4986 O 457.307 -5.64497 2.0887 0
M  V30 4987 H 461.133 -2.34152 1.93407 0
M  V30 4988 H 458.718 -1.10891 1.00118 0
M  V30 4989 H 460.6 -4.20073 0.334194 0
M  V30 4990 H 459.275 -3.21828 -0.347665 0
M  V30 4991 H 458.182 -3.18068 1.96935 0
M  V30 4992 H 459.515 -4.19512 2.5743 0
M  V30 4993 N 461.167 -1.02423 -1.1978 0
M  V30 4994 C 462.099 -0.559152 -2.22275 0
M  V30 4995 C 463.112 0.36251 -1.58713 0
M  V30 4996 O 464.301 0.159641 -1.77785 0
M  V30 4997 C 461.401 0.205094 -3.38279 0
M  V30 4998 C 460.574 -0.720361 -4.31427 0
M  V30 4999 C 459.633 -0.00234368 -5.262 0
M  V30 5000 O 458.659 -0.627378 -5.65732 0
M  V30 5001 N 459.861 1.26996 -5.66438 0
M  V30 5002 H 462.626 -1.44064 -2.62804 0
M  V30 5003 H 460.187 -0.902692 -1.34399 0
M  V30 5004 H 462.179 0.694868 -3.9869 0
M  V30 5005 H 460.749 0.987947 -2.96578 0
M  V30 5006 H 459.969 -1.39031 -3.68869 0
M  V30 5007 H 461.257 -1.3495 -4.90577 0
M  V30 5008 H 460.655 1.79858 -5.36347 0
M  V30 5009 H 459.212 1.70432 -6.29123 0
M  V30 5010 N 462.645 1.35699 -0.801477 0
M  V30 5011 C 463.922 1.9324 -0.302937 0
M  V30 5012 C 464.302 1.73209 1.20672 0
M  V30 5013 O 463.65 1.09809 2.00385 0
M  V30 5014 C 463.86 3.41728 -0.708747 0
M  V30 5015 C 465.208 4.18868 -0.695328 0
M  V30 5016 O 466.232 3.5022 -0.649971 0
M  V30 5017 O 465.091 5.41342 -0.749081 0
M  V30 5018 H 462.185 0.82331 -0.0780367 0
M  V30 5019 H 464.731 1.44806 -0.884832 0
M  V30 5020 H 463.503 3.50015 -1.74944 0
M  V30 5021 H 463.126 3.97471 -0.101384 0
M  V30 5022 N 464.123 0.554532 1.47522 0
M  V30 5023 C 465.053 -0.182974 2.32782 0
M  V30 5024 C 466.034 -0.911377 1.43624 0
M  V30 5025 O 467.219 -0.892366 1.72483 0
M  V30 5026 C 464.349 -1.21513 3.25349 0
M  V30 5027 C 463.303 -0.603355 4.23726 0
M  V30 5028 C 462.629 -1.73995 5.05598 0
M  V30 5029 C 463.929 0.441121 5.20434 0
M  V30 5030 H 465.623 0.52882 2.94693 0
M  V30 5031 H 463.169 0.255759 1.41711 0
M  V30 5032 H 465.122 -1.73922 3.83835 0
M  V30 5033 H 463.846 -1.95683 2.61487 0
M  V30 5034 H 462.505 -0.10059 3.66462 0
M  V30 5035 H 462.153 -2.47063 4.38143 0
M  V30 5036 H 461.853 -1.3364 5.72201 0
M  V30 5037 H 463.377 -2.26735 5.66942 0
M  V30 5038 H 464.791 0.00319931 5.733 0
M  V30 5039 H 463.188 0.763402 5.95224 0
M  V30 5040 H 464.258 1.33799 4.66075 0
M  V30 5041 N 465.601 -1.54893 0.290851 0
M  V30 5042 C 466.847 -2.0023 -0.321867 0
M  V30 5043 C 467.18 -1.179 -1.54316 0
M  V30 5044 O 466.455 -0.25293 -1.92848 0
M  V30 5045 C 466.738 -3.53456 -0.688515 0
M  V30 5046 C 466.591 -4.46532 0.541209 0
M  V30 5047 C 467.91 -4.13057 -1.51895 0
M  V30 5048 H 465.029 -0.727891 -0.115515 0
M  V30 5049 H 467.671 -1.85722 0.400931 0
M  V30 5050 H 465.821 -3.6595 -1.30433 0
M  V30 5051 H 467.493 -4.4596 1.17973 0
M  V30 5052 H 465.736 -4.17545 1.17636 0
M  V30 5053 H 466.407 -5.51475 0.240675 0
M  V30 5054 H 468.883 -4.03937 -0.99872 0
M  V30 5055 H 467.759 -5.20448 -1.74429 0
M  V30 5056 H 468.02 -3.64284 -2.50498 0
M  V30 5057 N 467.08 -0.0183926 -1.57589 0
M  V30 5058 C 468.326 0.657813 -1.92469 0
M  V30 5059 C 468.681 1.70349 -0.894375 0
M  V30 5060 O 467.974 1.91384 0.0910389 0
M  V30 5061 C 468.168 1.32676 -3.31861 0
M  V30 5062 C 467.997 0.347403 -4.48356 0
M  V30 5063 C 466.767 -0.0488653 -5.05276 0
M  V30 5064 C 468.965 -0.393931 -5.12789 0
M  V30 5065 N 466.947 -1.02451 -6.05291 0
M  V30 5066 C 468.318 -1.22367 -6.07804 0
M  V30 5067 C 470.373 -0.455789 -4.95809 0
M  V30 5068 C 469.076 -2.10966 -6.87667 0
M  V30 5069 C 471.102 -1.32908 -5.76272 0
M  V30 5070 C 470.464 -2.14662 -6.70894 0
M  V30 5071 H 466.563 0.21335 -0.752334 0
M  V30 5072 H 469.147 -0.0830547 -1.94523 0
M  V30 5073 H 467.318 2.03782 -3.30647 0
M  V30 5074 H 469.05 1.95913 -3.54119 0
M  V30 5075 H 465.805 0.323356 -4.72495 0
M  V30 5076 H 466.229 -1.50826 -6.59985 0
M  V30 5077 H 470.871 0.162017 -4.22489 0
M  V30 5078 H 468.589 -2.73807 -7.603 0
M  V30 5079 H 472.175 -1.38109 -5.6517 0
M  V30 5080 H 471.055 -2.81143 -7.32071 0
M  V30 5081 N 468.558 1.5553 0.254621 0
M  V30 5082 C 469.505 1.89666 1.31512 0
M  V30 5083 C 470.475 0.750057 1.482 0
M  V30 5084 O 471.66 1.00301 1.62309 0
M  V30 5085 C 468.8 2.19009 2.667 0
M  V30 5086 C 467.913 3.46435 2.58083 0
M  V30 5087 C 467.048 3.65386 3.85573 0
M  V30 5088 C 466.087 4.8644 3.71541 0
M  V30 5089 N 465.224 5.01952 4.90906 0
M  V30 5090 H 470.064 2.80109 1.017 0
M  V30 5091 H 467.601 1.38666 0.490938 0
M  V30 5092 H 469.559 2.34025 3.45381 0
M  V30 5093 H 468.189 1.31779 2.94676 0
M  V30 5094 H 467.241 3.39792 1.71013 0
M  V30 5095 H 468.553 4.35258 2.43622 0
M  V30 5096 H 467.707 3.80319 4.72697 0
M  V30 5097 H 466.446 2.74781 4.02922 0
M  V30 5098 H 465.451 4.71491 2.82801 0
M  V30 5099 H 466.676 5.78497 3.55694 0
M  V30 5100 H 464.622 4.14283 5.08631 0
M  V30 5101 H 464.539 5.84851 4.79046 0
M  V30 5102 H 465.807 5.21289 5.7955 0
M  V30 5103 N 470.036 -0.519951 1.48776 0
M  V30 5104 C 471.283 -1.27522 1.57303 0
M  V30 5105 C 471.611 -1.92869 0.251328 0
M  V30 5106 O 470.866 -1.80372 -0.759243 0
M  V30 5107 C 471.165 -2.37864 2.6675 0
M  V30 5108 C 470.831 -1.90103 4.08867 0
M  V30 5109 C 469.493 -1.76795 4.47546 0
M  V30 5110 C 471.845 -1.54133 4.97888 0
M  V30 5111 C 469.173 -1.25868 5.73039 0
M  V30 5112 C 471.525 -1.04665 6.23881 0
M  V30 5113 C 470.189 -0.899823 6.61407 0
M  V30 5114 H 469.459 -0.466636 0.575614 0
M  V30 5115 H 472.106 -0.579109 1.82534 0
M  V30 5116 H 470.411 -3.13186 2.35418 0
M  V30 5117 H 472.108 -2.95969 2.70561 0
M  V30 5118 H 468.698 -2.01414 3.78326 0
M  V30 5119 H 472.882 -1.6327 4.68675 0
M  V30 5120 H 468.138 -1.13196 6.0083 0
M  V30 5121 H 472.312 -0.759074 6.92251 0
M  V30 5122 H 469.939 -0.503011 7.58534 0
M  V30 5123 N 471.514 -1.37532 -0.769588 0
M  V30 5124 C 472.93 -1.18379 -1.07045 0
M  V30 5125 C 473.13 -0.0214312 -2.01489 0
M  V30 5126 O 472.186 0.637809 -2.44312 0
M  V30 5127 C 473.499 -2.50338 -1.66588 0
M  V30 5128 C 475.047 -2.56879 -1.78835 0
M  V30 5129 C 475.522 -3.88974 -2.41792 0
M  V30 5130 N 477.013 -3.90428 -2.4924 0
M  V30 5131 C 477.748 -4.89388 -2.98809 0
M  V30 5132 N 477.244 -5.98745 -3.48535 0
M  V30 5133 N 479.037 -4.76791 -2.97703 0
M  V30 5134 H 471.188 -2.11921 -0.142541 0
M  V30 5135 H 473.451 -0.939608 -0.125863 0
M  V30 5136 H 473.157 -3.35767 -1.0466 0
M  V30 5137 H 473.031 -2.67583 -2.65856 0
M  V30 5138 H 475.418 -1.71856 -2.39895 0
M  V30 5139 H 475.499 -2.43516 -0.783166 0
M  V30 5140 H 475.143 -4.74412 -1.81371 0
M  V30 5141 H 475.073 -3.99641 -3.4292 0
M  V30 5142 H 477.564 -3.11433 -2.14052 0
M  V30 5143 H 477.877 -6.70205 -3.84767 0
M  V30 5144 H 476.222 -6.02387 -3.46634 0
M  V30 5145 H 479.413 -3.90478 -2.58157 0
M  V30 5146 H 479.586 -5.54069 -3.36024 0
M  V30 5147 N 472.992 0.995999 -1.22138 0
M  V30 5148 C 474.222 1.76809 -1.06874 0
M  V30 5149 C 474.63 1.85265 0.383866 0
M  V30 5150 O 473.973 1.31969 1.27789 0
M  V30 5151 C 474.035 3.2186 -1.60144 0
M  V30 5152 C 473.699 3.36958 -3.0872 0
M  V30 5153 C 474.696 3.2452 -4.0618 0
M  V30 5154 C 472.381 3.62109 -3.48112 0
M  V30 5155 C 474.375 3.37013 -5.41019 0
M  V30 5156 C 472.062 3.74243 -4.831 0
M  V30 5157 C 473.06 3.61702 -5.79362 0
M  V30 5158 O 472.748 3.73436 -7.119 0
M  V30 5159 H 472.48 0.562207 -0.375365 0
M  V30 5160 H 475.034 1.26113 -1.62125 0
M  V30 5161 H 473.264 3.73734 -0.992981 0
M  V30 5162 H 474.953 3.80775 -1.40589 0
M  V30 5163 H 475.719 3.05004 -3.77091 0
M  V30 5164 H 471.598 3.70949 -2.73712 0
M  V30 5165 H 475.142 3.27141 -6.16137 0
M  V30 5166 H 471.039 3.93266 -5.11872 0
M  V30 5167 H 471.807 3.90328 -7.19435 0
M  V30 5168 N 474.47 1.03057 1.19235 0
M  V30 5169 C 475.7 0.746613 1.92638 0
M  V30 5170 C 476.108 -0.698708 1.75826 0
M  V30 5171 O 475.451 -1.487 1.07861 0
M  V30 5172 C 475.513 1.02024 3.44719 0
M  V30 5173 C 475.177 2.45745 3.85303 0
M  V30 5174 C 476.174 3.43887 3.8992 0
M  V30 5175 C 473.859 2.8019 4.16892 0
M  V30 5176 C 475.853 4.74529 4.2556 0
M  V30 5177 C 473.54 4.1104 4.52205 0
M  V30 5178 C 474.538 5.0802 4.56513 0
M  V30 5179 O 474.226 6.36527 4.91008 0
M  V30 5180 H 473.958 0.272401 0.618687 0
M  V30 5181 H 476.512 1.37853 1.52269 0
M  V30 5182 H 474.742 0.331184 3.85279 0
M  V30 5183 H 476.431 0.725677 3.9936 0
M  V30 5184 H 477.197 3.18614 3.65664 0
M  V30 5185 H 473.076 2.05382 4.12722 0
M  V30 5186 H 476.62 5.50222 4.28838 0
M  V30 5187 H 472.517 4.36086 4.7592 0
M  V30 5188 H 473.285 6.41025 5.08949 0
M  V30 5189 N 475.948 -1.35272 0.808662 0
M  V30 5190 C 476.878 -2.32315 0.234981 0
M  V30 5191 C 477.859 -1.57572 -0.64071 0
M  V30 5192 O 479.044 -1.8563 -0.570551 0
M  V30 5193 C 476.174 -3.41801 -0.615601 0
M  V30 5194 C 475.128 -4.27694 0.161767 0
M  V30 5195 C 474.454 -5.28519 -0.810649 0
M  V30 5196 C 475.754 -5.04231 1.36193 0
M  V30 5197 H 477.448 -2.80543 1.04575 0
M  V30 5198 H 474.994 -1.3488 0.504315 0
M  V30 5199 H 476.947 -4.08693 -1.02702 0
M  V30 5200 H 475.671 -2.92186 -1.45928 0
M  V30 5201 H 474.33 -3.62384 0.554382 0
M  V30 5202 H 473.978 -4.75171 -1.64988 0
M  V30 5203 H 473.678 -5.8686 -0.294822 0
M  V30 5204 H 475.202 -5.98283 -1.22023 0
M  V30 5205 H 476.616 -5.64058 1.02528 0
M  V30 5206 H 475.013 -5.72077 1.81239 0
M  V30 5207 H 476.083 -4.34753 2.14751 0
M  V30 5208 N 477.426 -0.562348 -1.47226 0
M  V30 5209 C 478.654 -0.0452275 -2.06851 0
M  V30 5210 C 479.069 1.25078 -1.41424 0
M  V30 5211 O 478.426 1.75156 -0.512513 0
M  V30 5212 C 478.477 0.148674 -3.61194 0
M  V30 5213 O 478.198 -1.09602 -4.24169 0
M  V30 5214 C 479.699 0.702488 -4.37699 0
M  V30 5215 H 476.919 -0.0481775 -0.669268 0
M  V30 5216 H 479.463 -0.777223 -1.89155 0
M  V30 5217 H 477.618 0.830817 -3.78386 0
M  V30 5218 H 478.032 -0.896982 -5.16773 0
M  V30 5219 H 479.506 0.78743 -5.46355 0
M  V30 5220 H 479.983 1.71493 -4.04335 0
M  V30 5221 H 480.589 0.0558772 -4.25263 0
M  V30 5222 N 478.904 1.54736 -0.299062 0
M  V30 5223 C 479.852 2.24897 0.593658 0
M  V30 5224 C 480.846 1.25429 1.13859 0
M  V30 5225 O 482.052 1.43286 1.08945 0
M  V30 5226 H 478.427 0.72207 0.210046 0
M  V30 5227 H 480.398 2.98393 -0.0206421 0
M  V30 5228 C 479.147 3.00159 1.75499 0
M  V30 5229 H 478.47 3.76501 1.34489 0
M  V30 5230 H 479.91 3.52535 2.35574 0
M  V30 5231 C 478.369 2.07015 2.65794 0
M  V30 5232 O 478.899 1.63692 3.66835 0
M  V30 5233 N 477.105 1.73012 2.33485 0
M  V30 5234 H 476.652 2.08439 1.51364 0
M  V30 5235 H 476.61 1.10965 2.94167 0
M  V30 5236 N 480.382 0.0267497 1.57577 0
M  V30 5237 C 481.314 -0.984594 2.06974 0
M  V30 5238 C 482.327 -1.29032 0.992705 0
M  V30 5239 O 483.516 -1.25539 1.26895 0
M  V30 5240 C 480.616 -2.31262 2.47732 0
M  V30 5241 C 479.789 -2.1924 3.78487 0
M  V30 5242 C 478.848 -3.34956 4.05821 0
M  V30 5243 O 477.874 -3.11948 4.76106 0
M  V30 5244 N 479.076 -4.58672 3.55809 0
M  V30 5245 H 481.841 -0.563143 2.94362 0
M  V30 5246 H 479.402 -0.160061 1.61107 0
M  V30 5247 H 481.394 -3.07496 2.63112 0
M  V30 5248 H 479.964 -2.65056 1.65723 0
M  V30 5249 H 479.184 -1.27747 3.72927 0
M  V30 5250 H 480.472 -2.08409 4.64158 0
M  V30 5251 H 479.87 -4.8026 2.98942 0
M  V30 5252 H 478.427 -5.32083 3.76472 0
M  V30 5253 N 481.861 -1.55662 -0.24637 0
M  V30 5254 C 482.771 -1.93495 -1.32653 0
M  V30 5255 C 483.787 -0.835462 -1.5263 0
M  V30 5256 O 484.963 -1.1369 -1.66242 0
M  V30 5257 C 482.028 -2.22242 -2.66101 0
M  V30 5258 C 481.089 -3.45625 -2.54641 0
M  V30 5259 C 480.322 -3.72991 -3.81724 0
M  V30 5260 O 480.545 -3.02421 -4.8363 0
M  V30 5261 O 479.479 -4.66515 -3.80325 0
M  V30 5262 H 483.305 -2.85498 -1.03559 0
M  V30 5263 H 480.89 -1.42551 -0.44717 0
M  V30 5264 H 482.772 -2.42037 -3.44958 0
M  V30 5265 H 481.447 -1.33417 -2.94926 0
M  V30 5266 H 480.354 -3.31136 -1.74067 0
M  V30 5267 H 481.687 -4.34754 -2.3076 0
M  V30 5268 N 483.339 0.512053 -1.4905 0
M  V30 5269 C 484.286 1.6148 -1.64902 0
M  V30 5270 C 485.256 1.58687 -0.490673 0
M  V30 5271 O 486.441 1.76842 -0.71636 0
M  V30 5272 C 483.581 2.99676 -1.71139 0
M  V30 5273 C 482.694 3.12568 -2.98203 0
M  V30 5274 C 481.829 4.4143 -2.95487 0
M  V30 5275 C 480.868 4.47916 -4.17179 0
M  V30 5276 N 480.005 5.68191 -4.12437 0
M  V30 5277 H 484.845 1.47271 -2.59066 0
M  V30 5278 H 482.382 0.716713 -1.28459 0
M  V30 5279 H 484.34 3.79761 -1.72736 0
M  V30 5280 H 482.97 3.12614 -0.804508 0
M  V30 5281 H 482.022 2.25618 -3.06269 0
M  V30 5282 H 483.334 3.1322 -3.88194 0
M  V30 5283 H 482.488 5.29825 -2.95585 0
M  V30 5284 H 481.227 4.43326 -2.03256 0
M  V30 5285 H 480.232 3.57925 -4.17337 0
M  V30 5286 H 481.457 4.47744 -5.1059 0
M  V30 5287 H 479.403 5.7095 -3.23036 0
M  V30 5288 H 479.32 5.70413 -4.96151 0
M  V30 5289 H 480.588 6.58823 -4.16621 0
M  V30 5290 N 484.817 1.37938 0.762283 0
M  V30 5291 C 485.78 1.34279 1.85747 0
M  V30 5292 C 486.78 0.244969 1.58923 0
M  V30 5293 O 487.97 0.501365 1.66829 0
M  V30 5294 C 485.102 1.08833 3.23061 0
M  V30 5295 H 486.295 2.31705 1.90401 0
M  V30 5296 H 483.848 1.23105 0.963057 0
M  V30 5297 H 484.583 0.119767 3.24079 0
M  V30 5298 H 484.368 1.88306 3.43923 0
M  V30 5299 H 485.858 1.08946 4.03138 0
M  V30 5300 N 486.295 -0.989507 1.22664 0
M  V30 5301 C 487.225 -2.09847 1.02404 0
M  V30 5302 C 488.206 -1.70007 -0.0561303 0
M  V30 5303 O 489.391 -1.93906 0.106748 0
M  V30 5304 C 486.521 -3.41996 0.604663 0
M  V30 5305 C 485.475 -3.95699 1.63115 0
M  V30 5306 C 484.801 -5.23936 1.0675 0
M  V30 5307 C 486.101 -4.25999 3.02196 0
M  V30 5308 H 487.795 -2.27054 1.95158 0
M  V30 5309 H 485.341 -1.09111 0.939727 0
M  V30 5310 H 487.294 -4.1899 0.45002 0
M  V30 5311 H 486.018 -3.24626 -0.35855 0
M  V30 5312 H 484.677 -3.2084 1.77362 0
M  V30 5313 H 484.325 -5.02909 0.0955422 0
M  V30 5314 H 484.025 -5.60833 1.75328 0
M  V30 5315 H 485.549 -6.0356 0.924516 0
M  V30 5316 H 486.963 -4.93777 2.91303 0
M  V30 5317 H 485.36 -4.74076 3.67929 0
M  V30 5318 H 486.43 -3.33636 3.51873 0
M  V30 5319 N 487.773 -1.03688 -1.18687 0
M  V30 5320 C 489.001 -0.757918 -1.92518 0
M  V30 5321 C 489.416 0.684398 -1.75959 0
M  V30 5322 O 488.773 1.46617 -1.08673 0
M  V30 5323 C 488.824 -1.10985 -3.44042 0
M  V30 5324 O 488.545 -2.49554 -3.60076 0
M  V30 5325 C 490.046 -0.854844 -4.3498 0
M  V30 5326 H 487.266 -0.276699 -0.611293 0
M  V30 5327 H 489.81 -1.38352 -1.50595 0
M  V30 5328 H 487.965 -0.529279 -3.83767 0
M  V30 5329 H 488.379 -2.6291 -4.53849 0
M  V30 5330 H 489.853 -1.15098 -5.39867 0
M  V30 5331 H 490.33 0.210507 -4.38695 0
M  V30 5332 H 490.936 -1.41853 -4.00946 0
M  V30 5333 N 489.251 1.34841 -0.815825 0
M  V30 5334 C 490.198 2.29644 -0.230664 0
M  V30 5335 C 491.168 1.53253 0.640533 0
M  V30 5336 O 492.353 1.81653 0.583672 0
M  V30 5337 C 489.493 3.39715 0.607275 0
M  V30 5338 C 488.606 4.31056 -0.28538 0
M  V30 5339 C 487.741 5.28225 0.561446 0
M  V30 5340 C 486.78 6.11204 -0.331035 0
M  V30 5341 N 485.917 7.00483 0.476302 0
M  V30 5342 H 490.757 2.79095 -1.0445 0
M  V30 5343 H 488.294 1.37351 -0.526595 0
M  V30 5344 H 490.252 4.02208 1.10835 0
M  V30 5345 H 488.882 2.91517 1.38629 0
M  V30 5346 H 487.934 3.69487 -0.904621 0
M  V30 5347 H 489.246 4.89239 -0.97193 0
M  V30 5348 H 488.4 5.96135 1.12728 0
M  V30 5349 H 487.139 4.70562 1.28153 0
M  V30 5350 H 486.144 5.42232 -0.909069 0
M  V30 5351 H 487.369 6.70947 -1.04912 0
M  V30 5352 H 485.315 6.45296 1.18019 0
M  V30 5353 H 485.232 7.55847 -0.152008 0
M  V30 5354 H 486.5 7.7273 1.02512 0
M  V30 5355 N 490.729 0.570148 1.46925 0
M  V30 5356 C 491.976 0.0509529 2.02436 0
M  V30 5357 C 492.304 -1.30405 1.44308 0
M  V30 5358 O 491.559 -1.86493 0.593198 0
M  V30 5359 C 491.858 -0.0780336 3.57315 0
M  V30 5360 C 491.524 1.20775 4.34424 0
M  V30 5361 C 490.186 1.56004 4.5521 0
M  V30 5362 C 492.538 2.0592 4.78797 0
M  V30 5363 C 489.866 2.76201 5.17619 0
M  V30 5364 C 492.218 3.25332 5.42533 0
M  V30 5365 C 490.882 3.60859 5.61549 0
M  V30 5366 H 490.152 0.018645 0.740765 0
M  V30 5367 H 492.799 0.744262 1.76445 0
M  V30 5368 H 491.104 -0.854394 3.82371 0
M  V30 5369 H 492.801 -0.495312 3.97929 0
M  V30 5370 H 489.391 0.923469 4.18533 0
M  V30 5371 H 493.575 1.80008 4.62505 0
M  V30 5372 H 488.831 3.0388 5.30535 0
M  V30 5373 H 493.005 3.91586 5.75876 0
M  V30 5374 H 490.632 4.54088 6.09678 0
M  V30 5375 N 492.207 -1.54576 0.307264 0
M  V30 5376 C 493.137 -2.26708 -0.55907 0
M  V30 5377 C 494.118 -1.26893 -1.1328 0
M  V30 5378 O 495.303 -1.55677 -1.16097 0
M  V30 5379 C 492.433 -3.01259 -1.72801 0
M  V30 5380 C 491.387 -4.08275 -1.28435 0
M  V30 5381 C 490.713 -4.70575 -2.53895 0
M  V30 5382 C 492.013 -5.2068 -0.411038 0
M  V30 5383 H 493.707 -2.9937 0.042576 0
M  V30 5384 H 491.253 -1.43983 0.0219173 0
M  V30 5385 H 493.206 -3.50444 -2.34023 0
M  V30 5386 H 491.93 -2.26187 -2.356 0
M  V30 5387 H 490.589 -3.59949 -0.695161 0
M  V30 5388 H 490.237 -3.92136 -3.15021 0
M  V30 5389 H 489.937 -5.42854 -2.24908 0
M  V30 5390 H 491.461 -5.22527 -3.15908 0
M  V30 5391 H 492.875 -5.65721 -0.929097 0
M  V30 5392 H 491.272 -5.99716 -0.214664 0
M  V30 5393 H 492.342 -4.81629 0.562287 0
M  V30 5394 N 493.685 -0.035106 -1.57561 0
M  V30 5395 C 494.632 0.94474 -2.10578 0
M  V30 5396 C 495.602 1.3192 -1.00927 0
M  V30 5397 O 496.787 1.41147 -1.28382 0
M  V30 5398 C 493.927 2.21982 -2.64231 0
M  V30 5399 C 493.04 1.90128 -3.87911 0
M  V30 5400 C 492.175 3.11975 -4.29936 0
M  V30 5401 C 491.214 2.75968 -5.46359 0
M  V30 5402 N 490.351 3.90459 -5.83512 0
M  V30 5403 H 495.191 0.485717 -2.94015 0
M  V30 5404 H 492.728 0.228143 -1.4532 0
M  V30 5405 H 494.686 2.96572 -2.9343 0
M  V30 5406 H 493.316 2.6549 -1.83616 0
M  V30 5407 H 492.368 1.05755 -3.65404 0
M  V30 5408 H 493.68 1.59613 -4.72573 0
M  V30 5409 H 492.834 3.9488 -4.60603 0
M  V30 5410 H 491.573 3.45657 -3.44053 0
M  V30 5411 H 490.578 1.91478 -5.1538 0
M  V30 5412 H 491.803 2.43497 -6.33945 0
M  V30 5413 H 489.749 4.23971 -5.00584 0
M  V30 5414 H 489.666 3.63588 -6.62827 0
M  V30 5415 H 490.934 4.7405 -6.18787 0
M  V30 5416 N 495.163 1.55791 0.238111 0
M  V30 5417 C 496.403 1.79801 0.972163 0
M  V30 5418 C 496.767 0.606027 1.82185 0
M  V30 5419 O 497.968 0.725079 2.58836 0
M  V30 5420 C 496.239 3.08608 1.80266 0
M  V30 5421 S 497.798 3.53872 2.59461 0
M  V30 5422 H 494.616 0.631418 0.326852 0
M  V30 5423 H 497.218 1.94031 0.239212 0
M  V30 5424 H 495.922 3.93419 1.1683 0
M  V30 5425 H 495.453 2.9714 2.57821 0
M  V30 5426 H 497.468 3.15899 3.82651 0
M  V30 5427 N 496.642 -0.504142 1.49319 0
M  V30 5428 C 497.888 -1.26033 1.58882 0
M  V30 5429 C 498.221 -1.92268 0.273274 0
M  V30 5430 O 497.496 -1.80567 -0.72291 0
M  V30 5431 C 497.779 -2.32976 2.7458 0
M  V30 5432 C 497.632 -1.71263 4.1592 0
M  V30 5433 C 498.951 -3.34561 2.85932 0
M  V30 5434 H 496.07 -0.456863 0.578312 0
M  V30 5435 H 498.712 -0.558965 1.81592 0
M  V30 5436 H 496.862 -2.92796 2.55348 0
M  V30 5437 H 498.534 -1.15294 4.4666 0
M  V30 5438 H 496.777 -1.01686 4.21714 0
M  V30 5439 H 497.448 -2.48816 4.92742 0
M  V30 5440 H 499.924 -2.84727 3.0343 0
M  V30 5441 H 498.8 -4.06754 3.68568 0
M  V30 5442 H 499.061 -3.96695 1.95154 0
M  V30 5443 N 498.12 -1.38341 -0.754957 0
M  V30 5444 C 499.068 -1.35573 -1.89005 0
M  V30 5445 C 500.062 -0.241824 -1.67665 0
M  V30 5446 O 501.268 -0.410785 -1.7525 0
M  V30 5447 H 497.643 -0.422898 -0.621821 0
M  V30 5448 H 499.614 -2.31359 -1.88455 0
M  V30 5449 C 498.363 -1.19631 -3.26471 0
M  V30 5450 H 497.686 -2.04605 -3.43477 0
M  V30 5451 H 499.126 -1.21748 -4.06144 0
M  V30 5452 C 497.585 0.0968705 -3.36761 0
M  V30 5453 O 498.115 1.07439 -3.87066 0
M  V30 5454 N 496.321 0.153242 -2.90196 0
M  V30 5455 H 495.868 -0.642908 -2.49448 0
M  V30 5456 H 495.826 1.01807 -2.9746 0
M  V30 5457 N 499.598 0.982988 -1.23187 0
M  V30 5458 C 500.844 1.7273 -1.07405 0
M  V30 5459 C 501.199 1.885 0.385447 0
M  V30 5460 O 500.492 1.4243 1.28157 0
M  V30 5461 C 500.686 3.12736 -1.73006 0
M  V30 5462 C 500.515 3.10621 -3.25184 0
M  V30 5463 C 499.285 3.15957 -3.94334 0
M  V30 5464 C 501.483 2.93992 -4.21987 0
M  V30 5465 N 499.465 3.03701 -5.33516 0
M  V30 5466 C 500.836 2.8987 -5.48065 0
M  V30 5467 C 502.891 2.78457 -4.12754 0
M  V30 5468 C 501.594 2.71804 -6.65969 0
M  V30 5469 C 503.62 2.61754 -5.30319 0
M  V30 5470 C 502.982 2.58328 -6.55321 0
M  V30 5471 H 499.081 0.641279 -0.447533 0
M  V30 5472 H 501.665 1.16664 -1.55877 0
M  V30 5473 H 499.836 3.67026 -1.2707 0
M  V30 5474 H 501.568 3.75786 -1.50224 0
M  V30 5475 H 498.323 3.24034 -3.45397 0
M  V30 5476 H 498.747 3.00855 -6.06478 0
M  V30 5477 H 503.389 2.79898 -3.16886 0
M  V30 5478 H 501.107 2.69108 -7.61975 0
M  V30 5479 H 504.693 2.50702 -5.25014 0
M  V30 5480 H 503.573 2.45564 -7.4476 0
M  V30 5481 N 501.076 1.04316 1.18135 0
M  V30 5482 C 502.353 0.662166 1.84051 0
M  V30 5483 C 502.733 -0.858169 1.9287 0
M  V30 5484 O 502.081 -1.76062 1.45652 0
M  V30 5485 C 502.291 1.3409 3.22212 0
M  V30 5486 C 503.639 1.4733 3.9822 0
M  V30 5487 O 504.663 1.29921 3.31661 0
M  V30 5488 O 503.522 1.75722 5.17479 0
M  V30 5489 H 500.616 0.232005 0.79379 0
M  V30 5490 H 503.162 1.1422 1.25506 0
M  V30 5491 H 501.934 2.37853 3.10711 0
M  V30 5492 H 501.557 0.849649 3.88416 0
M  V30 5493 N 502.554 -1.34406 0.822964 0
M  V30 5494 C 503.484 -2.32052 0.259608 0
M  V30 5495 C 504.465 -1.58243 -0.623961 0
M  V30 5496 O 505.65 -1.86224 -0.55083 0
M  V30 5497 C 502.78 -3.42434 -0.579314 0
M  V30 5498 C 501.734 -4.27499 0.20712 0
M  V30 5499 C 501.06 -5.29349 -0.754547 0
M  V30 5500 C 502.36 -5.02758 1.41533 0
M  V30 5501 H 504.054 -2.79418 1.07545 0
M  V30 5502 H 501.6 -1.34338 0.518593 0
M  V30 5503 H 503.553 -4.0976 -0.983612 0
M  V30 5504 H 502.277 -2.93717 -1.4282 0
M  V30 5505 H 500.936 -3.61776 0.592787 0
M  V30 5506 H 500.584 -4.76895 -1.59939 0
M  V30 5507 H 500.284 -5.8714 -0.232561 0
M  V30 5508 H 501.808 -5.99544 -1.1567 0
M  V30 5509 H 503.222 -5.62938 1.08504 0
M  V30 5510 H 501.619 -5.70123 1.87296 0
M  V30 5511 H 502.689 -4.32451 2.1935 0
M  V30 5512 N 504.032 -0.577932 -1.46621 0
M  V30 5513 C 505.443 -0.150071 -1.86096 0
M  V30 5514 C 505.794 1.28563 -1.48209 0
M  V30 5515 O 504.919 1.97036 -0.894754 0
M  V30 5516 C 505.514 -0.265576 -3.37758 0
M  V30 5517 C 504.073 0.10738 -3.76247 0
M  V30 5518 C 503.22 -0.603711 -2.70649 0
M  V30 5519 H 506.171 -0.786438 -1.37844 0
M  V30 5520 H 506.192 0.510352 -3.77062 0
M  V30 5521 H 505.704 -1.3106 -3.65301 0
M  V30 5522 H 503.805 1.15272 -3.54321 0
M  V30 5523 H 503.918 -0.26561 -4.78363 0
M  V30 5524 H 502.282 -0.0444884 -2.54661 0
M  V30 5525 H 503.065 -1.65029 -3.01032 0
M  V30 5526 N 505.51 1.54411 -0.315457 0
M  V30 5527 C 506.442 2.21527 0.588067 0
M  V30 5528 C 507.455 1.21263 1.08624 0
M  V30 5529 O 508.644 1.47777 1.00121 0
M  V30 5530 C 505.744 2.85963 1.81875 0
M  V30 5531 C 504.917 4.12291 1.46063 0
M  V30 5532 C 503.976 4.60396 2.54799 0
M  V30 5533 O 503.002 5.25265 2.19283 0
M  V30 5534 N 504.204 4.33935 3.85591 0
M  V30 5535 H 506.969 2.99697 0.013414 0
M  V30 5536 H 504.53 1.61308 -0.138295 0
M  V30 5537 H 506.522 3.15071 2.53993 0
M  V30 5538 H 505.092 2.11548 2.30144 0
M  V30 5539 H 504.312 3.90036 0.571445 0
M  V30 5540 H 505.6 4.9452 1.19695 0
M  V30 5541 H 504.998 3.81996 4.17248 0
M  V30 5542 H 503.555 4.67718 4.53964 0
M  V30 5543 N 506.988 0.0434614 1.5754 0
M  V30 5544 C 507.898 -0.94893 2.14552 0
M  V30 5545 C 508.914 -1.34707 1.10136 0
M  V30 5546 O 510.09 -1.42557 1.42266 0
M  V30 5547 C 507.155 -2.208 2.67298 0
M  V30 5548 C 506.216 -1.86893 3.86484 0
M  V30 5549 C 505.449 -3.06797 4.36705 0
M  V30 5550 O 505.672 -4.19921 3.86034 0
M  V30 5551 O 504.606 -2.8826 5.28384 0
M  V30 5552 H 508.432 -0.494099 2.99654 0
M  V30 5553 H 506.017 -0.177989 1.48336 0
M  V30 5554 H 507.899 -2.94686 3.01228 0
M  V30 5555 H 506.574 -2.65436 1.85272 0
M  V30 5556 H 505.481 -1.10347 3.57455 0
M  V30 5557 H 506.814 -1.47062 4.69716 0
M  V30 5558 N 508.466 -1.55915 -0.229846 0
M  V30 5559 C 509.429 -1.90914 -1.26824 0
M  V30 5560 C 510.429 -0.786999 -1.40225 0
M  V30 5561 O 511.619 -1.05484 -1.38632 0
M  V30 5562 C 508.751 -2.15264 -2.64337 0
M  V30 5563 H 509.944 -2.8378 -0.969998 0
M  V30 5564 H 507.497 -1.49069 -0.4699 0
M  V30 5565 H 508.232 -1.24923 -2.99274 0
M  V30 5566 H 508.017 -2.97005 -2.55989 0
M  V30 5567 H 509.507 -2.43467 -3.39284 0
M  V30 5568 N 509.944 0.496216 -1.49584 0
M  V30 5569 C 510.891 1.59722 -1.66606 0
M  V30 5570 C 511.861 1.58158 -0.507477 0
M  V30 5571 O 513.046 1.76072 -0.735076 0
M  V30 5572 C 510.186 2.97844 -1.74308 0
M  V30 5573 C 509.299 3.09388 -3.01502 0
M  V30 5574 C 508.434 4.38271 -3.00153 0
M  V30 5575 C 507.473 4.43466 -4.21906 0
M  V30 5576 N 506.61 5.63784 -4.1844 0
M  V30 5577 H 511.45 1.44515 -2.60613 0
M  V30 5578 H 508.987 0.703048 -1.29212 0
M  V30 5579 H 510.945 3.77907 -1.76754 0
M  V30 5580 H 509.575 3.11743 -0.837619 0
M  V30 5581 H 508.627 2.22357 -3.08645 0
M  V30 5582 H 509.939 3.09085 -3.91494 0
M  V30 5583 H 509.093 5.2666 -3.01188 0
M  V30 5584 H 507.832 4.41146 -2.07947 0
M  V30 5585 H 506.837 3.53478 -4.21109 0
M  V30 5586 H 508.062 4.42303 -5.1531 0
M  V30 5587 H 506.008 5.67491 -3.29074 0
M  V30 5588 H 505.925 5.65118 -5.02173 0
M  V30 5589 H 507.193 6.54367 -4.23585 0
M  V30 5590 N 511.423 1.38739 0.74761 0
M  V30 5591 C 512.355 1.32341 1.87132 0
M  V30 5592 C 513.368 0.234502 1.61102 0
M  V30 5593 O 514.557 0.492516 1.71571 0
M  V30 5594 C 511.657 1.02915 3.22896 0
M  V30 5595 C 510.83 2.22834 3.76383 0
M  V30 5596 C 509.889 1.90059 4.90677 0
M  V30 5597 O 508.915 2.62615 5.04997 0
M  V30 5598 N 510.117 0.859141 5.74107 0
M  V30 5599 H 512.882 2.29175 1.93129 0
M  V30 5600 H 510.443 1.32678 0.927805 0
M  V30 5601 H 512.435 0.79031 3.96908 0
M  V30 5602 H 511.005 0.148572 3.12247 0
M  V30 5603 H 510.225 2.62747 2.93867 0
M  V30 5604 H 511.513 3.02851 4.08851 0
M  V30 5605 H 510.911 0.257564 5.65113 0
M  V30 5606 H 509.468 0.680189 6.48241 0
M  V30 5607 N 512.901 -0.976442 1.23707 0
M  V30 5608 C 513.864 -2.0511 1.02287 0
M  V30 5609 C 514.864 -1.60791 -0.0167195 0
M  V30 5610 O 516.054 -1.72761 0.223408 0
M  V30 5611 C 513.186 -3.36458 0.548507 0
M  V30 5612 H 514.379 -2.25545 1.9766 0
M  V30 5613 H 511.932 -1.15042 1.05806 0
M  V30 5614 H 512.667 -3.21713 -0.408818 0
M  V30 5615 H 512.452 -3.69967 1.29874 0
M  V30 5616 H 513.942 -4.15489 0.419406 0
M  V30 5617 N 514.379 -1.04941 -1.1758 0
M  V30 5618 C 515.309 -0.669172 -2.23706 0
M  V30 5619 C 516.29 0.331835 -1.66832 0
M  V30 5620 O 517.475 0.209988 -1.93061 0
M  V30 5621 C 514.605 -0.0404889 -3.47276 0
M  V30 5622 C 513.559 -0.965983 -4.16957 0
M  V30 5623 C 512.885 -0.201312 -5.34321 0
M  V30 5624 C 514.185 -2.28902 -4.69469 0
M  V30 5625 H 515.879 -1.55639 -2.55767 0
M  V30 5626 H 513.425 -0.749793 -1.22939 0
M  V30 5627 H 515.378 0.237298 -4.20731 0
M  V30 5628 H 514.102 0.881658 -3.14475 0
M  V30 5629 H 512.761 -1.22829 -3.45411 0
M  V30 5630 H 512.409 0.723519 -4.97769 0
M  V30 5631 H 512.109 -0.817968 -5.81879 0
M  V30 5632 H 513.633 0.0692499 -6.10561 0
M  V30 5633 H 515.047 -2.07132 -5.34574 0
M  V30 5634 H 513.444 -2.85942 -5.27596 0
M  V30 5635 H 514.514 -2.92937 -3.86414 0
M  V30 5636 N 515.857 1.33968 -0.830081 0
M  V30 5637 C 516.767 2.33164 -0.259207 0
M  V30 5638 C 517.783 1.62951 0.610164 0
M  V30 5639 O 518.959 1.94668 0.516369 0
M  V30 5640 C 516.024 3.42088 0.563598 0
M  V30 5641 C 515.085 4.28037 -0.329014 0
M  V30 5642 C 514.318 5.3176 0.454616 0
M  V30 5643 O 514.541 5.44876 1.6872 0
M  V30 5644 O 513.475 6.01669 -0.166794 0
M  V30 5645 H 517.301 2.83832 -1.08041 0
M  V30 5646 H 514.886 1.37154 -0.59239 0
M  V30 5647 H 516.768 4.08581 1.03147 0
M  V30 5648 H 515.443 2.93651 1.36201 0
M  V30 5649 H 514.35 3.64443 -0.844538 0
M  V30 5650 H 515.683 4.79934 -1.09196 0
M  V30 5651 N 517.335 0.585699 1.46312 0
M  V30 5652 C 518.265 -0.133556 2.33118 0
M  V30 5653 C 519.246 -0.880707 1.45525 0
M  V30 5654 O 520.431 -0.855579 1.74337 0
M  V30 5655 C 517.561 -1.14585 3.27853 0
M  V30 5656 C 516.515 -0.513341 4.2491 0
M  V30 5657 C 515.841 -1.63231 5.09175 0
M  V30 5658 C 517.141 0.551413 5.19381 0
M  V30 5659 H 518.835 0.59121 2.93505 0
M  V30 5660 H 516.381 0.285761 1.41136 0
M  V30 5661 H 518.334 -1.65741 3.87438 0
M  V30 5662 H 517.058 -1.90093 2.65579 0
M  V30 5663 H 515.717 -0.0228349 3.66593 0
M  V30 5664 H 515.365 -2.37713 4.43285 0
M  V30 5665 H 515.065 -1.21473 5.74907 0
M  V30 5666 H 516.589 -2.14658 5.71624 0
M  V30 5667 H 518.003 0.124804 5.73164 0
M  V30 5668 H 516.4 0.889486 5.93471 0
M  V30 5669 H 517.47 1.43655 4.63132 0
M  V30 5670 N 518.813 -1.54241 0.323641 0
M  V30 5671 C 519.743 -2.27289 -0.534993 0
M  V30 5672 C 520.724 -1.28087 -1.11927 0
M  V30 5673 O 521.909 -1.56899 -1.14439 0
M  V30 5674 C 519.039 -3.03075 -1.69596 0
M  V30 5675 C 517.993 -4.09614 -1.24098 0
M  V30 5676 C 517.319 -4.73242 -2.4889 0
M  V30 5677 C 518.619 -5.21087 -0.355789 0
M  V30 5678 H 520.313 -2.99308 0.0743257 0
M  V30 5679 H 517.859 -1.43952 0.0371874 0
M  V30 5680 H 519.812 -3.52907 -2.30293 0
M  V30 5681 H 518.536 -2.28673 -2.33187 0
M  V30 5682 H 517.195 -3.60666 -0.656945 0
M  V30 5683 H 516.843 -3.95455 -3.10845 0
M  V30 5684 H 516.543 -5.45209 -2.19138 0
M  V30 5685 H 518.067 -5.25848 -3.10348 0
M  V30 5686 H 519.481 -5.66675 -0.869042 0
M  V30 5687 H 517.878 -5.9991 -0.151045 0
M  V30 5688 H 518.948 -4.81005 0.613339 0
M  V30 5689 N 520.291 -0.0518155 -1.57515 0
M  V30 5690 C 521.539 0.620595 -1.92336 0
M  V30 5691 C 521.86 1.71345 -0.930907 0
M  V30 5692 O 521.13 1.95885 0.0241341 0
M  V30 5693 H 519.71 0.232226 -0.709986 0
M  V30 5694 H 522.372 -0.104969 -1.94617 0
M  V30 5695 H 521.468 1.05879 -2.93592 0
M  V30 5696 N 521.769 1.56035 0.221574 0
M  V30 5697 C 522.716 1.92413 1.27459 0
M  V30 5698 C 523.686 0.781323 1.46576 0
M  V30 5699 O 524.871 1.03721 1.60145 0
M  V30 5700 C 522.011 2.24617 2.61995 0
M  V30 5701 C 521.124 3.51831 2.50677 0
M  V30 5702 C 520.259 3.73482 3.77736 0
M  V30 5703 C 519.298 4.94211 3.6114 0
M  V30 5704 N 518.435 5.12252 4.80148 0
M  V30 5705 H 523.275 2.82203 0.957355 0
M  V30 5706 H 520.812 1.39676 0.461415 0
M  V30 5707 H 522.77 2.41298 3.40339 0
M  V30 5708 H 521.4 1.38 2.91815 0
M  V30 5709 H 520.452 3.43343 1.63767 0
M  V30 5710 H 521.764 4.40328 2.34334 0
M  V30 5711 H 520.918 3.9026 4.64523 0
M  V30 5712 H 519.657 2.83266 3.97003 0
M  V30 5713 H 518.662 4.77384 2.72736 0
M  V30 5714 H 519.887 5.85912 3.43343 0
M  V30 5715 H 517.833 4.24978 4.99729 0
M  V30 5716 H 517.75 5.94881 4.66532 0
M  V30 5717 H 519.018 5.33465 5.68362 0
M  V30 5718 N 523.247 -0.488276 1.49845 0
M  V30 5719 C 524.493 -1.24065 1.61182 0
M  V30 5720 C 524.848 -1.9004 0.300435 0
M  V30 5721 O 524.141 -1.78341 -0.700365 0
M  V30 5722 C 524.335 -2.32152 2.71735 0
M  V30 5723 C 524.164 -1.76778 4.13497 0
M  V30 5724 C 522.934 -1.57513 4.80123 0
M  V30 5725 C 525.132 -1.27242 4.98311 0
M  V30 5726 N 523.114 -0.972015 6.06156 0
M  V30 5727 C 524.485 -0.791457 6.14928 0
M  V30 5728 C 526.54 -1.15934 4.84214 0
M  V30 5729 C 525.243 -0.208593 7.18997 0
M  V30 5730 C 527.269 -0.590436 5.88445 0
M  V30 5731 C 526.631 -0.119767 7.04298 0
M  V30 5732 H 522.73 -0.443487 0.644083 0
M  V30 5733 H 525.314 -0.545551 1.86901 0
M  V30 5734 H 523.485 -2.99108 2.47768 0
M  V30 5735 H 525.217 -2.99187 2.72523 0
M  V30 5736 H 521.972 -1.82247 4.37131 0
M  V30 5737 H 522.396 -0.689367 6.73481 0
M  V30 5738 H 527.038 -1.5092 3.94947 0
M  V30 5739 H 524.756 0.153501 8.07954 0
M  V30 5740 H 528.342 -0.505548 5.79599 0
M  V30 5741 H 527.222 0.313568 7.83573 0
M  V30 5742 N 524.725 -1.39134 -0.740242 0
M  V30 5743 C 525.672 -1.37434 -1.8542 0
M  V30 5744 C 526.642 -0.234822 -1.64432 0
M  V30 5745 O 527.827 -0.429125 -1.85912 0
M  V30 5746 C 524.967 -1.21844 -3.22875 0
M  V30 5747 C 524.08 -2.45296 -3.55603 0
M  V30 5748 C 523.215 -2.22334 -4.82432 0
M  V30 5749 C 522.254 -3.41488 -5.07988 0
M  V30 5750 N 521.391 -3.17877 -6.26018 0
M  V30 5751 H 526.231 -2.3266 -1.86207 0
M  V30 5752 H 523.768 -1.15578 -0.909946 0
M  V30 5753 H 525.726 -1.10818 -4.02213 0
M  V30 5754 H 524.356 -0.3025 -3.21379 0
M  V30 5755 H 523.408 -2.66945 -2.71006 0
M  V30 5756 H 524.72 -3.34063 -3.7041 0
M  V30 5757 H 523.874 -2.0852 -5.69741 0
M  V30 5758 H 522.613 -1.30954 -4.6979 0
M  V30 5759 H 521.618 -3.55807 -4.19144 0
M  V30 5760 H 522.843 -4.33763 -5.22519 0
M  V30 5761 H 520.789 -2.29156 -6.14673 0
M  V30 5762 H 520.706 -4.00198 -6.41387 0
M  V30 5763 H 521.974 -3.07746 -7.16179 0
M  V30 5764 N 526.204 0.969867 -1.24223 0
M  V30 5765 C 527.615 1.52717 -1.07399 0
M  V30 5766 C 527.966 1.92956 0.355298 0
M  V30 5767 O 527.091 1.77112 1.2434 0
M  V30 5768 C 527.686 2.77521 -1.94339 0
M  V30 5769 C 526.245 3.29615 -1.81744 0
M  V30 5770 C 525.392 2.02537 -1.89405 0
M  V30 5771 H 528.343 0.788399 -1.37732 0
M  V30 5772 H 528.364 3.50773 -1.47439 0
M  V30 5773 H 527.876 2.48203 -2.98357 0
M  V30 5774 H 525.977 3.63789 -0.805505 0
M  V30 5775 H 526.09 3.98661 -2.65718 0
M  V30 5776 H 524.454 2.17151 -1.33108 0
M  V30 5777 H 525.237 1.75587 -2.94999 0
M  V30 5778 N 527.682 1.05563 1.17022 0
M  V30 5779 C 528.615 0.604197 2.20056 0
M  V30 5780 C 529.593 -0.369169 1.58354 0
M  V30 5781 O 530.777 -0.279898 1.8641 0
M  V30 5782 C 527.904 -0.115265 3.38504 0
M  V30 5783 C 526.95 0.813698 4.18666 0
M  V30 5784 S 527.783 2.30492 4.83357 0
M  V30 5785 C 528.939 1.59674 6.0519 0
M  V30 5786 H 529.172 1.47713 2.58008 0
M  V30 5787 H 526.705 0.867932 1.27696 0
M  V30 5788 H 528.663 -0.524162 4.0714 0
M  V30 5789 H 527.324 -0.964284 2.98932 0
M  V30 5790 H 526.517 0.256736 5.03346 0
M  V30 5791 H 526.119 1.16213 3.55486 0
M  V30 5792 H 528.411 0.898164 6.7152 0
M  V30 5793 H 529.354 2.42115 6.65422 0
M  V30 5794 H 529.762 1.08252 5.54023 0
M  V30 5795 N 529.16 -1.33526 0.837174 0
M  V30 5796 C 530.437 -1.92369 0.354065 0
M  V30 5797 C 530.817 -1.76348 -1.16038 0
M  V30 5798 O 530.165 -1.15083 -1.97403 0
M  V30 5799 C 530.375 -3.39728 0.799101 0
M  V30 5800 C 531.723 -4.16877 0.806139 0
M  V30 5801 O 532.747 -3.48373 0.742597 0
M  V30 5802 O 531.606 -5.39166 0.892345 0
M  V30 5803 H 528.7 -0.820952 0.0998378 0
M  V30 5804 H 531.246 -1.42409 0.922913 0
M  V30 5805 H 530.018 -3.45254 1.84162 0
M  V30 5806 H 529.641 -3.97062 0.206731 0
M  V30 5807 N 530.638 -0.59345 -1.46 0
M  V30 5808 C 531.884 -0.0832754 -2.02629 0
M  V30 5809 C 532.217 1.27749 -1.46266 0
M  V30 5810 O 531.492 1.8395 -0.631866 0
M  V30 5811 C 531.775 -0.0290756 -3.60088 0
M  V30 5812 C 531.628 -1.41951 -4.26814 0
M  V30 5813 C 532.947 0.666055 -4.35031 0
M  V30 5814 H 530.066 -0.031736 -0.736316 0
M  V30 5815 H 532.708 -0.762711 -1.74019 0
M  V30 5816 H 530.858 0.549532 -3.84594 0
M  V30 5817 H 532.53 -2.04411 -4.13538 0
M  V30 5818 H 530.773 -1.98422 -3.8576 0
M  V30 5819 H 531.444 -1.33395 -5.3564 0
M  V30 5820 H 533.92 0.174401 -4.15734 0
M  V30 5821 H 532.796 0.673041 -5.44758 0
M  V30 5822 H 533.057 1.72946 -4.06869 0
M  V30 5823 N 532.116 1.54067 -0.331816 0
M  V30 5824 C 533.026 2.28322 0.539104 0
M  V30 5825 C 534.042 1.32985 1.1221 0
M  V30 5826 O 535.218 1.6601 1.1403 0
M  V30 5827 C 532.283 3.03277 1.68 0
M  V30 5828 C 531.344 4.14216 1.12798 0
M  V30 5829 C 530.577 4.85588 2.2145 0
M  V30 5830 O 530.8 4.56536 3.41952 0
M  V30 5831 O 529.734 5.72309 1.86404 0
M  V30 5832 H 533.56 3.03632 -0.0641692 0
M  V30 5833 H 531.145 1.49083 -0.0972365 0
M  V30 5834 H 533.027 3.50189 2.34405 0
M  V30 5835 H 531.702 2.30834 2.2693 0
M  V30 5836 H 530.609 3.71635 0.428782 0
M  V30 5837 H 531.942 4.88727 0.583698 0
M  V30 5838 N 533.594 0.0601682 1.57485 0
M  V30 5839 C 534.871 -0.651956 1.84415 0
M  V30 5840 C 535.251 -1.88498 0.950361 0
M  V30 5841 O 534.599 -2.28496 0.0136719 0
M  V30 5842 C 534.809 -1.00069 3.34346 0
M  V30 5843 C 536.157 -1.37915 4.01578 0
M  V30 5844 O 537.181 -1.09277 3.39024 0
M  V30 5845 O 536.04 -1.91399 5.11887 0
M  V30 5846 H 533.134 -0.322668 0.761455 0
M  V30 5847 H 535.68 0.0902159 1.6946 0
M  V30 5848 H 534.452 -0.124463 3.91102 0
M  V30 5849 H 534.075 -1.80001 3.54521 0
M  V30 5850 N 535.072 -1.5615 -0.213296 0
M  V30 5851 C 536.297 -1.83986 -0.957282 0
M  V30 5852 C 536.722 -0.641526 -1.76822 0
M  V30 5853 O 536.08 0.409722 -1.7661 0
M  V30 5854 C 536.128 -3.09889 -1.84393 0
M  V30 5855 O 535.232 -2.89163 -2.94038 0
M  V30 5856 H 534.573 -0.606357 -0.270605 0
M  V30 5857 H 537.103 -2.03369 -0.224111 0
M  V30 5858 H 537.113 -3.40209 -2.25215 0
M  V30 5859 H 535.788 -3.96735 -1.24795 0
M  V30 5860 H 534.365 -2.70097 -2.57103 0
M  V30 5861 N 536.55 0.480323 -1.50102 0
M  V30 5862 C 537.48 1.58769 -1.71215 0
M  V30 5863 C 538.461 1.60583 -0.560997 0
M  V30 5864 O 539.646 1.76996 -0.799127 0
M  V30 5865 C 536.776 2.97148 -1.79778 0
M  V30 5866 C 535.73 3.10201 -2.94888 0
M  V30 5867 C 535.056 4.50137 -2.88584 0
M  V30 5868 C 536.356 2.88283 -4.35534 0
M  V30 5869 H 538.05 1.41354 -2.6393 0
M  V30 5870 H 535.596 0.678591 -1.27008 0
M  V30 5871 H 537.549 3.74536 -1.93133 0
M  V30 5872 H 536.273 3.15699 -0.836772 0
M  V30 5873 H 534.932 2.35244 -2.81169 0
M  V30 5874 H 534.58 4.65593 -1.90349 0
M  V30 5875 H 534.28 4.59808 -3.65856 0
M  V30 5876 H 535.804 5.29558 -3.03976 0
M  V30 5877 H 537.218 3.55427 -4.49827 0
M  V30 5878 H 535.615 3.09408 -5.14186 0
M  V30 5879 H 536.685 1.84219 -4.48544 0
M  V30 5880 N 538.028 1.39524 0.732853 0
M  V30 5881 C 538.938 1.40695 1.87729 0
M  V30 5882 C 539.954 0.301496 1.71368 0
M  V30 5883 O 541.13 0.543313 1.93933 0
M  V30 5884 C 538.195 1.25098 3.23344 0
M  V30 5885 C 537.256 2.45634 3.52083 0
M  V30 5886 C 536.489 2.30772 4.81228 0
M  V30 5887 O 536.712 1.31233 5.55098 0
M  V30 5888 O 535.646 3.19799 5.09914 0
M  V30 5889 H 539.472 2.37168 1.89697 0
M  V30 5890 H 537.057 1.20663 0.880959 0
M  V30 5891 H 538.939 1.18541 4.04383 0
M  V30 5892 H 537.614 0.317209 3.22142 0
M  V30 5893 H 536.521 2.57767 2.71122 0
M  V30 5894 H 537.854 3.37712 3.58066 0
M  V30 5895 N 539.506 -0.963266 1.24736 0
M  V30 5896 C 540.436 -2.07628 1.06832 0
M  V30 5897 C 541.417 -1.70088 -0.0200566 0
M  V30 5898 O 542.602 -1.93636 0.147854 0
M  V30 5899 C 539.732 -3.40636 0.677069 0
M  V30 5900 C 538.686 -3.9215 1.71471 0
M  V30 5901 C 538.012 -5.21553 1.1784 0
M  V30 5902 C 539.312 -4.19493 3.11164 0
M  V30 5903 H 541.006 -2.22864 1.9993 0
M  V30 5904 H 538.552 -1.07093 0.96266 0
M  V30 5905 H 540.505 -4.17941 0.538792 0
M  V30 5906 H 539.229 -3.25313 -0.289612 0
M  V30 5907 H 537.888 -3.17005 1.84128 0
M  V30 5908 H 537.536 -5.02593 0.202195 0
M  V30 5909 H 537.236 -5.56988 1.87185 0
M  V30 5910 H 538.76 -6.01463 1.05233 0
M  V30 5911 H 540.174 -4.87487 3.01711 0
M  V30 5912 H 538.571 -4.66165 3.77902 0
M  V30 5913 H 539.641 -3.26097 3.58871 0
M  V30 5914 N 540.985 -1.06182 -1.16461 0
M  V30 5915 C 541.915 -0.692861 -2.22984 0
M  V30 5916 C 542.896 0.314122 -1.67174 0
M  V30 5917 O 544.081 0.189499 -1.93273 0
M  V30 5918 C 541.211 -0.07732 -3.47214 0
M  V30 5919 C 540.165 -1.01015 -4.15909 0
M  V30 5920 C 539.491 -0.257973 -5.34077 0
M  V30 5921 C 540.791 -2.33868 -4.67015 0
M  V30 5922 H 542.485 -1.58343 -2.54102 0
M  V30 5923 H 540.031 -0.76279 -1.22137 0
M  V30 5924 H 541.984 0.19266 -4.20959 0
M  V30 5925 H 540.708 0.848254 -3.15392 0
M  V30 5926 H 539.367 -1.26486 -3.44088 0
M  V30 5927 H 539.015 0.670684 -4.98509 0
M  V30 5928 H 538.715 -0.879638 -5.80979 0
M  V30 5929 H 540.239 0.00448788 -6.106 0
M  V30 5930 H 541.653 -2.1279 -5.32347 0
M  V30 5931 H 540.05 -2.91522 -5.24533 0
M  V30 5932 H 541.12 -2.97019 -3.83286 0
M  V30 5933 N 542.463 1.3308 -0.844243 0
M  V30 5934 C 543.688 2.02341 -0.455282 0
M  V30 5935 C 544.113 1.6308 0.93737 0
M  V30 5936 O 543.471 0.826118 1.61385 0
M  V30 5937 C 543.519 3.55743 -0.58988 0
M  V30 5938 O 542.623 4.1063 0.38166 0
M  V30 5939 H 541.964 0.637898 -0.184343 0
M  V30 5940 H 544.494 1.6986 -1.14056 0
M  V30 5941 H 544.504 4.05243 -0.473522 0
M  V30 5942 H 543.179 3.83662 -1.60549 0
M  V30 5943 H 541.756 3.72236 0.22241 0
M  V30 5944 N 543.941 0.601185 1.45683 0
M  V30 5945 C 545.166 0.0982245 2.07167 0
M  V30 5946 C 545.591 -1.20546 1.44396 0
M  V30 5947 O 544.949 -1.73247 0.534347 0
M  V30 5948 C 544.997 -0.0346976 3.60583 0
M  V30 5949 O 544.101 -1.08657 3.97828 0
M  V30 5950 H 543.442 0.0711618 0.660176 0
M  V30 5951 H 545.972 0.829376 1.87036 0
M  V30 5952 H 545.982 -0.234969 4.07323 0
M  V30 5953 H 544.657 0.917265 4.05659 0
M  V30 5954 H 543.234 -0.863275 3.6277 0
M  V30 5955 N 545.419 -1.53889 0.339982 0
M  V30 5956 C 546.369 -2.2165 -0.534354 0
M  V30 5957 C 547.353 -1.20266 -1.06887 0
M  V30 5958 O 548.545 -1.45827 -1.00316 0
M  V30 5959 C 545.674 -2.99014 -1.68659 0
M  V30 5960 C 544.76 -4.07751 -1.16618 0
M  V30 5961 N 545.151 -5.04469 -0.366717 0
M  V30 5962 C 543.449 -4.21998 -1.4434 0
M  V30 5963 C 544.15 -5.81638 -0.0847275 0
M  V30 5964 N 543.126 -5.39388 -0.675391 0
M  V30 5965 H 546.928 -2.93781 0.0835562 0
M  V30 5966 H 544.442 -1.61736 0.146665 0
M  V30 5967 H 546.439 -3.46056 -2.32489 0
M  V30 5968 H 545.099 -2.28408 -2.30781 0
M  V30 5969 H 546.11 -5.17899 -0.00811038 0
M  V30 5970 H 542.787 -3.62612 -2.06928 0
M  V30 5971 H 544.177 -6.69563 0.559943 0
M  V30 5972 N 546.897 -0.0685191 -1.57451 0
M  V30 5973 C 548.127 0.609577 -1.97402 0
M  V30 5974 C 548.535 1.63882 -0.945489 0
M  V30 5975 O 547.878 1.8354 0.0766052 0
M  V30 5976 C 547.94 1.3385 -3.33653 0
M  V30 5977 C 547.604 0.463103 -4.54648 0
M  V30 5978 C 548.601 -0.277964 -5.19156 0
M  V30 5979 C 546.286 0.388941 -5.00792 0
M  V30 5980 C 548.28 -1.08145 -6.28159 0
M  V30 5981 C 545.967 -0.418217 -6.09667 0
M  V30 5982 C 546.965 -1.15208 -6.73213 0
M  V30 5983 O 546.653 -1.94594 -7.79993 0
M  V30 5984 H 546.385 0.170197 -0.654224 0
M  V30 5985 H 548.939 -0.13647 -2.04946 0
M  V30 5986 H 547.169 2.13055 -3.22714 0
M  V30 5987 H 548.858 1.90851 -3.58233 0
M  V30 5988 H 549.624 -0.230241 -4.84453 0
M  V30 5989 H 545.503 0.949769 -4.5111 0
M  V30 5990 H 549.047 -1.65476 -6.7769 0
M  V30 5991 H 544.944 -0.467515 -6.43805 0
M  V30 5992 H 545.712 -1.8699 -7.96854 0
M  V30 5993 N 548.375 1.56261 0.205012 0
M  V30 5994 C 549.603 1.84141 0.943386 0
M  V30 5995 C 550.018 0.649772 1.77266 0
M  V30 5996 O 549.375 -0.381612 1.78466 0
M  V30 5997 C 549.426 3.10719 1.84759 0
M  V30 5998 O 549.147 4.25286 1.05181 0
M  V30 5999 C 550.648 3.51706 2.69848 0
M  V30 6000 H 547.868 0.611734 0.275721 0
M  V30 6001 H 550.412 2.03364 0.215253 0
M  V30 6002 H 548.567 2.93422 2.52947 0
M  V30 6003 H 548.981 4.97301 1.66709 0
M  V30 6004 H 550.455 4.43266 3.28967 0
M  V30 6005 H 550.932 2.7423 3.43067 0
M  V30 6006 H 551.538 3.71499 2.07047 0
M  V30 6007 N 549.853 -0.472356 1.50355 0
M  V30 6008 C 550.801 -1.59126 1.69651 0
M  V30 6009 C 551.795 -1.59793 0.56237 0
M  V30 6010 O 553.001 -1.63957 0.742832 0
M  V30 6011 H 549.376 -0.528008 0.535454 0
M  V30 6012 H 551.347 -1.40013 2.63513 0
M  V30 6013 C 550.096 -2.97075 1.8067 0
M  V30 6014 H 549.419 -2.9728 2.67329 0
M  V30 6015 H 550.859 -3.74825 1.98197 0
M  V30 6016 C 549.318 -3.32247 0.558016 0
M  V30 6017 O 549.848 -4.00553 -0.303399 0
M  V30 6018 N 548.054 -2.87659 0.412415 0
M  V30 6019 H 547.601 -2.32246 1.11443 0
M  V30 6020 H 547.559 -3.11556 -0.421908 0
M  V30 6021 N 551.331 -1.39911 -0.725443 0
M  V30 6022 C 552.742 -1.33599 -1.30415 0
M  V30 6023 C 553.093 -0.00481792 -1.96199 0
M  V30 6024 O 552.218 0.897275 -1.96921 0
M  V30 6025 C 552.813 -2.41965 -2.37146 0
M  V30 6026 C 551.372 -2.39144 -2.90667 0
M  V30 6027 C 550.519 -2.23355 -1.64341 0
M  V30 6028 H 553.47 -1.4986 -0.522267 0
M  V30 6029 H 553.491 -2.09304 -3.17761 0
M  V30 6030 H 553.003 -3.38837 -1.89238 0
M  V30 6031 H 551.104 -1.4594 -3.4283 0
M  V30 6032 H 551.217 -3.34362 -3.43131 0
M  V30 6033 H 549.581 -1.70696 -1.89037 0
M  V30 6034 H 550.364 -3.2221 -1.18471 0
M  V30 6035 N 552.809 0.956637 -1.25245 0
M  V30 6036 C 554.037 1.73571 -1.12608 0
M  V30 6037 C 554.452 1.86063 0.320324 0
M  V30 6038 O 553.809 1.35691 1.22042 0
M  V30 6039 C 553.86 3.15053 -1.77268 0
M  V30 6040 O 553.581 3.03174 -3.16255 0
M  V30 6041 C 555.082 4.09248 -1.70386 0
M  V30 6042 H 552.302 0.543955 -0.392879 0
M  V30 6043 H 554.846 1.20031 -1.65568 0
M  V30 6044 H 553.001 3.65543 -1.28284 0
M  V30 6045 H 553.415 3.9241 -3.48015 0
M  V30 6046 H 554.889 5.06138 -2.20291 0
M  V30 6047 H 555.366 4.34102 -0.667239 0
M  V30 6048 H 555.972 3.64672 -2.18849 0
M  V30 6049 N 554.287 1.06798 1.15896 0
M  V30 6050 C 555.533 0.788934 1.86825 0
M  V30 6051 C 555.866 -0.683084 1.8179 0
M  V30 6052 O 555.141 -1.50086 1.23711 0
M  V30 6053 C 555.424 1.29065 3.36176 0
M  V30 6054 C 555.277 2.8268 3.49874 0
M  V30 6055 C 556.596 0.902655 4.30744 0
M  V30 6056 H 553.715 0.288066 0.678371 0
M  V30 6057 H 556.357 1.32479 1.36195 0
M  V30 6058 H 554.507 0.834806 3.79425 0
M  V30 6059 H 556.179 3.36511 3.15528 0
M  V30 6060 H 554.422 3.21157 2.91617 0
M  V30 6061 H 555.093 3.12852 4.54783 0
M  V30 6062 H 557.569 1.29535 3.95424 0
M  V30 6063 H 556.445 1.28111 5.3374 0
M  V30 6064 H 556.706 -0.191951 4.41683 0
M  V30 6065 N 555.766 -1.3263 0.851289 0
M  V30 6066 C 557.182 -1.50162 0.5407 0
M  V30 6067 C 557.382 -1.78788 -0.929369 0
M  V30 6068 O 556.438 -1.85545 -1.71258 0
M  V30 6069 C 557.751 -2.64803 1.42478 0
M  V30 6070 C 559.299 -2.78688 1.42485 0
M  V30 6071 C 559.774 -3.96405 2.29407 0
M  V30 6072 N 561.265 -4.0366 2.27184 0
M  V30 6073 C 562 -4.93971 2.9117 0
M  V30 6074 N 561.496 -5.89313 3.64256 0
M  V30 6075 N 563.289 -4.87066 2.80576 0
M  V30 6076 H 555.44 -1.12315 1.80275 0
M  V30 6077 H 557.703 -0.553266 0.769806 0
M  V30 6078 H 557.409 -2.50368 2.46999 0
M  V30 6079 H 557.283 -3.60506 1.10974 0
M  V30 6080 H 559.67 -2.92547 0.387304 0
M  V30 6081 H 559.751 -1.83708 1.78002 0
M  V30 6082 H 559.395 -3.83304 3.33228 0
M  V30 6083 H 559.325 -4.90654 1.91224 0
M  V30 6084 H 561.816 -3.35435 1.74045 0
M  V30 6085 H 562.129 -6.54913 4.10255 0
M  V30 6086 H 560.474 -5.8935 3.68364 0
M  V30 6087 H 563.665 -4.11552 2.23031 0
M  V30 6088 H 563.838 -5.57248 3.30725 0
M  V30 6089 N 557.244 -0.608902 -1.45362 0
M  V30 6090 C 558.66 -0.272659 -1.57254 0
M  V30 6091 C 558.86 1.22477 -1.60005 0
M  V30 6092 O 557.916 2.00785 -1.53106 0
M  V30 6093 C 559.229 -0.944991 -2.85465 0
M  V30 6094 C 560.777 -0.921033 -2.99142 0
M  V30 6095 C 561.252 -1.5734 -4.30126 0
M  V30 6096 N 562.743 -1.53895 -4.36887 0
M  V30 6097 C 563.478 -2.01286 -5.36909 0
M  V30 6098 N 562.974 -2.56768 -6.43461 0
M  V30 6099 N 564.767 -1.92046 -5.28275 0
M  V30 6100 H 556.918 -1.58117 -1.4182 0
M  V30 6101 H 559.181 -0.662437 -0.678146 0
M  V30 6102 H 558.887 -1.99941 -2.89338 0
M  V30 6103 H 558.761 -0.469079 -3.74272 0
M  V30 6104 H 561.148 0.124846 -2.94836 0
M  V30 6105 H 561.229 -1.43522 -2.11743 0
M  V30 6106 H 560.873 -2.61862 -4.35191 0
M  V30 6107 H 560.803 -1.03422 -5.16344 0
M  V30 6108 H 563.294 -1.13366 -3.60495 0
M  V30 6109 H 563.607 -2.9072 -7.16032 0
M  V30 6110 H 561.952 -2.60808 -6.44208 0
M  V30 6111 H 565.143 -1.48439 -4.43941 0
M  V30 6112 H 565.316 -2.29293 -6.06077 0
M  V30 6113 N 558.722 1.53707 -0.348139 0
M  V30 6114 C 559.952 2.05108 0.247864 0
M  V30 6115 C 560.36 1.22252 1.44399 0
M  V30 6116 O 559.703 0.251853 1.81965 0
M  V30 6117 C 559.765 3.52171 0.722187 0
M  V30 6118 C 559.429 4.5562 -0.354902 0
M  V30 6119 C 560.426 5.05883 -1.19911 0
M  V30 6120 C 558.111 4.99703 -0.510145 0
M  V30 6121 C 560.105 5.98814 -2.18406 0
M  V30 6122 C 557.792 5.92443 -1.49848 0
M  V30 6123 C 558.79 6.41887 -2.33389 0
M  V30 6124 O 558.478 7.32802 -3.3054 0
M  V30 6125 H 558.21 0.674086 0.0508296 0
M  V30 6126 H 560.764 1.99229 -0.49968 0
M  V30 6127 H 558.994 3.55529 1.52105 0
M  V30 6128 H 560.683 3.8652 1.23925 0
M  V30 6129 H 561.449 4.72586 -1.09028 0
M  V30 6130 H 557.328 4.60816 0.130274 0
M  V30 6131 H 560.872 6.3733 -2.83649 0
M  V30 6132 H 556.769 6.25155 -1.60786 0
M  V30 6133 H 557.537 7.50749 -3.26064 0
M  V30 6134 N 560.2 0.0768682 1.57412 0
M  V30 6135 C 561.163 -0.873949 2.11884 0
M  V30 6136 C 562.163 -1.22301 1.04398 0
M  V30 6137 O 563.353 -1.15545 1.30365 0
M  V30 6138 C 560.485 -2.17575 2.62438 0
M  V30 6139 H 561.678 -0.401278 2.97203 0
M  V30 6140 H 559.231 -0.171904 1.55352 0
M  V30 6141 H 559.966 -2.69368 1.80587 0
M  V30 6142 H 559.751 -1.93534 3.41009 0
M  V30 6143 H 561.241 -2.85631 3.04639 0
M  V30 6144 N 561.678 -1.56367 -0.196722 0
M  V30 6145 C 562.924 -1.80796 -0.918725 0
M  V30 6146 C 563.257 -0.650645 -1.82976 0
M  V30 6147 O 562.532 0.348889 -1.91345 0
M  V30 6148 C 562.815 -3.15472 -1.73636 0
M  V30 6149 C 562.668 -4.41693 -0.85015 0
M  V30 6150 C 563.987 -3.46824 -2.70927 0
M  V30 6151 H 561.106 -0.657702 -0.332561 0
M  V30 6152 H 563.748 -1.89086 -0.186186 0
M  V30 6153 H 561.898 -3.08536 -2.36088 0
M  V30 6154 H 563.57 -4.60673 -0.240459 0
M  V30 6155 H 561.813 -4.33517 -0.156785 0
M  V30 6156 H 562.484 -5.32419 -1.45719 0
M  V30 6157 H 564.96 -3.54049 -2.18607 0
M  V30 6158 H 563.836 -4.4218 -3.25219 0
M  V30 6159 H 564.097 -2.70236 -3.49893 0
M  V30 6160 N 563.156 0.464375 -1.50603 0
M  V30 6161 C 564.119 1.54393 -1.69397 0
M  V30 6162 C 565.119 1.50566 -0.564504 0
M  V30 6163 O 566.309 1.53066 -0.831645 0
M  V30 6164 C 563.441 2.9401 -1.72543 0
M  V30 6165 H 564.634 1.39044 -2.65719 0
M  V30 6166 H 562.187 0.69122 -1.40185 0
M  V30 6167 H 562.922 3.14795 -0.77938 0
M  V30 6168 H 562.707 2.98195 -2.54602 0
M  V30 6169 H 564.197 3.72375 -1.89015 0
M  V30 6170 N 564.634 1.40294 0.718013 0
M  V30 6171 C 566.05 1.2227 1.02577 0
M  V30 6172 C 566.25 0.0961976 2.0127 0
M  V30 6173 O 565.306 -0.546695 2.46511 0
M  V30 6174 C 566.619 2.56348 1.57182 0
M  V30 6175 C 568.167 2.6334 1.69178 0
M  V30 6176 C 568.642 3.9768 2.27188 0
M  V30 6177 N 570.133 3.99409 2.34578 0
M  V30 6178 C 570.868 5.00141 2.8044 0
M  V30 6179 N 570.364 6.11268 3.26073 0
M  V30 6180 N 572.157 4.87511 2.79802 0
M  V30 6181 H 564.308 2.12304 0.0637899 0
M  V30 6182 H 566.571 0.943632 0.0909036 0
M  V30 6183 H 566.277 3.3942 0.921262 0
M  V30 6184 H 566.151 2.77266 2.55741 0
M  V30 6185 H 568.538 1.80641 2.33351 0
M  V30 6186 H 568.619 2.46255 0.692247 0
M  V30 6187 H 568.263 4.80817 1.63638 0
M  V30 6188 H 568.193 4.12093 3.27852 0
M  V30 6189 H 570.684 3.19162 2.02346 0
M  V30 6190 H 570.997 6.84023 3.59628 0
M  V30 6191 H 569.342 6.14837 3.24038 0
M  V30 6192 H 572.533 3.9979 2.43487 0
M  V30 6193 H 572.706 5.66158 3.15228 0
M  V30 6194 N 566.112 -0.949982 1.2575 0
M  V30 6195 C 567.042 -2.06483 1.09028 0
M  V30 6196 C 568.023 -1.701 -0.00201532 0
M  V30 6197 O 569.208 -1.93469 0.168383 0
M  V30 6198 C 566.338 -3.39899 0.71316 0
M  V30 6199 C 565.292 -3.90309 1.75621 0
M  V30 6200 C 564.618 -5.20274 1.23365 0
M  V30 6201 C 565.918 -4.16169 3.15596 0
M  V30 6202 H 567.612 -2.20731 2.02283 0
M  V30 6203 H 565.158 -1.06066 0.973964 0
M  V30 6204 H 567.111 -4.17346 0.58309 0
M  V30 6205 H 565.835 -3.25602 -0.255091 0
M  V30 6206 H 564.494 -3.15035 1.8748 0
M  V30 6207 H 564.142 -5.02351 0.255491 0
M  V30 6208 H 563.842 -5.54971 1.93082 0
M  V30 6209 H 565.366 -6.00314 1.11607 0
M  V30 6210 H 566.78 -4.84259 3.06864 0
M  V30 6211 H 565.177 -4.62131 3.82825 0
M  V30 6212 H 566.247 -3.22273 3.6231 0
M  V30 6213 N 567.59 -1.07411 -1.15328 0
M  V30 6214 C 569.006 -0.799759 -1.38116 0
M  V30 6215 C 569.206 0.59572 -1.92493 0
M  V30 6216 O 568.262 1.35433 -2.13106 0
M  V30 6217 C 569.575 -1.87407 -2.35158 0
M  V30 6218 C 571.123 -1.89889 -2.48819 0
M  V30 6219 C 571.598 -2.96406 -3.49153 0
M  V30 6220 N 573.089 -2.95512 -3.56689 0
M  V30 6221 C 573.824 -3.74575 -4.34144 0
M  V30 6222 N 573.32 -4.63488 -5.14928 0
M  V30 6223 N 575.113 -3.62919 -4.29239 0
M  V30 6224 H 567.264 -1.97411 -0.78374 0
M  V30 6225 H 569.527 -0.856113 -0.407154 0
M  V30 6226 H 569.233 -2.8768 -2.0232 0
M  V30 6227 H 569.107 -1.73471 -3.34944 0
M  V30 6228 H 571.494 -0.902677 -2.80955 0
M  V30 6229 H 571.575 -2.07904 -1.49029 0
M  V30 6230 H 571.219 -3.96227 -3.17752 0
M  V30 6231 H 571.149 -2.75638 -4.48699 0
M  V30 6232 H 573.64 -2.31061 -2.99031 0
M  V30 6233 H 573.953 -5.20445 -5.71276 0
M  V30 6234 H 572.298 -4.67537 -5.14232 0
M  V30 6235 H 575.489 -2.92833 -3.65194 0
M  V30 6236 H 575.662 -4.24777 -4.89355 0
M  V30 6237 N 569.068 1.32177 -0.85831 0
M  V30 6238 C 570 2.27688 -0.262835 0
M  V30 6239 C 571.013 1.52588 0.567513 0
M  V30 6240 O 572.202 1.74156 0.391407 0
M  V30 6241 C 569.302 3.32668 0.646937 0
M  V30 6242 C 568.475 4.37148 -0.148372 0
M  V30 6243 C 567.534 5.21686 0.687728 0
M  V30 6244 O 566.56 5.69074 0.119934 0
M  V30 6245 N 567.762 5.44892 2.00182 0
M  V30 6246 H 570.527 2.79426 -1.08356 0
M  V30 6247 H 568.088 1.45076 -0.718647 0
M  V30 6248 H 570.08 3.86134 1.2117 0
M  V30 6249 H 568.65 2.81061 1.36834 0
M  V30 6250 H 567.87 3.83915 -0.894572 0
M  V30 6251 H 569.158 5.04038 -0.694514 0
M  V30 6252 H 568.556 5.08128 2.4864 0
M  V30 6253 H 567.113 6.0134 2.51463 0
M  V30 6254 N 570.547 0.616602 1.45037 0
M  V30 6255 C 571.51 -0.0871112 2.29034 0
M  V30 6256 C 572.51 -0.786414 1.40258 0
M  V30 6257 O 573.7 -0.633207 1.62284 0
M  V30 6258 C 570.832 -1.13369 3.21497 0
M  V30 6259 H 572.025 0.651497 2.92738 0
M  V30 6260 H 569.578 0.376058 1.51709 0
M  V30 6261 H 570.313 -1.90277 2.62612 0
M  V30 6262 H 570.098 -0.636358 3.86902 0
M  V30 6263 H 571.588 -1.62627 3.84633 0
M  V30 6264 N 572.025 -1.5352 0.356285 0
M  V30 6265 C 573.302 -1.93405 -0.292223 0
M  V30 6266 C 573.682 -1.28901 -1.67176 0
M  V30 6267 O 573.03 -0.444632 -2.24132 0
M  V30 6268 C 573.24 -3.47223 -0.35175 0
M  V30 6269 C 574.588 -4.20389 -0.596534 0
M  V30 6270 O 575.612 -3.53554 -0.433344 0
M  V30 6271 O 574.471 -5.3881 -0.913589 0
M  V30 6272 H 571.565 -0.808666 -0.173172 0
M  V30 6273 H 574.111 -1.64713 0.408391 0
M  V30 6274 H 572.883 -3.86423 0.615841 0
M  V30 6275 H 572.506 -3.8212 -1.09864 0
M  V30 6276 N 573.503 -0.0852151 -1.57369 0
M  V30 6277 C 574.78 0.622534 -1.85429 0
M  V30 6278 C 575.16 1.86962 -0.980229 0
M  V30 6279 O 574.508 2.28445 -0.0500219 0
M  V30 6280 C 574.718 0.947374 -3.35896 0
M  V30 6281 C 576.066 1.31509 -4.03721 0
M  V30 6282 O 577.09 1.03869 -3.40719 0
M  V30 6283 O 575.949 1.83231 -5.14868 0
M  V30 6284 H 573.043 0.310513 -0.766492 0
M  V30 6285 H 575.589 -0.117164 -1.69295 0
M  V30 6286 H 574.361 0.0622264 -3.91251 0
M  V30 6287 H 573.984 1.74338 -3.5734 0
M  V30 6288 N 574.981 1.5647 0.188427 0
M  V30 6289 C 575.891 1.98285 1.2538 0
M  V30 6290 C 576.907 0.891535 1.49424 0
M  V30 6291 O 578.083 1.19782 1.61908 0
M  V30 6292 C 575.148 2.31965 2.57669 0
M  V30 6293 C 574.209 3.54838 2.41638 0
M  V30 6294 C 573.442 3.86901 3.67618 0
M  V30 6295 O 573.665 3.20163 4.72072 0
M  V30 6296 O 572.599 4.80309 3.62749 0
M  V30 6297 H 576.425 2.89145 0.928912 0
M  V30 6298 H 574.01 1.44112 0.393955 0
M  V30 6299 H 575.892 2.54673 3.35737 0
M  V30 6300 H 574.567 1.44271 2.89771 0
M  V30 6301 H 573.474 3.37369 1.61658 0
M  V30 6302 H 574.807 4.43019 2.14465 0
M  V30 6303 N 576.459 -0.456382 1.50847 0
M  V30 6304 C 577.736 -1.21739 1.53098 0
M  V30 6305 C 578.116 -2.09179 0.284132 0
M  V30 6306 O 577.464 -2.16466 -0.731773 0
M  V30 6307 C 577.674 -2.03573 2.83477 0
M  V30 6308 C 579.022 -2.61264 3.34703 0
M  V30 6309 O 580.046 -2.13802 2.84898 0
M  V30 6310 O 578.905 -3.47779 4.21559 0
M  V30 6311 H 575.999 -0.553219 0.614718 0
M  V30 6312 H 578.545 -0.467003 1.63148 0
M  V30 6313 H 577.317 -1.39232 3.65691 0
M  V30 6314 H 576.94 -2.85716 2.76499 0
M  V30 6315 N 577.937 -1.40673 -0.710563 0
M  V30 6316 C 578.867 -1.44095 -1.83736 0
M  V30 6317 C 579.848 -0.301286 -1.67411 0
M  V30 6318 O 581.033 -0.510618 -1.87367 0
M  V30 6319 C 578.163 -1.30773 -3.21738 0
M  V30 6320 C 577.117 -2.42395 -3.52745 0
M  V30 6321 C 576.443 -2.14147 -4.89944 0
M  V30 6322 C 577.743 -3.84738 -3.53234 0
M  V30 6323 H 579.437 -2.38396 -1.81129 0
M  V30 6324 H 576.983 -1.14746 -0.870017 0
M  V30 6325 H 578.936 -1.31783 -4.00264 0
M  V30 6326 H 577.66 -0.329507 -3.24934 0
M  V30 6327 H 576.319 -2.40643 -2.76562 0
M  V30 6328 H 575.967 -1.14703 -4.89747 0
M  V30 6329 H 575.667 -2.88934 -5.11655 0
M  V30 6330 H 577.191 -2.16848 -5.70797 0
M  V30 6331 H 578.605 -3.88286 -4.2179 0
M  V30 6332 H 577.002 -4.59085 -3.86473 0
M  V30 6333 H 578.072 -4.13962 -2.52514 0
M  V30 6334 N 579.415 0.9433 -1.26252 0
M  V30 6335 C 580.345 2.05902 -1.10122 0
M  V30 6336 C 581.326 1.70099 -0.00700552 0
M  V30 6337 O 582.511 1.93377 -0.178641 0
M  V30 6338 C 579.641 3.39516 -0.731175 0
M  V30 6339 C 578.595 3.89372 -1.77688 0
M  V30 6340 C 577.921 5.19613 -1.26122 0
M  V30 6341 C 579.221 4.14489 -3.17799 0
M  V30 6342 H 580.915 2.19655 -2.03451 0
M  V30 6343 H 578.461 1.05548 -0.979576 0
M  V30 6344 H 580.414 4.17031 -0.605215 0
M  V30 6345 H 579.138 3.25733 0.23782 0
M  V30 6346 H 577.797 3.14036 -1.89148 0
M  V30 6347 H 577.445 5.02208 -0.282128 0
M  V30 6348 H 577.145 5.53939 -1.96023 0
M  V30 6349 H 578.669 5.99713 -1.14789 0
M  V30 6350 H 580.083 4.82625 -3.09428 0
M  V30 6351 H 578.48 4.60094 -3.85271 0
M  V30 6352 H 579.55 3.20347 -3.64014 0
M  V30 6353 N 580.893 1.08022 1.14757 0
M  V30 6354 C 581.826 0.650738 2.18725 0
M  V30 6355 C 582.804 -0.335496 1.59101 0
M  V30 6356 O 583.988 -0.240295 1.86962 0
M  V30 6357 C 581.115 -0.0434377 3.38672 0
M  V30 6358 C 580.161 0.90232 4.16846 0
M  V30 6359 S 580.994 2.40693 4.78359 0
M  V30 6360 C 582.15 1.72475 6.01667 0
M  V30 6361 H 582.383 1.53152 2.54817 0
M  V30 6362 H 579.916 0.894823 1.25826 0
M  V30 6363 H 581.874 -0.437684 4.0816 0
M  V30 6364 H 580.535 -0.900659 3.0091 0
M  V30 6365 H 579.728 0.363445 5.02688 0
M  V30 6366 H 579.33 1.23728 3.52941 0
M  V30 6367 H 581.622 1.0404 6.69464 0
M  V30 6368 H 582.565 2.56175 6.60136 0
M  V30 6369 H 582.973 1.19979 5.51602 0
M  V30 6370 N 582.371 -1.3172 0.865308 0
M  V30 6371 C 583.601 -2.00765 0.487543 0
M  V30 6372 C 584.009 -1.65145 -0.92325 0
M  V30 6373 O 583.352 -0.874294 -1.61561 0
M  V30 6374 C 583.414 -3.55122 0.559369 0
M  V30 6375 C 583.078 -4.14202 1.93095 0
M  V30 6376 C 584.075 -4.3165 2.89784 0
M  V30 6377 C 581.76 -4.50036 2.23099 0
M  V30 6378 C 583.754 -4.84114 4.14623 0
M  V30 6379 C 581.441 -5.02203 3.48189 0
M  V30 6380 C 582.439 -5.19192 4.43767 0
M  V30 6381 O 582.127 -5.70241 5.6664 0
M  V30 6382 H 581.859 -0.649066 0.188915 0
M  V30 6383 H 584.413 -1.69032 1.16694 0
M  V30 6384 H 582.643 -3.86295 -0.176926 0
M  V30 6385 H 584.332 -4.05428 0.195694 0
M  V30 6386 H 585.098 -4.04288 2.6791 0
M  V30 6387 H 580.977 -4.36091 1.49485 0
M  V30 6388 H 584.521 -4.9729 4.89233 0
M  V30 6389 H 580.418 -5.28997 3.69908 0
M  V30 6390 H 581.186 -5.88617 5.68746 0
M  V30 6391 N 583.85 -0.624285 -1.44708 0
M  V30 6392 C 584.779 0.0717025 -2.3339 0
M  V30 6393 C 585.76 0.841814 -1.47809 0
M  V30 6394 O 586.946 0.809056 -1.76544 0
M  V30 6395 C 584.076 1.05852 -3.30776 0
M  V30 6396 C 583.029 0.400503 -4.26122 0
M  V30 6397 C 582.356 1.49674 -5.13324 0
M  V30 6398 C 583.656 -0.688924 -5.17737 0
M  V30 6399 H 585.35 -0.668819 -2.91834 0
M  V30 6400 H 582.896 -0.32308 -1.40329 0
M  V30 6401 H 584.849 1.5541 -3.91696 0
M  V30 6402 H 583.572 1.82984 -2.70526 0
M  V30 6403 H 582.231 -0.0743687 -3.66525 0
M  V30 6404 H 581.88 2.25877 -4.49431 0
M  V30 6405 H 581.58 1.06188 -5.77926 0
M  V30 6406 H 583.104 1.99427 -5.77115 0
M  V30 6407 H 584.518 -0.276724 -5.72632 0
M  V30 6408 H 582.915 -1.04652 -5.90904 0
M  V30 6409 H 583.985 -1.55884 -4.5916 0
M  V30 6410 N 585.328 1.53329 -0.364422 0
M  V30 6411 C 586.258 2.28627 0.474543 0
M  V30 6412 C 587.239 1.31009 1.08492 0
M  V30 6413 O 588.424 1.59878 1.10239 0
M  V30 6414 C 585.554 3.07465 1.61501 0
M  V30 6415 C 584.508 4.1276 1.13194 0
M  V30 6416 C 583.834 4.79674 2.36255 0
M  V30 6417 C 585.134 5.21847 0.217507 0
M  V30 6418 H 586.828 2.99005 -0.153656 0
M  V30 6419 H 584.374 1.43803 -0.0753406 0
M  V30 6420 H 586.327 3.58889 2.20855 0
M  V30 6421 H 585.051 2.34775 2.27042 0
M  V30 6422 H 583.71 3.62281 0.56109 0
M  V30 6423 H 583.358 4.03557 3.00251 0
M  V30 6424 H 583.058 5.50827 2.04606 0
M  V30 6425 H 584.582 5.33892 2.96297 0
M  V30 6426 H 585.996 5.6878 0.718493 0
M  V30 6427 H 584.393 6.00099 -0.00806408 0
M  V30 6428 H 585.463 4.7921 -0.740653 0
M  V30 6429 N 586.806 0.0935595 1.57322 0
M  V30 6430 C 587.738 -0.895923 2.10964 0
M  V30 6431 C 588.751 -1.24705 1.04654 0
M  V30 6432 O 589.94 -1.20044 1.32105 0
M  V30 6433 C 587.04 -2.20546 2.57318 0
M  V30 6434 C 586.213 -2.0299 3.87445 0
M  V30 6435 C 585.272 -3.17443 4.19662 0
M  V30 6436 O 584.298 -2.91474 4.88909 0
M  V30 6437 N 585.5 -4.43168 3.74943 0
M  V30 6438 H 588.265 -0.437788 2.96485 0
M  V30 6439 H 585.826 -0.0915863 1.61641 0
M  V30 6440 H 587.818 -2.9606 2.75917 0
M  V30 6441 H 586.388 -2.57789 1.76816 0
M  V30 6442 H 585.608 -1.11815 3.78009 0
M  V30 6443 H 586.896 -1.88535 4.7258 0
M  V30 6444 H 586.294 -4.67149 3.19043 0
M  V30 6445 H 584.851 -5.15637 3.987 0
M  V30 6446 N 588.284 -1.56567 -0.180126 0
M  V30 6447 C 589.214 -1.98753 -1.22553 0
M  V30 6448 C 590.195 -0.86175 -1.46656 0
M  V30 6449 O 591.38 -1.12719 -1.58139 0
M  V30 6450 C 588.51 -2.33988 -2.56645 0
M  V30 6451 C 587.464 -3.49445 -2.47128 0
M  V30 6452 C 586.79 -3.70397 -3.8563 0
M  V30 6453 C 588.09 -4.83171 -1.98352 0
M  V30 6454 H 589.784 -2.86332 -0.874896 0
M  V30 6455 H 587.33 -1.37757 -0.419414 0
M  V30 6456 H 589.283 -2.62097 -3.29974 0
M  V30 6457 H 588.007 -1.43309 -2.93479 0
M  V30 6458 H 586.666 -3.2145 -1.76254 0
M  V30 6459 H 586.314 -2.77023 -4.19842 0
M  V30 6460 H 586.014 -4.48077 -3.80132 0
M  V30 6461 H 587.538 -4.00897 -4.60558 0
M  V30 6462 H 588.952 -5.10213 -2.61449 0
M  V30 6463 H 587.349 -5.64425 -2.03823 0
M  V30 6464 H 588.419 -4.75753 -0.937402 0
M  V30 6465 N 589.762 0.448376 -1.51087 0
M  V30 6466 C 591.008 1.20049 -1.6345 0
M  V30 6467 C 591.341 1.91121 -0.344444 0
M  V30 6468 O 590.616 1.83125 0.655396 0
M  V30 6469 C 590.899 2.22624 -2.83038 0
M  V30 6470 C 590.752 1.55708 -4.21989 0
M  V30 6471 C 592.071 3.23718 -2.98152 0
M  V30 6472 H 589.19 0.435085 -0.59487 0
M  V30 6473 H 591.832 0.491183 -1.83541 0
M  V30 6474 H 589.982 2.83117 -2.66039 0
M  V30 6475 H 591.654 0.986367 -4.50631 0
M  V30 6476 H 589.897 0.859647 -4.25197 0
M  V30 6477 H 590.568 2.30357 -5.01637 0
M  V30 6478 H 593.044 2.73269 -3.13788 0
M  V30 6479 H 591.92 3.92795 -3.83411 0
M  V30 6480 H 592.181 3.89179 -2.09743 0
M  V30 6481 N 591.24 1.41047 0.703093 0
M  V30 6482 C 592.172 1.38228 1.82827 0
M  V30 6483 C 593.185 0.285637 1.60275 0
M  V30 6484 O 594.374 0.54685 1.69917 0
M  V30 6485 C 591.474 1.13136 3.19458 0
M  V30 6486 C 590.647 2.34695 3.69103 0
M  V30 6487 C 589.706 2.05574 4.84382 0
M  V30 6488 O 588.732 2.78549 4.96386 0
M  V30 6489 N 589.934 1.04135 5.71083 0
M  V30 6490 H 592.699 2.35203 1.85741 0
M  V30 6491 H 590.26 1.35562 0.885125 0
M  V30 6492 H 592.252 0.916183 3.94193 0
M  V30 6493 H 590.822 0.247836 3.11616 0
M  V30 6494 H 590.042 2.71963 2.85359 0
M  V30 6495 H 591.33 3.15705 3.99009 0
M  V30 6496 H 590.728 0.43722 5.64008 0
M  V30 6497 H 589.285 0.886078 6.45749 0
M  V30 6498 N 592.718 -0.936591 1.26751 0
M  V30 6499 C 593.681 -2.01752 1.08761 0
M  V30 6500 C 594.681 -1.60763 0.0344435 0
M  V30 6501 O 595.871 -1.71963 0.278258 0
M  V30 6502 C 593.003 -3.34543 0.655271 0
M  V30 6503 H 594.196 -2.19143 2.04735 0
M  V30 6504 H 591.749 -1.11618 1.09413 0
M  V30 6505 H 592.484 -3.22851 -0.30626 0
M  V30 6506 H 592.269 -3.65647 1.41578 0
M  V30 6507 H 593.759 -4.13944 0.551378 0
M  V30 6508 N 594.196 -1.08629 -1.14182 0
M  V30 6509 C 595.126 -0.740003 -2.21464 0
M  V30 6510 C 596.107 0.278591 -1.67803 0
M  V30 6511 O 597.292 0.148461 -1.93632 0
M  V30 6512 C 594.422 -0.150952 -3.46972 0
M  V30 6513 C 593.376 -1.09815 -4.13672 0
M  V30 6514 C 592.702 -0.3712 -5.3341 0
M  V30 6515 C 594.002 -2.43722 -4.61949 0
M  V30 6516 H 595.696 -1.63697 -2.50686 0
M  V30 6517 H 593.242 -0.788526 -1.20492 0
M  V30 6518 H 595.195 0.103325 -4.21273 0
M  V30 6519 H 593.919 0.781164 -3.1712 0
M  V30 6520 H 592.578 -1.33756 -3.41328 0
M  V30 6521 H 592.226 0.564792 -4.99819 0
M  V30 6522 H 591.926 -1.00267 -5.78982 0
M  V30 6523 H 593.45 -0.12503 -6.10472 0
M  V30 6524 H 594.864 -2.24034 -5.27714 0
M  V30 6525 H 593.261 -3.02582 -5.18232 0
M  V30 6526 H 594.331 -3.05082 -3.76899 0
M  V30 6527 N 595.674 1.31259 -0.872281 0
M  V30 6528 C 596.621 2.28459 -0.327857 0
M  V30 6529 C 597.591 1.55831 0.574957 0
M  V30 6530 O 598.776 1.83965 0.506101 0
M  V30 6531 C 595.916 3.41985 0.462644 0
M  V30 6532 C 595.029 4.29458 -0.467949 0
M  V30 6533 C 594.164 5.30131 0.336903 0
M  V30 6534 C 593.203 6.0925 -0.58997 0
M  V30 6535 N 592.34 7.01872 0.178775 0
M  V30 6536 H 597.18 2.74414 -1.16193 0
M  V30 6537 H 594.717 1.34994 -0.584376 0
M  V30 6538 H 596.675 4.06547 0.936759 0
M  V30 6539 H 595.305 2.97134 1.2614 0
M  V30 6540 H 594.357 3.65318 -1.06052 0
M  V30 6541 H 595.669 4.84677 -1.17856 0
M  V30 6542 H 594.823 6.0038 0.873427 0
M  V30 6543 H 593.562 4.75573 1.08079 0
M  V30 6544 H 592.567 5.37889 -1.13823 0
M  V30 6545 H 593.792 6.65894 -1.33275 0
M  V30 6546 H 591.738 6.49721 0.905435 0
M  V30 6547 H 591.655 7.54522 -0.472452 0
M  V30 6548 H 592.923 7.76382 0.696454 0
M  V30 6549 N 597.152 0.631951 1.44375 0
M  V30 6550 C 598.382 0.143658 2.061 0
M  V30 6551 C 598.79 -1.18733 1.47306 0
M  V30 6552 O 598.133 -1.73943 0.590724 0
M  V30 6553 C 598.195 -0.0446102 3.59472 0
M  V30 6554 C 597.859 1.20835 4.40736 0
M  V30 6555 C 598.856 2.13224 4.74164 0
M  V30 6556 C 596.541 1.44399 4.81097 0
M  V30 6557 C 598.535 3.27487 5.46838 0
M  V30 6558 C 596.222 2.58959 5.53519 0
M  V30 6559 C 597.22 3.50329 5.86309 0
M  V30 6560 O 596.908 4.62891 6.57257 0
M  V30 6561 H 596.64 0.0772939 0.671567 0
M  V30 6562 H 599.194 0.866677 1.8622 0
M  V30 6563 H 597.424 -0.822783 3.77845 0
M  V30 6564 H 599.113 -0.487561 4.02961 0
M  V30 6565 H 599.879 1.96253 4.4352 0
M  V30 6566 H 595.758 0.741696 4.54994 0
M  V30 6567 H 599.302 3.98826 5.72349 0
M  V30 6568 H 595.199 2.75873 5.83579 0
M  V30 6569 H 595.967 4.61883 6.75726 0
M  V30 6570 N 598.631 -1.53133 0.372548 0
M  V30 6571 C 599.541 -2.29671 -0.478379 0
M  V30 6572 C 600.557 -1.35913 -1.08644 0
M  V30 6573 O 601.733 -1.68975 -1.09588 0
M  V30 6574 C 598.798 -3.07625 -1.599 0
M  V30 6575 C 597.859 -4.17061 -1.01776 0
M  V30 6576 C 597.092 -4.91289 -2.08497 0
M  V30 6577 O 597.315 -4.65442 -3.29727 0
M  V30 6578 O 596.249 -5.7705 -1.71164 0
M  V30 6579 H 600.075 -3.03355 0.144649 0
M  V30 6580 H 597.66 -1.48773 0.136729 0
M  V30 6581 H 599.542 -3.56281 -2.25038 0
M  V30 6582 H 598.217 -2.3677 -2.2073 0
M  V30 6583 H 597.124 -3.72641 -0.330098 0
M  V30 6584 H 598.457 -4.90102 -0.453915 0
M  V30 6585 N 600.109 -0.101901 -1.5727 0
M  V30 6586 C 601.057 0.872034 -2.15635 0
M  V30 6587 C 602.051 1.28742 -1.10099 0
M  V30 6588 O 603.257 1.26116 -1.28432 0
M  V30 6589 H 599.632 0.299269 -0.689886 0
M  V30 6590 H 601.603 0.355137 -2.96279 0
M  V30 6591 C 600.352 2.11886 -2.7568 0
M  V30 6592 H 599.675 1.80813 -3.56576 0
M  V30 6593 H 601.115 2.78077 -3.20077 0
M  V30 6594 C 599.574 2.89739 -1.7191 0
M  V30 6595 O 600.104 3.84522 -1.16213 0
M  V30 6596 N 598.31 2.53407 -1.42245 0
M  V30 6597 H 597.857 1.76398 -1.87727 0
M  V30 6598 H 597.815 3.05795 -0.730529 0
M  V30 6599 N 601.587 1.56661 0.17182 0
M  V30 6600 C 602.834 1.81965 0.888529 0
M  V30 6601 C 603.162 0.6789 1.82267 0
M  V30 6602 O 602.417 -0.333875 1.92831 0
M  V30 6603 C 602.716 3.13435 1.71736 0
M  V30 6604 C 602.382 4.41159 0.932184 0
M  V30 6605 C 601.044 4.75851 0.715481 0
M  V30 6606 C 603.396 5.19803 0.381387 0
M  V30 6607 C 600.724 5.86666 -0.063126 0
M  V30 6608 C 603.076 6.31433 -0.384129 0
M  V30 6609 C 601.74 6.64692 -0.611637 0
M  V30 6610 H 601.01 0.665859 0.325136 0
M  V30 6611 H 603.657 1.90884 0.153495 0
M  V30 6612 H 601.962 2.99857 2.52177 0
M  V30 6613 H 603.659 3.30224 2.27493 0
M  V30 6614 H 600.249 4.13947 1.11112 0
M  V30 6615 H 604.433 4.93396 0.536148 0
M  V30 6616 H 599.689 6.10892 -0.249136 0
M  V30 6617 H 603.863 6.91577 -0.818185 0
M  V30 6618 H 601.49 7.50398 -1.21684 0
M  V30 6619 N 603.065 -0.440357 1.51323 0
M  V30 6620 C 604.342 -1.20109 1.5438 0
M  V30 6621 C 604.722 -2.08866 0.306303 0
M  V30 6622 O 604.07 -2.1723 -0.708773 0
M  V30 6623 C 604.28 -2.00555 2.8562 0
M  V30 6624 C 605.628 -2.577 3.37455 0
M  V30 6625 O 606.652 -2.10769 2.8715 0
M  V30 6626 O 605.511 -3.43289 4.25224 0
M  V30 6627 H 602.605 -0.546668 0.620551 0
M  V30 6628 H 605.151 -0.449672 1.63634 0
M  V30 6629 H 603.923 -1.35346 3.67147 0
M  V30 6630 H 603.546 -2.82768 2.79514 0
M  V30 6631 N 604.543 -1.41418 -0.695603 0
M  V30 6632 C 605.82 -1.31264 -1.45014 0
M  V30 6633 C 606.2 0.0597994 -2.11015 0
M  V30 6634 O 605.548 1.07403 -2.01685 0
M  V30 6635 C 605.758 -2.466 -2.4696 0
M  V30 6636 C 607.106 -2.87763 -3.12214 0
M  V30 6637 O 608.13 -2.46339 -2.57285 0
M  V30 6638 O 606.989 -3.59395 -4.11701 0
M  V30 6639 H 604.083 -0.516576 -0.645816 0
M  V30 6640 H 606.629 -1.53382 -0.726084 0
M  V30 6641 H 605.401 -3.38183 -1.96845 0
M  V30 6642 H 605.024 -2.26358 -3.26876 0
M  V30 6643 N 606.021 0.929856 -1.27246 0
M  V30 6644 C 607.27 1.67182 -1.12842 0
M  V30 6645 C 607.583 1.9287 0.325666 0
M  V30 6646 O 608.789 2.64999 0.590572 0
M  V30 6647 C 607.245 3.01097 -1.97151 0
M  V30 6648 C 606.853 2.83115 -3.47203 0
M  V30 6649 C 608.597 3.78907 -1.91389 0
M  V30 6650 C 606.504 4.12573 -4.23719 0
M  V30 6651 H 605.434 0.627064 -0.418697 0
M  V30 6652 H 608.085 1.0332 -1.51649 0
M  V30 6653 H 606.467 3.66004 -1.51186 0
M  V30 6654 H 607.641 2.26989 -4.01015 0
M  V30 6655 H 605.956 2.18736 -3.54321 0
M  V30 6656 H 608.553 4.74837 -2.45834 0
M  V30 6657 H 608.896 4.0674 -0.887047 0
M  V30 6658 H 609.429 3.20794 -2.35237 0
M  V30 6659 H 606.168 3.8992 -5.26918 0
M  V30 6660 H 605.688 4.68371 -3.74685 0
M  V30 6661 H 607.367 4.8095 -4.32777 0
M  V30 6662 N 607.499 1.09233 1.13605 0
M  V30 6663 C 608.446 0.729921 2.18954 0
M  V30 6664 C 609.416 -0.287916 1.63586 0
M  V30 6665 O 610.601 -0.170003 1.90041 0
M  V30 6666 C 607.741 0.154489 3.44754 0
M  V30 6667 C 606.854 1.22613 4.14234 0
M  V30 6668 C 605.989 0.613657 5.27644 0
M  V30 6669 C 605.028 1.66674 5.8897 0
M  V30 6670 N 604.165 1.07545 6.93814 0
M  V30 6671 H 609.005 1.63257 2.49302 0
M  V30 6672 H 606.542 0.815693 1.22413 0
M  V30 6673 H 608.5 -0.196923 4.16735 0
M  V30 6674 H 607.13 -0.711433 3.14863 0
M  V30 6675 H 606.182 1.69485 3.40557 0
M  V30 6676 H 607.494 2.0238 4.55899 0
M  V30 6677 H 606.648 0.210976 6.06333 0
M  V30 6678 H 605.387 -0.215584 4.87223 0
M  V30 6679 H 604.392 2.07899 5.08978 0
M  V30 6680 H 605.617 2.49861 6.31464 0
M  V30 6681 H 603.563 0.267451 6.55455 0
M  V30 6682 H 603.48 1.81011 7.3401 0
M  V30 6683 H 604.748 0.698906 7.7636 0
M  V30 6684 N 608.977 -1.30795 0.87923 0
M  V30 6685 C 609.925 -2.30231 0.331112 0
M  V30 6686 C 610.919 -1.59918 -0.558794 0
M  V30 6687 O 612.125 -1.74441 -0.443866 0
M  V30 6688 H 608.5 -0.746785 0.088409 0
M  V30 6689 H 610.471 -2.73925 1.18353 0
M  V30 6690 C 609.22 -3.44848 -0.444401 0
M  V30 6691 H 608.543 -3.99131 0.231106 0
M  V30 6692 H 609.983 -4.16516 -0.793109 0
M  V30 6693 C 608.442 -2.94329 -1.63926 0
M  V30 6694 O 608.972 -2.93875 -2.73862 0
M  V30 6695 N 607.178 -2.50413 -1.4745 0
M  V30 6696 H 606.725 -2.50982 -0.58015 0
M  V30 6697 H 606.683 -2.16969 -2.27534 0
M  V30 6698 N 610.455 -0.639598 -1.44038 0
M  V30 6699 C 611.703 -0.147188 -2.01563 0
M  V30 6700 C 612.024 1.2384 -1.50628 0
M  V30 6701 O 611.294 1.82452 -0.713316 0
M  V30 6702 H 609.874 -0.0514231 -0.745228 0
M  V30 6703 H 612.536 -0.828205 -1.76428 0
M  V30 6704 H 611.632 -0.121358 -3.11864 0
M  V30 6705 N 611.933 1.52934 -0.380664 0
M  V30 6706 C 612.863 2.29118 0.450268 0
M  V30 6707 C 613.844 1.32153 1.07096 0
M  V30 6708 O 615.029 1.61038 1.08537 0
M  V30 6709 C 612.159 3.09161 1.58231 0
M  V30 6710 C 611.113 4.13938 1.0881 0
M  V30 6711 C 610.439 4.82153 2.31155 0
M  V30 6712 C 611.739 5.22048 0.162146 0
M  V30 6713 H 613.433 2.98826 -0.185361 0
M  V30 6714 H 610.979 1.43715 -0.0905886 0
M  V30 6715 H 612.932 3.61211 2.17036 0
M  V30 6716 H 611.656 2.3717 2.2454 0
M  V30 6717 H 610.315 3.62855 0.522633 0
M  V30 6718 H 609.963 4.06719 2.95953 0
M  V30 6719 H 609.663 5.52966 1.98752 0
M  V30 6720 H 611.187 5.37004 2.90618 0
M  V30 6721 H 612.601 5.6951 0.658126 0
M  V30 6722 H 610.998 6.00057 -0.0717122 0
M  V30 6723 H 612.068 4.78398 -0.791438 0
M  V30 6724 N 613.412 0.11024 1.57214 0
M  V30 6725 C 614.322 -0.857077 2.18383 0
M  V30 6726 C 615.338 -1.29915 1.1575 0
M  V30 6727 O 616.514 -1.36394 1.48184 0
M  V30 6728 C 613.579 -2.09264 2.76423 0
M  V30 6729 C 612.64 -1.70333 3.94063 0
M  V30 6730 C 611.873 -2.87999 4.49324 0
M  V30 6731 O 612.096 -4.0317 4.03497 0
M  V30 6732 O 611.03 -2.6559 5.40135 0
M  V30 6733 H 614.856 -0.366561 3.0148 0
M  V30 6734 H 612.441 -0.114914 1.48957 0
M  V30 6735 H 614.323 -2.81644 3.13456 0
M  V30 6736 H 612.998 -2.57339 1.96363 0
M  V30 6737 H 611.905 -0.950864 3.61814 0
M  V30 6738 H 613.238 -1.27007 4.75531 0
M  V30 6739 N 614.89 -1.56749 -0.16351 0
M  V30 6740 C 616.301 -1.72039 -0.725216 0
M  V30 6741 C 616.652 -0.72202 -1.82432 0
M  V30 6742 O 615.777 0.114942 -2.16095 0
M  V30 6743 C 616.372 -3.11932 -1.32227 0
M  V30 6744 C 614.931 -3.28879 -1.83072 0
M  V30 6745 C 614.078 -2.67984 -0.712716 0
M  V30 6746 H 617.029 -1.58579 0.0619772 0
M  V30 6747 H 617.05 -3.11015 -2.19202 0
M  V30 6748 H 616.562 -3.84572 -0.522103 0
M  V30 6749 H 614.663 -2.61209 -2.65708 0
M  V30 6750 H 614.776 -4.36688 -1.97079 0
M  V30 6751 H 613.14 -2.28005 -1.13515 0
M  V30 6752 H 613.923 -3.43216 0.0757361 0
M  V30 6753 N 616.368 0.432326 -1.51554 0
M  V30 6754 C 617.596 1.20364 -1.68286 0
M  V30 6755 C 618.011 1.84888 -0.38233 0
M  V30 6756 O 617.368 1.70924 0.639627 0
M  V30 6757 C 617.419 2.28398 -2.80208 0
M  V30 6758 O 617.14 1.66512 -4.05223 0
M  V30 6759 C 618.641 3.18584 -3.08251 0
M  V30 6760 H 615.861 0.36259 -0.564596 0
M  V30 6761 H 618.405 0.511647 -1.97996 0
M  V30 6762 H 616.56 2.93305 -2.53083 0
M  V30 6763 H 616.974 2.37951 -4.67418 0
M  V30 6764 H 618.448 3.90511 -3.90135 0
M  V30 6765 H 618.925 3.79628 -2.2086 0
M  V30 6766 H 619.531 2.59372 -3.37055 0
M  V30 6767 N 617.846 1.41785 0.688094 0
M  V30 6768 C 618.793 1.44221 1.80191 0
M  V30 6769 C 619.763 0.295688 1.63447 0
M  V30 6770 O 620.948 0.49783 1.84191 0
M  V30 6771 C 618.088 1.33743 3.1813 0
M  V30 6772 C 617.201 2.58325 3.46254 0
M  V30 6773 C 616.336 2.40086 4.73848 0
M  V30 6774 C 615.375 3.60107 4.94964 0
M  V30 6775 N 614.512 3.40892 6.13789 0
M  V30 6776 H 619.352 2.39411 1.77444 0
M  V30 6777 H 616.889 1.18876 0.866423 0
M  V30 6778 H 618.847 1.25669 3.97823 0
M  V30 6779 H 617.477 0.42157 3.20035 0
M  V30 6780 H 616.529 2.7682 2.60912 0
M  V30 6781 H 617.841 3.4758 3.57756 0
M  V30 6782 H 616.995 2.29522 5.61609 0
M  V30 6783 H 615.734 1.483 4.64606 0
M  V30 6784 H 614.739 3.71118 4.05649 0
M  V30 6785 H 615.964 4.52857 5.06061 0
M  V30 6786 H 613.91 2.51812 6.05745 0
M  V30 6787 H 613.827 4.23727 6.26092 0
M  V30 6788 H 615.095 3.34114 7.04264 0
M  V30 6789 N 619.324 -0.923095 1.27737 0
M  V30 6790 C 620.271 -2.02432 1.1086 0
M  V30 6791 C 621.241 -1.66098 0.00835195 0
M  V30 6792 O 622.426 -1.90027 0.171542 0
M  V30 6793 C 619.566 -3.36476 0.766671 0
M  V30 6794 C 618.679 -3.85737 1.94501 0
M  V30 6795 C 617.814 -5.08249 1.54455 0
M  V30 6796 C 616.853 -5.49818 2.6901 0
M  V30 6797 N 615.99 -6.63524 2.29521 0
M  V30 6798 H 620.83 -2.16201 2.05089 0
M  V30 6799 H 618.367 -1.05909 1.02087 0
M  V30 6800 H 620.325 -4.13569 0.549223 0
M  V30 6801 H 618.955 -3.22502 -0.13867 0
M  V30 6802 H 618.007 -3.04883 2.27487 0
M  V30 6803 H 619.319 -4.12513 2.80419 0
M  V30 6804 H 618.473 -5.92857 1.28862 0
M  V30 6805 H 617.212 -4.83261 0.656534 0
M  V30 6806 H 616.217 -4.63757 2.95313 0
M  V30 6807 H 617.442 -5.76799 3.5844 0
M  V30 6808 H 615.388 -6.40185 1.43177 0
M  V30 6809 H 615.305 -6.89978 3.08977 0
M  V30 6810 H 616.573 -7.51461 2.07187 0
M  V30 6811 N 620.802 -1.09834 -1.13024 0
M  V30 6812 C 622.079 -0.749225 -1.80682 0
M  V30 6813 C 622.459 0.765171 -1.96744 0
M  V30 6814 O 621.807 1.68912 -1.53886 0
M  V30 6815 C 622.017 -1.49311 -3.15448 0
M  V30 6816 C 623.365 -1.66162 -3.90737 0
M  V30 6817 O 624.389 -1.45597 -3.25085 0
M  V30 6818 O 623.248 -2.00211 -5.08505 0
M  V30 6819 H 620.342 -0.269614 -0.781817 0
M  V30 6820 H 622.888 -1.20078 -1.19914 0
M  V30 6821 H 621.66 -2.52407 -2.99009 0
M  V30 6822 H 621.283 -1.034 -3.8392 0
M  V30 6823 N 622.28 1.30327 -0.886154 0
M  V30 6824 C 623.505 2.0079 -0.519425 0
M  V30 6825 C 623.93 1.65979 0.885013 0
M  V30 6826 O 623.288 0.877043 1.58675 0
M  V30 6827 C 623.336 3.53686 -0.702758 0
M  V30 6828 O 622.44 4.11637 0.250828 0
M  V30 6829 H 621.781 0.63171 -0.204544 0
M  V30 6830 H 624.311 1.66145 -1.19402 0
M  V30 6831 H 624.321 4.03531 -0.602207 0
M  V30 6832 H 622.996 3.78361 -1.72673 0
M  V30 6833 H 621.573 3.72755 0.103873 0
M  V30 6834 N 623.758 0.647228 1.43697 0
M  V30 6835 C 624.69 -0.0866232 2.29036 0
M  V30 6836 C 625.703 -0.793051 1.42178 0
M  V30 6837 O 626.892 -0.651807 1.66174 0
M  V30 6838 C 623.992 -1.14552 3.18953 0
M  V30 6839 C 623.165 -0.518422 4.34317 0
M  V30 6840 C 622.224 -1.4734 5.05151 0
M  V30 6841 O 621.25 -0.984312 5.60625 0
M  V30 6842 N 622.452 -2.8075 5.08094 0
M  V30 6843 H 625.217 0.645834 2.92659 0
M  V30 6844 H 622.778 0.489567 1.54321 0
M  V30 6845 H 624.77 -1.78505 3.63205 0
M  V30 6846 H 623.34 -1.78001 2.56971 0
M  V30 6847 H 622.56 0.300079 3.93056 0
M  V30 6848 H 623.848 -0.080401 5.08736 0
M  V30 6849 H 623.246 -3.23052 4.64386 0
M  V30 6850 H 621.803 -3.40022 5.56083 0
M  V30 6851 N 625.236 -1.5273 0.388769 0
M  V30 6852 C 626.461 -2.0647 -0.19621 0
M  V30 6853 C 626.886 -1.25865 -1.39784 0
M  V30 6854 O 626.244 -0.283562 -1.79069 0
M  V30 6855 C 626.292 -3.56456 -0.5451 0
M  V30 6856 O 625.396 -3.78426 -1.63912 0
M  V30 6857 H 624.737 -0.663599 -0.023067 0
M  V30 6858 H 627.267 -1.96898 0.556084 0
M  V30 6859 H 627.277 -3.99888 -0.809557 0
M  V30 6860 H 625.952 -4.14561 0.333417 0
M  V30 6861 H 624.529 -3.46884 -1.36842 0
M  V30 6862 N 626.714 -0.118576 -1.57153 0
M  V30 6863 C 627.939 0.550582 -1.99958 0
M  V30 6864 C 628.364 1.59458 -0.997736 0
M  V30 6865 O 627.722 1.81274 0.0306269 0
M  V30 6866 C 627.77 1.15379 -3.41643 0
M  V30 6867 O 626.874 2.26932 -3.44348 0
M  V30 6868 H 626.215 0.137567 -0.649593 0
M  V30 6869 H 628.745 -0.206926 -2.03551 0
M  V30 6870 H 628.755 1.48942 -3.79843 0
M  V30 6871 H 627.43 0.389087 -4.14076 0
M  V30 6872 H 626.007 1.94812 -3.17967 0
M  V30 6873 N 628.193 1.56834 0.155195 0
M  V30 6874 C 629.439 1.83169 0.870467 0
M  V30 6875 C 629.772 0.698929 1.81187 0
M  V30 6876 O 629.047 -0.298035 1.92203 0
M  V30 6877 C 629.33 3.19965 1.65211 0
M  V30 6878 C 629.183 4.43792 0.732744 0
M  V30 6879 C 630.502 3.53885 2.61636 0
M  V30 6880 H 627.621 0.666288 0.315006 0
M  V30 6881 H 630.263 1.89513 0.135988 0
M  V30 6882 H 628.413 3.14687 2.27825 0
M  V30 6883 H 630.085 4.61148 0.118236 0
M  V30 6884 H 628.328 4.3378 0.0417906 0
M  V30 6885 H 628.999 5.36095 1.31552 0
M  V30 6886 H 631.475 3.5972 2.09143 0
M  V30 6887 H 630.351 4.50648 3.13381 0
M  V30 6888 H 630.612 2.79418 3.42605 0
M  V30 6889 N 629.671 -0.424282 1.51781 0
M  V30 6890 C 630.896 -1.19928 1.6921 0
M  V30 6891 C 631.321 -1.8392 0.394355 0
M  V30 6892 O 630.679 -1.69371 -0.646778 0
M  V30 6893 C 630.727 -2.24937 2.81843 0
M  V30 6894 O 629.831 -3.3073 2.46356 0
M  V30 6895 H 629.172 -0.35078 0.563781 0
M  V30 6896 H 631.702 -0.499401 1.98412 0
M  V30 6897 H 631.712 -2.69512 3.06312 0
M  V30 6898 H 630.387 -1.77742 3.76006 0
M  V30 6899 H 628.964 -2.9154 2.32505 0
M  V30 6900 N 631.149 -1.42148 -0.680565 0
M  V30 6901 C 632.059 -1.47565 -1.82378 0
M  V30 6902 C 633.075 -0.36489 -1.70131 0
M  V30 6903 O 634.251 -0.614916 -1.91783 0
M  V30 6904 C 631.316 -1.37013 -3.18478 0
M  V30 6905 C 630.377 -2.58532 -3.42724 0
M  V30 6906 C 629.61 -2.48473 -4.72331 0
M  V30 6907 O 629.833 -1.51745 -5.49845 0
M  V30 6908 O 628.767 -3.38503 -4.97694 0
M  V30 6909 H 632.593 -2.44045 -1.80764 0
M  V30 6910 H 630.178 -1.23849 -0.835569 0
M  V30 6911 H 632.06 -1.33468 -3.99705 0
M  V30 6912 H 630.735 -0.436552 -3.20743 0
M  V30 6913 H 629.642 -2.67652 -2.61368 0
M  V30 6914 H 630.975 -3.50769 -3.45286 0
M  V30 6915 N 632.627 0.916307 -1.28225 0
M  V30 6916 C 633.575 2.03977 -1.11786 0
M  V30 6917 C 634.569 1.69358 -0.0378265 0
M  V30 6918 O 635.775 1.78925 -0.196405 0
M  V30 6919 H 632.15 0.66829 -0.344809 0
M  V30 6920 H 634.121 2.14985 -2.06939 0
M  V30 6921 C 632.87 3.38518 -0.7938 0
M  V30 6922 H 632.193 3.65649 -1.61682 0
M  V30 6923 H 633.633 4.17864 -0.718719 0
M  V30 6924 C 632.092 3.33134 0.502353 0
M  V30 6925 O 632.622 3.71281 1.53341 0
M  V30 6926 N 630.828 2.86229 0.502147 0
M  V30 6927 H 630.375 2.55382 -0.337338 0
M  V30 6928 H 630.333 2.83009 1.36942 0
M  V30 6929 N 634.105 1.10431 1.1244 0
M  V30 6930 C 635.351 0.847972 1.84221 0
M  V30 6931 C 635.684 -0.624903 1.83871 0
M  V30 6932 O 634.959 -1.46074 1.28423 0
M  V30 6933 C 635.242 1.39695 3.319 0
M  V30 6934 C 635.095 2.93668 3.40704 0
M  V30 6935 C 636.414 1.03924 4.27654 0
M  V30 6936 H 633.533 0.309502 0.668863 0
M  V30 6937 H 636.175 1.36745 1.31912 0
M  V30 6938 H 634.325 0.955095 3.76577 0
M  V30 6939 H 635.997 3.46379 3.04662 0
M  V30 6940 H 634.24 3.30272 2.81252 0
M  V30 6941 H 634.911 3.27162 4.446 0
M  V30 6942 H 637.387 1.42049 3.91102 0
M  V30 6943 H 636.263 1.45027 5.29394 0
M  V30 6944 H 636.524 -0.051336 4.4207 0
M  V30 6945 N 635.583 -1.29855 0.893053 0
M  V30 6946 C 636.808 -2.00512 0.530066 0
M  V30 6947 C 637.233 -1.66446 -0.876199 0
M  V30 6948 O 636.591 -0.885446 -1.58207 0
M  V30 6949 C 636.639 -3.53308 0.721505 0
M  V30 6950 O 635.743 -4.11764 -0.228994 0
M  V30 6951 H 635.084 -0.630617 0.207891 0
M  V30 6952 H 637.614 -1.6551 1.20282 0
M  V30 6953 H 637.624 -4.03206 0.623599 0
M  V30 6954 H 636.299 -3.77439 1.74678 0
M  V30 6955 H 634.876 -3.72805 -0.0841034 0
M  V30 6956 N 637.061 -0.65484 -1.43351 0
M  V30 6957 C 638.009 0.0476784 -2.32551 0
M  V30 6958 C 639.003 0.811403 -1.48703 0
M  V30 6959 O 640.209 0.721621 -1.64902 0
M  V30 6960 H 636.584 0.0342038 -0.751222 0
M  V30 6961 H 638.555 -0.722342 -2.89525 0
M  V30 6962 C 637.304 0.999251 -3.33032 0
M  V30 6963 H 636.627 0.421005 -3.97577 0
M  V30 6964 H 638.067 1.45986 -3.98076 0
M  V30 6965 C 636.526 2.09606 -2.63756 0
M  V30 6966 O 637.056 3.18004 -2.4543 0
M  V30 6967 N 635.262 1.86207 -2.23103 0
M  V30 6968 H 634.809 0.980555 -2.38208 0
M  V30 6969 H 634.767 2.59787 -1.77081 0
M  V30 6970 N 638.539 1.52521 -0.396863 0
M  V30 6971 C 639.764 2.06571 0.185258 0
M  V30 6972 C 640.189 1.26605 1.39115 0
M  V30 6973 O 639.547 0.293055 1.78916 0
M  V30 6974 C 639.595 3.5674 0.526189 0
M  V30 6975 O 638.699 3.7929 1.61903 0
M  V30 6976 H 638.04 0.663712 0.0195474 0
M  V30 6977 H 640.57 1.966 -0.566519 0
M  V30 6978 H 640.58 4.00311 0.788338 0
M  V30 6979 H 639.255 4.14379 -0.355397 0
M  V30 6980 H 637.832 3.47605 1.35 0
M  V30 6981 N 640.017 0.126909 1.57088 0
M  V30 6982 C 641.265 -0.528123 1.95078 0
M  V30 6983 C 641.586 -1.66708 1.0116 0
M  V30 6984 O 640.856 -1.95777 0.0693527 0
M  V30 6985 H 639.436 -0.198087 0.720257 0
M  V30 6986 H 642.098 0.197703 1.93895 0
M  V30 6987 H 641.194 -0.917507 2.98309 0
M  V30 6988 N 641.495 -1.56914 -0.146875 0
M  V30 6989 C 642.744 -1.82546 -0.857898 0
M  V30 6990 C 643.057 -0.708169 -1.8233 0
M  V30 6991 O 644.263 -0.850093 -2.57848 0
M  V30 6992 C 642.719 -3.23548 -1.57623 0
M  V30 6993 C 642.327 -4.43212 -0.653224 0
M  V30 6994 C 644.071 -3.58453 -2.27402 0
M  V30 6995 C 641.978 -5.75237 -1.37318 0
M  V30 6996 H 640.908 -0.680786 -0.32411 0
M  V30 6997 H 643.559 -1.83166 -0.110639 0
M  V30 6998 H 641.941 -3.17315 -2.36912 0
M  V30 6999 H 643.115 -4.60682 0.104452 0
M  V30 7000 H 641.43 -4.16351 -0.0638336 0
M  V30 7001 H 644.027 -4.54349 -2.81907 0
M  V30 7002 H 644.37 -2.84516 -3.03901 0
M  V30 7003 H 644.903 -3.66347 -1.55032 0
M  V30 7004 H 641.642 -6.52269 -0.650041 0
M  V30 7005 H 641.162 -5.61703 -2.10357 0
M  V30 7006 H 642.841 -6.18039 -1.91406 0
M  V30 7007 N 642.974 0.416227 -1.52004 0
M  V30 7008 C 643.922 1.5272 -1.7544 0
M  V30 7009 C 644.916 1.57596 -0.621289 0
M  V30 7010 O 646.122 1.61087 -0.803172 0
M  V30 7011 H 642.497 0.507772 -0.554682 0
M  V30 7012 H 644.468 1.30136 -2.68528 0
M  V30 7013 C 643.217 2.90165 -1.91571 0
M  V30 7014 H 642.54 2.87154 -2.78178 0
M  V30 7015 H 643.98 3.67211 -2.11972 0
M  V30 7016 C 642.439 3.29947 -0.680942 0
M  V30 7017 O 642.969 4.01403 0.154527 0
M  V30 7018 N 641.175 2.8593 -0.518894 0
M  V30 7019 H 640.722 2.2795 -1.19986 0
M  V30 7020 H 640.68 3.12907 0.305985 0
M  V30 7021 N 644.452 1.42507 0.673017 0
M  V30 7022 C 645.677 1.4668 1.46627 0
M  V30 7023 C 646.102 0.080066 1.8793 0
M  V30 7024 O 645.46 -0.921879 1.56112 0
M  V30 7025 C 645.508 2.40091 2.69051 0
M  V30 7026 O 644.612 1.8735 3.67387 0
M  V30 7027 H 643.953 0.496908 0.44043 0
M  V30 7028 H 646.483 1.87215 0.825334 0
M  V30 7029 H 646.493 2.56731 3.17101 0
M  V30 7030 H 645.168 3.4084 2.3833 0
M  V30 7031 H 643.745 1.80274 3.26429 0
M  V30 7032 N 645.93 -0.909495 1.28709 0
M  V30 7033 C 646.893 -1.99399 1.13016 0
M  V30 7034 C 647.893 -1.60654 0.068536 0
M  V30 7035 O 649.083 -1.71334 0.314671 0
M  V30 7036 C 646.215 -3.33078 0.726085 0
M  V30 7037 H 647.408 -2.14751 2.09338 0
M  V30 7038 H 644.961 -1.09272 1.11756 0
M  V30 7039 H 645.696 -3.23428 -0.23771 0
M  V30 7040 H 645.481 -3.62562 1.49302 0
M  V30 7041 H 646.971 -4.12681 0.639058 0
M  V30 7042 N 647.408 -1.11026 -1.11852 0
M  V30 7043 C 648.318 -0.777252 -2.2135 0
M  V30 7044 C 649.334 0.227821 -1.72502 0
M  V30 7045 O 650.51 0.0650587 -2.01295 0
M  V30 7046 C 647.575 -0.220668 -3.45997 0
M  V30 7047 C 646.636 -1.2838 -4.09655 0
M  V30 7048 C 645.869 -0.753678 -5.28352 0
M  V30 7049 O 646.092 0.417779 -5.68868 0
M  V30 7050 O 645.026 -1.51647 -5.82483 0
M  V30 7051 H 648.852 -1.69141 -2.5224 0
M  V30 7052 H 646.437 -0.885836 -1.20305 0
M  V30 7053 H 648.319 0.0855756 -4.21313 0
M  V30 7054 H 646.994 0.666262 -3.16769 0
M  V30 7055 H 645.901 -1.64299 -3.3609 0
M  V30 7056 H 647.234 -2.14396 -4.43052 0
M  V30 7057 N 648.886 1.2938 -0.899927 0
M  V30 7058 C 650.135 1.9483 -0.521937 0
M  V30 7059 C 650.448 1.71725 0.936473 0
M  V30 7060 O 651.654 2.31282 1.42199 0
M  V30 7061 C 650.11 3.48911 -0.88255 0
M  V30 7062 C 649.718 3.80815 -2.35974 0
M  V30 7063 C 651.462 4.20595 -0.57448 0
M  V30 7064 C 649.369 5.28142 -2.66121 0
M  V30 7065 H 648.299 0.729285 -0.191468 0
M  V30 7066 H 650.95 1.47103 -1.09695 0
M  V30 7067 H 649.332 3.95293 -0.236459 0
M  V30 7068 H 650.506 3.45291 -3.05141 0
M  V30 7069 H 648.821 3.22271 -2.63686 0
M  V30 7070 H 651.418 5.29031 -0.776556 0
M  V30 7071 H 651.761 4.13442 0.487005 0
M  V30 7072 H 652.294 3.79945 -1.17842 0
M  V30 7073 H 649.033 5.4036 -3.71068 0
M  V30 7074 H 648.553 5.64913 -2.01578 0
M  V30 7075 H 650.232 5.95738 -2.52399 0
M  V30 7076 N 650.364 0.662433 1.43002 0
M  V30 7077 C 651.641 0.109096 1.95296 0
M  V30 7078 C 652.021 -1.37313 1.60338 0
M  V30 7079 O 651.369 -2.1032 0.893187 0
M  V30 7080 C 651.579 0.365096 3.47085 0
M  V30 7081 C 652.927 0.274964 4.23709 0
M  V30 7082 O 653.951 0.29816 3.5495 0
M  V30 7083 O 652.81 0.206549 5.4611 0
M  V30 7084 H 649.904 -0.00429724 0.826989 0
M  V30 7085 H 652.45 0.736308 1.52894 0
M  V30 7086 H 651.222 1.39237 3.65689 0
M  V30 7087 H 650.845 -0.294733 3.96506 0
M  V30 7088 N 651.842 -1.52309 0.404946 0
M  V30 7089 C 653.067 -2.06666 -0.1743 0
M  V30 7090 C 653.492 -1.27341 -1.38441 0
M  V30 7091 O 652.85 -0.302539 -1.78758 0
M  V30 7092 C 652.898 -3.57014 -0.507262 0
M  V30 7093 O 652.002 -3.80144 -1.59889 0
M  V30 7094 H 651.343 -0.663807 -0.0160273 0
M  V30 7095 H 653.873 -1.96297 0.576937 0
M  V30 7096 H 653.883 -4.00724 -0.767098 0
M  V30 7097 H 652.558 -4.14184 0.377368 0
M  V30 7098 H 651.135 -3.48316 -1.33155 0
M  V30 7099 N 653.32 -0.135238 -1.57019 0
M  V30 7100 C 654.545 0.529343 -2.00531 0
M  V30 7101 C 654.97 1.58391 -1.01459 0
M  V30 7102 O 654.328 1.81296 0.0113986 0
M  V30 7103 C 654.376 1.11748 -3.42848 0
M  V30 7104 O 653.48 2.23267 -3.46736 0
M  V30 7105 H 652.821 0.130669 -0.651016 0
M  V30 7106 H 655.351 -0.228503 -2.0332 0
M  V30 7107 H 655.361 1.44905 -3.81401 0
M  V30 7108 H 654.036 0.345147 -4.14465 0
M  V30 7109 H 652.613 1.91428 -3.20015 0
M  V30 7110 N 654.798 1.5699 0.138552 0
M  V30 7111 C 655.73 1.95515 1.1961 0
M  V30 7112 C 656.743 0.852002 1.38726 0
M  V30 7113 O 657.932 1.13038 1.38147 0
M  V30 7114 C 655.032 2.2213 2.55952 0
M  V30 7115 C 654.205 3.53424 2.57702 0
M  V30 7116 C 653.264 3.6848 3.75645 0
M  V30 7117 O 652.29 4.4079 3.60129 0
M  V30 7118 N 653.492 3.05777 4.93438 0
M  V30 7119 H 656.257 2.86838 0.868557 0
M  V30 7120 H 653.818 1.58542 0.328033 0
M  V30 7121 H 655.81 2.29435 3.33379 0
M  V30 7122 H 654.38 1.3703 2.80965 0
M  V30 7123 H 653.6 3.57484 1.6613 0
M  V30 7124 H 654.888 4.39759 2.55909 0
M  V30 7125 H 654.286 2.46961 5.08947 0
M  V30 7126 H 652.843 3.18631 5.6861 0
M  V30 7127 N 656.276 -0.40816 1.52223 0
M  V30 7128 C 657.525 -1.15212 1.65557 0
M  V30 7129 C 657.838 -1.9163 0.392096 0
M  V30 7130 O 659.044 -2.68458 0.405256 0
M  V30 7131 C 657.5 -2.09691 2.92502 0
M  V30 7132 C 657.108 -1.38785 4.25961 0
M  V30 7133 C 658.852 -2.8434 3.152 0
M  V30 7134 C 656.759 -2.31919 5.44029 0
M  V30 7135 H 655.689 -0.433776 0.616729 0
M  V30 7136 H 658.34 -0.4165 1.78711 0
M  V30 7137 H 656.722 -2.8681 2.7305 0
M  V30 7138 H 657.896 -0.670248 4.55899 0
M  V30 7139 H 656.211 -0.761741 4.09373 0
M  V30 7140 H 658.808 -3.54166 4.00587 0
M  V30 7141 H 659.151 -3.47344 2.29473 0
M  V30 7142 H 659.684 -2.14321 3.35129 0
M  V30 7143 H 656.423 -1.7356 6.32105 0
M  V30 7144 H 655.943 -3.0165 5.18428 0
M  V30 7145 H 657.622 -2.92424 5.77146 0
M  V30 7146 N 657.755 -1.42862 -0.66545 0
M  V30 7147 C 659.004 -1.43119 -1.42126 0
M  V30 7148 C 659.317 -0.0545297 -1.95524 0
M  V30 7149 O 660.523 0.0654747 -2.71421 0
M  V30 7150 C 658.979 -2.51797 -2.5715 0
M  V30 7151 C 658.587 -3.95514 -2.10411 0
M  V30 7152 C 660.331 -2.61233 -3.346 0
M  V30 7153 C 658.238 -4.95682 -3.22573 0
M  V30 7154 H 657.168 -0.532349 -0.533966 0
M  V30 7155 H 659.819 -1.68806 -0.719506 0
M  V30 7156 H 658.201 -2.19292 -3.29738 0
M  V30 7157 H 659.375 -4.3742 -1.44915 0
M  V30 7158 H 657.69 -3.90012 -1.45874 0
M  V30 7159 H 660.287 -3.33248 -4.18151 0
M  V30 7160 H 660.63 -1.65896 -3.81817 0
M  V30 7161 H 661.163 -2.9298 -2.69087 0
M  V30 7162 H 657.902 -5.92529 -2.80338 0
M  V30 7163 H 657.422 -4.58399 -3.86821 0
M  V30 7164 H 659.101 -5.17828 -3.87896 0
M  V30 7165 N 659.233 0.902656 -1.29189 0
M  V30 7166 C 660.461 1.68639 -1.19869 0
M  V30 7167 C 660.876 1.87254 0.241121 0
M  V30 7168 O 660.233 1.40745 1.16177 0
M  V30 7169 C 660.284 3.07251 -1.90471 0
M  V30 7170 O 660.005 2.89488 -3.28829 0
M  V30 7171 C 661.506 4.01653 -1.8759 0
M  V30 7172 H 658.726 0.526802 -0.415596 0
M  V30 7173 H 661.27 1.12901 -1.7051 0
M  V30 7174 H 659.425 3.59774 -1.43672 0
M  V30 7175 H 659.839 3.77296 -3.64346 0
M  V30 7176 H 661.313 4.96339 -2.4156 0
M  V30 7177 H 661.79 4.30881 -0.850756 0
M  V30 7178 H 662.396 3.55061 -2.34119 0
M  V30 7179 N 660.711 1.11618 1.11262 0
M  V30 7180 C 661.936 0.889013 1.8738 0
M  V30 7181 C 662.361 -0.555884 1.79698 0
M  V30 7182 O 661.719 -1.39272 1.16073 0
M  V30 7183 C 661.767 1.35759 3.34069 0
M  V30 7184 O 660.871 0.530499 4.08974 0
M  V30 7185 H 660.212 0.320082 0.581759 0
M  V30 7186 H 662.742 1.48611 1.40627 0
M  V30 7187 H 662.752 1.35291 3.84916 0
M  V30 7188 H 661.427 2.40973 3.38976 0
M  V30 7189 H 660.004 0.601439 3.68018 0
M  V30 7190 N 662.189 -1.289 0.906776 0
M  V30 7191 C 663.6 -1.77336 0.58384 0
M  V30 7192 C 663.951 -1.74304 -0.900697 0
M  V30 7193 O 663.076 -1.33335 -1.70443 0
M  V30 7194 C 663.671 -3.22019 1.05304 0
M  V30 7195 C 662.23 -3.68205 0.781148 0
M  V30 7196 C 661.377 -2.48837 1.22373 0
M  V30 7197 H 664.328 -1.15462 1.08877 0
M  V30 7198 H 664.349 -3.78481 0.391414 0
M  V30 7199 H 663.861 -3.24194 2.13353 0
M  V30 7200 H 661.962 -3.71497 -0.28643 0
M  V30 7201 H 662.075 -4.58675 1.384 0
M  V30 7202 H 660.439 -2.46461 0.642594 0
M  V30 7203 H 661.222 -2.53736 2.31242 0
M  V30 7204 N 663.667 -0.670007 -1.42649 0
M  V30 7205 C 664.597 -0.00258501 -2.335 0
M  V30 7206 C 665.578 0.794364 -1.50412 0
M  V30 7207 O 666.763 0.75248 -1.79029 0
M  V30 7208 C 663.893 0.952748 -3.33976 0
M  V30 7209 C 662.847 0.264733 -4.2718 0
M  V30 7210 C 662.173 1.33267 -5.17826 0
M  V30 7211 C 663.473 -0.853289 -5.15283 0
M  V30 7212 H 665.167 -0.761326 -2.89559 0
M  V30 7213 H 662.713 -0.367561 -1.3923 0
M  V30 7214 H 664.666 1.4287 -3.96442 0
M  V30 7215 H 663.39 1.74285 -2.7621 0
M  V30 7216 H 662.049 -0.190938 -3.66102 0
M  V30 7217 H 661.697 2.11464 -4.5639 0
M  V30 7218 H 661.397 0.877476 -5.81011 0
M  V30 7219 H 662.921 1.80965 -5.83167 0
M  V30 7220 H 664.335 -0.458763 -5.71462 0
M  V30 7221 H 662.732 -1.23398 -5.87276 0
M  V30 7222 H 663.802 -1.70412 -4.53969 0
M  V30 7223 N 665.145 1.52092 -0.413018 0
M  V30 7224 C 666.556 1.86617 0.0556967 0
M  V30 7225 C 666.907 1.33156 1.44097 0
M  V30 7226 O 666.032 0.672417 2.05688 0
M  V30 7227 C 666.627 3.38628 0.107844 0
M  V30 7228 C 665.186 3.72778 0.520904 0
M  V30 7229 C 664.333 2.75649 -0.302109 0
M  V30 7230 H 667.284 1.45663 -0.629919 0
M  V30 7231 H 667.305 3.69152 0.922324 0
M  V30 7232 H 666.817 3.77508 -0.900506 0
M  V30 7233 H 664.918 3.39478 1.53575 0
M  V30 7234 H 665.031 4.7838 0.262591 0
M  V30 7235 H 663.395 2.53603 0.236115 0
M  V30 7236 H 664.178 3.17369 -1.30888 0
M  V30 7237 N 666.623 0.143563 1.56945 0
M  V30 7238 C 667.848 -0.518701 2.00809 0
M  V30 7239 C 668.273 -1.5785 1.02298 0
M  V30 7240 O 667.631 -1.813 -0.0017839 0
M  V30 7241 C 667.679 -1.09929 3.43436 0
M  V30 7242 O 666.783 -2.21425 3.47915 0
M  V30 7243 H 666.124 -0.127215 0.6517 0
M  V30 7244 H 668.654 0.239283 2.03196 0
M  V30 7245 H 668.664 -1.4288 3.82164 0
M  V30 7246 H 667.339 -0.323162 4.14643 0
M  V30 7247 H 665.916 -1.89728 3.21026 0
M  V30 7248 N 668.101 -1.57061 -0.130224 0
M  V30 7249 C 669.347 -1.8453 -0.841216 0
M  V30 7250 C 669.68 -0.727666 -1.80052 0
M  V30 7251 O 668.955 0.267419 -1.92653 0
M  V30 7252 C 669.238 -3.22553 -1.60099 0
M  V30 7253 C 669.091 -4.44901 -0.662048 0
M  V30 7254 C 670.41 -3.58003 -2.55973 0
M  V30 7255 H 667.529 -0.671215 -0.304366 0
M  V30 7256 H 670.171 -1.89705 -0.105821 0
M  V30 7257 H 668.321 -3.18272 -2.22789 0
M  V30 7258 H 669.993 -4.61278 -0.0448559 0
M  V30 7259 H 668.236 -4.33791 0.0272253 0
M  V30 7260 H 668.907 -5.3812 -1.23006 0
M  V30 7261 H 671.383 -3.63002 -2.03393 0
M  V30 7262 H 670.259 -4.55576 -3.06172 0
M  V30 7263 H 670.52 -2.84833 -3.38116 0
M  V30 7264 N 669.579 0.400081 -1.52437 0
M  V30 7265 C 670.804 1.17221 -1.71096 0
M  V30 7266 C 671.229 1.83269 -0.423565 0
M  V30 7267 O 670.587 1.70378 0.619751 0
M  V30 7268 C 670.635 2.20425 -2.85386 0
M  V30 7269 O 669.739 3.26769 -2.51586 0
M  V30 7270 H 669.08 0.341766 -0.569291 0
M  V30 7271 H 671.61 0.467772 -1.99181 0
M  V30 7272 H 671.62 2.64605 -3.10561 0
M  V30 7273 H 670.295 1.71737 -3.78786 0
M  V30 7274 H 668.872 2.87804 -2.37114 0
M  V30 7275 N 671.057 1.43213 0.657864 0
M  V30 7276 C 672.282 1.48227 1.45064 0
M  V30 7277 C 672.707 0.0999939 1.87834 0
M  V30 7278 O 672.065 -0.905269 1.57081 0
M  V30 7279 C 672.113 2.42931 2.6649 0
M  V30 7280 O 671.217 1.91237 3.6538 0
M  V30 7281 H 670.558 0.501551 0.435135 0
M  V30 7282 H 673.088 1.8808 0.805431 0
M  V30 7283 H 673.098 2.6008 3.1436 0
M  V30 7284 H 671.773 3.43348 2.34701 0
M  V30 7285 H 670.35 1.83726 3.24498 0
M  V30 7286 N 672.536 -0.895792 1.29666 0
M  V30 7287 C 673.947 -1.46195 1.1612 0
M  V30 7288 C 674.298 -1.94699 -0.242195 0
M  V30 7289 O 673.423 -1.8406 -1.13802 0
M  V30 7290 C 674.018 -2.65718 2.10189 0
M  V30 7291 C 672.577 -3.18458 2.00653 0
M  V30 7292 C 671.724 -1.91149 2.00891 0
M  V30 7293 H 674.675 -0.706756 1.42094 0
M  V30 7294 H 674.696 -3.4158 1.6764 0
M  V30 7295 H 674.208 -2.30386 3.12321 0
M  V30 7296 H 672.309 -3.58474 1.01623 0
M  V30 7297 H 672.422 -3.82491 2.88509 0
M  V30 7298 H 670.786 -2.09021 1.45542 0
M  V30 7299 H 671.569 -1.58089 3.04734 0
M  V30 7300 N 674.014 -1.12206 -1.10668 0
M  V30 7301 C 675.425 -0.890657 -1.64086 0
M  V30 7302 C 675.776 0.575502 -1.8757 0
M  V30 7303 O 674.901 1.4394 -1.61587 0
M  V30 7304 C 675.496 -1.61029 -2.98085 0
M  V30 7305 C 674.055 -1.4251 -3.48379 0
M  V30 7306 C 673.202 -1.64778 -2.23033 0
M  V30 7307 H 676.153 -1.27718 -0.94201 0
M  V30 7308 H 676.174 -1.05993 -3.65439 0
M  V30 7309 H 675.686 -2.67735 -2.80962 0
M  V30 7310 H 673.787 -0.380497 -3.70652 0
M  V30 7311 H 673.9 -2.17959 -4.26651 0
M  V30 7312 H 672.264 -1.07171 -2.31055 0
M  V30 7313 H 673.047 -2.72776 -2.08443 0
M  V30 7314 N 675.492 1.28418 -0.913599 0
M  V30 7315 C 676.903 1.77024 -0.593237 0
M  V30 7316 C 677.254 1.74779 0.891441 0
M  V30 7317 O 676.379 1.34237 1.69733 0
M  V30 7318 C 676.974 3.21456 -1.07011 0
M  V30 7319 C 675.533 3.67786 -0.800664 0
M  V30 7320 C 674.68 2.48185 -1.23691 0
M  V30 7321 H 677.631 1.14883 -1.09487 0
M  V30 7322 H 677.652 3.78269 -0.411481 0
M  V30 7323 H 677.164 3.23058 -2.1507 0
M  V30 7324 H 675.265 3.71644 0.266725 0
M  V30 7325 H 675.378 4.57934 -1.4083 0
M  V30 7326 H 673.742 2.46116 -0.655655 0
M  V30 7327 H 674.525 2.52506 -2.32585 0
M  V30 7328 N 676.97 0.677563 1.42291 0
M  V30 7329 C 677.933 0.0101085 2.29198 0
M  V30 7330 C 678.933 -0.726219 1.43467 0
M  V30 7331 O 680.123 -0.563807 1.64824 0
M  V30 7332 C 677.255 -0.996316 3.26016 0
M  V30 7333 H 678.448 0.775071 2.89711 0
M  V30 7334 H 676.001 0.440065 1.49977 0
M  V30 7335 H 676.736 -1.78967 2.70446 0
M  V30 7336 H 676.521 -0.471687 3.89253 0
M  V30 7337 H 678.011 -1.46167 3.91184 0
M  V30 7338 N 678.448 -1.51871 0.421078 0
M  V30 7339 C 679.673 -2.0684 -0.152371 0
M  V30 7340 C 680.098 -1.28802 -1.37083 0
M  V30 7341 O 679.456 -0.321482 -1.78427 0
M  V30 7342 C 679.504 -3.57532 -0.469368 0
M  V30 7343 O 678.608 -3.81818 -1.55848 0
M  V30 7344 H 677.949 -0.663939 -0.00898586 0
M  V30 7345 H 680.479 -1.95674 0.597724 0
M  V30 7346 H 680.489 -4.01515 -0.724553 0
M  V30 7347 H 679.164 -4.13761 0.421276 0
M  V30 7348 H 677.741 -3.49709 -1.29453 0
M  V30 7349 N 679.926 -0.151884 -1.56866 0
M  V30 7350 C 680.873 0.785936 -2.17006 0
M  V30 7351 C 681.843 1.2407 -1.10435 0
M  V30 7352 O 683.028 1.31235 -1.38499 0
M  V30 7353 C 680.168 2.01771 -2.79969 0
M  V30 7354 C 679.281 1.6083 -4.00946 0
M  V30 7355 C 678.416 2.79224 -4.51893 0
M  V30 7356 C 677.455 2.3468 -5.65324 0
M  V30 7357 N 676.592 3.461 -6.10867 0
M  V30 7358 H 681.432 0.266286 -2.96808 0
M  V30 7359 H 678.969 0.11972 -1.46612 0
M  V30 7360 H 680.927 2.73989 -3.14621 0
M  V30 7361 H 679.557 2.51139 -2.02803 0
M  V30 7362 H 678.609 0.783592 -3.72242 0
M  V30 7363 H 679.921 1.24119 -4.83111 0
M  V30 7364 H 679.075 3.59625 -4.88625 0
M  V30 7365 H 677.814 3.19183 -3.68746 0
M  V30 7366 H 676.819 1.52721 -5.28163 0
M  V30 7367 H 678.044 1.95801 -6.5026 0
M  V30 7368 H 675.99 3.85671 -5.30654 0
M  V30 7369 H 675.907 3.1342 -6.87971 0
M  V30 7370 H 677.175 4.26844 -6.52246 0
M  V30 7371 N 681.404 1.57128 0.121893 0
M  V30 7372 C 682.632 1.88883 0.844451 0
M  V30 7373 C 683.047 0.742824 1.73573 0
M  V30 7374 O 682.404 -0.286475 1.80238 0
M  V30 7375 C 682.455 3.20076 1.68029 0
M  V30 7376 O 682.176 4.30264 0.824898 0
M  V30 7377 C 683.677 3.65515 2.50826 0
M  V30 7378 H 680.897 0.62549 0.242907 0
M  V30 7379 H 683.441 2.04219 0.107151 0
M  V30 7380 H 681.596 3.06418 2.37038 0
M  V30 7381 H 682.01 5.05439 1.40113 0
M  V30 7382 H 683.484 4.60081 3.05008 0
M  V30 7383 H 683.961 2.92029 3.28048 0
M  V30 7384 H 684.567 3.81952 1.87064 0
M  V30 7385 N 682.882 -0.391992 1.52647 0
M  V30 7386 C 683.829 -1.47866 1.77213 0
M  V30 7387 C 684.799 -1.54286 0.615223 0
M  V30 7388 O 685.984 -1.7059 0.854622 0
M  V30 7389 C 683.124 -2.85129 1.94411 0
M  V30 7390 C 682.237 -2.87883 3.22098 0
M  V30 7391 C 681.372 -4.16553 3.29631 0
M  V30 7392 C 680.411 -4.13348 4.51453 0
M  V30 7393 N 679.548 -5.33619 4.56284 0
M  V30 7394 H 684.388 -1.26219 2.6995 0
M  V30 7395 H 681.925 -0.612367 1.33748 0
M  V30 7396 H 683.883 -3.64833 2.02367 0
M  V30 7397 H 682.513 -3.05232 1.05038 0
M  V30 7398 H 681.565 -2.00567 3.23229 0
M  V30 7399 H 682.877 -2.81382 4.11856 0
M  V30 7400 H 682.031 -5.0466 3.36753 0
M  V30 7401 H 680.77 -4.25773 2.37842 0
M  V30 7402 H 679.775 -3.23629 4.44459 0
M  V30 7403 H 681 -4.05754 5.44555 0
M  V30 7404 H 678.946 -5.43474 3.67385 0
M  V30 7405 H 678.863 -5.29182 5.3991 0
M  V30 7406 H 680.131 -6.23632 4.67657 0
M  V30 7407 N 684.36 -1.4356 -0.65026 0
M  V30 7408 C 685.27 -1.514 -1.79207 0
M  V30 7409 C 686.286 -0.400895 -1.69319 0
M  V30 7410 O 687.462 -0.655458 -1.90436 0
M  V30 7411 C 684.527 -1.43737 -3.155 0
M  V30 7412 C 683.588 -2.65743 -3.37163 0
M  V30 7413 C 682.821 -2.58436 -4.66954 0
M  V30 7414 O 683.044 -1.63374 -5.46503 0
M  V30 7415 O 681.978 -3.48984 -4.90402 0
M  V30 7416 H 685.804 -2.47825 -1.75547 0
M  V30 7417 H 683.389 -1.25594 -0.809111 0
M  V30 7418 H 685.271 -1.41916 -3.96784 0
M  V30 7419 H 683.946 -0.504488 -3.19745 0
M  V30 7420 H 682.853 -2.73136 -2.55632 0
M  V30 7421 H 684.186 -3.58014 -3.37768 0
M  V30 7422 N 685.838 0.888903 -1.30139 0
M  V30 7423 C 687.084 1.6428 -1.18912 0
M  V30 7424 C 687.417 1.92499 0.256477 0
M  V30 7425 O 686.692 1.54312 1.18397 0
M  V30 7426 C 686.975 2.9851 -2.01405 0
M  V30 7427 C 686.828 2.77288 -3.54163 0
M  V30 7428 C 688.147 3.99383 -1.84882 0
M  V30 7429 H 685.266 0.596148 -0.433333 0
M  V30 7430 H 687.908 1.0289 -1.5973 0
M  V30 7431 H 686.058 3.50907 -1.66722 0
M  V30 7432 H 687.73 2.31709 -3.98884 0
M  V30 7433 H 685.973 2.11867 -3.78543 0
M  V30 7434 H 686.644 3.72717 -4.07168 0
M  V30 7435 H 689.12 3.56132 -2.15196 0
M  V30 7436 H 687.996 4.91222 -2.44934 0
M  V30 7437 H 688.257 4.34674 -0.806902 0
M  V30 7438 N 687.317 1.12792 1.10072 0
M  V30 7439 C 688.728 0.899346 1.63611 0
M  V30 7440 C 689.079 -0.565547 1.87872 0
M  V30 7441 O 688.204 -1.43081 1.62348 0
M  V30 7442 C 688.799 1.62608 2.97227 0
M  V30 7443 C 687.358 1.44356 3.47618 0
M  V30 7444 C 686.505 1.65958 2.22156 0
M  V30 7445 H 689.456 1.28216 0.935223 0
M  V30 7446 H 689.477 1.0793 3.64872 0
M  V30 7447 H 688.989 2.69221 2.79538 0
M  V30 7448 H 687.09 0.400148 3.70445 0
M  V30 7449 H 687.203 2.20218 4.25489 0
M  V30 7450 H 685.567 1.08395 2.30484 0
M  V30 7451 H 686.35 2.73877 2.06993 0
M  V30 7452 N 688.795 -1.27931 0.920396 0
M  V30 7453 C 690.072 -1.89728 0.475687 0
M  V30 7454 C 690.452 -1.8337 -1.04588 0
M  V30 7455 O 689.8 -1.27404 -1.89685 0
M  V30 7456 C 690.01 -3.33959 1.01354 0
M  V30 7457 C 691.358 -4.10907 1.06963 0
M  V30 7458 O 692.382 -3.42945 0.962646 0
M  V30 7459 O 691.241 -5.32399 1.23343 0
M  V30 7460 H 688.335 -0.81294 0.151845 0
M  V30 7461 H 690.881 -1.36252 1.01161 0
M  V30 7462 H 689.653 -3.32843 2.05746 0
M  V30 7463 H 689.276 -3.94944 0.458829 0
M  V30 7464 N 690.273 -0.685099 -1.4193 0
M  V30 7465 C 691.521 -0.21124 -2.00993 0
M  V30 7466 C 691.842 1.18985 -1.54491 0
M  V30 7467 O 691.112 1.8009 -0.771 0
M  V30 7468 H 689.692 -0.0751059 -0.743215 0
M  V30 7469 H 692.354 -0.883915 -1.73704 0
M  V30 7470 H 691.45 -0.220513 -3.1132 0
M  V30 7471 N 691.751 1.51645 -0.429126 0
M  V30 7472 C 692.661 2.31288 0.392809 0
M  V30 7473 C 693.677 1.39852 1.03525 0
M  V30 7474 O 694.853 1.72926 1.03241 0
M  V30 7475 C 691.918 3.13347 1.48372 0
M  V30 7476 C 690.979 4.20551 0.862268 0
M  V30 7477 C 690.212 4.98688 1.9012 0
M  V30 7478 O 690.435 4.77359 3.12225 0
M  V30 7479 O 689.369 5.83005 1.4963 0
M  V30 7480 H 693.195 3.02609 -0.257138 0
M  V30 7481 H 690.78 1.48163 -0.191851 0
M  V30 7482 H 692.662 3.64387 2.1166 0
M  V30 7483 H 691.337 2.44799 2.1179 0
M  V30 7484 H 690.244 3.73609 0.191568 0
M  V30 7485 H 691.577 4.91449 0.271704 0
M  V30 7486 N 693.229 0.160201 1.56784 0
M  V30 7487 C 694.177 -0.791402 2.18723 0
M  V30 7488 C 695.171 -1.24567 1.14801 0
M  V30 7489 O 696.377 -1.21262 1.33025 0
M  V30 7490 H 692.752 -0.273458 0.700517 0
M  V30 7491 H 694.723 -0.244931 2.97393 0
M  V30 7492 C 693.472 -2.01509 2.83354 0
M  V30 7493 H 692.795 -1.67454 3.63041 0
M  V30 7494 H 694.235 -2.66006 3.30177 0
M  V30 7495 C 692.694 -2.83159 1.82545 0
M  V30 7496 O 693.224 -3.79944 1.30405 0
M  V30 7497 N 691.43 -2.47953 1.51552 0
M  V30 7498 H 690.977 -1.69309 1.94144 0
M  V30 7499 H 690.935 -3.02873 0.843519 0
M  V30 7500 N 694.707 -1.5719 -0.113559 0
M  V30 7501 C 695.637 -2.03772 -1.14013 0
M  V30 7502 C 696.618 -0.923176 -1.42869 0
M  V30 7503 O 697.803 -1.19325 -1.53216 0
M  V30 7504 C 694.933 -2.44663 -2.4649 0
M  V30 7505 C 693.887 -3.59612 -2.32085 0
M  V30 7506 C 693.213 -3.8642 -3.69573 0
M  V30 7507 C 694.513 -4.91149 -1.7768 0
M  V30 7508 H 696.207 -2.89785 -0.752665 0
M  V30 7509 H 693.753 -1.39412 -0.360609 0
M  V30 7510 H 695.706 -2.75857 -3.18561 0
M  V30 7511 H 694.43 -1.55628 -2.87137 0
M  V30 7512 H 693.089 -3.28636 -1.62461 0
M  V30 7513 H 692.737 -2.94581 -4.07715 0
M  V30 7514 H 692.437 -4.63797 -3.60786 0
M  V30 7515 H 693.961 -4.2007 -4.4314 0
M  V30 7516 H 695.375 -5.20843 -2.39574 0
M  V30 7517 H 693.772 -5.72562 -1.79701 0
M  V30 7518 H 694.842 -4.79301 -0.734776 0
M  V30 7519 N 696.185 0.383891 -1.52853 0
M  V30 7520 C 697.095 1.49343 -1.80925 0
M  V30 7521 C 698.111 1.59458 -0.696348 0
M  V30 7522 O 699.287 1.75698 -0.984481 0
M  V30 7523 C 696.352 2.84819 -1.97684 0
M  V30 7524 C 695.413 2.84382 -3.21598 0
M  V30 7525 C 694.646 4.13397 -3.37548 0
M  V30 7526 O 694.869 5.08619 -2.58192 0
M  V30 7527 O 693.803 4.20325 -4.30826 0
M  V30 7528 H 697.629 1.2855 -2.75152 0
M  V30 7529 H 695.214 0.572229 -1.38007 0
M  V30 7530 H 697.096 3.65125 -2.10385 0
M  V30 7531 H 695.771 3.05627 -1.06647 0
M  V30 7532 H 694.678 2.0284 -3.14336 0
M  V30 7533 H 696.011 2.68526 -4.12498 0
M  V30 7534 N 697.663 1.43903 0.642637 0
M  V30 7535 C 698.595 1.45857 1.768 0
M  V30 7536 C 699.608 0.353358 1.58919 0
M  V30 7537 O 700.797 0.618426 1.67445 0
M  V30 7538 C 697.897 1.26583 3.14372 0
M  V30 7539 C 697.07 2.50139 3.58817 0
M  V30 7540 C 696.129 2.25933 4.75227 0
M  V30 7541 O 695.155 2.99351 4.84125 0
M  V30 7542 N 696.357 1.28263 5.66153 0
M  V30 7543 H 699.122 2.42869 1.75598 0
M  V30 7544 H 696.683 1.39194 0.826832 0
M  V30 7545 H 698.675 1.08255 3.89953 0
M  V30 7546 H 697.245 0.37978 3.10284 0
M  V30 7547 H 696.465 2.83821 2.73568 0
M  V30 7548 H 697.753 3.32344 3.8526 0
M  V30 7549 H 697.151 0.676041 5.61646 0
M  V30 7550 H 695.708 1.15916 6.4141 0
M  V30 7551 N 699.141 -0.881989 1.30609 0
M  V30 7552 C 700.418 -1.61563 1.10258 0
M  V30 7553 C 700.798 -2.08228 -0.347053 0
M  V30 7554 O 700.146 -1.85151 -1.33908 0
M  V30 7555 C 700.356 -2.78287 2.10612 0
M  V30 7556 C 701.704 -3.48545 2.4249 0
M  V30 7557 O 702.728 -2.88479 2.08945 0
M  V30 7558 O 701.587 -4.56873 2.99883 0
M  V30 7559 H 698.681 -0.710238 0.423663 0
M  V30 7560 H 701.227 -0.928503 1.42045 0
M  V30 7561 H 699.999 -2.41131 3.08174 0
M  V30 7562 H 699.622 -3.54695 1.79659 0
M  V30 7563 N 700.619 -1.13374 -1.09472 0
M  V30 7564 C 701.549 -0.833268 -2.18126 0
M  V30 7565 C 702.53 0.207169 -1.68834 0
M  V30 7566 O 703.715 0.0662012 -1.94087 0
M  V30 7567 C 700.845 -0.297979 -3.46019 0
M  V30 7568 C 699.799 -1.27261 -4.08642 0
M  V30 7569 C 699.125 -0.597104 -5.31356 0
M  V30 7570 C 700.425 -2.63095 -4.51197 0
M  V30 7571 H 702.119 -1.74182 -2.43518 0
M  V30 7572 H 699.665 -0.838921 -1.17039 0
M  V30 7573 H 701.618 -0.0754444 -4.21332 0
M  V30 7574 H 700.342 0.645959 -3.20148 0
M  V30 7575 H 699.001 -1.48113 -3.35348 0
M  V30 7576 H 698.649 0.352293 -5.01765 0
M  V30 7577 H 698.349 -1.24734 -5.74208 0
M  V30 7578 H 699.873 -0.38384 -6.09392 0
M  V30 7579 H 701.287 -2.46214 -5.17737 0
M  V30 7580 H 699.684 -3.2429 -5.04932 0
M  V30 7581 H 700.754 -3.20793 -3.6362 0
M  V30 7582 N 702.098 1.27442 -0.927168 0
M  V30 7583 C 703.338 1.96157 -0.574608 0
M  V30 7584 C 703.702 1.71265 0.867897 0
M  V30 7585 O 704.903 2.33664 1.3287 0
M  V30 7586 C 703.174 3.46115 -0.891009 0
M  V30 7587 S 704.733 4.34006 -0.646885 0
M  V30 7588 H 701.551 0.678619 -0.212125 0
M  V30 7589 H 704.153 1.54688 -1.19549 0
M  V30 7590 H 702.857 3.6173 -1.93854 0
M  V30 7591 H 702.388 3.92545 -0.259301 0
M  V30 7592 H 704.403 4.93719 0.495568 0
M  V30 7593 N 703.576 0.692616 1.41565 0
M  V30 7594 C 704.804 0.231279 2.05603 0
M  V30 7595 C 705.219 -1.11837 1.52111 0
M  V30 7596 O 704.576 -1.6983 0.66813 0
M  V30 7597 C 704.627 0.177125 3.61066 0
M  V30 7598 O 704.348 1.47346 4.12578 0
M  V30 7599 C 705.849 -0.30556 4.42246 0
M  V30 7600 H 703.069 0.108238 0.662213 0
M  V30 7601 H 705.613 0.944369 1.81389 0
M  V30 7602 H 703.768 -0.486769 3.8433 0
M  V30 7603 H 704.182 1.35861 5.06599 0
M  V30 7604 H 705.656 -0.29233 5.51225 0
M  V30 7605 H 706.133 -1.34393 4.18133 0
M  V30 7606 H 706.739 0.327229 4.24039 0
M  V30 7607 N 705.054 -1.51416 0.437162 0
M  V30 7608 C 706.301 -2.02086 -0.129364 0
M  V30 7609 C 706.629 -1.32133 -1.42728 0
M  V30 7610 O 705.884 -0.424916 -1.91031 0
M  V30 7611 C 706.183 -3.55203 -0.39564 0
M  V30 7612 C 705.849 -4.43447 0.81644 0
M  V30 7613 C 704.511 -4.67285 1.14884 0
M  V30 7614 C 706.863 -4.95219 1.62503 0
M  V30 7615 C 704.191 -5.40141 2.29052 0
M  V30 7616 C 706.543 -5.69327 2.7577 0
M  V30 7617 C 705.207 -5.91429 3.09464 0
M  V30 7618 H 704.477 -0.739486 -0.0473375 0
M  V30 7619 H 707.124 -1.82368 0.584321 0
M  V30 7620 H 705.429 -3.73252 -1.19121 0
M  V30 7621 H 707.126 -3.91944 -0.847399 0
M  V30 7622 H 703.716 -4.2509 0.547422 0
M  V30 7623 H 707.9 -4.76686 1.38144 0
M  V30 7624 H 703.156 -5.55468 2.55471 0
M  V30 7625 H 707.33 -6.08433 3.38795 0
M  V30 7626 H 704.957 -6.47662 3.98042 0
M  V30 7627 N 706.532 -0.168513 -1.56696 0
M  V30 7628 C 707.462 0.758563 -2.20835 0
M  V30 7629 C 708.443 1.24121 -1.1631 0
M  V30 7630 O 709.628 1.29487 -1.4473 0
M  V30 7631 C 706.758 1.9892 -2.8469 0
M  V30 7632 C 705.712 1.64252 -3.95228 0
M  V30 7633 C 705.038 2.94757 -4.46119 0
M  V30 7634 C 706.338 0.872675 -5.14958 0
M  V30 7635 H 708.032 0.223953 -2.98561 0
M  V30 7636 H 705.578 0.106277 -1.43607 0
M  V30 7637 H 707.531 2.64275 -3.28233 0
M  V30 7638 H 706.255 2.5479 -2.04327 0
M  V30 7639 H 704.914 1.01266 -3.52336 0
M  V30 7640 H 704.562 3.48662 -3.62552 0
M  V30 7641 H 704.262 2.72316 -5.2069 0
M  V30 7642 H 705.786 3.61147 -4.92347 0
M  V30 7643 H 707.2 1.42875 -5.55211 0
M  V30 7644 H 705.597 0.747402 -5.95428 0
M  V30 7645 H 706.667 -0.131535 -4.84722 0
M  V30 7646 N 708.01 1.57248 0.105221 0
M  V30 7647 C 709.259 1.84756 0.809198 0
M  V30 7648 C 709.572 0.756262 1.80389 0
M  V30 7649 O 710.778 0.918158 2.55504 0
M  V30 7650 C 709.234 3.27613 1.48989 0
M  V30 7651 C 708.842 4.44788 0.535484 0
M  V30 7652 C 710.586 3.64356 2.17819 0
M  V30 7653 C 708.493 5.78676 1.22019 0
M  V30 7654 H 707.423 0.689139 0.305946 0
M  V30 7655 H 710.074 1.83395 0.0620371 0
M  V30 7656 H 708.456 3.23485 2.28415 0
M  V30 7657 H 709.63 4.60243 -0.226557 0
M  V30 7658 H 707.945 4.16374 -0.0465769 0
M  V30 7659 H 710.542 4.61663 2.69761 0
M  V30 7660 H 710.885 2.92474 2.96251 0
M  V30 7661 H 711.418 3.70328 1.45264 0
M  V30 7662 H 708.157 6.53763 0.476875 0
M  V30 7663 H 707.677 5.67083 1.9539 0
M  V30 7664 H 709.356 6.22897 1.74952 0
M  V30 7665 N 709.488 -0.375779 1.53054 0
M  V30 7666 C 710.713 -1.14484 1.7294 0
M  V30 7667 C 711.138 -1.82572 0.452668 0
M  V30 7668 O 710.496 -1.71343 -0.592567 0
M  V30 7669 C 710.544 -2.15857 2.88857 0
M  V30 7670 O 709.648 -3.22725 2.56753 0
M  V30 7671 H 708.989 -0.332666 0.574656 0
M  V30 7672 H 711.519 -0.436025 1.999 0
M  V30 7673 H 711.529 -2.59631 3.14731 0
M  V30 7674 H 710.204 -1.65689 3.81471 0
M  V30 7675 H 708.781 -2.83996 2.41663 0
M  V30 7676 N 710.966 -1.44241 -0.634997 0
M  V30 7677 C 712.382 -1.28043 -0.952742 0
M  V30 7678 C 712.582 -0.21338 -2.00367 0
M  V30 7679 O 711.638 0.402042 -2.49279 0
M  V30 7680 C 712.951 -2.65076 -1.41968 0
M  V30 7681 C 714.499 -2.72755 -1.53537 0
M  V30 7682 C 714.974 -4.10249 -2.03616 0
M  V30 7683 N 716.465 -4.12406 -2.10892 0
M  V30 7684 C 717.2 -5.15641 -2.50803 0
M  V30 7685 N 716.696 -6.29239 -2.89879 0
M  V30 7686 N 718.489 -5.02995 -2.50903 0
M  V30 7687 H 710.64 -2.12315 0.060098 0
M  V30 7688 H 712.903 -0.947326 -0.0357325 0
M  V30 7689 H 712.609 -3.44213 -0.721804 0
M  V30 7690 H 712.483 -2.91704 -2.39141 0
M  V30 7691 H 714.87 -1.93939 -2.22422 0
M  V30 7692 H 714.951 -2.49872 -0.547496 0
M  V30 7693 H 714.595 -4.8954 -1.35327 0
M  V30 7694 H 714.525 -4.30507 -3.03268 0
M  V30 7695 H 717.016 -3.30417 -1.83393 0
M  V30 7696 H 717.329 -7.03827 -3.19135 0
M  V30 7697 H 715.674 -6.32683 -2.8764 0
M  V30 7698 H 718.865 -4.13306 -2.19763 0
M  V30 7699 H 719.038 -5.83574 -2.81683 0
M  V30 7700 N 712.444 0.87505 -1.31075 0
M  V30 7701 C 713.407 1.96333 -1.18263 0
M  V30 7702 C 714.407 1.60416 -0.111106 0
M  V30 7703 O 715.597 1.7044 -0.359987 0
M  V30 7704 C 712.729 3.31036 -0.81414 0
M  V30 7705 H 713.922 2.09125 -2.14958 0
M  V30 7706 H 711.475 1.06271 -1.14614 0
M  V30 7707 H 712.21 3.23944 0.151875 0
M  V30 7708 H 711.995 3.58476 -1.58862 0
M  V30 7709 H 713.485 4.10842 -0.748249 0
M  V30 7710 N 713.922 1.13953 1.08869 0
M  V30 7711 C 715.162 0.915128 1.8277 0
M  V30 7712 C 715.526 -0.548647 1.83994 0
M  V30 7713 O 716.727 -0.890817 2.5361 0
M  V30 7714 C 714.998 1.49382 3.24684 0
M  V30 7715 S 716.557 1.4103 4.15519 0
M  V30 7716 H 713.375 0.329716 0.629927 0
M  V30 7717 H 715.977 1.45213 1.30895 0
M  V30 7718 H 714.681 2.55241 3.21372 0
M  V30 7719 H 714.212 0.955008 3.81632 0
M  V30 7720 H 716.227 0.392617 4.94644 0
M  V30 7721 N 715.4 -1.26948 0.933913 0
M  V30 7722 C 716.347 -2.26635 0.436484 0
M  V30 7723 C 717.317 -1.58397 -0.499953 0
M  V30 7724 O 718.502 -1.86171 -0.417753 0
M  V30 7725 C 715.642 -3.43803 -0.298951 0
M  V30 7726 C 714.755 -4.26736 0.672316 0
M  V30 7727 C 713.89 -5.31134 -0.0835872 0
M  V30 7728 C 712.929 -6.05742 0.879979 0
M  V30 7729 N 712.066 -7.01926 0.156301 0
M  V30 7730 H 716.906 -2.68558 1.29154 0
M  V30 7731 H 714.443 -1.32052 0.648118 0
M  V30 7732 H 716.401 -4.10554 -0.741723 0
M  V30 7733 H 715.031 -3.02814 -1.1182 0
M  V30 7734 H 714.083 -3.59842 1.23361 0
M  V30 7735 H 715.395 -4.78502 1.40846 0
M  V30 7736 H 714.549 -6.03863 -0.585984 0
M  V30 7737 H 713.288 -4.80188 -0.852661 0
M  V30 7738 H 712.293 -5.31846 1.39357 0
M  V30 7739 H 713.518 -6.58777 1.64894 0
M  V30 7740 H 711.464 -6.53301 -0.594413 0
M  V30 7741 H 711.381 -7.51409 0.831906 0
M  V30 7742 H 712.649 -7.78821 -0.325239 0
M  V30 7743 N 716.879 -0.700114 -1.41195 0
M  V30 7744 C 717.827 -0.0263301 -2.32585 0
M  V30 7745 C 718.821 0.763683 -1.51209 0
M  V30 7746 O 720.027 0.668793 -1.67114 0
M  V30 7747 H 716.402 0.0102869 -0.75193 0
M  V30 7748 H 718.373 -0.814087 -2.8708 0
M  V30 7749 C 717.122 0.892793 -3.36042 0
M  V30 7750 H 716.445 0.294306 -3.98715 0
M  V30 7751 H 717.885 1.33247 -4.02518 0
M  V30 7752 C 716.344 2.01109 -2.7029 0
M  V30 7753 O 716.874 3.10035 -2.55423 0
M  V30 7754 N 715.08 1.79015 -2.28915 0
M  V30 7755 H 714.627 0.904275 -2.41207 0
M  V30 7756 H 714.585 2.54022 -1.85257 0
M  V30 7757 N 718.357 1.51182 -0.445186 0
M  V30 7758 C 719.582 2.07056 0.119445 0
M  V30 7759 C 720.007 1.30966 1.35016 0
M  V30 7760 O 719.365 0.349827 1.77893 0
M  V30 7761 C 719.413 3.58234 0.412428 0
M  V30 7762 O 718.517 3.84249 1.49754 0
M  V30 7763 H 717.858 0.663998 -0.00157797 0
M  V30 7764 H 720.388 1.94699 -0.628779 0
M  V30 7765 H 720.398 4.02617 0.660583 0
M  V30 7766 H 719.073 4.13038 -0.487049 0
M  V30 7767 H 717.65 3.51724 1.23873 0
M  V30 7768 N 719.835 0.176821 1.56605 0
M  V30 7769 C 721.063 -0.472828 2.01425 0
M  V30 7770 C 721.478 -1.56436 1.05703 0
M  V30 7771 O 720.835 -1.82405 0.058808 0
M  V30 7772 C 720.886 -1.04607 3.46034 0
M  V30 7773 O 720.607 0.00189608 4.381 0
M  V30 7774 C 722.108 -1.7734 4.06282 0
M  V30 7775 H 719.328 -0.120503 0.660091 0
M  V30 7776 H 721.872 0.280166 2.02572 0
M  V30 7777 H 720.027 -1.74953 3.45645 0
M  V30 7778 H 720.441 -0.422118 5.22799 0
M  V30 7779 H 721.915 -2.12703 5.09374 0
M  V30 7780 H 722.392 -2.67043 3.4869 0
M  V30 7781 H 722.998 -1.11623 4.10391 0
M  V30 7782 N 721.313 -1.57302 -0.09688 0
M  V30 7783 C 722.243 -2.0497 -1.11846 0
M  V30 7784 C 723.224 -0.938278 -1.41882 0
M  V30 7785 O 724.409 -1.20943 -1.51942 0
M  V30 7786 C 721.539 -2.47264 -2.43881 0
M  V30 7787 C 720.493 -3.62053 -2.28257 0
M  V30 7788 C 719.819 -3.90318 -3.65453 0
M  V30 7789 C 721.119 -4.93005 -1.72461 0
M  V30 7790 H 722.813 -2.90567 -0.721888 0
M  V30 7791 H 720.359 -1.39786 -0.345803 0
M  V30 7792 H 722.312 -2.7922 -3.15617 0
M  V30 7793 H 721.036 -1.58664 -2.8547 0
M  V30 7794 H 719.695 -3.30341 -1.58967 0
M  V30 7795 H 719.343 -2.98889 -4.04567 0
M  V30 7796 H 719.043 -4.67597 -3.55846 0
M  V30 7797 H 720.567 -4.24747 -4.3866 0
M  V30 7798 H 721.981 -5.23354 -2.34036 0
M  V30 7799 H 720.378 -5.74436 -1.73618 0
M  V30 7800 H 721.448 -4.80053 -0.683898 0
M  V30 7801 N 722.791 0.367657 -1.53252 0
M  V30 7802 C 723.754 1.43308 -1.78873 0
M  V30 7803 C 724.754 1.46671 -0.659115 0
M  V30 7804 O 725.944 1.47468 -0.927306 0
M  V30 7805 C 723.076 2.82442 -1.90892 0
M  V30 7806 H 724.269 1.21864 -2.74024 0
M  V30 7807 H 721.822 0.600668 -1.44297 0
M  V30 7808 H 722.557 3.09202 -0.978 0
M  V30 7809 H 722.342 2.81399 -2.73051 0
M  V30 7810 H 723.832 3.59601 -2.12314 0
M  V30 7811 N 724.269 1.44576 0.627338 0
M  V30 7812 C 725.217 1.52039 1.76031 0
M  V30 7813 C 726.211 0.391796 1.64807 0
M  V30 7814 O 727.417 0.5669 1.7084 0
M  V30 7815 H 723.792 0.477165 0.581221 0
M  V30 7816 H 725.763 2.47387 1.6686 0
M  V30 7817 C 724.512 1.48539 3.14375 0
M  V30 7818 H 723.835 2.34699 3.23661 0
M  V30 7819 H 725.275 1.57821 3.93534 0
M  V30 7820 C 723.734 0.20672 3.36265 0
M  V30 7821 O 724.264 -0.72154 3.95167 0
M  V30 7822 N 722.47 0.108654 2.90397 0
M  V30 7823 H 722.017 0.864884 2.42647 0
M  V30 7824 H 721.975 -0.746121 3.05418 0
M  V30 7825 N 725.747 -0.868086 1.31537 0
M  V30 7826 C 726.977 -1.65162 1.24118 0
M  V30 7827 C 727.385 -1.88187 -0.195558 0
M  V30 7828 O 726.728 -1.44154 -1.13866 0
M  V30 7829 C 726.79 -3.04119 1.91708 0
M  V30 7830 C 726.454 -3.04194 3.4105 0
M  V30 7831 C 727.451 -2.82016 4.36764 0
M  V30 7832 C 725.136 -3.25256 3.82772 0
M  V30 7833 C 727.13 -2.80881 5.72175 0
M  V30 7834 C 724.817 -3.23749 5.18295 0
M  V30 7835 C 725.815 -3.01589 6.12808 0
M  V30 7836 O 725.503 -2.9993 7.45853 0
M  V30 7837 H 725.235 -0.521597 0.430015 0
M  V30 7838 H 727.789 -1.09165 1.73989 0
M  V30 7839 H 726.019 -3.61849 1.36389 0
M  V30 7840 H 727.708 -3.64701 1.78179 0
M  V30 7841 H 728.474 -2.65525 4.05859 0
M  V30 7842 H 724.353 -3.41534 3.09638 0
M  V30 7843 H 727.897 -2.63503 6.45919 0
M  V30 7844 H 723.794 -3.39781 5.48834 0
M  V30 7845 H 724.562 -3.15979 7.55049 0
M  V30 7846 N 727.225 -1.14528 -1.08264 0
M  V30 7847 C 728.155 -0.856356 -2.1723 0
M  V30 7848 C 729.136 0.189251 -1.69044 0
M  V30 7849 O 730.321 0.0456119 -1.94146 0
M  V30 7850 C 727.451 -0.334662 -3.45684 0
M  V30 7851 C 726.405 -1.31588 -4.0727 0
M  V30 7852 C 725.731 -0.653428 -5.30692 0
M  V30 7853 C 727.031 -2.67866 -4.48381 0
M  V30 7854 H 728.725 -1.76755 -2.41657 0
M  V30 7855 H 726.271 -0.851287 -1.16143 0
M  V30 7856 H 728.224 -0.120128 -4.21229 0
M  V30 7857 H 726.948 0.611967 -3.20815 0
M  V30 7858 H 725.607 -1.51661 -3.33758 0
M  V30 7859 H 725.255 0.299054 -5.0211 0
M  V30 7860 H 724.955 -1.30817 -5.72853 0
M  V30 7861 H 726.479 -0.448453 -6.08951 0
M  V30 7862 H 727.893 -2.51692 -5.15096 0
M  V30 7863 H 726.29 -3.29627 -5.01464 0
M  V30 7864 H 727.36 -3.24632 -3.60198 0
M  V30 7865 N 728.703 1.26451 -0.940633 0
M  V30 7866 C 729.933 1.97581 -0.603766 0
M  V30 7867 C 730.341 1.70246 0.825395 0
M  V30 7868 O 729.684 0.967001 1.56188 0
M  V30 7869 C 729.746 3.51256 -0.765463 0
M  V30 7870 C 729.41 4.0224 -2.16915 0
M  V30 7871 C 730.407 4.1402 -3.14457 0
M  V30 7872 C 728.092 4.36263 -2.48958 0
M  V30 7873 C 730.086 4.59117 -4.42143 0
M  V30 7874 C 727.773 4.81048 -3.76877 0
M  V30 7875 C 728.771 4.92436 -4.73282 0
M  V30 7876 O 728.459 5.36234 -5.98923 0
M  V30 7877 H 728.191 0.636948 -0.226436 0
M  V30 7878 H 730.745 1.61941 -1.2635 0
M  V30 7879 H 728.975 3.86669 -0.0485956 0
M  V30 7880 H 730.664 4.03597 -0.431738 0
M  V30 7881 H 731.43 3.87981 -2.91026 0
M  V30 7882 H 727.309 4.26634 -1.74656 0
M  V30 7883 H 730.853 4.6792 -5.17394 0
M  V30 7884 H 726.75 5.06531 -4.00121 0
M  V30 7885 H 727.518 5.54456 -6.02097 0
M  V30 7886 N 730.181 0.707592 1.40822 0
M  V30 7887 C 731.427 0.252828 2.01823 0
M  V30 7888 C 731.782 -1.13876 1.55081 0
M  V30 7889 O 731.075 -1.75993 0.757439 0
M  V30 7890 C 731.269 0.262892 3.56432 0
M  V30 7891 C 731.098 1.65392 4.18181 0
M  V30 7892 C 729.868 2.25966 4.5196 0
M  V30 7893 C 732.066 2.60272 4.4358 0
M  V30 7894 N 730.048 3.57508 4.9906 0
M  V30 7895 C 731.419 3.76509 4.92586 0
M  V30 7896 C 733.474 2.58386 4.25607 0
M  V30 7897 C 732.177 4.91157 5.25507 0
M  V30 7898 C 734.203 3.72155 4.59625 0
M  V30 7899 C 733.565 4.87123 5.08813 0
M  V30 7900 H 729.664 0.138172 0.769696 0
M  V30 7901 H 732.248 0.927667 1.7118 0
M  V30 7902 H 730.419 -0.381479 3.86522 0
M  V30 7903 H 732.151 -0.20783 4.04166 0
M  V30 7904 H 728.906 1.78138 4.38821 0
M  V30 7905 H 729.33 4.24968 5.27002 0
M  V30 7906 H 733.972 1.7071 3.86805 0
M  V30 7907 H 731.69 5.79483 5.63227 0
M  V30 7908 H 735.276 3.71961 4.47366 0
M  V30 7909 H 734.156 5.73698 5.3464 0
M  V30 7910 N 731.66 -1.50943 0.453197 0
M  V30 7911 C 732.89 -2.06328 -0.105981 0
M  V30 7912 C 733.298 -1.31909 -1.35634 0
M  V30 7913 O 732.641 -0.376607 -1.79798 0
M  V30 7914 C 732.703 -3.5631 -0.477868 0
M  V30 7915 C 732.367 -4.52093 0.667925 0
M  V30 7916 C 733.364 -4.96421 1.54475 0
M  V30 7917 C 731.049 -4.95001 0.853168 0
M  V30 7918 C 733.043 -5.82346 2.59138 0
M  V30 7919 C 730.73 -5.80713 1.90305 0
M  V30 7920 C 731.728 -6.24284 2.77053 0
M  V30 7921 O 731.416 -7.08291 3.80236 0
M  V30 7922 H 731.148 -0.675986 -0.00427247 0
M  V30 7923 H 733.702 -1.95314 0.635738 0
M  V30 7924 H 731.932 -3.65163 -1.27252 0
M  V30 7925 H 733.621 -3.94138 -0.970039 0
M  V30 7926 H 734.387 -4.63953 1.41324 0
M  V30 7927 H 730.266 -4.60619 0.187482 0
M  V30 7928 H 733.81 -6.16276 3.2688 0
M  V30 7929 H 729.707 -6.12593 2.03469 0
M  V30 7930 H 730.475 -7.26504 3.77007 0
M  V30 7931 N 733.138 -0.185124 -1.56509 0
M  V30 7932 C 734.384 0.456934 -1.97585 0
M  V30 7933 C 734.717 1.61957 -1.07161 0
M  V30 7934 O 733.992 1.9412 -0.121546 0
M  V30 7935 C 734.275 0.926666 -3.47973 0
M  V30 7936 C 734.128 -0.237097 -4.49175 0
M  V30 7937 C 735.447 1.79561 -4.01803 0
M  V30 7938 H 732.566 0.164619 -0.71838 0
M  V30 7939 H 735.208 -0.274039 -1.88013 0
M  V30 7940 H 733.358 1.54954 -3.56261 0
M  V30 7941 H 735.03 -0.87454 -4.52934 0
M  V30 7942 H 733.273 -0.890446 -4.24563 0
M  V30 7943 H 733.944 0.133924 -5.51838 0
M  V30 7944 H 736.42 1.27039 -3.96232 0
M  V30 7945 H 735.296 2.09327 -5.07418 0
M  V30 7946 H 735.557 2.74629 -3.46455 0
M  V30 7947 N 734.616 1.57351 0.0885366 0
M  V30 7948 C 735.865 1.85604 0.789556 0
M  V30 7949 C 736.178 0.775352 1.79576 0
M  V30 7950 O 737.384 0.945206 2.54515 0
M  V30 7951 C 735.84 3.29175 1.45506 0
M  V30 7952 C 735.448 4.45331 0.488278 0
M  V30 7953 C 737.192 3.66646 2.13942 0
M  V30 7954 C 735.099 5.79937 1.15874 0
M  V30 7955 H 734.029 0.692346 0.298619 0
M  V30 7956 H 736.68 1.83451 0.0425821 0
M  V30 7957 H 735.062 3.25889 2.24972 0
M  V30 7958 H 736.236 4.59977 -0.275359 0
M  V30 7959 H 734.551 4.16301 -0.0907363 0
M  V30 7960 H 737.148 4.64498 2.6485 0
M  V30 7961 H 737.491 2.956 2.93132 0
M  V30 7962 H 738.024 3.71848 1.41328 0
M  V30 7963 H 734.763 6.54232 0.407508 0
M  V30 7964 H 734.283 5.69123 1.89364 0
M  V30 7965 H 735.962 6.24718 1.68336 0
M  V30 7966 N 736.094 -0.359525 1.53444 0
M  V30 7967 C 737.34 -1.10315 1.70172 0
M  V30 7968 C 737.673 -1.88788 0.455287 0
M  V30 7969 O 736.948 -1.86635 -0.547514 0
M  V30 7970 C 737.231 -2.05744 2.95536 0
M  V30 7971 C 737.084 -1.3084 4.3035 0
M  V30 7972 C 738.403 -3.05784 3.16518 0
M  V30 7973 H 735.522 -0.399662 0.619225 0
M  V30 7974 H 738.164 -0.383338 1.86093 0
M  V30 7975 H 736.314 -2.67125 2.82093 0
M  V30 7976 H 737.986 -0.721959 4.55615 0
M  V30 7977 H 736.229 -0.610283 4.29486 0
M  V30 7978 H 736.9 -2.00718 5.14214 0
M  V30 7979 H 739.376 -2.5451 3.29187 0
M  V30 7980 H 738.252 -3.69772 4.05659 0
M  V30 7981 H 738.513 -3.76289 2.32076 0
M  V30 7982 N 737.572 -1.44907 -0.619662 0
M  V30 7983 C 738.482 -1.55168 -1.75955 0
M  V30 7984 C 739.498 -0.43672 -1.6843 0
M  V30 7985 O 740.674 -0.695704 -1.89002 0
M  V30 7986 C 737.739 -1.50397 -3.12381 0
M  V30 7987 C 736.8 -2.72835 -3.31451 0
M  V30 7988 C 736.033 -2.68283 -4.61368 0
M  V30 7989 O 736.256 -1.74929 -5.42914 0
M  V30 7990 O 735.19 -3.59308 -4.82889 0
M  V30 7991 H 739.016 -2.51493 -1.7025 0
M  V30 7992 H 736.601 -1.27282 -0.782289 0
M  V30 7993 H 738.483 -1.50301 -3.93685 0
M  V30 7994 H 737.158 -0.572197 -3.18603 0
M  V30 7995 H 736.065 -2.78496 -2.49781 0
M  V30 7996 H 737.398 -3.65098 -3.30098 0
M  V30 7997 N 739.05 0.861098 -1.31996 0
M  V30 7998 C 740.29 1.62873 -1.23498 0
M  V30 7999 C 740.654 1.90938 0.201692 0
M  V30 8000 O 741.855 2.6565 0.410305 0
M  V30 8001 C 740.126 2.91759 -2.06426 0
M  V30 8002 S 741.685 3.82583 -2.14885 0
M  V30 8003 H 738.503 0.558726 -0.439712 0
M  V30 8004 H 741.105 1.02025 -1.66767 0
M  V30 8005 H 739.809 2.69077 -3.0988 0
M  V30 8006 H 739.34 3.57627 -1.6391 0
M  V30 8007 H 741.355 4.7904 -1.29364 0
M  V30 8008 N 740.528 1.15101 1.07655 0
M  V30 8009 C 741.438 0.858869 2.18313 0
M  V30 8010 C 742.454 -0.163641 1.73229 0
M  V30 8011 O 743.63 0.00969541 2.01398 0
M  V30 8012 C 740.695 0.34893 3.4494 0
M  V30 8013 C 739.756 1.43495 4.04608 0
M  V30 8014 C 738.989 0.949253 5.2519 0
M  V30 8015 O 739.212 -0.20636 5.70027 0
M  V30 8016 O 738.146 1.73161 5.76454 0
M  V30 8017 H 741.972 1.78386 2.45788 0
M  V30 8018 H 739.557 0.929876 1.16934 0
M  V30 8019 H 741.439 0.070851 4.2134 0
M  V30 8020 H 740.114 -0.548237 3.19024 0
M  V30 8021 H 739.021 1.7666 3.29761 0
M  V30 8022 H 740.354 2.30692 4.3479 0
M  V30 8023 N 742.006 -1.2595 0.947325 0
M  V30 8024 C 743.283 -1.88676 0.515824 0
M  V30 8025 C 743.663 -1.85547 -1.00675 0
M  V30 8026 O 743.011 -1.31399 -1.8694 0
M  V30 8027 C 743.221 -3.31734 1.08415 0
M  V30 8028 C 744.569 -4.08545 1.15654 0
M  V30 8029 O 745.593 -3.40826 1.03517 0
M  V30 8030 O 744.452 -5.29663 1.34608 0
M  V30 8031 H 741.546 -0.809537 0.169055 0
M  V30 8032 H 744.092 -1.34075 1.04029 0
M  V30 8033 H 742.864 -3.28404 2.1276 0
M  V30 8034 H 742.487 -3.93882 0.542499 0
M  V30 8035 N 743.484 -0.715051 -1.40445 0
M  V30 8036 C 744.416 -0.0227516 -2.29189 0
M  V30 8037 C 745.429 0.724313 -1.458 0
M  V30 8038 O 746.618 0.571781 -1.69094 0
M  V30 8039 C 743.718 0.992038 -3.24055 0
M  V30 8040 C 742.891 0.310613 -4.36296 0
M  V30 8041 C 741.95 1.23071 -5.11605 0
M  V30 8042 O 740.976 0.71571 -5.64682 0
M  V30 8043 N 742.178 2.56188 -5.2091 0
M  V30 8044 H 744.943 -0.78473 -2.89244 0
M  V30 8045 H 742.504 -0.562637 -1.51809 0
M  V30 8046 H 744.496 1.60973 -3.71308 0
M  V30 8047 H 743.066 1.65538 -2.65171 0
M  V30 8048 H 742.286 -0.487269 -3.91177 0
M  V30 8049 H 743.574 -0.162415 -5.08541 0
M  V30 8050 H 742.972 3.00527 -4.7927 0
M  V30 8051 H 741.529 3.13103 -5.71673 0
M  V30 8052 N 744.962 1.50701 -0.461195 0
M  V30 8053 C 746.239 1.94958 0.158296 0
M  V30 8054 C 746.619 1.40111 1.57899 0
M  V30 8055 O 745.967 0.597976 2.20537 0
M  V30 8056 C 746.177 3.48821 0.11172 0
M  V30 8057 C 747.525 4.23499 0.30552 0
M  V30 8058 O 748.549 3.557 0.188758 0
M  V30 8059 O 747.408 5.43823 0.540244 0
M  V30 8060 H 744.502 0.818674 0.117054 0
M  V30 8061 H 747.048 1.61508 -0.520888 0
M  V30 8062 H 745.82 3.81263 -0.880577 0
M  V30 8063 H 745.443 3.88781 0.832791 0
M  V30 8064 N 746.441 0.193421 1.56409 0
M  V30 8065 C 747.669 -0.451438 2.01915 0
M  V30 8066 C 748.084 -1.55306 1.07357 0
M  V30 8067 O 747.441 -1.82333 0.0781512 0
M  V30 8068 C 747.492 -1.00931 3.47124 0
M  V30 8069 O 747.213 0.0483623 4.38073 0
M  V30 8070 C 748.714 -1.73021 4.0814 0
M  V30 8071 H 745.934 -0.113495 0.661332 0
M  V30 8072 H 748.478 0.301636 2.02263 0
M  V30 8073 H 746.633 -1.71277 3.47481 0
M  V30 8074 H 747.047 -0.366644 5.23217 0
M  V30 8075 H 748.521 -2.07289 5.11601 0
M  V30 8076 H 748.998 -2.6333 3.51502 0
M  V30 8077 H 749.604 -1.07264 4.11551 0
M  V30 8078 N 747.919 -1.57396 -0.0801906 0
M  V30 8079 C 748.851 -1.9982 -1.12271 0
M  V30 8080 C 749.864 -0.902902 -1.35468 0
M  V30 8081 O 751.053 -1.18088 -1.33856 0
M  V30 8082 C 748.153 -2.31476 -2.47532 0
M  V30 8083 C 747.326 -3.62745 -2.44407 0
M  V30 8084 C 746.385 -3.82168 -3.6171 0
M  V30 8085 O 745.411 -4.53852 -3.43522 0
M  V30 8086 N 746.613 -3.2388 -4.81749 0
M  V30 8087 H 749.378 -2.89864 -0.761501 0
M  V30 8088 H 746.939 -1.5965 -0.268965 0
M  V30 8089 H 748.931 -2.4165 -3.24634 0
M  V30 8090 H 747.501 -1.47364 -2.75686 0
M  V30 8091 H 746.721 -3.63403 -1.52747 0
M  V30 8092 H 748.009 -4.48954 -2.39412 0
M  V30 8093 H 747.407 -2.6568 -4.9943 0
M  V30 8094 H 745.964 -3.39515 -5.56392 0
M  V30 8095 N 749.397 0.351382 -1.53633 0
M  V30 8096 C 750.329 1.45159 -1.77374 0
M  V30 8097 C 751.342 1.4905 -0.654826 0
M  V30 8098 O 752.531 1.52274 -0.931396 0
M  V30 8099 C 749.631 2.83858 -1.85143 0
M  V30 8100 C 748.804 3.03498 -3.14972 0
M  V30 8101 C 747.863 4.22393 -3.138 0
M  V30 8102 O 746.889 4.16885 -3.87551 0
M  V30 8103 N 748.091 5.30533 -2.35617 0
M  V30 8104 H 750.856 1.25167 -2.72311 0
M  V30 8105 H 748.417 0.54121 -1.52586 0
M  V30 8106 H 750.409 3.61557 -1.8182 0
M  V30 8107 H 748.979 2.9703 -0.974275 0
M  V30 8108 H 748.199 2.13336 -3.31484 0
M  V30 8109 H 749.487 3.13498 -4.00745 0
M  V30 8110 H 748.885 5.37875 -1.75235 0
M  V30 8111 H 747.442 6.06756 -2.38098 0
M  V30 8112 N 750.875 1.45233 0.611969 0
M  V30 8113 C 752.291 1.29542 0.932251 0
M  V30 8114 C 752.491 0.24523 2.00002 0
M  V30 8115 O 751.547 -0.362333 2.49887 0
M  V30 8116 C 752.86 2.67301 1.37733 0
M  V30 8117 C 754.408 2.75163 1.49178 0
M  V30 8118 C 754.883 4.13437 1.97064 0
M  V30 8119 N 756.374 4.15709 2.04304 0
M  V30 8120 C 757.109 5.19566 2.42568 0
M  V30 8121 N 756.605 6.33771 2.79832 0
M  V30 8122 N 758.398 5.06923 2.42869 0
M  V30 8123 H 750.549 2.12192 -0.0938679 0
M  V30 8124 H 752.812 0.947775 0.0206569 0
M  V30 8125 H 752.518 3.45318 0.666951 0
M  V30 8126 H 752.392 2.95472 2.3447 0
M  V30 8127 H 754.779 1.97453 2.19309 0
M  V30 8128 H 754.86 2.50712 0.507674 0
M  V30 8129 H 754.504 4.91631 1.27521 0
M  V30 8130 H 754.434 4.35277 2.9638 0
M  V30 8131 H 756.925 3.33293 1.78113 0
M  V30 8132 H 757.238 7.08815 3.07898 0
M  V30 8133 H 755.583 6.37179 2.77538 0
M  V30 8134 H 758.774 4.1675 2.1316 0
M  V30 8135 H 758.947 5.87981 2.72364 0
M  V30 8136 N 752.353 -0.854086 1.3245 0
M  V30 8137 C 753.63 -1.59188 1.1366 0
M  V30 8138 C 754.01 -2.08917 -0.302807 0
M  V30 8139 O 753.358 -1.8795 -1.29951 0
M  V30 8140 C 753.568 -2.73757 2.16467 0
M  V30 8141 C 754.916 -3.43323 2.49829 0
M  V30 8142 O 755.94 -2.83983 2.15017 0
M  V30 8143 O 754.799 -4.50409 3.09506 0
M  V30 8144 H 751.893 -0.701092 0.438633 0
M  V30 8145 H 754.439 -0.898165 1.43983 0
M  V30 8146 H 753.211 -2.3454 3.1322 0
M  V30 8147 H 752.834 -3.50804 1.87142 0
M  V30 8148 N 753.831 -1.1567 -1.07043 0
M  V30 8149 C 755.242 -0.942408 -1.61169 0
M  V30 8150 C 755.593 0.515537 -1.89306 0
M  V30 8151 O 754.718 1.38726 -1.66084 0
M  V30 8152 C 755.313 -1.70431 -2.92812 0
M  V30 8153 C 753.872 -1.53521 -3.43669 0
M  V30 8154 C 753.019 -1.7179 -2.17678 0
M  V30 8155 H 755.97 -1.3065 -0.9009 0
M  V30 8156 H 755.991 -1.17566 -3.61882 0
M  V30 8157 H 755.503 -2.76538 -2.72302 0
M  V30 8158 H 753.604 -0.498224 -3.69254 0
M  V30 8159 H 753.717 -2.31422 -4.19501 0
M  V30 8160 H 752.081 -1.14468 -2.27529 0
M  V30 8161 H 752.864 -2.79269 -1.99659 0
M  V30 8162 N 755.309 1.25446 -0.953992 0
M  V30 8163 C 756.256 2.25912 -0.472485 0
M  V30 8164 C 757.226 1.59173 0.47469 0
M  V30 8165 O 758.411 1.86812 0.388082 0
M  V30 8166 C 755.551 3.44235 0.244218 0
M  V30 8167 C 754.664 4.25613 -0.740121 0
M  V30 8168 C 753.799 5.312 -0.000922267 0
M  V30 8169 C 752.838 6.04265 -0.976236 0
M  V30 8170 N 751.975 7.01589 -0.267952 0
M  V30 8171 H 756.815 2.66469 -1.3341 0
M  V30 8172 H 754.352 1.31005 -0.669045 0
M  V30 8173 H 756.31 4.11682 0.676314 0
M  V30 8174 H 754.94 3.04554 1.06988 0
M  V30 8175 H 753.992 3.57834 -1.2907 0
M  V30 8176 H 755.304 4.762 -1.48441 0
M  V30 8177 H 754.458 6.04719 0.48984 0
M  V30 8178 H 753.197 4.81484 0.776159 0
M  V30 8179 H 752.202 5.29561 -1.478 0
M  V30 8180 H 753.427 6.5607 -1.75354 0
M  V30 8181 H 751.373 6.54164 0.490403 0
M  V30 8182 H 751.29 7.4999 -0.951344 0
M  V30 8183 H 752.558 7.7924 0.201294 0
M  V30 8184 N 756.787 0.722489 1.40064 0
M  V30 8185 C 758.015 0.274838 2.05066 0
M  V30 8186 C 758.43 -1.08586 1.54449 0
M  V30 8187 O 757.787 -1.68375 0.704003 0
M  V30 8188 C 757.838 0.253673 3.60609 0
M  V30 8189 O 757.559 1.56064 4.0936 0
M  V30 8190 C 759.06 -0.211684 4.42794 0
M  V30 8191 H 756.28 0.12226 0.659768 0
M  V30 8192 H 758.824 0.982632 1.79345 0
M  V30 8193 H 756.979 -0.405137 3.85276 0
M  V30 8194 H 757.393 1.46576 5.03603 0
M  V30 8195 H 758.867 -0.175341 5.51721 0
M  V30 8196 H 759.344 -1.25493 4.2089 0
M  V30 8197 H 759.95 0.4171 4.2325 0
M  V30 8198 N 758.265 -1.50454 0.469181 0
M  V30 8199 C 759.215 -2.25381 -0.344582 0
M  V30 8200 C 760.199 -1.28892 -0.963098 0
M  V30 8201 O 761.391 -1.53805 -0.875964 0
M  V30 8202 C 758.52 -3.12232 -1.4271 0
M  V30 8203 C 757.606 -4.16168 -0.816411 0
M  V30 8204 N 757.997 -5.05762 0.0621424 0
M  V30 8205 C 756.295 -4.32712 -1.08056 0
M  V30 8206 C 756.996 -5.80264 0.408519 0
M  V30 8207 N 755.972 -5.43171 -0.215827 0
M  V30 8208 H 759.774 -2.92016 0.332237 0
M  V30 8209 H 757.288 -1.59911 0.283209 0
M  V30 8210 H 759.285 -3.64514 -2.02324 0
M  V30 8211 H 757.945 -2.47145 -2.10593 0
M  V30 8212 H 758.956 -5.16105 0.430841 0
M  V30 8213 H 755.633 -3.78844 -1.75452 0
M  V30 8214 H 757.023 -6.62408 1.12539 0
M  V30 8215 N 759.743 -0.201713 -1.56304 0
M  V30 8216 C 760.653 0.728296 -2.23009 0
M  V30 8217 C 761.669 1.22945 -1.23128 0
M  V30 8218 O 762.845 1.27523 -1.55884 0
M  V30 8219 C 759.91 1.92792 -2.88153 0
M  V30 8220 C 758.971 1.47068 -4.03323 0
M  V30 8221 C 758.204 2.61312 -4.65351 0
M  V30 8222 O 758.427 3.7896 -4.26317 0
M  V30 8223 O 757.361 2.33646 -5.54701 0
M  V30 8224 H 761.187 0.190166 -3.03104 0
M  V30 8225 H 758.772 0.0278725 -1.49374 0
M  V30 8226 H 760.654 2.6289 -3.29343 0
M  V30 8227 H 759.329 2.45452 -2.11033 0
M  V30 8228 H 758.236 0.738299 -3.66742 0
M  V30 8229 H 759.569 0.990666 -4.82127 0
M  V30 8230 N 761.222 1.57436 0.0718424 0
M  V30 8231 C 762.155 1.98982 1.11721 0
M  V30 8232 C 763.133 0.866731 1.37574 0
M  V30 8233 O 764.317 1.12903 1.50948 0
M  V30 8234 C 761.444 2.32648 2.46155 0
M  V30 8235 C 760.49 3.54964 2.36437 0
M  V30 8236 S 761.323 5.05802 1.75854 0
M  V30 8237 C 762.479 5.42669 3.11867 0
M  V30 8238 H 762.712 2.87338 0.763154 0
M  V30 8239 H 760.245 1.51833 0.280372 0
M  V30 8240 H 762.203 2.52719 3.23486 0
M  V30 8241 H 760.864 1.44821 2.78722 0
M  V30 8242 H 760.057 3.76038 3.35577 0
M  V30 8243 H 759.659 3.34524 1.67242 0
M  V30 8244 H 761.951 5.40737 4.08178 0
M  V30 8245 H 762.894 6.43461 2.95573 0
M  V30 8246 H 763.302 4.70131 3.1247 0
M  V30 8247 N 762.7 -0.34323 1.53817 0
M  V30 8248 C 763.93 -1.10188 1.74763 0
M  V30 8249 C 764.338 -1.82829 0.486856 0
M  V30 8250 O 763.681 -1.75236 -0.551198 0
M  V30 8251 C 763.743 -2.16 2.87375 0
M  V30 8252 C 763.407 -1.62931 4.26969 0
M  V30 8253 C 764.404 -1.08147 5.08528 0
M  V30 8254 C 762.089 -1.67769 4.73454 0
M  V30 8255 C 764.083 -0.589039 6.34672 0
M  V30 8256 C 761.77 -1.18138 5.99572 0
M  V30 8257 C 762.768 -0.637979 6.80014 0
M  V30 8258 O 762.456 -0.149073 8.03762 0
M  V30 8259 H 762.188 -0.33445 0.587469 0
M  V30 8260 H 764.742 -0.401109 2.01445 0
M  V30 8261 H 762.972 -2.89637 2.56218 0
M  V30 8262 H 764.661 -2.77432 2.96287 0
M  V30 8263 H 765.427 -1.03732 4.73777 0
M  V30 8264 H 761.306 -2.09004 4.10899 0
M  V30 8265 H 764.85 -0.164233 6.97407 0
M  V30 8266 H 760.747 -1.22254 6.33817 0
M  V30 8267 H 761.515 -0.266332 8.18067 0
M  V30 8268 N 764.178 -1.45556 -0.604258 0
M  V30 8269 C 765.108 -1.57327 -1.72541 0
M  V30 8270 C 766.089 -0.424637 -1.64714 0
M  V30 8271 O 767.274 -0.648196 -1.83063 0
M  V30 8272 C 764.404 -1.54279 -3.11152 0
M  V30 8273 C 763.358 -2.67893 -3.33792 0
M  V30 8274 C 762.684 -2.499 -4.72709 0
M  V30 8275 C 763.984 -4.0988 -3.23722 0
M  V30 8276 H 765.678 -2.51175 -1.62947 0
M  V30 8277 H 763.224 -1.20884 -0.782504 0
M  V30 8278 H 765.177 -1.6111 -3.89386 0
M  V30 8279 H 763.901 -0.569627 -3.21594 0
M  V30 8280 H 762.56 -2.60495 -2.57949 0
M  V30 8281 H 762.208 -1.50715 -4.79889 0
M  V30 8282 H 761.908 -3.26091 -4.88813 0
M  V30 8283 H 763.432 -2.5859 -5.5314 0
M  V30 8284 H 764.846 -4.18503 -3.91826 0
M  V30 8285 H 763.243 -4.86487 -3.51355 0
M  V30 8286 H 764.313 -4.31553 -2.21111 0
M  V30 8287 N 765.656 0.84705 -1.32902 0
M  V30 8288 C 766.604 1.97765 -1.22441 0
M  V30 8289 C 767.598 1.68919 -0.127546 0
M  V30 8290 O 768.804 1.77633 -0.290973 0
M  V30 8291 H 765.179 0.649072 -0.379748 0
M  V30 8292 H 767.15 2.03713 -2.18044 0
M  V30 8293 C 765.899 3.33834 -0.972125 0
M  V30 8294 H 765.222 3.56564 -1.80837 0
M  V30 8295 H 766.662 4.13467 -0.939209 0
M  V30 8296 C 765.121 3.35328 0.325059 0
M  V30 8297 O 765.651 3.78887 1.33445 0
M  V30 8298 N 763.857 2.88488 0.349718 0
M  V30 8299 H 763.404 2.53234 -0.472236 0
M  V30 8300 H 763.362 2.8987 1.21748 0
M  V30 8301 N 767.134 1.16236 1.06428 0
M  V30 8302 C 768.38 0.944431 1.79467 0
M  V30 8303 C 768.713 -0.526558 1.86925 0
M  V30 8304 O 767.988 -1.39061 1.35986 0
M  V30 8305 C 768.271 1.57092 3.24028 0
M  V30 8306 C 768.124 3.11315 3.24658 0
M  V30 8307 C 769.443 1.26447 4.21544 0
M  V30 8308 H 766.562 0.344521 0.651517 0
M  V30 8309 H 769.204 1.43545 1.24478 0
M  V30 8310 H 767.354 1.15337 3.70985 0
M  V30 8311 H 769.026 3.62042 2.85873 0
M  V30 8312 H 767.269 3.44716 2.6335 0
M  V30 8313 H 767.94 3.50269 4.26633 0
M  V30 8314 H 770.416 1.62581 3.83023 0
M  V30 8315 H 769.292 1.72885 5.20963 0
M  V30 8316 H 769.553 0.183068 4.41721 0
M  V30 8317 N 768.612 -1.24939 0.960631 0
M  V30 8318 C 769.545 -2.24116 0.429804 0
M  V30 8319 C 770.523 -1.54972 -0.492188 0
M  V30 8320 O 771.707 -1.83642 -0.42519 0
M  V30 8321 C 768.834 -3.36558 -0.380312 0
M  V30 8322 C 767.88 -4.23757 0.482941 0
M  V30 8323 S 768.713 -4.9994 1.91885 0
M  V30 8324 C 769.869 -6.15846 1.11732 0
M  V30 8325 H 770.102 -2.68795 1.27029 0
M  V30 8326 H 767.635 -1.34108 0.765141 0
M  V30 8327 H 769.593 -4.01777 -0.841764 0
M  V30 8328 H 768.254 -2.90451 -1.19569 0
M  V30 8329 H 767.447 -5.03809 -0.138699 0
M  V30 8330 H 767.049 -3.63504 0.879839 0
M  V30 8331 H 769.341 -6.76495 0.368898 0
M  V30 8332 H 770.284 -6.82356 1.89198 0
M  V30 8333 H 770.692 -5.60805 0.644812 0
M  V30 8334 N 770.09 -0.729906 -1.39679 0
M  V30 8335 C 771.506 -0.404951 -1.54377 0
M  V30 8336 C 771.706 1.08476 -1.6981 0
M  V30 8337 O 770.762 1.87087 -1.69572 0
M  V30 8338 C 772.075 -1.18352 -2.76429 0
M  V30 8339 C 773.623 -1.17124 -2.9026 0
M  V30 8340 C 774.098 -1.93227 -4.15244 0
M  V30 8341 N 775.589 -1.90368 -4.22273 0
M  V30 8342 C 776.324 -2.46065 -5.17918 0
M  V30 8343 N 775.82 -3.10378 -6.19385 0
M  V30 8344 N 777.613 -2.36127 -5.10099 0
M  V30 8345 H 769.764 -1.69567 -1.27909 0
M  V30 8346 H 772.027 -0.717527 -0.619564 0
M  V30 8347 H 771.733 -2.23743 -2.71352 0
M  V30 8348 H 771.607 -0.784589 -3.6895 0
M  V30 8349 H 773.994 -0.125478 -2.94833 0
M  V30 8350 H 774.075 -1.60951 -1.98817 0
M  V30 8351 H 773.719 -2.97802 -4.11432 0
M  V30 8352 H 773.649 -1.4681 -5.05722 0
M  V30 8353 H 776.14 -1.4351 -3.4959 0
M  V30 8354 H 776.453 -3.50358 -6.88817 0
M  V30 8355 H 774.798 -3.14467 -6.19787 0
M  V30 8356 H 777.989 -1.85529 -4.29763 0
M  V30 8357 H 778.162 -2.79833 -5.84463 0
M  V30 8358 N 771.568 1.50203 -0.477153 0
M  V30 8359 C 772.984 1.59056 -0.131663 0
M  V30 8360 C 773.184 1.48473 1.36227 0
M  V30 8361 O 772.24 1.34635 2.13611 0
M  V30 8362 C 773.553 2.92741 -0.687254 0
M  V30 8363 C 775.101 3.0615 -0.651223 0
M  V30 8364 C 775.576 4.42419 -1.18446 0
M  V30 8365 N 777.067 4.48847 -1.14413 0
M  V30 8366 C 777.802 5.52689 -1.52717 0
M  V30 8367 N 777.298 6.63754 -1.98499 0
M  V30 8368 N 779.091 5.43267 -1.44282 0
M  V30 8369 H 771.242 1.55325 -1.44872 0
M  V30 8370 H 773.505 0.734395 -0.599473 0
M  V30 8371 H 773.211 3.0598 -1.73405 0
M  V30 8372 H 773.085 3.76961 -0.134215 0
M  V30 8373 H 775.472 2.92556 0.386677 0
M  V30 8374 H 775.553 2.23673 -1.24114 0
M  V30 8375 H 775.197 4.56763 -2.22103 0
M  V30 8376 H 775.127 5.23498 -0.570709 0
M  V30 8377 H 777.618 3.69152 -0.808416 0
M  V30 8378 H 777.931 7.39059 -2.25859 0
M  V30 8379 H 776.276 6.64858 -2.02456 0
M  V30 8380 H 779.467 4.55387 -1.08352 0
M  V30 8381 H 779.64 6.24074 -1.74459 0
M  V30 8382 N 773.046 0.209999 1.56195 0
M  V30 8383 C 774.293 -0.424813 1.97994 0
M  V30 8384 C 774.621 -1.60589 1.09733 0
M  V30 8385 O 773.876 -1.95201 0.139693 0
M  V30 8386 C 774.175 -0.91312 3.45539 0
M  V30 8387 C 773.841 0.156187 4.50629 0
M  V30 8388 C 772.503 0.449966 4.79092 0
M  V30 8389 C 774.855 0.879959 5.13718 0
M  V30 8390 C 772.183 1.47223 5.67928 0
M  V30 8391 C 774.535 1.89148 6.0366 0
M  V30 8392 C 773.199 2.1923 6.30472 0
M  V30 8393 H 772.469 -0.15545 0.724511 0
M  V30 8394 H 775.116 0.310095 1.88973 0
M  V30 8395 H 773.421 -1.72658 3.51705 0
M  V30 8396 H 775.118 -1.41395 3.75245 0
M  V30 8397 H 771.708 -0.0829466 4.2852 0
M  V30 8398 H 775.892 0.66623 4.91808 0
M  V30 8399 H 771.148 1.71105 5.86969 0
M  V30 8400 H 775.322 2.45745 6.516 0
M  V30 8401 H 772.949 2.98587 6.99107 0
M  V30 8402 N 774.524 -1.57472 -0.0634922 0
M  V30 8403 C 775.749 -1.92273 -0.77756 0
M  V30 8404 C 776.174 -0.807141 -1.69902 0
M  V30 8405 O 775.532 0.239523 -1.79711 0
M  V30 8406 C 775.58 -3.26054 -1.54017 0
M  V30 8407 O 774.684 -3.15873 -2.65138 0
M  V30 8408 H 774.025 -0.629389 -0.211579 0
M  V30 8409 H 776.555 -2.04579 -0.0292523 0
M  V30 8410 H 776.565 -3.60127 -1.91763 0
M  V30 8411 H 775.24 -4.06824 -0.864128 0
M  V30 8412 H 773.817 -2.93373 -2.30189 0
M  V30 8413 N 776.003 0.335068 -1.53997 0
M  V30 8414 C 776.935 1.4327 -1.78903 0
M  V30 8415 C 777.948 1.48347 -0.670598 0
M  V30 8416 O 779.137 1.51277 -0.947494 0
M  V30 8417 C 776.237 2.81878 -1.88144 0
M  V30 8418 C 775.41 3.00141 -3.18174 0
M  V30 8419 C 774.469 4.19041 -3.18263 0
M  V30 8420 O 773.495 4.12751 -3.9195 0
M  V30 8421 N 774.697 5.28004 -2.41231 0
M  V30 8422 H 777.462 1.22272 -2.73623 0
M  V30 8423 H 775.023 0.524996 -1.53152 0
M  V30 8424 H 777.015 3.59609 -1.85644 0
M  V30 8425 H 775.585 2.9598 -1.00572 0
M  V30 8426 H 774.805 2.09808 -3.33728 0
M  V30 8427 H 776.093 3.0923 -4.04047 0
M  V30 8428 H 775.491 5.35986 -1.8093 0
M  V30 8429 H 774.048 6.04196 -2.44521 0
M  V30 8430 N 777.481 1.45874 0.596531 0
M  V30 8431 C 778.444 1.54988 1.68853 0
M  V30 8432 C 779.444 0.428302 1.54991 0
M  V30 8433 O 780.634 0.692158 1.59859 0
M  V30 8434 C 777.766 1.457 3.08195 0
M  V30 8435 H 778.959 2.52294 1.62135 0
M  V30 8436 H 776.512 1.33479 0.813206 0
M  V30 8437 H 777.247 0.496204 3.20481 0
M  V30 8438 H 777.032 2.27061 3.19665 0
M  V30 8439 H 778.522 1.55133 3.87716 0
M  V30 8440 N 778.959 -0.83999 1.33349 0
M  V30 8441 C 779.889 -1.965 1.26135 0
M  V30 8442 C 780.87 -1.69505 0.142152 0
M  V30 8443 O 782.055 -1.91346 0.331743 0
M  V30 8444 C 779.185 -3.32632 0.99866 0
M  V30 8445 C 778.139 -3.74021 2.08068 0
M  V30 8446 C 777.465 -5.07947 1.67014 0
M  V30 8447 C 778.765 -3.87925 3.49731 0
M  V30 8448 H 780.459 -2.02793 2.20262 0
M  V30 8449 H 778.005 -0.974297 1.06035 0
M  V30 8450 H 779.958 -4.10903 0.934696 0
M  V30 8451 H 778.682 -3.26593 0.0217759 0
M  V30 8452 H 777.341 -2.98012 2.13505 0
M  V30 8453 H 776.989 -4.98378 0.680316 0
M  V30 8454 H 776.689 -5.36611 2.39422 0
M  V30 8455 H 778.213 -5.88695 1.62082 0
M  V30 8456 H 779.627 -4.5651 3.46802 0
M  V30 8457 H 778.024 -4.28023 4.20614 0
M  V30 8458 H 779.094 -2.90407 3.88319 0
M  V30 8459 N 780.437 -1.16799 -1.0581 0
M  V30 8460 C 781.367 -0.902241 -2.15364 0
M  V30 8461 C 782.348 0.153351 -1.69407 0
M  V30 8462 O 783.533 0.00442032 -1.94199 0
M  V30 8463 C 780.663 -0.407911 -3.44896 0
M  V30 8464 C 779.617 -1.40197 -4.04387 0
M  V30 8465 C 778.943 -0.765848 -5.29187 0
M  V30 8466 C 780.243 -2.77316 -4.42598 0
M  V30 8467 H 781.937 -1.81841 -2.37853 0
M  V30 8468 H 779.483 -0.875731 -1.14311 0
M  V30 8469 H 781.436 -0.20945 -4.20879 0
M  V30 8470 H 780.16 0.54378 -3.22041 0
M  V30 8471 H 778.819 -1.58707 -3.30466 0
M  V30 8472 H 778.467 0.192482 -5.02632 0
M  V30 8473 H 778.167 -1.42939 -5.69949 0
M  V30 8474 H 779.691 -0.577519 -6.07863 0
M  V30 8475 H 781.105 -2.62561 -5.09642 0
M  V30 8476 H 779.502 -3.4019 -4.94359 0
M  V30 8477 H 780.572 -3.32199 -3.53231 0
M  V30 8478 N 781.915 1.24427 -0.967243 0
M  V30 8479 C 782.862 2.25398 -0.496419 0
M  V30 8480 C 783.832 1.59667 0.457781 0
M  V30 8481 O 785.017 1.87213 0.368246 0
M  V30 8482 C 782.157 3.44474 0.207693 0
M  V30 8483 C 781.27 4.24804 -0.785221 0
M  V30 8484 C 780.405 5.31169 -0.0572631 0
M  V30 8485 C 779.444 6.03195 -1.04027 0
M  V30 8486 N 778.581 7.01265 -0.34235 0
M  V30 8487 H 783.421 2.65039 -1.36229 0
M  V30 8488 H 780.958 1.30288 -0.682902 0
M  V30 8489 H 782.916 4.12376 0.632612 0
M  V30 8490 H 781.546 3.05672 1.03752 0
M  V30 8491 H 780.598 3.56445 -1.32858 0
M  V30 8492 H 781.91 4.74599 -1.53483 0
M  V30 8493 H 781.064 6.05205 0.425674 0
M  V30 8494 H 779.803 4.8228 0.725047 0
M  V30 8495 H 778.808 5.27964 -1.53409 0
M  V30 8496 H 780.033 6.54173 -1.82302 0
M  V30 8497 H 777.979 6.54648 0.420993 0
M  V30 8498 H 777.896 7.48939 -1.03084 0
M  V30 8499 H 779.164 7.7941 0.118634 0
M  V30 8500 N 783.393 0.737304 1.3929 0
M  V30 8501 C 784.641 0.285691 2.00071 0
M  V30 8502 C 784.962 -1.13169 1.58801 0
M  V30 8503 O 784.232 -1.77104 0.837308 0
M  V30 8504 H 782.812 0.102638 0.739915 0
M  V30 8505 H 785.474 0.947775 1.70303 0
M  V30 8506 H 784.57 0.335906 3.10287 0
M  V30 8507 N 784.871 -1.49948 0.485112 0
M  V30 8508 C 786.148 -1.95186 -0.12726 0
M  V30 8509 C 786.528 -1.42605 -1.5565 0
M  V30 8510 O 785.876 -0.632986 -2.19558 0
M  V30 8511 C 786.086 -3.48955 -0.0562117 0
M  V30 8512 C 787.434 -4.23932 -0.238106 0
M  V30 8513 O 788.458 -3.55955 -0.132145 0
M  V30 8514 O 787.317 -5.44614 -0.453658 0
M  V30 8515 H 784.411 -0.820433 -0.104014 0
M  V30 8516 H 786.957 -1.60659 0.546517 0
M  V30 8517 H 785.729 -3.79814 0.941122 0
M  V30 8518 H 785.352 -3.90056 -0.770834 0
M  V30 8519 N 786.349 -0.21828 -1.56081 0
M  V30 8520 C 787.296 0.693189 -2.20144 0
M  V30 8521 C 788.266 1.19274 -1.15598 0
M  V30 8522 O 789.451 1.25243 -1.4394 0
M  V30 8523 C 786.591 1.89715 -2.88275 0
M  V30 8524 C 785.704 1.4368 -4.07407 0
M  V30 8525 C 784.839 2.59807 -4.63329 0
M  V30 8526 C 783.878 2.10492 -5.74769 0
M  V30 8527 N 783.015 3.1988 -6.24997 0
M  V30 8528 H 787.855 0.14016 -2.9767 0
M  V30 8529 H 785.392 0.0574292 -1.46988 0
M  V30 8530 H 787.35 2.60398 -3.25958 0
M  V30 8531 H 785.98 2.42311 -2.13273 0
M  V30 8532 H 785.032 0.625007 -3.7523 0
M  V30 8533 H 786.344 1.03517 -4.8794 0
M  V30 8534 H 785.498 3.38577 -5.03438 0
M  V30 8535 H 784.237 3.03256 -3.81951 0
M  V30 8536 H 783.242 1.30182 -5.34165 0
M  V30 8537 H 784.467 1.68045 -6.5798 0
M  V30 8538 H 782.413 3.62817 -5.46534 0
M  V30 8539 H 782.33 2.83958 -7.00645 0
M  V30 8540 H 783.598 3.98796 -6.69763 0
M  V30 8541 N 787.827 1.57504 0.0551401 0
M  V30 8542 C 789.052 1.92682 0.767352 0
M  V30 8543 C 789.477 0.81614 1.69472 0
M  V30 8544 O 788.835 -0.229989 1.79835 0
M  V30 8545 C 788.883 3.26866 1.52286 0
M  V30 8546 O 787.987 3.17274 2.63459 0
M  V30 8547 H 787.328 0.630502 0.208238 0
M  V30 8548 H 789.858 2.04592 0.0184026 0
M  V30 8549 H 789.868 3.61138 1.8985 0
M  V30 8550 H 788.543 4.07276 0.842541 0
M  V30 8551 H 787.12 2.94589 2.2863 0
M  V30 8552 N 789.305 -0.326896 1.54172 0
M  V30 8553 C 790.551 -1.06681 1.72473 0
M  V30 8554 C 790.884 -1.87779 0.49523 0
M  V30 8555 O 790.159 -1.87754 -0.507803 0
M  V30 8556 C 790.442 -1.99429 2.99834 0
M  V30 8557 C 790.295 -1.21682 4.33028 0
M  V30 8558 C 791.614 -2.99002 3.22933 0
M  V30 8559 H 788.733 -0.386438 0.627563 0
M  V30 8560 H 791.375 -0.343779 1.86864 0
M  V30 8561 H 789.525 -2.61081 2.87696 0
M  V30 8562 H 791.197 -0.625153 4.57044 0
M  V30 8563 H 789.44 -0.519045 4.30684 0
M  V30 8564 H 790.111 -1.89766 5.18356 0
M  V30 8565 H 792.587 -2.4747 3.34511 0
M  V30 8566 H 791.463 -3.61085 4.13412 0
M  V30 8567 H 791.724 -3.71281 2.40006 0
M  V30 8568 N 790.784 -1.46188 -0.588786 0
M  V30 8569 C 792.2 -1.31009 -0.911524 0
M  V30 8570 C 792.4 -0.277017 -1.99587 0
M  V30 8571 O 791.456 0.322532 -2.50432 0
M  V30 8572 C 792.769 -2.69459 -1.33463 0
M  V30 8573 C 794.317 -2.77502 -1.44782 0
M  V30 8574 C 794.792 -4.1652 -1.90461 0
M  V30 8575 N 796.283 -4.18907 -1.97665 0
M  V30 8576 C 797.018 -5.23359 -2.34271 0
M  V30 8577 N 796.514 -6.38143 -2.69714 0
M  V30 8578 N 798.307 -5.10723 -2.34774 0
M  V30 8579 H 790.458 -2.12016 0.127614 0
M  V30 8580 H 792.721 -0.947984 -0.00557599 0
M  V30 8581 H 792.427 -3.46336 -0.611929 0
M  V30 8582 H 792.301 -2.99165 -2.2974 0
M  V30 8583 H 794.688 -2.00917 -2.1614 0
M  V30 8584 H 794.769 -2.51488 -0.467724 0
M  V30 8585 H 794.413 -4.93597 -1.19684 0
M  V30 8586 H 794.343 -4.39937 -2.89418 0
M  V30 8587 H 796.834 -3.36084 -1.72789 0
M  V30 8588 H 797.147 -7.13624 -2.96582 0
M  V30 8589 H 795.492 -6.41514 -2.67366 0
M  V30 8590 H 798.683 -4.20088 -2.06503 0
M  V30 8591 H 798.856 -5.9224 -2.62975 0
M  V30 8592 N 792.262 0.832906 -1.33792 0
M  V30 8593 C 793.508 1.59089 -1.25772 0
M  V30 8594 C 793.841 1.93414 0.174601 0
M  V30 8595 O 793.116 1.59195 1.11746 0
M  V30 8596 C 793.399 2.89699 -2.13885 0
M  V30 8597 C 793.252 2.62017 -3.65605 0
M  V30 8598 C 794.571 3.91182 -2.01654 0
M  V30 8599 H 791.69 0.577232 -0.458227 0
M  V30 8600 H 794.332 0.960227 -1.6395 0
M  V30 8601 H 792.482 3.4352 -1.81456 0
M  V30 8602 H 794.154 2.14582 -4.08353 0
M  V30 8603 H 792.397 1.95621 -3.87189 0
M  V30 8604 H 793.068 3.55112 -4.2261 0
M  V30 8605 H 795.544 3.46684 -2.30107 0
M  V30 8606 H 794.42 4.80391 -2.65548 0
M  V30 8607 H 794.681 4.30861 -0.990536 0
M  V30 8608 N 793.74 1.17359 1.05189 0
M  V30 8609 C 794.673 0.833768 2.12423 0
M  V30 8610 C 795.651 -0.19945 1.61372 0
M  V30 8611 O 796.835 -0.080979 1.88326 0
M  V30 8612 C 793.962 0.243745 3.37822 0
M  V30 8613 C 793.008 1.25235 4.07699 0
M  V30 8614 S 793.841 2.80368 4.56239 0
M  V30 8615 C 794.997 2.22846 5.84885 0
M  V30 8616 H 795.23 1.74197 2.40921 0
M  V30 8617 H 792.763 0.998242 1.1779 0
M  V30 8618 H 794.721 -0.0901915 4.10401 0
M  V30 8619 H 793.382 -0.642396 3.07461 0
M  V30 8620 H 792.575 0.788168 4.97799 0
M  V30 8621 H 792.177 1.53194 3.41185 0
M  V30 8622 H 794.469 1.60403 6.58238 0
M  V30 8623 H 795.412 3.112 6.3605 0
M  V30 8624 H 795.82 1.66296 5.39449 0
M  V30 8625 N 795.218 -1.23913 0.973828 0
M  V30 8626 C 796.634 -1.44325 0.681363 0
M  V30 8627 C 796.834 -1.86832 -0.754728 0
M  V30 8628 O 795.89 -2.01024 -1.52793 0
M  V30 8629 C 797.203 -2.50017 1.67069 0
M  V30 8630 C 798.751 -2.63838 1.68399 0
M  V30 8631 C 799.226 -3.72734 2.66145 0
M  V30 8632 N 800.717 -3.80169 2.64624 0
M  V30 8633 C 801.452 -4.6397 3.36927 0
M  V30 8634 N 800.948 -5.51911 4.18767 0
M  V30 8635 N 802.741 -4.58106 3.25722 0
M  V30 8636 H 794.892 -0.946204 1.9016 0
M  V30 8637 H 797.155 -0.477374 0.819035 0
M  V30 8638 H 796.861 -2.25686 2.69738 0
M  V30 8639 H 796.735 -3.48287 1.4483 0
M  V30 8640 H 799.122 -2.87524 0.664379 0
M  V30 8641 H 799.203 -1.65906 1.94702 0
M  V30 8642 H 798.847 -3.49797 3.68245 0
M  V30 8643 H 798.777 -4.70193 2.3712 0
M  V30 8644 H 801.268 -3.17319 2.05224 0
M  V30 8645 H 801.581 -6.12828 4.70809 0
M  V30 8646 H 799.926 -5.51556 4.2286 0
M  V30 8647 H 803.117 -3.8842 2.61242 0
M  V30 8648 H 803.29 -5.23188 3.82333 0
M  V30 8649 N 796.696 -0.74468 -1.38897 0
M  V30 8650 C 797.921 -0.306119 -2.05128 0
M  V30 8651 C 798.346 1.0541 -1.55789 0
M  V30 8652 O 797.704 1.66993 -0.705909 0
M  V30 8653 C 797.752 -0.328195 -3.59103 0
M  V30 8654 O 796.856 0.680876 -4.06741 0
M  V30 8655 H 796.197 -0.137209 -0.649669 0
M  V30 8656 H 798.727 -1.01331 -1.77745 0
M  V30 8657 H 798.737 -0.175956 -4.0762 0
M  V30 8658 H 797.412 -1.32067 -3.94374 0
M  V30 8659 H 795.989 0.49398 -3.69614 0
M  V30 8660 N 798.174 1.49689 -0.493057 0
M  V30 8661 C 799.104 2.31826 0.279073 0
M  V30 8662 C 800.085 1.39733 0.969987 0
M  V30 8663 O 801.27 1.68646 0.962925 0
M  V30 8664 C 798.4 3.20046 1.34862 0
M  V30 8665 C 797.354 4.20869 0.77805 0
M  V30 8666 C 796.68 4.97971 1.94753 0
M  V30 8667 C 797.98 5.21813 -0.225543 0
M  V30 8668 H 799.674 2.96627 -0.406512 0
M  V30 8669 H 797.22 1.42647 -0.196943 0
M  V30 8670 H 799.173 3.76315 1.89645 0
M  V30 8671 H 797.897 2.53172 2.06328 0
M  V30 8672 H 796.556 3.65733 0.252036 0
M  V30 8673 H 796.204 4.27552 2.64969 0
M  V30 8674 H 795.904 5.66186 1.57187 0
M  V30 8675 H 797.428 5.57082 2.49984 0
M  V30 8676 H 798.842 5.72823 0.233864 0
M  V30 8677 H 797.239 5.97872 -0.516622 0
M  V30 8678 H 798.309 4.71209 -1.14412 0
M  V30 8679 N 799.652 0.226554 1.55963 0
M  V30 8680 C 800.582 -0.676079 2.23498 0
M  V30 8681 C 801.563 -1.19718 1.20837 0
M  V30 8682 O 802.748 -1.24027 1.49436 0
M  V30 8683 C 799.878 -1.88217 2.91876 0
M  V30 8684 C 798.832 -1.4947 4.01052 0
M  V30 8685 C 798.158 -2.77997 4.56751 0
M  V30 8686 C 799.458 -0.680951 5.17842 0
M  V30 8687 H 801.152 -0.112989 2.99187 0
M  V30 8688 H 798.698 -0.0529046 1.43903 0
M  V30 8689 H 800.651 -2.51911 3.37815 0
M  V30 8690 H 799.375 -2.47031 2.13643 0
M  V30 8691 H 798.034 -0.881199 3.55852 0
M  V30 8692 H 797.682 -3.34966 3.75243 0
M  V30 8693 H 797.382 -2.52803 5.30438 0
M  V30 8694 H 798.906 -3.42625 5.05411 0
M  V30 8695 H 800.32 -1.22171 5.60131 0
M  V30 8696 H 798.717 -0.525898 5.97791 0
M  V30 8697 H 799.787 0.311346 4.83899 0
M  V30 8698 N 801.13 -1.57531 -0.0467866 0
M  V30 8699 C 802.093 -2.04379 -1.03738 0
M  V30 8700 C 803.093 -0.944881 -1.3011 0
M  V30 8701 O 804.283 -1.20904 -1.25411 0
M  V30 8702 C 801.415 -2.44572 -2.37482 0
M  V30 8703 H 802.608 -2.93142 -0.633063 0
M  V30 8704 H 800.161 -1.53526 -0.293177 0
M  V30 8705 H 800.896 -1.58911 -2.82697 0
M  V30 8706 H 800.681 -3.24785 -2.19675 0
M  V30 8707 H 802.171 -2.81307 -3.08636 0
M  V30 8708 N 802.608 0.318715 -1.54344 0
M  V30 8709 C 803.571 1.37545 -1.83342 0
M  V30 8710 C 804.571 1.445 -0.705444 0
M  V30 8711 O 805.761 1.44443 -0.973752 0
M  V30 8712 C 802.893 2.76225 -1.99781 0
M  V30 8713 H 804.086 1.13084 -2.77762 0
M  V30 8714 H 801.639 0.554457 -1.46135 0
M  V30 8715 H 802.374 3.05934 -1.07588 0
M  V30 8716 H 802.159 2.7257 -2.81865 0
M  V30 8717 H 803.649 3.52664 -2.23647 0
M  V30 8718 N 804.086 1.46499 0.581025 0
M  V30 8719 C 805.018 1.53225 1.70455 0
M  V30 8720 C 806.031 0.420443 1.57277 0
M  V30 8721 O 807.22 0.688888 1.64671 0
M  V30 8722 C 804.32 1.39803 3.08721 0
M  V30 8723 C 803.493 2.65132 3.47884 0
M  V30 8724 C 802.552 2.45886 4.65217 0
M  V30 8725 O 801.578 3.19615 4.70993 0
M  V30 8726 N 802.78 1.5216 5.60203 0
M  V30 8727 H 805.545 2.50098 1.65139 0
M  V30 8728 H 803.106 1.42576 0.76705 0
M  V30 8729 H 805.098 1.24697 3.8501 0
M  V30 8730 H 803.668 0.51104 3.08394 0
M  V30 8731 H 802.888 2.95169 2.61284 0
M  V30 8732 H 804.176 3.48385 3.70817 0
M  V30 8733 H 803.574 0.913646 5.58273 0
M  V30 8734 H 802.131 1.43017 6.35916 0
M  V30 8735 N 805.565 -0.825799 1.34232 0
M  V30 8736 C 806.497 -1.94401 1.21413 0
M  V30 8737 C 807.51 -1.6218 0.141902 0
M  V30 8738 O 808.699 -1.74109 0.3935 0
M  V30 8739 C 805.799 -3.28257 0.842635 0
M  V30 8740 C 804.972 -3.88521 2.00924 0
M  V30 8741 C 804.031 -5.00752 1.61661 0
M  V30 8742 O 803.057 -5.19201 2.33279 0
M  V30 8743 N 804.259 -5.78084 0.52911 0
M  V30 8744 H 807.024 -2.05931 2.17744 0
M  V30 8745 H 804.585 -1.00223 1.27149 0
M  V30 8746 H 806.577 -4.00781 0.561822 0
M  V30 8747 H 805.147 -3.12585 -0.0304029 0
M  V30 8748 H 804.367 -3.08425 2.45495 0
M  V30 8749 H 805.655 -4.25516 2.78951 0
M  V30 8750 H 805.053 -5.65661 -0.0663322 0
M  V30 8751 H 803.61 -6.51072 0.308017 0
M  V30 8752 N 807.043 -1.17915 -1.04565 0
M  V30 8753 C 808.271 -0.99616 -1.8134 0
M  V30 8754 C 808.686 0.455509 -1.83223 0
M  V30 8755 O 808.043 1.31636 -1.26405 0
M  V30 8756 C 808.094 -1.53758 -3.27171 0
M  V30 8757 O 807.815 -2.93241 -3.25486 0
M  V30 8758 C 809.316 -1.40007 -4.2061 0
M  V30 8759 H 806.536 -0.352055 -0.571225 0
M  V30 8760 H 809.08 -1.56349 -1.31815 0
M  V30 8761 H 807.235 -1.01213 -3.73945 0
M  V30 8762 H 807.649 -3.18392 -4.16805 0
M  V30 8763 H 809.123 -1.82695 -5.2089 0
M  V30 8764 H 809.6 -0.348054 -4.37819 0
M  V30 8765 H 810.206 -1.916 -3.79697 0
M  V30 8766 N 808.521 1.23394 -0.980386 0
M  V30 8767 C 809.768 1.91809 -0.649261 0
M  V30 8768 C 810.096 1.765 0.817197 0
M  V30 8769 O 809.351 1.11979 1.60497 0
M  V30 8770 C 809.65 3.43542 -0.985588 0
M  V30 8771 C 809.316 3.79031 -2.44225 0
M  V30 8772 C 807.978 3.88429 -2.84035 0
M  V30 8773 C 810.33 3.96145 -3.38702 0
M  V30 8774 C 807.658 4.12368 -4.17336 0
M  V30 8775 C 810.01 4.21583 -4.71646 0
M  V30 8776 C 808.674 4.29203 -5.11215 0
M  V30 8777 H 807.944 0.70188 -0.237581 0
M  V30 8778 H 810.591 1.4642 -1.23424 0
M  V30 8779 H 808.896 3.90503 -0.318521 0
M  V30 8780 H 810.593 3.94708 -0.707596 0
M  V30 8781 H 807.183 3.7229 -2.12362 0
M  V30 8782 H 811.367 3.88274 -3.09123 0
M  V30 8783 H 806.623 4.1649 -4.47601 0
M  V30 8784 H 810.797 4.33769 -5.4481 0
M  V30 8785 H 808.424 4.47505 -6.14527 0
M  V30 8786 N 809.999 0.752036 1.385 0
M  V30 8787 C 811.245 0.307958 2.00448 0
M  V30 8788 C 811.578 -1.10702 1.59558 0
M  V30 8789 O 810.853 -1.75788 0.832391 0
M  V30 8790 C 811.136 0.429092 3.57534 0
M  V30 8791 C 810.989 1.88507 4.08393 0
M  V30 8792 C 812.308 -0.178442 4.39738 0
M  V30 8793 H 809.427 0.113373 0.728228 0
M  V30 8794 H 812.069 0.951389 1.64465 0
M  V30 8795 H 810.219 -0.118695 3.88319 0
M  V30 8796 H 811.891 2.49104 3.88259 0
M  V30 8797 H 810.134 2.40066 3.61318 0
M  V30 8798 H 810.805 1.92099 5.17496 0
M  V30 8799 H 813.281 0.28872 4.15097 0
M  V30 8800 H 812.157 -0.0634349 5.48863 0
M  V30 8801 H 812.418 -1.26655 4.23569 0
M  V30 8802 N 811.477 -1.49425 0.500989 0
M  V30 8803 C 812.754 -1.9531 -0.106551 0
M  V30 8804 C 813.134 -1.44248 -1.54129 0
M  V30 8805 O 812.482 -0.656237 -2.18874 0
M  V30 8806 C 812.692 -3.48995 -0.0191972 0
M  V30 8807 C 814.04 -4.24161 -0.193129 0
M  V30 8808 O 815.064 -3.56075 -0.0943843 0
M  V30 8809 O 813.923 -5.45064 -0.395869 0
M  V30 8810 H 811.017 -0.82149 -0.0953068 0
M  V30 8811 H 813.563 -1.6007 0.563526 0
M  V30 8812 H 812.335 -3.78794 0.981353 0
M  V30 8813 H 811.958 -3.90852 -0.72942 0
M  V30 8814 N 812.955 -0.234822 -1.55841 0
M  V30 8815 C 814.371 0.120295 -1.59146 0
M  V30 8816 C 814.571 1.57896 -1.25184 0
M  V30 8817 O 813.627 2.32138 -0.993393 0
M  V30 8818 C 814.94 -0.217984 -2.99909 0
M  V30 8819 C 816.488 -0.161298 -3.12584 0
M  V30 8820 C 816.963 -0.473438 -4.55546 0
M  V30 8821 N 818.454 -0.423494 -4.6126 0
M  V30 8822 C 819.189 -0.638334 -5.69836 0
M  V30 8823 N 818.685 -0.915659 -6.86722 0
M  V30 8824 N 820.478 -0.569864 -5.59204 0
M  V30 8825 H 812.629 -1.18622 -1.76189 0
M  V30 8826 H 814.892 -0.476426 -0.819587 0
M  V30 8827 H 814.598 -1.2309 -3.29457 0
M  V30 8828 H 814.472 0.460707 -3.74376 0
M  V30 8829 H 816.859 0.842274 -2.82825 0
M  V30 8830 H 816.94 -0.873661 -2.40418 0
M  V30 8831 H 816.584 -1.47451 -4.86025 0
M  V30 8832 H 816.514 0.260268 -5.25956 0
M  V30 8833 H 819.005 -0.217383 -3.77274 0
M  V30 8834 H 819.318 -1.06734 -7.65394 0
M  V30 8835 H 817.663 -0.953 -6.88435 0
M  V30 8836 H 820.854 -0.35334 -4.66765 0
M  V30 8837 H 821.027 -0.740698 -6.43753 0
M  V30 8838 N 814.433 1.57553 0.0384317 0
M  V30 8839 C 815.363 2.0898 1.04161 0
M  V30 8840 C 816.344 0.99029 1.38301 0
M  V30 8841 O 817.529 1.26499 1.47349 0
M  V30 8842 C 814.659 2.56145 2.34536 0
M  V30 8843 C 813.613 3.70275 2.14663 0
M  V30 8844 C 812.939 4.03612 3.50715 0
M  V30 8845 C 814.239 4.99067 1.54045 0
M  V30 8846 H 815.933 2.93046 0.613548 0
M  V30 8847 H 813.479 1.40973 0.293684 0
M  V30 8848 H 815.432 2.90741 3.05037 0
M  V30 8849 H 814.156 1.6915 2.79385 0
M  V30 8850 H 812.815 3.36013 1.46597 0
M  V30 8851 H 812.463 3.13698 3.93195 0
M  V30 8852 H 812.163 4.80482 3.38247 0
M  V30 8853 H 813.687 4.40735 4.22593 0
M  V30 8854 H 815.101 5.3168 2.14451 0
M  V30 8855 H 813.498 5.80484 1.52178 0
M  V30 8856 H 814.568 4.8226 0.505259 0
M  V30 8857 N 815.911 -0.310526 1.54511 0
M  V30 8858 C 817.157 -1.04846 1.73595 0
M  V30 8859 C 817.49 -1.87244 0.515118 0
M  V30 8860 O 816.765 -1.88282 -0.48786 0
M  V30 8861 C 817.048 -1.96237 3.01932 0
M  V30 8862 C 816.901 -1.17082 4.34295 0
M  V30 8863 C 818.22 -2.9556 3.26086 0
M  V30 8864 H 815.339 -0.37976 0.631626 0
M  V30 8865 H 817.981 -0.32394 1.87218 0
M  V30 8866 H 816.131 -2.58015 2.90449 0
M  V30 8867 H 817.803 -0.576643 4.57682 0
M  V30 8868 H 816.046 -0.473336 4.3121 0
M  V30 8869 H 816.717 -1.84257 5.20339 0
M  V30 8870 H 819.193 -2.43908 3.37117 0
M  V30 8871 H 818.069 -3.5668 4.17218 0
M  V30 8872 H 818.33 -3.68715 2.4393 0
M  V30 8873 N 817.389 -1.46805 -0.573248 0
M  V30 8874 C 818.339 -1.54497 -1.67674 0
M  V30 8875 C 819.323 -0.405117 -1.55716 0
M  V30 8876 O 820.515 -0.654097 -1.64471 0
M  V30 8877 C 817.644 -1.54717 -3.0646 0
M  V30 8878 C 816.73 -2.7403 -3.2368 0
M  V30 8879 N 817.121 -3.98871 -3.11023 0
M  V30 8880 C 815.419 -2.70453 -3.54642 0
M  V30 8881 C 816.12 -4.78689 -3.30502 0
M  V30 8882 N 815.096 -4.10727 -3.56096 0
M  V30 8883 H 818.898 -2.48809 -1.56433 0
M  V30 8884 H 816.412 -1.42576 -0.777554 0
M  V30 8885 H 818.409 -1.58316 -3.8567 0
M  V30 8886 H 817.069 -0.614886 -3.18825 0
M  V30 8887 H 818.08 -4.29976 -2.88688 0
M  V30 8888 H 814.757 -1.86291 -3.73633 0
M  V30 8889 H 816.147 -5.87615 -3.2582 0
M  V30 8890 N 818.867 0.818669 -1.34668 0
M  V30 8891 C 819.797 1.94468 -1.29245 0
M  V30 8892 C 820.778 1.69257 -0.169101 0
M  V30 8893 O 821.963 1.90794 -0.362143 0
M  V30 8894 C 819.093 3.31001 -1.05145 0
M  V30 8895 C 818.047 3.70663 -2.13992 0
M  V30 8896 C 817.373 5.05226 -1.75074 0
M  V30 8897 C 818.673 3.82312 -3.55858 0
M  V30 8898 H 820.367 1.99263 -2.2346 0
M  V30 8899 H 817.913 0.957304 -1.07572 0
M  V30 8900 H 819.866 4.09364 -0.999949 0
M  V30 8901 H 818.59 3.26517 -0.0737312 0
M  V30 8902 H 817.249 2.94578 -2.18219 0
M  V30 8903 H 816.897 4.97233 -0.759518 0
M  V30 8904 H 816.597 5.32734 -2.47928 0
M  V30 8905 H 818.121 5.86042 -1.71427 0
M  V30 8906 H 819.535 4.50935 -3.5402 0
M  V30 8907 H 817.932 4.21278 -4.2737 0
M  V30 8908 H 819.002 2.84193 -3.9289 0
M  V30 8909 N 820.346 1.18468 1.03938 0
M  V30 8910 C 821.279 0.856251 2.11527 0
M  V30 8911 C 822.257 -0.182323 1.61575 0
M  V30 8912 O 823.441 -0.061 1.88401 0
M  V30 8913 C 820.568 0.279562 3.37544 0
M  V30 8914 C 819.614 1.29552 4.06348 0
M  V30 8915 S 820.447 2.85191 4.5324 0
M  V30 8916 C 821.603 2.29037 5.82489 0
M  V30 8917 H 821.836 1.76742 2.39059 0
M  V30 8918 H 819.369 1.01068 1.16725 0
M  V30 8919 H 821.327 -0.0466579 4.10473 0
M  V30 8920 H 819.988 -0.60975 3.08125 0
M  V30 8921 H 819.181 0.840922 4.96935 0
M  V30 8922 H 818.783 1.56804 3.39541 0
M  V30 8923 H 821.075 1.67376 6.565 0
M  V30 8924 H 822.018 3.17929 6.32714 0
M  V30 8925 H 822.426 1.72009 5.37655 0
M  V30 8926 N 821.824 -1.22873 0.986916 0
M  V30 8927 C 822.771 -2.2458 0.532215 0
M  V30 8928 C 823.741 -1.60375 -0.432322 0
M  V30 8929 O 824.926 -1.87775 -0.338416 0
M  V30 8930 C 822.066 -3.44761 -0.152864 0
M  V30 8931 C 821.179 -4.23501 0.852704 0
M  V30 8932 C 820.314 -5.31011 0.14176 0
M  V30 8933 C 819.353 -6.01464 1.1361 0
M  V30 8934 N 818.49 -7.00631 0.453871 0
M  V30 8935 H 823.33 -2.62838 1.40428 0
M  V30 8936 H 820.867 -1.29185 0.703543 0
M  V30 8937 H 822.825 -4.1333 -0.566926 0
M  V30 8938 H 821.455 -3.07284 -0.988756 0
M  V30 8939 H 820.507 -3.54286 1.38512 0
M  V30 8940 H 821.819 -4.72097 1.61014 0
M  V30 8941 H 820.973 -6.05805 -0.329337 0
M  V30 8942 H 819.712 -4.83373 -0.648229 0
M  V30 8943 H 818.717 -5.25456 1.61789 0
M  V30 8944 H 819.942 -6.5119 1.92686 0
M  V30 8945 H 817.888 -6.55235 -0.316791 0
M  V30 8946 H 817.805 -7.47204 1.14986 0
M  V30 8947 H 819.073 -7.795 0.00537823 0
M  V30 8948 N 823.302 -0.75937 -1.38099 0
M  V30 8949 C 824.265 -0.14372 -2.28749 0
M  V30 8950 C 825.265 0.641338 -1.47457 0
M  V30 8951 O 826.455 0.466751 -1.67831 0
M  V30 8952 C 823.587 0.804545 -3.3127 0
M  V30 8953 H 824.78 -0.942663 -2.847 0
M  V30 8954 H 822.333 -0.526757 -1.47156 0
M  V30 8955 H 823.068 1.62895 -2.80421 0
M  V30 8956 H 822.853 0.243939 -3.9134 0
M  V30 8957 H 824.343 1.23111 -3.99041 0
M  V30 8958 N 824.78 1.49157 -0.508906 0
M  V30 8959 C 826.026 2.02773 0.0328469 0
M  V30 8960 C 826.359 1.38714 1.35912 0
M  V30 8961 O 825.634 0.525536 1.87266 0
M  V30 8962 C 825.917 3.59664 0.177088 0
M  V30 8963 C 825.77 4.34239 -1.17287 0
M  V30 8964 C 827.089 4.30505 0.913977 0
M  V30 8965 H 824.208 0.736926 0.0104631 0
M  V30 8966 H 826.85 1.781 -0.661851 0
M  V30 8967 H 825 3.80818 0.768774 0
M  V30 8968 H 826.672 4.24561 -1.80404 0
M  V30 8969 H 824.915 3.96486 -1.76016 0
M  V30 8970 H 825.586 5.42397 -1.02516 0
M  V30 8971 H 828.062 4.14054 0.412084 0
M  V30 8972 H 826.938 5.40012 0.983759 0
M  V30 8973 H 827.199 3.96302 1.95951 0
M  V30 8974 N 826.258 0.243083 1.55714 0
M  V30 8975 C 827.19 -0.690766 2.18543 0
M  V30 8976 C 828.203 -1.14163 1.16064 0
M  V30 8977 O 829.392 -1.06906 1.42946 0
M  V30 8978 C 826.492 -1.95016 2.77168 0
M  V30 8979 C 825.665 -1.65137 4.05029 0
M  V30 8980 C 824.724 -2.75998 4.48009 0
M  V30 8981 O 823.75 -2.43547 5.14464 0
M  V30 8982 N 824.952 -4.05414 4.15476 0
M  V30 8983 H 827.717 -0.153203 2.99308 0
M  V30 8984 H 825.278 0.0628968 1.61778 0
M  V30 8985 H 827.27 -2.68414 3.0288 0
M  V30 8986 H 825.84 -2.39762 2.00582 0
M  V30 8987 H 825.06 -0.752768 3.86946 0
M  V30 8988 H 826.348 -1.42633 4.88399 0
M  V30 8989 H 825.746 -4.34613 3.62116 0
M  V30 8990 H 824.303 -4.75288 4.46032 0
M  V30 8991 N 827.736 -1.57571 -0.0300757 0
M  V30 8992 C 829.152 -1.54869 -0.385703 0
M  V30 8993 C 829.352 -0.969068 -1.76667 0
M  V30 8994 O 828.408 -0.589676 -2.45518 0
M  V30 8995 C 829.721 -2.99313 -0.288482 0
M  V30 8996 C 831.269 -3.10857 -0.365638 0
M  V30 8997 C 831.744 -4.5703 -0.297878 0
M  V30 8998 N 833.235 -4.61825 -0.356703 0
M  V30 8999 C 833.97 -5.72466 -0.327146 0
M  V30 9000 N 833.466 -6.92349 -0.249941 0
M  V30 9001 N 835.259 -5.60836 -0.376801 0
M  V30 9002 H 827.41 -1.936 0.87367 0
M  V30 9003 H 829.673 -0.887924 0.332106 0
M  V30 9004 H 829.379 -3.45443 0.66047 0
M  V30 9005 H 829.253 -3.61332 -1.08253 0
M  V30 9006 H 831.64 -2.64676 -1.30502 0
M  V30 9007 H 831.721 -2.51671 0.457744 0
M  V30 9008 H 831.365 -5.03879 0.637835 0
M  V30 9009 H 831.295 -5.14127 -1.13935 0
M  V30 9010 H 833.786 -3.75571 -0.418926 0
M  V30 9011 H 834.099 -7.7245 -0.23246 0
M  V30 9012 H 832.444 -6.94664 -0.216004 0
M  V30 9013 H 835.635 -4.66073 -0.435101 0
M  V30 9014 H 835.808 -6.47052 -0.350298 0
M  V30 9015 N 829.214 0.302327 -1.54673 0
M  V30 9016 C 830.124 1.39542 -1.88587 0
M  V30 9017 C 831.14 1.55543 -0.779895 0
M  V30 9018 O 832.316 1.70233 -1.07623 0
M  V30 9019 C 829.381 2.7394 -2.12504 0
M  V30 9020 C 828.442 2.66935 -3.3622 0
M  V30 9021 C 827.675 3.94923 -3.58987 0
M  V30 9022 O 827.898 4.94218 -2.84789 0
M  V30 9023 O 826.832 3.96896 -4.52501 0
M  V30 9024 H 830.658 1.13784 -2.81579 0
M  V30 9025 H 828.243 0.49827 -1.40846 0
M  V30 9026 H 830.125 3.5346 -2.29443 0
M  V30 9027 H 828.8 2.99544 -1.22698 0
M  V30 9028 H 827.707 1.85892 -3.24646 0
M  V30 9029 H 829.04 2.46283 -4.26152 0
M  V30 9030 N 830.692 1.47107 0.565454 0
M  V30 9031 C 831.917 1.57153 1.35343 0
M  V30 9032 C 832.342 0.219247 1.86818 0
M  V30 9033 O 831.7 -0.803539 1.62521 0
M  V30 9034 C 831.748 2.59387 2.50501 0
M  V30 9035 O 830.852 2.14086 3.52478 0
M  V30 9036 H 830.193 0.528209 0.402357 0
M  V30 9037 H 832.723 1.92821 0.684189 0
M  V30 9038 H 832.733 2.79546 2.97184 0
M  V30 9039 H 831.408 3.57579 2.12391 0
M  V30 9040 H 829.985 2.03991 3.12157 0
M  V30 9041 N 832.17 -0.811516 1.35101 0
M  V30 9042 C 833.418 -1.56525 1.27845 0
M  V30 9043 C 833.739 -1.94435 -0.14829 0
M  V30 9044 O 833.009 -1.63203 -1.08359 0
M  V30 9045 H 831.589 -0.580433 0.47022 0
M  V30 9046 H 834.251 -0.968277 1.69146 0
M  V30 9047 H 833.347 -2.48291 1.89097 0
M  V30 9048 N 833.648 -1.19017 -1.03309 0
M  V30 9049 C 834.596 -0.920627 -2.13605 0
M  V30 9050 C 835.59 0.121969 -1.6896 0
M  V30 9051 O 836.796 -0.0268854 -1.7998 0
M  V30 9052 H 833.171 -0.280284 -0.697814 0
M  V30 9053 H 835.142 -1.85755 -2.33533 0
M  V30 9054 C 833.891 -0.471198 -3.44492 0
M  V30 9055 H 833.214 -1.26499 -3.7926 0
M  V30 9056 H 834.654 -0.321663 -4.22778 0
M  V30 9057 C 833.113 0.81411 -3.26916 0
M  V30 9058 O 833.643 1.87654 -3.55175 0
M  V30 9059 N 831.849 0.769695 -2.80221 0
M  V30 9060 H 831.396 -0.0951278 -2.57424 0
M  V30 9061 H 831.354 1.63008 -2.68842 0
M  V30 9062 N 835.127 1.22348 -0.993418 0
M  V30 9063 C 836.543 1.43222 -0.704238 0
M  V30 9064 C 836.743 1.88009 0.724909 0
M  V30 9065 O 835.799 2.03429 1.49575 0
M  V30 9066 C 837.112 2.47328 -1.71025 0
M  V30 9067 C 838.66 2.61126 -1.72576 0
M  V30 9068 C 839.135 3.68453 -2.72041 0
M  V30 9069 N 840.626 3.75911 -2.70639 0
M  V30 9070 C 841.361 4.58551 -3.44266 0
M  V30 9071 N 840.857 5.45179 -4.27495 0
M  V30 9072 N 842.65 4.52866 -3.32969 0
M  V30 9073 H 834.801 0.915832 -1.91641 0
M  V30 9074 H 837.064 0.464283 -0.826526 0
M  V30 9075 H 836.77 2.21366 -2.73295 0
M  V30 9076 H 836.644 3.45939 -1.50353 0
M  V30 9077 H 839.031 2.86431 -0.710037 0
M  V30 9078 H 839.112 1.62787 -1.97317 0
M  V30 9079 H 838.756 3.43895 -3.73763 0
M  V30 9080 H 838.686 4.66362 -2.4457 0
M  V30 9081 H 841.177 3.14014 -2.10247 0
M  V30 9082 H 841.49 6.0526 -4.80499 0
M  V30 9083 H 839.835 5.44759 -4.31582 0
M  V30 9084 H 843.026 3.84215 -2.67389 0
M  V30 9085 H 843.199 5.17039 -3.90608 0
M  V30 9086 N 836.605 0.766683 1.37694 0
M  V30 9087 C 837.552 0.147725 2.30327 0
M  V30 9088 C 838.522 -0.695366 1.50844 0
M  V30 9089 O 839.707 -0.64878 1.79431 0
M  V30 9090 C 836.847 -0.72935 3.37305 0
M  V30 9091 C 835.96 0.129795 4.31805 0
M  V30 9092 C 835.095 -0.751511 5.25857 0
M  V30 9093 C 834.134 0.110475 6.12 0
M  V30 9094 N 833.271 -0.728522 6.9831 0
M  V30 9095 H 838.111 0.943204 2.82679 0
M  V30 9096 H 835.648 0.476736 1.3916 0
M  V30 9097 H 837.606 -1.25263 3.97951 0
M  V30 9098 H 836.236 -1.49048 2.86329 0
M  V30 9099 H 835.288 0.770829 3.72508 0
M  V30 9100 H 836.6 0.794923 4.92425 0
M  V30 9101 H 835.754 -1.34146 5.91684 0
M  V30 9102 H 834.493 -1.45034 4.65636 0
M  V30 9103 H 833.498 0.712999 5.45157 0
M  V30 9104 H 834.723 0.806557 6.74293 0
M  V30 9105 H 832.669 -1.41206 6.40622 0
M  V30 9106 H 832.586 -0.12058 7.55904 0
M  V30 9107 H 833.854 -1.30303 7.68532 0
M  V30 9108 N 838.083 -1.48885 0.516809 0
M  V30 9109 C 839.03 -2.29408 -0.253125 0
M  V30 9110 C 840 -1.36533 -0.945935 0
M  V30 9111 O 841.185 -1.65495 -0.949527 0
M  V30 9112 C 838.325 -3.19592 -1.30211 0
M  V30 9113 C 837.438 -4.27535 -0.61948 0
M  V30 9114 C 836.573 -5.04916 -1.65026 0
M  V30 9115 C 835.612 -6.04677 -0.950368 0
M  V30 9116 N 834.749 -6.75164 -1.92608 0
M  V30 9117 H 839.589 -2.94738 0.439744 0
M  V30 9118 H 837.126 -1.45311 0.2287 0
M  V30 9119 H 839.084 -3.70267 -1.92245 0
M  V30 9120 H 837.714 -2.56213 -1.96353 0
M  V30 9121 H 836.766 -3.80228 0.114505 0
M  V30 9122 H 838.078 -4.98752 -0.0693016 0
M  V30 9123 H 837.232 -5.59539 -2.34523 0
M  V30 9124 H 835.971 -4.33508 -2.23432 0
M  V30 9125 H 834.976 -5.4927 -0.241252 0
M  V30 9126 H 836.201 -6.78077 -0.372599 0
M  V30 9127 H 834.147 -6.06517 -2.49946 0
M  V30 9128 H 834.064 -7.4241 -1.42699 0
M  V30 9129 H 835.332 -7.34384 -2.61345 0
M  V30 9130 N 839.561 -0.251338 -1.55583 0
M  V30 9131 C 840.508 0.646337 -2.21565 0
M  V30 9132 C 841.478 1.16796 -1.18102 0
M  V30 9133 O 842.663 1.22162 -1.46564 0
M  V30 9134 C 839.803 1.83557 -2.92234 0
M  V30 9135 C 838.916 1.35006 -4.10363 0
M  V30 9136 C 838.051 2.4992 -4.68736 0
M  V30 9137 C 837.09 1.98253 -5.79105 0
M  V30 9138 N 836.227 3.06551 -6.31642 0
M  V30 9139 H 841.067 0.0769881 -2.97901 0
M  V30 9140 H 838.604 0.026238 -1.47077 0
M  V30 9141 H 840.562 2.53425 -3.31408 0
M  V30 9142 H 839.192 2.37733 -2.18364 0
M  V30 9143 H 838.244 0.545274 -3.76472 0
M  V30 9144 H 839.556 0.931435 -4.90026 0
M  V30 9145 H 838.71 3.27823 -5.10507 0
M  V30 9146 H 837.449 2.95086 -3.88298 0
M  V30 9147 H 836.454 1.18822 -5.36807 0
M  V30 9148 H 837.679 1.54051 -6.61396 0
M  V30 9149 H 835.625 3.51143 -5.54107 0
M  V30 9150 H 835.542 2.69033 -7.06511 0
M  V30 9151 H 836.81 3.84499 -6.78071 0
M  V30 9152 N 841.039 1.57585 0.0217189 0
M  V30 9153 C 841.987 2.08134 1.03842 0
M  V30 9154 C 842.981 0.996662 1.36978 0
M  V30 9155 O 844.187 1.18149 1.35797 0
M  V30 9156 H 840.562 0.664298 0.352438 0
M  V30 9157 H 842.533 2.92583 0.58634 0
M  V30 9158 C 841.282 2.58218 2.32849 0
M  V30 9159 H 840.605 3.41302 2.08214 0
M  V30 9160 H 842.045 2.97289 3.02316 0
M  V30 9161 C 840.504 1.48664 3.02325 0
M  V30 9162 O 841.034 0.857075 3.9245 0
M  V30 9163 N 839.24 1.21938 2.63779 0
M  V30 9164 H 838.787 1.73319 1.90574 0
M  V30 9165 H 838.745 0.488523 3.10581 0
M  V30 9166 N 842.517 -0.29412 1.54831 0
M  V30 9167 C 843.427 -1.3854 1.89325 0
M  V30 9168 C 844.443 -1.55127 0.788133 0
M  V30 9169 O 845.619 -1.6966 1.08524 0
M  V30 9170 C 842.684 -2.72809 2.13954 0
M  V30 9171 C 841.745 -2.65148 3.37631 0
M  V30 9172 C 840.978 -3.93014 3.61076 0
M  V30 9173 O 841.201 -4.927 2.87406 0
M  V30 9174 O 840.135 -3.94491 4.54599 0
M  V30 9175 H 843.961 -1.12289 2.82179 0
M  V30 9176 H 841.546 -0.490793 1.41108 0
M  V30 9177 H 843.428 -3.52238 2.31315 0
M  V30 9178 H 842.103 -2.9889 1.24285 0
M  V30 9179 H 841.01 -1.84168 3.25627 0
M  V30 9180 H 842.343 -2.4402 4.27452 0
M  V30 9181 N 843.995 -1.47404 -0.557645 0
M  V30 9182 C 845.411 -1.32913 -0.88353 0
M  V30 9183 C 845.611 -0.31929 -1.98954 0
M  V30 9184 O 844.667 0.26934 -2.51059 0
M  V30 9185 C 845.98 -2.72229 -1.27718 0
M  V30 9186 C 847.528 -2.8051 -1.38863 0
M  V30 9187 C 848.003 -4.20466 -1.81583 0
M  V30 9188 N 849.494 -4.23005 -1.88735 0
M  V30 9189 C 850.229 -5.2821 -2.23118 0
M  V30 9190 N 849.725 -6.4372 -2.56117 0
M  V30 9191 N 851.518 -5.15588 -2.23888 0
M  V30 9192 H 843.669 -2.11698 0.172557 0
M  V30 9193 H 845.932 -0.947889 0.0145334 0
M  V30 9194 H 845.638 -3.47556 -0.538329 0
M  V30 9195 H 845.512 -3.03971 -2.23342 0
M  V30 9196 H 847.899 -2.05457 -2.11829 0
M  V30 9197 H 847.98 -2.52423 -0.414274 0
M  V30 9198 H 847.624 -4.96025 -1.09187 0
M  V30 9199 H 847.554 -4.45977 -2.80021 0
M  V30 9200 H 850.045 -3.39674 -1.65621 0
M  V30 9201 H 850.358 -7.19754 -2.81378 0
M  V30 9202 H 848.703 -6.47041 -2.53698 0
M  V30 9203 H 851.894 -4.24374 -1.97546 0
M  V30 9204 H 852.067 -5.97685 -2.50353 0
M  V30 9205 N 845.473 0.80434 -1.35529 0
M  V30 9206 C 846.403 1.93086 -1.31301 0
M  V30 9207 C 847.384 1.69068 -0.187044 0
M  V30 9208 O 848.569 1.90399 -0.382359 0
M  V30 9209 C 845.699 3.29867 -1.0865 0
M  V30 9210 C 844.653 3.68373 -2.17911 0
M  V30 9211 C 843.979 5.0334 -1.80423 0
M  V30 9212 C 845.279 3.78516 -3.59893 0
M  V30 9213 H 846.973 1.96882 -2.25561 0
M  V30 9214 H 844.519 0.945841 -1.08581 0
M  V30 9215 H 846.472 4.08281 -1.04331 0
M  V30 9216 H 845.196 3.2642 -0.108359 0
M  V30 9217 H 843.855 2.92247 -2.21331 0
M  V30 9218 H 843.503 4.96399 -0.812213 0
M  V30 9219 H 843.203 5.30074 -2.53565 0
M  V30 9220 H 844.727 5.84191 -1.77633 0
M  V30 9221 H 846.141 4.47155 -3.58783 0
M  V30 9222 H 844.538 4.16721 -4.31814 0
M  V30 9223 H 845.608 2.8001 -3.95882 0
M  V30 9224 N 846.951 1.19563 1.02676 0
M  V30 9225 C 847.883 0.893054 2.11086 0
M  V30 9226 C 848.896 -0.115101 1.62393 0
M  V30 9227 O 850.085 0.11459 1.78132 0
M  V30 9228 C 847.185 0.315533 3.37428 0
M  V30 9229 C 846.358 1.37276 4.153 0
M  V30 9230 C 845.417 0.808398 5.19953 0
M  V30 9231 O 844.443 1.48661 5.49444 0
M  V30 9232 N 845.645 -0.387253 5.79207 0
M  V30 9233 H 848.41 1.82622 2.37633 0
M  V30 9234 H 845.971 1.09792 1.18984 0
M  V30 9235 H 847.963 -0.0759166 4.04629 0
M  V30 9236 H 846.533 -0.521961 3.08211 0
M  V30 9237 H 845.753 1.93897 3.43217 0
M  V30 9238 H 847.041 2.08509 4.64114 0
M  V30 9239 H 846.439 -0.955725 5.57568 0
M  V30 9240 H 844.996 -0.720457 6.47806 0
M  V30 9241 N 848.429 -1.21819 0.999893 0
M  V30 9242 C 849.392 -2.22227 0.561044 0
M  V30 9243 C 850.392 -1.56722 -0.359858 0
M  V30 9244 O 851.582 -1.73546 -0.150848 0
M  V30 9245 C 848.714 -3.40409 -0.182987 0
M  V30 9246 H 849.907 -2.62567 1.44909 0
M  V30 9247 H 847.46 -1.34991 0.78785 0
M  V30 9248 H 848.195 -3.05551 -1.08671 0
M  V30 9249 H 847.98 -3.89171 0.47833 0
M  V30 9250 H 849.47 -4.14856 -0.477952 0
M  V30 9251 N 849.908 -0.773975 -1.37286 0
M  V30 9252 C 850.838 -0.175782 -2.32837 0
M  V30 9253 C 851.819 0.680603 -1.5589 0
M  V30 9254 O 853.004 0.617607 -1.84117 0
M  V30 9255 C 850.134 0.702388 -3.40123 0
M  V30 9256 C 849.088 -0.0528687 -4.27967 0
M  V30 9257 C 848.414 0.944891 -5.26285 0
M  V30 9258 C 849.714 -1.23316 -5.07534 0
M  V30 9259 H 851.408 -0.974016 -2.83114 0
M  V30 9260 H 848.954 -0.469826 -1.3612 0
M  V30 9261 H 850.907 1.13069 -4.05947 0
M  V30 9262 H 849.631 1.53316 -2.88378 0
M  V30 9263 H 848.29 -0.461978 -3.63678 0
M  V30 9264 H 847.938 1.77028 -4.70819 0
M  V30 9265 H 847.638 0.444079 -5.8592 0
M  V30 9266 H 849.162 1.37209 -5.94984 0
M  V30 9267 H 850.576 -0.881395 -5.66484 0
M  V30 9268 H 848.973 -1.66621 -5.76504 0
M  V30 9269 H 850.043 -2.03617 -4.40077 0
M  V30 9270 N 851.386 1.48609 -0.524698 0
M  V30 9271 C 852.316 2.32366 0.229837 0
M  V30 9272 C 853.297 1.41759 0.940129 0
M  V30 9273 O 854.482 1.7065 0.926936 0
M  V30 9274 C 851.612 3.22835 1.28043 0
M  V30 9275 C 850.566 4.22424 0.688603 0
M  V30 9276 C 849.892 5.0199 1.84146 0
M  V30 9277 C 851.192 5.21217 -0.336176 0
M  V30 9278 H 852.886 2.95698 -0.469339 0
M  V30 9279 H 850.432 1.42197 -0.227156 0
M  V30 9280 H 852.385 3.80253 1.8162 0
M  V30 9281 H 851.109 2.57492 2.00912 0
M  V30 9282 H 849.768 3.66185 0.174402 0
M  V30 9283 H 849.416 4.33076 2.5584 0
M  V30 9284 H 849.116 5.69392 1.45142 0
M  V30 9285 H 850.64 5.62259 2.38111 0
M  V30 9286 H 852.054 5.7319 0.112307 0
M  V30 9287 H 850.451 5.96642 -0.643324 0
M  V30 9288 H 851.521 4.68676 -1.24381 0
M  V30 9289 N 852.864 0.259585 1.55447 0
M  V30 9290 C 854.112 -0.360893 1.98852 0
M  V30 9291 C 854.433 -1.57535 1.14924 0
M  V30 9292 O 853.703 -1.94485 0.235025 0
M  V30 9293 H 852.283 -0.136332 0.734454 0
M  V30 9294 H 854.945 0.361319 1.91522 0
M  V30 9295 H 854.041 -0.661388 3.05012 0
M  V30 9296 N 854.342 -1.57594 -0.0133615 0
M  V30 9297 C 855.619 -1.81173 -0.737273 0
M  V30 9298 C 855.999 -0.861395 -1.92726 0
M  V30 9299 O 855.347 0.0929324 -2.28311 0
M  V30 9300 C 855.557 -3.29314 -1.15557 0
M  V30 9301 C 856.905 -3.94707 -1.56498 0
M  V30 9302 O 857.929 -3.33557 -1.24973 0
M  V30 9303 O 856.788 -5.02402 -2.15069 0
M  V30 9304 H 853.882 -0.745575 -0.357837 0
M  V30 9305 H 856.428 -1.69696 0.0110674 0
M  V30 9306 H 855.2 -3.90096 -0.30677 0
M  V30 9307 H 854.823 -3.45739 -1.96343 0
M  V30 9308 N 855.82 0.285905 -1.54985 0
M  V30 9309 C 856.768 1.37302 -1.87752 0
M  V30 9310 C 857.762 1.51763 -0.752616 0
M  V30 9311 O 858.968 1.53701 -0.936805 0
M  V30 9312 H 855.343 0.458935 -0.59572 0
M  V30 9313 H 857.314 1.0691 -2.78591 0
M  V30 9314 C 856.063 2.72885 -2.15474 0
M  V30 9315 H 855.386 2.62545 -3.01513 0
M  V30 9316 H 856.826 3.47925 -2.42331 0
M  V30 9317 C 855.285 3.22989 -0.958124 0
M  V30 9318 O 855.815 4.01268 -0.186219 0
M  V30 9319 N 854.021 2.80503 -0.759354 0
M  V30 9320 H 853.568 2.16961 -1.38874 0
M  V30 9321 H 853.526 3.14375 0.0396937 0
M  V30 9322 N 857.298 1.47698 0.54982 0
M  V30 9323 C 858.208 1.63386 1.68351 0
M  V30 9324 C 859.224 0.516583 1.66155 0
M  V30 9325 O 860.4 0.785088 1.85468 0
M  V30 9326 C 857.465 1.6513 3.04849 0
M  V30 9327 C 856.526 2.88338 3.18056 0
M  V30 9328 C 855.759 2.8999 4.48042 0
M  V30 9329 O 855.982 2.00633 5.3395 0
M  V30 9330 O 854.916 3.81938 4.65196 0
M  V30 9331 H 858.742 2.59329 1.58057 0
M  V30 9332 H 856.327 1.30869 0.72067 0
M  V30 9333 H 858.209 1.68913 3.86065 0
M  V30 9334 H 856.884 0.723555 3.1551 0
M  V30 9335 H 855.791 2.90097 2.36209 0
M  V30 9336 H 857.124 3.80431 3.12302 0
M  V30 9337 N 858.776 -0.797141 1.35954 0
M  V30 9338 C 859.723 -1.90944 1.2965 0
M  V30 9339 C 860.693 -1.65262 0.166628 0
M  V30 9340 O 861.878 -1.87527 0.351883 0
M  V30 9341 C 859.018 -3.27637 1.08389 0
M  V30 9342 C 858.131 -3.65442 2.30382 0
M  V30 9343 C 857.266 -4.91213 2.02195 0
M  V30 9344 C 856.305 -5.21674 3.20191 0
M  V30 9345 N 855.442 -6.38627 2.91719 0
M  V30 9346 H 860.282 -1.95668 2.24762 0
M  V30 9347 H 857.819 -0.95696 1.11717 0
M  V30 9348 H 859.777 -4.06451 0.940912 0
M  V30 9349 H 858.407 -3.22355 0.169351 0
M  V30 9350 H 857.459 -2.81813 2.55511 0
M  V30 9351 H 858.771 -3.83907 3.18461 0
M  V30 9352 H 857.925 -5.77876 1.84783 0
M  V30 9353 H 856.664 -4.74803 1.11416 0
M  V30 9354 H 855.669 -4.33498 3.38171 0
M  V30 9355 H 856.894 -5.40009 4.11786 0
M  V30 9356 H 854.84 -6.23623 2.03543 0
M  V30 9357 H 854.757 -6.57387 3.73334 0
M  V30 9358 H 856.025 -7.28292 2.77868 0
M  V30 9359 N 860.254 -1.20106 -1.0204 0
M  V30 9360 C 861.187 -0.889795 -2.10138 0
M  V30 9361 C 862.165 0.156595 -1.61844 0
M  V30 9362 O 863.349 0.0310192 -1.88474 0
M  V30 9363 C 860.476 -0.333227 -3.37057 0
M  V30 9364 C 859.522 -1.36001 -4.04235 0
M  V30 9365 S 860.355 -2.92366 -4.48645 0
M  V30 9366 C 861.511 -2.38274 -5.78771 0
M  V30 9367 H 861.744 -1.80523 -2.36217 0
M  V30 9368 H 859.277 -1.02912 -1.15102 0
M  V30 9369 H 861.235 -0.0186507 -4.10496 0
M  V30 9370 H 859.896 0.560652 -3.09056 0
M  V30 9371 H 859.089 -0.919874 -4.95534 0
M  V30 9372 H 858.691 -1.62186 -3.37004 0
M  V30 9373 H 860.983 -1.77799 -6.53754 0
M  V30 9374 H 861.926 -3.27955 -6.27576 0
M  V30 9375 H 862.334 -1.8054 -5.34851 0
M  V30 9376 N 861.732 1.21287 -1.00634 0
M  V30 9377 C 862.68 2.25733 -0.561026 0
M  V30 9378 C 863.674 1.64728 0.395095 0
M  V30 9379 O 864.88 1.78022 0.266141 0
M  V30 9380 H 861.255 0.734104 -0.163081 0
M  V30 9381 H 863.226 2.60631 -1.45307 0
M  V30 9382 C 861.975 3.47569 0.0952587 0
M  V30 9383 H 861.298 3.94782 -0.631427 0
M  V30 9384 H 862.738 4.22382 0.370105 0
M  V30 9385 C 861.197 3.09326 1.33488 0
M  V30 9386 O 861.727 3.19933 2.42912 0
M  V30 9387 N 859.933 2.63976 1.21512 0
M  V30 9388 H 859.48 2.55545 0.324741 0
M  V30 9389 H 859.438 2.38757 2.04555 0
M  V30 9390 N 863.21 0.781244 1.36873 0
M  V30 9391 C 864.14 0.188128 2.32741 0
M  V30 9392 C 865.121 -0.672326 1.56249 0
M  V30 9393 O 866.306 -0.607835 1.84442 0
M  V30 9394 C 863.436 -0.684341 3.40491 0
M  V30 9395 C 862.39 0.0755641 4.27933 0
M  V30 9396 C 861.716 -0.916968 5.26779 0
M  V30 9397 C 863.016 1.26006 5.06873 0
M  V30 9398 H 864.71 0.989016 2.82593 0
M  V30 9399 H 862.256 0.477038 1.35869 0
M  V30 9400 H 864.209 -1.10915 4.06541 0
M  V30 9401 H 862.933 -1.51785 2.89187 0
M  V30 9402 H 861.592 0.481258 3.63427 0
M  V30 9403 H 861.24 -1.74528 4.71751 0
M  V30 9404 H 860.94 -0.413 5.86147 0
M  V30 9405 H 862.464 -1.34052 5.95703 0
M  V30 9406 H 863.878 0.911425 5.66009 0
M  V30 9407 H 862.275 1.69676 5.75613 0
M  V30 9408 H 863.345 2.05948 4.38991 0
M  V30 9409 N 864.689 -1.48329 0.532571 0
M  V30 9410 C 865.914 -2.074 0.00147755 0
M  V30 9411 C 866.339 -1.38615 -1.27151 0
M  V30 9412 O 865.697 -0.452949 -1.75551 0
M  V30 9413 C 865.745 -3.60029 -0.202866 0
M  V30 9414 O 864.849 -3.92327 -1.27097 0
M  V30 9415 H 864.19 -0.662777 0.0402883 0
M  V30 9416 H 866.72 -1.90701 0.741224 0
M  V30 9417 H 866.73 -4.05783 -0.424722 0
M  V30 9418 H 865.405 -4.09496 0.727033 0
M  V30 9419 H 863.982 -3.58348 -1.03156 0
M  V30 9420 N 866.167 -0.267825 -1.55308 0
M  V30 9421 C 867.444 0.402449 -1.91415 0
M  V30 9422 C 867.824 1.7428 -1.1912 0
M  V30 9423 O 867.172 2.2631 -0.315609 0
M  V30 9424 C 867.382 0.549926 -3.4464 0
M  V30 9425 C 868.73 0.836188 -4.16285 0
M  V30 9426 O 869.754 0.635009 -3.50494 0
M  V30 9427 O 868.613 1.22051 -5.32697 0
M  V30 9428 H 865.707 0.219177 -0.797427 0
M  V30 9429 H 868.253 -0.313439 -1.6678 0
M  V30 9430 H 867.025 -0.393641 -3.89315 0
M  V30 9431 H 866.648 1.31556 -3.75205 0
M  V30 9432 N 867.645 1.57599 0.00500368 0
M  V30 9433 C 868.891 1.90631 0.691919 0
M  V30 9434 C 869.224 0.868443 1.737 0
M  V30 9435 O 868.499 -0.113482 1.94169 0
M  V30 9436 C 868.782 3.34255 1.33961 0
M  V30 9437 C 868.635 4.48755 0.306413 0
M  V30 9438 C 869.954 3.77211 2.26715 0
M  V30 9439 H 867.073 0.693279 0.250066 0
M  V30 9440 H 869.715 1.89946 -0.0452634 0
M  V30 9441 H 867.865 3.3497 1.96793 0
M  V30 9442 H 869.537 4.60176 -0.321841 0
M  V30 9443 H 867.78 4.32203 -0.371852 0
M  V30 9444 H 868.451 5.46193 0.798554 0
M  V30 9445 H 870.927 3.78017 1.73904 0
M  V30 9446 H 869.803 4.78466 2.69002 0
M  V30 9447 H 870.064 3.10801 3.14413 0
M  V30 9448 N 869.123 -0.277682 1.55134 0
M  V30 9449 C 870.033 -1.36524 1.90783 0
M  V30 9450 C 871.049 -1.54283 0.804542 0
M  V30 9451 O 872.225 -1.68499 1.10318 0
M  V30 9452 C 869.29 -2.70524 2.16835 0
M  V30 9453 C 868.351 -2.61552 3.40424 0
M  V30 9454 C 867.584 -3.89162 3.65224 0
M  V30 9455 O 867.807 -4.89624 2.92616 0
M  V30 9456 O 866.741 -3.89647 4.58758 0
M  V30 9457 H 870.567 -1.0929 2.83354 0
M  V30 9458 H 868.152 -0.475799 1.41621 0
M  V30 9459 H 870.034 -3.49765 2.35038 0
M  V30 9460 H 868.709 -2.97555 1.27448 0
M  V30 9461 H 867.616 -1.80704 3.27562 0
M  V30 9462 H 868.949 -2.39472 4.30016 0
M  V30 9463 N 870.601 -1.47988 -0.541979 0
M  V30 9464 C 871.531 -1.64503 -1.65713 0
M  V30 9465 C 872.512 -0.494116 -1.62765 0
M  V30 9466 O 873.697 -0.725256 -1.80149 0
M  V30 9467 C 870.827 -1.67337 -3.04328 0
M  V30 9468 C 869.781 -2.81809 -3.2213 0
M  V30 9469 C 869.107 -2.69724 -4.61685 0
M  V30 9470 C 870.407 -4.23241 -3.06046 0
M  V30 9471 H 872.101 -2.5786 -1.52147 0
M  V30 9472 H 869.647 -1.24094 -0.730529 0
M  V30 9473 H 871.6 -1.77481 -3.82202 0
M  V30 9474 H 870.324 -0.705514 -3.18889 0
M  V30 9475 H 868.983 -2.71201 -2.46669 0
M  V30 9476 H 868.631 -1.70934 -4.73065 0
M  V30 9477 H 868.331 -3.4653 -4.74543 0
M  V30 9478 H 869.855 -2.81818 -5.41674 0
M  V30 9479 H 871.269 -4.34746 -3.73723 0
M  V30 9480 H 869.666 -5.00952 -3.30405 0
M  V30 9481 H 870.736 -4.40543 -2.02609 0
M  V30 9482 N 872.079 0.78992 -1.36375 0
M  V30 9483 C 873.328 1.54296 -1.29906 0
M  V30 9484 C 873.641 1.95234 0.119651 0
M  V30 9485 O 874.847 2.69762 0.306708 0
M  V30 9486 C 873.303 2.78533 -2.27919 0
M  V30 9487 C 872.911 2.44767 -3.75224 0
M  V30 9488 C 874.655 3.56516 -2.30427 0
M  V30 9489 C 872.562 3.65397 -4.65015 0
M  V30 9490 H 871.492 0.579214 -0.482729 0
M  V30 9491 H 874.143 0.866845 -1.61735 0
M  V30 9492 H 872.525 3.47941 -1.89084 0
M  V30 9493 H 873.699 1.83259 -4.22792 0
M  V30 9494 H 872.014 1.79996 -3.75487 0
M  V30 9495 H 874.611 4.46143 -2.94722 0
M  V30 9496 H 874.954 3.95063 -1.31266 0
M  V30 9497 H 875.487 2.94087 -2.67876 0
M  V30 9498 H 872.226 3.31946 -5.65236 0
M  V30 9499 H 871.746 4.26072 -4.22164 0
M  V30 9500 H 873.425 4.32431 -4.81261 0
M  V30 9501 N 873.557 1.20646 1.01402 0
M  V30 9502 C 874.968 1.01823 1.56489 0
M  V30 9503 C 875.319 -0.42463 1.9155 0
M  V30 9504 O 874.444 -1.30644 1.72514 0
M  V30 9505 C 875.039 1.84208 2.84347 0
M  V30 9506 C 873.598 1.69743 3.35953 0
M  V30 9507 C 872.745 1.8198 2.09233 0
M  V30 9508 H 875.696 1.348 0.837539 0
M  V30 9509 H 875.717 1.34698 3.55861 0
M  V30 9510 H 875.229 2.89215 2.58798 0
M  V30 9511 H 873.33 0.673833 3.66456 0
M  V30 9512 H 873.443 2.51173 4.07981 0
M  V30 9513 H 871.807 1.25193 2.21808 0
M  V30 9514 H 872.59 2.88477 1.86107 0
M  V30 9515 N 875.035 -1.20752 1.01276 0
M  V30 9516 C 875.965 -2.25658 0.600064 0
M  V30 9517 C 876.946 -1.65733 -0.38298 0
M  V30 9518 O 878.131 -1.92324 -0.269256 0
M  V30 9519 C 875.261 -3.47237 -0.0663197 0
M  V30 9520 C 874.215 -4.1973 0.83731 0
M  V30 9521 C 873.541 -5.34687 0.0369102 0
M  V30 9522 C 874.841 -4.76286 2.14357 0
M  V30 9523 H 876.535 -2.60432 1.477 0
M  V30 9524 H 874.081 -1.25187 0.711634 0
M  V30 9525 H 876.034 -4.19803 -0.366563 0
M  V30 9526 H 874.758 -3.11615 -0.977944 0
M  V30 9527 H 873.417 -3.49024 1.1215 0
M  V30 9528 H 873.065 -4.95309 -0.876244 0
M  V30 9529 H 872.765 -5.84119 0.63865 0
M  V30 9530 H 874.289 -6.10059 -0.256968 0
M  V30 9531 H 875.703 -5.40691 1.90595 0
M  V30 9532 H 874.1 -5.36139 2.69583 0
M  V30 9533 H 875.17 -3.9524 2.80916 0
M  V30 9534 N 876.513 -0.788492 -1.36457 0
M  V30 9535 C 877.924 -0.423742 -1.81828 0
M  V30 9536 C 878.275 1.05221 -1.65599 0
M  V30 9537 O 877.4 1.8163 -1.17641 0
M  V30 9538 C 877.995 -0.762354 -3.30112 0
M  V30 9539 C 876.554 -0.450445 -3.73695 0
M  V30 9540 C 875.701 -0.997482 -2.58738 0
M  V30 9541 H 878.652 -0.981718 -1.24692 0
M  V30 9542 H 878.673 -0.0531136 -3.80463 0
M  V30 9543 H 878.185 -1.83662 -3.41891 0
M  V30 9544 H 876.286 0.615829 -3.67476 0
M  V30 9545 H 876.399 -0.970408 -4.69169 0
M  V30 9546 H 874.763 -0.420761 -2.51201 0
M  V30 9547 H 875.546 -2.07749 -2.73304 0
M  V30 9548 N 877.991 1.48044 -0.54043 0
M  V30 9549 C 878.921 2.32597 0.205178 0
M  V30 9550 C 879.902 1.42748 0.925041 0
M  V30 9551 O 881.087 1.71624 0.908784 0
M  V30 9552 C 878.217 3.24175 1.24612 0
M  V30 9553 C 877.171 4.23131 0.64376 0
M  V30 9554 C 876.497 5.03915 1.78812 0
M  V30 9555 C 877.797 5.20831 -0.39144 0
M  V30 9556 H 879.491 2.95184 -0.500676 0
M  V30 9557 H 877.037 1.41948 -0.242225 0
M  V30 9558 H 878.99 3.82158 1.77576 0
M  V30 9559 H 877.714 2.59608 1.98169 0
M  V30 9560 H 876.373 3.66349 0.135554 0
M  V30 9561 H 876.021 4.35765 2.51232 0
M  V30 9562 H 875.721 5.709 1.39094 0
M  V30 9563 H 877.245 5.64753 2.32134 0
M  V30 9564 H 878.659 5.73277 0.0515064 0
M  V30 9565 H 877.056 5.95926 -0.706569 0
M  V30 9566 H 878.126 4.6733 -1.29345 0
M  V30 9567 N 879.47 0.276058 1.55163 0
M  V30 9568 C 880.38 -0.621066 2.2623 0
M  V30 9569 C 881.396 -1.16931 1.28853 0
M  V30 9570 O 882.572 -1.1994 1.61791 0
M  V30 9571 C 879.637 -1.78824 2.97023 0
M  V30 9572 C 878.698 -1.27657 4.09881 0
M  V30 9573 C 877.931 -2.38812 4.77289 0
M  V30 9574 O 878.154 -3.58188 4.43912 0
M  V30 9575 O 877.088 -2.06915 5.65217 0
M  V30 9576 H 880.914 -0.0453346 3.03666 0
M  V30 9577 H 878.499 0.0434275 1.49337 0
M  V30 9578 H 880.381 -2.46877 3.41511 0
M  V30 9579 H 879.056 -2.35104 2.22503 0
M  V30 9580 H 877.963 -0.56248 3.69847 0
M  V30 9581 H 879.296 -0.759509 4.86305 0
M  V30 9582 N 880.948 -1.576 0.00335426 0
M  V30 9583 C 882.359 -1.7875 -0.539008 0
M  V30 9584 C 882.71 -0.911097 -1.73763 0
M  V30 9585 O 881.835 -0.114476 -2.16097 0
M  V30 9586 C 882.43 -3.24177 -0.984611 0
M  V30 9587 C 880.989 -3.46412 -1.47226 0
M  V30 9588 C 880.136 -2.74024 -0.425004 0
M  V30 9589 H 883.087 -1.57032 0.229511 0
M  V30 9590 H 883.108 -3.32474 -1.85044 0
M  V30 9591 H 882.62 -3.87938 -0.112035 0
M  V30 9592 H 880.721 -2.8787 -2.36562 0
M  V30 9593 H 880.834 -4.55098 -1.49741 0
M  V30 9594 H 879.198 -2.38741 -0.887394 0
M  V30 9595 H 879.981 -3.40486 0.438662 0
M  V30 9596 N 882.426 0.269451 -1.5528 0
M  V30 9597 C 883.358 1.35553 -1.84819 0
M  V30 9598 C 884.371 1.45369 -0.732914 0
M  V30 9599 O 885.56 1.47122 -1.0108 0
M  V30 9600 C 882.66 2.73645 -1.9993 0
M  V30 9601 C 881.833 2.86376 -3.30617 0
M  V30 9602 C 880.892 4.05165 -3.35749 0
M  V30 9603 O 879.918 3.95756 -4.09104 0
M  V30 9604 N 881.12 5.17297 -2.63408 0
M  V30 9605 H 883.885 1.10557 -2.78563 0
M  V30 9606 H 881.446 0.459566 -1.5524 0
M  V30 9607 H 883.438 3.51411 -2.00729 0
M  V30 9608 H 882.008 2.91448 -1.13035 0
M  V30 9609 H 881.228 1.95465 -3.42326 0
M  V30 9610 H 882.516 2.91815 -4.16799 0
M  V30 9611 H 881.914 5.2783 -2.03501 0
M  V30 9612 H 880.471 5.93281 -2.69927 0
M  V30 9613 N 883.904 1.48273 0.534124 0
M  V30 9614 C 885.15 1.56311 1.29208 0
M  V30 9615 C 885.483 0.234481 1.92779 0
M  V30 9616 O 884.758 -0.759143 1.79073 0
M  V30 9617 C 885.041 2.69831 2.3846 0
M  V30 9618 C 884.894 4.12385 1.79608 0
M  V30 9619 C 886.213 2.79133 3.40254 0
M  V30 9620 H 883.332 0.56899 0.468422 0
M  V30 9621 H 885.974 1.80429 0.595438 0
M  V30 9622 H 884.124 2.49397 2.97881 0
M  V30 9623 H 885.796 4.44246 1.24269 0
M  V30 9624 H 884.039 4.19579 1.10162 0
M  V30 9625 H 884.71 4.87629 2.58693 0
M  V30 9626 H 887.186 2.97632 2.90783 0
M  V30 9627 H 886.062 3.60298 4.14097 0
M  V30 9628 H 886.323 1.87122 4.00547 0
M  V30 9629 N 885.382 -0.782676 1.36792 0
M  V30 9630 C 886.329 -1.89558 1.31667 0
M  V30 9631 C 887.299 -1.65076 0.184147 0
M  V30 9632 O 888.484 -1.87143 0.371753 0
M  V30 9633 C 885.624 -3.26469 1.11858 0
M  V30 9634 C 884.737 -3.62978 2.34245 0
M  V30 9635 C 883.872 -4.89041 2.07394 0
M  V30 9636 C 882.911 -5.18249 3.25706 0
M  V30 9637 N 882.048 -6.35497 2.98476 0
M  V30 9638 H 886.888 -1.93274 2.26824 0
M  V30 9639 H 884.425 -0.945057 1.12726 0
M  V30 9640 H 886.383 -4.05431 0.983968 0
M  V30 9641 H 885.013 -3.22158 0.203531 0
M  V30 9642 H 884.065 -2.79087 2.58485 0
M  V30 9643 H 885.377 -3.80507 3.22514 0
M  V30 9644 H 884.531 -5.75883 1.90901 0
M  V30 9645 H 883.27 -4.73594 1.16446 0
M  V30 9646 H 882.275 -4.29887 3.4275 0
M  V30 9647 H 883.5 -5.35611 4.1749 0
M  V30 9648 H 881.446 -6.21429 2.10146 0
M  V30 9649 H 881.363 -6.5339 3.80286 0
M  V30 9650 H 882.631 -7.25304 2.85577 0
M  V30 9651 N 886.86 -1.21182 -1.00761 0
M  V30 9652 C 888.109 -1.02166 -1.73911 0
M  V30 9653 C 888.422 0.445638 -1.90456 0
M  V30 9654 O 889.628 0.755132 -2.60787 0
M  V30 9655 C 888.084 -1.77936 -3.12837 0
M  V30 9656 C 887.692 -3.28819 -3.04273 0
M  V30 9657 C 889.436 -1.67319 -3.90134 0
M  V30 9658 C 887.343 -3.97089 -4.38262 0
M  V30 9659 H 886.273 -0.378665 -0.652019 0
M  V30 9660 H 888.924 -1.44891 -1.12601 0
M  V30 9661 H 887.306 -1.28003 -3.74742 0
M  V30 9662 H 888.48 -3.86035 -2.51622 0
M  V30 9663 H 886.795 -3.39949 -2.40465 0
M  V30 9664 H 889.392 -2.15659 -4.8928 0
M  V30 9665 H 889.735 -0.630959 -4.11491 0
M  V30 9666 H 890.268 -2.14716 -3.34876 0
M  V30 9667 H 887.007 -5.01503 -4.22107 0
M  V30 9668 H 886.527 -3.44662 -4.90885 0
M  V30 9669 H 888.206 -4.01854 -5.07072 0
M  V30 9670 N 888.338 1.20213 -1.01915 0
M  V30 9671 C 889.754 1.41696 -0.734459 0
M  V30 9672 C 889.954 1.89504 0.684867 0
M  V30 9673 O 889.01 2.06556 1.45227 0
M  V30 9674 C 890.323 2.43644 -1.76233 0
M  V30 9675 C 891.871 2.57406 -1.78076 0
M  V30 9676 C 892.346 3.626 -2.79796 0
M  V30 9677 N 893.837 3.70086 -2.78551 0
M  V30 9678 C 894.572 4.51145 -3.53915 0
M  V30 9679 N 894.068 5.35988 -4.38963 0
M  V30 9680 N 895.861 4.45702 -3.425 0
M  V30 9681 H 888.012 0.874976 -1.93541 0
M  V30 9682 H 890.275 0.446647 -0.836188 0
M  V30 9683 H 889.981 2.15519 -2.77929 0
M  V30 9684 H 889.855 3.42672 -1.57657 0
M  V30 9685 H 892.242 2.8486 -0.770634 0
M  V30 9686 H 892.323 1.58565 -2.00725 0
M  V30 9687 H 891.967 3.35889 -3.80973 0
M  V30 9688 H 891.897 4.61069 -2.54407 0
M  V30 9689 H 894.388 3.09484 -2.1686 0
M  V30 9690 H 894.701 5.94932 -4.9323 0
M  V30 9691 H 893.046 5.35482 -4.4304 0
M  V30 9692 H 896.237 3.78456 -2.75478 0
M  V30 9693 H 896.41 5.08637 -4.01487 0
M  V30 9694 N 889.816 0.795718 1.36037 0
M  V30 9695 C 891.064 0.370291 1.98679 0
M  V30 9696 C 891.385 -1.06332 1.63458 0
M  V30 9697 O 890.655 -1.73394 0.911671 0
M  V30 9698 H 889.235 0.133928 0.734896 0
M  V30 9699 H 891.897 1.01915 1.6613 0
M  V30 9700 H 890.993 0.467207 3.08583 0
M  V30 9701 N 891.294 -1.47756 0.548274 0
M  V30 9702 C 892.543 -2.01691 0.0187961 0
M  V30 9703 C 892.856 -1.42894 -1.33569 0
M  V30 9704 O 894.062 -1.88438 -1.95457 0
M  V30 9705 C 892.518 -3.59896 -0.016847 0
M  V30 9706 C 892.126 -4.27683 1.33385 0
M  V30 9707 C 893.87 -4.21614 -0.494188 0
M  V30 9708 C 891.777 -5.7787 1.2578 0
M  V30 9709 H 890.707 -0.753993 0.00325648 0
M  V30 9710 H 893.358 -1.69838 0.694792 0
M  V30 9711 H 891.74 -3.88672 -0.758304 0
M  V30 9712 H 892.914 -4.10559 2.09232 0
M  V30 9713 H 891.229 -3.77915 1.7484 0
M  V30 9714 H 893.826 -5.3166 -0.569342 0
M  V30 9715 H 894.169 -3.88176 -1.50417 0
M  V30 9716 H 894.702 -3.97336 0.192138 0
M  V30 9717 H 891.441 -6.15912 2.2435 0
M  V30 9718 H 890.961 -5.97355 0.540997 0
M  V30 9719 H 892.64 -6.39897 0.956109 0
M  V30 9720 N 892.772 -0.284283 -1.55015 0
M  V30 9721 C 894.021 0.33055 -1.98973 0
M  V30 9722 C 894.334 1.56284 -1.17621 0
M  V30 9723 O 895.54 2.2512 -1.51767 0
M  V30 9724 C 893.996 0.639457 -3.54174 0
M  V30 9725 C 893.604 -0.573543 -4.44313 0
M  V30 9726 C 895.348 1.21641 -4.06699 0
M  V30 9727 C 893.255 -0.238715 -5.90918 0
M  V30 9728 H 892.185 0.127285 -0.743179 0
M  V30 9729 H 894.836 -0.390372 -1.793 0
M  V30 9730 H 893.218 1.41953 -3.69683 0
M  V30 9731 H 894.392 -1.3502 -4.40575 0
M  V30 9732 H 892.707 -1.06797 -4.02472 0
M  V30 9733 H 895.304 1.48088 -5.13784 0
M  V30 9734 H 895.647 2.15328 -3.56286 0
M  V30 9735 H 896.18 0.498422 -3.94665 0
M  V30 9736 H 892.919 -1.1437 -6.45445 0
M  V30 9737 H 892.439 0.500997 -5.97704 0
M  V30 9738 H 894.118 0.165774 -6.46788 0
M  V30 9739 N 894.251 1.57596 -0.0117121 0
M  V30 9740 C 895.662 1.79033 0.529521 0
M  V30 9741 C 896.013 0.920299 1.73277 0
M  V30 9742 O 895.138 0.125934 2.16033 0
M  V30 9743 C 895.733 3.24695 0.967405 0
M  V30 9744 C 894.292 3.47188 1.45387 0
M  V30 9745 C 893.439 2.74245 0.410466 0
M  V30 9746 H 896.39 1.56908 -0.237836 0
M  V30 9747 H 896.411 3.33451 1.83278 0
M  V30 9748 H 895.923 3.87992 0.0914605 0
M  V30 9749 H 894.024 2.89121 2.35032 0
M  V30 9750 H 894.137 4.55886 1.47325 0
M  V30 9751 H 892.501 2.39209 0.874721 0
M  V30 9752 H 893.284 3.40248 -0.456713 0
M  V30 9753 N 895.729 -0.261212 1.5542 0
M  V30 9754 C 896.639 -1.34493 1.92221 0
M  V30 9755 C 897.655 -1.53421 0.82086 0
M  V30 9756 O 898.831 -1.6732 1.12099 0
M  V30 9757 C 895.896 -2.68209 2.19692 0
M  V30 9758 C 894.957 -2.57927 3.43179 0
M  V30 9759 C 894.19 -3.85266 3.69331 0
M  V30 9760 O 894.413 -4.86493 2.97793 0
M  V30 9761 O 893.347 -3.8476 4.62865 0
M  V30 9762 H 897.173 -1.06278 2.84497 0
M  V30 9763 H 894.758 -0.460752 1.42118 0
M  V30 9764 H 896.64 -3.47252 2.38734 0
M  V30 9765 H 895.315 -2.96186 1.30597 0
M  V30 9766 H 894.222 -1.77219 3.2946 0
M  V30 9767 H 895.555 -2.34898 4.32532 0
M  V30 9768 N 897.207 -1.48554 -0.526253 0
M  V30 9769 C 898.435 -1.60429 -1.30652 0
M  V30 9770 C 898.85 -0.265963 -1.86917 0
M  V30 9771 O 898.207 0.745262 -1.6659 0
M  V30 9772 C 898.258 -2.65377 -2.45473 0
M  V30 9773 O 897.979 -3.94017 -1.91527 0
M  V30 9774 C 899.48 -2.87726 -3.37237 0
M  V30 9775 H 896.7 -0.540817 -0.397187 0
M  V30 9776 H 899.244 -1.94409 -0.634461 0
M  V30 9777 H 897.399 -2.34246 -3.08557 0
M  V30 9778 H 897.813 -4.51623 -2.66715 0
M  V30 9779 H 899.287 -3.64951 -4.14144 0
M  V30 9780 H 899.764 -1.96688 -3.92696 0
M  V30 9781 H 900.37 -3.20176 -2.79942 0
M  V30 9782 N 898.685 0.775411 -1.37205 0
M  V30 9783 C 899.648 1.8702 -1.325 0
M  V30 9784 C 900.648 1.5915 -0.229793 0
M  V30 9785 O 901.838 1.673 -0.485423 0
M  V30 9786 C 898.97 3.24085 -1.05745 0
M  V30 9787 H 900.163 1.92604 -2.29878 0
M  V30 9788 H 897.716 0.97476 -1.22181 0
M  V30 9789 H 898.451 3.24178 -0.0888371 0
M  V30 9790 H 898.236 3.45705 -1.85016 0
M  V30 9791 H 899.726 4.0416 -1.05094 0
M  V30 9792 N 900.163 1.21714 1.00117 0
M  V30 9793 C 901.391 1.06278 1.77518 0
M  V30 9794 C 901.806 -0.387193 1.84787 0
M  V30 9795 O 901.163 -1.26854 1.31203 0
M  V30 9796 C 901.214 1.65795 3.21239 0
M  V30 9797 O 900.935 3.05119 3.14378 0
M  V30 9798 C 902.436 1.55521 4.15124 0
M  V30 9799 H 899.656 0.373013 0.557765 0
M  V30 9800 H 902.2 1.61133 1.25922 0
M  V30 9801 H 900.355 1.15022 3.69931 0
M  V30 9802 H 900.769 3.33643 4.04701 0
M  V30 9803 H 902.243 2.01902 5.13751 0
M  V30 9804 H 902.72 0.510307 4.36225 0
M  V30 9805 H 903.326 2.0556 3.72324 0
M  V30 9806 N 901.641 -1.19671 1.02551 0
M  V30 9807 C 902.571 -2.25009 0.623965 0
M  V30 9808 C 903.552 -1.66129 -0.36538 0
M  V30 9809 O 904.737 -1.92599 -0.248842 0
M  V30 9810 C 901.867 -3.47287 -0.0294869 0
M  V30 9811 C 900.821 -4.18818 0.881781 0
M  V30 9812 C 900.147 -5.34618 0.0936189 0
M  V30 9813 C 901.447 -4.73986 2.19396 0
M  V30 9814 H 903.141 -2.58851 1.50454 0
M  V30 9815 H 900.687 -1.24425 0.724872 0
M  V30 9816 H 902.64 -4.20168 -0.322016 0
M  V30 9817 H 901.364 -3.12635 -0.944838 0
M  V30 9818 H 900.023 -3.47815 1.15845 0
M  V30 9819 H 899.671 -4.9621 -0.823661 0
M  V30 9820 H 899.371 -5.83409 0.700568 0
M  V30 9821 H 900.895 -6.10297 -0.192249 0
M  V30 9822 H 902.309 -5.38639 1.96319 0
M  V30 9823 H 900.706 -5.3325 2.75254 0
M  V30 9824 H 901.776 -3.92238 2.85092 0
M  V30 9825 N 903.119 -0.802921 -1.35613 0
M  V30 9826 C 904.366 -0.381576 -1.98872 0
M  V30 9827 C 904.694 1.0503 -1.63704 0
M  V30 9828 O 903.949 1.7427 -0.890418 0
M  V30 9829 C 904.248 -0.507806 -3.53774 0
M  V30 9830 C 903.914 -1.90245 -4.088 0
M  V30 9831 C 902.576 -2.28401 -4.2354 0
M  V30 9832 C 904.928 -2.81504 -4.3864 0
M  V30 9833 C 902.256 -3.57192 -4.65436 0
M  V30 9834 C 904.608 -4.09737 -4.81973 0
M  V30 9835 C 903.272 -4.47897 -4.94919 0
M  V30 9836 H 902.542 -0.139629 -0.727726 0
M  V30 9837 H 905.189 -1.023 -1.61886 0
M  V30 9838 H 903.494 0.21708 -3.91198 0
M  V30 9839 H 905.191 -0.162625 -4.0067 0
M  V30 9840 H 901.781 -1.596 -3.97776 0
M  V30 9841 H 905.965 -2.53276 -4.26808 0
M  V30 9842 H 901.221 -3.86611 -4.73648 0
M  V30 9843 H 905.395 -4.80555 -5.04024 0
M  V30 9844 H 903.022 -5.47747 -5.27141 0
M  V30 9845 N 904.597 1.47463 -0.556102 0
M  V30 9846 C 905.544 2.29998 0.192213 0
M  V30 9847 C 906.514 1.38993 0.909403 0
M  V30 9848 O 907.699 1.67954 0.905316 0
M  V30 9849 C 904.839 3.22932 1.21692 0
M  V30 9850 C 903.952 4.29027 0.505908 0
M  V30 9851 C 903.087 5.09114 1.51581 0
M  V30 9852 C 902.126 6.06984 0.789714 0
M  V30 9853 N 901.263 6.80033 1.74639 0
M  V30 9854 H 906.103 2.93468 -0.517734 0
M  V30 9855 H 903.64 1.44654 -0.267147 0
M  V30 9856 H 905.598 3.75234 1.8236 0
M  V30 9857 H 904.228 2.61329 1.89491 0
M  V30 9858 H 903.28 3.7979 -0.215276 0
M  V30 9859 H 904.592 4.9876 -0.062958 0
M  V30 9860 H 903.746 5.6556 2.19606 0
M  V30 9861 H 902.485 4.3928 2.11859 0
M  V30 9862 H 901.49 5.49717 0.0955382 0
M  V30 9863 H 902.715 6.78827 0.192688 0
M  V30 9864 H 900.661 6.12931 2.33777 0
M  V30 9865 H 900.578 7.45933 1.22965 0
M  V30 9866 H 901.846 7.41054 2.41782 0
M  V30 9867 N 906.075 0.2925 1.54862 0
M  V30 9868 C 907.3 -0.32494 2.04839 0
M  V30 9869 C 907.725 -1.47381 1.16877 0
M  V30 9870 O 907.083 -1.80492 0.171028 0
M  V30 9871 C 907.131 -0.76694 3.5235 0
M  V30 9872 O 906.235 -1.87256 3.67436 0
M  V30 9873 H 905.576 -0.0645195 0.660858 0
M  V30 9874 H 908.106 0.431867 1.9999 0
M  V30 9875 H 908.116 -1.05804 3.94043 0
M  V30 9876 H 906.791 0.0735212 4.15835 0
M  V30 9877 H 905.368 -1.58266 3.37648 0
M  V30 9878 N 907.553 -1.57587 0.0200696 0
M  V30 9879 C 908.516 -2.08595 -0.949767 0
M  V30 9880 C 909.516 -0.999215 -1.25985 0
M  V30 9881 O 910.706 -1.26115 -1.2017 0
M  V30 9882 C 907.838 -2.54424 -2.26895 0
M  V30 9883 H 909.031 -2.95563 -0.508161 0
M  V30 9884 H 906.584 -1.54631 -0.227798 0
M  V30 9885 H 907.319 -1.70758 -2.75703 0
M  V30 9886 H 907.104 -3.3381 -2.05702 0
M  V30 9887 H 908.594 -2.94144 -2.96427 0
M  V30 9888 N 909.032 0.252966 -1.55557 0
M  V30 9889 C 909.962 1.31691 -1.9282 0
M  V30 9890 C 910.943 1.50516 -0.7924 0
M  V30 9891 O 912.128 1.63225 -1.05219 0
M  V30 9892 C 909.258 2.67281 -2.21762 0
M  V30 9893 C 908.212 2.6316 -3.37536 0
M  V30 9894 C 907.538 4.02488 -3.52005 0
M  V30 9895 C 908.838 2.20675 -4.73392 0
M  V30 9896 H 910.532 1.00751 -2.81939 0
M  V30 9897 H 908.078 0.483219 -1.3565 0
M  V30 9898 H 910.031 3.41842 -2.46419 0
M  V30 9899 H 908.755 2.99845 -1.29463 0
M  V30 9900 H 907.414 1.91057 -3.12878 0
M  V30 9901 H 907.062 4.32307 -2.57137 0
M  V30 9902 H 906.762 4.00621 -4.29857 0
M  V30 9903 H 908.286 4.78758 -3.78977 0
M  V30 9904 H 909.7 2.84965 -4.97461 0
M  V30 9905 H 908.097 2.29931 -5.54303 0
M  V30 9906 H 909.167 1.15831 -4.70862 0
M  V30 9907 N 910.51 1.48831 0.518367 0
M  V30 9908 C 911.443 1.588 1.63884 0
M  V30 9909 C 912.421 0.437847 1.56594 0
M  V30 9910 O 913.605 0.651042 1.769 0
M  V30 9911 C 910.732 1.52681 3.02335 0
M  V30 9912 C 909.778 2.7268 3.27945 0
M  V30 9913 S 910.611 4.34536 3.12951 0
M  V30 9914 C 911.767 4.31034 4.53828 0
M  V30 9915 H 912 2.53587 1.5518 0
M  V30 9916 H 909.533 1.37507 0.702218 0
M  V30 9917 H 911.491 1.49837 3.82177 0
M  V30 9918 H 910.152 0.592107 3.08469 0
M  V30 9919 H 909.345 2.64569 4.28974 0
M  V30 9920 H 908.947 2.72847 2.55794 0
M  V30 9921 H 911.239 4.01683 5.45579 0
M  V30 9922 H 912.182 5.32282 4.66991 0
M  V30 9923 H 912.59 3.61343 4.33695 0
M  V30 9924 N 911.988 -0.768124 1.37614 0
M  V30 9925 C 913.399 -1.34462 1.29525 0
M  V30 9926 C 913.75 -1.96121 -0.0555168 0
M  V30 9927 O 912.875 -1.94069 -0.957406 0
M  V30 9928 C 913.47 -2.44475 2.34558 0
M  V30 9929 C 912.029 -2.97883 2.30093 0
M  V30 9930 C 911.176 -1.71131 2.18196 0
M  V30 9931 H 914.127 -0.568103 1.48183 0
M  V30 9932 H 914.148 -3.24047 1.99434 0
M  V30 9933 H 913.66 -1.99568 3.32858 0
M  V30 9934 H 911.761 -3.47156 1.35328 0
M  V30 9935 H 911.874 -3.53251 3.23652 0
M  V30 9936 H 910.238 -1.94197 1.64802 0
M  V30 9937 H 911.021 -1.28323 3.18415 0
M  V30 9938 N 913.466 -1.22244 -0.994698 0
M  V30 9939 C 914.429 -0.992308 -2.06606 0
M  V30 9940 C 915.429 0.0405872 -1.60749 0
M  V30 9941 O 916.619 -0.197737 -1.73074 0
M  V30 9942 C 913.751 -0.498499 -3.37236 0
M  V30 9943 H 914.944 -1.9429 -2.28455 0
M  V30 9944 H 912.497 -1.04087 -1.166 0
M  V30 9945 H 913.232 0.456531 -3.21071 0
M  V30 9946 H 913.017 -1.24367 -3.71854 0
M  V30 9947 H 914.507 -0.35768 -4.16065 0
M  V30 9948 N 914.944 1.19125 -1.03184 0
M  V30 9949 C 915.876 2.21914 -0.573294 0
M  V30 9950 C 916.889 1.5894 0.352397 0
M  V30 9951 O 918.078 1.77883 0.148318 0
M  V30 9952 C 915.178 3.38403 0.18355 0
M  V30 9953 C 914.351 4.3096 -0.747817 0
M  V30 9954 C 913.41 5.26188 -0.0358489 0
M  V30 9955 O 912.436 5.65321 -0.663388 0
M  V30 9956 N 913.638 5.67235 1.23387 0
M  V30 9957 H 916.403 2.61881 -1.45734 0
M  V30 9958 H 913.964 1.33821 -0.911231 0
M  V30 9959 H 915.956 3.99124 0.669468 0
M  V30 9960 H 914.526 2.97201 0.969043 0
M  V30 9961 H 913.746 3.67976 -1.41377 0
M  V30 9962 H 915.034 4.89708 -1.38071 0
M  V30 9963 H 914.432 5.37481 1.76439 0
M  V30 9964 H 912.989 6.30196 1.66423 0
M  V30 9965 N 916.422 0.810101 1.35185 0
M  V30 9966 C 917.352 0.237453 2.32289 0
M  V30 9967 C 918.333 -0.639032 1.5764 0
M  V30 9968 O 919.518 -0.568575 1.8569 0
M  V30 9969 C 916.648 -0.611964 3.41866 0
M  V30 9970 C 915.602 0.166318 4.27677 0
M  V30 9971 C 914.928 -0.805024 5.28605 0
M  V30 9972 C 916.228 1.36729 5.04086 0
M  V30 9973 H 917.922 1.04874 2.80432 0
M  V30 9974 H 915.468 0.505751 1.34826 0
M  V30 9975 H 917.421 -1.02267 4.08802 0
M  V30 9976 H 916.145 -1.45617 2.92341 0
M  V30 9977 H 914.804 0.558238 3.62325 0
M  V30 9978 H 914.452 -1.64483 4.75347 0
M  V30 9979 H 914.152 -0.288577 5.86891 0
M  V30 9980 H 915.676 -1.21386 5.98413 0
M  V30 9981 H 917.09 1.03128 5.63948 0
M  V30 9982 H 915.487 1.81848 5.71884 0
M  V30 9983 H 916.557 2.15214 4.34524 0
M  V30 9984 N 917.9 -1.47166 0.563914 0
M  V30 9985 C 919.147 -2.02456 0.042371 0
M  V30 9986 C 919.475 -1.43753 -1.31016 0
M  V30 9987 O 918.73 -0.585287 -1.86743 0
M  V30 9988 C 919.029 -3.57279 -0.0931797 0
M  V30 9989 C 918.695 -4.34932 1.18933 0
M  V30 9990 C 917.357 -4.55867 1.54073 0
M  V30 9991 C 919.709 -4.79665 2.03889 0
M  V30 9992 C 917.037 -5.18785 2.74005 0
M  V30 9993 C 919.389 -5.43907 3.23029 0
M  V30 9994 C 918.053 -5.63074 3.58475 0
M  V30 9995 H 917.323 -0.740838 0.0155047 0
M  V30 9996 H 919.97 -1.76759 0.736776 0
M  V30 9997 H 918.275 -3.82005 -0.870596 0
M  V30 9998 H 919.972 -3.97716 -0.512176 0
M  V30 9999 H 916.562 -4.18921 0.905718 0
M  V30 10000 H 920.746 -4.63264 1.78046 0
M  V30 10001 H 916.002 -5.31818 3.01628 0
M  V30 10002 H 920.176 -5.77531 3.89141 0
M  V30 10003 H 917.803 -6.11598 4.515 0
M  V30 10004 N 919.378 -0.300708 -1.54705 0
M  V30 10005 C 920.625 0.308654 -2.00134 0
M  V30 10006 C 920.953 1.53918 -1.1891 0
M  V30 10007 O 920.208 1.94054 -0.253263 0
M  V30 10008 C 920.507 0.710108 -3.50275 0
M  V30 10009 C 920.173 -0.418651 -4.48952 0
M  V30 10010 C 918.835 -0.728524 -4.75653 0
M  V30 10011 C 921.187 -1.17797 -5.07714 0
M  V30 10012 C 918.515 -1.80085 -5.58378 0
M  V30 10013 C 920.867 -2.24022 -5.91606 0
M  V30 10014 C 919.531 -2.55616 -6.16617 0
M  V30 10015 H 918.801 0.112945 -0.732342 0
M  V30 10016 H 921.448 -0.419744 -1.86843 0
M  V30 10017 H 919.753 1.51859 -3.61173 0
M  V30 10018 H 921.45 1.19277 -3.8285 0
M  V30 10019 H 918.04 -0.167034 -4.28274 0
M  V30 10020 H 922.224 -0.951835 -4.87087 0
M  V30 10021 H 917.48 -2.05036 -5.75995 0
M  V30 10022 H 921.654 -2.83317 -6.36164 0
M  V30 10023 H 919.281 -3.38839 -6.80509 0
M  V30 10024 N 920.856 1.57574 -0.0284266 0
M  V30 10025 C 921.803 2.10176 0.953658 0
M  V30 10026 C 922.773 1.00367 1.32347 0
M  V30 10027 O 923.958 1.27783 1.4169 0
M  V30 10028 C 921.098 2.63287 2.231 0
M  V30 10029 C 920.211 3.87102 1.91771 0
M  V30 10030 C 919.346 4.28609 3.13795 0
M  V30 10031 C 918.385 5.45184 2.78282 0
M  V30 10032 N 917.522 5.81851 3.92929 0
M  V30 10033 H 922.362 2.93806 0.498176 0
M  V30 10034 H 919.899 1.45222 0.234302 0
M  V30 10035 H 921.857 2.9217 2.97813 0
M  V30 10036 H 920.487 1.82489 2.66266 0
M  V30 10037 H 919.539 3.64952 1.07303 0
M  V30 10038 H 920.851 4.71892 1.61615 0
M  V30 10039 H 920.005 4.58925 3.96829 0
M  V30 10040 H 918.744 3.42585 3.47112 0
M  V30 10041 H 917.749 5.14563 1.93661 0
M  V30 10042 H 918.974 6.32907 2.46182 0
M  V30 10043 H 916.92 4.98782 4.2609 0
M  V30 10044 H 916.837 6.6128 3.66395 0
M  V30 10045 H 918.105 6.16772 4.76669 0
M  V30 10046 N 922.334 -0.244713 1.55689 0
M  V30 10047 C 923.562 -0.989944 1.8168 0
M  V30 10048 C 923.977 -1.78863 0.604449 0
M  V30 10049 O 923.334 -1.77437 -0.426907 0
M  V30 10050 C 923.385 -1.92607 3.05916 0
M  V30 10051 O 923.106 -1.1597 4.22472 0
M  V30 10052 C 924.607 -2.78711 3.44724 0
M  V30 10053 H 921.827 -0.2912 0.604519 0
M  V30 10054 H 924.371 -0.266938 2.0275 0
M  V30 10055 H 922.526 -2.60333 2.8689 0
M  V30 10056 H 922.94 -1.79311 4.92898 0
M  V30 10057 H 924.414 -3.40141 4.34751 0
M  V30 10058 H 924.891 -3.49935 2.6541 0
M  V30 10059 H 925.497 -2.16435 3.66109 0
M  V30 10060 N 923.813 -1.49104 -0.510467 0
M  V30 10061 C 924.723 -1.67792 -1.6396 0
M  V30 10062 C 925.739 -0.560454 -1.64727 0
M  V30 10063 O 926.915 -0.833985 -1.83321 0
M  V30 10064 C 923.98 -1.73154 -3.00364 0
M  V30 10065 C 923.041 -2.9667 -3.10299 0
M  V30 10066 C 922.274 -3.01767 -4.40196 0
M  V30 10067 O 922.497 -2.1472 -5.28443 0
M  V30 10068 O 921.431 -3.94137 -4.54906 0
M  V30 10069 H 925.257 -2.63428 -1.51126 0
M  V30 10070 H 922.842 -1.32734 -0.685719 0
M  V30 10071 H 924.724 -1.79089 -3.81451 0
M  V30 10072 H 923.399 -0.806952 -3.1348 0
M  V30 10073 H 922.306 -2.96257 -2.28435 0
M  V30 10074 H 923.639 -3.88578 -3.02106 0
M  V30 10075 N 925.291 0.760815 -1.38019 0
M  V30 10076 C 926.568 1.5098 -1.24356 0
M  V30 10077 C 926.948 2.10507 0.158169 0
M  V30 10078 O 926.296 1.96455 1.16695 0
M  V30 10079 C 926.506 2.58195 -2.34811 0
M  V30 10080 C 927.854 3.25297 -2.72886 0
M  V30 10081 O 928.878 2.68496 -2.34069 0
M  V30 10082 O 927.737 4.28018 -3.39799 0
M  V30 10083 H 924.831 0.66921 -0.485888 0
M  V30 10084 H 927.377 0.796844 -1.49828 0
M  V30 10085 H 926.149 2.12406 -3.28633 0
M  V30 10086 H 925.772 3.37079 -2.10864 0
M  V30 10087 N 926.769 1.22769 0.988202 0
M  V30 10088 C 928.017 1.05301 1.725 0
M  V30 10089 C 928.338 -0.412103 1.90596 0
M  V30 10090 O 927.608 -1.29606 1.46898 0
M  V30 10091 H 926.188 0.386658 0.639144 0
M  V30 10092 H 928.85 1.54359 1.18993 0
M  V30 10093 H 927.946 1.53465 2.71763 0
M  V30 10094 N 928.247 -1.18576 1.03814 0
M  V30 10095 C 929.495 -1.88121 0.738574 0
M  V30 10096 C 929.816 -1.80587 -0.735744 0
M  V30 10097 O 929.086 -1.22251 -1.53074 0
M  V30 10098 H 927.666 -0.696417 0.270208 0
M  V30 10099 H 930.328 -1.43912 1.31435 0
M  V30 10100 H 929.424 -2.94222 1.04115 0
M  V30 10101 N 929.725 -0.817259 -1.34754 0
M  V30 10102 C 930.672 -0.233108 -2.2962 0
M  V30 10103 C 931.642 0.638902 -1.53321 0
M  V30 10104 O 932.827 0.581739 -1.81715 0
M  V30 10105 C 929.967 0.603659 -3.39779 0
M  V30 10106 C 929.08 -0.289967 -4.31026 0
M  V30 10107 C 928.215 0.555825 -5.28284 0
M  V30 10108 C 927.254 -0.337539 -6.11169 0
M  V30 10109 N 926.391 0.468847 -7.00533 0
M  V30 10110 H 931.231 -1.04747 -2.78984 0
M  V30 10111 H 928.768 -0.528056 -1.37295 0
M  V30 10112 H 930.726 1.10407 -4.02326 0
M  V30 10113 H 929.356 1.38319 -2.91664 0
M  V30 10114 H 928.408 -0.908552 -3.69391 0
M  V30 10115 H 929.72 -0.977136 -4.89135 0
M  V30 10116 H 928.874 1.12094 -5.96255 0
M  V30 10117 H 927.613 1.27652 -4.70698 0
M  V30 10118 H 926.618 -0.914839 -5.42135 0
M  V30 10119 H 927.843 -1.05626 -6.70835 0
M  V30 10120 H 925.789 1.17332 -6.45422 0
M  V30 10121 H 925.706 -0.160052 -7.55831 0
M  V30 10122 H 926.974 1.01689 -7.72839 0
M  V30 10123 N 931.203 1.46865 -0.571711 0
M  V30 10124 C 932.433 2.06518 -0.0583129 0
M  V30 10125 C 932.841 1.4227 1.24723 0
M  V30 10126 O 932.184 0.518293 1.76237 0
M  V30 10127 C 932.246 3.5898 0.193214 0
M  V30 10128 C 931.91 4.45355 -1.02507 0
M  V30 10129 C 932.907 4.82575 -1.93435 0
M  V30 10130 C 930.592 4.86656 -1.24382 0
M  V30 10131 C 932.586 5.59912 -3.04595 0
M  V30 10132 C 930.273 5.63754 -2.35849 0
M  V30 10133 C 931.271 6.00294 -3.25785 0
M  V30 10134 O 930.959 6.75836 -4.35318 0
M  V30 10135 H 930.691 0.674188 -0.0494584 0
M  V30 10136 H 933.245 1.89644 -0.788934 0
M  V30 10137 H 931.475 3.7412 0.978319 0
M  V30 10138 H 933.164 4.006 0.653769 0
M  V30 10139 H 933.93 4.51256 -1.77745 0
M  V30 10140 H 929.809 4.57672 -0.55292 0
M  V30 10141 H 933.353 5.88351 -3.74818 0
M  V30 10142 H 929.25 5.94487 -2.51506 0
M  V30 10143 H 930.018 6.94247 -4.33547 0
M  V30 10144 N 932.681 0.308908 1.54543 0
M  V30 10145 C 934.092 -0.182144 1.85809 0
M  V30 10146 C 934.443 -1.52796 1.23076 0
M  V30 10147 O 933.568 -2.09775 0.531358 0
M  V30 10148 C 934.163 -0.337275 3.37117 0
M  V30 10149 C 932.722 -0.772545 3.68387 0
M  V30 10150 C 931.869 0.114451 2.77064 0
M  V30 10151 H 934.82 0.529671 1.496 0
M  V30 10152 H 934.841 -1.17058 3.62046 0
M  V30 10153 H 934.353 0.642382 3.82747 0
M  V30 10154 H 932.454 -1.76247 3.2828 0
M  V30 10155 H 932.567 -0.586453 4.75497 0
M  V30 10156 H 930.931 -0.407581 2.51418 0
M  V30 10157 H 931.714 1.09061 3.25516 0
M  V30 10158 N 934.159 -1.57557 0.0367827 0
M  V30 10159 C 935.405 -1.92399 -0.641133 0
M  V30 10160 C 935.738 -0.914191 -1.71336 0
M  V30 10161 O 935.013 0.0619616 -1.94401 0
M  V30 10162 C 935.296 -3.37689 -1.25052 0
M  V30 10163 C 935.149 -4.4941 -0.187326 0
M  V30 10164 C 936.468 -3.8309 -2.16634 0
M  V30 10165 H 933.587 -0.699666 -0.231597 0
M  V30 10166 H 936.229 -1.89759 0.0956083 0
M  V30 10167 H 934.379 -3.40069 -1.87843 0
M  V30 10168 H 936.051 -4.59161 0.443736 0
M  V30 10169 H 934.294 -4.31065 0.486313 0
M  V30 10170 H 934.965 -5.48119 -0.653459 0
M  V30 10171 H 937.441 -3.82494 -1.63821 0
M  V30 10172 H 936.317 -4.85429 -2.56222 0
M  V30 10173 H 936.578 -3.19028 -3.06062 0
M  V30 10174 N 935.637 0.236453 -1.55816 0
M  V30 10175 C 936.886 0.960981 -1.77336 0
M  V30 10176 C 937.199 1.86085 -0.602641 0
M  V30 10177 O 938.405 2.62291 -0.701106 0
M  V30 10178 C 936.861 1.75884 -3.13995 0
M  V30 10179 C 936.469 0.905849 -4.38746 0
M  V30 10180 C 938.213 2.47548 -3.44848 0
M  V30 10181 C 936.12 1.7002 -5.66434 0
M  V30 10182 H 935.05 0.362547 -0.661117 0
M  V30 10183 H 937.701 0.215303 -1.82233 0
M  V30 10184 H 936.083 2.54687 -3.03234 0
M  V30 10185 H 937.257 0.159415 -4.60524 0
M  V30 10186 H 935.572 0.30205 -4.15303 0
M  V30 10187 H 938.169 3.07452 -4.37467 0
M  V30 10188 H 938.512 3.19689 -2.66655 0
M  V30 10189 H 939.045 1.75747 -3.56872 0
M  V30 10190 H 935.784 1.02234 -6.47479 0
M  V30 10191 H 935.304 2.42164 -5.48741 0
M  V30 10192 H 936.983 2.26469 -6.0607 0
M  V30 10193 N 937.115 1.49373 0.502552 0
M  V30 10194 C 938.362 1.58781 1.25678 0
M  V30 10195 C 938.69 0.273819 1.92563 0
M  V30 10196 O 937.945 -0.738141 1.81246 0
M  V30 10197 C 938.244 2.69508 2.34735 0
M  V30 10198 C 937.91 4.11057 1.85318 0
M  V30 10199 C 936.572 4.49578 1.7156 0
M  V30 10200 C 938.924 4.99653 1.48312 0
M  V30 10201 C 936.252 5.74469 1.19172 0
M  V30 10202 C 938.604 6.2506 0.97377 0
M  V30 10203 C 937.268 6.62412 0.822573 0
M  V30 10204 H 936.538 0.581021 0.459887 0
M  V30 10205 H 939.185 1.83197 0.557767 0
M  V30 10206 H 937.49 2.39057 3.10418 0
M  V30 10207 H 939.187 2.73997 2.92791 0
M  V30 10208 H 935.777 3.80651 1.96985 0
M  V30 10209 H 939.961 4.70549 1.57789 0
M  V30 10210 H 935.217 6.0211 1.06176 0
M  V30 10211 H 939.391 6.93089 0.678233 0
M  V30 10212 H 937.018 7.59069 0.414453 0
M  V30 10213 N 938.594 -0.753485 1.38421 0
M  V30 10214 C 939.541 -1.86723 1.35659 0
M  V30 10215 C 940.511 -1.64648 0.219121 0
M  V30 10216 O 941.696 -1.86313 0.411366 0
M  V30 10217 C 938.836 -3.24023 1.18758 0
M  V30 10218 C 937.949 -3.57928 2.41892 0
M  V30 10219 C 937.084 -4.84532 2.17721 0
M  V30 10220 C 936.123 -5.11224 3.36626 0
M  V30 10221 N 935.26 -6.29023 3.11889 0
M  V30 10222 H 940.1 -1.88419 2.30873 0
M  V30 10223 H 937.637 -0.920934 1.14705 0
M  V30 10224 H 939.595 -4.03252 1.06974 0
M  V30 10225 H 938.225 -3.21654 0.27182 0
M  V30 10226 H 937.277 -2.73541 2.64347 0
M  V30 10227 H 938.589 -3.73581 3.30513 0
M  V30 10228 H 937.743 -5.71704 2.03074 0
M  V30 10229 H 936.482 -4.71018 1.26465 0
M  V30 10230 H 935.487 -4.2252 3.51791 0
M  V30 10231 H 936.712 -5.26635 4.28757 0
M  V30 10232 H 934.658 -6.16832 2.2328 0
M  V30 10233 H 934.575 -6.45177 3.9406 0
M  V30 10234 H 935.843 -7.19083 3.00898 0
M  V30 10235 N 940.072 -1.23292 -0.981677 0
M  V30 10236 C 941.022 -0.980133 -2.05858 0
M  V30 10237 C 942.006 0.0734044 -1.60732 0
M  V30 10238 O 943.198 -0.138561 -1.76457 0
M  V30 10239 C 940.327 -0.571879 -3.38503 0
M  V30 10240 C 939.413 -1.66075 -3.90231 0
M  V30 10241 N 939.804 -2.89077 -4.15052 0
M  V30 10242 C 938.102 -1.53503 -4.18751 0
M  V30 10243 C 938.803 -3.59567 -4.5726 0
M  V30 10244 N 937.779 -2.87076 -4.61615 0
M  V30 10245 H 941.581 -1.91432 -2.23005 0
M  V30 10246 H 939.095 -1.13211 -1.16434 0
M  V30 10247 H 941.092 -0.372059 -4.15236 0
M  V30 10248 H 939.752 0.355278 -3.2275 0
M  V30 10249 H 940.763 -3.25395 -4.02912 0
M  V30 10250 H 937.44 -0.674891 -4.12009 0
M  V30 10251 H 938.83 -4.65007 -4.84993 0
M  V30 10252 N 941.55 1.18024 -1.04442 0
M  V30 10253 C 942.798 1.87727 -0.74854 0
M  V30 10254 C 943.119 1.80975 0.726156 0
M  V30 10255 O 942.389 1.23061 1.52423 0
M  V30 10256 H 940.969 0.694974 -0.273897 0
M  V30 10257 H 943.631 1.43213 -1.32197 0
M  V30 10258 H 942.727 2.93665 -1.05674 0
M  V30 10259 N 943.028 0.824394 1.34319 0
M  V30 10260 C 944.305 0.335692 1.92698 0
M  V30 10261 C 944.685 -1.17715 1.75232 0
M  V30 10262 O 944.033 -1.98493 1.13194 0
M  V30 10263 C 944.243 0.766647 3.40475 0
M  V30 10264 C 945.591 0.766323 4.17627 0
M  V30 10265 O 946.615 0.709321 3.49066 0
M  V30 10266 O 945.474 0.840856 5.39992 0
M  V30 10267 H 942.568 0.0919996 0.821867 0
M  V30 10268 H 945.114 0.909282 1.43283 0
M  V30 10269 H 943.886 1.80859 3.46995 0
M  V30 10270 H 943.509 0.168833 3.97241 0
M  V30 10271 N 944.506 -1.46559 0.579492 0
M  V30 10272 C 945.783 -1.956 -0.00287136 0
M  V30 10273 C 946.163 -1.52215 -1.46266 0
M  V30 10274 O 945.511 -0.771335 -2.15088 0
M  V30 10275 C 945.721 -3.48606 0.165824 0
M  V30 10276 C 947.069 -4.24588 0.0319807 0
M  V30 10277 O 948.093 -3.56075 0.094496 0
M  V30 10278 O 946.952 -5.46396 -0.106386 0
M  V30 10279 H 944.046 -0.825387 -0.0516274 0
M  V30 10280 H 946.592 -1.56858 0.647584 0
M  V30 10281 H 945.364 -3.7306 1.18076 0
M  V30 10282 H 944.987 -3.94169 -0.521212 0
M  V30 10283 N 945.984 -0.3171 -1.54377 0
M  V30 10284 C 946.914 0.544623 -2.2706 0
M  V30 10285 C 947.895 1.12469 -1.27611 0
M  V30 10286 O 949.08 1.15103 -1.56413 0
M  V30 10287 C 946.21 1.70879 -3.02353 0
M  V30 10288 C 945.164 1.25833 -4.09084 0
M  V30 10289 C 944.49 2.50894 -4.72182 0
M  V30 10290 C 945.79 0.377876 -5.20931 0
M  V30 10291 H 947.484 -0.0616372 -2.99337 0
M  V30 10292 H 945.03 -0.0310848 -1.43966 0
M  V30 10293 H 946.983 2.31787 -3.51927 0
M  V30 10294 H 945.707 2.34155 -2.27682 0
M  V30 10295 H 944.366 0.672228 -3.60384 0
M  V30 10296 H 944.014 3.12518 -3.94134 0
M  V30 10297 H 943.714 2.21447 -5.44275 0
M  V30 10298 H 945.238 3.12575 -5.24528 0
M  V30 10299 H 946.652 0.893056 -5.66302 0
M  V30 10300 H 945.049 0.176474 -5.9984 0
M  V30 10301 H 946.119 -0.592943 -4.81261 0
M  V30 10302 N 947.462 1.57535 -0.0451378 0
M  V30 10303 C 948.878 1.56533 0.311373 0
M  V30 10304 C 949.078 1.05225 1.71843 0
M  V30 10305 O 948.134 0.706144 2.42425 0
M  V30 10306 C 949.447 3.00349 0.145348 0
M  V30 10307 C 950.995 3.12248 0.216908 0
M  V30 10308 C 951.47 4.57931 0.0794834 0
M  V30 10309 N 952.961 4.63 0.135954 0
M  V30 10310 C 953.696 5.73375 0.0536426 0
M  V30 10311 N 953.192 6.92753 -0.0806725 0
M  V30 10312 N 954.985 5.61995 0.108789 0
M  V30 10313 H 947.136 1.89211 -0.965044 0
M  V30 10314 H 949.399 0.871068 -0.374091 0
M  V30 10315 H 949.105 3.41898 -0.824533 0
M  V30 10316 H 948.979 3.66086 0.908903 0
M  V30 10317 H 951.366 2.70601 1.17726 0
M  V30 10318 H 951.447 2.49201 -0.577299 0
M  V30 10319 H 951.091 5.00262 -0.877516 0
M  V30 10320 H 951.021 5.18977 0.892758 0
M  V30 10321 H 953.512 3.77142 0.23926 0
M  V30 10322 H 953.825 7.7268 -0.136351 0
M  V30 10323 H 952.17 6.94904 -0.115675 0
M  V30 10324 H 955.361 4.67619 0.212235 0
M  V30 10325 H 955.534 6.47987 0.0411822 0
M  V30 10326 N 948.94 -0.228186 1.55939 0
M  V30 10327 C 949.872 -1.30605 1.88348 0
M  V30 10328 C 950.885 -1.43375 0.771198 0
M  V30 10329 O 952.074 -1.44391 1.04945 0
M  V30 10330 C 949.174 -2.68248 2.07115 0
M  V30 10331 C 948.347 -2.77509 3.38094 0
M  V30 10332 C 947.406 -3.96121 3.46373 0
M  V30 10333 O 946.432 -3.8477 4.19453 0
M  V30 10334 N 947.634 -5.10132 2.77031 0
M  V30 10335 H 950.399 -1.03132 2.81396 0
M  V30 10336 H 947.96 -0.418245 1.56404 0
M  V30 10337 H 949.952 -3.45966 2.09976 0
M  V30 10338 H 948.522 -2.88348 1.20723 0
M  V30 10339 H 947.742 -1.8632 3.47388 0
M  V30 10340 H 949.03 -2.80662 4.2439 0
M  V30 10341 H 948.428 -5.22249 2.17424 0
M  V30 10342 H 946.985 -5.85916 2.85561 0
M  V30 10343 N 950.418 -1.49637 -0.494624 0
M  V30 10344 C 951.695 -1.4995 -1.25596 0
M  V30 10345 C 952.075 -0.230805 -2.09834 0
M  V30 10346 O 951.423 0.786625 -2.14533 0
M  V30 10347 C 951.633 -2.78204 -2.10721 0
M  V30 10348 C 952.981 -3.27946 -2.69698 0
M  V30 10349 O 954.005 -2.79365 -2.20984 0
M  V30 10350 O 952.864 -4.12571 -3.58395 0
M  V30 10351 H 949.958 -0.60044 -0.568684 0
M  V30 10352 H 952.504 -1.61906 -0.508371 0
M  V30 10353 H 951.276 -3.62029 -1.48494 0
M  V30 10354 H 950.899 -2.69139 -2.92661 0
M  V30 10355 N 951.896 0.746133 -1.38819 0
M  V30 10356 C 952.828 1.86991 -1.3254 0
M  V30 10357 C 953.841 1.61077 -0.236216 0
M  V30 10358 O 955.03 1.71518 -0.494341 0
M  V30 10359 C 952.13 3.22786 -1.03258 0
M  V30 10360 C 951.303 3.76145 -2.23234 0
M  V30 10361 C 950.362 4.90474 -1.90581 0
M  V30 10362 O 949.388 5.04717 -2.63153 0
M  V30 10363 N 950.59 5.74015 -0.86525 0
M  V30 10364 H 953.355 1.92885 -2.2938 0
M  V30 10365 H 950.916 0.926392 -1.32776 0
M  V30 10366 H 952.908 3.96824 -0.794533 0
M  V30 10367 H 951.478 3.12231 -0.151895 0
M  V30 10368 H 950.698 2.93587 -2.63059 0
M  V30 10369 H 951.986 4.08528 -3.03285 0
M  V30 10370 H 951.384 5.65086 -0.263577 0
M  V30 10371 H 949.941 6.48168 -0.687087 0
M  V30 10372 N 953.375 1.23811 0.975125 0
M  V30 10373 C 954.305 1.04846 2.08638 0
M  V30 10374 C 955.286 -0.0362859 1.70061 0
M  V30 10375 O 956.471 0.12937 1.93769 0
M  V30 10376 C 953.601 0.644534 3.41267 0
M  V30 10377 C 952.555 1.67722 3.93768 0
M  V30 10378 C 951.881 1.12857 5.22654 0
M  V30 10379 C 953.181 3.07147 4.22443 0
M  V30 10380 H 954.875 1.97795 2.24761 0
M  V30 10381 H 952.421 0.952397 1.08006 0
M  V30 10382 H 954.374 0.498887 4.18436 0
M  V30 10383 H 953.098 -0.320641 3.25022 0
M  V30 10384 H 951.757 1.81095 3.18748 0
M  V30 10385 H 951.405 0.154227 5.02764 0
M  V30 10386 H 951.105 1.81862 5.58749 0
M  V30 10387 H 952.629 0.994891 6.0244 0
M  V30 10388 H 954.043 2.97045 4.90344 0
M  V30 10389 H 952.44 3.73437 4.6975 0
M  V30 10390 H 953.51 3.55743 3.29507 0
M  V30 10391 N 954.853 -1.17469 1.05066 0
M  V30 10392 C 956.102 -1.87032 0.755114 0
M  V30 10393 C 956.415 -1.81844 -0.720572 0
M  V30 10394 O 957.621 -2.46866 -1.13002 0
M  V30 10395 C 956.077 -3.35581 1.30052 0
M  V30 10396 C 955.685 -3.49274 2.80556 0
M  V30 10397 C 957.429 -4.1048 1.08196 0
M  V30 10398 C 955.336 -4.91838 3.28404 0
M  V30 10399 H 954.266 -0.70057 0.278779 0
M  V30 10400 H 956.917 -1.32663 1.26779 0
M  V30 10401 H 955.299 -3.89479 0.715667 0
M  V30 10402 H 956.473 -3.05598 3.44886 0
M  V30 10403 H 954.788 -2.87793 3.00939 0
M  V30 10404 H 957.385 -5.15652 1.41447 0
M  V30 10405 H 957.728 -4.16295 0.0196603 0
M  V30 10406 H 958.261 -3.62784 1.63195 0
M  V30 10407 H 955 -4.91196 4.34058 0
M  V30 10408 H 954.52 -5.36189 2.68815 0
M  V30 10409 H 956.199 -5.60602 3.23009 0
M  V30 10410 N 956.331 -0.831506 -1.3388 0
M  V30 10411 C 957.261 -0.274378 -2.31882 0
M  V30 10412 C 958.242 0.613872 -1.58637 0
M  V30 10413 O 959.427 0.538961 -1.86571 0
M  V30 10414 C 956.557 0.557498 -3.42796 0
M  V30 10415 C 955.511 -0.234337 -4.27358 0
M  V30 10416 C 954.837 0.720825 -5.29819 0
M  V30 10417 C 956.137 -1.44732 -5.01847 0
M  V30 10418 H 957.831 -1.09322 -2.78728 0
M  V30 10419 H 955.377 -0.527136 -1.34005 0
M  V30 10420 H 957.33 0.957501 -4.10378 0
M  V30 10421 H 956.054 1.40947 -2.94621 0
M  V30 10422 H 954.713 -0.61581 -3.61391 0
M  V30 10423 H 954.361 1.569 -4.77903 0
M  V30 10424 H 954.061 0.195171 -5.87276 0
M  V30 10425 H 955.585 1.1185 -6.00268 0
M  V30 10426 H 956.999 -1.12087 -5.62236 0
M  V30 10427 H 955.396 -1.90923 -5.68919 0
M  V30 10428 H 956.466 -2.22099 -4.31045 0
M  V30 10429 N 957.809 1.4625 -0.587256 0
M  V30 10430 C 958.741 2.28482 0.181256 0
M  V30 10431 C 959.754 1.38777 0.851163 0
M  V30 10432 O 960.943 1.63336 0.719963 0
M  V30 10433 C 958.043 3.13944 1.27643 0
M  V30 10434 C 957.216 4.31802 0.697569 0
M  V30 10435 C 956.275 4.98626 1.68102 0
M  V30 10436 O 955.301 5.56075 1.21529 0
M  V30 10437 N 956.503 4.96051 3.0152 0
M  V30 10438 H 959.268 2.95079 -0.524267 0
M  V30 10439 H 956.829 1.56213 -0.425336 0
M  V30 10440 H 958.821 3.55513 1.93371 0
M  V30 10441 H 957.391 2.49391 1.88475 0
M  V30 10442 H 956.611 3.93961 -0.137293 0
M  V30 10443 H 957.899 5.07969 0.290696 0
M  V30 10444 H 957.297 4.5063 3.41978 0
M  V30 10445 H 955.854 5.41547 3.62725 0
M  V30 10446 N 959.287 0.325282 1.54207 0
M  V30 10447 C 960.536 -0.27768 1.99779 0
M  V30 10448 C 960.849 -1.5311 1.21723 0
M  V30 10449 O 962.055 -2.21017 1.57682 0
M  V30 10450 C 960.511 -0.545329 3.55745 0
M  V30 10451 C 960.119 0.691143 4.42637 0
M  V30 10452 C 961.863 -1.10815 4.09781 0
M  V30 10453 C 959.77 0.395302 5.90077 0
M  V30 10454 H 958.7 -0.107536 0.746292 0
M  V30 10455 H 961.351 0.437773 1.78202 0
M  V30 10456 H 959.733 -1.32101 3.73317 0
M  V30 10457 H 960.907 1.46653 4.3684 0
M  V30 10458 H 959.222 1.1743 3.99499 0
M  V30 10459 H 961.819 -1.34414 5.1753 0
M  V30 10460 H 962.162 -2.05806 3.6187 0
M  V30 10461 H 962.695 -0.393608 3.95848 0
M  V30 10462 H 959.434 1.31443 6.42186 0
M  V30 10463 H 958.954 -0.34235 5.98822 0
M  V30 10464 H 960.633 0.00576877 6.47 0
M  V30 10465 N 960.765 -1.57509 0.0534917 0
M  V30 10466 C 962.014 -1.91959 -0.619244 0
M  V30 10467 C 962.327 -0.933882 -1.71866 0
M  V30 10468 O 963.533 -1.17052 -2.44972 0
M  V30 10469 C 961.989 -3.40938 -1.15278 0
M  V30 10470 C 961.597 -4.47919 -0.085348 0
M  V30 10471 C 963.341 -3.84419 -1.80063 0
M  V30 10472 C 961.248 -5.88014 -0.631897 0
M  V30 10473 H 960.178 -0.71642 -0.235072 0
M  V30 10474 H 962.829 -1.83089 0.122758 0
M  V30 10475 H 961.211 -3.44821 -1.94717 0
M  V30 10476 H 962.385 -4.55629 0.688374 0
M  V30 10477 H 960.7 -4.13793 0.465178 0
M  V30 10478 H 963.297 -4.86457 -2.21954 0
M  V30 10479 H 963.64 -3.20791 -2.65328 0
M  V30 10480 H 964.173 -3.83062 -1.07275 0
M  V30 10481 H 960.912 -6.55244 0.183175 0
M  V30 10482 H 960.432 -5.83861 -1.37355 0
M  V30 10483 H 962.111 -6.37336 -1.11407 0
M  V30 10484 N 962.243 0.219913 -1.56058 0
M  V30 10485 C 963.468 0.965073 -1.83579 0
M  V30 10486 C 963.893 1.77092 -0.634024 0
M  V30 10487 O 963.251 1.76434 0.417205 0
M  V30 10488 C 963.299 1.85705 -3.09105 0
M  V30 10489 O 962.403 2.95261 -2.87914 0
M  V30 10490 H 961.744 0.273173 -0.605204 0
M  V30 10491 H 964.274 0.23273 -2.03272 0
M  V30 10492 H 964.284 2.26655 -3.39252 0
M  V30 10493 H 962.959 1.26476 -3.96203 0
M  V30 10494 H 961.536 2.58246 -2.69005 0
M  V30 10495 N 963.721 1.49897 0.486681 0
M  V30 10496 C 964.651 1.7054 1.59494 0
M  V30 10497 C 965.632 0.554184 1.60819 0
M  V30 10498 O 966.817 0.791617 1.77333 0
M  V30 10499 C 963.947 1.78517 2.97908 0
M  V30 10500 C 962.901 2.93571 3.11449 0
M  V30 10501 C 962.227 2.86674 4.51356 0
M  V30 10502 C 963.527 4.34308 2.90127 0
M  V30 10503 H 965.221 2.63329 1.42472 0
M  V30 10504 H 962.767 1.2672 0.683969 0
M  V30 10505 H 964.72 1.91544 3.75352 0
M  V30 10506 H 963.444 0.823381 3.16051 0
M  V30 10507 H 962.103 2.80169 2.36433 0
M  V30 10508 H 961.751 1.88373 4.66395 0
M  V30 10509 H 961.451 3.63903 4.61355 0
M  V30 10510 H 962.975 3.01728 5.30841 0
M  V30 10511 H 964.389 4.48317 3.57331 0
M  V30 10512 H 962.786 5.12869 3.11585 0
M  V30 10513 H 963.856 4.47759 1.86119 0
M  V30 10514 N 965.199 -0.738761 1.39212 0
M  V30 10515 C 966.132 -1.86135 1.32018 0
M  V30 10516 C 967.11 -1.61432 0.194512 0
M  V30 10517 O 968.294 -1.84746 0.374331 0
M  V30 10518 C 965.421 -3.22044 1.04907 0
M  V30 10519 C 964.467 -3.65612 2.19613 0
M  V30 10520 S 965.3 -3.75418 3.81866 0
M  V30 10521 C 966.456 -5.14122 3.56972 0
M  V30 10522 H 966.689 -1.91954 2.27027 0
M  V30 10523 H 964.222 -0.903244 1.25223 0
M  V30 10524 H 966.18 -4.00524 0.899491 0
M  V30 10525 H 964.841 -3.13886 0.115918 0
M  V30 10526 H 964.034 -4.64232 1.96227 0
M  V30 10527 H 963.636 -2.94327 2.30755 0
M  V30 10528 H 965.928 -6.00339 3.14005 0
M  V30 10529 H 966.871 -5.42535 4.55039 0
M  V30 10530 H 967.279 -4.8362 2.91156 0
M  V30 10531 N 966.677 -1.24326 -0.968545 0
M  V30 10532 C 967.954 -0.990459 -1.68669 0
M  V30 10533 C 968.334 0.487487 -2.05394 0
M  V30 10534 O 967.682 1.46158 -1.75642 0
M  V30 10535 C 967.892 -1.91251 -2.91931 0
M  V30 10536 C 969.24 -2.18291 -3.6419 0
M  V30 10537 O 970.264 -1.88897 -3.01987 0
M  V30 10538 O 969.123 -2.68204 -4.76161 0
M  V30 10539 H 966.217 -0.374515 -0.737338 0
M  V30 10540 H 968.763 -1.35421 -1.02271 0
M  V30 10541 H 967.535 -2.9111 -2.61478 0
M  V30 10542 H 967.158 -1.55188 -3.66064 0
M  V30 10543 N 968.156 1.1691 -1.05688 0
M  V30 10544 C 969.103 2.21095 -0.662246 0
M  V30 10545 C 970.073 1.62623 0.338083 0
M  V30 10546 O 971.258 1.89428 0.228362 0
M  V30 10547 C 968.398 3.45066 -0.0484018 0
M  V30 10548 C 967.511 4.17809 -1.09817 0
M  V30 10549 C 966.646 5.29281 -0.451114 0
M  V30 10550 C 965.685 5.93817 -1.48484 0
M  V30 10551 N 964.822 6.96793 -0.861588 0
M  V30 10552 H 969.662 2.54204 -1.55513 0
M  V30 10553 H 967.199 1.24863 -0.777665 0
M  V30 10554 H 969.157 4.15932 0.324978 0
M  V30 10555 H 967.787 3.12526 0.807918 0
M  V30 10556 H 966.839 3.45608 -1.58932 0
M  V30 10557 H 968.151 4.61907 -1.88265 0
M  V30 10558 H 967.305 6.06695 -0.0244251 0
M  V30 10559 H 966.044 4.8633 0.365306 0
M  V30 10560 H 965.049 5.1513 -1.92149 0
M  V30 10561 H 966.274 6.38848 -2.30325 0
M  V30 10562 H 964.22 6.55967 -0.0657688 0
M  V30 10563 H 964.137 7.39229 -1.58354 0
M  V30 10564 H 965.405 7.78142 -0.45984 0
M  V30 10565 N 969.634 0.838594 1.33437 0
M  V30 10566 C 970.564 0.286672 2.31734 0
M  V30 10567 C 971.545 -0.605451 1.5896 0
M  V30 10568 O 972.73 -0.529059 1.86854 0
M  V30 10569 C 969.86 -0.539311 3.43087 0
M  V30 10570 C 968.814 0.256997 4.27228 0
M  V30 10571 C 968.14 -0.692718 5.30194 0
M  V30 10572 C 969.44 1.47391 5.01072 0
M  V30 10573 H 971.134 1.10798 2.78144 0
M  V30 10574 H 968.68 0.534235 1.33723 0
M  V30 10575 H 970.633 -0.935724 4.1088 0
M  V30 10576 H 969.357 -1.39383 2.95364 0
M  V30 10577 H 968.016 0.634967 3.61059 0
M  V30 10578 H 967.664 -1.54363 4.78729 0
M  V30 10579 H 967.364 -0.164023 5.87371 0
M  V30 10580 H 968.888 -1.08665 6.00853 0
M  V30 10581 H 970.302 1.15067 5.61634 0
M  V30 10582 H 968.699 1.93937 5.67898 0
M  V30 10583 H 969.769 2.24382 4.29861 0
M  V30 10584 N 971.112 -1.45937 0.595003 0
M  V30 10585 C 972.042 -2.33198 -0.11871 0
M  V30 10586 C 973.023 -1.46083 -0.871423 0
M  V30 10587 O 974.208 -1.74879 -0.844461 0
M  V30 10588 C 971.338 -3.28576 -1.12495 0
M  V30 10589 C 970.292 -4.25229 -0.486275 0
M  V30 10590 C 969.618 -5.10204 -1.59986 0
M  V30 10591 C 970.918 -5.19019 0.584473 0
M  V30 10592 H 972.612 -2.93122 0.609886 0
M  V30 10593 H 970.158 -1.40951 0.294742 0
M  V30 10594 H 972.111 -3.88485 -1.6327 0
M  V30 10595 H 970.835 -2.66784 -1.88398 0
M  V30 10596 H 969.494 -3.666 0.000507962 0
M  V30 10597 H 969.142 -4.44789 -2.34886 0
M  V30 10598 H 968.842 -5.75669 -1.1781 0
M  V30 10599 H 970.366 -5.7298 -2.11014 0
M  V30 10600 H 971.78 -5.73073 0.161297 0
M  V30 10601 H 970.177 -5.92893 0.927256 0
M  V30 10602 H 971.247 -4.62208 1.46601 0
M  V30 10603 N 972.59 -0.333456 -1.54032 0
M  V30 10604 C 974.006 0.0188405 -1.59589 0
M  V30 10605 C 974.206 1.49615 -1.34972 0
M  V30 10606 O 973.262 2.2535 -1.13901 0
M  V30 10607 C 974.575 -0.408273 -2.97915 0
M  V30 10608 C 976.123 -0.359763 -3.10926 0
M  V30 10609 C 976.598 -0.76219 -4.51613 0
M  V30 10610 N 978.089 -0.715981 -4.57633 0
M  V30 10611 C 978.824 -0.999436 -5.64623 0
M  V30 10612 N 978.32 -1.35053 -6.79509 0
M  V30 10613 N 980.113 -0.924343 -5.54448 0
M  V30 10614 H 972.264 -1.29587 -1.68289 0
M  V30 10615 H 974.527 -0.527584 -0.787629 0
M  V30 10616 H 974.233 -1.43793 -3.20962 0
M  V30 10617 H 974.107 0.221685 -3.76548 0
M  V30 10618 H 976.494 0.660703 -2.87609 0
M  V30 10619 H 976.575 -1.02479 -2.34375 0
M  V30 10620 H 976.219 -1.78062 -4.75664 0
M  V30 10621 H 976.149 -0.0747478 -5.26547 0
M  V30 10622 H 978.64 -0.456875 -3.75128 0
M  V30 10623 H 978.953 -1.55194 -7.57057 0
M  V30 10624 H 977.298 -1.38889 -6.80981 0
M  V30 10625 H 980.489 -0.649469 -4.63573 0
M  V30 10626 H 980.662 -1.1486 -6.37739 0
M  V30 10627 N 974.068 1.57479 -0.061844 0
M  V30 10628 C 975.015 2.12152 0.908862 0
M  V30 10629 C 975.985 1.03152 1.30188 0
M  V30 10630 O 977.17 1.3076 1.38948 0
M  V30 10631 C 974.31 2.6796 2.17465 0
M  V30 10632 C 973.423 3.91083 1.83517 0
M  V30 10633 C 972.558 4.35169 3.04633 0
M  V30 10634 C 971.597 5.50964 2.66655 0
M  V30 10635 N 970.734 5.90055 3.80499 0
M  V30 10636 H 975.574 2.94797 0.435743 0
M  V30 10637 H 973.111 1.45686 0.203445 0
M  V30 10638 H 975.069 2.98421 2.91548 0
M  V30 10639 H 973.699 1.88096 2.62335 0
M  V30 10640 H 972.751 3.67146 0.995381 0
M  V30 10641 H 974.063 4.75214 1.51569 0
M  V30 10642 H 973.217 4.67239 3.87005 0
M  V30 10643 H 971.956 3.49871 3.39767 0
M  V30 10644 H 970.961 5.18556 1.82703 0
M  V30 10645 H 972.186 6.37986 2.32702 0
M  V30 10646 H 970.132 5.07708 4.15414 0
M  V30 10647 H 970.049 6.68903 3.52285 0
M  V30 10648 H 971.317 6.26744 4.63479 0
M  V30 10649 N 975.546 -0.211634 1.56173 0
M  V30 10650 C 976.456 -1.2831 1.96402 0
M  V30 10651 C 977.472 -1.50731 0.869254 0
M  V30 10652 O 978.648 -1.63669 1.17365 0
M  V30 10653 C 975.713 -2.61084 2.28114 0
M  V30 10654 C 974.774 -2.46879 3.51211 0
M  V30 10655 C 974.007 -3.73321 3.81401 0
M  V30 10656 O 974.23 -4.76773 3.13119 0
M  V30 10657 O 973.164 -3.69839 4.74871 0
M  V30 10658 H 976.99 -0.971733 2.87734 0
M  V30 10659 H 974.575 -0.415305 1.43512 0
M  V30 10660 H 976.457 -3.39481 2.49661 0
M  V30 10661 H 975.132 -2.91881 1.39954 0
M  V30 10662 H 974.039 -1.66648 3.34932 0
M  V30 10663 H 975.372 -2.21018 4.39786 0
M  V30 10664 N 977.024 -1.50153 -0.478725 0
M  V30 10665 C 977.972 -1.68975 -1.59844 0
M  V30 10666 C 978.966 -0.555591 -1.6003 0
M  V30 10667 O 980.172 -0.735875 -1.64271 0
M  V30 10668 H 976.547 -0.533211 -0.530274 0
M  V30 10669 H 978.518 -2.62917 -1.41128 0
M  V30 10670 C 977.267 -1.79409 -2.97838 0
M  V30 10671 H 976.59 -2.66066 -2.98411 0
M  V30 10672 H 978.03 -1.96606 -3.75662 0
M  V30 10673 C 976.489 -0.543927 -3.3248 0
M  V30 10674 O 977.019 0.320376 -4.0042 0
M  V30 10675 N 975.225 -0.400217 -2.87831 0
M  V30 10676 H 974.772 -1.10458 -2.32716 0
M  V30 10677 H 974.73 0.435111 -3.11375 0
M  V30 10678 N 978.502 0.731368 -1.39602 0
M  V30 10679 C 979.432 1.85855 -1.41351 0
M  V30 10680 C 980.413 1.67839 -0.2764 0
M  V30 10681 O 981.598 1.88104 -0.482747 0
M  V30 10682 C 978.728 3.23644 -1.25983 0
M  V30 10683 C 977.682 3.56304 -2.37132 0
M  V30 10684 C 977.008 4.93069 -2.0685 0
M  V30 10685 C 978.308 3.58906 -3.79452 0
M  V30 10686 H 980.002 1.84648 -2.3568 0
M  V30 10687 H 977.548 0.886955 -1.13442 0
M  V30 10688 H 979.501 4.02176 -1.25826 0
M  V30 10689 H 978.225 3.25387 -0.281234 0
M  V30 10690 H 976.884 2.80104 -2.36511 0
M  V30 10691 H 976.532 4.91396 -1.0742 0
M  V30 10692 H 976.232 5.15888 -2.81306 0
M  V30 10693 H 977.756 5.73953 -2.0835 0
M  V30 10694 H 979.17 4.27508 -3.81982 0
M  V30 10695 H 977.567 3.93246 -4.53297 0
M  V30 10696 H 978.637 2.58631 -4.10168 0
M  V30 10697 N 979.98 1.24838 0.961938 0
M  V30 10698 C 981.257 0.99939 1.68141 0
M  V30 10699 C 981.637 -0.476588 2.0565 0
M  V30 10700 O 980.985 -1.45224 1.76415 0
M  V30 10701 C 981.195 1.92797 2.90913 0
M  V30 10702 C 982.543 2.20219 3.63027 0
M  V30 10703 O 983.567 1.90496 3.00981 0
M  V30 10704 O 982.426 2.70725 4.74731 0
M  V30 10705 H 979.52 0.37842 0.735342 0
M  V30 10706 H 982.066 1.35961 1.01551 0
M  V30 10707 H 980.838 2.92492 2.59931 0
M  V30 10708 H 980.461 1.57127 3.65235 0
M  V30 10709 N 981.458 -1.16348 1.06306 0
M  V30 10710 C 982.388 -2.2291 0.695234 0
M  V30 10711 C 983.369 -1.67208 -0.312343 0
M  V30 10712 O 984.554 -1.93293 -0.187442 0
M  V30 10713 C 981.684 -3.47205 0.0810149 0
M  V30 10714 C 980.638 -4.15801 1.01458 0
M  V30 10715 C 979.964 -5.3405 0.263656 0
M  V30 10716 C 981.264 -4.66766 2.34365 0
M  V30 10717 H 982.958 -2.53934 1.58613 0
M  V30 10718 H 980.504 -1.22056 0.76409 0
M  V30 10719 H 982.457 -4.2098 -0.18818 0
M  V30 10720 H 981.181 -3.15482 -0.844897 0
M  V30 10721 H 979.84 -3.43954 1.26852 0
M  V30 10722 H 979.488 -4.9858 -0.665378 0
M  V30 10723 H 979.188 -5.80885 0.88582 0
M  V30 10724 H 980.712 -6.106 0.00200994 0
M  V30 10725 H 982.126 -5.3212 2.13356 0
M  V30 10726 H 980.523 -5.24223 2.9208 0
M  V30 10727 H 981.593 -3.82969 2.97426 0
M  V30 10728 N 982.937 -0.845659 -1.3299 0
M  V30 10729 C 983.884 -0.281761 -2.29074 0
M  V30 10730 C 984.854 0.606237 -1.54641 0
M  V30 10731 O 986.039 0.543063 -1.82908 0
M  V30 10732 C 983.179 0.531451 -3.40983 0
M  V30 10733 C 982.292 -0.381328 -4.30314 0
M  V30 10734 C 981.427 0.443643 -5.29344 0
M  V30 10735 C 980.466 -0.467101 -6.10315 0
M  V30 10736 N 979.603 0.320148 -7.0137 0
M  V30 10737 H 984.443 -1.10641 -2.76699 0
M  V30 10738 H 981.98 -0.55706 -1.36144 0
M  V30 10739 H 983.938 1.01848 -4.04577 0
M  V30 10740 H 982.568 1.32101 -2.94532 0
M  V30 10741 H 981.62 -0.986701 -3.6738 0
M  V30 10742 H 982.932 -1.08067 -4.86953 0
M  V30 10743 H 982.086 0.994212 -5.98498 0
M  V30 10744 H 980.825 1.17639 -4.73299 0
M  V30 10745 H 979.83 -1.02963 -5.40073 0
M  V30 10746 H 981.055 -1.19832 -6.68444 0
M  V30 10747 H 979.001 1.03615 -6.47765 0
M  V30 10748 H 978.918 -0.320338 -7.55321 0
M  V30 10749 H 980.186 0.852735 -7.74822 0
M  V30 10750 N 984.415 1.45619 -0.602734 0
M  V30 10751 C 985.345 2.33258 0.106342 0
M  V30 10752 C 986.326 1.46543 0.863664 0
M  V30 10753 O 987.511 1.75324 0.835175 0
M  V30 10754 C 984.641 3.29168 1.10751 0
M  V30 10755 C 983.595 4.25481 0.463717 0
M  V30 10756 C 982.921 5.11046 1.57278 0
M  V30 10757 C 984.221 5.18702 -0.61199 0
M  V30 10758 H 985.915 2.92795 -0.625423 0
M  V30 10759 H 983.461 1.40793 -0.302213 0
M  V30 10760 H 985.414 3.89346 1.61208 0
M  V30 10761 H 984.138 2.6778 1.8698 0
M  V30 10762 H 982.797 3.66595 -0.0199496 0
M  V30 10763 H 982.445 4.46029 2.32524 0
M  V30 10764 H 982.145 5.76286 1.14755 0
M  V30 10765 H 983.669 5.74091 2.07972 0
M  V30 10766 H 985.083 5.72979 -0.191686 0
M  V30 10767 H 983.48 5.92393 -0.958686 0
M  V30 10768 H 984.55 4.61424 -1.4905 0
M  V30 10769 N 985.893 0.34162 1.53853 0
M  V30 10770 C 987.121 -0.256929 2.05299 0
M  V30 10771 C 987.536 -1.44366 1.21671 0
M  V30 10772 O 986.893 -1.80758 0.251584 0
M  V30 10773 C 986.944 -0.673854 3.55164 0
M  V30 10774 O 986.665 0.465687 4.35618 0
M  V30 10775 C 988.166 -1.33332 4.22773 0
M  V30 10776 H 985.386 -0.0499445 0.669139 0
M  V30 10777 H 987.93 0.493048 1.98467 0
M  V30 10778 H 986.085 -1.37378 3.62224 0
M  V30 10779 H 986.499 0.133723 5.2433 0
M  V30 10780 H 987.973 -1.57582 5.29029 0
M  V30 10781 H 988.45 -2.28628 3.75001 0
M  V30 10782 H 989.056 -0.675489 4.19901 0
M  V30 10783 N 987.371 -1.57444 0.0701946 0
M  V30 10784 C 988.782 -1.80875 -0.462709 0
M  V30 10785 C 989.133 -0.983975 -1.69742 0
M  V30 10786 O 988.258 -0.206027 -2.15417 0
M  V30 10787 C 988.853 -3.28062 -0.84623 0
M  V30 10788 C 987.412 -3.52345 -1.32401 0
M  V30 10789 C 986.559 -2.7558 -0.308399 0
M  V30 10790 H 989.51 -1.55917 0.295907 0
M  V30 10791 H 989.531 -3.40023 -1.70776 0
M  V30 10792 H 989.043 -3.88064 0.0526033 0
M  V30 10793 H 987.144 -2.97645 -2.24139 0
M  V30 10794 H 987.257 -4.6104 -1.30304 0
M  V30 10795 H 985.621 -2.4229 -0.785337 0
M  V30 10796 H 986.404 -3.38319 0.582679 0
M  V30 10797 N 988.849 0.203349 -1.56283 0
M  V30 10798 C 990.079 0.940061 -1.83974 0
M  V30 10799 C 990.487 1.77703 -0.649486 0
M  V30 10800 O 989.83 1.79487 0.391189 0
M  V30 10801 C 989.892 1.89249 -3.05655 0
M  V30 10802 C 989.556 1.23828 -4.39904 0
M  V30 10803 C 990.553 0.619231 -5.16199 0
M  V30 10804 C 988.238 1.2446 -4.86636 0
M  V30 10805 C 990.232 0.0152287 -6.37398 0
M  V30 10806 C 987.919 0.636764 -6.07773 0
M  V30 10807 C 988.917 0.0231481 -6.82996 0
M  V30 10808 O 988.605 -0.575187 -8.0184 0
M  V30 10809 H 988.337 0.280199 -0.615194 0
M  V30 10810 H 990.891 0.218111 -2.04239 0
M  V30 10811 H 989.121 2.65392 -2.81254 0
M  V30 10812 H 990.81 2.4963 -3.20062 0
M  V30 10813 H 991.576 0.606545 -4.81192 0
M  V30 10814 H 987.455 1.71161 -4.28048 0
M  V30 10815 H 990.999 -0.464333 -6.96053 0
M  V30 10816 H 986.896 0.646924 -6.4225 0
M  V30 10817 H 987.664 -0.471284 -8.17142 0
M  V30 10818 N 990.327 1.50405 0.470755 0
M  V30 10819 C 991.274 1.69293 1.56871 0
M  V30 10820 C 992.244 0.534248 1.57274 0
M  V30 10821 O 993.429 0.764855 1.74799 0
M  V30 10822 C 990.569 1.79338 2.94842 0
M  V30 10823 C 989.682 3.06709 3.04226 0
M  V30 10824 C 988.817 3.07548 4.33114 0
M  V30 10825 C 987.856 4.29372 4.36241 0
M  V30 10826 N 986.993 4.27949 5.56601 0
M  V30 10827 H 991.833 2.63029 1.40071 0
M  V30 10828 H 989.37 1.30386 0.681016 0
M  V30 10829 H 991.328 1.83143 3.74853 0
M  V30 10830 H 989.958 0.890411 3.10277 0
M  V30 10831 H 989.01 3.12374 2.17086 0
M  V30 10832 H 990.322 3.96684 3.02396 0
M  V30 10833 H 989.476 3.10084 5.21472 0
M  V30 10834 H 988.215 2.15404 4.37553 0
M  V30 10835 H 987.22 4.27048 3.4628 0
M  V30 10836 H 988.445 5.22743 4.33493 0
M  V30 10837 H 986.391 3.38658 5.61824 0
M  V30 10838 H 986.308 5.11692 5.56513 0
M  V30 10839 H 987.576 4.34631 6.47083 0
M  V30 10840 N 991.805 -0.723954 1.39988 0
M  V30 10841 C 993.051 -1.48591 1.38017 0
M  V30 10842 C 993.384 -1.94189 -0.0203522 0
M  V30 10843 O 992.659 -1.67572 -0.987422 0
M  V30 10844 C 992.942 -2.71786 2.36229 0
M  V30 10845 C 992.795 -2.32136 3.8527 0
M  V30 10846 C 994.114 -3.73921 2.32102 0
M  V30 10847 H 991.233 -0.538993 0.502648 0
M  V30 10848 H 993.875 -0.826908 1.71062 0
M  V30 10849 H 992.025 -3.28015 2.0818 0
M  V30 10850 H 993.697 -1.81454 4.24113 0
M  V30 10851 H 991.94 -1.64234 4.01509 0
M  V30 10852 H 992.611 -3.20406 4.49493 0
M  V30 10853 H 995.087 -3.27303 2.56928 0
M  V30 10854 H 993.963 -4.5777 3.02882 0
M  V30 10855 H 994.224 -4.21627 1.32979 0
M  V30 10856 N 993.283 -1.25346 -0.955304 0
M  V30 10857 C 994.213 -1.08152 -2.06943 0
M  V30 10858 C 995.194 0.00922598 -1.70097 0
M  V30 10859 O 996.379 -0.160181 -1.93538 0
M  V30 10860 C 993.509 -0.698745 -3.40198 0
M  V30 10861 C 992.463 -1.73965 -3.9105 0
M  V30 10862 C 991.789 -1.21158 -5.20792 0
M  V30 10863 C 993.089 -3.13829 -4.17503 0
M  V30 10864 H 994.783 -2.01345 -2.21586 0
M  V30 10865 H 992.329 -0.969459 -1.06478 0
M  V30 10866 H 994.282 -0.565394 -4.1759 0
M  V30 10867 H 993.006 0.268892 -3.25491 0
M  V30 10868 H 991.665 -1.86143 -3.15827 0
M  V30 10869 H 991.313 -0.234193 -5.02455 0
M  V30 10870 H 991.013 -1.90728 -5.55785 0
M  V30 10871 H 992.537 -1.09061 -6.00781 0
M  V30 10872 H 993.951 -3.04809 -4.85556 0
M  V30 10873 H 992.348 -3.80863 -4.63749 0
M  V30 10874 H 993.418 -3.6094 -3.23806 0
M  V30 10875 N 994.761 1.15782 -1.06922 0
M  V30 10876 C 995.724 2.18578 -0.689654 0
M  V30 10877 C 996.724 1.58553 0.267872 0
M  V30 10878 O 997.914 1.7413 0.0494097 0
M  V30 10879 C 995.046 3.40896 -0.0157919 0
M  V30 10880 H 996.239 2.53672 -1.59971 0
M  V30 10881 H 993.792 1.30168 -0.865214 0
M  V30 10882 H 994.527 3.11367 0.906712 0
M  V30 10883 H 994.312 3.85721 -0.704415 0
M  V30 10884 H 995.802 4.16937 0.235266 0
M  V30 10885 N 996.239 0.8527 1.3254 0
M  V30 10886 C 997.467 0.469044 2.01513 0
M  V30 10887 C 997.882 -0.933701 1.64096 0
M  V30 10888 O 997.239 -1.60898 0.861283 0
M  V30 10889 C 997.29 0.596228 3.56549 0
M  V30 10890 O 997.011 1.94371 3.92621 0
M  V30 10891 C 998.512 0.211324 4.42796 0
M  V30 10892 H 995.732 0.184589 0.645111 0
M  V30 10893 H 998.276 1.1491 1.69163 0
M  V30 10894 H 996.431 -0.0360712 3.87383 0
M  V30 10895 H 996.845 1.93909 4.87339 0
M  V30 10896 H 998.319 0.351324 5.50881 0
M  V30 10897 H 998.796 -0.848055 4.30935 0
M  V30 10898 H 999.402 0.818617 4.17347 0
M  V30 10899 N 997.718 -1.45297 0.610449 0
M  V30 10900 C 998.943 -2.07101 0.111414 0
M  V30 10901 C 999.368 -1.45161 -1.19625 0
M  V30 10902 O 998.726 -0.545368 -1.72903 0
M  V30 10903 C 998.774 -3.60598 -0.0117372 0
M  V30 10904 O 997.878 -3.98512 -1.06122 0
M  V30 10905 H 997.219 -0.659709 0.075364 0
M  V30 10906 H 999.749 -1.86504 0.841269 0
M  V30 10907 H 999.759 -4.07464 -0.209028 0
M  V30 10908 H 998.434 -4.05067 0.943076 0
M  V30 10909 H 997.011 -3.63312 -0.840158 0
M  V30 10910 N 999.196 -0.349774 -1.5367 0
M  V30 10911 C 1000.42 0.246038 -2.05432 0
M  V30 10912 C 1000.84 1.43719 -1.22435 0
M  V30 10913 O 1000.2 1.80622 -0.261166 0
M  V30 10914 C 1000.25 0.65501 -3.55516 0
M  V30 10915 O 999.968 -0.488782 -4.35365 0
M  V30 10916 C 1001.47 1.31088 -4.23475 0
M  V30 10917 H 998.689 0.0463952 -0.669394 0
M  V30 10918 H 1001.23 -0.503566 -1.98203 0
M  V30 10919 H 999.388 1.35455 -3.62947 0
M  V30 10920 H 999.802 -0.161528 -5.24251 0
M  V30 10921 H 1001.28 1.54774 -5.29857 0
M  V30 10922 H 1001.75 2.26636 -3.76208 0
M  V30 10923 H 1002.36 0.653211 -4.20254 0
M  V30 10924 N 1000.67 1.57404 -0.0785433 0
M  V30 10925 C 1001.62 2.13104 0.88631 0
M  V30 10926 C 1002.59 1.04527 1.29086 0
M  V30 10927 O 1003.78 1.32226 1.37553 0
M  V30 10928 C 1000.92 2.70252 2.14611 0
M  V30 10929 C 1000.03 3.93007 1.79358 0
M  V30 10930 C 999.164 4.38376 3 0
M  V30 10931 C 998.203 5.53761 2.60796 0
M  V30 10932 N 997.34 5.94058 3.74219 0
M  V30 10933 H 1002.18 2.95243 0.404452 0
M  V30 10934 H 999.717 1.45894 0.187982 0
M  V30 10935 H 1001.67 3.01497 2.88367 0
M  V30 10936 H 1000.3 1.90868 2.60326 0
M  V30 10937 H 999.357 3.68181 0.956384 0
M  V30 10938 H 1000.67 4.76795 1.4652 0
M  V30 10939 H 999.823 4.71317 3.82027 0
M  V30 10940 H 998.562 3.53455 3.36037 0
M  V30 10941 H 997.567 5.20464 1.77192 0
M  V30 10942 H 998.792 6.40419 2.25922 0
M  V30 10943 H 996.738 5.12085 4.10005 0
M  V30 10944 H 996.655 6.72602 3.45171 0
M  V30 10945 H 997.923 6.31624 4.56805 0
M  V30 10946 N 1002.15 -0.195058 1.56388 0
M  V30 10947 C 1003.1 -1.24584 1.90952 0
M  V30 10948 C 1004.09 -1.40993 0.77522 0
M  V30 10949 O 1005.28 -1.43363 1.03808 0
M  V30 10950 C 1002.41 -2.59064 2.25258 0
M  V30 10951 C 1001.49 -2.46447 3.45145 0
M  V30 10952 N 1001.88 -2.0351 4.63052 0
M  V30 10953 C 1000.18 -2.77339 3.49283 0
M  V30 10954 C 1000.88 -2.02785 5.45209 0
M  V30 10955 N 999.859 -2.4429 4.85616 0
M  V30 10956 H 1003.66 -0.9052 2.79613 0
M  V30 10957 H 1001.17 -0.403493 1.57308 0
M  V30 10958 H 1003.17 -3.34963 2.48205 0
M  V30 10959 H 1001.83 -2.93951 1.37924 0
M  V30 10960 H 1002.84 -1.74219 4.87717 0
M  V30 10961 H 999.52 -3.16423 2.72365 0
M  V30 10962 H 1000.91 -1.71489 6.49647 0
M  V30 10963 N 1003.63 -1.50653 -0.462772 0
M  V30 10964 C 1004.88 -1.61737 -1.21184 0
M  V30 10965 C 1005.2 -0.32369 -1.92295 0
M  V30 10966 O 1004.47 0.659269 -1.84473 0
M  V30 10967 H 1003.05 -0.596015 -0.450306 0
M  V30 10968 H 1005.71 -1.87469 -0.533051 0
M  V30 10969 H 1004.81 -2.43262 -1.95525 0
M  V30 10970 N 1005.11 0.71652 -1.4037 0
M  V30 10971 C 1006.36 1.47638 -1.38597 0
M  V30 10972 C 1006.68 1.94496 0.0120141 0
M  V30 10973 O 1005.94 1.68437 0.996373 0
M  V30 10974 C 1006.24 2.71777 -2.32103 0
M  V30 10975 C 1005.9 2.43689 -3.79376 0
M  V30 10976 C 1004.57 2.35739 -4.195 0
M  V30 10977 C 1006.92 2.20099 -4.72447 0
M  V30 10978 C 1004.25 2.02265 -5.50732 0
M  V30 10979 C 1006.6 1.88138 -6.03976 0
M  V30 10980 C 1005.26 1.78669 -6.43143 0
M  V30 10981 H 1004.53 0.540246 -0.507163 0
M  V30 10982 H 1007.18 0.820822 -1.73017 0
M  V30 10983 H 1005.48 3.42166 -1.90865 0
M  V30 10984 H 1007.18 3.29864 -2.28015 0
M  V30 10985 H 1003.77 2.50763 -3.47585 0
M  V30 10986 H 1007.95 2.25198 -4.42266 0
M  V30 10987 H 1003.21 1.93471 -5.79982 0
M  V30 10988 H 1007.38 1.68898 -6.75608 0
M  V30 10989 H 1005.01 1.52498 -7.44747 0
M  V30 10990 N 1006.59 1.25851 0.948643 0
M  V30 10991 C 1007.52 1.0108 2.04593 0
M  V30 10992 C 1008.5 -0.0619691 1.62482 0
M  V30 10993 O 1009.68 0.0789196 1.88335 0
M  V30 10994 C 1006.81 0.529174 3.34541 0
M  V30 10995 C 1005.85 1.59337 3.95618 0
M  V30 10996 S 1006.69 3.18026 4.30836 0
M  V30 10997 C 1007.84 2.71613 5.63895 0
M  V30 10998 H 1008.08 1.93988 2.2529 0
M  V30 10999 H 1005.61 1.09448 1.08906 0
M  V30 11000 H 1007.57 0.25795 4.09689 0
M  V30 11001 H 1006.23 -0.37951 3.11799 0
M  V30 11002 H 1005.42 1.20722 4.89328 0
M  V30 11003 H 1005.02 1.81559 3.26975 0
M  V30 11004 H 1007.32 2.15612 6.42275 0
M  V30 11005 H 1008.26 3.63986 6.07387 0
M  V30 11006 H 1008.67 2.11417 5.23415 0
M  V30 11007 N 1008.06 -1.15214 1.07534 0
M  V30 11008 C 1009 -2.19634 0.655261 0
M  V30 11009 C 1010.01 -1.60139 -0.293165 0
M  V30 11010 O 1011.2 -1.78311 -0.0821957 0
M  V30 11011 C 1008.3 -3.38851 -0.0578281 0
M  V30 11012 C 1007.47 -4.27888 0.90725 0
M  V30 11013 C 1006.53 -5.25692 0.231115 0
M  V30 11014 O 1005.56 -5.62469 0.872746 0
M  V30 11015 N 1006.76 -5.71424 -1.0225 0
M  V30 11016 H 1009.52 -2.56292 1.55353 0
M  V30 11017 H 1007.08 -1.30347 0.960271 0
M  V30 11018 H 1009.08 -4.01334 -0.520874 0
M  V30 11019 H 1007.65 -3.00593 -0.858071 0
M  V30 11020 H 1006.87 -3.62475 1.54937 0
M  V30 11021 H 1008.15 -4.84246 1.56151 0
M  V30 11022 H 1007.55 -5.43659 -1.56369 0
M  V30 11023 H 1006.11 -6.35938 -1.42919 0
M  V30 11024 N 1009.54 -0.859717 -1.32086 0
M  V30 11025 C 1010.79 -0.465581 -1.97075 0
M  V30 11026 C 1011.12 0.979917 -1.68012 0
M  V30 11027 O 1010.37 1.70337 -0.96353 0
M  V30 11028 C 1010.67 -0.657397 -3.51302 0
M  V30 11029 C 1010.34 -2.07413 -4.00363 0
M  V30 11030 C 1009 -2.4616 -4.13472 0
M  V30 11031 C 1011.35 -2.99855 -4.26305 0
M  V30 11032 C 1008.68 -3.76611 -4.49868 0
M  V30 11033 C 1011.03 -4.2981 -4.64161 0
M  V30 11034 C 1009.7 -4.68485 -4.75476 0
M  V30 11035 H 1008.97 -0.170368 -0.721149 0
M  V30 11036 H 1011.61 -1.09074 -1.57401 0
M  V30 11037 H 1009.92 0.0509638 -3.91767 0
M  V30 11038 H 1011.61 -0.332416 -3.9962 0
M  V30 11039 H 1008.2 -1.76327 -3.90649 0
M  V30 11040 H 1012.39 -2.7115 -4.15682 0
M  V30 11041 H 1007.64 -4.06352 -4.56824 0
M  V30 11042 H 1011.82 -5.015 -4.83188 0
M  V30 11043 H 1009.45 -5.69612 -5.03435 0
M  V30 11044 N 1011.02 1.44971 -0.618145 0
M  V30 11045 C 1012.27 2.01372 -0.115004 0
M  V30 11046 C 1012.58 1.49104 1.26599 0
M  V30 11047 O 1013.79 1.97549 1.86244 0
M  V30 11048 C 1012.24 3.59567 -0.154883 0
M  V30 11049 C 1011.85 4.20832 -1.53639 0
M  V30 11050 C 1013.6 4.23491 0.292468 0
M  V30 11051 C 1011.5 5.7121 -1.53208 0
M  V30 11052 H 1010.43 0.752979 -0.0392267 0
M  V30 11053 H 1013.08 1.66329 -0.775032 0
M  V30 11054 H 1011.47 3.91847 0.572001 0
M  V30 11055 H 1012.64 4.00109 -2.28582 0
M  V30 11056 H 1010.96 3.69143 -1.92672 0
M  V30 11057 H 1013.55 5.33771 0.315032 0
M  V30 11058 H 1013.9 3.9491 1.31725 0
M  V30 11059 H 1014.43 3.95967 -0.381493 0
M  V30 11060 H 1011.17 6.04506 -2.53481 0
M  V30 11061 H 1010.69 5.94094 -0.825387 0
M  V30 11062 H 1012.37 6.34606 -1.26032 0
M  V30 11063 N 1012.5 0.357919 1.53482 0
M  V30 11064 C 1013.43 -0.526753 2.23065 0
M  V30 11065 C 1014.44 -1.05239 1.24212 0
M  V30 11066 O 1015.63 -0.960078 1.50482 0
M  V30 11067 C 1012.73 -1.73919 2.9087 0
M  V30 11068 C 1011.91 -1.34638 4.16163 0
M  V30 11069 C 1010.96 -2.42005 4.67247 0
M  V30 11070 O 1009.99 -2.04714 5.31113 0
M  V30 11071 N 1011.19 -3.73478 4.44404 0
M  V30 11072 H 1013.96 0.0692386 2.9962 0
M  V30 11073 H 1011.52 0.182726 1.60866 0
M  V30 11074 H 1013.51 -2.45207 3.21956 0
M  V30 11075 H 1012.08 -2.24223 2.17814 0
M  V30 11076 H 1011.3 -0.463667 3.91464 0
M  V30 11077 H 1012.59 -1.06012 4.97633 0
M  V30 11078 H 1011.99 -4.06555 3.93357 0
M  V30 11079 H 1010.54 -4.40893 4.80059 0
M  V30 11080 N 1013.98 -1.5736 0.0868897 0
M  V30 11081 C 1015.2 -1.98809 -0.590757 0
M  V30 11082 C 1015.63 -0.965407 -1.61436 0
M  V30 11083 O 1014.98 0.067143 -1.81176 0
M  V30 11084 C 1015.03 -3.39249 -1.22238 0
M  V30 11085 O 1014.14 -3.39706 -2.33824 0
M  V30 11086 H 1013.48 -0.64669 -0.150626 0
M  V30 11087 H 1016.01 -2.03927 0.165873 0
M  V30 11088 H 1016.02 -3.76765 -1.56564 0
M  V30 11089 H 1014.69 -4.13208 -0.472434 0
M  V30 11090 H 1013.27 -3.13977 -2.01178 0
M  V30 11091 N 1015.45 0.186762 -1.56489 0
M  V30 11092 C 1016.7 0.907194 -1.81378 0
M  V30 11093 C 1017.03 1.82558 -0.662283 0
M  V30 11094 O 1016.31 1.91564 0.336699 0
M  V30 11095 C 1016.59 1.71624 -3.16571 0
M  V30 11096 C 1016.44 0.822009 -4.42225 0
M  V30 11097 C 1017.76 2.68713 -3.48542 0
M  V30 11098 H 1014.88 0.328366 -0.659806 0
M  V30 11099 H 1017.52 0.174142 -1.892 0
M  V30 11100 H 1015.67 2.34119 -3.10033 0
M  V30 11101 H 1017.35 0.211122 -4.60817 0
M  V30 11102 H 1015.59 0.129178 -4.33608 0
M  V30 11103 H 1016.26 1.42326 -5.33336 0
M  V30 11104 H 1018.74 2.16348 -3.55433 0
M  V30 11105 H 1017.61 3.22397 -4.44242 0
M  V30 11106 H 1017.87 3.48165 -2.72459 0
M  V30 11107 N 1016.93 1.50896 0.454776 0
M  V30 11108 C 1018.34 1.55372 1.0352 0
M  V30 11109 C 1018.69 0.366822 1.9274 0
M  V30 11110 O 1017.82 -0.518444 2.10098 0
M  V30 11111 C 1018.41 2.81574 1.88418 0
M  V30 11112 C 1016.97 2.88679 2.4154 0
M  V30 11113 C 1016.12 2.49847 1.20298 0
M  V30 11114 H 1019.07 1.56924 0.236729 0
M  V30 11115 H 1019.09 2.64352 2.73676 0
M  V30 11116 H 1018.6 3.67941 1.23455 0
M  V30 11117 H 1016.71 2.06702 3.10008 0
M  V30 11118 H 1016.82 3.91944 2.7553 0
M  V30 11119 H 1015.18 2.02651 1.54288 0
M  V30 11120 H 1015.97 3.3854 0.569723 0
M  V30 11121 N 1018.41 -0.709066 1.40748 0
M  V30 11122 C 1019.66 -1.47119 1.39585 0
M  V30 11123 C 1019.99 -1.942 0.000245323 0
M  V30 11124 O 1019.26 -1.68609 -0.969593 0
M  V30 11125 C 1019.55 -2.69266 2.39099 0
M  V30 11126 C 1019.4 -2.28037 3.8771 0
M  V30 11127 C 1020.72 -3.71438 2.36055 0
M  V30 11128 H 1017.84 -0.533632 0.508336 0
M  V30 11129 H 1020.48 -0.808718 1.7193 0
M  V30 11130 H 1018.63 -3.25788 2.11647 0
M  V30 11131 H 1020.3 -1.76946 4.26014 0
M  V30 11132 H 1018.55 -1.59966 4.03229 0
M  V30 11133 H 1019.22 -3.15621 4.52866 0
M  V30 11134 H 1021.69 -3.24559 2.60385 0
M  V30 11135 H 1020.57 -4.54532 3.07721 0
M  V30 11136 H 1020.83 -4.20193 1.37443 0
M  V30 11137 N 1019.89 -1.26353 -0.941956 0
M  V30 11138 C 1020.85 -1.07904 -2.02211 0
M  V30 11139 C 1021.85 -0.0276283 -1.60776 0
M  V30 11140 O 1023.04 -0.270965 -1.7208 0
M  V30 11141 C 1020.17 -0.641084 -3.34818 0
M  V30 11142 H 1021.37 -2.03804 -2.20009 0
M  V30 11143 H 1018.92 -1.08939 -1.12081 0
M  V30 11144 H 1019.66 0.319943 -3.22718 0
M  V30 11145 H 1019.44 -1.40027 -3.66244 0
M  V30 11146 H 1020.93 -0.533826 -4.14174 0
M  V30 11147 N 1021.37 1.14642 -1.08144 0
M  V30 11148 C 1022.28 2.23257 -0.720668 0
M  V30 11149 C 1023.29 1.71866 0.271648 0
M  V30 11150 O 1024.47 2.01064 0.116266 0
M  V30 11151 C 1021.53 3.46447 -0.132542 0
M  V30 11152 C 1020.6 4.12789 -1.17913 0
M  V30 11153 C 1019.83 5.30099 -0.618971 0
M  V30 11154 O 1020.05 5.6762 0.562418 0
M  V30 11155 O 1018.99 5.86154 -1.36774 0
M  V30 11156 H 1022.81 2.56463 -1.62667 0
M  V30 11157 H 1020.4 1.22521 -0.854932 0
M  V30 11158 H 1022.28 4.20959 0.19277 0
M  V30 11159 H 1020.95 3.14971 0.746662 0
M  V30 11160 H 1019.86 3.40163 -1.55693 0
M  V30 11161 H 1021.19 4.48365 -2.03051 0
M  V30 11162 N 1022.85 0.866709 1.31628 0
M  V30 11163 C 1024.09 0.476731 1.97117 0
M  V30 11164 C 1024.42 -0.967813 1.68366 0
M  V30 11165 O 1023.7 -1.68101 0.978377 0
M  V30 11166 C 1023.98 0.730561 3.52611 0
M  V30 11167 C 1023.84 2.2244 3.90948 0
M  V30 11168 C 1025.15 0.19488 4.39668 0
M  V30 11169 H 1022.27 0.174682 0.715999 0
M  V30 11170 H 1024.92 1.08735 1.5581 0
M  V30 11171 H 1023.07 0.210834 3.87927 0
M  V30 11172 H 1024.74 2.81113 3.6575 0
M  V30 11173 H 1022.98 2.69824 3.39673 0
M  V30 11174 H 1023.65 2.35266 4.99353 0
M  V30 11175 H 1026.13 0.639478 4.11157 0
M  V30 11176 H 1025 0.401958 5.47426 0
M  V30 11177 H 1025.26 -0.90302 4.32779 0
M  V30 11178 N 1024.32 -1.44642 0.625825 0
M  V30 11179 C 1025.25 -2.33397 -0.0692188 0
M  V30 11180 C 1026.23 -1.47898 -0.840241 0
M  V30 11181 O 1027.42 -1.7663 -0.807176 0
M  V30 11182 C 1024.55 -3.30888 -1.055 0
M  V30 11183 C 1023.5 -4.26164 -0.395968 0
M  V30 11184 C 1022.83 -5.13483 -1.49128 0
M  V30 11185 C 1024.13 -5.17663 0.694433 0
M  V30 11186 H 1025.82 -2.91763 0.671925 0
M  V30 11187 H 1023.37 -1.40294 0.324573 0
M  V30 11188 H 1025.32 -3.91861 -1.54993 0
M  V30 11189 H 1024.05 -2.7072 -1.82696 0
M  V30 11190 H 1022.71 -3.66516 0.0782691 0
M  V30 11191 H 1022.35 -4.49672 -2.25399 0
M  V30 11192 H 1022.05 -5.78038 -1.05573 0
M  V30 11193 H 1023.58 -5.77327 -1.98813 0
M  V30 11194 H 1024.99 -5.72602 0.282818 0
M  V30 11195 H 1023.39 -5.90793 1.05281 0
M  V30 11196 H 1024.46 -4.58994 1.56372 0
M  V30 11197 N 1025.8 -0.366053 -1.5329 0
M  V30 11198 C 1027.08 0.279902 -1.93587 0
M  V30 11199 C 1027.46 1.66352 -1.29963 0
M  V30 11200 O 1026.81 2.23845 -0.458895 0
M  V30 11201 C 1027.02 0.329634 -3.4744 0
M  V30 11202 C 1028.36 0.569754 -4.2076 0
M  V30 11203 O 1029.39 0.410823 -3.53823 0
M  V30 11204 O 1028.25 0.879262 -5.3938 0
M  V30 11205 H 1025.34 0.16802 -0.809752 0
M  V30 11206 H 1027.89 -0.418871 -1.64449 0
M  V30 11207 H 1026.66 -0.640434 -3.86023 0
M  V30 11208 H 1026.28 1.07428 -3.82812 0
M  V30 11209 N 1027.28 1.57312 -0.0952337 0
M  V30 11210 C 1028.51 1.98697 0.57682 0
M  V30 11211 C 1028.92 0.974347 1.61716 0
M  V30 11212 O 1028.28 -0.036022 1.82464 0
M  V30 11213 C 1028.33 3.40133 1.2244 0
M  V30 11214 O 1028.05 4.37518 0.225678 0
M  V30 11215 C 1029.55 3.96522 1.98205 0
M  V30 11216 H 1026.77 0.65294 0.154629 0
M  V30 11217 H 1029.32 2.03754 -0.174562 0
M  V30 11218 H 1027.47 3.3609 1.92671 0
M  V30 11219 H 1027.89 5.199 0.693116 0
M  V30 11220 H 1029.36 4.97637 2.38875 0
M  V30 11221 H 1029.84 3.34347 2.84796 0
M  V30 11222 H 1030.44 4.04038 1.3279 0
M  V30 11223 N 1028.76 -0.17846 1.56586 0
M  V30 11224 C 1029.67 -1.24115 1.9908 0
M  V30 11225 C 1030.68 -1.48854 0.901031 0
M  V30 11226 O 1031.86 -1.61142 1.2081 0
M  V30 11227 C 1028.92 -2.56187 2.33601 0
M  V30 11228 C 1027.99 -2.39373 3.56369 0
M  V30 11229 C 1027.22 -3.65147 3.89234 0
M  V30 11230 O 1027.44 -4.70024 3.23162 0
M  V30 11231 O 1026.38 -3.59683 4.82609 0
M  V30 11232 H 1030.2 -0.910482 2.89731 0
M  V30 11233 H 1027.79 -0.38477 1.4436 0
M  V30 11234 H 1029.67 -3.34109 2.56806 0
M  V30 11235 H 1028.34 -2.88847 1.46113 0
M  V30 11236 H 1027.25 -1.59506 3.38391 0
M  V30 11237 H 1028.58 -2.1164 4.44375 0
M  V30 11238 N 1030.24 -1.51135 -0.446768 0
M  V30 11239 C 1031.48 -1.63013 -1.19461 0
M  V30 11240 C 1031.8 -0.344067 -1.91941 0
M  V30 11241 O 1031.07 0.639666 -1.85162 0
M  V30 11242 H 1029.65 -0.600757 -0.443959 0
M  V30 11243 H 1032.32 -1.88024 -0.513137 0
M  V30 11244 H 1031.41 -2.45322 -1.92933 0
M  V30 11245 N 1031.71 0.701592 -1.41122 0
M  V30 11246 C 1032.94 1.49553 -1.43696 0
M  V30 11247 C 1033.36 1.88053 -0.0421865 0
M  V30 11248 O 1032.72 1.54223 0.953144 0
M  V30 11249 C 1032.77 2.73834 -2.34622 0
M  V30 11250 O 1031.87 3.71088 -1.7991 0
M  V30 11251 H 1031.21 0.450352 -0.487933 0
M  V30 11252 H 1033.74 0.862886 -1.85514 0
M  V30 11253 H 1033.75 3.22209 -2.5029 0
M  V30 11254 H 1032.43 2.45149 -3.35969 0
M  V30 11255 H 1031.01 3.29994 -1.73661 0
M  V30 11256 N 1033.19 1.2685 0.935242 0
M  V30 11257 C 1034.44 1.12132 1.67658 0
M  V30 11258 C 1034.75 -0.333839 1.9273 0
M  V30 11259 O 1035.96 -0.601801 2.64746 0
M  V30 11260 C 1034.42 1.95873 3.0193 0
M  V30 11261 C 1034.02 3.46 2.84584 0
M  V30 11262 C 1035.77 1.89781 3.79715 0
M  V30 11263 C 1033.67 4.21966 4.14365 0
M  V30 11264 H 1032.6 0.416035 0.628833 0
M  V30 11265 H 1035.26 1.51209 1.03962 0
M  V30 11266 H 1033.64 1.49633 3.66641 0
M  V30 11267 H 1034.81 4.00049 2.28687 0
M  V30 11268 H 1033.13 3.53391 2.20236 0
M  V30 11269 H 1035.72 2.43819 4.75875 0
M  V30 11270 H 1036.07 0.869797 4.07112 0
M  V30 11271 H 1036.6 2.33875 3.21788 0
M  V30 11272 H 1033.34 5.2526 3.9215 0
M  V30 11273 H 1032.86 3.72696 4.69955 0
M  V30 11274 H 1034.54 4.30734 4.82781 0
M  V30 11275 N 1034.67 -1.14067 1.0875 0
M  V30 11276 C 1035.6 -2.18926 0.67852 0
M  V30 11277 C 1036.62 -1.60441 -0.276163 0
M  V30 11278 O 1037.8 -1.78388 -0.0632788 0
M  V30 11279 C 1034.9 -3.38893 -0.0218852 0
M  V30 11280 C 1034.08 -4.26901 0.952582 0
M  V30 11281 C 1033.14 -5.25418 0.286859 0
M  V30 11282 O 1032.16 -5.61512 0.932354 0
M  V30 11283 N 1033.36 -5.72476 -0.961831 0
M  V30 11284 H 1036.13 -2.54629 1.58063 0
M  V30 11285 H 1033.69 -1.29321 0.974042 0
M  V30 11286 H 1035.68 -4.01864 -0.478278 0
M  V30 11287 H 1034.25 -3.01486 -0.826141 0
M  V30 11288 H 1033.47 -3.60812 1.58772 0
M  V30 11289 H 1034.76 -4.82563 1.61279 0
M  V30 11290 H 1034.16 -5.45287 -1.50594 0
M  V30 11291 H 1032.72 -6.37418 -1.36166 0
M  V30 11292 N 1036.15 -0.873678 -1.31166 0
M  V30 11293 C 1037.1 -0.321349 -2.3037 0
M  V30 11294 C 1038.09 0.565568 -1.5968 0
M  V30 11295 O 1039.3 0.451257 -1.74252 0
M  V30 11296 H 1035.67 -0.0852425 -0.747153 0
M  V30 11297 H 1037.64 -1.17191 -2.74425 0
M  V30 11298 C 1036.39 0.459016 -3.44657 0
M  V30 11299 H 1035.71 -0.214185 -3.99226 0
M  V30 11300 H 1037.15 0.810758 -4.16176 0
M  V30 11301 C 1035.61 1.65173 -2.93632 0
M  V30 11302 O 1036.14 2.75105 -2.92711 0
M  V30 11303 N 1034.35 1.4851 -2.49786 0
M  V30 11304 H 1033.9 0.590785 -2.50734 0
M  V30 11305 H 1033.85 2.28452 -2.16002 0
M  V30 11306 N 1037.63 1.44308 -0.633487 0
M  V30 11307 C 1038.87 2.02023 -0.138917 0
M  V30 11308 C 1039.2 1.49841 1.24008 0
M  V30 11309 O 1038.46 0.673718 1.83738 0
M  V30 11310 C 1038.76 3.57316 -0.0773886 0
M  V30 11311 C 1038.42 4.28762 -1.39548 0
M  V30 11312 C 1037.08 4.47997 -1.75648 0
M  V30 11313 C 1039.44 4.69391 -2.26542 0
M  V30 11314 C 1036.76 5.05121 -2.98445 0
M  V30 11315 C 1039.12 5.27876 -3.48612 0
M  V30 11316 C 1037.78 5.45329 -3.84932 0
M  V30 11317 H 1037.05 0.739254 -0.0508333 0
M  V30 11318 H 1039.7 1.73043 -0.820271 0
M  V30 11319 H 1038 3.85724 0.687345 0
M  V30 11320 H 1039.7 3.99706 0.321837 0
M  V30 11321 H 1036.29 4.14122 -1.10456 0
M  V30 11322 H 1040.47 4.54241 -1.99946 0
M  V30 11323 H 1035.73 5.16821 -3.26658 0
M  V30 11324 H 1039.9 5.58307 -4.16253 0
M  V30 11325 H 1037.53 5.8936 -4.80166 0
M  V30 11326 N 1039.1 0.374177 1.53094 0
M  V30 11327 C 1040.35 -0.212816 2.01379 0
M  V30 11328 C 1040.68 -1.48069 1.26118 0
M  V30 11329 O 1039.93 -1.92625 0.345561 0
M  V30 11330 C 1040.23 -0.542179 3.53264 0
M  V30 11331 C 1039.9 0.632375 4.46444 0
M  V30 11332 C 1038.56 0.954635 4.71636 0
M  V30 11333 C 1040.91 1.41887 5.01515 0
M  V30 11334 C 1038.24 2.06521 5.4915 0
M  V30 11335 C 1040.59 2.51993 5.80243 0
M  V30 11336 C 1039.26 2.84744 6.03719 0
M  V30 11337 H 1038.53 -0.0778749 0.736897 0
M  V30 11338 H 1041.17 0.508412 1.84628 0
M  V30 11339 H 1039.48 -1.34454 3.68007 0
M  V30 11340 H 1041.18 -1.00874 3.88105 0
M  V30 11341 H 1037.77 0.371179 4.2699 0
M  V30 11342 H 1041.95 1.18315 4.81991 0
M  V30 11343 H 1037.21 2.32284 5.65557 0
M  V30 11344 H 1041.38 3.13346 6.21922 0
M  V30 11345 H 1039.01 3.70921 6.63568 0
M  V30 11346 N 1040.58 -1.57259 0.103575 0
M  V30 11347 C 1042 -1.57581 -0.253062 0
M  V30 11348 C 1042.2 -1.11531 -1.67819 0
M  V30 11349 O 1041.25 -0.795632 -2.39637 0
M  V30 11350 C 1042.57 -3.00681 -0.0337753 0
M  V30 11351 C 1044.12 -3.12837 -0.10087 0
M  V30 11352 C 1044.59 -4.57911 0.0905295 0
M  V30 11353 N 1046.08 -4.63186 0.0359789 0
M  V30 11354 C 1046.82 -5.73179 0.159199 0
M  V30 11355 N 1046.31 -6.91976 0.337728 0
M  V30 11356 N 1048.11 -5.62011 0.0998662 0
M  V30 11357 H 1040.26 -1.85499 1.0346 0
M  V30 11358 H 1042.52 -0.856584 0.406163 0
M  V30 11359 H 1042.23 -3.38602 0.950858 0
M  V30 11360 H 1042.1 -3.69207 -0.772406 0
M  V30 11361 H 1044.49 -2.74783 -1.07601 0
M  V30 11362 H 1044.57 -2.46886 0.66939 0
M  V30 11363 H 1044.21 -4.9666 1.06258 0
M  V30 11364 H 1044.14 -5.21933 -0.699528 0
M  V30 11365 H 1046.63 -3.7777 -0.099121 0
M  V30 11366 H 1046.95 -7.71641 0.423032 0
M  V30 11367 H 1045.29 -6.93996 0.373504 0
M  V30 11368 H 1048.48 -4.68084 -0.0385356 0
M  V30 11369 H 1048.65 -6.47693 0.199342 0
M  V30 11370 N 1042.06 0.170153 -1.56679 0
M  V30 11371 C 1043.01 1.21064 -1.965 0
M  V30 11372 C 1043.98 1.43928 -0.829092 0
M  V30 11373 O 1045.16 1.56649 -1.08931 0
M  V30 11374 C 1042.3 2.54468 -2.33109 0
M  V30 11375 C 1041.42 2.38974 -3.59883 0
M  V30 11376 C 1040.55 3.65252 -3.857 0
M  V30 11377 C 1039.59 3.44696 -5.05817 0
M  V30 11378 N 1038.73 4.63047 -5.27761 0
M  V30 11379 H 1043.57 0.864055 -2.85198 0
M  V30 11380 H 1041.1 0.415243 -1.41117 0
M  V30 11381 H 1043.06 3.32222 -2.52358 0
M  V30 11382 H 1041.69 2.8712 -1.4752 0
M  V30 11383 H 1040.74 1.5239 -3.48542 0
M  V30 11384 H 1042.06 2.19731 -4.47794 0
M  V30 11385 H 1041.21 4.51441 -4.05322 0
M  V30 11386 H 1039.95 3.87475 -2.96166 0
M  V30 11387 H 1038.95 2.56893 -4.86092 0
M  V30 11388 H 1040.18 3.23894 -5.96883 0
M  V30 11389 H 1038.12 4.85487 -4.41179 0
M  V30 11390 H 1038.04 4.46722 -6.09898 0
M  V30 11391 H 1039.31 5.50516 -5.51863 0
M  V30 11392 N 1043.54 1.5137 0.438746 0
M  V30 11393 C 1044.77 1.6753 1.20901 0
M  V30 11394 C 1045.18 0.371573 1.85515 0
M  V30 11395 O 1044.52 -0.659701 1.71446 0
M  V30 11396 C 1044.58 2.73305 2.33548 0
M  V30 11397 C 1044.25 4.15944 1.89313 0
M  V30 11398 C 1045.24 5.00769 1.39736 0
M  V30 11399 C 1042.93 4.62036 1.97047 0
M  V30 11400 C 1044.92 6.29747 0.984773 0
M  V30 11401 C 1042.61 5.91011 1.554 0
M  V30 11402 C 1043.61 6.74693 1.06197 0
M  V30 11403 O 1043.29 8.01256 0.651407 0
M  V30 11404 H 1043.03 0.565404 0.370532 0
M  V30 11405 H 1045.58 1.98543 0.526296 0
M  V30 11406 H 1043.81 2.37604 3.05092 0
M  V30 11407 H 1045.5 2.78359 2.95417 0
M  V30 11408 H 1046.27 4.66363 1.33156 0
M  V30 11409 H 1042.14 3.97025 2.34291 0
M  V30 11410 H 1045.69 6.95015 0.600029 0
M  V30 11411 H 1041.59 6.24932 1.6165 0
M  V30 11412 H 1042.35 8.148 0.777382 0
M  V30 11413 N 1045.02 -0.694098 1.41492 0
M  V30 11414 C 1045.98 -1.78976 1.43179 0
M  V30 11415 C 1046.98 -1.57539 0.322191 0
M  V30 11416 O 1048.17 -1.64185 0.582138 0
M  V30 11417 C 1045.3 -3.17368 1.2446 0
M  V30 11418 H 1046.49 -1.78874 2.40716 0
M  V30 11419 H 1044.05 -0.901867 1.27656 0
M  V30 11420 H 1044.78 -3.23109 0.277691 0
M  V30 11421 H 1044.57 -3.3433 2.04856 0
M  V30 11422 H 1046.06 -3.97345 1.28479 0
M  V30 11423 N 1046.49 -1.27344 -0.928501 0
M  V30 11424 C 1047.91 -1.12361 -1.49103 0
M  V30 11425 C 1048.26 0.291667 -1.9402 0
M  V30 11426 O 1047.38 1.18449 -1.81104 0
M  V30 11427 C 1047.98 -2.03358 -2.70981 0
M  V30 11428 C 1046.54 -1.92483 -3.23461 0
M  V30 11429 C 1045.68 -1.95961 -1.962 0
M  V30 11430 H 1048.63 -1.40249 -0.742689 0
M  V30 11431 H 1048.65 -1.58892 -3.45736 0
M  V30 11432 H 1048.17 -3.06356 -2.38259 0
M  V30 11433 H 1046.27 -0.924676 -3.60944 0
M  V30 11434 H 1046.38 -2.78682 -3.89709 0
M  V30 11435 H 1044.74 -1.40175 -2.12657 0
M  V30 11436 H 1045.53 -3.00612 -1.65793 0
M  V30 11437 N 1047.97 1.13488 -1.09353 0
M  V30 11438 C 1049.2 1.89133 -0.85108 0
M  V30 11439 C 1049.62 1.78542 0.591976 0
M  V30 11440 O 1048.98 1.13243 1.41583 0
M  V30 11441 C 1049.03 3.36736 -1.29001 0
M  V30 11442 O 1048.13 4.09959 -0.447993 0
M  V30 11443 H 1047.47 0.58809 -0.308296 0
M  V30 11444 H 1050 1.43593 -1.45747 0
M  V30 11445 H 1050.01 3.87564 -1.27508 0
M  V30 11446 H 1048.69 3.43762 -2.34095 0
M  V30 11447 H 1047.27 3.69155 -0.52717 0
M  V30 11448 N 1049.45 0.880621 1.30701 0
M  V30 11449 C 1050.36 0.348034 2.32004 0
M  V30 11450 C 1051.38 -0.547508 1.65162 0
M  V30 11451 O 1052.55 -0.441673 1.96497 0
M  V30 11452 C 1049.62 -0.432585 3.43991 0
M  V30 11453 C 1048.68 0.492189 4.26469 0
M  V30 11454 C 1047.91 -0.25127 5.33108 0
M  V30 11455 O 1048.14 -1.47795 5.5092 0
M  V30 11456 O 1047.07 0.396376 6.00593 0
M  V30 11457 H 1050.9 1.18798 2.79501 0
M  V30 11458 H 1048.48 0.64432 1.34792 0
M  V30 11459 H 1050.36 -0.874733 4.12221 0
M  V30 11460 H 1049.04 -1.2489 2.98637 0
M  V30 11461 H 1047.94 0.983058 3.60953 0
M  V30 11462 H 1049.28 1.27439 4.75416 0
M  V30 11463 N 1050.93 -1.4397 0.641131 0
M  V30 11464 C 1051.88 -2.32495 -0.0698668 0
M  V30 11465 C 1052.87 -1.47922 -0.825555 0
M  V30 11466 O 1054.08 -1.64206 -0.737323 0
M  V30 11467 H 1050.45 -0.750861 -0.0413706 0
M  V30 11468 H 1052.42 -2.90201 0.694682 0
M  V30 11469 C 1051.17 -3.32063 -1.03098 0
M  V30 11470 H 1050.5 -3.97157 -0.458923 0
M  V30 11471 H 1051.94 -3.96664 -1.49778 0
M  V30 11472 C 1050.39 -2.61743 -2.12113 0
M  V30 11473 O 1050.92 -2.42385 -3.20332 0
M  V30 11474 N 1049.13 -2.21316 -1.88328 0
M  V30 11475 H 1048.68 -2.37261 -1.00324 0
M  V30 11476 H 1048.64 -1.74594 -2.61465 0
M  V30 11477 N 1052.41 -0.382291 -1.52893 0
M  V30 11478 C 1053.66 0.201734 -2.01091 0
M  V30 11479 C 1053.98 1.47905 -1.2708 0
M  V30 11480 O 1053.25 1.92002 -0.38883 0
M  V30 11481 H 1051.83 0.0775373 -0.742965 0
M  V30 11482 H 1054.49 -0.512369 -1.88045 0
M  V30 11483 H 1053.58 0.416919 -3.09303 0
M  V30 11484 N 1053.89 1.57202 -0.111913 0
M  V30 11485 C 1055.3 1.82039 0.414591 0
M  V30 11486 C 1055.65 1.02863 1.67074 0
M  V30 11487 O 1054.77 0.263068 2.14795 0
M  V30 11488 C 1055.37 3.3019 0.758953 0
M  V30 11489 C 1053.93 3.55732 1.23012 0
M  V30 11490 C 1053.07 2.76301 0.235226 0
M  V30 11491 H 1056.02 1.55078 -0.337142 0
M  V30 11492 H 1056.05 3.44431 1.61701 0
M  V30 11493 H 1055.56 3.87788 -0.155473 0
M  V30 11494 H 1053.66 3.03483 2.16169 0
M  V30 11495 H 1053.77 4.64333 1.18034 0
M  V30 11496 H 1052.14 2.44287 0.720822 0
M  V30 11497 H 1052.92 3.36655 -0.672173 0
M  V30 11498 N 1055.36 -0.161842 1.56767 0
M  V30 11499 C 1056.31 -1.21948 1.98069 0
M  V30 11500 C 1057.31 -1.45303 0.870835 0
M  V30 11501 O 1058.51 -1.45771 1.05598 0
M  V30 11502 H 1054.89 -0.410145 0.630306 0
M  V30 11503 H 1056.86 -0.844336 2.86205 0
M  V30 11504 C 1055.61 -2.549 2.36477 0
M  V30 11505 H 1054.93 -2.37755 3.21423 0
M  V30 11506 H 1056.37 -3.27568 2.69212 0
M  V30 11507 C 1054.83 -3.14353 1.21176 0
M  V30 11508 O 1055.36 -3.98519 0.504499 0
M  V30 11509 N 1053.56 -2.73582 0.979855 0
M  V30 11510 H 1053.11 -2.05239 1.55675 0
M  V30 11511 H 1053.07 -3.13696 0.21025 0
M  V30 11512 N 1056.84 -1.516 -0.430713 0
M  V30 11513 C 1058.09 -1.64271 -1.17726 0
M  V30 11514 C 1058.41 -0.364406 -1.91565 0
M  V30 11515 O 1057.68 0.619991 -1.8583 0
M  V30 11516 H 1056.26 -0.605432 -0.437562 0
M  V30 11517 H 1058.92 -1.88557 -0.493166 0
M  V30 11518 H 1058.02 -2.47355 -1.90321 0
M  V30 11519 N 1058.32 0.686584 -1.41858 0
M  V30 11520 C 1059.57 1.44235 -1.40994 0
M  V30 11521 C 1059.88 1.95583 -0.0254979 0
M  V30 11522 O 1061.09 2.71294 0.10576 0
M  V30 11523 C 1059.54 2.6086 -2.47952 0
M  V30 11524 C 1059.15 2.16259 -3.92347 0
M  V30 11525 C 1060.9 3.38441 -2.56237 0
M  V30 11526 C 1058.8 3.29896 -4.90838 0
M  V30 11527 H 1057.73 0.54181 -0.524364 0
M  V30 11528 H 1060.38 0.744486 -1.67719 0
M  V30 11529 H 1058.77 3.32957 -2.14373 0
M  V30 11530 H 1059.94 1.51392 -4.35221 0
M  V30 11531 H 1058.25 1.51648 -3.87804 0
M  V30 11532 H 1060.85 4.23052 -3.27003 0
M  V30 11533 H 1061.19 3.84238 -1.6021 0
M  V30 11534 H 1061.73 2.73406 -2.88953 0
M  V30 11535 H 1058.47 2.89104 -5.88302 0
M  V30 11536 H 1057.99 3.93584 -4.52606 0
M  V30 11537 H 1059.67 3.95541 -5.12012 0
M  V30 11538 N 1059.8 1.27835 0.921735 0
M  V30 11539 C 1061.02 1.17465 1.70929 0
M  V30 11540 C 1061.45 -0.264171 1.86236 0
M  V30 11541 O 1060.81 -1.19124 1.36671 0
M  V30 11542 C 1060.85 1.8697 3.08342 0
M  V30 11543 O 1059.96 1.17173 3.95404 0
M  V30 11544 H 1059.3 0.408206 0.523702 0
M  V30 11545 H 1061.83 1.69013 1.15307 0
M  V30 11546 H 1061.84 1.94564 3.58621 0
M  V30 11547 H 1060.51 2.91633 2.96518 0
M  V30 11548 H 1059.09 1.17688 3.53842 0
M  V30 11549 N 1061.28 -1.12907 1.09954 0
M  V30 11550 C 1062.24 -2.16673 0.747364 0
M  V30 11551 C 1063.24 -1.59208 -0.225741 0
M  V30 11552 O 1064.43 -1.742 -0.00322482 0
M  V30 11553 C 1061.56 -3.40735 0.106169 0
M  V30 11554 H 1062.75 -2.49341 1.6664 0
M  V30 11555 H 1060.31 -1.27828 0.899421 0
M  V30 11556 H 1061.04 -3.13661 -0.82384 0
M  V30 11557 H 1060.83 -3.83717 0.806434 0
M  V30 11558 H 1062.32 -4.17414 -0.12464 0
M  V30 11559 N 1062.75 -0.88754 -1.30232 0
M  V30 11560 C 1063.66 -0.360333 -2.31816 0
M  V30 11561 C 1064.68 0.538741 -1.6545 0
M  V30 11562 O 1065.86 0.431246 -1.96729 0
M  V30 11563 C 1062.92 0.414336 -3.44215 0
M  V30 11564 C 1061.98 -0.514799 -4.26202 0
M  V30 11565 C 1061.21 0.222994 -5.33234 0
M  V30 11566 O 1061.44 1.44871 -5.51696 0
M  V30 11567 O 1060.37 -0.428221 -6.00375 0
M  V30 11568 H 1064.2 -1.20279 -2.78867 0
M  V30 11569 H 1061.78 -0.651459 -1.34448 0
M  V30 11570 H 1063.66 0.852859 -4.12679 0
M  V30 11571 H 1062.34 1.23305 -2.99295 0
M  V30 11572 H 1061.25 -1.00219 -3.60426 0
M  V30 11573 H 1062.58 -1.29959 -4.74733 0
M  V30 11574 N 1064.23 1.43628 -0.648757 0
M  V30 11575 C 1065.48 2.02163 -0.160574 0
M  V30 11576 C 1065.81 1.51037 1.22072 0
M  V30 11577 O 1065.09 0.701633 1.81404 0
M  V30 11578 C 1065.37 3.59715 -0.166528 0
M  V30 11579 C 1065.22 4.21083 -1.58142 0
M  V30 11580 C 1066.54 4.37256 0.499485 0
M  V30 11581 H 1063.66 0.734568 -0.0598238 0
M  V30 11582 H 1066.3 1.70981 -0.828592 0
M  V30 11583 H 1064.45 3.86411 0.402302 0
M  V30 11584 H 1066.12 4.05433 -2.2005 0
M  V30 11585 H 1064.37 3.77904 -2.13005 0
M  V30 11586 H 1065.04 5.30156 -1.53748 0
M  V30 11587 H 1067.51 4.16097 0.0155561 0
M  V30 11588 H 1066.39 5.4693 0.464574 0
M  V30 11589 H 1066.65 4.13175 1.57286 0
M  V30 11590 N 1065.71 0.390394 1.52688 0
M  V30 11591 C 1066.64 -0.48838 2.22913 0
M  V30 11592 C 1067.62 -1.06319 1.23025 0
M  V30 11593 O 1068.81 -1.11462 1.52015 0
M  V30 11594 C 1065.93 -1.67612 2.9432 0
M  V30 11595 C 1064.98 -1.22646 4.08485 0
M  V30 11596 S 1065.81 -0.207092 5.35099 0
M  V30 11597 C 1066.97 -1.40058 6.10028 0
M  V30 11598 H 1067.2 0.107949 2.97104 0
M  V30 11599 H 1064.73 0.174588 1.5341 0
M  V30 11600 H 1066.69 -2.35728 3.36069 0
M  V30 11601 H 1065.35 -2.24375 2.19806 0
M  V30 11602 H 1064.55 -2.11331 4.57554 0
M  V30 11603 H 1064.15 -0.624197 3.68754 0
M  V30 11604 H 1066.44 -2.32747 6.36266 0
M  V30 11605 H 1067.38 -0.950804 7.01687 0
M  V30 11606 H 1067.79 -1.61789 5.40818 0
M  V30 11607 N 1067.19 -1.57141 0.120249 0
M  V30 11608 C 1068.47 -1.8677 -0.581075 0
M  V30 11609 C 1068.85 -1.02163 -1.84732 0
M  V30 11610 O 1068.19 -0.100897 -2.28277 0
M  V30 11611 C 1068.4 -3.37923 -0.872316 0
M  V30 11612 C 1069.75 -4.0655 -1.22483 0
M  V30 11613 O 1070.78 -3.42948 -0.962539 0
M  V30 11614 O 1069.63 -5.18821 -1.71717 0
M  V30 11615 H 1066.73 -0.773219 -0.293362 0
M  V30 11616 H 1069.27 -1.68992 0.154846 0
M  V30 11617 H 1068.05 -3.91292 0.0249416 0
M  V30 11618 H 1067.67 -3.61135 -1.66335 0
M  V30 11619 N 1068.67 0.153526 -1.5685 0
M  V30 11620 C 1069.89 0.882335 -1.87143 0
M  V30 11621 C 1070.31 1.75034 -0.707702 0
M  V30 11622 O 1069.67 1.79624 0.32273 0
M  V30 11623 C 1069.72 1.74444 -3.16625 0
M  V30 11624 O 1069.44 0.911419 -4.28515 0
M  V30 11625 C 1070.94 2.58139 -3.60388 0
M  V30 11626 H 1068.16 0.25546 -0.620469 0
M  V30 11627 H 1070.7 0.148275 -2.03962 0
M  V30 11628 H 1068.86 2.43163 -3.0158 0
M  V30 11629 H 1069.27 1.50268 -5.02513 0
M  V30 11630 H 1070.75 3.14215 -4.53842 0
M  V30 11631 H 1071.22 3.33865 -2.85361 0
M  V30 11632 H 1071.83 1.94721 -3.78105 0
M  V30 11633 N 1070.14 1.51827 0.422667 0
M  V30 11634 C 1071.37 1.68803 1.19117 0
M  V30 11635 C 1071.78 0.391228 1.85111 0
M  V30 11636 O 1071.13 -0.64148 1.72136 0
M  V30 11637 C 1071.19 2.75767 2.30636 0
M  V30 11638 C 1070.85 4.17929 1.8489 0
M  V30 11639 C 1071.85 5.02223 1.34416 0
M  V30 11640 C 1069.53 4.641 1.92136 0
M  V30 11641 C 1071.53 6.30756 0.917925 0
M  V30 11642 C 1069.21 5.92626 1.49123 0
M  V30 11643 C 1070.21 6.75782 0.990352 0
M  V30 11644 O 1069.9 8.01902 0.566386 0
M  V30 11645 H 1069.63 0.569303 0.364514 0
M  V30 11646 H 1072.19 1.9909 0.505208 0
M  V30 11647 H 1070.42 2.40827 3.02555 0
M  V30 11648 H 1072.11 2.81476 2.92448 0
M  V30 11649 H 1072.87 4.67749 1.28202 0
M  V30 11650 H 1068.75 3.99488 2.30066 0
M  V30 11651 H 1072.29 6.95612 0.52628 0
M  V30 11652 H 1068.19 6.26611 1.55012 0
M  V30 11653 H 1068.96 8.15579 0.690918 0
M  V30 11654 N 1071.62 -0.679052 1.4222 0
M  V30 11655 C 1072.87 -1.44125 1.42674 0
M  V30 11656 C 1073.2 -1.94156 0.041438 0
M  V30 11657 O 1072.48 -1.70628 -0.93361 0
M  V30 11658 C 1072.76 -2.64133 2.44756 0
M  V30 11659 C 1072.61 -2.19761 3.9246 0
M  V30 11660 C 1073.93 -3.66347 2.43881 0
M  V30 11661 H 1071.05 -0.522729 0.519541 0
M  V30 11662 H 1073.69 -0.772067 1.73606 0
M  V30 11663 H 1071.84 -3.21225 2.1851 0
M  V30 11664 H 1073.51 -1.67869 4.29671 0
M  V30 11665 H 1071.76 -1.51377 4.06531 0
M  V30 11666 H 1072.43 -3.05944 4.59459 0
M  V30 11667 H 1074.9 -3.18963 2.67211 0
M  V30 11668 H 1073.78 -4.47902 3.17293 0
M  V30 11669 H 1074.04 -4.17183 1.46325 0
M  V30 11670 N 1073.1 -1.28322 -0.914942 0
M  V30 11671 C 1074.05 -1.12146 -2.01722 0
M  V30 11672 C 1075.02 -0.0189279 -1.66089 0
M  V30 11673 O 1076.2 -0.183638 -1.89914 0
M  V30 11674 C 1073.34 -0.78808 -3.35981 0
M  V30 11675 C 1072.46 -1.96954 -3.84491 0
M  V30 11676 C 1071.59 -1.57688 -5.07255 0
M  V30 11677 C 1070.63 -2.72506 -5.48094 0
M  V30 11678 N 1069.77 -2.33741 -6.62049 0
M  V30 11679 H 1074.61 -2.06461 -2.1489 0
M  V30 11680 H 1072.14 -1.0276 -1.05256 0
M  V30 11681 H 1074.1 -0.575546 -4.13211 0
M  V30 11682 H 1072.73 0.118132 -3.22584 0
M  V30 11683 H 1071.78 -2.29423 -3.03429 0
M  V30 11684 H 1073.1 -2.8304 -4.10719 0
M  V30 11685 H 1072.25 -1.32634 -5.92025 0
M  V30 11686 H 1070.99 -0.687291 -4.82833 0
M  V30 11687 H 1069.99 -2.9826 -4.61867 0
M  V30 11688 H 1071.22 -3.62106 -5.74505 0
M  V30 11689 H 1069.16 -1.4725 -6.3926 0
M  V30 11690 H 1069.08 -3.13364 -6.87997 0
M  V30 11691 H 1070.35 -2.11968 -7.50127 0
M  V30 11692 N 1074.58 1.12322 -1.10551 0
M  V30 11693 C 1075.8 1.8822 -0.871093 0
M  V30 11694 C 1076.23 1.7916 0.573005 0
M  V30 11695 O 1075.59 1.14738 1.40374 0
M  V30 11696 C 1075.63 3.35349 -1.32565 0
M  V30 11697 O 1074.74 4.09461 -0.49145 0
M  V30 11698 H 1074.08 0.584787 -0.314516 0
M  V30 11699 H 1076.61 1.42039 -1.47262 0
M  V30 11700 H 1076.62 3.86189 -1.31612 0
M  V30 11701 H 1075.29 3.4126 -2.37728 0
M  V30 11702 H 1073.87 3.68575 -0.566294 0
M  V30 11703 N 1076.06 0.894434 1.2976 0
M  V30 11704 C 1077.3 0.524501 1.97556 0
M  V30 11705 C 1077.66 -0.911202 1.69 0
M  V30 11706 O 1078.86 -1.38774 2.30207 0
M  V30 11707 C 1077.13 0.802636 3.48271 0
M  V30 11708 S 1078.69 0.536223 4.35511 0
M  V30 11709 H 1075.51 0.194786 0.683798 0
M  V30 11710 H 1078.11 1.15574 1.5768 0
M  V30 11711 H 1076.82 1.84586 3.66546 0
M  V30 11712 H 1076.35 0.159316 3.93077 0
M  V30 11713 H 1078.36 -0.621056 4.92298 0
M  V30 11714 N 1077.53 -1.43282 0.656365 0
M  V30 11715 C 1078.5 -2.29188 -0.0239173 0
M  V30 11716 C 1079.5 -1.42373 -0.747436 0
M  V30 11717 O 1080.69 -1.63969 -0.588213 0
M  V30 11718 C 1077.82 -3.24501 -1.0446 0
M  V30 11719 H 1079.01 -2.9083 0.731978 0
M  V30 11720 H 1076.57 -1.50614 0.417752 0
M  V30 11721 H 1077.3 -2.6776 -1.82962 0
M  V30 11722 H 1077.09 -3.88509 -0.52942 0
M  V30 11723 H 1078.58 -3.88971 -1.51958 0
M  V30 11724 N 1079.01 -0.398486 -1.52479 0
M  V30 11725 C 1080.26 0.180394 -2.01293 0
M  V30 11726 C 1080.58 1.46548 -1.28641 0
M  V30 11727 O 1079.85 1.91579 -0.409173 0
M  V30 11728 H 1078.43 0.0696528 -0.743746 0
M  V30 11729 H 1081.09 -0.532285 -1.87491 0
M  V30 11730 H 1080.19 0.38409 -3.09728 0
M  V30 11731 N 1080.49 1.57075 -0.12858 0
M  V30 11732 C 1081.72 1.99586 0.533769 0
M  V30 11733 C 1082.13 1.00737 1.60152 0
M  V30 11734 O 1081.47 -0.00647783 1.83699 0
M  V30 11735 C 1081.53 3.3852 1.21014 0
M  V30 11736 C 1081.2 4.56084 0.289191 0
M  V30 11737 C 1082.2 5.17717 -0.475963 0
M  V30 11738 C 1079.88 5.01912 0.197467 0
M  V30 11739 C 1081.87 6.23572 -1.32048 0
M  V30 11740 C 1079.56 6.07626 -0.65067 0
M  V30 11741 C 1080.56 6.68324 -1.40826 0
M  V30 11742 O 1080.25 7.71995 -2.2423 0
M  V30 11743 H 1079.98 0.660245 0.145096 0
M  V30 11744 H 1082.53 2.04276 -0.214615 0
M  V30 11745 H 1080.76 3.30613 2.00579 0
M  V30 11746 H 1082.45 3.65258 1.77036 0
M  V30 11747 H 1083.22 4.83221 -0.415027 0
M  V30 11748 H 1079.1 4.54407 0.776853 0
M  V30 11749 H 1082.64 6.70878 -1.91228 0
M  V30 11750 H 1078.54 6.41551 -0.712965 0
M  V30 11751 H 1079.31 7.89135 -2.17276 0
M  V30 11752 N 1081.97 -0.145205 1.5693 0
M  V30 11753 C 1083.21 -0.863709 1.85255 0
M  V30 11754 C 1083.57 -1.78266 0.713112 0
M  V30 11755 O 1084.77 -2.54075 0.877459 0
M  V30 11756 C 1083.05 -1.61628 3.18765 0
M  V30 11757 S 1084.6 -2.37996 3.68651 0
M  V30 11758 H 1081.42 -0.288792 0.649708 0
M  V30 11759 H 1084.02 -0.123603 1.95109 0
M  V30 11760 H 1082.73 -0.932688 3.99661 0
M  V30 11761 H 1082.26 -2.39726 3.11921 0
M  V30 11762 H 1084.27 -3.63223 3.38058 0
M  V30 11763 N 1083.45 -1.52049 -0.414609 0
M  V30 11764 C 1084.69 -1.66084 -1.16379 0
M  V30 11765 C 1085.03 -0.386932 -1.90306 0
M  V30 11766 O 1084.3 0.614441 -1.8454 0
M  V30 11767 C 1084.58 -2.87927 -2.16264 0
M  V30 11768 C 1084.44 -4.25353 -1.46269 0
M  V30 11769 C 1085.76 -3.05289 -3.16996 0
M  V30 11770 H 1082.88 -0.604414 -0.421726 0
M  V30 11771 H 1085.52 -1.8459 -0.450177 0
M  V30 11772 H 1083.67 -2.7228 -2.77121 0
M  V30 11773 H 1085.34 -4.52717 -0.885743 0
M  V30 11774 H 1083.58 -4.27006 -0.76472 0
M  V30 11775 H 1084.25 -5.06644 -2.19126 0
M  V30 11776 H 1086.73 -3.19798 -2.66212 0
M  V30 11777 H 1085.61 -3.92065 -3.84156 0
M  V30 11778 H 1085.87 -2.1836 -3.84411 0
M  V30 11779 N 1084.93 0.6715 -1.42579 0
M  V30 11780 C 1086.17 1.42731 -1.42516 0
M  V30 11781 C 1086.49 1.95545 -0.0462407 0
M  V30 11782 O 1087.69 2.71391 0.0769798 0
M  V30 11783 C 1086.15 2.58215 -2.50705 0
M  V30 11784 C 1085.76 2.12086 -3.94618 0
M  V30 11785 C 1087.5 3.35705 -2.59813 0
M  V30 11786 C 1085.41 3.24672 -4.9431 0
M  V30 11787 H 1084.34 0.536218 -0.530081 0
M  V30 11788 H 1086.99 0.726655 -1.68499 0
M  V30 11789 H 1085.37 3.30665 -2.17892 0
M  V30 11790 H 1086.55 1.46768 -4.36802 0
M  V30 11791 H 1084.86 1.47526 -3.89391 0
M  V30 11792 H 1087.46 4.1956 -3.31472 0
M  V30 11793 H 1087.8 3.82517 -1.64276 0
M  V30 11794 H 1088.33 2.70326 -2.91836 0
M  V30 11795 H 1085.07 2.82848 -5.91335 0
M  V30 11796 H 1084.59 3.88761 -4.56755 0
M  V30 11797 H 1086.27 3.90088 -5.16179 0
M  V30 11798 N 1086.4 1.28806 0.908124 0
M  V30 11799 C 1087.63 1.19153 1.69146 0
M  V30 11800 C 1088.05 -0.249056 1.8715 0
M  V30 11801 O 1087.4 -1.16772 1.40251 0
M  V30 11802 C 1087.45 1.89167 3.08055 0
M  V30 11803 O 1087.18 3.27599 2.90879 0
M  V30 11804 C 1088.68 1.85886 4.02444 0
M  V30 11805 H 1085.9 0.413359 0.528559 0
M  V30 11806 H 1088.44 1.7003 1.13622 0
M  V30 11807 H 1086.6 1.42146 3.60379 0
M  V30 11808 H 1087.01 3.62743 3.78837 0
M  V30 11809 H 1088.48 2.39454 4.97359 0
M  V30 11810 H 1088.96 0.832483 4.31238 0
M  V30 11811 H 1089.57 2.32612 3.5605 0
M  V30 11812 N 1087.88 -1.11734 1.11145 0
M  V30 11813 C 1089.11 -1.86943 0.879534 0
M  V30 11814 C 1089.52 -1.80283 -0.574007 0
M  V30 11815 O 1088.86 -1.17998 -1.40791 0
M  V30 11816 C 1088.92 -3.36738 1.25887 0
M  V30 11817 C 1088.59 -3.67169 2.72095 0
M  V30 11818 C 1089.59 -3.6491 3.7032 0
M  V30 11819 C 1087.27 -3.96272 3.08665 0
M  V30 11820 C 1089.26 -3.91325 5.03134 0
M  V30 11821 C 1086.95 -4.22345 4.41665 0
M  V30 11822 C 1087.95 -4.19859 5.38709 0
M  V30 11823 O 1087.64 -4.4528 6.69314 0
M  V30 11824 H 1087.37 -0.598117 0.315011 0
M  V30 11825 H 1089.92 -1.42253 1.48166 0
M  V30 11826 H 1088.15 -3.82019 0.599873 0
M  V30 11827 H 1089.84 -3.93306 1.00325 0
M  V30 11828 H 1090.61 -3.42481 3.43412 0
M  V30 11829 H 1086.49 -3.97344 2.33749 0
M  V30 11830 H 1090.03 -3.893 5.78871 0
M  V30 11831 H 1085.93 -4.4425 4.68308 0
M  V30 11832 H 1086.7 -4.62863 6.75056 0
M  V30 11833 N 1089.36 -0.901303 -1.29284 0
M  V30 11834 C 1090.61 -0.52401 -1.94774 0
M  V30 11835 C 1090.92 0.934645 -1.71825 0
M  V30 11836 O 1092.13 1.41953 -2.31434 0
M  V30 11837 C 1090.58 -0.886262 -3.48817 0
M  V30 11838 C 1090.19 -2.3638 -3.80564 0
M  V30 11839 C 1091.94 -0.578955 -4.20533 0
M  V30 11840 C 1089.84 -2.66682 -5.27858 0
M  V30 11841 H 1088.77 -0.192244 -0.72908 0
M  V30 11842 H 1091.42 -1.09852 -1.46986 0
M  V30 11843 H 1089.81 -0.240666 -3.95268 0
M  V30 11844 H 1090.98 -3.05508 -3.44966 0
M  V30 11845 H 1089.29 -2.64029 -3.2199 0
M  V30 11846 H 1091.89 -0.782185 -5.28948 0
M  V30 11847 H 1092.23 0.482605 -4.13493 0
M  V30 11848 H 1092.77 -1.18246 -3.79819 0
M  V30 11849 H 1089.51 -3.71643 -5.39965 0
M  V30 11850 H 1089.03 -2.02179 -5.64698 0
M  V30 11851 H 1090.71 -2.53033 -5.95469 0
M  V30 11852 N 1090.84 1.42931 -0.663954 0
M  V30 11853 C 1091.77 2.33499 0.00731327 0
M  V30 11854 C 1092.75 1.50074 0.800733 0
M  V30 11855 O 1093.93 1.78708 0.760062 0
M  V30 11856 C 1091.06 3.33569 0.966897 0
M  V30 11857 C 1090.02 4.27064 0.282839 0
M  V30 11858 C 1089.34 5.17257 1.35461 0
M  V30 11859 C 1090.64 5.1564 -0.831438 0
M  V30 11860 H 1092.34 2.89879 -0.749044 0
M  V30 11861 H 1089.88 1.39385 -0.361656 0
M  V30 11862 H 1091.84 3.95833 1.44549 0
M  V30 11863 H 1090.56 2.75469 1.75455 0
M  V30 11864 H 1089.22 3.6618 -0.175417 0
M  V30 11865 H 1088.87 4.5549 2.13397 0
M  V30 11866 H 1088.57 5.80634 0.902098 0
M  V30 11867 H 1090.09 5.82395 1.83436 0
M  V30 11868 H 1091.51 5.71651 -0.434534 0
M  V30 11869 H 1089.9 5.87794 -1.20908 0
M  V30 11870 H 1090.97 4.54687 -1.68487 0
M  V30 11871 N 1092.32 0.406567 1.52266 0
M  V30 11872 C 1093.56 -0.169717 2.01386 0
M  V30 11873 C 1093.88 -1.45864 1.29417 0
M  V30 11874 O 1093.15 -1.9136 0.419327 0
M  V30 11875 H 1091.73 -0.0657075 0.744105 0
M  V30 11876 H 1094.4 0.542221 1.87206 0
M  V30 11877 H 1093.49 -0.367659 3.09927 0
M  V30 11878 N 1093.79 -1.57004 0.136909 0
M  V30 11879 C 1095.04 -1.96087 -0.517477 0
M  V30 11880 C 1095.37 -1.0213 -1.65176 0
M  V30 11881 O 1094.65 -0.0617958 -1.94402 0
M  V30 11882 C 1094.93 -3.44958 -1.03323 0
M  V30 11883 C 1094.78 -4.49691 0.0988609 0
M  V30 11884 C 1096.1 -3.96091 -1.91832 0
M  V30 11885 H 1093.22 -0.712978 -0.186632 0
M  V30 11886 H 1095.86 -1.88767 0.216095 0
M  V30 11887 H 1094.01 -3.51327 -1.65836 0
M  V30 11888 H 1095.69 -4.55409 0.734847 0
M  V30 11889 H 1093.93 -4.271 0.75947 0
M  V30 11890 H 1094.6 -5.51165 -0.303554 0
M  V30 11891 H 1097.08 -3.92139 -1.39164 0
M  V30 11892 H 1095.95 -5.00742 -2.24831 0
M  V30 11893 H 1096.21 -3.37846 -2.85153 0
M  V30 11894 N 1095.27 0.136881 -1.57004 0
M  V30 11895 C 1096.52 0.8461 -1.83536 0
M  V30 11896 C 1096.84 1.81246 -0.71937 0
M  V30 11897 O 1096.11 1.94191 0.258161 0
M  V30 11898 H 1094.69 0.315446 -0.677128 0
M  V30 11899 H 1097.35 0.128469 -1.94476 0
M  V30 11900 H 1096.45 1.40221 -2.78827 0
M  V30 11901 N 1096.75 1.52266 0.40654 0
M  V30 11902 C 1098.03 1.57018 1.1664 0
M  V30 11903 C 1098.41 0.352752 2.08132 0
M  V30 11904 O 1097.76 -0.660208 2.18754 0
M  V30 11905 C 1097.97 2.90016 1.94143 0
M  V30 11906 C 1099.31 3.43112 2.50119 0
M  V30 11907 O 1100.34 2.91773 2.0432 0
M  V30 11908 O 1099.2 4.32765 3.33731 0
M  V30 11909 H 1096.29 0.632574 0.532709 0
M  V30 11910 H 1098.84 1.64595 0.413111 0
M  V30 11911 H 1097.61 3.70071 1.27134 0
M  V30 11912 H 1097.23 2.85744 2.76471 0
M  V30 11913 N 1098.23 -0.663929 1.42933 0
M  V30 11914 C 1099.64 -0.978346 1.26097 0
M  V30 11915 C 1099.84 -2.00756 0.172968 0
M  V30 11916 O 1098.9 -2.48418 -0.452184 0
M  V30 11917 C 1100.21 -1.4728 2.62162 0
M  V30 11918 C 1101.76 -1.59001 2.69606 0
M  V30 11919 C 1102.24 -2.1184 4.06064 0
M  V30 11920 N 1103.73 -2.19158 4.08074 0
M  V30 11921 C 1104.46 -2.61141 5.10483 0
M  V30 11922 N 1103.96 -3.02498 6.23271 0
M  V30 11923 N 1105.75 -2.60986 4.97838 0
M  V30 11924 H 1097.9 0.0173096 2.12393 0
M  V30 11925 H 1100.17 -0.0548116 0.946414 0
M  V30 11926 H 1099.87 -0.791008 3.42689 0
M  V30 11927 H 1099.75 -2.4497 2.86827 0
M  V30 11928 H 1102.13 -2.26284 1.89418 0
M  V30 11929 H 1102.21 -0.597728 2.48718 0
M  V30 11930 H 1101.86 -1.45162 4.86714 0
M  V30 11931 H 1101.79 -3.1188 4.2431 0
M  V30 11932 H 1104.28 -1.90013 3.26655 0
M  V30 11933 H 1104.59 -3.33251 6.97254 0
M  V30 11934 H 1102.94 -3.00328 6.2676 0
M  V30 11935 H 1106.13 -2.28046 4.08794 0
M  V30 11936 H 1106.3 -2.93384 5.7778 0
M  V30 11937 N 1099.71 -1.29285 -0.901281 0
M  V30 11938 C 1100.66 -1.10907 -1.99208 0
M  V30 11939 C 1101.64 -0.0289641 -1.60874 0
M  V30 11940 O 1102.83 -0.2505 -1.75218 0
M  V30 11941 C 1099.96 -0.785997 -3.34181 0
M  V30 11942 C 1099.05 -1.90556 -3.78879 0
M  V30 11943 N 1099.44 -3.14888 -3.95827 0
M  V30 11944 C 1097.74 -1.79824 -4.08141 0
M  V30 11945 C 1098.44 -3.87919 -4.33467 0
M  V30 11946 N 1097.41 -3.15852 -4.42424 0
M  V30 11947 H 1101.22 -2.05227 -2.10379 0
M  V30 11948 H 1098.73 -1.20387 -1.08999 0
M  V30 11949 H 1100.73 -0.635381 -4.1203 0
M  V30 11950 H 1099.39 0.149302 -3.24357 0
M  V30 11951 H 1100.4 -3.5036 -3.81403 0
M  V30 11952 H 1097.07 -0.935548 -4.06883 0
M  V30 11953 H 1098.46 -4.94909 -4.54439 0
M  V30 11954 N 1101.18 1.11143 -1.11736 0
M  V30 11955 C 1102.11 2.19339 -0.800795 0
M  V30 11956 C 1103.1 1.68508 0.23221 0
M  V30 11957 O 1104.28 1.93967 0.0950063 0
M  V30 11958 C 1101.41 3.46424 -0.246579 0
M  V30 11959 C 1100.36 4.10487 -1.21181 0
M  V30 11960 C 1099.69 5.32183 -0.518158 0
M  V30 11961 C 1100.99 4.55052 -2.56368 0
M  V30 11962 H 1102.68 2.46077 -1.70548 0
M  V30 11963 H 1100.23 1.18271 -0.821454 0
M  V30 11964 H 1102.18 4.21398 -0.0128889 0
M  V30 11965 H 1100.91 3.19154 0.693415 0
M  V30 11966 H 1099.57 3.3751 -1.43118 0
M  V30 11967 H 1099.21 5.01187 0.426742 0
M  V30 11968 H 1098.91 5.75997 -1.16196 0
M  V30 11969 H 1100.44 6.09895 -0.293333 0
M  V30 11970 H 1101.85 5.21335 -2.38501 0
M  V30 11971 H 1100.25 5.0969 -3.16758 0
M  V30 11972 H 1101.32 3.68343 -3.1536 0
M  V30 11973 N 1102.66 0.908147 1.28804 0
M  V30 11974 C 1103.94 0.457561 1.90173 0
M  V30 11975 C 1104.32 -1.06333 1.82364 0
M  V30 11976 O 1103.67 -1.90892 1.25589 0
M  V30 11977 C 1103.88 0.981624 3.34911 0
M  V30 11978 C 1105.23 1.03037 4.11908 0
M  V30 11979 O 1106.25 0.929878 3.43848 0
M  V30 11980 O 1105.11 1.18257 5.33552 0
M  V30 11981 H 1102.2 0.144081 0.814352 0
M  V30 11982 H 1104.75 0.998565 1.37211 0
M  V30 11983 H 1103.52 2.02561 3.34791 0
M  V30 11984 H 1103.14 0.421122 3.95364 0
M  V30 11985 N 1104.14 -1.42577 0.671525 0
M  V30 11986 C 1105.09 -2.32591 -0.0205354 0
M  V30 11987 C 1106.08 -1.4964 -0.793993 0
M  V30 11988 O 1107.29 -1.65733 -0.702327 0
M  V30 11989 H 1103.66 -0.75157 -0.0254344 0
M  V30 11990 H 1105.63 -2.88662 0.756082 0
M  V30 11991 C 1104.38 -3.34175 -0.960316 0
M  V30 11992 H 1103.71 -3.98041 -0.374577 0
M  V30 11993 H 1105.15 -3.99752 -1.4133 0
M  V30 11994 C 1103.61 -2.66184 -2.06513 0
M  V30 11995 O 1104.14 -2.49125 -3.15119 0
M  V30 11996 N 1102.34 -2.25261 -1.83591 0
M  V30 11997 H 1101.89 -2.39336 -0.952689 0
M  V30 11998 H 1101.85 -1.80101 -2.57703 0
M  V30 11999 N 1105.62 -0.414636 -1.52048 0
M  V30 12000 C 1106.55 0.399119 -2.30064 0
M  V30 12001 C 1107.53 1.04126 -1.34506 0
M  V30 12002 O 1108.71 1.04923 -1.63416 0
M  V30 12003 C 1105.84 1.51305 -3.12608 0
M  V30 12004 C 1104.8 0.995621 -4.16259 0
M  V30 12005 C 1104.12 2.20357 -4.87183 0
M  V30 12006 C 1105.42 0.0458178 -5.2228 0
M  V30 12007 H 1107.12 -0.251879 -2.98339 0
M  V30 12008 H 1104.66 -0.122579 -1.43477 0
M  V30 12009 H 1106.62 2.08936 -3.65956 0
M  V30 12010 H 1105.34 2.19201 -2.42113 0
M  V30 12011 H 1104 0.441676 -3.6393 0
M  V30 12012 H 1103.65 2.8682 -4.13211 0
M  V30 12013 H 1103.35 1.86385 -5.57256 0
M  V30 12014 H 1104.87 2.78584 -5.43345 0
M  V30 12015 H 1106.29 0.531102 -5.70835 0
M  V30 12016 H 1104.68 -0.20536 -5.99749 0
M  V30 12017 H 1105.75 -0.897807 -4.76516 0
M  V30 12018 N 1107.1 1.56929 -0.145233 0
M  V30 12019 C 1108.03 2.19685 0.791263 0
M  V30 12020 C 1109.01 1.14455 1.25833 0
M  V30 12021 O 1110.19 1.42791 1.31622 0
M  V30 12022 C 1107.32 2.81705 2.03124 0
M  V30 12023 C 1106.28 3.92746 1.70101 0
M  V30 12024 C 1105.6 4.41694 3.01347 0
M  V30 12025 C 1106.9 5.13606 0.949025 0
M  V30 12026 H 1108.6 2.98196 0.26825 0
M  V30 12027 H 1106.14 1.43434 0.127584 0
M  V30 12028 H 1108.1 3.24273 2.69119 0
M  V30 12029 H 1106.82 2.00523 2.57795 0
M  V30 12030 H 1105.48 3.50794 1.06486 0
M  V30 12031 H 1105.13 3.57336 3.54006 0
M  V30 12032 H 1104.83 5.1659 2.80016 0
M  V30 12033 H 1106.35 4.86931 3.68416 0
M  V30 12034 H 1107.76 5.53029 1.51102 0
M  V30 12035 H 1106.16 5.94252 0.835711 0
M  V30 12036 H 1107.23 4.84863 -0.0595631 0
M  V30 12037 N 1108.58 -0.128553 1.57075 0
M  V30 12038 C 1109.51 -1.15953 2.02675 0
M  V30 12039 C 1110.49 -1.43743 0.909501 0
M  V30 12040 O 1111.67 -1.54348 1.17857 0
M  V30 12041 C 1108.8 -2.48813 2.423 0
M  V30 12042 C 1107.76 -2.35506 3.57381 0
M  V30 12043 C 1107.08 -3.73243 3.82875 0
M  V30 12044 C 1108.38 -1.82359 4.89431 0
M  V30 12045 H 1110.08 -0.780283 2.89054 0
M  V30 12046 H 1107.62 -0.373896 1.39061 0
M  V30 12047 H 1109.57 -3.21179 2.72804 0
M  V30 12048 H 1108.3 -2.88609 1.52881 0
M  V30 12049 H 1106.96 -1.6559 3.27071 0
M  V30 12050 H 1106.61 -4.10507 2.90677 0
M  V30 12051 H 1106.31 -3.65195 4.60333 0
M  V30 12052 H 1107.83 -4.47128 4.15823 0
M  V30 12053 H 1109.24 -2.44533 5.18533 0
M  V30 12054 H 1107.64 -1.85156 5.70822 0
M  V30 12055 H 1108.71 -0.780478 4.78578 0
M  V30 12056 N 1110.05 -1.5248 -0.398459 0
M  V30 12057 C 1111.28 -1.70925 -1.16586 0
M  V30 12058 C 1111.7 -0.42342 -1.83991 0
M  V30 12059 O 1111.05 0.601395 -1.72306 0
M  V30 12060 C 1111.1 -2.85226 -2.22099 0
M  V30 12061 O 1110.83 -4.08831 -1.57444 0
M  V30 12062 C 1112.33 -3.15272 -3.11639 0
M  V30 12063 H 1109.55 -0.572533 -0.349924 0
M  V30 12064 H 1112.09 -1.99087 -0.467416 0
M  V30 12065 H 1110.25 -2.59553 -2.87595 0
M  V30 12066 H 1110.66 -4.72603 -2.2748 0
M  V30 12067 H 1112.13 -3.98737 -3.81724 0
M  V30 12068 H 1112.61 -2.29262 -3.74614 0
M  V30 12069 H 1113.22 -3.42749 -2.518 0
M  V30 12070 N 1111.53 0.65634 -1.43283 0
M  V30 12071 C 1112.48 1.76934 -1.48199 0
M  V30 12072 C 1113.45 1.62748 -0.332023 0
M  V30 12073 O 1114.63 1.83036 -0.538735 0
M  V30 12074 C 1111.77 3.15072 -1.40797 0
M  V30 12075 C 1110.89 3.40414 -2.65974 0
M  V30 12076 C 1110.02 4.68383 -2.50582 0
M  V30 12077 C 1109.06 4.8682 -3.71043 0
M  V30 12078 N 1108.2 6.06043 -3.5448 0
M  V30 12079 H 1113.04 1.72067 -2.43304 0
M  V30 12080 H 1110.57 0.839728 -1.20777 0
M  V30 12081 H 1112.53 3.94925 -1.345 0
M  V30 12082 H 1111.16 3.19017 -0.492754 0
M  V30 12083 H 1110.21 2.54681 -2.82563 0
M  V30 12084 H 1111.53 3.49925 -3.55463 0
M  V30 12085 H 1110.68 5.56357 -2.41975 0
M  V30 12086 H 1109.42 4.61187 -1.58612 0
M  V30 12087 H 1108.42 3.97282 -3.80062 0
M  V30 12088 H 1109.65 4.95847 -4.64017 0
M  V30 12089 H 1107.6 5.99985 -2.65242 0
M  V30 12090 H 1107.51 6.16498 -4.37568 0
M  V30 12091 H 1108.78 6.96647 -3.49719 0
M  V30 12092 N 1113.01 1.29761 0.894412 0
M  V30 12093 C 1114.24 1.2094 1.67872 0
M  V30 12094 C 1114.65 -0.229192 1.87404 0
M  V30 12095 O 1114.01 -1.15278 1.41482 0
M  V30 12096 C 1114.06 1.92424 3.06032 0
M  V30 12097 O 1113.78 3.30665 2.87388 0
M  V30 12098 C 1115.28 1.90144 4.0045 0
M  V30 12099 H 1112.5 0.418942 0.524145 0
M  V30 12100 H 1115.05 1.71226 1.11813 0
M  V30 12101 H 1113.2 1.4596 3.58851 0
M  V30 12102 H 1113.62 3.66741 3.74969 0
M  V30 12103 H 1115.09 2.44716 4.94791 0
M  V30 12104 H 1115.57 0.878175 4.30331 0
M  V30 12105 H 1116.17 2.36375 3.53563 0
M  V30 12106 N 1114.49 -1.10549 1.12324 0
M  V30 12107 C 1115.74 -1.82124 0.876083 0
M  V30 12108 C 1116.06 -1.85547 -0.599761 0
M  V30 12109 O 1115.33 -1.33269 -1.43584 0
M  V30 12110 H 1113.91 -0.674455 0.321122 0
M  V30 12111 H 1116.57 -1.33766 1.41748 0
M  V30 12112 H 1115.66 -2.85688 1.25653 0
M  V30 12113 N 1115.97 -0.914965 -1.28321 0
M  V30 12114 C 1116.91 -0.402792 -2.27258 0
M  V30 12115 C 1117.88 0.523412 -1.57638 0
M  V30 12116 O 1119.07 0.445344 -1.8553 0
M  V30 12117 C 1116.21 0.349956 -3.43321 0
M  V30 12118 C 1115.32 -0.608892 -4.27687 0
M  V30 12119 C 1114.46 0.162425 -5.30952 0
M  V30 12120 C 1113.49 -0.789959 -6.06981 0
M  V30 12121 N 1112.63 -0.0520826 -7.02081 0
M  V30 12122 H 1117.47 -1.25153 -2.70446 0
M  V30 12123 H 1115.01 -0.628444 -1.33 0
M  V30 12124 H 1116.97 0.802589 -4.09407 0
M  V30 12125 H 1115.6 1.16303 -3.01121 0
M  V30 12126 H 1114.65 -1.18005 -3.61634 0
M  V30 12127 H 1115.96 -1.33727 -4.8054 0
M  V30 12128 H 1115.11 0.675563 -6.02927 0
M  V30 12129 H 1113.85 0.923851 -4.7887 0
M  V30 12130 H 1112.86 -1.31446 -5.33856 0
M  V30 12131 H 1114.08 -1.55096 -6.61152 0
M  V30 12132 H 1112.03 0.691331 -6.52347 0
M  V30 12133 H 1111.95 -0.720267 -7.52561 0
M  V30 12134 H 1113.21 0.44082 -7.78253 0
M  V30 12135 N 1117.44 1.42219 -0.679077 0
M  V30 12136 C 1118.37 2.33493 -0.0174528 0
M  V30 12137 C 1119.35 1.50915 0.78477 0
M  V30 12138 O 1120.54 1.79504 0.741065 0
M  V30 12139 C 1117.67 3.34576 0.931463 0
M  V30 12140 C 1116.62 4.2734 0.237527 0
M  V30 12141 C 1115.95 5.18664 1.29967 0
M  V30 12142 C 1117.25 5.14729 -0.886082 0
M  V30 12143 H 1118.94 2.89068 -0.779748 0
M  V30 12144 H 1116.49 1.38993 -0.376419 0
M  V30 12145 H 1118.44 3.97343 1.40343 0
M  V30 12146 H 1117.17 2.77315 1.72523 0
M  V30 12147 H 1115.83 3.65973 -0.214245 0
M  V30 12148 H 1115.47 4.57727 2.08554 0
M  V30 12149 H 1115.17 5.81558 0.840463 0
M  V30 12150 H 1116.7 5.84308 1.77249 0
M  V30 12151 H 1118.11 5.71158 -0.495141 0
M  V30 12152 H 1116.51 5.86478 -1.27135 0
M  V30 12153 H 1117.58 4.52874 -1.733 0
M  V30 12154 N 1118.92 0.422693 1.51826 0
M  V30 12155 C 1120.17 -0.148641 2.01954 0
M  V30 12156 C 1120.5 -1.43982 1.30765 0
M  V30 12157 O 1119.75 -1.91428 0.406668 0
M  V30 12158 C 1120.05 -0.429516 3.5481 0
M  V30 12159 C 1119.72 0.774088 4.44206 0
M  V30 12160 C 1118.38 1.1042 4.6836 0
M  V30 12161 C 1120.73 1.5777 4.96747 0
M  V30 12162 C 1118.06 2.23887 5.42302 0
M  V30 12163 C 1120.41 2.70325 5.71933 0
M  V30 12164 C 1119.07 3.03807 5.94355 0
M  V30 12165 H 1118.34 -0.0543917 0.739001 0
M  V30 12166 H 1120.99 0.566892 1.82917 0
M  V30 12167 H 1119.3 -1.22678 3.72099 0
M  V30 12168 H 1120.99 -0.884761 3.91118 0
M  V30 12169 H 1117.58 0.506834 4.25593 0
M  V30 12170 H 1121.77 1.33589 4.77983 0
M  V30 12171 H 1117.02 2.50159 5.5788 0
M  V30 12172 H 1121.2 3.32974 6.11638 0
M  V30 12173 H 1118.82 3.91844 6.51431 0
M  V30 12174 N 1120.4 -1.5685 0.153553 0
M  V30 12175 C 1121.35 -2.13671 -0.795526 0
M  V30 12176 C 1122.33 -1.06624 -1.20499 0
M  V30 12177 O 1123.53 -1.32788 -1.17032 0
M  V30 12178 C 1120.65 -2.76704 -2.03199 0
M  V30 12179 C 1119.74 -3.90884 -1.64532 0
M  V30 12180 N 1120.13 -4.96466 -0.96723 0
M  V30 12181 C 1118.43 -4.01713 -1.93759 0
M  V30 12182 C 1119.13 -5.76453 -0.779527 0
M  V30 12183 N 1118.11 -5.27444 -1.31544 0
M  V30 12184 H 1121.91 -2.92673 -0.268288 0
M  V30 12185 H 1119.42 -1.6233 -0.0477596 0
M  V30 12186 H 1121.42 -3.15777 -2.72196 0
M  V30 12187 H 1120.08 -1.99177 -2.56434 0
M  V30 12188 H 1121.09 -5.14087 -0.627253 0
M  V30 12189 H 1117.77 -3.3527 -2.48797 0
M  V30 12190 H 1119.16 -6.71455 -0.244604 0
M  V30 12191 N 1121.88 0.120221 -1.57141 0
M  V30 12192 C 1123.13 0.826791 -1.83976 0
M  V30 12193 C 1123.44 1.81102 -0.739014 0
M  V30 12194 O 1124.65 2.56368 -0.893736 0
M  V30 12195 C 1123.1 1.52108 -3.26176 0
M  V30 12196 C 1122.71 0.577902 -4.44257 0
M  V30 12197 C 1124.45 2.21286 -3.62261 0
M  V30 12198 C 1122.36 1.27535 -5.77485 0
M  V30 12199 H 1121.29 0.312508 -0.686189 0
M  V30 12200 H 1123.94 0.0795343 -1.83328 0
M  V30 12201 H 1122.32 2.31492 -3.2129 0
M  V30 12202 H 1123.5 -0.182629 -4.60438 0
M  V30 12203 H 1121.81 -0.00684348 -4.16399 0
M  V30 12204 H 1124.41 2.74154 -4.59068 0
M  V30 12205 H 1124.75 2.99029 -2.89634 0
M  V30 12206 H 1125.29 1.48791 -3.68925 0
M  V30 12207 H 1122.02 0.539237 -6.53278 0
M  V30 12208 H 1121.54 2.00792 -5.65192 0
M  V30 12209 H 1123.22 1.80888 -6.21199 0
M  V30 12210 N 1123.36 1.52689 0.390367 0
M  V30 12211 C 1124.63 1.58246 1.14968 0
M  V30 12212 C 1125.01 0.374808 2.07746 0
M  V30 12213 O 1124.36 -0.636969 2.19442 0
M  V30 12214 C 1124.57 2.92059 1.91056 0
M  V30 12215 C 1125.92 3.45745 2.46466 0
M  V30 12216 O 1126.94 2.93924 2.01214 0
M  V30 12217 O 1125.8 4.3628 3.29122 0
M  V30 12218 H 1122.9 0.638189 0.52597 0
M  V30 12219 H 1125.44 1.65024 0.39563 0
M  V30 12220 H 1124.21 3.71399 1.23201 0
M  V30 12221 H 1123.84 2.8866 2.73425 0
M  V30 12222 N 1124.83 -0.648732 1.43629 0
M  V30 12223 C 1126.08 -1.40857 1.45483 0
M  V30 12224 C 1126.41 -1.94332 0.0807963 0
M  V30 12225 O 1125.66 -1.72999 -0.914875 0
M  V30 12226 C 1125.96 -2.60394 2.44806 0
M  V30 12227 C 1125.63 -2.25311 3.90571 0
M  V30 12228 C 1124.29 -2.15456 4.3027 0
M  V30 12229 C 1126.64 -1.97307 4.8241 0
M  V30 12230 C 1123.97 -1.75759 5.59755 0
M  V30 12231 C 1126.32 -1.59108 6.12264 0
M  V30 12232 C 1124.99 -1.47781 6.50936 0
M  V30 12233 H 1124.26 -0.515434 0.532362 0
M  V30 12234 H 1126.9 -0.737339 1.76736 0
M  V30 12235 H 1125.21 -3.3267 2.06973 0
M  V30 12236 H 1126.91 -3.18609 2.43494 0
M  V30 12237 H 1123.5 -2.33894 3.59154 0
M  V30 12238 H 1127.68 -2.0384 4.52507 0
M  V30 12239 H 1122.94 -1.65579 5.88552 0
M  V30 12240 H 1127.11 -1.36472 6.82897 0
M  V30 12241 H 1124.74 -1.16792 7.51175 0
M  V30 12242 N 1126.31 -1.30234 -0.887518 0
M  V30 12243 C 1127.56 -1.18675 -1.63587 0
M  V30 12244 C 1127.88 0.259342 -1.93268 0
M  V30 12245 O 1127.15 1.17523 -1.56733 0
M  V30 12246 H 1125.73 -0.436224 -0.606397 0
M  V30 12247 H 1128.39 -1.63326 -1.06351 0
M  V30 12248 H 1127.49 -1.74575 -2.58708 0
M  V30 12249 N 1127.79 1.09952 -1.12909 0
M  V30 12250 C 1129.02 1.8552 -0.909163 0
M  V30 12251 C 1129.43 1.81173 0.545253 0
M  V30 12252 O 1128.77 1.20223 1.38896 0
M  V30 12253 C 1128.83 3.34693 -1.31228 0
M  V30 12254 C 1128.5 3.62794 -2.77902 0
M  V30 12255 C 1129.49 3.58973 -3.76078 0
M  V30 12256 C 1127.18 3.91311 -3.1493 0
M  V30 12257 C 1129.17 3.83271 -5.09296 0
M  V30 12258 C 1126.86 4.15265 -4.48328 0
M  V30 12259 C 1127.86 4.11236 -5.4532 0
M  V30 12260 O 1127.55 4.34576 -6.76313 0
M  V30 12261 H 1127.28 0.59303 -0.324486 0
M  V30 12262 H 1129.83 1.39878 -1.5041 0
M  V30 12263 H 1128.06 3.81016 -0.660573 0
M  V30 12264 H 1129.75 3.9166 -1.06569 0
M  V30 12265 H 1130.52 3.36974 -3.48817 0
M  V30 12266 H 1126.4 3.93575 -2.40041 0
M  V30 12267 H 1129.94 3.80041 -5.84991 0
M  V30 12268 H 1125.84 4.36743 -4.75316 0
M  V30 12269 H 1126.61 4.52065 -6.82334 0
M  V30 12270 N 1129.27 0.921757 1.27833 0
M  V30 12271 C 1130.52 0.55493 1.93916 0
M  V30 12272 C 1130.83 -0.907191 1.7329 0
M  V30 12273 O 1132.04 -1.38253 2.33663 0
M  V30 12274 C 1130.49 0.941644 3.47363 0
M  V30 12275 C 1130.1 2.42404 3.76755 0
M  V30 12276 C 1131.84 0.645785 4.19559 0
M  V30 12277 C 1129.75 2.75046 5.23549 0
M  V30 12278 H 1128.68 0.203818 0.72593 0
M  V30 12279 H 1131.33 1.12176 1.4522 0
M  V30 12280 H 1129.71 0.303519 3.94835 0
M  V30 12281 H 1130.89 3.10957 3.40062 0
M  V30 12282 H 1129.2 2.69118 3.17749 0
M  V30 12283 H 1131.8 0.866237 5.27637 0
M  V30 12284 H 1132.14 -0.41676 4.14209 0
M  V30 12285 H 1132.68 1.24274 3.7789 0
M  V30 12286 H 1129.42 3.80186 5.33984 0
M  V30 12287 H 1128.94 2.11138 5.6141 0
M  V30 12288 H 1130.61 2.62474 5.91368 0
M  V30 12289 N 1130.75 -1.41857 0.686609 0
M  V30 12290 C 1131.68 -2.33481 0.0298353 0
M  V30 12291 C 1132.66 -1.51329 -0.776756 0
M  V30 12292 O 1133.84 -1.79895 -0.731535 0
M  V30 12293 C 1130.97 -3.35065 -0.913707 0
M  V30 12294 C 1129.93 -4.2746 -0.214861 0
M  V30 12295 C 1129.25 -5.19346 -1.27215 0
M  V30 12296 C 1130.55 -5.14252 0.913367 0
M  V30 12297 H 1132.25 -2.8865 0.795067 0
M  V30 12298 H 1129.79 -1.38792 0.383785 0
M  V30 12299 H 1131.75 -3.98082 -1.38234 0
M  V30 12300 H 1130.47 -2.78226 -1.7105 0
M  V30 12301 H 1129.13 -3.65855 0.233651 0
M  V30 12302 H 1128.78 -4.58827 -2.06124 0
M  V30 12303 H 1128.48 -5.81996 -0.80961 0
M  V30 12304 H 1130 -5.85239 -1.74147 0
M  V30 12305 H 1131.41 -5.70887 0.525424 0
M  V30 12306 H 1129.81 -5.85796 1.30244 0
M  V30 12307 H 1130.88 -4.51949 1.75699 0
M  V30 12308 N 1132.22 -0.430739 -1.51599 0
M  V30 12309 C 1133.47 0.137657 -2.01631 0
M  V30 12310 C 1133.79 1.43787 -1.31721 0
M  V30 12311 O 1133.06 1.90668 -0.449717 0
M  V30 12312 H 1131.64 0.0538611 -0.745056 0
M  V30 12313 H 1134.31 -0.571935 -1.86319 0
M  V30 12314 H 1133.4 0.318305 -3.10473 0
M  V30 12315 N 1133.7 1.56767 -0.161869 0
M  V30 12316 C 1135.12 1.58412 0.194403 0
M  V30 12317 C 1135.32 1.17682 1.63564 0
M  V30 12318 O 1134.37 0.884024 2.36519 0
M  V30 12319 C 1135.69 3.00599 -0.0778438 0
M  V30 12320 C 1137.24 3.12996 -0.015307 0
M  V30 12321 C 1137.71 4.57259 -0.260418 0
M  V30 12322 N 1139.2 4.62733 -0.207863 0
M  V30 12323 C 1139.94 5.72193 -0.371821 0
M  V30 12324 N 1139.43 6.90246 -0.594318 0
M  V30 12325 N 1141.23 5.61253 -0.308384 0
M  V30 12326 H 1133.38 1.81531 -1.10274 0
M  V30 12327 H 1135.64 0.840919 -0.437675 0
M  V30 12328 H 1135.35 3.3484 -1.07587 0
M  V30 12329 H 1135.22 3.71819 0.634845 0
M  V30 12330 H 1137.61 2.78588 0.97329 0
M  V30 12331 H 1137.69 2.44232 -0.760559 0
M  V30 12332 H 1137.33 4.92375 -1.24618 0
M  V30 12333 H 1137.26 5.2417 0.505334 0
M  V30 12334 H 1139.75 3.77878 -0.0411541 0
M  V30 12335 H 1140.07 7.6954 -0.70913 0
M  V30 12336 H 1138.41 6.92131 -0.630819 0
M  V30 12337 H 1141.6 4.67905 -0.135217 0
M  V30 12338 H 1141.77 6.46507 -0.439592 0
M  V30 12339 N 1135.18 -0.111886 1.57202 0
M  V30 12340 C 1136.46 -0.849125 1.76208 0
M  V30 12341 C 1136.84 -1.97735 0.73919 0
M  V30 12342 O 1136.19 -2.27283 -0.235523 0
M  V30 12343 C 1136.4 -1.35924 3.21443 0
M  V30 12344 C 1137.74 -1.80874 3.84148 0
M  V30 12345 O 1138.77 -1.45587 3.25089 0
M  V30 12346 O 1137.63 -2.46065 4.87969 0
M  V30 12347 H 1134.72 -0.403761 0.721738 0
M  V30 12348 H 1137.27 -0.0950726 1.69433 0
M  V30 12349 H 1136.04 -0.550113 3.87414 0
M  V30 12350 H 1135.66 -2.17579 3.32784 0
M  V30 12351 N 1136.66 -1.52894 -0.382264 0
M  V30 12352 C 1138.07 -1.60135 -0.959887 0
M  V30 12353 C 1138.42 -0.458363 -1.90771 0
M  V30 12354 O 1137.55 0.417614 -2.12332 0
M  V30 12355 C 1138.14 -2.90243 -1.74769 0
M  V30 12356 C 1136.7 -2.99874 -2.27491 0
M  V30 12357 C 1135.85 -2.55302 -1.0824 0
M  V30 12358 H 1138.8 -1.57875 -0.161589 0
M  V30 12359 H 1138.82 -2.77108 -2.60751 0
M  V30 12360 H 1138.33 -3.73412 -1.0576 0
M  V30 12361 H 1136.43 -2.21258 -2.99793 0
M  V30 12362 H 1136.54 -4.04643 -2.56516 0
M  V30 12363 H 1134.91 -2.09781 -1.44444 0
M  V30 12364 H 1135.69 -3.40872 -0.407553 0
M  V30 12365 N 1138.14 0.641106 -1.43971 0
M  V30 12366 C 1139.08 1.75352 -1.50068 0
M  V30 12367 C 1140.05 1.62386 -0.349266 0
M  V30 12368 O 1141.24 1.82455 -0.558118 0
M  V30 12369 C 1138.38 3.13561 -1.4413 0
M  V30 12370 C 1137.49 3.37574 -2.6957 0
M  V30 12371 C 1136.63 4.65698 -2.55535 0
M  V30 12372 C 1135.67 4.82857 -3.76186 0
M  V30 12373 N 1134.8 6.02249 -3.60888 0
M  V30 12374 H 1139.64 1.69477 -2.45116 0
M  V30 12375 H 1137.18 0.826871 -1.2166 0
M  V30 12376 H 1139.14 3.93476 -1.38681 0
M  V30 12377 H 1137.77 3.18476 -0.526563 0
M  V30 12378 H 1136.82 2.5167 -2.85248 0
M  V30 12379 H 1138.13 3.46135 -3.59154 0
M  V30 12380 H 1137.29 5.53759 -2.47862 0
M  V30 12381 H 1136.03 4.59479 -1.63495 0
M  V30 12382 H 1135.03 3.93229 -3.84254 0
M  V30 12383 H 1136.26 4.90898 -4.6925 0
M  V30 12384 H 1134.2 5.97138 -2.71591 0
M  V30 12385 H 1134.12 6.11822 -4.44083 0
M  V30 12386 H 1135.39 6.92898 -3.57088 0
M  V30 12387 N 1139.62 1.30703 0.880598 0
M  V30 12388 C 1141.03 1.17818 1.4483 0
M  V30 12389 C 1141.38 -0.219456 1.94969 0
M  V30 12390 O 1140.5 -1.11646 1.85375 0
M  V30 12391 C 1141.1 2.13275 2.63247 0
M  V30 12392 C 1139.66 2.04356 3.16094 0
M  V30 12393 C 1138.8 2.03108 1.88792 0
M  V30 12394 H 1141.75 1.42909 0.690125 0
M  V30 12395 H 1141.78 1.71615 3.39601 0
M  V30 12396 H 1141.29 3.14988 2.26725 0
M  V30 12397 H 1139.39 1.058 3.57263 0
M  V30 12398 H 1139.5 2.92953 3.79098 0
M  V30 12399 H 1137.87 1.47971 2.07308 0
M  V30 12400 H 1138.65 3.06558 1.54521 0
M  V30 12401 N 1141.09 -1.09351 1.1349 0
M  V30 12402 C 1142.02 -2.18037 0.835588 0
M  V30 12403 C 1143 -1.68856 -0.205373 0
M  V30 12404 O 1144.19 -1.94094 -0.0641357 0
M  V30 12405 C 1141.32 -3.45987 0.301661 0
M  V30 12406 C 1140.27 -4.08507 1.27696 0
M  V30 12407 C 1139.6 -5.31292 0.602758 0
M  V30 12408 C 1140.9 -4.50916 2.63575 0
M  V30 12409 H 1142.59 -2.43332 1.74441 0
M  V30 12410 H 1140.14 -1.1695 0.840166 0
M  V30 12411 H 1142.09 -4.21324 0.079928 0
M  V30 12412 H 1140.82 -3.20217 -0.642552 0
M  V30 12413 H 1139.48 -3.3519 1.4847 0
M  V30 12414 H 1139.12 -5.01802 -0.346953 0
M  V30 12415 H 1138.82 -5.74075 1.25345 0
M  V30 12416 H 1140.35 -6.09351 0.390325 0
M  V30 12417 H 1141.76 -5.17474 2.46765 0
M  V30 12418 H 1140.16 -5.04586 3.24827 0
M  V30 12419 H 1141.23 -3.63279 3.2118 0
M  V30 12420 N 1142.57 -0.928524 -1.27343 0
M  V30 12421 C 1143.98 -0.613856 -1.7632 0
M  V30 12422 C 1144.33 0.870983 -1.75808 0
M  V30 12423 O 1143.46 1.68155 -1.36209 0
M  V30 12424 C 1144.05 -1.10755 -3.20186 0
M  V30 12425 C 1142.61 -0.843532 -3.66826 0
M  V30 12426 C 1141.76 -1.26579 -2.46724 0
M  V30 12427 H 1144.71 -1.10821 -1.13598 0
M  V30 12428 H 1144.73 -0.455598 -3.77763 0
M  V30 12429 H 1144.24 -2.18825 -3.20526 0
M  V30 12430 H 1142.34 0.223334 -3.7193 0
M  V30 12431 H 1142.46 -1.46165 -4.56259 0
M  V30 12432 H 1140.82 -0.684334 -2.45334 0
M  V30 12433 H 1141.6 -2.35516 -2.49774 0
M  V30 12434 N 1144.05 1.41491 -0.694123 0
M  V30 12435 C 1145.46 1.84283 -0.299439 0
M  V30 12436 C 1145.81 1.58081 1.16211 0
M  V30 12437 O 1144.94 1.05051 1.89191 0
M  V30 12438 C 1145.53 3.34522 -0.536696 0
M  V30 12439 C 1144.09 3.7589 -0.195944 0
M  V30 12440 C 1143.24 2.64908 -0.819692 0
M  V30 12441 H 1146.19 1.31063 -0.894884 0
M  V30 12442 H 1146.21 3.79947 0.205062 0
M  V30 12443 H 1145.72 3.53561 -1.6005 0
M  V30 12444 H 1143.82 3.62452 0.863655 0
M  V30 12445 H 1143.94 4.74671 -0.649954 0
M  V30 12446 H 1142.3 2.53476 -0.249412 0
M  V30 12447 H 1143.08 2.86765 -1.88734 0
M  V30 12448 N 1145.53 0.438773 1.51369 0
M  V30 12449 C 1146.94 -0.0240139 1.86685 0
M  V30 12450 C 1147.29 -1.41816 1.35583 0
M  V30 12451 O 1146.41 -2.04517 0.707232 0
M  V30 12452 C 1147.01 -0.0503527 3.38763 0
M  V30 12453 C 1145.57 -0.457556 3.73609 0
M  V30 12454 C 1144.72 0.348852 2.75097 0
M  V30 12455 H 1147.67 0.654552 1.44573 0
M  V30 12456 H 1147.69 -0.859534 3.70665 0
M  V30 12457 H 1147.2 0.964451 3.75925 0
M  V30 12458 H 1145.3 -1.47791 3.42036 0
M  V30 12459 H 1145.41 -0.181357 4.78757 0
M  V30 12460 H 1143.78 -0.193037 2.53967 0
M  V30 12461 H 1144.56 1.36256 3.15102 0
M  V30 12462 N 1147.01 -1.56678 0.170181 0
M  V30 12463 C 1147.94 -2.13747 -0.799203 0
M  V30 12464 C 1148.92 -1.06725 -1.22673 0
M  V30 12465 O 1150.1 -1.34694 -1.3187 0
M  V30 12466 C 1147.23 -2.67611 -2.07611 0
M  V30 12467 C 1146.27 -3.86994 -1.7927 0
M  V30 12468 S 1147.11 -5.26771 -0.962951 0
M  V30 12469 C 1148.26 -5.84039 -2.25054 0
M  V30 12470 H 1148.5 -2.95637 -0.313976 0
M  V30 12471 H 1146.03 -1.54336 -0.0444708 0
M  V30 12472 H 1147.99 -2.99291 -2.80954 0
M  V30 12473 H 1146.65 -1.85808 -2.53247 0
M  V30 12474 H 1145.84 -4.23006 -2.74011 0
M  V30 12475 H 1145.44 -3.56195 -1.14023 0
M  V30 12476 H 1147.73 -5.96883 -3.20525 0
M  V30 12477 H 1148.68 -6.81145 -1.93513 0
M  V30 12478 H 1149.09 -5.12449 -2.36763 0
M  V30 12479 N 1148.48 0.103547 -1.57259 0
M  V30 12480 C 1149.43 1.12621 -2.01458 0
M  V30 12481 C 1150.4 1.40282 -0.889391 0
M  V30 12482 O 1151.59 1.51887 -1.15477 0
M  V30 12483 C 1148.73 2.44352 -2.43692 0
M  V30 12484 C 1147.84 2.23495 -3.69695 0
M  V30 12485 C 1146.97 3.48565 -4.00844 0
M  V30 12486 C 1146.01 3.22932 -5.19982 0
M  V30 12487 N 1145.15 4.40246 -5.46926 0
M  V30 12488 H 1149.99 0.742315 -2.88606 0
M  V30 12489 H 1147.53 0.355016 -1.42752 0
M  V30 12490 H 1149.48 3.2122 -2.66221 0
M  V30 12491 H 1148.11 2.80605 -1.59565 0
M  V30 12492 H 1147.17 1.3747 -3.54692 0
M  V30 12493 H 1148.48 2.0054 -4.56711 0
M  V30 12494 H 1147.63 4.33844 -4.24104 0
M  V30 12495 H 1146.37 3.74565 -3.12333 0
M  V30 12496 H 1145.38 2.36045 -4.96551 0
M  V30 12497 H 1146.6 2.98286 -6.10084 0
M  V30 12498 H 1144.55 4.66338 -4.61373 0
M  V30 12499 H 1144.46 4.20452 -6.28296 0
M  V30 12500 H 1145.73 5.26614 -5.74716 0
M  V30 12501 N 1149.96 1.53094 0.37415 0
M  V30 12502 C 1150.89 1.81901 1.46404 0
M  V30 12503 C 1151.87 0.671949 1.56265 0
M  V30 12504 O 1153.06 0.920978 1.70973 0
M  V30 12505 C 1150.19 2.00123 2.83845 0
M  V30 12506 C 1149.14 3.15864 2.88814 0
M  V30 12507 C 1148.47 3.19364 4.28848 0
M  V30 12508 C 1149.77 4.54633 2.57112 0
M  V30 12509 H 1151.46 2.73172 1.22546 0
M  V30 12510 H 1149.01 1.31444 0.588087 0
M  V30 12511 H 1150.96 2.18859 3.6011 0
M  V30 12512 H 1149.68 1.05555 3.09072 0
M  V30 12513 H 1148.34 2.96935 2.15 0
M  V30 12514 H 1147.99 2.2245 4.51137 0
M  V30 12515 H 1147.69 3.97123 4.3309 0
M  V30 12516 H 1149.22 3.40273 5.06997 0
M  V30 12517 H 1150.63 4.73587 3.23091 0
M  V30 12518 H 1149.03 5.34569 2.72683 0
M  V30 12519 H 1150.1 4.60331 1.52392 0
M  V30 12520 N 1151.44 -0.633461 1.44309 0
M  V30 12521 C 1152.39 -1.76674 1.51292 0
M  V30 12522 C 1153.38 -1.64972 0.384807 0
M  V30 12523 O 1154.59 -1.71079 0.559653 0
M  V30 12524 H 1150.96 -0.583238 0.474697 0
M  V30 12525 H 1152.93 -1.67907 2.46678 0
M  V30 12526 C 1151.68 -3.15002 1.47205 0
M  V30 12527 H 1151.01 -3.24653 2.33325 0
M  V30 12528 H 1152.45 -3.94199 1.56151 0
M  V30 12529 C 1150.9 -3.3635 0.192464 0
M  V30 12530 O 1151.43 -3.94857 -0.738285 0
M  V30 12531 N 1149.64 -2.9044 0.0963424 0
M  V30 12532 H 1149.19 -2.43011 0.85459 0
M  V30 12533 H 1149.15 -3.05099 -0.759061 0
M  V30 12534 N 1152.92 -1.31168 -0.873655 0
M  V30 12535 C 1153.87 -1.18507 -1.98052 0
M  V30 12536 C 1154.84 -0.0717583 -1.65945 0
M  V30 12537 O 1156.02 -0.243965 -1.89234 0
M  V30 12538 C 1153.16 -0.894571 -3.33304 0
M  V30 12539 C 1152.27 -2.09086 -3.7803 0
M  V30 12540 C 1151.41 -1.73747 -5.01982 0
M  V30 12541 C 1150.45 -2.89805 -5.39147 0
M  V30 12542 N 1149.58 -2.54686 -6.54278 0
M  V30 12543 H 1154.42 -2.13193 -2.08213 0
M  V30 12544 H 1151.96 -1.06056 -1.01934 0
M  V30 12545 H 1153.92 -0.706714 -4.11171 0
M  V30 12546 H 1152.55 0.0154449 -3.22796 0
M  V30 12547 H 1151.6 -2.38961 -2.95976 0
M  V30 12548 H 1152.91 -2.95963 -4.01506 0
M  V30 12549 H 1152.07 -1.51402 -5.87505 0
M  V30 12550 H 1150.81 -0.840553 -4.80402 0
M  V30 12551 H 1149.81 -3.12803 -4.52144 0
M  V30 12552 H 1151.04 -3.802 -5.62694 0
M  V30 12553 H 1148.98 -1.67513 -6.34252 0
M  V30 12554 H 1148.9 -3.35093 -6.77679 0
M  V30 12555 H 1150.17 -2.35725 -7.43003 0
M  V30 12556 N 1154.4 1.08748 -1.14068 0
M  V30 12557 C 1155.31 2.19123 -0.837998 0
M  V30 12558 C 1156.32 1.73065 0.180164 0
M  V30 12559 O 1157.5 2.01398 0.00952285 0
M  V30 12560 C 1154.56 3.45257 -0.316 0
M  V30 12561 C 1153.62 4.05959 -1.39628 0
M  V30 12562 C 1152.86 5.26072 -0.899095 0
M  V30 12563 O 1153.08 5.69804 0.260744 0
M  V30 12564 O 1152.01 5.7808 -1.67652 0
M  V30 12565 H 1155.84 2.4748 -1.76033 0
M  V30 12566 H 1153.43 1.17816 -0.918675 0
M  V30 12567 H 1155.31 4.21389 -0.0306425 0
M  V30 12568 H 1153.98 3.18486 0.578654 0
M  V30 12569 H 1152.89 3.31432 -1.73505 0
M  V30 12570 H 1154.22 4.36971 -2.26533 0
M  V30 12571 N 1155.87 0.935264 1.26849 0
M  V30 12572 C 1156.81 0.384563 2.24936 0
M  V30 12573 C 1157.79 -0.523311 1.53949 0
M  V30 12574 O 1158.97 -0.462103 1.82748 0
M  V30 12575 C 1156.1 -0.448043 3.35723 0
M  V30 12576 C 1155.14 0.397466 4.24644 0
M  V30 12577 S 1155.98 1.81773 5.03705 0
M  V30 12578 C 1157.13 0.99302 6.17972 0
M  V30 12579 H 1157.36 1.21588 2.713 0
M  V30 12580 H 1154.9 0.737966 1.35622 0
M  V30 12581 H 1156.86 -0.922541 3.99999 0
M  V30 12582 H 1155.52 -1.25397 2.87983 0
M  V30 12583 H 1154.71 -0.240176 5.03427 0
M  V30 12584 H 1154.31 0.806423 3.65202 0
M  V30 12585 H 1156.6 0.232526 6.77101 0
M  V30 12586 H 1157.55 1.75412 6.86029 0
M  V30 12587 H 1157.95 0.531692 5.6199 0
M  V30 12588 N 1157.35 -1.41121 0.701616 0
M  V30 12589 C 1158.6 -2.01428 0.235495 0
M  V30 12590 C 1158.93 -1.55463 -1.16382 0
M  V30 12591 O 1158.21 -0.768477 -1.78675 0
M  V30 12592 C 1158.49 -3.58849 0.299919 0
M  V30 12593 C 1158.34 -4.14924 1.73661 0
M  V30 12594 C 1159.66 -4.38809 -0.336856 0
M  V30 12595 H 1156.78 -0.731842 0.0870456 0
M  V30 12596 H 1159.42 -1.67787 0.891479 0
M  V30 12597 H 1157.57 -3.87638 -0.258611 0
M  V30 12598 H 1159.24 -3.96987 2.34945 0
M  V30 12599 H 1157.49 -3.69738 2.26884 0
M  V30 12600 H 1158.16 -5.24085 1.73318 0
M  V30 12601 H 1160.63 -4.15868 0.138886 0
M  V30 12602 H 1159.51 -5.48278 -0.261264 0
M  V30 12603 H 1159.77 -4.18728 -1.41843 0
M  V30 12604 N 1158.83 -0.446794 -1.51134 0
M  V30 12605 C 1159.74 0.36579 -2.31731 0
M  V30 12606 C 1160.76 1.01886 -1.41051 0
M  V30 12607 O 1161.93 1.01216 -1.74119 0
M  V30 12608 C 1159 1.44705 -3.15058 0
M  V30 12609 C 1158.06 0.813129 -4.21529 0
M  V30 12610 C 1157.29 1.84287 -5.00873 0
M  V30 12611 O 1157.51 3.06633 -4.8097 0
M  V30 12612 O 1156.45 1.42816 -5.84711 0
M  V30 12613 H 1160.27 -0.292436 -3.02289 0
M  V30 12614 H 1157.86 -0.209129 -1.47929 0
M  V30 12615 H 1159.74 2.07393 -3.66833 0
M  V30 12616 H 1158.42 2.08919 -2.47254 0
M  V30 12617 H 1157.32 0.147953 -3.73807 0
M  V30 12618 H 1158.66 0.214331 -4.91733 0
M  V30 12619 N 1160.31 1.56586 -0.178487 0
M  V30 12620 C 1161.56 1.96709 0.4637 0
M  V30 12621 C 1161.88 1.06586 1.63292 0
M  V30 12622 O 1161.15 0.133683 1.95443 0
M  V30 12623 H 1159.73 0.726381 0.174299 0
M  V30 12624 H 1162.39 1.9314 -0.261345 0
M  V30 12625 H 1161.49 3.01164 0.818934 0
M  V30 12626 N 1161.79 -0.095206 1.57312 0
M  V30 12627 C 1162.72 -1.14662 1.97301 0
M  V30 12628 C 1163.7 -1.38845 0.846212 0
M  V30 12629 O 1164.88 -1.52607 1.1065 0
M  V30 12630 C 1162.01 -2.49582 2.28968 0
M  V30 12631 C 1161.05 -2.41681 3.51415 0
M  V30 12632 S 1161.89 -1.83343 5.03136 0
M  V30 12633 C 1163.04 -3.19888 5.3798 0
M  V30 12634 H 1163.28 -0.805726 2.86174 0
M  V30 12635 H 1160.81 -0.302881 1.514 0
M  V30 12636 H 1162.77 -3.27202 2.47889 0
M  V30 12637 H 1161.43 -2.80841 1.40667 0
M  V30 12638 H 1160.62 -3.41122 3.71015 0
M  V30 12639 H 1160.22 -1.7219 3.32004 0
M  V30 12640 H 1162.52 -4.16161 5.34618 0
M  V30 12641 H 1163.46 -3.05093 6.39002 0
M  V30 12642 H 1163.87 -3.19414 4.6544 0
M  V30 12643 N 1163.26 -1.53291 -0.366026 0
M  V30 12644 C 1164.51 -1.69117 -1.10653 0
M  V30 12645 C 1164.83 -0.445327 -1.89847 0
M  V30 12646 O 1164.1 0.540616 -1.88293 0
M  V30 12647 H 1162.68 -0.623446 -0.41149 0
M  V30 12648 H 1165.35 -1.90479 -0.412749 0
M  V30 12649 H 1164.44 -2.55205 -1.79658 0
M  V30 12650 N 1164.74 0.6258 -1.44643 0
M  V30 12651 C 1165.99 1.38251 -1.47414 0
M  V30 12652 C 1166.31 1.94689 -0.110043 0
M  V30 12653 O 1165.58 1.76095 0.858333 0
M  V30 12654 H 1164.16 0.513179 -0.542823 0
M  V30 12655 H 1166.82 0.736179 -1.80462 0
M  V30 12656 H 1165.92 2.21115 -2.2026 0
M  V30 12657 N 1166.22 1.31629 0.866686 0
M  V30 12658 C 1167.45 1.24474 1.65269 0
M  V30 12659 C 1167.86 -0.18939 1.87848 0
M  V30 12660 O 1167.22 -1.12251 1.43895 0
M  V30 12661 C 1167.27 1.98872 3.01881 0
M  V30 12662 O 1166.99 3.36687 2.8031 0
M  V30 12663 C 1168.49 1.98595 3.96327 0
M  V30 12664 H 1165.71 0.429966 0.515141 0
M  V30 12665 H 1168.26 1.73559 1.08156 0
M  V30 12666 H 1166.41 1.53539 3.55675 0
M  V30 12667 H 1166.83 3.74612 3.67105 0
M  V30 12668 H 1168.3 2.55156 4.89489 0
M  V30 12669 H 1168.78 0.969257 4.28371 0
M  V30 12670 H 1169.38 2.43821 3.4847 0
M  V30 12671 N 1167.7 -1.08142 1.14644 0
M  V30 12672 C 1168.63 -2.15022 0.793614 0
M  V30 12673 C 1169.64 -1.61679 -0.190729 0
M  V30 12674 O 1170.83 -1.78472 0.0313696 0
M  V30 12675 C 1167.93 -3.38532 0.157785 0
M  V30 12676 C 1167.11 -4.21252 1.17753 0
M  V30 12677 C 1166.17 -5.23158 0.564968 0
M  V30 12678 O 1165.19 -5.5578 1.22869 0
M  V30 12679 N 1166.39 -5.7677 -0.657022 0
M  V30 12680 H 1169.16 -2.45893 1.71338 0
M  V30 12681 H 1166.72 -1.23976 1.04122 0
M  V30 12682 H 1168.71 -4.03834 -0.264586 0
M  V30 12683 H 1167.28 -3.05441 -0.665168 0
M  V30 12684 H 1166.5 -3.51888 1.77675 0
M  V30 12685 H 1167.79 -4.73335 1.86632 0
M  V30 12686 H 1167.19 -5.52503 -1.21478 0
M  V30 12687 H 1165.74 -6.4374 -1.02186 0
M  V30 12688 N 1169.18 -0.941978 -1.26351 0
M  V30 12689 C 1170.4 -0.606231 -1.98342 0
M  V30 12690 C 1170.83 0.812014 -1.6967 0
M  V30 12691 O 1170.19 1.54712 -0.9452 0
M  V30 12692 C 1170.23 -0.855864 -3.50296 0
M  V30 12693 O 1169.34 0.0716251 -4.12338 0
M  V30 12694 H 1168.68 -0.231815 -0.62222 0
M  V30 12695 H 1171.21 -1.26513 -1.60797 0
M  V30 12696 H 1171.22 -0.777079 -4.00531 0
M  V30 12697 H 1169.89 -1.8896 -3.70496 0
M  V30 12698 H 1168.47 -0.0582866 -3.72854 0
M  V30 12699 N 1170.66 1.40747 -0.709091 0
M  V30 12700 C 1171.57 2.3454 -0.0532205 0
M  V30 12701 C 1172.58 1.56956 0.751057 0
M  V30 12702 O 1173.76 1.89375 0.685509 0
M  V30 12703 C 1170.82 3.35809 0.862157 0
M  V30 12704 C 1169.88 4.29273 0.0485632 0
M  V30 12705 C 1169.12 5.25705 0.920345 0
M  V30 12706 O 1169.34 5.27933 2.15969 0
M  V30 12707 O 1168.27 6.00806 0.3628 0
M  V30 12708 H 1172.1 2.92232 -0.826698 0
M  V30 12709 H 1169.68 1.4183 -0.469519 0
M  V30 12710 H 1171.57 3.97931 1.38668 0
M  V30 12711 H 1170.24 2.8054 1.61489 0
M  V30 12712 H 1169.15 3.70456 -0.520873 0
M  V30 12713 H 1170.48 4.87676 -0.665807 0
M  V30 12714 N 1172.13 0.454803 1.50895 0
M  V30 12715 C 1173.07 -0.383826 2.25963 0
M  V30 12716 C 1174.08 -0.971263 1.30653 0
M  V30 12717 O 1175.27 -0.862434 1.56283 0
M  V30 12718 C 1172.37 -1.55069 3.01342 0
M  V30 12719 C 1171.54 -1.07899 4.23883 0
M  V30 12720 C 1170.6 -2.118 4.81692 0
M  V30 12721 O 1169.63 -1.70523 5.43057 0
M  V30 12722 N 1170.83 -3.44459 4.67256 0
M  V30 12723 H 1173.59 0.259646 2.98573 0
M  V30 12724 H 1171.15 0.284661 1.59378 0
M  V30 12725 H 1173.15 -2.24236 3.36898 0
M  V30 12726 H 1171.72 -2.09917 2.31633 0
M  V30 12727 H 1170.94 -0.213773 3.9362 0
M  V30 12728 H 1172.22 -0.741501 5.03368 0
M  V30 12729 H 1171.62 -3.80716 4.18416 0
M  V30 12730 H 1170.18 -4.0947 5.07127 0
M  V30 12731 N 1173.61 -1.56489 0.186789 0
M  V30 12732 C 1174.84 -2.01429 -0.459326 0
M  V30 12733 C 1175.25 -1.06611 -1.56303 0
M  V30 12734 O 1174.59 -0.0617053 -1.83596 0
M  V30 12735 C 1174.65 -3.42778 -1.08367 0
M  V30 12736 C 1174.32 -4.56843 -0.119719 0
M  V30 12737 C 1175.32 -5.15594 0.667782 0
M  V30 12738 C 1173 -5.02299 -0.0110494 0
M  V30 12739 C 1174.99 -6.18242 1.551 0
M  V30 12740 C 1172.68 -6.04793 0.875738 0
M  V30 12741 C 1173.68 -6.62637 1.65534 0
M  V30 12742 O 1173.37 -7.63141 2.52728 0
M  V30 12743 H 1173.1 -0.665175 -0.120492 0
M  V30 12744 H 1175.65 -2.03338 0.290283 0
M  V30 12745 H 1173.88 -3.3783 -1.8817 0
M  V30 12746 H 1175.57 -3.71577 -1.63357 0
M  V30 12747 H 1176.34 -4.81348 0.594085 0
M  V30 12748 H 1172.22 -4.56977 -0.607667 0
M  V30 12749 H 1175.76 -6.63319 2.15995 0
M  V30 12750 H 1171.66 -6.38462 0.950581 0
M  V30 12751 H 1172.43 -7.80527 2.46415 0
M  V30 12752 N 1175.09 0.086862 -1.5736 0
M  V30 12753 C 1176.02 1.13117 -1.99342 0
M  V30 12754 C 1177.03 1.35849 -0.897151 0
M  V30 12755 O 1178.22 1.34356 -1.17519 0
M  V30 12756 C 1175.32 2.48511 -2.30425 0
M  V30 12757 C 1174.5 2.45942 -3.61706 0
M  V30 12758 C 1173.56 3.63327 -3.80631 0
M  V30 12759 O 1172.58 3.45443 -4.52392 0
M  V30 12760 N 1173.78 4.83118 -3.21835 0
M  V30 12761 H 1176.55 0.773782 -2.89539 0
M  V30 12762 H 1174.11 0.275731 -1.59535 0
M  V30 12763 H 1176.1 3.25656 -2.40272 0
M  V30 12764 H 1174.67 2.76308 -1.46194 0
M  V30 12765 H 1173.89 1.54287 -3.62752 0
M  V30 12766 H 1175.18 2.41313 -4.47935 0
M  V30 12767 H 1174.58 5.00552 -2.6356 0
M  V30 12768 H 1173.13 5.57827 -3.37154 0
M  V30 12769 N 1176.57 1.53483 0.357892 0
M  V30 12770 C 1177.48 1.83434 1.4625 0
M  V30 12771 C 1178.49 0.723313 1.58254 0
M  V30 12772 O 1179.67 1.01416 1.74002 0
M  V30 12773 C 1176.73 2.0249 2.81423 0
M  V30 12774 C 1175.8 3.26378 2.78883 0
M  V30 12775 C 1175.03 3.44516 4.07608 0
M  V30 12776 O 1175.25 2.66787 5.04163 0
M  V30 12777 O 1174.19 4.37898 4.12952 0
M  V30 12778 H 1178.01 2.77294 1.23861 0
M  V30 12779 H 1175.6 1.38958 0.548722 0
M  V30 12780 H 1177.48 2.16552 3.61501 0
M  V30 12781 H 1176.15 1.11819 3.03773 0
M  V30 12782 H 1175.06 3.17733 1.97475 0
M  V30 12783 H 1176.39 4.16996 2.61486 0
M  V30 12784 N 1178.05 -0.61812 1.44973 0
M  V30 12785 C 1179.29 -1.3774 1.48439 0
M  V30 12786 C 1179.62 -1.94117 0.121999 0
M  V30 12787 O 1178.88 -1.749 -0.877974 0
M  V30 12788 C 1179.17 -2.55143 2.50274 0
M  V30 12789 C 1178.84 -2.16976 3.95262 0
M  V30 12790 C 1177.5 -2.06281 4.34743 0
M  V30 12791 C 1179.85 -1.8703 4.86486 0
M  V30 12792 C 1177.18 -1.63846 5.63357 0
M  V30 12793 C 1179.53 -1.46085 6.15501 0
M  V30 12794 C 1178.2 -1.3394 6.53924 0
M  V30 12795 H 1177.47 -0.504026 0.543175 0
M  V30 12796 H 1180.12 -0.699685 1.7826 0
M  V30 12797 H 1178.42 -3.28205 2.13983 0
M  V30 12798 H 1180.12 -3.13373 2.50197 0
M  V30 12799 H 1176.71 -2.26223 3.64034 0
M  V30 12800 H 1180.89 -1.94196 4.56729 0
M  V30 12801 H 1176.15 -1.53058 5.91932 0
M  V30 12802 H 1180.32 -1.21956 6.85638 0
M  V30 12803 H 1177.95 -1.00832 7.53483 0
M  V30 12804 N 1179.52 -1.32087 -0.859693 0
M  V30 12805 C 1180.94 -1.10968 -1.14709 0
M  V30 12806 C 1181.14 0.113139 -2.01182 0
M  V30 12807 O 1180.2 0.799499 -2.39508 0
M  V30 12808 C 1181.51 -2.38657 -1.8293 0
M  V30 12809 C 1183.06 -2.44366 -1.95587 0
M  V30 12810 C 1183.53 -3.71963 -2.67222 0
M  V30 12811 N 1185.02 -3.72916 -2.7475 0
M  V30 12812 C 1185.76 -4.68346 -3.30816 0
M  V30 12813 N 1185.25 -5.74139 -3.87732 0
M  V30 12814 N 1187.05 -4.55851 -3.28872 0
M  V30 12815 H 1179.2 -2.10497 -0.283711 0
M  V30 12816 H 1181.46 -0.929108 -0.188315 0
M  V30 12817 H 1181.17 -3.2803 -1.26844 0
M  V30 12818 H 1181.04 -2.49236 -2.83128 0
M  V30 12819 H 1183.43 -1.55456 -2.50833 0
M  V30 12820 H 1183.51 -2.37744 -0.944001 0
M  V30 12821 H 1183.15 -4.61245 -2.1264 0
M  V30 12822 H 1183.08 -3.75855 -3.68837 0
M  V30 12823 H 1185.57 -2.96447 -2.34367 0
M  V30 12824 H 1185.89 -6.43021 -4.28654 0
M  V30 12825 H 1184.23 -5.779 -3.86078 0
M  V30 12826 H 1187.42 -3.72371 -2.83651 0
M  V30 12827 H 1187.6 -5.30398 -3.72266 0
M  V30 12828 N 1181 1.07532 -1.15215 0
M  V30 12829 C 1181.95 2.14687 -0.847243 0
M  V30 12830 C 1182.92 1.64903 0.199043 0
M  V30 12831 O 1184.1 1.90682 0.0669986 0
M  V30 12832 C 1181.24 3.43414 -0.340673 0
M  V30 12833 C 1180.36 4.06999 -1.44831 0
M  V30 12834 C 1179.49 5.23554 -0.898059 0
M  V30 12835 C 1178.53 5.79097 -1.98276 0
M  V30 12836 N 1177.67 6.86985 -1.44902 0
M  V30 12837 H 1182.51 2.4011 -1.76498 0
M  V30 12838 H 1180.04 1.17823 -0.880689 0
M  V30 12839 H 1182 4.1719 -0.0286956 0
M  V30 12840 H 1180.63 3.18249 0.540144 0
M  V30 12841 H 1179.68 3.30895 -1.87651 0
M  V30 12842 H 1181 4.44289 -2.26735 0
M  V30 12843 H 1180.15 6.04305 -0.538514 0
M  V30 12844 H 1178.89 4.87676 -0.0481752 0
M  V30 12845 H 1177.89 4.96992 -2.35115 0
M  V30 12846 H 1179.12 6.1703 -2.83639 0
M  V30 12847 H 1177.07 6.5305 -0.621468 0
M  V30 12848 H 1176.98 7.23149 -2.20434 0
M  V30 12849 H 1178.25 7.71446 -1.11767 0
M  V30 12850 N 1182.48 0.948665 1.2585 0
M  V30 12851 C 1183.41 0.421458 2.25292 0
M  V30 12852 C 1184.43 -0.459389 1.56184 0
M  V30 12853 O 1185.61 -0.268627 1.76467 0
M  V30 12854 C 1182.71 -0.412653 3.36378 0
M  V30 12855 C 1181.89 0.453792 4.3504 0
M  V30 12856 C 1180.95 -0.321127 5.25219 0
M  V30 12857 O 1179.97 0.278424 5.68519 0
M  V30 12858 N 1181.17 -1.61576 5.5756 0
M  V30 12859 H 1183.94 1.27636 2.71162 0
M  V30 12860 H 1181.5 0.818367 1.39694 0
M  V30 12861 H 1183.49 -0.938637 3.93664 0
M  V30 12862 H 1182.06 -1.16839 2.89944 0
M  V30 12863 H 1181.28 1.16093 3.76718 0
M  V30 12864 H 1182.57 1.04538 4.97945 0
M  V30 12865 H 1181.97 -2.12488 5.24276 0
M  V30 12866 H 1180.53 -2.08783 6.17457 0
M  V30 12867 N 1183.96 -1.40369 0.716545 0
M  V30 12868 C 1185.2 -2.02728 0.2609 0
M  V30 12869 C 1185.56 -1.55591 -1.12496 0
M  V30 12870 O 1186.76 -2.1002 -1.67764 0
M  V30 12871 C 1185.03 -3.55789 0.338987 0
M  V30 12872 S 1186.59 -4.38782 -0.0395316 0
M  V30 12873 H 1183.41 -0.703437 0.103431 0
M  V30 12874 H 1186.01 -1.71474 0.938976 0
M  V30 12875 H 1184.72 -3.87587 1.34923 0
M  V30 12876 H 1184.25 -3.91772 -0.357536 0
M  V30 12877 H 1186.26 -4.79902 -1.26129 0
M  V30 12878 N 1185.44 -0.462799 -1.50652 0
M  V30 12879 C 1186.67 0.0928413 -2.06391 0
M  V30 12880 C 1187.07 1.34791 -1.3277 0
M  V30 12881 O 1186.42 1.79555 -0.388048 0
M  V30 12882 C 1186.48 0.45517 -3.56607 0
M  V30 12883 C 1186.14 -0.696698 -4.51658 0
M  V30 12884 C 1187.14 -1.57633 -4.95427 0
M  V30 12885 C 1184.83 -0.884669 -4.94448 0
M  V30 12886 C 1186.82 -2.62841 -5.80684 0
M  V30 12887 C 1184.51 -1.93998 -5.79489 0
M  V30 12888 C 1185.5 -2.81022 -6.22508 0
M  V30 12889 O 1185.19 -3.84738 -7.05856 0
M  V30 12890 H 1184.92 -3.18898e-05 -0.676 0
M  V30 12891 H 1187.48 -0.648161 -1.94905 0
M  V30 12892 H 1185.71 1.24924 -3.65966 0
M  V30 12893 H 1187.4 0.944923 -3.94748 0
M  V30 12894 H 1188.16 -1.44276 -4.63044 0
M  V30 12895 H 1184.04 -0.216807 -4.6049 0
M  V30 12896 H 1187.59 -3.30797 -6.14182 0
M  V30 12897 H 1183.48 -2.07366 -6.11285 0
M  V30 12898 H 1184.25 -3.81626 -7.24088 0
M  V30 12899 N 1186.91 1.56388 -0.195085 0
M  V30 12900 C 1188.14 2.01963 0.449289 0
M  V30 12901 C 1188.56 1.07522 1.55192 0
M  V30 12902 O 1187.91 0.0800915 1.82324 0
M  V30 12903 C 1187.97 3.47231 1.00561 0
M  V30 12904 O 1187.69 4.38068 -0.0530241 0
M  V30 12905 C 1189.19 4.08324 1.72587 0
M  V30 12906 H 1186.41 0.661452 0.112792 0
M  V30 12907 H 1188.95 2.02231 -0.303788 0
M  V30 12908 H 1187.11 3.47663 1.70907 0
M  V30 12909 H 1187.52 5.23256 0.361076 0
M  V30 12910 H 1188.99 5.11821 2.06744 0
M  V30 12911 H 1189.47 3.51782 2.62956 0
M  V30 12912 H 1190.08 4.11665 1.06826 0
M  V30 12913 N 1188.39 -0.0785156 1.57404 0
M  V30 12914 C 1189.36 -1.07835 2.02248 0
M  V30 12915 C 1190.36 -1.31987 0.918475 0
M  V30 12916 O 1191.55 -1.27821 1.18353 0
M  V30 12917 C 1188.68 -2.42361 2.39737 0
M  V30 12918 H 1189.87 -0.691995 2.91807 0
M  V30 12919 H 1187.42 -0.32405 1.52904 0
M  V30 12920 H 1188.16 -2.85841 1.53183 0
M  V30 12921 H 1187.94 -2.26174 3.20293 0
M  V30 12922 H 1189.43 -3.14241 2.75031 0
M  V30 12923 N 1189.87 -1.5367 -0.349747 0
M  V30 12924 C 1191.12 -1.70618 -1.09068 0
M  V30 12925 C 1191.45 -0.466133 -1.88832 0
M  V30 12926 O 1190.7 0.552079 -1.87751 0
M  V30 12927 C 1191 -2.91753 -2.06434 0
M  V30 12928 C 1190.67 -4.27614 -1.43029 0
M  V30 12929 C 1189.33 -4.64555 -1.25466 0
M  V30 12930 C 1191.68 -5.12037 -0.972987 0
M  V30 12931 C 1189.01 -5.83543 -0.607807 0
M  V30 12932 C 1191.36 -6.31685 -0.340073 0
M  V30 12933 C 1190.02 -6.67327 -0.152069 0
M  V30 12934 H 1189.29 -0.624334 -0.399108 0
M  V30 12935 H 1191.94 -1.87879 -0.370657 0
M  V30 12936 H 1190.25 -2.6907 -2.84796 0
M  V30 12937 H 1191.94 -3.02059 -2.63744 0
M  V30 12938 H 1188.53 -3.98535 -1.57696 0
M  V30 12939 H 1192.72 -4.84035 -1.09655 0
M  V30 12940 H 1187.97 -6.09737 -0.450705 0
M  V30 12941 H 1192.15 -6.96396 0.0223973 0
M  V30 12942 H 1189.77 -7.59388 0.35121 0
M  V30 12943 N 1191.35 0.610423 -1.45298 0
M  V30 12944 C 1192.28 1.73207 -1.56594 0
M  V30 12945 C 1193.26 1.64893 -0.417651 0
M  V30 12946 O 1194.44 1.83336 -0.64043 0
M  V30 12947 C 1191.57 3.11803 -1.52959 0
M  V30 12948 C 1190.53 3.34925 -2.66475 0
M  V30 12949 C 1189.85 4.73764 -2.47894 0
M  V30 12950 C 1191.15 3.25456 -4.08504 0
M  V30 12951 H 1192.85 1.6401 -2.50482 0
M  V30 12952 H 1190.39 0.787621 -1.20551 0
M  V30 12953 H 1192.35 3.90065 -1.59458 0
M  V30 12954 H 1191.07 3.21833 -0.55599 0
M  V30 12955 H 1189.73 2.59051 -2.59399 0
M  V30 12956 H 1189.38 4.80524 -1.4868 0
M  V30 12957 H 1189.08 4.90191 -3.24016 0
M  V30 12958 H 1190.6 5.54231 -2.56243 0
M  V30 12959 H 1192.02 3.93597 -4.16839 0
M  V30 12960 H 1190.41 3.53414 -4.84994 0
M  V30 12961 H 1191.48 2.22939 -4.30612 0
M  V30 12962 N 1192.83 1.32541 0.852676 0
M  V30 12963 C 1193.78 1.18224 1.94954 0
M  V30 12964 C 1194.76 0.0886514 1.60656 0
M  V30 12965 O 1195.95 0.315359 1.74168 0
M  V30 12966 C 1193.08 0.909484 3.31034 0
M  V30 12967 C 1192.17 2.04486 3.71546 0
M  V30 12968 N 1192.56 3.29362 3.83868 0
M  V30 12969 C 1190.86 1.94848 4.01186 0
M  V30 12970 C 1191.56 4.0374 4.18771 0
M  V30 12971 N 1190.53 3.32054 4.30396 0
M  V30 12972 H 1194.34 2.12893 2.02617 0
M  V30 12973 H 1191.85 1.24349 1.04456 0
M  V30 12974 H 1193.85 0.787865 4.09388 0
M  V30 12975 H 1192.51 -0.0288163 3.24687 0
M  V30 12976 H 1193.52 3.64274 3.68137 0
M  V30 12977 H 1190.19 1.08591 4.0313 0
M  V30 12978 H 1191.58 5.11434 4.35757 0
M  V30 12979 N 1194.3 -1.0692 1.15784 0
M  V30 12980 C 1195.23 -2.16216 0.881649 0
M  V30 12981 C 1196.22 -1.69253 -0.16951 0
M  V30 12982 O 1197.4 -1.94186 -0.0229511 0
M  V30 12983 C 1194.53 -3.4527 0.374982 0
M  V30 12984 C 1193.48 -4.05706 1.36332 0
M  V30 12985 C 1192.81 -5.29894 0.715317 0
M  V30 12986 C 1194.11 -4.45224 2.7308 0
M  V30 12987 H 1195.8 -2.39577 1.79563 0
M  V30 12988 H 1193.35 -1.15141 0.864784 0
M  V30 12989 H 1195.3 -4.2106 0.169279 0
M  V30 12990 H 1194.03 -3.21508 -0.574485 0
M  V30 12991 H 1192.69 -3.31965 1.55546 0
M  V30 12992 H 1192.33 -5.02425 -0.240436 0
M  V30 12993 H 1192.03 -5.71287 1.37494 0
M  V30 12994 H 1193.56 -6.08386 0.519489 0
M  V30 12995 H 1194.97 -5.12124 2.57686 0
M  V30 12996 H 1193.37 -4.97583 3.35457 0
M  V30 12997 H 1194.44 -3.56384 3.28813 0
M  V30 12998 N 1195.78 -0.955326 -1.25345 0
M  V30 12999 C 1197.2 -0.659863 -1.4532 0
M  V30 13000 C 1197.4 0.78238 -1.85691 0
M  V30 13001 O 1196.45 1.5576 -1.98734 0
M  V30 13002 C 1197.77 -1.63339 -2.5247 0
M  V30 13003 C 1199.32 -1.64464 -2.66309 0
M  V30 13004 C 1199.79 -2.60583 -3.76644 0
M  V30 13005 N 1201.28 -2.58951 -3.84055 0
M  V30 13006 C 1202.02 -3.30002 -4.6892 0
M  V30 13007 N 1201.51 -4.10528 -5.58067 0
M  V30 13008 N 1203.31 -3.18886 -4.62891 0
M  V30 13009 H 1195.46 -1.88734 -0.97433 0
M  V30 13010 H 1197.72 -0.811858 -0.48948 0
M  V30 13011 H 1197.43 -2.66358 -2.29665 0
M  V30 13012 H 1197.3 -1.39644 -3.50399 0
M  V30 13013 H 1199.69 -0.621622 -2.88479 0
M  V30 13014 H 1199.77 -1.92218 -1.68778 0
M  V30 13015 H 1199.41 -3.63011 -3.55226 0
M  V30 13016 H 1199.34 -2.30113 -4.73662 0
M  V30 13017 H 1201.83 -2.00491 -3.20331 0
M  V30 13018 H 1202.15 -4.6166 -6.1975 0
M  V30 13019 H 1200.49 -4.14626 -5.57773 0
M  V30 13020 H 1203.68 -2.55447 -3.92255 0
M  V30 13021 H 1203.85 -3.74524 -5.28806 0
M  V30 13022 N 1197.26 1.39987 -0.723979 0
M  V30 13023 C 1198.68 1.54547 -0.398403 0
M  V30 13024 C 1198.88 1.69348 1.09194 0
M  V30 13025 O 1197.93 1.68778 1.87804 0
M  V30 13026 C 1199.25 2.76929 -1.1718 0
M  V30 13027 C 1200.79 2.90754 -1.15893 0
M  V30 13028 C 1201.27 4.16059 -1.91465 0
M  V30 13029 N 1202.76 4.23076 -1.88576 0
M  V30 13030 C 1203.5 5.18957 -2.43867 0
M  V30 13031 N 1202.99 6.20695 -3.0775 0
M  V30 13032 N 1204.78 5.11095 -2.33962 0
M  V30 13033 H 1196.94 1.28626 -1.69024 0
M  V30 13034 H 1199.2 0.6226 -0.714894 0
M  V30 13035 H 1198.9 2.72298 -2.22591 0
M  V30 13036 H 1198.78 3.69279 -0.768941 0
M  V30 13037 H 1201.17 2.94884 -0.112978 0
M  V30 13038 H 1201.25 1.99498 -1.60107 0
M  V30 13039 H 1200.89 4.12691 -2.96055 0
M  V30 13040 H 1200.82 5.06339 -1.44665 0
M  V30 13041 H 1203.31 3.50195 -1.42027 0
M  V30 13042 H 1203.62 6.90296 -3.47435 0
M  V30 13043 H 1201.97 6.21114 -3.11837 0
M  V30 13044 H 1205.16 4.30546 -1.83706 0
M  V30 13045 H 1205.33 5.85644 -2.77353 0
M  V30 13046 N 1198.74 0.470782 1.50404 0
M  V30 13047 C 1199.97 -0.0818945 2.06438 0
M  V30 13048 C 1200.38 -1.34085 1.33483 0
M  V30 13049 O 1199.72 -1.79346 0.397565 0
M  V30 13050 C 1199.78 -0.436252 3.56843 0
M  V30 13051 C 1199.45 0.720641 4.51282 0
M  V30 13052 C 1200.44 1.60258 4.94584 0
M  V30 13053 C 1198.13 0.910879 4.93972 0
M  V30 13054 C 1200.12 2.65916 5.79282 0
M  V30 13055 C 1197.81 1.97069 5.78452 0
M  V30 13056 C 1198.81 2.84319 6.21008 0
M  V30 13057 O 1198.5 3.88476 7.03805 0
M  V30 13058 H 1198.23 0.00361688 0.67599 0
M  V30 13059 H 1200.78 0.658488 1.94559 0
M  V30 13060 H 1199.01 -1.22982 3.66623 0
M  V30 13061 H 1200.7 -0.923976 3.95244 0
M  V30 13062 H 1201.47 1.46729 4.62272 0
M  V30 13063 H 1197.35 0.241225 4.60368 0
M  V30 13064 H 1200.89 3.3405 6.12419 0
M  V30 13065 H 1196.79 2.10605 6.10177 0
M  V30 13066 H 1197.55 3.8546 7.22054 0
M  V30 13067 N 1200.22 -1.56282 0.203376 0
M  V30 13068 C 1201.44 -2.02643 -0.441658 0
M  V30 13069 C 1201.87 -1.0825 -1.5383 0
M  V30 13070 O 1201.23 -0.0674337 -1.81175 0
M  V30 13071 C 1201.27 -3.47382 -0.967369 0
M  V30 13072 O 1200.38 -3.56115 -2.07981 0
M  V30 13073 H 1199.72 -0.656081 -0.102242 0
M  V30 13074 H 1202.25 -2.02134 0.316684 0
M  V30 13075 H 1202.26 -3.8734 -1.28186 0
M  V30 13076 H 1200.93 -4.15574 -0.164625 0
M  V30 13077 H 1199.51 -3.28035 -1.77334 0
M  V30 13078 N 1201.7 0.070167 -1.57444 0
M  V30 13079 C 1202.64 1.10193 -2.04842 0
M  V30 13080 C 1203.64 1.39978 -0.954069 0
M  V30 13081 O 1204.84 1.39366 -1.13917 0
M  V30 13082 H 1201.22 0.372699 -0.653146 0
M  V30 13083 H 1203.19 0.676033 -2.90641 0
M  V30 13084 C 1201.94 2.40679 -2.50936 0
M  V30 13085 H 1201.26 2.1861 -3.34738 0
M  V30 13086 H 1202.7 3.11315 -2.87852 0
M  V30 13087 C 1201.16 3.06754 -1.39297 0
M  V30 13088 O 1201.69 3.949 -0.735989 0
M  V30 13089 N 1199.9 2.67404 -1.13769 0
M  V30 13090 H 1199.44 1.95813 -1.67376 0
M  V30 13091 H 1199.4 3.11937 -0.392787 0
M  V30 13092 N 1203.17 1.53854 0.341593 0
M  V30 13093 C 1204.1 1.84966 1.42513 0
M  V30 13094 C 1205.08 0.704944 1.54805 0
M  V30 13095 O 1206.27 0.957036 1.68981 0
M  V30 13096 C 1203.4 2.06099 2.79536 0
M  V30 13097 C 1202.35 3.21919 2.82049 0
M  V30 13098 C 1201.68 3.28389 4.21977 0
M  V30 13099 C 1202.98 4.59984 2.4741 0
M  V30 13100 H 1204.67 2.7571 1.16724 0
M  V30 13101 H 1202.22 1.32662 0.560073 0
M  V30 13102 H 1204.17 2.26448 3.55386 0
M  V30 13103 H 1202.9 1.12087 3.06764 0
M  V30 13104 H 1201.56 3.01429 2.08653 0
M  V30 13105 H 1201.2 2.3197 4.46317 0
M  V30 13106 H 1200.9 4.0622 4.24569 0
M  V30 13107 H 1202.43 3.50951 4.99666 0
M  V30 13108 H 1203.84 4.80334 3.12973 0
M  V30 13109 H 1202.24 5.40233 2.61282 0
M  V30 13110 H 1203.31 4.6346 1.42594 0
M  V30 13111 N 1204.65 -0.602709 1.4562 0
M  V30 13112 C 1205.9 -1.35769 1.49163 0
M  V30 13113 C 1206.21 -1.95102 0.139485 0
M  V30 13114 O 1207.42 -2.71449 0.0525919 0
M  V30 13115 C 1205.88 -2.45959 2.62739 0
M  V30 13116 C 1205.48 -1.93017 4.04288 0
M  V30 13117 C 1207.23 -3.22926 2.75534 0
M  V30 13118 C 1205.13 -3.00718 5.09237 0
M  V30 13119 H 1204.06 -0.510317 0.555061 0
M  V30 13120 H 1206.72 -0.645434 1.71774 0
M  V30 13121 H 1205.1 -3.19892 2.3342 0
M  V30 13122 H 1206.27 -1.2576 4.43307 0
M  V30 13123 H 1204.59 -1.2878 3.95986 0
M  V30 13124 H 1207.18 -4.03267 3.51112 0
M  V30 13125 H 1207.53 -3.74243 1.82339 0
M  V30 13126 H 1208.06 -2.56095 3.04402 0
M  V30 13127 H 1204.8 -2.54312 6.04157 0
M  V30 13128 H 1204.32 -3.66526 4.74783 0
M  V30 13129 H 1206 -3.65016 5.34202 0
M  V30 13130 N 1206.13 -1.32992 -0.845635 0
M  V30 13131 C 1207.06 -1.25301 -1.97033 0
M  V30 13132 C 1208.04 -0.134966 -1.69564 0
M  V30 13133 O 1209.23 -0.323629 -1.91484 0
M  V30 13134 C 1206.36 -0.984551 -3.33052 0
M  V30 13135 C 1205.31 -2.06481 -3.749 0
M  V30 13136 C 1204.64 -1.6486 -5.08651 0
M  V30 13137 C 1205.94 -3.48083 -3.89404 0
M  V30 13138 H 1207.63 -2.194 -2.03725 0
M  V30 13139 H 1205.18 -1.05621 -0.978783 0
M  V30 13140 H 1207.13 -0.917269 -4.11296 0
M  V30 13141 H 1205.85 -0.00793116 -3.26599 0
M  V30 13142 H 1204.51 -2.1224 -2.98915 0
M  V30 13143 H 1204.16 -0.659183 -4.98662 0
M  V30 13144 H 1203.86 -2.37145 -5.37621 0
M  V30 13145 H 1205.38 -1.59585 -5.89377 0
M  V30 13146 H 1206.8 -3.44863 -4.57976 0
M  V30 13147 H 1205.19 -4.18796 -4.29802 0
M  V30 13148 H 1206.26 -3.87084 -2.92051 0
M  V30 13149 N 1207.61 1.06304 -1.1635 0
M  V30 13150 C 1208.56 2.15879 -0.865967 0
M  V30 13151 C 1209.55 1.68595 0.164929 0
M  V30 13152 O 1210.76 1.7999 0.0189271 0
M  V30 13153 H 1207.13 0.704721 -0.262435 0
M  V30 13154 H 1209.1 2.38185 -1.79751 0
M  V30 13155 C 1207.85 3.4558 -0.383374 0
M  V30 13156 H 1207.17 3.82356 -1.16806 0
M  V30 13157 H 1208.61 4.2346 -0.213964 0
M  V30 13158 C 1207.07 3.24738 0.897044 0
M  V30 13159 O 1207.6 3.50284 1.96632 0
M  V30 13160 N 1205.81 2.78172 0.840761 0
M  V30 13161 H 1205.36 2.57583 -0.029584 0
M  V30 13162 H 1205.31 2.64606 1.69797 0
M  V30 13163 N 1209.09 0.96196 1.24836 0
M  V30 13164 C 1210.02 0.506241 2.27946 0
M  V30 13165 C 1211 -0.451183 1.64007 0
M  V30 13166 O 1212.18 -0.348552 1.91046 0
M  V30 13167 C 1209.31 -0.209846 3.46665 0
M  V30 13168 C 1208.27 0.663035 4.22833 0
M  V30 13169 C 1207.59 -0.184216 5.34383 0
M  V30 13170 C 1208.89 1.94479 4.84742 0
M  V30 13171 H 1210.59 1.36805 2.66317 0
M  V30 13172 H 1208.13 0.65926 1.28023 0
M  V30 13173 H 1210.08 -0.539838 4.17928 0
M  V30 13174 H 1208.81 -1.10596 3.07305 0
M  V30 13175 H 1207.47 0.976216 3.53363 0
M  V30 13176 H 1207.12 -1.08031 4.91262 0
M  V30 13177 H 1206.82 0.39657 5.8626 0
M  V30 13178 H 1208.34 -0.509009 6.08475 0
M  V30 13179 H 1209.75 1.68074 5.48109 0
M  V30 13180 H 1208.15 2.47183 5.46828 0
M  V30 13181 H 1209.22 2.64332 4.06517 0
M  V30 13182 N 1210.56 -1.39601 0.731392 0
M  V30 13183 C 1211.81 -2.00586 0.277756 0
M  V30 13184 C 1212.14 -1.58027 -1.13391 0
M  V30 13185 O 1211.39 -0.798691 -1.7866 0
M  V30 13186 C 1211.69 -3.55934 0.323352 0
M  V30 13187 C 1211.36 -4.18131 1.68753 0
M  V30 13188 C 1210.02 -4.34833 2.06092 0
M  V30 13189 C 1212.37 -4.5267 2.58339 0
M  V30 13190 C 1209.7 -4.83362 3.32532 0
M  V30 13191 C 1212.05 -5.02607 3.84148 0
M  V30 13192 C 1210.72 -5.17517 4.21584 0
M  V30 13193 H 1209.99 -0.733996 0.101638 0
M  V30 13194 H 1212.63 -1.66981 0.937528 0
M  V30 13195 H 1210.94 -3.89542 -0.419995 0
M  V30 13196 H 1212.64 -4.00974 -0.0457235 0
M  V30 13197 H 1209.23 -4.0553 1.38722 0
M  V30 13198 H 1213.41 -4.39388 2.30763 0
M  V30 13199 H 1208.67 -4.93091 3.61485 0
M  V30 13200 H 1212.84 -5.28306 4.53724 0
M  V30 13201 H 1210.47 -5.54882 5.19625 0
M  V30 13202 N 1212.04 -0.478751 -1.50152 0
M  V30 13203 C 1213.27 0.0732929 -2.0727 0
M  V30 13204 C 1213.69 1.32066 -1.33941 0
M  V30 13205 O 1213.05 1.7707 -0.389367 0
M  V30 13206 C 1213.1 0.332528 -3.59064 0
M  V30 13207 O 1212.2 1.41158 -3.8749 0
M  V30 13208 H 1211.54 -0.0163684 -0.663798 0
M  V30 13209 H 1214.07 -0.671993 -1.9325 0
M  V30 13210 H 1214.08 0.570735 -4.03988 0
M  V30 13211 H 1212.76 -0.578934 -4.11851 0
M  V30 13212 H 1211.34 1.16008 -3.54396 0
M  V30 13213 N 1213.52 1.56172 -0.211661 0
M  V30 13214 C 1214.45 2.22843 0.697375 0
M  V30 13215 C 1215.43 1.19689 1.20866 0
M  V30 13216 O 1216.62 1.48245 1.25447 0
M  V30 13217 C 1213.75 2.90067 1.90993 0
M  V30 13218 C 1212.7 3.99608 1.5329 0
M  V30 13219 C 1212.03 4.54078 2.82343 0
M  V30 13220 C 1213.33 5.17169 0.730333 0
M  V30 13221 H 1215.02 2.99065 0.141533 0
M  V30 13222 H 1212.57 1.43846 0.0666337 0
M  V30 13223 H 1214.52 3.35396 2.55123 0
M  V30 13224 H 1213.24 2.11276 2.49058 0
M  V30 13225 H 1211.9 3.54995 0.915115 0
M  V30 13226 H 1211.55 3.72029 3.38531 0
M  V30 13227 H 1211.25 5.28001 2.57853 0
M  V30 13228 H 1212.77 5.02119 3.47432 0
M  V30 13229 H 1214.19 5.5894 1.2751 0
M  V30 13230 H 1212.59 5.97262 0.582916 0
M  V30 13231 H 1213.66 4.84174 -0.265157 0
M  V30 13232 N 1215 -0.0618163 1.57479 0
M  V30 13233 C 1215.93 -1.10452 1.99689 0
M  V30 13234 C 1216.91 -1.37019 0.875473 0
M  V30 13235 O 1218.09 -1.50226 1.13862 0
M  V30 13236 C 1215.22 -2.44669 2.34211 0
M  V30 13237 C 1214.27 -2.34172 3.56463 0
M  V30 13238 S 1215.1 -1.7263 5.06911 0
M  V30 13239 C 1216.26 -3.08405 5.44644 0
M  V30 13240 H 1216.49 -0.744843 2.87818 0
M  V30 13241 H 1214.02 -0.270698 1.52008 0
M  V30 13242 H 1215.98 -3.2187 2.54774 0
M  V30 13243 H 1214.64 -2.77794 1.46592 0
M  V30 13244 H 1213.83 -3.33175 3.78167 0
M  V30 13245 H 1213.44 -1.65109 3.35582 0
M  V30 13246 H 1215.73 -4.04727 5.43325 0
M  V30 13247 H 1216.67 -2.9147 6.4533 0
M  V30 13248 H 1217.08 -3.0947 4.72111 0
M  V30 13249 N 1216.48 -1.54033 -0.333429 0
M  V30 13250 C 1217.72 -1.72019 -1.07411 0
M  V30 13251 C 1218.06 -0.487265 -1.87988 0
M  V30 13252 O 1217.33 0.515757 -1.87537 0
M  V30 13253 C 1217.61 -2.98986 -2.00698 0
M  V30 13254 C 1217.47 -4.32509 -1.23517 0
M  V30 13255 C 1218.79 -3.21663 -3.00368 0
M  V30 13256 H 1215.9 -0.625919 -0.389094 0
M  V30 13257 H 1218.55 -1.86717 -0.351697 0
M  V30 13258 H 1216.7 -2.86586 -2.62298 0
M  V30 13259 H 1218.37 -4.56775 -0.644522 0
M  V30 13260 H 1216.61 -4.3046 -0.537298 0
M  V30 13261 H 1217.28 -5.17547 -1.91962 0
M  V30 13262 H 1219.76 -3.33459 -2.48886 0
M  V30 13263 H 1218.63 -4.11877 -3.62834 0
M  V30 13264 H 1218.9 -2.3843 -3.72295 0
M  V30 13265 N 1217.95 0.594978 -1.45938 0
M  V30 13266 C 1219.23 1.35477 -1.41086 0
M  V30 13267 C 1219.61 2.10917 -0.0879512 0
M  V30 13268 O 1218.96 2.08704 0.930323 0
M  V30 13269 C 1219.17 2.29106 -2.63271 0
M  V30 13270 C 1220.52 2.9132 -3.08898 0
M  V30 13271 O 1221.54 2.39423 -2.63733 0
M  V30 13272 O 1220.4 3.85553 -3.87313 0
M  V30 13273 H 1217.49 0.6081 -0.560485 0
M  V30 13274 H 1220.04 0.617016 -1.58085 0
M  V30 13275 H 1218.81 1.72707 -3.51124 0
M  V30 13276 H 1218.44 3.10241 -2.48669 0
M  V30 13277 N 1219.43 1.33438 0.838571 0
M  V30 13278 C 1220.4 1.23632 1.92997 0
M  V30 13279 C 1221.4 0.155302 1.60048 0
M  V30 13280 O 1222.59 0.406852 1.69382 0
M  V30 13281 C 1219.72 0.90512 3.28665 0
M  V30 13282 H 1220.91 2.20643 2.03117 0
M  V30 13283 H 1218.46 1.17501 1.03069 0
M  V30 13284 H 1219.2 -0.0624833 3.2424 0
M  V30 13285 H 1218.98 1.68688 3.53959 0
M  V30 13286 H 1220.47 0.861262 4.08622 0
M  V30 13287 N 1220.91 -1.05686 1.16912 0
M  V30 13288 C 1221.86 -2.15417 0.877404 0
M  V30 13289 C 1222.85 -1.6868 -0.155986 0
M  V30 13290 O 1224.06 -1.79998 -0.00938156 0
M  V30 13291 H 1220.43 -0.70332 0.266168 0
M  V30 13292 H 1222.4 -2.37228 1.81012 0
M  V30 13293 C 1221.15 -3.45372 0.401696 0
M  V30 13294 H 1220.48 -3.81732 1.18832 0
M  V30 13295 H 1221.92 -4.2334 0.236418 0
M  V30 13296 C 1220.38 -3.25209 -0.87981 0
M  V30 13297 O 1220.91 -3.51322 -1.94771 0
M  V30 13298 N 1219.11 -2.78614 -0.825997 0
M  V30 13299 H 1218.66 -2.57564 0.0432439 0
M  V30 13300 H 1218.62 -2.65503 -1.68391 0
M  V30 13301 N 1222.39 -0.968567 -1.24324 0
M  V30 13302 C 1223.64 -0.626519 -1.91723 0
M  V30 13303 C 1223.95 0.84225 -1.76538 0
M  V30 13304 O 1225.16 1.29486 -2.38633 0
M  V30 13305 C 1223.61 -1.06992 -3.43629 0
M  V30 13306 C 1223.22 -2.5622 -3.67499 0
M  V30 13307 C 1224.96 -0.801057 -4.16873 0
M  V30 13308 C 1222.87 -2.94288 -5.1298 0
M  V30 13309 H 1221.8 -0.23062 -0.717865 0
M  V30 13310 H 1224.45 -1.17489 -1.40956 0
M  V30 13311 H 1222.83 -0.44985 -3.93437 0
M  V30 13312 H 1224.01 -3.23364 -3.28287 0
M  V30 13313 H 1222.32 -2.80726 -3.07542 0
M  V30 13314 H 1224.92 -1.06147 -5.24058 0
M  V30 13315 H 1225.26 0.262742 -4.1547 0
M  V30 13316 H 1225.8 -1.38213 -3.73017 0
M  V30 13317 H 1222.54 -3.99743 -5.19506 0
M  V30 13318 H 1222.06 -2.31829 -5.53187 0
M  V30 13319 H 1223.73 -2.84242 -5.81219 0
M  V30 13320 N 1223.87 1.39211 -0.738786 0
M  V30 13321 C 1225.28 1.83237 -0.357916 0
M  V30 13322 C 1225.63 1.61698 1.11123 0
M  V30 13323 O 1224.75 1.11017 1.85753 0
M  V30 13324 C 1225.35 3.32645 -0.64285 0
M  V30 13325 C 1223.91 3.75076 -0.315432 0
M  V30 13326 C 1223.05 2.62166 -0.903556 0
M  V30 13327 H 1226.01 1.2815 -0.936127 0
M  V30 13328 H 1226.03 3.80407 0.0840812 0
M  V30 13329 H 1225.54 3.4829 -1.71218 0
M  V30 13330 H 1223.64 3.65017 0.747907 0
M  V30 13331 H 1223.75 4.72363 -0.800638 0
M  V30 13332 H 1222.12 2.52554 -0.329927 0
M  V30 13333 H 1222.9 2.80616 -1.97761 0
M  V30 13334 N 1225.34 0.486708 1.49896 0
M  V30 13335 C 1226.62 -0.125183 1.95199 0
M  V30 13336 C 1227 -1.55498 1.42771 0
M  V30 13337 O 1226.35 -2.1949 0.635322 0
M  V30 13338 C 1226.56 -0.0524982 3.48961 0
M  V30 13339 C 1227.91 -0.233595 4.23957 0
M  V30 13340 O 1228.93 -0.128357 3.55969 0
M  V30 13341 O 1227.79 -0.447862 5.44662 0
M  V30 13342 H 1224.88 -0.103141 0.820543 0
M  V30 13343 H 1227.43 0.548226 1.60601 0
M  V30 13344 H 1226.2 0.945163 3.79714 0
M  V30 13345 H 1225.83 -0.766683 3.90138 0
M  V30 13346 N 1226.82 -1.56058 0.219941 0
M  V30 13347 C 1228.07 -1.97436 -0.412543 0
M  V30 13348 C 1228.39 -1.11058 -1.61014 0
M  V30 13349 O 1229.59 -1.42328 -2.31203 0
M  V30 13350 C 1228.05 -3.51227 -0.785362 0
M  V30 13351 C 1227.66 -4.46305 0.389328 0
M  V30 13352 C 1229.4 -4.01321 -1.38354 0
M  V30 13353 C 1227.31 -5.914 -0.00583531 0
M  V30 13354 H 1226.24 -0.73728 -0.157906 0
M  V30 13355 H 1228.89 -1.8076 0.315898 0
M  V30 13356 H 1227.27 -3.63497 -1.57118 0
M  V30 13357 H 1228.44 -4.45781 1.16686 0
M  V30 13358 H 1226.76 -4.06543 0.900633 0
M  V30 13359 H 1229.36 -5.07221 -1.69207 0
M  V30 13360 H 1229.7 -3.47077 -2.29876 0
M  V30 13361 H 1230.23 -3.92267 -0.66119 0
M  V30 13362 H 1226.97 -6.49623 0.87583 0
M  V30 13363 H 1226.49 -5.95121 -0.74772 0
M  V30 13364 H 1228.17 -6.45549 -0.43308 0
M  V30 13365 N 1228.3 0.053464 -1.57509 0
M  V30 13366 C 1229.26 1.04604 -2.03938 0
M  V30 13367 C 1230.26 1.30509 -0.939357 0
M  V30 13368 O 1231.45 1.25922 -1.20371 0
M  V30 13369 C 1228.59 2.38516 -2.43563 0
M  V30 13370 H 1229.78 0.645484 -2.92871 0
M  V30 13371 H 1227.33 0.299683 -1.534 0
M  V30 13372 H 1228.07 2.83368 -1.57712 0
M  V30 13373 H 1227.85 2.2105 -3.23851 0
M  V30 13374 H 1229.34 3.09826 -2.79996 0
M  V30 13375 N 1229.78 1.54207 0.325255 0
M  V30 13376 C 1230.71 1.86467 1.40543 0
M  V30 13377 C 1231.69 0.721324 1.54048 0
M  V30 13378 O 1232.88 0.974905 1.67956 0
M  V30 13379 C 1230.01 2.09052 2.77335 0
M  V30 13380 C 1228.96 3.24893 2.78619 0
M  V30 13381 C 1228.29 3.32846 4.1847 0
M  V30 13382 C 1229.59 4.62582 2.42518 0
M  V30 13383 H 1231.28 2.76932 1.13794 0
M  V30 13384 H 1228.83 1.33248 0.545971 0
M  V30 13385 H 1230.78 2.30204 3.52964 0
M  V30 13386 H 1229.5 1.15335 3.05558 0
M  V30 13387 H 1228.16 3.03625 2.05444 0
M  V30 13388 H 1227.81 2.3669 4.43832 0
M  V30 13389 H 1227.51 4.10701 4.20237 0
M  V30 13390 H 1229.03 3.56231 4.95915 0
M  V30 13391 H 1230.45 4.83627 3.07861 0
M  V30 13392 H 1228.84 5.42974 2.55538 0
M  V30 13393 H 1229.91 4.64946 1.3767 0
M  V30 13394 N 1231.26 -0.58723 1.46251 0
M  V30 13395 C 1232.17 -1.72455 1.59048 0
M  V30 13396 C 1233.18 -1.67416 0.47413 0
M  V30 13397 O 1234.36 -1.87406 0.737633 0
M  V30 13398 C 1231.42 -3.08953 1.57318 0
M  V30 13399 C 1230.49 -3.25291 2.80151 0
M  V30 13400 C 1229.72 -4.55277 2.78493 0
M  V30 13401 O 1229.94 -5.38883 1.8698 0
M  V30 13402 O 1228.88 -4.74765 3.69975 0
M  V30 13403 H 1232.7 -1.64606 2.55223 0
M  V30 13404 H 1230.29 -0.753742 1.28993 0
M  V30 13405 H 1232.17 -3.90239 1.59033 0
M  V30 13406 H 1230.84 -3.17249 0.643025 0
M  V30 13407 H 1229.75 -2.43515 2.83991 0
M  V30 13408 H 1231.08 -3.21883 3.7236 0
M  V30 13409 N 1232.74 -1.33881 -0.831482 0
M  V30 13410 C 1234.15 -1.23112 -1.40358 0
M  V30 13411 C 1234.5 0.146944 -1.95649 0
M  V30 13412 O 1233.62 1.04689 -1.89391 0
M  V30 13413 C 1234.22 -2.22899 -2.5515 0
M  V30 13414 C 1232.78 -2.15946 -3.08292 0
M  V30 13415 C 1231.92 -2.09975 -1.81124 0
M  V30 13416 H 1234.87 -1.45372 -0.63661 0
M  V30 13417 H 1234.9 -1.841 -3.32997 0
M  V30 13418 H 1234.41 -3.23186 -2.14878 0
M  V30 13419 H 1232.51 -1.18987 -3.53091 0
M  V30 13420 H 1232.62 -3.06822 -3.67964 0
M  V30 13421 H 1230.99 -1.55564 -2.01673 0
M  V30 13422 H 1231.77 -3.12082 -1.43037 0
M  V30 13423 N 1234.21 1.05064 -1.1747 0
M  V30 13424 C 1235.49 1.74999 -0.873776 0
M  V30 13425 C 1235.87 2.01615 0.625676 0
M  V30 13426 O 1235.22 1.65324 1.57734 0
M  V30 13427 C 1235.43 3.04231 -1.7101 0
M  V30 13428 C 1236.78 3.78157 -1.93087 0
M  V30 13429 O 1237.8 3.14104 -1.6798 0
M  V30 13430 O 1236.66 4.93255 -2.3529 0
M  V30 13431 H 1233.75 0.761042 -0.323641 0
M  V30 13432 H 1236.3 1.1122 -1.28172 0
M  V30 13433 H 1235.07 2.80621 -2.72704 0
M  V30 13434 H 1234.69 3.75746 -1.30002 0
M  V30 13435 N 1235.69 0.975146 1.23809 0
M  V30 13436 C 1236.64 0.510761 2.25077 0
M  V30 13437 C 1237.61 -0.447605 1.59955 0
M  V30 13438 O 1238.79 -0.356318 1.87443 0
M  V30 13439 C 1235.93 -0.185755 3.446 0
M  V30 13440 C 1235.05 0.812254 4.24295 0
M  V30 13441 C 1234.18 0.0910835 5.31122 0
M  V30 13442 C 1233.22 1.07866 6.02521 0
M  V30 13443 N 1232.36 0.386995 7.01033 0
M  V30 13444 H 1237.2 1.37913 2.64166 0
M  V30 13445 H 1234.73 0.691184 1.2985 0
M  V30 13446 H 1236.69 -0.606341 4.1277 0
M  V30 13447 H 1235.32 -1.01803 3.06327 0
M  V30 13448 H 1234.37 1.35125 3.55592 0
M  V30 13449 H 1235.69 1.56502 4.73612 0
M  V30 13450 H 1234.84 -0.387129 6.05464 0
M  V30 13451 H 1233.58 -0.694324 4.82732 0
M  V30 13452 H 1232.58 1.56767 5.26976 0
M  V30 13453 H 1233.81 1.86464 6.52999 0
M  V30 13454 H 1231.76 -0.3793 6.54903 0
M  V30 13455 H 1231.67 1.0785 7.48268 0
M  V30 13456 H 1232.94 -0.0690036 7.79469 0
M  V30 13457 N 1237.17 -1.38817 0.746158 0
M  V30 13458 C 1238.4 -2.0457 0.309605 0
M  V30 13459 C 1238.81 -1.5627 -1.05948 0
M  V30 13460 O 1238.17 -0.73248 -1.67156 0
M  V30 13461 C 1238.22 -3.60126 0.314843 0
M  V30 13462 O 1237.94 -4.06652 1.6299 0
M  V30 13463 C 1239.44 -4.4309 -0.136497 0
M  V30 13464 H 1236.66 -0.657597 0.133441 0
M  V30 13465 H 1239.21 -1.77651 1.01293 0
M  V30 13466 H 1237.36 -3.85908 -0.339685 0
M  V30 13467 H 1237.78 -5.01042 1.55103 0
M  V30 13468 H 1239.25 -5.5194 -0.0816714 0
M  V30 13469 H 1239.73 -4.22959 -1.18332 0
M  V30 13470 H 1240.33 -4.22481 0.488879 0
M  V30 13471 N 1238.65 -0.49465 -1.49636 0
M  V30 13472 C 1239.89 0.0521945 -2.02733 0
M  V30 13473 C 1240.23 1.3723 -1.37411 0
M  V30 13474 O 1239.5 1.87758 -0.507642 0
M  V30 13475 C 1239.78 0.2114 -3.59479 0
M  V30 13476 C 1239.64 -1.13138 -4.35339 0
M  V30 13477 C 1240.96 0.955015 -4.29613 0
M  V30 13478 H 1238.08 0.0174946 -0.736792 0
M  V30 13479 H 1240.72 -0.644827 -1.78723 0
M  V30 13480 H 1238.87 0.805078 -3.80067 0
M  V30 13481 H 1240.54 -1.76345 -4.26263 0
M  V30 13482 H 1238.78 -1.72224 -3.98147 0
M  V30 13483 H 1239.45 -0.97336 -5.4335 0
M  V30 13484 H 1241.93 0.451575 -4.13642 0
M  V30 13485 H 1240.81 1.03524 -5.39049 0
M  V30 13486 H 1241.07 1.99724 -3.94414 0
M  V30 13487 N 1240.13 1.55939 -0.228214 0
M  V30 13488 C 1241.07 2.20581 0.679157 0
M  V30 13489 C 1242.04 1.16355 1.18536 0
M  V30 13490 O 1243.23 1.44735 1.24324 0
M  V30 13491 C 1240.37 2.89477 1.87875 0
M  V30 13492 C 1239.48 4.08313 1.41083 0
M  V30 13493 C 1238.62 4.64974 2.56851 0
M  V30 13494 C 1237.65 5.76098 2.06828 0
M  V30 13495 N 1236.79 6.27021 3.15894 0
M  V30 13496 H 1241.63 2.97753 0.121203 0
M  V30 13497 H 1239.17 1.47021 0.0480688 0
M  V30 13498 H 1241.13 3.2761 2.58317 0
M  V30 13499 H 1239.76 2.14811 2.40948 0
M  V30 13500 H 1238.81 3.75621 0.601102 0
M  V30 13501 H 1240.12 4.8859 1.00408 0
M  V30 13502 H 1239.27 5.05584 3.35365 0
M  V30 13503 H 1238.01 3.83875 3.00818 0
M  V30 13504 H 1237.02 5.34984 1.26778 0
M  V30 13505 H 1238.24 6.59037 1.63852 0
M  V30 13506 H 1236.19 5.48833 3.5933 0
M  V30 13507 H 1236.11 7.02439 2.79491 0
M  V30 13508 H 1237.37 6.72289 3.94523 0
M  V30 13509 N 1241.6 -0.0451101 1.57535 0
M  V30 13510 C 1242.55 -1.05066 2.05499 0
M  V30 13511 C 1243.52 -1.36884 0.940843 0
M  V30 13512 O 1244.71 -1.47497 1.21034 0
M  V30 13513 C 1241.85 -2.35139 2.52594 0
M  V30 13514 C 1240.96 -2.0962 3.77735 0
M  V30 13515 C 1240.09 -3.33447 4.13505 0
M  V30 13516 C 1239.13 -3.03411 5.31609 0
M  V30 13517 N 1238.27 -4.19644 5.62888 0
M  V30 13518 H 1243.11 -0.63469 2.91163 0
M  V30 13519 H 1240.65 -0.30179 1.43971 0
M  V30 13520 H 1242.61 -3.11118 2.7796 0
M  V30 13521 H 1241.24 -2.74489 1.69869 0
M  V30 13522 H 1240.29 -1.24211 3.59549 0
M  V30 13523 H 1241.6 -1.83452 4.63839 0
M  V30 13524 H 1240.75 -4.17805 4.39914 0
M  V30 13525 H 1239.49 -3.62715 3.2602 0
M  V30 13526 H 1238.5 -2.17453 5.04969 0
M  V30 13527 H 1239.72 -2.75438 6.20734 0
M  V30 13528 H 1237.67 -4.48893 4.78363 0
M  V30 13529 H 1237.59 -3.96843 6.43468 0
M  V30 13530 H 1238.85 -5.04921 5.93865 0
M  V30 13531 N 1243.08 -1.54377 -0.317073 0
M  V30 13532 C 1244.33 -1.73149 -1.05581 0
M  V30 13533 C 1244.66 -0.507176 -1.8746 0
M  V30 13534 O 1243.94 0.495837 -1.88074 0
M  V30 13535 C 1244.22 -3.01098 -1.97515 0
M  V30 13536 C 1244.07 -4.33794 -1.18922 0
M  V30 13537 C 1245.39 -3.24831 -2.9694 0
M  V30 13538 H 1242.51 -0.630011 -0.382434 0
M  V30 13539 H 1245.15 -1.87079 -0.331873 0
M  V30 13540 H 1243.3 -2.89352 -2.59244 0
M  V30 13541 H 1244.97 -4.57433 -0.596039 0
M  V30 13542 H 1243.22 -4.31005 -0.491612 0
M  V30 13543 H 1243.89 -5.19554 -1.86462 0
M  V30 13544 H 1246.36 -3.3608 -2.45335 0
M  V30 13545 H 1245.24 -4.15702 -3.58445 0
M  V30 13546 H 1245.5 -2.42365 -3.69745 0
M  V30 13547 N 1244.56 0.579466 -1.4656 0
M  V30 13548 C 1245.49 1.70291 -1.53406 0
M  V30 13549 C 1246.51 1.57232 -0.422116 0
M  V30 13550 O 1247.69 1.64598 -0.69064 0
M  V30 13551 C 1244.79 3.08572 -1.40131 0
M  V30 13552 C 1243.97 3.47602 -2.65502 0
M  V30 13553 C 1243.03 4.64955 -2.4638 0
M  V30 13554 O 1242.05 4.70653 -3.20116 0
M  V30 13555 N 1243.25 5.60041 -1.52756 0
M  V30 13556 H 1246.02 1.64873 -2.50274 0
M  V30 13557 H 1243.58 0.765533 -1.42658 0
M  V30 13558 H 1245.57 3.84877 -1.25106 0
M  V30 13559 H 1244.14 3.0834 -0.514322 0
M  V30 13560 H 1243.36 2.60969 -2.95446 0
M  V30 13561 H 1244.65 3.70446 -3.48779 0
M  V30 13562 H 1244.05 5.58176 -0.919587 0
M  V30 13563 H 1242.61 6.35764 -1.43693 0
M  V30 13564 N 1246.04 1.3432 0.824371 0
M  V30 13565 C 1247.32 1.17178 1.56616 0
M  V30 13566 C 1247.7 -0.256195 2.0954 0
M  V30 13567 O 1247.04 -1.25732 1.90798 0
M  V30 13568 C 1247.25 2.22511 2.68867 0
M  V30 13569 C 1248.6 2.57414 3.37673 0
M  V30 13570 O 1249.63 2.2129 2.79122 0
M  V30 13571 O 1248.48 3.19462 4.43403 0
M  V30 13572 H 1245.58 0.454141 0.691147 0
M  V30 13573 H 1248.12 1.45948 0.865869 0
M  V30 13574 H 1246.9 3.18366 2.27505 0
M  V30 13575 H 1246.52 1.9491 3.46548 0
M  V30 13576 N 1247.52 -1.0444 1.18026 0
M  V30 13577 C 1248.46 -2.12365 0.903865 0
M  V30 13578 C 1249.43 -1.65373 -0.155252 0
M  V30 13579 O 1250.62 -1.90793 -0.016419 0
M  V30 13580 C 1247.76 -3.4239 0.431603 0
M  V30 13581 C 1246.87 -4.03016 1.55571 0
M  V30 13582 C 1246.01 -5.20988 1.03655 0
M  V30 13583 C 1245.05 -5.73636 2.1356 0
M  V30 13584 N 1244.18 -6.82901 1.63066 0
M  V30 13585 H 1249.02 -2.35346 1.82802 0
M  V30 13586 H 1246.56 -1.15447 0.911618 0
M  V30 13587 H 1248.52 -4.16967 0.139296 0
M  V30 13588 H 1247.15 -3.19569 -0.455576 0
M  V30 13589 H 1246.2 -3.25803 1.96358 0
M  V30 13590 H 1247.51 -4.38122 2.38434 0
M  V30 13591 H 1246.67 -6.02665 0.698546 0
M  V30 13592 H 1245.4 -4.87377 0.177457 0
M  V30 13593 H 1244.41 -4.90583 2.4821 0
M  V30 13594 H 1245.63 -6.09293 2.99899 0
M  V30 13595 H 1243.58 -6.51172 0.794394 0
M  V30 13596 H 1243.5 -7.1705 2.3953 0
M  V30 13597 H 1244.77 -7.68211 1.32181 0
M  V30 13598 N 1248.99 -0.981699 -1.2329 0
M  V30 13599 C 1250.24 -0.651302 -1.9174 0
M  V30 13600 C 1250.57 0.815318 -1.76587 0
M  V30 13601 O 1249.82 1.60377 -1.1215 0
M  V30 13602 C 1250.12 -0.989244 -3.43437 0
M  V30 13603 C 1249.79 -2.44629 -3.78771 0
M  V30 13604 C 1248.45 -2.84449 -3.88127 0
M  V30 13605 C 1250.8 -3.39123 -3.95784 0
M  V30 13606 C 1248.13 -4.17775 -4.11923 0
M  V30 13607 C 1250.48 -4.72095 -4.21081 0
M  V30 13608 C 1249.15 -5.11672 -4.28659 0
M  V30 13609 H 1248.42 -0.238328 -0.701627 0
M  V30 13610 H 1251.06 -1.2358 -1.46288 0
M  V30 13611 H 1249.37 -0.322677 -3.90469 0
M  V30 13612 H 1251.07 -0.711796 -3.94632 0
M  V30 13613 H 1247.66 -2.12759 -3.72064 0
M  V30 13614 H 1251.84 -3.09536 -3.87945 0
M  V30 13615 H 1247.1 -4.48043 -4.16013 0
M  V30 13616 H 1251.27 -5.45271 -4.33189 0
M  V30 13617 H 1248.9 -6.15003 -4.46851 0
M  V30 13618 N 1250.47 1.3842 -0.753509 0
M  V30 13619 C 1251.89 1.53668 -0.431095 0
M  V30 13620 C 1252.09 1.71626 1.05578 0
M  V30 13621 O 1251.14 1.72723 1.84182 0
M  V30 13622 C 1252.46 2.74381 -1.23027 0
M  V30 13623 C 1254.01 2.8823 -1.22034 0
M  V30 13624 C 1254.48 4.11904 -2.00248 0
M  V30 13625 N 1255.97 4.18981 -1.97508 0
M  V30 13626 C 1256.71 5.13667 -2.5482 0
M  V30 13627 N 1256.2 6.14027 -3.20846 0
M  V30 13628 N 1258 5.06017 -2.44751 0
M  V30 13629 H 1250.15 1.25012 -1.71714 0
M  V30 13630 H 1252.41 0.607296 -0.727939 0
M  V30 13631 H 1252.12 2.67515 -2.28317 0
M  V30 13632 H 1251.99 3.67565 -0.847098 0
M  V30 13633 H 1254.38 2.94578 -0.175502 0
M  V30 13634 H 1254.46 1.96057 -1.64303 0
M  V30 13635 H 1254.1 4.06318 -3.04742 0
M  V30 13636 H 1254.03 5.03157 -1.55373 0
M  V30 13637 H 1256.52 3.47104 -1.49423 0
M  V30 13638 H 1256.84 6.82771 -3.61999 0
M  V30 13639 H 1255.18 6.1436 -3.24941 0
M  V30 13640 H 1258.37 4.26552 -1.92797 0
M  V30 13641 H 1258.54 5.7963 -2.89713 0
M  V30 13642 N 1251.95 0.502579 1.49372 0
M  V30 13643 C 1252.88 -0.264307 2.31999 0
M  V30 13644 C 1253.86 -0.96107 1.40348 0
M  V30 13645 O 1255.05 -0.952167 1.69255 0
M  V30 13646 C 1252.18 -1.32822 3.20898 0
M  V30 13647 C 1251.13 -0.751236 4.21355 0
M  V30 13648 C 1250.46 -1.91578 4.99201 0
M  V30 13649 C 1251.76 0.258764 5.21659 0
M  V30 13650 H 1253.45 0.425391 2.96363 0
M  V30 13651 H 1251 0.206022 1.42519 0
M  V30 13652 H 1252.95 -1.87245 3.77515 0
M  V30 13653 H 1251.67 -2.04712 2.54481 0
M  V30 13654 H 1250.33 -0.228743 3.65886 0
M  V30 13655 H 1249.98 -2.62241 4.2923 0
M  V30 13656 H 1249.68 -1.53578 5.67175 0
M  V30 13657 H 1251.2 -2.46432 5.58663 0
M  V30 13658 H 1252.62 -0.197385 5.7296 0
M  V30 13659 H 1251.02 0.554681 5.97531 0
M  V30 13660 H 1252.09 1.1741 4.70471 0
M  V30 13661 N 1253.43 -1.55816 0.23648 0
M  V30 13662 C 1254.71 -1.90565 -0.440933 0
M  V30 13663 C 1255.09 -1.15585 -1.76645 0
M  V30 13664 O 1254.43 -0.269949 -2.269 0
M  V30 13665 C 1254.64 -3.43462 -0.61925 0
M  V30 13666 C 1255.99 -4.14516 -0.91989 0
M  V30 13667 O 1257.02 -3.49144 -0.705496 0
M  V30 13668 O 1255.87 -5.3013 -1.32759 0
M  V30 13669 H 1252.97 -0.79285 -0.235199 0
M  V30 13670 H 1255.51 -1.67378 0.279774 0
M  V30 13671 H 1254.29 -3.90029 0.315124 0
M  V30 13672 H 1253.91 -3.72478 -1.39089 0
M  V30 13673 N 1254.91 0.036755 -1.57557 0
M  V30 13674 C 1255.84 1.03939 -2.09091 0
M  V30 13675 C 1256.82 1.38196 -0.991761 0
M  V30 13676 O 1258 1.47214 -1.26656 0
M  V30 13677 C 1255.13 2.34263 -2.56394 0
M  V30 13678 C 1254.09 2.14269 -3.70504 0
M  V30 13679 C 1253.41 3.50286 -4.03985 0
M  V30 13680 C 1254.71 1.53514 -4.9923 0
M  V30 13681 H 1256.41 0.610429 -2.93111 0
M  V30 13682 H 1253.95 0.292183 -1.41005 0
M  V30 13683 H 1255.91 3.04727 -2.91066 0
M  V30 13684 H 1254.63 2.79205 -1.69447 0
M  V30 13685 H 1253.29 1.46239 -3.36169 0
M  V30 13686 H 1252.94 3.92861 -3.14116 0
M  V30 13687 H 1252.64 3.37735 -4.80842 0
M  V30 13688 H 1254.16 4.22124 -4.41184 0
M  V30 13689 H 1255.57 2.13885 -5.31908 0
M  V30 13690 H 1253.97 1.51561 -5.80646 0
M  V30 13691 H 1255.04 0.500126 -4.82314 0
M  V30 13692 N 1256.39 1.54543 0.308881 0
M  V30 13693 C 1257.61 1.77753 1.06857 0
M  V30 13694 C 1258.04 0.531616 1.80431 0
M  V30 13695 O 1257.39 -0.517513 1.73757 0
M  V30 13696 C 1257.44 2.97968 2.03094 0
M  V30 13697 O 1256.55 2.70541 3.11257 0
M  V30 13698 H 1255.89 0.588576 0.307368 0
M  V30 13699 H 1258.42 2.01607 0.348703 0
M  V30 13700 H 1258.43 3.25722 2.45702 0
M  V30 13701 H 1257.1 3.88314 1.48948 0
M  V30 13702 H 1255.68 2.53781 2.7322 0
M  V30 13703 N 1257.86 -0.571685 1.46866 0
M  V30 13704 C 1259.14 -1.33216 1.43223 0
M  V30 13705 C 1259.52 -2.1075 0.121495 0
M  V30 13706 O 1258.87 -2.10157 -0.897003 0
M  V30 13707 C 1259.08 -2.24888 2.66882 0
M  V30 13708 C 1260.43 -2.86369 3.13493 0
M  V30 13709 O 1261.45 -2.35197 2.67509 0
M  V30 13710 O 1260.31 -3.79342 3.93398 0
M  V30 13711 H 1257.4 -0.599106 0.570089 0
M  V30 13712 H 1259.95 -0.591788 1.59047 0
M  V30 13713 H 1258.72 -1.67099 3.53827 0
M  V30 13714 H 1258.34 -3.06246 2.53573 0
M  V30 13715 N 1259.34 -1.34755 -0.817236 0
M  V30 13716 C 1260.25 -1.28888 -1.96023 0
M  V30 13717 C 1261.27 -0.195582 -1.72897 0
M  V30 13718 O 1262.44 -0.423071 -1.96906 0
M  V30 13719 C 1259.51 -1.04985 -3.30423 0
M  V30 13720 C 1258.57 -2.23526 -3.66517 0
M  V30 13721 C 1257.8 -2.00753 -4.94504 0
M  V30 13722 O 1258.03 -0.968622 -5.62116 0
M  V30 13723 O 1256.96 -2.87848 -5.28608 0
M  V30 13724 H 1260.79 -2.25059 -2.03917 0
M  V30 13725 H 1258.37 -1.15019 -0.953467 0
M  V30 13726 H 1260.25 -0.934589 -4.10906 0
M  V30 13727 H 1258.93 -0.118582 -3.23483 0
M  V30 13728 H 1257.83 -2.40613 -2.86455 0
M  V30 13729 H 1259.17 -3.15062 -3.78149 0
M  V30 13730 N 1260.82 1.03812 -1.18578 0
M  V30 13731 C 1261.73 2.15371 -0.930182 0
M  V30 13732 C 1262.75 1.73673 0.106599 0
M  V30 13733 O 1263.92 2.01257 -0.0759054 0
M  V30 13734 C 1260.99 3.43606 -0.462151 0
M  V30 13735 C 1260.05 3.99671 -1.5672 0
M  V30 13736 C 1259.28 5.21785 -1.12141 0
M  V30 13737 O 1259.5 5.70397 0.0188357 0
M  V30 13738 O 1258.44 5.70449 -1.9202 0
M  V30 13739 H 1262.26 2.39791 -1.86371 0
M  V30 13740 H 1259.85 1.13814 -0.967819 0
M  V30 13741 H 1261.73 4.2088 -0.20934 0
M  V30 13742 H 1260.41 3.20654 0.443052 0
M  V30 13743 H 1259.31 3.23774 -1.87406 0
M  V30 13744 H 1260.65 4.2697 -2.44862 0
M  V30 13745 N 1262.3 0.988223 1.22768 0
M  V30 13746 C 1263.26 0.539813 2.22752 0
M  V30 13747 C 1264.26 -0.374796 1.56371 0
M  V30 13748 O 1265.45 -0.167402 1.73394 0
M  V30 13749 C 1262.58 -0.215461 3.40218 0
M  V30 13750 H 1263.78 1.42397 2.63938 0
M  V30 13751 H 1261.33 0.774933 1.35737 0
M  V30 13752 H 1262.06 -1.11581 3.045 0
M  V30 13753 H 1261.85 0.441173 3.8961 0
M  V30 13754 H 1263.34 -0.517517 4.14381 0
M  V30 13755 N 1263.78 -1.38018 0.760839 0
M  V30 13756 C 1265.02 -2.00248 0.320716 0
M  V30 13757 C 1265.35 -1.60259 -1.09684 0
M  V30 13758 O 1264.63 -0.843567 -1.75255 0
M  V30 13759 C 1264.91 -3.57254 0.451849 0
M  V30 13760 C 1264.77 -4.07185 1.91103 0
M  V30 13761 C 1266.08 -4.39843 -0.150439 0
M  V30 13762 H 1263.2 -0.727491 0.118007 0
M  V30 13763 H 1265.85 -1.63855 0.961842 0
M  V30 13764 H 1264 -3.88386 -0.0939672 0
M  V30 13765 H 1265.67 -3.86665 2.51571 0
M  V30 13766 H 1263.91 -3.59782 2.42362 0
M  V30 13767 H 1264.58 -5.16262 1.9539 0
M  V30 13768 H 1267.06 -4.14905 0.315145 0
M  V30 13769 H 1265.93 -5.48893 -0.0284853 0
M  V30 13770 H 1266.19 -4.24367 -1.23956 0
M  V30 13771 N 1265.25 -0.510493 -1.49103 0
M  V30 13772 C 1266.2 0.282297 -2.26246 0
M  V30 13773 C 1267.19 0.927187 -1.31499 0
M  V30 13774 O 1268.38 0.833216 -1.56162 0
M  V30 13775 C 1265.51 1.34046 -3.16049 0
M  V30 13776 C 1264.59 0.701334 -4.18261 0
M  V30 13777 N 1264.99 -0.201593 -5.05398 0
M  V30 13778 C 1263.28 0.960822 -4.35527 0
M  V30 13779 C 1263.98 -0.568383 -5.78916 0
M  V30 13780 N 1262.96 0.0659546 -5.4356 0
M  V30 13781 H 1266.76 -0.41264 -2.90989 0
M  V30 13782 H 1264.28 -0.327201 -1.5907 0
M  V30 13783 H 1266.27 1.92195 -3.69955 0
M  V30 13784 H 1264.93 2.03697 -2.52859 0
M  V30 13785 H 1265.94 -0.573004 -5.1472 0
M  V30 13786 H 1262.62 1.64938 -3.83539 0
M  V30 13787 H 1264.01 -1.30763 -6.59053 0
M  V30 13788 N 1266.73 1.55688 -0.24474 0
M  V30 13789 C 1267.96 2.02995 0.38425 0
M  V30 13790 C 1268.37 1.12339 1.52239 0
M  V30 13791 O 1267.71 0.129803 1.83241 0
M  V30 13792 C 1267.77 3.46564 0.955701 0
M  V30 13793 C 1267.44 4.56973 -0.0499176 0
M  V30 13794 C 1268.44 5.1276 -0.858682 0
M  V30 13795 C 1266.12 5.01994 -0.175383 0
M  V30 13796 C 1268.11 6.12059 -1.77939 0
M  V30 13797 C 1265.8 6.01126 -1.0996 0
M  V30 13798 C 1266.8 6.56037 -1.90013 0
M  V30 13799 O 1266.49 7.53235 -2.80877 0
M  V30 13800 H 1266.22 0.669189 0.0957212 0
M  V30 13801 H 1268.77 2.02121 -0.36555 0
M  V30 13802 H 1267 3.44581 1.75502 0
M  V30 13803 H 1268.69 3.77383 1.49454 0
M  V30 13804 H 1269.46 4.78811 -0.772325 0
M  V30 13805 H 1265.34 4.58918 0.437644 0
M  V30 13806 H 1268.88 6.54845 -2.40465 0
M  V30 13807 H 1264.78 6.34494 -1.18689 0
M  V30 13808 H 1265.55 7.70844 -2.75214 0
M  V30 13809 N 1268.21 -0.0283989 1.57574 0
M  V30 13810 C 1269.14 -1.06191 2.01987 0
M  V30 13811 C 1270.12 -1.35131 0.90434 0
M  V30 13812 O 1271.3 -1.47777 1.17023 0
M  V30 13813 C 1268.43 -2.39646 2.39348 0
M  V30 13814 C 1267.48 -2.26558 3.6135 0
M  V30 13815 S 1268.31 -1.61839 5.10459 0
M  V30 13816 C 1269.47 -2.96783 5.51063 0
M  V30 13817 H 1269.7 -0.683625 2.89333 0
M  V30 13818 H 1267.23 -0.238394 1.52548 0
M  V30 13819 H 1269.19 -3.16394 2.61544 0
M  V30 13820 H 1267.85 -2.74622 1.52452 0
M  V30 13821 H 1267.04 -3.25079 3.85149 0
M  V30 13822 H 1266.65 -1.57954 3.39008 0
M  V30 13823 H 1268.94 -3.93111 5.51788 0
M  V30 13824 H 1269.88 -2.77716 6.51367 0
M  V30 13825 H 1270.29 -2.99386 4.78569 0
M  V30 13826 N 1269.69 -1.54705 -0.300681 0
M  V30 13827 C 1270.62 -1.8205 -1.39249 0
M  V30 13828 C 1271.63 -0.703476 -1.46816 0
M  V30 13829 O 1272.82 -0.980957 -1.49129 0
M  V30 13830 C 1269.92 -1.94376 -2.77617 0
M  V30 13831 C 1269.09 -3.2478 -2.92979 0
M  V30 13832 C 1268.15 -3.27518 -4.11848 0
M  V30 13833 O 1267.18 -4.01047 -4.03918 0
M  V30 13834 N 1268.38 -2.52932 -5.22499 0
M  V30 13835 H 1271.15 -2.76279 -1.16146 0
M  V30 13836 H 1268.71 -1.54283 -0.49075 0
M  V30 13837 H 1270.7 -1.93609 -3.55384 0
M  V30 13838 H 1269.27 -1.07141 -2.93666 0
M  V30 13839 H 1268.49 -3.38319 -2.02322 0
M  V30 13840 H 1269.78 -4.10835 -3.00153 0
M  V30 13841 H 1269.18 -1.92825 -5.31822 0
M  V30 13842 H 1267.73 -2.57919 -5.98599 0
M  V30 13843 N 1271.17 0.563888 -1.47167 0
M  V30 13844 C 1272.39 1.35176 -1.57297 0
M  V30 13845 C 1272.82 1.86794 -0.221235 0
M  V30 13846 O 1272.17 1.62606 0.801809 0
M  V30 13847 C 1272.22 2.50225 -2.59654 0
M  V30 13848 O 1271.33 3.5225 -2.14461 0
M  V30 13849 H 1270.67 0.401795 -0.528637 0
M  V30 13850 H 1273.2 0.682137 -1.92894 0
M  V30 13851 H 1273.21 2.96886 -2.79862 0
M  V30 13852 H 1271.88 2.1201 -3.57805 0
M  V30 13853 H 1270.46 3.1194 -2.04323 0
M  V30 13854 N 1272.64 1.35187 0.810078 0
M  V30 13855 C 1273.57 1.30481 1.93641 0
M  V30 13856 C 1274.56 0.179875 1.69146 0
M  V30 13857 O 1275.74 0.374284 1.90559 0
M  V30 13858 C 1272.87 1.07251 3.30325 0
M  V30 13859 C 1271.82 2.16348 3.69293 0
M  V30 13860 C 1271.15 1.78288 5.04101 0
M  V30 13861 C 1272.45 3.58285 3.80038 0
M  V30 13862 H 1274.14 2.24725 1.97836 0
M  V30 13863 H 1271.69 1.08179 0.950436 0
M  V30 13864 H 1273.64 1.02599 4.08719 0
M  V30 13865 H 1272.37 0.0945203 3.26463 0
M  V30 13866 H 1271.03 2.2009 2.93182 0
M  V30 13867 H 1270.67 0.791163 4.96739 0
M  V30 13868 H 1270.37 2.51315 5.31144 0
M  V30 13869 H 1271.9 1.75155 5.84938 0
M  V30 13870 H 1273.31 3.56884 4.48672 0
M  V30 13871 H 1271.71 4.30044 4.18548 0
M  V30 13872 H 1272.78 3.94691 2.81685 0
M  V30 13873 N 1274.12 -1.03182 1.19127 0
M  V30 13874 C 1275.37 -1.75934 0.986415 0
M  V30 13875 C 1275.68 -1.89519 -0.48392 0
M  V30 13876 O 1276.89 -2.59213 -0.80752 0
M  V30 13877 C 1275.35 -3.16358 1.71597 0
M  V30 13878 C 1274.95 -3.10836 3.22622 0
M  V30 13879 C 1276.7 -3.93426 1.59425 0
M  V30 13880 C 1274.61 -4.46174 3.88179 0
M  V30 13881 H 1273.54 -0.659516 0.365451 0
M  V30 13882 H 1276.19 -1.15497 1.42593 0
M  V30 13883 H 1274.57 -3.77245 1.20426 0
M  V30 13884 H 1275.74 -2.59348 3.80887 0
M  V30 13885 H 1274.06 -2.47266 3.35035 0
M  V30 13886 H 1276.65 -4.93526 2.05757 0
M  V30 13887 H 1277 -4.12678 0.547926 0
M  V30 13888 H 1277.53 -3.39134 2.07925 0
M  V30 13889 H 1274.27 -4.32126 4.92897 0
M  V30 13890 H 1273.79 -4.97729 3.34702 0
M  V30 13891 H 1275.47 -5.15066 3.91556 0
M  V30 13892 N 1275.6 -0.99472 -1.22242 0
M  V30 13893 C 1276.88 -0.587481 -1.86569 0
M  V30 13894 C 1277.26 0.935174 -1.89256 0
M  V30 13895 O 1276.61 1.81787 -1.3844 0
M  V30 13896 C 1276.82 -1.21001 -3.27353 0
M  V30 13897 C 1278.16 -1.31167 -4.03832 0
M  V30 13898 O 1279.19 -1.16454 -3.36626 0
M  V30 13899 O 1278.05 -1.54731 -5.24138 0
M  V30 13900 H 1275.14 -0.199838 -0.802492 0
M  V30 13901 H 1277.69 -1.09071 -1.30006 0
M  V30 13902 H 1276.46 -2.25143 -3.20041 0
M  V30 13903 H 1276.08 -0.692479 -3.91523 0
M  V30 13904 N 1277.08 1.37613 -0.768148 0
M  V30 13905 C 1277.99 2.34103 -0.152649 0
M  V30 13906 C 1279 1.6 0.683811 0
M  V30 13907 O 1280.18 1.92112 0.604572 0
M  V30 13908 C 1277.25 3.39164 0.718954 0
M  V30 13909 C 1276.31 4.29092 -0.13355 0
M  V30 13910 C 1275.54 5.29135 0.696547 0
M  V30 13911 O 1275.76 5.36618 1.93383 0
M  V30 13912 O 1274.7 6.01804 0.107652 0
M  V30 13913 H 1278.52 2.88462 -0.949899 0
M  V30 13914 H 1276.11 1.39711 -0.529252 0
M  V30 13915 H 1277.99 4.03454 1.21665 0
M  V30 13916 H 1276.66 2.87137 1.49445 0
M  V30 13917 H 1275.57 3.67914 -0.677528 0
M  V30 13918 H 1276.9 4.84413 -0.872048 0
M  V30 13919 N 1278.56 0.518393 1.4883 0
M  V30 13920 C 1279.78 -0.0183131 2.07392 0
M  V30 13921 C 1280.21 -1.28468 1.37396 0
M  V30 13922 O 1279.56 -1.75975 0.436177 0
M  V30 13923 C 1279.61 -0.237211 3.59819 0
M  V30 13924 O 1278.72 -1.30835 3.91096 0
M  V30 13925 H 1278.06 0.0339621 0.663131 0
M  V30 13926 H 1280.59 0.722993 1.914 0
M  V30 13927 H 1280.6 -0.463424 4.0536 0
M  V30 13928 H 1279.27 0.687925 4.10171 0
M  V30 13929 H 1277.85 -1.06571 3.57347 0
M  V30 13930 N 1280.03 -1.55556 0.252993 0
M  V30 13931 C 1281.28 -1.99385 -0.370599 0
M  V30 13932 C 1281.61 -1.14101 -1.57145 0
M  V30 13933 O 1280.89 -0.205828 -1.93408 0
M  V30 13934 C 1281.17 -3.51672 -0.774503 0
M  V30 13935 C 1281.02 -4.47719 0.432159 0
M  V30 13936 C 1282.34 -4.0923 -1.61923 0
M  V30 13937 H 1279.46 -0.724858 -0.133231 0
M  V30 13938 H 1282.1 -1.86644 0.355522 0
M  V30 13939 H 1280.25 -3.62661 -1.39318 0
M  V30 13940 H 1281.93 -4.48704 1.07063 0
M  V30 13941 H 1280.17 -4.2029 1.07419 0
M  V30 13942 H 1280.84 -5.51898 0.106123 0
M  V30 13943 H 1283.32 -4.01381 -1.09693 0
M  V30 13944 H 1282.19 -5.16039 -1.87068 0
M  V30 13945 H 1282.45 -3.58067 -2.59307 0
M  V30 13946 N 1281.51 0.0200419 -1.57587 0
M  V30 13947 C 1282.46 1.0259 -2.03615 0
M  V30 13948 C 1283.45 1.31504 -0.927116 0
M  V30 13949 O 1284.64 1.30938 -1.19098 0
M  V30 13950 C 1281.77 2.32424 -2.52654 0
M  V30 13951 C 1280.85 2.06561 -3.70396 0
M  V30 13952 N 1281.24 1.50787 -4.82801 0
M  V30 13953 C 1279.54 2.36802 -3.77943 0
M  V30 13954 C 1280.24 1.40935 -5.64369 0
M  V30 13955 N 1279.22 1.88806 -5.09758 0
M  V30 13956 H 1283.02 0.588835 -2.87941 0
M  V30 13957 H 1280.54 0.226163 -1.60817 0
M  V30 13958 H 1282.53 3.05303 -2.83894 0
M  V30 13959 H 1281.19 2.76801 -1.69738 0
M  V30 13960 H 1282.2 1.18935 -5.04058 0
M  V30 13961 H 1278.88 2.84192 -3.05845 0
M  V30 13962 H 1280.27 0.982261 -6.64681 0
M  V30 13963 N 1282.99 1.54862 0.292472 0
M  V30 13964 C 1283.95 1.8565 1.34413 0
M  V30 13965 C 1284.95 0.729868 1.43281 0
M  V30 13966 O 1286.14 0.998128 1.42769 0
M  V30 13967 C 1283.28 2.0444 2.72795 0
M  V30 13968 H 1284.47 2.79642 1.08354 0
M  V30 13969 H 1282.02 1.47055 0.529574 0
M  V30 13970 H 1282.76 1.12765 3.04063 0
M  V30 13971 H 1282.54 2.86451 2.67747 0
M  V30 13972 H 1284.03 2.296 3.48817 0
M  V30 13973 N 1284.47 -0.556076 1.47464 0
M  V30 13974 C 1285.4 -1.67275 1.62915 0
M  V30 13975 C 1286.38 -1.63229 0.478562 0
M  V30 13976 O 1287.56 -1.80833 0.708032 0
M  V30 13977 C 1284.69 -3.05911 1.64426 0
M  V30 13978 C 1283.65 -3.24804 2.78722 0
M  V30 13979 C 1282.97 -4.64238 2.65307 0
M  V30 13980 C 1284.27 -3.10071 4.20302 0
M  V30 13981 H 1285.97 -1.54601 2.56396 0
M  V30 13982 H 1283.51 -0.742337 1.23391 0
M  V30 13983 H 1285.47 -3.83878 1.73826 0
M  V30 13984 H 1284.19 -3.19547 0.675053 0
M  V30 13985 H 1282.85 -2.49246 2.68835 0
M  V30 13986 H 1282.5 -4.74675 1.66412 0
M  V30 13987 H 1282.2 -4.77828 3.41986 0
M  V30 13988 H 1283.72 -5.44339 2.76637 0
M  V30 13989 H 1285.14 -3.77855 4.3116 0
M  V30 13990 H 1283.53 -3.3517 4.97776 0
M  V30 13991 H 1284.6 -2.06803 4.38589 0
M  V30 13992 N 1285.95 -1.35615 -0.802897 0
M  V30 13993 C 1287.19 -1.29094 -1.56016 0
M  V30 13994 C 1287.52 0.133617 -1.9404 0
M  V30 13995 O 1286.78 1.09975 -1.61876 0
M  V30 13996 C 1287.08 -2.14653 -2.8576 0
M  V30 13997 C 1286.74 -3.63395 -2.66936 0
M  V30 13998 C 1285.4 -4.03937 -2.61511 0
M  V30 13999 C 1287.76 -4.57758 -2.49212 0
M  V30 14000 C 1285.08 -5.37006 -2.36309 0
M  V30 14001 C 1287.44 -5.91029 -2.25539 0
M  V30 14002 C 1286.1 -6.30712 -2.18538 0
M  V30 14003 H 1285.37 -0.472387 -0.570904 0
M  V30 14004 H 1288.02 -1.67545 -0.92741 0
M  V30 14005 H 1286.32 -1.69095 -3.53432 0
M  V30 14006 H 1288.02 -2.06941 -3.43477 0
M  V30 14007 H 1284.61 -3.31224 -2.72009 0
M  V30 14008 H 1288.79 -4.27318 -2.52414 0
M  V30 14009 H 1284.05 -5.66748 -2.29361 0
M  V30 14010 H 1288.22 -6.63724 -2.10816 0
M  V30 14011 H 1285.85 -7.33753 -1.98772 0
M  V30 14012 N 1287.43 1.02549 -1.19673 0
M  V30 14013 C 1288.39 2.09064 -0.939407 0
M  V30 14014 C 1289.39 1.60593 0.0814837 0
M  V30 14015 O 1290.58 1.73521 -0.153626 0
M  V30 14016 C 1287.71 3.38395 -0.412513 0
M  V30 14017 H 1288.9 2.33325 -1.88413 0
M  V30 14018 H 1286.46 1.19211 -1.01086 0
M  V30 14019 H 1287.19 3.19805 0.538094 0
M  V30 14020 H 1286.98 3.74898 -1.14863 0
M  V30 14021 H 1288.47 4.16841 -0.251678 0
M  V30 14022 N 1288.9 1.00119 1.21713 0
M  V30 14023 C 1289.87 0.563409 2.22167 0
M  V30 14024 C 1290.87 -0.35819 1.5676 0
M  V30 14025 O 1292.06 -0.149001 1.73562 0
M  V30 14026 C 1289.19 -0.179365 3.40428 0
M  V30 14027 H 1290.38 1.45189 2.62412 0
M  V30 14028 H 1287.93 0.789286 1.34907 0
M  V30 14029 H 1288.67 -1.08345 3.05666 0
M  V30 14030 H 1288.45 0.482471 3.8912 0
M  V30 14031 H 1289.94 -0.473537 4.14906 0
M  V30 14032 N 1290.38 -1.37203 0.775435 0
M  V30 14033 C 1291.63 -1.99897 0.341936 0
M  V30 14034 C 1291.96 -1.61414 -1.07978 0
M  V30 14035 O 1291.24 -0.862108 -1.7435 0
M  V30 14036 C 1291.52 -3.56755 0.489715 0
M  V30 14037 C 1291.37 -4.05135 1.95411 0
M  V30 14038 C 1292.69 -4.39978 -0.103779 0
M  V30 14039 H 1289.81 -0.726199 0.125717 0
M  V30 14040 H 1292.45 -1.62826 0.979167 0
M  V30 14041 H 1290.6 -3.88464 -0.0527684 0
M  V30 14042 H 1292.27 -3.83975 2.55658 0
M  V30 14043 H 1290.52 -3.57192 2.46164 0
M  V30 14044 H 1291.19 -5.14161 2.00855 0
M  V30 14045 H 1293.66 -4.14547 0.359134 0
M  V30 14046 H 1292.54 -5.48892 0.0297337 0
M  V30 14047 H 1292.8 -4.25658 -1.19448 0
M  V30 14048 N 1291.86 -0.526279 -1.48553 0
M  V30 14049 C 1293.11 0.00918008 -2.02798 0
M  V30 14050 C 1293.44 1.34284 -1.4029 0
M  V30 14051 O 1292.71 1.86639 -0.547355 0
M  V30 14052 C 1293 0.135102 -3.59846 0
M  V30 14053 C 1292.85 -1.22347 -4.32841 0
M  V30 14054 C 1294.17 0.863673 -4.31542 0
M  V30 14055 H 1291.29 0.00186216 -0.736998 0
M  V30 14056 H 1293.93 -0.682591 -1.77315 0
M  V30 14057 H 1292.08 0.724279 -3.81689 0
M  V30 14058 H 1293.75 -1.85347 -4.22427 0
M  V30 14059 H 1291.99 -1.80631 -3.94405 0
M  V30 14060 H 1292.67 -1.08839 -5.41164 0
M  V30 14061 H 1295.14 0.363734 -4.14507 0
M  V30 14062 H 1294.02 0.92067 -5.41124 0
M  V30 14063 H 1294.28 1.91313 -3.98562 0
M  V30 14064 N 1293.34 1.5542 -0.261239 0
M  V30 14065 C 1294.25 2.25627 0.642625 0
M  V30 14066 C 1295.26 1.27732 1.18155 0
M  V30 14067 O 1296.44 1.60639 1.21479 0
M  V30 14068 C 1293.5 2.95303 1.8165 0
M  V30 14069 C 1292.57 4.08644 1.31563 0
M  V30 14070 C 1291.8 4.74988 2.43355 0
M  V30 14071 O 1292.02 4.40474 3.62407 0
M  V30 14072 O 1290.96 5.63217 2.12299 0
M  V30 14073 H 1294.78 3.03609 0.0743091 0
M  V30 14074 H 1292.37 1.49372 -0.0291754 0
M  V30 14075 H 1294.25 3.3914 2.50125 0
M  V30 14076 H 1292.92 2.2025 2.37217 0
M  V30 14077 H 1291.83 3.69294 0.597746 0
M  V30 14078 H 1293.16 4.85558 0.805878 0
M  V30 14079 N 1294.82 -0.0116844 1.57596 0
M  V30 14080 C 1295.75 -1.03477 2.04512 0
M  V30 14081 C 1296.76 -1.31414 0.960945 0
M  V30 14082 O 1297.95 -1.28596 1.23796 0
M  V30 14083 C 1295.05 -2.37234 2.42019 0
M  V30 14084 C 1294.22 -2.28405 3.73028 0
M  V30 14085 C 1293.28 -3.44753 3.97532 0
M  V30 14086 O 1292.31 -3.23465 4.68358 0
M  V30 14087 N 1293.51 -4.67212 3.44518 0
M  V30 14088 H 1296.27 -0.634758 2.92901 0
M  V30 14089 H 1293.84 -0.1993 1.60669 0
M  V30 14090 H 1295.83 -3.13821 2.55535 0
M  V30 14091 H 1294.4 -2.69018 1.5921 0
M  V30 14092 H 1293.62 -1.36804 3.697 0
M  V30 14093 H 1294.91 -2.19666 4.58938 0
M  V30 14094 H 1294.3 -4.87407 2.87142 0
M  V30 14095 H 1292.86 -5.41105 3.63384 0
M  V30 14096 N 1296.29 -1.55015 -0.284256 0
M  V30 14097 C 1297.54 -1.74297 -1.01506 0
M  V30 14098 C 1297.86 -0.545134 -1.8785 0
M  V30 14099 O 1299.06 -0.620118 -2.64323 0
M  V30 14100 C 1297.52 -3.08438 -1.85456 0
M  V30 14101 C 1297.13 -4.35753 -1.04034 0
M  V30 14102 C 1298.87 -3.37073 -2.58035 0
M  V30 14103 C 1296.78 -5.60938 -1.87358 0
M  V30 14104 H 1295.71 -0.649656 -0.382705 0
M  V30 14105 H 1298.36 -1.81484 -0.271239 0
M  V30 14106 H 1296.74 -2.95259 -2.63891 0
M  V30 14107 H 1297.91 -4.59816 -0.300954 0
M  V30 14108 H 1296.23 -4.14178 -0.429616 0
M  V30 14109 H 1298.83 -4.27806 -3.20759 0
M  V30 14110 H 1299.17 -2.56698 -3.27738 0
M  V30 14111 H 1299.7 -3.51299 -1.86638 0
M  V30 14112 H 1296.44 -6.44029 -1.22096 0
M  V30 14113 H 1295.96 -5.41035 -2.58923 0
M  V30 14114 H 1297.64 -5.98819 -2.44999 0
M  V30 14115 N 1297.77 0.548248 -1.47757 0
M  V30 14116 C 1298.72 1.65028 -1.57321 0
M  V30 14117 C 1299.71 1.55006 -0.431489 0
M  V30 14118 O 1300.9 1.63337 -0.681919 0
M  V30 14119 C 1298.03 3.0379 -1.59896 0
M  V30 14120 C 1297.11 3.18982 -2.79484 0
M  V30 14121 N 1297.5 3.04208 -4.04093 0
M  V30 14122 C 1295.8 3.50001 -2.76433 0
M  V30 14123 C 1296.5 3.2233 -4.8423 0
M  V30 14124 N 1295.48 3.49073 -4.16712 0
M  V30 14125 H 1299.28 1.52187 -2.51428 0
M  V30 14126 H 1296.79 0.753242 -1.43875 0
M  V30 14127 H 1298.79 3.82928 -1.64839 0
M  V30 14128 H 1297.45 3.17735 -0.668912 0
M  V30 14129 H 1298.46 2.81348 -4.34814 0
M  V30 14130 H 1295.14 3.70418 -1.92606 0
M  V30 14131 H 1296.53 3.15799 -5.9306 0
M  V30 14132 N 1299.25 1.36039 0.795694 0
M  V30 14133 C 1300.2 1.29853 1.90806 0
M  V30 14134 C 1301.17 0.168387 1.65244 0
M  V30 14135 O 1302.35 0.353879 1.8749 0
M  V30 14136 C 1299.49 1.08737 3.27521 0
M  V30 14137 C 1298.6 2.30771 3.65197 0
M  V30 14138 C 1297.74 2.02718 4.90998 0
M  V30 14139 C 1296.78 3.20746 5.21333 0
M  V30 14140 N 1295.92 2.92399 6.38316 0
M  V30 14141 H 1300.76 2.2497 1.95429 0
M  V30 14142 H 1298.29 1.11819 0.955771 0
M  V30 14143 H 1300.25 0.945236 4.06351 0
M  V30 14144 H 1298.88 0.172781 3.22337 0
M  V30 14145 H 1297.93 2.5581 2.81541 0
M  V30 14146 H 1299.24 3.18869 3.83568 0
M  V30 14147 H 1298.4 1.85398 5.77679 0
M  V30 14148 H 1297.14 1.11921 4.74684 0
M  V30 14149 H 1296.14 3.38632 4.33138 0
M  V30 14150 H 1297.37 4.1236 5.3957 0
M  V30 14151 H 1295.31 2.04207 6.23406 0
M  V30 14152 H 1295.23 3.74034 6.56989 0
M  V30 14153 H 1296.5 2.78643 7.27996 0
M  V30 14154 N 1300.73 -1.01913 1.20215 0
M  V30 14155 C 1301.98 -1.7547 1.01076 0
M  V30 14156 C 1302.3 -1.89045 -0.457404 0
M  V30 14157 O 1301.56 -1.41121 -1.35585 0
M  V30 14158 C 1301.86 -3.17734 1.63646 0
M  V30 14159 C 1301.52 -3.24143 3.13436 0
M  V30 14160 C 1300.19 -3.25599 3.54315 0
M  V30 14161 C 1302.54 -3.22508 4.09436 0
M  V30 14162 C 1299.87 -3.23089 4.89725 0
M  V30 14163 C 1302.22 -3.21539 5.44789 0
M  V30 14164 C 1300.88 -3.21298 5.85085 0
M  V30 14165 H 1300.15 -0.642092 0.369864 0
M  V30 14166 H 1302.8 -1.19547 1.49602 0
M  V30 14167 H 1301.1 -3.76799 1.07375 0
M  V30 14168 H 1302.8 -3.73338 1.46356 0
M  V30 14169 H 1299.39 -3.23743 2.80871 0
M  V30 14170 H 1303.57 -3.20555 3.7889 0
M  V30 14171 H 1298.83 -3.21231 5.20212 0
M  V30 14172 H 1303 -3.19226 6.18924 0
M  V30 14173 H 1300.63 -3.19107 6.89982 0
M  V30 14174 N 1302.21 -1.00763 -1.2118 0
M  V30 14175 C 1303.17 -0.575183 -2.21865 0
M  V30 14176 C 1304.17 0.349871 -1.56948 0
M  V30 14177 O 1305.36 0.139795 -1.73638 0
M  V30 14178 C 1302.49 0.161308 -3.40518 0
M  V30 14179 H 1303.68 -1.46578 -2.61639 0
M  V30 14180 H 1301.24 -0.79643 -1.34487 0
M  V30 14181 H 1301.97 1.06723 -3.06236 0
M  V30 14182 H 1301.76 -0.503101 -3.88859 0
M  V30 14183 H 1303.25 0.451527 -4.15152 0
M  V30 14184 N 1303.68 1.3679 -0.7827 0
M  V30 14185 C 1304.62 2.28805 -0.13451 0
M  V30 14186 C 1305.63 1.49159 0.652338 0
M  V30 14187 O 1306.82 1.71682 0.488626 0
M  V30 14188 C 1303.92 3.28508 0.832802 0
M  V30 14189 C 1303.09 4.37291 0.0974435 0
M  V30 14190 C 1302.15 5.16999 0.979715 0
M  V30 14191 O 1301.18 5.67501 0.439439 0
M  V30 14192 N 1302.38 5.32786 2.30477 0
M  V30 14193 H 1305.14 2.85072 -0.924873 0
M  V30 14194 H 1302.7 1.48884 -0.636012 0
M  V30 14195 H 1304.7 3.78718 1.42671 0
M  V30 14196 H 1303.27 2.7293 1.52408 0
M  V30 14197 H 1302.49 3.88335 -0.677483 0
M  V30 14198 H 1303.77 5.07143 -0.410259 0
M  V30 14199 H 1303.17 4.93358 2.76793 0
M  V30 14200 H 1301.73 5.86264 2.84848 0
M  V30 14201 N 1305.16 0.53415 1.48272 0
M  V30 14202 C 1306.39 0.00573642 2.06599 0
M  V30 14203 C 1306.8 -1.28303 1.3905 0
M  V30 14204 O 1306.14 -1.77499 0.473274 0
M  V30 14205 C 1306.21 -0.28451 3.58372 0
M  V30 14206 C 1305.87 0.911397 4.4782 0
M  V30 14207 C 1306.87 1.81091 4.87342 0
M  V30 14208 C 1304.55 1.11957 4.89664 0
M  V30 14209 C 1306.55 2.90246 5.67482 0
M  V30 14210 C 1304.23 2.21426 5.69573 0
M  V30 14211 C 1305.23 3.10403 6.08391 0
M  V30 14212 O 1304.92 4.17977 6.86695 0
M  V30 14213 H 1304.65 0.0322847 0.675229 0
M  V30 14214 H 1307.2 0.740415 1.91591 0
M  V30 14215 H 1305.43 -1.07321 3.71509 0
M  V30 14216 H 1307.12 -0.755508 3.98807 0
M  V30 14217 H 1307.89 1.66204 4.55633 0
M  V30 14218 H 1303.77 0.436266 4.58931 0
M  V30 14219 H 1307.31 3.59724 5.97699 0
M  V30 14220 H 1303.21 2.36295 6.00695 0
M  V30 14221 H 1303.98 4.15738 7.05056 0
M  V30 14222 N 1306.64 -1.55279 0.269478 0
M  V30 14223 C 1307.89 -2.00497 -0.342447 0
M  V30 14224 C 1308.24 -1.1546 -1.53905 0
M  V30 14225 O 1307.53 -0.215342 -1.90386 0
M  V30 14226 C 1307.73 -3.48773 -0.780535 0
M  V30 14227 C 1307.56 -4.48158 0.372074 0
M  V30 14228 C 1306.33 -4.9803 0.854046 0
M  V30 14229 C 1308.53 -4.99944 1.20668 0
M  V30 14230 N 1306.51 -5.81205 1.97671 0
M  V30 14231 C 1307.88 -5.80511 2.17733 0
M  V30 14232 C 1309.93 -4.82195 1.24066 0
M  V30 14233 C 1308.64 -6.45221 3.17934 0
M  V30 14234 C 1310.66 -5.47701 2.2311 0
M  V30 14235 C 1310.02 -6.28074 3.18908 0
M  V30 14236 H 1306.12 -0.776729 -0.0906385 0
M  V30 14237 H 1308.71 -1.90709 0.392213 0
M  V30 14238 H 1306.88 -3.58914 -1.48443 0
M  V30 14239 H 1308.61 -3.8083 -1.36932 0
M  V30 14240 H 1305.37 -4.71604 0.43431 0
M  V30 14241 H 1305.79 -6.27485 2.54149 0
M  V30 14242 H 1310.43 -4.19666 0.513836 0
M  V30 14243 H 1308.15 -7.06903 3.91554 0
M  V30 14244 H 1311.74 -5.35911 2.26474 0
M  V30 14245 H 1310.62 -6.77865 3.94294 0
M  V30 14246 N 1308.12 0.00332656 -1.576 0
M  V30 14247 C 1309.53 0.359361 -1.55502 0
M  V30 14248 C 1309.73 1.74997 -0.998914 0
M  V30 14249 O 1308.79 2.44482 -0.631263 0
M  V30 14250 C 1310.1 0.237638 -2.9976 0
M  V30 14251 C 1311.65 0.312824 -3.11433 0
M  V30 14252 C 1312.13 0.220262 -4.5747 0
M  V30 14253 N 1313.62 0.278265 -4.62363 0
M  V30 14254 C 1314.35 0.229933 -5.72939 0
M  V30 14255 N 1313.85 0.132391 -6.92673 0
M  V30 14256 N 1315.64 0.281555 -5.61394 0
M  V30 14257 H 1307.79 -0.906404 -1.92089 0
M  V30 14258 H 1310.06 -0.347129 -0.88216 0
M  V30 14259 H 1309.76 -0.719007 -3.44272 0
M  V30 14260 H 1309.64 1.02105 -3.63118 0
M  V30 14261 H 1312.02 1.25991 -2.66852 0
M  V30 14262 H 1312.1 -0.500395 -2.50858 0
M  V30 14263 H 1311.75 -0.723267 -5.02724 0
M  V30 14264 H 1311.68 1.05192 -5.15987 0
M  V30 14265 H 1314.17 0.35512 -3.76228 0
M  V30 14266 H 1314.48 0.101317 -7.72734 0
M  V30 14267 H 1312.83 0.0980665 -6.94931 0
M  V30 14268 H 1316.02 0.355931 -4.66745 0
M  V30 14269 H 1316.19 0.240423 -6.47554 0
M  V30 14270 N 1309.6 1.55164 0.276031 0
M  V30 14271 C 1310.54 1.87836 1.34113 0
M  V30 14272 C 1311.51 0.729562 1.4922 0
M  V30 14273 O 1312.7 0.980549 1.63676 0
M  V30 14274 C 1309.84 2.15313 2.69693 0
M  V30 14275 C 1308.95 3.42845 2.62833 0
M  V30 14276 C 1308.09 3.60038 3.90572 0
M  V30 14277 C 1307.13 4.81273 3.7821 0
M  V30 14278 N 1306.26 4.95139 4.97777 0
M  V30 14279 H 1311.1 2.78681 1.0555 0
M  V30 14280 H 1308.64 1.37976 0.510001 0
M  V30 14281 H 1310.6 2.29243 3.48573 0
M  V30 14282 H 1309.23 1.27706 2.96464 0
M  V30 14283 H 1308.28 3.37403 1.75679 0
M  V30 14284 H 1309.59 4.3186 2.49597 0
M  V30 14285 H 1308.75 3.73769 4.77893 0
M  V30 14286 H 1307.48 2.69203 4.06671 0
M  V30 14287 H 1306.49 4.67549 2.89271 0
M  V30 14288 H 1307.71 5.7354 3.63632 0
M  V30 14289 H 1305.66 4.07234 5.14292 0
M  V30 14290 H 1305.58 5.78194 4.8706 0
M  V30 14291 H 1306.85 5.13253 5.86679 0
M  V30 14292 O 1311.11 -0.421827 1.55894 0
M  V30 14293 H 1311.8 -1.07487 1.61141 0
M  V30 END ATOM
M  V30 BEGIN BOND
M  V30 END BOND
M  V30 END CTAB
M  END
$$$$
