drugbank_target|Q8NFA2 NADPH oxidase organizer 1 (DB05265)
 OpenBabel12092120143D

  0  0  0     0  0            999 V3000
M  V30 BEGIN CTAB
M  V30 COUNTS 5815 5887 0 0 0
M  V30 BEGIN ATOM
M  V30 1 H -0.908 1.98254 -0.117106 0
M  V30 2 N 0 1.576 0 0
M  V30 3 C 0.933 2.03868 1.02534 0
M  V30 4 C 1.911 0.928543 1.3348 0
M  V30 5 O 3.095 1.19667 1.45644 0
M  V30 6 C 0.222 2.43627 2.35294 0
M  V30 7 C -0.732 3.65373 2.2001 0
M  V30 8 S 0.101 5.13292 1.52614 0
M  V30 9 C 1.257 5.56322 2.86805 0
M  V30 10 H 1.49 2.90518 0.631377 0
M  V30 11 H -0.977 1.52953 0.210867 0
M  V30 12 H 0.981 2.67203 3.11629 0
M  V30 13 H -0.358 1.57376 2.7183 0
M  V30 14 H -1.165 3.90944 3.18086 0
M  V30 15 H -1.563 3.418 1.51819 0
M  V30 16 H 0.729 5.58782 3.83104 0
M  V30 17 H 1.672 6.56266 2.65933 0
M  V30 18 H 2.08 4.83886 2.90714 0
M  V30 19 N 1.4781 -0.272755 1.55222 0
M  V30 20 C 2.4411 -1.32041 1.87344 0
M  V30 21 C 3.4411 -1.42342 0.74803 0
M  V30 22 O 4.6311 -1.41488 1.0162 0
M  V30 23 C 1.7631 -2.70173 2.07893 0
M  V30 24 H 2.9561 -1.04789 2.80997 0
M  V30 25 H 0.5091 -0.51083 1.47717 0
M  V30 26 H 1.2441 -3.02605 1.16622 0
M  V30 27 H 1.0291 -2.64082 2.89833 0
M  V30 28 H 2.5191 -3.45869 2.34017 0
M  V30 29 N 2.9562 -1.48159 -0.537278 0
M  V30 30 C 4.2042 -1.55497 -1.29094 0
M  V30 31 C 4.5252 -0.227454 -1.93669 0
M  V30 32 O 3.7952 0.750386 -1.80959 0
M  V30 33 H 2.3752 -0.572832 -0.47945 0
M  V30 34 H 5.0372 -1.84579 -0.625818 0
M  V30 35 H 4.1332 -2.33216 -2.07405 0
M  V30 36 N 4.4343 0.785586 -1.36625 0
M  V30 37 C 5.8453 1.36101 -1.27803 0
M  V30 38 C 6.1963 1.96035 0.0804875 0
M  V30 39 O 5.3213 1.92834 0.982042 0
M  V30 40 C 5.9163 2.47442 -2.31426 0
M  V30 41 C 4.4753 3.00789 -2.26281 0
M  V30 42 C 3.6223 1.73896 -2.15999 0
M  V30 43 H 6.5733 0.586928 -1.47448 0
M  V30 44 H 6.5943 3.2656 -1.95291 0
M  V30 45 H 6.1063 2.03791 -3.30289 0
M  V30 46 H 4.2073 3.48851 -1.30896 0
M  V30 47 H 4.3203 3.57343 -3.19128 0
M  V30 48 H 2.6843 1.9628 -1.62316 0
M  V30 49 H 3.4673 1.32368 -3.16755 0
M  V30 50 N 5.9124 1.20967 1.01018 0
M  V30 51 C 7.3284 0.965905 1.27053 0
M  V30 52 C 7.5284 -0.350785 1.98423 0
M  V30 53 O 6.5844 -1.07773 2.28344 0
M  V30 54 C 7.8974 2.15294 2.09926 0
M  V30 55 C 9.4454 2.19463 2.23171 0
M  V30 56 C 9.9204 3.3767 3.09424 0
M  V30 57 N 11.4114 3.37724 3.17012 0
M  V30 58 C 12.1464 4.25837 3.83993 0
M  V30 59 N 11.6424 5.24138 4.53047 0
M  V30 60 N 13.4354 4.1366 3.80581 0
M  V30 61 H 5.5864 2.0565 0.531194 0
M  V30 62 H 7.8494 0.90024 0.297106 0
M  V30 63 H 7.5554 3.10684 1.64828 0
M  V30 64 H 7.4294 2.13923 3.10672 0
M  V30 65 H 9.8164 1.24632 2.6749 0
M  V30 66 H 9.8974 2.2488 1.21912 0
M  V30 67 H 9.5414 4.32791 2.65808 0
M  V30 68 H 9.4714 3.29491 4.10784 0
M  V30 69 H 11.9624 2.6658 2.6785 0
M  V30 70 H 12.2754 5.87684 5.01844 0
M  V30 71 H 10.6204 5.28068 4.5185 0
M  V30 72 H 13.8114 3.36127 3.25785 0
M  V30 73 H 13.9844 4.82538 4.32505 0
M  V30 74 N 7.3905 -1.2043 1.01659 0
M  V30 75 C 8.6205 -1.93496 0.724081 0
M  V30 76 C 9.0285 -1.74998 -0.71918 0
M  V30 77 O 8.3715 -1.06118 -1.49949 0
M  V30 78 C 8.4335 -3.45886 0.97994 0
M  V30 79 C 8.0975 -3.88145 2.41232 0
M  V30 80 C 9.0945 -3.93907 3.39313 0
M  V30 81 C 6.7795 -4.20134 2.75305 0
M  V30 82 C 8.7735 -4.31069 4.6953 0
M  V30 83 C 6.4605 -4.56971 4.05735 0
M  V30 84 C 7.4585 -4.62411 5.02658 0
M  V30 85 O 7.1465 -4.98403 6.30754 0
M  V30 86 H 6.8785 -0.621824 0.265162 0
M  V30 87 H 9.4325 -1.53867 1.36066 0
M  V30 88 H 7.6625 -3.85639 0.286198 0
M  V30 89 H 9.3515 -4.0018 0.679021 0
M  V30 90 H 10.1175 -3.69357 3.14325 0
M  V30 91 H 5.9965 -4.1509 2.00551 0
M  V30 92 H 9.5405 -4.3523 5.45179 0
M  V30 93 H 5.4375 -4.80977 4.30502 0
M  V30 94 H 6.2055 -5.16395 6.35042 0
M  V30 95 N 8.8686 -0.792821 -1.36206 0
M  V30 96 C 10.2796 -0.429513 -1.81692 0
M  V30 97 C 10.6306 1.04695 -1.65932 0
M  V30 98 O 9.7556 1.81256 -1.18218 0
M  V30 99 C 10.3506 -0.772831 -3.29868 0
M  V30 100 C 8.9096 -0.462307 -3.7355 0
M  V30 101 C 8.0566 -1.00569 -2.5842 0
M  V30 102 H 11.0076 -0.985672 -1.24379 0
M  V30 103 H 11.0286 -0.0651928 -3.80444 0
M  V30 104 H 10.5406 -1.84747 -3.41307 0
M  V30 105 H 8.6416 0.604158 -3.67669 0
M  V30 106 H 8.7546 -0.985299 -4.68859 0
M  V30 107 H 7.1186 -0.428734 -2.51066 0
M  V30 108 H 7.9016 -2.08616 -2.72643 0
M  V30 109 N 10.3467 1.47872 -0.545128 0
M  V30 110 C 11.5927 2.02793 -0.0166104 0
M  V30 111 C 11.9257 1.41987 1.32489 0
M  V30 112 O 11.2007 0.571045 1.85928 0
M  V30 113 C 11.4837 3.59989 0.0893294 0
M  V30 114 C 11.3367 4.3125 -1.27841 0
M  V30 115 C 12.6557 4.32606 0.808724 0
M  V30 116 H 9.7747 0.736962 -0.00751035 0
M  V30 117 H 12.4167 1.76433 -0.705085 0
M  V30 118 H 10.5667 3.82579 0.675681 0
M  V30 119 H 12.2387 4.20035 -1.90704 0
M  V30 120 H 10.4817 3.92076 -1.85632 0
M  V30 121 H 11.1527 5.39736 -1.15713 0
M  V30 122 H 13.6287 4.14936 0.310992 0
M  V30 123 H 12.5047 5.42251 0.851782 0
M  V30 124 H 12.7657 4.00963 1.86229 0
M  V30 125 N 11.8248 0.280983 1.55075 0
M  V30 126 C 13.0498 -0.340154 2.04592 0
M  V30 127 C 13.4748 -1.48246 1.15779 0
M  V30 128 O 12.8328 -1.80614 0.15761 0
M  V30 129 C 12.8808 -0.793104 3.5177 0
M  V30 130 O 11.9848 -1.89981 3.66034 0
M  V30 131 H 11.3258 -0.0694289 0.66036 0
M  V30 132 H 13.8558 0.416993 2.00306 0
M  V30 133 H 13.8658 -1.08729 3.93245 0
M  V30 134 H 12.5408 0.0426163 4.15878 0
M  V30 135 H 11.1178 -1.60771 3.36463 0
M  V30 136 N 13.3029 -1.57598 0.00835791 0
M  V30 137 C 14.5489 -1.91211 -0.675732 0
M  V30 138 C 14.8819 -0.883139 -1.72958 0
M  V30 139 O 14.1569 0.097016 -1.94258 0
M  V30 140 C 14.4399 -3.35379 -1.31123 0
M  V30 141 C 14.2929 -4.48999 -0.268356 0
M  V30 142 C 15.6119 -3.7912 -2.23508 0
M  V30 143 H 12.7309 -0.695374 -0.244179 0
M  V30 144 H 15.3729 -1.89901 0.0613655 0
M  V30 145 H 13.5229 -3.36626 -1.93946 0
M  V30 146 H 15.1949 -4.59887 0.360844 0
M  V30 147 H 13.4379 -4.31873 0.408482 0
M  V30 148 H 14.1089 -5.46851 -0.752218 0
M  V30 149 H 16.5849 -3.79477 -1.70693 0
M  V30 150 H 15.4609 -4.80729 -2.64936 0
M  V30 151 H 15.7219 -3.13455 -3.11766 0
M  V30 152 N 14.781 0.264519 -1.55364 0
M  V30 153 C 15.713 1.34965 -1.85248 0
M  V30 154 C 16.726 1.45136 -0.737525 0
M  V30 155 O 17.915 1.46801 -1.01547 0
M  V30 156 C 15.015 2.73008 -2.00797 0
M  V30 157 C 14.188 2.85324 -3.31525 0
M  V30 158 C 13.247 4.04097 -3.37034 0
M  V30 159 O 12.273 3.94455 -4.10358 0
M  V30 160 N 13.475 5.16458 -2.65049 0
M  V30 161 H 16.24 1.09672 -2.78913 0
M  V30 162 H 13.801 0.454635 -1.55386 0
M  V30 163 H 15.793 3.50772 -2.01844 0
M  V30 164 H 14.363 2.91087 -1.1396 0
M  V30 165 H 13.583 1.94377 -3.42945 0
M  V30 166 H 14.871 2.9049 -4.17724 0
M  V30 167 H 14.269 5.27181 -2.05175 0
M  V30 168 H 12.826 5.92422 -2.71809 0
M  V30 169 N 16.2591 1.48442 0.529413 0
M  V30 170 C 17.5071 1.56179 1.28267 0
M  V30 171 C 17.8281 0.237721 1.93546 0
M  V30 172 O 17.0981 -0.740779 1.81354 0
M  V30 173 H 15.6781 0.575367 0.476405 0
M  V30 174 H 18.3401 1.84909 0.61602 0
M  V30 175 H 17.4361 2.34312 2.06165 0
M  V30 176 N 17.7372 -0.778329 1.37039 0
M  V30 177 C 18.7002 -1.87301 1.32102 0
M  V30 178 C 19.7002 -1.59198 0.226405 0
M  V30 179 O 20.8902 -1.67403 0.481861 0
M  V30 180 C 18.0222 -3.24309 1.05055 0
M  V30 181 H 19.2152 -1.93093 2.29467 0
M  V30 182 H 16.7682 -0.977358 1.21973 0
M  V30 183 H 17.5032 -3.24196 0.0819373 0
M  V30 184 H 17.2882 -3.46098 1.84279 0
M  V30 185 H 18.7782 -4.04382 1.04234 0
M  V30 186 N 19.2153 -1.21501 -1.00376 0
M  V30 187 C 20.1783 -0.976927 -2.07337 0
M  V30 188 C 21.1783 0.0525322 -1.60714 0
M  V30 189 O 22.3683 -0.184869 -1.73216 0
M  V30 190 C 19.5003 -0.473423 -3.37597 0
M  V30 191 H 20.6933 -1.92587 -2.29892 0
M  V30 192 H 18.2463 -1.03217 -1.17371 0
M  V30 193 H 18.9813 0.480379 -3.20722 0
M  V30 194 H 18.7663 -1.216 -3.72768 0
M  V30 195 H 20.2563 -0.32675 -4.1632 0
M  V30 196 N 20.6934 1.19889 -1.02296 0
M  V30 197 C 21.6234 2.25141 -0.619174 0
M  V30 198 C 22.6044 1.66051 0.368915 0
M  V30 199 O 23.7894 1.92546 0.252941 0
M  V30 200 C 20.9194 3.4728 0.0368783 0
M  V30 201 C 19.8734 4.19005 -0.872865 0
M  V30 202 C 19.1994 5.34637 -0.0822402 0
M  V30 203 C 20.4994 4.74452 -2.18387 0
M  V30 204 H 22.1934 2.59171 -1.49903 0
M  V30 205 H 19.7394 1.24579 -0.722222 0
M  V30 206 H 21.6924 4.20098 0.330958 0
M  V30 207 H 20.4164 3.12433 0.95149 0
M  V30 208 H 19.0754 3.48061 -1.15105 0
M  V30 209 H 18.7234 4.96034 0.83422 0
M  V30 210 H 18.4234 5.83557 -0.688149 0
M  V30 211 H 19.9474 6.10255 0.205238 0
M  V30 212 H 21.3614 5.39055 -1.95172 0
M  V30 213 H 19.7584 5.33834 -2.74119 0
M  V30 214 H 20.8284 3.92844 -2.84257 0
M  V30 215 N 22.1715 0.800033 1.35784 0
M  V30 216 C 23.4175 0.377901 1.99248 0
M  V30 217 C 23.7505 -1.05052 1.63333 0
M  V30 218 O 23.0255 -1.72768 0.893385 0
M  V30 219 C 23.3085 0.553922 3.55814 0
M  V30 220 C 23.1615 2.0268 4.01548 0
M  V30 221 C 24.4805 -0.0244802 4.40093 0
M  V30 222 H 21.5995 0.138782 0.723815 0
M  V30 223 H 24.2415 1.00835 1.61035 0
M  V30 224 H 22.3915 0.0172398 3.88496 0
M  V30 225 H 24.0635 2.62536 3.79305 0
M  V30 226 H 22.3065 2.5256 3.52698 0
M  V30 227 H 22.9775 2.10087 5.10458 0
M  V30 228 H 25.4535 0.433775 4.13833 0
M  V30 229 H 24.3295 0.128637 5.48749 0
M  V30 230 H 24.5905 -1.11758 4.27741 0
M  V30 231 N 23.6496 -1.47581 0.552962 0
M  V30 232 C 24.5816 -2.27997 -0.234533 0
M  V30 233 C 25.5946 -1.36753 -0.883321 0
M  V30 234 O 26.7836 -1.61612 -0.757889 0
M  V30 235 C 23.8836 -3.10879 -1.34935 0
M  V30 236 C 23.0566 -4.30056 -0.798158 0
M  V30 237 C 22.1156 -4.94567 -1.79694 0
M  V30 238 O 21.1416 -5.53087 -1.34474 0
M  V30 239 N 22.3436 -4.88878 -3.13015 0
M  V30 240 H 25.1086 -2.96222 0.455255 0
M  V30 241 H 22.6696 -1.57163 0.388761 0
M  V30 242 H 24.6616 -3.50903 -2.01616 0
M  V30 243 H 23.2316 -2.44924 -1.94244 0
M  V30 244 H 22.4516 -3.94174 0.0453079 0
M  V30 245 H 23.7396 -5.07152 -0.409173 0
M  V30 246 H 23.1376 -4.42526 -3.52402 0
M  V30 247 H 21.6946 -5.32934 -3.75266 0
M  V30 248 N 25.1277 -0.289203 -1.54924 0
M  V30 249 C 26.3767 0.324231 -1.99077 0
M  V30 250 C 26.6897 1.5591 -1.18117 0
M  V30 251 O 27.8957 2.24637 -1.52481 0
M  V30 252 C 26.3517 0.628209 -3.54375 0
M  V30 253 C 25.9597 -0.587647 -4.44129 0
M  V30 254 C 27.7037 1.20349 -4.07083 0
M  V30 255 C 25.6107 -0.257475 -5.90839 0
M  V30 256 H 24.5407 0.124924 -0.743579 0
M  V30 257 H 27.1917 -0.396063 -1.79175 0
M  V30 258 H 25.5737 1.40778 -3.70132 0
M  V30 259 H 26.7477 -1.36418 -4.40144 0
M  V30 260 H 25.0627 -1.08074 -4.0213 0
M  V30 261 H 27.6597 1.46456 -5.14252 0
M  V30 262 H 28.0027 2.14195 -3.56968 0
M  V30 263 H 28.5357 0.485889 -3.94821 0
M  V30 264 H 25.2747 -1.16419 -6.45079 0
M  V30 265 H 24.7947 0.482018 -5.9786 0
M  V30 266 H 26.4737 0.145238 -6.46837 0
M  V30 267 N 26.6058 1.57591 -0.0167156 0
M  V30 268 C 27.5528 2.09462 0.969251 0
M  V30 269 C 28.5228 0.99381 1.33089 0
M  V30 270 O 29.7078 1.26726 1.42636 0
M  V30 271 C 26.8478 2.61622 2.25051 0
M  V30 272 C 25.9608 3.85666 1.94642 0
M  V30 273 C 25.0958 4.26266 3.16972 0
M  V30 274 C 24.1348 5.43101 2.82326 0
M  V30 275 N 23.2718 5.78915 3.97243 0
M  V30 276 H 28.1118 2.93428 0.519997 0
M  V30 277 H 25.6488 1.45044 0.245087 0
M  V30 278 H 27.6068 2.89949 2.99976 0
M  V30 279 H 26.2368 1.80505 2.67615 0
M  V30 280 H 25.2888 3.64145 1.10013 0
M  V30 281 H 26.6008 4.70678 1.65117 0
M  V30 282 H 25.7548 4.55963 4.00228 0
M  V30 283 H 24.4938 3.39996 3.49648 0
M  V30 284 H 23.4988 5.1311 1.97479 0
M  V30 285 H 24.7238 6.3106 2.50879 0
M  V30 286 H 22.6698 4.95602 4.29785 0
M  V30 287 H 22.5868 6.58539 3.71299 0
M  V30 288 H 23.8548 6.13212 4.81239 0
M  V30 289 N 28.0839 -0.256276 1.55502 0
M  V30 290 C 29.4999 -0.604325 1.47716 0
M  V30 291 C 29.6999 -1.88763 0.705039 0
M  V30 292 O 28.7559 -2.51445 0.230613 0
M  V30 293 C 30.0689 -0.715756 2.92057 0
M  V30 294 C 31.6169 -0.808706 3.02372 0
M  V30 295 C 32.0919 -0.951777 4.48001 0
M  V30 296 N 33.5829 -1.01688 4.519 0
M  V30 297 C 34.3179 -1.14668 5.61817 0
M  V30 298 N 33.8139 -1.24261 6.81565 0
M  V30 299 N 35.6069 -1.1791 5.49594 0
M  V30 300 H 27.7579 0.586291 2.04148 0
M  V30 301 H 30.0209 0.201015 0.926443 0
M  V30 302 H 29.7269 0.157027 3.51349 0
M  V30 303 H 29.6009 -1.59071 3.42018 0
M  V30 304 H 31.9879 -1.67195 2.43166 0
M  V30 305 H 32.0689 0.0912063 2.55637 0
M  V30 306 H 31.7129 -0.0931291 5.07815 0
M  V30 307 H 31.6429 -1.86659 4.92408 0
M  V30 308 H 34.1339 -0.954468 3.65648 0
M  V30 309 H 34.4469 -1.34046 7.61086 0
M  V30 310 H 32.7919 -1.21236 6.84344 0
M  V30 311 H 35.9829 -1.10057 4.54978 0
M  V30 312 H 36.1559 -1.27681 6.35296 0
M  V30 313 N 29.562 -1.4872 -0.521534 0
M  V30 314 C 30.492 -1.66771 -1.63431 0
M  V30 315 C 31.473 -0.516499 -1.62069 0
M  V30 316 O 32.658 -0.750013 -1.79132 0
M  V30 317 C 29.788 -1.71515 -3.01993 0
M  V30 318 C 28.742 -2.86222 -3.18216 0
M  V30 319 C 28.068 -2.76061 -4.57924 0
M  V30 320 C 29.368 -4.27419 -3.00184 0
M  V30 321 H 31.062 -2.59932 -1.48579 0
M  V30 322 H 28.608 -1.25089 -0.713358 0
M  V30 323 H 30.561 -1.82731 -3.7972 0
M  V30 324 H 29.285 -0.749393 -3.17886 0
M  V30 325 H 27.944 -2.74575 -2.42908 0
M  V30 326 H 27.592 -1.77437 -4.70665 0
M  V30 327 H 27.292 -3.53037 -4.69722 0
M  V30 328 H 28.816 -2.89256 -5.37739 0
M  V30 329 H 30.23 -4.39855 -3.67697 0
M  V30 330 H 28.627 -5.05458 -3.2347 0
M  V30 331 H 29.697 -4.43293 -1.96518 0
M  V30 332 N 31.0401 0.771051 -1.3745 0
M  V30 333 C 31.9721 1.89352 -1.29146 0
M  V30 334 C 32.9851 1.61477 -0.207124 0
M  V30 335 O 34.1741 1.72382 -0.463324 0
M  V30 336 C 31.2741 3.24596 -0.974195 0
M  V30 337 C 30.4471 3.80111 -2.16413 0
M  V30 338 C 29.5061 4.93832 -1.81703 0
M  V30 339 O 28.5321 5.09382 -2.54006 0
M  V30 340 N 29.7341 5.75483 -0.761573 0
M  V30 341 H 32.4991 1.96991 -2.25864 0
M  V30 342 H 30.0601 0.950191 -1.31084 0
M  V30 343 H 32.0521 3.98193 -0.722828 0
M  V30 344 H 30.6221 3.12454 -0.0955527 0
M  V30 345 H 29.8421 2.98284 -2.57721 0
M  V30 346 H 31.1301 4.13932 -2.95867 0
M  V30 347 H 30.5281 5.65469 -0.161609 0
M  V30 348 H 29.0851 6.49302 -0.570064 0
M  V30 349 N 32.5182 1.22032 0.997298 0
M  V30 350 C 33.7462 1.06841 1.7718 0
M  V30 351 C 34.1612 -0.381325 1.84909 0
M  V30 352 O 33.5182 -1.26437 1.31605 0
M  V30 353 C 33.5692 1.66814 3.20711 0
M  V30 354 O 33.2902 3.06116 3.13408 0
M  V30 355 C 34.7912 1.56838 4.14628 0
M  V30 356 H 32.0112 0.374782 0.556578 0
M  V30 357 H 34.5552 1.61532 1.2541 0
M  V30 358 H 32.7102 1.16196 3.69564 0
M  V30 359 H 33.1242 3.34926 4.0364 0
M  V30 360 H 34.5982 2.03532 5.13107 0
M  V30 361 H 35.0752 0.524155 4.36061 0
M  V30 362 H 35.6812 2.06741 3.7167 0
M  V30 363 N 33.9963 -1.19345 1.0293 0
M  V30 364 C 35.2433 -1.89038 0.726008 0
M  V30 365 C 35.5713 -1.79649 -0.745427 0
M  V30 366 O 34.8263 -1.18354 -1.55855 0
M  V30 367 C 35.1253 -3.39292 1.12319 0
M  V30 368 C 34.7913 -3.68885 2.59297 0
M  V30 369 C 33.4533 -3.76671 2.99453 0
M  V30 370 C 35.8053 -3.82178 3.54386 0
M  V30 371 C 33.1333 -3.9522 4.33611 0
M  V30 372 C 35.4853 -4.0224 4.88248 0
M  V30 373 C 34.1493 -4.08259 5.28092 0
M  V30 374 H 33.4193 -0.691739 0.265665 0
M  V30 375 H 36.0663 -1.41328 1.29223 0
M  V30 376 H 34.3713 -3.88903 0.475584 0
M  V30 377 H 36.0683 -3.91536 0.866037 0
M  V30 378 H 32.6583 -3.63433 2.27189 0
M  V30 379 H 36.8423 -3.75505 3.24514 0
M  V30 380 H 32.0983 -3.98119 4.64016 0
M  V30 381 H 36.2723 -4.11468 5.61843 0
M  V30 382 H 33.8993 -4.22384 6.32057 0
M  V30 383 N 35.4744 -0.807222 -1.35358 0
M  V30 384 C 36.4374 -0.223665 -2.28106 0
M  V30 385 C 37.4374 0.589354 -1.4961 0
M  V30 386 O 38.6274 0.407745 -1.69361 0
M  V30 387 C 35.7594 0.688149 -3.33882 0
M  V30 388 H 36.9524 -1.04169 -2.81227 0
M  V30 389 H 34.5054 -0.577921 -1.45223 0
M  V30 390 H 35.2404 1.52984 -2.85948 0
M  V30 391 H 35.0254 0.10687 -3.91954 0
M  V30 392 H 36.5154 1.09075 -4.03104 0
M  V30 393 N 36.9525 1.47285 -0.560781 0
M  V30 394 C 38.1995 2.02464 -0.038062 0
M  V30 395 C 38.5275 1.43474 1.31322 0
M  V30 396 O 37.7825 0.581311 1.86867 0
M  V30 397 C 38.0815 3.57258 0.100784 0
M  V30 398 C 37.7475 4.35184 -1.18007 0
M  V30 399 C 36.4095 4.56194 -1.53103 0
M  V30 400 C 38.7615 4.80098 -2.02867 0
M  V30 401 C 36.0895 5.19367 -2.729 0
M  V30 402 C 38.4415 5.44593 -3.21871 0
M  V30 403 C 37.1055 5.63835 -3.57276 0
M  V30 404 H 36.3755 0.740869 -0.0139279 0
M  V30 405 H 39.0225 1.76916 -0.733012 0
M  V30 406 H 37.3275 3.81819 0.878724 0
M  V30 407 H 39.0245 3.97606 0.520639 0
M  V30 408 H 35.6145 4.19113 -0.8968 0
M  V30 409 H 39.7985 4.63642 -1.7706 0
M  V30 410 H 35.0545 5.32459 -3.00496 0
M  V30 411 H 39.2285 5.78358 -3.87911 0
M  V30 412 H 36.8555 6.12557 -4.50197 0
M  V30 413 N 38.4306 0.297415 1.54768 0
M  V30 414 C 39.6556 -0.318435 2.04941 0
M  V30 415 C 40.0806 -1.4701 1.17345 0
M  V30 416 O 39.4386 -1.80436 0.176758 0
M  V30 417 C 39.4866 -0.755749 3.52592 0
M  V30 418 O 38.5906 -1.86088 3.68028 0
M  V30 419 H 37.9316 -0.062421 0.661059 0
M  V30 420 H 40.4616 0.438215 1.99852 0
M  V30 421 H 40.4716 -1.04552 3.94376 0
M  V30 422 H 39.1466 0.0867233 4.1581 0
M  V30 423 H 37.7236 -1.57193 3.38149 0
M  V30 424 N 39.9087 -1.5758 0.0250728 0
M  V30 425 C 41.1547 -1.91917 -0.655413 0
M  V30 426 C 41.4877 -0.901433 -1.72011 0
M  V30 427 O 40.7627 0.0764069 -1.9435 0
M  V30 428 C 41.0457 -3.36751 -1.27558 0
M  V30 429 C 40.8987 -4.49258 -0.220719 0
M  V30 430 C 42.2177 -3.81469 -2.19475 0
M  V30 431 H 39.3367 -0.697925 -0.23679 0
M  V30 432 H 41.9787 -1.89825 0.0815036 0
M  V30 433 H 40.1287 -3.38664 -1.90365 0
M  V30 434 H 41.8007 -4.59478 0.409601 0
M  V30 435 H 40.0437 -4.31415 0.454264 0
M  V30 436 H 40.7147 -5.47618 -0.694175 0
M  V30 437 H 43.1907 -3.81266 -1.66659 0
M  V30 438 H 42.0667 -4.83512 -2.59822 0
M  V30 439 H 42.3277 -3.16744 -3.08424 0
M  V30 440 N 41.3868 0.248026 -1.55636 0
M  V30 441 C 42.8028 0.596483 -1.48035 0
M  V30 442 C 43.0028 1.88386 -0.715039 0
M  V30 443 O 42.0588 2.51319 -0.243944 0
M  V30 444 C 43.3718 0.700258 -2.92433 0
M  V30 445 C 44.9198 0.792659 -3.02797 0
M  V30 446 C 45.3948 0.928005 -4.485 0
M  V30 447 N 46.8858 0.992903 -4.52433 0
M  V30 448 C 47.6208 1.11687 -5.62418 0
M  V30 449 N 47.1168 1.20645 -6.82214 0
M  V30 450 N 48.9098 1.14994 -5.50212 0
M  V30 451 H 41.0608 -0.597109 -2.03834 0
M  V30 452 H 43.3238 -0.205925 -0.925364 0
M  V30 453 H 43.0298 -0.175658 -3.51261 0
M  V30 454 H 42.9038 1.57255 -3.42857 0
M  V30 455 H 45.2908 1.65903 -2.4405 0
M  V30 456 H 45.3718 -0.104762 -2.55585 0
M  V30 457 H 45.0158 0.0661971 -5.07857 0
M  V30 458 H 44.9458 1.84045 -4.93391 0
M  V30 459 H 47.4368 0.935064 -3.66149 0
M  V30 460 H 47.7498 1.30008 -7.61786 0
M  V30 461 H 46.0948 1.17605 -6.84977 0
M  V30 462 H 49.2858 1.07643 -4.55555 0
M  V30 463 H 49.4588 1.24311 -6.35965 0
M  V30 464 N 42.8649 1.48995 0.513639 0
M  V30 465 C 44.1109 1.59053 1.26783 0
M  V30 466 C 44.4659 0.268136 1.90522 0
M  V30 467 O 43.7589 -0.730534 1.77126 0
M  V30 468 C 43.9529 2.67756 2.36731 0
M  V30 469 C 43.7819 4.10437 1.83771 0
M  V30 470 C 42.5519 4.7738 1.65639 0
M  V30 471 C 44.7499 4.9608 1.35681 0
M  V30 472 N 42.7319 6.04419 1.07476 0
M  V30 473 C 44.1029 6.13496 0.895715 0
M  V30 474 C 46.1579 4.82177 1.24136 0
M  V30 475 C 44.8609 7.1854 0.3306 0
M  V30 476 C 46.8869 5.87358 0.690229 0
M  V30 477 C 46.2489 7.03993 0.239292 0
M  V30 478 H 42.3479 0.636463 0.454355 0
M  V30 479 H 44.9319 1.85948 0.577196 0
M  V30 480 H 43.1029 2.42655 3.03271 0
M  V30 481 H 44.8349 2.67406 3.0377 0
M  V30 482 H 41.5899 4.33974 1.8964 0
M  V30 483 H 42.0139 6.72214 0.803579 0
M  V30 484 H 46.6559 3.92329 1.57601 0
M  V30 485 H 44.3739 8.08098 -0.0163435 0
M  V30 486 H 47.9599 5.78658 0.603852 0
M  V30 487 H 46.8399 7.83992 -0.180526 0
M  V30 488 N 44.343 -0.763751 1.37857 0
M  V30 489 C 45.568 -1.55805 1.36893 0
M  V30 490 C 45.993 -1.88054 -0.0416135 0
M  V30 491 O 45.351 -1.49825 -1.02089 0
M  V30 492 C 45.399 -2.84012 2.22192 0
M  V30 493 O 44.503 -3.78732 1.63204 0
M  V30 494 H 43.844 -0.471638 0.46739 0
M  V30 495 H 46.374 -0.944657 1.81487 0
M  V30 496 H 46.384 -3.33037 2.35691 0
M  V30 497 H 45.059 -2.59869 3.24716 0
M  V30 498 H 43.636 -3.37402 1.58791 0
M  V30 499 N 45.8211 -1.22559 -0.990812 0
M  V30 500 C 47.0981 -0.959875 -1.70428 0
M  V30 501 C 47.4781 0.524455 -2.04481 0
M  V30 502 O 46.8261 1.49302 -1.72977 0
M  V30 503 C 47.0361 -1.85955 -2.95333 0
M  V30 504 C 48.3841 -2.11687 -3.68068 0
M  V30 505 O 49.4081 -1.8342 -3.05345 0
M  V30 506 O 48.2671 -2.59572 -4.80921 0
M  V30 507 H 45.3611 -0.361154 -0.743974 0
M  V30 508 H 47.9071 -1.33554 -1.04697 0
M  V30 509 H 46.6791 -2.86346 -2.66687 0
M  V30 510 H 46.3021 -1.4856 -3.68803 0
M  V30 511 N 47.2992 1.18797 -1.03562 0
M  V30 512 C 48.5472 1.88278 -0.734569 0
M  V30 513 C 48.8682 1.8043 0.739586 0
M  V30 514 O 48.1382 1.21925 1.53333 0
M  V30 515 H 46.7182 0.696991 -0.268725 0
M  V30 516 H 49.3802 1.44192 -1.31129 0
M  V30 517 H 48.4762 2.94443 -1.03489 0
M  V30 518 N 48.7773 0.814389 1.34928 0
M  V30 519 C 50.0023 0.410097 2.03305 0
M  V30 520 C 50.4273 -0.973464 1.60951 0
M  V30 521 O 49.7853 -1.63185 0.789964 0
M  V30 522 C 49.8333 0.51049 3.56968 0
M  V30 523 O 48.9373 -0.473035 4.09678 0
M  V30 524 H 48.2783 0.170088 0.641846 0
M  V30 525 H 50.8083 1.10244 1.72358 0
M  V30 526 H 50.8183 0.383135 4.06197 0
M  V30 527 H 49.4933 1.51963 3.87144 0
M  V30 528 H 48.0703 -0.305272 3.71648 0
M  V30 529 N 50.2554 -1.46986 0.568584 0
M  V30 530 C 51.5324 -1.95592 -0.0174074 0
M  V30 531 C 51.9124 -1.51124 -1.47393 0
M  V30 532 O 51.2604 -0.755329 -2.15655 0
M  V30 533 C 51.4704 -3.48719 0.139913 0
M  V30 534 C 52.8184 -4.246 0.000426376 0
M  V30 535 O 53.8424 -3.56135 0.0680316 0
M  V30 536 O 52.7014 -5.46302 -0.146988 0
M  V30 537 H 49.7954 -0.82498 -0.0577599 0
M  V30 538 H 52.3414 -1.57335 0.635909 0
M  V30 539 H 51.1134 -3.73927 1.15301 0
M  V30 540 H 50.7364 -3.93771 -0.550491 0
M  V30 541 N 51.7335 -0.305618 -1.54608 0
M  V30 542 C 52.9615 0.304775 -2.04643 0
M  V30 543 C 53.3765 1.47167 -1.18268 0
M  V30 544 O 52.7335 1.81296 -0.209328 0
M  V30 545 C 52.7845 0.756564 -3.53495 0
M  V30 546 O 52.5055 -0.36389 -4.36586 0
M  V30 547 C 54.0065 1.43163 -4.19546 0
M  V30 548 H 51.2265 0.0655481 -0.667791 0
M  V30 549 H 53.7705 -0.446592 -1.99564 0
M  V30 550 H 51.9255 1.45794 -3.58919 0
M  V30 551 H 52.3395 -0.0113121 -5.24499 0
M  V30 552 H 53.8135 1.69886 -5.25207 0
M  V30 553 H 54.2905 2.37318 -3.69563 0
M  V30 554 H 54.8965 0.773307 -4.18211 0
M  V30 555 N 53.2116 1.57565 -0.0334293 0
M  V30 556 C 54.4586 1.91978 0.644272 0
M  V30 557 C 54.7866 0.910231 1.71887 0
M  V30 558 O 54.0416 -0.0801961 1.95536 0
M  V30 559 C 54.3406 3.33112 1.29504 0
M  V30 560 C 54.0066 4.49537 0.350388 0
M  V30 561 C 52.6686 4.81115 0.0903974 0
M  V30 562 C 55.0206 5.20347 -0.298032 0
M  V30 563 C 52.3486 5.8086 -0.825746 0
M  V30 564 C 54.7006 6.2107 -1.20226 0
M  V30 565 C 53.3646 6.51088 -1.4711 0
M  V30 566 H 52.6346 0.702496 0.235756 0
M  V30 567 H 55.2816 1.91259 -0.0961176 0
M  V30 568 H 53.5866 3.30113 2.11028 0
M  V30 569 H 55.2836 3.57011 1.82603 0
M  V30 570 H 51.8736 4.24883 0.563205 0
M  V30 571 H 56.0576 4.96178 -0.110234 0
M  V30 572 H 51.3136 6.02461 -1.04169 0
M  V30 573 H 55.4876 6.75057 -1.71086 0
M  V30 574 H 53.1146 7.28193 -2.18264 0
M  V30 575 N 54.6897 -0.239769 1.55765 0
M  V30 576 C 55.9357 -0.968234 1.78194 0
M  V30 577 C 56.2687 -1.84701 0.599938 0
M  V30 578 O 55.5437 -1.9031 -0.401524 0
M  V30 579 C 55.8267 -1.8227 3.10564 0
M  V30 580 C 55.6797 -0.971633 4.3918 0
M  V30 581 C 56.9987 -2.80388 3.39221 0
M  V30 582 H 54.1177 -0.350572 0.648281 0
M  V30 583 H 56.7597 -0.238259 1.885 0
M  V30 584 H 54.9097 -2.44507 3.01908 0
M  V30 585 H 56.5817 -0.367408 4.59835 0
M  V30 586 H 54.8247 -0.276276 4.32919 0
M  V30 587 H 55.4957 -1.60346 5.28198 0
M  V30 588 H 57.9717 -2.28287 3.47885 0
M  V30 589 H 56.8477 -3.3729 4.33044 0
M  V30 590 H 57.1087 -3.57212 2.60484 0
M  V30 591 N 56.1678 -1.49265 -0.50573 0
M  V30 592 C 57.5838 -1.35923 -0.836486 0
M  V30 593 C 57.7838 -0.388704 -1.97715 0
M  V30 594 O 56.8398 0.181336 -2.51848 0
M  V30 595 C 58.1528 -2.76531 -1.18115 0
M  V30 596 C 59.7008 -2.85197 -1.28964 0
M  V30 597 C 60.1758 -4.26561 -1.66761 0
M  V30 598 N 61.6668 -4.2935 -1.73819 0
M  V30 599 C 62.4018 -5.35693 -2.045 0
M  V30 600 N 61.8978 -6.52287 -2.33438 0
M  V30 601 N 63.6908 -5.23105 -2.05711 0
M  V30 602 H 55.8418 -2.10965 0.246519 0
M  V30 603 H 58.1048 -0.9468 0.0476887 0
M  V30 604 H 57.8108 -3.49226 -0.416398 0
M  V30 605 H 57.6848 -3.11599 -2.1257 0
M  V30 606 H 60.0718 -2.12742 -2.04511 0
M  V30 607 H 60.1528 -2.53718 -0.325704 0
M  V30 608 H 59.7968 -4.99541 -0.917656 0
M  V30 609 H 59.7268 -4.55502 -2.64246 0
M  V30 610 H 62.2178 -3.4526 -1.53635 0
M  V30 611 H 62.5308 -7.29158 -2.56024 0
M  V30 612 H 60.8758 -6.55521 -2.30905 0
M  V30 613 H 64.0668 -4.31026 -1.82577 0
M  V30 614 H 64.2398 -6.06078 -2.29289 0
M  V30 615 N 57.6459 0.756429 -1.3826 0
M  V30 616 C 59.0619 1.0591 -1.19395 0
M  V30 617 C 59.2619 2.01459 -0.0406567 0
M  V30 618 O 58.3179 2.44909 0.614467 0
M  V30 619 C 59.6309 1.64191 -2.51916 0
M  V30 620 C 61.1789 1.76376 -2.58574 0
M  V30 621 C 61.6539 2.38069 -3.91264 0
M  V30 622 N 63.1449 2.45503 -3.92788 0
M  V30 623 C 63.8799 2.94126 -4.92217 0
M  V30 624 N 63.3759 3.42805 -6.02043 0
M  V30 625 N 65.1689 2.9314 -4.7961 0
M  V30 626 H 57.3199 0.122313 -2.12048 0
M  V30 627 H 59.5829 0.116892 -0.940766 0
M  V30 628 H 59.2889 1.01451 -3.3675 0
M  V30 629 H 59.1629 2.6329 -2.70108 0
M  V30 630 H 61.5499 2.38244 -1.74137 0
M  V30 631 H 61.6309 0.759894 -2.44252 0
M  V30 632 H 61.2749 1.76835 -4.76121 0
M  V30 633 H 61.2049 3.39091 -4.02895 0
M  V30 634 H 63.6959 2.1107 -3.13461 0
M  V30 635 H 64.0089 3.78354 -6.73846 0
M  V30 636 H 62.3539 3.4087 -6.05667 0
M  V30 637 H 65.5449 2.54419 -3.92923 0
M  V30 638 H 65.7179 3.30721 -5.5725 0
M  V30 639 N 59.124 1.23083 0.984299 0
M  V30 640 C 60.349 1.088 1.76571 0
M  V30 641 C 60.774 -0.356657 1.84688 0
M  V30 642 O 60.132 -1.25788 1.30565 0
M  V30 643 C 60.18 1.71371 3.17277 0
M  V30 644 O 59.284 0.973213 4.00752 0
M  V30 645 H 58.625 0.381599 0.543395 0
M  V30 646 H 61.155 1.63057 1.23587 0
M  V30 647 H 61.165 1.76449 3.67872 0
M  V30 648 H 59.84 2.76493 3.10684 0
M  V30 649 H 58.417 0.999078 3.59267 0
M  V30 650 N 60.6021 -1.18246 1.0419 0
M  V30 651 C 61.8481 -1.88793 0.75689 0
M  V30 652 C 62.2031 -1.78909 -0.707767 0
M  V30 653 O 61.4961 -1.1794 -1.50999 0
M  V30 654 C 61.6901 -3.38082 1.15911 0
M  V30 655 C 61.5191 -3.62496 2.66133 0
M  V30 656 C 60.2891 -3.7979 3.33298 0
M  V30 657 C 62.4871 -3.62976 3.64353 0
M  V30 658 N 60.4691 -3.91955 4.72487 0
M  V30 659 C 61.8401 -3.80869 4.89222 0
M  V30 660 C 63.8951 -3.46071 3.57965 0
M  V30 661 C 62.5981 -3.83608 6.08471 0
M  V30 662 C 64.6241 -3.50093 4.76643 0
M  V30 663 C 63.9861 -3.68484 6.00332 0
M  V30 664 H 60.0851 -0.709406 0.32904 0
M  V30 665 H 62.6691 -1.42022 1.33183 0
M  V30 666 H 60.8401 -3.83544 0.612238 0
M  V30 667 H 62.5721 -3.96202 0.824989 0
M  V30 668 H 59.3271 -3.79224 2.83701 0
M  V30 669 H 59.7511 -4.01857 5.44831 0
M  V30 670 H 64.3931 -3.30797 2.63311 0
M  V30 671 H 62.1111 -3.97669 7.0348 0
M  V30 672 H 65.6971 -3.38285 4.73344 0
M  V30 673 H 64.5771 -3.71488 6.90627 0
M  V30 674 N 62.0802 -0.821533 -1.34494 0
M  V30 675 C 63.3572 -0.33159 -1.92769 0
M  V30 676 C 63.7372 1.18088 -1.74981 0
M  V30 677 O 63.0852 1.98733 -1.12772 0
M  V30 678 C 63.2952 -0.759398 -3.40638 0
M  V30 679 C 64.6432 -0.757433 -4.1779 0
M  V30 680 O 65.6672 -0.70189 -3.49216 0
M  V30 681 O 64.5262 -0.829361 -5.4017 0
M  V30 682 H 61.6202 -0.0902502 -0.822061 0
M  V30 683 H 64.1662 -0.906231 -1.43477 0
M  V30 684 H 62.9382 -1.8012 -3.47379 0
M  V30 685 H 62.5612 -0.160378 -3.97276 0
M  V30 686 N 63.5583 1.46682 -0.576371 0
M  V30 687 C 64.4683 2.34032 0.163141 0
M  V30 688 C 65.4843 1.49367 0.892501 0
M  V30 689 O 66.6603 1.82252 0.857106 0
M  V30 690 C 63.7253 3.26435 1.16795 0
M  V30 691 C 62.7863 4.26998 0.443944 0
M  V30 692 C 62.0193 5.14986 1.40088 0
M  V30 693 O 62.2423 5.05785 2.637 0
M  V30 694 O 61.1763 5.94906 0.914917 0
M  V30 695 H 65.0023 2.98607 -0.55388 0
M  V30 696 H 62.5873 1.45554 -0.336821 0
M  V30 697 H 64.4693 3.83459 1.74748 0
M  V30 698 H 63.1443 2.64465 1.86655 0
M  V30 699 H 62.0513 3.7368 -0.177271 0
M  V30 700 H 63.3843 4.91736 -0.213566 0
M  V30 701 N 65.0364 0.313813 1.54444 0
M  V30 702 C 66.2834 -0.291675 2.00388 0
M  V30 703 C 66.6114 -1.52904 1.2021 0
M  V30 704 O 65.8664 -1.93833 0.269707 0
M  V30 705 C 66.1654 -0.680386 3.50864 0
M  V30 706 C 65.8314 0.456699 4.48581 0
M  V30 707 C 64.4934 0.768824 4.75018 0
M  V30 708 C 66.8454 1.22098 5.06697 0
M  V30 709 C 64.1734 1.84812 5.56831 0
M  V30 710 C 66.5254 2.29029 5.89685 0
M  V30 711 C 65.1894 2.60834 6.14428 0
M  V30 712 H 64.4594 -0.106732 0.733273 0
M  V30 713 H 67.1064 0.43557 1.86481 0
M  V30 714 H 65.4114 -1.48791 3.62448 0
M  V30 715 H 67.1084 -1.16026 3.83847 0
M  V30 716 H 63.6984 0.203337 4.28117 0
M  V30 717 H 67.8824 0.993096 4.86263 0
M  V30 718 H 63.1384 2.09912 5.74236 0
M  V30 719 H 67.3124 2.887 6.33739 0
M  V30 720 H 64.9394 3.44596 6.77612 0
M  V30 721 N 66.5145 -1.57545 0.0417849 0
M  V30 722 C 67.9305 -1.56467 -0.314704 0
M  V30 723 C 68.1305 -1.04859 -1.72066 0
M  V30 724 O 67.1865 -0.700983 -2.42575 0
M  V30 725 C 68.4995 -3.00317 -0.15174 0
M  V30 726 C 70.0475 -3.12201 -0.223553 0
M  V30 727 C 70.5225 -4.57913 -0.0892295 0
M  V30 728 N 72.0135 -4.6297 -0.145808 0
M  V30 729 C 72.7485 -5.73362 -0.0658459 0
M  V30 730 N 72.2445 -6.92769 0.0659282 0
M  V30 731 N 74.0375 -5.6197 -0.12075 0
M  V30 732 H 66.1885 -1.89416 0.961014 0
M  V30 733 H 68.4515 -0.871862 0.372237 0
M  V30 734 H 68.1575 -3.42073 0.817254 0
M  V30 735 H 68.0315 -3.65892 -0.916692 0
M  V30 736 H 70.4185 -2.70349 -1.18301 0
M  V30 737 H 70.4995 -2.49323 0.571994 0
M  V30 738 H 70.1435 -5.00448 0.866867 0
M  V30 739 H 70.0735 -5.18786 -0.903802 0
M  V30 740 H 72.5645 -3.7709 -0.247286 0
M  V30 741 H 72.8775 -7.72707 0.119905 0
M  V30 742 H 71.2225 -6.94927 0.100885 0
M  V30 743 H 74.4135 -4.67572 -0.222187 0
M  V30 744 H 74.5865 -6.47977 -0.0549735 0
M  V30 745 N 67.9926 0.231505 -1.5589 0
M  V30 746 C 68.9246 1.31006 -1.8807 0
M  V30 747 C 69.9376 1.43539 -0.768145 0
M  V30 748 O 71.1266 1.44614 -1.04638 0
M  V30 749 C 68.2266 2.68688 -2.06543 0
M  V30 750 C 67.3996 2.78228 -3.37502 0
M  V30 751 C 66.4586 3.96857 -3.4553 0
M  V30 752 O 65.4846 3.85662 -4.18633 0
M  V30 753 N 66.6866 5.1072 -2.75944 0
M  V30 754 H 69.4516 1.03731 -2.81176 0
M  V30 755 H 67.0126 0.421573 -1.56315 0
M  V30 756 H 69.0046 3.46412 -2.09239 0
M  V30 757 H 67.5746 2.88605 -1.20109 0
M  V30 758 H 66.7946 1.87059 -3.46991 0
M  V30 759 H 68.0826 2.81564 -4.23791 0
M  V30 760 H 67.4806 5.2271 -2.16311 0
M  V30 761 H 66.0376 5.86523 -2.84314 0
M  V30 762 N 69.4707 1.49531 0.497807 0
M  V30 763 C 70.4007 1.6935 1.60757 0
M  V30 764 C 71.3817 0.542218 1.61227 0
M  V30 765 O 72.5667 0.778417 1.77917 0
M  V30 766 C 69.6967 1.76298 2.99226 0
M  V30 767 C 68.6507 2.91248 3.13622 0
M  V30 768 C 67.9767 2.83312 4.53474 0
M  V30 769 C 69.2767 4.3214 2.93346 0
M  V30 770 H 70.9707 2.62263 1.44425 0
M  V30 771 H 68.5167 1.26208 0.693367 0
M  V30 772 H 70.4697 1.88749 3.76765 0
M  V30 773 H 69.1937 0.799871 3.16654 0
M  V30 774 H 67.8527 2.78404 2.38509 0
M  V30 775 H 67.5007 1.84902 4.67782 0
M  V30 776 H 67.2007 3.60465 4.64046 0
M  V30 777 H 68.7247 2.97775 5.33069 0
M  V30 778 H 70.1387 4.45649 3.60652 0
M  V30 779 H 68.5357 5.1054 3.15387 0
M  V30 780 H 69.6057 4.46363 1.89441 0
M  V30 781 N 70.9488 -0.749086 1.3866 0
M  V30 782 C 71.8958 -1.86291 1.36251 0
M  V30 783 C 72.8658 -1.64578 0.224347 0
M  V30 784 O 74.0508 -1.86181 0.417279 0
M  V30 785 C 71.1908 -3.23644 1.19786 0
M  V30 786 C 70.3038 -3.57158 2.43027 0
M  V30 787 C 69.4388 -4.83838 2.19258 0
M  V30 788 C 68.4778 -5.10152 3.38247 0
M  V30 789 N 67.6148 -6.28029 3.13884 0
M  V30 790 H 72.4548 -1.87685 2.3147 0
M  V30 791 H 69.9918 -0.917287 1.14997 0
M  V30 792 H 71.9498 -4.0291 1.08254 0
M  V30 793 H 70.5798 -3.21566 0.282031 0
M  V30 794 H 69.6318 -2.72701 2.65214 0
M  V30 795 H 70.9438 -3.7253 3.31697 0
M  V30 796 H 70.0978 -5.71057 2.04888 0
M  V30 797 H 68.8368 -4.70614 1.2796 0
M  V30 798 H 67.8418 -4.21401 3.53131 0
M  V30 799 H 69.0668 -5.25271 4.30427 0
M  V30 800 H 67.0128 -6.1612 2.25238 0
M  V30 801 H 66.9298 -6.43922 3.96106 0
M  V30 802 H 68.1978 -7.18124 3.03179 0
M  V30 803 N 72.4269 -1.23603 -0.977757 0
M  V30 804 C 73.3739 -1.01954 -2.07061 0
M  V30 805 C 74.3439 0.0638697 -1.65977 0
M  V30 806 O 75.5289 -0.0887624 -1.90593 0
M  V30 807 C 72.6689 -0.619658 -3.39491 0
M  V30 808 C 71.7819 -1.77547 -3.93829 0
M  V30 809 C 70.9169 -1.32212 -5.14484 0
M  V30 810 C 69.9559 -2.44852 -5.60994 0
M  V30 811 N 69.0929 -2.00456 -6.72876 0
M  V30 812 H 73.9329 -1.95495 -2.24913 0
M  V30 813 H 71.4699 -0.973861 -1.10247 0
M  V30 814 H 73.4279 -0.368898 -4.15566 0
M  V30 815 H 72.0579 0.278752 -3.21594 0
M  V30 816 H 71.1099 -2.14016 -3.14486 0
M  V30 817 H 72.4219 -2.62219 -4.24314 0
M  V30 818 H 71.5759 -1.02965 -5.97899 0
M  V30 819 H 70.3149 -0.445808 -4.85658 0
M  V30 820 H 69.3199 -2.74871 -4.76157 0
M  V30 821 H 70.5449 -3.33024 -5.91837 0
M  V30 822 H 68.4909 -1.15208 -6.45804 0
M  V30 823 H 68.4079 -2.78687 -7.02759 0
M  V30 824 H 69.6759 -1.7432 -7.59758 0
M  V30 825 N 73.905 1.17692 -1.04816 0
M  V30 826 C 75.133 1.91786 -0.776254 0
M  V30 827 C 75.548 1.76604 0.667577 0
M  V30 828 O 74.905 1.10067 1.45573 0
M  V30 829 C 74.956 3.42967 -1.14263 0
M  V30 830 O 74.677 3.57678 -2.52978 0
M  V30 831 C 76.178 4.34144 -0.896311 0
M  V30 832 H 73.398 0.608624 -0.282519 0
M  V30 833 H 75.942 1.49268 -1.39783 0
M  V30 834 H 74.097 3.83245 -0.565874 0
M  V30 835 H 74.511 4.51319 -2.67229 0
M  V30 836 H 75.985 5.38744 -1.20244 0
M  V30 837 H 76.462 4.38876 0.168636 0
M  V30 838 H 77.068 3.99574 -1.45672 0
M  V30 839 N 75.3831 0.828654 1.34056 0
M  V30 840 C 76.3131 0.269443 2.3194 0
M  V30 841 C 77.2941 -0.617247 1.58506 0
M  V30 842 O 78.4791 -0.542931 1.86456 0
M  V30 843 C 75.6091 -0.564793 3.42677 0
M  V30 844 C 74.5631 0.225241 4.27407 0
M  V30 845 C 73.8891 -0.7321 5.29664 0
M  V30 846 C 75.1891 1.43663 5.02154 0
M  V30 847 H 76.8831 1.08728 2.7896 0
M  V30 848 H 74.4291 0.524283 1.34117 0
M  V30 849 H 76.3821 -0.966233 4.10173 0
M  V30 850 H 75.1061 -1.41574 2.9432 0
M  V30 851 H 73.7651 0.608117 3.61521 0
M  V30 852 H 73.4131 -1.57916 4.77568 0
M  V30 853 H 73.1131 -0.20767 5.87233 0
M  V30 854 H 74.6371 -1.13128 6.00029 0
M  V30 855 H 76.0511 1.1089 5.62473 0
M  V30 856 H 74.4481 1.89711 5.69324 0
M  V30 857 H 75.5181 2.21181 4.31517 0
M  V30 858 N 76.8612 -1.46375 0.584142 0
M  V30 859 C 77.8082 -2.30323 -0.148286 0
M  V30 860 C 78.7782 -1.40703 -0.882713 0
M  V30 861 O 79.9632 -1.69651 -0.873099 0
M  V30 862 C 77.1032 -3.25196 -1.15507 0
M  V30 863 C 76.2162 -4.29915 -0.423943 0
M  V30 864 C 75.3512 -5.11914 -1.41838 0
M  V30 865 C 74.3902 -6.08381 -0.673736 0
M  V30 866 N 73.5272 -6.83242 -1.6163 0
M  V30 867 H 78.3672 -2.92427 0.573644 0
M  V30 868 H 75.9042 -1.44118 0.294703 0
M  V30 869 H 77.8622 -3.78646 -1.75166 0
M  V30 870 H 76.4922 -2.64898 -1.8447 0
M  V30 871 H 75.5442 -3.7931 0.287714 0
M  V30 872 H 76.8562 -4.98549 0.158128 0
M  V30 873 H 76.0102 -5.69648 -2.08773 0
M  V30 874 H 74.7492 -4.43243 -2.03438 0
M  V30 875 H 73.7542 -5.49799 0.00938483 0
M  V30 876 H 74.9792 -6.79071 -0.0631082 0
M  V30 877 H 72.9252 -6.1728 -2.22038 0
M  V30 878 H 72.8422 -7.48144 -1.08707 0
M  V30 879 H 74.1102 -7.45534 -2.27596 0
M  V30 880 N 78.3393 -0.321999 -1.54275 0
M  V30 881 C 79.2493 0.553631 -2.27974 0
M  V30 882 C 80.2653 1.13054 -1.32268 0
M  V30 883 O 81.4413 1.15084 -1.6528 0
M  V30 884 C 78.5063 1.69927 -3.02201 0
M  V30 885 C 77.5673 1.15433 -4.1349 0
M  V30 886 C 76.8003 2.24537 -4.84168 0
M  V30 887 O 77.0233 3.44852 -4.5435 0
M  V30 888 O 75.9573 1.90044 -5.7111 0
M  V30 889 H 79.7833 -0.0448345 -3.03667 0
M  V30 890 H 77.3683 -0.0877418 -1.49142 0
M  V30 891 H 79.2503 2.3663 -3.48689 0
M  V30 892 H 77.9253 2.28395 -2.29385 0
M  V30 893 H 76.8323 0.452436 -3.71354 0
M  V30 894 H 78.1653 0.614805 -4.88345 0
M  V30 895 N 79.8174 1.5752 -0.0501392 0
M  V30 896 C 81.0454 1.96963 0.633492 0
M  V30 897 C 81.4604 0.927631 1.6444 0
M  V30 898 O 80.8174 -0.0882665 1.82286 0
M  V30 899 C 80.8684 3.36487 1.32132 0
M  V30 900 O 80.5894 4.36693 0.350894 0
M  V30 901 C 82.0904 3.90682 2.09481 0
M  V30 902 H 79.3104 0.648244 0.173266 0
M  V30 903 H 81.8544 2.0417 -0.116134 0
M  V30 904 H 80.0094 3.30434 2.02218 0
M  V30 905 H 80.4234 5.17702 0.841735 0
M  V30 906 H 81.8974 4.90591 2.5303 0
M  V30 907 H 82.3744 3.26053 2.94255 0
M  V30 908 H 82.9804 4.00069 1.44307 0
M  V30 909 N 81.2955 -0.223234 1.56011 0
M  V30 910 C 82.5425 -0.947875 1.78946 0
M  V30 911 C 82.8705 -1.844 0.618608 0
M  V30 912 O 82.1255 -1.91629 -0.397093 0
M  V30 913 C 82.4245 -1.81948 3.0762 0
M  V30 914 C 82.0905 -1.07672 4.37856 0
M  V30 915 C 80.7525 -0.871544 4.73242 0
M  V30 916 C 83.1045 -0.552081 5.18268 0
M  V30 917 C 80.4325 -0.129791 5.86556 0
M  V30 918 C 82.7845 0.17632 6.32354 0
M  V30 919 C 81.4485 0.39277 6.66343 0
M  V30 920 H 80.7185 -0.346852 0.654809 0
M  V30 921 H 83.3655 -0.216171 1.90276 0
M  V30 922 H 81.6705 -2.61899 2.91404 0
M  V30 923 H 83.3675 -2.38227 3.22566 0
M  V30 924 H 79.9575 -1.24662 4.1007 0
M  V30 925 H 84.1415 -0.698076 4.91366 0
M  V30 926 H 79.3975 0.048153 6.11381 0
M  V30 927 H 83.5715 0.590367 6.93893 0
M  V30 928 H 81.1985 0.969466 7.53993 0
M  V30 929 N 82.7736 -1.49793 -0.48987 0
M  V30 930 C 84.1846 -1.52914 -1.07118 0
M  V30 931 C 84.5356 -0.321738 -1.93544 0
M  V30 932 O 83.6606 0.567338 -2.08831 0
M  V30 933 C 84.2556 -2.771 -1.94938 0
M  V30 934 C 82.8146 -2.82963 -2.48212 0
M  V30 935 C 81.9616 -2.46972 -1.26096 0
M  V30 936 H 84.9126 -1.56329 -0.273289 0
M  V30 937 H 84.9336 -2.57892 -2.79771 0
M  V30 938 H 84.4456 -3.64959 -1.32009 0
M  V30 939 H 82.5466 -1.99411 -3.14748 0
M  V30 940 H 82.6596 -3.85406 -2.84603 0
M  V30 941 H 81.0236 -1.98994 -1.58976 0
M  V30 942 H 81.8066 -3.37118 -0.648581 0
M  V30 943 N 84.2517 0.741722 -1.39055 0
M  V30 944 C 85.4977 1.50336 -1.36113 0
M  V30 945 C 85.8307 1.94148 0.0450796 0
M  V30 946 O 85.1057 1.66301 1.00868 0
M  V30 947 C 85.3887 2.74773 -2.32749 0
M  V30 948 C 85.2417 2.37023 -3.82283 0
M  V30 949 C 86.5607 3.76846 -2.27322 0
M  V30 950 H 83.6797 0.545351 -0.495743 0
M  V30 951 H 86.3217 0.848624 -1.69995 0
M  V30 952 H 84.4717 3.30639 -2.03986 0
M  V30 953 H 86.1437 1.8684 -4.21768 0
M  V30 954 H 84.3867 1.69334 -3.99385 0
M  V30 955 H 85.0577 3.26104 -4.45376 0
M  V30 956 H 87.5337 3.30548 -2.5274 0
M  V30 957 H 86.4097 4.6159 -2.97028 0
M  V30 958 H 86.6707 4.23286 -1.27599 0
M  V30 959 N 85.7298 1.2412 0.971189 0
M  V30 960 C 86.6398 1.04747 2.09917 0
M  V30 961 C 87.6558 -0.0107162 1.73997 0
M  V30 962 O 88.8318 0.186714 2.00533 0
M  V30 963 C 85.8968 0.650828 3.40537 0
M  V30 964 C 84.9578 1.7851 3.90426 0
M  V30 965 C 84.1908 1.40729 5.14812 0
M  V30 966 O 84.4138 0.29557 5.69634 0
M  V30 967 O 83.3478 2.23168 5.58999 0
M  V30 968 H 87.1738 1.99304 2.29154 0
M  V30 969 H 84.7588 1.02908 1.08307 0
M  V30 970 H 86.6408 0.440992 4.19086 0
M  V30 971 H 85.3158 -0.265649 3.22608 0
M  V30 972 H 84.2228 2.04966 3.12953 0
M  V30 973 H 85.5558 2.68023 4.12825 0
M  V30 974 N 87.2079 -1.17134 1.05439 0
M  V30 975 C 88.1709 -2.19439 0.661764 0
M  V30 976 C 89.1709 -1.58199 -0.288042 0
M  V30 977 O 90.3609 -1.74053 -0.0715803 0
M  V30 978 C 87.4929 -3.40889 -0.0276209 0
M  V30 979 H 88.6859 -2.55688 1.56728 0
M  V30 980 H 86.2389 -1.31259 0.848567 0
M  V30 981 H 86.9739 -3.10187 -0.94629 0
M  V30 982 H 86.7589 -3.86586 0.655238 0
M  V30 983 H 88.2489 -4.16603 -0.288342 0
M  V30 984 N 88.686 -0.835752 -1.33615 0
M  V30 985 C 89.934 -0.429109 -1.97492 0
M  V30 986 C 90.255 1.01433 -1.66543 0
M  V30 987 O 89.525 1.70611 -0.962744 0
M  V30 988 H 88.105 -0.155686 -0.730596 0
M  V30 989 H 90.767 -1.06802 -1.63031 0
M  V30 990 H 89.863 -0.55861 -3.0706 0
M  V30 991 N 90.1641 1.46063 -0.591896 0
M  V30 992 C 91.0941 2.33172 0.123673 0
M  V30 993 C 92.0751 1.45897 0.87453 0
M  V30 994 O 93.2601 1.74698 0.848181 0
M  V30 995 C 90.3901 3.28336 1.13194 0
M  V30 996 C 89.3441 4.25124 0.495324 0
M  V30 997 C 88.6701 5.09863 1.61071 0
M  V30 998 C 89.9701 5.19143 -0.573425 0
M  V30 999 H 91.6641 2.93252 -0.603646 0
M  V30 1000 H 89.2101 1.41014 -0.291741 0
M  V30 1001 H 91.1631 3.88137 1.64097 0
M  V30 1002 H 89.8871 2.66383 1.88965 0
M  V30 1003 H 88.5461 3.66599 0.00729452 0
M  V30 1004 H 88.1941 4.44288 2.35832 0
M  V30 1005 H 87.8941 5.75417 1.19035 0
M  V30 1006 H 89.4181 5.72529 2.12233 0
M  V30 1007 H 90.8321 5.73106 -0.1491 0
M  V30 1008 H 89.2291 5.93089 -0.914636 0
M  V30 1009 H 90.2991 4.62519 -1.45617 0
M  V30 1010 N 91.6422 0.330177 1.54103 0
M  V30 1011 C 92.5722 -0.525353 2.27513 0
M  V30 1012 C 93.5532 -1.11383 1.2856 0
M  V30 1013 O 94.7382 -1.13773 1.57383 0
M  V30 1014 C 91.8682 -1.6831 3.03791 0
M  V30 1015 C 90.8222 -1.2236 4.10137 0
M  V30 1016 C 90.1482 -2.46882 4.74293 0
M  V30 1017 C 91.4482 -0.333697 5.21233 0
M  V30 1018 H 93.1422 0.087013 2.99274 0
M  V30 1019 H 90.6882 0.0432893 1.43935 0
M  V30 1020 H 92.6412 -2.28795 3.5388 0
M  V30 1021 H 91.3652 -2.32216 2.29659 0
M  V30 1022 H 90.0242 -0.64165 3.60941 0
M  V30 1023 H 89.6722 -3.09165 3.96769 0
M  V30 1024 H 89.3722 -2.16825 5.46133 0
M  V30 1025 H 90.8962 -3.08117 5.27159 0
M  V30 1026 H 92.3102 -0.845013 5.67038 0
M  V30 1027 H 90.7072 -0.125612 5.99969 0
M  V30 1028 H 91.7772 0.633724 4.80741 0
M  V30 1029 N 93.1203 -1.57491 0.0584922 0
M  V30 1030 C 94.5363 -1.56792 -0.298091 0
M  V30 1031 C 94.7363 -1.06679 -1.70944 0
M  V30 1032 O 93.7923 -0.726672 -2.41818 0
M  V30 1033 C 95.1053 -3.00461 -0.119879 0
M  V30 1034 C 96.6533 -3.1242 -0.190428 0
M  V30 1035 C 97.1283 -4.57982 -0.0406567 0
M  V30 1036 N 98.6193 -4.63099 -0.0966958 0
M  V30 1037 C 99.3543 -5.734 -0.00502943 0
M  V30 1038 N 98.8503 -6.9266 0.139402 0
M  V30 1039 N 100.643 -5.62067 -0.0611391 0
M  V30 1040 H 92.7943 -1.88386 0.98105 0
M  V30 1041 H 95.0573 -0.867865 0.381463 0
M  V30 1042 H 94.7633 -3.41187 0.85349 0
M  V30 1043 H 94.6373 -3.66843 -0.877833 0
M  V30 1044 H 97.0243 -2.71589 -1.15427 0
M  V30 1045 H 97.1053 -2.48702 0.598405 0
M  V30 1046 H 96.7493 -4.995 0.919897 0
M  V30 1047 H 96.6793 -5.19715 -0.848727 0
M  V30 1048 H 99.1703 -3.77331 -0.207277 0
M  V30 1049 H 99.4833 -7.72536 0.201855 0
M  V30 1050 H 97.8283 -6.94781 0.174586 0
M  V30 1051 H 101.019 -4.67782 -0.172583 0
M  V30 1052 H 101.192 -6.47999 0.0137562 0
M  V30 1053 N 94.5984 0.214957 -1.56127 0
M  V30 1054 C 96.0144 0.564948 -1.49267 0
M  V30 1055 C 96.2144 1.86827 -0.754838 0
M  V30 1056 O 95.2704 2.50745 -0.297198 0
M  V30 1057 C 96.5834 0.638071 -2.93852 0
M  V30 1058 C 98.1314 0.728253 -3.0441 0
M  V30 1059 C 98.6064 0.832663 -4.50367 0
M  V30 1060 N 100.097 0.896712 -4.54437 0
M  V30 1061 C 100.832 0.997324 -5.6466 0
M  V30 1062 N 100.328 1.06147 -6.8462 0
M  V30 1063 N 102.121 1.03297 -5.52527 0
M  V30 1064 H 94.2724 -0.640211 -2.02522 0
M  V30 1065 H 96.5354 -0.225507 -0.920788 0
M  V30 1066 H 96.2414 -0.250126 -3.50809 0
M  V30 1067 H 96.1154 1.49947 -3.46115 0
M  V30 1068 H 98.5024 1.60689 -2.47514 0
M  V30 1069 H 98.5834 -0.158952 -2.55306 0
M  V30 1070 H 98.2274 -0.0415417 -5.07883 0
M  V30 1071 H 98.1574 1.73538 -4.97184 0
M  V30 1072 H 100.648 0.857188 -3.6805 0
M  V30 1073 H 100.961 1.1382 -7.64372 0
M  V30 1074 H 99.3064 1.03049 -6.87318 0
M  V30 1075 H 102.497 0.979558 -4.57736 0
M  V30 1076 H 102.67 1.10793 -6.38458 0
M  V30 1077 N 96.0765 1.50051 0.48192 0
M  V30 1078 C 97.3015 1.64508 1.26301 0
M  V30 1079 C 97.7265 0.323851 1.85291 0
M  V30 1080 O 97.0845 -0.710969 1.66778 0
M  V30 1081 C 97.1325 2.7305 2.35533 0
M  V30 1082 O 96.2365 2.3355 3.39895 0
M  V30 1083 H 95.5775 0.549978 0.372048 0
M  V30 1084 H 98.1075 1.9636 0.574786 0
M  V30 1085 H 98.1175 2.95799 2.8101 0
M  V30 1086 H 96.7925 3.68946 1.91967 0
M  V30 1087 H 95.3695 2.21205 3.00204 0
M  V30 1088 N 97.5546 -0.734337 1.39446 0
M  V30 1089 C 98.8316 -1.48579 1.27215 0
M  V30 1090 C 99.2116 -2.1077 -0.117968 0
M  V30 1091 O 98.5596 -1.98646 -1.12924 0
M  V30 1092 C 98.7696 -2.53667 2.39696 0
M  V30 1093 C 100.118 -3.20031 2.79044 0
M  V30 1094 O 101.142 -2.6398 2.39151 0
M  V30 1095 O 100.001 -4.21455 3.47905 0
M  V30 1096 H 97.0946 -0.659816 0.49857 0
M  V30 1097 H 99.6406 -0.768106 1.51322 0
M  V30 1098 H 98.4126 -2.06096 3.32626 0
M  V30 1099 H 98.0356 -3.32994 2.17258 0
M  V30 1100 N 99.0327 -1.24633 -0.964593 0
M  V30 1101 C 100.449 -1.01239 -1.2338 0
M  V30 1102 C 100.649 0.2769 -1.99588 0
M  V30 1103 O 99.7047 0.992241 -2.32187 0
M  V30 1104 C 101.018 -2.22937 -2.01791 0
M  V30 1105 C 102.566 -2.27594 -2.14872 0
M  V30 1106 C 103.041 -3.48921 -2.96678 0
M  V30 1107 N 104.532 -3.49257 -3.04259 0
M  V30 1108 C 105.267 -4.39795 -3.67924 0
M  V30 1109 N 104.763 -5.40591 -4.33281 0
M  V30 1110 N 106.556 -4.275 -3.64966 0
M  V30 1111 H 98.7067 -2.0748 -0.454502 0
M  V30 1112 H 100.97 -0.910647 -0.26349 0
M  V30 1113 H 100.676 -3.16587 -1.53184 0
M  V30 1114 H 100.55 -2.25306 -3.02518 0
M  V30 1115 H 102.937 -1.34473 -2.6268 0
M  V30 1116 H 103.018 -2.2925 -1.13482 0
M  V30 1117 H 102.662 -4.42359 -2.49562 0
M  V30 1118 H 102.592 -3.4451 -3.98272 0
M  V30 1119 H 105.083 -2.76337 -2.57771 0
M  V30 1120 H 105.396 -6.05904 -4.79687 0
M  V30 1121 H 103.741 -5.44475 -4.3194 0
M  V30 1122 H 106.932 -3.47987 -3.13086 0
M  V30 1123 H 107.105 -4.98258 -4.14298 0
M  V30 1124 N 100.511 1.16574 -1.06058 0
M  V30 1125 C 101.757 1.87324 -0.777022 0
M  V30 1126 C 102.09 1.81351 0.694645 0
M  V30 1127 O 101.365 1.22753 1.50871 0
M  V30 1128 C 101.648 3.36991 -1.26922 0
M  V30 1129 C 101.501 3.51667 -2.80447 0
M  V30 1130 C 102.82 4.3131 -0.87521 0
M  V30 1131 H 99.9388 0.680191 -0.28374 0
M  V30 1132 H 102.581 1.37036 -1.3161 0
M  V30 1133 H 100.731 3.79949 -0.81063 0
M  V30 1134 H 102.403 3.17664 -3.34495 0
M  V30 1135 H 100.646 2.93656 -3.19294 0
M  V30 1136 H 101.317 4.56766 -3.0995 0
M  V30 1137 H 103.793 3.9624 -1.27014 0
M  V30 1138 H 102.669 5.34545 -1.2471 0
M  V30 1139 H 102.93 4.41552 0.220071 0
M  V30 1140 N 101.989 0.842826 1.3317 0
M  V30 1141 C 102.919 0.294028 2.31641 0
M  V30 1142 C 103.9 -0.600401 1.59151 0
M  V30 1143 O 105.085 -0.523124 1.87022 0
M  V30 1144 C 102.215 -0.528416 3.43257 0
M  V30 1145 C 101.169 0.27056 4.27144 0
M  V30 1146 C 100.495 -0.675881 5.30411 0
M  V30 1147 C 101.795 1.48981 5.00602 0
M  V30 1148 H 103.489 1.11681 2.77791 0
M  V30 1149 H 101.035 0.538478 1.33553 0
M  V30 1150 H 102.988 -0.922674 4.11175 0
M  V30 1151 H 101.712 -1.38445 2.95805 0
M  V30 1152 H 100.371 0.646427 3.60856 0
M  V30 1153 H 100.019 -1.52842 4.79216 0
M  V30 1154 H 99.7189 -0.145374 5.8742 0
M  V30 1155 H 101.243 -1.06757 6.01195 0
M  V30 1156 H 102.657 1.16849 5.61266 0
M  V30 1157 H 101.054 1.95739 5.6728 0
M  V30 1158 H 102.124 2.25746 4.29147 0
M  V30 1159 N 103.467 -1.45747 0.599634 0
M  V30 1160 C 104.878 -1.85853 0.177681 0
M  V30 1161 C 105.229 -1.50102 -1.26348 0
M  V30 1162 O 104.354 -0.923905 -1.95686 0
M  V30 1163 C 104.949 -3.37326 0.315688 0
M  V30 1164 C 103.508 -3.76365 -0.0515144 0
M  V30 1165 C 102.655 -2.69722 0.643822 0
M  V30 1166 H 105.606 -1.36661 0.806814 0
M  V30 1167 H 105.627 -3.77778 -0.454321 0
M  V30 1168 H 105.139 -3.63315 1.36468 0
M  V30 1169 H 103.24 -3.55993 -1.09999 0
M  V30 1170 H 103.353 -4.77916 0.336594 0
M  V30 1171 H 101.717 -2.54567 0.0822881 0
M  V30 1172 H 102.5 -2.98549 1.6948 0
M  V30 1173 N 104.945 -0.338344 -1.53925 0
M  V30 1174 C 105.892 0.520845 -2.24846 0
M  V30 1175 C 106.862 1.09976 -1.24477 0
M  V30 1176 O 108.047 1.13735 -1.53196 0
M  V30 1177 C 105.187 1.6685 -3.02084 0
M  V30 1178 C 104.3 1.11739 -4.17299 0
M  V30 1179 C 103.435 2.23193 -4.82036 0
M  V30 1180 C 102.474 1.65407 -5.89328 0
M  V30 1181 N 101.611 2.70582 -6.47866 0
M  V30 1182 H 106.451 -0.0904881 -2.97863 0
M  V30 1183 H 103.988 -0.0564282 -1.46992 0
M  V30 1184 H 105.946 2.34407 -3.45122 0
M  V30 1185 H 104.576 2.2509 -2.31375 0
M  V30 1186 H 103.628 0.332919 -3.7894 0
M  V30 1187 H 104.94 0.654677 -4.94485 0
M  V30 1188 H 104.094 2.98626 -5.28117 0
M  V30 1189 H 102.833 2.72807 -4.04262 0
M  V30 1190 H 101.838 0.884779 -5.42634 0
M  V30 1191 H 103.063 1.16652 -6.69006 0
M  V30 1192 H 101.009 3.1946 -5.72959 0
M  V30 1193 H 100.926 2.28917 -7.20509 0
M  V30 1194 H 102.194 3.45799 -6.98601 0
M  V30 1195 N 106.423 1.57458 -0.0668435 0
M  V30 1196 C 107.353 2.15468 0.899764 0
M  V30 1197 C 108.334 1.08042 1.31381 0
M  V30 1198 O 109.519 1.36054 1.38574 0
M  V30 1199 C 106.649 2.71232 2.16911 0
M  V30 1200 C 105.603 3.83781 1.89463 0
M  V30 1201 C 104.929 4.26127 3.22986 0
M  V30 1202 C 106.229 5.08238 1.20381 0
M  V30 1203 H 107.923 2.96488 0.416529 0
M  V30 1204 H 105.469 1.4262 0.198908 0
M  V30 1205 H 107.422 3.10458 2.84945 0
M  V30 1206 H 106.146 1.87426 2.67468 0
M  V30 1207 H 104.805 3.45051 1.23836 0
M  V30 1208 H 104.453 3.39249 3.71374 0
M  V30 1209 H 104.153 5.01993 3.05413 0
M  V30 1210 H 105.677 4.67966 3.92225 0
M  V30 1211 H 107.091 5.44811 1.78475 0
M  V30 1212 H 105.488 5.89349 1.13083 0
M  V30 1213 H 106.558 4.84558 0.182153 0
M  V30 1214 N 107.901 -0.206675 1.56239 0
M  V30 1215 C 108.831 -1.25909 1.96645 0
M  V30 1216 C 109.812 -1.48097 0.836734 0
M  V30 1217 O 110.997 -1.6003 1.10019 0
M  V30 1218 C 108.127 -2.6058 2.29599 0
M  V30 1219 C 107.081 -2.53024 3.452 0
M  V30 1220 C 106.407 -3.91861 3.63798 0
M  V30 1221 C 107.707 -2.06524 4.79734 0
M  V30 1222 H 109.401 -0.923369 2.84806 0
M  V30 1223 H 106.947 -0.442735 1.37025 0
M  V30 1224 H 108.9 -3.34375 2.56459 0
M  V30 1225 H 107.624 -2.95869 1.38307 0
M  V30 1226 H 106.283 -1.81684 3.18412 0
M  V30 1227 H 105.931 -4.24483 2.69857 0
M  V30 1228 H 105.631 -3.87683 4.4156 0
M  V30 1229 H 107.155 -4.67296 3.93022 0
M  V30 1230 H 108.569 -2.70072 5.05702 0
M  V30 1231 H 106.966 -2.13374 5.60885 0
M  V30 1232 H 108.036 -1.01802 4.74093 0
M  V30 1233 N 109.379 -1.50304 -0.473955 0
M  V30 1234 C 110.627 -1.60832 -1.22382 0
M  V30 1235 C 110.948 -0.30939 -1.9253 0
M  V30 1236 O 110.218 0.67296 -1.83978 0
M  V30 1237 H 108.798 -0.592652 -0.454723 0
M  V30 1238 H 111.46 -1.87068 -0.546968 0
M  V30 1239 H 110.556 -2.41803 -1.97327 0
M  V30 1240 N 110.857 0.726932 -1.39834 0
M  V30 1241 C 111.789 1.85147 -1.35104 0
M  V30 1242 C 112.802 1.60736 -0.258392 0
M  V30 1243 O 113.991 1.70821 -0.517931 0
M  V30 1244 C 111.091 3.21332 -1.07697 0
M  V30 1245 C 110.264 3.73033 -2.28396 0
M  V30 1246 C 109.323 4.87802 -1.97322 0
M  V30 1247 O 108.349 5.01043 -2.70083 0
M  V30 1248 N 109.551 5.72768 -0.944273 0
M  V30 1249 H 112.316 1.89706 -2.32017 0
M  V30 1250 H 109.877 0.908006 -1.3404 0
M  V30 1251 H 111.869 3.95691 -0.849144 0
M  V30 1252 H 110.439 3.11992 -0.194909 0
M  V30 1253 H 109.659 2.89934 -2.6708 0
M  V30 1254 H 110.947 4.0431 -3.08887 0
M  V30 1255 H 110.345 5.64669 -0.341427 0
M  V30 1256 H 108.902 6.4716 -0.776346 0
M  V30 1257 N 112.336 1.25143 0.95797 0
M  V30 1258 C 113.299 1.05321 2.03569 0
M  V30 1259 C 114.299 0.007152 1.60798 0
M  V30 1260 O 115.489 0.24903 1.72411 0
M  V30 1261 C 112.621 0.598394 3.35607 0
M  V30 1262 H 113.814 2.00986 2.22586 0
M  V30 1263 H 111.367 1.07502 1.13459 0
M  V30 1264 H 112.102 -0.361014 3.22284 0
M  V30 1265 H 111.887 1.35351 3.67998 0
M  V30 1266 H 113.377 0.48104 4.1482 0
M  V30 1267 N 113.814 -1.1601 1.06675 0
M  V30 1268 C 115.039 -1.91068 0.806706 0
M  V30 1269 C 115.464 -1.77112 -0.633485 0
M  V30 1270 O 114.822 -1.09908 -1.44187 0
M  V30 1271 C 114.87 -3.39655 1.21106 0
M  V30 1272 O 113.974 -4.10893 0.352189 0
M  V30 1273 H 113.315 -0.595125 0.294486 0
M  V30 1274 H 115.845 -1.46955 1.42356 0
M  V30 1275 H 115.855 -3.90434 1.18428 0
M  V30 1276 H 114.53 -3.49132 2.26008 0
M  V30 1277 H 113.107 -3.70285 0.440868 0
M  V30 1278 N 115.292 -0.849877 -1.32721 0
M  V30 1279 C 116.222 -0.306308 -2.31482 0
M  V30 1280 C 117.203 0.591952 -1.59468 0
M  V30 1281 O 118.388 0.513199 -1.87296 0
M  V30 1282 C 115.518 0.510204 -3.43532 0
M  V30 1283 C 114.472 -0.293209 -4.26994 0
M  V30 1284 C 113.798 0.647743 -5.30762 0
M  V30 1285 C 115.098 -1.51634 -4.99804 0
M  V30 1286 H 116.792 -1.13153 -2.77195 0
M  V30 1287 H 114.338 -0.545553 -1.33266 0
M  V30 1288 H 116.291 0.900856 -4.11658 0
M  V30 1289 H 115.015 1.36874 -2.96535 0
M  V30 1290 H 113.674 -0.665555 -3.60508 0
M  V30 1291 H 113.322 1.50299 -4.8002 0
M  V30 1292 H 113.022 0.11422 -5.87489 0
M  V30 1293 H 114.546 1.03567 -6.01753 0
M  V30 1294 H 115.96 -1.19824 -5.60638 0
M  V30 1295 H 114.357 -1.98745 -5.66234 0
M  V30 1296 H 115.427 -2.28018 -4.27943 0
M  V30 1297 N 116.77 1.45427 -0.607355 0
M  V30 1298 C 118.047 1.9557 -0.0344566 0
M  V30 1299 C 118.427 1.54979 1.43334 0
M  V30 1300 O 117.775 0.812241 2.13576 0
M  V30 1301 C 117.985 3.48226 -0.232321 0
M  V30 1302 C 119.333 4.2445 -0.113001 0
M  V30 1303 O 120.357 3.55829 -0.162431 0
M  V30 1304 O 119.216 5.465 0.00209442 0
M  V30 1305 H 116.31 0.826222 0.0358667 0
M  V30 1306 H 118.856 1.55594 -0.6774 0
M  V30 1307 H 117.628 3.70739 -1.25174 0
M  V30 1308 H 117.251 3.95092 0.445896 0
M  V30 1309 N 118.248 0.346503 1.53744 0
M  V30 1310 C 119.211 -0.496439 2.23759 0
M  V30 1311 C 120.211 -1.0252 1.2388 0
M  V30 1312 O 121.401 -0.913974 1.48297 0
M  V30 1313 C 118.533 -1.69187 2.95954 0
M  V30 1314 H 119.726 0.115952 2.99676 0
M  V30 1315 H 117.279 0.0978939 1.55993 0
M  V30 1316 H 118.014 -2.34288 2.24231 0
M  V30 1317 H 117.799 -1.31989 3.69217 0
M  V30 1318 H 119.289 -2.28969 3.49232 0
M  V30 1319 N 119.726 -1.57421 0.075193 0
M  V30 1320 C 121.137 -1.81021 -0.456964 0
M  V30 1321 C 121.488 -0.98936 -1.69429 0
M  V30 1322 O 120.613 -0.212865 -2.15351 0
M  V30 1323 C 121.208 -3.28329 -0.83581 0
M  V30 1324 C 119.767 -3.52764 -1.31281 0
M  V30 1325 C 118.914 -2.75676 -0.299648 0
M  V30 1326 H 121.865 -1.55822 0.300856 0
M  V30 1327 H 121.886 -3.40564 -1.69696 0
M  V30 1328 H 121.398 -3.88046 0.0649238 0
M  V30 1329 H 119.499 -2.98355 -2.23193 0
M  V30 1330 H 119.612 -4.61451 -1.28839 0
M  V30 1331 H 117.976 -2.42538 -0.777641 0
M  V30 1332 H 118.759 -3.38132 0.593417 0
M  V30 1333 N 121.204 0.198386 -1.56346 0
M  V30 1334 C 122.134 1.24865 -1.9731 0
M  V30 1335 C 123.115 1.47651 -0.844576 0
M  V30 1336 O 124.3 1.59444 -1.10866 0
M  V30 1337 C 121.43 2.59358 -2.30977 0
M  V30 1338 C 120.384 2.5119 -3.46537 0
M  V30 1339 C 119.71 3.89926 -3.65871 0
M  V30 1340 C 121.01 2.03977 -4.80823 0
M  V30 1341 H 122.704 0.908252 -2.85291 0
M  V30 1342 H 120.25 0.435462 -1.37258 0
M  V30 1343 H 122.203 3.33011 -2.58228 0
M  V30 1344 H 120.927 2.95132 -1.39874 0
M  V30 1345 H 119.586 1.79993 -3.19371 0
M  V30 1346 H 119.234 4.23046 -2.72105 0
M  V30 1347 H 118.934 3.85336 -4.4361 0
M  V30 1348 H 120.458 4.65205 -3.95495 0
M  V30 1349 H 121.872 2.67386 -5.07127 0
M  V30 1350 H 120.269 2.10397 -5.62008 0
M  V30 1351 H 121.339 0.992861 -4.74626 0
M  V30 1352 N 122.682 1.50554 0.465978 0
M  V30 1353 C 123.612 1.72722 1.57128 0
M  V30 1354 C 124.593 0.576294 1.6004 0
M  V30 1355 O 125.778 0.81598 1.76225 0
M  V30 1356 C 122.908 1.82605 2.95419 0
M  V30 1357 C 121.862 2.97835 3.07373 0
M  V30 1358 C 121.188 2.92867 4.47363 0
M  V30 1359 C 122.488 4.38265 2.84114 0
M  V30 1360 H 124.182 2.65267 1.38829 0
M  V30 1361 H 121.728 1.2765 0.666441 0
M  V30 1362 H 123.681 1.96698 3.72677 0
M  V30 1363 H 122.405 0.866858 3.14886 0
M  V30 1364 H 121.064 2.83401 2.3255 0
M  V30 1365 H 120.712 1.94783 4.63755 0
M  V30 1366 H 120.412 3.70227 4.56296 0
M  V30 1367 H 121.936 3.09015 5.26633 0
M  V30 1368 H 123.35 4.53198 3.51118 0
M  V30 1369 H 121.747 5.17115 3.04487 0
M  V30 1370 H 122.817 4.50281 1.7993 0
M  V30 1371 N 124.16 -0.719506 1.40217 0
M  V30 1372 C 125.408 -1.47641 1.3801 0
M  V30 1373 C 125.729 -1.94992 -0.018145 0
M  V30 1374 O 124.999 -1.70073 -0.972207 0
M  V30 1375 H 123.579 -0.547744 0.507923 0
M  V30 1376 H 126.241 -0.853187 1.75233 0
M  V30 1377 H 125.337 -2.35112 2.05253 0
M  V30 1378 N 125.638 -1.25649 -0.95132 0
M  V30 1379 C 127.054 -1.02542 -1.223 0
M  V30 1380 C 127.254 0.255715 -1.99871 0
M  V30 1381 O 126.31 0.967558 -2.33226 0
M  V30 1382 C 127.623 -2.25065 -1.99415 0
M  V30 1383 C 129.171 -2.29861 -2.12446 0
M  V30 1384 C 129.646 -3.52048 -2.92961 0
M  V30 1385 N 131.137 -3.52465 -3.00538 0
M  V30 1386 C 131.872 -4.43672 -3.63239 0
M  V30 1387 N 131.368 -5.45157 -4.27523 0
M  V30 1388 N 133.161 -4.31346 -3.60412 0
M  V30 1389 H 125.312 -2.07951 -0.432471 0
M  V30 1390 H 127.575 -0.91339 -0.253816 0
M  V30 1391 H 127.281 -3.18194 -1.49817 0
M  V30 1392 H 127.155 -2.28502 -3.00111 0
M  V30 1393 H 129.542 -1.37252 -2.61239 0
M  V30 1394 H 129.623 -2.3044 -1.11044 0
M  V30 1395 H 129.267 -4.44981 -2.44856 0
M  V30 1396 H 129.197 -3.48715 -3.94596 0
M  V30 1397 H 131.688 -2.79056 -2.54826 0
M  V30 1398 H 132.001 -6.10958 -4.73234 0
M  V30 1399 H 130.346 -5.49025 -4.26141 0
M  V30 1400 H 133.537 -3.51288 -3.09377 0
M  V30 1401 H 133.71 -5.02624 -4.0899 0
M  V30 1402 N 127.117 1.15442 -1.07289 0
M  V30 1403 C 128.363 1.86489 -0.796846 0
M  V30 1404 C 128.696 1.82078 0.675371 0
M  V30 1405 O 127.971 1.24346 1.4956 0
M  V30 1406 C 128.254 3.35626 -1.30489 0
M  V30 1407 C 128.107 3.48673 -2.84161 0
M  V30 1408 C 129.426 4.30357 -0.920907 0
M  V30 1409 H 126.545 0.677144 -0.290939 0
M  V30 1410 H 129.187 1.35633 -1.33056 0
M  V30 1411 H 127.337 3.79068 -0.850883 0
M  V30 1412 H 129.009 3.14099 -3.37846 0
M  V30 1413 H 127.252 2.90253 -3.22391 0
M  V30 1414 H 127.923 4.53453 -3.14777 0
M  V30 1415 H 130.399 3.94871 -1.3121 0
M  V30 1416 H 129.275 5.33193 -1.30372 0
M  V30 1417 H 129.536 4.4176 0.173226 0
M  V30 1418 N 128.595 0.856903 1.32268 0
M  V30 1419 C 129.843 0.460474 1.96784 0
M  V30 1420 C 130.164 -0.987701 1.68135 0
M  V30 1421 O 129.434 -1.69058 0.989765 0
M  V30 1422 H 128.014 0.167289 0.728027 0
M  V30 1423 H 130.676 1.09383 1.61312 0
M  V30 1424 H 129.772 0.60739 3.06133 0
M  V30 1425 N 130.073 -1.45103 0.615059 0
M  V30 1426 C 131.489 -1.57137 0.279322 0
M  V30 1427 C 131.689 -1.60523 -1.21797 0
M  V30 1428 O 130.745 -1.53956 -2.00134 0
M  V30 1429 C 132.058 -2.85062 0.957083 0
M  V30 1430 C 133.606 -2.98749 0.933706 0
M  V30 1431 C 134.081 -4.29455 1.59162 0
M  V30 1432 N 135.572 -4.36231 1.55746 0
M  V30 1433 C 136.307 -5.36051 2.0356 0
M  V30 1434 N 135.803 -6.42367 2.59494 0
M  V30 1435 N 137.596 -5.27456 1.94284 0
M  V30 1436 H 129.747 -1.41148 1.58717 0
M  V30 1437 H 132.01 -0.675331 0.665306 0
M  V30 1438 H 131.716 -2.88488 2.01166 0
M  V30 1439 H 131.59 -3.7407 0.48494 0
M  V30 1440 H 133.977 -2.94886 -0.112347 0
M  V30 1441 H 134.058 -2.11132 1.44419 0
M  V30 1442 H 133.702 -4.34077 2.63704 0
M  V30 1443 H 133.632 -5.15901 1.0561 0
M  V30 1444 H 136.123 -3.60011 1.14893 0
M  V30 1445 H 136.436 -7.14793 2.93752 0
M  V30 1446 H 134.781 -6.43097 2.63537 0
M  V30 1447 H 137.972 -4.43308 1.5032 0
M  V30 1448 H 138.145 -6.05099 2.3186 0
M  V30 1449 N 131.551 -0.354651 -1.53558 0
M  V30 1450 C 132.779 0.239515 -2.05509 0
M  V30 1451 C 133.194 1.4333 -1.2289 0
M  V30 1452 O 132.551 1.80538 -0.266899 0
M  V30 1453 C 132.602 0.643719 -3.55723 0
M  V30 1454 O 132.323 -0.502602 -4.35207 0
M  V30 1455 C 133.824 1.29743 -4.23889 0
M  V30 1456 H 131.044 0.0442697 -0.669538 0
M  V30 1457 H 133.588 -0.509856 -1.98042 0
M  V30 1458 H 131.743 1.34302 -3.63376 0
M  V30 1459 H 132.157 -0.178172 -5.24197 0
M  V30 1460 H 133.631 1.53091 -5.30346 0
M  V30 1461 H 134.108 2.25441 -3.76926 0
M  V30 1462 H 134.714 0.639865 -4.20459 0
M  V30 1463 N 133.029 1.57378 -0.0835403 0
M  V30 1464 C 134.254 1.98682 0.594987 0
M  V30 1465 C 134.679 0.961969 1.61641 0
M  V30 1466 O 134.037 -0.0709989 1.81161 0
M  V30 1467 C 134.085 3.38988 1.2296 0
M  V30 1468 O 133.189 3.39208 2.34546 0
M  V30 1469 H 132.53 0.646368 0.152002 0
M  V30 1470 H 135.06 2.03961 -0.161533 0
M  V30 1471 H 135.07 3.76431 1.57366 0
M  V30 1472 H 133.745 4.13107 0.481228 0
M  V30 1473 H 132.322 3.13548 2.01846 0
M  V30 1474 N 134.507 -0.190092 1.56449 0
M  V30 1475 C 135.923 -0.54113 1.50146 0
M  V30 1476 C 136.123 -1.85603 0.784465 0
M  V30 1477 O 135.179 -2.5024 0.337051 0
M  V30 1478 C 136.492 -0.591241 2.9483 0
M  V30 1479 C 138.04 -0.679732 3.0553 0
M  V30 1480 C 138.515 -0.760908 4.51635 0
M  V30 1481 N 140.006 -0.824302 4.55806 0
M  V30 1482 C 140.741 -0.907365 5.66175 0
M  V30 1483 N 140.237 -0.952422 6.86222 0
M  V30 1484 N 142.03 -0.94494 5.541 0
M  V30 1485 H 134.181 0.67235 2.01478 0
M  V30 1486 H 136.444 0.240127 0.917084 0
M  V30 1487 H 136.15 0.305905 3.50367 0
M  V30 1488 H 136.024 -1.44422 3.48457 0
M  V30 1489 H 138.411 -1.56731 2.50039 0
M  V30 1490 H 138.492 0.199549 2.5502 0
M  V30 1491 H 138.136 0.122336 5.07753 0
M  V30 1492 H 138.066 -1.65606 4.99882 0
M  V30 1493 H 140.557 -0.798526 3.69367 0
M  V30 1494 H 140.87 -1.01645 7.66086 0
M  V30 1495 H 139.215 -0.921014 6.8887 0
M  V30 1496 H 142.406 -0.906612 4.59236 0
M  V30 1497 H 142.579 -1.00622 6.4014 0
M  V30 1498 N 135.985 -1.50799 -0.457987 0
M  V30 1499 C 137.233 -1.62121 -1.2067 0
M  V30 1500 C 137.554 -0.329793 -1.92191 0
M  V30 1501 O 136.824 0.653409 -1.84682 0
M  V30 1502 H 135.404 -0.597441 -0.448411 0
M  V30 1503 H 138.066 -1.87637 -0.527096 0
M  V30 1504 H 137.162 -2.43882 -1.94751 0
M  V30 1505 N 137.463 0.71206 -1.40597 0
M  V30 1506 C 138.393 1.83889 -1.43899 0
M  V30 1507 C 139.374 1.67442 -0.299504 0
M  V30 1508 O 140.559 1.87421 -0.508624 0
M  V30 1509 C 137.689 3.21877 -1.30431 0
M  V30 1510 C 136.643 3.53002 -2.42019 0
M  V30 1511 C 135.969 4.90172 -2.13626 0
M  V30 1512 C 137.269 3.53643 -3.84362 0
M  V30 1513 H 138.963 1.81383 -2.38203 0
M  V30 1514 H 136.509 0.871237 -1.14654 0
M  V30 1515 H 138.462 4.00404 -1.31357 0
M  V30 1516 H 137.186 3.24968 -0.326049 0
M  V30 1517 H 135.845 2.76818 -2.40349 0
M  V30 1518 H 135.493 4.89869 -1.14182 0
M  V30 1519 H 135.193 5.11962 -2.88389 0
M  V30 1520 H 136.717 5.71028 -2.1624 0
M  V30 1521 H 138.131 4.22203 -3.87837 0
M  V30 1522 H 136.528 3.86961 -4.58673 0
M  V30 1523 H 137.598 2.52954 -4.13693 0
M  V30 1524 N 138.941 1.26152 0.944643 0
M  V30 1525 C 139.904 1.07474 2.0244 0
M  V30 1526 C 140.904 0.0242064 1.60782 0
M  V30 1527 O 142.094 0.267302 1.72137 0
M  V30 1528 C 139.226 0.633956 3.34953 0
M  V30 1529 H 140.419 2.03336 2.20442 0
M  V30 1530 H 137.972 1.087 1.12312 0
M  V30 1531 H 138.707 -0.326811 3.22649 0
M  V30 1532 H 138.492 1.39247 3.66542 0
M  V30 1533 H 139.982 0.52501 4.14287 0
M  V30 1534 N 140.419 -1.14872 1.07899 0
M  V30 1535 C 141.835 -1.37776 0.805606 0
M  V30 1536 C 142.035 -1.92743 -0.587555 0
M  V30 1537 O 141.091 -2.13678 -1.34528 0
M  V30 1538 C 142.404 -2.34361 1.88402 0
M  V30 1539 C 143.952 -2.48012 1.90942 0
M  V30 1540 C 144.427 -3.47893 2.97883 0
M  V30 1541 N 145.918 -3.55433 2.97021 0
M  V30 1542 C 146.653 -4.32553 3.76412 0
M  V30 1543 N 146.149 -5.12959 4.65666 0
M  V30 1544 N 147.942 -4.27697 3.64735 0
M  V30 1545 H 140.093 -0.775365 1.97742 0
M  V30 1546 H 142.356 -0.403521 0.857831 0
M  V30 1547 H 142.062 -2.01098 2.88535 0
M  V30 1548 H 141.936 -3.34206 1.74889 0
M  V30 1549 H 144.323 -2.8057 0.914579 0
M  V30 1550 H 144.404 -1.48147 2.08534 0
M  V30 1551 H 144.048 -3.16069 3.97571 0
M  V30 1552 H 143.978 -4.47527 2.77538 0
M  V30 1553 H 146.469 -2.98048 2.32326 0
M  V30 1554 H 146.782 -5.69065 5.22862 0
M  V30 1555 H 145.127 -5.12245 4.69712 0
M  V30 1556 H 148.318 -3.63949 2.94378 0
M  V30 1557 H 148.491 -4.8755 4.26848 0
M  V30 1558 N 141.898 -0.863906 -1.31812 0
M  V30 1559 C 142.828 -0.330843 -2.31144 0
M  V30 1560 C 143.809 0.575005 -1.60087 0
M  V30 1561 O 144.994 0.493304 -1.8783 0
M  V30 1562 C 142.124 0.47374 -3.44054 0
M  V30 1563 C 141.078 -0.338481 -4.26659 0
M  V30 1564 C 140.404 0.591412 -5.31419 0
M  V30 1565 C 141.704 -1.56926 -4.98168 0
M  V30 1566 H 143.398 -1.16086 -2.75979 0
M  V30 1567 H 140.944 -0.559657 -1.32679 0
M  V30 1568 H 142.897 0.857143 -4.12591 0
M  V30 1569 H 141.621 1.33721 -2.9797 0
M  V30 1570 H 140.28 -0.703754 -3.59782 0
M  V30 1571 H 139.928 1.45199 -4.81587 0
M  V30 1572 H 139.628 0.0519022 -5.87577 0
M  V30 1573 H 141.152 0.97179 -6.02817 0
M  V30 1574 H 142.566 -1.25764 -5.59336 0
M  V30 1575 H 140.963 -2.04739 -5.64094 0
M  V30 1576 H 142.033 -2.32544 -4.25501 0
M  V30 1577 N 143.376 1.44774 -0.622745 0
M  V30 1578 C 144.308 2.28856 0.125485 0
M  V30 1579 C 145.321 1.40811 0.817069 0
M  V30 1580 O 146.51 1.65044 0.679918 0
M  V30 1581 C 143.61 3.16963 1.19949 0
M  V30 1582 C 142.783 4.33374 0.592064 0
M  V30 1583 C 141.842 5.02577 1.55893 0
M  V30 1584 O 140.868 5.58873 1.07933 0
M  V30 1585 N 142.07 5.03256 2.89334 0
M  V30 1586 H 144.835 2.93713 -0.596068 0
M  V30 1587 H 142.396 1.55129 -0.463303 0
M  V30 1588 H 144.388 3.60123 1.84644 0
M  V30 1589 H 142.958 2.53913 1.82337 0
M  V30 1590 H 142.178 3.93509 -0.233322 0
M  V30 1591 H 143.466 5.08527 0.166738 0
M  V30 1592 H 142.864 4.58836 3.30887 0
M  V30 1593 H 141.421 5.50232 3.49412 0
M  V30 1594 N 144.854 0.36279 1.53368 0
M  V30 1595 C 145.784 -0.476976 2.28576 0
M  V30 1596 C 146.765 -1.08631 1.30894 0
M  V30 1597 O 147.95 -1.10409 1.59761 0
M  V30 1598 C 145.08 -1.61828 3.07293 0
M  V30 1599 C 144.034 -1.13633 4.1264 0
M  V30 1600 C 143.36 -2.36766 4.79423 0
M  V30 1601 C 144.66 -0.223061 5.21823 0
M  V30 1602 H 146.354 0.150474 2.99022 0
M  V30 1603 H 143.9 0.0738103 1.43811 0
M  V30 1604 H 145.853 -2.21237 3.58653 0
M  V30 1605 H 144.577 -2.27292 2.34533 0
M  V30 1606 H 143.236 -0.564945 3.62221 0
M  V30 1607 H 142.884 -3.0068 4.03238 0
M  V30 1608 H 142.584 -2.05192 5.50609 0
M  V30 1609 H 144.108 -2.96865 5.33576 0
M  V30 1610 H 145.522 -0.724545 5.68703 0
M  V30 1611 H 143.919 0.001678 6.001 0
M  V30 1612 H 144.989 0.735553 4.79289 0
M  V30 1613 N 146.332 -1.57332 0.0918853 0
M  V30 1614 C 147.262 -2.16872 -0.865371 0
M  V30 1615 C 148.243 -1.10118 -1.29646 0
M  V30 1616 O 149.428 -1.38242 -1.36392 0
M  V30 1617 C 146.558 -2.74649 -2.12569 0
M  V30 1618 C 145.512 -3.86747 -1.83333 0
M  V30 1619 C 144.838 -4.31212 -3.16166 0
M  V30 1620 C 146.138 -5.10089 -1.1228 0
M  V30 1621 H 147.832 -2.97114 -0.369307 0
M  V30 1622 H 145.378 -1.42918 -0.176194 0
M  V30 1623 H 147.331 -3.14952 -2.7997 0
M  V30 1624 H 146.055 -1.91657 -2.64452 0
M  V30 1625 H 144.714 -3.46978 -1.18331 0
M  V30 1626 H 144.362 -3.45115 -3.6593 0
M  V30 1627 H 144.062 -5.06788 -2.97388 0
M  V30 1628 H 145.586 -4.74146 -3.84731 0
M  V30 1629 H 147 -5.47582 -1.69785 0
M  V30 1630 H 145.397 -5.91073 -1.03693 0
M  V30 1631 H 146.467 -4.84786 -0.105041 0
M  V30 1632 N 147.81 0.181792 -1.56548 0
M  V30 1633 C 148.72 1.24538 -1.98815 0
M  V30 1634 C 149.736 1.49045 -0.897861 0
M  V30 1635 O 150.912 1.61399 -1.20467 0
M  V30 1636 C 147.977 2.56683 -2.33055 0
M  V30 1637 C 147.038 2.40131 -3.55859 0
M  V30 1638 C 146.271 3.65975 -3.88456 0
M  V30 1639 O 146.494 4.70711 -3.22161 0
M  V30 1640 O 145.428 3.6071 -4.81842 0
M  V30 1641 H 149.254 0.916647 -2.89536 0
M  V30 1642 H 146.839 0.387842 -1.44278 0
M  V30 1643 H 148.721 3.34655 -2.56094 0
M  V30 1644 H 147.396 2.89157 -1.45498 0
M  V30 1645 H 146.303 1.60226 -3.38051 0
M  V30 1646 H 147.636 2.12585 -4.43924 0
M  V30 1647 N 149.288 1.51039 0.449983 0
M  V30 1648 C 150.516 1.66869 1.2232 0
M  V30 1649 C 150.931 0.360727 1.85322 0
M  V30 1650 O 150.288 -0.659531 1.70166 0
M  V30 1651 C 150.339 2.77524 2.31652 0
M  V30 1652 O 150.06 4.03252 1.7123 0
M  V30 1653 C 151.561 3.04512 3.2216 0
M  V30 1654 H 148.781 0.560326 0.369155 0
M  V30 1655 H 151.325 1.97385 0.534719 0
M  V30 1656 H 149.48 2.49642 2.96239 0
M  V30 1657 H 149.894 4.64609 2.43389 0
M  V30 1658 H 151.368 3.85551 3.95038 0
M  V30 1659 H 151.845 2.16415 3.8218 0
M  V30 1660 H 152.451 3.34005 2.63288 0
M  V30 1661 N 150.766 -0.704594 1.40972 0
M  V30 1662 C 151.996 -1.49138 1.42974 0
M  V30 1663 C 152.404 -1.89175 0.0308406 0
M  V30 1664 O 151.747 -1.56734 -0.958138 0
M  V30 1665 C 151.809 -2.79016 2.26694 0
M  V30 1666 C 151.473 -2.61236 3.74973 0
M  V30 1667 C 152.47 -2.27773 4.67349 0
M  V30 1668 C 150.155 -2.77158 4.18914 0
M  V30 1669 C 152.149 -2.10457 6.01653 0
M  V30 1670 C 149.836 -2.59459 5.53285 0
M  V30 1671 C 150.834 -2.26158 6.4447 0
M  V30 1672 O 150.522 -2.08605 7.76363 0
M  V30 1673 H 150.254 -0.466443 0.489292 0
M  V30 1674 H 152.808 -0.8758 1.85793 0
M  V30 1675 H 151.038 -3.42947 1.78673 0
M  V30 1676 H 152.727 -3.40782 2.20504 0
M  V30 1677 H 153.493 -2.15095 4.34694 0
M  V30 1678 H 149.372 -3.02064 3.48251 0
M  V30 1679 H 152.916 -1.84387 6.72791 0
M  V30 1680 H 148.813 -2.71725 5.85522 0
M  V30 1681 H 149.581 -2.23439 7.87412 0
M  V30 1682 N 152.244 -1.26651 -0.937939 0
M  V30 1683 C 153.469 -1.15279 -1.72411 0
M  V30 1684 C 153.894 0.287866 -1.85884 0
M  V30 1685 O 153.252 1.20855 -1.35143 0
M  V30 1686 C 153.3 -1.83028 -3.10698 0
M  V30 1687 O 152.404 -1.12128 -3.96864 0
M  V30 1688 H 151.745 -0.401504 -0.528858 0
M  V30 1689 H 154.275 -1.67531 -1.1745 0
M  V30 1690 H 154.285 -1.89981 -3.6107 0
M  V30 1691 H 152.96 -2.87833 -3.00208 0
M  V30 1692 H 151.537 -1.13173 -3.55312 0
M  V30 1693 N 153.722 1.14298 -1.08507 0
M  V30 1694 C 155.138 1.37347 -0.812901 0
M  V30 1695 C 155.338 1.93052 0.577325 0
M  V30 1696 O 154.394 2.14389 1.33393 0
M  V30 1697 C 155.707 2.33359 -1.89642 0
M  V30 1698 C 157.255 2.46996 -1.92255 0
M  V30 1699 C 157.73 3.46309 -2.99724 0
M  V30 1700 N 159.221 3.53853 -2.98902 0
M  V30 1701 C 159.956 4.3055 -3.787 0
M  V30 1702 N 159.452 5.10482 -4.6838 0
M  V30 1703 N 161.245 4.25757 -3.66998 0
M  V30 1704 H 153.396 0.764867 -1.9815 0
M  V30 1705 H 155.659 0.398966 -0.859959 0
M  V30 1706 H 155.365 1.99565 -2.89597 0
M  V30 1707 H 155.239 3.33274 -1.76659 0
M  V30 1708 H 157.626 2.80081 -0.929445 0
M  V30 1709 H 157.707 1.47039 -2.09316 0
M  V30 1710 H 157.351 3.13957 -3.99241 0
M  V30 1711 H 157.281 4.46049 -2.79907 0
M  V30 1712 H 159.772 2.96812 -2.33904 0
M  V30 1713 H 160.085 5.66284 -5.25873 0
M  V30 1714 H 158.43 5.09747 -4.72422 0
M  V30 1715 H 161.621 3.62383 -2.96304 0
M  V30 1716 H 161.794 4.85279 -4.29427 0
M  V30 1717 N 155.201 0.870884 1.31352 0
M  V30 1718 C 156.617 0.562932 1.49343 0
M  V30 1719 C 156.817 -0.902725 1.80148 0
M  V30 1720 O 155.873 -1.68484 1.88067 0
M  V30 1721 C 157.186 1.46393 2.62659 0
M  V30 1722 C 158.734 1.46607 2.76542 0
M  V30 1723 C 159.209 2.35266 3.92955 0
M  V30 1724 N 160.7 2.33151 4.00243 0
M  V30 1725 C 161.435 2.98471 4.89594 0
M  V30 1726 N 160.931 3.72964 5.8384 0
M  V30 1727 N 162.724 2.87775 4.82848 0
M  V30 1728 H 154.875 1.81923 1.09626 0
M  V30 1729 H 157.138 0.777934 0.541777 0
M  V30 1730 H 156.844 2.50689 2.46674 0
M  V30 1731 H 156.718 1.16314 3.58819 0
M  V30 1732 H 159.105 0.43069 2.9194 0
M  V30 1733 H 159.186 1.8071 1.81046 0
M  V30 1734 H 158.83 3.38881 3.78315 0
M  V30 1735 H 158.76 1.98487 4.87761 0
M  V30 1736 H 161.251 1.79006 3.32814 0
M  V30 1737 H 161.564 4.19932 6.4875 0
M  V30 1738 H 159.909 3.77073 5.83816 0
M  V30 1739 H 163.1 2.29116 4.08195 0
M  V30 1740 H 163.273 3.38961 5.52277 0
M  V30 1741 N 156.679 -1.44442 0.630414 0
M  V30 1742 C 157.609 -2.33418 -0.0618083 0
M  V30 1743 C 158.59 -1.48165 -0.835541 0
M  V30 1744 O 159.775 -1.76886 -0.801564 0
M  V30 1745 C 156.905 -3.31222 -1.04449 0
M  V30 1746 C 155.859 -4.26288 -0.382436 0
M  V30 1747 C 155.185 -5.13954 -1.47497 0
M  V30 1748 C 156.485 -5.1744 0.710865 0
M  V30 1749 H 158.179 -2.91548 0.681184 0
M  V30 1750 H 155.725 -1.40191 0.329026 0
M  V30 1751 H 157.678 -3.92351 -1.53748 0
M  V30 1752 H 156.402 -2.71299 -1.81836 0
M  V30 1753 H 155.061 -3.6649 0.0899054 0
M  V30 1754 H 154.709 -4.50385 -2.2397 0
M  V30 1755 H 154.409 -5.7837 -1.03737 0
M  V30 1756 H 155.933 -5.77955 -1.96979 0
M  V30 1757 H 157.347 -5.72509 0.300996 0
M  V30 1758 H 155.744 -5.90455 1.07156 0
M  V30 1759 H 156.814 -4.58496 1.57829 0
M  V30 1760 N 158.157 -0.370918 -1.53173 0
M  V30 1761 C 159.087 0.464847 -2.28826 0
M  V30 1762 C 160.068 1.07936 -1.31468 0
M  V30 1763 O 161.253 1.0956 -1.60344 0
M  V30 1764 C 158.383 1.60196 -3.08147 0
M  V30 1765 C 157.337 1.11443 -4.13237 0
M  V30 1766 C 156.663 2.3422 -4.80672 0
M  V30 1767 C 157.963 0.195384 -5.21934 0
M  V30 1768 H 159.657 -0.166329 -2.98938 0
M  V30 1769 H 157.203 -0.0814359 -1.4377 0
M  V30 1770 H 159.156 2.19332 -3.59822 0
M  V30 1771 H 157.88 2.26045 -2.35735 0
M  V30 1772 H 156.539 0.545727 -3.62515 0
M  V30 1773 H 156.187 2.98537 -4.04827 0
M  V30 1774 H 155.887 2.02269 -5.51689 0
M  V30 1775 H 157.411 2.94032 -5.35143 0
M  V30 1776 H 158.825 0.694375 -5.69079 0
M  V30 1777 H 157.222 -0.0335027 -6.00091 0
M  V30 1778 H 158.292 -0.760961 -4.78892 0
M  V30 1779 N 159.635 1.57281 -0.100228 0
M  V30 1780 C 160.598 2.13158 0.842398 0
M  V30 1781 C 161.598 1.06202 1.20738 0
M  V30 1782 O 162.788 1.32066 1.13597 0
M  V30 1783 C 159.92 2.65639 2.13655 0
M  V30 1784 H 161.113 2.97766 0.357114 0
M  V30 1785 H 158.666 1.5559 0.148823 0
M  V30 1786 H 159.401 1.84566 2.66657 0
M  V30 1787 H 159.186 3.43844 1.88451 0
M  V30 1788 H 160.676 3.08846 2.81077 0
M  V30 1789 N 161.113 -0.173488 1.56642 0
M  V30 1790 C 162.341 -0.906095 1.86004 0
M  V30 1791 C 162.756 -1.75921 0.685355 0
M  V30 1792 O 162.113 -1.79198 -0.345578 0
M  V30 1793 C 162.164 -1.78462 3.14378 0
M  V30 1794 O 161.885 -0.965914 4.27319 0
M  V30 1795 C 163.386 -2.62707 3.57071 0
M  V30 1796 H 160.606 -0.263341 0.617165 0
M  V30 1797 H 163.15 -0.174236 2.03756 0
M  V30 1798 H 161.305 -2.46984 2.98459 0
M  V30 1799 H 161.719 -1.56655 5.00559 0
M  V30 1800 H 163.193 -3.19969 4.49804 0
M  V30 1801 H 163.67 -3.37472 2.81086 0
M  V30 1802 H 164.276 -1.99521 3.75595 0
M  V30 1803 N 162.591 -1.51276 -0.441967 0
M  V30 1804 C 163.554 -1.7167 -1.51862 0
M  V30 1805 C 164.554 -0.586793 -1.49711 0
M  V30 1806 O 165.744 -0.854276 -1.51815 0
M  V30 1807 C 162.876 -1.76889 -2.91416 0
M  V30 1808 H 164.069 -2.67754 -1.35084 0
M  V30 1809 H 161.622 -1.41196 -0.670333 0
M  V30 1810 H 162.357 -0.826026 -3.13604 0
M  V30 1811 H 162.142 -2.59001 -2.94382 0
M  V30 1812 H 163.632 -1.94522 -3.69528 0
M  V30 1813 N 164.069 0.697108 -1.41344 0
M  V30 1814 C 164.979 1.84088 -1.45427 0
M  V30 1815 C 165.995 1.70545 -0.34501 0
M  V30 1816 O 167.171 1.92488 -0.592492 0
M  V30 1817 C 164.236 3.20056 -1.33286 0
M  V30 1818 C 163.297 3.45718 -2.54514 0
M  V30 1819 C 162.53 4.75199 -2.42944 0
M  V30 1820 O 162.753 5.51579 -1.45318 0
M  V30 1821 O 161.687 5.0161 -3.32672 0
M  V30 1822 H 165.513 1.836 -2.41919 0
M  V30 1823 H 163.098 0.849966 -1.22866 0
M  V30 1824 H 164.98 4.01236 -1.28794 0
M  V30 1825 H 163.655 3.2123 -0.39909 0
M  V30 1826 H 162.562 2.64474 -2.64583 0
M  V30 1827 H 163.895 3.49356 -3.46715 0
M  V30 1828 N 165.547 1.27147 0.931209 0
M  V30 1829 C 166.963 1.04475 1.20653 0
M  V30 1830 C 167.163 -0.223885 2.00252 0
M  V30 1831 O 166.219 -0.930332 2.34736 0
M  V30 1832 C 167.532 2.28209 1.95809 0
M  V30 1833 C 169.08 2.33211 2.08762 0
M  V30 1834 C 169.555 3.56665 2.87323 0
M  V30 1835 N 171.046 3.57201 2.94892 0
M  V30 1836 C 171.781 4.49395 3.56134 0
M  V30 1837 N 171.277 5.51889 4.18796 0
M  V30 1838 N 173.07 4.37026 3.53504 0
M  V30 1839 H 165.221 2.08612 0.399333 0
M  V30 1840 H 167.484 0.917312 0.239253 0
M  V30 1841 H 167.19 3.20538 1.44736 0
M  V30 1842 H 167.064 2.33247 2.96438 0
M  V30 1843 H 169.451 1.41391 2.59023 0
M  V30 1844 H 169.532 2.32178 1.07364 0
M  V30 1845 H 169.176 4.4882 2.37746 0
M  V30 1846 H 169.106 3.54948 3.88998 0
M  V30 1847 H 171.597 2.83074 2.50354 0
M  V30 1848 H 171.91 6.18409 4.63454 0
M  V30 1849 H 170.255 5.55735 4.17353 0
M  V30 1850 H 173.446 3.56166 3.03749 0
M  V30 1851 H 173.619 5.09067 4.00942 0
M  V30 1852 N 167.025 -1.13721 1.09112 0
M  V30 1853 C 168.271 -1.85198 0.826414 0
M  V30 1854 C 168.604 -1.83129 -0.646319 0
M  V30 1855 O 167.879 -1.2671 -1.47563 0
M  V30 1856 C 168.162 -3.33507 1.35812 0
M  V30 1857 C 168.015 -3.44108 2.89672 0
M  V30 1858 C 169.334 -4.28838 0.989256 0
M  V30 1859 H 166.453 -0.67243 0.301675 0
M  V30 1860 H 169.095 -1.33499 1.35197 0
M  V30 1861 H 167.245 -3.77666 0.911082 0
M  V30 1862 H 168.917 -3.08684 3.428 0
M  V30 1863 H 167.16 -2.85087 3.26967 0
M  V30 1864 H 167.831 -4.48388 3.21951 0
M  V30 1865 H 170.307 -3.92734 1.37475 0
M  V30 1866 H 169.183 -5.31051 1.38838 0
M  V30 1867 H 169.444 -4.4198 -0.102924 0
M  V30 1868 N 168.503 -0.877838 -1.30888 0
M  V30 1869 C 169.466 -0.344265 -2.266 0
M  V30 1870 C 170.466 0.50922 -1.52524 0
M  V30 1871 O 171.656 0.317398 -1.71284 0
M  V30 1872 C 168.788 0.510198 -3.37061 0
M  V30 1873 H 169.981 -1.1893 -2.7531 0
M  V30 1874 H 167.534 -0.654088 -1.41956 0
M  V30 1875 H 168.269 1.37612 -2.93655 0
M  V30 1876 H 168.054 -0.101047 -3.9197 0
M  V30 1877 H 169.544 0.875537 -4.08319 0
M  V30 1878 N 169.982 1.44106 -0.638065 0
M  V30 1879 C 171.398 1.56672 -0.304286 0
M  V30 1880 C 171.598 1.6244 1.19228 0
M  V30 1881 O 170.654 1.57121 1.9766 0
M  V30 1882 C 171.967 2.83503 -1.00231 0
M  V30 1883 C 173.515 2.97226 -0.981116 0
M  V30 1884 C 173.99 4.26868 -1.65974 0
M  V30 1885 N 175.481 4.33698 -1.62666 0
M  V30 1886 C 176.216 5.32745 -2.12063 0
M  V30 1887 N 175.712 6.38157 -2.6968 0
M  V30 1888 N 177.505 5.24299 -2.02651 0
M  V30 1889 H 169.656 1.38605 -1.60942 0
M  V30 1890 H 171.919 0.664661 -0.675965 0
M  V30 1891 H 171.625 2.85251 -2.0573 0
M  V30 1892 H 171.499 3.73251 -0.54439 0
M  V30 1893 H 173.886 2.95027 0.0654188 0
M  V30 1894 H 173.967 2.08808 -1.47759 0
M  V30 1895 H 173.611 4.29826 -2.70576 0
M  V30 1896 H 173.541 5.14156 -1.13804 0
M  V30 1897 H 176.032 3.58138 -1.20606 0
M  V30 1898 H 176.345 7.10029 -3.05087 0
M  V30 1899 H 174.69 6.38823 -2.73734 0
M  V30 1900 H 177.881 4.4086 -1.57353 0
M  V30 1901 H 178.054 6.01334 -2.41457 0
M  V30 1902 N 171.46 0.379036 1.52974 0
M  V30 1903 C 172.685 -0.209353 2.06341 0
M  V30 1904 C 173.11 -1.40583 1.24972 0
M  V30 1905 O 172.468 -1.79246 0.272155 0
M  V30 1906 C 172.516 -0.567786 3.56102 0
M  V30 1907 O 171.62 -1.66318 3.77375 0
M  V30 1908 H 170.961 -0.0272919 0.663439 0
M  V30 1909 H 173.491 0.543536 1.97248 0
M  V30 1910 H 173.501 -0.835003 3.99364 0
M  V30 1911 H 172.176 0.307013 4.14765 0
M  V30 1912 H 170.753 -1.39048 3.46006 0
M  V30 1913 N 172.938 -1.57226 0.108567 0
M  V30 1914 C 174.349 -1.8195 -0.418464 0
M  V30 1915 C 174.7 -1.02508 -1.67292 0
M  V30 1916 O 173.825 -0.258496 -2.14851 0
M  V30 1917 C 174.42 -3.30028 -0.765979 0
M  V30 1918 C 172.979 -3.55469 -1.23769 0
M  V30 1919 C 172.126 -2.7625 -0.241106 0
M  V30 1920 H 175.077 -1.55149 0.33384 0
M  V30 1921 H 175.098 -3.44086 -1.62434 0
M  V30 1922 H 174.61 -3.87821 0.147219 0
M  V30 1923 H 172.711 -3.03022 -2.16814 0
M  V30 1924 H 172.824 -4.6408 -1.19022 0
M  V30 1925 H 171.188 -2.44133 -0.72602 0
M  V30 1926 H 171.971 -3.36797 0.665007 0
M  V30 1927 N 174.416 0.165178 -1.56732 0
M  V30 1928 C 175.644 0.896218 -1.86482 0
M  V30 1929 C 176.059 1.75555 -0.694675 0
M  V30 1930 O 175.416 1.79379 0.33607 0
M  V30 1931 C 175.467 1.76792 -3.1532 0
M  V30 1932 O 175.188 0.943239 -4.27825 0
M  V30 1933 C 176.689 2.6081 -3.58459 0
M  V30 1934 H 173.909 0.260064 -0.618553 0
M  V30 1935 H 176.453 0.163428 -2.03846 0
M  V30 1936 H 174.608 2.45398 -2.99764 0
M  V30 1937 H 175.022 1.53998 -5.01383 0
M  V30 1938 H 176.496 3.17579 -4.51495 0
M  V30 1939 H 176.973 3.35977 -2.82872 0
M  V30 1940 H 177.579 1.97526 -3.76648 0
M  V30 1941 N 175.894 1.51508 0.433938 0
M  V30 1942 C 177.143 1.63578 1.18005 0
M  V30 1943 C 177.456 0.359514 1.92268 0
M  V30 1944 O 178.662 0.359632 2.69108 0
M  V30 1945 C 177.118 2.88901 2.14626 0
M  V30 1946 C 176.726 4.23544 1.45995 0
M  V30 1947 C 178.47 3.10328 2.89649 0
M  V30 1948 C 176.377 5.40014 2.4112 0
M  V30 1949 H 175.307 0.609277 0.444182 0
M  V30 1950 H 177.958 1.77978 0.446773 0
M  V30 1951 H 176.34 2.68142 2.91403 0
M  V30 1952 H 177.514 4.54696 0.747532 0
M  V30 1953 H 175.829 4.08021 0.831115 0
M  V30 1954 H 178.426 3.94518 3.60915 0
M  V30 1955 H 178.769 2.23544 3.51189 0
M  V30 1956 H 179.302 3.31443 2.19978 0
M  V30 1957 H 176.041 6.29068 1.84264 0
M  V30 1958 H 175.561 5.13233 3.10406 0
M  V30 1959 H 177.24 5.72099 3.02177 0
M  V30 1960 N 177.372 -0.689602 1.41712 0
M  V30 1961 C 178.6 -1.47827 1.44758 0
M  V30 1962 C 179.015 -1.88721 0.0545703 0
M  V30 1963 O 178.372 -1.57176 -0.927463 0
M  V30 1964 C 178.423 -2.73698 2.3616 0
M  V30 1965 O 178.144 -2.34524 3.7004 0
M  V30 1966 C 179.645 -3.67389 2.48072 0
M  V30 1967 H 176.865 -0.455357 0.49284 0
M  V30 1968 H 179.409 -0.848574 1.86063 0
M  V30 1969 H 177.564 -3.32891 1.98148 0
M  V30 1970 H 177.978 -3.15701 4.18847 0
M  V30 1971 H 179.452 -4.52475 3.16181 0
M  V30 1972 H 179.929 -4.12284 1.51388 0
M  V30 1973 H 180.535 -3.14097 2.86746 0
M  V30 1974 N 178.85 -1.27639 -0.924453 0
M  V30 1975 C 180.098 -1.13941 -1.66918 0
M  V30 1976 C 180.419 0.314589 -1.92446 0
M  V30 1977 O 179.689 1.21964 -1.53303 0
M  V30 1978 H 178.269 -0.418678 -0.618642 0
M  V30 1979 H 180.931 -1.60213 -1.10985 0
M  V30 1980 H 180.027 -1.67094 -2.63602 0
M  V30 1981 N 180.328 1.1314 -1.09713 0
M  V30 1982 C 181.575 1.84484 -0.834987 0
M  V30 1983 C 181.903 1.83689 0.639418 0
M  V30 1984 O 181.158 1.2724 1.4869 0
M  V30 1985 C 181.457 3.32167 -1.3191 0
M  V30 1986 C 181.123 3.53139 -2.80363 0
M  V30 1987 C 179.785 3.58571 -3.20905 0
M  V30 1988 C 182.137 3.60866 -3.76065 0
M  V30 1989 C 179.465 3.69267 -4.55916 0
M  V30 1990 C 181.817 3.73089 -5.10869 0
M  V30 1991 C 180.481 3.76775 -5.50996 0
M  V30 1992 H 179.751 0.675073 -0.305544 0
M  V30 1993 H 182.398 1.33554 -1.37243 0
M  V30 1994 H 180.703 3.85469 -0.701517 0
M  V30 1995 H 182.4 3.85821 -1.09284 0
M  V30 1996 H 178.99 3.49569 -2.47991 0
M  V30 1997 H 183.174 3.55946 -3.45855 0
M  V30 1998 H 178.43 3.70388 -4.86438 0
M  V30 1999 H 182.604 3.78011 -5.84877 0
M  V30 2000 H 180.231 3.84815 -6.55608 0
M  V30 2001 N 181.806 0.884767 1.30421 0
M  V30 2002 C 183.053 0.503105 1.96151 0
M  V30 2003 C 183.381 -0.947676 1.69851 0
M  V30 2004 O 182.636 -1.68467 0.995861 0
M  V30 2005 C 182.935 0.724318 3.49983 0
M  V30 2006 C 182.601 2.15015 3.96332 0
M  V30 2007 C 181.263 2.54005 4.08699 0
M  V30 2008 C 183.615 3.07936 4.20505 0
M  V30 2009 C 180.943 3.85128 4.42599 0
M  V30 2010 C 183.295 4.3859 4.55874 0
M  V30 2011 C 181.959 4.77474 4.66449 0
M  V30 2012 H 181.229 0.184099 0.717766 0
M  V30 2013 H 183.876 1.12058 1.55291 0
M  V30 2014 H 182.181 0.0238086 3.91793 0
M  V30 2015 H 183.878 0.408617 3.98913 0
M  V30 2016 H 180.468 1.8375 3.87213 0
M  V30 2017 H 184.652 2.79033 4.10431 0
M  V30 2018 H 179.908 4.14996 4.48986 0
M  V30 2019 H 184.082 5.10629 4.7353 0
M  V30 2020 H 181.709 5.79115 4.92473 0
M  V30 2021 N 183.284 -1.43765 0.645699 0
M  V30 2022 C 184.247 -2.29163 -0.0409488 0
M  V30 2023 C 185.247 -1.41813 -0.757996 0
M  V30 2024 O 186.437 -1.63527 -0.600382 0
M  V30 2025 C 183.569 -3.23716 -1.06869 0
M  V30 2026 H 184.762 -2.91366 0.710345 0
M  V30 2027 H 182.315 -1.5092 0.406547 0
M  V30 2028 H 183.05 -2.66393 -1.84947 0
M  V30 2029 H 182.835 -3.88105 -0.558277 0
M  V30 2030 H 184.325 -3.87831 -1.54845 0
M  V30 2031 N 184.763 -0.387143 -1.52771 0
M  V30 2032 C 186.174 0.0873634 -1.86495 0
M  V30 2033 C 186.525 1.46336 -1.30691 0
M  V30 2034 O 185.65 2.068 -0.637409 0
M  V30 2035 C 186.245 0.165305 -3.38396 0
M  V30 2036 C 184.804 0.584101 -3.7184 0
M  V30 2037 C 183.951 -0.255279 -2.76122 0
M  V30 2038 H 186.902 -0.605104 -1.46711 0
M  V30 2039 H 186.923 0.984848 -3.67534 0
M  V30 2040 H 186.435 -0.836301 -3.78982 0
M  V30 2041 H 184.536 1.59315 -3.36823 0
M  V30 2042 H 184.649 0.343749 -4.77865 0
M  V30 2043 H 183.013 0.279126 -2.53166 0
M  V30 2044 H 183.796 -1.25482 -3.19545 0
M  V30 2045 N 186.241 1.57166 -0.116904 0
M  V30 2046 C 187.173 2.12271 0.864507 0
M  V30 2047 C 188.186 1.06494 1.23138 0
M  V30 2048 O 189.375 1.33873 1.18069 0
M  V30 2049 C 186.475 2.60564 2.16702 0
M  V30 2050 C 185.648 3.90416 1.97216 0
M  V30 2051 C 184.707 4.24329 3.11178 0
M  V30 2052 O 183.733 4.93182 2.84184 0
M  V30 2053 N 184.935 3.8148 4.37554 0
M  V30 2054 H 187.7 2.97102 0.393726 0
M  V30 2055 H 185.261 1.61759 0.0675805 0
M  V30 2056 H 187.253 2.80282 2.91932 0
M  V30 2057 H 185.823 1.80623 2.55135 0
M  V30 2058 H 185.043 3.79627 1.06192 0
M  V30 2059 H 186.331 4.75327 1.81499 0
M  V30 2060 H 185.729 3.25943 4.62361 0
M  V30 2061 H 184.286 4.06311 5.09661 0
M  V30 2062 N 187.719 -0.156864 1.56817 0
M  V30 2063 C 189.13 -0.717916 1.72345 0
M  V30 2064 C 189.481 -1.82124 0.729747 0
M  V30 2065 O 188.606 -2.16141 -0.105781 0
M  V30 2066 C 189.201 -1.30904 3.12489 0
M  V30 2067 C 187.76 -1.81676 3.29653 0
M  V30 2068 C 186.907 -0.701349 2.68284 0
M  V30 2069 H 189.858 0.0686989 1.58551 0
M  V30 2070 H 189.879 -2.17882 3.11942 0
M  V30 2071 H 189.391 -0.505796 3.8479 0
M  V30 2072 H 187.492 -2.64598 2.62333 0
M  V30 2073 H 187.605 -1.95226 4.3752 0
M  V30 2074 H 185.969 -1.12548 2.28484 0
M  V30 2075 H 186.752 0.0902846 3.43181 0
M  V30 2076 N 189.197 -1.51736 -0.425897 0
M  V30 2077 C 190.127 -1.76827 -1.52494 0
M  V30 2078 C 191.108 -0.618524 -1.58456 0
M  V30 2079 O 192.293 -0.862416 -1.74 0
M  V30 2080 C 189.423 -1.90374 -2.90474 0
M  V30 2081 C 188.377 -3.0588 -2.99369 0
M  V30 2082 C 187.703 -3.04625 -4.3944 0
M  V30 2083 C 189.003 -4.45644 -2.72394 0
M  V30 2084 H 190.697 -2.68855 -1.31748 0
M  V30 2085 H 188.243 -1.29372 -0.632362 0
M  V30 2086 H 190.196 -2.0651 -3.6733 0
M  V30 2087 H 188.92 -0.95004 -3.12477 0
M  V30 2088 H 187.579 -2.89467 -2.24954 0
M  V30 2089 H 187.227 -2.0701 -4.58428 0
M  V30 2090 H 186.927 -3.82195 -4.46319 0
M  V30 2091 H 188.451 -3.22869 -5.18255 0
M  V30 2092 H 189.865 -4.62348 -3.38979 0
M  V30 2093 H 188.262 -5.25006 -2.9067 0
M  V30 2094 H 189.332 -4.54893 -1.67929 0
M  V30 2095 N 190.675 0.682077 -1.42076 0
M  V30 2096 C 191.952 1.43755 -1.32642 0
M  V30 2097 C 192.332 2.11063 0.0396611 0
M  V30 2098 O 191.68 2.02701 1.05474 0
M  V30 2099 C 191.89 2.44596 -2.48946 0
M  V30 2100 C 193.238 3.09454 -2.9073 0
M  V30 2101 O 194.262 2.54922 -2.48783 0
M  V30 2102 O 193.121 4.08253 -3.63307 0
M  V30 2103 H 190.215 0.640857 -0.522715 0
M  V30 2104 H 192.761 0.711415 -1.54068 0
M  V30 2105 H 191.533 1.93609 -3.40046 0
M  V30 2106 H 191.156 3.24701 -2.29467 0
M  V30 2107 N 192.153 1.28127 0.917671 0
M  V30 2108 C 193.083 1.14248 2.03641 0
M  V30 2109 C 194.064 0.0412748 1.7005 0
M  V30 2110 O 195.249 0.217566 1.92977 0
M  V30 2111 C 192.379 0.799431 3.37974 0
M  V30 2112 C 191.333 1.85497 3.85713 0
M  V30 2113 C 190.659 1.36565 5.16966 0
M  V30 2114 C 191.959 3.26085 4.08002 0
M  V30 2115 H 193.653 2.07835 2.15511 0
M  V30 2116 H 191.199 1.00064 1.03553 0
M  V30 2117 H 193.152 0.689114 4.15727 0
M  V30 2118 H 191.876 -0.172145 3.26146 0
M  V30 2119 H 190.535 1.95437 3.10161 0
M  V30 2120 H 190.183 0.383253 5.01538 0
M  V30 2121 H 189.883 2.07143 5.49878 0
M  V30 2122 H 191.407 1.26848 5.97279 0
M  V30 2123 H 192.821 3.19089 4.76293 0
M  V30 2124 H 191.218 3.94462 4.52238 0
M  V30 2125 H 192.288 3.70394 3.12948 0
M  V30 2126 N 193.631 -1.12557 1.10312 0
M  V30 2127 C 194.541 -2.21841 0.763142 0
M  V30 2128 C 195.557 -1.72354 -0.238801 0
M  V30 2129 O 196.733 -2.01249 -0.0778746 0
M  V30 2130 C 193.798 -3.46131 0.198632 0
M  V30 2131 C 192.859 -4.10464 1.25769 0
M  V30 2132 C 192.092 -5.28821 0.72002 0
M  V30 2133 O 192.315 -5.6859 -0.453993 0
M  V30 2134 O 191.249 -5.83437 1.47935 0
M  V30 2135 H 195.075 -2.53312 1.67532 0
M  V30 2136 H 192.66 -1.20867 0.878157 0
M  V30 2137 H 194.542 -4.2125 -0.112401 0
M  V30 2138 H 193.217 -3.16338 -0.686419 0
M  V30 2139 H 192.124 -3.3713 1.62156 0
M  V30 2140 H 193.457 -4.44408 2.11571 0
M  V30 2141 N 195.109 -0.891671 -1.2995 0
M  V30 2142 C 196.52 -0.563104 -1.78006 0
M  V30 2143 C 196.871 0.920978 -1.73241 0
M  V30 2144 O 195.996 1.71987 -1.31337 0
M  V30 2145 C 196.591 -1.01539 -3.23226 0
M  V30 2146 C 195.15 -0.738124 -3.69092 0
M  V30 2147 C 194.297 -1.19461 -2.50249 0
M  V30 2148 H 197.248 -1.07522 -1.16725 0
M  V30 2149 H 197.269 -0.347217 -3.78912 0
M  V30 2150 H 196.781 -2.09555 -3.26662 0
M  V30 2151 H 194.882 0.329766 -3.71138 0
M  V30 2152 H 194.995 -1.33037 -4.60259 0
M  V30 2153 H 193.359 -0.613787 -2.47194 0
M  V30 2154 H 194.142 -2.28265 -2.56417 0
M  V30 2155 N 196.587 1.43421 -0.653314 0
M  V30 2156 C 197.55 2.29182 0.0287951 0
M  V30 2157 C 198.55 1.42213 0.750465 0
M  V30 2158 O 199.74 1.63843 0.591701 0
M  V30 2159 C 196.872 3.24278 1.05151 0
M  V30 2160 H 198.065 2.90985 -0.725786 0
M  V30 2161 H 195.618 1.50702 -0.414545 0
M  V30 2162 H 196.353 2.6737 1.83532 0
M  V30 2163 H 196.138 3.88396 0.537687 0
M  V30 2164 H 197.628 3.88647 1.52786 0
M  V30 2165 N 198.065 0.39524 1.52563 0
M  V30 2166 C 198.995 -0.428384 2.29537 0
M  V30 2167 C 199.976 -1.05831 1.33169 0
M  V30 2168 O 201.161 -1.06995 1.62067 0
M  V30 2169 C 198.291 -1.55274 3.10656 0
M  V30 2170 C 197.245 -1.04855 4.14957 0
M  V30 2171 C 196.571 -2.26543 4.84337 0
M  V30 2172 C 197.871 -0.112324 5.22179 0
M  V30 2173 H 199.565 0.213867 2.98635 0
M  V30 2174 H 197.111 0.104298 1.43622 0
M  V30 2175 H 199.064 -2.1358 3.63265 0
M  V30 2176 H 197.788 -2.22266 2.39302 0
M  V30 2177 H 196.447 -0.487985 3.63338 0
M  V30 2178 H 196.095 -2.92059 4.09525 0
M  V30 2179 H 195.795 -1.93466 5.54837 0
M  V30 2180 H 197.319 -2.85481 5.39753 0
M  V30 2181 H 198.733 -0.603752 5.70112 0
M  V30 2182 H 197.13 0.128968 5.99961 0
M  V30 2183 H 198.2 0.837052 4.77621 0
M  V30 2184 N 199.544 -1.57102 0.125237 0
M  V30 2185 C 200.955 -1.82384 -0.399142 0
M  V30 2186 C 201.306 -1.04276 -1.66195 0
M  V30 2187 O 200.431 -0.281269 -2.14564 0
M  V30 2188 C 201.026 -3.30821 -0.730932 0
M  V30 2189 C 199.585 -3.56762 -1.19992 0
M  V30 2190 C 198.732 -2.7649 -0.211792 0
M  V30 2191 H 201.683 -1.54786 0.350277 0
M  V30 2192 H 201.704 -3.4579 -1.58775 0
M  V30 2193 H 201.216 -3.87643 0.188345 0
M  V30 2194 H 199.317 -3.05305 -2.13588 0
M  V30 2195 H 199.43 -4.65317 -1.14093 0
M  V30 2196 H 197.794 -2.4489 -0.700085 0
M  V30 2197 H 198.577 -3.36073 0.700691 0
M  V30 2198 N 201.022 0.148545 -1.56898 0
M  V30 2199 C 202.433 0.708766 -1.72723 0
M  V30 2200 C 202.784 1.81734 -0.739395 0
M  V30 2201 O 201.909 2.16194 0.0943169 0
M  V30 2202 C 202.504 1.29245 -3.13179 0
M  V30 2203 C 201.063 1.79925 -3.30611 0
M  V30 2204 C 200.21 0.687111 -2.68652 0
M  V30 2205 H 203.161 -0.0771063 -1.58513 0
M  V30 2206 H 203.182 2.16224 -3.13093 0
M  V30 2207 H 202.694 0.485382 -3.85053 0
M  V30 2208 H 200.795 2.63203 -2.63732 0
M  V30 2209 H 200.908 1.92903 -4.38549 0
M  V30 2210 H 199.272 1.11335 -2.29078 0
M  V30 2211 H 200.055 -0.108483 -3.43129 0
M  V30 2212 N 202.5 1.5196 0.417844 0
M  V30 2213 C 203.748 1.65263 1.16329 0
M  V30 2214 C 204.069 0.380634 1.91249 0
M  V30 2215 O 203.339 -0.604214 1.86349 0
M  V30 2216 H 201.919 0.60912 0.432414 0
M  V30 2217 H 204.581 1.88969 0.477162 0
M  V30 2218 H 203.677 2.4896 1.88217 0
M  V30 2219 N 203.978 -0.674533 1.42435 0
M  V30 2220 C 205.203 -1.46784 1.46524 0
M  V30 2221 C 205.628 -1.87938 0.078066 0
M  V30 2222 O 204.986 -1.56014 -0.92354 0
M  V30 2223 C 205.034 -2.69307 2.39805 0
M  V30 2224 O 204.138 -3.67587 1.86959 0
M  V30 2225 H 203.479 -0.440959 0.496439 0
M  V30 2226 H 206.009 -0.827326 1.87127 0
M  V30 2227 H 206.019 -3.17374 2.56393 0
M  V30 2228 H 204.694 -2.38692 3.40586 0
M  V30 2229 H 203.271 -3.2662 1.79927 0
M  V30 2230 N 205.456 -1.28612 -0.910864 0
M  V30 2231 C 206.872 -1.06381 -1.18976 0
M  V30 2232 C 207.072 0.191998 -2.00583 0
M  V30 2233 O 206.128 0.892869 -2.36187 0
M  V30 2234 C 207.441 -2.31295 -1.92154 0
M  V30 2235 C 208.989 -2.36503 -2.05025 0
M  V30 2236 C 209.464 -3.61191 -2.81612 0
M  V30 2237 N 210.955 -3.61847 -2.89172 0
M  V30 2238 C 211.69 -4.55004 -3.4894 0
M  V30 2239 N 211.186 -5.58482 -4.09963 0
M  V30 2240 N 212.979 -4.42594 -3.46506 0
M  V30 2241 H 205.13 -2.09221 -0.366094 0
M  V30 2242 H 207.393 -0.921003 -0.224629 0
M  V30 2243 H 207.099 -3.228 -1.39618 0
M  V30 2244 H 206.973 -2.37934 -2.9269 0
M  V30 2245 H 209.36 -1.45494 -2.5674 0
M  V30 2246 H 209.441 -2.33857 -1.03657 0
M  V30 2247 H 209.085 -4.52545 -2.30576 0
M  V30 2248 H 209.015 -3.61092 -3.83302 0
M  V30 2249 H 211.506 -2.87022 -2.45819 0
M  V30 2250 H 211.819 -6.25704 -4.53557 0
M  V30 2251 H 210.164 -5.62305 -4.08459 0
M  V30 2252 H 213.355 -3.60953 -2.98045 0
M  V30 2253 H 213.528 -5.15381 -3.92793 0
M  V30 2254 N 206.934 1.1197 -1.10907 0
M  V30 2255 C 208.18 1.8386 -0.855773 0
M  V30 2256 C 208.513 1.84134 0.617103 0
M  V30 2257 O 207.788 1.29041 1.45529 0
M  V30 2258 C 208.071 3.31305 -1.411 0
M  V30 2259 C 207.924 3.39456 -2.9511 0
M  V30 2260 C 209.243 4.2721 -1.05736 0
M  V30 2261 H 206.362 0.667545 -0.312334 0
M  V30 2262 H 209.004 1.31331 -1.37303 0
M  V30 2263 H 207.154 3.76169 -0.97105 0
M  V30 2264 H 208.826 3.03191 -3.47668 0
M  V30 2265 H 207.069 2.79849 -3.31462 0
M  V30 2266 H 207.74 4.43209 -3.29044 0
M  V30 2267 H 210.216 3.90497 -1.43706 0
M  V30 2268 H 209.092 5.28775 -1.47269 0
M  V30 2269 H 209.353 4.42088 0.0325958 0
M  V30 2270 N 208.412 0.89855 1.29475 0
M  V30 2271 C 209.661 0.519863 1.94885 0
M  V30 2272 C 209.974 -0.9383 1.71625 0
M  V30 2273 O 211.18 -1.42445 2.31131 0
M  V30 2274 C 209.636 0.878836 3.49005 0
M  V30 2275 C 209.244 2.35569 3.81066 0
M  V30 2276 C 210.988 0.570004 4.20656 0
M  V30 2277 C 208.895 2.65558 5.28425 0
M  V30 2278 H 207.825 0.190692 0.729488 0
M  V30 2279 H 210.476 1.09539 1.47219 0
M  V30 2280 H 208.858 0.232253 3.95318 0
M  V30 2281 H 210.032 3.04773 3.45616 0
M  V30 2282 H 208.347 2.63343 3.22552 0
M  V30 2283 H 210.944 0.770925 5.29113 0
M  V30 2284 H 211.287 -0.491404 4.1339 0
M  V30 2285 H 211.82 1.17438 3.8007 0
M  V30 2286 H 208.559 3.70493 5.40754 0
M  V30 2287 H 208.079 2.00977 5.65127 0
M  V30 2288 H 209.758 2.51765 5.96006 0
M  V30 2289 N 209.89 -1.43072 0.660911 0
M  V30 2290 C 210.82 -2.33497 -0.0122829 0
M  V30 2291 C 211.801 -1.49903 -0.803925 0
M  V30 2292 O 212.986 -1.78546 -0.763864 0
M  V30 2293 C 210.116 -3.33363 -0.973994 0
M  V30 2294 C 209.07 -4.27003 -0.291928 0
M  V30 2295 C 208.396 -5.16967 -1.36562 0
M  V30 2296 C 209.696 -5.15816 0.820462 0
M  V30 2297 H 211.39 -2.90038 0.742873 0
M  V30 2298 H 208.936 -1.39461 0.358688 0
M  V30 2299 H 210.889 -3.95524 -1.45392 0
M  V30 2300 H 209.613 -2.75095 -1.7604 0
M  V30 2301 H 208.272 -3.66217 0.167623 0
M  V30 2302 H 207.92 -4.55034 -2.14366 0
M  V30 2303 H 207.62 -5.80441 -0.914454 0
M  V30 2304 H 209.144 -5.82003 -1.84675 0
M  V30 2305 H 210.558 -5.71742 0.422366 0
M  V30 2306 H 208.955 -5.8805 1.19656 0
M  V30 2307 H 210.025 -4.55045 1.67518 0
M  V30 2308 N 211.368 -0.403325 -1.52352 0
M  V30 2309 C 212.779 0.0675782 -1.86578 0
M  V30 2310 C 213.13 1.44941 -1.32236 0
M  V30 2311 O 212.255 2.06112 -0.659307 0
M  V30 2312 C 212.85 0.129404 -3.38553 0
M  V30 2313 C 211.409 0.544629 -3.72439 0
M  V30 2314 C 210.556 -0.284551 -2.75836 0
M  V30 2315 H 213.507 -0.620631 -1.46061 0
M  V30 2316 H 213.528 0.94581 -3.68558 0
M  V30 2317 H 213.04 -0.87645 -3.78074 0
M  V30 2318 H 211.141 1.55734 -3.38493 0
M  V30 2319 H 211.254 0.293046 -4.78203 0
M  V30 2320 H 209.618 0.252258 -2.53448 0
M  V30 2321 H 210.401 -1.28865 -3.18196 0
M  V30 2322 N 212.846 1.57033 -0.133567 0
M  V30 2323 C 214.074 2.00044 0.528195 0
M  V30 2324 C 214.489 1.01349 1.59291 0
M  V30 2325 O 213.846 0.00848369 1.82498 0
M  V30 2326 C 213.897 3.43018 1.1411 0
M  V30 2327 O 213.618 4.37939 0.11892 0
M  V30 2328 C 215.119 4.01237 1.88477 0
M  V30 2329 H 212.339 0.656517 0.138661 0
M  V30 2330 H 214.883 2.03267 -0.224196 0
M  V30 2331 H 213.038 3.40688 1.84418 0
M  V30 2332 H 213.452 5.21436 0.56613 0
M  V30 2333 H 214.926 5.03314 2.26669 0
M  V30 2334 H 215.403 3.41193 2.76558 0
M  V30 2335 H 216.009 4.07156 1.22898 0
M  V30 2336 N 214.325 -0.140222 1.56975 0
M  V30 2337 C 215.736 -0.699596 1.73097 0
M  V30 2338 C 216.087 -1.8134 0.749022 0
M  V30 2339 O 215.212 -2.16241 -0.0828503 0
M  V30 2340 C 215.807 -1.27582 3.1386 0
M  V30 2341 C 214.366 -1.78169 3.31561 0
M  V30 2342 C 213.513 -0.672855 2.69013 0
M  V30 2343 H 216.464 0.0855115 1.58469 0
M  V30 2344 H 216.485 -2.14561 3.14235 0
M  V30 2345 H 215.997 -0.464955 3.85305 0
M  V30 2346 H 214.098 -2.61801 2.65124 0
M  V30 2347 H 214.211 -1.90574 4.39566 0
M  V30 2348 H 212.575 -1.10118 2.29665 0
M  V30 2349 H 213.358 0.126679 3.43066 0
M  V30 2350 N 215.803 -1.52179 -0.40978 0
M  V30 2351 C 216.713 -1.78364 -1.52392 0
M  V30 2352 C 217.729 -0.669183 -1.60617 0
M  V30 2353 O 218.905 -0.954518 -1.77344 0
M  V30 2354 C 215.97 -1.92822 -2.88133 0
M  V30 2355 C 215.031 -3.16725 -2.898 0
M  V30 2356 C 214.264 -3.30483 -4.19067 0
M  V30 2357 O 214.487 -2.49522 -5.12928 0
M  V30 2358 O 213.421 -4.2363 -4.27576 0
M  V30 2359 H 217.247 -2.72931 -1.33201 0
M  V30 2360 H 214.832 -1.37016 -0.59557 0
M  V30 2361 H 216.714 -2.04157 -3.68643 0
M  V30 2362 H 215.389 -1.01444 -3.07393 0
M  V30 2363 H 214.296 -3.10848 -2.08146 0
M  V30 2364 H 215.629 -4.07881 -2.75489 0
M  V30 2365 N 217.281 0.66697 -1.42791 0
M  V30 2366 C 218.191 1.80962 -1.49299 0
M  V30 2367 C 219.207 1.69775 -0.381108 0
M  V30 2368 O 220.383 1.91188 -0.633188 0
M  V30 2369 C 217.448 3.17156 -1.40045 0
M  V30 2370 C 216.509 3.40242 -2.6179 0
M  V30 2371 C 215.742 4.69939 -2.52969 0
M  V30 2372 O 215.965 5.48372 -1.56985 0
M  V30 2373 O 214.899 4.94441 -3.43237 0
M  V30 2374 H 218.725 1.78427 -2.45759 0
M  V30 2375 H 216.31 0.823713 -1.24641 0
M  V30 2376 H 218.192 3.98413 -1.37276 0
M  V30 2377 H 216.867 3.20312 -0.467138 0
M  V30 2378 H 215.774 2.58802 -2.70134 0
M  V30 2379 H 217.107 3.41923 -3.54047 0
M  V30 2380 N 218.759 1.29093 0.90403 0
M  V30 2381 C 219.691 1.09658 2.01266 0
M  V30 2382 C 220.704 0.0453729 1.62737 0
M  V30 2383 O 221.893 0.289446 1.76138 0
M  V30 2384 C 218.993 0.646278 3.32681 0
M  V30 2385 C 218.166 1.77505 3.99763 0
M  V30 2386 C 217.225 1.31649 5.09465 0
M  V30 2387 O 216.251 2.02045 5.32134 0
M  V30 2388 N 217.453 0.184997 5.80205 0
M  V30 2389 H 220.218 2.05135 2.18494 0
M  V30 2390 H 217.779 1.20975 1.07594 0
M  V30 2391 H 219.771 0.322906 4.0341 0
M  V30 2392 H 218.341 -0.215916 3.11853 0
M  V30 2393 H 217.561 2.26752 3.22455 0
M  V30 2394 H 218.849 2.53198 4.41325 0
M  V30 2395 H 218.247 -0.402021 5.6427 0
M  V30 2396 H 216.804 -0.0790358 6.51752 0
M  V30 2397 N 220.237 -1.11381 1.11499 0
M  V30 2398 C 221.648 -1.6465 0.880191 0
M  V30 2399 C 221.999 -1.87199 -0.587434 0
M  V30 2400 O 221.124 -1.60667 -1.44966 0
M  V30 2401 C 221.719 -2.99105 1.59128 0
M  V30 2402 C 220.278 -3.49279 1.40289 0
M  V30 2403 C 219.425 -2.24077 1.63354 0
M  V30 2404 H 222.376 -0.950123 1.27116 0
M  V30 2405 H 222.397 -3.66107 1.03664 0
M  V30 2406 H 221.909 -2.82661 2.65941 0
M  V30 2407 H 220.01 -3.70887 0.356888 0
M  V30 2408 H 220.123 -4.2803 2.15238 0
M  V30 2409 H 218.487 -2.31733 1.05698 0
M  V30 2410 H 219.27 -2.10175 2.71443 0
M  V30 2411 N 221.715 -0.905404 -1.28997 0
M  V30 2412 C 222.645 -0.404212 -2.29975 0
M  V30 2413 C 223.626 0.523784 -1.61835 0
M  V30 2414 O 224.811 0.433298 -1.89304 0
M  V30 2415 C 221.941 0.364042 -3.45387 0
M  V30 2416 C 220.895 -0.474048 -4.25367 0
M  V30 2417 C 220.221 0.422045 -5.33032 0
M  V30 2418 C 221.521 -1.72696 -4.92923 0
M  V30 2419 H 223.215 -1.24807 -2.72146 0
M  V30 2420 H 220.761 -0.601585 -1.30832 0
M  V30 2421 H 222.714 0.725447 -4.15109 0
M  V30 2422 H 221.438 1.24174 -3.02074 0
M  V30 2423 H 220.097 -0.81786 -3.57361 0
M  V30 2424 H 219.745 1.29804 -4.85963 0
M  V30 2425 H 219.445 -0.135057 -5.87445 0
M  V30 2426 H 220.969 0.779517 -6.05604 0
M  V30 2427 H 222.383 -1.43495 -5.55051 0
M  V30 2428 H 220.78 -2.22582 -5.57295 0
M  V30 2429 H 221.85 -2.45964 -4.17887 0
M  V30 2430 N 223.193 1.4272 -0.668489 0
M  V30 2431 C 224.418 2.06484 -0.194758 0
M  V30 2432 C 224.843 1.49862 1.13679 0
M  V30 2433 O 224.201 0.614582 1.70565 0
M  V30 2434 C 224.249 3.60353 -0.133546 0
M  V30 2435 O 223.353 4.02464 0.899806 0
M  V30 2436 H 222.694 0.656137 -0.10188 0
M  V30 2437 H 225.224 1.82964 -0.915722 0
M  V30 2438 H 225.234 4.07976 0.0447041 0
M  V30 2439 H 223.909 4.00938 -1.1055 0
M  V30 2440 H 222.486 3.66402 0.693109 0
M  V30 2441 N 224.671 0.411399 1.52136 0
M  V30 2442 C 226.087 0.0623865 1.59478 0
M  V30 2443 C 226.287 -1.42554 1.4241 0
M  V30 2444 O 225.343 -2.19263 1.2522 0
M  V30 2445 C 226.656 0.559331 2.95452 0
M  V30 2446 C 228.204 0.517503 3.08692 0
M  V30 2447 C 228.679 0.990994 4.4715 0
M  V30 2448 N 230.17 0.947908 4.53397 0
M  V30 2449 C 230.905 1.28544 5.58806 0
M  V30 2450 N 230.401 1.69454 6.71757 0
M  V30 2451 N 232.194 1.20526 5.49026 0
M  V30 2452 H 224.345 1.37982 1.61477 0
M  V30 2453 H 226.608 0.566977 0.759764 0
M  V30 2454 H 226.314 1.59938 3.1323 0
M  V30 2455 H 226.188 -0.0298014 3.77188 0
M  V30 2456 H 228.575 -0.513505 2.90598 0
M  V30 2457 H 228.656 1.14272 2.28857 0
M  V30 2458 H 228.3 2.02034 4.65988 0
M  V30 2459 H 228.23 0.34257 5.25485 0
M  V30 2460 H 230.721 0.647157 3.72317 0
M  V30 2461 H 231.034 1.93513 7.48179 0
M  V30 2462 H 229.379 1.73359 6.73032 0
M  V30 2463 H 232.57 0.884505 4.59667 0
M  V30 2464 H 232.743 1.47161 6.31069 0
M  V30 2465 N 226.149 -1.5696 0.141893 0
M  V30 2466 C 227.112 -2.15316 -0.785587 0
M  V30 2467 C 228.112 -1.09366 -1.1788 0
M  V30 2468 O 229.302 -1.35031 -1.10056 0
M  V30 2469 C 226.434 -2.71211 -2.06537 0
M  V30 2470 H 227.627 -2.98608 -0.278041 0
M  V30 2471 H 225.18 -1.5593 -0.107519 0
M  V30 2472 H 225.915 -1.91571 -2.6167 0
M  V30 2473 H 225.7 -3.4872 -1.79268 0
M  V30 2474 H 227.19 -3.16189 -2.72789 0
M  V30 2475 N 227.627 0.131896 -1.57047 0
M  V30 2476 C 228.59 1.14638 -1.98471 0
M  V30 2477 C 229.59 1.35029 -0.873148 0
M  V30 2478 O 230.78 1.31764 -1.13946 0
M  V30 2479 C 227.912 2.50358 -2.31373 0
M  V30 2480 H 229.105 0.79064 -2.8929 0
M  V30 2481 H 226.658 0.375761 -1.51716 0
M  V30 2482 H 227.393 2.90876 -1.43393 0
M  V30 2483 H 227.178 2.36915 -3.12432 0
M  V30 2484 H 228.668 3.23395 -2.64207 0
M  V30 2485 N 229.106 1.52395 0.401703 0
M  V30 2486 C 230.354 1.66488 1.14569 0
M  V30 2487 C 230.675 0.400897 1.90835 0
M  V30 2488 O 229.945 -0.584415 1.8698 0
M  V30 2489 H 228.525 0.613672 0.425929 0
M  V30 2490 H 231.187 1.89464 0.457093 0
M  V30 2491 H 230.283 2.50942 1.85566 0
M  V30 2492 N 230.584 -0.659388 1.43143 0
M  V30 2493 C 232 -0.974337 1.26407 0
M  V30 2494 C 232.2 -2.007 0.179341 0
M  V30 2495 O 231.256 -2.4856 -0.444295 0
M  V30 2496 C 232.569 -1.46447 2.62628 0
M  V30 2497 C 234.117 -1.58144 2.7011 0
M  V30 2498 C 234.592 -2.1055 4.06734 0
M  V30 2499 N 236.083 -2.17861 4.08767 0
M  V30 2500 C 236.818 -2.59519 5.1131 0
M  V30 2501 N 236.314 -3.00518 6.24228 0
M  V30 2502 N 238.107 -2.59404 4.98664 0
M  V30 2503 H 230.258 0.0240528 2.12386 0
M  V30 2504 H 232.521 -0.0518065 0.946583 0
M  V30 2505 H 232.227 -0.780123 3.42939 0
M  V30 2506 H 232.101 -2.44058 2.87603 0
M  V30 2507 H 234.488 -2.25682 1.90136 0
M  V30 2508 H 234.569 -0.589828 2.48907 0
M  V30 2509 H 234.213 -1.43616 4.87172 0
M  V30 2510 H 234.143 -3.10531 4.25298 0
M  V30 2511 H 236.634 -1.88975 3.27257 0
M  V30 2512 H 236.947 -3.31036 6.98309 0
M  V30 2513 H 235.292 -2.98337 6.2771 0
M  V30 2514 H 238.483 -2.26747 4.09516 0
M  V30 2515 H 238.656 -2.91548 5.78709 0
M  V30 2516 N 232.062 -1.29571 -0.897171 0
M  V30 2517 C 232.992 -1.17473 -2.01798 0
M  V30 2518 C 233.973 -0.068323 -1.69963 0
M  V30 2519 O 235.158 -0.248239 -1.92607 0
M  V30 2520 C 232.288 -0.853099 -3.36659 0
M  V30 2521 C 231.242 -1.9161 -3.82713 0
M  V30 2522 C 230.568 -1.44773 -5.14728 0
M  V30 2523 C 231.868 -3.32535 -4.02763 0
M  V30 2524 H 233.562 -2.11237 -2.12177 0
M  V30 2525 H 231.108 -1.01699 -1.01948 0
M  V30 2526 H 233.061 -0.755165 -4.14578 0
M  V30 2527 H 231.785 0.120236 -3.26379 0
M  V30 2528 H 230.444 -2.00346 -3.07013 0
M  V30 2529 H 230.092 -0.462995 -5.00865 0
M  V30 2530 H 229.792 -2.15865 -5.46513 0
M  V30 2531 H 231.316 -1.36334 -5.95185 0
M  V30 2532 H 232.73 -3.26626 -4.71156 0
M  V30 2533 H 231.127 -4.01607 -4.45905 0
M  V30 2534 H 232.197 -3.75326 -3.07016 0
M  V30 2535 N 233.54 1.10788 -1.12088 0
M  V30 2536 C 234.765 1.87002 -0.896949 0
M  V30 2537 C 235.19 1.79933 0.548261 0
M  V30 2538 O 234.548 1.16662 1.38779 0
M  V30 2539 C 234.596 3.3349 -1.37174 0
M  V30 2540 O 233.7 4.08745 -0.547831 0
M  V30 2541 H 233.041 0.580397 -0.322545 0
M  V30 2542 H 235.571 1.39996 -1.49206 0
M  V30 2543 H 235.581 3.84339 -1.36922 0
M  V30 2544 H 234.256 3.37951 -2.42408 0
M  V30 2545 H 232.833 3.6776 -0.617034 0
M  V30 2546 N 235.018 0.912232 1.28515 0
M  V30 2547 C 236.267 0.540504 1.94323 0
M  V30 2548 C 236.58 -0.920044 1.72611 0
M  V30 2549 O 237.786 -1.39986 2.32629 0
M  V30 2550 C 236.242 0.915803 3.48053 0
M  V30 2551 C 235.85 2.39598 3.78546 0
M  V30 2552 C 237.594 0.614588 4.20027 0
M  V30 2553 C 235.501 2.71148 5.25578 0
M  V30 2554 H 234.431 0.198418 0.727424 0
M  V30 2555 H 237.082 1.11094 1.46049 0
M  V30 2556 H 235.464 0.274168 3.9505 0
M  V30 2557 H 236.638 3.08422 3.42364 0
M  V30 2558 H 234.953 2.66749 3.1974 0
M  V30 2559 H 237.55 0.827002 5.28266 0
M  V30 2560 H 237.893 -0.447531 4.13887 0
M  V30 2561 H 238.426 1.21462 3.78803 0
M  V30 2562 H 235.165 3.76207 5.36794 0
M  V30 2563 H 234.685 2.0696 5.62963 0
M  V30 2564 H 236.364 2.58072 5.93302 0
M  V30 2565 N 236.496 -1.42363 0.676048 0
M  V30 2566 C 237.446 -2.27987 -0.0242903 0
M  V30 2567 C 238.43 -1.41153 -0.772319 0
M  V30 2568 O 239.622 -1.64592 -0.651025 0
M  V30 2569 C 236.751 -3.29195 -0.973953 0
M  V30 2570 C 235.837 -4.23512 -0.223202 0
M  V30 2571 N 236.228 -4.99865 0.772589 0
M  V30 2572 C 234.526 -4.43606 -0.461469 0
M  V30 2573 C 235.227 -5.68757 1.22027 0
M  V30 2574 N 234.203 -5.40811 0.549975 0
M  V30 2575 H 238.005 -2.84445 0.73949 0
M  V30 2576 H 235.519 -1.54341 0.50522 0
M  V30 2577 H 237.516 -3.89339 -1.49067 0
M  V30 2578 H 236.176 -2.74298 -1.73755 0
M  V30 2579 H 237.187 -5.04921 1.15217 0
M  V30 2580 H 233.864 -3.99749 -1.20446 0
M  V30 2581 H 235.254 -6.40007 2.0455 0
M  V30 2582 N 237.974 -0.419461 -1.51915 0
M  V30 2583 C 239.199 0.154572 -2.06823 0
M  V30 2584 C 239.624 1.3722 -1.28656 0
M  V30 2585 O 238.982 1.78461 -0.319583 0
M  V30 2586 C 239.03 0.473172 -3.57482 0
M  V30 2587 O 238.134 1.56255 -3.81652 0
M  V30 2588 H 237.475 0.0096924 -0.663929 0
M  V30 2589 H 240.005 -0.595642 -1.95738 0
M  V30 2590 H 240.015 0.728825 -4.01438 0
M  V30 2591 H 238.69 -0.416873 -4.13805 0
M  V30 2592 H 237.267 1.29825 -3.49571 0
M  V30 2593 N 239.452 1.56882 -0.150215 0
M  V30 2594 C 240.382 2.19935 0.784284 0
M  V30 2595 C 241.363 1.14854 1.25469 0
M  V30 2596 O 242.548 1.43209 1.31168 0
M  V30 2597 C 239.678 2.82349 2.02229 0
M  V30 2598 C 238.632 3.93285 1.68853 0
M  V30 2599 C 237.958 4.42649 2.99944 0
M  V30 2600 C 239.258 5.13904 0.932714 0
M  V30 2601 H 240.952 2.9828 0.258781 0
M  V30 2602 H 238.498 1.43473 0.123029 0
M  V30 2603 H 240.451 3.25126 2.68088 0
M  V30 2604 H 239.175 2.0134 2.57157 0
M  V30 2605 H 237.834 3.5113 1.05371 0
M  V30 2606 H 237.482 3.58458 3.52869 0
M  V30 2607 H 237.182 5.17476 2.78374 0
M  V30 2608 H 238.706 4.88099 3.66868 0
M  V30 2609 H 240.12 5.53506 1.49345 0
M  V30 2610 H 238.517 5.94515 0.81684 0
M  V30 2611 H 239.587 4.84842 -0.0749568 0
M  V30 2612 N 240.93 -0.123565 1.57115 0
M  V30 2613 C 241.84 -1.17074 2.033 0
M  V30 2614 C 242.856 -1.4561 0.952559 0
M  V30 2615 O 244.032 -1.56817 1.26374 0
M  V30 2616 C 241.097 -2.47857 2.42421 0
M  V30 2617 C 240.158 -2.26758 3.64526 0
M  V30 2618 C 239.391 -3.51305 4.01771 0
M  V30 2619 O 239.614 -4.5843 3.39409 0
M  V30 2620 O 238.548 -3.42578 4.94898 0
M  V30 2621 H 242.374 -0.808555 2.92739 0
M  V30 2622 H 239.959 -0.334027 1.45618 0
M  V30 2623 H 241.841 -3.2492 2.68338 0
M  V30 2624 H 240.516 -2.83558 1.5613 0
M  V30 2625 H 239.423 -1.47569 3.43765 0
M  V30 2626 H 240.756 -1.95963 4.51508 0
M  V30 2627 N 242.408 -1.52605 -0.393616 0
M  V30 2628 C 243.371 -1.76415 -1.46323 0
M  V30 2629 C 244.371 -0.634126 -1.47768 0
M  V30 2630 O 245.561 -0.902142 -1.4902 0
M  V30 2631 C 242.693 -1.8607 -2.85641 0
M  V30 2632 H 243.886 -2.71916 -1.26498 0
M  V30 2633 H 241.439 -1.43257 -0.625073 0
M  V30 2634 H 242.174 -0.925378 -3.10817 0
M  V30 2635 H 241.959 -2.68235 -2.85993 0
M  V30 2636 H 243.449 -2.06179 -3.63153 0
M  V30 2637 N 243.887 0.651787 -1.4349 0
M  V30 2638 C 244.819 1.77725 -1.44729 0
M  V30 2639 C 245.832 1.59141 -0.343231 0
M  V30 2640 O 247.021 1.67835 -0.607751 0
M  V30 2641 C 244.121 3.15172 -1.24579 0
M  V30 2642 C 243.294 3.60402 -2.47849 0
M  V30 2643 C 242.353 4.76656 -2.22902 0
M  V30 2644 O 241.379 4.86022 -2.96263 0
M  V30 2645 N 242.581 5.66958 -1.24656 0
M  V30 2646 H 245.346 1.77141 -2.41746 0
M  V30 2647 H 242.907 0.835678 -1.38665 0
M  V30 2648 H 244.899 3.90634 -1.0577 0
M  V30 2649 H 243.469 3.1052 -0.360015 0
M  V30 2650 H 242.689 2.75369 -2.82073 0
M  V30 2651 H 243.977 3.87368 -3.29884 0
M  V30 2652 H 243.375 5.62065 -0.640265 0
M  V30 2653 H 241.932 6.42135 -1.1183 0
M  V30 2654 N 245.365 1.30045 0.890287 0
M  V30 2655 C 246.59 1.21598 1.68014 0
M  V30 2656 C 247.015 -0.218678 1.86825 0
M  V30 2657 O 246.373 -1.15756 1.39536 0
M  V30 2658 C 246.421 1.94434 3.03691 0
M  V30 2659 O 245.525 1.2678 3.92429 0
M  V30 2660 H 244.866 0.420856 0.513592 0
M  V30 2661 H 247.396 1.71775 1.11151 0
M  V30 2662 H 247.406 2.03251 3.5377 0
M  V30 2663 H 246.081 2.98777 2.89318 0
M  V30 2664 H 244.658 1.26282 3.50866 0
M  V30 2665 N 246.843 -1.10192 1.12674 0
M  V30 2666 C 247.773 -2.18652 0.819362 0
M  V30 2667 C 248.754 -1.68698 -0.217915 0
M  V30 2668 O 249.939 -1.94041 -0.0785581 0
M  V30 2669 C 247.069 -3.46202 0.27594 0
M  V30 2670 C 246.023 -4.09444 1.24656 0
M  V30 2671 C 245.349 -5.31725 0.563258 0
M  V30 2672 C 246.649 -4.52863 2.60217 0
M  V30 2673 H 248.343 -2.44622 1.72628 0
M  V30 2674 H 245.889 -1.17571 0.831451 0
M  V30 2675 H 247.842 -4.21372 0.0486149 0
M  V30 2676 H 246.566 -3.1973 -0.666331 0
M  V30 2677 H 245.225 -3.36284 1.45974 0
M  V30 2678 H 244.873 -5.0153 -0.384235 0
M  V30 2679 H 244.573 -5.74991 1.21075 0
M  V30 2680 H 246.097 -6.09624 0.34503 0
M  V30 2681 H 247.511 -5.19294 2.42913 0
M  V30 2682 H 245.908 -5.06986 3.21068 0
M  V30 2683 H 246.978 -3.65656 3.18471 0
M  V30 2684 N 248.321 -0.919034 -1.28029 0
M  V30 2685 C 249.737 -0.617972 -1.4715 0
M  V30 2686 C 249.937 0.835242 -1.83374 0
M  V30 2687 O 248.993 1.61388 -1.94191 0
M  V30 2688 C 250.306 -1.56041 -2.57044 0
M  V30 2689 C 251.854 -1.56769 -2.7091 0
M  V30 2690 C 252.329 -2.49688 -3.83953 0
M  V30 2691 N 253.82 -2.47845 -3.91314 0
M  V30 2692 C 254.555 -3.16437 -4.78179 0
M  V30 2693 N 254.051 -3.94376 -5.69596 0
M  V30 2694 N 255.844 -3.05498 -4.71834 0
M  V30 2695 H 247.995 -1.85866 -1.02798 0
M  V30 2696 H 250.258 -0.797506 -0.512531 0
M  V30 2697 H 249.964 -2.59671 -2.372 0
M  V30 2698 H 249.838 -1.29551 -3.54255 0
M  V30 2699 H 252.225 -0.538745 -2.90141 0
M  V30 2700 H 252.306 -1.87305 -1.74214 0
M  V30 2701 H 251.95 -3.52688 -3.65477 0
M  V30 2702 H 251.88 -2.16453 -4.80058 0
M  V30 2703 H 254.371 -1.91234 -3.25941 0
M  V30 2704 H 254.684 -4.43721 -6.32718 0
M  V30 2705 H 253.029 -3.98481 -5.69419 0
M  V30 2706 H 256.22 -2.44108 -3.99411 0
M  V30 2707 H 256.393 -3.59225 -5.39316 0
M  V30 2708 N 249.799 1.42003 -0.683588 0
M  V30 2709 C 251.039 2.03282 -0.213513 0
M  V30 2710 C 251.403 1.52924 1.16097 0
M  V30 2711 O 252.604 2.06048 1.7262 0
M  V30 2712 C 250.875 3.56483 -0.255856 0
M  V30 2713 S 252.434 4.3857 0.14193 0
M  V30 2714 H 249.252 0.705659 -0.0869853 0
M  V30 2715 H 251.854 1.73619 -0.8987 0
M  V30 2716 H 250.558 3.90631 -1.25841 0
M  V30 2717 H 250.089 3.90831 0.448875 0
M  V30 2718 H 252.104 4.76828 1.37295 0
M  V30 2719 N 251.277 0.427512 1.51691 0
M  V30 2720 C 252.207 -0.3796 2.30394 0
M  V30 2721 C 253.188 -1.02982 1.35384 0
M  V30 2722 O 254.373 -1.03534 1.643 0
M  V30 2723 C 251.503 -1.48649 3.1388 0
M  V30 2724 C 250.457 -0.960294 4.17088 0
M  V30 2725 C 249.783 -2.16219 4.89033 0
M  V30 2726 C 251.083 -0.00153679 5.223 0
M  V30 2727 H 252.777 0.277164 2.98114 0
M  V30 2728 H 250.323 0.134739 1.43368 0
M  V30 2729 H 252.276 -2.05826 3.67714 0
M  V30 2730 H 251 -2.1714 2.43962 0
M  V30 2731 H 249.659 -0.410806 3.64291 0
M  V30 2732 H 249.307 -2.83307 4.15628 0
M  V30 2733 H 249.007 -1.81654 5.58816 0
M  V30 2734 H 250.531 -2.73968 5.45687 0
M  V30 2735 H 251.945 -0.482687 5.71264 0
M  V30 2736 H 250.342 0.256199 5.99553 0
M  V30 2737 H 251.412 0.938174 4.75738 0
M  V30 2738 N 252.755 -1.56801 0.158532 0
M  V30 2739 C 253.687 -2.14488 -0.807923 0
M  V30 2740 C 254.7 -1.09721 -1.20271 0
M  V30 2741 O 255.889 -1.36956 -1.14478 0
M  V30 2742 C 252.989 -2.66217 -2.09718 0
M  V30 2743 C 252.162 -3.95507 -1.86796 0
M  V30 2744 C 251.221 -4.3243 -2.99818 0
M  V30 2745 O 250.247 -5.00543 -2.71008 0
M  V30 2746 N 251.449 -3.92947 -4.27285 0
M  V30 2747 H 254.214 -2.98042 -0.314816 0
M  V30 2748 H 251.775 -1.61881 -0.0246692 0
M  V30 2749 H 253.767 -2.87924 -2.84398 0
M  V30 2750 H 252.337 -1.87324 -2.50257 0
M  V30 2751 H 251.557 -3.82309 -0.96089 0
M  V30 2752 H 252.845 -4.79972 -1.68833 0
M  V30 2753 H 252.243 -3.38087 -4.53557 0
M  V30 2754 H 250.8 -4.19681 -4.9871 0
M  V30 2755 N 254.233 0.115231 -1.57178 0
M  V30 2756 C 255.644 0.67197 -1.74188 0
M  V30 2757 C 255.995 1.80125 -0.777777 0
M  V30 2758 O 255.12 2.16346 0.0484376 0
M  V30 2759 C 255.715 1.22573 -3.1585 0
M  V30 2760 C 254.274 1.72872 -3.34353 0
M  V30 2761 C 253.421 0.629972 -2.70049 0
M  V30 2762 H 256.372 -0.110712 -1.58313 0
M  V30 2763 H 256.393 2.09535 -3.17609 0
M  V30 2764 H 255.905 0.403598 -3.85996 0
M  V30 2765 H 254.006 2.5755 -2.69256 0
M  V30 2766 H 254.119 1.83557 -4.42542 0
M  V30 2767 H 252.483 1.0645 -2.31388 0
M  V30 2768 H 253.266 -0.181241 -3.42821 0
M  V30 2769 N 255.711 1.52812 0.385517 0
M  V30 2770 C 256.958 1.68026 1.1302 0
M  V30 2771 C 257.286 0.421934 1.89868 0
M  V30 2772 O 256.541 -0.595749 1.86412 0
M  V30 2773 C 256.84 2.86856 2.13187 0
M  V30 2774 C 256.506 4.24159 1.5297 0
M  V30 2775 C 255.168 4.61501 1.36274 0
M  V30 2776 C 257.52 5.09627 1.09223 0
M  V30 2777 C 254.848 5.81966 0.743837 0
M  V30 2778 C 257.2 6.30719 0.487411 0
M  V30 2779 C 255.864 6.6679 0.307777 0
M  V30 2780 H 255.134 0.614849 0.413571 0
M  V30 2781 H 257.781 1.86962 0.414405 0
M  V30 2782 H 256.086 2.6235 2.90998 0
M  V30 2783 H 257.783 2.95821 2.70722 0
M  V30 2784 H 254.373 3.94746 1.66954 0
M  V30 2785 H 258.557 4.81343 1.20922 0
M  V30 2786 H 253.813 6.08519 0.592891 0
M  V30 2787 H 257.987 6.96259 0.140143 0
M  V30 2788 H 255.614 7.60001 -0.173879 0
M  V30 2789 N 257.189 -0.644168 1.43834 0
M  V30 2790 C 258.429 -1.41565 1.47441 0
M  V30 2791 C 258.793 -1.91743 0.0992723 0
M  V30 2792 O 259.994 -2.68798 0.0100192 0
M  V30 2793 C 258.265 -2.55902 2.49498 0
M  V30 2794 S 259.824 -3.44287 2.72051 0
M  V30 2795 H 256.642 -0.483118 0.521649 0
M  V30 2796 H 259.244 -0.747008 1.80666 0
M  V30 2797 H 257.948 -2.17327 3.48134 0
M  V30 2798 H 257.479 -3.27607 2.17801 0
M  V30 2799 H 259.494 -4.52927 2.0266 0
M  V30 2800 N 258.668 -1.30515 -0.883378 0
M  V30 2801 C 259.896 -1.22359 -1.66841 0
M  V30 2802 C 260.311 0.213296 -1.87591 0
M  V30 2803 O 259.668 1.14075 -1.42454 0
M  V30 2804 C 259.719 -1.95011 -3.04389 0
M  V30 2805 O 259.44 -3.3309 -2.84575 0
M  V30 2806 C 260.941 -1.93532 -3.98824 0
M  V30 2807 H 258.161 -0.423371 -0.520575 0
M  V30 2808 H 260.705 -1.72167 -1.10357 0
M  V30 2809 H 258.86 -1.48997 -3.57601 0
M  V30 2810 H 259.274 -3.69907 -3.71846 0
M  V30 2811 H 260.748 -2.48902 -4.92699 0
M  V30 2812 H 261.225 -0.914627 -4.29571 0
M  V30 2813 H 261.831 -2.39364 -3.51547 0
M  V30 2814 N 260.146 1.09593 -1.13257 0
M  V30 2815 C 261.078 2.16015 -0.766167 0
M  V30 2816 C 262.091 1.61423 0.211303 0
M  V30 2817 O 263.28 1.78498 -0.00863946 0
M  V30 2818 C 260.38 3.38706 -0.114662 0
M  V30 2819 C 259.553 4.22717 -1.12379 0
M  V30 2820 C 258.612 5.23835 -0.498301 0
M  V30 2821 O 257.638 5.573 -1.15781 0
M  V30 2822 N 258.84 5.75886 0.730417 0
M  V30 2823 H 261.605 2.48055 -1.68193 0
M  V30 2824 H 259.166 1.25292 -1.02535 0
M  V30 2825 H 261.158 4.03464 0.315991 0
M  V30 2826 H 259.728 3.04569 0.704011 0
M  V30 2827 H 258.948 3.54122 -1.73179 0
M  V30 2828 H 260.236 4.75673 -1.80589 0
M  V30 2829 H 259.634 5.50911 1.28504 0
M  V30 2830 H 258.191 6.42387 1.10376 0
M  V30 2831 N 261.624 0.925811 1.2754 0
M  V30 2832 C 262.901 0.483726 1.89524 0
M  V30 2833 C 263.281 -1.03809 1.83812 0
M  V30 2834 O 262.629 -1.89143 1.28207 0
M  V30 2835 C 262.839 1.02769 3.33526 0
M  V30 2836 C 264.187 1.08703 4.10449 0
M  V30 2837 O 265.211 0.977175 3.42534 0
M  V30 2838 O 264.07 1.25599 5.31871 0
M  V30 2839 H 261.164 0.15529 0.812289 0
M  V30 2840 H 263.71 1.01738 1.35822 0
M  V30 2841 H 262.482 2.07155 3.31967 0
M  V30 2842 H 262.105 0.475567 3.94746 0
M  V30 2843 N 263.102 -1.41638 0.69111 0
M  V30 2844 C 264.33 -2.05628 0.22909 0
M  V30 2845 C 264.745 -1.51992 -1.11999 0
M  V30 2846 O 264.102 -0.666322 -1.69901 0
M  V30 2847 C 264.153 -3.61084 0.173283 0
M  V30 2848 O 263.874 -4.12735 1.46907 0
M  V30 2849 C 265.375 -4.42213 -0.310266 0
M  V30 2850 H 262.595 -0.662327 0.107534 0
M  V30 2851 H 265.139 -1.81489 0.942438 0
M  V30 2852 H 263.294 -3.84278 -0.490858 0
M  V30 2853 H 263.708 -5.06743 1.35322 0
M  V30 2854 H 265.182 -5.51194 -0.298196 0
M  V30 2855 H 265.659 -4.1799 -1.34838 0
M  V30 2856 H 266.265 -4.24074 0.322716 0
M  V30 2857 N 264.58 -0.43555 -1.51462 0
M  V30 2858 C 265.996 -0.0877501 -1.59359 0
M  V30 2859 C 266.196 1.4027 -1.4466 0
M  V30 2860 O 265.252 2.17243 -1.28693 0
M  V30 2861 C 266.565 -0.606264 -2.94525 0
M  V30 2862 C 268.113 -0.566548 -3.0783 0
M  V30 2863 C 268.588 -1.06201 -4.45517 0
M  V30 2864 N 270.079 -1.01992 -4.51832 0
M  V30 2865 C 270.814 -1.37417 -5.5669 0
M  V30 2866 N 270.31 -1.80119 -6.68976 0
M  V30 2867 N 272.103 -1.29245 -5.47039 0
M  V30 2868 H 264.254 -1.40533 -1.59261 0
M  V30 2869 H 266.517 -0.578992 -0.750648 0
M  V30 2870 H 266.223 -1.64901 -3.10645 0
M  V30 2871 H 266.097 -0.0302097 -3.77188 0
M  V30 2872 H 268.484 0.467208 -2.91378 0
M  V30 2873 H 268.565 -1.17898 -2.2701 0
M  V30 2874 H 268.209 -2.09422 -4.62715 0
M  V30 2875 H 268.139 -0.426127 -5.24873 0
M  V30 2876 H 270.63 -0.706308 -3.71241 0
M  V30 2877 H 270.943 -2.05392 -7.45006 0
M  V30 2878 H 269.288 -1.84044 -6.70189 0
M  V30 2879 H 272.479 -0.957522 -4.58202 0
M  V30 2880 H 272.652 -1.57182 -6.28648 0
M  V30 2881 N 266.058 1.56714 -0.166846 0
M  V30 2882 C 267.335 1.88412 0.525373 0
M  V30 2883 C 267.715 1.07602 1.81618 0
M  V30 2884 O 267.063 0.168621 2.27877 0
M  V30 2885 C 267.273 3.40363 0.771613 0
M  V30 2886 C 268.621 4.10007 1.1036 0
M  V30 2887 O 269.645 3.45655 0.860304 0
M  V30 2888 O 268.504 5.2369 1.56239 0
M  V30 2889 H 265.598 0.781587 0.270278 0
M  V30 2890 H 268.144 1.68458 -0.204946 0
M  V30 2891 H 266.916 3.91046 -0.141093 0
M  V30 2892 H 266.539 3.65914 1.55541 0
M  V30 2893 N 267.536 -0.106894 1.57237 0
M  V30 2894 C 268.952 -0.46078 1.52804 0
M  V30 2895 C 269.152 -1.81184 0.881746 0
M  V30 2896 O 268.208 -2.48102 0.469224 0
M  V30 2897 C 269.521 -0.434127 2.9755 0
M  V30 2898 C 271.069 -0.516821 3.08704 0
M  V30 2899 C 271.544 -0.520436 4.55033 0
M  V30 2900 N 273.035 -0.58153 4.59535 0
M  V30 2901 C 273.77 -0.605973 5.70189 0
M  V30 2902 N 273.266 -0.587331 6.90306 0
M  V30 2903 N 275.059 -0.649895 5.5833 0
M  V30 2904 H 267.21 0.778203 1.9763 0
M  V30 2905 H 269.473 0.288403 0.903066 0
M  V30 2906 H 269.179 0.491197 3.48253 0
M  V30 2907 H 269.053 -1.25748 3.55622 0
M  V30 2908 H 271.44 -1.43256 2.57995 0
M  V30 2909 H 271.521 0.334449 2.53604 0
M  V30 2910 H 271.165 0.391313 5.0639 0
M  V30 2911 H 271.095 -1.38876 5.07958 0
M  V30 2912 H 273.586 -0.60161 3.73081 0
M  V30 2913 H 273.899 -0.60894 7.70397 0
M  V30 2914 H 272.244 -0.554564 6.92784 0
M  V30 2915 H 275.435 -0.661907 4.63397 0
M  V30 2916 H 275.608 -0.665476 6.44574 0
M  V30 2917 N 269.014 -1.53014 -0.377408 0
M  V30 2918 C 270.425 -1.60438 -0.954798 0
M  V30 2919 C 270.776 -0.464418 -1.90624 0
M  V30 2920 O 269.901 0.41087 -2.12464 0
M  V30 2921 C 270.496 -2.90797 -1.73847 0
M  V30 2922 C 269.055 -3.00595 -2.26538 0
M  V30 2923 C 268.202 -2.55645 -1.07429 0
M  V30 2924 H 271.153 -1.57926 -0.156575 0
M  V30 2925 H 271.174 -2.77935 -2.5987 0
M  V30 2926 H 270.686 -3.73746 -1.04574 0
M  V30 2927 H 268.787 -2.22208 -2.99089 0
M  V30 2928 H 268.9 -4.05456 -2.5523 0
M  V30 2929 H 267.264 -2.10239 -1.43777 0
M  V30 2930 H 268.047 -3.41 -0.396728 0
M  V30 2931 N 270.492 0.636531 -1.44174 0
M  V30 2932 C 271.739 1.39619 -1.46672 0
M  V30 2933 C 272.067 1.94257 -0.0972691 0
M  V30 2934 O 271.322 1.73768 0.900175 0
M  V30 2935 C 271.621 2.58309 -2.47005 0
M  V30 2936 C 271.287 2.21992 -3.92467 0
M  V30 2937 C 269.949 2.118 -4.32081 0
M  V30 2938 C 272.301 1.9321 -4.84065 0
M  V30 2939 C 269.629 1.71007 -5.61225 0
M  V30 2940 C 271.981 1.53911 -6.13591 0
M  V30 2941 C 270.645 1.42257 -6.52165 0
M  V30 2942 H 269.915 0.510902 -0.536712 0
M  V30 2943 H 272.562 0.722328 -1.77355 0
M  V30 2944 H 270.867 3.30903 -2.09786 0
M  V30 2945 H 272.564 3.16533 -2.46186 0
M  V30 2946 H 269.154 2.30841 -3.61124 0
M  V30 2947 H 273.338 1.99997 -4.54219 0
M  V30 2948 H 268.594 1.60583 -5.89935 0
M  V30 2949 H 272.768 1.30677 -6.8403 0
M  V30 2950 H 270.395 1.10419 -7.52138 0
M  V30 2951 N 271.97 1.30982 0.876444 0
M  V30 2952 C 272.902 1.13902 1.98894 0
M  V30 2953 C 273.915 0.0798815 1.62604 0
M  V30 2954 O 275.104 0.326743 1.75484 0
M  V30 2955 C 272.204 0.716699 3.31235 0
M  V30 2956 C 271.377 1.85945 3.95908 0
M  V30 2957 C 270.436 1.42426 5.06558 0
M  V30 2958 O 269.462 2.13287 5.27729 0
M  V30 2959 N 270.664 0.308025 5.79682 0
M  V30 2960 H 273.429 2.09724 2.14094 0
M  V30 2961 H 270.99 1.2323 1.05004 0
M  V30 2962 H 272.982 0.408403 4.02634 0
M  V30 2963 H 271.552 -0.149719 3.12241 0
M  V30 2964 H 270.772 2.33541 3.17573 0
M  V30 2965 H 272.06 2.62503 4.35855 0
M  V30 2966 H 271.458 -0.282241 5.64995 0
M  V30 2967 H 270.015 0.0592282 6.51773 0
M  V30 2968 N 273.449 -1.08991 1.13837 0
M  V30 2969 C 274.412 -2.13925 0.822715 0
M  V30 2970 C 275.412 -1.599 -0.1699 0
M  V30 2971 O 276.602 -1.74104 0.0577251 0
M  V30 2972 C 273.734 -3.40155 0.225318 0
M  V30 2973 H 274.927 -2.43358 1.75262 0
M  V30 2974 H 272.48 -1.24603 0.943594 0
M  V30 2975 H 273.215 -3.16352 -0.713594 0
M  V30 2976 H 273 -3.80661 0.940193 0
M  V30 2977 H 274.49 -4.17594 0.0214784 0
M  V30 2978 N 274.927 -0.932562 -1.27047 0
M  V30 2979 C 275.859 -0.392734 -2.2581 0
M  V30 2980 C 276.872 0.479241 -1.55586 0
M  V30 2981 O 278.061 0.291078 -1.76111 0
M  V30 2982 C 275.161 0.455456 -3.35826 0
M  V30 2983 C 274.334 -0.398355 -4.35582 0
M  V30 2984 C 273.393 0.387985 -5.24768 0
M  V30 2985 O 272.419 -0.206003 -5.68827 0
M  V30 2986 N 273.621 1.68664 -5.55457 0
M  V30 2987 H 276.386 -1.24173 -2.72766 0
M  V30 2988 H 273.947 -0.800511 -1.40725 0
M  V30 2989 H 275.939 0.988692 -3.92437 0
M  V30 2990 H 274.509 1.20522 -2.88432 0
M  V30 2991 H 273.729 -1.11286 -3.78165 0
M  V30 2992 H 275.017 -0.981889 -4.99236 0
M  V30 2993 H 274.415 2.19147 -5.21528 0
M  V30 2994 H 272.972 2.1663 -6.14748 0
M  V30 2995 N 276.405 1.4127 -0.698611 0
M  V30 2996 C 277.368 2.29158 -0.044132 0
M  V30 2997 C 278.368 1.44529 0.704841 0
M  V30 2998 O 279.558 1.65643 0.539276 0
M  V30 2999 C 276.69 3.27459 0.947809 0
M  V30 3000 H 277.883 2.88529 -0.817994 0
M  V30 3001 H 275.436 1.49307 -0.46228 0
M  V30 3002 H 276.171 2.73073 1.74933 0
M  V30 3003 H 275.956 3.8991 0.41385 0
M  V30 3004 H 277.446 3.93311 1.40344 0
M  V30 3005 N 277.883 0.443576 1.51229 0
M  V30 3006 C 278.815 -0.400608 2.25672 0
M  V30 3007 C 279.828 -0.980945 1.29928 0
M  V30 3008 O 281.017 -0.874024 1.55638 0
M  V30 3009 C 278.117 -1.57304 3.00181 0
M  V30 3010 C 277.29 -1.11046 4.23069 0
M  V30 3011 C 276.349 -2.15374 4.80105 0
M  V30 3012 O 275.375 -1.74554 5.41774 0
M  V30 3013 N 276.577 -3.47922 4.64683 0
M  V30 3014 H 279.342 0.23745 2.98758 0
M  V30 3015 H 276.903 0.272809 1.59585 0
M  V30 3016 H 278.895 -2.26733 3.35223 0
M  V30 3017 H 277.465 -2.11632 2.30066 0
M  V30 3018 H 276.685 -0.243019 3.9345 0
M  V30 3019 H 277.973 -0.778888 5.02803 0
M  V30 3020 H 277.371 -3.83815 4.15575 0
M  V30 3021 H 275.928 -4.13228 5.0407 0
M  V30 3022 N 279.361 -1.56624 0.175154 0
M  V30 3023 C 280.271 -2.21741 -0.766042 0
M  V30 3024 C 281.287 -1.21023 -1.25018 0
M  V30 3025 O 282.463 -1.53697 -1.3015 0
M  V30 3026 C 279.528 -2.84839 -1.97655 0
M  V30 3027 C 278.589 -4.00769 -1.53892 0
M  V30 3028 C 277.822 -4.60849 -2.69173 0
M  V30 3029 O 278.045 -4.19823 -3.86141 0
M  V30 3030 O 276.979 -5.50655 -2.43028 0
M  V30 3031 H 280.805 -3.02738 -0.241585 0
M  V30 3032 H 278.39 -1.49305 -0.053222 0
M  V30 3033 H 280.272 -3.24834 -2.68442 0
M  V30 3034 H 278.947 -2.06836 -2.48999 0
M  V30 3035 H 277.854 -3.65436 -0.80044 0
M  V30 3036 H 279.187 -4.80376 -1.07236 0
M  V30 3037 N 280.839 0.0985539 -1.57292 0
M  V30 3038 C 282.064 0.820196 -1.90493 0
M  V30 3039 C 282.489 1.71658 -0.769094 0
M  V30 3040 O 281.847 1.79133 0.279495 0
M  V30 3041 C 281.895 1.61242 -3.22542 0
M  V30 3042 O 280.999 2.72108 -3.09888 0
M  V30 3043 H 280.34 0.225547 -0.62452 0
M  V30 3044 H 282.87 0.0748159 -2.04463 0
M  V30 3045 H 282.88 1.99737 -3.55766 0
M  V30 3046 H 281.555 0.954535 -4.04798 0
M  V30 3047 H 280.132 2.36667 -2.88172 0
M  V30 3048 N 282.317 1.53212 0.369288 0
M  V30 3049 C 283.247 1.82365 1.45826 0
M  V30 3050 C 284.228 0.676907 1.56051 0
M  V30 3051 O 285.413 0.926401 1.70679 0
M  V30 3052 C 282.543 2.01023 2.83208 0
M  V30 3053 C 281.497 3.1678 2.8781 0
M  V30 3054 C 280.823 3.20724 4.27832 0
M  V30 3055 C 282.123 4.55447 2.55667 0
M  V30 3056 H 283.817 2.73559 1.21678 0
M  V30 3057 H 281.363 1.3163 0.583911 0
M  V30 3058 H 283.316 2.20001 3.59413 0
M  V30 3059 H 282.04 1.06536 3.08736 0
M  V30 3060 H 280.699 2.97616 2.14056 0
M  V30 3061 H 280.347 2.23882 4.50429 0
M  V30 3062 H 280.047 3.98496 4.31827 0
M  V30 3063 H 281.571 3.41881 5.05915 0
M  V30 3064 H 282.985 4.74611 3.21586 0
M  V30 3065 H 281.382 5.35432 2.70984 0
M  V30 3066 H 282.452 4.60812 1.5093 0
M  V30 3067 N 283.795 -0.628877 1.44509 0
M  V30 3068 C 285.072 -1.38733 1.37886 0
M  V30 3069 C 285.452 -2.11065 0.0387008 0
M  V30 3070 O 284.8 -2.06476 -0.97878 0
M  V30 3071 C 285.01 -2.35188 2.57852 0
M  V30 3072 C 286.358 -2.9845 3.02014 0
M  V30 3073 O 287.382 -2.45513 2.58073 0
M  V30 3074 O 286.241 -3.94487 3.78209 0
M  V30 3075 H 283.335 -0.621015 0.54614 0
M  V30 3076 H 285.881 -0.653744 1.56602 0
M  V30 3077 H 284.653 -1.80855 3.46998 0
M  V30 3078 H 284.276 -3.1596 2.4136 0
M  V30 3079 N 285.273 -1.31445 -0.869486 0
M  V30 3080 C 286.519 -1.21337 -1.62496 0
M  V30 3081 C 286.852 0.227872 -1.92858 0
M  V30 3082 O 286.127 1.16094 -1.56053 0
M  V30 3083 C 286.41 -2.05814 -2.95487 0
M  V30 3084 C 286.263 -3.5824 -2.72 0
M  V30 3085 C 287.582 -1.9079 -3.96594 0
M  V30 3086 H 284.701 -0.442135 -0.589649 0
M  V30 3087 H 287.343 -1.6124 -1.00507 0
M  V30 3088 H 285.493 -1.71913 -3.48394 0
M  V30 3089 H 287.165 -4.0228 -2.25762 0
M  V30 3090 H 285.408 -3.81647 -2.06224 0
M  V30 3091 H 286.079 -4.12657 -3.66631 0
M  V30 3092 H 288.555 -2.20459 -3.52898 0
M  V30 3093 H 287.431 -2.52199 -4.87531 0
M  V30 3094 H 287.692 -0.871341 -4.33428 0
M  V30 3095 N 286.751 1.08385 -1.14413 0
M  V30 3096 C 287.681 2.17321 -0.854044 0
M  V30 3097 C 288.662 1.69024 0.191049 0
M  V30 3098 O 289.847 1.94141 0.0476779 0
M  V30 3099 C 286.977 3.45719 -0.330983 0
M  V30 3100 C 285.931 4.07409 -1.31155 0
M  V30 3101 C 285.257 5.30762 -0.64778 0
M  V30 3102 C 286.557 4.48665 -2.67388 0
M  V30 3103 H 288.251 2.41845 -1.76498 0
M  V30 3104 H 285.797 1.16233 -0.850051 0
M  V30 3105 H 287.75 4.21241 -0.115645 0
M  V30 3106 H 286.474 3.2075 0.615381 0
M  V30 3107 H 285.133 3.33919 -1.51306 0
M  V30 3108 H 284.781 5.02078 0.304398 0
M  V30 3109 H 284.481 5.72992 -1.30207 0
M  V30 3110 H 286.005 6.08998 -0.441972 0
M  V30 3111 H 287.419 5.15364 -2.51143 0
M  V30 3112 H 285.816 5.01814 -3.29093 0
M  V30 3113 H 286.886 3.60543 -3.24248 0
M  V30 3114 N 288.23 0.939286 1.26551 0
M  V30 3115 C 289.16 0.465044 2.28822 0
M  V30 3116 C 290.141 -0.480692 1.63167 0
M  V30 3117 O 291.326 -0.382955 1.90387 0
M  V30 3118 C 288.456 -0.27234 3.46231 0
M  V30 3119 C 287.41 0.58666 4.2396 0
M  V30 3120 C 286.736 -0.280573 5.33963 0
M  V30 3121 C 288.036 1.85704 4.88171 0
M  V30 3122 H 289.73 1.31979 2.68741 0
M  V30 3123 H 287.276 0.636061 1.29191 0
M  V30 3124 H 289.229 -0.615133 4.16886 0
M  V30 3125 H 287.953 -1.16121 3.0526 0
M  V30 3126 H 286.612 0.91232 3.55067 0
M  V30 3127 H 286.26 -1.16874 4.89234 0
M  V30 3128 H 285.96 0.29076 5.8688 0
M  V30 3129 H 287.484 -0.618678 6.07458 0
M  V30 3130 H 288.898 1.58161 5.51052 0
M  V30 3131 H 287.295 2.37279 5.51197 0
M  V30 3132 H 288.365 2.56957 4.11219 0
M  V30 3133 N 289.708 -1.40897 0.706093 0
M  V30 3134 C 291.124 -1.55042 0.37869 0
M  V30 3135 C 291.324 -1.67944 -1.11342 0
M  V30 3136 O 290.38 -1.66372 -1.89938 0
M  V30 3137 C 291.693 -2.78398 1.13643 0
M  V30 3138 C 293.241 -2.92206 1.12181 0
M  V30 3139 C 293.716 -4.18463 1.86152 0
M  V30 3140 N 295.207 -4.25443 1.83173 0
M  V30 3141 C 295.942 -5.2202 2.37239 0
M  V30 3142 N 295.438 -6.24563 2.99821 0
M  V30 3143 N 297.231 -5.14033 2.27435 0
M  V30 3144 H 289.382 -1.30769 1.67372 0
M  V30 3145 H 291.645 -0.631653 0.706907 0
M  V30 3146 H 291.351 -2.7511 2.19106 0
M  V30 3147 H 291.225 -3.70228 0.721853 0
M  V30 3148 H 293.612 -2.95004 0.0754171 0
M  V30 3149 H 293.693 -2.01521 1.57554 0
M  V30 3150 H 293.337 -4.16427 2.90776 0
M  V30 3151 H 293.267 -5.08141 1.38206 0
M  V30 3152 H 295.758 -3.51976 1.37556 0
M  V30 3153 H 296.071 -6.94665 3.38616 0
M  V30 3154 H 294.416 -6.25035 3.03902 0
M  V30 3155 H 297.607 -4.3285 1.78208 0
M  V30 3156 H 297.78 -5.89129 2.69873 0
M  V30 3157 N 291.186 -0.45159 -1.50991 0
M  V30 3158 C 292.136 0.370861 -2.24964 0
M  V30 3159 C 293.12 0.978074 -1.2776 0
M  V30 3160 O 294.312 0.893854 -1.52772 0
M  V30 3161 C 291.441 1.46344 -3.10545 0
M  V30 3162 C 290.527 0.864924 -4.15187 0
M  V30 3163 N 290.918 -0.00311354 -5.058 0
M  V30 3164 C 289.216 1.13099 -4.31422 0
M  V30 3165 C 289.917 -0.340772 -5.80701 0
M  V30 3166 N 288.893 0.279203 -5.42883 0
M  V30 3167 H 292.695 -0.298134 -2.92384 0
M  V30 3168 H 290.209 -0.264528 -1.60231 0
M  V30 3169 H 292.206 2.06565 -3.62128 0
M  V30 3170 H 290.866 2.13463 -2.4467 0
M  V30 3171 H 291.877 -0.37058 -5.16572 0
M  V30 3172 H 288.554 1.79861 -3.76771 0
M  V30 3173 H 289.944 -1.048 -6.63677 0
M  V30 3174 N 292.664 1.56529 -0.183458 0
M  V30 3175 C 294.075 1.83739 0.331177 0
M  V30 3176 C 294.426 1.10373 1.62211 0
M  V30 3177 O 293.551 0.36071 2.13373 0
M  V30 3178 C 294.146 3.33306 0.607646 0
M  V30 3179 C 292.705 3.60969 1.06668 0
M  V30 3180 C 291.852 2.77086 0.109029 0
M  V30 3181 H 294.803 1.53379 -0.407484 0
M  V30 3182 H 294.824 3.51444 1.45832 0
M  V30 3183 H 294.336 3.86677 -0.332086 0
M  V30 3184 H 292.437 3.13021 2.0211 0
M  V30 3185 H 292.55 4.69231 0.967447 0
M  V30 3186 H 290.914 2.47319 0.608714 0
M  V30 3187 H 291.697 3.33241 -0.82494 0
M  V30 3188 N 294.142 -0.090211 1.57342 0
M  V30 3189 C 295.367 -0.810082 1.90925 0
M  V30 3190 C 295.792 -1.71248 0.778187 0
M  V30 3191 O 295.15 -1.79278 -0.269991 0
M  V30 3192 C 295.198 -1.59529 3.23393 0
M  V30 3193 O 294.302 -2.70461 3.11327 0
M  V30 3194 H 293.643 -0.222231 0.625707 0
M  V30 3195 H 296.173 -0.0639716 2.045 0
M  V30 3196 H 296.183 -1.97847 3.5682 0
M  V30 3197 H 294.858 -0.933055 4.05299 0
M  V30 3198 H 293.435 -2.35135 2.89423 0
M  V30 3199 N 295.62 -1.53406 -0.361157 0
M  V30 3200 C 296.868 -1.69467 -1.10115 0
M  V30 3201 C 297.189 -0.451352 -1.89705 0
M  V30 3202 O 296.459 0.534636 -1.88463 0
M  V30 3203 H 295.039 -0.624749 -0.409508 0
M  V30 3204 H 297.701 -1.90609 -0.406699 0
M  V30 3205 H 296.797 -2.55774 -1.78847 0
M  V30 3206 N 297.098 0.621204 -1.44841 0
M  V30 3207 C 298.344 1.38073 -1.49357 0
M  V30 3208 C 298.699 1.91973 -0.128115 0
M  V30 3209 O 297.992 1.71311 0.858087 0
M  V30 3210 C 298.186 2.55675 -2.4973 0
M  V30 3211 C 298.015 2.13289 -3.95901 0
M  V30 3212 C 296.785 2.001 -4.63991 0
M  V30 3213 C 298.983 1.7159 -4.84831 0
M  V30 3214 N 296.965 1.51381 -5.94943 0
M  V30 3215 C 298.336 1.34188 -6.05304 0
M  V30 3216 C 300.391 1.59059 -4.7181 0
M  V30 3217 C 299.094 0.855085 -7.14199 0
M  V30 3218 C 301.12 1.11784 -5.8074 0
M  V30 3219 C 300.482 0.753385 -7.0036 0
M  V30 3220 H 296.581 0.499675 -0.601539 0
M  V30 3221 H 299.165 0.711609 -1.8123 0
M  V30 3222 H 297.336 3.20201 -2.19832 0
M  V30 3223 H 299.068 3.22509 -2.4448 0
M  V30 3224 H 295.823 2.20863 -4.18947 0
M  V30 3225 H 296.247 1.29293 -6.64539 0
M  V30 3226 H 300.889 1.85865 -3.79755 0
M  V30 3227 H 298.607 0.574552 -8.06055 0
M  V30 3228 H 302.193 1.02533 -5.72694 0
M  V30 3229 H 301.073 0.393183 -7.83214 0
M  V30 3230 N 298.576 1.31904 0.862503 0
M  V30 3231 C 299.822 1.23207 1.61838 0
M  V30 3232 C 300.177 -0.206062 1.91293 0
M  V30 3233 O 299.47 -1.14162 1.53875 0
M  V30 3234 C 299.664 2.01713 2.95037 0
M  V30 3235 C 299.493 3.53014 2.78588 0
M  V30 3236 C 298.263 4.22359 2.77382 0
M  V30 3237 C 300.461 4.47819 2.52909 0
M  V30 3238 N 298.443 5.59766 2.52062 0
M  V30 3239 C 299.814 5.72947 2.36922 0
M  V30 3240 C 301.869 4.37162 2.38314 0
M  V30 3241 C 300.572 6.88623 2.07823 0
M  V30 3242 C 302.598 5.5263 2.10604 0
M  V30 3243 C 301.96 6.76752 1.95411 0
M  V30 3244 H 298.059 0.505984 0.596242 0
M  V30 3245 H 300.643 1.66179 1.01452 0
M  V30 3246 H 298.814 1.61098 3.53415 0
M  V30 3247 H 300.546 1.84975 3.59953 0
M  V30 3248 H 297.301 3.74401 2.90036 0
M  V30 3249 H 297.725 6.32135 2.42352 0
M  V30 3250 H 302.367 3.41857 2.48784 0
M  V30 3251 H 300.085 7.83948 1.9609 0
M  V30 3252 H 303.671 5.46307 2.00101 0
M  V30 3253 H 302.551 7.6459 1.74274 0
M  V30 3254 N 300.054 -1.07777 1.14986 0
M  V30 3255 C 300.984 -2.16865 0.865557 0
M  V30 3256 C 301.965 -1.69123 -0.182083 0
M  V30 3257 O 303.15 -1.94164 -0.0373815 0
M  V30 3258 C 300.28 -3.45539 0.349313 0
M  V30 3259 C 299.234 -4.06708 1.33313 0
M  V30 3260 C 298.56 -5.30411 0.675918 0
M  V30 3261 C 299.86 -4.47241 2.69764 0
M  V30 3262 H 301.554 -2.40905 1.77778 0
M  V30 3263 H 299.1 -1.15781 0.856203 0
M  V30 3264 H 301.053 -4.21174 0.137983 0
M  V30 3265 H 299.777 -3.21072 -0.598362 0
M  V30 3266 H 298.436 -3.33112 1.53075 0
M  V30 3267 H 298.084 -5.02232 -0.277767 0
M  V30 3268 H 297.784 -5.72293 1.33244 0
M  V30 3269 H 299.308 -6.08755 0.474262 0
M  V30 3270 H 300.722 -5.14025 2.53873 0
M  V30 3271 H 299.119 -5.00062 3.3175 0
M  V30 3272 H 300.189 -3.58818 3.26156 0
M  V30 3273 N 301.532 -0.945985 -1.26051 0
M  V30 3274 C 302.778 -0.597002 -1.93814 0
M  V30 3275 C 303.111 0.862484 -1.73997 0
M  V30 3276 O 302.386 1.61769 -1.07986 0
M  V30 3277 C 302.669 -0.945937 -3.47454 0
M  V30 3278 C 302.522 -2.46052 -3.76535 0
M  V30 3279 C 303.841 -0.464785 -4.37639 0
M  V30 3280 H 300.96 -0.218366 -0.703907 0
M  V30 3281 H 303.602 -1.18107 -1.48831 0
M  V30 3282 H 301.752 -0.448902 -3.85898 0
M  V30 3283 H 303.424 -3.03065 -3.47778 0
M  V30 3284 H 301.667 -2.90194 -3.22444 0
M  V30 3285 H 302.338 -2.65517 -4.83947 0
M  V30 3286 H 304.814 -0.891016 -4.06448 0
M  V30 3287 H 303.69 -0.737712 -5.4392 0
M  V30 3288 H 303.951 0.635274 -4.37512 0
M  V30 3289 N 303.011 1.40521 -0.713556 0
M  V30 3290 C 303.921 2.34522 -0.0606667 0
M  V30 3291 C 304.937 1.57193 0.74607 0
M  V30 3292 O 306.113 1.89591 0.679493 0
M  V30 3293 C 303.178 3.36081 0.851491 0
M  V30 3294 C 302.239 4.29286 0.0349339 0
M  V30 3295 C 301.472 5.25994 0.903649 0
M  V30 3296 O 301.695 5.28616 2.14292 0
M  V30 3297 O 300.629 6.00918 0.343723 0
M  V30 3298 H 304.455 2.91968 -0.835972 0
M  V30 3299 H 302.04 1.41681 -0.47402 0
M  V30 3300 H 303.922 3.98369 1.37404 0
M  V30 3301 H 302.597 2.81052 1.60598 0
M  V30 3302 H 301.504 3.70289 -0.532633 0
M  V30 3303 H 302.837 4.87462 -0.681287 0
M  V30 3304 N 304.489 0.459591 1.5075 0
M  V30 3305 C 305.437 -0.354678 2.2988 0
M  V30 3306 C 306.431 -1.00086 1.36672 0
M  V30 3307 O 307.637 -0.933277 1.53915 0
M  V30 3308 H 304.012 -0.13321 0.740107 0
M  V30 3309 H 305.983 0.333269 2.96533 0
M  V30 3310 C 304.732 -1.43073 3.169 0
M  V30 3311 H 304.055 -0.942882 3.88523 0
M  V30 3312 H 305.495 -1.97328 3.75284 0
M  V30 3313 C 303.954 -2.42633 2.33732 0
M  V30 3314 O 304.484 -3.47658 2.01238 0
M  V30 3315 N 302.69 -2.14066 1.9653 0
M  V30 3316 H 302.237 -1.28685 2.23155 0
M  V30 3317 H 302.195 -2.80917 1.41185 0
M  V30 3318 N 305.967 -1.56429 0.191757 0
M  V30 3319 C 306.877 -2.22541 -0.742481 0
M  V30 3320 C 307.893 -1.22342 -1.23727 0
M  V30 3321 O 309.069 -1.55069 -1.28513 0
M  V30 3322 C 306.134 -2.8692 -1.94623 0
M  V30 3323 C 305.195 -4.02378 -1.49633 0
M  V30 3324 C 304.428 -4.63678 -2.6427 0
M  V30 3325 O 304.651 -4.23895 -3.81666 0
M  V30 3326 O 303.585 -5.53202 -2.37174 0
M  V30 3327 H 307.411 -3.02977 -0.209462 0
M  V30 3328 H 304.996 -1.49353 -0.0373832 0
M  V30 3329 H 306.878 -3.27663 -2.64982 0
M  V30 3330 H 305.553 -2.09466 -2.46791 0
M  V30 3331 H 304.46 -3.66265 -0.761636 0
M  V30 3332 H 305.793 -4.81487 -1.02134 0
M  V30 3333 N 307.445 0.0818655 -1.57387 0
M  V30 3334 C 308.722 0.815343 -1.77796 0
M  V30 3335 C 309.102 1.96289 -0.77679 0
M  V30 3336 O 308.45 2.27691 0.192106 0
M  V30 3337 C 308.66 1.29765 -3.23978 0
M  V30 3338 C 310.008 1.7351 -3.8753 0
M  V30 3339 O 311.032 1.39356 -3.27808 0
M  V30 3340 O 309.891 2.36708 -4.92576 0
M  V30 3341 H 306.985 0.389914 -0.729312 0
M  V30 3342 H 309.531 0.0627213 -1.69584 0
M  V30 3343 H 308.303 0.47608 -3.88393 0
M  V30 3344 H 307.926 2.11189 -3.36875 0
M  V30 3345 N 308.923 1.53595 0.353017 0
M  V30 3346 C 310.339 1.43648 0.695516 0
M  V30 3347 C 310.539 0.585617 1.92802 0
M  V30 3348 O 309.595 0.0729223 2.52395 0
M  V30 3349 C 310.908 2.8701 0.896991 0
M  V30 3350 C 312.456 2.96723 0.996209 0
M  V30 3351 C 312.931 4.41173 1.23007 0
M  V30 3352 N 314.422 4.44657 1.29749 0
M  V30 3353 C 315.157 5.53547 1.49577 0
M  V30 3354 N 314.653 6.72461 1.66639 0
M  V30 3355 N 316.446 5.41145 1.52048 0
M  V30 3356 H 308.597 2.07415 -0.457481 0
M  V30 3357 H 310.86 0.9372 -0.142687 0
M  V30 3358 H 310.566 3.51644 0.0629938 0
M  V30 3359 H 310.44 3.31401 1.80148 0
M  V30 3360 H 312.827 2.32235 1.82074 0
M  V30 3361 H 312.908 2.55707 0.0688331 0
M  V30 3362 H 312.552 5.06238 0.410505 0
M  V30 3363 H 312.482 4.79772 2.17086 0
M  V30 3364 H 314.973 3.58963 1.18126 0
M  V30 3365 H 315.286 7.51214 1.81378 0
M  V30 3366 H 313.631 6.75423 1.63794 0
M  V30 3367 H 316.822 4.47205 1.38294 0
M  V30 3368 H 316.995 6.26068 1.67159 0
M  V30 3369 N 310.401 -0.613514 1.45168 0
M  V30 3370 C 311.333 -1.73825 1.4939 0
M  V30 3371 C 312.346 -1.58175 0.385304 0
M  V30 3372 O 313.535 -1.66165 0.652036 0
M  V30 3373 C 310.635 -3.11758 1.32891 0
M  V30 3374 C 309.808 -3.53704 2.57317 0
M  V30 3375 C 308.867 -4.70579 2.35462 0
M  V30 3376 O 307.893 -4.77996 3.09044 0
M  V30 3377 N 309.095 -5.63454 1.39644 0
M  V30 3378 H 311.86 -1.70669 2.46358 0
M  V30 3379 H 309.421 -0.79862 1.40832 0
M  V30 3380 H 311.413 -3.87692 1.1609 0
M  V30 3381 H 309.983 -3.09456 0.442218 0
M  V30 3382 H 309.203 -2.67794 2.89275 0
M  V30 3383 H 310.491 -3.78486 3.40038 0
M  V30 3384 H 309.889 -5.6017 0.789062 0
M  V30 3385 H 308.446 -6.38944 1.28816 0
M  V30 3386 N 311.879 -1.3236 -0.855495 0
M  V30 3387 C 313.107 -1.2587 -1.64208 0
M  V30 3388 C 313.522 0.173457 -1.88002 0
M  V30 3389 O 312.879 1.11027 -1.44842 0
M  V30 3390 C 312.93 -2.01424 -3.00184 0
M  V30 3391 O 312.651 -3.39051 -2.77445 0
M  V30 3392 C 314.152 -2.01948 -3.94629 0
M  V30 3393 H 311.372 -0.434318 -0.511477 0
M  V30 3394 H 313.916 -1.74469 -1.0668 0
M  V30 3395 H 312.071 -1.56549 -3.5436 0
M  V30 3396 H 312.485 -3.77711 -3.63916 0
M  V30 3397 H 313.959 -2.59297 -4.87308 0
M  V30 3398 H 314.436 -1.00554 -4.27534 0
M  V30 3399 H 315.042 -2.46767 -3.4639 0
M  V30 3400 N 313.357 1.07166 -1.15556 0
M  V30 3401 C 314.32 2.12589 -0.856644 0
M  V30 3402 C 315.32 1.6015 0.14444 0
M  V30 3403 O 316.51 1.7399 -0.0854163 0
M  V30 3404 C 313.642 3.39753 -0.279405 0
M  V30 3405 H 314.835 2.40539 -1.79112 0
M  V30 3406 H 312.388 1.23086 -0.963298 0
M  V30 3407 H 313.123 3.17447 0.663174 0
M  V30 3408 H 312.908 3.79117 -1.00063 0
M  V30 3409 H 314.398 4.17507 -0.0879113 0
M  V30 3410 N 314.835 0.952656 1.25548 0
M  V30 3411 C 316.081 0.616826 1.93822 0
M  V30 3412 C 316.436 -0.836684 1.73255 0
M  V30 3413 O 315.729 -1.59218 1.06584 0
M  V30 3414 C 315.923 0.908818 3.45652 0
M  V30 3415 C 315.752 2.38916 3.80984 0
M  V30 3416 C 314.522 3.04637 4.03143 0
M  V30 3417 C 316.72 3.36838 3.88645 0
M  V30 3418 N 314.702 4.42565 4.25453 0
M  V30 3419 C 316.073 4.60065 4.1562 0
M  V30 3420 C 318.128 3.31704 3.71318 0
M  V30 3421 C 316.831 5.78795 4.2707 0
M  V30 3422 C 318.857 4.4977 3.84006 0
M  V30 3423 C 318.219 5.71783 4.11392 0
M  V30 3424 H 314.318 0.27629 0.731565 0
M  V30 3425 H 316.902 1.22443 1.5138 0
M  V30 3426 H 315.073 0.330166 3.86994 0
M  V30 3427 H 316.805 0.533093 4.01174 0
M  V30 3428 H 313.56 2.55215 3.98952 0
M  V30 3429 H 313.984 5.1399 4.40617 0
M  V30 3430 H 318.626 2.3842 3.49164 0
M  V30 3431 H 316.344 6.72521 4.48041 0
M  V30 3432 H 319.93 4.47342 3.71989 0
M  V30 3433 H 318.81 6.61617 4.2099 0
M  V30 3434 N 316.313 -1.40141 0.720998 0
M  V30 3435 C 317.56 -2.00787 0.262842 0
M  V30 3436 C 317.888 -1.5718 -1.14563 0
M  V30 3437 O 317.143 -0.785391 -1.79249 0
M  V30 3438 C 317.442 -3.56165 0.296892 0
M  V30 3439 C 317.108 -4.19373 1.65641 0
M  V30 3440 C 315.77 -4.36352 2.02855 0
M  V30 3441 C 318.122 -4.54578 2.54968 0
M  V30 3442 C 315.45 -4.8582 3.28931 0
M  V30 3443 C 317.802 -5.05447 3.80402 0
M  V30 3444 C 316.466 -5.20635 4.17726 0
M  V30 3445 H 315.736 -0.734731 0.0961807 0
M  V30 3446 H 318.383 -1.67673 0.925093 0
M  V30 3447 H 316.688 -3.8922 -0.448932 0
M  V30 3448 H 318.385 -4.00929 -0.0755208 0
M  V30 3449 H 314.975 -4.06549 1.35704 0
M  V30 3450 H 319.159 -4.41091 2.27491 0
M  V30 3451 H 314.415 -4.95764 3.57811 0
M  V30 3452 H 318.589 -5.31663 4.49786 0
M  V30 3453 H 316.216 -5.58728 5.15487 0
M  V30 3454 N 317.792 -0.46758 -1.50504 0
M  V30 3455 C 319.203 -0.0116166 -1.86696 0
M  V30 3456 C 319.554 1.39202 -1.38265 0
M  V30 3457 O 318.679 2.0313 -0.746132 0
M  V30 3458 C 319.274 -0.0143044 -3.38797 0
M  V30 3459 C 317.833 0.386175 -3.74414 0
M  V30 3460 C 316.98 -0.401287 -2.74381 0
M  V30 3461 H 319.931 -0.682022 -1.43297 0
M  V30 3462 H 319.952 0.788641 -3.72237 0
M  V30 3463 H 319.464 -1.03602 -3.74016 0
M  V30 3464 H 317.565 1.41237 -3.44794 0
M  V30 3465 H 317.678 0.0899596 -4.79016 0
M  V30 3466 H 316.042 0.144536 -2.5429 0
M  V30 3467 H 316.825 -1.42244 -3.12444 0
M  V30 3468 N 319.27 1.56325 -0.20005 0
M  V30 3469 C 320.233 2.18084 0.705132 0
M  V30 3470 C 321.233 1.13666 1.1374 0
M  V30 3471 O 322.423 1.39023 1.04968 0
M  V30 3472 C 319.555 2.78689 1.96329 0
M  V30 3473 H 320.748 2.99435 0.167023 0
M  V30 3474 H 318.301 1.56221 0.0495725 0
M  V30 3475 H 319.036 2.0115 2.5438 0
M  V30 3476 H 318.821 3.55133 1.66202 0
M  V30 3477 H 320.311 3.26096 2.60866 0
M  V30 3478 N 320.748 -0.0735177 1.57428 0
M  V30 3479 C 322.159 -0.625551 1.75908 0
M  V30 3480 C 322.51 -1.78 0.825261 0
M  V30 3481 O 321.635 -2.16398 0.00893964 0
M  V30 3482 C 322.23 -1.14155 3.18989 0
M  V30 3483 C 320.789 -1.63946 3.38819 0
M  V30 3484 C 319.936 -0.558151 2.71625 0
M  V30 3485 H 322.887 0.152647 1.57964 0
M  V30 3486 H 322.908 -2.0104 3.23053 0
M  V30 3487 H 322.42 -0.301116 3.8693 0
M  V30 3488 H 320.521 -2.50321 2.7599 0
M  V30 3489 H 320.634 -1.71759 4.47253 0
M  V30 3490 H 318.998 -1.00278 2.34129 0
M  V30 3491 H 319.781 0.272071 3.4222 0
M  V30 3492 N 322.226 -1.5378 -0.344866 0
M  V30 3493 C 323.456 -1.74646 -1.10374 0
M  V30 3494 C 323.864 -0.48491 -1.8288 0
M  V30 3495 O 323.207 0.553062 -1.75177 0
M  V30 3496 C 323.269 -2.87145 -2.16306 0
M  V30 3497 C 322.933 -4.26795 -1.63386 0
M  V30 3498 C 323.93 -5.08412 -1.08688 0
M  V30 3499 C 321.615 -4.73276 -1.68272 0
M  V30 3500 C 323.609 -6.34609 -0.595792 0
M  V30 3501 C 321.296 -5.99446 -1.18776 0
M  V30 3502 C 322.294 -6.79946 -0.645215 0
M  V30 3503 O 321.982 -8.03745 -0.157626 0
M  V30 3504 H 321.714 -0.587112 -0.335075 0
M  V30 3505 H 324.268 -2.01403 -0.403252 0
M  V30 3506 H 322.498 -2.55909 -2.89909 0
M  V30 3507 H 324.187 -2.95992 -2.77747 0
M  V30 3508 H 324.953 -4.73666 -1.04236 0
M  V30 3509 H 320.832 -4.10677 -2.09442 0
M  V30 3510 H 324.376 -6.97389 -0.171654 0
M  V30 3511 H 320.273 -6.33687 -1.22928 0
M  V30 3512 H 321.041 -8.18038 -0.275037 0
M  V30 3513 N 323.704 0.605807 -1.45491 0
M  V30 3514 C 324.634 1.72709 -1.57143 0
M  V30 3515 C 325.615 1.6476 -0.422884 0
M  V30 3516 O 326.8 1.83132 -0.646247 0
M  V30 3517 C 323.93 3.11316 -1.53948 0
M  V30 3518 C 322.884 3.34077 -2.67537 0
M  V30 3519 C 322.21 4.72975 -2.49397 0
M  V30 3520 C 323.51 3.24158 -4.09535 0
M  V30 3521 H 325.204 1.63214 -2.51001 0
M  V30 3522 H 322.75 0.78379 -1.208 0
M  V30 3523 H 324.703 3.89557 -1.60696 0
M  V30 3524 H 323.427 3.21655 -0.566205 0
M  V30 3525 H 322.086 2.58227 -2.6022 0
M  V30 3526 H 321.734 4.8005 -1.50205 0
M  V30 3527 H 321.434 4.8916 -3.25571 0
M  V30 3528 H 322.958 5.53414 -2.58002 0
M  V30 3529 H 324.372 3.92271 -4.18086 0
M  V30 3530 H 322.769 3.51872 -4.86113 0
M  V30 3531 H 323.839 2.2157 -4.31317 0
M  V30 3532 N 325.182 1.32811 0.848464 0
M  V30 3533 C 326.092 1.24278 1.98978 0
M  V30 3534 C 327.108 0.155176 1.73307 0
M  V30 3535 O 328.284 0.376999 1.9784 0
M  V30 3536 C 325.349 0.972444 3.32783 0
M  V30 3537 C 324.41 2.14911 3.71634 0
M  V30 3538 C 323.643 1.89157 4.99054 0
M  V30 3539 O 323.866 0.837165 5.64223 0
M  V30 3540 O 322.8 2.75433 5.35183 0
M  V30 3541 H 326.626 2.20238 2.09115 0
M  V30 3542 H 324.211 1.12762 0.980052 0
M  V30 3543 H 326.093 0.838432 4.12975 0
M  V30 3544 H 324.768 0.043051 3.23671 0
M  V30 3545 H 323.675 2.33862 2.91992 0
M  V30 3546 H 325.008 3.06151 3.85399 0
M  V30 3547 N 326.66 -1.06551 1.16123 0
M  V30 3548 C 327.57 -2.17484 0.879662 0
M  V30 3549 C 328.586 -1.73377 -0.147104 0
M  V30 3550 O 329.762 -2.01379 0.0289128 0
M  V30 3551 C 326.827 -3.44591 0.381829 0
M  V30 3552 C 325.888 -4.0322 1.4735 0
M  V30 3553 C 325.121 -5.24261 0.999324 0
M  V30 3554 O 325.344 -5.70198 -0.151957 0
M  V30 3555 O 324.278 -5.74775 1.78653 0
M  V30 3556 H 328.104 -2.44075 1.80724 0
M  V30 3557 H 325.689 -1.16042 0.940992 0
M  V30 3558 H 327.571 -4.21254 0.111053 0
M  V30 3559 H 326.246 -3.19532 -0.51777 0
M  V30 3560 H 325.153 -3.2806 1.79798 0
M  V30 3561 H 326.486 -4.32568 2.34831 0
M  V30 3562 N 328.138 -0.959301 -1.25041 0
M  V30 3563 C 329.101 -0.487677 -2.23952 0
M  V30 3564 C 330.101 0.41119 -1.55454 0
M  V30 3565 O 331.291 0.207825 -1.72956 0
M  V30 3566 C 328.423 0.294807 -3.39623 0
M  V30 3567 H 329.616 -1.36198 -2.67189 0
M  V30 3568 H 327.169 -0.743042 -1.37508 0
M  V30 3569 H 327.904 1.18658 -3.01813 0
M  V30 3570 H 327.689 -0.35012 -3.90534 0
M  V30 3571 H 329.179 0.614089 -4.1306 0
M  V30 3572 N 329.616 1.39756 -0.72842 0
M  V30 3573 C 330.579 2.29012 -0.0927297 0
M  V30 3574 C 331.579 1.45992 0.674025 0
M  V30 3575 O 332.769 1.66749 0.50402 0
M  V30 3576 C 329.901 3.29396 0.878137 0
M  V30 3577 H 331.094 2.86729 -0.879011 0
M  V30 3578 H 328.647 1.48293 -0.493847 0
M  V30 3579 H 329.382 2.76722 1.69101 0
M  V30 3580 H 329.167 3.907 0.331051 0
M  V30 3581 H 330.657 3.96199 1.3197 0
M  V30 3582 N 331.094 0.475555 1.50254 0
M  V30 3583 C 332.505 0.0215174 1.86688 0
M  V30 3584 C 332.856 -1.38467 1.39001 0
M  V30 3585 O 331.981 -2.02732 0.756894 0
M  V30 3586 C 332.576 0.0322715 3.38785 0
M  V30 3587 C 331.135 -0.366314 3.74613 0
M  V30 3588 C 330.282 0.415832 2.74164 0
M  V30 3589 H 333.233 0.689612 1.42934 0
M  V30 3590 H 333.254 -0.76889 3.7265 0
M  V30 3591 H 332.766 1.05584 3.73462 0
M  V30 3592 H 330.867 -1.39406 3.45538 0
M  V30 3593 H 330.98 -0.064555 4.79057 0
M  V30 3594 H 329.344 -0.131048 2.54363 0
M  V30 3595 H 330.127 1.43899 3.11686 0
M  V30 3596 N 332.573 -1.56217 0.208337 0
M  V30 3597 C 333.821 -1.97558 -0.426076 0
M  V30 3598 C 334.142 -1.09683 -1.61229 0
M  V30 3599 O 333.412 -0.170956 -1.95153 0
M  V30 3600 H 331.992 -0.729575 -0.160405 0
M  V30 3601 H 334.654 -1.92606 0.298155 0
M  V30 3602 H 333.75 -3.02672 -0.761312 0
M  V30 3603 N 334.051 0.0651679 -1.57465 0
M  V30 3604 C 334.983 1.10359 -2.00882 0
M  V30 3605 C 335.996 1.346 -0.915788 0
M  V30 3606 O 337.185 1.32723 -1.1936 0
M  V30 3607 C 334.285 2.45312 -2.33828 0
M  V30 3608 C 333.458 2.40934 -3.65061 0
M  V30 3609 C 332.517 3.58047 -3.85602 0
M  V30 3610 O 331.543 3.39175 -4.57109 0
M  V30 3611 N 332.745 4.78637 -3.28462 0
M  V30 3612 H 335.51 0.733807 -2.90578 0
M  V30 3613 H 333.071 0.253719 -1.599 0
M  V30 3614 H 335.063 3.22314 -2.44737 0
M  V30 3615 H 333.633 2.74267 -1.49988 0
M  V30 3616 H 332.853 1.49273 -3.64844 0
M  V30 3617 H 334.141 2.35117 -4.51218 0
M  V30 3618 H 333.539 4.96872 -2.70433 0
M  V30 3619 H 332.096 5.53127 -3.44809 0
M  V30 3620 N 335.529 1.53961 0.336706 0
M  V30 3621 C 336.777 1.71197 1.07405 0
M  V30 3622 C 337.098 0.481475 1.88962 0
M  V30 3623 O 336.368 -0.504585 1.8929 0
M  V30 3624 H 334.948 0.631185 0.399517 0
M  V30 3625 H 337.61 1.91232 0.376323 0
M  V30 3626 H 336.706 2.58587 1.74755 0
M  V30 3627 N 337.007 -0.598083 1.45811 0
M  V30 3628 C 338.423 -0.919847 1.30426 0
M  V30 3629 C 338.623 -1.99759 0.264303 0
M  V30 3630 O 337.679 -2.50221 -0.338472 0
M  V30 3631 C 338.992 -1.35176 2.68603 0
M  V30 3632 C 340.54 -1.46546 2.76574 0
M  V30 3633 C 341.015 -1.9311 4.15298 0
M  V30 3634 N 342.506 -2.00328 4.1764 0
M  V30 3635 C 343.241 -2.37599 5.21856 0
M  V30 3636 N 342.737 -2.73771 6.36413 0
M  V30 3637 N 344.53 -2.38021 5.09218 0
M  V30 3638 H 336.681 0.114111 2.12093 0
M  V30 3639 H 338.944 -0.0116121 0.947929 0
M  V30 3640 H 338.65 -0.633969 3.45939 0
M  V30 3641 H 338.524 -2.3164 2.97696 0
M  V30 3642 H 340.911 -2.17415 1.99537 0
M  V30 3643 H 340.992 -0.483727 2.51185 0
M  V30 3644 H 340.636 -1.22824 4.92825 0
M  V30 3645 H 340.566 -2.92213 4.38086 0
M  V30 3646 H 343.057 -1.74925 3.34977 0
M  V30 3647 H 343.37 -3.0112 7.11721 0
M  V30 3648 H 341.715 -2.71445 6.39799 0
M  V30 3649 H 344.906 -2.09174 4.18765 0
M  V30 3650 H 345.079 -2.66741 5.90554 0
M  V30 3651 N 338.485 -1.33259 -0.841409 0
M  V30 3652 C 339.395 -1.25332 -1.98316 0
M  V30 3653 C 340.411 -0.164364 -1.73222 0
M  V30 3654 O 341.587 -0.387486 -1.97637 0
M  V30 3655 C 338.652 -0.990078 -3.32262 0
M  V30 3656 C 337.713 -2.16879 -3.70489 0
M  V30 3657 C 336.946 -1.91801 -4.98044 0
M  V30 3658 O 337.169 -0.867075 -5.63771 0
M  V30 3659 O 336.103 -2.78267 -5.33714 0
M  V30 3660 H 339.929 -2.21344 -2.07944 0
M  V30 3661 H 337.514 -1.1328 -0.974058 0
M  V30 3662 H 339.396 -0.860321 -4.12524 0
M  V30 3663 H 338.071 -0.0602155 -3.23644 0
M  V30 3664 H 336.978 -2.35407 -2.90748 0
M  V30 3665 H 338.311 -3.0819 -3.8377 0
M  V30 3666 N 339.963 1.05934 -1.16686 0
M  V30 3667 C 341.211 1.78447 -0.948744 0
M  V30 3668 C 341.532 1.87813 0.524523 0
M  V30 3669 O 340.802 1.38945 1.38098 0
M  V30 3670 H 339.382 0.660971 -0.348033 0
M  V30 3671 H 342.044 1.27947 -1.47022 0
M  V30 3672 H 341.14 2.80394 -1.37061 0
M  V30 3673 N 341.441 0.965919 1.2453 0
M  V30 3674 C 342.689 0.625593 1.92174 0
M  V30 3675 C 343.01 -0.841652 1.75901 0
M  V30 3676 O 342.28 -1.60061 1.12948 0
M  V30 3677 H 340.86 0.228388 0.71123 0
M  V30 3678 H 343.522 1.2266 1.51461 0
M  V30 3679 H 342.618 0.864653 2.99884 0
M  V30 3680 N 342.919 -1.39368 0.735821 0
M  V30 3681 C 344.33 -1.83313 0.354015 0
M  V30 3682 C 344.681 -1.61461 -1.11466 0
M  V30 3683 O 343.806 -1.10621 -1.85989 0
M  V30 3684 C 344.401 -3.32781 0.635769 0
M  V30 3685 C 342.96 -3.75142 0.307448 0
M  V30 3686 C 342.107 -2.62358 0.897974 0
M  V30 3687 H 345.058 -1.28349 0.933398 0
M  V30 3688 H 345.079 -3.80388 -0.0921773 0
M  V30 3689 H 344.591 -3.48654 1.70476 0
M  V30 3690 H 342.692 -3.64857 -0.755674 0
M  V30 3691 H 342.805 -4.72532 0.790583 0
M  V30 3692 H 341.169 -2.52624 0.324551 0
M  V30 3693 H 341.952 -2.81036 1.97164 0
M  V30 3694 N 344.397 -0.483516 -1.5 0
M  V30 3695 C 345.622 0.0667119 -2.07293 0
M  V30 3696 C 346.047 1.3164 -1.3436 0
M  V30 3697 O 345.405 1.76945 -0.394987 0
M  V30 3698 C 345.453 0.321126 -3.59167 0
M  V30 3699 O 344.557 1.39927 -3.87936 0
M  V30 3700 H 343.898 -0.0184758 -0.663743 0
M  V30 3701 H 346.428 -0.678125 -1.93035 0
M  V30 3702 H 346.438 0.557906 -4.04168 0
M  V30 3703 H 345.113 -0.592007 -4.11665 0
M  V30 3704 H 343.69 1.14882 -3.54763 0
M  V30 3705 N 345.875 1.56104 -0.216619 0
M  V30 3706 C 346.805 2.23063 0.690296 0
M  V30 3707 C 347.786 1.20072 1.20485 0
M  V30 3708 O 348.971 1.48643 1.24976 0
M  V30 3709 C 346.101 2.90672 1.90072 0
M  V30 3710 C 345.055 4.00092 1.5202 0
M  V30 3711 C 344.381 4.54972 2.80899 0
M  V30 3712 C 345.681 5.17398 0.71391 0
M  V30 3713 H 347.375 2.99109 0.132038 0
M  V30 3714 H 344.921 1.43866 0.0620664 0
M  V30 3715 H 346.874 3.36204 2.54057 0
M  V30 3716 H 345.598 2.12066 2.48386 0
M  V30 3717 H 344.257 3.55283 0.903839 0
M  V30 3718 H 343.905 3.73102 3.37348 0
M  V30 3719 H 343.605 5.28817 2.56176 0
M  V30 3720 H 345.129 5.0322 3.45836 0
M  V30 3721 H 346.543 5.59342 1.25735 0
M  V30 3722 H 344.94 5.97444 0.563951 0
M  V30 3723 H 346.01 4.84088 -0.280527 0
M  V30 3724 N 347.353 -0.0568162 1.57498 0
M  V30 3725 C 348.601 -0.751617 1.87604 0
M  V30 3726 C 348.922 -1.77351 0.81066 0
M  V30 3727 O 348.192 -1.95254 -0.159018 0
M  V30 3728 H 346.772 -0.280583 0.692302 0
M  V30 3729 H 349.434 -0.0293483 1.94878 0
M  V30 3730 H 348.53 -1.25852 2.856 0
M  V30 3731 N 348.832 -1.54138 -0.328536 0
M  V30 3732 C 350.057 -1.76378 -1.09112 0
M  V30 3733 C 350.482 -0.508596 -1.81094 0
M  V30 3734 O 349.84 0.539598 -1.73084 0
M  V30 3735 C 349.888 -2.95358 -2.06872 0
M  V30 3736 O 348.992 -2.66556 -3.14677 0
M  V30 3737 H 348.333 -0.584614 -0.314838 0
M  V30 3738 H 350.863 -2.01146 -0.374348 0
M  V30 3739 H 350.873 -3.22566 -2.4983 0
M  V30 3740 H 349.548 -3.86385 -1.5388 0
M  V30 3741 H 348.125 -2.50282 -2.7643 0
M  V30 3742 N 350.31 0.590341 -1.46126 0
M  V30 3743 C 351.535 1.37991 -1.54833 0
M  V30 3744 C 351.96 1.87163 -0.187506 0
M  V30 3745 O 351.318 1.61133 0.831008 0
M  V30 3746 C 351.366 2.54867 -2.55098 0
M  V30 3747 O 350.47 3.56061 -2.08073 0
M  V30 3748 H 349.811 0.411265 -0.521303 0
M  V30 3749 H 352.341 0.716819 -1.91632 0
M  V30 3750 H 352.351 3.01886 -2.74461 0
M  V30 3751 H 351.026 2.18429 -3.53923 0
M  V30 3752 H 349.603 3.15574 -1.98664 0
M  V30 3753 N 351.788 1.33704 0.83433 0
M  V30 3754 C 353.036 1.25169 1.58673 0
M  V30 3755 C 353.357 -0.18127 1.94156 0
M  V30 3756 O 352.627 -1.11113 1.6134 0
M  V30 3757 H 351.207 0.4603 0.58833 0
M  V30 3758 H 353.869 1.67478 0.996847 0
M  V30 3759 H 352.965 1.84856 2.51465 0
M  V30 3760 N 353.266 -1.05314 1.17247 0
M  V30 3761 C 354.677 -1.59753 0.96623 0
M  V30 3762 C 355.028 -1.9005 -0.487378 0
M  V30 3763 O 354.153 -1.68126 -1.36245 0
M  V30 3764 C 354.748 -2.90249 1.74759 0
M  V30 3765 C 353.307 -3.41352 1.58606 0
M  V30 3766 C 352.454 -2.15103 1.75002 0
M  V30 3767 H 355.405 -0.881406 1.31973 0
M  V30 3768 H 355.426 -3.60097 1.22925 0
M  V30 3769 H 354.938 -2.68166 2.8055 0
M  V30 3770 H 353.039 -3.68474 0.552985 0
M  V30 3771 H 353.152 -4.16019 2.37624 0
M  V30 3772 H 351.516 -2.25804 1.17833 0
M  V30 3773 H 352.299 -1.95491 2.82202 0
M  V30 3774 N 354.744 -0.972509 -1.24016 0
M  V30 3775 C 355.676 -0.464375 -2.24446 0
M  V30 3776 C 356.689 0.4295 -1.57032 0
M  V30 3777 O 357.878 0.234902 -1.76948 0
M  V30 3778 C 354.978 0.348385 -3.37105 0
M  V30 3779 C 354.151 -0.53673 -4.34094 0
M  V30 3780 C 353.21 0.220838 -5.25736 0
M  V30 3781 O 352.236 -0.386867 -5.67884 0
M  V30 3782 N 353.438 1.50907 -5.60542 0
M  V30 3783 H 356.203 -1.32788 -2.68677 0
M  V30 3784 H 353.764 -0.844877 -1.38107 0
M  V30 3785 H 355.756 0.863341 -3.95384 0
M  V30 3786 H 354.326 1.11285 -2.92121 0
M  V30 3787 H 353.546 -1.23261 -3.74433 0
M  V30 3788 H 354.834 -1.14022 -4.95859 0
M  V30 3789 H 354.232 2.02444 -5.28236 0
M  V30 3790 H 352.789 1.96962 -6.21329 0
M  V30 3791 N 356.222 1.38976 -0.743202 0
M  V30 3792 C 357.469 2.00343 -0.294752 0
M  V30 3793 C 357.797 1.58983 1.12047 0
M  V30 3794 O 357.052 0.813809 1.77977 0
M  V30 3795 C 357.351 3.55647 -0.353517 0
M  V30 3796 C 357.017 4.16685 -1.72292 0
M  V30 3797 C 355.679 4.3307 -2.09771 0
M  V30 3798 C 358.031 4.50464 -2.62168 0
M  V30 3799 C 355.359 4.80526 -3.36618 0
M  V30 3800 C 357.711 4.99332 -3.88395 0
M  V30 3801 C 356.375 5.13924 -4.25956 0
M  V30 3802 H 355.645 0.733108 -0.107857 0
M  V30 3803 H 358.292 1.6618 -0.951651 0
M  V30 3804 H 356.597 3.89884 0.386954 0
M  V30 3805 H 358.294 4.00998 0.0117269 0
M  V30 3806 H 354.884 4.04339 -1.42155 0
M  V30 3807 H 359.068 4.37416 -2.3448 0
M  V30 3808 H 354.324 4.90008 -3.65653 0
M  V30 3809 H 358.498 5.2444 -4.58187 0
M  V30 3810 H 356.125 5.50457 -5.2431 0
M  V30 3811 N 357.7 0.491464 1.49741 0
M  V30 3812 C 358.94 -0.0549118 2.04326 0
M  V30 3813 C 359.304 -1.35148 1.36378 0
M  V30 3814 O 360.505 -1.9815 1.81631 0
M  V30 3815 C 358.776 -0.213841 3.5676 0
M  V30 3816 S 360.335 -0.715839 4.32922 0
M  V30 3817 H 357.153 -0.00630513 0.710972 0
M  V30 3818 H 359.755 0.663257 1.83905 0
M  V30 3819 H 358.459 0.73527 4.0376 0
M  V30 3820 H 357.99 -0.957529 3.81569 0
M  V30 3821 H 360.005 -1.9864 4.54705 0
M  V30 3822 N 359.178 -1.55987 0.224894 0
M  V30 3823 C 360.141 -2.19178 -0.670348 0
M  V30 3824 C 361.141 -1.15461 -1.11917 0
M  V30 3825 O 362.331 -1.40675 -1.02743 0
M  V30 3826 C 359.463 -2.81777 -1.9187 0
M  V30 3827 H 360.656 -2.99662 -0.119364 0
M  V30 3828 H 358.209 -1.5628 -0.0247128 0
M  V30 3829 H 358.944 -2.05172 -2.51147 0
M  V30 3830 H 358.729 -3.57732 -1.60531 0
M  V30 3831 H 360.219 -3.30205 -2.55645 0
M  V30 3832 N 360.656 0.0484629 -1.57525 0
M  V30 3833 C 361.881 0.759177 -1.93006 0
M  V30 3834 C 362.306 1.69125 -0.823317 0
M  V30 3835 O 361.664 1.79931 0.222364 0
M  V30 3836 C 361.712 1.50899 -3.27509 0
M  V30 3837 O 360.816 2.62112 -3.18388 0
M  V30 3838 H 360.157 0.205564 -0.631379 0
M  V30 3839 H 362.687 0.00972959 -2.04598 0
M  V30 3840 H 362.697 1.88317 -3.6194 0
M  V30 3841 H 361.372 0.825269 -4.0763 0
M  V30 3842 H 359.949 2.27379 -2.95556 0
M  V30 3843 N 362.134 1.5431 0.320358 0
M  V30 3844 C 363.55 1.45091 0.664889 0
M  V30 3845 C 363.75 0.626382 1.91517 0
M  V30 3846 O 362.806 0.126443 2.52183 0
M  V30 3847 C 364.119 2.88848 0.83591 0
M  V30 3848 C 365.667 2.9877 0.933046 0
M  V30 3849 C 366.142 4.43683 1.13621 0
M  V30 3850 N 367.633 4.47309 1.20287 0
M  V30 3851 C 368.368 5.56595 1.37801 0
M  V30 3852 N 367.864 6.75844 1.52338 0
M  V30 3853 N 369.657 5.44248 1.40535 0
M  V30 3854 H 361.808 2.06398 -0.501374 0
M  V30 3855 H 364.071 0.933963 -0.162534 0
M  V30 3856 H 363.777 3.51698 -0.0116092 0
M  V30 3857 H 363.651 3.35148 1.73078 0
M  V30 3858 H 366.038 2.36045 1.77107 0
M  V30 3859 H 366.119 2.55796 0.0145782 0
M  V30 3860 H 365.763 5.06995 0.303032 0
M  V30 3861 H 365.693 4.84269 2.0686 0
M  V30 3862 H 368.184 3.61388 1.10485 0
M  V30 3863 H 368.497 7.54892 1.65403 0
M  V30 3864 H 366.842 6.78746 1.4943 0
M  V30 3865 H 370.033 4.50038 1.28777 0
M  V30 3866 H 370.206 6.29473 1.53842 0
M  V30 3867 N 363.613 -0.582584 1.46437 0
M  V30 3868 C 364.576 -1.67366 1.56592 0
M  V30 3869 C 365.576 -1.54575 0.443072 0
M  V30 3870 O 366.766 -1.59191 0.707381 0
M  V30 3871 C 363.898 -3.06791 1.48634 0
M  V30 3872 H 365.091 -1.5972 2.5383 0
M  V30 3873 H 362.644 -0.800432 1.34249 0
M  V30 3874 H 363.379 -3.19993 0.526763 0
M  V30 3875 H 363.164 -3.17484 2.30101 0
M  V30 3876 H 364.654 -3.86218 1.58826 0
M  V30 3877 N 365.091 -1.34144 -0.827227 0
M  V30 3878 C 366.321 -1.29138 -1.61267 0
M  V30 3879 C 366.729 0.137597 -1.88699 0
M  V30 3880 O 366.072 1.09379 -1.47587 0
M  V30 3881 C 366.134 -2.0097 -2.9808 0
M  V30 3882 C 365.798 -3.50242 -2.93563 0
M  V30 3883 C 366.795 -4.4523 -2.68452 0
M  V30 3884 C 364.48 -3.92592 -3.13331 0
M  V30 3885 C 366.474 -5.80542 -2.63154 0
M  V30 3886 C 364.161 -5.28005 -3.07658 0
M  V30 3887 C 365.159 -6.21792 -2.82602 0
M  V30 3888 O 364.847 -7.54723 -2.76853 0
M  V30 3889 H 364.579 -0.445851 -0.508127 0
M  V30 3890 H 367.133 -1.77263 -1.03763 0
M  V30 3891 H 365.363 -1.47451 -3.57484 0
M  V30 3892 H 367.052 -1.89309 -3.5905 0
M  V30 3893 H 367.818 -4.13832 -2.52919 0
M  V30 3894 H 363.697 -3.19994 -3.31851 0
M  V30 3895 H 367.241 -6.53717 -2.43516 0
M  V30 3896 H 363.138 -5.59023 -3.22743 0
M  V30 3897 H 363.906 -7.64409 -2.92611 0
M  V30 3898 N 366.569 1.04691 -1.17803 0
M  V30 3899 C 367.479 2.16057 -0.914151 0
M  V30 3900 C 368.495 1.73589 0.119503 0
M  V30 3901 O 369.671 2.01308 -0.0609468 0
M  V30 3902 C 366.736 3.4394 -0.436603 0
M  V30 3903 C 365.797 4.00825 -1.53746 0
M  V30 3904 C 365.03 5.22604 -1.0826 0
M  V30 3905 O 365.253 5.70367 0.0612244 0
M  V30 3906 O 364.187 5.7186 -1.87775 0
M  V30 3907 H 368.013 2.41169 -1.84584 0
M  V30 3908 H 365.598 1.1453 -0.959334 0
M  V30 3909 H 367.48 4.21024 -0.178057 0
M  V30 3910 H 366.155 3.20316 0.466869 0
M  V30 3911 H 365.062 3.25158 -1.84995 0
M  V30 3912 H 366.395 4.28778 -2.41683 0
M  V30 3913 N 368.047 0.979072 1.23499 0
M  V30 3914 C 369.272 0.664845 1.96455 0
M  V30 3915 C 369.697 -0.761287 1.72006 0
M  V30 3916 O 369.055 -1.51837 0.990713 0
M  V30 3917 C 369.103 0.959479 3.47601 0
M  V30 3918 O 368.207 0.0508168 4.12369 0
M  V30 3919 H 367.548 0.250185 0.615064 0
M  V30 3920 H 370.078 1.31231 1.5697 0
M  V30 3921 H 370.088 0.895642 3.98048 0
M  V30 3922 H 368.763 1.99876 3.64723 0
M  V30 3923 H 367.34 0.16895 3.72517 0
M  V30 3924 N 369.525 -1.3858 0.750561 0
M  V30 3925 C 370.75 -2.04997 0.314812 0
M  V30 3926 C 371.175 -1.56235 -1.04749 0
M  V30 3927 O 370.533 -0.712981 -1.66692 0
M  V30 3928 C 370.581 -3.58961 0.343415 0
M  V30 3929 O 369.685 -4.07025 -0.663628 0
M  V30 3930 H 369.026 -0.649081 0.139962 0
M  V30 3931 H 371.556 -1.77313 1.02084 0
M  V30 3932 H 371.566 -4.07542 0.193233 0
M  V30 3933 H 370.241 -3.93811 1.33738 0
M  V30 3934 H 368.818 -3.6982 -0.478307 0
M  V30 3935 N 371.003 -0.499398 -1.49478 0
M  V30 3936 C 372.419 -0.155261 -1.58843 0
M  V30 3937 C 372.619 1.34008 -1.50479 0
M  V30 3938 O 371.675 2.11589 -1.37791 0
M  V30 3939 C 372.988 -0.730636 -2.91689 0
M  V30 3940 C 374.536 -0.696599 -3.0515 0
M  V30 3941 C 375.011 -1.25001 -4.40612 0
M  V30 3942 N 376.502 -1.21064 -4.47099 0
M  V30 3943 C 377.237 -1.60905 -5.50361 0
M  V30 3944 N 376.733 -2.08331 -6.60735 0
M  V30 3945 N 378.526 -1.52331 -5.41065 0
M  V30 3946 H 370.677 -1.47162 -1.53158 0
M  V30 3947 H 372.94 -0.610309 -0.725415 0
M  V30 3948 H 372.646 -1.77928 -3.03372 0
M  V30 3949 H 372.52 -0.190161 -3.7672 0
M  V30 3950 H 374.907 0.343204 -2.93097 0
M  V30 3951 H 374.988 -1.2742 -2.21806 0
M  V30 3952 H 374.632 -2.28859 -4.53416 0
M  V30 3953 H 374.562 -0.64836 -5.22593 0
M  V30 3954 H 377.053 -0.863128 -3.67911 0
M  V30 3955 H 377.366 -2.36805 -7.35624 0
M  V30 3956 H 375.711 -2.12304 -6.6178 0
M  V30 3957 H 378.902 -1.151 -4.53729 0
M  V30 3958 H 379.075 -1.83704 -6.21415 0
M  V30 3959 N 372.481 1.55866 -0.233164 0
M  V30 3960 C 373.444 2.1953 0.658715 0
M  V30 3961 C 374.444 1.16053 1.11303 0
M  V30 3962 O 375.634 1.41218 1.01996 0
M  V30 3963 C 372.766 2.82791 1.90373 0
M  V30 3964 H 373.959 2.99721 0.10347 0
M  V30 3965 H 371.512 1.56291 0.0164245 0
M  V30 3966 H 372.247 2.06501 2.50056 0
M  V30 3967 H 372.032 3.58578 1.58632 0
M  V30 3968 H 373.522 3.31556 2.53891 0
M  V30 3969 N 373.959 -0.0401083 1.57549 0
M  V30 3970 C 375.236 -0.767917 1.79896 0
M  V30 3971 C 375.616 -1.9416 0.82856 0
M  V30 3972 O 374.964 -2.2812 -0.131671 0
M  V30 3973 C 375.174 -1.2113 3.27305 0
M  V30 3974 C 376.522 -1.63175 3.91994 0
M  V30 3975 O 377.546 -1.30616 3.31388 0
M  V30 3976 O 376.405 -2.23565 4.98679 0
M  V30 3977 H 373.499 -0.370441 0.739393 0
M  V30 3978 H 376.045 -0.017737 1.69691 0
M  V30 3979 H 374.817 -0.372937 3.89519 0
M  V30 3980 H 374.44 -2.02183 3.42356 0
M  V30 3981 N 375.437 -1.54477 -0.31217 0
M  V30 3982 C 376.347 -1.87695 -1.4074 0
M  V30 3983 C 377.363 -0.769975 -1.56036 0
M  V30 3984 O 378.539 -1.06537 -1.70915 0
M  V30 3985 C 375.604 -2.10755 -2.75287 0
M  V30 3986 C 374.665 -3.34514 -2.69071 0
M  V30 3987 C 373.898 -3.56465 -3.97201 0
M  V30 3988 O 374.121 -2.81637 -4.96021 0
M  V30 3989 O 373.055 -4.49964 -3.9977 0
M  V30 3990 H 376.881 -2.80849 -1.15574 0
M  V30 3991 H 374.466 -1.40526 -0.507228 0
M  V30 3992 H 376.348 -2.27188 -3.54913 0
M  V30 3993 H 375.023 -1.20788 -3.0032 0
M  V30 3994 H 373.93 -3.23456 -1.87955 0
M  V30 3995 H 375.263 -4.24575 -2.48992 0
M  V30 3996 N 376.915 0.57481 -1.46744 0
M  V30 3997 C 377.845 1.69337 -1.60771 0
M  V30 3998 C 378.826 1.63825 -0.457736 0
M  V30 3999 O 380.011 1.8172 -0.684947 0
M  V30 4000 C 377.141 3.0798 -1.60517 0
M  V30 4001 C 376.095 3.28327 -2.74564 0
M  V30 4002 C 375.421 4.67578 -2.59373 0
M  V30 4003 C 376.721 3.15398 -4.16319 0
M  V30 4004 H 378.415 1.57853 -2.54407 0
M  V30 4005 H 375.961 0.75799 -1.22436 0
M  V30 4006 H 377.914 3.86061 -1.68923 0
M  V30 4007 H 376.638 3.20381 -0.634305 0
M  V30 4008 H 375.297 2.52649 -2.65639 0
M  V30 4009 H 374.945 4.76755 -1.60353 0
M  V30 4010 H 374.645 4.82144 -3.35873 0
M  V30 4011 H 376.169 5.47817 -2.69682 0
M  V30 4012 H 377.583 3.83315 -4.26313 0
M  V30 4013 H 375.98 3.41482 -4.93468 0
M  V30 4014 H 377.05 2.12372 -4.3592 0
M  V30 4015 N 378.394 1.34581 0.820102 0
M  V30 4016 C 379.619 1.30333 1.61332 0
M  V30 4017 C 380.044 -0.119339 1.87721 0
M  V30 4018 O 379.402 -1.08197 1.45475 0
M  V30 4019 C 379.45 2.10258 2.92957 0
M  V30 4020 O 378.554 1.47404 3.85157 0
M  V30 4021 H 377.895 0.447488 0.490561 0
M  V30 4022 H 380.425 1.77425 1.01889 0
M  V30 4023 H 380.435 2.21718 3.42498 0
M  V30 4024 H 379.11 3.13693 2.73074 0
M  V30 4025 H 377.687 1.44703 3.43679 0
M  V30 4026 N 379.872 -1.04064 1.18357 0
M  V30 4027 C 381.118 -1.77528 0.980397 0
M  V30 4028 C 381.451 -1.87948 -0.48879 0
M  V30 4029 O 380.726 -1.3876 -1.36293 0
M  V30 4030 C 381.009 -3.20797 1.63588 0
M  V30 4031 C 380.862 -3.1832 3.17793 0
M  V30 4032 C 382.181 -4.18911 1.34914 0
M  V30 4033 H 379.3 -0.644443 0.357578 0
M  V30 4034 H 381.942 -1.2156 1.46024 0
M  V30 4035 H 380.092 -3.68586 1.22788 0
M  V30 4036 H 381.764 -2.78521 3.67728 0
M  V30 4037 H 380.007 -2.56351 3.49952 0
M  V30 4038 H 380.678 -4.19489 3.58794 0
M  V30 4039 H 383.154 -3.7967 1.70265 0
M  V30 4040 H 382.03 -5.17374 1.83346 0
M  V30 4041 H 382.291 -4.41262 0.272027 0
M  V30 4042 N 381.35 -0.985608 -1.22978 0
M  V30 4043 C 382.761 -0.693593 -1.73338 0
M  V30 4044 C 383.112 0.789935 -1.79595 0
M  V30 4045 O 382.237 1.61771 -1.43733 0
M  V30 4046 C 382.832 -1.25235 -3.14804 0
M  V30 4047 C 381.391 -1.00987 -3.626 0
M  V30 4048 C 380.538 -1.37695 -2.40698 0
M  V30 4049 H 383.489 -1.15884 -1.08428 0
M  V30 4050 H 383.51 -0.627329 -3.75293 0
M  V30 4051 H 383.022 -2.33209 -3.10218 0
M  V30 4052 H 381.123 0.0535565 -3.72562 0
M  V30 4053 H 381.236 -1.66812 -4.49122 0
M  V30 4054 H 379.6 -0.795459 -2.4196 0
M  V30 4055 H 380.383 -2.46657 -2.38779 0
M  V30 4056 N 382.828 1.3818 -0.7579 0
M  V30 4057 C 383.791 2.28764 -0.141286 0
M  V30 4058 C 384.791 1.47388 0.642907 0
M  V30 4059 O 385.981 1.67781 0.468536 0
M  V30 4060 C 383.113 3.31184 0.808069 0
M  V30 4061 H 384.306 2.848 -0.939633 0
M  V30 4062 H 381.859 1.47212 -0.525191 0
M  V30 4063 H 382.594 2.80247 1.63193 0
M  V30 4064 H 382.379 3.91314 0.248104 0
M  V30 4065 H 383.869 3.98909 1.23536 0
M  V30 4066 N 384.306 0.507319 1.49211 0
M  V30 4067 C 385.554 -0.0348839 2.0207 0
M  V30 4068 C 385.875 -1.36898 1.38866 0
M  V30 4069 O 385.145 -1.88133 0.546151 0
M  V30 4070 H 383.725 -0.0158812 0.746831 0
M  V30 4071 H 386.387 0.665998 1.83168 0
M  V30 4072 H 385.483 -0.159917 3.1169 0
M  V30 4073 N 385.784 -1.5574 0.241426 0
M  V30 4074 C 386.747 -2.19877 -0.647063 0
M  V30 4075 C 387.747 -1.16642 -1.10686 0
M  V30 4076 O 388.937 -1.41757 -1.01245 0
M  V30 4077 C 386.069 -2.83797 -1.88871 0
M  V30 4078 H 387.262 -2.99772 -0.087574 0
M  V30 4079 H 384.815 -1.56298 -0.00813574 0
M  V30 4080 H 385.55 -2.07824 -2.48957 0
M  V30 4081 H 385.335 -3.59414 -1.56728 0
M  V30 4082 H 386.825 -3.32898 -2.52129 0
M  V30 4083 N 387.262 0.0317525 -1.57568 0
M  V30 4084 C 388.678 0.38735 -1.54828 0
M  V30 4085 C 388.878 1.7677 -0.967187 0
M  V30 4086 O 387.934 2.45581 -0.587063 0
M  V30 4087 C 389.247 0.291667 -2.99282 0
M  V30 4088 C 390.795 0.368946 -3.10818 0
M  V30 4089 C 391.27 0.302741 -4.56998 0
M  V30 4090 N 392.761 0.361617 -4.61786 0
M  V30 4091 C 393.496 0.333238 -5.72431 0
M  V30 4092 N 392.992 0.257308 -6.92322 0
M  V30 4093 N 394.785 0.382769 -5.60795 0
M  V30 4094 H 386.936 -0.871609 -1.93692 0
M  V30 4095 H 389.199 -0.331161 -0.888277 0
M  V30 4096 H 388.905 -0.656794 -3.45513 0
M  V30 4097 H 388.779 1.08638 -3.61217 0
M  V30 4098 H 391.166 1.30784 -2.64536 0
M  V30 4099 H 391.247 -0.455066 -2.5172 0
M  V30 4100 H 390.891 -0.632473 -5.03947 0
M  V30 4101 H 390.821 1.14482 -5.14005 0
M  V30 4102 H 393.312 0.422923 -3.75526 0
M  V30 4103 H 393.625 0.24068 -7.72425 0
M  V30 4104 H 391.97 0.223396 -6.94641 0
M  V30 4105 H 395.161 0.44006 -4.66027 0
M  V30 4106 H 395.334 0.357184 -6.47015 0
M  V30 4107 N 388.74 1.54641 0.303973 0
M  V30 4108 C 389.986 1.74038 1.04109 0
M  V30 4109 C 390.319 0.523051 1.87024 0
M  V30 4110 O 389.594 -0.479874 1.88487 0
M  V30 4111 C 389.877 3.02761 1.94955 0
M  V30 4112 C 389.73 4.34787 1.1524 0
M  V30 4113 C 391.049 3.27336 2.94175 0
M  V30 4114 H 388.168 0.63323 0.377079 0
M  V30 4115 H 390.81 1.87354 0.316001 0
M  V30 4116 H 388.96 2.9154 2.56782 0
M  V30 4117 H 390.632 4.57922 0.557236 0
M  V30 4118 H 388.875 4.31407 0.455053 0
M  V30 4119 H 389.546 5.21116 1.8205 0
M  V30 4120 H 392.022 3.38148 2.42477 0
M  V30 4121 H 390.898 4.18726 3.54908 0
M  V30 4122 H 391.159 2.45491 3.67677 0
M  V30 4123 N 390.218 -0.567019 1.47046 0
M  V30 4124 C 391.634 -0.891975 1.32348 0
M  V30 4125 C 391.834 -1.99154 0.306616 0
M  V30 4126 O 390.89 -2.50883 -0.28532 0
M  V30 4127 C 392.203 -1.29449 2.7141 0
M  V30 4128 C 393.751 -1.40646 2.79621 0
M  V30 4129 C 394.226 -1.84257 4.19301 0
M  V30 4130 N 395.717 -1.91424 4.21795 0
M  V30 4131 C 396.452 -2.26476 5.26779 0
M  V30 4132 N 395.948 -2.60211 6.42077 0
M  V30 4133 N 397.741 -2.27166 5.14152 0
M  V30 4134 H 389.892 0.159074 2.11803 0
M  V30 4135 H 392.155 0.00849752 0.947962 0
M  V30 4136 H 391.861 -0.560448 3.47206 0
M  V30 4137 H 391.735 -2.25273 3.02542 0
M  V30 4138 H 394.122 -2.13133 2.04104 0
M  V30 4139 H 394.203 -0.430339 2.52154 0
M  V30 4140 H 393.847 -1.12343 4.95319 0
M  V30 4141 H 393.777 -2.82855 4.44185 0
M  V30 4142 H 396.268 -1.6778 3.38612 0
M  V30 4143 H 396.581 -2.85956 7.17948 0
M  V30 4144 H 394.926 -2.57813 6.45413 0
M  V30 4145 H 398.117 -2.00244 4.23107 0
M  V30 4146 H 398.29 -2.54154 5.96079 0
M  V30 4147 N 391.696 -1.35014 -0.812953 0
M  V30 4148 C 392.942 -1.2812 -1.57204 0
M  V30 4149 C 393.275 0.145869 -1.93651 0
M  V30 4150 O 392.55 1.0937 -1.60836 0
M  V30 4151 C 392.833 -2.18162 -2.86492 0
M  V30 4152 C 392.686 -3.69454 -2.56561 0
M  V30 4153 C 394.005 -2.07439 -3.88145 0
M  V30 4154 H 391.124 -0.466746 -0.570366 0
M  V30 4155 H 393.766 -1.65357 -0.935783 0
M  V30 4156 H 391.916 -1.86535 -3.40789 0
M  V30 4157 H 393.588 -4.11493 -2.08497 0
M  V30 4158 H 391.831 -3.9005 -1.89851 0
M  V30 4159 H 392.502 -4.27835 -3.48799 0
M  V30 4160 H 394.978 -2.35228 -3.4323 0
M  V30 4161 H 393.854 -2.7265 -4.76396 0
M  V30 4162 H 394.115 -1.05439 -4.29343 0
M  V30 4163 N 393.175 1.03435 -1.18907 0
M  V30 4164 C 394.105 2.13503 -0.945448 0
M  V30 4165 C 395.086 1.69682 0.119189 0
M  V30 4166 O 396.271 1.94169 -0.034707 0
M  V30 4167 C 393.401 3.44004 -0.477316 0
M  V30 4168 C 392.355 4.0148 -1.48316 0
M  V30 4169 C 391.681 5.27537 -0.872311 0
M  V30 4170 C 392.981 4.36921 -2.86177 0
M  V30 4171 H 394.675 2.34141 -1.86597 0
M  V30 4172 H 392.221 1.12523 -0.898584 0
M  V30 4173 H 394.174 4.20372 -0.294204 0
M  V30 4174 H 392.898 3.23072 0.478786 0
M  V30 4175 H 391.557 3.27201 -1.65332 0
M  V30 4176 H 391.205 5.02917 0.0911752 0
M  V30 4177 H 390.905 5.66954 -1.54393 0
M  V30 4178 H 392.429 6.06576 -0.699871 0
M  V30 4179 H 393.843 5.04248 -2.72776 0
M  V30 4180 H 392.24 4.87405 -3.50081 0
M  V30 4181 H 393.31 3.46466 -3.39248 0
M  V30 4182 N 394.653 0.992116 1.22453 0
M  V30 4183 C 395.563 0.55065 2.28046 0
M  V30 4184 C 396.579 -0.400189 1.69335 0
M  V30 4185 O 397.755 -0.267215 1.99619 0
M  V30 4186 C 394.82 -0.128496 3.46462 0
M  V30 4187 C 393.881 0.865208 4.20491 0
M  V30 4188 C 393.114 0.218377 5.33253 0
M  V30 4189 O 393.337 -0.987894 5.6178 0
M  V30 4190 O 392.271 0.922845 5.94783 0
M  V30 4191 H 396.097 1.4291 2.67975 0
M  V30 4192 H 393.682 0.760326 1.28606 0
M  V30 4193 H 395.564 -0.508947 4.18315 0
M  V30 4194 H 394.239 -0.981526 3.0846 0
M  V30 4195 H 393.146 1.29658 3.50913 0
M  V30 4196 H 394.479 1.68741 4.62371 0
M  V30 4197 N 396.131 -1.37776 0.765217 0
M  V30 4198 C 397.359 -2.04124 0.337767 0
M  V30 4199 C 397.774 -1.57715 -1.03785 0
M  V30 4200 O 397.131 -0.755447 -1.6613 0
M  V30 4201 C 397.182 -3.59658 0.364442 0
M  V30 4202 O 396.903 -4.04367 1.68579 0
M  V30 4203 C 398.404 -4.43236 -0.0754221 0
M  V30 4204 H 395.624 -0.655696 0.142491 0
M  V30 4205 H 398.168 -1.76238 1.03732 0
M  V30 4206 H 396.323 -3.86339 -0.286471 0
M  V30 4207 H 396.737 -4.98857 1.61993 0
M  V30 4208 H 398.211 -5.52 -0.00560067 0
M  V30 4209 H 398.688 -4.2455 -1.12491 0
M  V30 4210 H 399.294 -4.21767 0.547055 0
M  V30 4211 N 397.609 -0.515225 -1.4894 0
M  V30 4212 C 398.834 0.022727 -2.07388 0
M  V30 4213 C 399.259 1.2876 -1.37122 0
M  V30 4214 O 398.617 1.76067 -0.432431 0
M  V30 4215 C 398.665 0.244869 -3.59768 0
M  V30 4216 O 397.769 1.31667 -3.90817 0
M  V30 4217 H 397.11 -0.0325506 -0.663202 0
M  V30 4218 H 399.64 -0.718918 -1.91553 0
M  V30 4219 H 399.65 0.47205 -4.0526 0
M  V30 4220 H 398.325 -0.679194 -4.10317 0
M  V30 4221 H 396.902 1.07331 -3.5712 0
M  V30 4222 N 399.087 1.5561 -0.249682 0
M  V30 4223 C 400.364 1.90932 0.424761 0
M  V30 4224 C 400.744 1.17078 1.75658 0
M  V30 4225 O 400.092 0.289176 2.26663 0
M  V30 4226 C 400.302 3.43975 0.590109 0
M  V30 4227 C 401.65 4.15281 0.884714 0
M  V30 4228 O 402.674 3.49729 0.67587 0
M  V30 4229 O 401.533 5.31236 1.28259 0
M  V30 4230 H 398.627 0.794815 0.228468 0
M  V30 4231 H 401.173 1.67135 -0.293954 0
M  V30 4232 H 399.945 3.89748 -0.34818 0
M  V30 4233 H 399.568 3.73644 1.35926 0
M  V30 4234 N 400.565 -0.0233959 1.57583 0
M  V30 4235 C 401.981 -0.379134 1.55031 0
M  V30 4236 C 402.181 -1.76255 0.976548 0
M  V30 4237 O 401.237 -2.45266 0.600078 0
M  V30 4238 C 402.55 -0.275792 2.99433 0
M  V30 4239 C 404.098 -0.352458 3.11009 0
M  V30 4240 C 404.573 -0.278501 4.57152 0
M  V30 4241 N 406.064 -0.337123 4.61972 0
M  V30 4242 C 406.799 -0.302876 5.726 0
M  V30 4243 N 406.295 -0.220589 6.92449 0
M  V30 4244 N 408.088 -0.353023 5.6099 0
M  V30 4245 H 400.239 0.881869 1.93227 0
M  V30 4246 H 402.502 0.335867 0.886509 0
M  V30 4247 H 402.208 0.675108 3.4516 0
M  V30 4248 H 402.082 -1.06721 3.61788 0
M  V30 4249 H 404.469 -1.29379 2.65226 0
M  V30 4250 H 404.55 0.468409 2.51475 0
M  V30 4251 H 404.194 0.659189 5.03604 0
M  V30 4252 H 404.124 -1.11755 5.14605 0
M  V30 4253 H 406.615 -0.403002 3.75745 0
M  V30 4254 H 406.928 -0.199713 7.72542 0
M  V30 4255 H 405.273 -0.186555 6.9475 0
M  V30 4256 H 408.464 -0.415339 4.66254 0
M  V30 4257 H 408.637 -0.322866 6.47195 0
M  V30 4258 N 402.043 -1.548 -0.295768 0
M  V30 4259 C 403.291 -1.73985 -1.02828 0
M  V30 4260 C 403.612 -0.531406 -1.87619 0
M  V30 4261 O 402.882 0.454221 -1.90561 0
M  V30 4262 H 401.462 -0.641556 -0.382642 0
M  V30 4263 H 404.124 -1.92163 -0.325489 0
M  V30 4264 H 403.22 -2.63129 -1.67838 0
M  V30 4265 N 403.521 0.559213 -1.47345 0
M  V30 4266 C 404.767 1.31614 -1.55079 0
M  V30 4267 C 405.122 1.91257 -0.209422 0
M  V30 4268 O 404.415 1.74796 0.784656 0
M  V30 4269 C 404.609 2.44853 -2.6035 0
M  V30 4270 C 404.438 1.96305 -4.04591 0
M  V30 4271 C 403.208 1.8024 -4.72061 0
M  V30 4272 C 405.406 1.50872 -4.91673 0
M  V30 4273 N 403.388 1.26011 -6.00828 0
M  V30 4274 C 404.759 1.08395 -6.10451 0
M  V30 4275 C 406.814 1.38905 -4.78132 0
M  V30 4276 C 405.517 0.551399 -7.17183 0
M  V30 4277 C 407.543 0.870518 -5.84958 0
M  V30 4278 C 406.905 0.455661 -7.02925 0
M  V30 4279 H 403.004 0.473712 -0.62219 0
M  V30 4280 H 405.588 0.634103 -1.84085 0
M  V30 4281 H 403.759 3.10589 -2.33215 0
M  V30 4282 H 405.491 3.11849 -2.57938 0
M  V30 4283 H 402.246 2.02895 -4.27937 0
M  V30 4284 H 402.67 1.00991 -6.69425 0
M  V30 4285 H 407.312 1.69591 -3.87297 0
M  V30 4286 H 405.03 0.232159 -8.07766 0
M  V30 4287 H 408.616 0.781507 -5.76527 0
M  V30 4288 H 407.496 0.0606414 -7.84177 0
M  V30 4289 N 404.999 1.35443 0.805782 0
M  V30 4290 C 406.245 1.2996 1.56467 0
M  V30 4291 C 406.6 -0.124742 1.91995 0
M  V30 4292 O 405.893 -1.07533 1.58579 0
M  V30 4293 C 406.087 2.14045 2.86216 0
M  V30 4294 C 405.916 3.64512 2.63365 0
M  V30 4295 C 404.686 4.33744 2.59219 0
M  V30 4296 C 406.884 4.58142 2.33688 0
M  V30 4297 N 404.866 5.69953 2.28094 0
M  V30 4298 C 406.237 5.8248 2.12408 0
M  V30 4299 C 408.292 4.46877 2.19558 0
M  V30 4300 C 406.995 6.96818 1.78429 0
M  V30 4301 C 409.021 5.61065 1.86976 0
M  V30 4302 C 408.383 6.84431 1.66532 0
M  V30 4303 H 404.482 0.530817 0.574245 0
M  V30 4304 H 407.066 1.70333 0.943126 0
M  V30 4305 H 405.237 1.75942 3.46264 0
M  V30 4306 H 406.969 2.00075 3.51784 0
M  V30 4307 H 403.724 3.86365 2.73896 0
M  V30 4308 H 404.148 6.41845 2.15323 0
M  V30 4309 H 408.79 3.52102 2.34061 0
M  V30 4310 H 406.508 7.91559 1.62664 0
M  V30 4311 H 410.094 5.54302 1.7675 0
M  V30 4312 H 408.974 7.71294 1.41688 0
M  V30 4313 N 406.477 -1.02803 1.19454 0
M  V30 4314 C 407.407 -2.12999 0.956758 0
M  V30 4315 C 408.388 -1.69743 -0.110188 0
M  V30 4316 O 409.573 -1.94148 0.0450038 0
M  V30 4317 C 406.703 -3.43746 0.495553 0
M  V30 4318 C 405.657 -4.00688 1.50443 0
M  V30 4319 C 404.983 -5.27067 0.900275 0
M  V30 4320 C 406.283 -4.35397 2.8849 0
M  V30 4321 H 407.977 -2.33148 1.87836 0
M  V30 4322 H 405.523 -1.12045 0.904539 0
M  V30 4323 H 407.476 -4.2021 0.316493 0
M  V30 4324 H 406.2 -3.23321 -0.461646 0
M  V30 4325 H 404.859 -3.2632 1.67065 0
M  V30 4326 H 404.507 -5.02959 -0.064503 0
M  V30 4327 H 404.207 -5.66127 1.57397 0
M  V30 4328 H 405.731 -6.06196 0.73203 0
M  V30 4329 H 407.145 -5.02795 2.75446 0
M  V30 4330 H 405.542 -4.85541 3.52661 0
M  V30 4331 H 406.612 -3.44662 3.41081 0
M  V30 4332 N 407.956 -0.998596 -1.21925 0
M  V30 4333 C 409.196 -0.685948 -1.92546 0
M  V30 4334 C 409.56 0.768441 -1.75952 0
M  V30 4335 O 410.761 1.19277 -2.40887 0
M  V30 4336 C 409.032 -1.08767 -3.40448 0
M  V30 4337 S 410.591 -0.894251 -4.29591 0
M  V30 4338 H 407.409 -0.250622 -0.665364 0
M  V30 4339 H 410.011 -1.28207 -1.47591 0
M  V30 4340 H 408.715 -2.14242 -3.50041 0
M  V30 4341 H 408.246 -0.48357 -3.90417 0
M  V30 4342 H 410.261 0.212149 -4.95746 0
M  V30 4343 N 409.434 1.37368 -0.772513 0
M  V30 4344 C 410.85 1.53059 -0.452231 0
M  V30 4345 C 411.05 1.73065 1.03203 0
M  V30 4346 O 410.106 1.75245 1.81784 0
M  V30 4347 C 411.419 2.72659 -1.26797 0
M  V30 4348 C 412.967 2.86521 -1.25995 0
M  V30 4349 C 413.442 4.09105 -2.05905 0
M  V30 4350 N 414.933 4.16219 -2.03263 0
M  V30 4351 C 415.668 5.10107 -2.61875 0
M  V30 4352 N 415.164 6.09547 -3.29278 0
M  V30 4353 N 416.957 5.02596 -2.51701 0
M  V30 4354 H 409.108 1.22634 -1.7342 0
M  V30 4355 H 411.371 0.597206 -0.736239 0
M  V30 4356 H 411.077 2.64343 -2.31982 0
M  V30 4357 H 410.951 3.66363 -0.897672 0
M  V30 4358 H 413.338 2.94308 -0.216081 0
M  V30 4359 H 413.419 1.93774 -1.66989 0
M  V30 4360 H 413.063 4.0208 -3.10313 0
M  V30 4361 H 412.993 5.00968 -1.62292 0
M  V30 4362 H 415.484 3.45012 -1.54192 0
M  V30 4363 H 415.797 6.77718 -3.71374 0
M  V30 4364 H 414.142 6.09824 -3.33377 0
M  V30 4365 H 417.333 4.23855 -1.98657 0
M  V30 4366 H 417.506 5.75582 -2.97673 0
M  V30 4367 N 410.912 0.523116 1.48665 0
M  V30 4368 C 412.142 -0.00961724 2.06598 0
M  V30 4369 C 412.55 -1.29333 1.38093 0
M  V30 4370 O 411.893 -1.77846 0.46007 0
M  V30 4371 C 411.955 -0.311135 3.58151 0
M  V30 4372 C 411.619 0.878092 4.48485 0
M  V30 4373 C 412.616 1.77464 4.88674 0
M  V30 4374 C 410.301 1.08315 4.90483 0
M  V30 4375 C 412.295 2.86021 5.69623 0
M  V30 4376 C 409.982 2.17187 5.71203 0
M  V30 4377 C 410.98 3.05873 6.10681 0
M  V30 4378 O 410.668 4.12862 6.89783 0
M  V30 4379 H 410.4 0.0272658 0.67545 0
M  V30 4380 H 412.954 0.726156 1.92136 0
M  V30 4381 H 411.184 -1.10079 3.70701 0
M  V30 4382 H 412.873 -0.785125 3.98234 0
M  V30 4383 H 413.639 1.62813 4.56855 0
M  V30 4384 H 409.518 0.402149 4.59243 0
M  V30 4385 H 413.062 3.55272 6.00356 0
M  V30 4386 H 408.959 2.31824 6.02435 0
M  V30 4387 H 409.727 4.10487 7.08126 0
M  V30 4388 N 412.39 -1.55475 0.257931 0
M  V30 4389 C 413.638 -1.98813 -0.363009 0
M  V30 4390 C 413.959 -1.14757 -1.57657 0
M  V30 4391 O 413.229 -0.232956 -1.9451 0
M  V30 4392 H 411.809 -0.734308 -0.137113 0
M  V30 4393 H 414.471 -1.9156 0.359281 0
M  V30 4394 H 413.567 -3.04941 -0.664634 0
M  V30 4395 N 413.868 0.0150385 -1.57593 0
M  V30 4396 C 415.145 0.7392 -1.81094 0
M  V30 4397 C 415.525 1.92817 -0.859344 0
M  V30 4398 O 414.873 2.28301 0.095362 0
M  V30 4399 C 415.083 1.15907 -3.29191 0
M  V30 4400 C 416.431 1.56918 -3.9454 0
M  V30 4401 O 417.455 1.25328 -3.33424 0
M  V30 4402 O 416.314 2.15604 -5.02173 0
M  V30 4403 H 413.408 0.358631 -0.745193 0
M  V30 4404 H 415.954 -0.00926156 -1.69697 0
M  V30 4405 H 414.726 0.310921 -3.90063 0
M  V30 4406 H 414.349 1.96711 -3.45529 0
M  V30 4407 N 415.346 1.54954 0.287554 0
M  V30 4408 C 416.762 1.46469 0.633964 0
M  V30 4409 C 416.962 0.666865 1.90145 0
M  V30 4410 O 416.018 0.179906 2.51858 0
M  V30 4411 C 417.331 2.90556 0.774454 0
M  V30 4412 C 418.879 3.00681 0.869462 0
M  V30 4413 C 419.354 4.45993 1.04184 0
M  V30 4414 N 420.845 4.4976 1.10772 0
M  V30 4415 C 421.58 5.59393 1.25964 0
M  V30 4416 N 421.076 6.78923 1.37968 0
M  V30 4417 N 422.869 5.47107 1.28959 0
M  V30 4418 H 415.02 2.05288 -0.545041 0
M  V30 4419 H 417.283 0.930305 -0.182308 0
M  V30 4420 H 416.989 3.51594 -0.086207 0
M  V30 4421 H 416.863 3.38743 1.6593 0
M  V30 4422 H 419.25 2.39749 1.7206 0
M  V30 4423 H 419.331 2.55769 -0.0396831 0
M  V30 4424 H 418.975 5.07524 0.195422 0
M  V30 4425 H 418.905 4.88548 1.96542 0
M  V30 4426 H 421.396 3.63651 1.02794 0
M  V30 4427 H 421.709 7.58231 1.49353 0
M  V30 4428 H 420.054 6.81763 1.34999 0
M  V30 4429 H 423.245 4.52668 1.19202 0
M  V30 4430 H 423.418 6.32595 1.40455 0
M  V30 4431 N 416.824 -0.551391 1.4764 0
M  V30 4432 C 417.787 -1.64007 1.60107 0
M  V30 4433 C 418.787 -1.53601 0.47576 0
M  V30 4434 O 419.977 -1.57655 0.740988 0
M  V30 4435 C 417.109 -3.03569 1.55108 0
M  V30 4436 H 418.302 -1.543 2.57161 0
M  V30 4437 H 415.855 -0.771776 1.35917 0
M  V30 4438 H 416.59 -3.18804 0.594519 0
M  V30 4439 H 416.375 -3.12532 2.36783 0
M  V30 4440 H 417.865 -3.82762 1.66982 0
M  V30 4441 N 418.302 -1.35869 -0.798587 0
M  V30 4442 C 419.55 -1.29332 -1.55298 0
M  V30 4443 C 419.871 0.129729 -1.94568 0
M  V30 4444 O 419.141 1.06796 -1.6423 0
M  V30 4445 H 417.721 -0.475737 -0.57592 0
M  V30 4446 H 420.383 -1.70062 -0.952093 0
M  V30 4447 H 419.479 -1.91458 -2.46476 0
M  V30 4448 N 419.78 1.02168 -1.19998 0
M  V30 4449 C 420.71 2.12488 -0.96804 0
M  V30 4450 C 421.691 1.69799 0.101185 0
M  V30 4451 O 422.876 1.94121 -0.0552993 0
M  V30 4452 C 420.006 3.43479 -0.513776 0
M  V30 4453 C 418.96 3.99884 -1.52566 0
M  V30 4454 C 418.286 5.26582 -0.928214 0
M  V30 4455 C 419.586 4.33861 -2.90795 0
M  V30 4456 H 421.28 2.32149 -1.89069 0
M  V30 4457 H 418.826 1.11564 -0.910468 0
M  V30 4458 H 420.779 4.20036 -0.338774 0
M  V30 4459 H 419.503 3.23561 0.444493 0
M  V30 4460 H 418.162 3.25429 -1.68794 0
M  V30 4461 H 417.81 5.02986 0.0378289 0
M  V30 4462 H 417.51 5.65284 -1.60397 0
M  V30 4463 H 419.034 6.05799 -0.764167 0
M  V30 4464 H 420.448 5.01327 -2.78109 0
M  V30 4465 H 418.845 4.83664 -3.55231 0
M  V30 4466 H 419.915 3.42848 -3.42904 0
M  V30 4467 N 421.258 1.00505 1.21394 0
M  V30 4468 C 422.188 0.585684 2.26035 0
M  V30 4469 C 423.169 -0.393525 1.65485 0
M  V30 4470 O 424.354 -0.281497 1.92149 0
M  V30 4471 C 421.484 -0.0884283 3.47187 0
M  V30 4472 C 420.438 0.810567 4.20254 0
M  V30 4473 C 419.764 0.00286382 5.347 0
M  V30 4474 C 421.064 2.1132 4.77641 0
M  V30 4475 H 422.758 1.46039 2.61368 0
M  V30 4476 H 420.304 0.703648 1.25638 0
M  V30 4477 H 422.257 -0.393286 4.19561 0
M  V30 4478 H 420.981 -0.997766 3.10986 0
M  V30 4479 H 419.64 1.09925 3.49731 0
M  V30 4480 H 419.288 -0.907765 4.94741 0
M  V30 4481 H 418.988 0.601444 5.84514 0
M  V30 4482 H 420.512 -0.295808 6.09883 0
M  V30 4483 H 421.926 1.87148 5.41893 0
M  V30 4484 H 420.323 2.66164 5.37845 0
M  V30 4485 H 421.393 2.78393 3.9702 0
M  V30 4486 N 422.737 -1.36956 0.779787 0
M  V30 4487 C 424.148 -1.82094 0.412156 0
M  V30 4488 C 424.499 -1.64926 -1.06273 0
M  V30 4489 O 423.624 -1.16483 -1.82375 0
M  V30 4490 C 424.219 -3.3059 0.741319 0
M  V30 4491 C 422.778 -3.73974 0.426641 0
M  V30 4492 C 421.925 -2.59368 0.980987 0
M  V30 4493 H 424.876 -1.25314 0.973758 0
M  V30 4494 H 424.897 -3.80489 0.028887 0
M  V30 4495 H 424.409 -3.43054 1.81482 0
M  V30 4496 H 422.51 -3.67076 -0.639215 0
M  V30 4497 H 422.623 -4.69778 0.940515 0
M  V30 4498 H 420.987 -2.51463 0.404757 0
M  V30 4499 H 421.77 -2.74621 2.06005 0
M  V30 4500 N 424.215 -0.530993 -1.48385 0
M  V30 4501 C 425.178 0.220497 -2.28137 0
M  V30 4502 C 426.178 0.866851 -1.35434 0
M  V30 4503 O 427.368 0.726746 -1.58316 0
M  V30 4504 C 424.5 1.31921 -3.1434 0
M  V30 4505 H 425.693 -0.479714 -2.96038 0
M  V30 4506 H 423.246 -0.286968 -1.53643 0
M  V30 4507 H 423.981 2.05264 -2.51072 0
M  V30 4508 H 423.766 0.86085 -3.82533 0
M  V30 4509 H 425.256 1.84776 -3.74497 0
M  V30 4510 N 425.693 1.55336 -0.266172 0
M  V30 4511 C 426.939 1.99692 0.353681 0
M  V30 4512 C 427.272 1.1543 1.56172 0
M  V30 4513 O 426.547 0.222218 1.93226 0
M  V30 4514 C 426.83 3.52316 0.74466 0
M  V30 4515 C 426.683 4.47337 -0.470101 0
M  V30 4516 C 428.002 4.10588 1.58447 0
M  V30 4517 H 425.121 0.725961 0.12708 0
M  V30 4518 H 427.763 1.86336 -0.371333 0
M  V30 4519 H 425.913 3.63829 1.36239 0
M  V30 4520 H 427.585 4.4778 -1.10864 0
M  V30 4521 H 425.828 4.19364 -1.10978 0
M  V30 4522 H 426.499 5.51788 -0.15291 0
M  V30 4523 H 428.975 4.02297 1.06286 0
M  V30 4524 H 427.851 5.17607 1.82686 0
M  V30 4525 H 428.112 3.60253 2.56262 0
M  V30 4526 N 427.171 -0.0066808 1.57599 0
M  V30 4527 C 428.101 -0.999296 2.11036 0
M  V30 4528 C 429.082 -1.36278 1.01795 0
M  V30 4529 O 430.267 -1.4477 1.29442 0
M  V30 4530 C 427.397 -2.29328 2.60818 0
M  V30 4531 C 426.351 -2.07159 3.74525 0
M  V30 4532 C 425.677 -3.42512 4.10596 0
M  V30 4533 C 426.977 -1.43959 5.02069 0
M  V30 4534 H 428.671 -0.554382 2.94223 0
M  V30 4535 H 426.217 -0.265221 1.41536 0
M  V30 4536 H 428.17 -2.99117 2.96828 0
M  V30 4537 H 426.894 -2.7592 1.74745 0
M  V30 4538 H 425.553 -1.39797 3.38899 0
M  V30 4539 H 425.201 -3.86795 3.21556 0
M  V30 4540 H 424.901 -3.28498 4.87199 0
M  V30 4541 H 426.425 -4.13628 4.4916 0
M  V30 4542 H 427.839 -2.03696 5.35893 0
M  V30 4543 H 426.236 -1.40452 5.83432 0
M  V30 4544 H 427.306 -0.407992 4.83181 0
M  V30 4545 N 428.649 -1.55105 -0.279332 0
M  V30 4546 C 429.579 -1.90557 -1.34945 0
M  V30 4547 C 430.56 -0.766738 -1.51839 0
M  V30 4548 O 431.745 -1.02434 -1.64988 0
M  V30 4549 C 428.875 -2.17193 -2.71006 0
M  V30 4550 C 427.829 -3.33021 -2.68851 0
M  V30 4551 C 427.155 -3.45123 -4.08405 0
M  V30 4552 C 428.455 -4.69578 -2.28678 0
M  V30 4553 H 430.149 -2.80188 -1.05522 0
M  V30 4554 H 427.695 -1.34811 -0.506173 0
M  V30 4555 H 429.648 -2.40581 -3.45975 0
M  V30 4556 H 428.372 -1.24355 -3.01999 0
M  V30 4557 H 427.031 -3.0959 -1.9634 0
M  V30 4558 H 426.679 -2.49762 -4.3661 0
M  V30 4559 H 426.379 -4.22995 -4.07859 0
M  V30 4560 H 427.903 -3.70796 -4.85121 0
M  V30 4561 H 429.317 -4.92553 -2.93368 0
M  V30 4562 H 427.714 -5.5032 -2.39306 0
M  V30 4563 H 428.784 -4.68828 -1.23807 0
M  V30 4564 N 430.127 0.543554 -1.4793 0
M  V30 4565 C 431.543 0.870806 -1.3375 0
M  V30 4566 C 431.743 1.9864 -0.338261 0
M  V30 4567 O 430.799 2.51305 0.245371 0
M  V30 4568 C 432.112 1.25114 -2.73435 0
M  V30 4569 C 433.66 1.3618 -2.81823 0
M  V30 4570 C 434.135 1.77563 -4.22179 0
M  V30 4571 N 435.626 1.8469 -4.24787 0
M  V30 4572 C 436.361 2.18067 -5.30315 0
M  V30 4573 N 435.857 2.49963 -6.46135 0
M  V30 4574 N 437.65 2.18958 -5.17701 0
M  V30 4575 H 429.801 -0.19275 -2.11524 0
M  V30 4576 H 432.064 -0.0235777 -0.947707 0
M  V30 4577 H 431.77 0.50514 -3.48053 0
M  V30 4578 H 431.644 2.20431 -3.06088 0
M  V30 4579 H 434.031 2.09859 -2.07468 0
M  V30 4580 H 434.112 0.390169 -2.52807 0
M  V30 4581 H 433.756 1.04449 -4.97044 0
M  V30 4582 H 433.686 2.75753 -4.48629 0
M  V30 4583 H 436.177 1.62372 -3.41239 0
M  V30 4584 H 436.49 2.74497 -7.22406 0
M  V30 4585 H 434.835 2.47513 -6.49432 0
M  V30 4586 H 438.026 1.93488 -4.2624 0
M  V30 4587 H 438.199 2.44639 -6.00047 0
M  V30 4588 N 431.605 1.3629 0.791371 0
M  V30 4589 C 433.016 1.27225 1.36641 0
M  V30 4590 C 433.367 -0.0887968 1.95999 0
M  V30 4591 O 432.492 -0.990207 1.92416 0
M  V30 4592 C 433.087 2.30375 2.48421 0
M  V30 4593 C 431.646 2.25004 3.01746 0
M  V30 4594 C 430.793 2.15259 1.7481 0
M  V30 4595 H 433.744 1.47198 0.593173 0
M  V30 4596 H 433.765 1.93905 3.27385 0
M  V30 4597 H 433.277 3.29422 2.05189 0
M  V30 4598 H 431.378 1.29417 3.49403 0
M  V30 4599 H 431.491 3.1761 3.58693 0
M  V30 4600 H 429.855 1.61482 1.96966 0
M  V30 4601 H 430.638 3.16191 1.33709 0
M  V30 4602 N 433.083 -1.0153 1.20538 0
M  V30 4603 C 433.993 -2.13557 0.971113 0
M  V30 4604 C 435.009 -1.73845 -0.0734366 0
M  V30 4605 O 436.185 -2.01075 0.114299 0
M  V30 4606 C 433.25 -3.42661 0.527639 0
M  V30 4607 C 432.311 -3.96608 1.64319 0
M  V30 4608 C 431.544 -5.1955 1.22078 0
M  V30 4609 O 431.767 -5.70329 0.0900198 0
M  V30 4610 O 430.701 -5.66681 2.02871 0
M  V30 4611 H 434.527 -2.3619 1.90913 0
M  V30 4612 H 432.112 -1.11946 0.989362 0
M  V30 4613 H 433.994 -4.20404 0.289621 0
M  V30 4614 H 432.669 -3.21441 -0.381779 0
M  V30 4615 H 431.576 -3.20139 1.93551 0
M  V30 4616 H 432.909 -4.22219 2.52966 0
M  V30 4617 N 434.561 -1.01147 -1.20859 0
M  V30 4618 C 435.809 -0.696486 -1.89719 0
M  V30 4619 C 436.13 0.775788 -1.78904 0
M  V30 4620 O 435.4 1.55759 -1.18811 0
M  V30 4621 H 433.98 -0.254628 -0.702263 0
M  V30 4622 H 436.642 -1.28197 -1.46804 0
M  V30 4623 H 435.738 -0.975357 -2.96468 0
M  V30 4624 N 436.039 1.36541 -0.78704 0
M  V30 4625 C 436.969 2.32659 -0.197992 0
M  V30 4626 C 437.95 1.56533 0.665697 0
M  V30 4627 O 439.135 1.84698 0.60001 0
M  V30 4628 C 436.265 3.40778 0.669901 0
M  V30 4629 C 435.219 4.27897 -0.0937039 0
M  V30 4630 C 434.545 5.27163 0.894629 0
M  V30 4631 C 435.845 5.06334 -1.28154 0
M  V30 4632 H 437.539 2.82171 -1.00099 0
M  V30 4633 H 435.085 1.35665 -0.482793 0
M  V30 4634 H 437.038 4.07008 1.09191 0
M  V30 4635 H 435.762 2.89827 1.50558 0
M  V30 4636 H 434.421 3.6322 -0.49666 0
M  V30 4637 H 434.069 4.72486 1.72527 0
M  V30 4638 H 433.769 5.86317 0.388149 0
M  V30 4639 H 435.293 5.96266 1.31525 0
M  V30 4640 H 436.707 5.65617 -0.93541 0
M  V30 4641 H 435.104 5.74888 -1.72115 0
M  V30 4642 H 436.174 4.38114 -2.07807 0
M  V30 4643 N 437.518 0.538854 1.48102 0
M  V30 4644 C 438.766 0.00798599 2.02098 0
M  V30 4645 C 439.087 -1.33922 1.41739 0
M  V30 4646 O 438.357 -1.86932 0.585934 0
M  V30 4647 H 436.937 -3.62179e-05 0.747 0
M  V30 4648 H 439.599 0.7047 1.81714 0
M  V30 4649 H 438.695 -0.0937672 3.11959 0
M  V30 4650 N 438.996 -1.55193 0.274407 0
M  V30 4651 C 439.959 -2.212 -0.600279 0
M  V30 4652 C 440.959 -1.18963 -1.08187 0
M  V30 4653 O 442.149 -1.43873 -0.982158 0
M  V30 4654 C 439.281 -2.87739 -1.82809 0
M  V30 4655 H 440.474 -2.9989 -0.0239682 0
M  V30 4656 H 438.027 -1.5628 0.0250192 0
M  V30 4657 H 438.762 -2.13058 -2.44493 0
M  V30 4658 H 438.547 -3.62658 -1.49069 0
M  V30 4659 H 440.037 -3.38171 -2.45011 0
M  V30 4660 N 440.474 -0.00167713 -1.576 0
M  V30 4661 C 441.404 0.988091 -2.11563 0
M  V30 4662 C 442.385 1.35736 -1.02517 0
M  V30 4663 O 443.57 1.44082 -1.30208 0
M  V30 4664 C 440.7 2.27941 -2.62031 0
M  V30 4665 C 439.654 2.0517 -3.75619 0
M  V30 4666 C 438.98 3.4033 -4.12407 0
M  V30 4667 C 440.28 1.41294 -5.02825 0
M  V30 4668 H 441.974 0.538771 -2.94513 0
M  V30 4669 H 439.52 0.257712 -1.41675 0
M  V30 4670 H 441.473 2.97539 -2.9841 0
M  V30 4671 H 440.197 2.74989 -1.76205 0
M  V30 4672 H 438.856 1.37998 -3.39635 0
M  V30 4673 H 438.504 3.85085 -3.23603 0
M  V30 4674 H 438.204 3.25909 -4.88935 0
M  V30 4675 H 439.728 4.1124 -4.51347 0
M  V30 4676 H 441.142 2.00851 -5.36965 0
M  V30 4677 H 439.539 1.37356 -5.84169 0
M  V30 4678 H 440.609 0.382362 -4.8339 0
M  V30 4679 N 441.952 1.55251 0.271103 0
M  V30 4680 C 442.882 1.9127 1.33933 0
M  V30 4681 C 443.863 0.77478 1.5143 0
M  V30 4682 O 445.048 1.03307 1.64442 0
M  V30 4683 C 442.178 2.18627 2.69851 0
M  V30 4684 C 441.132 3.34442 2.67081 0
M  V30 4685 C 440.458 3.47284 4.06569 0
M  V30 4686 C 441.758 4.70784 2.26185 0
M  V30 4687 H 443.452 2.80744 1.04035 0
M  V30 4688 H 440.998 1.35077 0.499017 0
M  V30 4689 H 442.951 2.42413 3.44694 0
M  V30 4690 H 441.675 1.25955 3.01335 0
M  V30 4691 H 440.334 3.10627 1.94695 0
M  V30 4692 H 439.982 2.52074 4.35279 0
M  V30 4693 H 439.682 4.25152 4.0561 0
M  V30 4694 H 441.206 3.73363 4.83148 0
M  V30 4695 H 442.62 4.94102 2.90751 0
M  V30 4696 H 441.017 5.51582 2.36384 0
M  V30 4697 H 442.087 4.69478 1.21319 0
M  V30 4698 N 443.43 -0.535701 1.48216 0
M  V30 4699 C 444.655 -1.32149 1.59848 0
M  V30 4700 C 445.08 -1.86338 0.256842 0
M  V30 4701 O 444.438 -1.64107 -0.770632 0
M  V30 4702 C 444.486 -2.45224 2.64381 0
M  V30 4703 O 443.59 -3.48093 2.21144 0
M  V30 4704 H 442.931 -0.391634 0.536208 0
M  V30 4705 H 445.461 -0.645202 1.94161 0
M  V30 4706 H 445.471 -2.91491 2.85476 0
M  V30 4707 H 444.146 -2.05143 3.61786 0
M  V30 4708 H 442.723 -3.07984 2.10239 0
M  V30 4709 N 444.908 -1.36708 -0.784132 0
M  V30 4710 C 446.156 -1.30972 -1.53918 0
M  V30 4711 C 446.477 0.109086 -1.94695 0
M  V30 4712 O 445.747 1.05048 -1.65353 0
M  V30 4713 H 444.327 -0.481819 -0.570841 0
M  V30 4714 H 446.989 -1.71063 -0.934002 0
M  V30 4715 H 446.085 -1.94061 -2.44431 0
M  V30 4716 N 446.386 1.0089 -1.21074 0
M  V30 4717 C 447.614 1.78191 -1.05145 0
M  V30 4718 C 448.029 1.84537 0.398952 0
M  V30 4719 O 447.386 1.30393 1.27687 0
M  V30 4720 C 447.437 3.22288 -1.63746 0
M  V30 4721 O 447.158 3.16315 -3.03111 0
M  V30 4722 C 448.659 4.16106 -1.52875 0
M  V30 4723 H 445.879 0.560129 -0.369454 0
M  V30 4724 H 448.423 1.26945 -1.60328 0
M  V30 4725 H 446.578 3.70655 -1.12664 0
M  V30 4726 H 446.992 4.06817 -3.31059 0
M  V30 4727 H 448.466 5.15026 -1.98626 0
M  V30 4728 H 448.943 4.36541 -0.482521 0
M  V30 4729 H 449.549 3.73625 -2.03185 0
M  V30 4730 N 447.864 1.01787 1.20321 0
M  V30 4731 C 449.112 0.706538 1.89347 0
M  V30 4732 C 449.433 -0.766289 1.79313 0
M  V30 4733 O 448.703 -1.55126 1.19635 0
M  V30 4734 H 447.283 0.258348 0.700903 0
M  V30 4735 H 449.945 1.28974 1.46122 0
M  V30 4736 H 449.041 0.991066 2.95946 0
M  V30 4737 N 449.342 -1.36122 0.79427 0
M  V30 4738 C 450.589 -1.99111 0.368905 0
M  V30 4739 C 450.917 -1.63032 -1.0607 0
M  V30 4740 O 450.172 -0.879303 -1.74833 0
M  V30 4741 C 450.471 -3.5409 0.48527 0
M  V30 4742 C 450.137 -4.10003 1.87638 0
M  V30 4743 C 448.799 -4.24986 2.257 0
M  V30 4744 C 451.151 -4.40423 2.78706 0
M  V30 4745 C 448.479 -4.67701 3.54221 0
M  V30 4746 C 450.831 -4.84573 4.0666 0
M  V30 4747 C 449.495 -4.97761 4.44737 0
M  V30 4748 H 448.765 -0.7286 0.134992 0
M  V30 4749 H 451.412 -1.62534 1.01267 0
M  V30 4750 H 449.717 -3.91052 -0.241984 0
M  V30 4751 H 451.414 -4.00766 0.137109 0
M  V30 4752 H 448.004 -3.98784 1.57064 0
M  V30 4753 H 452.188 -4.28412 2.50553 0
M  V30 4754 H 447.444 -4.761 3.83587 0
M  V30 4755 H 451.618 -5.07074 4.77336 0
M  V30 4756 H 449.245 -5.30618 5.44379 0
M  V30 4757 N 450.82 -0.546701 -1.47814 0
M  V30 4758 C 452.236 -0.205717 -1.58269 0
M  V30 4759 C 452.436 1.29153 -1.54667 0
M  V30 4760 O 451.492 2.07098 -1.44453 0
M  V30 4761 C 452.805 -0.823065 -2.89216 0
M  V30 4762 C 454.353 -0.793328 -3.02779 0
M  V30 4763 C 454.828 -1.38955 -4.36412 0
M  V30 4764 N 456.319 -1.35227 -4.43021 0
M  V30 4765 C 457.054 -1.78333 -5.44963 0
M  V30 4766 N 456.55 -2.29246 -6.53772 0
M  V30 4767 N 458.343 -1.69467 -5.35945 0
M  V30 4768 H 450.494 -1.5196 -1.48398 0
M  V30 4769 H 452.757 -0.633078 -0.705632 0
M  V30 4770 H 452.463 -1.8749 -2.97558 0
M  V30 4771 H 452.337 -0.309915 -3.75925 0
M  V30 4772 H 454.724 0.249784 -2.94041 0
M  V30 4773 H 454.805 -1.34412 -2.17639 0
M  V30 4774 H 454.449 -2.43168 -4.45906 0
M  V30 4775 H 454.379 -0.814291 -5.20266 0
M  V30 4776 H 456.87 -0.979739 -3.64979 0
M  V30 4777 H 457.183 -2.60089 -7.27718 0
M  V30 4778 H 455.528 -2.3325 -6.5469 0
M  V30 4779 H 458.719 -1.29477 -4.49837 0
M  V30 4780 H 458.892 -2.03381 -6.15256 0
M  V30 4781 N 452.299 1.55045 -0.282633 0
M  V30 4782 C 453.547 1.99365 0.331334 0
M  V30 4783 C 453.868 1.1725 1.55812 0
M  V30 4784 O 453.138 0.263871 1.94115 0
M  V30 4785 H 451.718 0.736397 0.125414 0
M  V30 4786 H 454.38 1.90964 -0.389711 0
M  V30 4787 H 453.476 3.0596 0.616036 0
M  V30 4788 N 453.777 0.010035 1.57597 0
M  V30 4789 C 455.025 -0.671371 1.90623 0
M  V30 4790 C 455.346 -1.73753 0.885151 0
M  V30 4791 O 454.616 -1.95752 -0.0760611 0
M  V30 4792 H 453.196 -0.250968 0.703579 0
M  V30 4793 H 455.858 0.0533325 1.94827 0
M  V30 4794 H 454.954 -1.13626 2.90681 0
M  V30 4795 N 455.255 -1.55392 -0.262866 0
M  V30 4796 C 456.532 -1.67204 -1.01499 0
M  V30 4797 C 456.912 -0.545186 -2.03939 0
M  V30 4798 O 456.26 0.453467 -2.23955 0
M  V30 4799 C 456.47 -3.06847 -1.6627 0
M  V30 4800 C 457.818 -3.64928 -2.17054 0
M  V30 4801 O 458.842 -3.09545 -1.76239 0
M  V30 4802 O 457.701 -4.61984 -2.91947 0
M  V30 4803 H 454.795 -0.679467 -0.471438 0
M  V30 4804 H 457.341 -1.67729 -0.257918 0
M  V30 4805 H 456.113 -3.80309 -0.920915 0
M  V30 4806 H 455.736 -3.10266 -2.48638 0
M  V30 4807 N 456.733 0.527833 -1.48498 0
M  V30 4808 C 458.01 1.28905 -1.47115 0
M  V30 4809 C 458.39 2.10297 -0.184007 0
M  V30 4810 O 457.738 2.12728 0.834218 0
M  V30 4811 C 457.948 2.16866 -2.73441 0
M  V30 4812 C 459.296 2.76936 -3.21857 0
M  V30 4813 O 460.32 2.27152 -2.74373 0
M  V30 4814 O 459.179 3.67496 -4.04486 0
M  V30 4815 H 456.273 0.581918 -0.587623 0
M  V30 4816 H 458.819 0.544311 -1.60734 0
M  V30 4817 H 457.591 1.56521 -3.58632 0
M  V30 4818 H 457.214 2.98583 -2.62553 0
M  V30 4819 N 458.211 1.37122 0.776871 0
M  V30 4820 C 459.622 1.28667 1.35284 0
M  V30 4821 C 459.973 -0.0680035 1.96082 0
M  V30 4822 O 459.098 -0.969743 1.93455 0
M  V30 4823 C 459.693 2.32997 2.45963 0
M  V30 4824 C 458.252 2.28191 2.99342 0
M  V30 4825 C 457.399 2.17101 1.72517 0
M  V30 4826 H 460.35 1.47819 0.577527 0
M  V30 4827 H 460.371 1.97366 3.2531 0
M  V30 4828 H 459.883 3.3158 2.01684 0
M  V30 4829 H 457.984 1.33115 3.4801 0
M  V30 4830 H 458.097 3.21397 3.55304 0
M  V30 4831 H 456.461 1.63562 1.95242 0
M  V30 4832 H 457.244 3.17591 1.30348 0
M  V30 4833 N 459.689 -1.00246 1.21608 0
M  V30 4834 C 460.652 -2.07233 0.979133 0
M  V30 4835 C 461.652 -1.6072 -0.0508219 0
M  V30 4836 O 462.842 -1.73196 0.186712 0
M  V30 4837 C 459.974 -3.37546 0.477016 0
M  V30 4838 H 461.167 -2.29687 1.92831 0
M  V30 4839 H 458.72 -1.17261 1.03342 0
M  V30 4840 H 459.455 -3.20773 -0.476966 0
M  V30 4841 H 459.24 -3.72638 1.21997 0
M  V30 4842 H 460.73 -4.16285 0.331181 0
M  V30 4843 N 461.167 -1.02423 -1.1978 0
M  V30 4844 C 462.415 -0.716569 -1.8897 0
M  V30 4845 C 462.736 0.756769 -1.79716 0
M  V30 4846 O 462.006 1.5449 -1.20456 0
M  V30 4847 H 460.586 -0.262062 -0.699523 0
M  V30 4848 H 463.248 -1.29747 -1.45436 0
M  V30 4849 H 462.344 -1.00675 -2.95417 0
M  V30 4850 N 462.645 1.35699 -0.801477 0
M  V30 4851 C 463.555 2.33661 -0.209691 0
M  V30 4852 C 464.571 1.6162 0.644591 0
M  V30 4853 O 465.747 1.93529 0.557545 0
M  V30 4854 C 462.812 3.40816 0.636033 0
M  V30 4855 C 461.873 4.28639 -0.238147 0
M  V30 4856 C 461.106 5.30676 0.567307 0
M  V30 4857 O 461.329 5.41174 1.8024 0
M  V30 4858 O 460.263 6.01887 -0.0391336 0
M  V30 4859 H 464.089 2.8606 -1.01996 0
M  V30 4860 H 461.674 1.38379 -0.563164 0
M  V30 4861 H 463.556 4.06301 1.11791 0
M  V30 4862 H 462.231 2.90696 1.42399 0
M  V30 4863 H 461.138 3.66152 -0.767044 0
M  V30 4864 H 462.471 4.82143 -0.989915 0
M  V30 4865 N 464.123 0.554532 1.47522 0
M  V30 4866 C 465.086 -0.184174 2.28459 0
M  V30 4867 C 466.086 -0.845195 1.36796 0
M  V30 4868 O 467.276 -0.701467 1.59452 0
M  V30 4869 C 464.408 -1.26903 3.16399 0
M  V30 4870 H 465.601 0.526751 2.95238 0
M  V30 4871 H 463.154 0.311375 1.53167 0
M  V30 4872 H 463.889 -2.01244 2.54306 0
M  V30 4873 H 463.674 -0.799883 3.83854 0
M  V30 4874 H 465.164 -1.78794 3.77389 0
M  V30 4875 N 465.601 -1.54893 0.290851 0
M  V30 4876 C 467.017 -1.59476 -0.0628432 0
M  V30 4877 C 467.217 -1.30795 -1.5328 0
M  V30 4878 O 466.273 -1.07644 -2.28406 0
M  V30 4879 C 467.586 -2.98928 0.325962 0
M  V30 4880 C 469.134 -3.11799 0.273882 0
M  V30 4881 C 469.609 -4.53544 0.637359 0
M  V30 4882 N 471.1 -4.59433 0.589507 0
M  V30 4883 C 471.835 -5.67164 0.84335 0
M  V30 4884 N 471.331 -6.82975 1.16263 0
M  V30 4885 N 473.124 -5.56786 0.771091 0
M  V30 4886 H 465.275 -1.71798 1.24896 0
M  V30 4887 H 467.538 -0.801879 0.505663 0
M  V30 4888 H 467.244 -3.24805 1.34887 0
M  V30 4889 H 467.118 -3.75793 -0.325441 0
M  V30 4890 H 469.505 -2.85677 -0.739765 0
M  V30 4891 H 469.586 -2.37112 0.959766 0
M  V30 4892 H 469.23 -4.80394 1.64877 0
M  V30 4893 H 469.16 -5.26553 -0.0704866 0
M  V30 4894 H 471.651 -3.76245 0.353252 0
M  V30 4895 H 471.964 -7.61048 1.34257 0
M  V30 4896 H 470.309 -6.84552 1.20057 0
M  V30 4897 H 473.5 -4.65187 0.521383 0
M  V30 4898 H 473.673 -6.40664 0.972295 0
M  V30 4899 N 467.08 -0.0183926 -1.57589 0
M  V30 4900 C 468.328 0.661253 -1.90976 0
M  V30 4901 C 468.649 1.73281 -0.894353 0
M  V30 4902 O 467.919 1.9579 0.0656788 0
M  V30 4903 H 466.499 0.247233 -0.704901 0
M  V30 4904 H 469.161 -0.0636639 -1.94796 0
M  V30 4905 H 468.257 1.12083 -2.9128 0
M  V30 4906 N 468.558 1.5553 0.254621 0
M  V30 4907 C 469.805 1.77 0.983736 0
M  V30 4908 C 470.133 0.58133 1.85609 0
M  V30 4909 O 469.388 -0.435621 1.9079 0
M  V30 4910 C 469.687 3.03891 1.88109 0
M  V30 4911 C 469.353 4.35597 1.16472 0
M  V30 4912 C 468.015 4.7139 0.966714 0
M  V30 4913 C 470.367 5.1705 0.656387 0
M  V30 4914 C 467.695 5.86176 0.247942 0
M  V30 4915 C 470.047 6.32581 -0.0488807 0
M  V30 4916 C 468.711 6.67 -0.258438 0
M  V30 4917 H 467.981 0.647688 0.359974 0
M  V30 4918 H 470.628 1.89802 0.254463 0
M  V30 4919 H 468.933 2.86068 2.67717 0
M  V30 4920 H 470.63 3.17701 2.44677 0
M  V30 4921 H 467.22 4.07475 1.32899 0
M  V30 4922 H 471.404 4.8986 0.796933 0
M  V30 4923 H 466.66 6.11354 0.075035 0
M  V30 4924 H 470.834 6.94942 -0.450444 0
M  V30 4925 H 468.461 7.55793 -0.817358 0
M  V30 4926 N 470.036 -0.519951 1.48776 0
M  V30 4927 C 471.447 -1.10177 1.50725 0
M  V30 4928 C 471.798 -1.94153 0.282678 0
M  V30 4929 O 470.923 -2.07645 -0.609298 0
M  V30 4930 C 471.518 -2.00482 2.73116 0
M  V30 4931 C 470.077 -2.53862 2.77905 0
M  V30 4932 C 469.224 -1.31047 2.44381 0
M  V30 4933 H 472.175 -0.30473 1.55747 0
M  V30 4934 H 472.196 -2.8491 2.52203 0
M  V30 4935 H 471.708 -1.39335 3.62225 0
M  V30 4936 H 469.809 -3.18702 1.93029 0
M  V30 4937 H 469.922 -2.9231 3.79594 0
M  V30 4938 H 468.286 -1.62953 1.95751 0
M  V30 4939 H 469.069 -0.71637 3.35743 0
M  V30 4940 N 471.514 -1.37532 -0.769588 0
M  V30 4941 C 472.424 -1.35668 -1.91393 0
M  V30 4942 C 473.44 -0.255954 -1.72107 0
M  V30 4943 O 474.616 -0.491704 -1.95305 0
M  V30 4944 C 471.681 -1.16481 -3.26547 0
M  V30 4945 C 470.742 -2.36212 -3.58472 0
M  V30 4946 C 469.975 -2.17932 -4.87177 0
M  V30 4947 O 470.198 -1.1647 -5.58382 0
M  V30 4948 O 469.132 -3.06167 -5.18214 0
M  V30 4949 H 472.958 -2.32055 -1.95918 0
M  V30 4950 H 470.543 -1.18284 -0.912641 0
M  V30 4951 H 472.425 -1.07778 -4.07384 0
M  V30 4952 H 471.1 -0.231687 -3.2287 0
M  V30 4953 H 470.007 -2.50488 -2.77861 0
M  V30 4954 H 471.34 -3.281 -3.66894 0
M  V30 4955 N 472.992 0.995999 -1.22138 0
M  V30 4956 C 474.403 1.54961 -1.04135 0
M  V30 4957 C 474.754 1.92159 0.396147 0
M  V30 4958 O 473.879 1.74435 1.28069 0
M  V30 4959 C 474.474 2.81581 -1.88408 0
M  V30 4960 C 473.033 3.33396 -1.74712 0
M  V30 4961 C 472.18 2.06509 -1.85066 0
M  V30 4962 H 475.131 0.817436 -1.36028 0
M  V30 4963 H 475.152 3.53822 -1.39966 0
M  V30 4964 H 474.664 2.54476 -2.93025 0
M  V30 4965 H 472.765 3.65416 -0.728159 0
M  V30 4966 H 472.878 4.04208 -2.57202 0
M  V30 4967 H 471.242 2.19925 -1.28472 0
M  V30 4968 H 472.025 1.81804 -2.91208 0
M  V30 4969 N 474.47 1.03057 1.19235 0
M  V30 4970 C 475.695 0.74757 1.93458 0
M  V30 4971 C 476.12 -0.687648 1.7508 0
M  V30 4972 O 475.478 -1.47499 1.05422 0
M  V30 4973 C 475.526 1.10604 3.43219 0
M  V30 4974 O 474.63 0.225671 4.11782 0
M  V30 4975 H 473.971 0.276047 0.603899 0
M  V30 4976 H 476.501 1.3777 1.51263 0
M  V30 4977 H 476.511 1.06366 3.93891 0
M  V30 4978 H 475.186 2.15165 3.55917 0
M  V30 4979 H 473.763 0.326795 3.71465 0
M  V30 4980 N 475.948 -1.35272 0.808662 0
M  V30 4981 C 476.88 -2.28507 0.178149 0
M  V30 4982 C 477.893 -1.50377 -0.623754 0
M  V30 4983 O 479.082 -1.72583 -0.455774 0
M  V30 4984 C 476.182 -3.30038 -0.769959 0
M  V30 4985 C 475.355 -4.37398 -0.0139749 0
M  V30 4986 C 474.414 -5.18775 -0.880875 0
M  V30 4987 O 473.44 -5.68236 -0.331059 0
M  V30 4988 N 474.642 -5.37087 -2.20267 0
M  V30 4989 H 477.407 -2.83255 0.979106 0
M  V30 4990 H 474.968 -1.47643 0.664308 0
M  V30 4991 H 476.96 -3.81371 -1.35418 0
M  V30 4992 H 475.53 -2.75789 -1.47171 0
M  V30 4993 H 474.75 -3.86971 0.751468 0
M  V30 4994 H 476.038 -5.06268 0.506965 0
M  V30 4995 H 475.436 -4.9855 -2.67328 0
M  V30 4996 H 473.993 -5.91593 -2.73608 0
M  V30 4997 N 477.426 -0.562348 -1.47226 0
M  V30 4998 C 478.389 0.172056 -2.28553 0
M  V30 4999 C 479.389 0.837928 -1.37242 0
M  V30 5000 O 480.579 0.693001 -1.59822 0
M  V30 5001 C 477.711 1.25223 -3.17068 0
M  V30 5002 H 478.904 -0.542401 -2.94954 0
M  V30 5003 H 476.457 -0.319493 -1.53 0
M  V30 5004 H 477.192 1.99892 -2.55369 0
M  V30 5005 H 476.977 0.779515 -3.84273 0
M  V30 5006 H 478.467 1.76791 -3.78332 0
M  V30 5007 N 478.904 1.54736 -0.299062 0
M  V30 5008 C 480.132 2.04512 0.313447 0
M  V30 5009 C 480.547 1.17643 1.47667 0
M  V30 5010 O 479.904 0.20164 1.81383 0
M  V30 5011 C 479.955 3.53171 0.771542 0
M  V30 5012 O 479.676 4.36736 -0.345379 0
M  V30 5013 C 481.177 4.18936 1.4494 0
M  V30 5014 H 478.397 0.667507 0.0683784 0
M  V30 5015 H 480.941 1.99752 -0.438129 0
M  V30 5016 H 479.096 3.58298 1.47314 0
M  V30 5017 H 479.51 5.24499 0.0109219 0
M  V30 5018 H 480.984 5.24482 1.72111 0
M  V30 5019 H 481.461 3.68554 2.38883 0
M  V30 5020 H 482.067 4.17879 0.791028 0
M  V30 5021 N 480.382 0.0267497 1.57577 0
M  V30 5022 C 481.345 -0.940916 2.08996 0
M  V30 5023 C 482.345 -1.25561 1.00455 0
M  V30 5024 O 483.535 -1.19634 1.26623 0
M  V30 5025 C 480.667 -2.25814 2.55384 0
M  V30 5026 H 481.86 -0.495628 2.95776 0
M  V30 5027 H 479.413 -0.221241 1.54726 0
M  V30 5028 H 480.148 -2.74976 1.71926 0
M  V30 5029 H 479.933 -2.04285 3.34679 0
M  V30 5030 H 481.423 -2.95178 2.95398 0
M  V30 5031 N 481.861 -1.55662 -0.24637 0
M  V30 5032 C 483.272 -1.67953 -0.81539 0
M  V30 5033 C 483.623 -0.624302 -1.86002 0
M  V30 5034 O 482.748 0.229328 -2.15181 0
M  V30 5035 C 483.343 -3.04484 -1.48576 0
M  V30 5036 C 481.902 -3.18713 -2.00248 0
M  V30 5037 C 481.049 -2.6383 -0.853766 0
M  V30 5038 H 484 -1.58685 -0.0221692 0
M  V30 5039 H 484.021 -2.98959 -2.3538 0
M  V30 5040 H 483.533 -3.81264 -0.725222 0
M  V30 5041 H 481.634 -2.46757 -2.79181 0
M  V30 5042 H 481.747 -4.25628 -2.1995 0
M  V30 5043 H 480.111 -2.21667 -1.25442 0
M  V30 5044 H 480.894 -3.43135 -0.106302 0
M  V30 5045 N 483.339 0.512053 -1.4905 0
M  V30 5046 C 484.75 1.09376 -1.51307 0
M  V30 5047 C 485.101 1.94 -0.292971 0
M  V30 5048 O 484.226 2.07965 0.598277 0
M  V30 5049 C 484.821 1.99031 -2.74176 0
M  V30 5050 C 483.38 2.52385 -2.79247 0
M  V30 5051 C 482.527 1.29749 -2.45073 0
M  V30 5052 H 485.478 0.296467 -1.55906 0
M  V30 5053 H 485.499 2.83569 -2.53711 0
M  V30 5054 H 485.011 1.37412 -3.62959 0
M  V30 5055 H 483.112 3.17673 -1.94716 0
M  V30 5056 H 483.225 2.90293 -3.81139 0
M  V30 5057 H 481.589 1.61912 -1.96612 0
M  V30 5058 H 482.372 0.698555 -3.36118 0
M  V30 5059 N 484.817 1.37938 0.762283 0
M  V30 5060 C 486.228 1.30094 1.33912 0
M  V30 5061 C 486.579 -0.0472026 1.96143 0
M  V30 5062 O 485.704 -0.94917 1.94473 0
M  V30 5063 C 486.299 2.35592 2.43478 0
M  V30 5064 C 484.858 2.31353 2.96905 0
M  V30 5065 C 484.005 2.18919 1.70205 0
M  V30 5066 H 486.956 1.48423 0.561816 0
M  V30 5067 H 486.977 2.00806 3.23199 0
M  V30 5068 H 486.489 3.33701 1.98155 0
M  V30 5069 H 484.59 1.36799 3.46579 0
M  V30 5070 H 484.703 3.25147 3.51875 0
M  V30 5071 H 483.067 1.65624 1.93496 0
M  V30 5072 H 483.85 3.18956 1.26973 0
M  V30 5073 N 486.295 -0.989507 1.22664 0
M  V30 5074 C 487.523 -1.76496 1.07967 0
M  V30 5075 C 487.938 -1.85148 -0.369543 0
M  V30 5076 O 487.295 -1.32408 -1.25596 0
M  V30 5077 C 487.346 -3.19642 1.68853 0
M  V30 5078 O 487.067 -3.11453 3.08105 0
M  V30 5079 C 488.568 -4.13621 1.59475 0
M  V30 5080 H 485.788 -0.55418 0.378319 0
M  V30 5081 H 488.332 -1.24378 1.62328 0
M  V30 5082 H 486.487 -3.68816 1.18547 0
M  V30 5083 H 486.901 -4.01499 3.37489 0
M  V30 5084 H 488.375 -5.11801 2.06795 0
M  V30 5085 H 488.852 -4.35718 0.55191 0
M  V30 5086 H 489.458 -3.70346 2.09103 0
M  V30 5087 N 487.773 -1.03688 -1.18687 0
M  V30 5088 C 489.019 -0.739123 -1.88851 0
M  V30 5089 C 489.352 0.731042 -1.79915 0
M  V30 5090 O 488.627 1.53313 -1.19688 0
M  V30 5091 C 488.91 -1.20106 -3.3948 0
M  V30 5092 C 488.763 -2.73304 -3.57246 0
M  V30 5093 C 490.082 -0.788134 -4.32986 0
M  V30 5094 H 487.201 -0.269978 -0.68577 0
M  V30 5095 H 489.843 -1.28822 -1.3966 0
M  V30 5096 H 487.993 -0.733915 -3.81505 0
M  V30 5097 H 489.665 -3.28027 -3.24339 0
M  V30 5098 H 487.908 -3.13313 -3.00029 0
M  V30 5099 H 488.579 -3.00684 -4.62918 0
M  V30 5100 H 491.055 -1.19005 -3.98719 0
M  V30 5101 H 489.931 -1.13915 -5.36949 0
M  V30 5102 H 490.192 0.308988 -4.41019 0
M  V30 5103 N 489.251 1.34841 -0.815825 0
M  V30 5104 C 490.662 1.80937 -0.46029 0
M  V30 5105 C 491.013 1.67685 1.01863 0
M  V30 5106 O 490.138 1.21277 1.79223 0
M  V30 5107 C 490.733 3.28509 -0.828708 0
M  V30 5108 C 489.292 3.72712 -0.525644 0
M  V30 5109 C 488.439 2.56676 -1.04941 0
M  V30 5110 H 491.39 1.22688 -1.00664 0
M  V30 5111 H 491.411 3.80279 -0.129757 0
M  V30 5112 H 490.923 3.38122 -1.90513 0
M  V30 5113 H 489.024 3.68642 0.541666 0
M  V30 5114 H 489.137 4.67119 -1.06474 0
M  V30 5115 H 487.501 2.50302 -0.471286 0
M  V30 5116 H 488.284 2.69063 -2.13214 0
M  V30 5117 N 490.729 0.570148 1.46925 0
M  V30 5118 C 491.957 0.0561966 2.06824 0
M  V30 5119 C 492.372 -1.24326 1.42086 0
M  V30 5120 O 491.729 -1.74882 0.521794 0
M  V30 5121 C 491.78 -0.129517 3.61268 0
M  V30 5122 O 491.501 1.1185 4.23581 0
M  V30 5123 C 493.002 -0.679266 4.38065 0
M  V30 5124 H 490.222 0.0517261 0.669003 0
M  V30 5125 H 492.766 0.787243 1.8874 0
M  V30 5126 H 490.921 -0.810739 3.78822 0
M  V30 5127 H 491.335 0.924375 5.1629 0
M  V30 5128 H 492.809 -0.758445 5.46765 0
M  V30 5129 H 493.286 -1.69346 4.05239 0
M  V30 5130 H 493.892 -0.0333237 4.25287 0
M  V30 5131 N 492.207 -1.54576 0.307264 0
M  V30 5132 C 493.623 -1.59534 -0.0459251 0
M  V30 5133 C 493.823 -1.32414 -1.51884 0
M  V30 5134 O 492.879 -1.1006 -2.27251 0
M  V30 5135 C 494.192 -2.98566 0.357649 0
M  V30 5136 C 495.74 -3.11491 0.306937 0
M  V30 5137 C 496.215 -4.52842 0.685427 0
M  V30 5138 N 497.706 -4.58782 0.638203 0
M  V30 5139 C 498.441 -5.66238 0.903458 0
M  V30 5140 N 497.937 -6.81703 1.23501 0
M  V30 5141 N 499.73 -5.55937 0.830102 0
M  V30 5142 H 491.881 -1.70464 1.26712 0
M  V30 5143 H 494.144 -0.79647 0.514139 0
M  V30 5144 H 493.85 -3.23356 1.38325 0
M  V30 5145 H 493.724 -3.76117 -0.285565 0
M  V30 5146 H 496.111 -2.86446 -0.709424 0
M  V30 5147 H 496.192 -2.36081 0.984861 0
M  V30 5148 H 495.836 -4.78618 1.69963 0
M  V30 5149 H 495.766 -5.26598 -0.0146346 0
M  V30 5150 H 498.257 -3.75849 0.393138 0
M  V30 5151 H 498.57 -7.59582 1.42322 0
M  V30 5152 H 496.915 -6.8324 1.27311 0
M  V30 5153 H 500.106 -4.64608 0.570693 0
M  V30 5154 H 500.279 -6.39597 1.04019 0
M  V30 5155 N 493.685 -0.035106 -1.57561 0
M  V30 5156 C 495.096 0.502885 -1.798 0
M  V30 5157 C 495.447 1.71892 -0.945921 0
M  V30 5158 O 494.572 2.15822 -0.157991 0
M  V30 5159 C 495.167 0.919097 -3.26095 0
M  V30 5160 C 493.726 1.40216 -3.49308 0
M  V30 5161 C 492.873 0.369709 -2.74824 0
M  V30 5162 H 495.824 -0.261102 -1.56537 0
M  V30 5163 H 495.845 1.78308 -3.36135 0
M  V30 5164 H 495.357 0.0338526 -3.88085 0
M  V30 5165 H 493.458 2.30714 -2.92578 0
M  V30 5166 H 493.571 1.40541 -4.58023 0
M  V30 5167 H 491.935 0.839113 -2.40481 0
M  V30 5168 H 492.718 -0.507173 -3.39533 0
M  V30 5169 N 495.163 1.55791 0.238111 0
M  V30 5170 C 496.388 1.8244 0.986432 0
M  V30 5171 C 496.813 0.613314 1.7782 0
M  V30 5172 O 496.171 -0.437767 1.75935 0
M  V30 5173 C 496.219 3.06917 1.893 0
M  V30 5174 O 495.323 2.84449 2.98601 0
M  V30 5175 H 494.664 0.601975 0.280218 0
M  V30 5176 H 497.194 2.02987 0.256437 0
M  V30 5177 H 497.204 3.36583 2.30598 0
M  V30 5178 H 495.879 3.947 1.31091 0
M  V30 5179 H 494.456 2.65972 2.61368 0
M  V30 5180 N 496.642 -0.504142 1.49319 0
M  V30 5181 C 498.053 -1.08572 1.51885 0
M  V30 5182 C 498.404 -1.93842 0.303255 0
M  V30 5183 O 497.529 -2.0828 -0.58724 0
M  V30 5184 C 498.124 -1.97574 2.75227 0
M  V30 5185 C 496.683 -2.509 2.80581 0
M  V30 5186 C 495.83 -1.28447 2.45757 0
M  V30 5187 H 498.781 -0.288194 1.56061 0
M  V30 5188 H 498.802 -2.82219 2.55211 0
M  V30 5189 H 498.314 -1.35486 3.63683 0
M  V30 5190 H 496.415 -3.16636 1.96398 0
M  V30 5191 H 496.528 -2.88268 3.82673 0
M  V30 5192 H 494.892 -1.60868 1.97468 0
M  V30 5193 H 495.675 -0.68072 3.36483 0
M  V30 5194 N 498.12 -1.38341 -0.754957 0
M  V30 5195 C 499.368 -1.34208 -1.51105 0
M  V30 5196 C 499.689 0.0677634 -1.94882 0
M  V30 5197 O 498.959 1.01517 -1.67544 0
M  V30 5198 H 497.539 -0.493819 -0.560493 0
M  V30 5199 H 500.201 -1.73005 -0.897507 0
M  V30 5200 H 499.297 -1.99203 -2.4026 0
M  V30 5201 N 499.598 0.982988 -1.23187 0
M  V30 5202 C 500.561 2.05649 -1.01198 0
M  V30 5203 C 501.561 1.6078 0.0252464 0
M  V30 5204 O 502.751 1.72878 -0.214243 0
M  V30 5205 C 499.883 3.36744 -0.530656 0
M  V30 5206 H 501.076 2.2659 -1.96461 0
M  V30 5207 H 498.629 1.15602 -1.05195 0
M  V30 5208 H 499.364 3.21492 0.425873 0
M  V30 5209 H 499.149 3.7065 -1.2791 0
M  V30 5210 H 500.639 4.15705 -0.397366 0
M  V30 5211 N 501.076 1.04316 1.18135 0
M  V30 5212 C 502.325 0.74319 1.87509 0
M  V30 5213 C 502.638 -0.732136 1.81381 0
M  V30 5214 O 503.844 -1.14572 2.46141 0
M  V30 5215 C 502.3 1.27913 3.36402 0
M  V30 5216 C 501.908 2.78326 3.51053 0
M  V30 5217 C 503.652 1.0558 4.11161 0
M  V30 5218 C 501.559 3.25266 4.93919 0
M  V30 5219 H 500.489 0.274313 0.702331 0
M  V30 5220 H 503.14 1.25931 1.33467 0
M  V30 5221 H 501.522 0.690853 3.89927 0
M  V30 5222 H 502.696 3.42933 3.07788 0
M  V30 5223 H 501.011 2.991 2.89704 0
M  V30 5224 H 503.608 1.38161 5.16542 0
M  V30 5225 H 503.951 -0.00684729 4.16299 0
M  V30 5226 H 504.484 1.60882 3.63816 0
M  V30 5227 H 501.223 4.30922 4.9395 0
M  V30 5228 H 500.743 2.65396 5.3789 0
M  V30 5229 H 502.422 3.19433 5.62647 0
M  V30 5230 N 502.554 -1.34406 0.822964 0
M  V30 5231 C 503.486 -2.28305 0.202375 0
M  V30 5232 C 504.499 -1.5103 -0.60777 0
M  V30 5233 O 505.688 -1.73057 -0.437444 0
M  V30 5234 C 502.788 -3.30836 -0.734911 0
M  V30 5235 C 501.961 -4.37388 0.0324177 0
M  V30 5236 C 501.02 -5.1968 -0.825803 0
M  V30 5237 O 500.046 -5.68556 -0.270771 0
M  V30 5238 N 501.248 -5.39393 -2.14558 0
M  V30 5239 H 504.013 -2.82201 1.00909 0
M  V30 5240 H 501.574 -1.4693 0.67993 0
M  V30 5241 H 503.566 -3.82786 -1.31365 0
M  V30 5242 H 502.136 -2.77334 -1.44238 0
M  V30 5243 H 501.356 -3.86152 0.792469 0
M  V30 5244 H 502.644 -5.05702 0.560633 0
M  V30 5245 H 502.042 -5.01357 -2.62025 0
M  V30 5246 H 500.599 -5.94461 -2.67318 0
M  V30 5247 N 504.032 -0.577932 -1.46621 0
M  V30 5248 C 505.257 -0.0652536 -2.07297 0
M  V30 5249 C 505.682 1.22828 -1.4246 0
M  V30 5250 O 505.04 1.74075 -0.506718 0
M  V30 5251 C 505.088 0.0920589 -3.60482 0
M  V30 5252 O 504.192 1.14972 -3.96049 0
M  V30 5253 H 503.533 -0.06065 -0.661224 0
M  V30 5254 H 506.063 -0.799515 -1.88332 0
M  V30 5255 H 506.073 0.299741 -4.06897 0
M  V30 5256 H 504.748 -0.852612 -4.07067 0
M  V30 5257 H 503.325 0.920879 -3.61351 0
M  V30 5258 N 505.51 1.54411 -0.315457 0
M  V30 5259 C 506.926 1.59556 0.037464 0
M  V30 5260 C 507.126 1.33217 1.5118 0
M  V30 5261 O 506.182 1.11264 2.26664 0
M  V30 5262 C 507.495 2.98372 -0.373477 0
M  V30 5263 C 509.043 3.11324 -0.323452 0
M  V30 5264 C 509.518 4.52472 -0.709433 0
M  V30 5265 N 511.009 4.58437 -0.662524 0
M  V30 5266 C 511.744 5.65751 -0.933474 0
M  V30 5267 N 511.24 6.81039 -1.27114 0
M  V30 5268 N 513.033 5.55489 -0.859573 0
M  V30 5269 H 505.184 1.6979 -1.27614 0
M  V30 5270 H 507.447 0.793732 -0.518356 0
M  V30 5271 H 507.153 3.22618 -1.40037 0
M  V30 5272 H 507.027 3.76264 0.265615 0
M  V30 5273 H 509.414 2.86818 0.694223 0
M  V30 5274 H 509.495 2.35555 -0.997367 0
M  V30 5275 H 509.139 4.7771 -1.72498 0
M  V30 5276 H 509.069 5.26598 -0.0132923 0
M  V30 5277 H 511.56 3.75636 -0.413065 0
M  V30 5278 H 511.873 7.58816 -1.46348 0
M  V30 5279 H 510.218 6.82555 -1.30932 0
M  V30 5280 H 513.409 4.64299 -0.595324 0
M  V30 5281 H 513.582 6.39036 -1.0741 0
M  V30 5282 N 506.988 0.0434614 1.5754 0
M  V30 5283 C 508.228 -0.636023 1.94253 0
M  V30 5284 C 508.592 -1.68461 0.921132 0
M  V30 5285 O 509.793 -2.41762 1.17494 0
M  V30 5286 C 508.064 -1.22357 3.35803 0
M  V30 5287 S 509.623 -1.92213 3.94461 0
M  V30 5288 H 506.441 -0.209041 0.679575 0
M  V30 5289 H 509.043 0.110556 1.95187 0
M  V30 5290 H 507.747 -0.448162 4.07946 0
M  V30 5291 H 507.278 -2.00713 3.38346 0
M  V30 5292 H 509.293 -3.20199 3.79061 0
M  V30 5293 N 508.466 -1.55915 -0.229846 0
M  V30 5294 C 509.706 -1.80314 -0.962614 0
M  V30 5295 C 510.07 -0.61568 -1.81861 0
M  V30 5296 O 511.271 -0.738795 -2.58448 0
M  V30 5297 C 509.542 -3.0956 -1.78627 0
M  V30 5298 S 511.101 -3.55243 -2.57581 0
M  V30 5299 H 507.919 -0.633142 -0.323499 0
M  V30 5300 H 510.521 -1.94155 -0.228919 0
M  V30 5301 H 509.225 -3.94033 -1.14742 0
M  V30 5302 H 508.756 -2.98503 -2.56241 0
M  V30 5303 H 510.771 -3.17924 -3.80971 0
M  V30 5304 N 509.944 0.496216 -1.49584 0
M  V30 5305 C 511.172 1.27394 -1.63029 0
M  V30 5306 C 511.587 1.86344 -0.303569 0
M  V30 5307 O 510.944 1.68057 0.711547 0
M  V30 5308 C 510.995 2.40077 -2.70269 0
M  V30 5309 O 510.716 1.83549 -3.97796 0
M  V30 5310 C 512.217 3.31372 -2.94462 0
M  V30 5311 H 509.437 0.386211 -0.54871 0
M  V30 5312 H 511.981 0.595163 -1.95648 0
M  V30 5313 H 510.136 3.03775 -2.40415 0
M  V30 5314 H 510.55 2.57561 -4.56905 0
M  V30 5315 H 512.024 4.06707 -3.73221 0
M  V30 5316 H 512.501 3.88654 -2.0456 0
M  V30 5317 H 513.107 2.73435 -3.25751 0
M  V30 5318 N 511.423 1.38739 0.74761 0
M  V30 5319 C 512.669 1.35475 1.50912 0
M  V30 5320 C 513.002 -0.0533093 1.94127 0
M  V30 5321 O 512.277 -1.01572 1.65871 0
M  V30 5322 C 512.56 2.31582 2.75757 0
M  V30 5323 C 512.413 3.81274 2.38642 0
M  V30 5324 C 513.732 2.25722 3.77806 0
M  V30 5325 H 510.851 0.493427 0.547447 0
M  V30 5326 H 513.493 1.69634 0.855823 0
M  V30 5327 H 511.643 2.02582 3.31501 0
M  V30 5328 H 513.315 4.20972 1.88626 0
M  V30 5329 H 511.558 3.98664 1.71025 0
M  V30 5330 H 512.229 4.4399 3.27989 0
M  V30 5331 H 514.705 2.51336 3.31616 0
M  V30 5332 H 513.581 2.95069 4.62845 0
M  V30 5333 H 513.842 1.25803 4.23823 0
M  V30 5334 N 512.901 -0.976442 1.23707 0
M  V30 5335 C 514.129 -1.75341 1.09833 0
M  V30 5336 C 514.544 -1.8553 -0.349885 0
M  V30 5337 O 513.901 -1.33732 -1.24185 0
M  V30 5338 C 513.952 -3.17833 1.72233 0
M  V30 5339 O 513.673 -3.08167 3.11391 0
M  V30 5340 C 515.174 -4.11906 1.63853 0
M  V30 5341 H 512.394 -0.550137 0.384175 0
M  V30 5342 H 514.938 -1.2265 1.63638 0
M  V30 5343 H 513.093 -3.67538 1.22452 0
M  V30 5344 H 513.507 -3.97897 3.41729 0
M  V30 5345 H 514.981 -5.09579 2.12211 0
M  V30 5346 H 515.458 -4.35109 0.598092 0
M  V30 5347 H 516.064 -3.68107 2.13019 0
M  V30 5348 N 514.379 -1.04941 -1.1758 0
M  V30 5349 C 515.795 -0.770282 -1.39781 0
M  V30 5350 C 515.995 0.636417 -1.91186 0
M  V30 5351 O 515.051 1.39923 -2.10185 0
M  V30 5352 C 516.364 -1.82376 -2.3908 0
M  V30 5353 C 517.912 -1.84569 -2.52791 0
M  V30 5354 C 518.387 -2.88933 -3.55361 0
M  V30 5355 N 519.878 -2.8788 -3.62877 0
M  V30 5356 C 520.613 -3.65282 -4.41992 0
M  V30 5357 N 520.109 -4.52461 -5.24643 0
M  V30 5358 N 521.902 -3.53732 -4.36841 0
M  V30 5359 H 514.053 -1.95705 -0.825438 0
M  V30 5360 H 516.316 -0.847284 -0.425222 0
M  V30 5361 H 516.022 -2.83323 -2.08376 0
M  V30 5362 H 515.896 -1.66327 -3.38549 0
M  V30 5363 H 518.283 -0.842879 -2.82807 0
M  V30 5364 H 518.364 -2.04696 -1.53406 0
M  V30 5365 H 518.008 -3.89398 -3.26085 0
M  V30 5366 H 517.938 -2.66059 -4.54445 0
M  V30 5367 H 520.429 -2.24666 -3.03864 0
M  V30 5368 H 520.742 -5.08211 -5.82187 0
M  V30 5369 H 519.087 -4.56524 -5.24033 0
M  V30 5370 H 522.278 -2.85021 -3.71323 0
M  V30 5371 H 522.451 -4.14302 -4.98255 0
M  V30 5372 N 515.857 1.33968 -0.830081 0
M  V30 5373 C 517.273 1.51003 -0.516742 0
M  V30 5374 C 517.473 1.77286 0.957694 0
M  V30 5375 O 516.529 1.82797 1.74188 0
M  V30 5376 C 517.842 2.67036 -1.38247 0
M  V30 5377 C 519.39 2.80919 -1.38034 0
M  V30 5378 C 519.865 4.00004 -2.23071 0
M  V30 5379 N 521.356 4.07224 -2.20733 0
M  V30 5380 C 522.091 4.98541 -2.83275 0
M  V30 5381 N 521.587 5.95033 -3.54835 0
M  V30 5382 N 523.38 4.91469 -2.72791 0
M  V30 5383 H 515.531 1.15168 -1.78466 0
M  V30 5384 H 517.794 0.565443 -0.760906 0
M  V30 5385 H 517.5 2.54266 -2.42985 0
M  V30 5386 H 517.374 3.62226 -1.05225 0
M  V30 5387 H 519.761 2.93127 -0.340713 0
M  V30 5388 H 519.842 1.86517 -1.75057 0
M  V30 5389 H 519.486 3.88557 -3.27087 0
M  V30 5390 H 519.416 4.93634 -1.83394 0
M  V30 5391 H 521.907 3.38162 -1.68687 0
M  V30 5392 H 522.22 6.61357 -3.99784 0
M  V30 5393 H 520.565 5.95135 -3.58942 0
M  V30 5394 H 523.756 4.15048 -2.16456 0
M  V30 5395 H 523.929 5.62439 -3.21818 0
M  V30 5396 N 517.335 0.585699 1.46312 0
M  V30 5397 C 518.298 -0.135673 2.28798 0
M  V30 5398 C 519.298 -0.815988 1.38558 0
M  V30 5399 O 520.488 -0.667487 1.60904 0
M  V30 5400 C 517.62 -1.20163 3.1902 0
M  V30 5401 H 518.813 0.589257 2.94054 0
M  V30 5402 H 516.366 0.343794 1.52472 0
M  V30 5403 H 517.101 -1.95804 2.58517 0
M  V30 5404 H 516.886 -0.718282 3.85465 0
M  V30 5405 H 518.376 -1.70749 3.81096 0
M  V30 5406 N 518.813 -1.54241 0.323641 0
M  V30 5407 C 519.743 -2.27289 -0.534993 0
M  V30 5408 C 520.724 -1.28087 -1.11927 0
M  V30 5409 O 521.909 -1.56899 -1.14439 0
M  V30 5410 C 519.039 -3.03075 -1.69596 0
M  V30 5411 C 517.993 -4.09614 -1.24098 0
M  V30 5412 C 517.319 -4.73242 -2.4889 0
M  V30 5413 C 518.619 -5.21087 -0.355789 0
M  V30 5414 H 520.313 -2.99308 0.0743257 0
M  V30 5415 H 517.859 -1.43952 0.0371874 0
M  V30 5416 H 519.812 -3.52907 -2.30293 0
M  V30 5417 H 518.536 -2.28673 -2.33187 0
M  V30 5418 H 517.195 -3.60666 -0.656945 0
M  V30 5419 H 516.843 -3.95455 -3.10845 0
M  V30 5420 H 516.543 -5.45209 -2.19138 0
M  V30 5421 H 518.067 -5.25848 -3.10348 0
M  V30 5422 H 519.481 -5.66675 -0.869042 0
M  V30 5423 H 517.878 -5.9991 -0.151045 0
M  V30 5424 H 518.948 -4.81005 0.613339 0
M  V30 5425 N 520.291 -0.0518155 -1.57515 0
M  V30 5426 C 521.201 0.937539 -2.15052 0
M  V30 5427 C 522.217 1.34121 -1.10849 0
M  V30 5428 O 523.393 1.418 -1.4302 0
M  V30 5429 C 520.458 2.19379 -2.68466 0
M  V30 5430 C 519.519 1.84841 -3.87469 0
M  V30 5431 C 518.752 3.04477 -4.38326 0
M  V30 5432 O 518.975 4.17868 -3.88256 0
M  V30 5433 O 517.909 2.85453 -5.29906 0
M  V30 5434 H 521.735 0.478201 -2.99912 0
M  V30 5435 H 519.32 0.17012 -1.48428 0
M  V30 5436 H 521.202 2.93084 -3.02787 0
M  V30 5437 H 519.877 2.64449 -1.86677 0
M  V30 5438 H 518.784 1.08449 -3.58036 0
M  V30 5439 H 520.117 1.44569 -4.7049 0
M  V30 5440 N 521.769 1.56035 0.221574 0
M  V30 5441 C 523.185 1.49026 0.571271 0
M  V30 5442 C 523.385 0.746912 1.87146 0
M  V30 5443 O 522.441 0.286566 2.50869 0
M  V30 5444 C 523.754 2.93579 0.650522 0
M  V30 5445 C 525.302 3.04099 0.741151 0
M  V30 5446 C 525.777 4.5001 0.851747 0
M  V30 5447 N 527.268 4.54053 0.915968 0
M  V30 5448 C 528.003 5.64232 1.02125 0
M  V30 5449 N 527.499 6.84164 1.09049 0
M  V30 5450 N 529.292 5.52084 1.05639 0
M  V30 5451 H 521.443 2.02791 -0.63162 0
M  V30 5452 H 523.706 0.921736 -0.221602 0
M  V30 5453 H 523.412 3.50912 -0.235253 0
M  V30 5454 H 523.286 3.45476 1.51413 0
M  V30 5455 H 525.673 2.4683 1.61737 0
M  V30 5456 H 525.754 2.55371 -0.148128 0
M  V30 5457 H 525.398 5.07896 -0.0200117 0
M  V30 5458 H 525.328 4.96444 1.75644 0
M  V30 5459 H 527.819 3.67683 0.872782 0
M  V30 5460 H 528.132 7.63883 1.1706 0
M  V30 5461 H 526.477 6.86875 1.05962 0
M  V30 5462 H 529.668 4.57317 0.998953 0
M  V30 5463 H 529.841 6.37983 1.13498 0
M  V30 5464 N 523.247 -0.488276 1.49845 0
M  V30 5465 C 524.663 -0.820566 1.3689 0
M  V30 5466 C 524.863 -1.97248 0.411752 0
M  V30 5467 O 523.919 -2.52042 -0.151931 0
M  V30 5468 C 525.232 -1.1488 2.77891 0
M  V30 5469 C 526.78 -1.25626 2.86683 0
M  V30 5470 C 527.255 -1.61772 4.28479 0
M  V30 5471 N 528.746 -1.68797 4.31349 0
M  V30 5472 C 529.481 -1.98235 5.38043 0
M  V30 5473 N 528.977 -2.2581 6.54967 0
M  V30 5474 N 530.77 -1.99593 5.2547 0
M  V30 5475 H 522.921 0.271123 2.10662 0
M  V30 5476 H 525.184 0.058735 0.946179 0
M  V30 5477 H 524.89 -0.375614 3.49688 0
M  V30 5478 H 524.764 -2.08919 3.14058 0
M  V30 5479 H 527.151 -2.02014 2.15114 0
M  V30 5480 H 527.232 -0.296072 2.54081 0
M  V30 5481 H 526.876 -0.859295 5.00578 0
M  V30 5482 H 526.806 -2.58912 4.58554 0
M  V30 5483 H 529.297 -1.49595 3.4703 0
M  V30 5484 H 529.61 -2.47497 7.32096 0
M  V30 5485 H 527.955 -2.23239 6.58171 0
M  V30 5486 H 531.146 -1.77535 4.33127 0
M  V30 5487 H 531.319 -2.222 6.08713 0
M  V30 5488 N 524.725 -1.39134 -0.740242 0
M  V30 5489 C 526.136 -1.32208 -1.31825 0
M  V30 5490 C 526.487 0.0159919 -1.96193 0
M  V30 5491 O 525.612 0.918111 -1.95958 0
M  V30 5492 C 526.207 -2.39436 -2.39699 0
M  V30 5493 C 524.766 -2.36048 -2.93187 0
M  V30 5494 C 523.913 -2.21599 -1.66701 0
M  V30 5495 H 526.864 -1.49298 -0.538133 0
M  V30 5496 H 526.885 -2.05922 -3.19963 0
M  V30 5497 H 526.397 -3.36811 -1.92821 0
M  V30 5498 H 524.498 -1.42295 -3.44359 0
M  V30 5499 H 524.611 -3.30704 -3.46658 0
M  V30 5500 H 522.975 -1.68681 -1.90837 0
M  V30 5501 H 523.758 -3.20936 -1.21882 0
M  V30 5502 N 526.204 0.969867 -1.24223 0
M  V30 5503 C 527.62 1.23809 -1.00716 0
M  V30 5504 C 527.82 1.99469 0.285358 0
M  V30 5505 O 526.876 2.31764 1.00207 0
M  V30 5506 C 528.189 2.02734 -2.2208 0
M  V30 5507 C 529.737 2.15834 -2.26681 0
M  V30 5508 C 530.212 2.98154 -3.47661 0
M  V30 5509 N 531.703 3.05737 -3.47964 0
M  V30 5510 C 532.438 3.69785 -4.38231 0
M  V30 5511 N 531.934 4.35569 -5.3875 0
M  V30 5512 N 533.727 3.66775 -4.25949 0
M  V30 5513 H 525.878 0.463294 -2.07286 0
M  V30 5514 H 528.141 0.267348 -0.909521 0
M  V30 5515 H 527.847 1.54524 -3.15935 0
M  V30 5516 H 527.721 3.0347 -2.24021 0
M  V30 5517 H 530.108 2.63248 -1.33359 0
M  V30 5518 H 530.189 1.14453 -2.28767 0
M  V30 5519 H 529.833 2.51435 -4.41297 0
M  V30 5520 H 529.763 3.99729 -3.42818 0
M  V30 5521 H 532.254 2.58941 -2.75242 0
M  V30 5522 H 532.567 4.82251 -6.03866 0
M  V30 5523 H 530.912 4.34244 -5.42639 0
M  V30 5524 H 534.103 3.14558 -3.46657 0
M  V30 5525 H 534.276 4.16407 -4.96497 0
M  V30 5526 N 527.682 1.05563 1.17022 0
M  V30 5527 C 529.098 0.777684 1.39371 0
M  V30 5528 C 529.298 -0.626269 1.91521 0
M  V30 5529 O 528.354 -1.38806 2.10924 0
M  V30 5530 C 529.667 1.83642 2.3811 0
M  V30 5531 C 531.215 1.85907 2.51809 0
M  V30 5532 C 531.69 2.90813 3.53824 0
M  V30 5533 N 533.181 2.898 3.61345 0
M  V30 5534 C 533.916 3.6762 4.40049 0
M  V30 5535 N 533.412 4.55237 5.22237 0
M  V30 5536 N 535.205 3.56044 4.34959 0
M  V30 5537 H 527.356 1.9614 0.815047 0
M  V30 5538 H 529.619 0.849527 0.420722 0
M  V30 5539 H 529.325 2.84425 2.06871 0
M  V30 5540 H 529.199 1.6812 3.37662 0
M  V30 5541 H 531.586 0.857865 2.82356 0
M  V30 5542 H 531.667 2.05506 1.52318 0
M  V30 5543 H 531.311 3.91122 3.24015 0
M  V30 5544 H 531.241 2.68465 4.53028 0
M  V30 5545 H 533.732 2.26274 3.02669 0
M  V30 5546 H 534.045 5.11291 5.79484 0
M  V30 5547 H 532.39 4.59296 5.21605 0
M  V30 5548 H 535.581 2.86986 3.69806 0
M  V30 5549 H 535.754 4.16938 4.96051 0
M  V30 5550 N 529.16 -1.33526 0.837174 0
M  V30 5551 C 530.092 -2.28077 0.226579 0
M  V30 5552 C 531.105 -1.51666 -0.591717 0
M  V30 5553 O 532.294 -1.73511 -0.419064 0
M  V30 5554 C 529.394 -3.31597 -0.69978 0
M  V30 5555 C 528.567 -4.37329 0.0788067 0
M  V30 5556 C 527.626 -5.20526 -0.770637 0
M  V30 5557 O 526.652 -5.68811 -0.210453 0
M  V30 5558 N 527.854 -5.41639 -2.08825 0
M  V30 5559 H 530.619 -2.81115 1.03897 0
M  V30 5560 H 528.18 -1.46201 0.695476 0
M  V30 5561 H 530.172 -3.84158 -1.27298 0
M  V30 5562 H 528.742 -2.78848 -1.41288 0
M  V30 5563 H 527.962 -3.8529 0.833381 0
M  V30 5564 H 529.25 -5.05079 0.614238 0
M  V30 5565 H 528.648 -5.04108 -2.56693 0
M  V30 5566 H 527.205 -5.97263 -2.60998 0
M  V30 5567 N 530.638 -0.59345 -1.46 0
M  V30 5568 C 531.886 -0.082988 -2.0193 0
M  V30 5569 C 532.207 1.28569 -1.46612 0
M  V30 5570 O 531.477 1.84629 -0.654909 0
M  V30 5571 H 530.057 -0.0276882 -0.746487 0
M  V30 5572 H 532.719 -0.771657 -1.78973 0
M  V30 5573 H 531.815 -0.022079 -3.12092 0
M  V30 5574 N 532.116 1.54067 -0.331816 0
M  V30 5575 C 533.532 1.59587 0.0205388 0
M  V30 5576 C 533.732 1.34813 1.49759 0
M  V30 5577 O 532.788 1.13661 2.25471 0
M  V30 5578 C 534.101 2.97959 -0.405103 0
M  V30 5579 C 535.649 3.10964 -0.356454 0
M  V30 5580 C 536.124 4.51694 -0.757384 0
M  V30 5581 N 537.615 4.57709 -0.71111 0
M  V30 5582 C 538.35 5.64729 -0.993427 0
M  V30 5583 N 537.846 6.79652 -1.3433 0
M  V30 5584 N 539.639 5.54546 -0.918442 0
M  V30 5585 H 531.79 1.68426 -1.29407 0
M  V30 5586 H 534.053 0.78819 -0.526745 0
M  V30 5587 H 533.759 3.21115 -1.43451 0
M  V30 5588 H 533.633 3.76524 0.225692 0
M  V30 5589 H 536.02 2.87538 0.663763 0
M  V30 5590 H 536.101 2.34484 -1.02229 0
M  V30 5591 H 535.745 4.75853 -1.77555 0
M  V30 5592 H 535.675 5.26555 -0.0691444 0
M  V30 5593 H 538.166 3.75176 -0.452883 0
M  V30 5594 H 538.479 7.57221 -1.54388 0
M  V30 5595 H 536.824 6.81128 -1.38164 0
M  V30 5596 H 540.015 4.63641 -0.644536 0
M  V30 5597 H 540.188 6.37861 -1.14181 0
M  V30 5598 N 533.594 0.0601682 1.57485 0
M  V30 5599 C 535.005 -0.474217 1.80577 0
M  V30 5600 C 535.356 -1.70365 0.973147 0
M  V30 5601 O 534.481 -2.15544 0.192306 0
M  V30 5602 C 535.076 -0.867102 3.27516 0
M  V30 5603 C 533.635 -1.34642 3.51495 0
M  V30 5604 C 532.782 -0.32594 2.75378 0
M  V30 5605 H 535.733 0.285973 1.56102 0
M  V30 5606 H 535.754 -1.72938 3.38929 0
M  V30 5607 H 535.266 0.0278927 3.8809 0
M  V30 5608 H 533.367 -2.2603 2.96212 0
M  V30 5609 H 533.48 -1.33237 4.60201 0
M  V30 5610 H 531.844 -0.800749 2.41785 0
M  V30 5611 H 532.627 0.561125 3.38683 0
M  V30 5612 N 535.072 -1.5615 -0.213296 0
M  V30 5613 C 536.488 -1.49327 -0.56336 0
M  V30 5614 C 536.688 -0.756826 -1.86747 0
M  V30 5615 O 535.744 -0.299866 -2.50713 0
M  V30 5616 C 537.057 -2.9392 -0.634944 0
M  V30 5617 C 538.605 -3.04487 -0.725013 0
M  V30 5618 C 539.08 -4.50456 -0.82787 0
M  V30 5619 N 540.571 -4.54533 -0.891876 0
M  V30 5620 C 541.306 -5.64766 -0.991315 0
M  V30 5621 N 540.802 -6.84733 -1.05419 0
M  V30 5622 N 542.595 -5.52637 -1.02709 0
M  V30 5623 H 534.746 -2.02453 0.642366 0
M  V30 5624 H 537.009 -0.920548 0.226487 0
M  V30 5625 H 536.715 -3.50783 0.253859 0
M  V30 5626 H 536.589 -3.46274 -1.49579 0
M  V30 5627 H 538.976 -2.47685 -1.60425 0
M  V30 5628 H 539.057 -2.55289 0.161669 0
M  V30 5629 H 538.701 -5.07878 0.0469464 0
M  V30 5630 H 538.631 -4.97369 -1.73009 0
M  V30 5631 H 541.122 -3.68141 -0.85327 0
M  V30 5632 H 541.435 -7.64493 -1.13007 0
M  V30 5633 H 539.78 -6.87427 -1.02318 0
M  V30 5634 H 542.971 -4.5784 -0.974687 0
M  V30 5635 H 543.144 -6.38576 -1.10113 0
M  V30 5636 N 536.55 0.480323 -1.50102 0
M  V30 5637 C 537.798 1.23063 -1.60312 0
M  V30 5638 C 538.119 1.92659 -0.301226 0
M  V30 5639 O 537.389 1.83691 0.680753 0
M  V30 5640 H 535.969 0.457231 -0.590719 0
M  V30 5641 H 538.631 0.554893 -1.86834 0
M  V30 5642 H 537.727 1.9835 -2.40964 0
M  V30 5643 N 538.028 1.39524 0.732853 0
M  V30 5644 C 539.268 1.383 1.50508 0
M  V30 5645 C 539.632 -0.0208271 1.91989 0
M  V30 5646 O 540.833 -0.158091 2.68335 0
M  V30 5647 C 539.104 2.33007 2.71003 0
M  V30 5648 S 540.663 2.49989 3.60626 0
M  V30 5649 H 537.481 0.490417 0.514794 0
M  V30 5650 H 540.083 1.75641 0.858524 0
M  V30 5651 H 538.787 3.33862 2.38672 0
M  V30 5652 H 538.318 1.96889 3.40585 0
M  V30 5653 H 540.333 1.7394 4.64714 0
M  V30 5654 N 539.506 -0.963266 1.24736 0
M  V30 5655 C 540.752 -1.70933 1.09131 0
M  V30 5656 C 541.085 -1.90676 -0.368273 0
M  V30 5657 O 540.36 -1.47147 -1.27193 0
M  V30 5658 C 540.643 -3.09744 1.83658 0
M  V30 5659 C 540.496 -2.97465 3.37394 0
M  V30 5660 C 541.815 -4.09483 1.61282 0
M  V30 5661 H 538.934 -0.620398 0.397838 0
M  V30 5662 H 541.576 -1.12028 1.53459 0
M  V30 5663 H 539.726 -3.60031 1.4598 0
M  V30 5664 H 541.398 -2.54571 3.84696 0
M  V30 5665 H 539.641 -2.33576 3.65547 0
M  V30 5666 H 540.312 -3.95822 3.84745 0
M  V30 5667 H 542.788 -3.68073 1.94066 0
M  V30 5668 H 541.664 -5.04666 2.15878 0
M  V30 5669 H 541.925 -4.38639 0.552102 0
M  V30 5670 N 540.985 -1.06182 -1.16461 0
M  V30 5671 C 542.262 -0.691364 -1.82974 0
M  V30 5672 C 542.642 0.827377 -1.9421 0
M  V30 5673 O 541.99 1.73723 -1.48434 0
M  V30 5674 C 542.2 -1.39199 -3.20038 0
M  V30 5675 C 543.548 -1.53647 -3.95825 0
M  V30 5676 O 544.572 -1.35181 -3.29552 0
M  V30 5677 O 543.431 -1.83932 -5.14618 0
M  V30 5678 H 540.525 -0.244605 -0.789998 0
M  V30 5679 H 543.071 -1.16203 -1.23673 0
M  V30 5680 H 541.843 -2.42766 -3.06888 0
M  V30 5681 H 541.466 -0.911335 -3.87015 0
M  V30 5682 N 542.463 1.3308 -0.844243 0
M  V30 5683 C 543.688 2.02341 -0.455282 0
M  V30 5684 C 544.113 1.6308 0.93737 0
M  V30 5685 O 543.471 0.826118 1.61385 0
M  V30 5686 C 543.519 3.55743 -0.58988 0
M  V30 5687 O 542.623 4.1063 0.38166 0
M  V30 5688 H 541.964 0.637898 -0.184343 0
M  V30 5689 H 544.494 1.6986 -1.14056 0
M  V30 5690 H 544.504 4.05243 -0.473522 0
M  V30 5691 H 543.179 3.83662 -1.60549 0
M  V30 5692 H 541.756 3.72236 0.22241 0
M  V30 5693 N 543.941 0.601185 1.45683 0
M  V30 5694 C 545.187 0.0940202 2.02582 0
M  V30 5695 C 545.52 -1.26972 1.46941 0
M  V30 5696 O 544.795 -1.83613 0.641612 0
M  V30 5697 C 545.078 0.0481715 3.60068 0
M  V30 5698 C 544.931 1.44212 4.26055 0
M  V30 5699 C 546.25 -0.642975 4.35378 0
M  V30 5700 H 543.369 0.0356404 0.736138 0
M  V30 5701 H 546.011 0.771929 1.73612 0
M  V30 5702 H 544.161 -0.529128 3.8488 0
M  V30 5703 H 545.833 2.06601 4.12449 0
M  V30 5704 H 544.076 2.00465 3.84703 0
M  V30 5705 H 544.747 1.36234 5.34925 0
M  V30 5706 H 547.223 -0.152351 4.15821 0
M  V30 5707 H 546.099 -0.644141 5.45107 0
M  V30 5708 H 546.36 -1.70785 4.0778 0
M  V30 5709 N 545.419 -1.53889 0.339982 0
M  V30 5710 C 546.83 -1.86139 -0.144671 0
M  V30 5711 C 547.181 -1.2613 -1.50285 0
M  V30 5712 O 546.306 -0.573515 -2.08662 0
M  V30 5713 C 546.901 -3.37728 -0.269285 0
M  V30 5714 C 545.46 -3.69868 -0.698168 0
M  V30 5715 C 544.607 -2.76777 0.170249 0
M  V30 5716 H 547.558 -1.48503 0.559704 0
M  V30 5717 H 547.579 -3.64331 -1.0974 0
M  V30 5718 H 547.091 -3.81375 0.719366 0
M  V30 5719 H 545.192 -3.31764 -1.69597 0
M  V30 5720 H 545.305 -4.76582 -0.490533 0
M  V30 5721 H 543.669 -2.52188 -0.356844 0
M  V30 5722 H 544.452 -3.23253 1.15597 0
M  V30 5723 N 546.897 -0.0685191 -1.57451 0
M  V30 5724 C 547.847 0.909895 -2.09057 0
M  V30 5725 C 548.831 1.26088 -0.999528 0
M  V30 5726 O 550.023 1.24041 -1.26265 0
M  V30 5727 C 547.152 2.17863 -2.65312 0
M  V30 5728 C 546.238 1.85427 -3.81415 0
M  V30 5729 N 546.629 1.23426 -4.9051 0
M  V30 5730 C 544.927 2.15196 -3.90649 0
M  V30 5731 C 545.628 1.09008 -5.71395 0
M  V30 5732 N 544.604 1.59871 -5.1956 0
M  V30 5733 H 548.406 0.426145 -2.90794 0
M  V30 5734 H 545.92 0.135462 -1.61834 0
M  V30 5735 H 547.917 2.88872 -3.00597 0
M  V30 5736 H 546.577 2.66829 -1.85021 0
M  V30 5737 H 547.588 0.904305 -5.09944 0
M  V30 5738 H 544.265 2.66562 -3.21327 0
M  V30 5739 H 545.655 0.607305 -6.6915 0
M  V30 5740 N 548.375 1.56261 0.205012 0
M  V30 5741 C 549.786 1.70056 0.770574 0
M  V30 5742 C 550.137 0.673398 1.84282 0
M  V30 5743 O 549.262 -0.172196 2.15714 0
M  V30 5744 C 549.857 3.08316 1.40451 0
M  V30 5745 C 548.416 3.2391 1.91727 0
M  V30 5746 C 547.563 2.66001 0.783516 0
M  V30 5747 H 550.514 1.58688 -0.019911 0
M  V30 5748 H 550.535 3.05094 2.27371 0
M  V30 5749 H 550.047 3.83053 0.623882 0
M  V30 5750 H 548.148 2.54072 2.7254 0
M  V30 5751 H 548.261 4.3131 2.08588 0
M  V30 5752 H 546.625 2.24915 1.19521 0
M  V30 5753 H 547.408 3.43297 0.0152883 0
M  V30 5754 N 549.853 -0.472356 1.50355 0
M  V30 5755 C 551.081 -1.24784 1.65035 0
M  V30 5756 C 551.496 -1.85837 0.333176 0
M  V30 5757 O 550.853 -1.69168 -0.68472 0
M  V30 5758 C 550.904 -2.35747 2.74054 0
M  V30 5759 O 550.625 -1.77197 4.00665 0
M  V30 5760 C 552.126 -3.26645 2.99696 0
M  V30 5761 H 549.346 -0.377432 0.554785 0
M  V30 5762 H 551.89 -0.563962 1.9657 0
M  V30 5763 H 550.045 -2.99912 2.45217 0
M  V30 5764 H 550.459 -2.5026 4.60945 0
M  V30 5765 H 551.933 -4.00718 3.79644 0
M  V30 5766 H 552.41 -3.8535 2.10718 0
M  V30 5767 H 553.016 -2.68218 3.3006 0
M  V30 5768 N 551.331 -1.39911 -0.725443 0
M  V30 5769 C 552.559 -1.40949 -1.51463 0
M  V30 5770 C 552.974 -0.0065242 -1.88799 0
M  V30 5771 O 552.331 0.967163 -1.54765 0
M  V30 5772 C 552.382 -2.29119 -2.79619 0
M  V30 5773 O 552.103 -3.63952 -2.43866 0
M  V30 5774 C 553.604 -2.38642 -3.73584 0
M  V30 5775 H 550.824 -0.481091 -0.467752 0
M  V30 5776 H 553.368 -1.83843 -0.895651 0
M  V30 5777 H 551.523 -1.89612 -3.37826 0
M  V30 5778 H 551.937 -4.10677 -3.26258 0
M  V30 5779 H 553.411 -3.04563 -4.60375 0
M  V30 5780 H 553.888 -1.40846 -4.16004 0
M  V30 5781 H 554.494 -2.78659 -3.21293 0
M  V30 5782 N 552.809 0.956637 -1.25245 0
M  V30 5783 C 553.719 2.0868 -1.0719 0
M  V30 5784 C 554.735 1.73997 -0.00959074 0
M  V30 5785 O 555.911 2.00301 -0.210104 0
M  V30 5786 C 552.976 3.39754 -0.690526 0
M  V30 5787 C 552.037 3.88316 -1.83055 0
M  V30 5788 C 551.27 5.13134 -1.46728 0
M  V30 5789 O 551.493 5.6925 -0.362029 0
M  V30 5790 O 550.427 5.56356 -2.29677 0
M  V30 5791 H 554.253 2.26813 -2.01965 0
M  V30 5792 H 551.838 1.07098 -1.04165 0
M  V30 5793 H 553.72 4.18543 -0.489871 0
M  V30 5794 H 552.395 3.22896 0.227981 0
M  V30 5795 H 551.302 3.1054 -2.08604 0
M  V30 5796 H 552.635 4.09669 -2.72822 0
M  V30 5797 N 554.287 1.06798 1.15896 0
M  V30 5798 C 555.219 0.641263 2.20046 0
M  V30 5799 C 556.232 -0.303355 1.59949 0
M  V30 5800 O 557.421 -0.0935478 1.78255 0
M  V30 5801 C 554.521 -0.0794029 3.38807 0
M  V30 5802 C 553.694 0.879986 4.28457 0
M  V30 5803 C 552.753 0.197638 5.25829 0
M  V30 5804 O 551.779 0.836913 5.63014 0
M  V30 5805 N 552.981 -1.05886 5.70761 0
M  V30 5806 H 555.746 1.53718 2.57276 0
M  V30 5807 H 553.307 0.951951 1.30956 0
M  V30 5808 H 555.299 -0.546418 4.00994 0
M  V30 5809 H 553.869 -0.877193 3.0004 0
M  V30 5810 H 553.089 1.52625 3.63454 0
M  V30 5811 H 554.377 1.53065 4.8523 0
M  V30 5812 H 553.775 -1.59828 5.42652 0
M  V30 5813 H 552.332 -1.46965 6.35015 0
M  V30 5814 O 555.804 -1.27943 0.985539 0
M  V30 5815 H 556.495 -1.83099 0.632003 0
M  V30 END ATOM
M  V30 BEGIN BOND
M  V30 END BOND
M  V30 END CTAB
M  END
$$$$
