drugbank_target|Q8NFJ5 Retinoic acid-induced protein 3 (DB00755)
 OpenBabel12092119373D

  0  0  0     0  0            999 V3000
M  V30 BEGIN CTAB
M  V30 COUNTS 5720 5796 0 0 0
M  V30 BEGIN ATOM
M  V30 1 H -0.908 1.98254 -0.117106 0
M  V30 2 N 0 1.576 0 0
M  V30 3 C 0.933 2.03868 1.02534 0
M  V30 4 C 1.911 0.928543 1.3348 0
M  V30 5 O 3.095 1.19667 1.45644 0
M  V30 6 C 0.222 2.43627 2.35294 0
M  V30 7 C -0.732 3.65373 2.2001 0
M  V30 8 S 0.101 5.13292 1.52614 0
M  V30 9 C 1.257 5.56322 2.86805 0
M  V30 10 H 1.49 2.90518 0.631377 0
M  V30 11 H -0.977 1.52953 0.210867 0
M  V30 12 H 0.981 2.67203 3.11629 0
M  V30 13 H -0.358 1.57376 2.7183 0
M  V30 14 H -1.165 3.90944 3.18086 0
M  V30 15 H -1.563 3.418 1.51819 0
M  V30 16 H 0.729 5.58782 3.83104 0
M  V30 17 H 1.672 6.56266 2.65933 0
M  V30 18 H 2.08 4.83886 2.90714 0
M  V30 19 N 1.4781 -0.272755 1.55222 0
M  V30 20 C 2.4411 -1.32041 1.87344 0
M  V30 21 C 3.4411 -1.42342 0.74803 0
M  V30 22 O 4.6311 -1.41488 1.0162 0
M  V30 23 C 1.7631 -2.70173 2.07893 0
M  V30 24 H 2.9561 -1.04789 2.80997 0
M  V30 25 H 0.5091 -0.51083 1.47717 0
M  V30 26 H 1.2441 -3.02605 1.16622 0
M  V30 27 H 1.0291 -2.64082 2.89833 0
M  V30 28 H 2.5191 -3.45869 2.34017 0
M  V30 29 N 2.9562 -1.48159 -0.537278 0
M  V30 30 C 4.1842 -1.59454 -1.31841 0
M  V30 31 C 4.5992 -0.252065 -1.8711 0
M  V30 32 O 3.9562 0.757621 -1.66031 0
M  V30 33 C 4.0072 -2.63546 -2.47439 0
M  V30 34 O 3.7282 -3.92583 -1.94449 0
M  V30 35 C 5.2292 -2.85212 -3.39366 0
M  V30 36 H 2.4492 -0.53785 -0.401196 0
M  V30 37 H 4.9932 -1.93932 -0.648891 0
M  V30 38 H 3.1482 -2.31946 -3.1029 0
M  V30 39 H 3.5622 -4.49629 -2.70063 0
M  V30 40 H 5.0362 -3.61863 -4.16844 0
M  V30 41 H 5.5132 -1.93765 -3.94147 0
M  V30 42 H 6.1192 -3.18086 -2.82314 0
M  V30 43 N 4.4343 0.785586 -1.36625 0
M  V30 44 C 5.6623 1.57448 -1.3423 0
M  V30 45 C 6.0773 1.88649 0.0755653 0
M  V30 46 O 5.4343 1.50414 1.03354 0
M  V30 47 C 5.4853 2.89316 -2.16745 0
M  V30 48 O 5.2063 2.59459 -3.53005 0
M  V30 49 C 6.7073 3.83606 -2.22174 0
M  V30 50 H 3.9273 0.488226 -0.4603 0
M  V30 51 H 6.4713 0.974733 -1.79775 0
M  V30 52 H 4.6263 3.4575 -1.74745 0
M  V30 53 H 5.0403 3.43804 -3.96105 0
M  V30 54 H 6.5143 4.73181 -2.8426 0
M  V30 55 H 6.9913 4.21734 -1.22627 0
M  V30 56 H 7.5973 3.33104 -2.64427 0
M  V30 57 N 5.9124 1.20967 1.01018 0
M  V30 58 C 7.1584 1.02526 1.74975 0
M  V30 59 C 7.4914 -0.4408 1.89131 0
M  V30 60 O 6.7664 -1.32718 1.42184 0
M  V30 61 C 7.0494 1.71699 3.1653 0
M  V30 62 C 6.9024 3.25791 3.10129 0
M  V30 63 C 8.2214 1.45531 4.15342 0
M  V30 64 H 5.3404 0.373863 0.635134 0
M  V30 65 H 7.9824 1.49071 1.17805 0
M  V30 66 H 6.1324 1.32128 3.65341 0
M  V30 67 H 7.8044 3.74697 2.69072 0
M  V30 68 H 6.0474 3.56363 2.47362 0
M  V30 69 H 6.7184 3.69353 4.10222 0
M  V30 70 H 9.1944 1.79872 3.75213 0
M  V30 71 H 8.0704 1.96453 5.1254 0
M  V30 72 H 8.3314 0.384237 4.40427 0
M  V30 73 N 7.3905 -1.2043 1.01659 0
M  V30 74 C 8.8015 -1.71517 0.737482 0
M  V30 75 C 9.1525 -1.81547 -0.743973 0
M  V30 76 O 8.2775 -1.47803 -1.58061 0
M  V30 77 C 8.8725 -3.11515 1.33206 0
M  V30 78 C 7.4315 -3.59912 1.10183 0
M  V30 79 C 6.5785 -2.37116 1.43776 0
M  V30 80 H 9.5295 -1.05444 1.18606 0
M  V30 81 H 9.5505 -3.73575 0.722636 0
M  V30 82 H 9.0625 -3.04182 2.41028 0
M  V30 83 H 7.1635 -3.72577 0.0412756 0
M  V30 84 H 7.2765 -4.44731 1.78188 0
M  V30 85 H 5.6405 -2.39857 0.856778 0
M  V30 86 H 6.4235 -2.32424 2.52654 0
M  V30 87 N 8.8686 -0.792821 -1.36206 0
M  V30 88 C 10.1456 -0.290627 -1.93429 0
M  V30 89 C 10.5256 1.21773 -1.72437 0
M  V30 90 O 9.8736 2.0108 -1.08531 0
M  V30 91 C 10.0836 -0.686973 -3.42172 0
M  V30 92 C 11.4316 -0.668643 -4.19302 0
M  V30 93 O 12.4556 -0.627658 -3.50626 0
M  V30 94 O 11.3146 -0.714597 -5.41808 0
M  V30 95 H 8.4086 -0.0727927 -0.82379 0
M  V30 96 H 10.9546 -0.875593 -1.45367 0
M  V30 97 H 9.7266 -1.72711 -3.51122 0
M  V30 98 H 9.3496 -0.0760733 -3.97527 0
M  V30 99 N 10.3467 1.47872 -0.545128 0
M  V30 100 C 11.5947 2.02093 -0.016553 0
M  V30 101 C 11.9157 1.42305 1.3332 0
M  V30 102 O 11.1857 0.593853 1.86682 0
M  V30 103 H 9.7657 0.746993 -0.00313038 0
M  V30 104 H 12.4277 1.81414 -0.712397 0
M  V30 105 H 11.5237 3.11996 0.0805422 0
M  V30 106 N 11.8248 0.280983 1.55075 0
M  V30 107 C 13.0648 -0.335234 2.01632 0
M  V30 108 C 13.4288 -1.5261 1.16508 0
M  V30 109 O 14.6298 -2.21235 1.52672 0
M  V30 110 C 12.9008 -0.702172 3.50434 0
M  V30 111 S 14.4598 -1.30409 4.18974 0
M  V30 112 H 11.2778 -0.103967 0.703358 0
M  V30 113 H 13.8798 0.404187 1.91276 0
M  V30 114 H 12.5838 0.17333 4.10034 0
M  V30 115 H 12.1148 -1.4729 3.64786 0
M  V30 116 H 14.1298 -2.59253 4.23087 0
M  V30 117 N 13.3029 -1.57598 0.00835791 0
M  V30 118 C 14.7189 -1.55764 -0.347822 0
M  V30 119 C 14.9189 -1.01186 -1.74252 0
M  V30 120 O 13.9749 -0.649371 -2.44007 0
M  V30 121 C 15.2879 -2.99927 -0.215407 0
M  V30 122 C 16.8359 -3.11656 -0.289725 0
M  V30 123 C 17.3109 -4.57621 -0.18634 0
M  V30 124 N 18.8019 -4.62557 -0.243978 0
M  V30 125 C 19.5369 -5.73094 -0.18745 0
M  V30 126 N 19.0329 -6.92753 -0.0810331 0
M  V30 127 N 20.8259 -5.61588 -0.239925 0
M  V30 128 H 12.9769 -1.91411 0.92062 0
M  V30 129 H 15.2399 -0.879562 0.353659 0
M  V30 130 H 14.9459 -3.43729 0.744512 0
M  V30 131 H 14.8199 -3.63865 -0.994097 0
M  V30 132 H 17.2069 -2.67779 -1.24009 0
M  V30 133 H 17.2879 -2.5048 0.51898 0
M  V30 134 H 16.9319 -5.02174 0.760519 0
M  V30 135 H 16.8619 -5.16752 -1.01364 0
M  V30 136 H 19.3529 -3.76481 -0.327217 0
M  V30 137 H 19.6659 -7.72787 -0.0440241 0
M  V30 138 H 18.0109 -6.94984 -0.0465419 0
M  V30 139 H 21.2019 -4.66996 -0.321317 0
M  V30 140 H 21.3749 -6.47714 -0.192407 0
M  V30 141 N 14.781 0.264519 -1.55364 0
M  V30 142 C 15.729 1.34702 -1.89626 0
M  V30 143 C 16.723 1.50712 -0.773459 0
M  V30 144 O 17.929 1.52395 -0.957897 0
M  V30 145 H 14.304 0.450682 -0.601988 0
M  V30 146 H 16.275 1.0306 -2.80038 0
M  V30 147 C 15.024 2.6989 -2.19214 0
M  V30 148 H 14.347 2.58365 -3.05103 0
M  V30 149 H 15.787 3.44553 -2.47102 0
M  V30 150 C 14.246 3.21637 -1.00254 0
M  V30 151 O 14.776 4.00973 -0.241501 0
M  V30 152 N 12.982 2.7943 -0.797938 0
M  V30 153 H 12.529 2.15026 -1.4185 0
M  V30 154 H 12.487 3.144 -0.00363422 0
M  V30 155 N 16.2591 1.48442 0.529413 0
M  V30 156 C 17.5071 1.56179 1.28267 0
M  V30 157 C 17.8281 0.237721 1.93546 0
M  V30 158 O 17.0981 -0.740779 1.81354 0
M  V30 159 H 15.6781 0.575367 0.476405 0
M  V30 160 H 18.3401 1.84909 0.61602 0
M  V30 161 H 17.4361 2.34312 2.06165 0
M  V30 162 N 17.7372 -0.778329 1.37039 0
M  V30 163 C 18.6672 -1.90546 1.34962 0
M  V30 164 C 19.6482 -1.68681 0.219274 0
M  V30 165 O 20.8332 -1.89634 0.418624 0
M  V30 166 C 17.9632 -3.27734 1.14925 0
M  V30 167 C 16.9172 -3.64147 2.24902 0
M  V30 168 C 16.2432 -4.99806 1.89996 0
M  V30 169 C 17.5432 -3.71579 3.67051 0
M  V30 170 H 19.2372 -1.92541 2.29277 0
M  V30 171 H 16.7832 -0.924948 1.10366 0
M  V30 172 H 18.7362 -4.06215 1.12104 0
M  V30 173 H 17.4602 -3.26154 0.170631 0
M  V30 174 H 16.1192 -2.8797 2.26868 0
M  V30 175 H 15.7672 -4.94759 0.906796 0
M  V30 176 H 15.4672 -5.25139 2.63634 0
M  V30 177 H 16.9912 -5.80694 1.88749 0
M  V30 178 H 18.4052 -4.40227 3.67251 0
M  V30 179 H 16.8022 -4.08405 4.39688 0
M  V30 180 H 17.8722 -2.72404 4.01154 0
M  V30 181 N 19.2153 -1.21501 -1.00376 0
M  V30 182 C 20.1623 -0.975387 -2.09177 0
M  V30 183 C 21.1323 0.0990615 -1.65804 0
M  V30 184 O 22.3173 -0.0483147 -1.90739 0
M  V30 185 C 19.4573 -0.547507 -3.40729 0
M  V30 186 C 18.5703 -1.69153 -3.97506 0
M  V30 187 C 17.7053 -1.2127 -5.17172 0
M  V30 188 C 16.7443 -2.32897 -5.66061 0
M  V30 189 N 15.8813 -1.86138 -6.76976 0
M  V30 190 H 20.7213 -1.9068 -2.29009 0
M  V30 191 H 18.2583 -0.950257 -1.12288 0
M  V30 192 H 20.2163 -0.280667 -4.16255 0
M  V30 193 H 18.8463 0.346904 -3.20931 0
M  V30 194 H 17.8983 -2.07298 -3.18954 0
M  V30 195 H 19.2103 -2.5316 -4.29781 0
M  V30 196 H 18.3643 -0.902591 -5.99948 0
M  V30 197 H 17.1033 -0.342692 -4.86495 0
M  V30 198 H 16.1083 -2.64709 -4.81881 0
M  V30 199 H 17.3333 -3.20396 -5.98768 0
M  V30 200 H 15.2793 -1.01484 -6.48103 0
M  V30 201 H 15.1963 -2.63717 -7.08512 0
M  V30 202 H 16.4643 -1.58165 -7.63285 0
M  V30 203 N 20.6934 1.19889 -1.02296 0
M  V30 204 C 21.9184 1.9393 -0.735237 0
M  V30 205 C 22.3434 1.74639 0.698782 0
M  V30 206 O 21.7014 1.04481 1.48167 0
M  V30 207 C 21.7494 3.43916 -1.08417 0
M  V30 208 O 20.8534 4.11917 -0.199446 0
M  V30 209 H 20.1944 0.605645 -0.272196 0
M  V30 210 H 22.7244 1.52137 -1.36804 0
M  V30 211 H 22.7344 3.9456 -1.03856 0
M  V30 212 H 21.4094 3.5728 -2.12894 0
M  V30 213 H 19.9864 3.71666 -0.303136 0
M  V30 214 N 22.1715 0.800033 1.35784 0
M  V30 215 C 23.1185 0.203848 2.29898 0
M  V30 216 C 24.0885 -0.658375 1.52495 0
M  V30 217 O 25.2735 -0.604832 1.8096 0
M  V30 218 C 22.4135 -0.64688 3.38983 0
M  V30 219 C 21.5265 0.235054 4.3136 0
M  V30 220 C 20.6615 -0.623054 5.27533 0
M  V30 221 C 19.7005 0.259682 6.11549 0
M  V30 222 N 18.8375 -0.558019 6.99879 0
M  V30 223 H 23.6775 1.01186 2.80295 0
M  V30 224 H 21.2145 0.51053 1.37957 0
M  V30 225 H 23.1725 -1.15521 4.00887 0
M  V30 226 H 21.8025 -1.42021 2.89879 0
M  V30 227 H 20.8545 0.861438 3.70518 0
M  V30 228 H 22.1665 0.914768 4.9034 0
M  V30 229 H 21.3205 -1.19678 5.94779 0
M  V30 230 H 20.0595 -1.33636 4.69034 0
M  V30 231 H 19.0645 0.845726 5.43256 0
M  V30 232 H 20.2895 0.970748 6.72126 0
M  V30 233 H 18.2355 -1.25542 6.43875 0
M  V30 234 H 18.1525 0.0637872 7.55973 0
M  V30 235 H 19.4205 -1.11523 7.71481 0
M  V30 236 N 23.6496 -1.47581 0.552962 0
M  V30 237 C 24.8796 -2.06575 0.0320091 0
M  V30 238 C 25.2876 -1.4067 -1.26525 0
M  V30 239 O 24.6306 -0.495808 -1.76883 0
M  V30 240 C 24.6926 -3.58705 -0.238913 0
M  V30 241 C 24.3566 -4.46625 0.968272 0
M  V30 242 C 25.3536 -4.85 1.87274 0
M  V30 243 C 23.0386 -4.88201 1.18175 0
M  V30 244 C 25.0326 -5.63745 2.9744 0
M  V30 245 C 22.7196 -5.66712 2.28651 0
M  V30 246 C 23.7176 -6.04394 3.18114 0
M  V30 247 O 23.4056 -6.81324 4.26676 0
M  V30 248 H 23.1376 -0.674763 0.0408689 0
M  V30 249 H 25.6916 -1.90634 0.764719 0
M  V30 250 H 23.9216 -3.72844 -1.02588 0
M  V30 251 H 25.6106 -3.99735 -0.704731 0
M  V30 252 H 26.3766 -4.53482 1.71984 0
M  V30 253 H 22.2556 -4.58339 0.494593 0
M  V30 254 H 25.7996 -5.93077 3.67296 0
M  V30 255 H 21.6966 -5.97642 2.43915 0
M  V30 256 H 22.4646 -6.99712 4.24671 0
M  V30 257 N 25.1277 -0.289203 -1.54924 0
M  V30 258 C 26.3577 0.325989 -2.04012 0
M  V30 259 C 26.7657 1.48961 -1.1665 0
M  V30 260 O 26.1087 1.82794 -0.1822 0
M  V30 261 C 26.1707 0.856112 -3.49158 0
M  V30 262 C 25.8347 -0.180697 -4.56643 0
M  V30 263 C 26.8317 -1.0051 -5.10092 0
M  V30 264 C 24.5167 -0.318998 -5.01286 0
M  V30 265 C 26.5107 -1.95385 -6.06715 0
M  V30 266 C 24.1977 -1.27121 -5.97732 0
M  V30 267 C 25.1957 -2.08713 -6.50329 0
M  V30 268 O 24.8837 -3.02322 -7.44887 0
M  V30 269 H 24.6157 0.0765276 -0.671654 0
M  V30 270 H 27.1697 -0.423254 -2.00992 0
M  V30 271 H 25.3997 1.65567 -3.49463 0
M  V30 272 H 27.0887 1.38591 -3.81507 0
M  V30 273 H 27.8547 -0.90906 -4.76404 0
M  V30 274 H 23.7337 0.306108 -4.59983 0
M  V30 275 H 27.2777 -2.59111 -6.47694 0
M  V30 276 H 23.1747 -1.36801 -6.30837 0
M  V30 277 H 23.9427 -2.97165 -7.6265 0
M  V30 278 N 26.6058 1.57591 -0.0167156 0
M  V30 279 C 28.0218 1.55946 0.339557 0
M  V30 280 C 28.2218 1.02109 1.73713 0
M  V30 281 O 27.2778 0.662303 2.43659 0
M  V30 282 C 28.5908 3.00037 0.199499 0
M  V30 283 C 30.1388 3.11805 0.273193 0
M  V30 284 C 30.6138 4.57713 0.162068 0
M  V30 285 N 32.1048 4.6268 0.219444 0
M  V30 286 C 32.8398 5.73185 0.157054 0
M  V30 287 N 32.3358 6.92786 0.0442936 0
M  V30 288 N 34.1288 5.61707 0.21014 0
M  V30 289 H 26.2798 1.90921 -0.930758 0
M  V30 290 H 28.5428 0.877674 -0.358319 0
M  V30 291 H 28.2488 3.4333 -0.76273 0
M  V30 292 H 28.1228 3.64387 0.974786 0
M  V30 293 H 30.5098 2.68433 1.22587 0
M  V30 294 H 30.5908 2.50201 -0.532256 0
M  V30 295 H 30.2348 5.01763 -0.78714 0
M  V30 296 H 30.1648 5.17283 0.986222 0
M  V30 297 H 32.6558 3.76649 0.307246 0
M  V30 298 H 32.9688 7.728 0.00304069 0
M  V30 299 H 31.3138 6.94999 0.00968457 0
M  V30 300 H 34.5048 4.6716 0.296546 0
M  V30 301 H 34.6778 6.47807 0.158054 0
M  V30 302 N 28.0839 -0.256276 1.55502 0
M  V30 303 C 29.0139 -1.32102 1.92539 0
M  V30 304 C 29.9949 -1.50684 0.789194 0
M  V30 305 O 31.1799 -1.63449 1.04872 0
M  V30 306 C 28.3099 -2.67752 2.21192 0
M  V30 307 C 27.2639 -2.63878 3.36975 0
M  V30 308 C 26.5899 -4.03236 3.51147 0
M  V30 309 C 27.8899 -2.21682 4.72921 0
M  V30 310 H 29.5839 -1.01351 2.81724 0
M  V30 311 H 27.1299 -0.486105 1.35547 0
M  V30 312 H 29.0829 -3.42365 2.45691 0
M  V30 313 H 27.8069 -3.0012 1.28824 0
M  V30 314 H 26.4659 -1.91722 3.12471 0
M  V30 315 H 26.1139 -4.32854 2.56216 0
M  V30 316 H 25.8139 -4.01535 4.29003 0
M  V30 317 H 27.3379 -4.79563 3.77957 0
M  V30 318 H 28.7519 -2.86023 4.96854 0
M  V30 319 H 27.1489 -2.3111 5.53812 0
M  V30 320 H 28.2189 -1.16833 4.70615 0
M  V30 321 N 29.562 -1.4872 -0.521534 0
M  V30 322 C 30.802 -1.58771 -1.28729 0
M  V30 323 C 31.166 -0.259394 -1.9024 0
M  V30 324 O 32.367 -0.234942 -2.67771 0
M  V30 325 C 30.638 -2.70039 -2.34124 0
M  V30 326 S 32.197 -2.9991 -3.20312 0
M  V30 327 H 29.015 -0.560251 -0.437767 0
M  V30 328 H 31.617 -1.86283 -0.593188 0
M  V30 329 H 30.321 -3.65101 -1.87429 0
M  V30 330 H 29.852 -2.44455 -3.08229 0
M  V30 331 H 31.867 -2.39855 -4.34378 0
M  V30 332 N 31.0401 0.771051 -1.3745 0
M  V30 333 C 32.3171 1.519 -1.23231 0
M  V30 334 C 32.6971 2.10383 0.173809 0
M  V30 335 O 32.0451 1.95583 1.18151 0
M  V30 336 C 32.2551 2.59933 -2.32886 0
M  V30 337 C 33.6031 3.27316 -2.70461 0
M  V30 338 O 34.6271 2.70228 -2.32068 0
M  V30 339 O 33.4861 4.30531 -3.36608 0
M  V30 340 H 30.5801 0.672803 -0.480901 0
M  V30 341 H 33.1261 0.807957 -1.49232 0
M  V30 342 H 31.8981 2.14842 -3.27045 0
M  V30 343 H 31.5211 3.38637 -2.08353 0
M  V30 344 N 32.5182 1.22032 0.997298 0
M  V30 345 C 33.4652 0.986467 2.08656 0
M  V30 346 C 34.4352 -0.0902671 1.65855 0
M  V30 347 O 35.6202 0.0584294 1.90711 0
M  V30 348 C 32.7602 0.565569 3.40434 0
M  V30 349 C 31.8732 1.71259 3.96604 0
M  V30 350 C 31.0082 1.24011 5.16522 0
M  V30 351 C 30.0472 2.35896 5.64818 0
M  V30 352 N 29.1842 1.89726 6.7598 0
M  V30 353 H 34.0242 1.91892 2.27994 0
M  V30 354 H 31.5612 0.956199 1.11782 0
M  V30 355 H 33.5192 0.302738 4.161 0
M  V30 356 H 32.1492 -0.329879 3.2111 0
M  V30 357 H 31.2012 2.08986 3.17851 0
M  V30 358 H 32.5132 2.55436 4.28432 0
M  V30 359 H 31.6672 0.934395 5.99461 0
M  V30 360 H 30.4062 0.368487 4.86306 0
M  V30 361 H 29.4112 2.67261 4.8047 0
M  V30 362 H 30.6362 3.23567 5.97061 0
M  V30 363 H 28.5822 1.0492 6.47555 0
M  V30 364 H 28.4992 2.67471 7.07103 0
M  V30 365 H 29.7672 1.62211 7.62435 0
M  V30 366 N 33.9963 -1.19345 1.0293 0
M  V30 367 C 34.9593 -2.20793 0.615069 0
M  V30 368 C 35.9593 -1.57553 -0.321533 0
M  V30 369 O 37.1493 -1.73862 -0.108483 0
M  V30 370 C 34.2813 -3.40754 -0.0999222 0
M  V30 371 H 35.4743 -2.58955 1.51269 0
M  V30 372 H 33.0273 -1.3303 0.820534 0
M  V30 373 H 33.7623 -3.0811 -1.01187 0
M  V30 374 H 33.5473 -3.87889 0.57309 0
M  V30 375 H 35.0373 -4.15898 -0.376645 0
M  V30 376 N 35.4744 -0.807222 -1.35358 0
M  V30 377 C 36.3844 -0.219594 -2.3357 0
M  V30 378 C 37.4004 0.637734 -1.61892 0
M  V30 379 O 38.5764 0.549336 -1.93763 0
M  V30 380 C 35.6414 0.62158 -3.41083 0
M  V30 381 C 34.7024 -0.256315 -4.28534 0
M  V30 382 C 33.9354 0.544807 -5.30912 0
M  V30 383 O 34.1584 1.77944 -5.41934 0
M  V30 384 O 33.0924 -0.0646478 -6.01865 0
M  V30 385 H 36.9184 -1.03208 -2.85625 0
M  V30 386 H 34.5034 -0.569025 -1.38139 0
M  V30 387 H 36.3854 1.10067 -4.06772 0
M  V30 388 H 35.0604 1.41165 -2.91297 0
M  V30 389 H 33.9674 -0.782559 -3.65823 0
M  V30 390 H 35.3004 -1.01034 -4.81719 0
M  V30 391 N 36.9525 1.47285 -0.560781 0
M  V30 392 C 37.9155 2.28535 0.174488 0
M  V30 393 C 38.9155 1.37153 0.839388 0
M  V30 394 O 40.1055 1.59748 0.694702 0
M  V30 395 C 37.2375 3.16934 1.25561 0
M  V30 396 H 38.4305 2.95012 -0.539262 0
M  V30 397 H 35.9835 1.53034 -0.317865 0
M  V30 398 H 36.7185 2.55157 2.00164 0
M  V30 399 H 36.5035 3.8419 0.783604 0
M  V30 400 H 37.9935 3.78143 1.77193 0
M  V30 401 N 38.4306 0.297415 1.54768 0
M  V30 402 C 39.6766 -0.306263 2.01081 0
M  V30 403 C 40.0316 -1.518 1.18214 0
M  V30 404 O 39.3246 -1.89967 0.249613 0
M  V30 405 C 39.5186 -0.717561 3.50123 0
M  V30 406 C 39.3476 0.45277 4.47415 0
M  V30 407 C 38.1176 0.943651 4.9641 0
M  V30 408 C 40.3156 1.29657 4.97688 0
M  V30 409 N 38.2976 2.08112 5.77549 0
M  V30 410 C 39.6686 2.28158 5.76493 0
M  V30 411 C 41.7236 1.32735 4.79881 0
M  V30 412 C 40.4266 3.29509 6.39387 0
M  V30 413 C 42.4526 2.32943 5.43591 0
M  V30 414 C 41.8146 3.30174 6.22225 0
M  V30 415 H 37.9136 -0.0766274 0.778237 0
M  V30 416 H 40.4976 0.426515 1.89971 0
M  V30 417 H 38.6686 -1.41952 3.6153 0
M  V30 418 H 40.4006 -1.30047 3.83236 0
M  V30 419 H 37.1556 0.51922 4.70745 0
M  V30 420 H 37.5796 2.65414 6.22803 0
M  V30 421 H 42.2216 0.589375 4.18672 0
M  V30 422 H 39.9396 4.04228 6.99732 0
M  V30 423 H 43.5256 2.36094 5.31743 0
M  V30 424 H 42.4056 4.06445 6.7065 0
M  V30 425 N 39.9087 -1.5758 0.0250728 0
M  V30 426 C 41.1567 -1.91255 -0.653151 0
M  V30 427 C 41.4777 -0.901691 -1.729 0
M  V30 428 O 40.7477 0.0573785 -1.95816 0
M  V30 429 H 39.3277 -0.705942 -0.244243 0
M  V30 430 H 41.9897 -1.94767 0.0719209 0
M  V30 431 H 41.0857 -2.91752 -1.10847 0
M  V30 432 N 41.3868 0.248026 -1.55636 0
M  V30 433 C 42.6358 0.974134 -1.76617 0
M  V30 434 C 42.9488 1.86528 -0.588796 0
M  V30 435 O 44.1548 2.62805 -0.681594 0
M  V30 436 C 42.6108 1.78213 -3.12679 0
M  V30 437 C 42.2188 0.93843 -4.38061 0
M  V30 438 C 43.9628 2.50104 -3.42999 0
M  V30 439 C 41.8698 1.74225 -5.65155 0
M  V30 440 H 40.7998 0.36745 -0.658405 0
M  V30 441 H 43.4508 0.22884 -1.82067 0
M  V30 442 H 41.8328 2.56933 -3.01333 0
M  V30 443 H 43.0068 0.193635 -4.60393 0
M  V30 444 H 41.3218 0.332905 -4.15067 0
M  V30 445 H 43.9188 3.10694 -4.3517 0
M  V30 446 H 44.2618 3.21662 -2.64271 0
M  V30 447 H 44.7948 1.78395 -3.55556 0
M  V30 448 H 41.5338 1.07043 -6.46701 0
M  V30 449 H 41.0538 2.46235 -5.46926 0
M  V30 450 H 42.7328 2.30967 -6.0437 0
M  V30 451 N 42.8649 1.48995 0.513639 0
M  V30 452 C 44.1109 1.58076 1.27042 0
M  V30 453 C 44.4439 0.261026 1.92438 0
M  V30 454 O 43.7189 -0.734393 1.80103 0
M  V30 455 C 44.0019 2.73091 2.34719 0
M  V30 456 C 43.8549 4.14821 1.73907 0
M  V30 457 C 45.1739 2.83796 3.36375 0
M  V30 458 H 42.2929 0.575391 0.460536 0
M  V30 459 H 44.9349 1.81232 0.570516 0
M  V30 460 H 43.0849 2.53479 2.94416 0
M  V30 461 H 44.7569 4.45917 1.18135 0
M  V30 462 H 42.9999 4.21058 1.0437 0
M  V30 463 H 43.6709 4.91147 2.51949 0
M  V30 464 H 46.1469 3.01611 2.86653 0
M  V30 465 H 45.0229 3.65971 4.09093 0
M  V30 466 H 45.2839 1.92624 3.9793 0
M  V30 467 N 44.343 -0.763751 1.37857 0
M  V30 468 C 45.273 -1.89103 1.36975 0
M  V30 469 C 46.254 -1.68439 0.237152 0
M  V30 470 O 47.439 -1.8918 0.438713 0
M  V30 471 C 44.569 -3.26496 1.18395 0
M  V30 472 C 43.523 -3.61741 2.28751 0
M  V30 473 C 42.849 -4.97762 1.95286 0
M  V30 474 C 44.149 -3.67665 3.70972 0
M  V30 475 H 45.843 -1.90099 2.31307 0
M  V30 476 H 43.389 -0.91319 1.11341 0
M  V30 477 H 45.342 -4.05003 1.16406 0
M  V30 478 H 44.066 -3.25955 0.205215 0
M  V30 479 H 42.725 -2.85547 2.29909 0
M  V30 480 H 42.373 -4.93769 0.959221 0
M  V30 481 H 42.073 -5.22313 2.69189 0
M  V30 482 H 43.597 -5.7866 1.94898 0
M  V30 483 H 45.011 -4.36307 3.719 0
M  V30 484 H 43.408 -4.03718 4.43995 0
M  V30 485 H 44.478 -2.68134 4.0402 0
M  V30 486 N 45.8211 -1.22559 -0.990812 0
M  V30 487 C 46.7311 -1.01394 -2.11557 0
M  V30 488 C 47.7471 0.0383962 -1.73958 0
M  V30 489 O 48.9231 -0.154787 -2.00804 0
M  V30 490 C 45.9881 -0.596569 -3.41529 0
M  V30 491 C 45.0491 -1.72276 -3.93217 0
M  V30 492 C 44.2821 -1.32521 -5.16985 0
M  V30 493 O 44.5051 -0.204909 -5.70032 0
M  V30 494 O 43.4391 -2.14247 -5.62478 0
M  V30 495 H 47.2651 -1.95633 -2.32296 0
M  V30 496 H 44.8501 -1.01172 -1.0993 0
M  V30 497 H 46.7321 -0.374263 -4.19735 0
M  V30 498 H 45.4071 0.316939 -3.22145 0
M  V30 499 H 44.3141 -1.99961 -3.16174 0
M  V30 500 H 45.6471 -2.61421 -4.17037 0
M  V30 501 N 47.2992 1.18797 -1.03562 0
M  V30 502 C 48.5272 1.92599 -0.755869 0
M  V30 503 C 48.9422 1.75886 0.686271 0
M  V30 504 O 48.2992 1.08517 1.46732 0
M  V30 505 C 48.3502 3.44159 -1.10619 0
M  V30 506 O 48.0712 3.60341 -2.4917 0
M  V30 507 C 49.5722 4.3507 -0.850214 0
M  V30 508 H 46.7922 0.611587 -0.276048 0
M  V30 509 H 49.3362 1.50742 -1.38192 0
M  V30 510 H 47.4912 3.83823 -0.525194 0
M  V30 511 H 47.9052 4.54128 -2.62427 0
M  V30 512 H 49.3792 5.39989 -1.14523 0
M  V30 513 H 49.8562 4.38673 0.215176 0
M  V30 514 H 50.4622 4.01097 -1.41426 0
M  V30 515 N 48.7773 0.814389 1.34928 0
M  V30 516 C 50.0233 0.399013 1.98836 0
M  V30 517 C 50.3563 -1.03314 1.64438 0
M  V30 518 O 49.6313 -1.71811 0.911659 0
M  V30 519 C 49.9143 0.591629 3.55207 0
M  V30 520 C 49.7673 2.06928 3.99376 0
M  V30 521 C 51.0863 0.022199 4.40094 0
M  V30 522 H 48.2053 0.146451 0.722303 0
M  V30 523 H 50.8473 1.02537 1.59957 0
M  V30 524 H 48.9973 0.0584441 3.88456 0
M  V30 525 H 50.6693 2.66544 3.76499 0
M  V30 526 H 48.9123 2.56287 3.49999 0
M  V30 527 H 49.5833 2.1549 5.08201 0
M  V30 528 H 52.0593 0.477643 4.13349 0
M  V30 529 H 50.9353 0.186832 5.48582 0
M  V30 530 H 51.1963 -1.07215 4.28902 0
M  V30 531 N 50.2554 -1.46986 0.568584 0
M  V30 532 C 51.2184 -2.28624 -0.162366 0
M  V30 533 C 52.2184 -1.37596 -0.832103 0
M  V30 534 O 53.4084 -1.60115 -0.68622 0
M  V30 535 C 50.5404 -3.17596 -1.23878 0
M  V30 536 H 51.7334 -2.94722 0.554899 0
M  V30 537 H 49.2864 -1.52863 0.325976 0
M  V30 538 H 50.0214 -2.56214 -1.98808 0
M  V30 539 H 49.8064 -3.846 -0.763219 0
M  V30 540 H 51.2964 -3.79078 -1.75185 0
M  V30 541 N 51.7335 -0.305618 -1.54608 0
M  V30 542 C 52.9615 0.304775 -2.04643 0
M  V30 543 C 53.3765 1.47167 -1.18268 0
M  V30 544 O 52.7335 1.81296 -0.209328 0
M  V30 545 C 52.7845 0.756564 -3.53495 0
M  V30 546 O 52.5055 -0.36389 -4.36586 0
M  V30 547 C 54.0065 1.43163 -4.19546 0
M  V30 548 H 51.2265 0.0655481 -0.667791 0
M  V30 549 H 53.7705 -0.446592 -1.99564 0
M  V30 550 H 51.9255 1.45794 -3.58919 0
M  V30 551 H 52.3395 -0.0113121 -5.24499 0
M  V30 552 H 53.8135 1.69886 -5.25207 0
M  V30 553 H 54.2905 2.37318 -3.69563 0
M  V30 554 H 54.8965 0.773307 -4.18211 0
M  V30 555 N 53.2116 1.57565 -0.0334293 0
M  V30 556 C 54.1746 2.09393 0.932048 0
M  V30 557 C 55.1746 1.00986 1.25134 0
M  V30 558 O 56.3646 1.27129 1.19096 0
M  V30 559 C 53.4966 2.56338 2.2473 0
M  V30 560 H 54.6896 2.95984 0.483085 0
M  V30 561 H 52.2426 1.54819 0.21468 0
M  V30 562 H 52.9776 1.7309 2.74245 0
M  V30 563 H 52.7626 3.35542 2.02865 0
M  V30 564 H 54.2526 2.96646 2.93923 0
M  V30 565 N 54.6897 -0.239769 1.55765 0
M  V30 566 C 55.9377 -0.964892 1.77579 0
M  V30 567 C 56.2587 -1.85582 0.598699 0
M  V30 568 O 55.5287 -1.92075 -0.385226 0
M  V30 569 H 54.1087 -0.359265 0.654933 0
M  V30 570 H 56.7707 -0.256001 1.93211 0
M  V30 571 H 55.8667 -1.58243 2.69009 0
M  V30 572 N 56.1678 -1.49265 -0.50573 0
M  V30 573 C 57.4138 -1.58748 -1.26202 0
M  V30 574 C 57.7468 -0.271227 -1.92297 0
M  V30 575 O 57.0218 0.724831 -1.80489 0
M  V30 576 C 57.3048 -2.74332 -2.33268 0
M  V30 577 C 57.1578 -4.15737 -1.71705 0
M  V30 578 C 58.4768 -2.85576 -3.34865 0
M  V30 579 H 55.5958 -0.577826 -0.457478 0
M  V30 580 H 58.2378 -1.81532 -0.560897 0
M  V30 581 H 56.3878 -2.55036 -2.93068 0
M  V30 582 H 58.0598 -4.46537 -1.15769 0
M  V30 583 H 56.3028 -4.21605 -1.02135 0
M  V30 584 H 56.9738 -4.92477 -2.49341 0
M  V30 585 H 59.4498 -3.03127 -2.8505 0
M  V30 586 H 58.3258 -3.68135 -4.07146 0
M  V30 587 H 58.5868 -1.94732 -3.96903 0
M  V30 588 N 57.6459 0.756429 -1.3826 0
M  V30 589 C 58.8919 1.51772 -1.34511 0
M  V30 590 C 59.2249 1.94089 0.0656691 0
M  V30 591 O 58.4999 1.65221 1.02626 0
M  V30 592 C 58.7829 2.77226 -2.29821 0
M  V30 593 C 58.6359 2.41065 -3.79747 0
M  V30 594 C 59.9549 3.79236 -2.23312 0
M  V30 595 H 57.0739 0.550578 -0.489931 0
M  V30 596 H 59.7159 0.866607 -1.69086 0
M  V30 597 H 57.8659 3.32784 -2.00467 0
M  V30 598 H 59.5379 1.91303 -4.19763 0
M  V30 599 H 57.7809 1.7356 -3.97567 0
M  V30 600 H 58.4519 3.3081 -4.41892 0
M  V30 601 H 60.9279 3.3321 -2.49219 0
M  V30 602 H 59.8039 4.64714 -2.92116 0
M  V30 603 H 60.0649 4.24615 -1.23102 0
M  V30 604 N 59.124 1.23083 0.984299 0
M  V30 605 C 60.352 1.08714 1.76037 0
M  V30 606 C 60.767 -0.361691 1.85303 0
M  V30 607 O 60.124 -1.25034 1.32939 0
M  V30 608 C 60.175 1.70206 3.18923 0
M  V30 609 O 59.896 3.09423 3.10144 0
M  V30 610 C 61.397 1.61227 4.12941 0
M  V30 611 H 58.617 0.380664 0.552572 0
M  V30 612 H 61.161 1.62853 1.23689 0
M  V30 613 H 59.316 1.20109 3.6831 0
M  V30 614 H 59.73 3.39188 4.00065 0
M  V30 615 H 61.204 2.08962 5.10919 0
M  V30 616 H 61.681 0.570375 4.35481 0
M  V30 617 H 62.287 2.10671 3.69456 0
M  V30 618 N 60.6021 -1.18246 1.0419 0
M  V30 619 C 61.8271 -1.92736 0.765996 0
M  V30 620 C 62.2521 -1.75728 -0.67091 0
M  V30 621 O 61.6101 -1.06825 -1.46486 0
M  V30 622 C 61.6581 -3.42148 1.13875 0
M  V30 623 O 60.7621 -4.11548 0.264954 0
M  V30 624 H 60.1031 -0.601238 0.281797 0
M  V30 625 H 62.6331 -1.49942 1.39207 0
M  V30 626 H 62.6431 -3.92858 1.1012 0
M  V30 627 H 61.3181 -3.53848 2.18551 0
M  V30 628 H 59.8951 -3.71137 0.362226 0
M  V30 629 N 62.0802 -0.821533 -1.34494 0
M  V30 630 C 63.3262 -0.409552 -1.98622 0
M  V30 631 C 63.6592 1.0244 -1.64984 0
M  V30 632 O 62.9342 1.71325 -0.920758 0
M  V30 633 C 63.2172 -0.610458 -3.54888 0
M  V30 634 C 63.0702 -2.09043 -3.98273 0
M  V30 635 C 64.3892 -0.0455379 -4.40076 0
M  V30 636 H 61.5082 -0.15028 -0.721516 0
M  V30 637 H 64.1502 -1.03384 -1.59411 0
M  V30 638 H 62.3002 -0.079044 -3.8842 0
M  V30 639 H 63.9722 -2.68537 -3.75081 0
M  V30 640 H 62.2152 -2.58139 -3.48635 0
M  V30 641 H 62.8862 -2.18182 -5.07051 0
M  V30 642 H 65.3622 -0.499557 -4.1309 0
M  V30 643 H 64.2382 -0.215922 -5.48475 0
M  V30 644 H 64.4992 1.04939 -4.29465 0
M  V30 645 N 63.5583 1.46682 -0.576371 0
M  V30 646 C 64.5213 2.28707 0.150239 0
M  V30 647 C 65.5213 1.38035 0.824794 0
M  V30 648 O 66.7113 1.60476 0.677719 0
M  V30 649 C 63.8433 3.18248 1.22192 0
M  V30 650 H 65.0363 2.94423 -0.570521 0
M  V30 651 H 62.5893 1.52688 -0.334078 0
M  V30 652 H 63.3243 2.57265 1.97447 0
M  V30 653 H 63.1093 3.85 0.742812 0
M  V30 654 H 64.5993 3.80001 1.73172 0
M  V30 655 N 65.0364 0.313813 1.54444 0
M  V30 656 C 66.2834 -0.291675 2.00388 0
M  V30 657 C 66.6114 -1.52904 1.2021 0
M  V30 658 O 65.8664 -1.93833 0.269707 0
M  V30 659 C 66.1654 -0.680386 3.50864 0
M  V30 660 C 65.8314 0.456699 4.48581 0
M  V30 661 C 64.4934 0.768824 4.75018 0
M  V30 662 C 66.8454 1.22098 5.06697 0
M  V30 663 C 64.1734 1.84812 5.56831 0
M  V30 664 C 66.5254 2.29029 5.89685 0
M  V30 665 C 65.1894 2.60834 6.14428 0
M  V30 666 H 64.4594 -0.106732 0.733273 0
M  V30 667 H 67.1064 0.43557 1.86481 0
M  V30 668 H 65.4114 -1.48791 3.62448 0
M  V30 669 H 67.1084 -1.16026 3.83847 0
M  V30 670 H 63.6984 0.203337 4.28117 0
M  V30 671 H 67.8824 0.993096 4.86263 0
M  V30 672 H 63.1384 2.09912 5.74236 0
M  V30 673 H 67.3124 2.887 6.33739 0
M  V30 674 H 64.9394 3.44596 6.77612 0
M  V30 675 N 66.5145 -1.57545 0.0417849 0
M  V30 676 C 67.4475 -2.06514 -0.970928 0
M  V30 677 C 68.4255 -0.963607 -1.30971 0
M  V30 678 O 69.6095 -1.23486 -1.4242 0
M  V30 679 C 66.7365 -2.4978 -2.28752 0
M  V30 680 C 65.7825 -3.71078 -2.10246 0
M  V30 681 S 66.6155 -5.17158 -1.38952 0
M  V30 682 C 67.7715 -5.6373 -2.71954 0
M  V30 683 H 68.0045 -2.9209 -0.554129 0
M  V30 684 H 65.5375 -1.53459 -0.17024 0
M  V30 685 H 67.4955 -2.75371 -3.04435 0
M  V30 686 H 66.1565 -1.64527 -2.67562 0
M  V30 687 H 65.3495 -3.9924 -3.07609 0
M  V30 688 H 64.9515 -3.45705 -1.42704 0
M  V30 689 H 67.2435 -5.68743 -3.68154 0
M  V30 690 H 68.1865 -6.63086 -2.4844 0
M  V30 691 H 68.5945 -4.91424 -2.77782 0
M  V30 692 N 67.9926 0.231505 -1.5589 0
M  V30 693 C 68.9226 1.29022 -1.94617 0
M  V30 694 C 69.9036 1.4941 -0.813067 0
M  V30 695 O 71.0886 1.6176 -1.07459 0
M  V30 696 C 68.2186 2.64199 -2.25424 0
M  V30 697 C 67.1726 2.58484 -3.41131 0
M  V30 698 C 66.4986 3.97599 -3.57518 0
M  V30 699 C 67.7986 2.1413 -4.76388 0
M  V30 700 H 69.4926 0.968563 -2.83301 0
M  V30 701 H 67.0386 0.464479 -1.36303 0
M  V30 702 H 68.9916 3.38413 -2.51107 0
M  V30 703 H 67.7156 2.98032 -1.33583 0
M  V30 704 H 66.3746 1.86727 -3.15481 0
M  V30 705 H 66.0226 4.28723 -2.6307 0
M  V30 706 H 65.7226 3.94659 -4.35337 0
M  V30 707 H 67.2466 4.7349 -3.85538 0
M  V30 708 H 68.6606 2.78083 -5.01341 0
M  V30 709 H 67.0576 2.2227 -5.57419 0
M  V30 710 H 68.1276 1.09331 -4.72414 0
M  V30 711 N 69.4707 1.49531 0.497807 0
M  V30 712 C 70.6987 1.62893 1.27567 0
M  V30 713 C 71.1137 0.301585 1.86376 0
M  V30 714 O 70.4707 -0.713335 1.67982 0
M  V30 715 C 70.5217 2.70013 2.40364 0
M  V30 716 O 70.2427 3.976 1.83972 0
M  V30 717 C 71.7437 2.94109 3.31685 0
M  V30 718 H 68.9637 0.548298 0.386794 0
M  V30 719 H 71.5077 1.95584 0.597245 0
M  V30 720 H 69.6627 2.40092 3.04031 0
M  V30 721 H 70.0767 4.56631 2.58047 0
M  V30 722 H 71.5507 3.72788 4.07104 0
M  V30 723 H 72.0277 2.04147 3.88871 0
M  V30 724 H 72.6337 3.2546 2.73781 0
M  V30 725 N 70.9488 -0.749086 1.3866 0
M  V30 726 C 71.8788 -1.8764 1.38973 0
M  V30 727 C 72.8598 -1.68178 0.255004 0
M  V30 728 O 74.0448 -1.88704 0.458754 0
M  V30 729 C 71.1748 -3.25222 1.21851 0
M  V30 730 C 70.1288 -3.59295 2.32575 0
M  V30 731 C 69.4548 -4.95663 2.00555 0
M  V30 732 C 70.7548 -3.63709 3.7485 0
M  V30 733 H 72.4488 -1.87635 2.3331 0
M  V30 734 H 69.9948 -0.901329 1.12303 0
M  V30 735 H 71.9478 -4.03746 1.20695 0
M  V30 736 H 70.6718 -3.25719 0.239775 0
M  V30 737 H 69.3308 -2.83093 2.32925 0
M  V30 738 H 68.9788 -4.92724 1.01154 0
M  V30 739 H 68.6788 -5.19429 2.74714 0
M  V30 740 H 70.2028 -5.7656 2.01024 0
M  V30 741 H 71.6168 -4.32338 3.76506 0
M  V30 742 H 70.0138 -3.98986 4.48252 0
M  V30 743 H 71.0838 -2.63834 4.06841 0
M  V30 744 N 72.4269 -1.23603 -0.977757 0
M  V30 745 C 73.8379 -1.06424 -1.53398 0
M  V30 746 C 74.1889 0.367578 -1.92726 0
M  V30 747 O 73.3139 1.25465 -1.76316 0
M  V30 748 C 73.9089 -1.92568 -2.78753 0
M  V30 749 C 72.4679 -1.79642 -3.30765 0
M  V30 750 C 71.6149 -1.88111 -2.03739 0
M  V30 751 H 74.5659 -1.37227 -0.797152 0
M  V30 752 H 74.5869 -1.45203 -3.51705 0
M  V30 753 H 74.0989 -2.96771 -2.50098 0
M  V30 754 H 72.1999 -0.782325 -3.64294 0
M  V30 755 H 72.3129 -2.63174 -4.00345 0
M  V30 756 H 70.6769 -1.31723 -2.17994 0
M  V30 757 H 71.4599 -2.93875 -1.77461 0
M  V30 758 N 73.905 1.17692 -1.04816 0
M  V30 759 C 75.154 1.87192 -0.751132 0
M  V30 760 C 75.467 1.8169 0.724441 0
M  V30 761 O 76.673 2.46625 1.13527 0
M  V30 762 C 75.129 3.35857 -1.29338 0
M  V30 763 C 74.737 3.4987 -2.79812 0
M  V30 764 C 76.481 4.10709 -1.07322 0
M  V30 765 C 74.388 4.92536 -3.27356 0
M  V30 766 H 73.318 0.701162 -0.277288 0
M  V30 767 H 75.969 1.32932 -1.26496 0
M  V30 768 H 74.351 3.89631 -0.707376 0
M  V30 769 H 75.525 3.06332 -3.44235 0
M  V30 770 H 73.84 2.88433 -3.00325 0
M  V30 771 H 76.437 5.15952 -1.4035 0
M  V30 772 H 76.78 4.16299 -0.0108001 0
M  V30 773 H 77.313 3.6313 -1.62423 0
M  V30 774 H 74.052 4.92119 -4.33012 0
M  V30 775 H 73.572 5.3676 -2.67673 0
M  V30 776 H 75.251 5.61288 -3.21815 0
M  V30 777 N 75.3831 0.828654 1.34056 0
M  V30 778 C 76.3131 0.269443 2.3194 0
M  V30 779 C 77.2941 -0.617247 1.58506 0
M  V30 780 O 78.4791 -0.542931 1.86456 0
M  V30 781 C 75.6091 -0.564793 3.42677 0
M  V30 782 C 74.5631 0.225241 4.27407 0
M  V30 783 C 73.8891 -0.7321 5.29664 0
M  V30 784 C 75.1891 1.43663 5.02154 0
M  V30 785 H 76.8831 1.08728 2.7896 0
M  V30 786 H 74.4291 0.524283 1.34117 0
M  V30 787 H 76.3821 -0.966233 4.10173 0
M  V30 788 H 75.1061 -1.41574 2.9432 0
M  V30 789 H 73.7651 0.608117 3.61521 0
M  V30 790 H 73.4131 -1.57916 4.77568 0
M  V30 791 H 73.1131 -0.20767 5.87233 0
M  V30 792 H 74.6371 -1.13128 6.00029 0
M  V30 793 H 76.0511 1.1089 5.62473 0
M  V30 794 H 74.4481 1.89711 5.69324 0
M  V30 795 H 75.5181 2.21181 4.31517 0
M  V30 796 N 76.8612 -1.46375 0.584142 0
M  V30 797 C 78.1072 -2.02678 0.0703716 0
M  V30 798 C 78.4402 -1.4545 -1.28678 0
M  V30 799 O 77.7152 -0.62014 -1.84349 0
M  V30 800 C 77.9982 -3.60099 0.00614674 0
M  V30 801 C 77.8512 -4.27709 1.3923 0
M  V30 802 C 79.1702 -4.34598 -0.693742 0
M  V30 803 H 76.2892 -0.736504 0.027047 0
M  V30 804 H 78.9312 -1.74501 0.751615 0
M  V30 805 H 77.0812 -3.84236 -0.574009 0
M  V30 806 H 78.7532 -4.14832 2.01773 0
M  V30 807 H 76.9962 -3.87016 1.95962 0
M  V30 808 H 77.6672 -5.36478 1.29982 0
M  V30 809 H 80.1432 -4.15615 -0.200869 0
M  V30 810 H 79.0192 -5.44318 -0.707714 0
M  V30 811 H 79.2802 -4.05759 -1.75533 0
M  V30 812 N 78.3393 -0.321999 -1.54275 0
M  V30 813 C 79.5793 0.281657 -2.0245 0
M  V30 814 C 79.9433 1.49468 -1.20513 0
M  V30 815 O 81.1443 2.17109 -1.58484 0
M  V30 816 C 79.4153 0.609014 -3.52173 0
M  V30 817 S 80.9743 1.19255 -4.22284 0
M  V30 818 H 77.7923 0.0852825 -0.705867 0
M  V30 819 H 80.3943 -0.454758 -1.90137 0
M  V30 820 H 79.0983 -0.281982 -4.0943 0
M  V30 821 H 78.6293 1.37567 -3.68563 0
M  V30 822 H 80.6443 2.47944 -4.29812 0
M  V30 823 N 79.8174 1.5752 -0.0501392 0
M  V30 824 C 80.7644 2.1147 0.924603 0
M  V30 825 C 81.7344 1.02182 1.30951 0
M  V30 826 O 82.9194 1.29723 1.39916 0
M  V30 827 C 80.0594 2.66337 2.19451 0
M  V30 828 C 79.1724 3.89708 1.86418 0
M  V30 829 C 78.3074 4.32893 3.07859 0
M  V30 830 C 77.3464 5.48967 2.70742 0
M  V30 831 N 76.4834 5.87211 3.84874 0
M  V30 832 H 81.3234 2.94465 0.457639 0
M  V30 833 H 78.8604 1.45531 0.214266 0
M  V30 834 H 80.8184 2.96247 2.93758 0
M  V30 835 H 79.4484 1.86141 2.63726 0
M  V30 836 H 78.5004 3.66396 1.02264 0
M  V30 837 H 79.8124 4.74074 1.55096 0
M  V30 838 H 78.9664 4.6435 3.90466 0
M  V30 839 H 77.7054 3.47336 3.42358 0
M  V30 840 H 76.7104 5.17183 1.86551 0
M  V30 841 H 77.9354 6.3624 2.37436 0
M  V30 842 H 75.8814 5.04607 4.19175 0
M  V30 843 H 75.7984 6.66266 3.57247 0
M  V30 844 H 77.0664 6.23282 4.68123 0
M  V30 845 N 81.2955 -0.223234 1.56011 0
M  V30 846 C 82.5415 -0.949279 1.79211 0
M  V30 847 C 82.8745 -1.84054 0.619494 0
M  V30 848 O 82.1495 -1.90726 -0.381317 0
M  V30 849 C 82.4325 -1.78965 3.12479 0
M  V30 850 C 82.2855 -0.924997 4.40186 0
M  V30 851 C 83.6045 -2.76774 3.42175 0
M  V30 852 H 80.7235 -0.343676 0.651963 0
M  V30 853 H 83.3655 -0.218253 1.88742 0
M  V30 854 H 81.5155 -2.41291 3.04485 0
M  V30 855 H 83.1875 -0.318615 4.60198 0
M  V30 856 H 81.4305 -0.230344 4.33188 0
M  V30 857 H 82.1015 -1.54735 5.29869 0
M  V30 858 H 84.5775 -2.24584 3.50287 0
M  V30 859 H 83.4535 -3.32678 4.36597 0
M  V30 860 H 83.7145 -3.54429 2.64258 0
M  V30 861 N 82.7736 -1.49793 -0.48987 0
M  V30 862 C 83.7056 -1.63413 -1.60713 0
M  V30 863 C 84.7186 -0.516329 -1.54395 0
M  V30 864 O 85.9076 -0.788812 -1.60125 0
M  V30 865 C 83.0076 -1.58516 -2.99543 0
M  V30 866 C 82.1806 -2.86016 -3.30928 0
M  V30 867 C 81.2396 -2.74018 -4.49222 0
M  V30 868 O 80.2656 -3.47964 -4.50455 0
M  V30 869 N 81.4676 -1.86309 -5.4979 0
M  V30 870 H 84.2326 -2.59777 -1.49452 0
M  V30 871 H 81.7936 -1.47022 -0.677955 0
M  V30 872 H 83.7856 -1.48128 -3.76617 0
M  V30 873 H 82.3556 -0.69965 -3.0467 0
M  V30 874 H 81.5756 -3.10672 -2.42645 0
M  V30 875 H 82.8636 -3.70521 -3.487 0
M  V30 876 H 82.2616 -1.2551 -5.51601 0
M  V30 877 H 80.8186 -1.81837 -6.25922 0
M  V30 878 N 84.2517 0.741722 -1.39055 0
M  V30 879 C 85.5287 1.49252 -1.26425 0
M  V30 880 C 85.9087 2.10705 0.129144 0
M  V30 881 O 85.2567 1.98045 1.13976 0
M  V30 882 C 85.4667 2.54934 -2.38347 0
M  V30 883 C 86.8147 3.21506 -2.77343 0
M  V30 884 O 87.8387 2.65245 -2.37747 0
M  V30 885 O 86.6977 4.23294 -3.45665 0
M  V30 886 H 83.7917 0.662451 -0.495064 0
M  V30 887 H 86.3377 0.776121 -1.50912 0
M  V30 888 H 85.1097 2.07857 -3.31529 0
M  V30 889 H 84.7327 3.34141 -2.15489 0
M  V30 890 N 85.7298 1.2412 0.971189 0
M  V30 891 C 86.9548 1.10667 1.75407 0
M  V30 892 C 87.3798 -0.337048 1.85056 0
M  V30 893 O 86.7378 -1.24396 1.31892 0
M  V30 894 C 86.7858 1.74726 3.15441 0
M  V30 895 O 85.8898 1.01566 3.99697 0
M  V30 896 H 85.2308 0.387341 0.539317 0
M  V30 897 H 87.7608 1.64358 1.2185 0
M  V30 898 H 87.7708 1.80341 3.6598 0
M  V30 899 H 86.4458 2.79773 3.07734 0
M  V30 900 H 85.0228 1.03713 3.58187 0
M  V30 901 N 87.2079 -1.17134 1.05439 0
M  V30 902 C 88.1559 -2.23289 0.651511 0
M  V30 903 C 89.1499 -1.66186 -0.328411 0
M  V30 904 O 90.3559 -1.78949 -0.194206 0
M  V30 905 H 86.7309 -0.726938 0.192523 0
M  V30 906 H 88.7019 -2.54565 1.55689 0
M  V30 907 C 87.4509 -3.47671 0.0448436 0
M  V30 908 H 86.7739 -3.91918 0.78996 0
M  V30 909 H 88.2139 -4.2353 -0.19964 0
M  V30 910 C 86.6729 -3.14453 -1.20918 0
M  V30 911 O 87.2029 -3.29459 -2.29825 0
M  V30 912 N 85.4089 -2.68657 -1.10779 0
M  V30 913 H 84.9559 -2.56646 -0.221526 0
M  V30 914 H 84.9139 -2.46804 -1.9477 0
M  V30 915 N 88.686 -0.835752 -1.33615 0
M  V30 916 C 90.102 -0.523139 -1.50783 0
M  V30 917 C 90.302 0.950171 -1.77691 0
M  V30 918 O 89.358 1.73411 -1.83534 0
M  V30 919 C 90.671 -1.39378 -2.66448 0
M  V30 920 C 92.219 -1.39223 -2.80332 0
M  V30 921 C 92.694 -2.24765 -3.99055 0
M  V30 922 N 94.185 -2.22458 -4.06284 0
M  V30 923 C 94.92 -2.85386 -4.97336 0
M  V30 924 N 94.416 -3.57354 -5.93523 0
M  V30 925 N 96.209 -2.74872 -4.90308 0
M  V30 926 H 88.36 -1.78952 -1.14411 0
M  V30 927 H 90.623 -0.763297 -0.562212 0
M  V30 928 H 90.329 -2.44061 -2.53234 0
M  V30 929 H 90.203 -1.0676 -3.61776 0
M  V30 930 H 92.59 -0.353136 -2.92979 0
M  V30 931 H 92.671 -1.75846 -1.85773 0
M  V30 932 H 92.315 -3.28732 -3.87167 0
M  V30 933 H 92.245 -1.85485 -4.92852 0
M  V30 934 H 94.736 -1.70119 -3.37443 0
M  V30 935 H 95.049 -4.02584 -6.59656 0
M  V30 936 H 93.394 -3.61461 -5.93608 0
M  V30 937 H 96.585 -2.18213 -4.14126 0
M  V30 938 H 96.758 -3.24199 -5.61069 0
M  V30 939 N 90.1641 1.46063 -0.591896 0
M  V30 940 C 91.5801 1.57561 -0.254288 0
M  V30 941 C 91.7801 1.58565 1.24336 0
M  V30 942 O 90.8361 1.50753 2.02558 0
M  V30 943 C 92.1491 2.86549 -0.911611 0
M  V30 944 C 93.6971 3.00197 -0.886059 0
M  V30 945 C 94.1721 4.31933 -1.5231 0
M  V30 946 N 95.6631 4.38654 -1.48786 0
M  V30 947 C 96.3981 5.39222 -1.95006 0
M  V30 948 N 95.8941 6.46414 -2.49241 0
M  V30 949 N 97.6871 5.3048 -1.85868 0
M  V30 950 H 89.8381 1.43655 -1.56451 0
M  V30 951 H 92.1011 0.68583 -0.654478 0
M  V30 952 H 91.8071 2.91651 -1.96551 0
M  V30 953 H 91.6811 3.74794 -0.425368 0
M  V30 954 H 94.0681 2.9467 0.159246 0
M  V30 955 H 94.1491 2.13403 -1.41041 0
M  V30 956 H 93.7931 4.38217 -2.56765 0
M  V30 957 H 93.7231 5.17516 -0.973891 0
M  V30 958 H 96.2141 3.61793 -1.09151 0
M  V30 959 H 96.5271 7.19376 -2.82344 0
M  V30 960 H 94.8721 6.47208 -2.53272 0
M  V30 961 H 98.0631 4.45643 -1.43248 0
M  V30 962 H 98.2361 6.08711 -2.22204 0
M  V30 963 N 91.6422 0.330177 1.54103 0
M  V30 964 C 92.5892 -0.532762 2.24567 0
M  V30 965 C 93.5592 -1.10635 1.23892 0
M  V30 966 O 94.7442 -1.14546 1.5259 0
M  V30 967 C 91.8842 -1.6845 3.01195 0
M  V30 968 C 90.9972 -1.13951 4.167 0
M  V30 969 C 90.1322 -2.25746 4.80845 0
M  V30 970 C 89.1712 -1.6853 5.88442 0
M  V30 971 N 88.3082 -2.74014 6.46421 0
M  V30 972 H 93.1482 0.0746905 2.97906 0
M  V30 973 H 90.6852 0.048632 1.4702 0
M  V30 974 H 92.6432 -2.36234 3.43874 0
M  V30 975 H 91.2732 -2.26314 2.30178 0
M  V30 976 H 90.3252 -0.35301 3.78758 0
M  V30 977 H 91.6372 -0.680892 4.94131 0
M  V30 978 H 90.7912 -3.01422 5.26526 0
M  V30 979 H 89.5302 -2.74947 4.0281 0
M  V30 980 H 88.5352 -0.913543 5.42157 0
M  V30 981 H 89.7602 -1.20198 6.68378 0
M  V30 982 H 87.7062 -3.22494 5.71256 0
M  V30 983 H 87.6232 -2.32735 7.19285 0
M  V30 984 H 88.8912 -3.49499 6.96757 0
M  V30 985 N 93.1203 -1.57491 0.0584922 0
M  V30 986 C 94.0533 -2.07533 -0.948969 0
M  V30 987 C 95.0313 -0.977444 -1.29942 0
M  V30 988 O 96.2153 -1.2499 -1.41102 0
M  V30 989 C 93.3423 -2.52192 -2.2609 0
M  V30 990 C 92.3883 -3.73287 -2.06298 0
M  V30 991 S 93.2213 -5.18603 -1.33459 0
M  V30 992 C 94.3773 -5.66583 -2.65959 0
M  V30 993 H 94.6103 -2.92662 -0.523118 0
M  V30 994 H 92.1433 -1.53631 -0.153954 0
M  V30 995 H 94.1013 -2.78585 -3.01498 0
M  V30 996 H 92.7623 -1.67356 -2.65802 0
M  V30 997 H 91.9553 -4.0248 -3.03357 0
M  V30 998 H 91.5573 -3.47199 -1.39029 0
M  V30 999 H 93.8493 -5.72616 -3.62101 0
M  V30 1000 H 94.7923 -6.65684 -2.41393 0
M  V30 1001 H 95.2003 -4.94342 -2.72554 0
M  V30 1002 N 94.5984 0.214957 -1.56127 0
M  V30 1003 C 95.5284 1.2695 -1.95974 0
M  V30 1004 C 96.5094 1.48539 -0.828868 0
M  V30 1005 O 97.6944 1.60611 -1.09168 0
M  V30 1006 C 94.8244 2.61794 -2.28214 0
M  V30 1007 C 93.7784 2.54851 -3.43853 0
M  V30 1008 C 93.1044 3.93785 -3.61715 0
M  V30 1009 C 94.4044 2.09065 -4.78632 0
M  V30 1010 H 96.0984 0.93846 -2.84312 0
M  V30 1011 H 93.6444 0.449996 -1.36788 0
M  V30 1012 H 95.5974 3.35731 -2.54682 0
M  V30 1013 H 94.3214 2.96599 -1.36736 0
M  V30 1014 H 92.9804 1.8337 -3.17444 0
M  V30 1015 H 92.6284 4.25908 -2.67602 0
M  V30 1016 H 92.3284 3.90019 -4.39498 0
M  V30 1017 H 93.8524 4.69374 -3.90539 0
M  V30 1018 H 95.2664 2.7275 -5.04262 0
M  V30 1019 H 93.6634 2.16346 -5.59745 0
M  V30 1020 H 94.7334 1.04315 -4.73547 0
M  V30 1021 N 96.0765 1.50051 0.48192 0
M  V30 1022 C 97.4875 1.5348 1.06305 0
M  V30 1023 C 97.8385 0.331997 1.93371 0
M  V30 1024 O 96.9635 -0.556256 2.09129 0
M  V30 1025 C 97.5585 2.7813 1.93466 0
M  V30 1026 C 96.1175 2.84275 2.46707 0
M  V30 1027 C 95.2645 2.47637 1.24785 0
M  V30 1028 H 98.2155 1.56472 0.264995 0
M  V30 1029 H 98.2365 2.59372 2.78399 0
M  V30 1030 H 97.7485 3.65654 1.30072 0
M  V30 1031 H 95.8495 2.01077 3.13686 0
M  V30 1032 H 95.9625 3.8691 2.82555 0
M  V30 1033 H 94.3265 1.99835 1.57918 0
M  V30 1034 H 95.1095 3.37457 0.630694 0
M  V30 1035 N 97.5546 -0.734337 1.39446 0
M  V30 1036 C 98.7826 -1.52358 1.39981 0
M  V30 1037 C 99.1976 -1.88799 -0.0054975 0
M  V30 1038 O 98.5546 -1.54146 -0.976998 0
M  V30 1039 C 98.6056 -2.81072 2.27333 0
M  V30 1040 O 98.3266 -2.46178 3.62392 0
M  V30 1041 C 99.8276 -3.75096 2.36259 0
M  V30 1042 H 97.0476 -0.470806 0.478103 0
M  V30 1043 H 99.5916 -0.907339 1.83269 0
M  V30 1044 H 97.7466 -3.39026 1.87457 0
M  V30 1045 H 98.1606 -3.28866 4.08592 0
M  V30 1046 H 99.6346 -4.62305 3.01626 0
M  V30 1047 H 100.112 -4.16892 1.38194 0
M  V30 1048 H 100.718 -3.23061 2.76608 0
M  V30 1049 N 99.0327 -1.24633 -0.964593 0
M  V30 1050 C 99.9647 -0.999302 -2.06268 0
M  V30 1051 C 100.978 0.0323226 -1.62768 0
M  V30 1052 O 102.167 -0.205079 -1.77318 0
M  V30 1053 C 99.2667 -0.486816 -3.35385 0
M  V30 1054 C 98.4397 -1.5823 -4.07777 0
M  V30 1055 C 97.4987 -1.07191 -5.15166 0
M  V30 1056 O 96.5247 -1.76426 -5.41168 0
M  V30 1057 N 97.7267 0.0920373 -5.80427 0
M  V30 1058 H 100.492 -1.94477 -2.28033 0
M  V30 1059 H 98.0527 -1.15704 -1.13244 0
M  V30 1060 H 100.045 -0.130066 -4.04491 0
M  V30 1061 H 98.6147 0.364459 -3.10468 0
M  V30 1062 H 97.8347 -2.11109 -3.32906 0
M  V30 1063 H 99.1227 -2.31854 -4.52903 0
M  V30 1064 H 98.5207 0.670784 -5.61709 0
M  V30 1065 H 97.0777 0.389905 -6.50633 0
M  V30 1066 N 100.511 1.16574 -1.06058 0
M  V30 1067 C 101.758 1.87047 -0.775873 0
M  V30 1068 C 102.086 1.81562 0.697534 0
M  V30 1069 O 101.341 1.22445 1.52662 0
M  V30 1070 C 101.64 3.36195 -1.21275 0
M  V30 1071 C 101.306 3.6188 -2.68986 0
M  V30 1072 C 99.9678 3.68599 -3.09335 0
M  V30 1073 C 102.32 3.72648 -3.64394 0
M  V30 1074 C 99.6478 3.83584 -4.43937 0
M  V30 1075 C 102 3.89154 -4.98741 0
M  V30 1076 C 100.664 3.94114 -5.3873 0
M  V30 1077 H 99.9338 0.684452 -0.283912 0
M  V30 1078 H 102.581 1.37853 -1.32925 0
M  V30 1079 H 100.886 3.87505 -0.578528 0
M  V30 1080 H 102.583 3.89103 -0.969542 0
M  V30 1081 H 99.1728 3.57281 -2.36744 0
M  V30 1082 H 103.357 3.66769 -3.34356 0
M  V30 1083 H 98.6128 3.85677 -4.74409 0
M  V30 1084 H 102.787 3.96427 -5.72554 0
M  V30 1085 H 100.414 4.05478 -6.43033 0
M  V30 1086 N 101.989 0.842826 1.3317 0
M  V30 1087 C 102.919 0.294028 2.31641 0
M  V30 1088 C 103.9 -0.600401 1.59151 0
M  V30 1089 O 105.085 -0.523124 1.87022 0
M  V30 1090 C 102.215 -0.528416 3.43257 0
M  V30 1091 C 101.169 0.27056 4.27144 0
M  V30 1092 C 100.495 -0.675881 5.30411 0
M  V30 1093 C 101.795 1.48981 5.00602 0
M  V30 1094 H 103.489 1.11681 2.77791 0
M  V30 1095 H 101.035 0.538478 1.33553 0
M  V30 1096 H 102.988 -0.922674 4.11175 0
M  V30 1097 H 101.712 -1.38445 2.95805 0
M  V30 1098 H 100.371 0.646427 3.60856 0
M  V30 1099 H 100.019 -1.52842 4.79216 0
M  V30 1100 H 99.7189 -0.145374 5.8742 0
M  V30 1101 H 101.243 -1.06757 6.01195 0
M  V30 1102 H 102.657 1.16849 5.61266 0
M  V30 1103 H 101.054 1.95739 5.6728 0
M  V30 1104 H 102.124 2.25746 4.29147 0
M  V30 1105 N 103.467 -1.45747 0.599634 0
M  V30 1106 C 104.714 -2.02292 0.0917284 0
M  V30 1107 C 105.042 -1.46906 -1.27472 0
M  V30 1108 O 104.297 -0.630652 -1.8526 0
M  V30 1109 C 104.596 -3.57399 -0.00602758 0
M  V30 1110 C 104.262 -4.31902 1.29503 0
M  V30 1111 C 102.924 -4.51974 1.65144 0
M  V30 1112 C 105.276 -4.74551 2.15525 0
M  V30 1113 C 102.604 -5.11949 2.86574 0
M  V30 1114 C 104.956 -5.35868 3.36196 0
M  V30 1115 C 103.62 -5.54165 3.72099 0
M  V30 1116 H 102.89 -0.740239 0.0335658 0
M  V30 1117 H 105.537 -1.7491 0.779661 0
M  V30 1118 H 103.842 -3.84014 -0.777183 0
M  V30 1119 H 105.539 -3.98846 -0.415038 0
M  V30 1120 H 102.129 -4.16588 1.00761 0
M  V30 1121 H 106.313 -4.58784 1.8929 0
M  V30 1122 H 101.569 -5.24305 3.14507 0
M  V30 1123 H 105.743 -5.6787 4.03109 0
M  V30 1124 H 103.37 -6.00406 4.6628 0
M  V30 1125 N 104.945 -0.338344 -1.53925 0
M  V30 1126 C 105.875 0.51328 -2.27789 0
M  V30 1127 C 106.856 1.107 -1.29149 0
M  V30 1128 O 108.041 1.12937 -1.57984 0
M  V30 1129 C 105.171 1.66697 -3.04679 0
M  V30 1130 C 104.125 1.20183 -4.1078 0
M  V30 1131 C 103.451 2.44363 -4.75595 0
M  V30 1132 C 104.751 0.30605 -5.21403 0
M  V30 1133 H 106.445 -0.102883 -2.99223 0
M  V30 1134 H 103.991 -0.0509219 -1.4391 0
M  V30 1135 H 105.944 2.26915 -3.55088 0
M  V30 1136 H 104.668 2.30995 -2.30887 0
M  V30 1137 H 103.327 0.622499 -3.61276 0
M  V30 1138 H 102.975 3.07057 -3.98403 0
M  V30 1139 H 102.675 2.13925 -5.47275 0
M  V30 1140 H 104.199 3.05317 -5.28786 0
M  V30 1141 H 105.613 0.814929 -5.67478 0
M  V30 1142 H 104.01 0.0937929 -6.00027 0
M  V30 1143 H 105.08 -0.65921 -4.80398 0
M  V30 1144 N 106.423 1.57458 -0.0668435 0
M  V30 1145 C 107.353 2.15468 0.899764 0
M  V30 1146 C 108.334 1.08042 1.31381 0
M  V30 1147 O 109.519 1.36054 1.38574 0
M  V30 1148 C 106.649 2.71232 2.16911 0
M  V30 1149 C 105.603 3.83781 1.89463 0
M  V30 1150 C 104.929 4.26127 3.22986 0
M  V30 1151 C 106.229 5.08238 1.20381 0
M  V30 1152 H 107.923 2.96488 0.416529 0
M  V30 1153 H 105.469 1.4262 0.198908 0
M  V30 1154 H 107.422 3.10458 2.84945 0
M  V30 1155 H 106.146 1.87426 2.67468 0
M  V30 1156 H 104.805 3.45051 1.23836 0
M  V30 1157 H 104.453 3.39249 3.71374 0
M  V30 1158 H 104.153 5.01993 3.05413 0
M  V30 1159 H 105.677 4.67966 3.92225 0
M  V30 1160 H 107.091 5.44811 1.78475 0
M  V30 1161 H 105.488 5.89349 1.13083 0
M  V30 1162 H 106.558 4.84558 0.182153 0
M  V30 1163 N 107.901 -0.206675 1.56239 0
M  V30 1164 C 109.149 -0.927007 1.79586 0
M  V30 1165 C 109.47 -1.8427 0.637929 0
M  V30 1166 O 108.74 -1.92849 -0.344398 0
M  V30 1167 H 107.32 -0.345292 0.662407 0
M  V30 1168 H 109.982 -0.21496 1.93711 0
M  V30 1169 H 109.078 -1.52501 2.72305 0
M  V30 1170 N 109.379 -1.50304 -0.473955 0
M  V30 1171 C 110.625 -1.61389 -1.22806 0
M  V30 1172 C 110.958 -0.311955 -1.91678 0
M  V30 1173 O 110.233 0.686384 -1.81986 0
M  V30 1174 C 110.516 -2.79219 -2.27396 0
M  V30 1175 C 110.369 -4.19286 -1.62848 0
M  V30 1176 C 111.688 -2.92614 -3.28732 0
M  V30 1177 H 108.807 -0.587399 -0.445119 0
M  V30 1178 H 111.449 -1.82681 -0.522265 0
M  V30 1179 H 109.599 -2.61195 -2.87592 0
M  V30 1180 H 111.271 -4.48892 -1.06271 0
M  V30 1181 H 109.514 -4.23677 -0.931693 0
M  V30 1182 H 110.185 -4.97655 -2.38838 0
M  V30 1183 H 112.661 -3.09105 -2.78556 0
M  V30 1184 H 111.537 -3.76688 -3.99246 0
M  V30 1185 H 111.798 -2.03107 -3.92683 0
M  V30 1186 N 110.857 0.726932 -1.39834 0
M  V30 1187 C 111.787 1.85405 -1.41941 0
M  V30 1188 C 112.768 1.67751 -0.281728 0
M  V30 1189 O 113.953 1.8795 -0.488717 0
M  V30 1190 C 111.083 3.23243 -1.2701 0
M  V30 1191 C 110.037 3.55549 -2.38262 0
M  V30 1192 C 109.363 4.9241 -2.08415 0
M  V30 1193 C 110.663 3.577 -3.80589 0
M  V30 1194 H 112.357 1.83899 -2.36266 0
M  V30 1195 H 109.903 0.883349 -1.13723 0
M  V30 1196 H 111.856 4.01775 -1.27103 0
M  V30 1197 H 110.58 3.25296 -0.291564 0
M  V30 1198 H 109.239 2.79351 -2.37399 0
M  V30 1199 H 108.887 4.91052 -1.0898 0
M  V30 1200 H 108.587 5.14992 -2.82943 0
M  V30 1201 H 110.111 5.73289 -2.10171 0
M  V30 1202 H 111.525 4.26293 -3.83337 0
M  V30 1203 H 109.922 3.91804 -4.54543 0
M  V30 1204 H 110.992 2.57328 -4.10987 0
M  V30 1205 N 112.336 1.25143 0.95797 0
M  V30 1206 C 113.584 1.09476 1.69881 0
M  V30 1207 C 113.905 -0.365502 1.91544 0
M  V30 1208 O 113.175 -1.25985 1.50015 0
M  V30 1209 H 111.755 0.402128 0.629525 0
M  V30 1210 H 114.417 1.57214 1.15194 0
M  V30 1211 H 113.513 1.60046 2.6794 0
M  V30 1212 N 113.814 -1.1601 1.06675 0
M  V30 1213 C 115.063 -1.85973 0.780818 0
M  V30 1214 C 115.376 -1.82819 -0.695444 0
M  V30 1215 O 116.582 -2.484 -1.09589 0
M  V30 1216 C 115.038 -3.33757 1.34665 0
M  V30 1217 C 114.646 -3.45374 2.85343 0
M  V30 1218 C 116.39 -4.0895 1.13843 0
M  V30 1219 C 114.297 -4.87266 3.35151 0
M  V30 1220 H 113.227 -0.696661 0.288407 0
M  V30 1221 H 115.878 -1.30903 1.28595 0
M  V30 1222 H 114.26 -3.88456 0.769274 0
M  V30 1223 H 115.434 -3.00816 3.49065 0
M  V30 1224 H 113.749 -2.83619 3.04876 0
M  V30 1225 H 116.346 -5.13654 1.4854 0
M  V30 1226 H 116.689 -4.16229 0.0770282 0
M  V30 1227 H 117.222 -3.605 1.68179 0
M  V30 1228 H 113.961 -4.85168 4.40786 0
M  V30 1229 H 113.481 -5.32433 2.76179 0
M  V30 1230 H 115.16 -5.56097 3.30704 0
M  V30 1231 N 115.292 -0.849877 -1.32721 0
M  V30 1232 C 116.539 -0.450923 -1.97416 0
M  V30 1233 C 116.867 0.992376 -1.67279 0
M  V30 1234 O 116.122 1.71048 -0.950845 0
M  V30 1235 C 116.421 -0.631272 -3.51781 0
M  V30 1236 C 116.087 -2.04432 -4.01894 0
M  V30 1237 C 114.749 -2.4308 -4.1529 0
M  V30 1238 C 117.101 -2.96679 -4.28522 0
M  V30 1239 C 114.429 -3.73257 -4.52654 0
M  V30 1240 C 116.781 -4.26349 -4.67343 0
M  V30 1241 C 115.445 -4.64939 -4.78945 0
M  V30 1242 H 114.715 -0.165004 -0.722395 0
M  V30 1243 H 117.362 -1.07901 -1.58207 0
M  V30 1244 H 115.667 0.0800767 -3.91718 0
M  V30 1245 H 117.364 -0.302709 -3.99856 0
M  V30 1246 H 113.954 -1.73419 -3.91949 0
M  V30 1247 H 118.138 -2.68054 -4.17685 0
M  V30 1248 H 113.394 -4.02946 -4.59831 0
M  V30 1249 H 117.568 -4.97895 -4.86902 0
M  V30 1250 H 115.195 -5.65855 -5.07654 0
M  V30 1251 N 116.77 1.45427 -0.607355 0
M  V30 1252 C 118.018 2.01841 -0.102253 0
M  V30 1253 C 118.339 1.47832 1.27164 0
M  V30 1254 O 117.609 0.672497 1.83995 0
M  V30 1255 H 116.189 0.746188 -0.0348101 0
M  V30 1256 H 118.851 1.78229 -0.7887 0
M  V30 1257 H 117.947 3.12057 -0.0518585 0
M  V30 1258 N 118.248 0.346503 1.53744 0
M  V30 1259 C 119.178 -0.501193 2.28058 0
M  V30 1260 C 120.159 -1.10014 1.29734 0
M  V30 1261 O 121.344 -1.12097 1.58581 0
M  V30 1262 C 118.474 -1.65078 3.05559 0
M  V30 1263 C 117.428 -1.18003 4.11411 0
M  V30 1264 C 116.754 -2.41837 4.76884 0
M  V30 1265 C 118.054 -0.278394 5.21558 0
M  V30 1266 H 119.748 0.11875 2.99164 0
M  V30 1267 H 117.294 0.0585531 1.43881 0
M  V30 1268 H 119.247 -2.25028 3.56287 0
M  V30 1269 H 117.971 -2.29767 2.32109 0
M  V30 1270 H 116.63 -0.603331 3.61601 0
M  V30 1271 H 116.278 -3.0494 4.00026 0
M  V30 1272 H 115.978 -2.1102 5.48402 0
M  V30 1273 H 117.502 -3.02508 5.30397 0
M  V30 1274 H 118.916 -0.784823 5.67903 0
M  V30 1275 H 117.313 -0.0619707 6.00068 0
M  V30 1276 H 118.383 0.684677 4.80042 0
M  V30 1277 N 119.726 -1.57421 0.075193 0
M  V30 1278 C 120.954 -1.97946 -0.602076 0
M  V30 1279 C 121.369 -0.953674 -1.62943 0
M  V30 1280 O 120.726 0.0592551 -1.82404 0
M  V30 1281 C 120.777 -3.38546 -1.26762 0
M  V30 1282 O 120.498 -4.37195 -0.281376 0
M  V30 1283 C 121.999 -3.93966 -2.03239 0
M  V30 1284 H 119.219 -0.650918 -0.162931 0
M  V30 1285 H 121.763 -2.03959 0.148601 0
M  V30 1286 H 119.918 -3.33609 -1.96936 0
M  V30 1287 H 120.332 -5.18975 -0.759267 0
M  V30 1288 H 121.806 -4.94555 -2.45193 0
M  V30 1289 H 122.283 -3.30693 -2.8903 0
M  V30 1290 H 122.889 -4.02315 -1.37924 0
M  V30 1291 N 121.204 0.198386 -1.56346 0
M  V30 1292 C 122.451 0.919286 -1.80431 0
M  V30 1293 C 122.779 1.83393 -0.647866 0
M  V30 1294 O 122.034 1.92236 0.366556 0
M  V30 1295 C 122.333 1.77031 -3.10475 0
M  V30 1296 C 121.999 1.00693 -4.39513 0
M  V30 1297 C 120.661 0.796145 -4.74568 0
M  V30 1298 C 123.013 0.469559 -5.19081 0
M  V30 1299 C 120.341 0.0364588 -5.86689 0
M  V30 1300 C 122.693 -0.2769 -6.31994 0
M  V30 1301 C 121.357 -0.49873 -6.65634 0
M  V30 1302 H 120.627 0.336391 -0.660244 0
M  V30 1303 H 123.274 0.185872 -1.90596 0
M  V30 1304 H 121.579 2.5723 -2.95533 0
M  V30 1305 H 123.276 2.33065 -3.26315 0
M  V30 1306 H 119.866 1.18122 -4.12001 0
M  V30 1307 H 124.05 0.619816 -4.92414 0
M  V30 1308 H 119.306 -0.145412 -6.11227 0
M  V30 1309 H 123.48 -0.700684 -6.92866 0
M  V30 1310 H 121.107 -1.0893 -7.52355 0
M  V30 1311 N 122.682 1.50554 0.465978 0
M  V30 1312 C 123.645 1.69233 1.54574 0
M  V30 1313 C 124.645 0.562901 1.50626 0
M  V30 1314 O 125.835 0.830016 1.53155 0
M  V30 1315 C 122.967 1.7223 2.94193 0
M  V30 1316 H 124.16 2.65571 1.39327 0
M  V30 1317 H 121.713 1.40111 0.692711 0
M  V30 1318 H 122.448 0.77603 3.14878 0
M  V30 1319 H 122.233 2.54285 2.98466 0
M  V30 1320 H 123.723 1.88618 3.72576 0
M  V30 1321 N 124.16 -0.719506 1.40217 0
M  V30 1322 C 125.407 -1.47933 1.38283 0
M  V30 1323 C 125.735 -1.94493 -0.0161536 0
M  V30 1324 O 124.99 -1.68224 -0.999956 0
M  V30 1325 C 125.289 -2.72271 2.31524 0
M  V30 1326 C 124.955 -2.44496 3.78857 0
M  V30 1327 C 123.617 -2.36631 4.18998 0
M  V30 1328 C 125.969 -2.21104 4.71977 0
M  V30 1329 C 123.297 -2.03437 5.503 0
M  V30 1330 C 125.649 -1.89423 6.03574 0
M  V30 1331 C 124.313 -1.80038 6.42762 0
M  V30 1332 H 123.583 -0.541325 0.506012 0
M  V30 1333 H 126.23 -0.824502 1.72842 0
M  V30 1334 H 124.535 -3.42572 1.90137 0
M  V30 1335 H 126.232 -3.30348 2.27313 0
M  V30 1336 H 122.822 -2.51503 3.47051 0
M  V30 1337 H 127.006 -2.26139 4.41786 0
M  V30 1338 H 122.262 -1.94705 5.79569 0
M  V30 1339 H 126.436 -1.70336 6.75247 0
M  V30 1340 H 124.063 -1.54083 7.44421 0
M  V30 1341 N 125.638 -1.25649 -0.95132 0
M  V30 1342 C 126.887 -1.09988 -1.69073 0
M  V30 1343 C 127.2 0.358355 -1.92289 0
M  V30 1344 O 128.406 0.635466 -2.63958 0
M  V30 1345 C 126.862 -1.92012 -3.044 0
M  V30 1346 C 126.47 -3.42347 -2.88968 0
M  V30 1347 C 128.214 -1.8493 -3.82101 0
M  V30 1348 C 126.121 -4.16655 -4.19705 0
M  V30 1349 H 125.051 -0.407993 -0.63408 0
M  V30 1350 H 127.702 -1.49873 -1.05879 0
M  V30 1351 H 126.084 -1.44952 -3.68517 0
M  V30 1352 H 127.258 -3.97104 -2.33762 0
M  V30 1353 H 125.573 -3.50557 -2.24719 0
M  V30 1354 H 128.17 -2.37739 -4.78941 0
M  V30 1355 H 128.513 -0.817883 -4.08187 0
M  V30 1356 H 129.046 -2.29758 -3.2474 0
M  V30 1357 H 125.785 -5.20224 -3.98807 0
M  V30 1358 H 125.305 -3.66681 -4.74663 0
M  V30 1359 H 126.984 -4.24551 -4.88227 0
M  V30 1360 N 127.117 1.15442 -1.07289 0
M  V30 1361 C 128.366 1.85557 -0.790669 0
M  V30 1362 C 128.679 1.83186 0.685739 0
M  V30 1363 O 129.885 2.48977 1.0827 0
M  V30 1364 C 128.341 3.33038 -1.36433 0
M  V30 1365 C 127.949 3.43856 -2.8717 0
M  V30 1366 C 129.693 4.0834 -1.1601 0
M  V30 1367 C 127.6 4.85482 -3.3773 0
M  V30 1368 H 126.53 0.695122 -0.292098 0
M  V30 1369 H 129.181 1.30219 -1.29287 0
M  V30 1370 H 127.563 3.88043 -0.789864 0
M  V30 1371 H 128.737 2.98961 -3.50655 0
M  V30 1372 H 127.052 2.81998 -3.06376 0
M  V30 1373 H 129.649 5.12859 -1.51262 0
M  V30 1374 H 129.992 4.16182 -0.0991007 0
M  V30 1375 H 130.525 3.59603 -1.70089 0
M  V30 1376 H 127.264 4.82823 -4.43353 0
M  V30 1377 H 126.784 5.30961 -2.78999 0
M  V30 1378 H 128.463 5.54335 -3.33648 0
M  V30 1379 N 128.595 0.856903 1.32268 0
M  V30 1380 C 129.843 0.460474 1.96784 0
M  V30 1381 C 130.164 -0.987701 1.68135 0
M  V30 1382 O 129.434 -1.69058 0.989765 0
M  V30 1383 H 128.014 0.167289 0.728027 0
M  V30 1384 H 130.676 1.09383 1.61312 0
M  V30 1385 H 129.772 0.60739 3.06133 0
M  V30 1386 N 130.073 -1.45103 0.615059 0
M  V30 1387 C 131.003 -2.33339 -0.0865619 0
M  V30 1388 C 131.984 -1.4727 -0.851209 0
M  V30 1389 O 133.169 -1.76026 -0.820281 0
M  V30 1390 C 130.299 -3.30095 -1.07956 0
M  V30 1391 C 129.253 -4.25858 -0.427628 0
M  V30 1392 C 128.579 -5.12361 -1.5294 0
M  V30 1393 C 129.879 -5.18165 0.655944 0
M  V30 1394 H 131.573 -2.92254 0.650224 0
M  V30 1395 H 129.119 -1.40532 0.314138 0
M  V30 1396 H 131.072 -3.90698 -1.57901 0
M  V30 1397 H 129.796 -2.69355 -1.84703 0
M  V30 1398 H 128.455 -3.66564 0.0510292 0
M  V30 1399 H 128.103 -4.47984 -2.28734 0
M  V30 1400 H 127.803 -5.77238 -1.09865 0
M  V30 1401 H 129.327 -5.75833 -2.03098 0
M  V30 1402 H 130.741 -5.72796 0.240257 0
M  V30 1403 H 129.138 -5.91559 1.00888 0
M  V30 1404 H 130.208 -4.60144 1.52957 0
M  V30 1405 N 131.551 -0.354651 -1.53558 0
M  V30 1406 C 132.828 0.294281 -1.93374 0
M  V30 1407 C 133.208 1.67313 -1.28723 0
M  V30 1408 O 132.556 2.24179 -0.442247 0
M  V30 1409 C 132.766 0.355445 -3.47185 0
M  V30 1410 C 134.114 0.601007 -4.20325 0
M  V30 1411 O 135.138 0.437106 -3.53508 0
M  V30 1412 O 133.997 0.919322 -5.38712 0
M  V30 1413 H 131.091 0.174033 -0.808481 0
M  V30 1414 H 133.637 -0.406638 -1.64756 0
M  V30 1415 H 132.409 -0.611729 -3.86489 0
M  V30 1416 H 132.032 1.1027 -3.82003 0
M  V30 1417 N 133.029 1.57378 -0.0835403 0
M  V30 1418 C 134.277 1.93547 0.581718 0
M  V30 1419 C 134.598 0.96524 1.69435 0
M  V30 1420 O 133.868 0.0153369 1.95894 0
M  V30 1421 H 132.448 0.714521 0.217874 0
M  V30 1422 H 135.11 1.94366 -0.144158 0
M  V30 1423 H 134.206 2.95665 0.999423 0
M  V30 1424 N 134.507 -0.190092 1.56449 0
M  V30 1425 C 135.732 -0.929864 1.85387 0
M  V30 1426 C 136.157 -1.7585 0.667704 0
M  V30 1427 O 135.515 -1.77198 -0.383459 0
M  V30 1428 C 135.563 -1.79773 3.12593 0
M  V30 1429 O 134.667 -2.89713 2.93496 0
M  V30 1430 H 134.008 -0.261574 0.610307 0
M  V30 1431 H 136.538 -0.193896 2.03679 0
M  V30 1432 H 136.548 -2.20139 3.43515 0
M  V30 1433 H 135.223 -1.18892 3.98544 0
M  V30 1434 H 133.8 -2.53065 2.73884 0
M  V30 1435 N 135.985 -1.50799 -0.457987 0
M  V30 1436 C 137.213 -1.66218 -1.23203 0
M  V30 1437 C 137.628 -0.350894 -1.85511 0
M  V30 1438 O 136.985 0.668546 -1.69814 0
M  V30 1439 C 137.036 -2.76291 -2.33121 0
M  V30 1440 O 136.757 -4.02338 -1.73366 0
M  V30 1441 C 138.258 -3.028 -3.2377 0
M  V30 1442 H 135.478 -0.558361 -0.372121 0
M  V30 1443 H 138.022 -1.97099 -0.545179 0
M  V30 1444 H 136.177 -2.48068 -2.97558 0
M  V30 1445 H 136.591 -4.63312 -2.4585 0
M  V30 1446 H 138.065 -3.8345 -3.97077 0
M  V30 1447 H 138.542 -2.14385 -3.83322 0
M  V30 1448 H 139.148 -3.32604 -2.65056 0
M  V30 1449 N 137.463 0.71206 -1.40597 0
M  V30 1450 C 138.711 1.46907 -1.38791 0
M  V30 1451 C 139.032 1.94998 0.00780391 0
M  V30 1452 O 138.302 1.70587 0.963174 0
M  V30 1453 H 136.882 0.545043 -0.51082 0
M  V30 1454 H 139.544 0.843882 -1.75683 0
M  V30 1455 H 138.64 2.34021 -2.06496 0
M  V30 1456 N 138.941 1.26152 0.944643 0
M  V30 1457 C 140.352 1.10454 1.50522 0
M  V30 1458 C 140.703 -0.31635 1.93633 0
M  V30 1459 O 139.828 -1.20746 1.79581 0
M  V30 1460 C 140.423 1.99891 2.73549 0
M  V30 1461 C 138.982 1.88348 3.25886 0
M  V30 1462 C 138.129 1.93447 1.9868 0
M  V30 1463 H 141.08 1.39292 0.760489 0
M  V30 1464 H 141.101 1.54477 3.47732 0
M  V30 1465 H 140.613 3.03297 2.42141 0
M  V30 1466 H 138.714 0.878636 3.62092 0
M  V30 1467 H 138.827 2.73696 3.93227 0
M  V30 1468 H 137.191 1.37456 2.14425 0
M  V30 1469 H 137.974 2.98476 1.69607 0
M  V30 1470 N 140.419 -1.14872 1.07899 0
M  V30 1471 C 141.647 -1.89661 0.82683 0
M  V30 1472 C 142.062 -1.78312 -0.620519 0
M  V30 1473 O 141.419 -1.13888 -1.42604 0
M  V30 1474 C 141.47 -3.39817 1.23316 0
M  V30 1475 O 141.191 -3.50845 2.62372 0
M  V30 1476 C 142.692 -4.31615 1.0111 0
M  V30 1477 H 139.912 -0.60092 0.298557 0
M  V30 1478 H 142.456 -1.4551 1.43691 0
M  V30 1479 H 140.611 -3.8161 0.667286 0
M  V30 1480 H 141.025 -4.44076 2.79101 0
M  V30 1481 H 142.499 -5.35367 1.34486 0
M  V30 1482 H 142.976 -4.39169 -0.0522168 0
M  V30 1483 H 143.582 -3.95572 1.56215 0
M  V30 1484 N 141.898 -0.863906 -1.31812 0
M  V30 1485 C 143.314 -0.555004 -1.49639 0
M  V30 1486 C 143.514 0.912266 -1.79666 0
M  V30 1487 O 142.57 1.69479 -1.87171 0
M  V30 1488 C 143.883 -1.44998 -2.63431 0
M  V30 1489 C 145.431 -1.45138 -2.77316 0
M  V30 1490 C 145.906 -2.33179 -3.94197 0
M  V30 1491 N 147.397 -2.31025 -4.01474 0
M  V30 1492 C 148.132 -2.95871 -4.9117 0
M  V30 1493 N 147.628 -3.69863 -5.8581 0
M  V30 1494 N 149.421 -2.85211 -4.84367 0
M  V30 1495 H 141.572 -1.81339 -1.10589 0
M  V30 1496 H 143.835 -0.77505 -0.545895 0
M  V30 1497 H 143.541 -2.49377 -2.48 0
M  V30 1498 H 143.415 -1.14409 -3.59431 0
M  V30 1499 H 145.802 -0.415201 -2.92164 0
M  V30 1500 H 145.883 -1.79747 -1.82001 0
M  V30 1501 H 145.527 -3.3687 -3.80107 0
M  V30 1502 H 145.457 -1.95897 -4.88807 0
M  V30 1503 H 147.948 -1.77238 -3.33759 0
M  V30 1504 H 148.261 -4.16486 -6.50968 0
M  V30 1505 H 146.606 -3.73971 -5.85808 0
M  V30 1506 H 149.797 -2.26948 -4.09405 0
M  V30 1507 H 149.97 -3.36027 -5.54066 0
M  V30 1508 N 143.376 1.44774 -0.622745 0
M  V30 1509 C 144.623 2.02121 -0.1239 0
M  V30 1510 C 144.951 1.48915 1.25118 0
M  V30 1511 O 144.206 0.660045 1.84233 0
M  V30 1512 C 144.505 3.57364 -0.0508323 0
M  V30 1513 C 144.171 4.29787 -1.36358 0
M  V30 1514 C 142.833 4.4929 -1.72314 0
M  V30 1515 C 145.185 4.71062 -2.23048 0
M  V30 1516 C 142.513 5.07325 -2.94682 0
M  V30 1517 C 144.865 5.30452 -3.44679 0
M  V30 1518 C 143.529 5.48175 -3.80868 0
M  V30 1519 H 142.799 0.739612 -0.0453381 0
M  V30 1520 H 145.446 1.73648 -0.807389 0
M  V30 1521 H 143.751 3.85202 0.715991 0
M  V30 1522 H 145.448 3.99456 0.351533 0
M  V30 1523 H 142.038 4.14932 -1.07375 0
M  V30 1524 H 146.222 4.55715 -1.96565 0
M  V30 1525 H 141.478 5.19235 -3.22809 0
M  V30 1526 H 145.652 5.61385 -4.12092 0
M  V30 1527 H 143.279 5.92912 -4.75773 0
M  V30 1528 N 144.854 0.36279 1.53368 0
M  V30 1529 C 146.101 -0.227776 2.01215 0
M  V30 1530 C 146.429 -1.49003 1.25014 0
M  V30 1531 O 145.684 -1.92876 0.331236 0
M  V30 1532 C 145.983 -0.568417 3.52851 0
M  V30 1533 C 145.649 0.59918 4.46901 0
M  V30 1534 C 144.311 0.919559 4.72332 0
M  V30 1535 C 146.663 1.38156 5.02556 0
M  V30 1536 C 143.991 2.02434 5.5067 0
M  V30 1537 C 146.343 2.47674 5.821 0
M  V30 1538 C 145.007 2.8025 6.05819 0
M  V30 1539 H 144.277 -0.083349 0.736297 0
M  V30 1540 H 146.924 0.494677 1.85001 0
M  V30 1541 H 145.229 -1.37185 3.66998 0
M  V30 1542 H 146.926 -1.03756 3.87344 0
M  V30 1543 H 143.516 0.339437 4.27254 0
M  V30 1544 H 147.7 1.14729 4.82857 0
M  V30 1545 H 142.956 2.28075 5.67267 0
M  V30 1546 H 147.13 3.08716 6.24234 0
M  V30 1547 H 144.757 3.65979 6.66306 0
M  V30 1548 N 146.332 -1.57332 0.0918853 0
M  V30 1549 C 147.262 -2.16872 -0.865371 0
M  V30 1550 C 148.243 -1.10118 -1.29646 0
M  V30 1551 O 149.428 -1.38242 -1.36392 0
M  V30 1552 C 146.558 -2.74649 -2.12569 0
M  V30 1553 C 145.512 -3.86747 -1.83333 0
M  V30 1554 C 144.838 -4.31212 -3.16166 0
M  V30 1555 C 146.138 -5.10089 -1.1228 0
M  V30 1556 H 147.832 -2.97114 -0.369307 0
M  V30 1557 H 145.378 -1.42918 -0.176194 0
M  V30 1558 H 147.331 -3.14952 -2.7997 0
M  V30 1559 H 146.055 -1.91657 -2.64452 0
M  V30 1560 H 144.714 -3.46978 -1.18331 0
M  V30 1561 H 144.362 -3.45115 -3.6593 0
M  V30 1562 H 144.062 -5.06788 -2.97388 0
M  V30 1563 H 145.586 -4.74146 -3.84731 0
M  V30 1564 H 147 -5.47582 -1.69785 0
M  V30 1565 H 145.397 -5.91073 -1.03693 0
M  V30 1566 H 146.467 -4.84786 -0.105041 0
M  V30 1567 N 147.81 0.181792 -1.56548 0
M  V30 1568 C 149.057 0.900097 -1.81396 0
M  V30 1569 C 149.385 1.82695 -0.667281 0
M  V30 1570 O 148.64 1.92614 0.346146 0
M  V30 1571 C 148.939 1.73728 -3.12335 0
M  V30 1572 C 148.605 0.960255 -4.40556 0
M  V30 1573 C 147.267 0.745766 -4.75386 0
M  V30 1574 C 149.619 0.414477 -5.19549 0
M  V30 1575 C 146.947 -0.0257694 -5.86694 0
M  V30 1576 C 149.299 -0.343916 -6.31664 0
M  V30 1577 C 147.963 -0.569301 -6.65068 0
M  V30 1578 H 147.233 0.329369 -0.663775 0
M  V30 1579 H 149.88 0.165647 -1.90782 0
M  V30 1580 H 148.185 2.54081 -2.98245 0
M  V30 1581 H 149.882 2.29591 -3.28769 0
M  V30 1582 H 146.472 1.13746 -4.13231 0
M  V30 1583 H 150.656 0.567554 -4.93044 0
M  V30 1584 H 145.912 -0.210233 -6.11038 0
M  V30 1585 H 150.086 -0.774133 -6.92084 0
M  V30 1586 H 147.713 -1.16903 -7.51158 0
M  V30 1587 N 149.288 1.51039 0.449983 0
M  V30 1588 C 150.536 1.62759 1.19808 0
M  V30 1589 C 150.857 0.339981 1.92013 0
M  V30 1590 O 150.127 -0.643606 1.85026 0
M  V30 1591 H 148.707 0.599811 0.445237 0
M  V30 1592 H 151.369 1.87914 0.517138 0
M  V30 1593 H 150.465 2.44911 1.93455 0
M  V30 1594 N 150.766 -0.704594 1.40972 0
M  V30 1595 C 152.015 -1.46018 1.39146 0
M  V30 1596 C 152.328 -1.956 0.000589254 0
M  V30 1597 O 153.534 -2.71137 -0.1403 0
M  V30 1598 C 151.99 -2.63996 2.4461 0
M  V30 1599 C 151.598 -2.21238 3.89561 0
M  V30 1600 C 153.342 -3.41677 2.51907 0
M  V30 1601 C 151.249 -3.3612 4.86598 0
M  V30 1602 H 150.179 -0.548444 0.517422 0
M  V30 1603 H 152.83 -0.765784 1.66757 0
M  V30 1604 H 151.212 -3.3566 2.10115 0
M  V30 1605 H 152.386 -1.56923 4.33257 0
M  V30 1606 H 150.701 -1.56574 3.85841 0
M  V30 1607 H 153.298 -4.27182 3.2159 0
M  V30 1608 H 153.641 -3.86247 1.55303 0
M  V30 1609 H 154.174 -2.77064 2.85448 0
M  V30 1610 H 150.913 -2.96572 5.84573 0
M  V30 1611 H 150.433 -3.99315 4.47557 0
M  V30 1612 H 152.112 -4.02029 5.06934 0
M  V30 1613 N 152.244 -1.26651 -0.937939 0
M  V30 1614 C 153.174 -1.10993 -2.05433 0
M  V30 1615 C 154.155 -0.0142161 -1.70094 0
M  V30 1616 O 155.34 -0.186837 -1.93299 0
M  V30 1617 C 152.47 -0.745561 -3.39203 0
M  V30 1618 C 151.424 -1.79337 -3.88616 0
M  V30 1619 C 150.75 -1.28324 -5.19073 0
M  V30 1620 C 152.05 -3.19553 -4.13138 0
M  V30 1621 H 153.744 -2.0438 -2.1879 0
M  V30 1622 H 151.29 -0.984041 -1.05131 0
M  V30 1623 H 153.243 -0.622888 -4.16771 0
M  V30 1624 H 151.967 0.22401 -3.25831 0
M  V30 1625 H 150.626 -1.90477 -3.13231 0
M  V30 1626 H 150.274 -0.303414 -5.02084 0
M  V30 1627 H 149.974 -1.98369 -5.53103 0
M  V30 1628 H 151.498 -1.1733 -5.99221 0
M  V30 1629 H 152.912 -3.11471 -4.81309 0
M  V30 1630 H 151.309 -3.87218 -4.58457 0
M  V30 1631 H 152.379 -3.65368 -3.18801 0
M  V30 1632 N 153.722 1.14298 -1.08507 0
M  V30 1633 C 154.969 1.85359 -0.815373 0
M  V30 1634 C 155.297 1.83001 0.658865 0
M  V30 1635 O 154.552 1.25655 1.50031 0
M  V30 1636 C 154.851 3.33547 -1.28379 0
M  V30 1637 C 154.517 3.56093 -2.76602 0
M  V30 1638 C 153.179 3.61955 -3.17084 0
M  V30 1639 C 155.531 3.64834 -3.72217 0
M  V30 1640 C 152.859 3.74082 -4.51973 0
M  V30 1641 C 155.211 3.78487 -5.06883 0
M  V30 1642 C 153.875 3.82598 -5.46969 0
M  V30 1643 H 153.145 0.678276 -0.298366 0
M  V30 1644 H 155.792 1.35002 -1.35819 0
M  V30 1645 H 154.097 3.86191 -0.660593 0
M  V30 1646 H 155.794 3.86959 -1.05186 0
M  V30 1647 H 152.384 3.52179 -2.4427 0
M  V30 1648 H 156.568 3.59595 -3.42061 0
M  V30 1649 H 151.824 3.75527 -4.82483 0
M  V30 1650 H 155.998 3.84193 -5.80834 0
M  V30 1651 H 153.625 3.91747 -6.51489 0
M  V30 1652 N 155.201 0.870884 1.31352 0
M  V30 1653 C 156.426 0.495957 2.01383 0
M  V30 1654 C 156.851 -0.904324 1.64935 0
M  V30 1655 O 156.209 -1.59687 0.858466 0
M  V30 1656 C 156.257 0.661433 3.54482 0
M  V30 1657 O 155.361 -0.298851 4.11316 0
M  V30 1658 H 154.702 0.197158 0.634054 0
M  V30 1659 H 157.232 1.17455 1.67527 0
M  V30 1660 H 157.242 0.555072 4.04207 0
M  V30 1661 H 155.917 1.68246 3.8035 0
M  V30 1662 H 154.494 -0.147368 3.72609 0
M  V30 1663 N 156.679 -1.44442 0.630414 0
M  V30 1664 C 157.928 -2.01267 0.132073 0
M  V30 1665 C 158.241 -1.50172 -1.25331 0
M  V30 1666 O 159.447 -1.9912 -1.84562 0
M  V30 1667 C 157.903 -3.59422 0.185362 0
M  V30 1668 C 157.511 -4.19514 1.57201 0
M  V30 1669 C 159.255 -4.23724 -0.256553 0
M  V30 1670 C 157.162 -5.69891 1.58045 0
M  V30 1671 H 156.092 -0.752619 0.0456092 0
M  V30 1672 H 158.743 -1.65666 0.789106 0
M  V30 1673 H 157.125 -3.92318 -0.538759 0
M  V30 1674 H 158.299 -3.98156 2.31966 0
M  V30 1675 H 156.614 -3.67496 1.95795 0
M  V30 1676 H 159.211 -5.34019 -0.269767 0
M  V30 1677 H 159.554 -3.96013 -1.28372 0
M  V30 1678 H 160.087 -3.95629 0.41505 0
M  V30 1679 H 156.826 -6.02336 2.58597 0
M  V30 1680 H 156.346 -5.93373 0.875725 0
M  V30 1681 H 158.025 -6.33515 1.31408 0
M  V30 1682 N 158.157 -0.370918 -1.53173 0
M  V30 1683 C 159.397 0.217106 -2.03244 0
M  V30 1684 C 159.761 1.45558 -1.25207 0
M  V30 1685 O 160.962 2.11957 -1.65311 0
M  V30 1686 C 159.233 0.496664 -3.53932 0
M  V30 1687 S 160.792 1.0576 -4.25864 0
M  V30 1688 H 157.61 0.0627827 -0.708223 0
M  V30 1689 H 160.212 -0.515019 -1.88594 0
M  V30 1690 H 158.916 -0.412096 -4.08326 0
M  V30 1691 H 158.447 1.25772 -3.72753 0
M  V30 1692 H 160.462 2.34145 -4.37482 0
M  V30 1693 N 159.635 1.57281 -0.100228 0
M  V30 1694 C 160.882 1.94537 0.562268 0
M  V30 1695 C 161.21 0.982315 1.67871 0
M  V30 1696 O 160.465 0.00280936 1.957 0
M  V30 1697 C 160.764 3.38305 1.15259 0
M  V30 1698 C 160.43 4.50618 0.159409 0
M  V30 1699 C 159.092 4.81066 -0.113741 0
M  V30 1700 C 161.444 5.18615 -0.518461 0
M  V30 1701 C 158.772 5.76835 -1.07137 0
M  V30 1702 C 161.124 6.15412 -1.46459 0
M  V30 1703 C 159.788 6.44262 -1.74592 0
M  V30 1704 H 159.058 0.711863 0.205748 0
M  V30 1705 H 161.705 1.90679 -0.17715 0
M  V30 1706 H 160.01 3.38766 1.96836 0
M  V30 1707 H 161.707 3.64435 1.67297 0
M  V30 1708 H 158.297 4.2689 0.382491 0
M  V30 1709 H 162.481 4.95264 -0.320581 0
M  V30 1710 H 157.737 5.975 -1.29628 0
M  V30 1711 H 161.911 6.67194 -1.99564 0
M  V30 1712 H 159.538 7.1828 -2.48953 0
M  V30 1713 N 161.113 -0.173488 1.56642 0
M  V30 1714 C 162.338 -0.910149 1.86363 0
M  V30 1715 C 162.763 -1.75132 0.686318 0
M  V30 1716 O 162.121 -1.77595 -0.364643 0
M  V30 1717 C 162.169 -1.76447 3.14482 0
M  V30 1718 O 161.273 -2.86584 2.96553 0
M  V30 1719 H 160.614 -0.255086 0.613047 0
M  V30 1720 H 163.144 -0.172283 2.03873 0
M  V30 1721 H 163.154 -2.16483 3.45831 0
M  V30 1722 H 161.829 -1.14658 3.99783 0
M  V30 1723 H 160.406 -2.50146 2.76553 0
M  V30 1724 N 162.591 -1.51276 -0.441967 0
M  V30 1725 C 163.831 -1.65372 -1.20132 0
M  V30 1726 C 164.195 -0.359871 -1.88597 0
M  V30 1727 O 165.396 -0.376551 -2.66149 0
M  V30 1728 C 163.667 -2.8207 -2.1948 0
M  V30 1729 S 165.226 -3.16467 -3.03964 0
M  V30 1730 H 162.044 -0.582669 -0.407453 0
M  V30 1731 H 164.646 -1.89166 -0.493609 0
M  V30 1732 H 163.35 -3.74523 -1.67812 0
M  V30 1733 H 162.881 -2.6045 -2.94838 0
M  V30 1734 H 164.896 -2.62543 -4.21053 0
M  V30 1735 N 164.069 0.697108 -1.41344 0
M  V30 1736 C 164.999 1.82353 -1.45841 0
M  V30 1737 C 165.98 1.67115 -0.317247 0
M  V30 1738 O 167.165 1.86871 -0.528474 0
M  V30 1739 C 164.295 3.20476 -1.33838 0
M  V30 1740 C 163.249 3.50415 -2.4575 0
M  V30 1741 C 162.575 4.87878 -2.18813 0
M  V30 1742 C 163.875 3.49546 -3.88091 0
M  V30 1743 H 165.569 1.78846 -2.40113 0
M  V30 1744 H 163.115 0.859028 -1.15571 0
M  V30 1745 H 165.068 3.98988 -1.35596 0
M  V30 1746 H 163.792 3.24604 -0.360498 0
M  V30 1747 H 162.451 2.74253 -2.43271 0
M  V30 1748 H 162.099 4.8863 -1.19371 0
M  V30 1749 H 161.799 5.08875 -2.93803 0
M  V30 1750 H 163.323 5.68702 -2.22284 0
M  V30 1751 H 164.737 4.18066 -3.92293 0
M  V30 1752 H 163.134 3.82075 -4.62751 0
M  V30 1753 H 164.204 2.48552 -4.16353 0
M  V30 1754 N 165.547 1.27147 0.931209 0
M  V30 1755 C 166.477 1.12081 2.04842 0
M  V30 1756 C 167.458 0.0232364 1.70084 0
M  V30 1757 O 168.643 0.197085 1.93197 0
M  V30 1758 C 165.773 0.76354 3.38803 0
M  V30 1759 C 164.727 1.81396 3.87659 0
M  V30 1760 C 164.053 1.31075 5.18385 0
M  V30 1761 C 165.353 3.21739 4.11438 0
M  V30 1762 H 167.047 2.05537 2.17703 0
M  V30 1763 H 164.593 0.989603 1.04608 0
M  V30 1764 H 166.546 0.644982 4.16435 0
M  V30 1765 H 165.27 -0.206727 3.25945 0
M  V30 1766 H 163.929 1.92136 3.12217 0
M  V30 1767 H 163.577 0.330037 5.01916 0
M  V30 1768 H 163.277 2.013 5.52044 0
M  V30 1769 H 164.801 1.20506 5.98591 0
M  V30 1770 H 166.215 3.14019 4.79651 0
M  V30 1771 H 164.612 3.89644 4.56397 0
M  V30 1772 H 165.682 3.67054 3.16859 0
M  V30 1773 N 167.025 -1.13721 1.09112 0
M  V30 1774 C 167.988 -2.17222 0.731241 0
M  V30 1775 C 168.988 -1.59035 -0.237566 0
M  V30 1776 O 170.178 -1.74192 -0.0161704 0
M  V30 1777 C 167.31 -3.40804 0.0808443 0
M  V30 1778 H 168.503 -2.50573 1.64783 0
M  V30 1779 H 166.056 -1.28493 0.889897 0
M  V30 1780 H 166.791 -3.1304 -0.847127 0
M  V30 1781 H 166.576 -3.84306 0.777896 0
M  V30 1782 H 168.066 -4.1731 -0.155657 0
M  V30 1783 N 168.503 -0.877838 -1.30888 0
M  V30 1784 C 169.453 -0.310872 -2.25871 0
M  V30 1785 C 170.437 0.556596 -1.50966 0
M  V30 1786 O 171.629 0.402187 -1.7237 0
M  V30 1787 C 168.758 0.479821 -3.3993 0
M  V30 1788 C 167.844 -0.401333 -4.22197 0
M  V30 1789 N 168.235 -1.49848 -4.83093 0
M  V30 1790 C 166.533 -0.195167 -4.45573 0
M  V30 1791 C 167.234 -2.0425 -5.44662 0
M  V30 1792 N 166.21 -1.33843 -5.26865 0
M  V30 1793 H 170.012 -1.1493 -2.70496 0
M  V30 1794 H 167.526 -0.726458 -1.45246 0
M  V30 1795 H 169.523 0.902582 -4.07012 0
M  V30 1796 H 168.183 1.31577 -2.96846 0
M  V30 1797 H 169.194 -1.88137 -4.82519 0
M  V30 1798 H 165.871 0.604192 -4.13105 0
M  V30 1799 H 167.261 -2.96345 -6.03017 0
M  V30 1800 N 169.982 1.44106 -0.638065 0
M  V30 1801 C 170.945 2.29138 0.0531013 0
M  V30 1802 C 171.945 1.41409 0.765506 0
M  V30 1803 O 173.135 1.63206 0.609046 0
M  V30 1804 C 170.267 3.23144 1.08584 0
M  V30 1805 H 171.46 2.91739 -0.694883 0
M  V30 1806 H 169.013 1.51134 -0.398538 0
M  V30 1807 H 169.748 2.65408 1.86357 0
M  V30 1808 H 169.533 3.87804 0.578852 0
M  V30 1809 H 171.023 3.87004 1.56899 0
M  V30 1810 N 171.46 0.379036 1.52974 0
M  V30 1811 C 172.706 -0.206727 2.01744 0
M  V30 1812 C 173.039 -1.47314 1.26539 0
M  V30 1813 O 172.314 -1.91084 0.362903 0
M  V30 1814 C 172.597 -0.485066 3.56818 0
M  V30 1815 C 172.45 0.795919 4.42702 0
M  V30 1816 C 173.769 -1.28003 4.21074 0
M  V30 1817 H 170.888 -0.0736607 0.73331 0
M  V30 1818 H 173.53 0.506581 1.83122 0
M  V30 1819 H 171.68 -1.09272 3.72816 0
M  V30 1820 H 173.352 1.43307 4.38476 0
M  V30 1821 H 171.595 1.41344 4.10127 0
M  V30 1822 H 172.266 0.555947 5.49193 0
M  V30 1823 H 174.742 -0.765867 4.08991 0
M  V30 1824 H 173.618 -1.44352 5.29579 0
M  V30 1825 H 173.879 -2.29236 3.78026 0
M  V30 1826 N 172.938 -1.57226 0.108567 0
M  V30 1827 C 174.163 -1.99604 -0.563303 0
M  V30 1828 C 174.588 -0.987563 -1.6009 0
M  V30 1829 O 173.946 0.0421687 -1.81251 0
M  V30 1830 C 173.994 -3.40902 -1.17552 0
M  V30 1831 O 173.098 -3.42896 -2.2912 0
M  V30 1832 H 172.439 -0.648704 -0.1417 0
M  V30 1833 H 174.969 -2.03679 0.193961 0
M  V30 1834 H 174.979 -3.78886 -1.51357 0
M  V30 1835 H 173.654 -4.1382 -0.415445 0
M  V30 1836 H 172.231 -3.1672 -1.96832 0
M  V30 1837 N 174.416 0.165178 -1.56732 0
M  V30 1838 C 175.346 1.20651 -1.99914 0
M  V30 1839 C 176.327 1.45827 -0.875705 0
M  V30 1840 O 177.512 1.57057 -1.14223 0
M  V30 1841 C 174.642 2.54401 -2.36427 0
M  V30 1842 C 173.596 2.43782 -3.51787 0
M  V30 1843 C 172.922 3.82078 -3.7406 0
M  V30 1844 C 174.222 1.93732 -4.85041 0
M  V30 1845 H 175.916 0.847534 -2.87154 0
M  V30 1846 H 173.462 0.40625 -1.38151 0
M  V30 1847 H 175.415 3.27458 -2.65234 0
M  V30 1848 H 174.139 2.92098 -1.46103 0
M  V30 1849 H 172.798 1.73178 -3.23117 0
M  V30 1850 H 172.446 4.17179 -2.81017 0
M  V30 1851 H 172.146 3.7584 -4.51684 0
M  V30 1852 H 173.67 4.56712 -4.05274 0
M  V30 1853 H 175.084 2.56569 -5.12684 0
M  V30 1854 H 173.481 1.98428 -5.66345 0
M  V30 1855 H 174.551 0.891962 -4.76626 0
M  V30 1856 N 175.894 1.51508 0.433938 0
M  V30 1857 C 177.122 1.68157 1.20543 0
M  V30 1858 C 177.537 0.380362 1.84929 0
M  V30 1859 O 176.894 -0.641446 1.70856 0
M  V30 1860 C 176.945 2.79965 2.28696 0
M  V30 1861 O 176.666 4.05045 1.66943 0
M  V30 1862 C 178.167 3.07912 3.18912 0
M  V30 1863 H 175.387 0.56421 0.363191 0
M  V30 1864 H 177.931 1.97941 0.513754 0
M  V30 1865 H 176.086 2.5277 2.93574 0
M  V30 1866 H 176.5 4.67165 2.38448 0
M  V30 1867 H 177.974 3.89719 3.90926 0
M  V30 1868 H 178.451 2.20456 3.79863 0
M  V30 1869 H 179.057 3.36779 2.59731 0
M  V30 1870 N 177.372 -0.689602 1.41712 0
M  V30 1871 C 178.319 -1.80345 1.44029 0
M  V30 1872 C 179.289 -1.63478 0.293948 0
M  V30 1873 O 180.474 -1.84244 0.495869 0
M  V30 1874 C 177.614 -3.18272 1.33405 0
M  V30 1875 C 176.727 -3.46529 2.57956 0
M  V30 1876 C 175.862 -4.74103 2.39582 0
M  V30 1877 C 174.901 -4.95347 3.5958 0
M  V30 1878 N 174.038 -6.14151 3.40239 0
M  V30 1879 H 178.878 -1.77698 2.39222 0
M  V30 1880 H 176.415 -0.867688 1.18784 0
M  V30 1881 H 178.373 -3.97956 1.25246 0
M  V30 1882 H 177.003 -3.2008 0.418164 0
M  V30 1883 H 176.055 -2.61207 2.76542 0
M  V30 1884 H 177.367 -3.58126 3.47199 0
M  V30 1885 H 176.521 -5.61853 2.28924 0
M  V30 1886 H 175.26 -4.64763 1.47805 0
M  V30 1887 H 174.265 -4.06044 3.70686 0
M  V30 1888 H 175.49 -5.06542 4.52318 0
M  V30 1889 H 173.436 -6.06013 2.51167 0
M  V30 1890 H 173.353 -6.26543 4.23061 0
M  V30 1891 H 174.621 -7.04619 3.33365 0
M  V30 1892 N 178.85 -1.27639 -0.924453 0
M  V30 1893 C 179.78 -1.13166 -2.04244 0
M  V30 1894 C 180.761 -0.032256 -1.70069 0
M  V30 1895 O 181.946 -0.207328 -1.9309 0
M  V30 1896 C 179.076 -0.781496 -3.38393 0
M  V30 1897 C 178.03 -1.83449 -3.86692 0
M  V30 1898 C 177.356 -1.33822 -5.17683 0
M  V30 1899 C 178.656 -3.23917 -4.09726 0
M  V30 1900 H 180.35 -2.06689 -2.1661 0
M  V30 1901 H 177.896 -0.995136 -1.04082 0
M  V30 1902 H 179.849 -0.667057 -4.16087 0
M  V30 1903 H 178.573 0.189439 -3.2605 0
M  V30 1904 H 177.232 -1.93789 -3.11193 0
M  V30 1905 H 176.88 -0.35665 -5.01734 0
M  V30 1906 H 176.58 -2.04224 -5.50968 0
M  V30 1907 H 178.104 -1.23679 -5.97943 0
M  V30 1908 H 179.518 -3.16559 -4.77978 0
M  V30 1909 H 177.915 -3.92059 -4.54324 0
M  V30 1910 H 178.985 -3.68729 -3.14908 0
M  V30 1911 N 180.328 1.1314 -1.09713 0
M  V30 1912 C 181.574 1.84757 -0.836224 0
M  V30 1913 C 181.907 1.8347 0.636598 0
M  V30 1914 O 181.182 1.27491 1.46889 0
M  V30 1915 C 181.465 3.32782 -1.37578 0
M  V30 1916 C 181.318 3.42567 -2.91493 0
M  V30 1917 C 182.637 4.28307 -1.01198 0
M  V30 1918 H 179.756 0.67082 -0.305236 0
M  V30 1919 H 182.398 1.3278 -1.35903 0
M  V30 1920 H 180.548 3.77177 -0.931097 0
M  V30 1921 H 182.22 3.06862 -3.44432 0
M  V30 1922 H 180.463 2.83349 -3.28475 0
M  V30 1923 H 181.134 4.46674 -3.24324 0
M  V30 1924 H 183.61 3.91999 -1.39556 0
M  V30 1925 H 182.486 5.30307 -1.41653 0
M  V30 1926 H 182.747 4.42029 0.0794833 0
M  V30 1927 N 181.806 0.884767 1.30421 0
M  V30 1928 C 183.222 0.57874 1.48737 0
M  V30 1929 C 183.422 -0.883567 1.81095 0
M  V30 1930 O 182.478 -1.6648 1.89844 0
M  V30 1931 C 183.791 1.49171 2.61091 0
M  V30 1932 C 185.339 1.49532 2.74971 0
M  V30 1933 C 185.814 2.39421 3.90438 0
M  V30 1934 N 187.305 2.37383 3.97748 0
M  V30 1935 C 188.04 3.03647 4.86401 0
M  V30 1936 N 187.536 3.79136 5.79852 0
M  V30 1937 N 189.329 2.9288 4.79768 0
M  V30 1938 H 181.48 1.83075 1.0769 0
M  V30 1939 H 183.743 0.783637 0.533495 0
M  V30 1940 H 183.449 2.53291 2.44001 0
M  V30 1941 H 183.323 1.20113 3.57565 0
M  V30 1942 H 185.71 0.46163 2.91467 0
M  V30 1943 H 185.791 1.8262 1.79119 0
M  V30 1944 H 185.435 3.42874 3.74699 0
M  V30 1945 H 185.365 2.03649 4.85628 0
M  V30 1946 H 187.856 1.82525 3.30897 0
M  V30 1947 H 188.169 4.26789 6.4426 0
M  V30 1948 H 186.514 3.83243 5.79784 0
M  V30 1949 H 189.705 2.33433 4.05742 0
M  V30 1950 H 189.878 3.448 5.4865 0
M  V30 1951 N 183.284 -1.43765 0.645699 0
M  V30 1952 C 184.532 -2.01499 0.155731 0
M  V30 1953 C 184.853 -1.51151 -1.232 0
M  V30 1954 O 184.123 -0.721044 -1.82148 0
M  V30 1955 H 182.703 -0.745003 0.0545817 0
M  V30 1956 H 185.365 -1.76075 0.835677 0
M  V30 1957 H 184.461 -3.1181 0.134577 0
M  V30 1958 N 184.763 -0.387143 -1.52771 0
M  V30 1959 C 186.179 -0.037007 -1.59557 0
M  V30 1960 C 186.379 1.44801 -1.40124 0
M  V30 1961 O 185.435 2.21227 -1.21716 0
M  V30 1962 C 186.748 -0.512256 -2.96305 0
M  V30 1963 C 188.296 -0.468328 -3.09476 0
M  V30 1964 C 188.771 -0.919731 -4.4867 0
M  V30 1965 N 190.262 -0.875656 -4.54848 0
M  V30 1966 C 190.997 -1.19637 -5.6078 0
M  V30 1967 N 190.493 -1.58745 -6.74368 0
M  V30 1968 N 192.286 -1.11776 -5.50874 0
M  V30 1969 H 184.437 -1.35395 -1.63652 0
M  V30 1970 H 186.7 -0.554818 -0.768688 0
M  V30 1971 H 186.406 -1.54935 -3.15734 0
M  V30 1972 H 186.28 0.089805 -3.77093 0
M  V30 1973 H 188.667 0.559671 -2.89744 0
M  V30 1974 H 188.748 -1.10616 -2.30646 0
M  V30 1975 H 188.392 -1.94595 -4.69143 0
M  V30 1976 H 188.322 -0.258927 -5.25963 0
M  V30 1977 H 190.813 -0.587843 -3.733 0
M  V30 1978 H 191.126 -1.81586 -7.51163 0
M  V30 1979 H 189.471 -1.6263 -6.75705 0
M  V30 1980 H 192.662 -0.811264 -4.61016 0
M  V30 1981 H 192.835 -1.37103 -6.3333 0
M  V30 1982 N 186.241 1.57166 -0.116904 0
M  V30 1983 C 187.188 2.15202 0.83408 0
M  V30 1984 C 188.158 1.07644 1.26499 0
M  V30 1985 O 189.343 1.35541 1.34288 0
M  V30 1986 C 186.483 2.75405 2.07957 0
M  V30 1987 C 185.596 3.97264 1.69721 0
M  V30 1988 C 184.731 4.45561 2.89221 0
M  V30 1989 C 183.77 5.59956 2.47215 0
M  V30 1990 N 182.907 6.03006 3.59622 0
M  V30 1991 H 187.747 2.96141 0.332335 0
M  V30 1992 H 185.284 1.46309 0.152349 0
M  V30 1993 H 187.242 3.08439 2.80929 0
M  V30 1994 H 185.872 1.97159 2.55594 0
M  V30 1995 H 184.924 3.70404 0.866316 0
M  V30 1996 H 186.236 4.80226 1.34849 0
M  V30 1997 H 185.39 4.80493 3.7042 0
M  V30 1998 H 184.129 3.61544 3.27318 0
M  V30 1999 H 183.134 5.2463 1.64448 0
M  V30 2000 H 184.359 6.45738 2.10238 0
M  V30 2001 H 182.305 5.21931 3.97396 0
M  V30 2002 H 182.222 6.80819 3.28667 0
M  V30 2003 H 183.49 6.42576 4.41267 0
M  V30 2004 N 187.719 -0.156864 1.56817 0
M  V30 2005 C 189.13 -0.717916 1.72345 0
M  V30 2006 C 189.481 -1.82124 0.729747 0
M  V30 2007 O 188.606 -2.16141 -0.105781 0
M  V30 2008 C 189.201 -1.30904 3.12489 0
M  V30 2009 C 187.76 -1.81676 3.29653 0
M  V30 2010 C 186.907 -0.701349 2.68284 0
M  V30 2011 H 189.858 0.0686989 1.58551 0
M  V30 2012 H 189.879 -2.17882 3.11942 0
M  V30 2013 H 189.391 -0.505796 3.8479 0
M  V30 2014 H 187.492 -2.64598 2.62333 0
M  V30 2015 H 187.605 -1.95226 4.3752 0
M  V30 2016 H 185.969 -1.12548 2.28484 0
M  V30 2017 H 186.752 0.0902846 3.43181 0
M  V30 2018 N 189.197 -1.51736 -0.425897 0
M  V30 2019 C 190.127 -1.76827 -1.52494 0
M  V30 2020 C 191.108 -0.618524 -1.58456 0
M  V30 2021 O 192.293 -0.862416 -1.74 0
M  V30 2022 C 189.423 -1.90374 -2.90474 0
M  V30 2023 C 188.377 -3.0588 -2.99369 0
M  V30 2024 C 187.703 -3.04625 -4.3944 0
M  V30 2025 C 189.003 -4.45644 -2.72394 0
M  V30 2026 H 190.697 -2.68855 -1.31748 0
M  V30 2027 H 188.243 -1.29372 -0.632362 0
M  V30 2028 H 190.196 -2.0651 -3.6733 0
M  V30 2029 H 188.92 -0.95004 -3.12477 0
M  V30 2030 H 187.579 -2.89467 -2.24954 0
M  V30 2031 H 187.227 -2.0701 -4.58428 0
M  V30 2032 H 186.927 -3.82195 -4.46319 0
M  V30 2033 H 188.451 -3.22869 -5.18255 0
M  V30 2034 H 189.865 -4.62348 -3.38979 0
M  V30 2035 H 188.262 -5.25006 -2.9067 0
M  V30 2036 H 189.332 -4.54893 -1.67929 0
M  V30 2037 N 190.675 0.682077 -1.42076 0
M  V30 2038 C 191.9 1.47558 -1.45744 0
M  V30 2039 C 192.325 1.87977 -0.0680981 0
M  V30 2040 O 191.683 1.55522 0.9318 0
M  V30 2041 C 191.731 2.70575 -2.38373 0
M  V30 2042 O 190.835 3.68573 -1.85007 0
M  V30 2043 H 190.176 0.443585 -0.494093 0
M  V30 2044 H 192.706 0.837238 -1.86686 0
M  V30 2045 H 192.716 3.18729 -2.54707 0
M  V30 2046 H 191.391 2.40495 -3.39315 0
M  V30 2047 H 189.968 3.2757 -1.78192 0
M  V30 2048 N 192.153 1.28127 0.917671 0
M  V30 2049 C 193.083 1.14248 2.03641 0
M  V30 2050 C 194.064 0.0412748 1.7005 0
M  V30 2051 O 195.249 0.217566 1.92977 0
M  V30 2052 C 192.379 0.799431 3.37974 0
M  V30 2053 C 191.333 1.85497 3.85713 0
M  V30 2054 C 190.659 1.36565 5.16966 0
M  V30 2055 C 191.959 3.26085 4.08002 0
M  V30 2056 H 193.653 2.07835 2.15511 0
M  V30 2057 H 191.199 1.00064 1.03553 0
M  V30 2058 H 193.152 0.689114 4.15727 0
M  V30 2059 H 191.876 -0.172145 3.26146 0
M  V30 2060 H 190.535 1.95437 3.10161 0
M  V30 2061 H 190.183 0.383253 5.01538 0
M  V30 2062 H 189.883 2.07143 5.49878 0
M  V30 2063 H 191.407 1.26848 5.97279 0
M  V30 2064 H 192.821 3.19089 4.76293 0
M  V30 2065 H 191.218 3.94462 4.52238 0
M  V30 2066 H 192.288 3.70394 3.12948 0
M  V30 2067 N 193.631 -1.12557 1.10312 0
M  V30 2068 C 194.561 -2.20341 0.772798 0
M  V30 2069 C 195.542 -1.68198 -0.25365 0
M  V30 2070 O 196.727 -1.93831 -0.119699 0
M  V30 2071 C 193.857 -3.46709 0.202443 0
M  V30 2072 C 192.811 -4.11996 1.15943 0
M  V30 2073 C 192.137 -5.328 0.450345 0
M  V30 2074 C 193.437 -4.5828 2.50552 0
M  V30 2075 H 195.131 -2.48229 1.674 0
M  V30 2076 H 192.677 -1.19308 0.806326 0
M  V30 2077 H 194.63 -4.2138 -0.0407752 0
M  V30 2078 H 193.354 -3.18245 -0.734001 0
M  V30 2079 H 192.013 -3.39305 1.38808 0
M  V30 2080 H 191.661 -5.00602 -0.490531 0
M  V30 2081 H 191.361 -5.7743 1.08851 0
M  V30 2082 H 192.885 -6.10219 0.215642 0
M  V30 2083 H 194.299 -5.2433 2.31843 0
M  V30 2084 H 192.696 -5.13683 3.10242 0
M  V30 2085 H 193.766 -3.72329 3.10643 0
M  V30 2086 N 195.109 -0.891671 -1.2995 0
M  V30 2087 C 196.355 -0.514261 -1.96171 0
M  V30 2088 C 196.688 0.935506 -1.70182 0
M  V30 2089 O 195.963 1.66204 -1.01028 0
M  V30 2090 C 196.246 -0.797719 -3.51153 0
M  V30 2091 C 196.099 -2.2986 -3.86632 0
M  V30 2092 C 197.418 -0.278749 -4.39216 0
M  V30 2093 H 194.537 -0.188314 -0.712535 0
M  V30 2094 H 197.179 -1.11689 -1.53706 0
M  V30 2095 H 195.329 -0.284826 -3.87455 0
M  V30 2096 H 197.001 -2.88042 -3.60319 0
M  V30 2097 H 195.244 -2.76257 -3.34462 0
M  V30 2098 H 195.915 -2.44753 -4.94773 0
M  V30 2099 H 198.391 -0.717825 -4.09862 0
M  V30 2100 H 197.267 -0.506353 -5.46559 0
M  V30 2101 H 197.528 0.820266 -4.34424 0
M  V30 2102 N 196.587 1.43421 -0.653314 0
M  V30 2103 C 197.836 2.01032 -0.164076 0
M  V30 2104 C 198.149 1.52147 1.22926 0
M  V30 2105 O 199.355 2.02031 1.81371 0
M  V30 2106 C 197.811 3.59082 -0.24252 0
M  V30 2107 C 197.419 4.1696 -1.63855 0
M  V30 2108 C 199.163 4.24079 0.18911 0
M  V30 2109 C 197.07 5.67304 -1.67092 0
M  V30 2110 H 196 0.751798 -0.0575769 0
M  V30 2111 H 198.651 1.6439 -0.815362 0
M  V30 2112 H 197.033 3.93125 0.476276 0
M  V30 2113 H 198.207 3.94416 -2.38271 0
M  V30 2114 H 196.522 3.64335 -2.01616 0
M  V30 2115 H 199.119 5.34381 0.184775 0
M  V30 2116 H 199.462 3.98005 1.22056 0
M  V30 2117 H 199.995 3.94918 -0.477938 0
M  V30 2118 H 196.734 5.98145 -2.68146 0
M  V30 2119 H 196.254 5.91904 -0.970014 0
M  V30 2120 H 197.933 6.31344 -1.4147 0
M  V30 2121 N 198.065 0.39524 1.52563 0
M  V30 2122 C 198.995 -0.428384 2.29537 0
M  V30 2123 C 199.976 -1.05831 1.33169 0
M  V30 2124 O 201.161 -1.06995 1.62067 0
M  V30 2125 C 198.291 -1.55274 3.10656 0
M  V30 2126 C 197.245 -1.04855 4.14957 0
M  V30 2127 C 196.571 -2.26543 4.84337 0
M  V30 2128 C 197.871 -0.112324 5.22179 0
M  V30 2129 H 199.565 0.213867 2.98635 0
M  V30 2130 H 197.111 0.104298 1.43622 0
M  V30 2131 H 199.064 -2.1358 3.63265 0
M  V30 2132 H 197.788 -2.22266 2.39302 0
M  V30 2133 H 196.447 -0.487985 3.63338 0
M  V30 2134 H 196.095 -2.92059 4.09525 0
M  V30 2135 H 195.795 -1.93466 5.54837 0
M  V30 2136 H 197.319 -2.85481 5.39753 0
M  V30 2137 H 198.733 -0.603752 5.70112 0
M  V30 2138 H 197.13 0.128968 5.99961 0
M  V30 2139 H 198.2 0.837052 4.77621 0
M  V30 2140 N 199.544 -1.57102 0.125237 0
M  V30 2141 C 200.792 -1.95021 -0.530198 0
M  V30 2142 C 201.113 -1.00982 -1.66816 0
M  V30 2143 O 200.383 -0.0672693 -1.95784 0
M  V30 2144 H 198.963 -0.720046 -0.198853 0
M  V30 2145 H 201.625 -1.93916 0.19564 0
M  V30 2146 H 200.721 -2.98211 -0.920681 0
M  V30 2147 N 201.022 0.148545 -1.56898 0
M  V30 2148 C 201.952 1.18524 -2.01182 0
M  V30 2149 C 202.933 1.4489 -0.891123 0
M  V30 2150 O 204.118 1.55836 -1.15882 0
M  V30 2151 C 201.248 2.51879 -2.39112 0
M  V30 2152 C 200.202 2.40038 -3.54353 0
M  V30 2153 C 199.528 3.78089 -3.78091 0
M  V30 2154 C 200.828 1.88577 -4.87069 0
M  V30 2155 H 202.522 0.817029 -2.88036 0
M  V30 2156 H 200.068 0.391575 -1.38574 0
M  V30 2157 H 202.021 3.24627 -2.68692 0
M  V30 2158 H 200.745 2.90532 -1.49193 0
M  V30 2159 H 199.404 1.69742 -3.24936 0
M  V30 2160 H 199.052 4.14175 -2.85426 0
M  V30 2161 H 198.752 3.71028 -4.55645 0
M  V30 2162 H 200.276 4.52387 -4.10095 0
M  V30 2163 H 201.69 2.51117 -5.15377 0
M  V30 2164 H 200.087 1.9241 -5.68417 0
M  V30 2165 H 201.157 0.84136 -4.77545 0
M  V30 2166 N 202.5 1.5196 0.417844 0
M  V30 2167 C 203.463 1.74065 1.49111 0
M  V30 2168 C 204.463 0.610537 1.48758 0
M  V30 2169 O 205.653 0.87832 1.50437 0
M  V30 2170 C 202.785 1.81502 2.88565 0
M  V30 2171 H 203.978 2.69869 1.30807 0
M  V30 2172 H 201.531 1.42244 0.647785 0
M  V30 2173 H 202.266 0.875813 3.1225 0
M  V30 2174 H 202.051 2.63651 2.90225 0
M  V30 2175 H 203.541 2.00376 3.66387 0
M  V30 2176 N 203.978 -0.674533 1.42435 0
M  V30 2177 C 205.224 -1.43671 1.43131 0
M  V30 2178 C 205.557 -1.94142 0.0476021 0
M  V30 2179 O 204.832 -1.70924 -0.928188 0
M  V30 2180 C 205.115 -2.63355 2.45594 0
M  V30 2181 C 204.968 -2.18514 3.93156 0
M  V30 2182 C 206.287 -3.65571 2.45043 0
M  V30 2183 H 203.406 -0.521077 0.521198 0
M  V30 2184 H 206.048 -0.766551 1.7385 0
M  V30 2185 H 204.198 -3.2053 2.19528 0
M  V30 2186 H 205.87 -1.66504 4.30202 0
M  V30 2187 H 204.113 -1.50086 4.07009 0
M  V30 2188 H 204.784 -3.04484 4.60428 0
M  V30 2189 H 207.26 -3.18113 2.68223 0
M  V30 2190 H 206.136 -4.46893 3.18713 0
M  V30 2191 H 206.397 -4.16716 1.47649 0
M  V30 2192 N 205.456 -1.28612 -0.910864 0
M  V30 2193 C 206.704 -1.15705 -1.65701 0
M  V30 2194 C 207.025 0.29416 -1.92769 0
M  V30 2195 O 206.295 1.20331 -1.54588 0
M  V30 2196 H 204.875 -0.425216 -0.614167 0
M  V30 2197 H 207.537 -1.61381 -1.0928 0
M  V30 2198 H 206.633 -1.6988 -2.61815 0
M  V30 2199 N 206.934 1.1197 -1.10907 0
M  V30 2200 C 208.181 1.83588 -0.854507 0
M  V30 2201 C 208.509 1.84357 0.6199 0
M  V30 2202 O 207.764 1.28809 1.47332 0
M  V30 2203 C 208.063 3.30749 -1.35425 0
M  V30 2204 C 207.729 3.50146 -2.84093 0
M  V30 2205 C 206.391 3.55148 -3.2469 0
M  V30 2206 C 208.743 3.56857 -3.79872 0
M  V30 2207 C 206.071 3.6441 -4.59806 0
M  V30 2208 C 208.423 3.6765 -5.14797 0
M  V30 2209 C 207.087 3.7091 -5.54961 0
M  V30 2210 H 206.357 0.671795 -0.312686 0
M  V30 2211 H 209.004 1.32091 -1.38652 0
M  V30 2212 H 207.309 3.84703 -0.742361 0
M  V30 2213 H 209.006 3.8464 -1.1337 0
M  V30 2214 H 205.596 3.46919 -2.51685 0
M  V30 2215 H 209.78 3.52258 -3.49611 0
M  V30 2216 H 205.036 3.65208 -4.9034 0
M  V30 2217 H 209.21 3.71786 -5.88853 0
M  V30 2218 H 206.837 3.7784 -6.59652 0
M  V30 2219 N 208.412 0.89855 1.29475 0
M  V30 2220 C 209.637 0.538561 2.00285 0
M  V30 2221 C 210.062 -0.869135 1.66816 0
M  V30 2222 O 209.42 -1.57831 0.892145 0
M  V30 2223 C 209.468 0.736475 3.52999 0
M  V30 2224 O 208.572 -0.211537 4.11857 0
M  V30 2225 H 207.913 0.210563 0.62973 0
M  V30 2226 H 210.443 1.20982 1.64998 0
M  V30 2227 H 210.453 0.640685 4.02938 0
M  V30 2228 H 209.128 1.76276 3.76696 0
M  V30 2229 H 207.705 -0.0682991 3.72837 0
M  V30 2230 N 209.89 -1.43072 0.660911 0
M  V30 2231 C 210.82 -2.33497 -0.0122829 0
M  V30 2232 C 211.801 -1.49903 -0.803925 0
M  V30 2233 O 212.986 -1.78546 -0.763864 0
M  V30 2234 C 210.116 -3.33363 -0.973994 0
M  V30 2235 C 209.07 -4.27003 -0.291928 0
M  V30 2236 C 208.396 -5.16967 -1.36562 0
M  V30 2237 C 209.696 -5.15816 0.820462 0
M  V30 2238 H 211.39 -2.90038 0.742873 0
M  V30 2239 H 208.936 -1.39461 0.358688 0
M  V30 2240 H 210.889 -3.95524 -1.45392 0
M  V30 2241 H 209.613 -2.75095 -1.7604 0
M  V30 2242 H 208.272 -3.66217 0.167623 0
M  V30 2243 H 207.92 -4.55034 -2.14366 0
M  V30 2244 H 207.62 -5.80441 -0.914454 0
M  V30 2245 H 209.144 -5.82003 -1.84675 0
M  V30 2246 H 210.558 -5.71742 0.422366 0
M  V30 2247 H 208.955 -5.8805 1.19656 0
M  V30 2248 H 210.025 -4.55045 1.67518 0
M  V30 2249 N 211.368 -0.403325 -1.52352 0
M  V30 2250 C 212.614 0.174605 -2.02047 0
M  V30 2251 C 212.947 1.45282 -1.28867 0
M  V30 2252 O 212.222 1.90483 -0.393257 0
M  V30 2253 C 212.505 0.428238 -3.57545 0
M  V30 2254 C 212.358 -0.866248 -4.4138 0
M  V30 2255 C 213.677 1.21287 -4.23057 0
M  V30 2256 H 210.796 0.0619851 -0.734389 0
M  V30 2257 H 213.438 -0.53565 -1.82293 0
M  V30 2258 H 211.588 1.03327 -3.74507 0
M  V30 2259 H 213.26 -1.50265 -4.3614 0
M  V30 2260 H 211.503 -1.47851 -4.07827 0
M  V30 2261 H 212.174 -0.643249 -5.48239 0
M  V30 2262 H 214.65 0.700703 -4.10158 0
M  V30 2263 H 213.526 1.35909 -5.31808 0
M  V30 2264 H 213.787 2.23193 -3.81625 0
M  V30 2265 N 212.846 1.57033 -0.133567 0
M  V30 2266 C 213.778 2.13176 0.841944 0
M  V30 2267 C 214.791 1.07794 1.22001 0
M  V30 2268 O 215.98 1.35117 1.16643 0
M  V30 2269 C 213.08 2.62847 2.13926 0
M  V30 2270 C 212.253 3.92486 1.93064 0
M  V30 2271 C 211.312 4.27605 3.0666 0
M  V30 2272 O 210.338 4.96168 2.78937 0
M  V30 2273 N 211.54 3.861 4.33483 0
M  V30 2274 H 214.305 2.97503 0.362192 0
M  V30 2275 H 211.866 1.61821 0.05042 0
M  V30 2276 H 213.858 2.83363 2.88942 0
M  V30 2277 H 212.428 1.83319 2.53205 0
M  V30 2278 H 211.648 3.80732 1.02159 0
M  V30 2279 H 212.936 4.77225 1.76447 0
M  V30 2280 H 212.334 3.30828 4.58878 0
M  V30 2281 H 210.891 4.11694 5.05323 0
M  V30 2282 N 214.325 -0.140222 1.56975 0
M  V30 2283 C 215.602 -0.880769 1.74648 0
M  V30 2284 C 215.982 -1.99036 0.703404 0
M  V30 2285 O 215.33 -2.26821 -0.27648 0
M  V30 2286 C 215.54 -1.417 3.18939 0
M  V30 2287 C 216.888 -1.87774 3.80823 0
M  V30 2288 O 217.912 -1.51427 3.2241 0
M  V30 2289 O 216.771 -2.54827 4.83452 0
M  V30 2290 H 213.865 -0.416713 0.714338 0
M  V30 2291 H 216.411 -0.125618 1.69234 0
M  V30 2292 H 215.183 -0.619902 3.86359 0
M  V30 2293 H 214.806 -2.23546 3.28805 0
M  V30 2294 N 215.803 -1.52179 -0.40978 0
M  V30 2295 C 217.049 -1.66453 -1.15851 0
M  V30 2296 C 217.382 -0.392972 -1.90182 0
M  V30 2297 O 216.657 0.608579 -1.84734 0
M  V30 2298 C 216.94 -2.88612 -2.15349 0
M  V30 2299 C 216.793 -4.25815 -1.44918 0
M  V30 2300 C 218.112 -3.06294 -3.16026 0
M  V30 2301 H 215.231 -0.60575 -0.419805 0
M  V30 2302 H 217.873 -1.84732 -0.444314 0
M  V30 2303 H 216.023 -2.73158 -2.76255 0
M  V30 2304 H 217.695 -4.52995 -0.871365 0
M  V30 2305 H 215.938 -4.27247 -0.751159 0
M  V30 2306 H 216.609 -5.07337 -2.17516 0
M  V30 2307 H 219.085 -3.20641 -2.65195 0
M  V30 2308 H 217.961 -3.93283 -3.8291 0
M  V30 2309 H 218.222 -2.19579 -3.83715 0
M  V30 2310 N 217.281 0.66697 -1.42791 0
M  V30 2311 C 218.53 1.42278 -1.42968 0
M  V30 2312 C 218.843 1.9553 -0.0524489 0
M  V30 2313 O 220.049 2.71414 0.068363 0
M  V30 2314 C 218.505 2.57418 -2.51524 0
M  V30 2315 C 218.113 2.10832 -3.9529 0
M  V30 2316 C 219.857 3.34878 -2.60877 0
M  V30 2317 C 217.764 3.23101 -4.95338 0
M  V30 2318 H 216.694 0.534533 -0.531781 0
M  V30 2319 H 219.345 0.721302 -1.68729 0
M  V30 2320 H 217.727 3.29971 -2.18941 0
M  V30 2321 H 218.901 1.4538 -4.37266 0
M  V30 2322 H 217.216 1.46289 -3.89857 0
M  V30 2323 H 219.813 4.18505 -3.32802 0
M  V30 2324 H 220.156 3.81993 -1.6549 0
M  V30 2325 H 220.689 2.69398 -2.92693 0
M  V30 2326 H 217.428 2.80969 -5.9223 0
M  V30 2327 H 216.948 3.87309 -4.57987 0
M  V30 2328 H 218.627 3.88447 -5.17415 0
M  V30 2329 N 218.759 1.29093 0.90403 0
M  V30 2330 C 219.722 1.1386 1.98919 0
M  V30 2331 C 220.722 0.0753457 1.60623 0
M  V30 2332 O 221.912 0.321931 1.71199 0
M  V30 2333 C 219.044 0.740198 3.32767 0
M  V30 2334 H 220.237 2.10246 2.13861 0
M  V30 2335 H 217.79 1.12218 1.08797 0
M  V30 2336 H 218.525 -0.223997 3.23525 0
M  V30 2337 H 218.31 1.50838 3.61926 0
M  V30 2338 H 219.8 0.656546 4.12407 0
M  V30 2339 N 220.237 -1.11381 1.11499 0
M  V30 2340 C 221.486 -1.82494 0.858993 0
M  V30 2341 C 221.799 -1.85605 -0.617278 0
M  V30 2342 O 223.005 -2.52824 -0.989552 0
M  V30 2343 C 221.461 -3.27745 1.48699 0
M  V30 2344 C 221.069 -3.32961 2.99735 0
M  V30 2345 C 222.813 -4.03754 1.31085 0
M  V30 2346 C 220.72 -4.72612 3.55516 0
M  V30 2347 H 219.65 -0.683802 0.317696 0
M  V30 2348 H 222.301 -1.25331 1.34031 0
M  V30 2349 H 220.683 -3.84844 0.933339 0
M  V30 2350 H 221.857 -2.85741 3.61509 0
M  V30 2351 H 220.172 -2.70433 3.16631 0
M  V30 2352 H 222.769 -5.06891 1.70192 0
M  V30 2353 H 223.112 -4.15527 0.253496 0
M  V30 2354 H 223.645 -3.53043 1.83318 0
M  V30 2355 H 220.384 -4.66036 4.60967 0
M  V30 2356 H 219.904 -5.2024 2.98513 0
M  V30 2357 H 221.583 -5.4157 3.53992 0
M  V30 2358 N 221.715 -0.905404 -1.28997 0
M  V30 2359 C 222.625 -0.392246 -2.31298 0
M  V30 2360 C 223.641 0.515889 -1.66176 0
M  V30 2361 O 224.817 0.404093 -1.97304 0
M  V30 2362 C 221.882 0.36686 -3.44754 0
M  V30 2363 C 220.943 -0.573485 -4.25452 0
M  V30 2364 C 220.176 0.149488 -5.33491 0
M  V30 2365 O 220.399 1.37255 -5.5364 0
M  V30 2366 O 219.333 -0.510919 -5.99728 0
M  V30 2367 H 223.159 -1.2411 -2.77183 0
M  V30 2368 H 220.744 -0.669926 -1.33538 0
M  V30 2369 H 222.626 0.795907 -4.13816 0
M  V30 2370 H 221.301 1.19169 -3.00966 0
M  V30 2371 H 220.208 -1.05176 -3.59011 0
M  V30 2372 H 221.541 -1.36489 -4.72897 0
M  V30 2373 N 223.193 1.4272 -0.668489 0
M  V30 2374 C 224.423 2.05668 -0.196063 0
M  V30 2375 C 224.831 1.5028 1.14946 0
M  V30 2376 O 224.174 0.6348 1.72383 0
M  V30 2377 C 224.236 3.59469 -0.0468879 0
M  V30 2378 C 223.9 4.37518 -1.32012 0
M  V30 2379 C 224.897 4.68584 -2.25222 0
M  V30 2380 C 222.582 4.77266 -1.56596 0
M  V30 2381 C 224.576 5.38326 -3.41297 0
M  V30 2382 C 222.263 5.4675 -2.72962 0
M  V30 2383 C 223.261 5.77204 -3.65137 0
M  V30 2384 O 222.949 6.45264 -4.79468 0
M  V30 2385 H 222.681 0.669382 -0.0943599 0
M  V30 2386 H 225.235 1.83954 -0.913788 0
M  V30 2387 H 223.465 3.79817 0.726357 0
M  V30 2388 H 225.154 4.04071 0.384852 0
M  V30 2389 H 225.92 4.38382 -2.07477 0
M  V30 2390 H 221.799 4.52959 -0.857249 0
M  V30 2391 H 225.343 5.62014 -4.13263 0
M  V30 2392 H 221.24 5.76369 -2.90635 0
M  V30 2393 H 222.008 6.63753 -4.78931 0
M  V30 2394 N 224.671 0.411399 1.52136 0
M  V30 2395 C 225.92 -0.165009 2.01024 0
M  V30 2396 C 226.233 -1.4603 1.30133 0
M  V30 2397 O 227.439 -2.1181 1.69849 0
M  V30 2398 C 225.895 -0.344618 3.58246 0
M  V30 2399 C 225.503 0.938716 4.38055 0
M  V30 2400 C 227.247 -0.876195 4.15359 0
M  V30 2401 C 225.154 0.726172 5.86925 0
M  V30 2402 H 224.084 -0.0654407 0.751155 0
M  V30 2403 H 226.735 0.537192 1.75461 0
M  V30 2404 H 225.117 -1.10921 3.80148 0
M  V30 2405 H 226.291 1.70963 4.27912 0
M  V30 2406 H 224.606 1.39688 3.92271 0
M  V30 2407 H 227.203 -1.05128 5.24263 0
M  V30 2408 H 227.546 -1.85152 3.7286 0
M  V30 2409 H 228.079 -0.170607 3.97434 0
M  V30 2410 H 224.818 1.67312 6.33788 0
M  V30 2411 H 224.338 -0.00540283 5.998 0
M  V30 2412 H 226.017 0.369231 6.45946 0
M  V30 2413 N 226.149 -1.5696 0.141893 0
M  V30 2414 C 227.395 -1.9625 -0.511248 0
M  V30 2415 C 227.728 -1.02654 -1.64851 0
M  V30 2416 O 227.003 -0.0679676 -1.94381 0
M  V30 2417 C 227.286 -3.45285 -1.02227 0
M  V30 2418 C 227.139 -4.49658 0.113138 0
M  V30 2419 C 228.458 -3.96698 -1.90574 0
M  V30 2420 H 225.577 -0.713567 -0.184367 0
M  V30 2421 H 228.219 -1.88698 0.222087 0
M  V30 2422 H 226.369 -3.51852 -1.64719 0
M  V30 2423 H 228.041 -4.55174 0.749302 0
M  V30 2424 H 226.284 -4.26857 0.773026 0
M  V30 2425 H 226.955 -5.51258 -0.286053 0
M  V30 2426 H 229.431 -3.92578 -1.37918 0
M  V30 2427 H 228.307 -5.01453 -2.2324 0
M  V30 2428 H 228.568 -3.3875 -2.84079 0
M  V30 2429 N 227.627 0.131896 -1.57047 0
M  V30 2430 C 228.557 1.16384 -2.02428 0
M  V30 2431 C 229.538 1.43936 -0.90644 0
M  V30 2432 O 230.723 1.54599 -1.17528 0
M  V30 2433 C 227.853 2.49328 -2.4177 0
M  V30 2434 C 226.807 2.36266 -3.56879 0
M  V30 2435 C 226.133 3.74057 -3.8208 0
M  V30 2436 C 227.433 1.834 -4.89042 0
M  V30 2437 H 229.127 0.786433 -2.88887 0
M  V30 2438 H 226.673 0.376855 -1.38981 0
M  V30 2439 H 228.626 3.21759 -2.7212 0
M  V30 2440 H 227.35 2.88934 -1.52266 0
M  V30 2441 H 226.009 1.66286 -3.26718 0
M  V30 2442 H 225.657 4.11125 -2.89803 0
M  V30 2443 H 225.357 3.66174 -4.59554 0
M  V30 2444 H 226.881 4.48012 -4.1487 0
M  V30 2445 H 228.295 2.45636 -5.18011 0
M  V30 2446 H 226.692 1.8637 -5.70426 0
M  V30 2447 H 227.762 0.790662 -4.7841 0
M  V30 2448 N 229.106 1.52395 0.401703 0
M  V30 2449 C 230.334 1.70676 1.16949 0
M  V30 2450 C 230.749 0.419503 1.8408 0
M  V30 2451 O 230.106 -0.605061 1.72178 0
M  V30 2452 C 230.157 2.84753 2.22706 0
M  V30 2453 O 229.878 4.08495 1.58314 0
M  V30 2454 C 231.379 3.14608 3.12309 0
M  V30 2455 H 228.599 0.571787 0.351142 0
M  V30 2456 H 231.143 1.98987 0.471652 0
M  V30 2457 H 229.298 2.58941 2.88147 0
M  V30 2458 H 229.712 4.72117 2.28485 0
M  V30 2459 H 231.186 3.97923 3.82572 0
M  V30 2460 H 231.663 2.28464 3.75101 0
M  V30 2461 H 232.269 3.42212 2.52529 0
M  V30 2462 N 230.584 -0.659388 1.43143 0
M  V30 2463 C 231.517 -1.78425 1.42267 0
M  V30 2464 C 232.495 -1.60085 0.284894 0
M  V30 2465 O 233.679 -1.82351 0.477527 0
M  V30 2466 C 230.806 -3.15642 1.22833 0
M  V30 2467 C 229.852 -3.52698 2.39806 0
M  V30 2468 S 230.685 -3.53372 4.02353 0
M  V30 2469 C 231.841 -4.93256 3.85291 0
M  V30 2470 H 232.074 -1.78897 2.37452 0
M  V30 2471 H 229.607 -0.831469 1.301 0
M  V30 2472 H 231.565 -3.94838 1.12308 0
M  V30 2473 H 230.226 -3.12739 0.29207 0
M  V30 2474 H 229.419 -4.52475 2.21996 0
M  V30 2475 H 229.021 -2.80899 2.46925 0
M  V30 2476 H 231.313 -5.81751 3.47235 0
M  V30 2477 H 232.256 -5.16115 4.84799 0
M  V30 2478 H 232.664 -4.665 3.17865 0
M  V30 2479 N 232.062 -1.29571 -0.897171 0
M  V30 2480 C 233.01 -1.14802 -2.02295 0
M  V30 2481 C 234.004 -0.0629637 -1.69283 0
M  V30 2482 O 235.21 -0.222945 -1.78614 0
M  V30 2483 H 231.585 -0.354692 -0.663097 0
M  V30 2484 H 233.556 -2.10108 -2.11889 0
M  V30 2485 C 232.305 -0.843966 -3.37302 0
M  V30 2486 H 231.628 -1.67093 -3.63208 0
M  V30 2487 H 233.068 -0.780672 -4.16751 0
M  V30 2488 C 231.527 0.452843 -3.33843 0
M  V30 2489 O 232.057 1.47813 -3.73516 0
M  V30 2490 N 230.263 0.459601 -2.86943 0
M  V30 2491 H 229.81 -0.375213 -2.54853 0
M  V30 2492 H 229.768 1.32726 -2.85011 0
M  V30 2493 N 233.54 1.10788 -1.12088 0
M  V30 2494 C 234.956 1.34691 -0.856186 0
M  V30 2495 C 235.156 1.94791 0.515615 0
M  V30 2496 O 234.212 2.18524 1.26505 0
M  V30 2497 C 235.525 2.27208 -1.9697 0
M  V30 2498 C 237.073 2.40755 -2.00016 0
M  V30 2499 C 237.548 3.36598 -3.1059 0
M  V30 2500 N 239.039 3.44164 -3.10008 0
M  V30 2501 C 239.774 4.18284 -3.92206 0
M  V30 2502 N 239.27 4.95322 -4.84384 0
M  V30 2503 N 241.063 4.13865 -3.80357 0
M  V30 2504 H 233.214 0.70144 -2.00483 0
M  V30 2505 H 235.477 0.371405 -0.872217 0
M  V30 2506 H 235.183 1.90251 -2.958 0
M  V30 2507 H 235.057 3.27485 -1.87172 0
M  V30 2508 H 237.444 2.76982 -1.01808 0
M  V30 2509 H 237.525 1.40305 -2.13888 0
M  V30 2510 H 237.169 3.01096 -4.09028 0
M  V30 2511 H 237.099 4.36918 -2.93956 0
M  V30 2512 H 239.59 2.8922 -2.43228 0
M  V30 2513 H 239.903 5.49267 -5.43623 0
M  V30 2514 H 238.248 4.94459 -4.884 0
M  V30 2515 H 241.439 3.52773 -3.07683 0
M  V30 2516 H 241.612 4.71372 -4.44649 0
M  V30 2517 N 235.018 0.912232 1.28515 0
M  V30 2518 C 236.246 0.560416 1.99166 0
M  V30 2519 C 236.661 -0.857927 1.68182 0
M  V30 2520 O 236.018 -1.56805 0.933733 0
M  V30 2521 C 236.069 0.758142 3.53461 0
M  V30 2522 O 235.79 2.12067 3.83352 0
M  V30 2523 C 237.291 0.412954 4.41372 0
M  V30 2524 H 234.511 0.213805 0.636026 0
M  V30 2525 H 237.055 1.22502 1.63749 0
M  V30 2526 H 235.21 0.140556 3.87145 0
M  V30 2527 H 235.624 2.15923 4.77993 0
M  V30 2528 H 237.098 0.60208 5.48707 0
M  V30 2529 H 237.575 -0.65073 4.34353 0
M  V30 2530 H 238.181 1.00802 4.13182 0
M  V30 2531 N 236.496 -1.42363 0.676048 0
M  V30 2532 C 237.444 -2.32596 -0.0131507 0
M  V30 2533 C 238.438 -1.49891 -0.789238 0
M  V30 2534 O 239.644 -1.65955 -0.697061 0
M  V30 2535 H 236.019 -0.751647 -0.0230481 0
M  V30 2536 H 237.99 -2.88421 0.765243 0
M  V30 2537 C 236.739 -3.34479 -0.949702 0
M  V30 2538 H 236.062 -3.98158 -0.361938 0
M  V30 2539 H 237.502 -4.00199 -1.4006 0
M  V30 2540 C 235.961 -2.66838 -2.05667 0
M  V30 2541 O 236.491 -2.50124 -3.14326 0
M  V30 2542 N 234.697 -2.25843 -1.82875 0
M  V30 2543 H 234.244 -2.39637 -0.945085 0
M  V30 2544 H 234.202 -1.80918 -2.5713 0
M  V30 2545 N 237.974 -0.419461 -1.51915 0
M  V30 2546 C 239.22 0.153166 -2.02221 0
M  V30 2547 C 239.553 1.43907 -1.30401 0
M  V30 2548 O 238.828 1.90055 -0.413438 0
M  V30 2549 C 239.111 0.390291 -3.57979 0
M  V30 2550 C 238.964 -0.913014 -4.40436 0
M  V30 2551 C 240.283 1.16794 -4.2432 0
M  V30 2552 H 237.402 0.0541924 -0.735005 0
M  V30 2553 H 240.044 -0.554955 -1.81715 0
M  V30 2554 H 238.194 0.993491 -3.75582 0
M  V30 2555 H 239.866 -1.54882 -4.34522 0
M  V30 2556 H 238.109 -1.52168 -4.06236 0
M  V30 2557 H 238.78 -0.701361 -5.47526 0
M  V30 2558 H 241.256 0.657161 -4.10878 0
M  V30 2559 H 240.132 1.3026 -5.3322 0
M  V30 2560 H 240.393 2.19132 -3.83971 0
M  V30 2561 N 239.452 1.56882 -0.150215 0
M  V30 2562 C 240.4 2.18214 0.805313 0
M  V30 2563 C 241.394 1.14006 1.25296 0
M  V30 2564 O 242.6 1.3225 1.22107 0
M  V30 2565 H 238.975 0.698762 0.277913 0
M  V30 2566 H 240.946 2.97231 0.263862 0
M  V30 2567 C 239.695 2.82065 2.03309 0
M  V30 2568 H 239.018 3.61968 1.69763 0
M  V30 2569 H 240.458 3.28477 2.68103 0
M  V30 2570 C 238.917 1.80739 2.84315 0
M  V30 2571 O 239.447 1.27983 3.80767 0
M  V30 2572 N 237.653 1.4997 2.48913 0
M  V30 2573 H 237.2 1.93062 1.70542 0
M  V30 2574 H 237.158 0.824217 3.03404 0
M  V30 2575 N 240.93 -0.123565 1.57115 0
M  V30 2576 C 242.176 -0.833386 1.84885 0
M  V30 2577 C 242.509 -1.79742 0.735292 0
M  V30 2578 O 241.784 -1.92764 -0.25925 0
M  V30 2579 C 242.067 -1.5873 3.23228 0
M  V30 2580 C 241.92 -0.643183 4.45178 0
M  V30 2581 C 243.239 -2.54453 3.59085 0
M  V30 2582 H 240.358 -0.301518 0.6725 0
M  V30 2583 H 243 -0.097778 1.89748 0
M  V30 2584 H 241.15 -2.21438 3.19214 0
M  V30 2585 H 242.822 -0.0253015 4.61293 0
M  V30 2586 H 241.065 0.0456139 4.33776 0
M  V30 2587 H 241.736 -1.20724 5.38637 0
M  V30 2588 H 244.212 -2.01853 3.63861 0
M  V30 2589 H 243.088 -3.04238 4.5687 0
M  V30 2590 H 243.349 -3.36906 2.86264 0
M  V30 2591 N 242.408 -1.52605 -0.393616 0
M  V30 2592 C 243.655 -1.67424 -1.1391 0
M  V30 2593 C 243.983 -0.411859 -1.90089 0
M  V30 2594 O 243.238 0.605626 -1.86093 0
M  V30 2595 C 243.537 -2.85721 -2.14705 0
M  V30 2596 C 243.203 -4.23342 -1.55218 0
M  V30 2597 C 241.865 -4.60771 -1.3872 0
M  V30 2598 C 244.217 -5.09041 -1.11924 0
M  V30 2599 C 241.545 -5.81563 -0.774689 0
M  V30 2600 C 243.897 -6.30452 -0.520853 0
M  V30 2601 C 242.561 -6.66617 -0.343134 0
M  V30 2602 H 241.831 -0.612648 -0.416826 0
M  V30 2603 H 244.478 -1.8674 -0.424315 0
M  V30 2604 H 242.783 -2.60803 -2.92385 0
M  V30 2605 H 244.48 -2.94382 -2.72288 0
M  V30 2606 H 241.07 -3.93855 -1.69045 0
M  V30 2607 H 245.254 -4.80695 -1.23473 0
M  V30 2608 H 240.51 -6.08196 -0.625154 0
M  V30 2609 H 244.684 -6.96175 -0.177065 0
M  V30 2610 H 242.311 -7.60083 0.133571 0
M  V30 2611 N 243.887 0.651787 -1.4349 0
M  V30 2612 C 245.112 1.44434 -1.48841 0
M  V30 2613 C 245.537 1.8779 -0.107955 0
M  V30 2614 O 244.895 1.57464 0.898602 0
M  V30 2615 C 244.943 2.65458 -2.44059 0
M  V30 2616 O 244.047 3.64566 -1.92784 0
M  V30 2617 H 243.388 0.433005 -0.503391 0
M  V30 2618 H 245.918 0.797451 -1.88419 0
M  V30 2619 H 245.928 3.13255 -2.6141 0
M  V30 2620 H 244.603 2.33244 -3.4434 0
M  V30 2621 H 243.18 3.23716 -1.851 0
M  V30 2622 N 245.365 1.30045 0.890287 0
M  V30 2623 C 246.275 1.17885 2.02831 0
M  V30 2624 C 247.291 0.0999609 1.73713 0
M  V30 2625 O 248.467 0.313867 1.98939 0
M  V30 2626 C 245.532 0.866079 3.35708 0
M  V30 2627 C 244.593 2.02979 3.78283 0
M  V30 2628 C 243.826 1.73184 5.0482 0
M  V30 2629 O 244.049 0.657237 5.66601 0
M  V30 2630 O 242.983 2.58267 5.43674 0
M  V30 2631 H 246.809 2.13474 2.16015 0
M  V30 2632 H 244.394 1.09587 1.01543 0
M  V30 2633 H 246.276 0.706623 4.15433 0
M  V30 2634 H 244.951 -0.0599443 3.23644 0
M  V30 2635 H 243.858 2.24454 2.99285 0
M  V30 2636 H 245.191 2.93734 3.94944 0
M  V30 2637 N 246.843 -1.10192 1.12674 0
M  V30 2638 C 247.773 -2.18652 0.819362 0
M  V30 2639 C 248.754 -1.68698 -0.217915 0
M  V30 2640 O 249.939 -1.94041 -0.0785581 0
M  V30 2641 C 247.069 -3.46202 0.27594 0
M  V30 2642 C 246.023 -4.09444 1.24656 0
M  V30 2643 C 245.349 -5.31725 0.563258 0
M  V30 2644 C 246.649 -4.52863 2.60217 0
M  V30 2645 H 248.343 -2.44622 1.72628 0
M  V30 2646 H 245.889 -1.17571 0.831451 0
M  V30 2647 H 247.842 -4.21372 0.0486149 0
M  V30 2648 H 246.566 -3.1973 -0.666331 0
M  V30 2649 H 245.225 -3.36284 1.45974 0
M  V30 2650 H 244.873 -5.0153 -0.384235 0
M  V30 2651 H 244.573 -5.74991 1.21075 0
M  V30 2652 H 246.097 -6.09624 0.34503 0
M  V30 2653 H 247.511 -5.19294 2.42913 0
M  V30 2654 H 245.908 -5.06986 3.21068 0
M  V30 2655 H 246.978 -3.65656 3.18471 0
M  V30 2656 N 248.321 -0.919034 -1.28029 0
M  V30 2657 C 249.546 -0.570357 -1.99403 0
M  V30 2658 C 249.971 0.842486 -1.68178 0
M  V30 2659 O 249.329 1.56391 -0.917141 0
M  V30 2660 C 249.377 -0.792541 -3.51783 0
M  V30 2661 O 248.481 0.145988 -4.12142 0
M  V30 2662 H 247.822 -0.220555 -0.6263 0
M  V30 2663 H 250.352 -1.23592 -1.63053 0
M  V30 2664 H 250.362 -0.704708 -4.01868 0
M  V30 2665 H 249.037 -1.82247 -3.73844 0
M  V30 2666 H 247.614 0.00897528 -3.72899 0
M  V30 2667 N 249.799 1.42003 -0.683588 0
M  V30 2668 C 250.762 2.29191 -0.0198243 0
M  V30 2669 C 251.762 1.43773 0.72013 0
M  V30 2670 O 252.952 1.65061 0.556815 0
M  V30 2671 C 250.084 3.26435 0.982487 0
M  V30 2672 H 251.277 2.8938 -0.787345 0
M  V30 2673 H 248.83 1.49789 -0.446418 0
M  V30 2674 H 249.565 2.71203 1.77819 0
M  V30 2675 H 249.35 3.89449 0.455182 0
M  V30 2676 H 250.84 3.918 1.44508 0
M  V30 2677 N 251.277 0.427512 1.51691 0
M  V30 2678 C 252.688 -0.0378867 1.86662 0
M  V30 2679 C 253.039 -1.42819 1.34525 0
M  V30 2680 O 252.164 -2.05037 0.692014 0
M  V30 2681 C 252.759 -0.0755266 3.38716 0
M  V30 2682 C 251.318 -0.485309 3.73258 0
M  V30 2683 C 250.465 0.328399 2.75349 0
M  V30 2684 H 253.416 0.64379 1.45055 0
M  V30 2685 H 253.437 -0.887056 3.70016 0
M  V30 2686 H 252.949 0.936487 3.76632 0
M  V30 2687 H 251.05 -1.50329 3.40928 0
M  V30 2688 H 251.163 -0.21693 4.78609 0
M  V30 2689 H 249.527 -0.211905 2.53817 0
M  V30 2690 H 250.31 1.3391 3.16106 0
M  V30 2691 N 252.755 -1.56801 0.158532 0
M  V30 2692 C 254.171 -1.5837 -0.197774 0
M  V30 2693 C 254.371 -1.17334 -1.63814 0
M  V30 2694 O 253.427 -0.878988 -2.36707 0
M  V30 2695 C 254.74 -3.00615 0.0714459 0
M  V30 2696 C 256.288 -3.12999 0.00864533 0
M  V30 2697 C 256.763 -4.57313 0.250685 0
M  V30 2698 N 258.254 -4.62777 0.198014 0
M  V30 2699 C 258.989 -5.72271 0.359642 0
M  V30 2700 N 258.485 -6.90371 0.579625 0
M  V30 2701 N 260.278 -5.61318 0.296438 0
M  V30 2702 H 252.429 -1.81765 1.09887 0
M  V30 2703 H 254.692 -0.841849 0.435884 0
M  V30 2704 H 254.398 -3.35068 1.06874 0
M  V30 2705 H 254.272 -3.71683 -0.642757 0
M  V30 2706 H 256.659 -2.7838 -0.979217 0
M  V30 2707 H 256.74 -2.44393 0.755359 0
M  V30 2708 H 256.384 -4.92639 1.2357 0
M  V30 2709 H 256.314 -5.24061 -0.516489 0
M  V30 2710 H 258.805 -3.77885 0.0331115 0
M  V30 2711 H 259.118 -7.69689 0.69275 0
M  V30 2712 H 257.463 -6.92264 0.616087 0
M  V30 2713 H 260.654 -4.67932 0.125258 0
M  V30 2714 H 260.827 -6.46599 0.425831 0
M  V30 2715 N 254.233 0.115231 -1.57178 0
M  V30 2716 C 255.649 0.468877 -1.52557 0
M  V30 2717 C 255.849 1.81649 -0.872125 0
M  V30 2718 O 254.905 2.48347 -0.45606 0
M  V30 2719 C 256.218 0.4499 -2.97315 0
M  V30 2720 C 257.766 0.533185 -3.08425 0
M  V30 2721 C 258.241 0.54456 -4.54751 0
M  V30 2722 N 259.732 0.605892 -4.5922 0
M  V30 2723 C 260.467 0.636203 -5.6986 0
M  V30 2724 N 259.963 0.623931 -6.89985 0
M  V30 2725 N 261.756 0.679496 -5.57978 0
M  V30 2726 H 253.907 -0.767712 -1.9804 0
M  V30 2727 H 256.17 -0.283609 -0.904583 0
M  V30 2728 H 255.876 -0.472721 -3.48509 0
M  V30 2729 H 255.75 1.27632 -3.5495 0
M  V30 2730 H 258.137 1.44623 -2.57232 0
M  V30 2731 H 258.218 -0.320995 -2.53778 0
M  V30 2732 H 257.862 -0.364452 -5.06591 0
M  V30 2733 H 257.792 1.41568 -5.07214 0
M  V30 2734 H 260.283 0.621386 -3.72756 0
M  V30 2735 H 260.596 0.649787 -7.70063 0
M  V30 2736 H 258.941 0.591296 -6.9248 0
M  V30 2737 H 262.132 0.686472 -4.63039 0
M  V30 2738 H 262.305 0.69965 -6.44212 0
M  V30 2739 N 255.711 1.52812 0.385517 0
M  V30 2740 C 256.659 1.78482 1.49155 0
M  V30 2741 C 257.653 0.652914 1.56312 0
M  V30 2742 O 258.859 0.835464 1.59436 0
M  V30 2743 H 255.234 0.5648 0.496493 0
M  V30 2744 H 257.205 2.71095 1.24699 0
M  V30 2745 C 255.954 1.97378 2.86247 0
M  V30 2746 H 255.277 2.83907 2.81491 0
M  V30 2747 H 256.717 2.19327 3.62866 0
M  V30 2748 C 255.176 0.74728 3.28508 0
M  V30 2749 O 255.706 -0.0736232 4.01633 0
M  V30 2750 N 253.912 0.576396 2.84826 0
M  V30 2751 H 253.459 1.24555 2.25486 0
M  V30 2752 H 253.417 -0.24288 3.1346 0
M  V30 2753 N 257.189 -0.644168 1.43834 0
M  V30 2754 C 258.099 -1.78563 1.52159 0
M  V30 2755 C 259.115 -1.69147 0.408069 0
M  V30 2756 O 260.291 -1.90156 0.663524 0
M  V30 2757 C 257.356 -3.14888 1.45073 0
M  V30 2758 C 256.417 -3.36034 2.6717 0
M  V30 2759 C 255.65 -4.65855 2.60413 0
M  V30 2760 O 255.873 -5.45805 1.65689 0
M  V30 2761 O 254.807 -4.88918 3.5106 0
M  V30 2762 H 258.633 -1.74494 2.48567 0
M  V30 2763 H 256.218 -0.80378 1.25935 0
M  V30 2764 H 258.1 -3.96179 1.43597 0
M  V30 2765 H 256.775 -3.19528 0.518037 0
M  V30 2766 H 255.682 -2.54472 2.74217 0
M  V30 2767 H 257.015 -3.36247 3.59442 0
M  V30 2768 N 258.668 -1.30515 -0.883378 0
M  V30 2769 C 259.945 -1.10086 -1.6168 0
M  V30 2770 C 260.325 0.349269 -2.08191 0
M  V30 2771 O 259.673 1.34105 -1.85008 0
M  V30 2772 C 259.883 -2.10315 -2.78511 0
M  V30 2773 C 261.231 -2.42119 -3.48803 0
M  V30 2774 O 262.255 -2.08638 -2.88702 0
M  V30 2775 O 261.114 -2.99396 -4.57192 0
M  V30 2776 H 258.208 -0.422907 -0.710689 0
M  V30 2777 H 260.754 -1.41947 -0.930015 0
M  V30 2778 H 259.526 -3.07917 -2.41459 0
M  V30 2779 H 259.149 -1.79282 -3.54886 0
M  V30 2780 N 260.146 1.09593 -1.13257 0
M  V30 2781 C 261.393 1.81734 -0.893257 0
M  V30 2782 C 261.721 1.8563 0.580656 0
M  V30 2783 O 260.976 1.31906 1.44566 0
M  V30 2784 C 261.275 3.27802 -1.42411 0
M  V30 2785 C 260.941 3.44041 -2.91456 0
M  V30 2786 C 259.603 3.48181 -3.3215 0
M  V30 2787 C 261.955 3.48719 -3.87356 0
M  V30 2788 C 259.283 3.54575 -4.67433 0
M  V30 2789 C 261.635 3.56648 -5.2248 0
M  V30 2790 C 260.299 3.59055 -5.62704 0
M  V30 2791 H 259.569 0.665011 -0.326866 0
M  V30 2792 H 262.216 1.2912 -1.41422 0
M  V30 2793 H 260.521 3.83042 -0.823795 0
M  V30 2794 H 262.218 3.82149 -1.21503 0
M  V30 2795 H 258.808 3.41502 -2.58987 0
M  V30 2796 H 262.992 3.44763 -3.57004 0
M  V30 2797 H 258.248 3.54725 -4.97976 0
M  V30 2798 H 262.422 3.59212 -5.96607 0
M  V30 2799 H 260.049 3.63763 -6.67518 0
M  V30 2800 N 261.624 0.925811 1.2754 0
M  V30 2801 C 262.87 0.566092 1.94739 0
M  V30 2802 C 263.203 -0.890057 1.72603 0
M  V30 2803 O 262.478 -1.63467 1.05399 0
M  V30 2804 C 262.761 0.89054 3.48915 0
M  V30 2805 C 262.614 2.4003 3.80402 0
M  V30 2806 C 263.933 0.395101 4.38323 0
M  V30 2807 H 261.052 0.20714 0.707292 0
M  V30 2808 H 263.694 1.15725 1.50691 0
M  V30 2809 H 261.844 0.387452 3.86563 0
M  V30 2810 H 263.516 2.97494 3.52555 0
M  V30 2811 H 261.759 2.85028 3.2702 0
M  V30 2812 H 262.43 2.57785 4.8811 0
M  V30 2813 H 264.906 0.826241 4.07814 0
M  V30 2814 H 263.782 0.651086 5.45025 0
M  V30 2815 H 264.043 -0.704798 4.36446 0
M  V30 2816 N 263.102 -1.41638 0.69111 0
M  V30 2817 C 264.032 -2.3347 0.037248 0
M  V30 2818 C 265.013 -1.51575 -0.771947 0
M  V30 2819 O 266.198 -1.80126 -0.72582 0
M  V30 2820 C 263.328 -3.35354 -0.903064 0
M  V30 2821 C 262.282 -4.27526 -0.201288 0
M  V30 2822 C 261.608 -5.19747 -1.25565 0
M  V30 2823 C 262.908 -5.13959 0.929689 0
M  V30 2824 H 264.602 -2.88397 0.804227 0
M  V30 2825 H 262.148 -1.38669 0.388189 0
M  V30 2826 H 264.101 -3.98519 -1.36969 0
M  V30 2827 H 262.825 -2.78767 -1.70166 0
M  V30 2828 H 261.484 -3.65779 0.245265 0
M  V30 2829 H 261.132 -4.59479 -2.04666 0
M  V30 2830 H 260.832 -5.8225 -0.791128 0
M  V30 2831 H 262.356 -5.85789 -1.72288 0
M  V30 2832 H 263.77 -5.70718 0.543546 0
M  V30 2833 H 262.167 -5.85379 1.32103 0
M  V30 2834 H 263.237 -4.51389 1.77133 0
M  V30 2835 N 264.58 -0.43555 -1.51462 0
M  V30 2836 C 265.51 0.367376 -2.30592 0
M  V30 2837 C 266.491 1.02263 -1.35928 0
M  V30 2838 O 267.676 1.02661 -1.64847 0
M  V30 2839 C 264.806 1.46983 -3.14664 0
M  V30 2840 C 263.76 0.938161 -4.17591 0
M  V30 2841 C 263.086 2.13622 -4.90173 0
M  V30 2842 C 264.386 -0.0261621 -5.22293 0
M  V30 2843 H 266.08 -0.292969 -2.97963 0
M  V30 2844 H 263.626 -0.14234 -1.43295 0
M  V30 2845 H 265.579 2.03873 -3.688 0
M  V30 2846 H 264.303 2.15843 -2.4511 0
M  V30 2847 H 262.962 0.391481 -3.64504 0
M  V30 2848 H 262.61 2.81098 -4.17124 0
M  V30 2849 H 262.31 1.78688 -5.59772 0
M  V30 2850 H 263.834 2.7107 -5.47132 0
M  V30 2851 H 265.248 0.452384 -5.71512 0
M  V30 2852 H 263.645 -0.287992 -5.99409 0
M  V30 2853 H 264.715 -0.963391 -4.75233 0
M  V30 2854 N 266.058 1.56714 -0.166846 0
M  V30 2855 C 266.988 2.20754 0.760913 0
M  V30 2856 C 267.969 1.16178 1.24244 0
M  V30 2857 O 269.154 1.44592 1.29641 0
M  V30 2858 C 266.284 2.84478 1.99223 0
M  V30 2859 C 265.238 3.95053 1.64672 0
M  V30 2860 C 264.564 4.45805 2.95232 0
M  V30 2861 C 265.864 5.14865 0.878155 0
M  V30 2862 H 267.558 2.98537 0.22713 0
M  V30 2863 H 265.104 1.43596 0.107805 0
M  V30 2864 H 267.057 3.27951 2.64624 0
M  V30 2865 H 265.781 2.04056 2.55007 0
M  V30 2866 H 264.44 3.52228 1.01641 0
M  V30 2867 H 264.088 3.62181 3.49047 0
M  V30 2868 H 263.788 5.204 2.7287 0
M  V30 2869 H 265.312 4.91962 3.6167 0
M  V30 2870 H 266.726 5.55059 1.43466 0
M  V30 2871 H 265.123 5.95348 0.753738 0
M  V30 2872 H 266.193 4.84735 -0.126377 0
M  V30 2873 N 267.536 -0.106894 1.57237 0
M  V30 2874 C 268.764 -0.826389 1.8968 0
M  V30 2875 C 269.179 -1.72856 0.759353 0
M  V30 2876 O 268.536 -1.80503 -0.269263 0
M  V30 2877 C 268.587 -1.64967 3.21665 0
M  V30 2878 O 268.308 -0.783804 4.31031 0
M  V30 2879 C 269.809 -2.47326 3.67892 0
M  V30 2880 H 267.029 -0.236927 0.627779 0
M  V30 2881 H 269.573 -0.0876593 2.04312 0
M  V30 2882 H 267.728 -2.34103 3.08666 0
M  V30 2883 H 268.142 -1.35284 5.06753 0
M  V30 2884 H 269.616 -3.00604 4.6297 0
M  V30 2885 H 270.093 -3.25247 2.95146 0
M  V30 2886 H 270.699 -1.83411 3.83719 0
M  V30 2887 N 269.014 -1.53014 -0.377408 0
M  V30 2888 C 270.244 -1.72265 -1.14054 0
M  V30 2889 C 270.652 -0.44601 -1.83868 0
M  V30 2890 O 269.995 0.590095 -1.73964 0
M  V30 2891 C 270.057 -2.82492 -2.22348 0
M  V30 2892 C 269.721 -4.23233 -1.72402 0
M  V30 2893 C 270.718 -5.05992 -1.19448 0
M  V30 2894 C 268.403 -4.696 -1.78273 0
M  V30 2895 C 270.397 -6.33203 -0.730268 0
M  V30 2896 C 268.084 -5.96792 -1.31464 0
M  V30 2897 C 269.082 -6.78424 -0.789297 0
M  V30 2898 O 268.77 -8.0323 -0.328077 0
M  V30 2899 H 268.502 -0.579873 -0.347453 0
M  V30 2900 H 271.056 -2.00502 -0.445882 0
M  V30 2901 H 269.286 -2.49702 -2.95272 0
M  V30 2902 H 270.975 -2.90034 -2.83963 0
M  V30 2903 H 271.741 -4.71349 -1.14259 0
M  V30 2904 H 267.62 -4.06142 -2.18106 0
M  V30 2905 H 271.164 -6.96868 -0.319542 0
M  V30 2906 H 267.061 -6.30937 -1.36342 0
M  V30 2907 H 267.829 -8.1727 -0.448493 0
M  V30 2908 N 270.492 0.636531 -1.44174 0
M  V30 2909 C 271.738 1.39826 -1.4689 0
M  V30 2910 C 272.071 1.93947 -0.0990585 0
M  V30 2911 O 271.346 1.73325 0.882544 0
M  V30 2912 C 271.629 2.56751 -2.5249 0
M  V30 2913 C 271.482 2.08014 -3.98811 0
M  V30 2914 C 272.801 3.58946 -2.54649 0
M  V30 2915 H 269.92 0.507075 -0.53483 0
M  V30 2916 H 272.562 0.720188 -1.75822 0
M  V30 2917 H 270.712 3.14597 -2.2795 0
M  V30 2918 H 272.384 1.5504 -4.34466 0
M  V30 2919 H 270.627 1.39242 -4.10846 0
M  V30 2920 H 271.298 2.92169 -4.68339 0
M  V30 2921 H 273.774 3.1089 -2.76563 0
M  V30 2922 H 272.65 4.38286 -3.3045 0
M  V30 2923 H 272.911 4.12655 -1.58646 0
M  V30 2924 N 271.97 1.30982 0.876444 0
M  V30 2925 C 272.9 1.20668 1.99903 0
M  V30 2926 C 273.881 0.095354 1.69833 0
M  V30 2927 O 275.066 0.27885 1.92188 0
M  V30 2928 C 272.196 0.90655 3.3526 0
M  V30 2929 C 271.15 1.97675 3.79617 0
M  V30 2930 C 270.476 1.52943 5.1236 0
M  V30 2931 C 271.776 3.389 3.97422 0
M  V30 2932 H 273.47 2.14586 2.0879 0
M  V30 2933 H 271.016 1.03308 1.00317 0
M  V30 2934 H 272.969 0.821025 4.13324 0
M  V30 2935 H 271.693 -0.0682969 3.26529 0
M  V30 2936 H 270.352 2.05205 3.03787 0
M  V30 2937 H 270 0.54262 5.00065 0
M  V30 2938 H 269.7 2.24532 5.43009 0
M  V30 2939 H 271.224 1.45786 5.92941 0
M  V30 2940 H 272.638 3.34081 4.659 0
M  V30 2941 H 271.035 4.0865 4.3946 0
M  V30 2942 H 272.105 3.80163 3.01006 0
M  V30 2943 N 273.449 -1.08991 1.13837 0
M  V30 2944 C 274.696 -1.81258 0.902882 0
M  V30 2945 C 275.024 -1.85936 -0.570803 0
M  V30 2946 O 274.279 -1.3267 -1.43865 0
M  V30 2947 C 274.578 -3.27042 1.44147 0
M  V30 2948 C 274.244 -3.4249 2.93276 0
M  V30 2949 C 272.906 -3.46414 3.33992 0
M  V30 2950 C 275.258 -3.4666 3.892 0
M  V30 2951 C 272.586 -3.52091 4.69307 0
M  V30 2952 C 274.938 -3.53872 5.24364 0
M  V30 2953 C 273.602 -3.56066 5.646 0
M  V30 2954 H 272.872 -0.663268 0.330388 0
M  V30 2955 H 275.519 -1.28368 1.42105 0
M  V30 2956 H 273.824 -3.82599 0.844097 0
M  V30 2957 H 275.521 -3.81499 1.23528 0
M  V30 2958 H 272.111 -3.40124 2.60794 0
M  V30 2959 H 276.295 -3.42865 3.58828 0
M  V30 2960 H 271.551 -3.52079 4.9985 0
M  V30 2961 H 275.725 -3.56043 5.98503 0
M  V30 2962 H 273.352 -3.60218 6.69438 0
M  V30 2963 N 274.927 -0.932562 -1.27047 0
M  V30 2964 C 275.857 -0.452902 -2.29066 0
M  V30 2965 C 276.838 0.489338 -1.62909 0
M  V30 2966 O 278.023 0.393046 -1.90181 0
M  V30 2967 C 275.153 0.290698 -3.46081 0
M  V30 2968 C 274.107 -0.564168 -4.24265 0
M  V30 2969 C 273.433 0.308886 -5.33807 0
M  V30 2970 C 274.733 -1.83112 -4.89149 0
M  V30 2971 H 276.427 -1.30552 -2.69437 0
M  V30 2972 H 273.973 -0.629201 -1.29526 0
M  V30 2973 H 275.926 0.637233 -4.16554 0
M  V30 2974 H 274.65 1.17738 -3.0464 0
M  V30 2975 H 273.309 -0.893477 -3.55545 0
M  V30 2976 H 272.957 1.19467 -4.88607 0
M  V30 2977 H 272.657 -0.259633 -5.87026 0
M  V30 2978 H 274.181 0.650884 -6.07121 0
M  V30 2979 H 275.595 -1.55236 -5.51883 0
M  V30 2980 H 273.992 -2.34353 -5.52448 0
M  V30 2981 H 275.062 -2.54772 -4.12576 0
M  V30 2982 N 276.405 1.4127 -0.698611 0
M  V30 2983 C 277.338 2.28195 0.0153898 0
M  V30 2984 C 278.316 1.42402 0.784883 0
M  V30 2985 O 279.5 1.71828 0.775067 0
M  V30 2986 C 276.627 3.22685 1.02918 0
M  V30 2987 C 275.673 4.25041 0.352501 0
M  V30 2988 S 276.506 5.27757 -0.907322 0
M  V30 2989 C 277.662 6.25812 0.104796 0
M  V30 2990 H 277.895 2.88403 -0.721858 0
M  V30 2991 H 275.428 1.46452 -0.488996 0
M  V30 2992 H 277.386 3.77655 1.60893 0
M  V30 2993 H 276.047 2.61566 1.73902 0
M  V30 2994 H 275.24 4.91437 1.11828 0
M  V30 2995 H 274.842 3.73682 -0.154254 0
M  V30 2996 H 277.134 6.70705 0.957103 0
M  V30 2997 H 278.077 7.06149 -0.525323 0
M  V30 2998 H 278.485 5.62615 0.460931 0
M  V30 2999 N 277.883 0.443576 1.51229 0
M  V30 3000 C 278.846 -0.353132 2.26463 0
M  V30 3001 C 279.846 -0.944338 1.3015 0
M  V30 3002 O 281.036 -0.817813 1.5381 0
M  V30 3003 C 278.168 -1.50023 3.06114 0
M  V30 3004 H 279.361 0.3063 2.98332 0
M  V30 3005 H 276.914 0.196902 1.55055 0
M  V30 3006 H 277.649 -2.19553 2.38677 0
M  V30 3007 H 277.434 -1.08241 3.76864 0
M  V30 3008 H 278.924 -2.06296 3.63087 0
M  V30 3009 N 279.361 -1.56624 0.175154 0
M  V30 3010 C 280.291 -2.21155 -0.749195 0
M  V30 3011 C 281.272 -1.16836 -1.23626 0
M  V30 3012 O 282.457 -1.45277 -1.28873 0
M  V30 3013 C 279.587 -2.8553 -1.97711 0
M  V30 3014 C 278.541 -3.95921 -1.62575 0
M  V30 3015 C 277.867 -4.47365 -2.92864 0
M  V30 3016 C 279.167 -5.15323 -0.850838 0
M  V30 3017 H 280.861 -2.98653 -0.211295 0
M  V30 3018 H 278.407 -1.43651 -0.100188 0
M  V30 3019 H 280.36 -3.2935 -2.62881 0
M  V30 3020 H 279.084 -2.05406 -2.53921 0
M  V30 3021 H 277.743 -3.52762 -0.997719 0
M  V30 3022 H 277.391 -3.64027 -3.47122 0
M  V30 3023 H 277.091 -5.21839 -2.70106 0
M  V30 3024 H 278.615 -4.93873 -3.59056 0
M  V30 3025 H 280.029 -5.55812 -1.40521 0
M  V30 3026 H 278.426 -5.95739 -0.722154 0
M  V30 3027 H 279.496 -4.84661 0.152082 0
M  V30 3028 N 280.839 0.0985539 -1.57292 0
M  V30 3029 C 282.067 0.816318 -1.90115 0
M  V30 3030 C 282.482 1.72451 -0.768509 0
M  V30 3031 O 281.839 1.80643 0.259687 0
M  V30 3032 C 281.89 1.63259 -3.22535 0
M  V30 3033 O 281.611 0.760934 -4.31441 0
M  V30 3034 C 283.112 2.45372 -3.69199 0
M  V30 3035 H 280.332 0.233595 -0.629027 0
M  V30 3036 H 282.876 0.0768229 -2.04356 0
M  V30 3037 H 281.031 2.32463 -3.09903 0
M  V30 3038 H 281.445 1.32595 -5.07463 0
M  V30 3039 H 282.919 2.98144 -4.64558 0
M  V30 3040 H 283.396 3.23677 -2.96867 0
M  V30 3041 H 284.002 1.81373 -3.84687 0
M  V30 3042 N 282.317 1.53212 0.369288 0
M  V30 3043 C 283.564 1.69215 1.11232 0
M  V30 3044 C 283.892 0.442048 1.8941 0
M  V30 3045 O 283.147 -0.575944 1.87033 0
M  V30 3046 C 283.446 2.89101 2.10132 0
M  V30 3047 C 283.112 4.25758 1.48463 0
M  V30 3048 C 281.774 4.6292 1.31372 0
M  V30 3049 C 284.126 5.10757 1.03811 0
M  V30 3050 C 281.454 5.82722 0.68207 0
M  V30 3051 C 283.806 6.31201 0.420487 0
M  V30 3052 C 282.47 6.67079 0.237038 0
M  V30 3053 H 281.74 0.619201 0.407027 0
M  V30 3054 H 284.387 1.87391 0.394552 0
M  V30 3055 H 282.692 2.65421 2.88199 0
M  V30 3056 H 284.389 2.98676 2.6757 0
M  V30 3057 H 280.979 3.96494 1.62758 0
M  V30 3058 H 285.163 4.82599 1.1581 0
M  V30 3059 H 280.419 6.09113 0.528316 0
M  V30 3060 H 284.593 6.96368 0.0662874 0
M  V30 3061 H 282.22 7.59774 -0.254477 0
M  V30 3062 N 283.795 -0.628877 1.44509 0
M  V30 3063 C 284.725 -1.75187 1.54376 0
M  V30 3064 C 285.706 -1.65411 0.396618 0
M  V30 3065 O 286.891 -1.84137 0.617031 0
M  V30 3066 C 284.021 -3.13725 1.48976 0
M  V30 3067 C 282.975 -3.38291 2.62189 0
M  V30 3068 C 282.301 -4.76883 2.41841 0
M  V30 3069 C 283.601 -3.30632 4.04326 0
M  V30 3070 H 285.295 -1.67187 2.48373 0
M  V30 3071 H 282.841 -0.802909 1.19538 0
M  V30 3072 H 284.794 -3.92064 1.54478 0
M  V30 3073 H 283.518 -3.22515 0.514961 0
M  V30 3074 H 282.177 -2.62334 2.56079 0
M  V30 3075 H 281.825 -4.82378 1.42548 0
M  V30 3076 H 281.525 -4.94278 3.17747 0
M  V30 3077 H 283.049 -5.57449 2.49165 0
M  V30 3078 H 284.463 -3.98873 4.11793 0
M  V30 3079 H 282.86 -3.59561 4.80454 0
M  V30 3080 H 283.93 -2.28404 4.27738 0
M  V30 3081 N 285.273 -1.31445 -0.869486 0
M  V30 3082 C 286.206 -1.13465 -1.97992 0
M  V30 3083 C 287.184 -0.0380291 -1.62556 0
M  V30 3084 O 288.368 -0.194544 -1.87493 0
M  V30 3085 C 285.495 -0.733822 -3.30655 0
M  V30 3086 C 284.541 -1.83356 -3.85075 0
M  V30 3087 S 285.374 -3.43909 -4.10472 0
M  V30 3088 C 286.53 -3.05763 -5.46132 0
M  V30 3089 H 286.763 -2.07471 -2.1294 0
M  V30 3090 H 284.296 -1.15936 -1.01972 0
M  V30 3091 H 286.254 -0.509306 -4.07328 0
M  V30 3092 H 284.915 0.187123 -3.13542 0
M  V30 3093 H 284.108 -1.50574 -4.80982 0
M  V30 3094 H 283.71 -2.01315 -3.15195 0
M  V30 3095 H 286.002 -2.54686 -6.27807 0
M  V30 3096 H 286.945 -4.00635 -5.83864 0
M  V30 3097 H 287.353 -2.43192 -5.09429 0
M  V30 3098 N 286.751 1.08385 -1.14413 0
M  V30 3099 C 287.976 1.85057 -0.936413 0
M  V30 3100 C 288.401 1.81055 0.509971 0
M  V30 3101 O 287.759 1.1958 1.36273 0
M  V30 3102 C 287.807 3.30505 -1.44217 0
M  V30 3103 O 286.911 4.07491 -0.634409 0
M  V30 3104 H 286.252 0.573425 -0.334784 0
M  V30 3105 H 288.782 1.36799 -1.52142 0
M  V30 3106 H 288.792 3.81348 -1.45043 0
M  V30 3107 H 287.467 3.32734 -2.49522 0
M  V30 3108 H 286.044 3.66368 -0.694902 0
M  V30 3109 N 288.23 0.939286 1.26551 0
M  V30 3110 C 289.455 0.602008 1.98471 0
M  V30 3111 C 289.88 -0.815624 1.69497 0
M  V30 3112 O 289.238 -1.54912 0.941905 0
M  V30 3113 C 289.286 0.848407 3.50477 0
M  V30 3114 O 288.39 -0.0804009 4.12322 0
M  V30 3115 H 287.731 0.23049 0.622712 0
M  V30 3116 H 290.261 1.2617 1.61066 0
M  V30 3117 H 290.271 0.768553 4.00696 0
M  V30 3118 H 288.946 1.88171 3.70897 0
M  V30 3119 H 287.523 0.0503508 3.72866 0
M  V30 3120 N 289.708 -1.40897 0.706093 0
M  V30 3121 C 290.955 -2.01054 0.241531 0
M  V30 3122 C 291.283 -1.55956 -1.16223 0
M  V30 3123 O 290.538 -0.766336 -1.80072 0
M  V30 3124 C 290.837 -3.5646 0.259099 0
M  V30 3125 C 290.503 -4.21106 1.61184 0
M  V30 3126 C 289.165 -4.38479 1.98216 0
M  V30 3127 C 291.517 -4.57256 2.50132 0
M  V30 3128 C 288.845 -4.89282 3.2376 0
M  V30 3129 C 291.197 -5.09454 3.7502 0
M  V30 3130 C 289.861 -5.25037 4.12181 0
M  V30 3131 H 289.131 -0.73571 0.0883825 0
M  V30 3132 H 291.778 -1.68645 0.907257 0
M  V30 3133 H 290.083 -3.88721 -0.490189 0
M  V30 3134 H 291.78 -4.00826 -0.11804 0
M  V30 3135 H 288.37 -4.07966 1.31384 0
M  V30 3136 H 292.554 -4.43479 2.228 0
M  V30 3137 H 287.81 -4.99531 3.52532 0
M  V30 3138 H 291.984 -5.36404 4.44121 0
M  V30 3139 H 289.611 -5.64164 5.09532 0
M  V30 3140 N 291.186 -0.45159 -1.50991 0
M  V30 3141 C 292.414 0.108334 -2.06616 0
M  V30 3142 C 292.829 1.35224 -1.31757 0
M  V30 3143 O 292.186 1.78475 -0.381174 0
M  V30 3144 C 292.237 0.41619 -3.59096 0
M  V30 3145 O 291.958 -0.778361 -4.3113 0
M  V30 3146 C 293.459 1.02523 -4.31282 0
M  V30 3147 H 290.679 0.00159995 -0.670998 0
M  V30 3148 H 293.223 -0.634771 -1.94399 0
M  V30 3149 H 291.378 1.10921 -3.71181 0
M  V30 3150 H 291.792 -0.511181 -5.22003 0
M  V30 3151 H 293.266 1.19053 -5.39009 0
M  V30 3152 H 293.743 2.01013 -3.905 0
M  V30 3153 H 294.349 0.371173 -4.23677 0
M  V30 3154 N 292.664 1.56529 -0.183458 0
M  V30 3155 C 293.911 1.97244 0.458357 0
M  V30 3156 C 294.239 1.06992 1.62428 0
M  V30 3157 O 293.494 0.106542 1.9541 0
M  V30 3158 C 293.793 3.43939 0.971637 0
M  V30 3159 C 293.459 4.5083 -0.0796784 0
M  V30 3160 C 292.121 4.79786 -0.368584 0
M  V30 3161 C 294.473 5.15138 -0.792638 0
M  V30 3162 C 291.801 5.70345 -1.37563 0
M  V30 3163 C 294.153 6.06784 -1.78875 0
M  V30 3164 C 292.817 6.34102 -2.08497 0
M  V30 3165 H 292.087 0.721768 0.167725 0
M  V30 3166 H 294.734 1.89472 -0.277976 0
M  V30 3167 H 293.039 3.48724 1.78602 0
M  V30 3168 H 294.736 3.72791 1.47744 0
M  V30 3169 H 291.326 4.28317 0.155668 0
M  V30 3170 H 295.51 4.92868 -0.582659 0
M  V30 3171 H 290.766 5.89789 -1.61118 0
M  V30 3172 H 294.94 6.55677 -2.3465 0
M  V30 3173 H 292.567 7.04074 -2.86678 0
M  V30 3174 N 294.142 -0.090211 1.57342 0
M  V30 3175 C 295.382 -0.798365 1.88163 0
M  V30 3176 C 295.746 -1.75662 0.775046 0
M  V30 3177 O 296.947 -2.50849 0.965816 0
M  V30 3178 C 295.218 -1.50376 3.24225 0
M  V30 3179 S 296.777 -2.24952 3.76752 0
M  V30 3180 H 293.595 -0.265883 0.659414 0
M  V30 3181 H 296.197 -0.055264 1.95422 0
M  V30 3182 H 294.901 -0.792286 4.0268 0
M  V30 3183 H 294.432 -2.28666 3.20118 0
M  V30 3184 H 296.447 -3.51173 3.5056 0
M  V30 3185 N 295.62 -1.53406 -0.361157 0
M  V30 3186 C 296.868 -1.69467 -1.10115 0
M  V30 3187 C 297.189 -0.451352 -1.89705 0
M  V30 3188 O 296.459 0.534636 -1.88463 0
M  V30 3189 H 295.039 -0.624749 -0.409508 0
M  V30 3190 H 297.701 -1.90609 -0.406699 0
M  V30 3191 H 296.797 -2.55774 -1.78847 0
M  V30 3192 N 297.098 0.621204 -1.44841 0
M  V30 3193 C 298.323 1.41244 -1.51871 0
M  V30 3194 C 298.748 1.87519 -0.147764 0
M  V30 3195 O 298.106 1.59334 0.865 0
M  V30 3196 C 298.154 2.60221 -2.49634 0
M  V30 3197 O 297.258 3.60395 -2.00473 0
M  V30 3198 H 296.599 0.42223 -0.512463 0
M  V30 3199 H 299.129 0.757305 -1.90069 0
M  V30 3200 H 299.139 3.0764 -2.67996 0
M  V30 3201 H 297.814 2.25887 -3.4921 0
M  V30 3202 H 296.391 3.19717 -1.91925 0
M  V30 3203 N 298.576 1.31904 0.862503 0
M  V30 3204 C 299.823 1.22017 1.61611 0
M  V30 3205 C 300.151 -0.21991 1.93253 0
M  V30 3206 O 299.406 -1.17076 1.56817 0
M  V30 3207 C 299.705 2.01713 2.95037 0
M  V30 3208 C 299.371 3.51145 2.82857 0
M  V30 3209 C 298.033 3.91889 2.79243 0
M  V30 3210 C 300.385 4.46204 2.69353 0
M  V30 3211 C 297.713 5.25947 2.59993 0
M  V30 3212 C 300.065 5.80397 2.5164 0
M  V30 3213 C 298.729 6.20352 2.46413 0
M  V30 3214 H 297.999 0.44649 0.591378 0
M  V30 3215 H 300.646 1.63248 1.00111 0
M  V30 3216 H 298.951 1.53185 3.60613 0
M  V30 3217 H 300.648 1.91437 3.52353 0
M  V30 3218 H 297.238 3.1878 2.86491 0
M  V30 3219 H 301.422 4.15652 2.71196 0
M  V30 3220 H 296.678 5.5597 2.54376 0
M  V30 3221 H 300.852 6.53676 2.40169 0
M  V30 3222 H 298.479 7.24172 2.31256 0
M  V30 3223 N 300.054 -1.07777 1.14986 0
M  V30 3224 C 301.282 -1.84018 0.945773 0
M  V30 3225 C 301.697 -1.81897 -0.505863 0
M  V30 3226 O 301.054 -1.22726 -1.35072 0
M  V30 3227 C 301.105 -3.31287 1.44677 0
M  V30 3228 O 300.826 -3.33449 2.84154 0
M  V30 3229 C 302.327 -4.24311 1.28355 0
M  V30 3230 H 299.547 -0.580716 0.336169 0
M  V30 3231 H 302.091 -1.36077 1.52654 0
M  V30 3232 H 300.246 -3.76594 0.908625 0
M  V30 3233 H 300.66 -4.25427 3.06777 0
M  V30 3234 H 302.134 -5.2573 1.68261 0
M  V30 3235 H 302.611 -4.38612 0.227184 0
M  V30 3236 H 303.217 -3.84836 1.81056 0
M  V30 3237 N 301.532 -0.945985 -1.26051 0
M  V30 3238 C 302.78 -0.594941 -1.93145 0
M  V30 3239 C 303.101 0.86953 -1.7454 0
M  V30 3240 O 302.371 1.61838 -1.10387 0
M  V30 3241 H 300.951 -0.217044 -0.714773 0
M  V30 3242 H 303.613 -1.20235 -1.53393 0
M  V30 3243 H 302.709 -0.816835 -3.01221 0
M  V30 3244 N 303.011 1.40521 -0.713556 0
M  V30 3245 C 304.257 2.01714 -0.261382 0
M  V30 3246 C 304.612 1.55562 1.13217 0
M  V30 3247 O 303.905 0.764893 1.7567 0
M  V30 3248 C 304.099 3.56317 -0.278 0
M  V30 3249 C 303.928 4.17476 -1.67163 0
M  V30 3250 C 302.698 4.50998 -2.2788 0
M  V30 3251 C 304.896 4.42472 -2.6215 0
M  V30 3252 N 302.878 4.9754 -3.5962 0
M  V30 3253 C 304.249 4.90985 -3.78594 0
M  V30 3254 C 306.304 4.24508 -2.60188 0
M  V30 3255 C 305.007 5.2342 -4.9338 0
M  V30 3256 C 307.033 4.58043 -3.741 0
M  V30 3257 C 306.395 5.06743 -4.89276 0
M  V30 3258 H 302.494 0.769104 -0.141434 0
M  V30 3259 H 305.078 1.70785 -0.934915 0
M  V30 3260 H 303.249 3.8668 0.36509 0
M  V30 3261 H 304.981 4.0425 0.190695 0
M  V30 3262 H 301.736 4.38062 -1.79997 0
M  V30 3263 H 302.16 5.25196 -4.27198 0
M  V30 3264 H 306.802 3.86078 -1.72348 0
M  V30 3265 H 304.52 5.60765 -5.81866 0
M  V30 3266 H 308.106 4.45785 -3.73854 0
M  V30 3267 H 306.986 5.32204 -5.75959 0
M  V30 3268 N 304.489 0.459591 1.5075 0
M  V30 3269 C 305.436 -0.340524 2.28274 0
M  V30 3270 C 306.406 -0.997371 1.32822 0
M  V30 3271 O 307.591 -1.01202 1.61749 0
M  V30 3272 C 304.731 -1.42317 3.14388 0
M  V30 3273 C 303.844 -0.782251 4.24859 0
M  V30 3274 C 302.979 -1.84182 4.98247 0
M  V30 3275 C 302.018 -1.18053 6.00608 0
M  V30 3276 N 301.155 -2.18244 6.67319 0
M  V30 3277 H 305.995 0.326899 2.96202 0
M  V30 3278 H 303.532 0.173057 1.46078 0
M  V30 3279 H 305.49 -2.06241 3.62658 0
M  V30 3280 H 304.12 -2.05992 2.4853 0
M  V30 3281 H 303.172 -0.0307404 3.80388 0
M  V30 3282 H 304.484 -0.259663 4.98124 0
M  V30 3283 H 303.638 -2.55714 5.50177 0
M  V30 3284 H 302.377 -2.39819 4.24662 0
M  V30 3285 H 301.382 -0.450776 5.47949 0
M  V30 3286 H 302.607 -0.631202 6.7616 0
M  V30 3287 H 300.553 -2.72919 5.96533 0
M  V30 3288 H 300.47 -1.70938 7.36421 0
M  V30 3289 H 301.738 -2.89191 7.23871 0
M  V30 3290 N 305.967 -1.56429 0.191757 0
M  V30 3291 C 307.383 -1.58754 -0.164137 0
M  V30 3292 C 307.583 -1.20782 -1.61288 0
M  V30 3293 O 306.639 -0.928999 -2.34789 0
M  V30 3294 C 307.952 -3.00396 0.135195 0
M  V30 3295 C 309.5 -3.1291 0.0750351 0
M  V30 3296 C 309.975 -4.56679 0.347632 0
M  V30 3297 N 311.466 -4.62252 0.296131 0
M  V30 3298 C 312.201 -5.71379 0.480948 0
M  V30 3299 N 311.697 -6.88986 0.725933 0
M  V30 3300 N 313.49 -5.60563 0.415435 0
M  V30 3301 H 305.641 -1.79393 1.13718 0
M  V30 3302 H 307.904 -0.832414 0.453643 0
M  V30 3303 H 307.61 -3.32726 1.13958 0
M  V30 3304 H 307.484 -3.72963 -0.563773 0
M  V30 3305 H 309.871 -2.80394 -0.919948 0
M  V30 3306 H 309.952 -2.42736 0.807029 0
M  V30 3307 H 309.596 -4.89907 1.33992 0
M  V30 3308 H 309.526 -5.25039 -0.405212 0
M  V30 3309 H 312.017 -3.7773 0.113259 0
M  V30 3310 H 312.33 -7.68046 0.855857 0
M  V30 3311 H 310.675 -6.90801 0.762788 0
M  V30 3312 H 313.866 -4.67561 0.224486 0
M  V30 3313 H 314.039 -6.45551 0.562889 0
M  V30 3314 N 307.445 0.0818655 -1.57387 0
M  V30 3315 C 308.395 1.10501 -1.99433 0
M  V30 3316 C 309.379 1.35041 -0.874798 0
M  V30 3317 O 310.571 1.35511 -1.13868 0
M  V30 3318 C 307.7 2.42159 -2.43339 0
M  V30 3319 C 306.786 2.20937 -3.62005 0
M  V30 3320 N 307.177 1.69616 -4.76512 0
M  V30 3321 C 305.475 2.51451 -3.68359 0
M  V30 3322 C 306.176 1.62973 -5.58404 0
M  V30 3323 N 305.152 2.08664 -5.01956 0
M  V30 3324 H 308.954 0.701373 -2.85408 0
M  V30 3325 H 306.468 0.289096 -1.59806 0
M  V30 3326 H 308.465 3.16208 -2.71695 0
M  V30 3327 H 307.125 2.83249 -1.58746 0
M  V30 3328 H 308.136 1.38624 -4.99003 0
M  V30 3329 H 304.813 2.95975 -2.94457 0
M  V30 3330 H 306.203 1.24233 -6.60315 0
M  V30 3331 N 308.923 1.53595 0.353017 0
M  V30 3332 C 310.171 1.70049 1.09215 0
M  V30 3333 C 310.492 0.461406 1.89463 0
M  V30 3334 O 309.762 -0.524633 1.88744 0
M  V30 3335 H 308.342 0.626912 0.40619 0
M  V30 3336 H 311.004 1.90822 0.396585 0
M  V30 3337 H 310.1 2.56718 1.77488 0
M  V30 3338 N 310.401 -0.613514 1.45168 0
M  V30 3339 C 311.364 -1.7065 1.53007 0
M  V30 3340 C 312.364 -1.5548 0.410184 0
M  V30 3341 O 313.554 -1.60656 0.673455 0
M  V30 3342 C 310.686 -3.09875 1.42093 0
M  V30 3343 H 311.879 -1.65068 2.50385 0
M  V30 3344 H 309.432 -0.828728 1.32521 0
M  V30 3345 H 310.167 -3.21039 0.458769 0
M  V30 3346 H 309.952 -3.22293 2.23315 0
M  V30 3347 H 311.442 -3.895 1.50598 0
M  V30 3348 N 311.879 -1.3236 -0.855495 0
M  V30 3349 C 312.829 -1.17809 -1.95205 0
M  V30 3350 C 313.813 -0.0852319 -1.60674 0
M  V30 3351 O 315.005 -0.311651 -1.74235 0
M  V30 3352 C 312.134 -0.902437 -3.31226 0
M  V30 3353 C 311.22 -2.03695 -3.7198 0
M  V30 3354 N 311.611 -3.28544 -3.84568 0
M  V30 3355 C 309.909 -1.93993 -4.016 0
M  V30 3356 C 310.61 -4.02847 -4.19629 0
M  V30 3357 N 309.586 -3.31138 -4.31102 0
M  V30 3358 H 313.388 -2.12462 -2.0307 0
M  V30 3359 H 310.902 -1.24127 -1.0472 0
M  V30 3360 H 312.899 -0.77915 -4.09554 0
M  V30 3361 H 311.559 0.0357267 -3.2468 0
M  V30 3362 H 312.57 -3.6349 -3.68911 0
M  V30 3363 H 309.247 -1.07733 -4.03361 0
M  V30 3364 H 310.637 -5.10506 -4.36845 0
M  V30 3365 N 313.357 1.07166 -1.15556 0
M  V30 3366 C 314.606 1.79181 -0.926132 0
M  V30 3367 C 314.919 1.87768 0.547967 0
M  V30 3368 O 316.125 2.56323 0.895036 0
M  V30 3369 C 314.581 3.22 -1.60761 0
M  V30 3370 C 314.189 3.21607 -3.11886 0
M  V30 3371 C 315.933 3.9861 -1.4598 0
M  V30 3372 C 313.84 4.59092 -3.72812 0
M  V30 3373 H 312.77 0.67154 -0.342856 0
M  V30 3374 H 315.421 1.2027 -1.3859 0
M  V30 3375 H 313.803 3.81115 -1.07553 0
M  V30 3376 H 314.977 2.72127 -3.71865 0
M  V30 3377 H 313.292 2.58495 -3.2645 0
M  V30 3378 H 315.889 5.00225 -1.88888 0
M  V30 3379 H 316.232 4.143 -0.407541 0
M  V30 3380 H 316.765 3.45996 -1.96295 0
M  V30 3381 H 313.504 4.48606 -4.77946 0
M  V30 3382 H 313.024 5.08803 -3.17616 0
M  V30 3383 H 314.703 5.28059 -3.73848 0
M  V30 3384 N 314.835 0.952656 1.25548 0
M  V30 3385 C 316.065 0.622592 1.96996 0
M  V30 3386 C 316.473 -0.809112 1.71026 0
M  V30 3387 O 315.816 -1.55258 0.981861 0
M  V30 3388 C 315.878 0.798946 3.5051 0
M  V30 3389 C 315.542 2.20744 4.00151 0
M  V30 3390 C 316.539 3.18394 4.11001 0
M  V30 3391 C 314.224 2.5311 4.33867 0
M  V30 3392 C 316.218 4.46504 4.54877 0
M  V30 3393 C 313.905 3.8145 4.7743 0
M  V30 3394 C 314.903 4.77959 4.87897 0
M  V30 3395 O 314.591 6.04012 5.30494 0
M  V30 3396 H 314.323 0.232503 0.634758 0
M  V30 3397 H 316.877 1.2789 1.60728 0
M  V30 3398 H 315.107 0.0854903 3.86605 0
M  V30 3399 H 316.796 0.47023 4.03167 0
M  V30 3400 H 317.562 2.94715 3.85186 0
M  V30 3401 H 313.441 1.78719 4.24948 0
M  V30 3402 H 316.985 5.21835 4.62962 0
M  V30 3403 H 312.882 4.04936 5.0269 0
M  V30 3404 H 313.65 6.0736 5.48685 0
M  V30 3405 N 316.313 -1.40141 0.720998 0
M  V30 3406 C 317.243 -2.33339 0.0867621 0
M  V30 3407 C 318.224 -1.53178 -0.739622 0
M  V30 3408 O 319.409 -1.81625 -0.687449 0
M  V30 3409 C 316.539 -3.37194 -0.831728 0
M  V30 3410 C 315.493 -4.27857 -0.110558 0
M  V30 3411 C 314.819 -5.22294 -1.14513 0
M  V30 3412 C 316.119 -5.11872 1.0385 0
M  V30 3413 H 317.813 -2.86626 0.865219 0
M  V30 3414 H 315.359 -1.37814 0.417516 0
M  V30 3415 H 317.312 -4.01335 -1.28485 0
M  V30 3416 H 316.036 -2.82314 -1.64214 0
M  V30 3417 H 314.695 -3.65176 0.322797 0
M  V30 3418 H 314.343 -4.63717 -1.94874 0
M  V30 3419 H 314.043 -5.83797 -0.667446 0
M  V30 3420 H 315.567 -5.89312 -1.59824 0
M  V30 3421 H 316.981 -5.69436 0.664482 0
M  V30 3422 H 315.378 -5.82445 1.4449 0
M  V30 3423 H 316.448 -4.4753 1.86668 0
M  V30 3424 N 317.792 -0.46758 -1.50504 0
M  V30 3425 C 319.02 0.0864133 -2.06719 0
M  V30 3426 C 319.435 1.33819 -1.33184 0
M  V30 3427 O 318.792 1.78061 -0.400083 0
M  V30 3428 C 318.843 0.378079 -3.59517 0
M  V30 3429 O 318.564 -0.824044 -4.3028 0
M  V30 3430 C 320.065 0.979426 -4.32345 0
M  V30 3431 H 317.285 -0.00551697 -0.670977 0
M  V30 3432 H 319.829 -0.655354 -1.93715 0
M  V30 3433 H 317.984 1.06977 -3.72337 0
M  V30 3434 H 318.398 -0.566518 -5.21432 0
M  V30 3435 H 319.872 1.1333 -5.40241 0
M  V30 3436 H 320.349 1.9686 -3.9261 0
M  V30 3437 H 320.955 0.326216 -4.24047 0
M  V30 3438 N 319.27 1.56325 -0.20005 0
M  V30 3439 C 320.203 2.15234 0.758267 0
M  V30 3440 C 321.181 1.09046 1.20614 0
M  V30 3441 O 322.365 1.37186 1.29276 0
M  V30 3442 C 319.492 2.71524 2.02466 0
M  V30 3443 C 318.538 3.90345 1.71852 0
M  V30 3444 S 319.371 5.28513 0.862249 0
M  V30 3445 C 320.527 5.88227 2.13868 0
M  V30 3446 H 320.76 2.96183 0.2575 0
M  V30 3447 H 318.293 1.54393 0.0150099 0
M  V30 3448 H 320.251 3.04598 2.75191 0
M  V30 3449 H 318.912 1.90607 2.49655 0
M  V30 3450 H 318.105 4.28158 2.65888 0
M  V30 3451 H 317.707 3.58306 1.07205 0
M  V30 3452 H 319.999 6.02891 3.09076 0
M  V30 3453 H 320.942 6.84714 1.80479 0
M  V30 3454 H 321.35 5.16874 2.2694 0
M  V30 3455 N 320.748 -0.0735177 1.57428 0
M  V30 3456 C 321.678 -1.0879 2.06608 0
M  V30 3457 C 322.659 -1.40473 0.959237 0
M  V30 3458 O 323.844 -1.5013 1.23185 0
M  V30 3459 C 320.974 -2.40183 2.50857 0
M  V30 3460 C 319.928 -2.22858 3.65402 0
M  V30 3461 C 319.254 -3.59619 3.957 0
M  V30 3462 C 320.554 -1.65123 4.95511 0
M  V30 3463 H 322.248 -0.678673 2.91607 0
M  V30 3464 H 319.794 -0.325013 1.40284 0
M  V30 3465 H 321.747 -3.11437 2.83874 0
M  V30 3466 H 320.471 -2.83083 1.62885 0
M  V30 3467 H 319.13 -1.54045 3.32664 0
M  V30 3468 H 318.778 -4.00086 3.04861 0
M  V30 3469 H 318.478 -3.48866 4.72828 0
M  V30 3470 H 320.002 -4.32306 4.31212 0
M  V30 3471 H 321.416 -2.26241 5.26771 0
M  V30 3472 H 319.813 -1.65071 5.7695 0
M  V30 3473 H 320.883 -0.612559 4.81015 0
M  V30 3474 N 322.226 -1.5378 -0.344866 0
M  V30 3475 C 323.156 -1.84662 -1.42906 0
M  V30 3476 C 324.137 -0.701648 -1.54955 0
M  V30 3477 O 325.322 -0.953438 -1.69184 0
M  V30 3478 C 322.452 -2.05503 -2.79974 0
M  V30 3479 C 321.406 -3.21318 -2.82734 0
M  V30 3480 C 320.732 -3.2749 -4.22675 0
M  V30 3481 C 322.032 -4.59456 -2.48389 0
M  V30 3482 H 323.726 -2.75461 -1.17311 0
M  V30 3483 H 321.272 -1.32542 -0.562896 0
M  V30 3484 H 323.225 -2.25691 -3.55867 0
M  V30 3485 H 321.949 -1.11434 -3.07002 0
M  V30 3486 H 320.608 -3.00984 -2.09294 0
M  V30 3487 H 320.256 -2.31019 -4.4681 0
M  V30 3488 H 319.956 -4.05316 -4.25433 0
M  V30 3489 H 321.48 -3.49887 -5.00412 0
M  V30 3490 H 322.894 -4.79667 -3.13995 0
M  V30 3491 H 321.291 -5.39675 -2.62432 0
M  V30 3492 H 322.361 -4.63155 -1.4358 0
M  V30 3493 N 323.704 0.605807 -1.45491 0
M  V30 3494 C 324.929 1.39625 -1.53361 0
M  V30 3495 C 325.354 1.87351 -0.167645 0
M  V30 3496 O 324.712 1.60243 0.848051 0
M  V30 3497 C 324.76 2.57559 -2.5238 0
M  V30 3498 O 323.864 3.58248 -2.04285 0
M  V30 3499 H 323.205 0.416771 -0.516912 0
M  V30 3500 H 325.735 0.737103 -1.90861 0
M  V30 3501 H 325.745 3.0478 -2.71244 0
M  V30 3502 H 324.42 2.22171 -3.51586 0
M  V30 3503 H 322.997 3.17664 -1.95305 0
M  V30 3504 N 325.182 1.32811 0.848464 0
M  V30 3505 C 326.431 1.23075 1.59798 0
M  V30 3506 C 326.744 -0.204419 1.94529 0
M  V30 3507 O 327.95 -0.423701 2.68173 0
M  V30 3508 C 326.406 2.15594 2.88179 0
M  V30 3509 C 326.014 3.64228 2.60849 0
M  V30 3510 C 327.758 2.14709 3.66197 0
M  V30 3511 C 325.665 4.48689 3.85269 0
M  V30 3512 H 324.595 0.457091 0.599653 0
M  V30 3513 H 327.246 1.57813 0.936342 0
M  V30 3514 H 325.628 1.73778 3.55833 0
M  V30 3515 H 326.802 4.14424 2.01467 0
M  V30 3516 H 325.117 3.67306 1.96151 0
M  V30 3517 H 327.714 2.75046 4.58534 0
M  V30 3518 H 328.057 1.13966 4.00397 0
M  V30 3519 H 328.59 2.54837 3.05455 0
M  V30 3520 H 325.329 5.5027 3.56207 0
M  V30 3521 H 324.849 4.03241 4.44024 0
M  V30 3522 H 326.528 4.62006 4.52946 0
M  V30 3523 N 326.66 -1.06551 1.16123 0
M  V30 3524 C 327.623 -2.12132 0.867906 0
M  V30 3525 C 328.623 -1.60224 -0.135944 0
M  V30 3526 O 329.813 -1.73943 0.0946422 0
M  V30 3527 C 326.945 -3.396 0.297419 0
M  V30 3528 H 328.138 -2.39586 1.80385 0
M  V30 3529 H 325.691 -1.22574 0.969812 0
M  V30 3530 H 326.426 -3.17794 -0.64633 0
M  V30 3531 H 326.211 -3.78581 1.02073 0
M  V30 3532 H 327.701 -4.17455 0.110052 0
M  V30 3533 N 328.138 -0.959301 -1.25041 0
M  V30 3534 C 329.387 -0.612254 -1.92183 0
M  V30 3535 C 329.7 0.855347 -1.75907 0
M  V30 3536 O 330.906 1.31256 -2.37664 0
M  V30 3537 C 329.362 -1.04435 -3.44414 0
M  V30 3538 C 328.97 -2.53482 -3.69393 0
M  V30 3539 C 330.714 -0.770055 -4.17457 0
M  V30 3540 C 328.621 -2.90468 -5.15153 0
M  V30 3541 H 327.551 -0.225279 -0.719559 0
M  V30 3542 H 330.202 -1.16438 -1.41825 0
M  V30 3543 H 328.584 -0.4206 -3.9376 0
M  V30 3544 H 329.758 -3.20916 -3.30681 0
M  V30 3545 H 328.073 -2.78432 -3.0962 0
M  V30 3546 H 330.67 -1.02249 -5.24832 0
M  V30 3547 H 331.013 0.293611 -4.15263 0
M  V30 3548 H 331.546 -1.35437 -3.74034 0
M  V30 3549 H 328.285 -3.95871 -5.22462 0
M  V30 3550 H 327.805 -2.27711 -5.54894 0
M  V30 3551 H 329.484 -2.79914 -5.83315 0
M  V30 3552 N 329.616 1.39756 -0.72842 0
M  V30 3553 C 330.862 2.01425 -0.282761 0
M  V30 3554 C 331.217 1.56754 1.11561 0
M  V30 3555 O 330.51 0.783482 1.74849 0
M  V30 3556 C 330.704 3.56002 -0.315776 0
M  V30 3557 C 330.533 4.1568 -1.71582 0
M  V30 3558 C 329.303 4.48555 -2.32651 0
M  V30 3559 C 331.501 4.39667 -2.66829 0
M  V30 3560 N 329.483 4.93698 -3.64877 0
M  V30 3561 C 330.854 4.86942 -3.8378 0
M  V30 3562 C 332.909 4.21724 -2.64675 0
M  V30 3563 C 331.612 5.18158 -4.98904 0
M  V30 3564 C 333.638 4.54049 -3.78937 0
M  V30 3565 C 333 5.01525 -4.94623 0
M  V30 3566 H 329.099 0.76756 -0.149583 0
M  V30 3567 H 331.683 1.69784 -0.952976 0
M  V30 3568 H 329.854 3.87046 0.324057 0
M  V30 3569 H 331.586 4.0443 0.147808 0
M  V30 3570 H 328.341 4.36128 -1.84633 0
M  V30 3571 H 328.765 5.20635 -4.32744 0
M  V30 3572 H 333.407 3.84228 -1.76433 0
M  V30 3573 H 331.125 5.54562 -5.87781 0
M  V30 3574 H 334.711 4.41795 -3.78561 0
M  V30 3575 H 333.591 5.26065 -5.81572 0
M  V30 3576 N 331.094 0.475555 1.50254 0
M  V30 3577 C 332.34 -0.0780073 2.0265 0
M  V30 3578 C 332.673 -1.38968 1.35652 0
M  V30 3579 O 331.948 -1.8839 0.483691 0
M  V30 3580 C 332.231 -0.257161 3.59181 0
M  V30 3581 C 332.084 1.07585 4.36744 0
M  V30 3582 C 333.403 -1.00965 4.28362 0
M  V30 3583 H 330.522 -0.0268758 0.73651 0
M  V30 3584 H 333.164 0.622015 1.7953 0
M  V30 3585 H 331.314 -0.853412 3.79011 0
M  V30 3586 H 332.986 1.70902 4.28474 0
M  V30 3587 H 331.229 1.6714 4.00308 0
M  V30 3588 H 331.9 0.904088 5.44546 0
M  V30 3589 H 334.376 -0.504214 4.13034 0
M  V30 3590 H 333.252 -1.10381 5.37687 0
M  V30 3591 H 333.513 -2.04731 3.91839 0
M  V30 3592 N 332.573 -1.56217 0.208337 0
M  V30 3593 C 333.536 -2.18455 -0.693557 0
M  V30 3594 C 334.536 -1.14268 -1.13135 0
M  V30 3595 O 335.726 -1.39577 -1.0423 0
M  V30 3596 C 332.858 -2.79727 -1.94848 0
M  V30 3597 H 334.051 -2.99519 -0.15114 0
M  V30 3598 H 331.604 -1.56245 -0.041287 0
M  V30 3599 H 332.339 -2.02497 -2.53309 0
M  V30 3600 H 332.124 -3.56009 -1.64316 0
M  V30 3601 H 333.614 -3.27475 -2.59133 0
M  V30 3602 N 334.051 0.0651679 -1.57465 0
M  V30 3603 C 335.297 0.758912 -1.88712 0
M  V30 3604 C 335.652 1.7485 -0.802819 0
M  V30 3605 O 334.945 1.90632 0.192359 0
M  V30 3606 C 335.139 1.50081 -3.24362 0
M  V30 3607 C 334.968 0.584579 -4.45884 0
M  V30 3608 C 333.738 0.219039 -5.04825 0
M  V30 3609 C 335.936 -0.121559 -5.14156 0
M  V30 3610 N 333.918 -0.702222 -6.09871 0
M  V30 3611 C 335.289 -0.899767 -6.13436 0
M  V30 3612 C 337.344 -0.192331 -4.97528 0
M  V30 3613 C 336.047 -1.74218 -6.97883 0
M  V30 3614 C 338.073 -1.02174 -5.82507 0
M  V30 3615 C 337.435 -1.78798 -6.8133 0
M  V30 3616 H 333.534 0.25293 -0.739967 0
M  V30 3617 H 336.118 0.0201744 -1.9469 0
M  V30 3618 H 334.289 2.21023 -3.1938 0
M  V30 3619 H 336.021 2.14409 -3.43236 0
M  V30 3620 H 332.776 0.57336 -4.70117 0
M  V30 3621 H 333.2 -1.15629 -6.67052 0
M  V30 3622 H 337.842 0.385741 -4.21037 0
M  V30 3623 H 335.56 -2.3312 -7.73745 0
M  V30 3624 H 339.146 -1.07957 -5.71696 0
M  V30 3625 H 338.026 -2.41942 -7.45945 0
M  V30 3626 N 335.529 1.53961 0.336706 0
M  V30 3627 C 336.778 1.70751 1.07363 0
M  V30 3628 C 337.091 0.481061 1.89592 0
M  V30 3629 O 338.297 0.530046 2.66276 0
M  V30 3630 C 336.753 3.01965 1.95818 0
M  V30 3631 C 336.361 4.31971 1.18764 0
M  V30 3632 C 338.105 3.28121 2.69327 0
M  V30 3633 C 336.012 5.54255 2.06289 0
M  V30 3634 H 334.942 0.636292 0.404535 0
M  V30 3635 H 337.593 1.80459 0.332681 0
M  V30 3636 H 335.975 2.86132 2.7376 0
M  V30 3637 H 337.149 4.5853 0.456849 0
M  V30 3638 H 335.464 4.12481 0.569946 0
M  V30 3639 H 338.061 4.16673 3.35094 0
M  V30 3640 H 338.404 2.45426 3.36261 0
M  V30 3641 H 338.937 3.44762 1.98454 0
M  V30 3642 H 335.676 6.39513 1.43885 0
M  V30 3643 H 335.196 5.31935 2.77138 0
M  V30 3644 H 336.875 5.90159 2.65182 0
M  V30 3645 N 337.007 -0.598083 1.45811 0
M  V30 3646 C 338.235 -1.38322 1.53866 0
M  V30 3647 C 338.65 -1.87992 0.174479 0
M  V30 3648 O 338.007 -1.62756 -0.825627 0
M  V30 3649 C 338.058 -2.58125 2.53089 0
M  V30 3650 O 337.779 -2.10516 3.84206 0
M  V30 3651 C 339.28 -3.50869 2.70935 0
M  V30 3652 H 336.5 -0.423093 0.520801 0
M  V30 3653 H 339.044 -0.728527 1.91083 0
M  V30 3654 H 337.199 -3.19615 2.18917 0
M  V30 3655 H 337.613 -2.88425 4.38077 0
M  V30 3656 H 339.087 -4.31451 3.44317 0
M  V30 3657 H 339.564 -4.01822 1.77301 0
M  V30 3658 H 340.17 -2.95225 3.06141 0
M  V30 3659 N 338.485 -1.33259 -0.841409 0
M  V30 3660 C 339.415 -1.25926 -1.96634 0
M  V30 3661 C 340.396 -0.140349 -1.6952 0
M  V30 3662 O 341.581 -0.329707 -1.91381 0
M  V30 3663 C 338.711 -0.99512 -3.32738 0
M  V30 3664 C 337.665 -2.0767 -3.74242 0
M  V30 3665 C 336.991 -1.66474 -5.08125 0
M  V30 3666 C 338.291 -3.49318 -3.88297 0
M  V30 3667 H 339.985 -2.20046 -2.03027 0
M  V30 3668 H 337.531 -1.05931 -0.975425 0
M  V30 3669 H 339.484 -0.930323 -4.11002 0
M  V30 3670 H 338.208 -0.0183004 -3.26595 0
M  V30 3671 H 336.867 -2.13187 -2.98239 0
M  V30 3672 H 336.515 -0.675012 -4.9845 0
M  V30 3673 H 336.215 -2.3885 -5.36865 0
M  V30 3674 H 337.739 -1.61455 -5.88867 0
M  V30 3675 H 339.153 -3.46316 -4.56879 0
M  V30 3676 H 337.55 -4.20158 -4.28471 0
M  V30 3677 H 338.62 -3.8801 -2.9082 0
M  V30 3678 N 339.963 1.05934 -1.16686 0
M  V30 3679 C 340.893 2.1546 -0.899949 0
M  V30 3680 C 341.874 1.69391 0.155154 0
M  V30 3681 O 343.059 1.94199 0.00648693 0
M  V30 3682 C 340.189 3.44939 -0.404241 0
M  V30 3683 C 339.143 4.04536 -1.39767 0
M  V30 3684 C 338.469 5.29268 -0.760216 0
M  V30 3685 C 339.769 4.42893 -2.76845 0
M  V30 3686 H 341.463 2.38046 -1.81588 0
M  V30 3687 H 339.009 1.14404 -0.874514 0
M  V30 3688 H 340.962 4.20901 -0.204971 0
M  V30 3689 H 339.686 3.21983 0.547206 0
M  V30 3690 H 338.345 3.30635 -1.58355 0
M  V30 3691 H 337.993 5.02611 0.197831 0
M  V30 3692 H 337.693 5.70101 -1.42332 0
M  V30 3693 H 339.217 6.07924 -0.57105 0
M  V30 3694 H 340.631 5.09921 -2.62019 0
M  V30 3695 H 339.028 4.94721 -3.39663 0
M  V30 3696 H 340.098 3.53584 -3.31823 0
M  V30 3697 N 341.441 0.965919 1.2453 0
M  V30 3698 C 342.374 0.4393 2.23932 0
M  V30 3699 C 343.352 -0.485615 1.55179 0
M  V30 3700 O 344.536 -0.417402 1.83821 0
M  V30 3701 C 341.663 -0.366042 3.36716 0
M  V30 3702 C 340.709 0.5009 4.23548 0
M  V30 3703 S 341.542 1.94002 4.99123 0
M  V30 3704 C 342.698 1.14342 6.15367 0
M  V30 3705 H 342.931 1.28167 2.68254 0
M  V30 3706 H 340.464 0.770819 1.33782 0
M  V30 3707 H 342.422 -0.824724 4.0213 0
M  V30 3708 H 341.083 -1.18337 2.90956 0
M  V30 3709 H 340.276 -0.117341 5.03863 0
M  V30 3710 H 339.878 0.89524 3.63127 0
M  V30 3711 H 342.17 0.397572 6.76332 0
M  V30 3712 H 343.113 1.92089 6.81548 0
M  V30 3713 H 343.521 0.668579 5.60527 0
M  V30 3714 N 342.919 -1.39368 0.735821 0
M  V30 3715 C 343.849 -2.33234 0.111506 0
M  V30 3716 C 344.83 -1.53954 -0.723334 0
M  V30 3717 O 346.015 -1.82344 -0.668147 0
M  V30 3718 C 343.145 -3.38057 -0.795917 0
M  V30 3719 C 342.099 -4.2795 -0.065172 0
M  V30 3720 C 341.425 -5.23479 -1.08967 0
M  V30 3721 C 342.725 -5.10741 1.09273 0
M  V30 3722 H 344.419 -2.85692 0.895571 0
M  V30 3723 H 341.965 -1.37364 0.432109 0
M  V30 3724 H 343.918 -4.02675 -1.24221 0
M  V30 3725 H 342.642 -2.8404 -1.61211 0
M  V30 3726 H 341.301 -3.64813 0.361511 0
M  V30 3727 H 340.949 -4.65758 -1.89944 0
M  V30 3728 H 340.649 -5.84472 -0.605489 0
M  V30 3729 H 342.173 -5.90974 -1.53565 0
M  V30 3730 H 343.587 -5.68699 0.724841 0
M  V30 3731 H 341.984 -5.8088 1.50659 0
M  V30 3732 H 343.054 -4.45525 1.91404 0
M  V30 3733 N 344.397 -0.483516 -1.5 0
M  V30 3734 C 345.808 -0.0314176 -1.86674 0
M  V30 3735 C 346.159 1.37728 -1.39733 0
M  V30 3736 O 345.284 2.02327 -0.767635 0
M  V30 3737 C 345.879 -0.0502376 -3.38763 0
M  V30 3738 C 344.438 0.346442 -3.74802 0
M  V30 3739 C 343.585 -0.430366 -2.7394 0
M  V30 3740 H 346.536 -0.697182 -1.42566 0
M  V30 3741 H 346.557 0.749116 -3.73053 0
M  V30 3742 H 346.069 -1.07563 -3.72897 0
M  V30 3743 H 344.17 1.37572 -3.46273 0
M  V30 3744 H 344.283 0.0391486 -4.79084 0
M  V30 3745 H 342.647 0.117557 -2.54429 0
M  V30 3746 H 343.43 -1.4555 -3.10918 0
M  V30 3747 N 345.875 1.56104 -0.216619 0
M  V30 3748 C 347.152 1.89988 0.465165 0
M  V30 3749 C 347.532 1.13326 1.78102 0
M  V30 3750 O 346.88 0.241033 2.27225 0
M  V30 3751 C 347.09 3.42646 0.662939 0
M  V30 3752 C 348.438 4.13311 0.972602 0
M  V30 3753 O 349.462 3.48217 0.749901 0
M  V30 3754 O 348.321 5.28396 1.39499 0
M  V30 3755 H 345.415 0.78979 0.245276 0
M  V30 3756 H 347.961 1.67721 -0.258436 0
M  V30 3757 H 346.733 3.90399 -0.26543 0
M  V30 3758 H 346.356 3.70677 1.43821 0
M  V30 3759 N 347.353 -0.0568162 1.57498 0
M  V30 3760 C 348.6 -0.753104 1.87975 0
M  V30 3761 C 348.928 -1.76815 0.81035 0
M  V30 3762 O 348.183 -1.94756 -0.19199 0
M  V30 3763 C 348.482 -1.48359 3.25153 0
M  V30 3764 C 348.148 -0.60713 4.46794 0
M  V30 3765 C 346.81 -0.365642 4.79809 0
M  V30 3766 C 349.162 -0.000305978 5.212 0
M  V30 3767 C 346.49 0.491905 5.84634 0
M  V30 3768 C 348.842 0.844781 6.26934 0
M  V30 3769 C 347.506 1.096 6.58441 0
M  V30 3770 H 346.776 -0.27558 0.687849 0
M  V30 3771 H 349.423 -0.0135173 1.91495 0
M  V30 3772 H 347.728 -2.29577 3.17492 0
M  V30 3773 H 349.425 -2.02739 3.45974 0
M  V30 3774 H 346.015 -0.805487 4.20963 0
M  V30 3775 H 350.199 -0.173961 4.95995 0
M  V30 3776 H 345.455 0.695131 6.07436 0
M  V30 3777 H 349.629 1.32165 6.83744 0
M  V30 3778 H 347.256 1.76224 7.39492 0
M  V30 3779 N 348.832 -1.54138 -0.328536 0
M  V30 3780 C 350.109 -1.62749 -1.08499 0
M  V30 3781 C 350.489 -0.458198 -2.06067 0
M  V30 3782 O 349.837 0.548046 -2.2183 0
M  V30 3783 C 350.047 -2.99519 -1.79135 0
M  V30 3784 C 351.395 -3.55394 -2.32337 0
M  V30 3785 O 352.419 -3.01792 -1.89209 0
M  V30 3786 O 351.278 -4.49186 -3.11279 0
M  V30 3787 H 348.372 -0.65886 -0.499832 0
M  V30 3788 H 350.918 -1.66484 -0.328826 0
M  V30 3789 H 349.69 -3.76061 -1.08139 0
M  V30 3790 H 349.313 -2.99441 -2.61574 0
M  V30 3791 N 350.31 0.590341 -1.46126 0
M  V30 3792 C 351.726 0.912917 -1.30912 0
M  V30 3793 C 351.926 1.99616 -0.274893 0
M  V30 3794 O 350.982 2.50397 0.325197 0
M  V30 3795 C 352.295 1.3375 -2.69317 0
M  V30 3796 C 353.843 1.45077 -2.77348 0
M  V30 3797 C 354.318 1.90904 -4.16317 0
M  V30 3798 N 355.809 1.9811 -4.18696 0
M  V30 3799 C 356.544 2.34828 -5.23109 0
M  V30 3800 N 356.04 2.70393 -6.37856 0
M  V30 3801 N 357.833 2.35317 -5.10473 0
M  V30 3802 H 349.984 -0.125358 -2.1203 0
M  V30 3803 H 352.247 0.00658481 -0.947977 0
M  V30 3804 H 351.953 0.615614 -3.4627 0
M  V30 3805 H 351.827 2.30058 -2.9892 0
M  V30 3806 H 354.214 2.16353 -2.00687 0
M  V30 3807 H 354.295 0.4704 -2.51438 0
M  V30 3808 H 353.939 1.20209 -4.9347 0
M  V30 3809 H 353.869 2.89886 -4.39629 0
M  V30 3810 H 356.36 1.73146 -3.359 0
M  V30 3811 H 356.673 2.97341 -7.13308 0
M  V30 3812 H 355.018 2.68048 -6.41229 0
M  V30 3813 H 358.209 2.0695 -4.19868 0
M  V30 3814 H 358.382 2.63605 -5.9196 0
M  V30 3815 N 351.788 1.33704 0.83433 0
M  V30 3816 C 353.204 1.13137 1.12571 0
M  V30 3817 C 353.404 -0.0747261 2.01361 0
M  V30 3818 O 352.46 -0.753647 2.4099 0
M  V30 3819 C 353.773 2.42105 1.78342 0
M  V30 3820 C 355.321 2.48054 1.90888 0
M  V30 3821 C 355.796 3.76995 2.60075 0
M  V30 3822 N 357.287 3.78092 2.67584 0
M  V30 3823 C 358.022 4.74574 3.21818 0
M  V30 3824 N 357.518 5.81434 3.76705 0
M  V30 3825 N 359.311 4.62044 3.20112 0
M  V30 3826 H 351.462 2.11 0.243489 0
M  V30 3827 H 353.725 0.932532 0.17055 0
M  V30 3828 H 353.431 3.30391 1.20561 0
M  V30 3829 H 353.305 2.54594 2.7832 0
M  V30 3830 H 355.692 1.60215 2.47821 0
M  V30 3831 H 355.773 2.39502 0.898459 0
M  V30 3832 H 355.417 4.65219 2.03799 0
M  V30 3833 H 355.347 3.82825 3.61597 0
M  V30 3834 H 357.838 3.00865 2.28667 0
M  V30 3835 H 358.151 6.51084 4.16305 0
M  V30 3836 H 356.496 5.85163 3.7498 0
M  V30 3837 H 359.687 3.77716 2.76493 0
M  V30 3838 H 359.86 5.37406 3.62076 0
M  V30 3839 N 353.266 -1.05314 1.17247 0
M  V30 3840 C 354.512 -1.78699 0.971513 0
M  V30 3841 C 354.867 -1.85932 -0.494692 0
M  V30 3842 O 354.16 -1.34716 -1.36243 0
M  V30 3843 C 354.354 -3.2229 1.54479 0
M  V30 3844 C 354.183 -3.29052 3.06521 0
M  V30 3845 C 352.953 -3.3841 3.75242 0
M  V30 3846 C 355.151 -3.18095 4.04129 0
M  V30 3847 N 353.133 -3.34289 5.14902 0
M  V30 3848 C 354.504 -3.21331 5.30232 0
M  V30 3849 C 356.559 -3.02049 3.95817 0
M  V30 3850 C 355.262 -3.10169 6.4899 0
M  V30 3851 C 357.288 -2.92228 5.14156 0
M  V30 3852 C 356.65 -2.96096 6.39145 0
M  V30 3853 H 352.749 -0.66628 0.409383 0
M  V30 3854 H 355.333 -1.25553 1.4881 0
M  V30 3855 H 353.504 -3.7381 1.05455 0
M  V30 3856 H 355.236 -3.83905 1.28059 0
M  V30 3857 H 351.991 -3.43621 3.25917 0
M  V30 3858 H 352.415 -3.35702 5.87906 0
M  V30 3859 H 357.057 -2.97897 3.00029 0
M  V30 3860 H 354.775 -3.13076 7.44989 0
M  V30 3861 H 358.361 -2.80885 5.09505 0
M  V30 3862 H 357.241 -2.88568 7.29176 0
M  V30 3863 N 354.744 -0.972509 -1.24016 0
M  V30 3864 C 356.021 -0.553733 -1.87598 0
M  V30 3865 C 356.401 0.969158 -1.87538 0
M  V30 3866 O 355.749 1.84255 -1.35139 0
M  V30 3867 C 355.959 -1.15076 -3.29482 0
M  V30 3868 C 357.307 -1.23862 -4.06132 0
M  V30 3869 O 358.331 -1.10363 -3.38672 0
M  V30 3870 O 357.19 -1.45252 -5.26844 0
M  V30 3871 H 354.284 -0.185331 -0.805966 0
M  V30 3872 H 356.83 -1.06709 -1.31952 0
M  V30 3873 H 355.602 -2.19333 -3.2405 0
M  V30 3874 H 355.225 -0.621746 -3.92709 0
M  V30 3875 N 356.222 1.38976 -0.743202 0
M  V30 3876 C 357.499 1.94351 -0.220705 0
M  V30 3877 C 357.879 1.67935 1.2791 0
M  V30 3878 O 357.227 1.01211 2.04862 0
M  V30 3879 C 357.437 3.44426 -0.563171 0
M  V30 3880 C 358.785 4.2144 -0.517046 0
M  V30 3881 O 359.809 3.52661 -0.500846 0
M  V30 3882 O 358.668 5.44032 -0.518806 0
M  V30 3883 H 355.762 0.825879 -0.043047 0
M  V30 3884 H 358.308 1.48429 -0.822618 0
M  V30 3885 H 357.08 3.5712 -1.59941 0
M  V30 3886 H 356.703 3.97543 0.0672883 0
M  V30 3887 N 357.7 0.491464 1.49741 0
M  V30 3888 C 358.928 -0.0535151 2.06831 0
M  V30 3889 C 359.343 -1.31683 1.35296 0
M  V30 3890 O 358.7 -1.77402 0.42836 0
M  V30 3891 C 358.751 -0.320835 3.60073 0
M  V30 3892 O 358.472 0.892394 4.28915 0
M  V30 3893 C 359.973 -0.910519 4.33848 0
M  V30 3894 H 357.193 0.0161909 0.670805 0
M  V30 3895 H 359.737 0.68609 1.92647 0
M  V30 3896 H 357.892 -1.0104 3.73991 0
M  V30 3897 H 358.306 0.649401 5.20464 0
M  V30 3898 H 359.78 -1.04721 5.41976 0
M  V30 3899 H 360.257 -1.90589 3.95692 0
M  V30 3900 H 360.863 -0.258712 4.24512 0
M  V30 3901 N 359.178 -1.55987 0.224894 0
M  V30 3902 C 360.427 -1.97566 -0.406273 0
M  V30 3903 C 360.74 -1.11569 -1.6066 0
M  V30 3904 O 361.946 -1.43062 -2.3075 0
M  V30 3905 C 360.402 -3.51474 -0.774207 0
M  V30 3906 C 360.01 -4.46179 0.403496 0
M  V30 3907 C 361.754 -4.01758 -1.37079 0
M  V30 3908 C 359.661 -5.91399 0.0129412 0
M  V30 3909 H 358.591 -0.737777 -0.155565 0
M  V30 3910 H 361.242 -1.80659 0.321635 0
M  V30 3911 H 359.624 -3.63994 -1.55963 0
M  V30 3912 H 360.798 -4.45409 1.18101 0
M  V30 3913 H 359.113 -4.06255 0.913536 0
M  V30 3914 H 361.71 -5.07756 -1.67596 0
M  V30 3915 H 362.053 -3.47805 -2.28773 0
M  V30 3916 H 362.586 -3.92475 -0.648733 0
M  V30 3917 H 359.325 -6.49341 0.896451 0
M  V30 3918 H 358.845 -5.95356 -0.728821 0
M  V30 3919 H 360.524 -6.45683 -0.412582 0
M  V30 3920 N 360.656 0.0484629 -1.57525 0
M  V30 3921 C 361.586 1.0549 -2.08313 0
M  V30 3922 C 362.567 1.38929 -0.981463 0
M  V30 3923 O 363.752 1.48151 -1.25558 0
M  V30 3924 C 360.882 2.36162 -2.54646 0
M  V30 3925 C 359.836 2.17016 -3.68901 0
M  V30 3926 C 359.162 3.53278 -4.01371 0
M  V30 3927 C 360.462 1.57219 -4.98076 0
M  V30 3928 H 362.156 0.632195 -2.92649 0
M  V30 3929 H 359.702 0.302654 -1.40784 0
M  V30 3930 H 361.655 3.06882 -2.88793 0
M  V30 3931 H 360.379 2.80456 -1.67368 0
M  V30 3932 H 359.038 1.48733 -3.35073 0
M  V30 3933 H 358.686 3.95185 -3.11188 0
M  V30 3934 H 358.386 3.41299 -4.78318 0
M  V30 3935 H 359.91 4.25391 -4.38035 0
M  V30 3936 H 361.324 2.17832 -5.30304 0
M  V30 3937 H 359.721 1.55871 -5.79503 0
M  V30 3938 H 360.791 0.535956 -4.81929 0
M  V30 3939 N 362.134 1.5431 0.320358 0
M  V30 3940 C 363.359 1.76954 1.08175 0
M  V30 3941 C 363.784 0.518193 1.80821 0
M  V30 3942 O 363.142 -0.530411 1.73368 0
M  V30 3943 C 363.19 2.96451 2.05303 0
M  V30 3944 O 362.294 2.68221 3.13259 0
M  V30 3945 H 361.635 0.586275 0.311733 0
M  V30 3946 H 364.165 2.01342 0.363676 0
M  V30 3947 H 364.175 3.23887 2.48116 0
M  V30 3948 H 362.85 3.87196 1.51829 0
M  V30 3949 H 361.427 2.51744 2.75099 0
M  V30 3950 N 363.613 -0.582584 1.46437 0
M  V30 3951 C 364.838 -1.37168 1.55563 0
M  V30 3952 C 365.263 -1.87061 0.19743 0
M  V30 3953 O 364.621 -1.61572 -0.822451 0
M  V30 3954 C 364.669 -2.53511 2.56446 0
M  V30 3955 O 363.773 -3.54953 2.09958 0
M  V30 3956 H 363.114 -0.408494 0.523477 0
M  V30 3957 H 365.644 -0.706646 1.9201 0
M  V30 3958 H 365.654 -3.00426 2.76058 0
M  V30 3959 H 364.329 -2.16549 3.55076 0
M  V30 3960 H 362.906 -3.14516 2.00334 0
M  V30 3961 N 365.091 -1.34144 -0.827227 0
M  V30 3962 C 366.054 -1.25264 -1.91942 0
M  V30 3963 C 367.054 -0.168866 -1.59911 0
M  V30 3964 O 368.244 -0.421198 -1.69031 0
M  V30 3965 C 365.376 -0.932952 -3.27885 0
M  V30 3966 H 366.569 -2.22357 -2.0124 0
M  V30 3967 H 364.122 -1.1837 -1.0207 0
M  V30 3968 H 364.857 0.0349917 -3.24281 0
M  V30 3969 H 364.642 -1.71682 -3.52516 0
M  V30 3970 H 366.132 -0.895874 -4.07877 0
M  V30 3971 N 366.569 1.04691 -1.17803 0
M  V30 3972 C 367.499 2.14494 -0.92275 0
M  V30 3973 C 368.48 1.69546 0.137179 0
M  V30 3974 O 369.665 1.94195 -0.0141108 0
M  V30 3975 C 366.795 3.44491 -0.440803 0
M  V30 3976 C 365.749 4.03031 -1.4405 0
M  V30 3977 C 365.075 5.28432 -0.81631 0
M  V30 3978 C 366.375 4.39932 -2.81527 0
M  V30 3979 H 368.069 2.36107 -1.84103 0
M  V30 3980 H 365.615 1.1347 -0.886599 0
M  V30 3981 H 367.568 4.2066 -0.249602 0
M  V30 3982 H 366.292 3.22546 0.513025 0
M  V30 3983 H 364.951 3.28937 -1.61853 0
M  V30 3984 H 364.599 5.02792 0.144511 0
M  V30 3985 H 364.299 5.68559 -1.48371 0
M  V30 3986 H 365.823 6.07284 -0.635496 0
M  V30 3987 H 367.237 5.07113 -2.67412 0
M  V30 3988 H 365.634 4.9109 -3.44892 0
M  V30 3989 H 366.704 3.50045 -3.35554 0
M  V30 3990 N 368.047 0.979072 1.23499 0
M  V30 3991 C 369.01 0.523244 2.23147 0
M  V30 3992 C 370.01 -0.386406 1.56088 0
M  V30 3993 O 371.2 -0.180283 1.73265 0
M  V30 3994 C 368.332 -0.240739 3.40049 0
M  V30 3995 H 369.525 1.40432 2.64989 0
M  V30 3996 H 367.078 0.764824 1.36309 0
M  V30 3997 H 367.813 -1.13841 3.03662 0
M  V30 3998 H 367.598 0.412207 3.89927 0
M  V30 3999 H 369.088 -0.548297 4.13985 0
M  V30 4000 N 369.525 -1.3858 0.750561 0
M  V30 4001 C 370.488 -2.28836 0.129152 0
M  V30 4002 C 371.488 -1.47045 -0.650714 0
M  V30 4003 O 372.678 -1.6753 -0.477428 0
M  V30 4004 C 369.81 -3.30751 -0.825622 0
M  V30 4005 H 371.003 -2.85294 0.924516 0
M  V30 4006 H 368.556 -1.47489 0.517376 0
M  V30 4007 H 369.291 -2.79378 -1.64677 0
M  V30 4008 H 369.076 -3.91177 -0.268852 0
M  V30 4009 H 370.566 -3.98249 -1.2565 0
M  V30 4010 N 371.003 -0.499398 -1.49478 0
M  V30 4011 C 371.951 0.293604 -2.3074 0
M  V30 4012 C 372.945 0.96427 -1.39277 0
M  V30 4013 O 374.151 0.892141 -1.56336 0
M  V30 4014 H 370.526 0.113541 -0.743379 0
M  V30 4015 H 372.497 -0.411772 -2.95545 0
M  V30 4016 C 371.246 1.3462 -3.20582 0
M  V30 4017 H 370.569 0.83954 -3.90886 0
M  V30 4018 H 372.009 1.87308 -3.80384 0
M  V30 4019 C 370.468 2.36351 -2.40083 0
M  V30 4020 O 370.998 3.422 -2.10385 0
M  V30 4021 N 369.204 2.0878 -2.02137 0
M  V30 4022 H 368.751 1.22723 -2.26488 0
M  V30 4023 H 368.709 2.77075 -1.48583 0
M  V30 4024 N 372.481 1.55866 -0.233164 0
M  V30 4025 C 373.729 1.9821 0.394593 0
M  V30 4026 C 374.05 1.12234 1.59463 0
M  V30 4027 O 373.32 0.201981 1.94856 0
M  V30 4028 H 371.9 0.732034 0.148778 0
M  V30 4029 H 374.562 1.92107 -0.32876 0
M  V30 4030 H 373.658 3.03845 0.713063 0
M  V30 4031 N 373.959 -0.0401083 1.57549 0
M  V30 4032 C 375.205 -0.728793 1.89895 0
M  V30 4033 C 375.56 -1.73551 0.830535 0
M  V30 4034 O 374.853 -1.90914 -0.162007 0
M  V30 4035 C 375.047 -1.44902 3.26708 0
M  V30 4036 C 374.876 -0.513568 4.46758 0
M  V30 4037 C 373.646 -0.138698 5.0511 0
M  V30 4038 C 375.844 0.203341 5.13898 0
M  V30 4039 N 373.826 0.799159 6.08676 0
M  V30 4040 C 375.197 0.997246 6.11927 0
M  V30 4041 C 377.252 0.271459 4.97159 0
M  V30 4042 C 375.955 1.85299 6.95023 0
M  V30 4043 C 377.981 1.11429 5.80808 0
M  V30 4044 C 377.343 1.89615 6.78399 0
M  V30 4045 H 373.442 -0.241125 0.743897 0
M  V30 4046 H 376.026 0.0108016 1.94697 0
M  V30 4047 H 374.197 -2.15914 3.22856 0
M  V30 4048 H 375.929 -2.08921 3.46603 0
M  V30 4049 H 372.684 -0.498496 4.70969 0
M  V30 4050 H 373.108 1.26227 6.65128 0
M  V30 4051 H 377.75 -0.318709 4.21597 0
M  V30 4052 H 375.468 2.454 7.69938 0
M  V30 4053 H 379.054 1.17038 5.69906 0
M  V30 4054 H 377.934 2.53779 7.42001 0
M  V30 4055 N 375.437 -1.54477 -0.31217 0
M  V30 4056 C 376.683 -1.73483 -1.0503 0
M  V30 4057 C 377.016 -0.513125 -1.87298 0
M  V30 4058 O 376.291 0.489864 -1.8823 0
M  V30 4059 C 376.574 -3.01723 -1.96558 0
M  V30 4060 C 376.427 -4.3417 -1.17545 0
M  V30 4061 C 377.746 -3.25772 -2.95907 0
M  V30 4062 H 374.865 -0.631222 -0.380432 0
M  V30 4063 H 377.507 -1.87184 -0.325932 0
M  V30 4064 H 375.657 -2.90174 -2.58324 0
M  V30 4065 H 377.329 -4.5762 -0.581513 0
M  V30 4066 H 375.572 -4.31159 -0.477925 0
M  V30 4067 H 376.243 -5.20143 -1.84811 0
M  V30 4068 H 378.719 -3.36857 -2.44267 0
M  V30 4069 H 377.595 -4.16838 -3.57123 0
M  V30 4070 H 377.856 -2.43537 -3.68974 0
M  V30 4071 N 376.915 0.57481 -1.46744 0
M  V30 4072 C 378.162 1.33272 -1.52462 0
M  V30 4073 C 378.49 1.93669 -0.179572 0
M  V30 4074 O 377.745 1.7743 0.825664 0
M  V30 4075 C 378.044 2.476 -2.57738 0
M  V30 4076 C 377.71 2.05146 -4.01529 0
M  V30 4077 C 376.372 1.93284 -4.40676 0
M  V30 4078 C 378.724 1.72506 -4.91824 0
M  V30 4079 C 376.052 1.47049 -5.67973 0
M  V30 4080 C 378.404 1.27748 -6.19567 0
M  V30 4081 C 377.068 1.14468 -6.57612 0
M  V30 4082 H 376.338 0.487678 -0.557899 0
M  V30 4083 H 378.985 0.646456 -1.80259 0
M  V30 4084 H 377.29 3.21708 -2.23632 0
M  V30 4085 H 378.987 3.05807 -2.5939 0
M  V30 4086 H 375.577 2.15316 -3.7059 0
M  V30 4087 H 379.761 1.80552 -4.62293 0
M  V30 4088 H 375.017 1.35417 -5.96215 0
M  V30 4089 H 379.191 1.01547 -6.88957 0
M  V30 4090 H 376.818 0.78419 -7.56145 0
M  V30 4091 N 378.394 1.34581 0.820102 0
M  V30 4092 C 379.324 1.29038 1.94606 0
M  V30 4093 C 380.305 0.1673 1.69275 0
M  V30 4094 O 381.49 0.360112 1.90832 0
M  V30 4095 C 378.62 1.04793 3.31113 0
M  V30 4096 C 377.574 2.13597 3.70891 0
M  V30 4097 C 376.9 1.74537 5.05412 0
M  V30 4098 C 378.2 3.55451 3.8269 0
M  V30 4099 H 379.894 2.23248 1.99501 0
M  V30 4100 H 377.44 1.0747 0.958449 0
M  V30 4101 H 379.393 0.995592 4.0947 0
M  V30 4102 H 378.117 0.0702565 3.26524 0
M  V30 4103 H 376.776 2.17905 2.9481 0
M  V30 4104 H 376.424 0.754226 4.97313 0
M  V30 4105 H 376.124 2.47361 5.32997 0
M  V30 4106 H 377.648 1.70803 5.86224 0
M  V30 4107 H 379.062 3.5354 4.51312 0
M  V30 4108 H 377.459 4.26922 4.21732 0
M  V30 4109 H 378.529 3.92587 2.84611 0
M  V30 4110 N 379.872 -1.04064 1.18357 0
M  V30 4111 C 380.802 -2.14001 0.934113 0
M  V30 4112 C 381.783 -1.69616 -0.128186 0
M  V30 4113 O 382.968 -1.94185 0.0244093 0
M  V30 4114 C 380.098 -3.44253 0.459066 0
M  V30 4115 C 379.052 -4.02261 1.46185 0
M  V30 4116 C 378.378 -5.27992 0.844322 0
M  V30 4117 C 379.678 -4.38432 2.83856 0
M  V30 4118 H 381.372 -2.35127 1.85352 0
M  V30 4119 H 378.918 -1.12998 0.892604 0
M  V30 4120 H 380.871 -4.20522 0.271907 0
M  V30 4121 H 379.595 -3.22813 -0.495912 0
M  V30 4122 H 378.254 -3.28074 1.63595 0
M  V30 4123 H 377.902 -5.02862 -0.117845 0
M  V30 4124 H 377.602 -5.67765 1.51384 0
M  V30 4125 H 379.126 -6.06938 0.667693 0
M  V30 4126 H 380.54 -5.05688 2.70098 0
M  V30 4127 H 378.937 -4.89254 3.47491 0
M  V30 4128 H 380.007 -3.4826 3.37406 0
M  V30 4129 N 381.35 -0.985608 -1.22978 0
M  V30 4130 C 382.313 -0.535071 -2.22867 0
M  V30 4131 C 383.313 0.378123 -1.56291 0
M  V30 4132 O 384.503 0.171092 -1.73358 0
M  V30 4133 C 381.635 0.222702 -3.40172 0
M  V30 4134 H 382.828 -1.41835 -2.6424 0
M  V30 4135 H 380.381 -0.772042 -1.35901 0
M  V30 4136 H 381.116 1.12229 -3.04262 0
M  V30 4137 H 380.901 -0.43288 -3.89703 0
M  V30 4138 H 382.391 0.526335 -4.1427 0
M  V30 4139 N 382.828 1.3818 -0.7579 0
M  V30 4140 C 384.058 2.04004 -0.326463 0
M  V30 4141 C 384.466 1.57286 1.05156 0
M  V30 4142 O 383.809 0.743144 1.67997 0
M  V30 4143 C 383.871 3.58444 -0.275402 0
M  V30 4144 C 383.535 4.28237 -1.59569 0
M  V30 4145 C 384.532 4.53312 -2.54566 0
M  V30 4146 C 382.217 4.66341 -1.86631 0
M  V30 4147 C 384.211 5.15531 -3.74842 0
M  V30 4148 C 381.898 5.28283 -3.0718 0
M  V30 4149 C 382.896 5.52814 -4.01106 0
M  V30 4150 O 382.584 6.13465 -5.19534 0
M  V30 4151 H 382.316 0.662026 -0.136739 0
M  V30 4152 H 384.87 1.7777 -1.02893 0
M  V30 4153 H 383.1 3.83667 0.483337 0
M  V30 4154 H 384.789 4.05701 0.127099 0
M  V30 4155 H 385.555 4.24299 -2.34936 0
M  V30 4156 H 381.434 4.46591 -1.14358 0
M  V30 4157 H 384.978 5.34594 -4.48168 0
M  V30 4158 H 380.875 5.56719 -3.26702 0
M  V30 4159 H 381.643 6.31951 -5.20173 0
M  V30 4160 N 384.306 0.507319 1.49211 0
M  V30 4161 C 385.552 -0.0350047 2.0277 0
M  V30 4162 C 385.885 -1.3606 1.38569 0
M  V30 4163 O 385.16 -1.87321 0.523542 0
M  V30 4164 C 385.443 -0.180916 3.59645 0
M  V30 4165 C 385.296 1.16825 4.34364 0
M  V30 4166 C 386.615 -0.918558 4.30407 0
M  V30 4167 H 383.734 -0.0112473 0.736914 0
M  V30 4168 H 386.376 0.659956 1.7817 0
M  V30 4169 H 384.526 -0.772826 3.80736 0
M  V30 4170 H 386.198 1.79952 4.24753 0
M  V30 4171 H 384.441 1.75594 3.96673 0
M  V30 4172 H 385.112 1.01939 5.42506 0
M  V30 4173 H 387.588 -0.41649 4.1401 0
M  V30 4174 H 386.464 -0.989505 5.39907 0
M  V30 4175 H 386.725 -1.96373 3.96093 0
M  V30 4176 N 385.784 -1.5574 0.241426 0
M  V30 4177 C 387.009 -2.0366 -0.392111 0
M  V30 4178 C 387.434 -1.11969 -1.51144 0
M  V30 4179 O 386.792 -0.111594 -1.80956 0
M  V30 4180 C 386.84 -3.49638 -0.882371 0
M  V30 4181 O 385.944 -3.6108 -1.99235 0
M  V30 4182 H 385.285 -0.658379 -0.0862122 0
M  V30 4183 H 387.815 -2.01302 0.365881 0
M  V30 4184 H 387.825 -3.90351 -1.18702 0
M  V30 4185 H 386.5 -4.15852 -0.0632361 0
M  V30 4186 H 385.077 -3.32262 -1.69282 0
M  V30 4187 N 387.262 0.0317525 -1.57568 0
M  V30 4188 C 388.673 0.578692 -1.77505 0
M  V30 4189 C 389.024 1.75749 -0.872164 0
M  V30 4190 O 388.149 2.16298 -0.0663106 0
M  V30 4191 C 388.744 1.05658 -3.21904 0
M  V30 4192 C 387.303 1.54906 -3.43047 0
M  V30 4193 C 386.45 0.485939 -2.73009 0
M  V30 4194 H 389.401 -0.194475 -1.57504 0
M  V30 4195 H 389.422 1.92404 -3.28269 0
M  V30 4196 H 388.934 0.198422 -3.87592 0
M  V30 4197 H 387.035 2.42915 -2.82529 0
M  V30 4198 H 387.148 1.59841 -4.5165 0
M  V30 4199 H 385.512 0.940354 -2.36705 0
M  V30 4200 H 386.295 -0.362709 -3.41379 0
M  V30 4201 N 388.74 1.54641 0.303973 0
M  V30 4202 C 389.65 1.88439 1.39743 0
M  V30 4203 C 390.666 0.778239 1.55626 0
M  V30 4204 O 391.842 1.07442 1.70347 0
M  V30 4205 C 388.907 2.12212 2.74166 0
M  V30 4206 C 387.968 3.35936 2.67293 0
M  V30 4207 C 387.201 3.58566 3.95305 0
M  V30 4208 O 387.424 2.84263 4.9452 0
M  V30 4209 O 386.358 4.52078 3.97378 0
M  V30 4210 H 390.184 2.81458 1.14083 0
M  V30 4211 H 387.769 1.40793 0.499768 0
M  V30 4212 H 389.651 2.29067 3.53704 0
M  V30 4213 H 388.326 1.22379 2.99675 0
M  V30 4214 H 387.233 3.24448 1.86237 0
M  V30 4215 H 388.566 4.2589 2.46736 0
M  V30 4216 N 390.218 -0.567019 1.47046 0
M  V30 4217 C 391.465 -1.32462 1.53167 0
M  V30 4218 C 391.793 -1.93571 0.189841 0
M  V30 4219 O 391.048 -1.77865 -0.816243 0
M  V30 4220 C 391.347 -2.4623 2.59047 0
M  V30 4221 C 391.013 -2.03014 4.02612 0
M  V30 4222 C 389.675 -1.90944 4.41694 0
M  V30 4223 C 392.027 -1.69895 4.92732 0
M  V30 4224 C 389.355 -1.44035 5.68745 0
M  V30 4225 C 391.707 -1.2446 6.20236 0
M  V30 4226 C 390.371 -1.10979 6.5821 0
M  V30 4227 H 389.641 -0.484713 0.560477 0
M  V30 4228 H 392.288 -0.636888 1.80599 0
M  V30 4229 H 390.593 -3.20517 2.25335 0
M  V30 4230 H 392.29 -3.04427 2.61008 0
M  V30 4231 H 388.88 -2.13348 3.71726 0
M  V30 4232 H 393.064 -1.78098 4.63244 0
M  V30 4233 H 388.32 -1.32254 5.96925 0
M  V30 4234 H 392.494 -0.978924 6.89485 0
M  V30 4235 H 390.121 -0.744078 7.5655 0
M  V30 4236 N 391.696 -1.35014 -0.812953 0
M  V30 4237 C 392.942 -1.29129 -1.57154 0
M  V30 4238 C 393.297 0.134922 -1.91926 0
M  V30 4239 O 392.59 1.08373 -1.58006 0
M  V30 4240 C 392.784 -2.12524 -2.87347 0
M  V30 4241 C 392.613 -3.6311 -2.65294 0
M  V30 4242 C 391.383 -4.32363 -2.61516 0
M  V30 4243 C 393.581 -4.56897 -2.36114 0
M  V30 4244 N 391.563 -5.68735 -2.31113 0
M  V30 4245 C 392.934 -5.81345 -2.15494 0
M  V30 4246 C 394.989 -4.45706 -2.21925 0
M  V30 4247 C 393.692 -6.95862 -1.82122 0
M  V30 4248 C 395.718 -5.60066 -1.89948 0
M  V30 4249 C 395.08 -6.83539 -1.7016 0
M  V30 4250 H 391.179 -0.527764 -0.577052 0
M  V30 4251 H 393.763 -1.6983 -0.952146 0
M  V30 4252 H 391.934 -1.74104 -3.47192 0
M  V30 4253 H 393.666 -1.98207 -3.5284 0
M  V30 4254 H 390.421 -3.84907 -2.75941 0
M  V30 4255 H 390.845 -6.40694 -2.18724 0
M  V30 4256 H 395.487 -3.50855 -2.35925 0
M  V30 4257 H 393.205 -7.90685 -1.6686 0
M  V30 4258 H 396.791 -5.53357 -1.79687 0
M  V30 4259 H 395.671 -7.70531 -1.45777 0
M  V30 4260 N 393.175 1.03435 -1.18907 0
M  V30 4261 C 394.105 2.13503 -0.945448 0
M  V30 4262 C 395.086 1.69682 0.119189 0
M  V30 4263 O 396.271 1.94169 -0.034707 0
M  V30 4264 C 393.401 3.44004 -0.477316 0
M  V30 4265 C 392.355 4.0148 -1.48316 0
M  V30 4266 C 391.681 5.27537 -0.872311 0
M  V30 4267 C 392.981 4.36921 -2.86177 0
M  V30 4268 H 394.675 2.34141 -1.86597 0
M  V30 4269 H 392.221 1.12523 -0.898584 0
M  V30 4270 H 394.174 4.20372 -0.294204 0
M  V30 4271 H 392.898 3.23072 0.478786 0
M  V30 4272 H 391.557 3.27201 -1.65332 0
M  V30 4273 H 391.205 5.02917 0.0911752 0
M  V30 4274 H 390.905 5.66954 -1.54393 0
M  V30 4275 H 392.429 6.06576 -0.699871 0
M  V30 4276 H 393.843 5.04248 -2.72776 0
M  V30 4277 H 392.24 4.87405 -3.50081 0
M  V30 4278 H 393.31 3.46466 -3.39248 0
M  V30 4279 N 394.653 0.992116 1.22453 0
M  V30 4280 C 395.583 0.561677 2.26644 0
M  V30 4281 C 396.564 -0.411055 1.65059 0
M  V30 4282 O 397.749 -0.301861 1.9184 0
M  V30 4283 C 394.879 -0.125247 3.47074 0
M  V30 4284 C 393.833 0.765948 4.21091 0
M  V30 4285 C 393.159 -0.0538484 5.34673 0
M  V30 4286 C 394.459 2.06242 4.79856 0
M  V30 4287 H 396.153 1.43259 2.62902 0
M  V30 4288 H 393.699 0.690283 1.26377 0
M  V30 4289 H 395.652 -0.437764 4.1912 0
M  V30 4290 H 394.376 -1.03069 3.0991 0
M  V30 4291 H 393.035 1.0621 3.50878 0
M  V30 4292 H 392.683 -0.960188 4.9375 0
M  V30 4293 H 392.383 0.539415 5.85119 0
M  V30 4294 H 393.907 -0.360477 6.09535 0
M  V30 4295 H 395.321 1.8139 5.43848 0
M  V30 4296 H 393.718 2.60444 5.40638 0
M  V30 4297 H 394.788 2.74167 3.99951 0
M  V30 4298 N 396.131 -1.37776 0.765217 0
M  V30 4299 C 397.359 -2.04124 0.337767 0
M  V30 4300 C 397.774 -1.57715 -1.03785 0
M  V30 4301 O 397.131 -0.755447 -1.6613 0
M  V30 4302 C 397.182 -3.59658 0.364442 0
M  V30 4303 O 396.903 -4.04367 1.68579 0
M  V30 4304 C 398.404 -4.43236 -0.0754221 0
M  V30 4305 H 395.624 -0.655696 0.142491 0
M  V30 4306 H 398.168 -1.76238 1.03732 0
M  V30 4307 H 396.323 -3.86339 -0.286471 0
M  V30 4308 H 396.737 -4.98857 1.61993 0
M  V30 4309 H 398.211 -5.52 -0.00560067 0
M  V30 4310 H 398.688 -4.2455 -1.12491 0
M  V30 4311 H 399.294 -4.21767 0.547055 0
M  V30 4312 N 397.609 -0.515225 -1.4894 0
M  V30 4313 C 398.556 0.255567 -2.29381 0
M  V30 4314 C 399.526 0.947387 -1.36432 0
M  V30 4315 O 400.711 0.951288 -1.65394 0
M  V30 4316 C 397.851 1.30551 -3.19453 0
M  V30 4317 C 396.964 0.624029 -4.27469 0
M  V30 4318 C 396.099 1.65563 -5.0474 0
M  V30 4319 C 395.138 0.956802 -6.04576 0
M  V30 4320 N 394.275 1.93326 -6.74959 0
M  V30 4321 H 399.115 -0.436607 -2.94784 0
M  V30 4322 H 396.652 -0.227154 -1.45336 0
M  V30 4323 H 398.61 1.92639 -3.70062 0
M  V30 4324 H 397.24 1.96626 -2.56004 0
M  V30 4325 H 396.292 -0.110459 -3.8024 0
M  V30 4326 H 397.604 0.0746092 -4.98744 0
M  V30 4327 H 396.758 2.35119 -5.59289 0
M  V30 4328 H 395.497 2.23893 -4.3327 0
M  V30 4329 H 394.502 0.247097 -5.49244 0
M  V30 4330 H 395.727 0.379814 -6.78037 0
M  V30 4331 H 393.673 2.50591 -6.06251 0
M  V30 4332 H 393.59 1.43489 -7.42258 0
M  V30 4333 H 394.858 2.62126 -7.34105 0
M  V30 4334 N 399.087 1.5561 -0.249682 0
M  V30 4335 C 400.019 2.18834 0.681496 0
M  V30 4336 C 401.032 1.16546 1.1367 0
M  V30 4337 O 402.221 1.43397 1.06299 0
M  V30 4338 C 399.321 2.77992 1.9384 0
M  V30 4339 C 398.494 4.05725 1.63419 0
M  V30 4340 C 397.553 4.49174 2.74096 0
M  V30 4341 O 396.579 5.15492 2.41364 0
M  V30 4342 N 397.781 4.17191 4.03649 0
M  V30 4343 H 400.546 2.9937 0.140514 0
M  V30 4344 H 398.107 1.6175 -0.0697541 0
M  V30 4345 H 400.099 3.04015 2.67127 0
M  V30 4346 H 398.669 2.01596 2.38909 0
M  V30 4347 H 397.889 3.87261 0.736358 0
M  V30 4348 H 399.177 4.88999 1.40562 0
M  V30 4349 H 398.575 3.63955 4.33074 0
M  V30 4350 H 397.132 4.48043 4.73393 0
M  V30 4351 N 400.565 -0.0233959 1.57583 0
M  V30 4352 C 401.981 -0.379134 1.55031 0
M  V30 4353 C 402.181 -1.76255 0.976548 0
M  V30 4354 O 401.237 -2.45266 0.600078 0
M  V30 4355 C 402.55 -0.275792 2.99433 0
M  V30 4356 C 404.098 -0.352458 3.11009 0
M  V30 4357 C 404.573 -0.278501 4.57152 0
M  V30 4358 N 406.064 -0.337123 4.61972 0
M  V30 4359 C 406.799 -0.302876 5.726 0
M  V30 4360 N 406.295 -0.220589 6.92449 0
M  V30 4361 N 408.088 -0.353023 5.6099 0
M  V30 4362 H 400.239 0.881869 1.93227 0
M  V30 4363 H 402.502 0.335867 0.886509 0
M  V30 4364 H 402.208 0.675108 3.4516 0
M  V30 4365 H 402.082 -1.06721 3.61788 0
M  V30 4366 H 404.469 -1.29379 2.65226 0
M  V30 4367 H 404.55 0.468409 2.51475 0
M  V30 4368 H 404.194 0.659189 5.03604 0
M  V30 4369 H 404.124 -1.11755 5.14605 0
M  V30 4370 H 406.615 -0.403002 3.75745 0
M  V30 4371 H 406.928 -0.199713 7.72542 0
M  V30 4372 H 405.273 -0.186555 6.9475 0
M  V30 4373 H 408.464 -0.415339 4.66254 0
M  V30 4374 H 408.637 -0.322866 6.47195 0
M  V30 4375 N 402.043 -1.548 -0.295768 0
M  V30 4376 C 402.991 -1.86874 -1.38495 0
M  V30 4377 C 403.985 -0.742938 -1.52239 0
M  V30 4378 O 405.191 -0.926999 -1.54294 0
M  V30 4379 H 401.566 -0.592786 -0.462719 0
M  V30 4380 H 403.537 -2.77904 -1.08682 0
M  V30 4381 C 402.286 -2.13732 -2.74252 0
M  V30 4382 H 401.609 -2.99835 -2.64459 0
M  V30 4383 H 403.049 -2.4011 -3.49461 0
M  V30 4384 C 401.508 -0.937539 -3.23592 0
M  V30 4385 O 402.038 -0.160665 -4.01379 0
M  V30 4386 N 400.244 -0.741478 -2.80981 0
M  V30 4387 H 399.791 -1.37489 -2.1784 0
M  V30 4388 H 399.749 0.0597103 -3.14343 0
M  V30 4389 N 403.521 0.559213 -1.47345 0
M  V30 4390 C 404.932 1.14134 -1.47751 0
M  V30 4391 C 405.283 1.94834 -0.231103 0
M  V30 4392 O 404.408 2.05957 0.664137 0
M  V30 4393 C 405.003 2.07653 -2.67705 0
M  V30 4394 C 403.562 2.61141 -2.71076 0
M  V30 4395 C 402.709 1.3748 -2.40821 0
M  V30 4396 H 405.66 0.345917 -1.54884 0
M  V30 4397 H 405.681 2.91497 -2.44561 0
M  V30 4398 H 405.193 1.4889 -3.58404 0
M  V30 4399 H 403.294 3.23707 -1.84511 0
M  V30 4400 H 403.407 3.02272 -3.7171 0
M  V30 4401 H 401.771 1.68086 -1.91362 0
M  V30 4402 H 402.554 0.805135 -3.33725 0
M  V30 4403 N 404.999 1.35443 0.805782 0
M  V30 4404 C 405.932 1.22783 1.92353 0
M  V30 4405 C 406.91 0.115543 1.62189 0
M  V30 4406 O 408.094 0.283778 1.86352 0
M  V30 4407 C 405.221 0.890746 3.26777 0
M  V30 4408 C 404.267 2.01519 3.75889 0
M  V30 4409 S 405.1 3.63101 3.93596 0
M  V30 4410 C 406.256 3.31472 5.30921 0
M  V30 4411 H 406.489 2.17394 2.02798 0
M  V30 4412 H 404.022 1.20669 0.963245 0
M  V30 4413 H 405.98 0.703068 4.04434 0
M  V30 4414 H 404.641 -0.0373152 3.14078 0
M  V30 4415 H 403.834 1.7335 4.7325 0
M  V30 4416 H 403.436 2.16124 3.05231 0
M  V30 4417 H 405.728 2.8435 6.1494 0
M  V30 4418 H 406.671 4.28036 5.64084 0
M  V30 4419 H 407.079 2.67221 4.97246 0
M  V30 4420 N 406.477 -1.02803 1.19454 0
M  V30 4421 C 407.754 -1.73299 0.907013 0
M  V30 4422 C 408.134 -2.02772 -0.587086 0
M  V30 4423 O 407.482 -1.68304 -1.54551 0
M  V30 4424 C 407.692 -3.00912 1.76785 0
M  V30 4425 C 409.04 -3.74403 2.00268 0
M  V30 4426 O 410.064 -3.10841 1.73943 0
M  V30 4427 O 408.923 -4.88675 2.4466 0
M  V30 4428 H 406.017 -0.754727 0.338106 0
M  V30 4429 H 408.563 -1.08754 1.30271 0
M  V30 4430 H 407.335 -2.75366 2.7801 0
M  V30 4431 H 406.958 -3.73197 1.37149 0
M  V30 4432 N 407.956 -0.998596 -1.21925 0
M  V30 4433 C 409.186 -0.695276 -1.94549 0
M  V30 4434 C 409.594 0.745079 -1.73911 0
M  V30 4435 O 408.937 1.51507 -1.03881 0
M  V30 4436 C 408.999 -0.928485 -3.47303 0
M  V30 4437 C 408.663 -2.35443 -3.91683 0
M  V30 4438 C 409.66 -3.33428 -3.98901 0
M  V30 4439 C 407.345 -2.69038 -4.24174 0
M  V30 4440 C 409.339 -4.63079 -4.37992 0
M  V30 4441 C 407.026 -3.98906 -4.62944 0
M  V30 4442 C 408.024 -4.95738 -4.69822 0
M  V30 4443 O 407.712 -6.23285 -5.07711 0
M  V30 4444 H 407.444 -0.255902 -0.625692 0
M  V30 4445 H 409.998 -1.33767 -1.5587 0
M  V30 4446 H 408.228 -0.228917 -3.86022 0
M  V30 4447 H 409.917 -0.619539 -4.01144 0
M  V30 4448 H 410.683 -3.08807 -3.73983 0
M  V30 4449 H 406.562 -1.94367 -4.18022 0
M  V30 4450 H 410.106 -5.38658 -4.43275 0
M  V30 4451 H 406.003 -4.23314 -4.87314 0
M  V30 4452 H 406.771 -6.27306 -5.25766 0
M  V30 4453 N 409.434 1.37368 -0.772513 0
M  V30 4454 C 410.845 1.8231 -0.402493 0
M  V30 4455 C 411.196 1.6436 1.07146 0
M  V30 4456 O 410.321 1.15514 1.82991 0
M  V30 4457 C 410.916 3.30979 -0.723776 0
M  V30 4458 C 409.475 3.74195 -0.406802 0
M  V30 4459 C 408.622 2.59885 -0.967218 0
M  V30 4460 H 411.573 1.25829 -0.967099 0
M  V30 4461 H 411.594 3.80499 -0.00870832 0
M  V30 4462 H 411.106 3.44011 -1.7966 0
M  V30 4463 H 409.207 3.66732 0.658673 0
M  V30 4464 H 409.32 4.7027 -0.915588 0
M  V30 4465 H 407.684 2.51674 -0.391416 0
M  V30 4466 H 408.467 2.7571 -2.04546 0
M  V30 4467 N 410.912 0.523116 1.48665 0
M  V30 4468 C 412.158 -0.0134963 2.02796 0
M  V30 4469 C 412.491 -1.34582 1.40004 0
M  V30 4470 O 411.766 -1.86756 0.543381 0
M  V30 4471 C 412.049 -0.14276 3.59817 0
M  V30 4472 C 411.902 1.21425 4.331 0
M  V30 4473 C 413.221 -0.872856 4.31357 0
M  V30 4474 H 410.34 -0.00343074 0.736992 0
M  V30 4475 H 412.982 0.678816 1.7746 0
M  V30 4476 H 411.132 -0.732401 3.81534 0
M  V30 4477 H 412.804 1.84447 4.2282 0
M  V30 4478 H 411.047 1.79791 3.94788 0
M  V30 4479 H 411.718 1.07687 5.41394 0
M  V30 4480 H 414.194 -0.372555 4.14429 0
M  V30 4481 H 413.07 -0.932185 5.40927 0
M  V30 4482 H 413.331 -1.92161 3.98154 0
M  V30 4483 N 412.39 -1.55475 0.257931 0
M  V30 4484 C 413.3 -2.2549 -0.647425 0
M  V30 4485 C 414.316 -1.2748 -1.18427 0
M  V30 4486 O 415.492 -1.6038 -1.2182 0
M  V30 4487 C 412.557 -2.94916 -1.82278 0
M  V30 4488 C 411.618 -4.08363 -1.32432 0
M  V30 4489 C 410.851 -4.74469 -2.44366 0
M  V30 4490 O 411.074 -4.39701 -3.63344 0
M  V30 4491 O 410.008 -5.62763 -2.13497 0
M  V30 4492 H 413.834 -3.03593 -0.0807707 0
M  V30 4493 H 411.419 -1.49377 0.0259962 0
M  V30 4494 H 413.301 -3.38606 -2.50846 0
M  V30 4495 H 411.976 -2.19744 -2.37685 0
M  V30 4496 H 410.883 -3.69166 -0.605605 0
M  V30 4497 H 412.216 -4.85385 -0.816211 0
M  V30 4498 N 413.868 0.0150385 -1.57593 0
M  V30 4499 C 415.145 0.7392 -1.81094 0
M  V30 4500 C 415.525 1.92817 -0.859344 0
M  V30 4501 O 414.873 2.28301 0.095362 0
M  V30 4502 C 415.083 1.15907 -3.29191 0
M  V30 4503 C 416.431 1.56918 -3.9454 0
M  V30 4504 O 417.455 1.25328 -3.33424 0
M  V30 4505 O 416.314 2.15604 -5.02173 0
M  V30 4506 H 413.408 0.358631 -0.745193 0
M  V30 4507 H 415.954 -0.00926156 -1.69697 0
M  V30 4508 H 414.726 0.310921 -3.90063 0
M  V30 4509 H 414.349 1.96711 -3.45529 0
M  V30 4510 N 415.346 1.54954 0.287554 0
M  V30 4511 C 416.309 1.86076 1.33823 0
M  V30 4512 C 417.309 0.734414 1.43049 0
M  V30 4513 O 418.499 1.00266 1.42452 0
M  V30 4514 C 415.631 2.05305 2.72144 0
M  V30 4515 H 416.824 2.79984 1.07465 0
M  V30 4516 H 414.377 1.47223 0.524902 0
M  V30 4517 H 415.112 1.1373 3.03704 0
M  V30 4518 H 414.897 2.873 2.66836 0
M  V30 4519 H 416.387 2.30706 3.48087 0
M  V30 4520 N 416.824 -0.551391 1.4764 0
M  V30 4521 C 418.071 -1.3083 1.54563 0
M  V30 4522 C 418.399 -1.93359 0.210361 0
M  V30 4523 O 417.654 -1.78721 -0.797332 0
M  V30 4524 C 417.953 -2.43469 2.61644 0
M  V30 4525 C 417.619 -1.98732 4.04742 0
M  V30 4526 C 416.281 -1.86248 4.43695 0
M  V30 4527 C 418.633 -1.64659 4.94507 0
M  V30 4528 C 415.961 -1.37995 5.70241 0
M  V30 4529 C 418.313 -1.17875 6.21521 0
M  V30 4530 C 416.977 -1.03992 6.5935 0
M  V30 4531 H 416.247 -0.478741 0.565587 0
M  V30 4532 H 418.894 -0.617697 1.81264 0
M  V30 4533 H 417.199 -3.18109 2.28722 0
M  V30 4534 H 418.896 -3.01642 2.64222 0
M  V30 4535 H 415.486 -2.09393 3.73968 0
M  V30 4536 H 419.67 -1.73174 4.65107 0
M  V30 4537 H 414.926 -1.25915 5.98294 0
M  V30 4538 H 419.1 -0.905739 6.90485 0
M  V30 4539 H 416.727 -0.663794 7.57296 0
M  V30 4540 N 418.302 -1.35869 -0.798587 0
M  V30 4541 C 419.542 -1.30961 -1.56935 0
M  V30 4542 C 419.906 0.112404 -1.91671 0
M  V30 4543 O 421.107 0.285937 -2.67275 0
M  V30 4544 C 419.378 -2.19811 -2.81811 0
M  V30 4545 S 420.937 -2.32498 -3.72143 0
M  V30 4546 H 417.755 -0.465297 -0.537606 0
M  V30 4547 H 420.357 -1.71344 -0.941346 0
M  V30 4548 H 419.061 -3.22095 -2.54329 0
M  V30 4549 H 418.592 -1.80415 -3.49591 0
M  V30 4550 H 420.607 -1.5157 -4.72484 0
M  V30 4551 N 419.78 1.02168 -1.19998 0
M  V30 4552 C 420.727 2.10601 -0.944228 0
M  V30 4553 C 421.697 1.65639 0.123664 0
M  V30 4554 O 422.882 1.9079 -0.0199941 0
M  V30 4555 C 420.022 3.41504 -0.496865 0
M  V30 4556 C 419.135 3.99973 -1.63234 0
M  V30 4557 C 418.27 5.18915 -1.13579 0
M  V30 4558 C 417.309 5.69456 -2.24468 0
M  V30 4559 N 416.446 6.79665 -1.76068 0
M  V30 4560 H 421.286 2.31814 -1.8726 0
M  V30 4561 H 418.823 1.13686 -0.933483 0
M  V30 4562 H 420.781 4.16626 -0.218843 0
M  V30 4563 H 419.411 3.2038 0.394508 0
M  V30 4564 H 418.463 3.21997 -2.0254 0
M  V30 4565 H 419.775 4.33492 -2.46752 0
M  V30 4566 H 418.929 6.01222 -0.813429 0
M  V30 4567 H 417.668 4.8695 -0.270434 0
M  V30 4568 H 416.673 4.85757 -2.57526 0
M  V30 4569 H 417.898 6.03459 -3.11472 0
M  V30 4570 H 415.844 6.49538 -0.918516 0
M  V30 4571 H 415.761 7.12349 -2.5317 0
M  V30 4572 H 417.029 7.65549 -1.46817 0
M  V30 4573 N 421.258 1.00505 1.21394 0
M  V30 4574 C 422.669 0.721082 1.72213 0
M  V30 4575 C 423.02 -0.761263 1.80829 0
M  V30 4576 O 422.145 -1.59464 1.46288 0
M  V30 4577 C 422.74 1.30228 3.12772 0
M  V30 4578 C 421.299 1.06743 3.60947 0
M  V30 4579 C 420.446 1.41507 2.38477 0
M  V30 4580 H 423.397 1.17594 1.06571 0
M  V30 4581 H 423.418 0.686955 3.74247 0
M  V30 4582 H 422.93 2.38115 3.06468 0
M  V30 4583 H 421.031 0.00572162 3.726 0
M  V30 4584 H 421.144 1.73936 4.46411 0
M  V30 4585 H 419.508 0.833852 2.40664 0
M  V30 4586 H 420.291 2.50424 2.34824 0
M  V30 4587 N 422.737 -1.36956 0.779787 0
M  V30 4588 C 423.669 -2.28833 0.129639 0
M  V30 4589 C 424.682 -1.4902 -0.655511 0
M  V30 4590 O 425.871 -1.71578 -0.492279 0
M  V30 4591 C 422.971 -3.2833 -0.839792 0
M  V30 4592 C 422.144 -4.3727 -0.10675 0
M  V30 4593 C 421.203 -5.16789 -0.990717 0
M  V30 4594 O 420.229 -5.67406 -0.451516 0
M  V30 4595 N 421.431 -5.32294 -2.3161 0
M  V30 4596 H 424.196 -2.85268 0.918803 0
M  V30 4597 H 421.757 -1.49019 0.632841 0
M  V30 4598 H 423.749 -3.78413 -1.43477 0
M  V30 4599 H 422.319 -2.72605 -1.52988 0
M  V30 4600 H 421.539 -3.88478 0.669216 0
M  V30 4601 H 422.827 -5.07229 0.399464 0
M  V30 4602 H 422.225 -4.92768 -2.77843 0
M  V30 4603 H 420.782 -5.85656 -2.86095 0
M  V30 4604 N 424.215 -0.530993 -1.48385 0
M  V30 4605 C 425.145 0.219985 -2.32461 0
M  V30 4606 C 426.126 0.934111 -1.42156 0
M  V30 4607 O 427.311 0.919694 -1.71042 0
M  V30 4608 C 424.441 1.26674 -3.23375 0
M  V30 4609 C 423.395 0.67069 -4.22712 0
M  V30 4610 C 422.721 1.82017 -5.02766 0
M  V30 4611 C 424.021 -0.358268 -5.2107 0
M  V30 4612 H 425.715 -0.48187 -2.95497 0
M  V30 4613 H 423.261 -0.233182 -1.42099 0
M  V30 4614 H 425.214 1.80006 -3.81019 0
M  V30 4615 H 423.938 1.99818 -2.58341 0
M  V30 4616 H 422.597 0.158878 -3.66256 0
M  V30 4617 H 422.245 2.54002 -4.34157 0
M  V30 4618 H 421.945 1.42727 -5.70003 0
M  V30 4619 H 423.469 2.35725 -5.63264 0
M  V30 4620 H 424.883 0.0880081 -5.73232 0
M  V30 4621 H 423.28 -0.66861 -5.96364 0
M  V30 4622 H 424.35 -1.26367 -4.68145 0
M  V30 4623 N 425.693 1.55336 -0.266172 0
M  V30 4624 C 426.939 1.99692 0.353681 0
M  V30 4625 C 427.272 1.1543 1.56172 0
M  V30 4626 O 426.547 0.222218 1.93226 0
M  V30 4627 C 426.83 3.52316 0.74466 0
M  V30 4628 C 426.683 4.47337 -0.470101 0
M  V30 4629 C 428.002 4.10588 1.58447 0
M  V30 4630 H 425.121 0.725961 0.12708 0
M  V30 4631 H 427.763 1.86336 -0.371333 0
M  V30 4632 H 425.913 3.63829 1.36239 0
M  V30 4633 H 427.585 4.4778 -1.10864 0
M  V30 4634 H 425.828 4.19364 -1.10978 0
M  V30 4635 H 426.499 5.51788 -0.15291 0
M  V30 4636 H 428.975 4.02297 1.06286 0
M  V30 4637 H 427.851 5.17607 1.82686 0
M  V30 4638 H 428.112 3.60253 2.56262 0
M  V30 4639 N 427.171 -0.0066808 1.57599 0
M  V30 4640 C 428.118 -1.00024 2.08 0
M  V30 4641 C 429.088 -1.34549 0.973943 0
M  V30 4642 O 430.273 -1.44502 1.24595 0
M  V30 4643 C 427.413 -2.2891 2.58252 0
M  V30 4644 C 426.526 -2.00346 3.82734 0
M  V30 4645 C 425.661 -3.23265 4.21513 0
M  V30 4646 C 424.7 -2.90357 5.3885 0
M  V30 4647 N 423.837 -4.05793 5.72954 0
M  V30 4648 H 428.677 -0.563499 2.92624 0
M  V30 4649 H 426.214 -0.266592 1.44664 0
M  V30 4650 H 428.172 -3.04247 2.85464 0
M  V30 4651 H 426.802 -2.70265 1.76512 0
M  V30 4652 H 425.854 -1.15406 3.62471 0
M  V30 4653 H 427.166 -1.72086 4.68175 0
M  V30 4654 H 426.32 -4.06953 4.49971 0
M  V30 4655 H 425.059 -3.54657 3.34768 0
M  V30 4656 H 424.064 -2.05075 5.10122 0
M  V30 4657 H 425.289 -2.60219 6.27266 0
M  V30 4658 H 423.235 -4.37094 4.89167 0
M  V30 4659 H 423.152 -3.81034 6.52954 0
M  V30 4660 H 424.42 -4.90289 6.06001 0
M  V30 4661 N 428.649 -1.55105 -0.279332 0
M  V30 4662 C 429.596 -1.8755 -1.34513 0
M  V30 4663 C 430.566 -0.726384 -1.49375 0
M  V30 4664 O 431.751 -0.977063 -1.63884 0
M  V30 4665 C 428.891 -2.14738 -2.70151 0
M  V30 4666 C 428.004 -3.42285 -2.63562 0
M  V30 4667 C 427.139 -3.59206 -3.91337 0
M  V30 4668 C 426.178 -4.80467 -3.79233 0
M  V30 4669 N 425.315 -4.94079 -4.98829 0
M  V30 4670 H 430.155 -2.78456 -1.06143 0
M  V30 4671 H 427.692 -1.37867 -0.512936 0
M  V30 4672 H 429.65 -2.28501 -3.49061 0
M  V30 4673 H 428.28 -1.27075 -2.96735 0
M  V30 4674 H 427.332 -3.37029 -1.76397 0
M  V30 4675 H 428.644 -4.31328 -2.50515 0
M  V30 4676 H 427.798 -3.72751 -4.78687 0
M  V30 4677 H 426.537 -2.68337 -4.07243 0
M  V30 4678 H 425.542 -4.66932 -2.90266 0
M  V30 4679 H 426.767 -5.72765 -3.64852 0
M  V30 4680 H 424.713 -4.06139 -5.15158 0
M  V30 4681 H 424.63 -5.77156 -4.8829 0
M  V30 4682 H 425.898 -5.12003 -5.8777 0
M  V30 4683 N 430.127 0.543554 -1.4793 0
M  V30 4684 C 431.352 1.32995 -1.59145 0
M  V30 4685 C 431.777 1.86472 -0.246956 0
M  V30 4686 O 431.135 1.63696 0.779324 0
M  V30 4687 C 431.183 2.46623 -2.63077 0
M  V30 4688 O 430.287 3.49261 -2.19295 0
M  V30 4689 H 429.628 0.394472 -0.534124 0
M  V30 4690 H 432.158 0.655489 -1.93816 0
M  V30 4691 H 432.168 2.93001 -2.83926 0
M  V30 4692 H 430.843 2.07059 -3.60693 0
M  V30 4693 H 429.42 3.09094 -2.08603 0
M  V30 4694 N 431.605 1.3629 0.791371 0
M  V30 4695 C 432.835 1.33368 1.57786 0
M  V30 4696 C 433.243 -0.0875188 1.88997 0
M  V30 4697 O 432.586 -1.05427 1.50435 0
M  V30 4698 C 432.648 2.08802 2.92646 0
M  V30 4699 C 432.312 3.57903 2.84174 0
M  V30 4700 C 433.309 4.52191 2.56553 0
M  V30 4701 C 430.994 4.00762 3.02812 0
M  V30 4702 C 432.988 5.87315 2.47669 0
M  V30 4703 C 430.675 5.35977 2.93551 0
M  V30 4704 C 431.673 6.29066 2.66017 0
M  V30 4705 O 431.361 7.61798 2.56746 0
M  V30 4706 H 431.093 0.459166 0.496128 0
M  V30 4707 H 433.647 1.79952 0.990269 0
M  V30 4708 H 431.877 1.56878 3.53449 0
M  V30 4709 H 433.566 1.98762 3.53904 0
M  V30 4710 H 434.332 4.20393 2.41858 0
M  V30 4711 H 430.211 3.2868 3.2325 0
M  V30 4712 H 433.755 6.59943 2.26099 0
M  V30 4713 H 429.652 5.67384 3.07808 0
M  V30 4714 H 430.42 7.71898 2.72242 0
M  V30 4715 N 433.083 -1.0153 1.20538 0
M  V30 4716 C 434.331 -1.74803 1.01432 0
M  V30 4717 C 434.652 -1.8963 -0.454456 0
M  V30 4718 O 433.922 -1.43975 -1.32846 0
M  V30 4719 H 432.502 -0.647598 0.372324 0
M  V30 4720 H 435.164 -1.22402 1.5167 0
M  V30 4721 H 434.26 -2.75114 1.47373 0
M  V30 4722 N 434.561 -1.01147 -1.20859 0
M  V30 4723 C 435.807 -0.698899 -1.90377 0
M  V30 4724 C 436.14 0.76904 -1.78324 0
M  V30 4725 O 435.415 1.55817 -1.16409 0
M  V30 4726 C 435.698 -1.12878 -3.41951 0
M  V30 4727 C 435.551 -2.65665 -3.62963 0
M  V30 4728 C 436.87 -0.696114 -4.3456 0
M  V30 4729 H 433.989 -0.255372 -0.691342 0
M  V30 4730 H 436.631 -1.25831 -1.42361 0
M  V30 4731 H 434.781 -0.652827 -3.82976 0
M  V30 4732 H 436.453 -3.21074 -3.31224 0
M  V30 4733 H 434.696 -3.06878 -3.06608 0
M  V30 4734 H 435.367 -2.90797 -4.69192 0
M  V30 4735 H 437.843 -1.10521 -4.01154 0
M  V30 4736 H 436.719 -1.025 -5.39245 0
M  V30 4737 H 436.98 0.402465 -4.40264 0
M  V30 4738 N 436.039 1.36541 -0.78704 0
M  V30 4739 C 436.949 2.3387 -0.184896 0
M  V30 4740 C 437.965 1.60927 0.661697 0
M  V30 4741 O 439.141 1.92927 0.57804 0
M  V30 4742 C 436.206 3.40122 0.672145 0
M  V30 4743 C 435.267 4.28867 -0.19267 0
M  V30 4744 C 434.5 5.30045 0.623561 0
M  V30 4745 O 434.723 5.39232 1.8597 0
M  V30 4746 O 433.657 6.01895 0.0247068 0
M  V30 4747 H 437.483 2.87126 -0.989562 0
M  V30 4748 H 435.068 1.38969 -0.548455 0
M  V30 4749 H 436.95 4.05093 1.16094 0
M  V30 4750 H 435.625 2.89169 1.45474 0
M  V30 4751 H 434.532 3.66945 -0.728166 0
M  V30 4752 H 435.865 4.83165 -0.938722 0
M  V30 4753 N 437.518 0.538854 1.48102 0
M  V30 4754 C 438.466 -0.232325 2.31437 0
M  V30 4755 C 439.46 -0.927004 1.41785 0
M  V30 4756 O 440.666 -0.850378 1.58646 0
M  V30 4757 H 437.041 -0.0937916 0.746128 0
M  V30 4758 H 439.012 0.489986 2.9435 0
M  V30 4759 C 437.761 -1.26074 3.24038 0
M  V30 4760 H 437.084 -0.735609 3.92974 0
M  V30 4761 H 438.524 -1.77157 3.85216 0
M  V30 4762 C 436.983 -2.29902 2.46265 0
M  V30 4763 O 437.513 -3.36502 2.19384 0
M  V30 4764 N 435.719 -2.03348 2.07601 0
M  V30 4765 H 435.266 -1.16675 2.29662 0
M  V30 4766 H 435.224 -2.73038 1.55877 0
M  V30 4767 N 438.996 -1.55193 0.274407 0
M  V30 4768 C 440.412 -1.59401 -0.0797543 0
M  V30 4769 C 440.612 -1.29162 -1.54659 0
M  V30 4770 O 439.668 -1.05215 -2.29534 0
M  V30 4771 C 440.981 -2.99257 0.294238 0
M  V30 4772 C 442.529 -3.12072 0.240796 0
M  V30 4773 C 443.004 -4.54194 0.589218 0
M  V30 4774 N 444.495 -4.60033 0.540744 0
M  V30 4775 C 445.23 -5.68027 0.783147 0
M  V30 4776 N 444.726 -6.8417 1.09013 0
M  V30 4777 N 446.519 -5.57572 0.711993 0
M  V30 4778 H 438.67 -1.73113 1.23067 0
M  V30 4779 H 440.933 -0.807197 0.497129 0
M  V30 4780 H 440.639 -3.26217 1.31435 0
M  V30 4781 H 440.513 -3.75427 -0.365281 0
M  V30 4782 H 442.9 -2.84877 -0.770024 0
M  V30 4783 H 442.981 -2.38117 0.934563 0
M  V30 4784 H 442.625 -4.82115 1.59772 0
M  V30 4785 H 442.555 -5.26448 -0.126331 0
M  V30 4786 H 445.046 -3.76599 0.313327 0
M  V30 4787 H 445.359 -7.6243 1.26178 0
M  V30 4788 H 443.704 -6.85787 1.12789 0
M  V30 4789 H 446.895 -4.65714 0.472014 0
M  V30 4790 H 447.068 -6.41659 0.90429 0
M  V30 4791 N 440.474 -0.00167713 -1.576 0
M  V30 4792 C 441.437 0.974046 -2.07473 0
M  V30 4793 C 442.437 1.27143 -0.984444 0
M  V30 4794 O 443.627 1.21633 -1.24703 0
M  V30 4795 C 440.759 2.29849 -2.51759 0
M  V30 4796 H 441.952 0.54262 -2.9495 0
M  V30 4797 H 439.505 0.245829 -1.54355 0
M  V30 4798 H 440.24 2.77677 -1.67529 0
M  V30 4799 H 440.025 2.09584 -3.31386 0
M  V30 4800 H 441.515 2.9984 -2.90664 0
M  V30 4801 N 441.952 1.55251 0.271103 0
M  V30 4802 C 443.182 1.79713 1.01916 0
M  V30 4803 C 443.59 0.571613 1.80359 0
M  V30 4804 O 442.933 -0.468853 1.77616 0
M  V30 4805 C 442.995 2.97138 2.02359 0
M  V30 4806 C 442.659 4.34104 1.42837 0
M  V30 4807 C 443.656 5.13019 0.843071 0
M  V30 4808 C 441.341 4.80765 1.455 0
M  V30 4809 C 443.335 6.36729 0.292333 0
M  V30 4810 C 441.022 6.0443 0.900402 0
M  V30 4811 C 442.02 6.8225 0.32007 0
M  V30 4812 O 441.708 8.03582 -0.226031 0
M  V30 4813 H 441.44 0.602431 0.306681 0
M  V30 4814 H 443.994 2.03097 0.306701 0
M  V30 4815 H 442.224 2.6945 2.77369 0
M  V30 4816 H 443.913 3.08907 2.63309 0
M  V30 4817 H 444.679 4.781 0.815178 0
M  V30 4818 H 440.558 4.20202 1.89609 0
M  V30 4819 H 444.102 6.97414 -0.161274 0
M  V30 4820 H 439.999 6.3883 0.925541 0
M  V30 4821 H 440.767 8.18418 -0.115572 0
M  V30 4822 N 443.43 -0.535701 1.48216 0
M  V30 4823 C 444.655 -1.32149 1.59848 0
M  V30 4824 C 445.08 -1.86338 0.256842 0
M  V30 4825 O 444.438 -1.64107 -0.770632 0
M  V30 4826 C 444.486 -2.45224 2.64381 0
M  V30 4827 O 443.59 -3.48093 2.21144 0
M  V30 4828 H 442.931 -0.391634 0.536208 0
M  V30 4829 H 445.461 -0.645202 1.94161 0
M  V30 4830 H 445.471 -2.91491 2.85476 0
M  V30 4831 H 444.146 -2.05143 3.61786 0
M  V30 4832 H 442.723 -3.07984 2.10239 0
M  V30 4833 N 444.908 -1.36708 -0.784132 0
M  V30 4834 C 445.84 -1.27333 -1.90575 0
M  V30 4835 C 446.853 -0.191706 -1.61667 0
M  V30 4836 O 448.042 -0.446854 -1.72816 0
M  V30 4837 C 445.142 -0.943177 -3.25511 0
M  V30 4838 C 444.315 -2.12776 -3.82158 0
M  V30 4839 C 443.374 -1.76983 -4.95544 0
M  V30 4840 O 442.4 -2.49134 -5.11782 0
M  V30 4841 N 443.602 -0.706624 -5.76183 0
M  V30 4842 H 446.367 -2.23974 -1.99138 0
M  V30 4843 H 443.928 -1.30171 -0.962656 0
M  V30 4844 H 445.92 -0.684799 -3.98864 0
M  V30 4845 H 444.49 -0.0657333 -3.12531 0
M  V30 4846 H 443.71 -2.54863 -3.0073 0
M  V30 4847 H 444.998 -2.91904 -4.16737 0
M  V30 4848 H 444.396 -0.107643 -5.65598 0
M  V30 4849 H 442.953 -0.50808 -6.49817 0
M  V30 4850 N 446.386 1.0089 -1.21074 0
M  V30 4851 C 447.296 2.13039 -0.982425 0
M  V30 4852 C 448.312 1.73881 0.0642161 0
M  V30 4853 O 449.488 2.01012 -0.12496 0
M  V30 4854 C 446.553 3.42377 -0.545803 0
M  V30 4855 C 445.614 3.95731 -1.6642 0
M  V30 4856 C 444.847 5.18896 -1.24832 0
M  V30 4857 O 445.07 5.70273 -0.120265 0
M  V30 4858 O 444.004 5.65597 -2.05873 0
M  V30 4859 H 447.83 2.35175 -1.92163 0
M  V30 4860 H 445.415 1.1142 -0.995285 0
M  V30 4861 H 447.297 4.20244 -0.311912 0
M  V30 4862 H 445.972 3.21639 0.364727 0
M  V30 4863 H 444.879 3.19108 -1.95246 0
M  V30 4864 H 446.212 4.20872 -2.55201 0
M  V30 4865 N 447.864 1.01787 1.20321 0
M  V30 4866 C 448.774 0.598898 2.26827 0
M  V30 4867 C 449.79 -0.36418 1.70146 0
M  V30 4868 O 450.966 -0.224812 2.00141 0
M  V30 4869 C 448.031 -0.0549769 3.46656 0
M  V30 4870 C 447.092 0.954205 4.18561 0
M  V30 4871 C 446.325 0.331439 5.3267 0
M  V30 4872 O 446.548 -0.86851 5.63749 0
M  V30 4873 O 445.482 1.0488 5.92692 0
M  V30 4874 H 449.308 1.48562 2.64883 0
M  V30 4875 H 446.893 0.787434 1.26964 0
M  V30 4876 H 448.775 -0.420102 4.19301 0
M  V30 4877 H 447.45 -0.915876 3.10473 0
M  V30 4878 H 446.357 1.37072 3.48083 0
M  V30 4879 H 447.69 1.78511 4.58688 0
M  V30 4880 N 449.342 -1.36122 0.79427 0
M  V30 4881 C 450.591 -1.98361 0.365464 0
M  V30 4882 C 450.904 -1.6374 -1.06997 0
M  V30 4883 O 452.11 -2.19251 -1.60129 0
M  V30 4884 C 450.566 -3.54821 0.602496 0
M  V30 4885 C 450.174 -3.98362 2.04967 0
M  V30 4886 C 451.918 -4.2383 0.238437 0
M  V30 4887 C 449.825 -5.47619 2.2331 0
M  V30 4888 H 448.755 -0.742193 0.13291 0
M  V30 4889 H 451.406 -1.55354 0.976589 0
M  V30 4890 H 449.788 -3.95922 -0.078409 0
M  V30 4891 H 450.962 -3.68447 2.76737 0
M  V30 4892 H 449.277 -3.42206 2.37243 0
M  V30 4893 H 451.874 -5.33529 0.353705 0
M  V30 4894 H 452.217 -4.08264 -0.814006 0
M  V30 4895 H 452.75 -3.88108 0.872769 0
M  V30 4896 H 449.489 -5.68138 3.26955 0
M  V30 4897 H 449.009 -5.79145 1.5605 0
M  V30 4898 H 450.688 -6.13911 2.0426 0
M  V30 4899 N 450.82 -0.546701 -1.47814 0
M  V30 4900 C 452.048 -0.0232857 -2.06887 0
M  V30 4901 C 452.463 1.26571 -1.4009 0
M  V30 4902 O 451.82 1.7569 -0.493906 0
M  V30 4903 C 451.871 0.186975 -3.61016 0
M  V30 4904 O 451.592 -1.05097 -4.25307 0
M  V30 4905 C 453.093 0.748872 -4.36929 0
M  V30 4906 H 450.313 -0.0410763 -0.669742 0
M  V30 4907 H 452.857 -0.757117 -1.89968 0
M  V30 4908 H 451.012 0.870903 -3.77484 0
M  V30 4909 H 451.426 -0.842121 -5.17695 0
M  V30 4910 H 452.9 0.845334 -5.45489 0
M  V30 4911 H 453.377 1.75772 -4.02493 0
M  V30 4912 H 453.983 0.100979 -4.2518 0
M  V30 4913 N 452.299 1.55045 -0.282633 0
M  V30 4914 C 453.231 2.2023 0.634924 0
M  V30 4915 C 454.244 1.18931 1.11172 0
M  V30 4916 O 455.433 1.4562 1.03233 0
M  V30 4917 C 452.533 2.82041 1.87899 0
M  V30 4918 C 451.706 4.091 1.54776 0
M  V30 4919 C 450.765 4.54887 2.64507 0
M  V30 4920 O 449.791 5.20496 2.30375 0
M  V30 4921 N 450.993 4.25659 3.94709 0
M  V30 4922 H 453.758 2.99601 0.0769811 0
M  V30 4923 H 451.319 1.61565 -0.104048 0
M  V30 4924 H 453.311 3.09613 2.60619 0
M  V30 4925 H 451.881 2.06618 2.3458 0
M  V30 4926 H 451.101 3.88736 0.654049 0
M  V30 4927 H 452.389 4.9187 1.30158 0
M  V30 4928 H 451.787 3.7306 4.25256 0
M  V30 4929 H 450.344 4.57984 4.63782 0
M  V30 4930 N 453.777 0.010035 1.57597 0
M  V30 4931 C 455.025 -0.671371 1.90623 0
M  V30 4932 C 455.346 -1.73753 0.885151 0
M  V30 4933 O 454.616 -1.95752 -0.0760611 0
M  V30 4934 H 453.196 -0.250968 0.703579 0
M  V30 4935 H 455.858 0.0533325 1.94827 0
M  V30 4936 H 454.954 -1.13626 2.90681 0
M  V30 4937 N 455.255 -1.55392 -0.262866 0
M  V30 4938 C 456.502 -1.76476 -0.993109 0
M  V30 4939 C 456.83 -0.571479 -1.85915 0
M  V30 4940 O 456.085 0.445733 -1.90556 0
M  V30 4941 C 456.384 -3.02889 -1.89718 0
M  V30 4942 C 456.05 -4.34974 -1.18781 0
M  V30 4943 C 454.712 -4.7087 -0.991699 0
M  V30 4944 C 457.064 -5.16695 -0.683798 0
M  V30 4945 C 454.392 -5.86036 -0.279024 0
M  V30 4946 C 456.744 -6.32598 0.0153327 0
M  V30 4947 C 455.408 -6.67127 0.223062 0
M  V30 4948 H 454.678 -0.64577 -0.363404 0
M  V30 4949 H 457.325 -1.89664 -0.264525 0
M  V30 4950 H 455.63 -2.84644 -2.6923 0
M  V30 4951 H 457.327 -3.16399 -2.46359 0
M  V30 4952 H 453.917 -4.06765 -1.35058 0
M  V30 4953 H 458.101 -4.8943 -0.8229 0
M  V30 4954 H 453.357 -6.11306 -0.107456 0
M  V30 4955 H 457.531 -6.95171 0.413584 0
M  V30 4956 H 455.158 -7.56216 0.777265 0
M  V30 4957 N 456.733 0.527833 -1.48498 0
M  V30 4958 C 457.643 1.65907 -1.65867 0
M  V30 4959 C 458.659 1.6537 -0.541192 0
M  V30 4960 O 459.835 1.84282 -0.812534 0
M  V30 4961 C 456.9 3.02364 -1.69637 0
M  V30 4962 C 455.961 3.1374 -2.93028 0
M  V30 4963 C 455.194 4.43688 -2.96609 0
M  V30 4964 O 455.417 5.30913 -2.08538 0
M  V30 4965 O 454.351 4.59475 -3.88802 0
M  V30 4966 H 458.177 1.5419 -2.61647 0
M  V30 4967 H 455.762 0.701163 -1.31924 0
M  V30 4968 H 457.644 3.83515 -1.74625 0
M  V30 4969 H 456.319 3.14401 -0.770312 0
M  V30 4970 H 455.226 2.31877 -2.93571 0
M  V30 4971 H 456.559 3.06621 -3.85026 0
M  V30 4972 N 458.211 1.37122 0.776871 0
M  V30 4973 C 459.121 1.34651 1.9211 0
M  V30 4974 C 460.137 0.246824 1.7224 0
M  V30 4975 O 461.313 0.48134 1.95563 0
M  V30 4976 C 458.378 1.14748 3.2716 0
M  V30 4977 C 457.439 2.34308 3.5972 0
M  V30 4978 C 456.672 2.15345 4.88326 0
M  V30 4979 O 456.895 1.13507 5.58992 0
M  V30 4980 O 455.829 3.03414 5.1983 0
M  V30 4981 H 459.655 2.31013 1.97146 0
M  V30 4982 H 457.24 1.17799 0.918901 0
M  V30 4983 H 459.122 1.05616 4.0795 0
M  V30 4984 H 457.797 0.214562 3.22988 0
M  V30 4985 H 456.704 2.49011 2.79185 0
M  V30 4986 H 458.037 3.26149 3.68629 0
M  V30 4987 N 459.689 -1.00246 1.21608 0
M  V30 4988 C 460.917 -1.77631 1.06089 0
M  V30 4989 C 461.332 -1.84746 -0.38916 0
M  V30 4990 O 460.689 -1.31068 -1.26994 0
M  V30 4991 C 460.74 -3.21415 1.65453 0
M  V30 4992 O 460.461 -3.14703 3.04785 0
M  V30 4993 C 461.962 -4.15289 1.55079 0
M  V30 4994 H 459.182 -0.558162 0.37242 0
M  V30 4995 H 461.726 -1.26093 1.60999 0
M  V30 4996 H 459.881 -3.70053 1.14629 0
M  V30 4997 H 460.295 -4.05056 3.33212 0
M  V30 4998 H 461.769 -5.13965 2.01355 0
M  V30 4999 H 462.246 -4.36279 0.505665 0
M  V30 5000 H 462.852 -3.72543 2.05163 0
M  V30 5001 N 461.167 -1.02423 -1.1978 0
M  V30 5002 C 462.415 -0.716569 -1.8897 0
M  V30 5003 C 462.736 0.756769 -1.79716 0
M  V30 5004 O 462.006 1.5449 -1.20456 0
M  V30 5005 H 460.586 -0.262062 -0.699523 0
M  V30 5006 H 463.248 -1.29747 -1.45436 0
M  V30 5007 H 462.344 -1.00675 -2.95417 0
M  V30 5008 N 462.645 1.35699 -0.801477 0
M  V30 5009 C 463.922 1.9324 -0.302937 0
M  V30 5010 C 464.302 1.73209 1.20672 0
M  V30 5011 O 463.65 1.09809 2.00385 0
M  V30 5012 C 463.86 3.41728 -0.708747 0
M  V30 5013 C 465.208 4.18868 -0.695328 0
M  V30 5014 O 466.232 3.5022 -0.649971 0
M  V30 5015 O 465.091 5.41342 -0.749081 0
M  V30 5016 H 462.185 0.82331 -0.0780367 0
M  V30 5017 H 464.731 1.44806 -0.884832 0
M  V30 5018 H 463.503 3.50015 -1.74944 0
M  V30 5019 H 463.126 3.97471 -0.101384 0
M  V30 5020 N 464.123 0.554532 1.47522 0
M  V30 5021 C 465.351 0.034257 2.06872 0
M  V30 5022 C 465.766 -1.25826 1.40759 0
M  V30 5023 O 465.123 -1.75425 0.503217 0
M  V30 5024 C 465.174 -0.167827 3.6111 0
M  V30 5025 O 464.895 1.07351 4.24744 0
M  V30 5026 C 466.396 -0.72569 4.3732 0
M  V30 5027 H 463.616 0.0446275 0.669514 0
M  V30 5028 H 466.16 0.767181 1.89564 0
M  V30 5029 H 464.315 -0.850872 3.7794 0
M  V30 5030 H 464.729 0.869563 5.17242 0
M  V30 5031 H 466.203 -0.816394 5.45929 0
M  V30 5032 H 466.68 -1.73635 4.0342 0
M  V30 5033 H 467.286 -0.0784292 4.25228 0
M  V30 5034 N 465.601 -1.54893 0.290851 0
M  V30 5035 C 466.531 -2.26103 -0.583084 0
M  V30 5036 C 467.512 -1.25684 -1.14619 0
M  V30 5037 O 468.697 -1.54436 -1.17741 0
M  V30 5038 C 465.827 -2.99409 -1.75987 0
M  V30 5039 C 464.781 -4.0689 -1.32758 0
M  V30 5040 C 464.107 -4.67856 -2.58872 0
M  V30 5041 C 465.407 -5.20215 -0.46624 0
M  V30 5042 H 467.101 -2.99398 0.0108214 0
M  V30 5043 H 464.647 -1.43998 0.00664468 0
M  V30 5044 H 466.6 -3.47943 -2.37727 0
M  V30 5045 H 465.324 -2.23675 -2.37985 0
M  V30 5046 H 463.983 -3.59191 -0.733299 0
M  V30 5047 H 463.631 -3.88772 -3.19163 0
M  V30 5048 H 463.331 -5.40438 -2.30653 0
M  V30 5049 H 464.855 -5.19147 -3.21433 0
M  V30 5050 H 466.269 -5.64704 -0.989047 0
M  V30 5051 H 464.666 -5.99455 -0.27826 0
M  V30 5052 H 465.736 -4.82198 0.511173 0
M  V30 5053 N 467.08 -0.0183926 -1.57589 0
M  V30 5054 C 468.31 0.67207 -1.95363 0
M  V30 5055 C 468.718 1.66807 -0.892872 0
M  V30 5056 O 468.061 1.83204 0.134958 0
M  V30 5057 C 468.123 1.44397 -3.29226 0
M  V30 5058 C 467.787 0.607511 -4.52944 0
M  V30 5059 C 468.784 -0.112657 -5.19778 0
M  V30 5060 C 466.469 0.548068 -4.99301 0
M  V30 5061 C 468.463 -0.881057 -6.31281 0
M  V30 5062 C 466.15 -0.224044 -6.10689 0
M  V30 5063 C 467.148 -0.937323 -6.76538 0
M  V30 5064 O 466.836 -1.6968 -7.85789 0
M  V30 5065 H 466.568 0.190925 -0.648478 0
M  V30 5066 H 469.122 -0.0711994 -2.05277 0
M  V30 5067 H 467.352 2.23214 -3.15773 0
M  V30 5068 H 469.041 2.02152 -3.51979 0
M  V30 5069 H 469.807 -0.0759998 -4.8494 0
M  V30 5070 H 465.686 1.09281 -4.4786 0
M  V30 5071 H 469.23 -1.43832 -6.82611 0
M  V30 5072 H 465.127 -0.262457 -6.44966 0
M  V30 5073 H 465.895 -1.61544 -8.024 0
M  V30 5074 N 468.558 1.5553 0.254621 0
M  V30 5075 C 469.521 1.88872 1.29846 0
M  V30 5076 C 470.521 0.764591 1.41459 0
M  V30 5077 O 471.711 1.03265 1.40293 0
M  V30 5078 C 468.843 2.11032 2.67728 0
M  V30 5079 H 470.036 2.82201 1.01502 0
M  V30 5080 H 467.589 1.48303 0.493556 0
M  V30 5081 H 468.324 1.20146 3.01223 0
M  V30 5082 H 468.109 2.92895 2.60682 0
M  V30 5083 H 469.599 2.38038 3.43115 0
M  V30 5084 N 470.036 -0.519951 1.48776 0
M  V30 5085 C 471.447 -1.10177 1.50725 0
M  V30 5086 C 471.798 -1.94153 0.282678 0
M  V30 5087 O 470.923 -2.07645 -0.609298 0
M  V30 5088 C 471.518 -2.00482 2.73116 0
M  V30 5089 C 470.077 -2.53862 2.77905 0
M  V30 5090 C 469.224 -1.31047 2.44381 0
M  V30 5091 H 472.175 -0.30473 1.55747 0
M  V30 5092 H 472.196 -2.8491 2.52203 0
M  V30 5093 H 471.708 -1.39335 3.62225 0
M  V30 5094 H 469.809 -3.18702 1.93029 0
M  V30 5095 H 469.922 -2.9231 3.79594 0
M  V30 5096 H 468.286 -1.62953 1.95751 0
M  V30 5097 H 469.069 -0.71637 3.35743 0
M  V30 5098 N 471.514 -1.37532 -0.769588 0
M  V30 5099 C 472.744 -1.35861 -1.55645 0
M  V30 5100 C 473.152 0.0574398 -1.89113 0
M  V30 5101 O 472.495 1.03021 -1.52093 0
M  V30 5102 C 472.557 -2.13431 -2.89288 0
M  V30 5103 C 472.221 -3.62378 -2.78444 0
M  V30 5104 C 473.218 -4.56215 -2.49326 0
M  V30 5105 C 470.903 -4.05529 -2.96398 0
M  V30 5106 C 472.897 -5.91181 -2.38294 0
M  V30 5107 C 470.584 -5.40579 -2.84987 0
M  V30 5108 C 471.582 -6.33218 -2.55975 0
M  V30 5109 O 471.27 -7.65787 -2.44594 0
M  V30 5110 H 471.002 -0.467001 -0.48876 0
M  V30 5111 H 473.556 -1.81505 -0.961515 0
M  V30 5112 H 471.786 -1.62481 -3.50909 0
M  V30 5113 H 473.475 -2.04368 -3.50697 0
M  V30 5114 H 474.241 -4.24187 -2.35139 0
M  V30 5115 H 470.12 -3.33781 -3.1798 0
M  V30 5116 H 473.664 -6.63457 -2.15571 0
M  V30 5117 H 469.561 -5.72209 -2.98743 0
M  V30 5118 H 470.329 -7.76132 -2.59927 0
M  V30 5119 N 472.992 0.995999 -1.22138 0
M  V30 5120 C 474.217 1.77601 -1.0711 0
M  V30 5121 C 474.642 1.84339 0.374264 0
M  V30 5122 O 474 1.29359 1.27028 0
M  V30 5123 C 474.048 3.18897 -1.68336 0
M  V30 5124 O 473.152 4.01663 -0.934928 0
M  V30 5125 H 472.493 0.547011 -0.376397 0
M  V30 5126 H 475.023 1.25137 -1.6187 0
M  V30 5127 H 475.033 3.69539 -1.72931 0
M  V30 5128 H 473.708 3.13308 -2.73516 0
M  V30 5129 H 472.285 3.60204 -0.964751 0
M  V30 5130 N 474.47 1.03057 1.19235 0
M  V30 5131 C 475.698 0.747697 1.92917 0
M  V30 5132 C 476.113 -0.69372 1.75593 0
M  V30 5133 O 475.47 -1.47191 1.07894 0
M  V30 5134 C 475.521 1.09159 3.44625 0
M  V30 5135 O 475.242 2.47641 3.61394 0
M  V30 5136 C 476.743 0.831763 4.35427 0
M  V30 5137 H 473.963 0.273453 0.612751 0
M  V30 5138 H 476.507 1.37552 1.51327 0
M  V30 5139 H 474.662 0.508919 3.84043 0
M  V30 5140 H 475.076 2.60499 4.55237 0
M  V30 5141 H 476.55 1.12233 5.4047 0
M  V30 5142 H 477.027 -0.233769 4.38577 0
M  V30 5143 H 477.633 1.39725 4.01693 0
M  V30 5144 N 475.948 -1.35272 0.808662 0
M  V30 5145 C 476.898 -2.27181 0.193124 0
M  V30 5146 C 477.882 -1.47871 -0.634265 0
M  V30 5147 O 479.074 -1.70048 -0.491182 0
M  V30 5148 C 476.203 -3.36979 -0.655751 0
M  V30 5149 C 475.289 -4.23712 0.181481 0
M  V30 5150 N 475.68 -4.90225 1.24551 0
M  V30 5151 C 473.978 -4.45985 -0.0365493 0
M  V30 5152 C 474.679 -5.54537 1.75682 0
M  V30 5153 N 473.655 -5.33107 1.06294 0
M  V30 5154 H 477.457 -2.76101 1.00724 0
M  V30 5155 H 474.971 -1.48823 0.650029 0
M  V30 5156 H 476.968 -4.01774 -1.11279 0
M  V30 5157 H 475.628 -2.89611 -1.46819 0
M  V30 5158 H 476.639 -4.91641 1.62818 0
M  V30 5159 H 473.316 -4.09409 -0.817964 0
M  V30 5160 H 474.706 -6.17597 2.64621 0
M  V30 5161 N 477.426 -0.562348 -1.47226 0
M  V30 5162 C 478.673 -0.0402165 -2.0246 0
M  V30 5163 C 479.001 1.31169 -1.43614 0
M  V30 5164 O 478.256 1.86805 -0.5833 0
M  V30 5165 C 478.555 0.0969817 -3.57268 0
M  V30 5166 C 478.221 -1.1847 -4.35058 0
M  V30 5167 C 476.883 -1.53588 -4.56031 0
M  V30 5168 C 479.235 -2.03378 -4.79882 0
M  V30 5169 C 476.563 -2.73452 -5.19077 0
M  V30 5170 C 478.915 -3.2245 -5.44251 0
M  V30 5171 C 477.579 -3.57876 -5.63455 0
M  V30 5172 H 476.849 -0.0147163 -0.740854 0
M  V30 5173 H 479.496 -0.734895 -1.76838 0
M  V30 5174 H 477.801 0.87466 -3.81912 0
M  V30 5175 H 479.498 0.516408 -3.97661 0
M  V30 5176 H 476.088 -0.90126 -4.19017 0
M  V30 5177 H 480.272 -1.77553 -4.63453 0
M  V30 5178 H 475.528 -3.01062 -5.32139 0
M  V30 5179 H 479.702 -3.88526 -5.77945 0
M  V30 5180 H 477.329 -4.50849 -6.12078 0
M  V30 5181 N 478.904 1.54736 -0.299062 0
M  V30 5182 C 479.836 2.20891 0.61153 0
M  V30 5183 C 480.849 1.20104 1.09904 0
M  V30 5184 O 482.038 1.46707 1.01683 0
M  V30 5185 C 479.138 2.84018 1.84897 0
M  V30 5186 C 478.311 4.10719 1.50428 0
M  V30 5187 C 477.37 4.57667 2.59667 0
M  V30 5188 O 476.396 5.2291 2.24842 0
M  V30 5189 N 477.598 4.29821 3.90172 0
M  V30 5190 H 480.363 2.99666 0.0452001 0
M  V30 5191 H 477.924 1.61446 -0.121178 0
M  V30 5192 H 479.916 3.1236 2.5732 0
M  V30 5193 H 478.486 2.09095 2.32375 0
M  V30 5194 H 477.706 3.89408 0.612781 0
M  V30 5195 H 478.994 4.93223 1.24934 0
M  V30 5196 H 478.392 3.77549 4.21276 0
M  V30 5197 H 476.949 4.62877 4.58899 0
M  V30 5198 N 480.382 0.0267497 1.57577 0
M  V30 5199 C 481.312 -0.954308 2.13108 0
M  V30 5200 C 482.293 -1.34088 1.04663 0
M  V30 5201 O 483.478 -1.41992 1.32484 0
M  V30 5202 C 480.608 -2.23744 2.65624 0
M  V30 5203 C 479.562 -1.99168 3.78835 0
M  V30 5204 C 478.888 -3.33726 4.17769 0
M  V30 5205 C 480.188 -1.33277 5.0501 0
M  V30 5206 H 481.882 -0.491848 2.95332 0
M  V30 5207 H 479.428 -0.23514 1.42067 0
M  V30 5208 H 481.381 -2.92754 3.03106 0
M  V30 5209 H 480.105 -2.72151 1.80558 0
M  V30 5210 H 478.764 -1.32577 3.41788 0
M  V30 5211 H 478.412 -3.79888 3.29688 0
M  V30 5212 H 478.112 -3.18089 4.94058 0
M  V30 5213 H 479.636 -4.04008 4.57832 0
M  V30 5214 H 481.05 -1.92283 5.40093 0
M  V30 5215 H 479.447 -1.28045 5.8628 0
M  V30 5216 H 480.517 -0.305411 4.83937 0
M  V30 5217 N 481.861 -1.55662 -0.24637 0
M  V30 5218 C 482.793 -1.86811 -1.32794 0
M  V30 5219 C 483.806 -0.754413 -1.44265 0
M  V30 5220 O 484.995 -1.03253 -1.45606 0
M  V30 5221 C 482.095 -2.0397 -2.70646 0
M  V30 5222 C 481.268 -3.34832 -2.81436 0
M  V30 5223 C 480.327 -3.41727 -4.00136 0
M  V30 5224 O 479.353 -4.14934 -3.89639 0
M  V30 5225 N 480.555 -2.71058 -5.1333 0
M  V30 5226 H 483.32 -2.80174 -1.06409 0
M  V30 5227 H 480.881 -1.55906 -0.43647 0
M  V30 5228 H 482.873 -2.05924 -3.48393 0
M  V30 5229 H 481.443 -1.1735 -2.89738 0
M  V30 5230 H 480.663 -3.4519 -1.90361 0
M  V30 5231 H 481.951 -4.21085 -2.85595 0
M  V30 5232 H 481.349 -2.11314 -5.2475 0
M  V30 5233 H 479.906 -2.78704 -5.89209 0
M  V30 5234 N 483.339 0.512053 -1.4905 0
M  V30 5235 C 484.287 1.63568 -1.65373 0
M  V30 5236 C 485.281 1.61228 -0.519806 0
M  V30 5237 O 486.487 1.65869 -0.699101 0
M  V30 5238 H 482.862 0.542019 -0.521267 0
M  V30 5239 H 484.833 1.4695 -2.59708 0
M  V30 5240 C 483.582 3.01761 -1.7273 0
M  V30 5241 H 482.905 3.04263 -2.59353 0
M  V30 5242 H 484.345 3.79948 -1.8819 0
M  V30 5243 C 482.804 3.33609 -0.46973 0
M  V30 5244 O 483.334 3.99607 0.409492 0
M  V30 5245 N 481.54 2.88651 -0.336003 0
M  V30 5246 H 481.087 2.35119 -1.05247 0
M  V30 5247 H 481.045 3.10328 0.504363 0
M  V30 5248 N 484.817 1.37938 0.762283 0
M  V30 5249 C 485.749 1.30349 1.88525 0
M  V30 5250 C 486.762 0.217402 1.61342 0
M  V30 5251 O 487.951 0.474291 1.72084 0
M  V30 5252 C 485.051 0.994844 3.23969 0
M  V30 5253 C 484.224 2.18829 3.78725 0
M  V30 5254 C 483.283 1.84844 4.92665 0
M  V30 5255 O 482.309 2.57244 5.07754 0
M  V30 5256 N 483.511 0.798201 5.74986 0
M  V30 5257 H 486.276 2.27114 1.95549 0
M  V30 5258 H 483.837 1.31686 0.941825 0
M  V30 5259 H 485.829 0.748168 3.97724 0
M  V30 5260 H 484.399 0.115446 3.12387 0
M  V30 5261 H 483.619 2.59615 2.96637 0
M  V30 5262 H 484.907 2.98497 4.1204 0
M  V30 5263 H 484.305 0.197611 5.65355 0
M  V30 5264 H 482.862 0.611396 6.48926 0
M  V30 5265 N 486.295 -0.989507 1.22664 0
M  V30 5266 C 487.706 -1.54406 1.04955 0
M  V30 5267 C 488.057 -1.92366 -0.385951 0
M  V30 5268 O 487.182 -1.75111 -1.27142 0
M  V30 5269 C 487.777 -2.80578 1.89899 0
M  V30 5270 C 486.336 -3.32464 1.76478 0
M  V30 5271 C 485.483 -2.05524 1.86159 0
M  V30 5272 H 488.434 -0.810211 1.3646 0
M  V30 5273 H 488.455 -3.53075 1.4184 0
M  V30 5274 H 487.967 -2.52918 2.94371 0
M  V30 5275 H 486.068 -3.65024 0.747528 0
M  V30 5276 H 486.181 -4.02838 2.59342 0
M  V30 5277 H 484.545 -2.19241 1.29636 0
M  V30 5278 H 485.328 -1.80258 2.92168 0
M  V30 5279 N 487.773 -1.03688 -1.18687 0
M  V30 5280 C 489.184 -0.766488 -1.70241 0
M  V30 5281 C 489.535 0.713052 -1.82784 0
M  V30 5282 O 488.66 1.55529 -1.50465 0
M  V30 5283 C 489.255 -1.38475 -3.09209 0
M  V30 5284 C 487.814 -1.16276 -3.5799 0
M  V30 5285 C 486.961 -1.4778 -2.34641 0
M  V30 5286 H 489.912 -1.20378 -1.03415 0
M  V30 5287 H 489.933 -0.785939 -3.72295 0
M  V30 5288 H 489.445 -2.46157 -3.00048 0
M  V30 5289 H 487.546 -0.104508 -3.72453 0
M  V30 5290 H 487.659 -1.8571 -4.41643 0
M  V30 5291 H 486.023 -0.897366 -2.38368 0
M  V30 5292 H 486.806 -2.56562 -2.28102 0
M  V30 5293 N 489.251 1.34841 -0.815825 0
M  V30 5294 C 490.183 2.28409 -0.190265 0
M  V30 5295 C 491.196 1.50705 0.615771 0
M  V30 5296 O 492.385 1.72822 0.446616 0
M  V30 5297 C 489.485 3.30441 0.752446 0
M  V30 5298 C 488.658 4.37399 -0.00922152 0
M  V30 5299 C 487.717 5.19234 0.853351 0
M  V30 5300 O 486.743 5.68404 0.300919 0
M  V30 5301 N 487.945 5.38248 2.17416 0
M  V30 5302 H 490.71 2.82732 -0.994114 0
M  V30 5303 H 488.271 1.47289 -0.672129 0
M  V30 5304 H 490.263 3.82084 1.33394 0
M  V30 5305 H 488.833 2.76565 1.45707 0
M  V30 5306 H 488.053 3.86567 -0.771979 0
M  V30 5307 H 489.341 5.05992 -0.533807 0
M  V30 5308 H 488.739 4.99961 2.6468 0
M  V30 5309 H 487.296 5.93035 2.70467 0
M  V30 5310 N 490.729 0.570148 1.46925 0
M  V30 5311 C 491.676 -0.170257 2.30171 0
M  V30 5312 C 492.646 -0.896099 1.39855 0
M  V30 5313 O 493.831 -0.889248 1.68811 0
M  V30 5314 C 490.971 -1.18605 3.24079 0
M  V30 5315 C 490.084 -0.464947 4.29491 0
M  V30 5316 C 489.219 -1.46716 5.10537 0
M  V30 5317 C 488.258 -0.731758 6.0771 0
M  V30 5318 N 487.395 -1.68142 6.81669 0
M  V30 5319 H 492.235 0.545713 2.92961 0
M  V30 5320 H 489.772 0.280938 1.44392 0
M  V30 5321 H 491.73 -1.78771 3.76957 0
M  V30 5322 H 490.36 -1.86989 2.63125 0
M  V30 5323 H 489.412 0.251506 3.79568 0
M  V30 5324 H 490.724 0.110548 4.98677 0
M  V30 5325 H 489.878 -2.14199 5.6763 0
M  V30 5326 H 488.617 -2.07658 4.41282 0
M  V30 5327 H 487.622 -0.0430787 5.49783 0
M  V30 5328 H 488.847 -0.127904 6.7898 0
M  V30 5329 H 486.793 -2.27918 6.15134 0
M  V30 5330 H 486.71 -1.15841 7.47072 0
M  V30 5331 H 487.978 -2.347 7.43328 0
M  V30 5332 N 492.207 -1.54576 0.307264 0
M  V30 5333 C 493.117 -2.27435 -0.57536 0
M  V30 5334 C 494.133 -1.31183 -1.14311 0
M  V30 5335 O 495.309 -1.64175 -1.16656 0
M  V30 5336 C 492.374 -3.00566 -1.72803 0
M  V30 5337 C 491.435 -4.12369 -1.19373 0
M  V30 5338 C 490.668 -4.82003 -2.29147 0
M  V30 5339 O 490.891 -4.51038 -3.49171 0
M  V30 5340 O 489.825 -5.69271 -1.95485 0
M  V30 5341 H 493.651 -3.03696 0.0158558 0
M  V30 5342 H 491.236 -1.49219 0.0735064 0
M  V30 5343 H 493.118 -3.46416 -2.39946 0
M  V30 5344 H 491.793 -2.27195 -2.30574 0
M  V30 5345 H 490.7 -3.70905 -0.487851 0
M  V30 5346 H 492.033 -4.87736 -0.661376 0
M  V30 5347 N 493.685 -0.035106 -1.57561 0
M  V30 5348 C 494.932 0.642229 -1.92046 0
M  V30 5349 C 495.26 1.7179 -0.91206 0
M  V30 5350 O 494.515 1.95544 0.0781153 0
M  V30 5351 C 494.814 1.29149 -3.3325 0
M  V30 5352 C 494.48 0.345604 -4.49574 0
M  V30 5353 C 493.142 0.0852775 -4.81124 0
M  V30 5354 C 495.494 -0.303569 -5.20315 0
M  V30 5355 C 492.822 -0.831927 -5.80772 0
M  V30 5356 C 495.174 -1.20886 -6.20942 0
M  V30 5357 C 493.838 -1.47802 -6.50931 0
M  V30 5358 H 493.108 0.235008 -0.702746 0
M  V30 5359 H 495.755 -0.0981529 -1.91248 0
M  V30 5360 H 494.06 2.10676 -3.30337 0
M  V30 5361 H 495.757 1.82223 -3.57205 0
M  V30 5362 H 492.347 0.558683 -4.24943 0
M  V30 5363 H 496.531 -0.115515 -4.96166 0
M  V30 5364 H 491.787 -1.0481 -6.02349 0
M  V30 5365 H 495.961 -1.71804 -6.74875 0
M  V30 5366 H 493.588 -2.19039 -7.2796 0
M  V30 5367 N 495.163 1.55791 0.238111 0
M  V30 5368 C 496.388 1.8244 0.986432 0
M  V30 5369 C 496.813 0.613314 1.7782 0
M  V30 5370 O 496.171 -0.437767 1.75935 0
M  V30 5371 C 496.219 3.06917 1.893 0
M  V30 5372 O 495.323 2.84449 2.98601 0
M  V30 5373 H 494.664 0.601975 0.280218 0
M  V30 5374 H 497.194 2.02987 0.256437 0
M  V30 5375 H 497.204 3.36583 2.30598 0
M  V30 5376 H 495.879 3.947 1.31091 0
M  V30 5377 H 494.456 2.65972 2.61368 0
M  V30 5378 N 496.642 -0.504142 1.49319 0
M  V30 5379 C 497.891 -1.25507 1.57895 0
M  V30 5380 C 498.204 -1.93735 0.269433 0
M  V30 5381 O 499.41 -2.70492 0.233706 0
M  V30 5382 C 497.866 -2.27869 2.78574 0
M  V30 5383 C 497.474 -1.65594 4.16272 0
M  V30 5384 C 499.218 -3.0381 2.96479 0
M  V30 5385 C 497.125 -2.66048 5.28178 0
M  V30 5386 H 496.055 -0.47212 0.587894 0
M  V30 5387 H 498.706 -0.52931 1.757 0
M  V30 5388 H 497.088 -3.03594 2.54257 0
M  V30 5389 H 498.262 -0.958826 4.50714 0
M  V30 5390 H 496.577 -1.02055 4.037 0
M  V30 5391 H 499.174 -3.78925 3.77253 0
M  V30 5392 H 499.517 -3.61235 2.06918 0
M  V30 5393 H 500.05 -2.352 3.20821 0
M  V30 5394 H 496.789 -2.13408 6.19788 0
M  V30 5395 H 496.309 -3.34009 4.98195 0
M  V30 5396 H 497.988 -3.28536 5.57381 0
M  V30 5397 N 498.12 -1.38341 -0.754957 0
M  V30 5398 C 499.531 -1.30803 -1.3322 0
M  V30 5399 C 499.882 0.0368 -1.96165 0
M  V30 5400 O 499.007 0.938844 -1.94974 0
M  V30 5401 C 499.602 -2.3688 -2.42225 0
M  V30 5402 C 498.161 -2.32925 -2.95674 0
M  V30 5403 C 497.308 -2.19819 -1.69042 0
M  V30 5404 H 500.259 -1.48719 -0.553937 0
M  V30 5405 H 500.28 -2.02517 -3.22129 0
M  V30 5406 H 499.792 -3.34747 -1.96383 0
M  V30 5407 H 497.893 -1.38635 -3.45848 0
M  V30 5408 H 498.006 -3.27008 -3.50146 0
M  V30 5409 H 496.37 -1.66648 -1.92615 0
M  V30 5410 H 497.153 -3.19625 -1.25279 0
M  V30 5411 N 499.598 0.982988 -1.23187 0
M  V30 5412 C 501.014 1.2487 -0.993967 0
M  V30 5413 C 501.214 1.99155 0.306498 0
M  V30 5414 O 500.27 2.30688 1.0266 0
M  V30 5415 C 501.583 2.05078 -2.19917 0
M  V30 5416 C 503.131 2.18227 -2.2438 0
M  V30 5417 C 503.606 3.01825 -3.44479 0
M  V30 5418 N 505.097 3.09411 -3.44702 0
M  V30 5419 C 505.832 3.74412 -4.34285 0
M  V30 5420 N 505.328 4.41259 -5.341 0
M  V30 5421 N 507.121 3.71273 -4.22035 0
M  V30 5422 H 499.272 0.485253 -2.06783 0
M  V30 5423 H 501.535 0.276979 -0.906635 0
M  V30 5424 H 501.241 1.57867 -3.14279 0
M  V30 5425 H 501.115 3.05829 -2.2079 0
M  V30 5426 H 503.502 2.64648 -1.30559 0
M  V30 5427 H 503.583 1.16873 -2.2754 0
M  V30 5428 H 503.227 2.56102 -4.38605 0
M  V30 5429 H 503.157 4.03342 -3.38559 0
M  V30 5430 H 505.648 2.61845 -2.7248 0
M  V30 5431 H 505.961 4.88629 -5.98717 0
M  V30 5432 H 504.306 4.39975 -5.38002 0
M  V30 5433 H 507.497 3.18217 -3.43301 0
M  V30 5434 H 507.67 4.21649 -4.92053 0
M  V30 5435 N 501.076 1.04316 1.18135 0
M  V30 5436 C 502.039 0.640794 2.2006 0
M  V30 5437 C 503.039 -0.303124 1.57917 0
M  V30 5438 O 504.229 -0.0881855 1.73977 0
M  V30 5439 C 501.361 -0.060148 3.40847 0
M  V30 5440 H 502.554 1.54281 2.57172 0
M  V30 5441 H 500.107 0.836004 1.32063 0
M  V30 5442 H 500.842 -0.975845 3.0927 0
M  V30 5443 H 500.627 0.618319 3.87194 0
M  V30 5444 H 502.117 -0.328082 4.16309 0
M  V30 5445 N 502.554 -1.34406 0.822964 0
M  V30 5446 C 503.504 -2.26963 0.217208 0
M  V30 5447 C 504.488 -1.48536 -0.618545 0
M  V30 5448 O 505.68 -1.7056 -0.473118 0
M  V30 5449 C 502.809 -3.37655 -0.619973 0
M  V30 5450 C 501.895 -4.23495 0.226411 0
M  V30 5451 N 502.286 -4.88876 1.29744 0
M  V30 5452 C 500.584 -4.45999 0.0107554 0
M  V30 5453 C 501.285 -5.52642 1.81553 0
M  V30 5454 N 500.261 -5.31949 1.11942 0
M  V30 5455 H 504.063 -2.75017 1.03647 0
M  V30 5456 H 501.577 -1.48126 0.665777 0
M  V30 5457 H 503.574 -4.02932 -1.07011 0
M  V30 5458 H 502.234 -2.91151 -1.43739 0
M  V30 5459 H 503.245 -4.89886 1.68024 0
M  V30 5460 H 499.922 -4.10253 -0.774495 0
M  V30 5461 H 501.312 -6.14755 2.71156 0
M  V30 5462 N 504.032 -0.577932 -1.46621 0
M  V30 5463 C 504.995 0.147805 -2.28723 0
M  V30 5464 C 505.995 0.823325 -1.38123 0
M  V30 5465 O 507.185 0.676011 -1.60548 0
M  V30 5466 C 504.317 1.21853 -3.18378 0
M  V30 5467 H 505.51 -0.573654 -2.94362 0
M  V30 5468 H 503.063 -0.335703 -1.52652 0
M  V30 5469 H 503.798 1.97173 -2.57475 0
M  V30 5470 H 503.583 0.738714 -3.85078 0
M  V30 5471 H 505.073 1.72768 -3.80186 0
M  V30 5472 N 505.51 1.54411 -0.315457 0
M  V30 5473 C 506.756 2.01425 0.282775 0
M  V30 5474 C 507.111 1.19978 1.5041 0
M  V30 5475 O 506.404 0.271766 1.89663 0
M  V30 5476 C 506.598 3.50936 0.676652 0
M  V30 5477 C 506.427 4.46856 -0.504954 0
M  V30 5478 C 505.197 4.95275 -1.00152 0
M  V30 5479 C 507.395 4.96141 -1.35456 0
M  V30 5480 N 505.377 5.75081 -2.14838 0
M  V30 5481 C 506.748 5.73791 -2.3487 0
M  V30 5482 C 508.803 4.78299 -1.38327 0
M  V30 5483 C 507.506 6.35498 -3.36949 0
M  V30 5484 C 509.532 5.40836 -2.39271 0
M  V30 5485 C 508.894 6.1833 -3.37413 0
M  V30 5486 H 504.993 0.779078 0.0675398 0
M  V30 5487 H 507.577 1.8946 -0.448656 0
M  V30 5488 H 505.748 3.63162 1.37723 0
M  V30 5489 H 507.48 3.84728 1.25566 0
M  V30 5490 H 504.235 4.70107 -0.574123 0
M  V30 5491 H 504.659 6.19664 -2.72665 0
M  V30 5492 H 509.301 4.17956 -0.638196 0
M  V30 5493 H 507.019 6.94967 -4.12367 0
M  V30 5494 H 510.605 5.28952 -2.42284 0
M  V30 5495 H 509.485 6.65861 -4.14244 0
M  V30 5496 N 506.988 0.0434614 1.5754 0
M  V30 5497 C 508.399 -0.493343 1.80064 0
M  V30 5498 C 508.75 -1.71388 0.955023 0
M  V30 5499 O 507.875 -2.15736 0.169434 0
M  V30 5500 C 508.47 -0.90179 3.26578 0
M  V30 5501 C 507.029 -1.38362 3.50047 0
M  V30 5502 C 506.176 -0.355129 2.75017 0
M  V30 5503 H 509.127 0.2694 1.56397 0
M  V30 5504 H 509.148 -1.76523 3.37075 0
M  V30 5505 H 508.66 -0.013271 3.88098 0
M  V30 5506 H 506.761 -2.29159 2.93798 0
M  V30 5507 H 506.874 -1.3811 4.58762 0
M  V30 5508 H 505.238 -0.826348 2.40922 0
M  V30 5509 H 506.021 0.525172 3.39259 0
M  V30 5510 N 508.466 -1.55915 -0.229846 0
M  V30 5511 C 509.691 -1.8296 -0.976743 0
M  V30 5512 C 510.116 -0.622735 -1.77493 0
M  V30 5513 O 509.474 0.428431 -1.76165 0
M  V30 5514 C 509.522 -3.07916 -1.8767 0
M  V30 5515 O 508.626 -2.86028 -2.97088 0
M  V30 5516 H 507.967 -0.603453 -0.277021 0
M  V30 5517 H 510.497 -2.0312 -0.245669 0
M  V30 5518 H 510.507 -3.37802 -2.2881 0
M  V30 5519 H 509.182 -3.95389 -1.28996 0
M  V30 5520 H 507.759 -2.67355 -2.59954 0
M  V30 5521 N 509.944 0.496216 -1.49584 0
M  V30 5522 C 511.355 1.07765 -1.52459 0
M  V30 5523 C 511.706 1.93679 -0.31353 0
M  V30 5524 O 510.831 2.08588 0.576186 0
M  V30 5525 C 511.426 1.96111 -2.76271 0
M  V30 5526 C 509.985 2.49409 -2.81908 0
M  V30 5527 C 509.132 1.27142 -2.46435 0
M  V30 5528 H 512.083 0.279914 -1.56212 0
M  V30 5529 H 512.104 2.80862 -2.56704 0
M  V30 5530 H 511.616 1.33555 -3.64396 0
M  V30 5531 H 509.717 3.1559 -1.98074 0
M  V30 5532 H 509.83 2.86234 -3.84196 0
M  V30 5533 H 508.194 1.59818 -1.98319 0
M  V30 5534 H 508.977 0.662866 -3.3684 0
M  V30 5535 N 511.423 1.38739 0.74761 0
M  V30 5536 C 512.653 1.3832 1.53464 0
M  V30 5537 C 513.061 -0.0273464 1.8918 0
M  V30 5538 O 512.404 -1.00588 1.53713 0
M  V30 5539 C 512.466 2.18007 2.85855 0
M  V30 5540 C 512.13 3.66762 2.72644 0
M  V30 5541 C 513.127 4.60124 2.42037 0
M  V30 5542 C 510.812 4.10193 2.89909 0
M  V30 5543 C 512.806 5.94897 2.28859 0
M  V30 5544 C 510.493 5.45045 2.7635 0
M  V30 5545 C 511.491 6.37211 2.45869 0
M  V30 5546 O 511.179 7.69581 2.3238 0
M  V30 5547 H 510.911 0.474718 0.481268 0
M  V30 5548 H 513.465 1.83012 0.932518 0
M  V30 5549 H 511.695 1.68043 3.48279 0
M  V30 5550 H 513.384 2.09921 3.47402 0
M  V30 5551 H 514.15 4.27874 2.28361 0
M  V30 5552 H 510.029 3.38797 3.1263 0
M  V30 5553 H 513.573 6.66802 2.04989 0
M  V30 5554 H 509.47 5.76889 2.89601 0
M  V30 5555 H 510.238 7.80169 2.47546 0
M  V30 5556 N 512.901 -0.976442 1.23707 0
M  V30 5557 C 513.848 -2.06952 1.02174 0
M  V30 5558 C 514.818 -1.65984 -0.0621034 0
M  V30 5559 O 516.003 -1.90584 0.0907906 0
M  V30 5560 C 513.143 -3.39425 0.62327 0
M  V30 5561 C 512.256 -3.9364 1.77966 0
M  V30 5562 C 511.391 -5.14343 1.3276 0
M  V30 5563 C 510.43 -5.60733 2.45449 0
M  V30 5564 N 509.567 -6.72662 2.01172 0
M  V30 5565 H 514.407 -2.24704 1.95734 0
M  V30 5566 H 511.944 -1.10143 0.975034 0
M  V30 5567 H 513.902 -4.15526 0.37332 0
M  V30 5568 H 512.532 -3.21624 -0.275329 0
M  V30 5569 H 511.584 -3.14258 2.14351 0
M  V30 5570 H 512.896 -4.24035 2.62671 0
M  V30 5571 H 512.05 -5.97789 1.03601 0
M  V30 5572 H 510.789 -4.8561 0.450975 0
M  V30 5573 H 509.794 -4.75865 2.75378 0
M  V30 5574 H 511.019 -5.91483 3.33654 0
M  V30 5575 H 508.965 -6.45681 1.15895 0
M  V30 5576 H 508.882 -7.02462 2.79434 0
M  V30 5577 H 510.15 -7.59572 1.75129 0
M  V30 5578 N 514.379 -1.04941 -1.1758 0
M  V30 5579 C 515.656 -0.671918 -1.83697 0
M  V30 5580 C 516.036 0.847929 -1.93322 0
M  V30 5581 O 515.384 1.75287 -1.46583 0
M  V30 5582 C 515.594 -1.35797 -3.21497 0
M  V30 5583 C 516.942 -1.4944 -3.97433 0
M  V30 5584 O 517.966 -1.31678 -3.30967 0
M  V30 5585 O 516.825 -1.78463 -5.1654 0
M  V30 5586 H 513.919 -0.236212 -0.792548 0
M  V30 5587 H 516.465 -1.14884 -1.24899 0
M  V30 5588 H 515.237 -2.39498 -3.09446 0
M  V30 5589 H 514.86 -0.870236 -3.8796 0
M  V30 5590 N 515.857 1.33968 -0.830081 0
M  V30 5591 C 517.087 2.01987 -0.434142 0
M  V30 5592 C 517.495 1.62639 0.96671 0
M  V30 5593 O 516.838 0.831151 1.63822 0
M  V30 5594 C 516.9 3.5648 -0.465018 0
M  V30 5595 C 516.564 4.19176 -1.82045 0
M  V30 5596 C 517.561 4.39181 -2.78237 0
M  V30 5597 C 515.246 4.55792 -2.11089 0
M  V30 5598 C 517.24 4.94937 -4.01642 0
M  V30 5599 C 514.927 5.11258 -3.34752 0
M  V30 5600 C 515.925 5.30775 -4.29845 0
M  V30 5601 O 515.613 5.85064 -5.51322 0
M  V30 5602 H 515.345 0.653847 -0.171639 0
M  V30 5603 H 517.899 1.72066 -1.12171 0
M  V30 5604 H 516.129 3.8569 0.279284 0
M  V30 5605 H 517.818 4.05804 -0.0881334 0
M  V30 5606 H 518.584 4.11249 -2.57097 0
M  V30 5607 H 514.463 4.39901 -1.3787 0
M  V30 5608 H 518.007 5.10086 -4.75876 0
M  V30 5609 H 513.904 5.38619 -3.55753 0
M  V30 5610 H 514.672 6.03489 -5.5294 0
M  V30 5611 N 517.335 0.585699 1.46312 0
M  V30 5612 C 518.245 -0.148236 2.34131 0
M  V30 5613 C 519.261 -0.882972 1.49932 0
M  V30 5614 O 520.437 -0.845484 1.82794 0
M  V30 5615 C 517.502 -1.14714 3.27172 0
M  V30 5616 C 516.563 -0.416746 4.27272 0
M  V30 5617 C 515.796 -1.36806 5.15868 0
M  V30 5618 O 516.019 -2.60475 5.07454 0
M  V30 5619 O 514.953 -0.877018 5.95476 0
M  V30 5620 H 518.779 0.572882 2.98248 0
M  V30 5621 H 516.364 0.346082 1.45336 0
M  V30 5622 H 518.246 -1.72303 3.84564 0
M  V30 5623 H 516.921 -1.84967 2.65648 0
M  V30 5624 H 515.828 0.201061 3.73559 0
M  V30 5625 H 517.161 0.244872 4.9159 0
M  V30 5626 N 518.813 -1.54241 0.323641 0
M  V30 5627 C 520.059 -2.00867 -0.279323 0
M  V30 5628 C 520.392 -1.21146 -1.5178 0
M  V30 5629 O 519.667 -0.29378 -1.92269 0
M  V30 5630 C 519.95 -3.54837 -0.613387 0
M  V30 5631 C 519.803 -4.45284 0.635803 0
M  V30 5632 C 521.122 -4.16186 -1.43099 0
M  V30 5633 H 518.241 -0.730177 -0.100049 0
M  V30 5634 H 520.883 -1.84829 0.440235 0
M  V30 5635 H 519.033 -3.68634 -1.22641 0
M  V30 5636 H 520.705 -4.43357 1.27406 0
M  V30 5637 H 518.948 -4.14956 1.26466 0
M  V30 5638 H 519.619 -5.5084 0.357597 0
M  V30 5639 H 522.095 -4.05964 -0.912814 0
M  V30 5640 H 520.971 -5.24031 -1.6335 0
M  V30 5641 H 521.232 -3.69516 -2.42715 0
M  V30 5642 N 520.291 -0.0518155 -1.57515 0
M  V30 5643 C 521.238 0.922352 -2.11569 0
M  V30 5644 C 522.208 1.30842 -1.02321 0
M  V30 5645 O 523.393 1.39778 -1.29872 0
M  V30 5646 C 520.533 2.19167 -2.6657 0
M  V30 5647 C 519.646 1.86003 -3.89906 0
M  V30 5648 C 518.781 3.07398 -4.33221 0
M  V30 5649 C 517.82 2.70158 -5.49255 0
M  V30 5650 N 516.957 3.84248 -5.8762 0
M  V30 5651 H 521.797 0.454506 -2.94514 0
M  V30 5652 H 519.334 0.212718 -1.45554 0
M  V30 5653 H 521.292 2.93443 -2.96559 0
M  V30 5654 H 519.922 2.63528 -1.86421 0
M  V30 5655 H 518.974 1.01874 -3.66505 0
M  V30 5656 H 520.286 1.54592 -4.74239 0
M  V30 5657 H 519.44 3.89972 -4.64765 0
M  V30 5658 H 518.179 3.41988 -3.477 0
M  V30 5659 H 517.184 1.86001 -5.17382 0
M  V30 5660 H 518.409 2.36759 -6.36492 0
M  V30 5661 H 516.355 4.18638 -5.05053 0
M  V30 5662 H 516.272 3.56538 -6.66646 0
M  V30 5663 H 517.54 4.6746 -6.2378 0
M  V30 5664 N 521.769 1.56035 0.221574 0
M  V30 5665 C 522.716 1.92413 1.27459 0
M  V30 5666 C 523.686 0.781323 1.46576 0
M  V30 5667 O 524.871 1.03721 1.60145 0
M  V30 5668 C 522.011 2.24617 2.61995 0
M  V30 5669 C 521.124 3.51831 2.50677 0
M  V30 5670 C 520.259 3.73482 3.77736 0
M  V30 5671 C 519.298 4.94211 3.6114 0
M  V30 5672 N 518.435 5.12252 4.80148 0
M  V30 5673 H 523.275 2.82203 0.957355 0
M  V30 5674 H 520.812 1.39676 0.461415 0
M  V30 5675 H 522.77 2.41298 3.40339 0
M  V30 5676 H 521.4 1.38 2.91815 0
M  V30 5677 H 520.452 3.43343 1.63767 0
M  V30 5678 H 521.764 4.40328 2.34334 0
M  V30 5679 H 520.918 3.9026 4.64523 0
M  V30 5680 H 519.657 2.83266 3.97003 0
M  V30 5681 H 518.662 4.77384 2.72736 0
M  V30 5682 H 519.887 5.85912 3.43343 0
M  V30 5683 H 517.833 4.24978 4.99729 0
M  V30 5684 H 517.75 5.94881 4.66532 0
M  V30 5685 H 519.018 5.33465 5.68362 0
M  V30 5686 N 523.247 -0.488276 1.49845 0
M  V30 5687 C 524.157 -1.61451 1.70207 0
M  V30 5688 C 525.173 -1.63877 0.584846 0
M  V30 5689 O 526.349 -1.82063 0.861107 0
M  V30 5690 C 523.414 -2.9776 1.77594 0
M  V30 5691 C 522.475 -3.05861 3.01243 0
M  V30 5692 C 521.708 -4.35668 3.08268 0
M  V30 5693 O 521.931 -5.25197 2.22541 0
M  V30 5694 O 520.865 -4.49005 4.00847 0
M  V30 5695 H 524.691 -1.47199 2.65643 0
M  V30 5696 H 522.276 -0.665939 1.33737 0
M  V30 5697 H 524.158 -3.7875 1.84732 0
M  V30 5698 H 522.833 -3.12248 0.8534 0
M  V30 5699 H 521.74 -2.24012 2.99616 0
M  V30 5700 H 523.073 -2.96304 3.9302 0
M  V30 5701 N 524.725 -1.39134 -0.740242 0
M  V30 5702 C 525.973 -1.35803 -1.49673 0
M  V30 5703 C 526.294 0.0470897 -1.94943 0
M  V30 5704 O 525.564 0.997347 -1.68611 0
M  V30 5705 H 524.144 -0.499736 -0.555224 0
M  V30 5706 H 526.806 -1.73947 -0.879107 0
M  V30 5707 H 525.902 -2.0174 -2.38133 0
M  V30 5708 N 526.204 0.969867 -1.24223 0
M  V30 5709 C 527.429 1.75289 -1.10853 0
M  V30 5710 C 527.854 1.85091 0.335079 0
M  V30 5711 O 527.212 1.32024 1.24255 0
M  V30 5712 C 527.26 3.15255 -1.75062 0
M  V30 5713 O 526.364 3.99589 -1.01992 0
M  V30 5714 H 525.705 0.538904 -0.387915 0
M  V30 5715 H 528.235 1.21675 -1.64488 0
M  V30 5716 H 528.245 3.65787 -1.80731 0
M  V30 5717 H 526.92 3.07436 -2.801 0
M  V30 5718 H 525.497 3.58077 -1.04094 0
M  V30 5719 O 527.721 1.18047 1.10214 0
M  V30 5720 H 528.412 0.921332 1.70385 0
M  V30 END ATOM
M  V30 BEGIN BOND
M  V30 END BOND
M  V30 END CTAB
M  END
$$$$
