drugbank_target|Q8NI22 Multiple coagulation factor deficiency protein 2 (DB00025; DB13998; DB13999)
 OpenBabel12092120063D

  0  0  0     0  0            999 V3000
M  V30 BEGIN CTAB
M  V30 COUNTS 2235 2259 0 0 0
M  V30 BEGIN ATOM
M  V30 1 H -0.908 1.98254 -0.117106 0
M  V30 2 N 0 1.576 0 0
M  V30 3 C 0.933 2.03868 1.02534 0
M  V30 4 C 1.911 0.928543 1.3348 0
M  V30 5 O 3.095 1.19667 1.45644 0
M  V30 6 C 0.222 2.43627 2.35294 0
M  V30 7 C -0.732 3.65373 2.2001 0
M  V30 8 S 0.101 5.13292 1.52614 0
M  V30 9 C 1.257 5.56322 2.86805 0
M  V30 10 H 1.49 2.90518 0.631377 0
M  V30 11 H -0.977 1.52953 0.210867 0
M  V30 12 H 0.981 2.67203 3.11629 0
M  V30 13 H -0.358 1.57376 2.7183 0
M  V30 14 H -1.165 3.90944 3.18086 0
M  V30 15 H -1.563 3.418 1.51819 0
M  V30 16 H 0.729 5.58782 3.83104 0
M  V30 17 H 1.672 6.56266 2.65933 0
M  V30 18 H 2.08 4.83886 2.90714 0
M  V30 19 N 1.4781 -0.272755 1.55222 0
M  V30 20 C 2.7061 -1.02255 1.79865 0
M  V30 21 C 3.1211 -1.79924 0.572088 0
M  V30 22 O 2.4781 -1.76638 -0.458842 0
M  V30 23 C 2.5291 -1.98094 3.02392 0
M  V30 24 O 2.2501 -1.23572 4.20311 0
M  V30 25 C 3.7511 -2.84884 3.39641 0
M  V30 26 H 0.9711 -0.302057 0.599168 0
M  V30 27 H 3.5151 -0.303465 2.02236 0
M  V30 28 H 1.6701 -2.65465 2.82147 0
M  V30 29 H 2.0841 -1.88172 4.89583 0
M  V30 30 H 3.5581 -3.47927 4.28545 0
M  V30 31 H 4.0351 -3.54665 2.59055 0
M  V30 32 H 4.6411 -2.23003 3.62146 0
M  V30 33 N 2.9562 -1.48159 -0.537278 0
M  V30 34 C 3.8892 -1.567 -1.65893 0
M  V30 35 C 4.8672 -0.41787 -1.57139 0
M  V30 36 O 6.0512 -0.628461 -1.77715 0
M  V30 37 C 3.1782 -1.48818 -3.04255 0
M  V30 38 C 2.2242 -2.68482 -3.31391 0
M  V30 39 S 3.0572 -4.30516 -3.1846 0
M  V30 40 C 4.2132 -4.2522 -4.59281 0
M  V30 41 H 4.4462 -2.5159 -1.58397 0
M  V30 42 H 1.9792 -1.36602 -0.719672 0
M  V30 43 H 3.9372 -1.44958 -3.84054 0
M  V30 44 H 2.5982 -0.552777 -3.09198 0
M  V30 45 H 1.7912 -2.59085 -4.32309 0
M  V30 46 H 1.3932 -2.69567 -2.59248 0
M  V30 47 H 3.6852 -3.94703 -5.5065 0
M  V30 48 H 4.6282 -5.26292 -4.73732 0
M  V30 49 H 5.0362 -3.55791 -4.38261 0
M  V30 50 N 4.4343 0.785586 -1.36625 0
M  V30 51 C 5.8503 1.08419 -1.17122 0
M  V30 52 C 6.0503 2.015 0.00208491 0
M  V30 53 O 5.1063 2.43551 0.666278 0
M  V30 54 C 6.4193 1.69498 -2.48377 0
M  V30 55 C 7.9673 1.81821 -2.54775 0
M  V30 56 C 8.4423 2.46315 -3.86126 0
M  V30 57 N 9.9333 2.53779 -3.87492 0
M  V30 58 C 10.6683 3.045 -4.85868 0
M  V30 59 N 10.1643 3.55499 -5.94637 0
M  V30 60 N 11.9573 3.03247 -4.73284 0
M  V30 61 H 4.1083 0.167264 -2.1174 0
M  V30 62 H 6.3713 0.13682 -0.938075 0
M  V30 63 H 6.0773 1.08571 -3.34522 0
M  V30 64 H 5.9513 2.6896 -2.64462 0
M  V30 65 H 8.3383 2.41884 -1.69045 0
M  V30 66 H 8.4193 0.811532 -2.42586 0
M  V30 67 H 8.0633 1.86895 -4.72263 0
M  V30 68 H 7.9933 3.47561 -3.95612 0
M  V30 69 H 10.4843 2.17672 -3.08913 0
M  V30 70 H 10.7973 3.92562 -6.65669 0
M  V30 71 H 9.1423 3.5364 -5.98301 0
M  V30 72 H 12.3333 2.62696 -3.87438 0
M  V30 73 H 12.5063 3.42467 -5.50109 0
M  V30 74 N 5.9124 1.20967 1.01018 0
M  V30 75 C 7.1374 1.0503 1.78839 0
M  V30 76 C 7.5624 -0.395752 1.8389 0
M  V30 77 O 6.9204 -1.28529 1.27867 0
M  V30 78 C 6.9684 1.64602 3.2084 0
M  V30 79 O 6.0724 0.887988 4.02726 0
M  V30 80 H 5.4134 0.369987 0.551367 0
M  V30 81 H 7.9434 1.60399 1.27018 0
M  V30 82 H 7.9534 1.68607 3.71532 0
M  V30 83 H 6.6284 2.69841 3.16479 0
M  V30 84 H 5.2054 0.922648 3.61305 0
M  V30 85 N 7.3905 -1.2043 1.01659 0
M  V30 86 C 8.3205 -2.25466 0.607226 0
M  V30 87 C 9.3015 -1.65853 -0.377716 0
M  V30 88 O 10.4865 -1.92409 -0.263149 0
M  V30 89 C 7.6165 -3.47256 -0.0552949 0
M  V30 90 C 6.5705 -4.19462 0.850632 0
M  V30 91 C 5.8965 -5.34673 0.0538859 0
M  V30 92 C 7.1965 -4.75603 2.15868 0
M  V30 93 H 8.8905 -2.59962 1.48526 0
M  V30 94 H 6.4365 -1.2496 0.715605 0
M  V30 95 H 8.3895 -4.19917 -0.353233 0
M  V30 96 H 7.1135 -3.11924 -0.968045 0
M  V30 97 H 5.7725 -3.48667 1.13257 0
M  V30 98 H 5.4205 -4.95585 -0.860514 0
M  V30 99 H 5.1205 -5.83913 0.657192 0
M  V30 100 H 6.6445 -6.10138 -0.237598 0
M  V30 101 H 8.0585 -5.40083 1.92311 0
M  V30 102 H 6.4555 -5.3528 2.71284 0
M  V30 103 H 7.5255 -3.94346 2.82169 0
M  V30 104 N 8.8686 -0.792821 -1.36206 0
M  V30 105 C 9.7986 -0.207853 -2.32573 0
M  V30 106 C 10.7796 0.659055 -1.56813 0
M  V30 107 O 11.9646 0.592176 -1.84951 0
M  V30 108 C 9.0946 0.655449 -3.41059 0
M  V30 109 C 8.0486 -0.111842 -4.27854 0
M  V30 110 C 7.3746 0.872274 -5.27537 0
M  V30 111 C 8.6746 -1.30299 -5.05786 0
M  V30 112 H 10.3686 -1.01294 -2.81744 0
M  V30 113 H 7.9146 -0.48854 -1.3546 0
M  V30 114 H 9.8676 1.07464 -4.07467 0
M  V30 115 H 8.5916 1.49328 -2.90463 0
M  V30 116 H 7.2506 -0.512053 -3.63006 0
M  V30 117 H 6.8986 1.70523 -4.73214 0
M  V30 118 H 6.5986 0.363291 -5.86476 0
M  V30 119 H 8.1226 1.28996 -5.96818 0
M  V30 120 H 9.5366 -0.959379 -5.65216 0
M  V30 121 H 7.9336 -1.7455 -5.74154 0
M  V30 122 H 9.0036 -2.09663 -4.37229 0
M  V30 123 N 10.3467 1.47872 -0.545128 0
M  V30 124 C 11.7627 1.5829 -0.204032 0
M  V30 125 C 11.9627 1.54529 1.29317 0
M  V30 126 O 11.0187 1.44232 2.07252 0
M  V30 127 C 12.3317 2.89304 -0.819987 0
M  V30 128 C 13.8797 3.02864 -0.790105 0
M  V30 129 C 14.3547 4.3656 -1.38491 0
M  V30 130 N 15.8457 4.43165 -1.34755 0
M  V30 131 C 16.5807 5.45153 -1.77753 0
M  V30 132 N 16.0767 6.54016 -2.2855 0
M  V30 133 N 17.8697 5.36125 -1.68897 0
M  V30 134 H 10.0207 1.4856 -1.51802 0
M  V30 135 H 12.2837 0.706305 -0.632327 0
M  V30 136 H 11.9897 2.97757 -1.87173 0
M  V30 137 H 11.8637 3.75957 -0.305915 0
M  V30 138 H 14.2507 2.94014 0.252913 0
M  V30 139 H 14.3317 2.17782 -1.34181 0
M  V30 140 H 13.9757 4.46164 -2.42693 0
M  V30 141 H 13.9057 5.20353 -0.808754 0
M  V30 142 H 16.3967 3.65083 -0.975855 0
M  V30 143 H 16.7097 7.27994 -2.59314 0
M  V30 144 H 15.0547 6.54938 -2.32553 0
M  V30 145 H 18.2457 4.49975 -1.28998 0
M  V30 146 H 18.4187 6.15472 -2.02726 0
M  V30 147 N 11.8248 0.280983 1.55075 0
M  V30 148 C 13.0528 -0.337293 2.04132 0
M  V30 149 C 13.4678 -1.4903 1.15912 0
M  V30 150 O 12.8248 -1.81606 0.180459 0
M  V30 151 C 12.8758 -0.812706 3.52246 0
M  V30 152 O 12.5968 0.294387 4.3711 0
M  V30 153 C 14.0978 -1.4982 4.17216 0
M  V30 154 H 11.3178 -0.0761638 0.666663 0
M  V30 155 H 13.8618 0.414787 2.00249 0
M  V30 156 H 12.0168 -1.51486 3.56554 0
M  V30 157 H 12.4308 -0.0721325 5.2445 0
M  V30 158 H 13.9048 -1.7822 5.22438 0
M  V30 159 H 14.3818 -2.43168 3.65741 0
M  V30 160 H 14.9878 -0.839742 4.16927 0
M  V30 161 N 13.3029 -1.57598 0.00835791 0
M  V30 162 C 14.7139 -1.7892 -0.53333 0
M  V30 163 C 15.0649 -0.916609 -1.73473 0
M  V30 164 O 14.1899 -0.121336 -2.1606 0
M  V30 165 C 14.7849 -3.24488 -0.974313 0
M  V30 166 C 13.3439 -3.46878 -1.46125 0
M  V30 167 C 12.4909 -2.74157 -0.416302 0
M  V30 168 H 15.4419 -1.56958 0.234495 0
M  V30 169 H 15.4629 -3.3306 -1.83988 0
M  V30 170 H 14.9749 -3.87972 -0.099718 0
M  V30 171 H 13.0759 -2.8862 -2.35646 0
M  V30 172 H 13.1889 -4.55572 -1.48295 0
M  V30 173 H 11.5529 -2.39022 -0.87981 0
M  V30 174 H 12.3359 -3.40345 0.44947 0
M  V30 175 N 14.781 0.264519 -1.55364 0
M  V30 176 C 16.028 0.994986 -1.7637 0
M  V30 177 C 16.356 1.85976 -0.5695 0
M  V30 178 O 15.611 1.90509 0.44776 0
M  V30 179 C 15.91 1.9004 -3.02687 0
M  V30 180 C 15.576 1.19243 -4.34847 0
M  V30 181 C 14.238 0.996709 -4.70764 0
M  V30 182 C 16.59 0.689296 -5.16622 0
M  V30 183 C 13.918 0.285261 -5.86006 0
M  V30 184 C 16.27 -0.00860079 -6.32599 0
M  V30 185 C 14.934 -0.215963 -6.67151 0
M  V30 186 H 14.204 0.364091 -0.645383 0
M  V30 187 H 16.851 0.266543 -1.89636 0
M  V30 188 H 15.156 2.69533 -2.84357 0
M  V30 189 H 16.853 2.46695 -3.16137 0
M  V30 190 H 13.443 1.3549 -4.06621 0
M  V30 191 H 17.627 0.828108 -4.89342 0
M  V30 192 H 12.883 0.113961 -6.11294 0
M  V30 193 H 17.057 -0.406186 -6.95214 0
M  V30 194 H 14.684 -0.769217 -7.56298 0
M  V30 195 N 16.2591 1.48442 0.529413 0
M  V30 196 C 17.1891 1.65902 1.64313 0
M  V30 197 C 18.1701 0.507897 1.6234 0
M  V30 198 O 19.3551 0.740503 1.79528 0
M  V30 199 C 16.4851 1.69911 3.02898 0
M  V30 200 C 15.4391 2.8453 3.19729 0
M  V30 201 C 14.7651 2.73629 4.59381 0
M  V30 202 C 16.0651 4.25821 3.02447 0
M  V30 203 H 17.7591 2.5914 1.49955 0
M  V30 204 H 15.3051 1.24709 0.719982 0
M  V30 205 H 17.2581 1.80715 3.80684 0
M  V30 206 H 15.9821 0.732524 3.18279 0
M  V30 207 H 14.6411 2.73283 2.44361 0
M  V30 208 H 14.2891 1.74938 4.71599 0
M  V30 209 H 13.9891 3.50541 4.71588 0
M  V30 210 H 15.5131 2.86401 5.39265 0
M  V30 211 H 16.9271 4.37898 3.70024 0
M  V30 212 H 15.3241 5.03735 3.26146 0
M  V30 213 H 16.3941 4.42244 1.98867 0
M  V30 214 N 17.7372 -0.778329 1.37039 0
M  V30 215 C 18.9772 -1.54973 1.33276 0
M  V30 216 C 19.3412 -1.91816 -0.0839376 0
M  V30 217 O 20.5422 -2.6767 -0.246228 0
M  V30 218 C 18.8132 -2.78517 2.23971 0
M  V30 219 S 20.3722 -3.6865 2.37997 0
M  V30 220 H 17.1902 -0.530639 0.473226 0
M  V30 221 H 19.7922 -0.915806 1.72723 0
M  V30 222 H 18.4962 -2.4952 3.25835 0
M  V30 223 H 18.0272 -3.46875 1.85584 0
M  V30 224 H 20.0422 -4.70182 1.58567 0
M  V30 225 N 19.2153 -1.21501 -1.00376 0
M  V30 226 C 20.4633 -1.03095 -1.73827 0
M  V30 227 C 20.7843 0.436341 -1.90055 0
M  V30 228 O 20.0543 1.31466 -1.45236 0
M  V30 229 H 18.6343 -0.378487 -0.644016 0
M  V30 230 H 21.2963 -1.52831 -1.20949 0
M  V30 231 H 20.3923 -1.49991 -2.73695 0
M  V30 232 N 20.6934 1.19889 -1.02296 0
M  V30 233 C 21.6234 2.25141 -0.619174 0
M  V30 234 C 22.6044 1.66051 0.368915 0
M  V30 235 O 23.7894 1.92546 0.252941 0
M  V30 236 C 20.9194 3.4728 0.0368783 0
M  V30 237 C 19.8734 4.19005 -0.872865 0
M  V30 238 C 19.1994 5.34637 -0.0822402 0
M  V30 239 C 20.4994 4.74452 -2.18387 0
M  V30 240 H 22.1934 2.59171 -1.49903 0
M  V30 241 H 19.7394 1.24579 -0.722222 0
M  V30 242 H 21.6924 4.20098 0.330958 0
M  V30 243 H 20.4164 3.12433 0.95149 0
M  V30 244 H 19.0754 3.48061 -1.15105 0
M  V30 245 H 18.7234 4.96034 0.83422 0
M  V30 246 H 18.4234 5.83557 -0.688149 0
M  V30 247 H 19.9474 6.10255 0.205238 0
M  V30 248 H 21.3614 5.39055 -1.95172 0
M  V30 249 H 19.7584 5.33834 -2.74119 0
M  V30 250 H 20.8284 3.92844 -2.84257 0
M  V30 251 N 22.1715 0.800033 1.35784 0
M  V30 252 C 23.1015 0.220184 2.3246 0
M  V30 253 C 24.0825 -0.65073 1.57161 0
M  V30 254 O 25.2675 -0.582359 1.85263 0
M  V30 255 C 22.3975 -0.637353 3.41402 0
M  V30 256 C 21.3515 0.134531 4.27789 0
M  V30 257 C 20.6775 -0.844285 5.27992 0
M  V30 258 C 21.9775 1.32979 5.05088 0
M  V30 259 H 23.6715 1.02787 2.81203 0
M  V30 260 H 21.2175 0.495717 1.35199 0
M  V30 261 H 23.1705 -1.05302 4.08031 0
M  V30 262 H 21.8945 -1.47785 2.91251 0
M  V30 263 H 20.5535 0.531296 3.6273 0
M  V30 264 H 20.2015 -1.68011 4.74111 0
M  V30 265 H 19.9015 -0.332184 5.8666 0
M  V30 266 H 21.4255 -1.2583 5.97494 0
M  V30 267 H 22.8395 0.98934 5.64699 0
M  V30 268 H 21.2365 1.77593 5.7322 0
M  V30 269 H 22.3065 2.11978 4.36111 0
M  V30 270 N 23.6496 -1.47581 0.552962 0
M  V30 271 C 24.8956 -2.03369 0.0355807 0
M  V30 272 C 25.2506 -1.42016 -1.29805 0
M  V30 273 O 24.5436 -0.564917 -1.83083 0
M  V30 274 C 24.7376 -3.57199 -0.119728 0
M  V30 275 C 24.5666 -4.33468 1.1973 0
M  V30 276 C 23.3366 -4.7353 1.76345 0
M  V30 277 C 25.5346 -4.68866 2.11351 0
M  V30 278 N 23.5166 -5.34426 3.02097 0
M  V30 279 C 24.8876 -5.3002 3.21681 0
M  V30 280 C 26.9426 -4.50795 2.11397 0
M  V30 281 C 25.6456 -5.75011 4.32151 0
M  V30 282 C 27.6716 -4.96782 3.20876 0
M  V30 283 C 27.0336 -5.57981 4.29926 0
M  V30 284 H 23.1326 -0.780058 0.0550806 0
M  V30 285 H 25.7166 -1.80117 0.739315 0
M  V30 286 H 23.8876 -3.80227 -0.792579 0
M  V30 287 H 25.6196 -3.99627 -0.638792 0
M  V30 288 H 22.3746 -4.55352 1.30196 0
M  V30 289 H 22.7986 -5.69421 3.66182 0
M  V30 290 H 27.4406 -4.0284 1.28372 0
M  V30 291 H 25.1586 -6.21959 5.15938 0
M  V30 292 H 28.7446 -4.84573 3.21994 0
M  V30 293 H 27.6246 -5.92918 5.13243 0
M  V30 294 N 25.1277 -0.289203 -1.54924 0
M  V30 295 C 26.0907 0.579144 -2.21762 0
M  V30 296 C 27.0907 1.07047 -1.1999 0
M  V30 297 O 28.2807 0.968384 -1.44803 0
M  V30 298 C 25.4127 1.80055 -2.8947 0
M  V30 299 H 26.6057 -0.00464908 -2.999 0
M  V30 300 H 24.1587 -0.0399306 -1.56249 0
M  V30 301 H 24.8937 2.42449 -2.15381 0
M  V30 302 H 24.6787 1.45602 -3.64064 0
M  V30 303 H 26.1687 2.41773 -3.40493 0
M  V30 304 N 26.6058 1.57591 -0.0167156 0
M  V30 305 C 27.8528 1.91283 0.664597 0
M  V30 306 C 28.1808 0.891949 1.72842 0
M  V30 307 O 27.4358 -0.100931 1.9544 0
M  V30 308 C 27.7348 3.3172 1.33029 0
M  V30 309 C 27.4008 4.4914 0.398047 0
M  V30 310 C 26.0628 4.80992 0.141421 0
M  V30 311 C 28.4148 5.20634 -0.242825 0
M  V30 312 C 25.7428 5.81703 -0.764092 0
M  V30 313 C 28.0948 6.22311 -1.13632 0
M  V30 314 C 26.7588 6.52611 -1.40196 0
M  V30 315 H 26.0288 0.699956 0.243193 0
M  V30 316 H 28.6758 1.9135 -0.0758267 0
M  V30 317 H 26.9808 3.27856 2.14517 0
M  V30 318 H 28.6778 3.55055 1.86379 0
M  V30 319 H 25.2678 4.24262 0.608238 0
M  V30 320 H 29.4518 4.96267 -0.0576019 0
M  V30 321 H 24.7078 6.03532 -0.977732 0
M  V30 322 H 28.8818 6.76834 -1.63917 0
M  V30 323 H 26.5088 7.30467 -2.10529 0
M  V30 324 N 28.0839 -0.256276 1.55502 0
M  V30 325 C 29.3239 -0.993081 1.78654 0
M  V30 326 C 29.6879 -1.8288 0.584724 0
M  V30 327 O 30.8889 -2.59665 0.694822 0
M  V30 328 C 29.1599 -1.83856 3.06483 0
M  V30 329 S 30.7189 -2.63573 3.5082 0
M  V30 330 H 27.5369 -0.334199 0.62756 0
M  V30 331 H 30.1389 -0.26184 1.93739 0
M  V30 332 H 28.8429 -1.21414 3.92029 0
M  V30 333 H 28.3739 -2.61271 2.94111 0
M  V30 334 H 30.3889 -3.86312 3.11412 0
M  V30 335 N 29.562 -1.4872 -0.521534 0
M  V30 336 C 30.525 -1.63379 -1.60748 0
M  V30 337 C 31.525 -0.50661 -1.52611 0
M  V30 338 O 32.715 -0.772601 -1.5613 0
M  V30 339 C 29.847 -1.61192 -3.00383 0
M  V30 340 H 31.04 -2.60217 -1.49087 0
M  V30 341 H 28.593 -1.37444 -0.744235 0
M  V30 342 H 29.328 -0.65863 -3.17541 0
M  V30 343 H 29.113 -2.43032 -3.07698 0
M  V30 344 H 30.603 -1.7466 -3.7932 0
M  V30 345 N 31.0401 0.771051 -1.3745 0
M  V30 346 C 32.4511 1.34737 -1.29239 0
M  V30 347 C 32.8021 1.96109 0.0596908 0
M  V30 348 O 31.9271 1.93865 0.961534 0
M  V30 349 C 32.5221 2.44973 -2.34037 0
M  V30 350 C 31.0811 2.98372 -2.29458 0
M  V30 351 C 30.2281 1.71595 -2.17831 0
M  V30 352 H 33.1791 0.571256 -1.48062 0
M  V30 353 H 33.2001 3.24471 -1.98744 0
M  V30 354 H 32.7121 2.00276 -3.32432 0
M  V30 355 H 30.8131 3.47443 -1.34589 0
M  V30 356 H 30.9261 3.53939 -3.229 0
M  V30 357 H 29.2901 1.94547 -1.64388 0
M  V30 358 H 30.0731 1.29001 -3.18141 0
M  V30 359 N 32.5182 1.22032 0.997298 0
M  V30 360 C 33.7662 1.04016 1.73278 0
M  V30 361 C 34.0872 -0.426255 1.90284 0
M  V30 362 O 33.3572 -1.30694 1.45931 0
M  V30 363 H 31.9372 0.381897 0.642 0
M  V30 364 H 34.5992 1.5347 1.20137 0
M  V30 365 H 33.6952 1.51441 2.72896 0
M  V30 366 N 33.9963 -1.19345 1.0293 0
M  V30 367 C 34.9593 -2.20793 0.615069 0
M  V30 368 C 35.9593 -1.57553 -0.321533 0
M  V30 369 O 37.1493 -1.73862 -0.108483 0
M  V30 370 C 34.2813 -3.40754 -0.0999222 0
M  V30 371 H 35.4743 -2.58955 1.51269 0
M  V30 372 H 33.0273 -1.3303 0.820534 0
M  V30 373 H 33.7623 -3.0811 -1.01187 0
M  V30 374 H 33.5473 -3.87889 0.57309 0
M  V30 375 H 35.0373 -4.15898 -0.376645 0
M  V30 376 N 35.4744 -0.807222 -1.35358 0
M  V30 377 C 36.8904 -0.491038 -1.51858 0
M  V30 378 C 37.0904 0.987648 -1.75635 0
M  V30 379 O 36.1464 1.77265 -1.79815 0
M  V30 380 C 37.4594 -1.33695 -2.69344 0
M  V30 381 C 39.0074 -1.33246 -2.83222 0
M  V30 382 C 39.4824 -2.1625 -4.03733 0
M  V30 383 N 40.9734 -2.1379 -4.10911 0
M  V30 384 C 41.7084 -2.74772 -5.03277 0
M  V30 385 N 41.2044 -3.44684 -6.0097 0
M  V30 386 N 42.9974 -2.6441 -4.96028 0
M  V30 387 H 35.1484 -1.76485 -1.18181 0
M  V30 388 H 37.4114 -0.751199 -0.578276 0
M  V30 389 H 37.1174 -2.38634 -2.58354 0
M  V30 390 H 36.9914 -0.990618 -3.6396 0
M  V30 391 H 39.3784 -0.290911 -2.93663 0
M  V30 392 H 39.4594 -1.71866 -1.89461 0
M  V30 393 H 39.1034 -3.20445 -3.94052 0
M  V30 394 H 39.0334 -1.74989 -4.96675 0
M  V30 395 H 41.5244 -1.62923 -3.40976 0
M  V30 396 H 41.8374 -3.88501 -6.68047 0
M  V30 397 H 40.1824 -3.48788 -6.01142 0
M  V30 398 H 43.3734 -2.0938 -4.18662 0
M  V30 399 H 43.5464 -3.12225 -5.6782 0
M  V30 400 N 36.9525 1.47285 -0.560781 0
M  V30 401 C 37.9155 2.28535 0.174488 0
M  V30 402 C 38.9155 1.37153 0.839388 0
M  V30 403 O 40.1055 1.59748 0.694702 0
M  V30 404 C 37.2375 3.16934 1.25561 0
M  V30 405 H 38.4305 2.95012 -0.539262 0
M  V30 406 H 35.9835 1.53034 -0.317865 0
M  V30 407 H 36.7185 2.55157 2.00164 0
M  V30 408 H 36.5035 3.8419 0.783604 0
M  V30 409 H 37.9935 3.78143 1.77193 0
M  V30 410 N 38.4306 0.297415 1.54768 0
M  V30 411 C 39.3406 -0.58983 2.27064 0
M  V30 412 C 40.3566 -1.15144 1.30453 0
M  V30 413 O 41.5326 -1.17699 1.63428 0
M  V30 414 C 38.5976 -1.74714 2.9946 0
M  V30 415 C 37.6586 -1.21997 4.11601 0
M  V30 416 C 36.8916 -2.32212 4.80535 0
M  V30 417 O 37.1146 -3.52036 4.48806 0
M  V30 418 O 36.0486 -1.99106 5.68014 0
M  V30 419 H 39.8746 -0.00348199 3.037 0
M  V30 420 H 37.4596 0.0640035 1.49263 0
M  V30 421 H 39.3416 -2.42147 3.44881 0
M  V30 422 H 38.0166 -2.32016 2.25722 0
M  V30 423 H 36.9236 -0.511458 3.70587 0
M  V30 424 H 38.2566 -0.692419 4.87305 0
M  V30 425 N 39.9087 -1.5758 0.0250728 0
M  V30 426 C 40.8187 -2.1343 -0.973905 0
M  V30 427 C 41.8347 -1.08556 -1.35984 0
M  V30 428 O 43.0107 -1.40592 -1.44207 0
M  V30 429 C 40.0757 -2.64703 -2.23904 0
M  V30 430 C 39.1367 -3.84276 -1.91391 0
M  V30 431 C 38.3697 -4.33095 -3.11873 0
M  V30 432 O 38.5927 -3.81107 -4.24398 0
M  V30 433 O 37.5267 -5.24984 -2.94406 0
M  V30 434 H 41.3527 -2.99057 -0.529036 0
M  V30 435 H 38.9377 -1.48118 -0.195288 0
M  V30 436 H 40.8197 -2.97769 -2.98181 0
M  V30 437 H 39.4947 -1.82161 -2.6758 0
M  V30 438 H 38.4017 -3.56143 -1.14511 0
M  V30 439 H 39.7347 -4.67968 -1.52534 0
M  V30 440 N 41.3868 0.248026 -1.55636 0
M  V30 441 C 42.7978 0.817177 -1.67866 0
M  V30 442 C 43.1488 1.86069 -0.622322 0
M  V30 443 O 42.2738 2.15157 0.231618 0
M  V30 444 C 42.8688 1.489 -3.04326 0
M  V30 445 C 41.4278 2.00587 -3.185 0
M  V30 446 C 40.5748 0.856573 -2.63739 0
M  V30 447 H 43.5258 0.0238579 -1.58682 0
M  V30 448 H 43.5468 2.35698 -2.98708 0
M  V30 449 H 43.0588 0.729279 -3.81186 0
M  V30 450 H 41.1598 2.79443 -2.4646 0
M  V30 451 H 41.2728 2.20402 -4.25393 0
M  V30 452 H 39.6368 1.25678 -2.21534 0
M  V30 453 H 40.4198 0.109953 -3.43124 0
M  V30 454 N 42.8649 1.48995 0.513639 0
M  V30 455 C 43.8279 1.64229 1.59879 0
M  V30 456 C 44.8279 0.514696 1.5234 0
M  V30 457 O 46.0179 0.78087 1.55718 0
M  V30 458 C 43.1499 1.62783 2.99524 0
M  V30 459 H 44.3429 2.61004 1.47705 0
M  V30 460 H 41.8959 1.37837 0.736936 0
M  V30 461 H 42.6309 0.675461 3.17188 0
M  V30 462 H 42.4159 2.4466 3.06404 0
M  V30 463 H 43.9059 1.76669 3.78388 0
M  V30 464 N 44.343 -0.763751 1.37857 0
M  V30 465 C 45.306 -1.85889 1.34081 0
M  V30 466 C 46.306 -1.58949 0.243277 0
M  V30 467 O 47.496 -1.66882 0.499589 0
M  V30 468 C 44.628 -3.23176 1.08489 0
M  V30 469 H 45.821 -1.90648 2.31502 0
M  V30 470 H 43.374 -0.964367 1.23003 0
M  V30 471 H 44.109 -3.24091 0.116318 0
M  V30 472 H 43.894 -3.44124 1.8794 0
M  V30 473 H 45.384 -4.03254 1.08517 0
M  V30 474 N 45.8211 -1.22559 -0.990812 0
M  V30 475 C 47.0461 -1.07862 -1.77145 0
M  V30 476 C 47.4711 0.366447 -1.84496 0
M  V30 477 O 46.8291 1.26478 -1.29896 0
M  V30 478 C 46.8771 -1.69686 -3.18181 0
M  V30 479 O 45.9811 -0.951946 -4.01263 0
M  V30 480 H 45.3221 -0.378712 -0.545411 0
M  V30 481 H 47.8521 -1.62399 -1.2445 0
M  V30 482 H 47.8621 -1.74496 -3.68802 0
M  V30 483 H 46.5371 -2.74841 -3.12146 0
M  V30 484 H 45.1141 -0.980011 -3.59792 0
M  V30 485 N 47.2992 1.18797 -1.03562 0
M  V30 486 C 48.5462 1.8865 -0.736023 0
M  V30 487 C 48.8742 1.80041 0.735889 0
M  V30 488 O 48.1292 1.19179 1.55225 0
M  V30 489 C 48.4282 3.38692 -1.14117 0
M  V30 490 C 48.0942 3.67504 -2.6125 0
M  V30 491 C 46.7562 3.75078 -3.01447 0
M  V30 492 C 49.1082 3.80293 -3.56408 0
M  V30 493 C 46.4362 3.92915 -4.35701 0
M  V30 494 C 48.7882 3.99645 -4.90374 0
M  V30 495 C 47.4522 4.05453 -5.30249 0
M  V30 496 H 46.7222 0.690321 -0.26933 0
M  V30 497 H 49.3692 1.40641 -1.29971 0
M  V30 498 H 47.6742 3.88645 -0.496202 0
M  V30 499 H 49.3712 3.91072 -0.886789 0
M  V30 500 H 45.9612 3.62223 -2.29113 0
M  V30 501 H 50.1452 3.73779 -3.26501 0
M  V30 502 H 45.4012 3.95653 -4.66121 0
M  V30 503 H 49.5752 4.08482 -5.64017 0
M  V30 504 H 47.2022 4.19027 -6.34288 0
M  V30 505 N 48.7773 0.814389 1.34928 0
M  V30 506 C 50.0023 0.410097 2.03305 0
M  V30 507 C 50.4273 -0.973464 1.60951 0
M  V30 508 O 49.7853 -1.63185 0.789964 0
M  V30 509 C 49.8333 0.51049 3.56968 0
M  V30 510 O 48.9373 -0.473035 4.09678 0
M  V30 511 H 48.2783 0.170088 0.641846 0
M  V30 512 H 50.8083 1.10244 1.72358 0
M  V30 513 H 50.8183 0.383135 4.06197 0
M  V30 514 H 49.4933 1.51963 3.87144 0
M  V30 515 H 48.0703 -0.305272 3.71648 0
M  V30 516 N 50.2554 -1.46986 0.568584 0
M  V30 517 C 51.1874 -2.28233 -0.210337 0
M  V30 518 C 52.2004 -1.37682 -0.868767 0
M  V30 519 O 53.3894 -1.62406 -0.740705 0
M  V30 520 C 50.4894 -3.12293 -1.3163 0
M  V30 521 C 49.6624 -4.30878 -0.7525 0
M  V30 522 C 48.7214 -4.96445 -1.74439 0
M  V30 523 O 47.7474 -5.54482 -1.286 0
M  V30 524 N 48.9494 -4.92171 -3.07812 0
M  V30 525 H 51.7144 -2.95723 0.486648 0
M  V30 526 H 49.2754 -1.56742 0.405409 0
M  V30 527 H 51.2674 -3.53022 -1.97883 0
M  V30 528 H 49.8374 -2.46971 -1.91636 0
M  V30 529 H 49.0574 -3.94104 0.0871128 0
M  V30 530 H 50.3454 -5.07558 -0.35536 0
M  V30 531 H 49.7434 -4.46239 -3.47688 0
M  V30 532 H 48.3004 -5.36884 -3.69592 0
M  V30 533 N 51.7335 -0.305618 -1.54608 0
M  V30 534 C 53.1445 0.186098 -1.8577 0
M  V30 535 C 53.4955 1.53058 -1.22751 0
M  V30 536 O 52.6205 2.09888 -0.526893 0
M  V30 537 C 53.2155 0.344449 -3.37044 0
M  V30 538 C 51.7745 0.780384 -3.68221 0
M  V30 539 C 50.9215 -0.108554 -2.77087 0
M  V30 540 H 53.8725 -0.526485 -1.49712 0
M  V30 541 H 53.8935 1.17828 -3.61796 0
M  V30 542 H 53.4055 -0.634235 -3.82883 0
M  V30 543 H 51.5065 1.76945 -3.27904 0
M  V30 544 H 51.6195 0.596572 -4.75371 0
M  V30 545 H 49.9835 0.412931 -2.5133 0
M  V30 546 H 50.7665 -1.08368 -3.25747 0
M  V30 547 N 53.2116 1.57565 -0.0334293 0
M  V30 548 C 54.4596 1.91598 0.642999 0
M  V30 549 C 54.7806 0.910847 1.7242 0
M  V30 550 O 54.0506 -0.0469931 1.95844 0
M  V30 551 H 52.6306 0.707228 0.240496 0
M  V30 552 H 55.2926 1.94726 -0.0822488 0
M  V30 553 H 54.3886 2.92336 1.09298 0
M  V30 554 N 54.6897 -0.239769 1.55765 0
M  V30 555 C 55.9147 -0.988373 1.82335 0
M  V30 556 C 56.3397 -1.77886 0.611421 0
M  V30 557 O 55.6977 -1.75889 -0.439639 0
M  V30 558 C 55.7457 -1.89627 3.06715 0
M  V30 559 O 54.8497 -2.98904 2.84131 0
M  V30 560 H 54.1907 -0.280858 0.601677 0
M  V30 561 H 56.7207 -0.258597 2.02959 0
M  V30 562 H 56.7307 -2.30957 3.36338 0
M  V30 563 H 55.4057 -1.31511 3.9456 0
M  V30 564 H 53.9827 -2.61651 2.65694 0
M  V30 565 N 56.1678 -1.49265 -0.50573 0
M  V30 566 C 57.1008 -1.60183 -1.62532 0
M  V30 567 C 58.0788 -0.451107 -1.56217 0
M  V30 568 O 59.2628 -0.666016 -1.76342 0
M  V30 569 C 56.3898 -1.55238 -3.01029 0
M  V30 570 C 55.4358 -2.7545 -3.25621 0
M  V30 571 S 56.2688 -4.37174 -3.09256 0
M  V30 572 C 57.4248 -4.34866 -4.50158 0
M  V30 573 H 57.6578 -2.54894 -1.53025 0
M  V30 574 H 55.1908 -1.38098 -0.690535 0
M  V30 575 H 57.1488 -1.53071 -3.80893 0
M  V30 576 H 55.8098 -0.618238 -3.07956 0
M  V30 577 H 55.0028 -2.68197 -4.26716 0
M  V30 578 H 54.6048 -2.75005 -2.53472 0
M  V30 579 H 56.8968 -4.06295 -5.42154 0
M  V30 580 H 57.8398 -5.36223 -4.62462 0
M  V30 581 H 58.2478 -3.65007 -4.30616 0
M  V30 582 N 57.6459 0.756429 -1.3826 0
M  V30 583 C 58.8939 1.51248 -1.34047 0
M  V30 584 C 59.2149 1.94875 0.0698372 0
M  V30 585 O 58.4849 1.67436 1.01696 0
M  V30 586 H 57.0649 0.561018 -0.493222 0
M  V30 587 H 59.7269 0.899347 -1.7291 0
M  V30 588 H 58.8229 2.40472 -1.98947 0
M  V30 589 N 59.124 1.23083 0.984299 0
M  V30 590 C 60.054 1.03292 2.09411 0
M  V30 591 C 61.035 -0.048923 1.7003 0
M  V30 592 O 62.22 0.114967 1.93859 0
M  V30 593 C 59.35 0.619155 3.41736 0
M  V30 594 C 58.304 1.64791 3.95004 0
M  V30 595 C 57.63 1.0897 5.23478 0
M  V30 596 C 58.93 3.03999 4.24714 0
M  V30 597 H 60.624 1.96119 2.26225 0
M  V30 598 H 58.17 0.944344 1.08711 0
M  V30 599 H 60.123 0.467777 4.18796 0
M  V30 600 H 58.847 -0.344786 3.24775 0
M  V30 601 H 57.506 1.78721 3.20085 0
M  V30 602 H 57.154 0.11686 5.02864 0
M  V30 603 H 56.854 1.77704 5.60085 0
M  V30 604 H 58.378 0.950093 6.03163 0
M  V30 605 H 59.792 2.93393 4.92538 0
M  V30 606 H 58.189 3.69936 4.72512 0
M  V30 607 H 59.259 3.53285 3.32142 0
M  V30 608 N 60.6021 -1.18246 1.0419 0
M  V30 609 C 61.8791 -1.84121 0.660208 0
M  V30 610 C 62.2591 -1.92778 -0.860221 0
M  V30 611 O 61.6071 -1.45464 -1.76217 0
M  V30 612 C 61.8171 -3.22355 1.33747 0
M  V30 613 C 63.1651 -3.98376 1.46906 0
M  V30 614 O 64.1891 -3.31799 1.29568 0
M  V30 615 O 63.0481 -5.17665 1.75171 0
M  V30 616 H 60.1421 -0.794036 0.231161 0
M  V30 617 H 62.6881 -1.25628 1.14087 0
M  V30 618 H 61.4601 -3.10964 2.37522 0
M  V30 619 H 61.0831 -3.88506 0.845515 0
M  V30 620 N 62.0802 -0.821533 -1.34494 0
M  V30 621 C 63.0272 -0.240397 -2.29545 0
M  V30 622 C 63.9972 0.634031 -1.53523 0
M  V30 623 O 65.1822 0.575966 -1.81899 0
M  V30 624 C 62.3222 0.592869 -3.39969 0
M  V30 625 C 61.4352 -0.30365 -4.30932 0
M  V30 626 C 60.5702 0.539049 -5.28458 0
M  V30 627 C 59.6092 -0.356942 -6.11058 0
M  V30 628 N 58.7462 0.446603 -7.00678 0
M  V30 629 H 63.5862 -1.05632 -2.7865 0
M  V30 630 H 61.1232 -0.532413 -1.37127 0
M  V30 631 H 63.0812 1.09129 -4.02675 0
M  V30 632 H 61.7112 1.37392 -2.92102 0
M  V30 633 H 60.7632 -0.920276 -3.691 0
M  V30 634 H 62.0752 -0.992661 -4.88823 0
M  V30 635 H 61.2292 1.102 -5.96608 0
M  V30 636 H 59.9682 1.26157 -4.71101 0
M  V30 637 H 58.9732 -0.932047 -5.41842 0
M  V30 638 H 60.1982 -1.07755 -6.70497 0
M  V30 639 H 58.1442 1.15282 -6.45791 0
M  V30 640 H 58.0612 -0.184048 -7.55776 0
M  V30 641 H 59.3292 0.992352 -7.73158 0
M  V30 642 N 63.5583 1.46682 -0.576371 0
M  V30 643 C 64.5063 2.31953 0.17335 0
M  V30 644 C 65.5003 1.44098 0.89062 0
M  V30 645 O 66.7063 1.60759 0.809728 0
M  V30 646 H 63.0813 0.748273 0.0747727 0
M  V30 647 H 65.0523 2.93007 -0.564738 0
M  V30 648 C 63.8013 3.27142 1.17786 0
M  V30 649 H 63.1243 3.94719 0.635361 0
M  V30 650 H 64.5643 3.896 1.67296 0
M  V30 651 C 63.0233 2.52036 2.23561 0
M  V30 652 O 63.5533 2.27877 3.3081 0
M  V30 653 N 61.7593 2.12709 1.97998 0
M  V30 654 H 61.3063 2.32557 1.10792 0
M  V30 655 H 61.2643 1.62776 2.68982 0
M  V30 656 N 65.0364 0.313813 1.54444 0
M  V30 657 C 66.2644 -0.293918 2.04802 0
M  V30 658 C 66.6794 -1.46537 1.19047 0
M  V30 659 O 66.0364 -1.81182 0.218939 0
M  V30 660 C 66.0874 -0.737806 3.53891 0
M  V30 661 O 65.8084 0.387038 4.36387 0
M  V30 662 C 67.3094 -1.40936 4.203 0
M  V30 663 H 64.5294 -0.0620057 0.668129 0
M  V30 664 H 67.0734 0.457169 1.99324 0
M  V30 665 H 65.2284 -1.43889 3.59687 0
M  V30 666 H 65.6424 0.0391274 5.24485 0
M  V30 667 H 67.1164 -1.67099 5.26101 0
M  V30 668 H 67.5934 -2.35355 3.70816 0
M  V30 669 H 68.1994 -0.751117 4.18615 0
M  V30 670 N 66.5145 -1.57545 0.0417849 0
M  V30 671 C 67.7605 -1.92601 -0.635021 0
M  V30 672 C 68.0935 -0.919627 -1.71045 0
M  V30 673 O 67.3685 0.0557892 -1.9442 0
M  V30 674 C 67.6515 -3.38085 -1.23979 0
M  V30 675 C 67.5045 -4.49467 -0.173057 0
M  V30 676 C 68.8235 -3.83776 -2.15416 0
M  V30 677 H 65.9425 -0.700397 -0.229374 0
M  V30 678 H 68.5845 -1.89728 0.101633 0
M  V30 679 H 66.7345 -3.40664 -1.86762 0
M  V30 680 H 68.4065 -4.59018 0.458312 0
M  V30 681 H 66.6495 -4.30909 0.499996 0
M  V30 682 H 67.3205 -5.48323 -0.636054 0
M  V30 683 H 69.7965 -3.83013 -1.62605 0
M  V30 684 H 68.6725 -4.8624 -2.54679 0
M  V30 685 H 68.9335 -3.19998 -3.05047 0
M  V30 686 N 67.9926 0.231505 -1.5589 0
M  V30 687 C 68.9426 1.29007 -1.87993 0
M  V30 688 C 69.9266 1.42764 -0.742102 0
M  V30 689 O 71.1186 1.45747 -1.00433 0
M  V30 690 C 68.2476 2.6425 -2.1915 0
M  V30 691 C 67.3336 2.54435 -3.39299 0
M  V30 692 N 67.7246 2.14262 -4.58176 0
M  V30 693 C 66.0226 2.85416 -3.42715 0
M  V30 694 C 66.7236 2.15455 -5.40328 0
M  V30 695 N 65.6996 2.55558 -4.79783 0
M  V30 696 H 69.5016 0.970213 -2.77424 0
M  V30 697 H 67.0156 0.440097 -1.56323 0
M  V30 698 H 69.0126 3.40665 -2.40319 0
M  V30 699 H 67.6726 2.9709 -1.31025 0
M  V30 700 H 68.6836 1.85554 -4.83518 0
M  V30 701 H 65.3606 3.22693 -2.64906 0
M  V30 702 H 66.7506 1.86605 -6.45467 0
M  V30 703 N 69.4707 1.49531 0.497807 0
M  V30 704 C 70.7477 1.49682 1.25915 0
M  V30 705 C 71.1277 0.226339 2.09883 0
M  V30 706 O 70.4757 -0.791189 2.14365 0
M  V30 707 C 70.6857 2.77755 2.11313 0
M  V30 708 C 72.0337 3.27371 2.70395 0
M  V30 709 O 73.0577 2.78894 2.21578 0
M  V30 710 O 71.9167 4.11808 3.59272 0
M  V30 711 H 69.0107 0.599228 0.56996 0
M  V30 712 H 71.5567 1.61798 0.511816 0
M  V30 713 H 70.3287 3.61713 1.49264 0
M  V30 714 H 69.9517 2.68515 2.93233 0
M  V30 715 N 70.9488 -0.749086 1.3866 0
M  V30 716 C 71.8808 -1.87273 1.32142 0
M  V30 717 C 72.8938 -1.61127 0.232787 0
M  V30 718 O 74.0828 -1.71623 0.49069 0
M  V30 719 C 71.1828 -3.23005 1.02571 0
M  V30 720 C 70.3558 -3.7662 2.22433 0
M  V30 721 C 69.4148 -4.90879 1.89537 0
M  V30 722 O 68.4408 -5.05276 2.62078 0
M  V30 723 N 69.6428 -5.74198 0.853031 0
M  V30 724 H 72.4078 -1.93373 2.28969 0
M  V30 725 H 69.9688 -0.929216 1.32579 0
M  V30 726 H 71.9608 -3.96992 0.786085 0
M  V30 727 H 70.5308 -3.12262 0.145249 0
M  V30 728 H 69.7508 -2.94147 2.62434 0
M  V30 729 H 71.0388 -4.09173 3.02415 0
M  V30 730 H 70.4368 -5.6514 0.25155 0
M  V30 731 H 68.9938 -6.48313 0.67329 0
M  V30 732 N 72.4269 -1.23603 -0.977757 0
M  V30 733 C 73.3369 -1.03632 -2.1047 0
M  V30 734 C 74.3529 0.0199435 -1.73989 0
M  V30 735 O 75.5289 -0.176076 -2.00629 0
M  V30 736 C 72.5939 -0.63276 -3.40877 0
M  V30 737 C 71.6549 -1.76437 -3.91367 0
M  V30 738 C 70.8879 -1.37997 -5.15551 0
M  V30 739 O 71.1109 -0.265357 -5.69782 0
M  V30 740 O 70.0449 -2.20201 -5.60174 0
M  V30 741 H 73.8709 -1.98086 -2.30208 0
M  V30 742 H 71.4559 -1.02332 -1.08851 0
M  V30 743 H 73.3379 -0.418761 -4.19314 0
M  V30 744 H 72.0129 0.282754 -3.22463 0
M  V30 745 H 70.9199 -2.03304 -3.14036 0
M  V30 746 H 72.2529 -2.6583 -4.14241 0
M  V30 747 N 73.905 1.17692 -1.04816 0
M  V30 748 C 74.855 2.1952 -0.616042 0
M  V30 749 C 75.839 1.57147 0.345485 0
M  V30 750 O 77.031 1.76245 0.163325 0
M  V30 751 C 74.16 3.43298 0.0116917 0
M  V30 752 C 73.246 4.12777 -0.973435 0
M  V30 753 N 73.637 4.5814 -2.14339 0
M  V30 754 C 71.935 4.38747 -0.80108 0
M  V30 755 C 72.636 5.11713 -2.7663 0
M  V30 756 N 71.612 5.03686 -2.04453 0
M  V30 757 H 75.414 2.52293 -1.5075 0
M  V30 758 H 72.928 1.3398 -0.917776 0
M  V30 759 H 74.925 4.15519 0.339006 0
M  V30 760 H 73.585 3.12018 0.898593 0
M  V30 761 H 74.596 4.52349 -2.52191 0
M  V30 762 H 71.273 4.17485 0.0350934 0
M  V30 763 H 72.663 5.56962 -3.75823 0
M  V30 764 N 75.3831 0.828654 1.34056 0
M  V30 765 C 76.6321 0.415828 1.97367 0
M  V30 766 C 76.9451 -1.02796 1.6641 0
M  V30 767 O 78.1511 -1.54497 2.23255 0
M  V30 768 C 76.6071 0.692601 3.53173 0
M  V30 769 C 76.2151 2.15038 3.93017 0
M  V30 770 C 77.9591 0.346222 4.23086 0
M  V30 771 C 75.8661 2.37174 5.41758 0
M  V30 772 H 74.7961 0.151755 0.738571 0
M  V30 773 H 77.4471 1.01581 1.52819 0
M  V30 774 H 75.8291 0.0223764 3.95994 0
M  V30 775 H 77.0031 2.86024 3.61285 0
M  V30 776 H 75.3181 2.45875 3.36057 0
M  V30 777 H 77.9151 0.48937 5.32456 0
M  V30 778 H 78.2581 -0.709842 4.10204 0
M  V30 779 H 78.7911 0.971258 3.85761 0
M  V30 780 H 75.5301 3.41308 5.59633 0
M  V30 781 H 75.0501 1.70738 5.74986 0
M  V30 782 H 76.7291 2.19818 6.08514 0
M  V30 783 N 76.8612 -1.46375 0.584142 0
M  V30 784 C 77.7942 -2.27351 -0.196676 0
M  V30 785 C 78.7722 -1.35715 -0.895561 0
M  V30 786 O 79.9562 -1.65126 -0.90916 0
M  V30 787 C 77.0832 -3.13486 -1.28235 0
M  V30 788 C 76.1292 -4.20896 -0.689145 0
M  V30 789 S 76.9622 -5.33299 0.48507 0
M  V30 790 C 78.1182 -6.23 -0.601767 0
M  V30 791 H 78.3512 -2.93228 0.490395 0
M  V30 792 H 75.8842 -1.49875 0.371071 0
M  V30 793 H 77.8422 -3.63676 -1.90395 0
M  V30 794 H 76.5032 -2.4692 -1.94138 0
M  V30 795 H 75.6962 -4.80997 -1.50527 0
M  V30 796 H 75.2982 -3.73726 -0.143181 0
M  V30 797 H 77.5902 -6.60979 -1.48705 0
M  V30 798 H 78.5332 -7.0809 -0.0374799 0
M  V30 799 H 78.9412 -5.57173 -0.906557 0
M  V30 800 N 78.3393 -0.321999 -1.54275 0
M  V30 801 C 79.2493 0.553631 -2.27974 0
M  V30 802 C 80.2653 1.13054 -1.32268 0
M  V30 803 O 81.4413 1.15084 -1.6528 0
M  V30 804 C 78.5063 1.69927 -3.02201 0
M  V30 805 C 77.5673 1.15433 -4.1349 0
M  V30 806 C 76.8003 2.24537 -4.84168 0
M  V30 807 O 77.0233 3.44852 -4.5435 0
M  V30 808 O 75.9573 1.90044 -5.7111 0
M  V30 809 H 79.7833 -0.0448345 -3.03667 0
M  V30 810 H 77.3683 -0.0877418 -1.49142 0
M  V30 811 H 79.2503 2.3663 -3.48689 0
M  V30 812 H 77.9253 2.28395 -2.29385 0
M  V30 813 H 76.8323 0.452436 -3.71354 0
M  V30 814 H 78.1653 0.614805 -4.88345 0
M  V30 815 N 79.8174 1.5752 -0.0501392 0
M  V30 816 C 80.7674 2.07981 0.934231 0
M  V30 817 C 81.7514 0.984745 1.27246 0
M  V30 818 O 82.9434 1.24809 1.25506 0
M  V30 819 C 80.0724 2.62751 2.20945 0
M  V30 820 C 79.1584 3.79225 1.89865 0
M  V30 821 N 79.5494 4.89036 1.29142 0
M  V30 822 C 77.8474 3.88111 2.19741 0
M  V30 823 C 78.5484 5.70084 1.15669 0
M  V30 824 N 77.5244 5.17659 1.65923 0
M  V30 825 H 81.3264 2.90277 0.460053 0
M  V30 826 H 78.8404 1.61665 0.15434 0
M  V30 827 H 80.8374 2.97205 2.9236 0
M  V30 828 H 79.4974 1.81894 2.6897 0
M  V30 829 H 80.5084 5.08854 0.963756 0
M  V30 830 H 77.1854 3.18194 2.70293 0
M  V30 831 H 78.5754 6.68395 0.685356 0
M  V30 832 N 81.2955 -0.223234 1.56011 0
M  V30 833 C 82.2255 -1.27988 1.95298 0
M  V30 834 C 83.2065 -1.48976 0.820979 0
M  V30 835 O 84.3915 -1.61188 1.08315 0
M  V30 836 C 81.5215 -2.63 2.26822 0
M  V30 837 C 80.4755 -2.56671 3.42497 0
M  V30 838 C 79.8015 -3.95697 3.59622 0
M  V30 839 C 81.1015 -2.11601 4.77517 0
M  V30 840 H 82.7955 -0.953525 2.8381 0
M  V30 841 H 80.3415 -0.457244 1.36548 0
M  V30 842 H 82.2945 -3.37077 2.52898 0
M  V30 843 H 81.0185 -2.9732 1.35161 0
M  V30 844 H 79.6775 -1.85051 3.16467 0
M  V30 845 H 79.3255 -4.27322 2.6534 0
M  V30 846 H 79.0255 -3.92345 4.37424 0
M  V30 847 H 80.5495 -4.71438 3.88044 0
M  V30 848 H 81.9635 -2.7542 5.02809 0
M  V30 849 H 80.3605 -2.19311 5.5859 0
M  V30 850 H 81.4305 -1.06824 4.72987 0
M  V30 851 N 82.7736 -1.49793 -0.48987 0
M  V30 852 C 83.6836 -1.70036 -1.61632 0
M  V30 853 C 84.6996 -0.583102 -1.63939 0
M  V30 854 O 85.8756 -0.859169 -1.82154 0
M  V30 855 C 82.9406 -1.77277 -2.97949 0
M  V30 856 C 82.0016 -3.00918 -3.06181 0
M  V30 857 C 81.2346 -3.07804 -4.35996 0
M  V30 858 O 81.4576 -2.21982 -5.25433 0
M  V30 859 O 80.3916 -4.00369 -4.49431 0
M  V30 860 H 84.2176 -2.65486 -1.47482 0
M  V30 861 H 81.8026 -1.33666 -0.667362 0
M  V30 862 H 83.6846 -1.84329 -3.78947 0
M  V30 863 H 82.3596 -0.850076 -3.12339 0
M  V30 864 H 81.2666 -2.99377 -2.2433 0
M  V30 865 H 82.5996 -3.92704 -2.96723 0
M  V30 866 N 84.2517 0.741722 -1.39055 0
M  V30 867 C 85.4997 1.49818 -1.35643 0
M  V30 868 C 85.8207 1.94938 0.0491642 0
M  V30 869 O 85.0907 1.68505 0.999141 0
M  V30 870 H 83.6707 0.555755 -0.499144 0
M  V30 871 H 86.3327 0.880957 -1.73854 0
M  V30 872 H 85.4287 2.38348 -2.01486 0
M  V30 873 N 85.7298 1.2412 0.971189 0
M  V30 874 C 86.9758 1.08041 1.71625 0
M  V30 875 C 87.3088 -0.380407 1.90438 0
M  V30 876 O 86.5838 -1.28127 1.46334 0
M  V30 877 C 86.8668 1.81682 3.10908 0
M  V30 878 C 86.7198 3.35493 2.99608 0
M  V30 879 C 88.0388 1.58671 4.10501 0
M  V30 880 H 85.1578 0.39388 0.622919 0
M  V30 881 H 87.7998 1.52743 1.13003 0
M  V30 882 H 85.9498 1.43684 3.60953 0
M  V30 883 H 87.6218 3.83068 2.57015 0
M  V30 884 H 85.8648 3.64052 2.35899 0
M  V30 885 H 86.5358 3.82217 3.98264 0
M  V30 886 H 89.0118 1.91719 3.69301 0
M  V30 887 H 87.8878 2.1266 5.06031 0
M  V30 888 H 88.1488 0.524161 4.38982 0
M  V30 889 N 87.2079 -1.17134 1.05439 0
M  V30 890 C 88.4569 -1.86791 0.761049 0
M  V30 891 C 88.7699 -1.82072 -0.714795 0
M  V30 892 O 89.9759 -2.47223 -1.12218 0
M  V30 893 C 88.4319 -3.35166 1.31117 0
M  V30 894 C 88.0399 -3.48381 2.81664 0
M  V30 895 C 89.7839 -4.10134 1.09499 0
M  V30 896 C 87.6909 -4.90793 3.29964 0
M  V30 897 H 86.6209 -0.699681 0.281002 0
M  V30 898 H 89.2719 -1.3226 1.27199 0
M  V30 899 H 87.6539 -3.8925 0.72803 0
M  V30 900 H 88.8279 -3.04502 3.45855 0
M  V30 901 H 87.1429 -2.86836 3.01851 0
M  V30 902 H 89.7399 -5.152 1.43084 0
M  V30 903 H 90.0829 -4.16287 0.0328772 0
M  V30 904 H 90.6159 -3.62264 1.64346 0
M  V30 905 H 87.3549 -4.89816 4.35616 0
M  V30 906 H 86.8749 -5.35333 2.70516 0
M  V30 907 H 88.5539 -5.59573 3.24787 0
M  V30 908 N 88.686 -0.835752 -1.33615 0
M  V30 909 C 89.634 -0.255238 -2.31195 0
M  V30 910 C 90.628 0.61107 -1.57995 0
M  V30 911 O 91.834 0.500979 -1.72888 0
M  V30 912 H 88.209 -0.0638085 -0.749288 0
M  V30 913 H 90.18 -1.09283 -2.77669 0
M  V30 914 C 88.929 0.55754 -3.43201 0
M  V30 915 H 88.252 -0.0997553 -3.99676 0
M  V30 916 H 89.692 0.929622 -4.13683 0
M  V30 917 C 88.151 1.73515 -2.88781 0
M  V30 918 O 88.681 2.83376 -2.84712 0
M  V30 919 N 86.887 1.55603 -2.4543 0
M  V30 920 H 86.434 0.662354 -2.48939 0
M  V30 921 H 86.392 2.34545 -2.09371 0
M  V30 922 N 90.1641 1.46063 -0.591896 0
M  V30 923 C 91.1111 2.30399 0.136069 0
M  V30 924 C 92.0811 1.41169 0.875238 0
M  V30 925 O 93.2661 1.70112 0.86409 0
M  V30 926 C 90.4061 3.25804 1.13781 0
M  V30 927 C 89.5191 4.30134 0.401137 0
M  V30 928 C 88.6541 5.12659 1.39121 0
M  V30 929 C 87.6931 6.0873 0.641462 0
M  V30 930 N 86.8301 6.8409 1.58004 0
M  V30 931 H 91.6701 2.92118 -0.589144 0
M  V30 932 H 89.2071 1.43959 -0.302342 0
M  V30 933 H 91.1651 3.79569 1.73156 0
M  V30 934 H 89.7951 2.65872 1.83062 0
M  V30 935 H 88.8471 3.79152 -0.307826 0
M  V30 936 H 90.1591 4.98458 -0.184565 0
M  V30 937 H 89.3131 5.70747 2.05749 0
M  V30 938 H 88.0521 4.44316 2.01084 0
M  V30 939 H 87.0571 5.49786 -0.0385419 0
M  V30 940 H 88.2821 6.79095 0.0270945 0
M  V30 941 H 86.2281 6.18449 2.18761 0
M  V30 942 H 86.1451 7.48709 1.04738 0
M  V30 943 H 87.4131 7.4673 2.23639 0
M  V30 944 N 91.6422 0.330177 1.54103 0
M  V30 945 C 93.0532 -0.15652 1.86043 0
M  V30 946 C 93.4042 -1.51086 1.2517 0
M  V30 947 O 92.5292 -2.09023 0.560217 0
M  V30 948 C 93.1242 -0.290784 3.3755 0
M  V30 949 C 91.6832 -0.721705 3.69416 0
M  V30 950 C 90.8302 0.152622 2.7688 0
M  V30 951 H 93.7812 0.550237 1.48856 0
M  V30 952 H 93.8022 -1.12058 3.63625 0
M  V30 953 H 93.3142 0.695068 3.81825 0
M  V30 954 H 91.4152 -1.71706 3.30678 0
M  V30 955 H 91.5282 -0.520869 4.7626 0
M  V30 956 H 89.8922 -0.372894 2.51956 0
M  V30 957 H 90.6752 1.13536 3.23982 0
M  V30 958 N 93.1203 -1.57491 0.0584922 0
M  V30 959 C 94.0303 -2.15448 -0.928414 0
M  V30 960 C 95.0463 -1.11416 -1.3365 0
M  V30 961 O 96.2223 -1.4362 -1.41193 0
M  V30 962 C 93.2873 -2.69393 -2.18239 0
M  V30 963 C 92.3483 -3.88249 -1.83196 0
M  V30 964 C 91.5813 -4.39613 -3.02616 0
M  V30 965 O 91.8043 -3.90023 -4.16219 0
M  V30 966 O 90.7383 -5.31111 -2.83204 0
M  V30 967 H 94.5643 -3.00112 -0.465483 0
M  V30 968 H 92.1493 -1.48499 -0.163826 0
M  V30 969 H 94.0313 -3.04026 -2.91798 0
M  V30 970 H 92.7063 -1.87796 -2.63656 0
M  V30 971 H 91.6133 -3.58492 -1.06931 0
M  V30 972 H 92.9463 -4.71098 -1.42573 0
M  V30 973 N 94.5984 0.214957 -1.56127 0
M  V30 974 C 95.5614 1.24997 -1.92116 0
M  V30 975 C 96.5614 1.39467 -0.800344 0
M  V30 976 O 97.7514 1.37619 -1.06802 0
M  V30 977 C 94.8834 2.62271 -2.17777 0
M  V30 978 H 96.0764 0.942875 -2.84693 0
M  V30 979 H 93.6294 0.455654 -1.49511 0
M  V30 980 H 94.3644 2.98068 -1.27773 0
M  V30 981 H 94.1494 2.53143 -2.99434 0
M  V30 982 H 95.6394 3.36946 -2.46693 0
M  V30 983 N 96.0765 1.50051 0.48192 0
M  V30 984 C 96.9865 1.7089 1.60728 0
M  V30 985 C 98.0025 0.591788 1.63627 0
M  V30 986 O 99.1785 0.868817 1.81696 0
M  V30 987 C 96.2435 1.78855 2.97005 0
M  V30 988 C 95.3045 3.02537 3.04581 0
M  V30 989 C 94.5375 3.10112 4.34357 0
M  V30 990 O 94.7605 2.24765 5.24249 0
M  V30 991 O 93.6945 4.02747 4.47301 0
M  V30 992 H 97.5205 2.66264 1.46072 0
M  V30 993 H 95.1055 1.34018 0.660264 0
M  V30 994 H 96.9875 1.86336 3.77964 0
M  V30 995 H 95.6625 0.866628 3.11883 0
M  V30 996 H 94.5695 3.00563 2.22739 0
M  V30 997 H 95.9025 3.94272 2.94636 0
M  V30 998 N 97.5546 -0.734337 1.39446 0
M  V30 999 C 98.4876 -1.85715 1.32609 0
M  V30 1000 C 99.4656 -1.6137 0.199636 0
M  V30 1001 O 100.65 -1.84626 0.380195 0
M  V30 1002 C 97.7766 -3.21709 1.05929 0
M  V30 1003 C 96.8226 -3.64913 2.20773 0
M  V30 1004 S 97.6556 -3.74203 3.83056 0
M  V30 1005 C 98.8116 -5.12986 3.58603 0
M  V30 1006 H 99.0446 -1.91232 2.27635 0
M  V30 1007 H 96.5776 -0.899263 1.25509 0
M  V30 1008 H 98.5356 -4.00236 0.912203 0
M  V30 1009 H 97.1966 -3.13848 0.125883 0
M  V30 1010 H 96.3896 -4.63606 1.97699 0
M  V30 1011 H 95.9916 -2.93593 2.31688 0
M  V30 1012 H 98.2836 -5.99339 3.15909 0
M  V30 1013 H 99.2266 -5.41088 4.5676 0
M  V30 1014 H 99.6346 -4.82694 2.9269 0
M  V30 1015 N 99.0327 -1.24633 -0.964593 0
M  V30 1016 C 100.258 -1.11596 -1.74818 0
M  V30 1017 C 100.683 0.32723 -1.85232 0
M  V30 1018 O 100.041 1.23695 -1.32549 0
M  V30 1019 C 100.089 -1.76397 -3.1451 0
M  V30 1020 O 99.1927 -1.03685 -3.99153 0
M  V30 1021 H 98.5337 -0.390196 -0.537255 0
M  V30 1022 H 101.064 -1.65002 -1.20977 0
M  V30 1023 H 101.074 -1.8228 -3.65018 0
M  V30 1024 H 99.7487 -2.81401 -3.06246 0
M  V30 1025 H 98.3257 -1.05611 -3.57632 0
M  V30 1026 N 100.511 1.16574 -1.06058 0
M  V30 1027 C 101.922 1.68662 -0.800632 0
M  V30 1028 C 102.273 1.84184 0.67608 0
M  V30 1029 O 101.398 1.53568 1.52466 0
M  V30 1030 C 101.993 3.06356 -1.44676 0
M  V30 1031 C 100.552 3.55575 -1.23465 0
M  V30 1032 C 99.6988 2.31616 -1.52477 0
M  V30 1033 H 102.65 1.00969 -1.22438 0
M  V30 1034 H 102.671 3.70636 -0.860788 0
M  V30 1035 H 102.183 2.95027 -2.52152 0
M  V30 1036 H 100.284 3.72167 -0.179527 0
M  V30 1037 H 100.397 4.37812 -1.94571 0
M  V30 1038 H 98.7608 2.36512 -0.945209 0
M  V30 1039 H 99.5438 2.22887 -2.61106 0
M  V30 1040 N 101.989 0.842826 1.3317 0
M  V30 1041 C 102.921 0.236245 2.27979 0
M  V30 1042 C 103.934 -0.585282 1.51915 0
M  V30 1043 O 105.123 -0.411705 1.73687 0
M  V30 1044 C 102.223 -0.685717 3.3189 0
M  V30 1045 C 101.396 0.0973448 4.37292 0
M  V30 1046 C 100.455 -0.748565 5.20848 0
M  V30 1047 O 99.4809 -0.186339 5.68895 0
M  V30 1048 N 100.683 -2.06527 5.42519 0
M  V30 1049 H 103.448 1.05088 2.80672 0
M  V30 1050 H 101.009 0.701667 1.45905 0
M  V30 1051 H 103.001 -1.25669 3.84694 0
M  V30 1052 H 101.571 -1.40105 2.79445 0
M  V30 1053 H 100.791 0.849706 3.84933 0
M  V30 1054 H 102.079 0.635643 5.04814 0
M  V30 1055 H 101.477 -2.54554 5.05192 0
M  V30 1056 H 100.034 -2.58464 5.98364 0
M  V30 1057 N 103.467 -1.45747 0.599634 0
M  V30 1058 C 104.377 -2.34262 -0.125888 0
M  V30 1059 C 105.393 -1.50768 -0.868625 0
M  V30 1060 O 106.569 -1.83592 -0.828003 0
M  V30 1061 C 103.634 -3.28252 -1.11587 0
M  V30 1062 C 102.695 -4.27651 -0.375956 0
M  V30 1063 C 101.928 -5.1715 -1.31877 0
M  V30 1064 O 102.151 -5.09916 -2.55621 0
M  V30 1065 O 101.085 -5.96286 -0.820157 0
M  V30 1066 H 104.911 -2.97688 0.601315 0
M  V30 1067 H 102.496 -1.44999 0.359934 0
M  V30 1068 H 104.378 -3.86191 -1.68626 0
M  V30 1069 H 103.053 -2.67401 -1.82424 0
M  V30 1070 H 101.96 -3.7335 0.236698 0
M  V30 1071 H 103.293 -4.91334 0.29177 0
M  V30 1072 N 104.945 -0.338344 -1.53925 0
M  V30 1073 C 105.875 0.51328 -2.27789 0
M  V30 1074 C 106.856 1.107 -1.29149 0
M  V30 1075 O 108.041 1.12937 -1.57984 0
M  V30 1076 C 105.171 1.66697 -3.04679 0
M  V30 1077 C 104.125 1.20183 -4.1078 0
M  V30 1078 C 103.451 2.44363 -4.75595 0
M  V30 1079 C 104.751 0.30605 -5.21403 0
M  V30 1080 H 106.445 -0.102883 -2.99223 0
M  V30 1081 H 103.991 -0.0509219 -1.4391 0
M  V30 1082 H 105.944 2.26915 -3.55088 0
M  V30 1083 H 104.668 2.30995 -2.30887 0
M  V30 1084 H 103.327 0.622499 -3.61276 0
M  V30 1085 H 102.975 3.07057 -3.98403 0
M  V30 1086 H 102.675 2.13925 -5.47275 0
M  V30 1087 H 104.199 3.05317 -5.28786 0
M  V30 1088 H 105.613 0.814929 -5.67478 0
M  V30 1089 H 104.01 0.0937929 -6.00027 0
M  V30 1090 H 105.08 -0.65921 -4.80398 0
M  V30 1091 N 106.423 1.57458 -0.0668435 0
M  V30 1092 C 107.355 2.09413 0.931601 0
M  V30 1093 C 108.368 1.02522 1.26464 0
M  V30 1094 O 109.557 1.30049 1.22269 0
M  V30 1095 C 106.657 2.53537 2.24882 0
M  V30 1096 C 105.83 3.83944 2.09537 0
M  V30 1097 C 104.889 4.14214 3.2452 0
M  V30 1098 O 103.915 4.83891 2.9973 0
M  V30 1099 N 105.117 3.67367 4.49469 0
M  V30 1100 H 107.882 2.95699 0.488048 0
M  V30 1101 H 105.443 1.61462 0.119009 0
M  V30 1102 H 107.435 2.70853 3.00701 0
M  V30 1103 H 106.005 1.72415 2.60753 0
M  V30 1104 H 105.225 3.76057 1.18215 0
M  V30 1105 H 106.513 4.69312 1.96529 0
M  V30 1106 H 105.911 3.11068 4.72497 0
M  V30 1107 H 104.468 3.89891 5.2233 0
M  V30 1108 N 107.901 -0.206675 1.56239 0
M  V30 1109 C 108.831 -1.25909 1.96645 0
M  V30 1110 C 109.812 -1.48097 0.836734 0
M  V30 1111 O 110.997 -1.6003 1.10019 0
M  V30 1112 C 108.127 -2.6058 2.29599 0
M  V30 1113 C 107.081 -2.53024 3.452 0
M  V30 1114 C 106.407 -3.91861 3.63798 0
M  V30 1115 C 107.707 -2.06524 4.79734 0
M  V30 1116 H 109.401 -0.923369 2.84806 0
M  V30 1117 H 106.947 -0.442735 1.37025 0
M  V30 1118 H 108.9 -3.34375 2.56459 0
M  V30 1119 H 107.624 -2.95869 1.38307 0
M  V30 1120 H 106.283 -1.81684 3.18412 0
M  V30 1121 H 105.931 -4.24483 2.69857 0
M  V30 1122 H 105.631 -3.87683 4.4156 0
M  V30 1123 H 107.155 -4.67296 3.93022 0
M  V30 1124 H 108.569 -2.70072 5.05702 0
M  V30 1125 H 106.966 -2.13374 5.60885 0
M  V30 1126 H 108.036 -1.01802 4.74093 0
M  V30 1127 N 109.379 -1.50304 -0.473955 0
M  V30 1128 C 110.329 -1.65347 -1.56985 0
M  V30 1129 C 111.313 -0.508176 -1.52664 0
M  V30 1130 O 112.505 -0.762446 -1.59737 0
M  V30 1131 C 109.634 -1.74832 -2.95447 0
M  V30 1132 C 108.72 -2.95028 -3.04662 0
M  V30 1133 N 109.111 -4.18747 -2.83698 0
M  V30 1134 C 107.409 -2.93527 -3.35795 0
M  V30 1135 C 108.11 -4.99687 -2.97805 0
M  V30 1136 N 107.086 -4.33585 -3.2788 0
M  V30 1137 H 110.888 -2.58698 -1.39472 0
M  V30 1138 H 108.402 -1.47449 -0.680629 0
M  V30 1139 H 110.399 -1.83712 -3.7424 0
M  V30 1140 H 109.059 -0.826376 -3.14008 0
M  V30 1141 H 110.07 -4.48291 -2.59337 0
M  V30 1142 H 106.747 -2.10821 -3.60362 0
M  V30 1143 H 108.137 -6.08057 -2.85861 0
M  V30 1144 N 110.857 0.726932 -1.39834 0
M  V30 1145 C 112.087 1.51393 -1.40583 0
M  V30 1146 C 112.495 1.892 -0.000740625 0
M  V30 1147 O 111.838 1.55189 0.982951 0
M  V30 1148 C 111.9 2.82588 -2.22226 0
M  V30 1149 C 111.564 2.67169 -3.70769 0
M  V30 1150 C 112.561 2.3518 -4.63666 0
M  V30 1151 C 110.246 2.83788 -4.14451 0
M  V30 1152 C 112.24 2.20002 -5.98229 0
M  V30 1153 C 109.927 2.68229 -5.49087 0
M  V30 1154 C 110.925 2.36382 -6.4079 0
M  V30 1155 O 110.613 2.2093 -7.72946 0
M  V30 1156 H 110.345 0.474168 -0.48181 0
M  V30 1157 H 112.899 0.905247 -1.84376 0
M  V30 1158 H 111.129 3.45746 -1.73195 0
M  V30 1159 H 112.818 3.44247 -2.15055 0
M  V30 1160 H 113.584 2.21984 -4.31217 0
M  V30 1161 H 109.463 3.07566 -3.43401 0
M  V30 1162 H 113.007 1.95067 -6.69772 0
M  V30 1163 H 108.904 2.81006 -5.81125 0
M  V30 1164 H 109.672 2.35937 -7.83757 0
M  V30 1165 N 112.336 1.25143 0.95797 0
M  V30 1166 C 113.583 1.09692 1.70217 0
M  V30 1167 C 113.911 -0.362654 1.91089 0
M  V30 1168 O 113.166 -1.28386 1.47701 0
M  V30 1169 C 113.465 1.79272 3.09187 0
M  V30 1170 C 113.131 3.29196 3.08125 0
M  V30 1171 C 111.793 3.70096 3.07543 0
M  V30 1172 C 114.145 4.24995 3.0171 0
M  V30 1173 C 111.473 5.05213 2.9829 0
M  V30 1174 C 113.825 5.60132 2.93999 0
M  V30 1175 C 112.489 6.00365 2.9175 0
M  V30 1176 H 111.759 0.401393 0.622868 0
M  V30 1177 H 114.406 1.55372 1.11945 0
M  V30 1178 H 112.711 1.26014 3.70982 0
M  V30 1179 H 114.408 1.64773 3.65583 0
M  V30 1180 H 110.998 2.96651 3.09348 0
M  V30 1181 H 115.182 3.9439 3.01281 0
M  V30 1182 H 110.438 5.35569 2.94916 0
M  V30 1183 H 114.612 6.3406 2.87996 0
M  V30 1184 H 112.239 7.05023 2.84336 0
M  V30 1185 N 113.814 -1.1601 1.06675 0
M  V30 1186 C 114.761 -2.20525 0.680967 0
M  V30 1187 C 115.731 -1.62904 -0.324283 0
M  V30 1188 O 116.916 -1.89615 -0.212294 0
M  V30 1189 C 114.056 -3.45013 0.0776551 0
M  V30 1190 C 113.169 -4.16863 1.13355 0
M  V30 1191 C 112.304 -5.2888 0.49597 0
M  V30 1192 C 111.343 -5.92537 1.53513 0
M  V30 1193 N 110.48 -6.96038 0.920631 0
M  V30 1194 H 115.32 -2.52876 1.57663 0
M  V30 1195 H 112.857 -1.24199 0.788223 0
M  V30 1196 H 114.815 -4.16193 -0.289704 0
M  V30 1197 H 113.445 -3.132 -0.781393 0
M  V30 1198 H 112.497 -3.44248 1.61857 0
M  V30 1199 H 113.809 -4.60294 1.92174 0
M  V30 1200 H 112.963 -6.06653 0.0758604 0
M  V30 1201 H 111.702 -4.86622 -0.324062 0
M  V30 1202 H 110.707 -5.13482 1.9651 0
M  V30 1203 H 111.932 -6.36873 2.35733 0
M  V30 1204 H 109.878 -6.55888 0.12138 0
M  V30 1205 H 109.795 -7.3786 1.64616 0
M  V30 1206 H 111.063 -7.77725 0.525795 0
M  V30 1207 N 115.292 -0.849877 -1.32721 0
M  V30 1208 C 116.225 -0.235903 -2.26977 0
M  V30 1209 C 117.203 0.623355 -1.50177 0
M  V30 1210 O 118.387 0.581207 -1.79316 0
M  V30 1211 C 115.514 0.667712 -3.32053 0
M  V30 1212 C 114.56 -0.11753 -4.26338 0
M  V30 1213 S 115.393 -1.48277 -5.14562 0
M  V30 1214 C 116.549 -0.584741 -6.23163 0
M  V30 1215 H 116.782 -1.03495 -2.78704 0
M  V30 1216 H 114.315 -0.64724 -1.40179 0
M  V30 1217 H 116.273 1.18343 -3.93072 0
M  V30 1218 H 114.934 1.44052 -2.7912 0
M  V30 1219 H 114.127 0.57051 -5.00761 0
M  V30 1220 H 113.729 -0.564668 -3.69713 0
M  V30 1221 H 116.021 0.212968 -6.77165 0
M  V30 1222 H 116.964 -1.29947 -6.96074 0
M  V30 1223 H 117.372 -0.161202 -5.6427 0
M  V30 1224 N 116.77 1.45427 -0.607355 0
M  V30 1225 C 117.72 2.27612 0.133038 0
M  V30 1226 C 118.704 1.37307 0.838785 0
M  V30 1227 O 119.896 1.61299 0.728813 0
M  V30 1228 C 117.025 3.24173 1.12991 0
M  V30 1229 C 116.111 4.21965 0.425011 0
M  V30 1230 N 116.502 5.02982 -0.533217 0
M  V30 1231 C 114.8 4.40899 0.672593 0
M  V30 1232 C 115.501 5.73931 -0.947518 0
M  V30 1233 N 114.477 5.42819 -0.291321 0
M  V30 1234 H 118.279 2.87649 -0.602935 0
M  V30 1235 H 115.793 1.56576 -0.431006 0
M  V30 1236 H 117.79 3.81783 1.67473 0
M  V30 1237 H 116.45 2.65696 1.86644 0
M  V30 1238 H 117.461 5.09843 -0.90995 0
M  V30 1239 H 114.138 3.93547 1.39382 0
M  V30 1240 H 115.528 6.49037 -1.73782 0
M  V30 1241 N 118.248 0.346503 1.53744 0
M  V30 1242 C 119.525 -0.304532 1.93215 0
M  V30 1243 C 119.905 -1.67993 1.27834 0
M  V30 1244 O 119.253 -2.24411 0.430352 0
M  V30 1245 C 119.463 -0.373852 3.46992 0
M  V30 1246 C 120.811 -0.62329 4.2 0
M  V30 1247 O 121.835 -0.455847 3.53271 0
M  V30 1248 O 120.694 -0.947879 5.38217 0
M  V30 1249 H 117.788 -0.178318 0.807547 0
M  V30 1250 H 120.334 0.397895 1.64969 0
M  V30 1251 H 119.106 0.591224 3.86808 0
M  V30 1252 H 118.729 -1.12294 3.81413 0
M  V30 1253 N 119.726 -1.57421 0.075193 0
M  V30 1254 C 120.956 -1.97659 -0.601203 0
M  V30 1255 C 121.364 -0.952427 -1.63479 0
M  V30 1256 O 120.707 0.0688241 -1.83571 0
M  V30 1257 C 120.769 -3.34218 -1.32434 0
M  V30 1258 C 120.433 -4.5484 -0.443826 0
M  V30 1259 C 121.43 -5.19034 0.299969 0
M  V30 1260 C 119.115 -5.00952 -0.367709 0
M  V30 1261 C 121.109 -6.27695 1.10807 0
M  V30 1262 C 118.796 -6.09484 0.444058 0
M  V30 1263 C 119.794 -6.72719 1.18061 0
M  V30 1264 O 119.482 -7.79161 1.97898 0
M  V30 1265 H 119.214 -0.65494 -0.167422 0
M  V30 1266 H 121.768 -2.04886 0.145157 0
M  V30 1267 H 119.998 -3.23615 -2.11685 0
M  V30 1268 H 121.687 -3.59038 -1.89331 0
M  V30 1269 H 122.453 -4.84351 0.250776 0
M  V30 1270 H 118.332 -4.51509 -0.930638 0
M  V30 1271 H 121.876 -6.76982 1.68347 0
M  V30 1272 H 117.773 -6.43601 0.494803 0
M  V30 1273 H 118.541 -7.96055 1.90367 0
M  V30 1274 N 121.204 0.198386 -1.56346 0
M  V30 1275 C 122.481 0.944982 -1.71258 0
M  V30 1276 C 122.861 2.0151 -0.629048 0
M  V30 1277 O 122.209 2.25639 0.360473 0
M  V30 1278 C 122.419 1.5344 -3.1346 0
M  V30 1279 C 123.767 2.01778 -3.73591 0
M  V30 1280 O 124.791 1.63288 -3.16568 0
M  V30 1281 O 123.65 2.72594 -4.73661 0
M  V30 1282 H 120.744 0.442939 -0.69838 0
M  V30 1283 H 123.29 0.188342 -1.68652 0
M  V30 1284 H 122.062 0.762869 -3.83792 0
M  V30 1285 H 121.685 2.35596 -3.20282 0
M  V30 1286 N 122.682 1.50554 0.465978 0
M  V30 1287 C 123.93 1.61479 1.21528 0
M  V30 1288 C 124.251 0.319596 1.92363 0
M  V30 1289 O 123.521 -0.663194 1.84333 0
M  V30 1290 H 122.101 0.595055 0.451573 0
M  V30 1291 H 124.763 1.87355 0.53704 0
M  V30 1292 H 123.859 2.42846 1.96042 0
M  V30 1293 N 124.16 -0.719506 1.40217 0
M  V30 1294 C 125.108 -1.85493 1.40339 0
M  V30 1295 C 126.102 -1.66995 0.284415 0
M  V30 1296 O 127.308 -1.74148 0.455252 0
M  V30 1297 H 123.683 -0.610857 0.438586 0
M  V30 1298 H 125.654 -1.82506 2.36081 0
M  V30 1299 C 124.403 -3.23321 1.27901 0
M  V30 1300 H 123.726 -3.38159 2.1328 0
M  V30 1301 H 125.166 -4.02914 1.32045 0
M  V30 1302 C 123.625 -3.36898 -0.0111355 0
M  V30 1303 O 124.155 -3.89674 -0.975538 0
M  V30 1304 N 122.361 -2.90492 -0.0793393 0
M  V30 1305 H 121.908 -2.47731 0.706183 0
M  V30 1306 H 121.866 -2.99955 -0.942038 0
M  V30 1307 N 125.638 -1.25649 -0.95132 0
M  V30 1308 C 126.586 -1.06118 -2.06982 0
M  V30 1309 C 127.58 0.00889169 -1.69398 0
M  V30 1310 O 128.786 -0.146988 -1.79399 0
M  V30 1311 H 125.161 -0.326248 -0.677544 0
M  V30 1312 H 127.132 -2.00932 -2.2061 0
M  V30 1313 C 125.881 -0.700145 -3.40578 0
M  V30 1314 H 125.204 -1.51537 -3.69968 0
M  V30 1315 H 126.644 -0.603211 -4.19687 0
M  V30 1316 C 125.103 0.59403 -3.31622 0
M  V30 1317 O 125.633 1.63522 -3.66911 0
M  V30 1318 N 123.839 0.58089 -2.84735 0
M  V30 1319 H 123.386 -0.266783 -2.56215 0
M  V30 1320 H 123.344 1.44695 -2.79125 0
M  V30 1321 N 127.117 1.15442 -1.07289 0
M  V30 1322 C 128.047 2.22312 -0.714107 0
M  V30 1323 C 129.028 1.67467 0.298155 0
M  V30 1324 O 130.213 1.93445 0.171048 0
M  V30 1325 C 127.343 3.47124 -0.110448 0
M  V30 1326 C 126.297 4.14926 -1.04979 0
M  V30 1327 C 125.623 5.33807 -0.308924 0
M  V30 1328 C 126.923 4.64762 -2.38314 0
M  V30 1329 H 128.617 2.5258 -1.6076 0
M  V30 1330 H 126.163 1.21404 -0.77441 0
M  V30 1331 H 128.116 4.21124 0.152482 0
M  V30 1332 H 126.84 3.16187 0.81812 0
M  V30 1333 H 125.499 3.42866 -1.29764 0
M  V30 1334 H 125.147 4.99126 0.623084 0
M  V30 1335 H 124.847 5.80113 -0.935036 0
M  V30 1336 H 126.371 6.10576 -0.0537771 0
M  V30 1337 H 127.785 5.30292 -2.1786 0
M  V30 1338 H 126.182 5.21728 -2.96514 0
M  V30 1339 H 127.252 3.80434 -3.00663 0
M  V30 1340 N 128.595 0.856903 1.32268 0
M  V30 1341 C 129.525 0.31858 2.31316 0
M  V30 1342 C 130.506 -0.583487 1.59779 0
M  V30 1343 O 131.691 -0.503259 1.87566 0
M  V30 1344 C 128.821 -0.491979 3.43798 0
M  V30 1345 C 127.775 0.315849 4.26833 0
M  V30 1346 C 127.101 -0.619586 5.31098 0
M  V30 1347 C 128.401 1.54282 4.98993 0
M  V30 1348 H 130.095 1.14621 2.76591 0
M  V30 1349 H 127.641 0.552613 1.32974 0
M  V30 1350 H 129.594 -0.879012 4.1213 0
M  V30 1351 H 128.318 -1.35299 2.97257 0
M  V30 1352 H 126.977 0.684664 3.6015 0
M  V30 1353 H 126.625 -1.47751 4.8081 0
M  V30 1354 H 126.325 -0.0830621 5.87541 0
M  V30 1355 H 127.849 -1.00375 6.02293 0
M  V30 1356 H 129.263 1.22796 5.59995 0
M  V30 1357 H 127.66 2.01745 5.65172 0
M  V30 1358 H 128.73 2.30285 4.26728 0
M  V30 1359 N 130.073 -1.45103 0.615059 0
M  V30 1360 C 131.35 -1.95549 0.0448276 0
M  V30 1361 C 131.73 -1.55737 -1.4251 0
M  V30 1362 O 131.078 -0.823556 -2.13143 0
M  V30 1363 C 131.288 -3.48098 0.250785 0
M  V30 1364 C 132.636 -4.24384 0.135509 0
M  V30 1365 O 133.66 -3.55738 0.181299 0
M  V30 1366 O 132.519 -5.46493 0.0268878 0
M  V30 1367 H 129.613 -0.8264 -0.0314845 0
M  V30 1368 H 132.159 -1.55232 0.685642 0
M  V30 1369 H 130.931 -3.7007 1.27139 0
M  V30 1370 H 130.554 -3.95323 -0.424937 0
M  V30 1371 N 131.551 -0.354651 -1.53558 0
M  V30 1372 C 132.799 0.237972 -2.00694 0
M  V30 1373 C 133.12 1.50173 -1.24391 0
M  V30 1374 O 132.39 1.92673 -0.354135 0
M  V30 1375 H 130.97 0.0909256 -0.741446 0
M  V30 1376 H 133.632 -0.478368 -1.88938 0
M  V30 1377 H 132.728 0.47264 -3.085 0
M  V30 1378 N 133.029 1.57378 -0.0835403 0
M  V30 1379 C 133.959 2.1641 0.87686 0
M  V30 1380 C 134.94 1.09429 1.30228 0
M  V30 1381 O 136.125 1.37516 1.37124 0
M  V30 1382 C 133.255 2.73517 2.14022 0
M  V30 1383 C 132.209 3.85769 1.85381 0
M  V30 1384 C 131.535 4.29529 3.18448 0
M  V30 1385 C 132.835 5.09486 1.14984 0
M  V30 1386 H 134.529 2.96914 0.385059 0
M  V30 1387 H 132.075 1.42823 0.18377 0
M  V30 1388 H 134.028 3.13463 2.81636 0
M  V30 1389 H 132.752 1.90252 2.65465 0
M  V30 1390 H 131.411 3.46345 1.20169 0
M  V30 1391 H 131.059 3.43169 3.67755 0
M  V30 1392 H 130.759 5.05204 3.00071 0
M  V30 1393 H 132.283 4.72099 3.8724 0
M  V30 1394 H 133.697 5.46674 1.72687 0
M  V30 1395 H 132.094 5.90515 1.06826 0
M  V30 1396 H 133.164 4.84724 0.130749 0
M  V30 1397 N 134.507 -0.190092 1.56449 0
M  V30 1398 C 135.417 -1.25591 1.98152 0
M  V30 1399 C 136.433 -1.49519 0.889944 0
M  V30 1400 O 137.609 -1.62036 1.19609 0
M  V30 1401 C 134.674 -2.57916 2.3169 0
M  V30 1402 C 133.735 -2.42015 3.5458 0
M  V30 1403 C 132.968 -3.6803 3.8651 0
M  V30 1404 O 133.191 -4.72413 3.1966 0
M  V30 1405 O 132.125 -3.6326 4.79923 0
M  V30 1406 H 135.951 -0.931988 2.89046 0
M  V30 1407 H 133.536 -0.395488 1.4407 0
M  V30 1408 H 135.418 -3.36008 2.54316 0
M  V30 1409 H 134.093 -2.89925 1.43963 0
M  V30 1410 H 133 -1.62017 3.37196 0
M  V30 1411 H 134.333 -2.14937 4.4279 0
M  V30 1412 N 135.985 -1.50799 -0.457987 0
M  V30 1413 C 136.915 -1.73553 -1.5621 0
M  V30 1414 C 137.896 -0.584774 -1.59732 0
M  V30 1415 O 139.081 -0.825314 -1.7579 0
M  V30 1416 C 136.211 -1.84169 -2.94447 0
M  V30 1417 C 135.165 -2.99461 -3.0579 0
M  V30 1418 C 134.491 -2.95235 -4.45803 0
M  V30 1419 C 135.791 -4.39766 -2.81786 0
M  V30 1420 H 137.485 -2.66 -1.37421 0
M  V30 1421 H 135.031 -1.28002 -0.659662 0
M  V30 1422 H 136.984 -1.98672 -3.71628 0
M  V30 1423 H 135.708 -0.883545 -3.14422 0
M  V30 1424 H 134.367 -2.8463 -2.31044 0
M  V30 1425 H 134.015 -1.97239 -4.62715 0
M  V30 1426 H 133.715 -3.72642 -4.54326 0
M  V30 1427 H 135.239 -3.11803 -5.24987 0
M  V30 1428 H 136.653 -4.55054 -3.4871 0
M  V30 1429 H 135.05 -5.18722 -3.0174 0
M  V30 1430 H 136.12 -4.51229 -1.7754 0
M  V30 1431 N 137.463 0.71206 -1.40597 0
M  V30 1432 C 138.688 1.50617 -1.42581 0
M  V30 1433 C 139.113 1.88079 -0.0282102 0
M  V30 1434 O 138.471 1.53511 0.964579 0
M  V30 1435 C 138.519 2.7557 -2.3258 0
M  V30 1436 O 137.623 3.72414 -1.77148 0
M  V30 1437 H 136.964 0.453966 -0.484573 0
M  V30 1438 H 139.494 0.876649 -1.84868 0
M  V30 1439 H 139.504 3.2406 -2.47889 0
M  V30 1440 H 138.179 2.47639 -3.34138 0
M  V30 1441 H 136.756 3.31276 -1.71204 0
M  V30 1442 N 138.941 1.26152 0.944643 0
M  V30 1443 C 140.169 1.14259 1.72489 0
M  V30 1444 C 140.584 -0.302555 1.8636 0
M  V30 1445 O 139.941 -1.20741 1.36849 0
M  V30 1446 C 139.992 1.80266 3.13347 0
M  V30 1447 O 139.713 3.19133 3.00143 0
M  V30 1448 C 141.214 1.74283 4.07603 0
M  V30 1449 H 138.434 0.398051 0.540181 0
M  V30 1450 H 140.978 1.66706 1.18446 0
M  V30 1451 H 139.133 1.31766 3.64303 0
M  V30 1452 H 139.547 3.51744 3.89071 0
M  V30 1453 H 141.021 2.25111 5.04013 0
M  V30 1454 H 141.498 0.708631 4.33446 0
M  V30 1455 H 142.104 2.22319 3.62567 0
M  V30 1456 N 140.419 -1.14872 1.07899 0
M  V30 1457 C 141.382 -2.17986 0.708161 0
M  V30 1458 C 142.382 -1.58775 -0.25442 0
M  V30 1459 O 143.572 -1.74166 -0.034645 0
M  V30 1460 C 140.704 -3.40871 0.0446929 0
M  V30 1461 H 141.897 -2.52306 1.62116 0
M  V30 1462 H 139.45 -1.2943 0.876218 0
M  V30 1463 H 140.185 -3.12124 -0.880281 0
M  V30 1464 H 139.97 -3.8511 0.737091 0
M  V30 1465 H 141.46 -4.17121 -0.19991 0
M  V30 1466 N 141.898 -0.863906 -1.31812 0
M  V30 1467 C 143.147 -0.46801 -1.96195 0
M  V30 1468 C 143.46 0.983474 -1.69077 0
M  V30 1469 O 144.666 1.48523 -2.27273 0
M  V30 1470 C 143.122 -0.785995 -3.51212 0
M  V30 1471 C 142.73 -2.25383 -3.87178 0
M  V30 1472 C 144.474 -0.458274 -4.22019 0
M  V30 1473 C 142.381 -2.51455 -5.3528 0
M  V30 1474 H 141.311 -0.171283 -0.734287 0
M  V30 1475 H 143.962 -1.05597 -1.50072 0
M  V30 1476 H 142.344 -0.127359 -3.95795 0
M  V30 1477 H 143.518 -2.95502 -3.53575 0
M  V30 1478 H 141.833 -2.54698 -3.2942 0
M  V30 1479 H 144.43 -0.630369 -5.30971 0
M  V30 1480 H 144.773 0.600834 -4.11941 0
M  V30 1481 H 145.306 -1.07319 -3.8305 0
M  V30 1482 H 142.045 -3.56025 -5.50387 0
M  V30 1483 H 141.565 -1.85923 -5.70257 0
M  V30 1484 H 143.244 -2.35874 -6.02472 0
M  V30 1485 N 143.376 1.44774 -0.622745 0
M  V30 1486 C 144.604 2.06487 -0.130722 0
M  V30 1487 C 145.019 1.46476 1.19123 0
M  V30 1488 O 144.376 0.584502 1.72887 0
M  V30 1489 C 144.427 3.615 -0.000807207 0
M  V30 1490 O 144.148 4.19274 -1.27048 0
M  V30 1491 C 145.649 4.40229 0.520898 0
M  V30 1492 H 142.869 0.666704 -0.0758106 0
M  V30 1493 H 145.413 1.85779 -0.854774 0
M  V30 1494 H 143.568 3.81498 0.673643 0
M  V30 1495 H 143.982 5.12622 -1.1099 0
M  V30 1496 H 145.456 5.49144 0.560838 0
M  V30 1497 H 145.933 4.1108 1.54627 0
M  V30 1498 H 146.539 4.25131 -0.120018 0
M  V30 1499 N 144.854 0.36279 1.53368 0
M  V30 1500 C 145.804 -0.501391 2.22419 0
M  V30 1501 C 146.788 -1.0509 1.2184 0
M  V30 1502 O 147.98 -0.981404 1.47301 0
M  V30 1503 C 145.109 -1.64201 3.01484 0
M  V30 1504 C 144.195 -1.10552 4.09438 0
M  V30 1505 N 144.586 -0.291788 5.04958 0
M  V30 1506 C 142.884 -1.3806 4.24094 0
M  V30 1507 C 143.585 0.00162655 5.817 0
M  V30 1508 N 142.561 -0.595244 5.40331 0
M  V30 1509 H 146.363 0.127159 2.93625 0
M  V30 1510 H 143.877 0.170658 1.61501 0
M  V30 1511 H 145.874 -2.27326 3.49469 0
M  V30 1512 H 144.534 -2.27365 2.31809 0
M  V30 1513 H 145.545 0.0687731 5.17854 0
M  V30 1514 H 142.222 -2.01522 3.65644 0
M  V30 1515 H 143.612 0.659278 6.68658 0
M  V30 1516 N 146.332 -1.57332 0.0918853 0
M  V30 1517 C 147.578 -1.94524 -0.573425 0
M  V30 1518 C 147.911 -0.973578 -1.68033 0
M  V30 1519 O 147.186 -0.00609226 -1.94499 0
M  V30 1520 C 147.469 -3.41858 -1.13161 0
M  V30 1521 C 147.322 -4.4979 -0.0299747 0
M  V30 1522 C 148.641 -3.90435 -2.03098 0
M  V30 1523 H 145.76 -0.70734 -0.206975 0
M  V30 1524 H 148.402 -1.89309 0.161942 0
M  V30 1525 H 146.552 -3.46433 -1.7583 0
M  V30 1526 H 148.224 -4.57327 0.604112 0
M  V30 1527 H 146.467 -4.291 0.636833 0
M  V30 1528 H 147.138 -5.50069 -0.461287 0
M  V30 1529 H 149.614 -3.87992 -1.50338 0
M  V30 1530 H 148.49 -4.94097 -2.39081 0
M  V30 1531 H 148.751 -3.29541 -2.94712 0
M  V30 1532 N 147.81 0.181792 -1.56548 0
M  V30 1533 C 148.76 1.22961 -1.92002 0
M  V30 1534 C 149.744 1.40331 -0.787146 0
M  V30 1535 O 150.936 1.42478 -1.05019 0
M  V30 1536 C 148.065 2.57144 -2.27446 0
M  V30 1537 C 147.151 2.43512 -3.47222 0
M  V30 1538 N 147.542 1.99577 -4.64761 0
M  V30 1539 C 145.84 2.74368 -3.51622 0
M  V30 1540 C 146.541 1.98156 -5.46909 0
M  V30 1541 N 145.517 2.40164 -4.8767 0
M  V30 1542 H 149.319 0.881462 -2.8037 0
M  V30 1543 H 146.833 0.390141 -1.57644 0
M  V30 1544 H 148.83 3.32847 -2.51035 0
M  V30 1545 H 147.49 2.92771 -1.40411 0
M  V30 1546 H 148.501 1.70078 -4.89177 0
M  V30 1547 H 145.178 3.14102 -2.75038 0
M  V30 1548 H 146.568 1.65975 -6.51077 0
M  V30 1549 N 149.288 1.51039 0.449983 0
M  V30 1550 C 150.235 1.71439 1.54523 0
M  V30 1551 C 151.205 0.555871 1.56522 0
M  V30 1552 O 152.39 0.788871 1.73728 0
M  V30 1553 C 149.53 1.83384 2.92343 0
M  V30 1554 C 148.643 3.10873 2.9997 0
M  V30 1555 C 147.778 3.13488 4.28834 0
M  V30 1556 C 146.817 4.35343 4.30282 0
M  V30 1557 N 145.954 4.35579 5.5065 0
M  V30 1558 H 150.794 2.64934 1.36433 0
M  V30 1559 H 148.331 1.31312 0.662982 0
M  V30 1560 H 150.289 1.88291 3.72293 0
M  V30 1561 H 148.919 0.933086 3.0902 0
M  V30 1562 H 147.971 3.15336 2.12761 0
M  V30 1563 H 149.283 4.00814 2.96901 0
M  V30 1564 H 148.437 3.17241 5.17149 0
M  V30 1565 H 147.176 2.21414 4.34543 0
M  V30 1566 H 146.181 4.3178 3.40362 0
M  V30 1567 H 147.406 5.28668 4.26248 0
M  V30 1568 H 145.352 3.46369 5.57104 0
M  V30 1569 H 145.269 5.19313 5.49409 0
M  V30 1570 H 146.537 4.43507 6.41032 0
M  V30 1571 N 150.766 -0.704594 1.40972 0
M  V30 1572 C 151.676 -1.84856 1.44448 0
M  V30 1573 C 152.692 -1.70726 0.335961 0
M  V30 1574 O 153.868 -1.92799 0.582276 0
M  V30 1575 C 150.933 -3.20758 1.31587 0
M  V30 1576 C 149.994 -3.47063 2.52677 0
M  V30 1577 C 149.227 -4.76481 2.4042 0
M  V30 1578 O 149.45 -5.52341 1.42391 0
M  V30 1579 O 148.384 -5.03367 3.30007 0
M  V30 1580 H 152.21 -1.8488 2.40942 0
M  V30 1581 H 149.795 -0.85647 1.22413 0
M  V30 1582 H 151.677 -4.01913 1.26665 0
M  V30 1583 H 150.352 -3.21438 0.382049 0
M  V30 1584 H 149.259 -2.65873 2.63177 0
M  V30 1585 H 150.592 -3.5119 3.44858 0
M  V30 1586 N 152.244 -1.26651 -0.937939 0
M  V30 1587 C 153.154 -1.10276 -2.07066 0
M  V30 1588 C 154.17 -0.0354197 -1.73964 0
M  V30 1589 O 155.346 -0.239816 -1.99967 0
M  V30 1590 C 152.411 -0.740887 -3.38691 0
M  V30 1591 C 151.472 -1.88799 -3.85556 0
M  V30 1592 C 150.705 -1.54329 -5.10899 0
M  V30 1593 O 150.928 -0.446494 -5.6865 0
M  V30 1594 O 149.862 -2.37911 -5.52885 0
M  V30 1595 H 153.688 -2.05309 -2.23789 0
M  V30 1596 H 151.273 -1.05743 -1.0554 0
M  V30 1597 H 153.155 -0.55195 -4.1777 0
M  V30 1598 H 151.83 0.180022 -3.23199 0
M  V30 1599 H 150.737 -2.13191 -3.07409 0
M  V30 1600 H 152.07 -2.78874 -4.05574 0
M  V30 1601 N 153.722 1.14298 -1.08507 0
M  V30 1602 C 154.97 1.84993 -0.813763 0
M  V30 1603 C 155.291 1.83405 0.662393 0
M  V30 1604 O 154.561 1.28319 1.48024 0
M  V30 1605 H 153.141 0.684966 -0.298045 0
M  V30 1606 H 155.803 1.385 -1.37126 0
M  V30 1607 H 154.899 2.89788 -1.15884 0
M  V30 1608 N 155.201 0.870884 1.31352 0
M  V30 1609 C 156.426 0.495957 2.01383 0
M  V30 1610 C 156.851 -0.904324 1.64935 0
M  V30 1611 O 156.209 -1.59687 0.858466 0
M  V30 1612 C 156.257 0.661433 3.54482 0
M  V30 1613 O 155.361 -0.298851 4.11316 0
M  V30 1614 H 154.702 0.197158 0.634054 0
M  V30 1615 H 157.232 1.17455 1.67527 0
M  V30 1616 H 157.242 0.555072 4.04207 0
M  V30 1617 H 155.917 1.68246 3.8035 0
M  V30 1618 H 154.494 -0.147368 3.72609 0
M  V30 1619 N 156.679 -1.44442 0.630414 0
M  V30 1620 C 157.589 -2.34476 -0.0761693 0
M  V30 1621 C 158.605 -1.52576 -0.836449 0
M  V30 1622 O 159.781 -1.85307 -0.788874 0
M  V30 1623 C 156.846 -3.30545 -1.04599 0
M  V30 1624 C 155.907 -4.28352 -0.28516 0
M  V30 1625 C 155.14 -5.19831 -1.20878 0
M  V30 1626 O 155.363 -5.15223 -2.44747 0
M  V30 1627 O 154.297 -5.97892 -0.693491 0
M  V30 1628 H 158.123 -2.96345 0.664324 0
M  V30 1629 H 155.708 -1.44203 0.39061 0
M  V30 1630 H 157.59 -3.89681 -1.60396 0
M  V30 1631 H 156.265 -2.7121 -1.76711 0
M  V30 1632 H 155.172 -3.72764 0.315837 0
M  V30 1633 H 156.505 -4.90605 0.395924 0
M  V30 1634 N 158.157 -0.370918 -1.53173 0
M  V30 1635 C 159.089 0.507823 -2.23503 0
M  V30 1636 C 160.102 1.04182 -1.251 0
M  V30 1637 O 161.291 0.947286 -1.5129 0
M  V30 1638 C 158.391 1.71447 -2.92334 0
M  V30 1639 C 157.564 1.31105 -4.17289 0
M  V30 1640 C 156.623 2.38035 -4.69282 0
M  V30 1641 O 155.649 2.00204 -5.32829 0
M  V30 1642 N 156.851 3.69697 -4.47554 0
M  V30 1643 H 159.616 -0.0946382 -2.99551 0
M  V30 1644 H 157.177 -0.196358 -1.60705 0
M  V30 1645 H 159.169 2.42469 -3.24023 0
M  V30 1646 H 157.739 2.22368 -2.19707 0
M  V30 1647 H 156.959 0.430462 -3.91843 0
M  V30 1648 H 158.247 1.0179 -4.98514 0
M  V30 1649 H 157.645 4.03205 -3.9679 0
M  V30 1650 H 156.202 4.36807 -4.8378 0
M  V30 1651 N 159.635 1.57281 -0.100228 0
M  V30 1652 C 160.598 2.13158 0.842398 0
M  V30 1653 C 161.598 1.06202 1.20738 0
M  V30 1654 O 162.788 1.32066 1.13597 0
M  V30 1655 C 159.92 2.65639 2.13655 0
M  V30 1656 H 161.113 2.97766 0.357114 0
M  V30 1657 H 158.666 1.5559 0.148823 0
M  V30 1658 H 159.401 1.84566 2.66657 0
M  V30 1659 H 159.186 3.43844 1.88451 0
M  V30 1660 H 160.676 3.08846 2.81077 0
M  V30 1661 N 161.113 -0.173488 1.56642 0
M  V30 1662 C 162.524 -0.736155 1.71574 0
M  V30 1663 C 162.875 -1.82888 0.710389 0
M  V30 1664 O 162 -2.16017 -0.1287 0
M  V30 1665 C 162.595 -1.34211 3.11083 0
M  V30 1666 C 161.154 -1.85162 3.27707 0
M  V30 1667 C 160.301 -0.729765 2.67525 0
M  V30 1668 H 163.252 0.0518786 1.58615 0
M  V30 1669 H 163.273 -2.21178 3.09613 0
M  V30 1670 H 162.785 -0.546579 3.84232 0
M  V30 1671 H 160.886 -2.67366 2.59512 0
M  V30 1672 H 160.999 -1.99855 4.35425 0
M  V30 1673 H 159.363 -1.14965 2.27278 0
M  V30 1674 H 160.146 0.0538806 3.43258 0
M  V30 1675 N 162.591 -1.51276 -0.441967 0
M  V30 1676 C 163.521 -1.752 -1.54361 0
M  V30 1677 C 164.502 -0.601682 -1.59103 0
M  V30 1678 O 165.687 -0.843913 -1.74905 0
M  V30 1679 C 162.817 -1.87282 -2.92477 0
M  V30 1680 C 161.771 -3.02687 -3.02596 0
M  V30 1681 C 161.097 -2.99947 -4.42647 0
M  V30 1682 C 162.397 -4.4273 -2.77106 0
M  V30 1683 H 164.091 -2.67442 -1.34592 0
M  V30 1684 H 161.637 -1.28694 -0.646048 0
M  V30 1685 H 163.59 -2.02602 -3.695 0
M  V30 1686 H 162.314 -0.916844 -3.13467 0
M  V30 1687 H 160.973 -2.87065 -2.28012 0
M  V30 1688 H 160.621 -2.02136 -4.60597 0
M  V30 1689 H 160.321 -3.77439 -4.50348 0
M  V30 1690 H 161.845 -3.17354 -5.2165 0
M  V30 1691 H 163.259 -4.58727 -3.43864 0
M  V30 1692 H 161.656 -5.21893 -2.96222 0
M  V30 1693 H 162.726 -4.53087 -1.72744 0
M  V30 1694 N 164.069 0.697108 -1.41344 0
M  V30 1695 C 165.002 1.82134 -1.37486 0
M  V30 1696 C 165.98 1.60784 -0.242351 0
M  V30 1697 O 167.164 1.83553 -0.429012 0
M  V30 1698 C 164.291 3.18788 -1.14421 0
M  V30 1699 C 163.337 3.58932 -2.3037 0
M  V30 1700 S 164.17 3.63916 -3.92843 0
M  V30 1701 C 165.326 5.03298 -3.72078 0
M  V30 1702 H 165.559 1.85129 -2.32625 0
M  V30 1703 H 163.092 0.865671 -1.2785 0
M  V30 1704 H 165.05 3.97677 -1.018 0
M  V30 1705 H 163.711 3.13404 -0.20905 0
M  V30 1706 H 162.904 4.58202 -2.09922 0
M  V30 1707 H 162.506 2.87347 -2.39391 0
M  V30 1708 H 164.798 5.90753 -3.31688 0
M  V30 1709 H 165.741 5.28788 -4.70945 0
M  V30 1710 H 166.149 4.74764 -3.05384 0
M  V30 1711 N 165.547 1.27147 0.931209 0
M  V30 1712 C 166.772 1.16191 1.71797 0
M  V30 1713 C 167.197 -0.278004 1.86034 0
M  V30 1714 O 166.555 -1.20137 1.35782 0
M  V30 1715 C 166.603 1.84673 3.09723 0
M  V30 1716 O 165.707 1.14231 3.96264 0
M  V30 1717 H 165.048 0.404303 0.526721 0
M  V30 1718 H 167.578 1.68152 1.1656 0
M  V30 1719 H 167.588 1.91893 3.60057 0
M  V30 1720 H 166.263 2.89421 2.98677 0
M  V30 1721 H 164.84 1.15056 3.54706 0
M  V30 1722 N 167.025 -1.13721 1.09112 0
M  V30 1723 C 167.935 -2.22638 0.73957 0
M  V30 1724 C 168.951 -1.72091 -0.257068 0
M  V30 1725 O 170.127 -2.01155 -0.0992154 0
M  V30 1726 C 167.192 -3.46322 0.16191 0
M  V30 1727 C 166.253 -4.11775 1.21408 0
M  V30 1728 C 165.486 -5.29555 0.663891 0
M  V30 1729 O 165.709 -5.68077 -0.514274 0
M  V30 1730 O 164.643 -5.84973 1.41738 0
M  V30 1731 H 168.469 -2.55074 1.64836 0
M  V30 1732 H 166.054 -1.21791 0.865289 0
M  V30 1733 H 167.936 -4.21107 -0.157073 0
M  V30 1734 H 166.611 -3.15593 -0.719932 0
M  V30 1735 H 165.518 -3.3883 1.58571 0
M  V30 1736 H 166.851 -4.46627 2.06845 0
M  V30 1737 N 168.503 -0.877838 -1.30888 0
M  V30 1738 C 169.78 -0.413052 -1.91189 0
M  V30 1739 C 170.16 1.1056 -1.79832 0
M  V30 1740 O 169.508 1.93771 -1.21099 0
M  V30 1741 C 169.718 -0.903191 -3.3711 0
M  V30 1742 C 171.066 -0.93395 -4.14201 0
M  V30 1743 O 172.09 -0.849373 -3.45925 0
M  V30 1744 O 170.949 -1.05772 -5.36167 0
M  V30 1745 H 168.043 -0.125035 -0.817493 0
M  V30 1746 H 170.589 -0.966269 -1.39504 0
M  V30 1747 H 169.361 -1.94692 -3.39427 0
M  V30 1748 H 168.984 -0.328732 -3.96239 0
M  V30 1749 N 169.982 1.44106 -0.638065 0
M  V30 1750 C 170.892 2.34513 0.0637334 0
M  V30 1751 C 171.908 1.53018 0.828346 0
M  V30 1752 O 173.084 1.85723 0.779036 0
M  V30 1753 C 170.149 3.31095 1.02844 0
M  V30 1754 C 169.21 4.28497 0.26244 0
M  V30 1755 C 168.443 5.20465 1.1812 0
M  V30 1756 O 168.666 5.16514 2.42011 0
M  V30 1757 O 167.6 5.98251 0.661774 0
M  V30 1758 H 171.426 2.95989 -0.68003 0
M  V30 1759 H 169.011 1.43994 -0.398252 0
M  V30 1760 H 170.893 3.90526 1.58327 0
M  V30 1761 H 169.568 2.72144 1.7527 0
M  V30 1762 H 168.475 3.72592 -0.335602 0
M  V30 1763 H 169.808 4.90388 -0.421936 0
M  V30 1764 N 171.46 0.379036 1.52974 0
M  V30 1765 C 172.39 -0.452706 2.29069 0
M  V30 1766 C 173.371 -1.07237 1.32039 0
M  V30 1767 O 174.556 -1.08708 1.60923 0
M  V30 1768 C 171.686 -1.5856 3.08992 0
M  V30 1769 C 170.64 -1.0925 4.13822 0
M  V30 1770 C 169.966 -2.31668 4.81907 0
M  V30 1771 C 171.266 -0.167702 5.22031 0
M  V30 1772 H 172.96 0.182181 2.98845 0
M  V30 1773 H 170.506 0.0890592 1.43724 0
M  V30 1774 H 172.459 -2.1742 3.6098 0
M  V30 1775 H 171.183 -2.24792 2.36931 0
M  V30 1776 H 169.842 -0.526494 3.628 0
M  V30 1777 H 169.49 -2.96386 4.06404 0
M  V30 1778 H 169.19 -1.9934 5.52754 0
M  V30 1779 H 170.714 -2.91189 5.36695 0
M  V30 1780 H 172.128 -0.664186 5.6944 0
M  V30 1781 H 170.525 0.0653265 6.00064 0
M  V30 1782 H 171.595 0.786347 4.78482 0
M  V30 1783 N 172.938 -1.57226 0.108567 0
M  V30 1784 C 174.187 -1.94008 -0.551703 0
M  V30 1785 C 174.5 -0.993442 -1.68494 0
M  V30 1786 O 175.706 -1.25551 -2.40726 0
M  V30 1787 C 174.162 -3.44763 -1.03279 0
M  V30 1788 C 173.77 -4.47943 0.0714193 0
M  V30 1789 C 175.514 -3.90483 -1.66503 0
M  V30 1790 C 173.421 -5.89865 -0.425779 0
M  V30 1791 H 172.351 -0.724206 -0.209863 0
M  V30 1792 H 175.002 -1.82547 0.186741 0
M  V30 1793 H 173.384 -3.51422 -1.82533 0
M  V30 1794 H 174.558 -4.52942 0.847365 0
M  V30 1795 H 172.873 -4.11913 0.609669 0
M  V30 1796 H 175.47 -4.93925 -2.04798 0
M  V30 1797 H 175.813 -3.29877 -2.53942 0
M  V30 1798 H 176.346 -3.86581 -0.938074 0
M  V30 1799 H 173.085 -6.54202 0.412316 0
M  V30 1800 H 172.605 -5.88309 -1.16843 0
M  V30 1801 H 174.284 -6.40844 -0.890397 0
M  V30 1802 N 174.416 0.165178 -1.56732 0
M  V30 1803 C 175.364 1.22369 -1.97809 0
M  V30 1804 C 176.358 1.45488 -0.867741 0
M  V30 1805 O 177.564 1.45995 -1.05288 0
M  V30 1806 H 173.939 0.411486 -0.629431 0
M  V30 1807 H 175.91 0.850425 -2.86025 0
M  V30 1808 C 174.659 2.55403 -2.35934 0
M  V30 1809 H 173.982 2.38438 -3.20916 0
M  V30 1810 H 175.422 3.2814 -2.68514 0
M  V30 1811 C 173.881 3.14611 -1.20506 0
M  V30 1812 O 174.411 3.98626 -0.496016 0
M  V30 1813 N 172.617 2.7379 -0.97403 0
M  V30 1814 H 172.164 2.0557 -1.55238 0
M  V30 1815 H 172.122 3.1374 -0.203573 0
M  V30 1816 N 175.894 1.51508 0.433938 0
M  V30 1817 C 177.143 1.63578 1.18005 0
M  V30 1818 C 177.456 0.359514 1.92268 0
M  V30 1819 O 178.662 0.359632 2.69108 0
M  V30 1820 C 177.118 2.88901 2.14626 0
M  V30 1821 C 176.726 4.23544 1.45995 0
M  V30 1822 C 178.47 3.10328 2.89649 0
M  V30 1823 C 176.377 5.40014 2.4112 0
M  V30 1824 H 175.307 0.609277 0.444182 0
M  V30 1825 H 177.958 1.77978 0.446773 0
M  V30 1826 H 176.34 2.68142 2.91403 0
M  V30 1827 H 177.514 4.54696 0.747532 0
M  V30 1828 H 175.829 4.08021 0.831115 0
M  V30 1829 H 178.426 3.94518 3.60915 0
M  V30 1830 H 178.769 2.23544 3.51189 0
M  V30 1831 H 179.302 3.31443 2.19978 0
M  V30 1832 H 176.041 6.29068 1.84264 0
M  V30 1833 H 175.561 5.13233 3.10406 0
M  V30 1834 H 177.24 5.72099 3.02177 0
M  V30 1835 N 177.372 -0.689602 1.41712 0
M  V30 1836 C 178.621 -1.44534 1.40686 0
M  V30 1837 C 178.934 -1.95588 0.0213352 0
M  V30 1838 O 180.14 -2.71271 -0.111534 0
M  V30 1839 C 178.596 -2.61387 2.47396 0
M  V30 1840 C 178.204 -2.17094 3.91885 0
M  V30 1841 C 179.948 -3.38986 2.55517 0
M  V30 1842 C 177.855 -3.3094 4.90135 0
M  V30 1843 H 176.785 -0.542925 0.52321 0
M  V30 1844 H 179.436 -0.748054 1.6756 0
M  V30 1845 H 177.818 -3.33412 2.13664 0
M  V30 1846 H 178.992 -1.52318 4.34897 0
M  V30 1847 H 177.307 -1.52473 3.8748 0
M  V30 1848 H 179.904 -4.23747 3.26102 0
M  V30 1849 H 180.247 -3.84578 1.59391 0
M  V30 1850 H 180.78 -2.74021 2.8837 0
M  V30 1851 H 177.519 -2.90355 5.87685 0
M  V30 1852 H 177.039 -3.94546 4.51767 0
M  V30 1853 H 178.718 -3.9663 5.11169 0
M  V30 1854 N 178.85 -1.27639 -0.924453 0
M  V30 1855 C 180.127 -1.04887 -1.651 0
M  V30 1856 C 180.507 0.415327 -2.06974 0
M  V30 1857 O 179.855 1.39923 -1.80648 0
M  V30 1858 C 180.065 -2.01348 -2.85061 0
M  V30 1859 C 181.413 -2.30899 -3.56329 0
M  V30 1860 O 182.437 -1.99348 -2.95193 0
M  V30 1861 O 181.296 -2.84699 -4.66485 0
M  V30 1862 H 178.39 -0.400083 -0.723784 0
M  V30 1863 H 180.936 -1.38916 -0.974703 0
M  V30 1864 H 179.708 -3.0008 -2.51133 0
M  V30 1865 H 179.331 -1.679 -3.6041 0
M  V30 1866 N 180.328 1.1314 -1.09713 0
M  V30 1867 C 181.576 1.84119 -0.833338 0
M  V30 1868 C 181.897 1.84097 0.642904 0
M  V30 1869 O 181.167 1.29881 1.46655 0
M  V30 1870 H 179.747 0.681766 -0.305293 0
M  V30 1871 H 182.409 1.37038 -1.38588 0
M  V30 1872 H 181.505 2.88543 -1.18951 0
M  V30 1873 N 181.806 0.884767 1.30421 0
M  V30 1874 C 183.052 0.503851 1.96441 0
M  V30 1875 C 183.385 -0.944518 1.69684 0
M  V30 1876 O 182.66 -1.66737 1.00145 0
M  V30 1877 C 182.943 0.779085 3.51571 0
M  V30 1878 C 182.796 2.27807 3.87846 0
M  V30 1879 C 184.115 0.255452 4.39358 0
M  V30 1880 H 181.234 0.184533 0.713524 0
M  V30 1881 H 183.876 1.10872 1.54297 0
M  V30 1882 H 182.026 0.264274 3.876 0
M  V30 1883 H 183.698 2.86127 3.61841 0
M  V30 1884 H 181.941 2.74479 3.35922 0
M  V30 1885 H 182.612 2.42125 4.96064 0
M  V30 1886 H 185.088 0.696079 4.10236 0
M  V30 1887 H 183.964 0.477361 5.4682 0
M  V30 1888 H 184.225 -0.843293 4.33983 0
M  V30 1889 N 183.284 -1.43765 0.645699 0
M  V30 1890 C 184.214 -2.33471 -0.0370477 0
M  V30 1891 C 185.195 -1.49042 -0.819779 0
M  V30 1892 O 186.38 -1.77726 -0.782758 0
M  V30 1893 C 183.51 -3.32311 -1.0093 0
M  V30 1894 C 182.464 -4.2667 -0.337201 0
M  V30 1895 C 181.79 -5.1549 -1.42037 0
M  V30 1896 C 183.09 -5.16657 0.765706 0
M  V30 1897 H 184.784 -2.90809 0.712069 0
M  V30 1898 H 182.33 -1.39834 0.343876 0
M  V30 1899 H 184.283 -3.9396 -1.49578 0
M  V30 1900 H 183.007 -2.73213 -1.78948 0
M  V30 1901 H 181.666 -3.66374 0.128771 0
M  V30 1902 H 181.314 -4.52735 -2.1918 0
M  V30 1903 H 181.014 -5.79438 -0.975966 0
M  V30 1904 H 182.538 -5.80012 -1.90838 0
M  V30 1905 H 183.952 -5.72158 0.361702 0
M  V30 1906 H 182.349 -5.89286 1.13413 0
M  V30 1907 H 183.419 -4.56796 1.62683 0
M  V30 1908 N 184.763 -0.387143 -1.52771 0
M  V30 1909 C 186.179 -0.037007 -1.59557 0
M  V30 1910 C 186.379 1.44801 -1.40124 0
M  V30 1911 O 185.435 2.21227 -1.21716 0
M  V30 1912 C 186.748 -0.512256 -2.96305 0
M  V30 1913 C 188.296 -0.468328 -3.09476 0
M  V30 1914 C 188.771 -0.919731 -4.4867 0
M  V30 1915 N 190.262 -0.875656 -4.54848 0
M  V30 1916 C 190.997 -1.19637 -5.6078 0
M  V30 1917 N 190.493 -1.58745 -6.74368 0
M  V30 1918 N 192.286 -1.11776 -5.50874 0
M  V30 1919 H 184.437 -1.35395 -1.63652 0
M  V30 1920 H 186.7 -0.554818 -0.768688 0
M  V30 1921 H 186.406 -1.54935 -3.15734 0
M  V30 1922 H 186.28 0.089805 -3.77093 0
M  V30 1923 H 188.667 0.559671 -2.89744 0
M  V30 1924 H 188.748 -1.10616 -2.30646 0
M  V30 1925 H 188.392 -1.94595 -4.69143 0
M  V30 1926 H 188.322 -0.258927 -5.25963 0
M  V30 1927 H 190.813 -0.587843 -3.733 0
M  V30 1928 H 191.126 -1.81586 -7.51163 0
M  V30 1929 H 189.471 -1.6263 -6.75705 0
M  V30 1930 H 192.662 -0.811264 -4.61016 0
M  V30 1931 H 192.835 -1.37103 -6.3333 0
M  V30 1932 N 186.241 1.57166 -0.116904 0
M  V30 1933 C 187.518 1.86645 0.585049 0
M  V30 1934 C 187.898 1.0177 1.84949 0
M  V30 1935 O 187.246 0.0960379 2.28298 0
M  V30 1936 C 187.456 3.37736 0.879507 0
M  V30 1937 C 188.804 4.06289 1.23348 0
M  V30 1938 O 189.828 3.42743 0.969836 0
M  V30 1939 O 188.687 5.18455 1.7282 0
M  V30 1940 H 185.781 0.772593 0.295007 0
M  V30 1941 H 188.327 1.69025 -0.151249 0
M  V30 1942 H 187.099 3.91296 -0.0166136 0
M  V30 1943 H 186.722 3.6078 1.67103 0
M  V30 1944 N 187.719 -0.156864 1.56817 0
M  V30 1945 C 188.996 -0.899244 1.73704 0
M  V30 1946 C 189.376 -1.99771 0.682254 0
M  V30 1947 O 188.724 -2.26515 -0.300522 0
M  V30 1948 C 188.934 -1.45075 3.17418 0
M  V30 1949 C 190.282 -1.91802 3.7881 0
M  V30 1950 O 191.306 -1.54838 3.20786 0
M  V30 1951 O 190.165 -2.5994 4.80722 0
M  V30 1952 H 187.259 -0.424267 0.709878 0
M  V30 1953 H 189.805 -0.143561 1.69092 0
M  V30 1954 H 188.577 -0.660846 3.85679 0
M  V30 1955 H 188.2 -2.27021 3.26416 0
M  V30 1956 N 189.197 -1.51736 -0.425897 0
M  V30 1957 C 190.474 -1.55519 -1.1863 0
M  V30 1958 C 190.854 -0.326219 -2.08564 0
M  V30 1959 O 190.202 0.688012 -2.17896 0
M  V30 1960 C 190.412 -2.87521 -1.9782 0
M  V30 1961 C 191.76 -3.39899 -2.54468 0
M  V30 1962 O 192.784 -2.89148 -2.08019 0
M  V30 1963 O 191.643 -4.2848 -3.39215 0
M  V30 1964 H 188.737 -0.625739 -0.540721 0
M  V30 1965 H 191.283 -1.64055 -0.434038 0
M  V30 1966 H 190.055 -3.68422 -1.31836 0
M  V30 1967 H 189.678 -2.822 -2.80088 0
M  V30 1968 N 190.675 0.682077 -1.42076 0
M  V30 1969 C 191.622 1.79578 -1.44984 0
M  V30 1970 C 192.592 1.6332 -0.302614 0
M  V30 1971 O 193.777 1.83978 -0.505633 0
M  V30 1972 C 190.917 3.1756 -1.35091 0
M  V30 1973 C 190.03 3.45156 -2.59791 0
M  V30 1974 C 189.165 4.72826 -2.42093 0
M  V30 1975 C 188.204 4.93433 -3.62202 0
M  V30 1976 N 187.341 6.12338 -3.43491 0
M  V30 1977 H 192.181 1.76427 -2.40161 0
M  V30 1978 H 189.718 0.861376 -1.19242 0
M  V30 1979 H 191.676 3.97287 -1.27354 0
M  V30 1980 H 190.306 3.19854 -0.435133 0
M  V30 1981 H 189.358 2.59736 -2.77923 0
M  V30 1982 H 190.67 3.5628 -3.49094 0
M  V30 1983 H 189.824 5.60631 -2.319 0
M  V30 1984 H 188.563 4.63973 -1.50268 0
M  V30 1985 H 187.568 4.04073 -3.72834 0
M  V30 1986 H 188.793 5.04136 -4.54998 0
M  V30 1987 H 186.739 6.04672 -2.54377 0
M  V30 1988 H 186.656 6.2429 -4.26377 0
M  V30 1989 H 187.924 7.02841 -3.37097 0
M  V30 1990 N 192.153 1.28127 0.917671 0
M  V30 1991 C 193.101 1.11569 2.04096 0
M  V30 1992 C 194.095 0.0360242 1.69362 0
M  V30 1993 O 195.301 0.194501 1.78946 0
M  V30 1994 H 191.676 0.344097 0.668656 0
M  V30 1995 H 193.647 2.06711 2.15205 0
M  V30 1996 C 192.396 0.790197 3.38602 0
M  V30 1997 H 191.719 1.61293 3.6582 0
M  V30 1998 H 193.159 0.714271 4.1794 0
M  V30 1999 C 191.618 -0.505897 3.3308 0
M  V30 2000 O 192.148 -1.53736 3.71117 0
M  V30 2001 N 190.354 -0.505193 2.86175 0
M  V30 2002 H 189.901 0.334621 2.55417 0
M  V30 2003 H 189.859 -1.37243 2.82863 0
M  V30 2004 N 193.631 -1.12557 1.10312 0
M  V30 2005 C 194.579 -2.20325 0.745629 0
M  V30 2006 C 195.573 -1.67429 -0.25763 0
M  V30 2007 O 196.779 -1.79612 -0.118132 0
M  V30 2008 H 193.154 -0.718118 0.223182 0
M  V30 2009 H 195.125 -2.47733 1.66346 0
M  V30 2010 C 193.874 -3.47168 0.192262 0
M  V30 2011 H 193.197 -3.88215 0.955475 0
M  V30 2012 H 194.637 -4.23995 -0.0198274 0
M  V30 2013 C 193.096 -3.19298 -1.07472 0
M  V30 2014 O 193.626 -3.3891 -2.15645 0
M  V30 2015 N 191.832 -2.73113 -0.992847 0
M  V30 2016 H 191.379 -2.57354 -0.112474 0
M  V30 2017 H 191.337 -2.54842 -1.84127 0
M  V30 2018 N 195.109 -0.891671 -1.2995 0
M  V30 2019 C 196.386 -0.433307 -1.9074 0
M  V30 2020 C 196.766 1.08646 -1.80995 0
M  V30 2021 O 196.114 1.92476 -1.23147 0
M  V30 2022 C 196.324 -0.938895 -3.36134 0
M  V30 2023 C 197.672 -0.977829 -4.13187 0
M  V30 2024 O 198.696 -0.886015 -3.45005 0
M  V30 2025 O 197.555 -1.11453 -5.35015 0
M  V30 2026 H 194.649 -0.133699 -0.816121 0
M  V30 2027 H 197.195 -0.981011 -1.38471 0
M  V30 2028 H 195.967 -1.98281 -3.37343 0
M  V30 2029 H 195.59 -0.37074 -3.95868 0
M  V30 2030 N 196.587 1.43421 -0.653314 0
M  V30 2031 C 197.835 2.01414 -0.166415 0
M  V30 2032 C 198.156 1.51803 1.22397 0
M  V30 2033 O 197.426 0.730693 1.81763 0
M  V30 2034 H 196.006 0.744703 -0.0585319 0
M  V30 2035 H 198.668 1.75629 -0.845003 0
M  V30 2036 H 197.764 3.11734 -0.151111 0
M  V30 2037 N 198.065 0.39524 1.52563 0
M  V30 2038 C 199.295 -0.184675 2.05773 0
M  V30 2039 C 199.703 -1.40571 1.26635 0
M  V30 2040 O 199.046 -1.81105 0.30769 0
M  V30 2041 C 199.108 -0.613551 3.54226 0
M  V30 2042 C 198.772 0.49484 4.54313 0
M  V30 2043 C 199.769 1.3541 5.01956 0
M  V30 2044 C 197.454 0.663565 4.97898 0
M  V30 2045 C 199.448 2.36716 5.91814 0
M  V30 2046 C 197.135 1.67996 5.87555 0
M  V30 2047 C 198.133 2.53017 6.34406 0
M  V30 2048 O 197.821 3.52917 7.22291 0
M  V30 2049 H 197.553 -0.030077 0.675331 0
M  V30 2050 H 200.107 0.560708 1.97599 0
M  V30 2051 H 198.337 -1.411 3.60038 0
M  V30 2052 H 200.026 -1.11981 3.90148 0
M  V30 2053 H 200.792 1.23509 4.6901 0
M  V30 2054 H 196.671 0.0114913 4.60999 0
M  V30 2055 H 200.215 3.03113 6.28306 0
M  V30 2056 H 196.112 1.79933 6.19915 0
M  V30 2057 H 196.88 3.48996 7.40367 0
M  V30 2058 N 199.544 -1.57102 0.125237 0
M  V30 2059 C 200.793 -1.94582 -0.531095 0
M  V30 2060 C 201.106 -1.01126 -1.6743 0
M  V30 2061 O 202.312 -1.28097 -2.39381 0
M  V30 2062 C 200.768 -3.45839 -0.996164 0
M  V30 2063 C 200.376 -4.47842 0.118926 0
M  V30 2064 C 202.12 -3.92227 -1.62352 0
M  V30 2065 C 200.027 -5.90284 -0.363192 0
M  V30 2066 H 198.957 -0.726391 -0.20217 0
M  V30 2067 H 201.608 -1.82339 0.206092 0
M  V30 2068 H 199.99 -3.53338 -1.78796 0
M  V30 2069 H 201.164 -4.52018 0.895358 0
M  V30 2070 H 199.479 -4.11243 0.653324 0
M  V30 2071 H 202.076 -4.96069 -1.99548 0
M  V30 2072 H 202.419 -3.32552 -2.50429 0
M  V30 2073 H 202.952 -3.87554 -0.897019 0
M  V30 2074 H 199.691 -6.53728 0.481679 0
M  V30 2075 H 199.211 -5.89515 -1.10597 0
M  V30 2076 H 200.89 -6.41752 -0.822377 0
M  V30 2077 N 201.022 0.148545 -1.56898 0
M  V30 2078 C 202.299 0.890019 -1.74178 0
M  V30 2079 C 202.679 1.99407 -0.692839 0
M  V30 2080 O 202.027 2.26671 0.288505 0
M  V30 2081 C 202.237 1.43389 -3.18183 0
M  V30 2082 C 203.585 1.89791 -3.79822 0
M  V30 2083 O 204.609 1.53134 -3.21603 0
M  V30 2084 O 203.468 2.57387 -4.82093 0
M  V30 2085 H 200.562 0.420496 -0.712118 0
M  V30 2086 H 203.108 0.134591 -1.69165 0
M  V30 2087 H 201.88 0.640383 -3.86024 0
M  V30 2088 H 201.503 2.25287 -3.27615 0
M  V30 2089 N 202.5 1.5196 0.417844 0
M  V30 2090 C 203.73 1.69181 1.18581 0
M  V30 2091 C 204.138 0.397104 1.84986 0
M  V30 2092 O 203.481 -0.636011 1.72339 0
M  V30 2093 C 203.543 2.76497 2.29759 0
M  V30 2094 C 203.207 4.18514 1.83563 0
M  V30 2095 C 204.204 5.02648 1.32821 0
M  V30 2096 C 201.889 4.64708 1.90661 0
M  V30 2097 C 203.883 6.31044 0.897894 0
M  V30 2098 C 201.57 5.93096 1.47241 0
M  V30 2099 C 202.568 6.76093 0.968891 0
M  V30 2100 O 202.256 8.02078 0.540924 0
M  V30 2101 H 201.988 0.570457 0.362705 0
M  V30 2102 H 204.542 1.99249 0.498885 0
M  V30 2103 H 202.772 2.41786 3.01789 0
M  V30 2104 H 204.461 2.82403 2.91553 0
M  V30 2105 H 205.227 4.68154 1.26716 0
M  V30 2106 H 201.106 4.00216 2.28797 0
M  V30 2107 H 204.65 6.95776 0.504192 0
M  V30 2108 H 200.547 6.271 1.53022 0
M  V30 2109 H 201.315 8.15794 0.66502 0
M  V30 2110 N 203.978 -0.674533 1.42435 0
M  V30 2111 C 204.941 -1.76986 1.45632 0
M  V30 2112 C 205.941 -1.5708 0.343871 0
M  V30 2113 O 207.131 -1.63367 0.604709 0
M  V30 2114 C 204.263 -3.15623 1.28822 0
M  V30 2115 H 205.456 -1.75539 2.43158 0
M  V30 2116 H 203.009 -0.884189 1.28887 0
M  V30 2117 H 203.744 -3.22696 0.322193 0
M  V30 2118 H 203.529 -3.31475 2.09444 0
M  V30 2119 H 205.019 -3.95537 1.33942 0
M  V30 2120 N 205.456 -1.28612 -0.910864 0
M  V30 2121 C 206.366 -1.14643 -2.0468 0
M  V30 2122 C 207.382 -0.0723121 -1.7385 0
M  V30 2123 O 208.558 -0.282178 -1.99413 0
M  V30 2124 C 205.623 -0.812561 -3.37044 0
M  V30 2125 C 204.684 -1.96935 -3.81465 0
M  V30 2126 C 203.917 -1.65131 -5.07511 0
M  V30 2127 O 204.14 -0.567013 -5.67575 0
M  V30 2128 O 203.074 -2.49585 -5.47714 0
M  V30 2129 H 206.9 -2.1001 -2.19384 0
M  V30 2130 H 204.485 -1.07958 -1.03274 0
M  V30 2131 H 206.367 -0.640441 -4.16505 0
M  V30 2132 H 205.042 0.111426 -3.23508 0
M  V30 2133 H 203.949 -2.19664 -3.02818 0
M  V30 2134 H 205.282 -2.87414 -3.99567 0
M  V30 2135 N 206.934 1.1197 -1.10907 0
M  V30 2136 C 208.181 1.83588 -0.854507 0
M  V30 2137 C 208.509 1.84357 0.6199 0
M  V30 2138 O 207.764 1.28809 1.47332 0
M  V30 2139 C 208.063 3.30749 -1.35425 0
M  V30 2140 C 207.729 3.50146 -2.84093 0
M  V30 2141 C 206.391 3.55148 -3.2469 0
M  V30 2142 C 208.743 3.56857 -3.79872 0
M  V30 2143 C 206.071 3.6441 -4.59806 0
M  V30 2144 C 208.423 3.6765 -5.14797 0
M  V30 2145 C 207.087 3.7091 -5.54961 0
M  V30 2146 H 206.357 0.671795 -0.312686 0
M  V30 2147 H 209.004 1.32091 -1.38652 0
M  V30 2148 H 207.309 3.84703 -0.742361 0
M  V30 2149 H 209.006 3.8464 -1.1337 0
M  V30 2150 H 205.596 3.46919 -2.51685 0
M  V30 2151 H 209.78 3.52258 -3.49611 0
M  V30 2152 H 205.036 3.65208 -4.9034 0
M  V30 2153 H 209.21 3.71786 -5.88853 0
M  V30 2154 H 206.837 3.7784 -6.59652 0
M  V30 2155 N 208.412 0.89855 1.29475 0
M  V30 2156 C 209.375 0.380272 2.26023 0
M  V30 2157 C 210.375 -0.484891 1.53315 0
M  V30 2158 O 211.565 -0.290108 1.71767 0
M  V30 2159 C 208.697 -0.45651 3.3783 0
M  V30 2160 H 209.89 1.23295 2.73383 0
M  V30 2161 H 207.443 0.676589 1.40897 0
M  V30 2162 H 208.178 -1.32922 2.95808 0
M  V30 2163 H 207.963 0.163393 3.91759 0
M  V30 2164 H 209.453 -0.810466 4.0966 0
M  V30 2165 N 209.89 -1.43072 0.660911 0
M  V30 2166 C 210.837 -2.30785 -0.0259884 0
M  V30 2167 C 211.807 -1.45184 -0.806888 0
M  V30 2168 O 212.992 -1.74041 -0.781943 0
M  V30 2169 C 210.132 -3.30861 -0.981067 0
M  V30 2170 C 209.245 -4.31558 -0.195458 0
M  V30 2171 C 208.38 -5.18712 -1.14503 0
M  V30 2172 C 207.419 -6.11097 -0.350299 0
M  V30 2173 N 206.556 -6.90849 -1.25186 0
M  V30 2174 H 211.396 -2.88975 0.727846 0
M  V30 2175 H 208.933 -1.42353 0.370682 0
M  V30 2176 H 210.891 -3.87399 -1.54849 0
M  V30 2177 H 209.521 -2.74304 -1.70169 0
M  V30 2178 H 208.573 -3.77252 0.488374 0
M  V30 2179 H 209.885 -4.9701 0.422176 0
M  V30 2180 H 209.039 -5.79914 -1.78284 0
M  V30 2181 H 207.778 -4.53404 -1.79656 0
M  V30 2182 H 206.783 -5.48976 0.300808 0
M  V30 2183 H 208.008 -6.7845 0.296941 0
M  V30 2184 H 205.954 -6.28182 -1.89005 0
M  V30 2185 H 205.871 -7.52854 -0.688971 0
M  V30 2186 H 207.139 -7.5655 -1.87757 0
M  V30 2187 N 211.368 -0.403325 -1.52352 0
M  V30 2188 C 212.593 0.176499 -2.06648 0
M  V30 2189 C 213.018 1.38577 -1.27193 0
M  V30 2190 O 212.376 1.7879 -0.300637 0
M  V30 2191 C 212.424 0.511061 -3.5696 0
M  V30 2192 O 211.528 1.60294 -3.79973 0
M  V30 2193 H 210.869 0.0167337 -0.663789 0
M  V30 2194 H 213.399 -0.574848 -1.96359 0
M  V30 2195 H 213.409 0.771362 -4.00642 0
M  V30 2196 H 212.084 -0.37296 -4.14224 0
M  V30 2197 H 210.661 1.33526 -3.48174 0
M  V30 2198 N 212.846 1.57033 -0.133567 0
M  V30 2199 C 213.776 2.1909 0.807567 0
M  V30 2200 C 214.757 1.13517 1.26681 0
M  V30 2201 O 215.942 1.41809 1.32679 0
M  V30 2202 C 213.072 2.80188 2.05212 0
M  V30 2203 C 212.026 3.91471 1.73015 0
M  V30 2204 C 211.352 4.39443 3.04622 0
M  V30 2205 C 212.652 5.12886 0.987168 0
M  V30 2206 H 214.346 2.97988 0.290403 0
M  V30 2207 H 211.892 1.43335 0.138239 0
M  V30 2208 H 213.845 3.22264 2.71521 0
M  V30 2209 H 212.569 1.98601 2.59278 0
M  V30 2210 H 211.228 3.49993 1.0909 0
M  V30 2211 H 210.876 3.54695 3.56651 0
M  V30 2212 H 210.576 5.14495 2.83847 0
M  V30 2213 H 212.1 4.8418 3.72024 0
M  V30 2214 H 213.514 5.51891 1.55208 0
M  V30 2215 H 211.911 5.93615 0.87985 0
M  V30 2216 H 212.981 4.84894 -0.0235286 0
M  V30 2217 N 214.325 -0.140222 1.56975 0
M  V30 2218 C 215.257 -1.19818 1.95388 0
M  V30 2219 C 216.27 -1.38816 0.850525 0
M  V30 2220 O 217.459 -1.38267 1.12891 0
M  V30 2221 C 214.559 -2.56189 2.21857 0
M  V30 2222 C 213.732 -2.58077 3.5315 0
M  V30 2223 C 212.791 -3.76037 3.6808 0
M  V30 2224 O 211.817 -3.60598 4.40406 0
M  V30 2225 N 213.019 -4.93763 3.05251 0
M  V30 2226 H 215.784 -0.871609 2.86746 0
M  V30 2227 H 213.345 -0.32972 1.58507 0
M  V30 2228 H 215.337 -3.33623 2.2908 0
M  V30 2229 H 213.907 -2.81111 1.36731 0
M  V30 2230 H 213.127 -1.6651 3.57307 0
M  V30 2231 H 214.415 -2.56377 4.39486 0
M  V30 2232 H 213.813 -5.09209 2.46419 0
M  V30 2233 H 212.37 -5.68949 3.18026 0
M  V30 2234 O 215.842 -1.58968 -0.284834 0
M  V30 2235 H 216.533 -1.69867 -0.930848 0
M  V30 END ATOM
M  V30 BEGIN BOND
M  V30 END BOND
M  V30 END CTAB
M  END
$$$$
