drugbank_target|Q8P9V9 Bacterioferritin comigratory protein (DB04640)
 OpenBabel12092120433D

  0  0  0     0  0            999 V3000
M  V30 BEGIN CTAB
M  V30 COUNTS 2435 2462 0 0 0
M  V30 BEGIN ATOM
M  V30 1 H -0.908 1.98254 -0.117106 0
M  V30 2 N 0 1.576 0 0
M  V30 3 C 0.933 2.03868 1.02534 0
M  V30 4 C 1.911 0.928543 1.3348 0
M  V30 5 O 3.095 1.19667 1.45644 0
M  V30 6 C 0.222 2.43627 2.35294 0
M  V30 7 C -0.732 3.65373 2.2001 0
M  V30 8 S 0.101 5.13292 1.52614 0
M  V30 9 C 1.257 5.56322 2.86805 0
M  V30 10 H 1.49 2.90518 0.631377 0
M  V30 11 H -0.977 1.52953 0.210867 0
M  V30 12 H 0.981 2.67203 3.11629 0
M  V30 13 H -0.358 1.57376 2.7183 0
M  V30 14 H -1.165 3.90944 3.18086 0
M  V30 15 H -1.563 3.418 1.51819 0
M  V30 16 H 0.729 5.58782 3.83104 0
M  V30 17 H 1.672 6.56266 2.65933 0
M  V30 18 H 2.08 4.83886 2.90714 0
M  V30 19 N 1.4781 -0.272755 1.55222 0
M  V30 20 C 2.7061 -1.02255 1.79865 0
M  V30 21 C 3.1211 -1.79924 0.572088 0
M  V30 22 O 2.4781 -1.76638 -0.458842 0
M  V30 23 C 2.5291 -1.98094 3.02392 0
M  V30 24 O 2.2501 -1.23572 4.20311 0
M  V30 25 C 3.7511 -2.84884 3.39641 0
M  V30 26 H 0.9711 -0.302057 0.599168 0
M  V30 27 H 3.5151 -0.303465 2.02236 0
M  V30 28 H 1.6701 -2.65465 2.82147 0
M  V30 29 H 2.0841 -1.88172 4.89583 0
M  V30 30 H 3.5581 -3.47927 4.28545 0
M  V30 31 H 4.0351 -3.54665 2.59055 0
M  V30 32 H 4.6411 -2.23003 3.62146 0
M  V30 33 N 2.9562 -1.48159 -0.537278 0
M  V30 34 C 4.2332 -1.46291 -1.29839 0
M  V30 35 C 4.6132 -0.170613 -2.10409 0
M  V30 36 O 3.9612 0.847746 -2.12192 0
M  V30 37 C 4.1712 -2.72055 -2.18603 0
M  V30 38 C 5.5192 -3.20087 -2.7898 0
M  V30 39 O 6.5432 -2.72921 -2.28894 0
M  V30 40 O 5.4022 -4.02138 -3.70064 0
M  V30 41 H 2.4962 -0.583906 -0.585647 0
M  V30 42 H 5.0422 -1.60384 -0.554534 0
M  V30 43 H 3.8142 -3.57628 -1.58801 0
M  V30 44 H 3.4372 -2.60646 -3.00249 0
M  V30 45 N 4.4343 0.785586 -1.36625 0
M  V30 46 C 5.3973 1.87999 -1.31107 0
M  V30 47 C 6.3973 1.59316 -0.217959 0
M  V30 48 O 7.5873 1.67656 -0.472977 0
M  V30 49 C 4.7193 3.24861 -1.03334 0
M  V30 50 H 5.9123 1.94307 -2.2844 0
M  V30 51 H 3.4653 0.983813 -1.21453 0
M  V30 52 H 4.2003 3.24235 -0.0647432 0
M  V30 53 H 3.9853 3.4707 -1.82441 0
M  V30 54 H 5.4753 4.04929 -1.02088 0
M  V30 55 N 5.9124 1.20967 1.01018 0
M  V30 56 C 7.1584 1.02526 1.74975 0
M  V30 57 C 7.4914 -0.4408 1.89131 0
M  V30 58 O 6.7664 -1.32718 1.42184 0
M  V30 59 C 7.0494 1.71699 3.1653 0
M  V30 60 C 6.9024 3.25791 3.10129 0
M  V30 61 C 8.2214 1.45531 4.15342 0
M  V30 62 H 5.3404 0.373863 0.635134 0
M  V30 63 H 7.9824 1.49071 1.17805 0
M  V30 64 H 6.1324 1.32128 3.65341 0
M  V30 65 H 7.8044 3.74697 2.69072 0
M  V30 66 H 6.0474 3.56363 2.47362 0
M  V30 67 H 6.7184 3.69353 4.10222 0
M  V30 68 H 9.1944 1.79872 3.75213 0
M  V30 69 H 8.0704 1.96453 5.1254 0
M  V30 70 H 8.3314 0.384237 4.40427 0
M  V30 71 N 7.3905 -1.2043 1.01659 0
M  V30 72 C 8.3205 -2.25466 0.607226 0
M  V30 73 C 9.3015 -1.65853 -0.377716 0
M  V30 74 O 10.4865 -1.92409 -0.263149 0
M  V30 75 C 7.6165 -3.47256 -0.0552949 0
M  V30 76 C 6.5705 -4.19462 0.850632 0
M  V30 77 C 5.8965 -5.34673 0.0538859 0
M  V30 78 C 7.1965 -4.75603 2.15868 0
M  V30 79 H 8.8905 -2.59962 1.48526 0
M  V30 80 H 6.4365 -1.2496 0.715605 0
M  V30 81 H 8.3895 -4.19917 -0.353233 0
M  V30 82 H 7.1135 -3.11924 -0.968045 0
M  V30 83 H 5.7725 -3.48667 1.13257 0
M  V30 84 H 5.4205 -4.95585 -0.860514 0
M  V30 85 H 5.1205 -5.83913 0.657192 0
M  V30 86 H 6.6445 -6.10138 -0.237598 0
M  V30 87 H 8.0585 -5.40083 1.92311 0
M  V30 88 H 6.4555 -5.3528 2.71284 0
M  V30 89 H 7.5255 -3.94346 2.82169 0
M  V30 90 N 8.8686 -0.792821 -1.36206 0
M  V30 91 C 9.7786 -0.194808 -2.3379 0
M  V30 92 C 10.7946 0.654869 -1.61206 0
M  V30 93 O 11.9706 0.569856 -1.9317 0
M  V30 94 C 9.0356 0.657721 -3.40404 0
M  V30 95 C 8.0966 -0.210849 -4.28782 0
M  V30 96 C 7.3296 0.601086 -5.30304 0
M  V30 97 O 7.5526 1.83682 -5.40016 0
M  V30 98 O 6.4866 -0.000808277 -6.019 0
M  V30 99 H 10.3126 -1.00172 -2.86704 0
M  V30 100 H 7.8976 -0.554341 -1.38735 0
M  V30 101 H 9.7796 1.14375 -4.05581 0
M  V30 102 H 8.4546 1.44247 -2.89784 0
M  V30 103 H 7.3616 -0.743714 -3.66633 0
M  V30 104 H 8.6946 -0.959195 -4.82763 0
M  V30 105 N 10.3467 1.47872 -0.545128 0
M  V30 106 C 11.2767 2.32661 0.197793 0
M  V30 107 C 12.2577 1.43041 0.920504 0
M  V30 108 O 13.4427 1.71912 0.90333 0
M  V30 109 C 10.5727 3.24569 1.23582 0
M  V30 110 C 9.5267 4.23333 0.630323 0
M  V30 111 C 8.8527 5.0448 1.77211 0
M  V30 112 C 10.1527 5.20704 -0.407974 0
M  V30 113 H 11.8467 2.95024 -0.510045 0
M  V30 114 H 9.3927 1.4187 -0.246731 0
M  V30 115 H 11.3457 3.8272 1.76362 0
M  V30 116 H 10.0697 2.60236 1.97344 0
M  V30 117 H 8.7287 3.6639 0.123922 0
M  V30 118 H 8.3767 4.36561 2.49847 0
M  V30 119 H 8.0767 5.71339 1.37281 0
M  V30 120 H 9.6007 5.65487 2.3034 0
M  V30 121 H 11.0147 5.7329 0.033305 0
M  V30 122 H 9.4117 5.95699 -0.725486 0
M  V30 123 H 10.4817 4.66917 -1.30828 0
M  V30 124 N 11.8248 0.280983 1.55075 0
M  V30 125 C 13.2358 -0.215629 1.85451 0
M  V30 126 C 13.5868 -1.54991 1.203 0
M  V30 127 O 12.7118 -2.10699 0.493435 0
M  V30 128 C 13.3068 -0.398026 3.36454 0
M  V30 129 C 11.8658 -0.838866 3.66933 0
M  V30 130 C 11.0128 0.064458 2.77225 0
M  V30 131 H 13.9638 0.502601 1.50531 0
M  V30 132 H 13.9848 -1.23569 3.59876 0
M  V30 133 H 13.4968 0.573241 3.83843 0
M  V30 134 H 11.5978 -1.8214 3.25048 0
M  V30 135 H 11.7108 -0.672123 4.74362 0
M  V30 136 H 10.0748 -0.452863 2.50642 0
M  V30 137 H 10.8578 1.03172 3.2743 0
M  V30 138 N 13.3029 -1.57598 0.00835791 0
M  V30 139 C 14.2659 -2.07884 -0.965242 0
M  V30 140 C 15.2659 -0.989825 -1.26725 0
M  V30 141 O 16.4559 -1.25218 -1.21104 0
M  V30 142 C 13.5879 -2.52731 -2.28779 0
M  V30 143 H 14.7809 -2.95178 -0.530112 0
M  V30 144 H 12.3339 -1.54458 -0.239283 0
M  V30 145 H 13.0689 -1.68705 -2.76964 0
M  V30 146 H 12.8539 -3.32272 -2.08177 0
M  V30 147 H 14.3439 -2.91933 -2.98605 0
M  V30 148 N 14.781 0.264519 -1.55364 0
M  V30 149 C 15.744 1.31046 -1.88042 0
M  V30 150 C 16.744 1.41943 -0.755569 0
M  V30 151 O 17.934 1.40947 -1.02369 0
M  V30 152 C 15.066 2.69067 -2.09323 0
M  V30 153 H 16.259 1.03297 -2.81549 0
M  V30 154 H 13.812 0.502989 -1.47986 0
M  V30 155 H 14.547 3.01982 -1.18226 0
M  V30 156 H 14.332 2.62542 -2.91229 0
M  V30 157 H 15.822 3.44623 -2.35848 0
M  V30 158 N 16.2591 1.48442 0.529413 0
M  V30 159 C 17.4871 1.60151 1.30994 0
M  V30 160 C 17.9021 0.261985 1.86973 0
M  V30 161 O 17.2591 -0.748805 1.66431 0
M  V30 162 C 17.3101 2.64854 2.46038 0
M  V30 163 O 17.0311 3.93608 1.92365 0
M  V30 164 C 18.5321 2.87007 3.37849 0
M  V30 165 H 15.7521 0.539971 0.398338 0
M  V30 166 H 18.2961 1.94273 0.638597 0
M  V30 167 H 16.4511 2.33589 3.09055 0
M  V30 168 H 16.8651 4.51055 2.67675 0
M  V30 169 H 18.3391 3.64068 4.14919 0
M  V30 170 H 18.8161 1.95852 3.93114 0
M  V30 171 H 19.4221 3.19579 2.80623 0
M  V30 172 N 17.7372 -0.778329 1.37039 0
M  V30 173 C 18.9842 -1.53665 1.31884 0
M  V30 174 C 19.3122 -1.9425 -0.0986303 0
M  V30 175 O 18.5672 -1.63832 -1.07041 0
M  V30 176 C 18.8662 -2.81845 2.19768 0
M  V30 177 C 18.5322 -2.60345 3.68146 0
M  V30 178 C 17.1942 -2.5419 4.08584 0
M  V30 179 C 19.5462 -2.40923 4.62175 0
M  V30 180 C 16.8742 -2.26594 5.41177 0
M  V30 181 C 19.2262 -2.14852 5.94997 0
M  V30 182 C 17.8902 -2.07137 6.34547 0
M  V30 183 H 17.1602 -0.562299 0.482598 0
M  V30 184 H 19.8072 -0.897069 1.69189 0
M  V30 185 H 18.1122 -3.50328 1.75436 0
M  V30 186 H 19.8092 -3.39692 2.13097 0
M  V30 187 H 16.3992 -2.65996 3.36072 0
M  V30 188 H 20.5832 -2.44673 4.31797 0
M  V30 189 H 15.8392 -2.19111 5.70789 0
M  V30 190 H 20.0132 -1.98822 6.67415 0
M  V30 191 H 17.6402 -1.85518 7.37216 0
M  V30 192 N 19.2153 -1.21501 -1.00376 0
M  V30 193 C 20.4923 -0.941745 -1.71437 0
M  V30 194 C 20.8723 0.546114 -2.03914 0
M  V30 195 O 20.2203 1.51128 -1.71384 0
M  V30 196 C 20.4303 -1.82812 -2.97289 0
M  V30 197 C 21.7783 -2.07771 -3.70292 0
M  V30 198 O 22.8023 -1.80171 -3.07273 0
M  V30 199 O 21.6613 -2.54456 -4.83647 0
M  V30 200 H 18.7553 -0.353243 -0.747762 0
M  V30 201 H 21.3013 -1.32436 -1.06108 0
M  V30 202 H 20.0733 -2.83501 -2.69709 0
M  V30 203 H 19.6963 -1.4464 -3.70358 0
M  V30 204 N 20.6934 1.19889 -1.02296 0
M  V30 205 C 21.6234 2.25141 -0.619174 0
M  V30 206 C 22.6044 1.66051 0.368915 0
M  V30 207 O 23.7894 1.92546 0.252941 0
M  V30 208 C 20.9194 3.4728 0.0368783 0
M  V30 209 C 19.8734 4.19005 -0.872865 0
M  V30 210 C 19.1994 5.34637 -0.0822402 0
M  V30 211 C 20.4994 4.74452 -2.18387 0
M  V30 212 H 22.1934 2.59171 -1.49903 0
M  V30 213 H 19.7394 1.24579 -0.722222 0
M  V30 214 H 21.6924 4.20098 0.330958 0
M  V30 215 H 20.4164 3.12433 0.95149 0
M  V30 216 H 19.0754 3.48061 -1.15105 0
M  V30 217 H 18.7234 4.96034 0.83422 0
M  V30 218 H 18.4234 5.83557 -0.688149 0
M  V30 219 H 19.9474 6.10255 0.205238 0
M  V30 220 H 21.3614 5.39055 -1.95172 0
M  V30 221 H 19.7584 5.33834 -2.74119 0
M  V30 222 H 20.8284 3.92844 -2.84257 0
M  V30 223 N 22.1715 0.800033 1.35784 0
M  V30 224 C 23.5825 0.439142 1.81462 0
M  V30 225 C 23.9335 -1.03813 1.66485 0
M  V30 226 O 23.0585 -1.80626 1.19177 0
M  V30 227 C 23.6535 0.790314 3.29453 0
M  V30 228 C 22.2125 0.482111 3.733 0
M  V30 229 C 21.3595 1.01938 2.57883 0
M  V30 230 H 24.3105 0.992254 1.23855 0
M  V30 231 H 24.3315 0.0853677 3.80404 0
M  V30 232 H 23.8435 1.86554 3.40322 0
M  V30 233 H 21.9445 -0.584652 3.67984 0
M  V30 234 H 22.0575 1.01015 4.6833 0
M  V30 235 H 20.4215 0.442043 2.50835 0
M  V30 236 H 21.2045 2.10059 2.71533 0
M  V30 237 N 23.6496 -1.47581 0.552962 0
M  V30 238 C 24.5796 -2.32762 -0.185451 0
M  V30 239 C 25.5606 -1.43527 -0.912905 0
M  V30 240 O 26.7456 -1.72388 -0.894201 0
M  V30 241 C 23.8756 -3.25219 -1.21859 0
M  V30 242 C 22.8296 -4.23661 -0.607864 0
M  V30 243 C 22.1556 -5.05413 -1.74533 0
M  V30 244 C 23.4556 -5.20481 0.435582 0
M  V30 245 H 25.1496 -2.94749 0.525684 0
M  V30 246 H 22.6956 -1.41738 0.254251 0
M  V30 247 H 24.6486 -3.8365 -1.7433 0
M  V30 248 H 23.3726 -2.61279 -1.95961 0
M  V30 249 H 22.0316 -3.66451 -0.104489 0
M  V30 250 H 21.6796 -4.3788 -2.47529 0
M  V30 251 H 21.3796 -5.72059 -1.34249 0
M  V30 252 H 22.9036 -5.66701 -2.27338 0
M  V30 253 H 24.3176 -5.733 -0.00290157 0
M  V30 254 H 22.7146 -5.95305 0.757067 0
M  V30 255 H 23.7846 -4.66217 1.33303 0
M  V30 256 N 25.1277 -0.289203 -1.54924 0
M  V30 257 C 26.3527 0.329299 -2.04769 0
M  V30 258 C 26.7777 1.4763 -1.16564 0
M  V30 259 O 26.1357 1.80527 -0.167186 0
M  V30 260 C 26.1837 0.774438 -3.52186 0
M  V30 261 O 25.2877 1.88038 -3.67036 0
M  V30 262 H 24.6287 0.0659259 -0.660719 0
M  V30 263 H 27.1587 -0.42761 -2.00082 0
M  V30 264 H 27.1687 1.06642 -3.93816 0
M  V30 265 H 25.8437 -0.0646707 -4.1585 0
M  V30 266 H 24.4207 1.58985 -3.3731 0
M  V30 267 N 26.6058 1.57591 -0.0167156 0
M  V30 268 C 27.5358 2.12496 0.967858 0
M  V30 269 C 28.5168 1.03807 1.34752 0
M  V30 270 O 29.7018 1.31577 1.42833 0
M  V30 271 C 26.8318 2.64194 2.25431 0
M  V30 272 C 25.7858 3.77559 2.01576 0
M  V30 273 C 25.1118 4.15636 3.36379 0
M  V30 274 C 26.4118 5.04151 1.36489 0
M  V30 275 H 28.1058 2.95013 0.510643 0
M  V30 276 H 25.6518 1.41915 0.244181 0
M  V30 277 H 27.6048 3.01236 2.94678 0
M  V30 278 H 26.3288 1.78821 2.73296 0
M  V30 279 H 24.9878 3.40937 1.34751 0
M  V30 280 H 24.6358 3.27263 3.81979 0
M  V30 281 H 24.3358 4.92022 3.21229 0
M  V30 282 H 25.8598 4.5525 4.06915 0
M  V30 283 H 27.2738 5.38857 1.95718 0
M  V30 284 H 25.6708 5.85453 1.31776 0
M  V30 285 H 26.7408 4.83733 0.336219 0
M  V30 286 N 28.0839 -0.256276 1.55502 0
M  V30 287 C 29.3089 -1.00766 1.81276 0
M  V30 288 C 29.7339 -1.78524 0.59252 0
M  V30 289 O 29.0919 -1.75413 -0.45827 0
M  V30 290 C 29.1399 -1.92869 3.04687 0
M  V30 291 O 28.2439 -3.019 2.80945 0
M  V30 292 H 27.5849 -0.287224 0.598664 0
M  V30 293 H 30.1149 -0.280109 2.02674 0
M  V30 294 H 30.1249 -2.34511 3.33869 0
M  V30 295 H 28.7999 -1.35689 3.93143 0
M  V30 296 H 27.3769 -2.64454 2.62904 0
M  V30 297 N 29.562 -1.4872 -0.521534 0
M  V30 298 C 30.81 -1.56857 -1.27437 0
M  V30 299 C 31.131 -0.247982 -1.93417 0
M  V30 300 O 30.401 0.731151 -1.81744 0
M  V30 301 H 28.981 -0.577885 -0.473347 0
M  V30 302 H 31.643 -1.85233 -0.606205 0
M  V30 303 H 30.739 -2.35402 -2.0492 0
M  V30 304 N 31.0401 0.771051 -1.3745 0
M  V30 305 C 32.2881 1.52661 -1.32435 0
M  V30 306 C 32.6091 1.9479 0.0905024 0
M  V30 307 O 31.8791 1.66348 1.03466 0
M  V30 308 H 30.4591 0.566218 -0.487244 0
M  V30 309 H 33.1211 0.917636 -1.71946 0
M  V30 310 H 32.2171 2.42568 -1.96385 0
M  V30 311 N 32.5182 1.22032 0.997298 0
M  V30 312 C 33.7462 1.06841 1.7718 0
M  V30 313 C 34.1612 -0.381325 1.84909 0
M  V30 314 O 33.5182 -1.26437 1.31605 0
M  V30 315 C 33.5692 1.66814 3.20711 0
M  V30 316 O 33.2902 3.06116 3.13408 0
M  V30 317 C 34.7912 1.56838 4.14628 0
M  V30 318 H 32.0112 0.374782 0.556578 0
M  V30 319 H 34.5552 1.61532 1.2541 0
M  V30 320 H 32.7102 1.16196 3.69564 0
M  V30 321 H 33.1242 3.34926 4.0364 0
M  V30 322 H 34.5982 2.03532 5.13107 0
M  V30 323 H 35.0752 0.524155 4.36061 0
M  V30 324 H 35.6812 2.06741 3.7167 0
M  V30 325 N 33.9963 -1.19345 1.0293 0
M  V30 326 C 34.9283 -2.22036 0.56857 0
M  V30 327 C 35.9413 -1.58865 -0.355779 0
M  V30 328 O 37.1303 -1.77851 -0.152103 0
M  V30 329 C 34.2303 -3.38363 -0.190752 0
M  V30 330 C 33.4033 -4.31118 0.738643 0
M  V30 331 C 32.4623 -5.26194 0.0246497 0
M  V30 332 O 31.4883 -5.65461 0.651354 0
M  V30 333 N 32.6903 -5.66971 -1.24594 0
M  V30 334 H 35.4553 -2.6219 1.45177 0
M  V30 335 H 33.0163 -1.34015 0.908381 0
M  V30 336 H 35.0083 -3.98981 -0.677961 0
M  V30 337 H 33.5783 -2.96994 -0.975366 0
M  V30 338 H 32.7983 -3.68276 1.40593 0
M  V30 339 H 34.0863 -4.90001 1.37029 0
M  V30 340 H 33.4843 -5.37104 -1.77583 0
M  V30 341 H 32.0413 -6.2984 -1.67764 0
M  V30 342 N 35.4744 -0.807222 -1.35358 0
M  V30 343 C 36.7024 -0.400377 -2.02989 0
M  V30 344 C 37.1174 0.988859 -1.60832 0
M  V30 345 O 36.4744 1.63729 -0.806175 0
M  V30 346 C 36.5254 -0.474867 -3.58368 0
M  V30 347 O 36.2464 -1.80933 -3.98992 0
M  V30 348 C 37.7474 -0.0609112 -4.43258 0
M  V30 349 H 34.9674 -0.162587 -0.651004 0
M  V30 350 H 37.5114 -1.09102 -1.72965 0
M  V30 351 H 35.6664 0.167534 -3.87038 0
M  V30 352 H 36.0804 -1.77256 -4.9364 0
M  V30 353 H 37.5544 -0.164145 -5.51756 0
M  V30 354 H 38.0314 0.993831 -4.27808 0
M  V30 355 H 38.6374 -0.676492 -4.19885 0
M  V30 356 N 36.9525 1.47285 -0.560781 0
M  V30 357 C 38.1805 2.06855 -0.0430262 0
M  V30 358 C 38.5955 1.41291 1.25229 0
M  V30 359 O 37.9525 0.510648 1.7521 0
M  V30 360 C 38.0035 3.61178 0.152518 0
M  V30 361 O 37.7245 4.24285 -1.0915 0
M  V30 362 C 39.2255 4.37624 0.707145 0
M  V30 363 H 36.4455 0.669319 -0.0474652 0
M  V30 364 H 38.9895 1.89237 -0.77521 0
M  V30 365 H 37.1445 3.78298 0.834843 0
M  V30 366 H 37.5585 5.16868 -0.891482 0
M  V30 367 H 39.0325 5.46271 0.793244 0
M  V30 368 H 39.5095 4.04152 1.71923 0
M  V30 369 H 40.1155 4.25257 0.0604027 0
M  V30 370 N 38.4306 0.297415 1.54768 0
M  V30 371 C 39.3606 -0.573494 2.26348 0
M  V30 372 C 40.3416 -1.14085 1.26169 0
M  V30 373 O 41.5266 -1.17086 1.54934 0
M  V30 374 C 38.6566 -1.74716 3.00153 0
M  V30 375 C 37.6106 -1.31032 4.07449 0
M  V30 376 C 36.9366 -2.56887 4.68949 0
M  V30 377 C 38.2366 -0.444183 5.20408 0
M  V30 378 H 39.9306 0.0235131 2.99391 0
M  V30 379 H 37.4766 0.0127488 1.43994 0
M  V30 380 H 39.4296 -2.3625 3.48947 0
M  V30 381 H 38.1536 -2.37035 2.24682 0
M  V30 382 H 36.8126 -0.718066 3.59499 0
M  V30 383 H 36.4606 -3.17512 3.90122 0
M  V30 384 H 36.1606 -2.2836 5.41411 0
M  V30 385 H 37.6846 -3.19229 5.20505 0
M  V30 386 H 39.0986 -0.9651 5.65118 0
M  V30 387 H 37.4956 -0.252846 5.99567 0
M  V30 388 H 38.5656 0.531609 4.81977 0
M  V30 389 N 39.9087 -1.5758 0.0250728 0
M  V30 390 C 41.3247 -1.56124 -0.331282 0
M  V30 391 C 41.5247 -1.03029 -1.73169 0
M  V30 392 O 40.5807 -0.675215 -2.43305 0
M  V30 393 C 41.8937 -3.00139 -0.183584 0
M  V30 394 C 43.4417 -3.11946 -0.256654 0
M  V30 395 C 43.9167 -4.57793 -0.137792 0
M  V30 396 N 45.4077 -4.6279 -0.194904 0
M  V30 397 C 46.1427 -5.7326 -0.126655 0
M  V30 398 N 45.6387 -6.928 -0.00755288 0
M  V30 399 N 47.4317 -5.61811 -0.180348 0
M  V30 400 H 39.5827 -1.90424 0.94087 0
M  V30 401 H 41.8457 -0.875761 0.362968 0
M  V30 402 H 41.5517 -3.4292 0.780927 0
M  V30 403 H 41.4257 -3.64899 -0.955448 0
M  V30 404 H 43.8127 -2.69079 -1.21162 0
M  V30 405 H 43.8937 -2.49915 0.545517 0
M  V30 406 H 43.5377 -5.01339 0.813739 0
M  V30 407 H 43.4677 -5.17798 -0.958775 0
M  V30 408 H 45.9587 -3.76807 -0.287267 0
M  V30 409 H 46.2717 -7.72791 0.0379428 0
M  V30 410 H 44.6167 -6.94995 0.0271731 0
M  V30 411 H 47.8077 -4.6731 -0.271767 0
M  V30 412 H 47.9807 -6.47882 -0.123697 0
M  V30 413 N 41.3868 0.248026 -1.55636 0
M  V30 414 C 42.3498 1.29044 -1.89421 0
M  V30 415 C 43.3498 1.41134 -0.770581 0
M  V30 416 O 44.5398 1.39854 -1.03858 0
M  V30 417 C 41.6718 2.66831 -2.12165 0
M  V30 418 H 42.8648 1.00305 -2.82629 0
M  V30 419 H 40.4178 0.487265 -1.48511 0
M  V30 420 H 41.1528 3.00711 -1.21422 0
M  V30 421 H 40.9378 2.59438 -2.93997 0
M  V30 422 H 42.4278 3.42103 -2.3949 0
M  V30 423 N 42.8649 1.48995 0.513639 0
M  V30 424 C 43.8149 1.61127 1.61314 0
M  V30 425 C 44.7989 0.467521 1.53958 0
M  V30 426 O 45.9909 0.719826 1.61702 0
M  V30 427 C 43.1199 1.66937 2.99978 0
M  V30 428 C 42.2059 2.86847 3.12377 0
M  V30 429 N 42.5969 4.11078 2.94701 0
M  V30 430 C 40.8949 2.84521 3.43459 0
M  V30 431 C 41.5959 4.91615 3.10949 0
M  V30 432 N 40.5719 4.24739 3.3926 0
M  V30 433 H 44.3739 2.54909 1.46282 0
M  V30 434 H 41.8879 1.45593 0.719483 0
M  V30 435 H 43.8849 1.73725 3.78979 0
M  V30 436 H 42.5449 0.742831 3.16089 0
M  V30 437 H 43.5559 4.41258 2.71131 0
M  V30 438 H 40.2329 2.01192 3.65825 0
M  V30 439 H 41.6229 6.00264 3.01882 0
M  V30 440 N 44.343 -0.763751 1.37857 0
M  V30 441 C 45.306 -1.85889 1.34081 0
M  V30 442 C 46.306 -1.58949 0.243277 0
M  V30 443 O 47.496 -1.66882 0.499589 0
M  V30 444 C 44.628 -3.23176 1.08489 0
M  V30 445 H 45.821 -1.90648 2.31502 0
M  V30 446 H 43.374 -0.964367 1.23003 0
M  V30 447 H 44.109 -3.24091 0.116318 0
M  V30 448 H 43.894 -3.44124 1.8794 0
M  V30 449 H 45.384 -4.03254 1.08517 0
M  V30 450 N 45.8211 -1.22559 -0.990812 0
M  V30 451 C 47.0691 -1.04933 -1.72724 0
M  V30 452 C 47.3901 0.416158 -1.90508 0
M  V30 453 O 46.6601 1.29918 -1.46622 0
M  V30 454 H 45.2401 -0.385296 -0.639965 0
M  V30 455 H 47.9021 -1.54105 -1.19322 0
M  V30 456 H 46.9981 -1.52886 -2.72089 0
M  V30 457 N 47.2992 1.18797 -1.03562 0
M  V30 458 C 48.2492 2.20161 -0.592724 0
M  V30 459 C 49.2332 1.56772 0.362133 0
M  V30 460 O 50.4252 1.76062 0.182009 0
M  V30 461 C 47.5542 3.43266 0.0481024 0
M  V30 462 C 46.6402 4.13786 -0.9296 0
M  V30 463 N 47.0312 4.60388 -2.09467 0
M  V30 464 C 45.3292 4.39572 -0.754499 0
M  V30 465 C 46.0302 5.14619 -2.71187 0
M  V30 466 N 45.0062 5.05826 -1.991 0
M  V30 467 H 48.8082 2.53877 -1.48066 0
M  V30 468 H 46.3222 1.34946 -0.903514 0
M  V30 469 H 48.3192 4.15136 0.383058 0
M  V30 470 H 46.9792 3.11048 0.931636 0
M  V30 471 H 47.9902 4.54999 -2.47379 0
M  V30 472 H 44.6672 4.17425 0.0793713 0
M  V30 473 H 46.0572 5.60917 -3.69895 0
M  V30 474 N 48.7773 0.814389 1.34928 0
M  V30 475 C 50.0233 0.408167 1.99263 0
M  V30 476 C 50.3783 -1.0154 1.63424 0
M  V30 477 O 49.6713 -1.69607 0.891289 0
M  V30 478 C 49.8653 0.537781 3.53331 0
M  V30 479 C 49.6943 1.9724 4.04137 0
M  V30 480 C 48.4643 2.60245 4.33129 0
M  V30 481 C 50.6623 2.93801 4.2212 0
M  V30 482 N 48.6443 3.95036 4.69914 0
M  V30 483 C 50.0153 4.1348 4.6199 0
M  V30 484 C 52.0703 2.9053 4.04348 0
M  V30 485 C 50.7733 5.3033 4.85945 0
M  V30 486 C 52.7993 4.06589 4.29464 0
M  V30 487 C 52.1613 5.25017 4.69613 0
M  V30 488 H 48.2603 0.197289 0.756704 0
M  V30 489 H 50.8443 1.05728 1.63492 0
M  V30 490 H 49.0153 -0.0813868 3.88315 0
M  V30 491 H 50.7473 0.105389 4.04563 0
M  V30 492 H 47.5023 2.11545 4.23728 0
M  V30 493 H 47.9263 4.64455 4.92555 0
M  V30 494 H 52.5683 2.00115 3.72443 0
M  V30 495 H 50.2863 6.21309 5.16721 0
M  V30 496 H 53.8723 4.05447 4.17257 0
M  V30 497 H 52.7523 6.1333 4.88667 0
M  V30 498 N 50.2554 -1.46986 0.568584 0
M  V30 499 C 51.1854 -2.32946 -0.160753 0
M  V30 500 C 52.1664 -1.44487 -0.897631 0
M  V30 501 O 53.3514 -1.73327 -0.875867 0
M  V30 502 C 50.4814 -3.26494 -1.18403 0
M  V30 503 C 49.4354 -4.24282 -0.562895 0
M  V30 504 C 48.7614 -5.07236 -1.69163 0
M  V30 505 C 50.0614 -5.19989 0.490761 0
M  V30 506 H 51.7554 -2.94175 0.556916 0
M  V30 507 H 49.3014 -1.4146 0.26927 0
M  V30 508 H 51.2544 -3.85477 -1.70251 0
M  V30 509 H 49.9784 -2.63343 -1.93179 0
M  V30 510 H 48.6374 -3.66541 -0.0656164 0
M  V30 511 H 48.2854 -4.4048 -2.42871 0
M  V30 512 H 47.9854 -5.7345 -1.28174 0
M  V30 513 H 49.5094 -5.6908 -2.21314 0
M  V30 514 H 50.9234 -5.73271 0.0579047 0
M  V30 515 H 49.3204 -5.94469 0.820165 0
M  V30 516 H 50.3904 -4.64777 1.3824 0
M  V30 517 N 51.7335 -0.305618 -1.54608 0
M  V30 518 C 52.9795 0.302746 -2.00528 0
M  V30 519 C 53.3125 1.53184 -1.19367 0
M  V30 520 O 52.5875 1.92598 -0.271321 0
M  V30 521 C 52.8705 0.654756 -3.54097 0
M  V30 522 C 52.7235 -0.583793 -4.45995 0
M  V30 523 C 54.0425 1.47947 -4.14487 0
M  V30 524 H 51.1615 0.108564 -0.72896 0
M  V30 525 H 53.8035 -0.418634 -1.85331 0
M  V30 526 H 51.9535 1.26935 -3.67178 0
M  V30 527 H 53.6255 -1.22224 -4.44814 0
M  V30 528 H 51.8685 -1.21615 -4.16404 0
M  V30 529 H 52.5395 -0.293287 -5.5122 0
M  V30 530 H 55.0155 0.96013 -4.04871 0
M  V30 531 H 53.8915 1.69454 -5.22088 0
M  V30 532 H 54.1525 2.47011 -3.66658 0
M  V30 533 N 53.2116 1.57565 -0.0334293 0
M  V30 534 C 54.4606 1.91155 0.643639 0
M  V30 535 C 54.7736 0.91192 1.73042 0
M  V30 536 O 55.9796 1.13923 2.46442 0
M  V30 537 C 54.4356 3.39443 1.1961 0
M  V30 538 C 54.0436 4.47774 0.142381 0
M  V30 539 C 55.7876 3.82094 1.84944 0
M  V30 540 C 53.6946 5.87162 0.706727 0
M  V30 541 H 52.6246 0.713368 0.244176 0
M  V30 542 H 55.2756 1.8323 -0.0994323 0
M  V30 543 H 53.6576 3.42313 1.99092 0
M  V30 544 H 54.8316 4.56469 -0.630296 0
M  V30 545 H 53.1466 4.14352 -0.412446 0
M  V30 546 H 55.7436 4.83591 2.2813 0
M  V30 547 H 56.0866 3.17386 2.69392 0
M  V30 548 H 56.6196 3.81665 1.12145 0
M  V30 549 H 53.3586 6.55424 -0.0997178 0
M  V30 550 H 52.8786 5.82064 1.44779 0
M  V30 551 H 54.5576 6.35866 1.19514 0
M  V30 552 N 54.6897 -0.239769 1.55765 0
M  V30 553 C 55.9197 -0.982743 1.8173 0
M  V30 554 C 56.3277 -1.7917 0.607835 0
M  V30 555 O 55.6707 -1.78525 -0.432973 0
M  V30 556 C 55.7327 -1.96332 3.01155 0
M  V30 557 C 55.3967 -1.34062 4.36894 0
M  V30 558 C 56.3937 -0.739539 5.14613 0
M  V30 559 C 54.0787 -1.35784 4.83599 0
M  V30 560 C 56.0727 -0.163989 6.37189 0
M  V30 561 C 53.7597 -0.778441 6.06122 0
M  V30 562 C 54.7577 -0.182548 6.82756 0
M  V30 563 O 54.4457 0.387887 8.02964 0
M  V30 564 H 54.1777 -0.294481 0.608487 0
M  V30 565 H 56.7317 -0.26572 2.03674 0
M  V30 566 H 54.9617 -2.71884 2.74984 0
M  V30 567 H 56.6507 -2.57032 3.14149 0
M  V30 568 H 57.4167 -0.718687 4.79646 0
M  V30 569 H 53.2957 -1.81105 4.23936 0
M  V30 570 H 56.8397 0.301753 6.96947 0
M  V30 571 H 52.7367 -0.796645 6.40565 0
M  V30 572 H 53.5047 0.28044 8.18019 0
M  V30 573 N 56.1678 -1.49265 -0.50573 0
M  V30 574 C 57.4148 -1.58513 -1.26015 0
M  V30 575 C 57.7428 -0.26972 -1.92621 0
M  V30 576 O 56.9978 0.741997 -1.81088 0
M  V30 577 C 57.2968 -2.69008 -2.35308 0
M  V30 578 C 56.9628 -4.10662 -1.86192 0
M  V30 579 C 55.6248 -4.49212 -1.72516 0
M  V30 580 C 57.9768 -4.99336 -1.49375 0
M  V30 581 C 55.3048 -5.74214 -1.20394 0
M  V30 582 C 57.6568 -6.24852 -0.987072 0
M  V30 583 C 56.3208 -6.62236 -0.836669 0
M  V30 584 H 55.5908 -0.580041 -0.461122 0
M  V30 585 H 58.2378 -1.83078 -0.561665 0
M  V30 586 H 56.5428 -2.38396 -3.10926 0
M  V30 587 H 58.2398 -2.73373 -2.93374 0
M  V30 588 H 54.8298 -3.8023 -1.97795 0
M  V30 589 H 59.0138 -4.70212 -1.5879 0
M  V30 590 H 54.2698 -6.01883 -1.07458 0
M  V30 591 H 58.4438 -6.92944 -0.692983 0
M  V30 592 H 56.0708 -7.58979 -0.430607 0
M  V30 593 N 57.6459 0.756429 -1.3826 0
M  V30 594 C 58.8759 1.54341 -1.3734 0
M  V30 595 C 59.2839 1.89159 0.0393917 0
M  V30 596 O 58.6269 1.5307 1.01565 0
M  V30 597 C 58.6889 2.87238 -2.16182 0
M  V30 598 C 58.3529 2.74973 -3.65019 0
M  V30 599 C 59.3499 2.44962 -4.58574 0
M  V30 600 C 57.0349 2.92515 -4.08338 0
M  V30 601 C 59.0289 2.32642 -5.93428 0
M  V30 602 C 56.7159 2.79815 -5.43274 0
M  V30 603 C 57.7139 2.49921 -6.35632 0
M  V30 604 O 57.4019 2.37275 -7.68086 0
M  V30 605 H 57.1339 0.484281 -0.471643 0
M  V30 606 H 59.6879 0.944152 -1.82414 0
M  V30 607 H 57.9179 3.49342 -1.65822 0
M  V30 608 H 59.6069 3.48731 -2.07705 0
M  V30 609 H 60.3729 2.31081 -4.26412 0
M  V30 610 H 56.2519 3.14781 -3.368 0
M  V30 611 H 59.7959 2.0923 -6.65484 0
M  V30 612 H 55.6929 2.93269 -5.75034 0
M  V30 613 H 56.4609 2.52509 -7.78577 0
M  V30 614 N 59.124 1.23083 0.984299 0
M  V30 615 C 60.535 1.05609 1.5396 0
M  V30 616 C 60.886 -0.377793 1.92528 0
M  V30 617 O 60.011 -1.26398 1.75649 0
M  V30 618 C 60.606 1.91087 2.7977 0
M  V30 619 C 59.165 1.77885 3.31713 0
M  V30 620 C 58.312 1.87028 2.04733 0
M  V30 621 H 61.263 1.36802 0.804419 0
M  V30 622 H 61.284 1.43336 3.5247 0
M  V30 623 H 60.796 2.9544 2.51668 0
M  V30 624 H 58.897 0.762995 3.64704 0
M  V30 625 H 59.01 2.61047 4.01735 0
M  V30 626 H 57.374 1.30565 2.18689 0
M  V30 627 H 58.157 2.92929 1.79017 0
M  V30 628 N 60.6021 -1.18246 1.0419 0
M  V30 629 C 61.5491 -2.2192 0.634037 0
M  V30 630 C 62.5191 -1.62179 -0.358765 0
M  V30 631 O 63.7041 -1.89122 -0.252466 0
M  V30 632 C 60.8441 -3.451 0.00445535 0
M  V30 633 C 59.9571 -4.19174 1.04487 0
M  V30 634 C 59.0921 -5.29813 0.383676 0
M  V30 635 C 58.1311 -5.9566 1.4091 0
M  V30 636 N 57.2681 -6.97834 0.772784 0
M  V30 637 H 62.1081 -2.56164 1.52263 0
M  V30 638 H 59.6451 -1.25843 0.761701 0
M  V30 639 H 61.6031 -4.15485 -0.377919 0
M  V30 640 H 60.2331 -3.11472 -0.847652 0
M  V30 641 H 59.2851 -3.47604 1.54518 0
M  V30 642 H 60.5971 -4.64267 1.82368 0
M  V30 643 H 59.7511 -6.06677 -0.0528366 0
M  V30 644 H 58.4901 -4.85825 -0.427208 0
M  V30 645 H 57.4951 -5.17535 1.85574 0
M  V30 646 H 58.7201 -6.4173 2.22171 0
M  V30 647 H 56.6661 -6.55998 -0.0177708 0
M  V30 648 H 56.5831 -7.41186 1.48928 0
M  V30 649 H 57.8511 -7.78665 0.36071 0
M  V30 650 N 62.0802 -0.821533 -1.34494 0
M  V30 651 C 63.3572 -0.33159 -1.92769 0
M  V30 652 C 63.7372 1.18088 -1.74981 0
M  V30 653 O 63.0852 1.98733 -1.12772 0
M  V30 654 C 63.2952 -0.759398 -3.40638 0
M  V30 655 C 64.6432 -0.757433 -4.1779 0
M  V30 656 O 65.6672 -0.70189 -3.49216 0
M  V30 657 O 64.5262 -0.829361 -5.4017 0
M  V30 658 H 61.6202 -0.0902502 -0.822061 0
M  V30 659 H 64.1662 -0.906231 -1.43477 0
M  V30 660 H 62.9382 -1.8012 -3.47379 0
M  V30 661 H 62.5612 -0.160378 -3.97276 0
M  V30 662 N 63.5583 1.46682 -0.576371 0
M  V30 663 C 64.7833 2.07304 -0.0630475 0
M  V30 664 C 65.2083 1.42329 1.2298 0
M  V30 665 O 64.5663 0.504865 1.74129 0
M  V30 666 C 64.6143 3.60472 0.095895 0
M  V30 667 O 63.7183 3.95927 1.15394 0
M  V30 668 H 63.0593 0.661288 -0.0599463 0
M  V30 669 H 65.5893 1.88417 -0.797511 0
M  V30 670 H 65.5993 4.06865 0.304071 0
M  V30 671 H 64.2743 4.07157 -0.84828 0
M  V30 672 H 62.8513 3.61252 0.924724 0
M  V30 673 N 65.0364 0.313813 1.54444 0
M  V30 674 C 66.2644 -0.293918 2.04802 0
M  V30 675 C 66.6794 -1.46537 1.19047 0
M  V30 676 O 66.0364 -1.81182 0.218939 0
M  V30 677 C 66.0874 -0.737806 3.53891 0
M  V30 678 O 65.8084 0.387038 4.36387 0
M  V30 679 C 67.3094 -1.40936 4.203 0
M  V30 680 H 64.5294 -0.0620057 0.668129 0
M  V30 681 H 67.0734 0.457169 1.99324 0
M  V30 682 H 65.2284 -1.43889 3.59687 0
M  V30 683 H 65.6424 0.0391274 5.24485 0
M  V30 684 H 67.1164 -1.67099 5.26101 0
M  V30 685 H 67.5934 -2.35355 3.70816 0
M  V30 686 H 68.1994 -0.751117 4.18615 0
M  V30 687 N 66.5145 -1.57545 0.0417849 0
M  V30 688 C 67.9255 -1.80011 -0.495259 0
M  V30 689 C 68.2765 -0.953199 -1.71489 0
M  V30 690 O 67.4015 -0.167138 -2.15754 0
M  V30 691 C 67.9965 -3.26482 -0.905265 0
M  V30 692 C 66.5555 -3.499 -1.38734 0
M  V30 693 C 65.7025 -2.74979 -0.358056 0
M  V30 694 H 68.6535 -1.56425 0.267736 0
M  V30 695 H 68.6745 -3.36887 -1.76882 0
M  V30 696 H 68.1865 -3.88096 -0.017401 0
M  V30 697 H 66.2875 -2.93553 -2.29471 0
M  V30 698 H 66.4005 -4.58615 -1.38598 0
M  V30 699 H 64.7645 -2.40834 -0.828912 0
M  V30 700 H 65.5475 -3.39315 0.521561 0
M  V30 701 N 67.9926 0.231505 -1.5589 0
M  V30 702 C 69.2406 0.955461 -1.78088 0
M  V30 703 C 69.5616 1.85262 -0.608533 0
M  V30 704 O 68.8316 1.92277 0.375035 0
M  V30 705 H 67.4116 0.355787 -0.656829 0
M  V30 706 H 70.0736 0.245751 -1.93344 0
M  V30 707 H 69.1696 1.56814 -2.69844 0
M  V30 708 N 69.4707 1.49531 0.497807 0
M  V30 709 C 70.7107 1.60799 1.26187 0
M  V30 710 C 71.0747 0.289627 1.89803 0
M  V30 711 O 72.2757 0.277512 2.67364 0
M  V30 712 C 70.5467 2.73729 2.29798 0
M  V30 713 S 72.1057 3.04968 3.155 0
M  V30 714 H 68.9237 0.567145 0.428798 0
M  V30 715 H 71.5257 1.87204 0.563477 0
M  V30 716 H 70.2297 3.68036 1.81597 0
M  V30 717 H 69.7607 2.49328 3.04301 0
M  V30 718 H 71.7757 2.46735 4.30507 0
M  V30 719 N 70.9488 -0.749086 1.3866 0
M  V30 720 C 72.1768 -1.53834 1.38358 0
M  V30 721 C 72.5918 -1.88783 -0.0255219 0
M  V30 722 O 71.9488 -1.53101 -0.993292 0
M  V30 723 C 71.9998 -2.83468 2.2434 0
M  V30 724 O 71.7208 -2.50008 3.5976 0
M  V30 725 C 73.2218 -3.7758 2.32267 0
M  V30 726 H 70.4418 -0.47585 0.473083 0
M  V30 727 H 72.9858 -0.926726 1.82297 0
M  V30 728 H 71.1408 -3.40995 1.83851 0
M  V30 729 H 71.5548 -3.33182 4.05081 0
M  V30 730 H 73.0288 -4.65478 2.96706 0
M  V30 731 H 73.5058 -4.18334 1.33765 0
M  V30 732 H 74.1118 -3.25976 2.73166 0
M  V30 733 N 72.4269 -1.23603 -0.977757 0
M  V30 734 C 73.6549 -1.09646 -1.75458 0
M  V30 735 C 74.0699 0.351859 -1.85492 0
M  V30 736 O 73.4269 1.24327 -1.336 0
M  V30 737 C 73.4779 -1.71895 -3.18016 0
M  V30 738 O 73.1989 -3.11063 -3.08498 0
M  V30 739 C 74.6999 -1.63415 -4.12081 0
M  V30 740 H 71.9199 -0.38359 -0.550545 0
M  V30 741 H 74.4639 -1.63507 -1.22824 0
M  V30 742 H 72.6189 -1.22061 -3.67668 0
M  V30 743 H 73.0329 -3.41305 -3.9826 0
M  V30 744 H 74.5069 -2.11669 -5.09804 0
M  V30 745 H 74.9839 -0.593462 -4.35172 0
M  V30 746 H 75.5899 -2.12628 -3.68334 0
M  V30 747 N 73.905 1.17692 -1.04816 0
M  V30 748 C 74.815 2.25229 -0.65643 0
M  V30 749 C 75.831 1.71018 0.320761 0
M  V30 750 O 77.007 2.00649 0.173805 0
M  V30 751 C 74.072 3.46684 -0.0332629 0
M  V30 752 C 73.133 4.15997 -1.06042 0
M  V30 753 C 72.366 5.31654 -0.466893 0
M  V30 754 O 72.589 5.65777 0.724758 0
M  V30 755 O 71.523 5.89831 -1.1993 0
M  V30 756 H 75.349 2.61016 -1.55255 0
M  V30 757 H 72.934 1.24919 -0.81949 0
M  V30 758 H 74.816 4.20234 0.313256 0
M  V30 759 H 73.491 3.12703 0.836566 0
M  V30 760 H 72.398 3.44482 -1.45886 0
M  V30 761 H 73.731 4.53996 -1.90127 0
M  V30 762 N 75.3831 0.828654 1.34056 0
M  V30 763 C 76.6311 0.41863 1.97717 0
M  V30 764 C 76.9521 -1.02314 1.66002 0
M  V30 765 O 76.2221 -1.71119 0.953683 0
M  V30 766 H 74.8021 0.151809 0.731412 0
M  V30 767 H 77.4641 1.05936 1.63596 0
M  V30 768 H 76.5601 0.542318 3.07352 0
M  V30 769 N 76.8612 -1.46375 0.584142 0
M  V30 770 C 77.7912 -2.33103 -0.136037 0
M  V30 771 C 78.7722 -1.45431 -0.882255 0
M  V30 772 O 79.9572 -1.74246 -0.857434 0
M  V30 773 C 77.0872 -3.27731 -1.14933 0
M  V30 774 C 76.0412 -4.24855 -0.517862 0
M  V30 775 C 75.3672 -5.09001 -1.63773 0
M  V30 776 C 76.6672 -5.19439 0.545886 0
M  V30 777 H 78.3612 -2.93568 0.588086 0
M  V30 778 H 75.9072 -1.41166 0.284259 0
M  V30 779 H 77.8602 -3.87261 -1.66153 0
M  V30 780 H 76.5842 -2.65377 -1.90375 0
M  V30 781 H 75.2432 -3.6659 -0.0267361 0
M  V30 782 H 74.8912 -4.43031 -2.38185 0
M  V30 783 H 74.5912 -5.74777 -1.22085 0
M  V30 784 H 76.1152 -5.71396 -2.15266 0
M  V30 785 H 77.5292 -5.73177 0.118704 0
M  V30 786 H 75.9262 -5.93566 0.88317 0
M  V30 787 H 76.9962 -4.63285 1.43162 0
M  V30 788 N 78.3393 -0.321999 -1.54275 0
M  V30 789 C 79.6163 0.335232 -1.92706 0
M  V30 790 C 79.9963 1.70006 -1.25145 0
M  V30 791 O 79.3443 2.25067 -0.394596 0
M  V30 792 C 79.5543 0.429008 -3.46353 0
M  V30 793 C 80.9023 0.690029 -4.18956 0
M  V30 794 O 81.9263 0.511992 -3.52501 0
M  V30 795 O 80.7853 1.03338 -5.36641 0
M  V30 796 H 77.8793 0.191143 -0.804608 0
M  V30 797 H 80.4253 -0.3716 -1.65581 0
M  V30 798 H 79.1973 -0.529611 -3.87699 0
M  V30 799 H 78.8203 1.18348 -3.79578 0
M  V30 800 N 79.8174 1.5752 -0.0501392 0
M  V30 801 C 81.0644 1.9265 0.623874 0
M  V30 802 C 81.3924 0.928411 1.70912 0
M  V30 803 O 80.6474 -0.0594525 1.9561 0
M  V30 804 C 80.9464 3.34467 1.25963 0
M  V30 805 C 80.6124 4.49883 0.302689 0
M  V30 806 C 79.2744 4.81184 0.0393636 0
M  V30 807 C 81.6264 5.20002 -0.353205 0
M  V30 808 C 78.9544 5.79951 -0.887308 0
M  V30 809 C 81.3064 6.1976 -1.26806 0
M  V30 810 C 79.9704 6.49491 -1.54007 0
M  V30 811 H 79.2404 0.704957 0.228292 0
M  V30 812 H 81.8874 1.91146 -0.116398 0
M  V30 813 H 80.1924 3.32333 2.07514 0
M  V30 814 H 81.8894 3.58928 1.78806 0
M  V30 815 H 78.4794 4.25457 0.518109 0
M  V30 816 H 82.6634 4.96033 -0.162854 0
M  V30 817 H 77.9194 6.01322 -1.10553 0
M  V30 818 H 82.0934 6.73205 -1.78236 0
M  V30 819 H 79.7204 7.25837 -2.25976 0
M  V30 820 N 81.2955 -0.223234 1.56011 0
M  V30 821 C 82.2435 -1.29627 1.93131 0
M  V30 822 C 83.2375 -1.48608 0.813146 0
M  V30 823 O 84.4435 -1.49802 0.997966 0
M  V30 824 H 80.8185 -0.434563 0.613726 0
M  V30 825 H 82.7895 -0.955995 2.82672 0
M  V30 826 C 81.5385 -2.63983 2.26292 0
M  V30 827 H 80.8615 -2.50185 3.11846 0
M  V30 828 H 82.3015 -3.3788 2.56151 0
M  V30 829 C 80.7605 -3.18866 1.08747 0
M  V30 830 O 81.2905 -4.00192 0.347727 0
M  V30 831 N 79.4965 -2.77217 0.871743 0
M  V30 832 H 79.0435 -2.1119 1.47501 0
M  V30 833 H 79.0015 -3.1428 0.0869905 0
M  V30 834 N 82.7736 -1.49793 -0.48987 0
M  V30 835 C 83.7366 -1.66752 -1.57246 0
M  V30 836 C 84.7366 -0.538867 -1.51502 0
M  V30 837 O 85.9266 -0.805545 -1.54456 0
M  V30 838 C 83.0586 -1.67528 -2.96896 0
M  V30 839 H 84.2516 -2.63321 -1.43534 0
M  V30 840 H 81.8046 -1.38992 -0.714914 0
M  V30 841 H 82.5396 -0.725837 -3.16073 0
M  V30 842 H 82.3246 -2.49504 -3.02473 0
M  V30 843 H 83.8146 -1.82667 -3.7553 0
M  V30 844 N 84.2517 0.741722 -1.39055 0
M  V30 845 C 85.1817 1.869 -1.39966 0
M  V30 846 C 86.1627 1.6804 -0.26392 0
M  V30 847 O 87.3477 1.88458 -0.468755 0
M  V30 848 C 84.4777 3.24572 -1.23574 0
M  V30 849 C 83.4317 3.58056 -2.34477 0
M  V30 850 C 82.7577 4.94593 -2.0318 0
M  V30 851 C 84.0577 3.61716 -3.76774 0
M  V30 852 H 85.7517 1.86395 -2.34302 0
M  V30 853 H 83.2977 0.895361 -1.1278 0
M  V30 854 H 85.2507 4.031 -1.22834 0
M  V30 855 H 83.9747 3.25587 -0.257045 0
M  V30 856 H 82.6337 2.81854 -2.34423 0
M  V30 857 H 82.2817 4.92181 -1.03765 0
M  V30 858 H 81.9817 5.17964 -2.77465 0
M  V30 859 H 83.5057 5.75486 -2.04079 0
M  V30 860 H 84.9197 4.30335 -3.78794 0
M  V30 861 H 83.3167 3.96603 -4.50362 0
M  V30 862 H 84.3867 2.61672 -4.08235 0
M  V30 863 N 85.7298 1.2412 0.971189 0
M  V30 864 C 86.6598 1.05508 2.08304 0
M  V30 865 C 87.6408 -0.0308864 1.70072 0
M  V30 866 O 88.8258 0.135521 1.93727 0
M  V30 867 C 85.9558 0.655365 3.4106 0
M  V30 868 C 84.9098 1.68971 3.93234 0
M  V30 869 C 84.2358 1.14516 5.22293 0
M  V30 870 C 85.5358 3.08487 4.21465 0
M  V30 871 H 87.2298 1.98507 2.24132 0
M  V30 872 H 84.7758 0.955821 1.07704 0
M  V30 873 H 86.7288 0.51217 4.18276 0
M  V30 874 H 85.4528 -0.31032 3.25122 0
M  V30 875 H 84.1118 1.82106 3.18171 0
M  V30 876 H 83.7598 0.170189 5.02712 0
M  V30 877 H 83.4598 1.83635 5.58168 0
M  V30 878 H 84.9838 1.01401 6.02121 0
M  V30 879 H 86.3978 2.98601 4.89398 0
M  V30 880 H 84.7948 3.74926 4.68562 0
M  V30 881 H 85.8648 3.56787 3.28376 0
M  V30 882 N 87.2079 -1.17134 1.05439 0
M  V30 883 C 88.6189 -1.69084 0.791676 0
M  V30 884 C 88.9699 -1.83822 -0.685839 0
M  V30 885 O 88.0949 -1.52757 -1.53278 0
M  V30 886 C 88.6899 -3.07119 1.4305 0
M  V30 887 C 87.2489 -3.56225 1.21577 0
M  V30 888 C 86.3959 -2.32421 1.51247 0
M  V30 889 H 89.3469 -1.01617 1.219 0
M  V30 890 H 89.3679 -3.71087 0.84112 0
M  V30 891 H 88.8799 -2.9636 2.50584 0
M  V30 892 H 86.9809 -3.72257 0.159787 0
M  V30 893 H 87.0939 -4.38837 1.92246 0
M  V30 894 H 85.4579 -2.3701 0.932653 0
M  V30 895 H 86.2409 -2.24268 2.5992 0
M  V30 896 N 88.686 -0.835752 -1.33615 0
M  V30 897 C 89.596 -0.269088 -2.33052 0
M  V30 898 C 90.612 0.603251 -1.63208 0
M  V30 899 O 91.788 0.508112 -1.94885 0
M  V30 900 C 88.853 0.549091 -3.42324 0
M  V30 901 C 87.914 -0.347156 -4.27894 0
M  V30 902 C 87.147 0.43207 -5.31948 0
M  V30 903 O 87.37 1.66409 -5.45586 0
M  V30 904 O 86.304 -0.192298 -6.01593 0
M  V30 905 H 90.13 -1.09243 -2.83372 0
M  V30 906 H 87.715 -0.598198 -1.36901 0
M  V30 907 H 89.597 1.01414 -4.09015 0
M  V30 908 H 88.272 1.34955 -2.94226 0
M  V30 909 H 87.179 -0.859979 -3.64081 0
M  V30 910 H 88.512 -1.1123 -4.79467 0
M  V30 911 N 90.1641 1.46063 -0.591896 0
M  V30 912 C 91.4111 2.02338 -0.0809991 0
M  V30 913 C 91.7391 1.46228 1.28249 0
M  V30 914 O 90.9941 0.620818 1.85592 0
M  V30 915 C 91.2931 3.57391 0.0249813 0
M  V30 916 C 90.9591 4.32583 -1.27211 0
M  V30 917 C 89.6211 4.52844 -1.62745 0
M  V30 918 C 91.9731 4.75687 -2.13005 0
M  V30 919 C 89.3011 5.13462 -2.83855 0
M  V30 920 C 91.6531 5.37644 -3.3335 0
M  V30 921 C 90.3171 5.5613 -3.69155 0
M  V30 922 H 89.5871 0.740407 -0.0296397 0
M  V30 923 H 92.2341 1.75321 -0.770374 0
M  V30 924 H 90.5391 3.83597 0.797537 0
M  V30 925 H 92.2361 3.98621 0.436184 0
M  V30 926 H 88.8261 4.17116 -0.985499 0
M  V30 927 H 93.0101 4.59782 -1.86855 0
M  V30 928 H 88.2661 5.25965 -3.11722 0
M  V30 929 H 92.4401 5.7 -4.00092 0
M  V30 930 H 90.0671 6.0287 -4.63089 0
M  V30 931 N 91.6422 0.330177 1.54103 0
M  V30 932 C 92.9192 -0.325007 1.92881 0
M  V30 933 C 93.2992 -1.6934 1.26045 0
M  V30 934 O 92.6472 -2.24855 0.406526 0
M  V30 935 C 92.8572 -0.410634 3.46576 0
M  V30 936 C 94.2052 -0.667801 4.19316 0
M  V30 937 O 95.2292 -0.49329 3.52768 0
M  V30 938 O 94.0882 -1.00491 5.37181 0
M  V30 939 H 91.1822 -0.186873 0.80561 0
M  V30 940 H 93.7282 0.380376 1.65382 0
M  V30 941 H 92.5002 0.550164 3.87413 0
M  V30 942 H 92.1232 -1.16333 3.802 0
M  V30 943 N 93.1203 -1.57491 0.0584922 0
M  V30 944 C 94.0673 -2.11958 -0.913376 0
M  V30 945 C 95.0373 -1.02875 -1.30407 0
M  V30 946 O 96.2223 -1.30464 -1.39226 0
M  V30 947 C 93.3623 -2.67497 -2.18035 0
M  V30 948 C 92.4753 -3.90691 -1.84349 0
M  V30 949 C 91.6103 -4.3452 -3.05559 0
M  V30 950 C 90.6493 -5.50395 -2.67827 0
M  V30 951 N 89.7863 -5.89244 -3.81754 0
M  V30 952 H 94.6263 -2.94704 -0.442017 0
M  V30 953 H 92.1633 -1.45643 -0.206545 0
M  V30 954 H 94.1213 -2.978 -2.92183 0
M  V30 955 H 92.7513 -1.87537 -2.62735 0
M  V30 956 H 91.8033 -3.66934 -1.00319 0
M  V30 957 H 93.1153 -4.7489 -1.5258 0
M  V30 958 H 92.2693 -4.66414 -3.87998 0
M  V30 959 H 91.0083 -3.49147 -3.40511 0
M  V30 960 H 90.0133 -5.18165 -1.83806 0
M  V30 961 H 91.2383 -6.3749 -2.34059 0
M  V30 962 H 89.1843 -5.06823 -4.16493 0
M  V30 963 H 89.1013 -6.68151 -3.53708 0
M  V30 964 H 90.3693 -6.25756 -4.64811 0
M  V30 965 N 94.5984 0.214957 -1.56127 0
M  V30 966 C 95.5614 1.24997 -1.92116 0
M  V30 967 C 96.5614 1.39467 -0.800344 0
M  V30 968 O 97.7514 1.37619 -1.06802 0
M  V30 969 C 94.8834 2.62271 -2.17777 0
M  V30 970 H 96.0764 0.942875 -2.84693 0
M  V30 971 H 93.6294 0.455654 -1.49511 0
M  V30 972 H 94.3644 2.98068 -1.27773 0
M  V30 973 H 94.1494 2.53143 -2.99434 0
M  V30 974 H 95.6394 3.36946 -2.46693 0
M  V30 975 N 96.0765 1.50051 0.48192 0
M  V30 976 C 97.3245 1.60181 1.23234 0
M  V30 977 C 97.6455 0.299176 1.92691 0
M  V30 978 O 96.9155 -0.682708 1.83619 0
M  V30 979 H 95.4955 0.590232 0.457859 0
M  V30 980 H 98.1575 1.86775 0.556881 0
M  V30 981 H 97.2535 2.40753 1.98607 0
M  V30 982 N 97.5546 -0.734337 1.39446 0
M  V30 983 C 98.5176 -1.83004 1.37994 0
M  V30 984 C 99.5176 -1.58397 0.276938 0
M  V30 985 O 100.708 -1.65785 0.534875 0
M  V30 986 C 97.8396 -3.20802 1.1532 0
M  V30 987 H 99.0326 -1.85694 2.35494 0
M  V30 988 H 96.5856 -0.938059 1.25021 0
M  V30 989 H 97.3206 -3.23772 0.185036 0
M  V30 990 H 97.1056 -3.4006 1.95197 0
M  V30 991 H 98.5956 -4.00862 1.17046 0
M  V30 992 N 99.0327 -1.24633 -0.964593 0
M  V30 993 C 99.9797 -1.04144 -2.05968 0
M  V30 994 C 100.95 0.046262 -1.66036 0
M  V30 995 O 102.135 -0.108972 -1.90489 0
M  V30 996 C 99.2747 -0.65563 -3.38815 0
M  V30 997 C 98.3877 -1.81714 -3.91923 0
M  V30 998 C 97.5227 -1.37662 -5.13052 0
M  V30 999 C 96.5617 -2.50788 -5.58365 0
M  V30 1000 N 95.6987 -2.07582 -6.70712 0
M  V30 1001 H 100.539 -1.9787 -2.22827 0
M  V30 1002 H 98.0757 -0.9855 -1.09208 0
M  V30 1003 H 100.034 -0.412954 -4.15151 0
M  V30 1004 H 98.6637 0.244627 -3.21872 0
M  V30 1005 H 97.7157 -2.1734 -3.12198 0
M  V30 1006 H 99.0277 -2.66705 -4.21509 0
M  V30 1007 H 98.1817 -1.093 -5.96773 0
M  V30 1008 H 96.9207 -0.497293 -4.85158 0
M  V30 1009 H 95.9257 -2.79906 -4.73215 0
M  V30 1010 H 97.1507 -3.39283 -5.88272 0
M  V30 1011 H 95.0967 -1.22051 -6.44546 0
M  V30 1012 H 95.0137 -2.86125 -6.99763 0
M  V30 1013 H 96.2817 -1.82369 -7.57867 0
M  V30 1014 N 100.511 1.16574 -1.06058 0
M  V30 1015 C 101.76 1.86385 -0.770944 0
M  V30 1016 C 102.073 1.82448 0.705129 0
M  V30 1017 O 103.279 2.47815 1.10905 0
M  V30 1018 C 101.735 3.34466 -1.32893 0
M  V30 1019 C 101.343 3.46883 -2.83507 0
M  V30 1020 C 103.087 4.09548 -1.11672 0
M  V30 1021 C 100.994 4.89036 -3.32562 0
M  V30 1022 H 99.9238 0.698181 -0.284709 0
M  V30 1023 H 102.575 1.31583 -1.27899 0
M  V30 1024 H 100.957 3.88859 -0.748662 0
M  V30 1025 H 102.131 3.02663 -3.47465 0
M  V30 1026 H 100.446 2.85232 -3.03368 0
M  V30 1027 H 103.043 5.14434 -1.45814 0
M  V30 1028 H 103.386 4.16264 -0.0549535 0
M  V30 1029 H 103.919 3.61387 -1.66265 0
M  V30 1030 H 100.658 4.87499 -4.38207 0
M  V30 1031 H 100.178 5.3389 -2.73351 0
M  V30 1032 H 101.857 5.57843 -3.2775 0
M  V30 1033 N 101.989 0.842826 1.3317 0
M  V30 1034 C 102.919 0.294028 2.31641 0
M  V30 1035 C 103.9 -0.600401 1.59151 0
M  V30 1036 O 105.085 -0.523124 1.87022 0
M  V30 1037 C 102.215 -0.528416 3.43257 0
M  V30 1038 C 101.169 0.27056 4.27144 0
M  V30 1039 C 100.495 -0.675881 5.30411 0
M  V30 1040 C 101.795 1.48981 5.00602 0
M  V30 1041 H 103.489 1.11681 2.77791 0
M  V30 1042 H 101.035 0.538478 1.33553 0
M  V30 1043 H 102.988 -0.922674 4.11175 0
M  V30 1044 H 101.712 -1.38445 2.95805 0
M  V30 1045 H 100.371 0.646427 3.60856 0
M  V30 1046 H 100.019 -1.52842 4.79216 0
M  V30 1047 H 99.7189 -0.145374 5.8742 0
M  V30 1048 H 101.243 -1.06757 6.01195 0
M  V30 1049 H 102.657 1.16849 5.61266 0
M  V30 1050 H 101.054 1.95739 5.6728 0
M  V30 1051 H 102.124 2.25746 4.29147 0
M  V30 1052 N 103.467 -1.45747 0.599634 0
M  V30 1053 C 104.715 -2.01893 0.0915472 0
M  V30 1054 C 105.036 -1.47155 -1.27946 0
M  V30 1055 O 104.306 -0.66273 -1.84349 0
M  V30 1056 H 102.886 -0.746363 0.0308524 0
M  V30 1057 H 105.548 -1.78645 0.779237 0
M  V30 1058 H 104.644 -3.1208 0.0353086 0
M  V30 1059 N 104.945 -0.338344 -1.53925 0
M  V30 1060 C 106.191 0.260143 -2.01125 0
M  V30 1061 C 106.524 1.50617 -1.22589 0
M  V30 1062 O 105.799 1.91979 -0.312113 0
M  V30 1063 C 106.082 0.579499 -3.55407 0
M  V30 1064 C 105.935 -0.678264 -4.44657 0
M  V30 1065 C 107.254 1.39122 -4.17532 0
M  V30 1066 H 104.373 0.0930772 -0.731099 0
M  V30 1067 H 107.015 -0.457852 -1.84401 0
M  V30 1068 H 105.165 1.19118 -3.69788 0
M  V30 1069 H 106.837 -1.31631 -4.42121 0
M  V30 1070 H 105.08 -1.3042 -4.13731 0
M  V30 1071 H 105.751 -0.410143 -5.50474 0
M  V30 1072 H 108.227 0.874035 -4.06817 0
M  V30 1073 H 107.103 1.58342 -5.25565 0
M  V30 1074 H 107.364 2.39178 -3.71815 0
M  V30 1075 N 106.423 1.57458 -0.0668435 0
M  V30 1076 C 107.648 1.9804 0.616027 0
M  V30 1077 C 108.073 0.944771 1.62652 0
M  V30 1078 O 107.431 -0.0902094 1.81075 0
M  V30 1079 C 107.479 3.37665 1.26549 0
M  V30 1080 O 106.583 3.36701 2.38131 0
M  V30 1081 H 105.924 0.644719 0.158849 0
M  V30 1082 H 108.454 2.04121 -0.139891 0
M  V30 1083 H 108.464 3.7474 1.6135 0
M  V30 1084 H 107.139 4.12573 0.525016 0
M  V30 1085 H 105.716 3.1139 2.0516 0
M  V30 1086 N 107.901 -0.206675 1.56239 0
M  V30 1087 C 109.317 -0.557025 1.49564 0
M  V30 1088 C 109.517 -1.86424 0.764735 0
M  V30 1089 O 108.573 -2.50584 0.310491 0
M  V30 1090 C 109.886 -0.622478 2.94186 0
M  V30 1091 C 111.434 -0.712099 3.04792 0
M  V30 1092 C 111.909 -0.808767 4.50803 0
M  V30 1093 N 113.4 -0.8726 4.54907 0
M  V30 1094 C 114.135 -0.967365 5.65181 0
M  V30 1095 N 113.631 -1.02515 6.85173 0
M  V30 1096 N 115.424 -1.00366 5.53067 0
M  V30 1097 H 107.575 0.650943 2.02179 0
M  V30 1098 H 109.838 0.230387 0.919579 0
M  V30 1099 H 109.544 0.268727 3.50672 0
M  V30 1100 H 109.418 -1.4811 3.46905 0
M  V30 1101 H 111.805 -1.59374 2.48363 0
M  V30 1102 H 111.886 0.172489 2.55218 0
M  V30 1103 H 111.53 0.0684754 5.07854 0
M  V30 1104 H 111.46 -1.70899 4.98098 0
M  V30 1105 H 113.951 -0.837657 3.68499 0
M  V30 1106 H 114.264 -1.09765 7.64965 0
M  V30 1107 H 112.609 -0.994026 6.87855 0
M  V30 1108 H 115.8 -0.95527 4.58249 0
M  V30 1109 H 115.973 -1.07405 6.39037 0
M  V30 1110 N 109.379 -1.50304 -0.473955 0
M  V30 1111 C 110.656 -1.51667 -1.23518 0
M  V30 1112 C 111.036 -0.259701 -2.09496 0
M  V30 1113 O 110.384 0.756986 -2.15597 0
M  V30 1114 C 110.594 -2.81082 -2.06868 0
M  V30 1115 C 111.942 -3.31631 -2.65153 0
M  V30 1116 O 112.966 -2.82384 -2.17113 0
M  V30 1117 O 111.825 -4.17471 -3.52675 0
M  V30 1118 H 108.919 -0.60822 -0.560355 0
M  V30 1119 H 111.465 -1.62592 -0.486011 0
M  V30 1120 H 110.237 -3.64041 -1.4349 0
M  V30 1121 H 109.86 -2.73146 -2.88924 0
M  V30 1122 N 110.857 0.726932 -1.39834 0
M  V30 1123 C 112.082 1.52121 -1.40976 0
M  V30 1124 C 112.507 1.88098 -0.00826029 0
M  V30 1125 O 111.865 1.52479 0.980807 0
M  V30 1126 C 111.913 2.78021 -2.29644 0
M  V30 1127 O 111.017 3.74272 -1.73188 0
M  V30 1128 H 110.358 0.45908 -0.479731 0
M  V30 1129 H 112.888 0.896207 -1.83927 0
M  V30 1130 H 112.898 3.26671 -2.44438 0
M  V30 1131 H 111.573 2.51169 -3.31492 0
M  V30 1132 H 110.15 3.33073 -1.6768 0
M  V30 1133 N 112.336 1.25143 0.95797 0
M  V30 1134 C 113.582 1.09855 1.70469 0
M  V30 1135 C 113.915 -0.360187 1.90831 0
M  V30 1136 O 113.19 -1.26568 1.47685 0
M  V30 1137 C 113.473 1.8497 3.08963 0
M  V30 1138 C 113.326 3.38652 2.96032 0
M  V30 1139 C 114.645 1.63016 4.08795 0
M  V30 1140 H 111.764 0.400465 0.618706 0
M  V30 1141 H 114.406 1.53933 1.11376 0
M  V30 1142 H 112.556 1.47505 3.59409 0
M  V30 1143 H 114.228 3.85772 2.52938 0
M  V30 1144 H 112.471 3.66534 2.32025 0
M  V30 1145 H 113.142 3.8642 3.94187 0
M  V30 1146 H 115.618 1.95625 3.67247 0
M  V30 1147 H 114.494 2.18015 5.03747 0
M  V30 1148 H 114.755 0.570692 4.38401 0
M  V30 1149 N 113.814 -1.1601 1.06675 0
M  V30 1150 C 114.761 -2.20525 0.680967 0
M  V30 1151 C 115.731 -1.62904 -0.324283 0
M  V30 1152 O 116.916 -1.89615 -0.212294 0
M  V30 1153 C 114.056 -3.45013 0.0776551 0
M  V30 1154 C 113.169 -4.16863 1.13355 0
M  V30 1155 C 112.304 -5.2888 0.49597 0
M  V30 1156 C 111.343 -5.92537 1.53513 0
M  V30 1157 N 110.48 -6.96038 0.920631 0
M  V30 1158 H 115.32 -2.52876 1.57663 0
M  V30 1159 H 112.857 -1.24199 0.788223 0
M  V30 1160 H 114.815 -4.16193 -0.289704 0
M  V30 1161 H 113.445 -3.132 -0.781393 0
M  V30 1162 H 112.497 -3.44248 1.61857 0
M  V30 1163 H 113.809 -4.60294 1.92174 0
M  V30 1164 H 112.963 -6.06653 0.0758604 0
M  V30 1165 H 111.702 -4.86622 -0.324062 0
M  V30 1166 H 110.707 -5.13482 1.9651 0
M  V30 1167 H 111.932 -6.36873 2.35733 0
M  V30 1168 H 109.878 -6.55888 0.12138 0
M  V30 1169 H 109.795 -7.3786 1.64616 0
M  V30 1170 H 111.063 -7.77725 0.525795 0
M  V30 1171 N 115.292 -0.849877 -1.32721 0
M  V30 1172 C 116.517 -0.463856 -2.02146 0
M  V30 1173 C 116.942 0.930449 -1.63476 0
M  V30 1174 O 116.3 1.61033 -0.832952 0
M  V30 1175 C 116.348 -0.604955 -3.55489 0
M  V30 1176 O 115.452 0.36425 -4.10788 0
M  V30 1177 H 114.793 -0.187046 -0.637111 0
M  V30 1178 H 117.323 -1.14775 -1.69375 0
M  V30 1179 H 117.333 -0.490696 -4.05038 0
M  V30 1180 H 116.008 -1.62174 -3.82978 0
M  V30 1181 H 114.585 0.206628 -3.72327 0
M  V30 1182 N 116.77 1.45427 -0.607355 0
M  V30 1183 C 117.72 2.27612 0.133038 0
M  V30 1184 C 118.704 1.37307 0.838785 0
M  V30 1185 O 119.896 1.61299 0.728813 0
M  V30 1186 C 117.025 3.24173 1.12991 0
M  V30 1187 C 116.111 4.21965 0.425011 0
M  V30 1188 N 116.502 5.02982 -0.533217 0
M  V30 1189 C 114.8 4.40899 0.672593 0
M  V30 1190 C 115.501 5.73931 -0.947518 0
M  V30 1191 N 114.477 5.42819 -0.291321 0
M  V30 1192 H 118.279 2.87649 -0.602935 0
M  V30 1193 H 115.793 1.56576 -0.431006 0
M  V30 1194 H 117.79 3.81783 1.67473 0
M  V30 1195 H 116.45 2.65696 1.86644 0
M  V30 1196 H 117.461 5.09843 -0.90995 0
M  V30 1197 H 114.138 3.93547 1.39382 0
M  V30 1198 H 115.528 6.49037 -1.73782 0
M  V30 1199 N 118.248 0.346503 1.53744 0
M  V30 1200 C 119.525 -0.304532 1.93215 0
M  V30 1201 C 119.905 -1.67993 1.27834 0
M  V30 1202 O 119.253 -2.24411 0.430352 0
M  V30 1203 C 119.463 -0.373852 3.46992 0
M  V30 1204 C 120.811 -0.62329 4.2 0
M  V30 1205 O 121.835 -0.455847 3.53271 0
M  V30 1206 O 120.694 -0.947879 5.38217 0
M  V30 1207 H 117.788 -0.178318 0.807547 0
M  V30 1208 H 120.334 0.397895 1.64969 0
M  V30 1209 H 119.106 0.591224 3.86808 0
M  V30 1210 H 118.729 -1.12294 3.81413 0
M  V30 1211 N 119.726 -1.57421 0.075193 0
M  V30 1212 C 120.674 -2.14124 -0.908508 0
M  V30 1213 C 121.668 -1.07898 -1.30592 0
M  V30 1214 O 122.874 -1.26273 -1.28277 0
M  V30 1215 H 119.249 -0.684707 -0.310935 0
M  V30 1216 H 121.22 -2.95634 -0.405374 0
M  V30 1217 C 119.969 -2.72044 -2.16535 0
M  V30 1218 H 119.292 -3.53456 -1.86839 0
M  V30 1219 H 120.732 -3.15311 -2.83469 0
M  V30 1220 C 119.191 -1.66968 -2.92615 0
M  V30 1221 O 119.721 -1.0967 -3.86439 0
M  V30 1222 N 117.927 -1.37923 -2.55784 0
M  V30 1223 H 117.474 -1.84706 -1.79559 0
M  V30 1224 H 117.432 -0.67852 -3.06991 0
M  V30 1225 N 121.204 0.198386 -1.56346 0
M  V30 1226 C 122.451 0.919286 -1.80431 0
M  V30 1227 C 122.779 1.83393 -0.647866 0
M  V30 1228 O 122.034 1.92236 0.366556 0
M  V30 1229 C 122.333 1.77031 -3.10475 0
M  V30 1230 C 121.999 1.00693 -4.39513 0
M  V30 1231 C 120.661 0.796145 -4.74568 0
M  V30 1232 C 123.013 0.469559 -5.19081 0
M  V30 1233 C 120.341 0.0364588 -5.86689 0
M  V30 1234 C 122.693 -0.2769 -6.31994 0
M  V30 1235 C 121.357 -0.49873 -6.65634 0
M  V30 1236 H 120.627 0.336391 -0.660244 0
M  V30 1237 H 123.274 0.185872 -1.90596 0
M  V30 1238 H 121.579 2.5723 -2.95533 0
M  V30 1239 H 123.276 2.33065 -3.26315 0
M  V30 1240 H 119.866 1.18122 -4.12001 0
M  V30 1241 H 124.05 0.619816 -4.92414 0
M  V30 1242 H 119.306 -0.145412 -6.11227 0
M  V30 1243 H 123.48 -0.700684 -6.92866 0
M  V30 1244 H 121.107 -1.0893 -7.52355 0
M  V30 1245 N 122.682 1.50554 0.465978 0
M  V30 1246 C 123.922 1.63439 1.22747 0
M  V30 1247 C 124.286 0.329822 1.89146 0
M  V30 1248 O 125.487 0.334161 2.66715 0
M  V30 1249 C 123.758 2.78542 2.2394 0
M  V30 1250 S 125.317 3.11591 3.0896 0
M  V30 1251 H 122.135 0.576113 0.416672 0
M  V30 1252 H 124.737 1.88357 0.523641 0
M  V30 1253 H 123.441 3.71805 1.7375 0
M  V30 1254 H 122.972 2.55726 2.98944 0
M  V30 1255 H 124.987 2.55811 4.25176 0
M  V30 1256 N 124.16 -0.719506 1.40217 0
M  V30 1257 C 125.123 -1.8153 1.39927 0
M  V30 1258 C 126.123 -1.58095 0.293723 0
M  V30 1259 O 127.313 -1.65209 0.552429 0
M  V30 1260 C 124.445 -3.19561 1.18716 0
M  V30 1261 H 125.638 -1.83186 2.37451 0
M  V30 1262 H 123.191 -0.924746 1.26008 0
M  V30 1263 H 123.926 -3.23557 0.219366 0
M  V30 1264 H 123.711 -3.3797 1.98793 0
M  V30 1265 H 125.201 -3.99598 1.21291 0
M  V30 1266 N 125.638 -1.25649 -0.95132 0
M  V30 1267 C 126.585 -1.06323 -2.04851 0
M  V30 1268 C 127.555 0.0286491 -1.66075 0
M  V30 1269 O 128.74 -0.12917 -1.90362 0
M  V30 1270 C 125.88 -0.691529 -3.381 0
M  V30 1271 C 124.993 -1.85861 -3.89974 0
M  V30 1272 C 124.128 -1.43096 -5.11563 0
M  V30 1273 C 123.167 -2.56696 -5.55674 0
M  V30 1274 N 122.304 -2.14684 -6.68472 0
M  V30 1275 H 127.144 -2.00222 -2.20715 0
M  V30 1276 H 124.681 -0.997027 -1.08156 0
M  V30 1277 H 126.639 -0.456963 -4.1469 0
M  V30 1278 H 125.269 0.210474 -3.22113 0
M  V30 1279 H 124.321 -2.20639 -3.09875 0
M  V30 1280 H 125.633 -2.71161 -4.18657 0
M  V30 1281 H 124.787 -1.15624 -5.9558 0
M  V30 1282 H 123.526 -0.548722 -4.84603 0
M  V30 1283 H 122.531 -2.84909 -4.7022 0
M  V30 1284 H 123.756 -3.45503 -5.8464 0
M  V30 1285 H 121.702 -1.28881 -6.43215 0
M  V30 1286 H 121.619 -2.9353 -6.96689 0
M  V30 1287 H 122.887 -1.90397 -7.5589 0
M  V30 1288 N 127.117 1.15442 -1.07289 0
M  V30 1289 C 128.049 2.19773 -0.650585 0
M  V30 1290 C 129.062 1.60076 0.296572 0
M  V30 1291 O 130.251 1.78293 0.0859905 0
M  V30 1292 C 127.351 3.38838 0.0650398 0
M  V30 1293 C 126.524 4.2808 -0.898141 0
M  V30 1294 C 125.583 5.2574 -0.219926 0
M  V30 1295 O 124.609 5.62654 -0.860773 0
M  V30 1296 N 125.811 5.71205 1.03466 0
M  V30 1297 H 128.576 2.56622 -1.54808 0
M  V30 1298 H 126.137 1.30551 -0.957494 0
M  V30 1299 H 128.129 4.01222 0.529415 0
M  V30 1300 H 126.699 3.00409 0.864466 0
M  V30 1301 H 125.919 3.62804 -1.54165 0
M  V30 1302 H 127.207 4.84577 -1.5512 0
M  V30 1303 H 126.605 5.43325 1.57526 0
M  V30 1304 H 125.162 6.35633 1.44272 0
M  V30 1305 N 128.595 0.856903 1.32268 0
M  V30 1306 C 129.843 0.460474 1.96784 0
M  V30 1307 C 130.164 -0.987701 1.68135 0
M  V30 1308 O 129.434 -1.69058 0.989765 0
M  V30 1309 H 128.014 0.167289 0.728027 0
M  V30 1310 H 130.676 1.09383 1.61312 0
M  V30 1311 H 129.772 0.60739 3.06133 0
M  V30 1312 N 130.073 -1.45103 0.615059 0
M  V30 1313 C 131.32 -2.02183 0.113179 0
M  V30 1314 C 131.648 -1.48249 -1.25906 0
M  V30 1315 O 130.903 -0.650265 -1.84581 0
M  V30 1316 C 131.202 -3.57386 0.0318797 0
M  V30 1317 C 130.868 -4.30505 1.34077 0
M  V30 1318 C 129.53 -4.50197 1.69929 0
M  V30 1319 C 131.882 -4.72238 2.20546 0
M  V30 1320 C 129.21 -5.08881 2.91988 0
M  V30 1321 C 131.562 -5.32272 3.41861 0
M  V30 1322 C 130.226 -5.50187 3.77956 0
M  V30 1323 H 129.496 -0.739842 0.0414151 0
M  V30 1324 H 132.143 -1.74073 0.798168 0
M  V30 1325 H 130.448 -3.84817 -0.736409 0
M  V30 1326 H 132.145 -3.99264 -0.372712 0
M  V30 1327 H 128.735 -4.15496 1.05173 0
M  V30 1328 H 132.919 -4.56751 1.94146 0
M  V30 1329 H 128.175 -5.20939 3.2005 0
M  V30 1330 H 132.349 -5.63563 4.09109 0
M  V30 1331 H 129.976 -5.95427 4.72622 0
M  V30 1332 N 131.551 -0.354651 -1.53558 0
M  V30 1333 C 132.514 0.484566 -2.24019 0
M  V30 1334 C 133.514 1.01861 -1.24422 0
M  V30 1335 O 134.704 0.906097 -1.4878 0
M  V30 1336 C 131.836 1.67615 -2.96847 0
M  V30 1337 H 133.029 -0.131843 -2.9961 0
M  V30 1338 H 130.582 -0.106165 -1.55939 0
M  V30 1339 H 131.317 2.33095 -2.25471 0
M  V30 1340 H 131.102 1.30029 -3.69912 0
M  V30 1341 H 132.592 2.27114 -3.50441 0
M  V30 1342 N 133.029 1.57378 -0.0835403 0
M  V30 1343 C 134.276 1.9393 0.58287 0
M  V30 1344 C 134.604 0.964455 1.68904 0
M  V30 1345 O 133.859 -0.0179474 1.95692 0
M  V30 1346 C 134.158 3.37063 1.1884 0
M  V30 1347 C 133.824 4.50424 0.207194 0
M  V30 1348 C 132.486 4.81159 -0.0627115 0
M  V30 1349 C 134.838 5.19136 -0.463426 0
M  V30 1350 C 132.166 5.77939 -1.01012 0
M  V30 1351 C 134.518 6.16931 -1.39924 0
M  V30 1352 C 133.182 6.46078 -1.67749 0
M  V30 1353 H 132.452 0.70964 0.213287 0
M  V30 1354 H 135.099 1.90856 -0.156916 0
M  V30 1355 H 133.404 3.3666 2.00418 0
M  V30 1356 H 135.101 3.6264 1.71153 0
M  V30 1357 H 131.691 4.2646 0.427747 0
M  V30 1358 H 135.875 4.95576 -0.268034 0
M  V30 1359 H 131.131 5.98842 -1.23283 0
M  V30 1360 H 135.305 6.69273 -1.92476 0
M  V30 1361 H 132.932 7.2088 -2.41321 0
M  V30 1362 N 134.507 -0.190092 1.56449 0
M  V30 1363 C 135.918 -0.754312 1.70784 0
M  V30 1364 C 136.269 -1.83631 0.690951 0
M  V30 1365 O 135.394 -2.15868 -0.151604 0
M  V30 1366 C 135.989 -1.37503 3.09642 0
M  V30 1367 C 134.548 -1.88628 3.25725 0
M  V30 1368 C 133.695 -0.758098 2.66736 0
M  V30 1369 H 136.646 0.0350524 1.58661 0
M  V30 1370 H 136.667 -2.2445 3.0725 0
M  V30 1371 H 136.179 -0.587302 3.83631 0
M  V30 1372 H 134.28 -2.70103 2.56661 0
M  V30 1373 H 134.393 -2.04462 4.3328 0
M  V30 1374 H 132.757 -1.17369 2.26046 0
M  V30 1375 H 133.54 0.0174705 3.43296 0
M  V30 1376 N 135.985 -1.50799 -0.457987 0
M  V30 1377 C 136.915 -1.73553 -1.5621 0
M  V30 1378 C 137.896 -0.584774 -1.59732 0
M  V30 1379 O 139.081 -0.825314 -1.7579 0
M  V30 1380 C 136.211 -1.84169 -2.94447 0
M  V30 1381 C 135.165 -2.99461 -3.0579 0
M  V30 1382 C 134.491 -2.95235 -4.45803 0
M  V30 1383 C 135.791 -4.39766 -2.81786 0
M  V30 1384 H 137.485 -2.66 -1.37421 0
M  V30 1385 H 135.031 -1.28002 -0.659662 0
M  V30 1386 H 136.984 -1.98672 -3.71628 0
M  V30 1387 H 135.708 -0.883545 -3.14422 0
M  V30 1388 H 134.367 -2.8463 -2.31044 0
M  V30 1389 H 134.015 -1.97239 -4.62715 0
M  V30 1390 H 133.715 -3.72642 -4.54326 0
M  V30 1391 H 135.239 -3.11803 -5.24987 0
M  V30 1392 H 136.653 -4.55054 -3.4871 0
M  V30 1393 H 135.05 -5.18722 -3.0174 0
M  V30 1394 H 136.12 -4.51229 -1.7754 0
M  V30 1395 N 137.463 0.71206 -1.40597 0
M  V30 1396 C 138.709 1.47416 -1.39271 0
M  V30 1397 C 139.042 1.942 0.00388791 0
M  V30 1398 O 138.317 1.68403 0.973179 0
M  V30 1399 C 138.6 2.69774 -2.38525 0
M  V30 1400 C 138.453 2.28861 -3.87224 0
M  V30 1401 C 139.772 3.71939 -2.35264 0
M  V30 1402 H 136.891 0.534713 -0.5072 0
M  V30 1403 H 139.533 0.812375 -1.71757 0
M  V30 1404 H 137.683 3.26238 -2.10953 0
M  V30 1405 H 139.355 1.77852 -4.25636 0
M  V30 1406 H 137.598 1.60824 -4.02887 0
M  V30 1407 H 138.269 3.16584 -4.52193 0
M  V30 1408 H 140.745 3.25113 -2.59694 0
M  V30 1409 H 139.621 4.55186 -3.06753 0
M  V30 1410 H 139.882 4.20484 -1.36549 0
M  V30 1411 N 138.941 1.26152 0.944643 0
M  V30 1412 C 140.166 1.14363 1.7302 0
M  V30 1413 C 140.591 -0.29772 1.85729 0
M  V30 1414 O 139.949 -1.2157 1.34501 0
M  V30 1415 C 139.997 1.81378 3.11664 0
M  V30 1416 O 139.101 1.10022 3.97453 0
M  V30 1417 H 138.442 0.398694 0.53098 0
M  V30 1418 H 140.972 1.66906 1.18337 0
M  V30 1419 H 140.982 1.88064 3.62072 0
M  V30 1420 H 139.657 2.86237 3.0173 0
M  V30 1421 H 138.234 1.11287 3.55907 0
M  V30 1422 N 140.419 -1.14872 1.07899 0
M  V30 1423 C 141.696 -1.81928 0.71845 0
M  V30 1424 C 142.076 -1.95417 -0.798455 0
M  V30 1425 O 141.424 -1.50997 -1.715 0
M  V30 1426 C 141.634 -3.17937 1.43935 0
M  V30 1427 C 142.982 -3.93501 1.59506 0
M  V30 1428 O 144.006 -3.27509 1.40058 0
M  V30 1429 O 142.865 -5.1183 1.91551 0
M  V30 1430 H 139.959 -0.78628 0.256305 0
M  V30 1431 H 142.505 -1.21934 1.18026 0
M  V30 1432 H 141.277 -3.0325 2.47295 0
M  V30 1433 H 140.9 -3.85619 0.968687 0
M  V30 1434 N 141.898 -0.863906 -1.31812 0
M  V30 1435 C 143.146 -0.470904 -1.96537 0
M  V30 1436 C 143.467 0.978771 -1.68657 0
M  V30 1437 O 142.737 1.6853 -0.998717 0
M  V30 1438 H 141.317 -0.171148 -0.72713 0
M  V30 1439 H 143.979 -1.10236 -1.60729 0
M  V30 1440 H 143.075 -0.623616 -3.05806 0
M  V30 1441 N 143.376 1.44774 -0.622745 0
M  V30 1442 C 144.653 1.95522 -0.0551974 0
M  V30 1443 C 145.033 1.5649 1.41683 0
M  V30 1444 O 144.381 0.834848 2.12703 0
M  V30 1445 C 144.591 3.4796 -0.269242 0
M  V30 1446 C 145.939 4.24306 -0.158014 0
M  V30 1447 O 146.963 3.55637 -0.200162 0
M  V30 1448 O 145.822 5.46471 -0.0558693 0
M  V30 1449 H 142.916 0.826556 0.0271015 0
M  V30 1450 H 145.462 1.54866 -0.693864 0
M  V30 1451 H 144.234 3.6939 -1.29099 0
M  V30 1452 H 143.857 3.95543 0.403966 0
M  V30 1453 N 144.854 0.36279 1.53368 0
M  V30 1454 C 145.764 -0.492994 2.29362 0
M  V30 1455 C 146.78 -1.09507 1.35219 0
M  V30 1456 O 147.956 -1.10662 1.68273 0
M  V30 1457 C 145.021 -1.61855 3.066 0
M  V30 1458 C 144.082 -1.04429 4.16405 0
M  V30 1459 C 143.315 -2.11621 4.89951 0
M  V30 1460 O 143.538 -3.32684 4.63333 0
M  V30 1461 O 142.472 -1.74835 5.75948 0
M  V30 1462 H 146.298 0.125331 3.03441 0
M  V30 1463 H 143.883 0.127253 1.48857 0
M  V30 1464 H 145.765 -2.27302 3.54841 0
M  V30 1465 H 144.44 -2.22233 2.3536 0
M  V30 1466 H 143.347 -0.353819 3.72423 0
M  V30 1467 H 144.68 -0.485113 4.89804 0
M  V30 1468 N 146.332 -1.57332 0.0918853 0
M  V30 1469 C 147.295 -2.12708 -0.85369 0
M  V30 1470 C 148.295 -1.05561 -1.213 0
M  V30 1471 O 149.485 -1.31461 -1.14296 0
M  V30 1472 C 146.617 -2.64503 -2.15061 0
M  V30 1473 H 147.81 -2.97573 -0.3729 0
M  V30 1474 H 145.363 -1.55509 -0.157072 0
M  V30 1475 H 146.098 -1.83149 -2.67632 0
M  V30 1476 H 145.883 -3.4284 -1.90272 0
M  V30 1477 H 147.373 -3.07351 -2.82711 0
M  V30 1478 N 147.81 0.181792 -1.56548 0
M  V30 1479 C 148.74 1.22765 -1.98623 0
M  V30 1480 C 149.721 1.46747 -0.860189 0
M  V30 1481 O 150.906 1.58259 -1.12551 0
M  V30 1482 C 148.036 2.56894 -2.33715 0
M  V30 1483 C 146.99 2.475 -3.49182 0
M  V30 1484 C 146.316 3.86023 -3.69986 0
M  V30 1485 C 147.616 1.98866 -4.82959 0
M  V30 1486 H 149.31 0.877942 -2.86239 0
M  V30 1487 H 146.856 0.42088 -1.37712 0
M  V30 1488 H 148.809 3.30253 -2.61746 0
M  V30 1489 H 147.533 2.93632 -1.42997 0
M  V30 1490 H 146.192 1.76596 -3.21262 0
M  V30 1491 H 145.84 4.20136 -2.76576 0
M  V30 1492 H 145.54 3.80609 -4.47672 0
M  V30 1493 H 147.064 4.60984 -4.00407 0
M  V30 1494 H 148.478 2.61992 -5.09934 0
M  V30 1495 H 146.875 2.04424 -5.64208 0
M  V30 1496 H 147.945 0.942465 -4.75653 0
M  V30 1497 N 149.288 1.51039 0.449983 0
M  V30 1498 C 150.528 1.64732 1.21007 0
M  V30 1499 C 150.892 0.349865 1.88785 0
M  V30 1500 O 152.093 0.362431 2.66345 0
M  V30 1501 C 150.364 2.80902 2.20973 0
M  V30 1502 S 151.923 3.14851 3.05638 0
M  V30 1503 H 148.741 0.5805 0.410538 0
M  V30 1504 H 151.343 1.88901 0.503634 0
M  V30 1505 H 150.047 3.73627 1.69796 0
M  V30 1506 H 149.578 2.58882 2.96215 0
M  V30 1507 H 151.593 2.60306 4.22439 0
M  V30 1508 N 150.766 -0.704594 1.40972 0
M  V30 1509 C 152.182 -1.01406 1.23244 0
M  V30 1510 C 152.382 -2.01169 0.115399 0
M  V30 1511 O 151.438 -2.47021 -0.523147 0
M  V30 1512 C 152.751 -1.54728 2.57836 0
M  V30 1513 C 154.299 -1.66658 2.64942 0
M  V30 1514 C 154.774 -2.23383 3.9983 0
M  V30 1515 N 156.265 -2.30756 4.01629 0
M  V30 1516 C 157 -2.75655 5.02794 0
M  V30 1517 N 156.496 -3.20225 6.14352 0
M  V30 1518 N 158.289 -2.75138 4.90159 0
M  V30 1519 H 150.44 -0.0435285 2.12355 0
M  V30 1520 H 152.703 -0.0818951 0.944456 0
M  V30 1521 H 152.409 -0.888832 3.40283 0
M  V30 1522 H 152.283 -2.53084 2.79693 0
M  V30 1523 H 154.67 -2.31617 1.8286 0
M  V30 1524 H 154.751 -0.668717 2.46904 0
M  V30 1525 H 154.395 -1.59043 4.82357 0
M  V30 1526 H 154.325 -3.23904 4.15203 0
M  V30 1527 H 156.816 -1.99291 3.21079 0
M  V30 1528 H 157.129 -3.53084 6.87424 0
M  V30 1529 H 155.474 -3.18156 6.17901 0
M  V30 1530 H 158.665 -2.39661 4.02095 0
M  V30 1531 H 158.838 -3.09812 5.6914 0
M  V30 1532 N 152.244 -1.26651 -0.937939 0
M  V30 1533 C 153.207 -1.08546 -2.01867 0
M  V30 1534 C 154.207 -0.0327327 -1.60767 0
M  V30 1535 O 155.397 -0.276427 -1.71993 0
M  V30 1536 C 152.529 -0.651711 -3.34613 0
M  V30 1537 H 153.722 -2.04502 -2.1936 0
M  V30 1538 H 151.275 -1.09294 -1.11734 0
M  V30 1539 H 152.01 0.309696 -3.22818 0
M  V30 1540 H 151.795 -1.41189 -3.65798 0
M  V30 1541 H 153.285 -0.546973 -4.14002 0
M  V30 1542 N 153.722 1.14298 -1.08507 0
M  V30 1543 C 154.969 1.85359 -0.815373 0
M  V30 1544 C 155.297 1.83001 0.658865 0
M  V30 1545 O 154.552 1.25655 1.50031 0
M  V30 1546 C 154.851 3.33547 -1.28379 0
M  V30 1547 C 154.517 3.56093 -2.76602 0
M  V30 1548 C 153.179 3.61955 -3.17084 0
M  V30 1549 C 155.531 3.64834 -3.72217 0
M  V30 1550 C 152.859 3.74082 -4.51973 0
M  V30 1551 C 155.211 3.78487 -5.06883 0
M  V30 1552 C 153.875 3.82598 -5.46969 0
M  V30 1553 H 153.145 0.678276 -0.298366 0
M  V30 1554 H 155.792 1.35002 -1.35819 0
M  V30 1555 H 154.097 3.86191 -0.660593 0
M  V30 1556 H 155.794 3.86959 -1.05186 0
M  V30 1557 H 152.384 3.52179 -2.4427 0
M  V30 1558 H 156.568 3.59595 -3.42061 0
M  V30 1559 H 151.824 3.75527 -4.82483 0
M  V30 1560 H 155.998 3.84193 -5.80834 0
M  V30 1561 H 153.625 3.91747 -6.51489 0
M  V30 1562 N 155.201 0.870884 1.31352 0
M  V30 1563 C 156.478 0.402907 1.91405 0
M  V30 1564 C 156.858 -1.11512 1.79244 0
M  V30 1565 O 156.206 -1.94411 1.2007 0
M  V30 1566 C 156.416 0.885301 3.37585 0
M  V30 1567 C 157.764 0.911971 4.14691 0
M  V30 1568 O 158.788 0.831016 3.46371 0
M  V30 1569 O 157.647 1.02927 5.3672 0
M  V30 1570 H 154.741 0.120698 0.818145 0
M  V30 1571 H 157.287 0.958857 1.40014 0
M  V30 1572 H 156.059 1.92889 3.40455 0
M  V30 1573 H 155.682 0.307714 3.96407 0
M  V30 1574 N 156.679 -1.44442 0.630414 0
M  V30 1575 C 157.925 -2.02351 0.134816 0
M  V30 1576 C 158.258 -1.4947 -1.23986 0
M  V30 1577 O 157.533 -0.678475 -1.82283 0
M  V30 1578 C 157.816 -3.59898 0.120707 0
M  V30 1579 C 157.669 -4.23063 1.52767 0
M  V30 1580 C 158.988 -4.36585 -0.555127 0
M  V30 1581 H 156.107 -0.73527 0.0504646 0
M  V30 1582 H 158.749 -1.72022 0.806751 0
M  V30 1583 H 156.899 -3.85868 -0.451477 0
M  V30 1584 H 158.571 -4.08202 2.14869 0
M  V30 1585 H 156.814 -3.80586 2.08175 0
M  V30 1586 H 157.485 -5.32071 1.46984 0
M  V30 1587 H 159.961 -4.16044 -0.0685429 0
M  V30 1588 H 158.837 -5.46294 -0.534185 0
M  V30 1589 H 159.098 -4.11138 -1.62535 0
M  V30 1590 N 158.157 -0.370918 -1.53173 0
M  V30 1591 C 159.406 0.218249 -2.00516 0
M  V30 1592 C 159.719 1.49429 -1.26215 0
M  V30 1593 O 160.925 2.16239 -1.64174 0
M  V30 1594 C 159.381 0.43948 -3.57207 0
M  V30 1595 C 158.989 -0.822244 -4.4039 0
M  V30 1596 C 160.733 0.986012 -4.1289 0
M  V30 1597 C 158.64 -0.570304 -5.88644 0
M  V30 1598 H 157.57 0.0853333 -0.749156 0
M  V30 1599 H 160.221 -0.490483 -1.76823 0
M  V30 1600 H 158.603 1.20961 -3.77074 0
M  V30 1601 H 159.777 -1.59557 -4.32294 0
M  V30 1602 H 158.092 -1.29238 -3.95836 0
M  V30 1603 H 160.689 1.18991 -5.21292 0
M  V30 1604 H 161.032 1.94972 -3.6782 0
M  V30 1605 H 161.565 0.27592 -3.96842 0
M  V30 1606 H 158.304 -1.50449 -6.38001 0
M  V30 1607 H 157.824 0.164427 -5.99575 0
M  V30 1608 H 159.503 -0.19784 -6.46697 0
M  V30 1609 N 159.635 1.57281 -0.100228 0
M  V30 1610 C 160.582 2.14305 0.856858 0
M  V30 1611 C 161.552 1.06296 1.27634 0
M  V30 1612 O 162.737 1.34109 1.35718 0
M  V30 1613 C 159.877 2.73184 2.10866 0
M  V30 1614 C 158.99 3.95442 1.73925 0
M  V30 1615 C 158.125 4.42468 2.93931 0
M  V30 1616 C 157.164 5.57303 2.5314 0
M  V30 1617 N 156.301 5.99158 3.65997 0
M  V30 1618 H 161.141 2.95772 0.363726 0
M  V30 1619 H 158.678 1.46139 0.167858 0
M  V30 1620 H 160.636 3.05442 2.84185 0
M  V30 1621 H 159.266 1.94437 2.57671 0
M  V30 1622 H 158.318 3.69464 0.905554 0
M  V30 1623 H 159.63 4.78769 1.39935 0
M  V30 1624 H 158.784 4.76537 3.75496 0
M  V30 1625 H 157.523 3.58052 3.31134 0
M  V30 1626 H 156.528 5.22857 1.70003 0
M  V30 1627 H 157.753 6.43471 2.17075 0
M  V30 1628 H 155.699 5.17687 4.02909 0
M  V30 1629 H 155.616 6.77295 3.35869 0
M  V30 1630 H 156.884 6.3786 4.48057 0
M  V30 1631 N 161.113 -0.173488 1.56642 0
M  V30 1632 C 162.023 -1.23482 1.99473 0
M  V30 1633 C 163.039 -1.48567 0.905752 0
M  V30 1634 O 164.215 -1.60758 1.21321 0
M  V30 1635 C 161.28 -2.55444 2.34413 0
M  V30 1636 C 160.341 -2.38241 3.57127 0
M  V30 1637 C 159.574 -3.63909 3.90392 0
M  V30 1638 O 159.797 -4.68996 3.24653 0
M  V30 1639 O 158.731 -3.58149 4.83749 0
M  V30 1640 H 162.557 -0.901279 2.90018 0
M  V30 1641 H 160.142 -0.380185 1.44482 0
M  V30 1642 H 162.024 -3.33292 2.57865 0
M  V30 1643 H 160.699 -2.88382 1.4703 0
M  V30 1644 H 159.606 -1.58431 3.38896 0
M  V30 1645 H 160.939 -2.10228 4.45045 0
M  V30 1646 N 162.591 -1.51276 -0.441967 0
M  V30 1647 C 163.538 -1.72256 -1.53612 0
M  V30 1648 C 164.508 -0.564164 -1.56225 0
M  V30 1649 O 165.693 -0.798074 -1.73307 0
M  V30 1650 C 162.833 -1.84932 -2.91366 0
M  V30 1651 C 161.946 -3.12459 -2.98317 0
M  V30 1652 C 161.081 -3.15758 -4.27166 0
M  V30 1653 C 160.12 -4.37619 -4.27967 0
M  V30 1654 N 159.257 -4.38493 -5.48333 0
M  V30 1655 H 164.097 -2.65654 -1.35026 0
M  V30 1656 H 161.634 -1.31662 -0.656009 0
M  V30 1657 H 163.592 -1.90263 -3.7129 0
M  V30 1658 H 162.222 -0.949461 -3.08521 0
M  V30 1659 H 161.274 -3.1646 -2.11086 0
M  V30 1660 H 162.586 -4.02382 -2.94771 0
M  V30 1661 H 161.74 -3.19979 -5.15459 0
M  V30 1662 H 160.479 -2.23715 -4.33362 0
M  V30 1663 H 159.484 -4.33579 -3.38067 0
M  V30 1664 H 160.709 -5.30921 -4.23438 0
M  V30 1665 H 158.655 -3.49318 -5.55259 0
M  V30 1666 H 158.572 -5.22219 -5.46647 0
M  V30 1667 H 159.84 -4.469 -6.38671 0
M  V30 1668 N 164.069 0.697108 -1.41344 0
M  V30 1669 C 165.017 1.83237 -1.43272 0
M  V30 1670 C 166.011 1.66522 -0.310947 0
M  V30 1671 O 167.217 1.73402 -0.482899 0
M  V30 1672 H 163.592 0.603802 -0.448249 0
M  V30 1673 H 165.563 1.78727 -2.38954 0
M  V30 1674 C 164.312 3.21245 -1.33029 0
M  V30 1675 H 163.635 3.34723 -2.18633 0
M  V30 1676 H 165.075 4.00763 -1.38439 0
M  V30 1677 C 163.534 3.36873 -0.0424635 0
M  V30 1678 O 164.064 3.91177 0.913421 0
M  V30 1679 N 162.27 2.90581 0.0331145 0
M  V30 1680 H 161.817 2.46577 -0.745506 0
M  V30 1681 H 161.775 3.01416 0.894199 0
M  V30 1682 N 165.547 1.27147 0.931209 0
M  V30 1683 C 166.48 1.0389 2.0318 0
M  V30 1684 C 167.458 -0.0395716 1.62552 0
M  V30 1685 O 168.642 0.104867 1.88208 0
M  V30 1686 C 165.769 0.575227 3.3378 0
M  V30 1687 C 164.815 1.64774 3.93385 0
M  V30 1688 S 165.648 3.23933 4.26413 0
M  V30 1689 C 166.804 2.79358 5.60098 0
M  V30 1690 H 167.037 1.97075 2.22596 0
M  V30 1691 H 164.57 1.10938 1.07387 0
M  V30 1692 H 166.528 0.314385 4.09294 0
M  V30 1693 H 165.189 -0.336505 3.12292 0
M  V30 1694 H 164.382 1.27454 4.87618 0
M  V30 1695 H 163.984 1.86048 3.24441 0
M  V30 1696 H 166.276 2.24443 6.39243 0
M  V30 1697 H 167.219 3.72322 6.02314 0
M  V30 1698 H 167.627 2.1861 5.20452 0
M  V30 1699 N 167.025 -1.13721 1.09112 0
M  V30 1700 C 168.255 -1.88499 0.845671 0
M  V30 1701 C 168.663 -1.79218 -0.606432 0
M  V30 1702 O 168.006 -1.1544 -1.42896 0
M  V30 1703 C 168.068 -3.38954 1.19793 0
M  V30 1704 C 167.732 -3.72018 2.65428 0
M  V30 1705 C 168.729 -3.7153 3.63677 0
M  V30 1706 C 166.414 -4.01775 3.01467 0
M  V30 1707 C 168.408 -4.00336 4.95994 0
M  V30 1708 C 166.095 -4.30243 4.33975 0
M  V30 1709 C 167.093 -4.29508 5.31048 0
M  V30 1710 O 166.781 -4.5728 6.61173 0
M  V30 1711 H 166.513 -0.603702 0.304171 0
M  V30 1712 H 169.067 -1.44903 1.45576 0
M  V30 1713 H 167.297 -3.83039 0.530871 0
M  V30 1714 H 168.986 -3.95052 0.932146 0
M  V30 1715 H 169.752 -3.4862 3.37179 0
M  V30 1716 H 165.631 -4.01496 2.26544 0
M  V30 1717 H 169.175 -3.99678 5.71755 0
M  V30 1718 H 165.072 -4.52625 4.60219 0
M  V30 1719 H 165.84 -4.74964 6.66597 0
M  V30 1720 N 168.503 -0.877838 -1.30888 0
M  V30 1721 C 169.751 -0.491723 -1.96027 0
M  V30 1722 C 170.072 0.960827 -1.69685 0
M  V30 1723 O 169.342 1.67462 -1.01654 0
M  V30 1724 H 167.922 -0.17885 -0.725273 0
M  V30 1725 H 170.584 -1.11935 -1.59551 0
M  V30 1726 H 169.68 -0.656016 -3.05128 0
M  V30 1727 N 169.982 1.44106 -0.638065 0
M  V30 1728 C 170.929 2.30715 0.062701 0
M  V30 1729 C 171.899 1.43882 0.829883 0
M  V30 1730 O 173.084 1.72775 0.809532 0
M  V30 1731 C 170.224 3.29258 1.03358 0
M  V30 1732 C 169.337 4.31192 0.26409 0
M  V30 1733 C 168.472 5.16825 1.22741 0
M  V30 1734 C 167.511 6.10462 0.447475 0
M  V30 1735 N 166.648 6.8877 1.36161 0
M  V30 1736 H 171.488 2.90096 -0.681781 0
M  V30 1737 H 169.025 1.42925 -0.347988 0
M  V30 1738 H 170.983 3.84886 1.60992 0
M  V30 1739 H 169.613 2.71562 1.74511 0
M  V30 1740 H 168.665 3.77981 -0.428295 0
M  V30 1741 H 169.977 4.97619 -0.343052 0
M  V30 1742 H 169.131 5.77004 1.87487 0
M  V30 1743 H 167.87 4.50488 1.86847 0
M  V30 1744 H 166.875 5.49386 -0.213433 0
M  V30 1745 H 168.1 6.78837 -0.188968 0
M  V30 1746 H 166.046 6.25096 1.98975 0
M  V30 1747 H 165.963 7.51663 0.808656 0
M  V30 1748 H 167.231 7.53467 1.99769 0
M  V30 1749 N 171.46 0.379036 1.52974 0
M  V30 1750 C 172.392 -0.495963 2.2377 0
M  V30 1751 C 173.405 -1.03517 1.25651 0
M  V30 1752 O 174.594 -0.939249 1.51791 0
M  V30 1753 C 171.694 -1.69894 2.93239 0
M  V30 1754 C 170.867 -1.2889 4.17979 0
M  V30 1755 C 169.926 -2.35543 4.70538 0
M  V30 1756 O 168.952 -1.97375 5.33883 0
M  V30 1757 N 170.154 -3.67318 4.49508 0
M  V30 1758 H 172.919 0.110523 2.99496 0
M  V30 1759 H 170.48 0.204878 1.60598 0
M  V30 1760 H 172.472 -2.40747 3.25304 0
M  V30 1761 H 171.042 -2.212 2.20883 0
M  V30 1762 H 170.262 -0.409676 3.92065 0
M  V30 1763 H 171.55 -0.991443 4.99047 0
M  V30 1764 H 170.948 -4.01095 3.98923 0
M  V30 1765 H 169.505 -4.34235 4.8609 0
M  V30 1766 N 172.938 -1.57226 0.108567 0
M  V30 1767 C 174.184 -1.95121 -0.552761 0
M  V30 1768 C 174.517 -0.991345 -1.66991 0
M  V30 1769 O 173.792 -0.0267211 -1.94482 0
M  V30 1770 C 174.075 -3.43039 -1.09528 0
M  V30 1771 C 173.928 -4.49797 0.0177332 0
M  V30 1772 C 175.247 -3.92567 -1.98945 0
M  V30 1773 H 172.366 -0.709496 -0.199461 0
M  V30 1774 H 175.008 -1.89126 0.182011 0
M  V30 1775 H 173.158 -3.48279 -1.72146 0
M  V30 1776 H 174.83 -4.56661 0.652584 0
M  V30 1777 H 173.073 -4.284 0.682309 0
M  V30 1778 H 173.744 -5.50528 -0.402919 0
M  V30 1779 H 176.22 -3.89565 -1.46214 0
M  V30 1780 H 175.096 -4.96605 -2.33827 0
M  V30 1781 H 175.357 -3.32648 -2.91201 0
M  V30 1782 N 174.416 0.165178 -1.56732 0
M  V30 1783 C 175.346 1.20651 -1.99914 0
M  V30 1784 C 176.327 1.45827 -0.875705 0
M  V30 1785 O 177.512 1.57057 -1.14223 0
M  V30 1786 C 174.642 2.54401 -2.36427 0
M  V30 1787 C 173.596 2.43782 -3.51787 0
M  V30 1788 C 172.922 3.82078 -3.7406 0
M  V30 1789 C 174.222 1.93732 -4.85041 0
M  V30 1790 H 175.916 0.847534 -2.87154 0
M  V30 1791 H 173.462 0.40625 -1.38151 0
M  V30 1792 H 175.415 3.27458 -2.65234 0
M  V30 1793 H 174.139 2.92098 -1.46103 0
M  V30 1794 H 172.798 1.73178 -3.23117 0
M  V30 1795 H 172.446 4.17179 -2.81017 0
M  V30 1796 H 172.146 3.7584 -4.51684 0
M  V30 1797 H 173.67 4.56712 -4.05274 0
M  V30 1798 H 175.084 2.56569 -5.12684 0
M  V30 1799 H 173.481 1.98428 -5.66345 0
M  V30 1800 H 174.551 0.891962 -4.76626 0
M  V30 1801 N 175.894 1.51508 0.433938 0
M  V30 1802 C 177.142 1.6402 1.18075 0
M  V30 1803 C 177.463 0.360328 1.91642 0
M  V30 1804 O 176.733 -0.623945 1.85698 0
M  V30 1805 H 175.313 0.6045 0.43885 0
M  V30 1806 H 177.975 1.88452 0.497178 0
M  V30 1807 H 177.071 2.46949 1.90847 0
M  V30 1808 N 177.372 -0.689602 1.41712 0
M  V30 1809 C 178.621 -1.44534 1.40686 0
M  V30 1810 C 178.934 -1.95588 0.0213352 0
M  V30 1811 O 180.14 -2.71271 -0.111534 0
M  V30 1812 C 178.596 -2.61387 2.47396 0
M  V30 1813 C 178.204 -2.17094 3.91885 0
M  V30 1814 C 179.948 -3.38986 2.55517 0
M  V30 1815 C 177.855 -3.3094 4.90135 0
M  V30 1816 H 176.785 -0.542925 0.52321 0
M  V30 1817 H 179.436 -0.748054 1.6756 0
M  V30 1818 H 177.818 -3.33412 2.13664 0
M  V30 1819 H 178.992 -1.52318 4.34897 0
M  V30 1820 H 177.307 -1.52473 3.8748 0
M  V30 1821 H 179.904 -4.23747 3.26102 0
M  V30 1822 H 180.247 -3.84578 1.59391 0
M  V30 1823 H 180.78 -2.74021 2.8837 0
M  V30 1824 H 177.519 -2.90355 5.87685 0
M  V30 1825 H 177.039 -3.94546 4.51767 0
M  V30 1826 H 178.718 -3.9663 5.11169 0
M  V30 1827 N 178.85 -1.27639 -0.924453 0
M  V30 1828 C 179.76 -1.12466 -2.05885 0
M  V30 1829 C 180.776 -0.053869 -1.73917 0
M  V30 1830 O 181.952 -0.261012 -1.99702 0
M  V30 1831 C 179.017 -0.776768 -3.37886 0
M  V30 1832 C 178.078 -1.92878 -3.83532 0
M  V30 1833 C 177.311 -1.59739 -5.09234 0
M  V30 1834 O 177.534 -0.506782 -5.68144 0
M  V30 1835 O 176.468 -2.43761 -5.50331 0
M  V30 1836 H 180.294 -2.07671 -2.21599 0
M  V30 1837 H 177.879 -1.06857 -1.04413 0
M  V30 1838 H 179.761 -0.596229 -4.17161 0
M  V30 1839 H 178.436 0.145732 -3.23372 0
M  V30 1840 H 177.343 -2.1644 -3.0513 0
M  V30 1841 H 178.676 -2.8316 -4.02593 0
M  V30 1842 N 180.328 1.1314 -1.09713 0
M  V30 1843 C 181.744 1.36477 -0.827423 0
M  V30 1844 C 181.944 1.93654 0.556817 0
M  V30 1845 O 181 2.15791 1.31112 0
M  V30 1846 C 182.313 2.31334 -1.92106 0
M  V30 1847 C 183.861 2.44943 -1.94864 0
M  V30 1848 C 184.336 3.4311 -3.0338 0
M  V30 1849 N 185.827 3.50662 -3.02639 0
M  V30 1850 C 186.562 4.2651 -3.83246 0
M  V30 1851 N 186.058 5.05485 -4.73768 0
M  V30 1852 N 187.851 4.2184 -3.71493 0
M  V30 1853 H 180.002 0.743807 -1.9895 0
M  V30 1854 H 182.265 0.389823 -0.864143 0
M  V30 1855 H 181.971 1.96483 -2.91698 0
M  V30 1856 H 181.845 3.31381 -1.80184 0
M  V30 1857 H 184.232 2.79079 -0.959099 0
M  V30 1858 H 184.313 1.4481 -2.10864 0
M  V30 1859 H 183.957 3.09704 -4.02549 0
M  V30 1860 H 183.887 4.43055 -2.84622 0
M  V30 1861 H 186.378 2.94315 -2.37039 0
M  V30 1862 H 186.691 5.60675 -5.3185 0
M  V30 1863 H 185.036 5.04708 -4.77802 0
M  V30 1864 H 188.227 3.5922 -3.00131 0
M  V30 1865 H 188.4 4.80697 -4.3455 0
M  V30 1866 N 181.806 0.884767 1.30421 0
M  V30 1867 C 183.031 0.517288 2.00845 0
M  V30 1868 C 183.456 -0.886779 1.65885 0
M  V30 1869 O 182.814 -1.58768 0.875354 0
M  V30 1870 C 182.862 0.698994 3.5376 0
M  V30 1871 O 181.966 -0.255208 4.1161 0
M  V30 1872 H 181.307 0.203872 0.631927 0
M  V30 1873 H 183.837 1.19225 1.66272 0
M  V30 1874 H 183.847 0.597912 4.03595 0
M  V30 1875 H 182.522 1.72271 3.78544 0
M  V30 1876 H 181.099 -0.10784 3.72744 0
M  V30 1877 N 183.284 -1.43765 0.645699 0
M  V30 1878 C 184.512 -2.06253 0.163556 0
M  V30 1879 C 184.927 -1.48352 -1.16778 0
M  V30 1880 O 184.284 -0.611932 -1.71935 0
M  V30 1881 C 184.335 -3.61453 0.0583186 0
M  V30 1882 O 184.056 -4.172 1.33702 0
M  V30 1883 C 185.557 -4.41002 -0.450795 0
M  V30 1884 H 182.777 -0.665413 0.0864077 0
M  V30 1885 H 185.321 -1.84396 0.884222 0
M  V30 1886 H 183.476 -3.82522 -0.612865 0
M  V30 1887 H 183.89 -5.10791 1.19131 0
M  V30 1888 H 185.364 -5.49966 -0.473403 0
M  V30 1889 H 185.841 -4.13488 -1.48068 0
M  V30 1890 H 186.447 -4.24886 0.187637 0
M  V30 1891 N 184.763 -0.387143 -1.52771 0
M  V30 1892 C 186.01 0.195735 -2.01552 0
M  V30 1893 C 186.338 1.46995 -1.27369 0
M  V30 1894 O 185.593 1.92325 -0.361879 0
M  V30 1895 C 185.892 0.512209 -3.53711 0
M  V30 1896 C 185.558 -0.670202 -4.45891 0
M  V30 1897 C 184.22 -0.994586 -4.70809 0
M  V30 1898 C 186.572 -1.46134 -5.00294 0
M  V30 1899 C 183.9 -2.11169 -5.4738 0
M  V30 1900 C 186.252 -2.56903 -5.78086 0
M  V30 1901 C 184.916 -2.89852 -6.01284 0
M  V30 1902 H 184.186 0.0716246 -0.73753 0
M  V30 1903 H 186.833 -0.524046 -1.8419 0
M  V30 1904 H 185.138 1.31329 -3.69134 0
M  V30 1905 H 186.835 0.975804 -3.88946 0
M  V30 1906 H 183.425 -0.407366 -4.2666 0
M  V30 1907 H 187.609 -1.22397 -4.80971 0
M  V30 1908 H 182.865 -2.3707 -5.63567 0
M  V30 1909 H 187.039 -3.18608 -6.19243 0
M  V30 1910 H 184.666 -3.76533 -6.60399 0
M  V30 1911 N 186.241 1.57166 -0.116904 0
M  V30 1912 C 187.171 2.18222 0.830759 0
M  V30 1913 C 188.152 1.12167 1.27877 0
M  V30 1914 O 189.337 1.40394 1.34176 0
M  V30 1915 C 186.467 2.77996 2.08172 0
M  V30 1916 C 185.421 3.89614 1.77157 0
M  V30 1917 C 184.747 4.36187 3.09265 0
M  V30 1918 C 186.047 5.1181 1.04151 0
M  V30 1919 H 187.741 2.97664 0.321992 0
M  V30 1920 H 185.287 1.4318 0.153434 0
M  V30 1921 H 187.24 3.19366 2.74924 0
M  V30 1922 H 185.964 1.9584 2.6137 0
M  V30 1923 H 184.623 3.48816 1.12796 0
M  V30 1924 H 184.271 3.50893 3.60393 0
M  V30 1925 H 183.971 5.11455 2.89288 0
M  V30 1926 H 185.495 4.80207 3.77139 0
M  V30 1927 H 186.909 5.50214 1.61052 0
M  V30 1928 H 185.306 5.92648 0.942762 0
M  V30 1929 H 186.376 4.84892 0.0279022 0
M  V30 1930 N 187.719 -0.156864 1.56817 0
M  V30 1931 C 188.649 -1.19589 2.00551 0
M  V30 1932 C 189.63 -1.4536 0.883426 0
M  V30 1933 O 190.815 -1.56449 1.15054 0
M  V30 1934 C 187.945 -2.53143 2.37773 0
M  V30 1935 C 186.899 -2.41913 3.53075 0
M  V30 1936 C 186.225 -3.80088 3.76081 0
M  V30 1937 C 187.525 -1.91157 4.86062 0
M  V30 1938 H 189.219 -0.832293 2.87599 0
M  V30 1939 H 186.765 -0.398918 1.38364 0
M  V30 1940 H 188.718 -3.26047 2.66967 0
M  V30 1941 H 187.442 -2.91319 1.4765 0
M  V30 1942 H 186.101 -1.71462 3.24031 0
M  V30 1943 H 185.749 -4.15683 2.83225 0
M  V30 1944 H 185.449 -3.73439 4.53671 0
M  V30 1945 H 186.973 -4.54556 4.0769 0
M  V30 1946 H 188.387 -2.53846 5.14038 0
M  V30 1947 H 186.784 -1.95422 5.67389 0
M  V30 1948 H 187.854 -0.866673 4.77092 0
M  V30 1949 N 189.197 -1.51736 -0.425897 0
M  V30 1950 C 190.422 -1.69082 -1.20108 0
M  V30 1951 C 190.847 -0.392398 -1.83962 0
M  V30 1952 O 190.205 0.64858 -1.69302 0
M  V30 1953 C 190.253 -2.81604 -2.25237 0
M  V30 1954 O 189.357 -2.46004 -3.30992 0
M  V30 1955 H 188.698 -0.563408 -0.35138 0
M  V30 1956 H 191.228 -1.98358 -0.501512 0
M  V30 1957 H 191.238 -3.06025 -2.69838 0
M  V30 1958 H 189.913 -3.75817 -1.78142 0
M  V30 1959 H 188.49 -2.32195 -2.91787 0
M  V30 1960 N 190.675 0.682077 -1.42076 0
M  V30 1961 C 192.086 1.26246 -1.37546 0
M  V30 1962 C 192.437 1.96092 -0.0651481 0
M  V30 1963 O 191.562 1.99587 0.836297 0
M  V30 1964 C 192.157 2.29594 -2.49143 0
M  V30 1965 C 190.716 2.83175 -2.47969 0
M  V30 1966 C 189.863 1.57395 -2.28303 0
M  V30 1967 H 192.814 0.475937 -1.51395 0
M  V30 1968 H 192.835 3.11175 -2.18976 0
M  V30 1969 H 192.347 1.78729 -3.44496 0
M  V30 1970 H 190.448 3.3818 -1.56413 0
M  V30 1971 H 190.561 3.32687 -3.44755 0
M  V30 1972 H 188.925 1.83699 -1.76428 0
M  V30 1973 H 189.708 1.08507 -3.25701 0
M  V30 1974 N 192.153 1.28127 0.917671 0
M  V30 1975 C 193.063 1.13556 2.05286 0
M  V30 1976 C 194.079 0.0630914 1.73886 0
M  V30 1977 O 195.255 0.271598 1.9956 0
M  V30 1978 C 192.32 0.794676 3.3747 0
M  V30 1979 C 191.381 1.94909 3.82504 0
M  V30 1980 C 190.614 1.62437 5.0838 0
M  V30 1981 O 190.837 0.536905 5.67867 0
M  V30 1982 O 189.771 2.46677 5.4903 0
M  V30 1983 H 193.597 2.08844 2.20495 0
M  V30 1984 H 191.182 1.07409 1.03845 0
M  V30 1985 H 193.064 0.618344 4.16839 0
M  V30 1986 H 191.739 -0.128581 3.23445 0
M  V30 1987 H 190.646 2.18055 3.03978 0
M  V30 1988 H 191.979 2.85291 4.01086 0
M  V30 1989 N 193.631 -1.12557 1.10312 0
M  V30 1990 C 194.879 -1.83675 0.843091 0
M  V30 1991 C 195.2 -1.84435 -0.633131 0
M  V30 1992 O 194.47 -1.30657 -1.45964 0
M  V30 1993 H 193.05 -0.680138 0.308904 0
M  V30 1994 H 195.712 -1.36301 1.39313 0
M  V30 1995 H 194.808 -2.87908 1.2048 0
M  V30 1996 N 195.109 -0.891671 -1.2995 0
M  V30 1997 C 196.041 -0.320695 -2.26945 0
M  V30 1998 C 197.054 0.528497 -1.53983 0
M  V30 1999 O 198.243 0.346959 -1.75096 0
M  V30 2000 C 195.343 0.562066 -3.34207 0
M  V30 2001 C 194.516 -0.259576 -4.36629 0
M  V30 2002 C 193.575 0.554739 -5.23268 0
M  V30 2003 O 192.601 -0.0249311 -5.69195 0
M  V30 2004 N 193.803 1.8625 -5.4981 0
M  V30 2005 H 196.568 -1.15432 -2.76578 0
M  V30 2006 H 194.129 -0.755336 -1.432 0
M  V30 2007 H 196.121 1.11304 -3.89093 0
M  V30 2008 H 194.691 1.29637 -2.84452 0
M  V30 2009 H 193.911 -0.991986 -3.81514 0
M  V30 2010 H 195.199 -0.822564 -5.02107 0
M  V30 2011 H 194.597 2.35628 -5.14292 0
M  V30 2012 H 193.154 2.36078 -6.07545 0
M  V30 2013 N 196.587 1.43421 -0.653314 0
M  V30 2014 C 197.833 2.02111 -0.166992 0
M  V30 2015 C 198.166 1.51423 1.21592 0
M  V30 2016 O 197.441 0.707389 1.8118 0
M  V30 2017 C 197.724 3.5966 -0.177948 0
M  V30 2018 C 197.577 4.20579 -1.59478 0
M  V30 2019 C 198.896 4.37413 0.4856 0
M  V30 2020 H 196.015 0.734374 -0.0621557 0
M  V30 2021 H 198.657 1.70717 -0.834016 0
M  V30 2022 H 196.807 3.86537 0.390032 0
M  V30 2023 H 198.479 4.04732 -2.21336 0
M  V30 2024 H 196.722 3.77226 -2.14204 0
M  V30 2025 H 197.393 5.29665 -1.5543 0
M  V30 2026 H 199.869 4.161 0.00234528 0
M  V30 2027 H 198.745 5.47075 0.447207 0
M  V30 2028 H 199.006 4.13672 1.55974 0
M  V30 2029 N 198.065 0.39524 1.52563 0
M  V30 2030 C 199.311 -0.185318 2.01952 0
M  V30 2031 C 199.644 -1.45964 1.28095 0
M  V30 2032 O 198.919 -1.90689 0.38315 0
M  V30 2033 C 199.202 -0.447193 3.57312 0
M  V30 2034 C 199.055 0.842828 4.41833 0
M  V30 2035 C 200.374 -1.23529 4.22408 0
M  V30 2036 H 197.493 -0.0658788 0.73405 0
M  V30 2037 H 200.135 0.525975 1.82575 0
M  V30 2038 H 198.285 -1.05312 3.73954 0
M  V30 2039 H 199.957 1.4795 4.36931 0
M  V30 2040 H 198.2 1.45686 4.08605 0
M  V30 2041 H 198.871 0.614165 5.48573 0
M  V30 2042 H 201.347 -0.722445 4.0978 0
M  V30 2043 H 200.223 -1.38727 5.3108 0
M  V30 2044 H 200.484 -2.25213 3.80436 0
M  V30 2045 N 199.544 -1.57102 0.125237 0
M  V30 2046 C 200.476 -2.12726 -0.853237 0
M  V30 2047 C 201.489 -1.07145 -1.22571 0
M  V30 2048 O 202.678 -1.34497 -1.17358 0
M  V30 2049 C 199.778 -2.61709 -2.15317 0
M  V30 2050 C 198.951 -3.91456 -1.95143 0
M  V30 2051 C 198.01 -4.25973 -3.08923 0
M  V30 2052 O 197.036 -4.94682 -2.81564 0
M  V30 2053 N 198.238 -3.83795 -4.35524 0
M  V30 2054 H 201.003 -2.97307 -0.377964 0
M  V30 2055 H 198.564 -1.61792 -0.0590011 0
M  V30 2056 H 200.556 -2.81826 -2.90441 0
M  V30 2057 H 199.126 -1.81974 -2.54174 0
M  V30 2058 H 198.346 -3.80185 -1.04177 0
M  V30 2059 H 199.634 -4.76283 -1.78976 0
M  V30 2060 H 199.032 -3.2839 -4.60626 0
M  V30 2061 H 197.589 -4.09008 -5.07499 0
M  V30 2062 N 201.022 0.148545 -1.56898 0
M  V30 2063 C 201.985 1.16736 -1.97244 0
M  V30 2064 C 202.985 1.35947 -0.858777 0
M  V30 2065 O 204.175 1.32966 -1.12542 0
M  V30 2066 C 201.307 2.52798 -2.28705 0
M  V30 2067 H 202.5 0.821279 -2.88435 0
M  V30 2068 H 200.053 0.391831 -1.51309 0
M  V30 2069 H 200.788 2.92381 -1.403 0
M  V30 2070 H 200.573 2.40216 -3.09901 0
M  V30 2071 H 202.063 3.26179 -2.60762 0
M  V30 2072 N 202.5 1.5196 0.417844 0
M  V30 2073 C 203.746 1.66793 1.16411 0
M  V30 2074 C 204.101 0.388758 1.88432 0
M  V30 2075 O 203.394 -0.616409 1.81414 0
M  V30 2076 C 203.588 2.82269 2.19223 0
M  V30 2077 C 203.417 4.21293 1.57297 0
M  V30 2078 C 202.187 4.86948 1.34944 0
M  V30 2079 C 204.385 5.03704 1.03858 0
M  V30 2080 N 202.367 6.1003 0.688195 0
M  V30 2081 C 203.738 6.1795 0.503742 0
M  V30 2082 C 205.793 4.89095 0.932203 0
M  V30 2083 C 204.496 7.19188 -0.127034 0
M  V30 2084 C 206.522 5.90559 0.315293 0
M  V30 2085 C 205.884 7.0409 -0.208906 0
M  V30 2086 H 201.983 0.66407 0.412959 0
M  V30 2087 H 204.567 1.89242 0.457772 0
M  V30 2088 H 202.738 2.61451 2.87225 0
M  V30 2089 H 204.47 2.86183 2.86149 0
M  V30 2090 H 201.225 4.45156 1.61657 0
M  V30 2091 H 201.649 6.75964 0.374449 0
M  V30 2092 H 206.291 4.01557 1.32332 0
M  V30 2093 H 204.009 8.06359 -0.530231 0
M  V30 2094 H 207.595 5.81327 0.234625 0
M  V30 2095 H 206.475 7.81257 -0.67875 0
M  V30 2096 N 203.978 -0.674533 1.42435 0
M  V30 2097 C 205.394 -0.98769 1.25367 0
M  V30 2098 C 205.594 -2.00879 0.158044 0
M  V30 2099 O 204.65 -2.48075 -0.470633 0
M  V30 2100 C 205.963 -1.49224 2.6106 0
M  V30 2101 C 207.511 -1.61 2.68417 0
M  V30 2102 C 207.986 -2.14852 4.04478 0
M  V30 2103 N 209.477 -2.22185 4.06434 0
M  V30 2104 C 210.212 -2.64928 5.08528 0
M  V30 2105 N 209.708 -3.07121 6.21006 0
M  V30 2106 N 211.501 -2.64679 4.95885 0
M  V30 2107 H 203.652 0.00152503 2.124 0
M  V30 2108 H 205.915 -0.0618434 0.945981 0
M  V30 2109 H 205.621 -0.816453 3.42092 0
M  V30 2110 H 205.495 -2.47094 2.84999 0
M  V30 2111 H 207.882 -2.27686 1.87732 0
M  V30 2112 H 207.963 -0.616195 2.48267 0
M  V30 2113 H 207.607 -1.48775 4.85622 0
M  V30 2114 H 207.537 -3.15024 4.2198 0
M  V30 2115 H 210.028 -1.92435 3.25234 0
M  V30 2116 H 210.341 -3.38423 6.94759 0
M  V30 2117 H 208.686 -3.04978 6.24511 0
M  V30 2118 H 211.877 -2.31078 4.07088 0
M  V30 2119 H 212.05 -2.9767 5.75584 0
M  V30 2120 N 205.456 -1.28612 -0.910864 0
M  V30 2121 C 206.403 -1.12786 -2.01365 0
M  V30 2122 C 207.373 -0.024201 -1.66082 0
M  V30 2123 O 208.558 -0.189667 -1.89855 0
M  V30 2124 C 205.698 -0.798743 -3.35729 0
M  V30 2125 C 204.811 -1.98173 -3.83864 0
M  V30 2126 C 203.946 -1.59298 -5.06752 0
M  V30 2127 C 202.985 -2.74245 -5.47226 0
M  V30 2128 N 202.122 -2.35842 -6.61304 0
M  V30 2129 H 206.962 -2.07142 -2.14234 0
M  V30 2130 H 204.499 -1.03093 -1.0493 0
M  V30 2131 H 206.457 -0.588662 -4.13026 0
M  V30 2132 H 205.087 0.10789 -3.2262 0
M  V30 2133 H 204.139 -2.30386 -3.02699 0
M  V30 2134 H 205.451 -2.84343 -4.09818 0
M  V30 2135 H 204.605 -1.34513 -5.916 0
M  V30 2136 H 203.344 -0.702618 -4.82612 0
M  V30 2137 H 202.349 -2.99725 -4.60918 0
M  V30 2138 H 203.574 -3.63928 -5.73353 0
M  V30 2139 H 201.52 -1.49279 -6.38789 0
M  V30 2140 H 201.437 -3.15546 -6.86998 0
M  V30 2141 H 202.705 -2.14348 -7.4945 0
M  V30 2142 N 206.934 1.1197 -1.10907 0
M  V30 2143 C 208.18 1.8386 -0.855773 0
M  V30 2144 C 208.513 1.84134 0.617103 0
M  V30 2145 O 207.788 1.29041 1.45529 0
M  V30 2146 C 208.071 3.31305 -1.411 0
M  V30 2147 C 207.924 3.39456 -2.9511 0
M  V30 2148 C 209.243 4.2721 -1.05736 0
M  V30 2149 H 206.362 0.667545 -0.312334 0
M  V30 2150 H 209.004 1.31331 -1.37303 0
M  V30 2151 H 207.154 3.76169 -0.97105 0
M  V30 2152 H 208.826 3.03191 -3.47668 0
M  V30 2153 H 207.069 2.79849 -3.31462 0
M  V30 2154 H 207.74 4.43209 -3.29044 0
M  V30 2155 H 210.216 3.90497 -1.43706 0
M  V30 2156 H 209.092 5.28775 -1.47269 0
M  V30 2157 H 209.353 4.42088 0.0325958 0
M  V30 2158 N 208.412 0.89855 1.29475 0
M  V30 2159 C 209.359 0.373819 2.27753 0
M  V30 2160 C 210.329 -0.543444 1.56958 0
M  V30 2161 O 211.514 -0.468934 1.84948 0
M  V30 2162 C 208.654 -0.393648 3.42848 0
M  V30 2163 C 207.767 0.554379 4.28428 0
M  V30 2164 C 206.902 -0.230026 5.30702 0
M  V30 2165 C 205.941 0.712599 6.07938 0
M  V30 2166 N 205.078 -0.0373283 7.0209 0
M  V30 2167 H 209.918 1.21699 2.72017 0
M  V30 2168 H 207.455 0.611456 1.33789 0
M  V30 2169 H 209.413 -0.85466 4.08352 0
M  V30 2170 H 208.043 -1.20128 2.99615 0
M  V30 2171 H 207.095 1.13391 3.63107 0
M  V30 2172 H 208.407 1.27597 4.82204 0
M  V30 2173 H 207.561 -0.752288 6.02018 0
M  V30 2174 H 206.3 -0.984758 4.77654 0
M  V30 2175 H 205.305 1.24637 5.35486 0
M  V30 2176 H 206.53 1.46664 6.63074 0
M  V30 2177 H 204.476 -0.774348 6.51414 0
M  V30 2178 H 204.393 0.624374 7.53417 0
M  V30 2179 H 205.661 -0.539891 7.77628 0
M  V30 2180 N 209.89 -1.43072 0.660911 0
M  V30 2181 C 211.136 -2.0202 0.177708 0
M  V30 2182 C 211.469 -1.52066 -1.20787 0
M  V30 2183 O 210.744 -0.716987 -1.80802 0
M  V30 2184 C 211.027 -3.59561 0.197019 0
M  V30 2185 C 210.88 -4.19727 1.61706 0
M  V30 2186 C 212.199 -4.37664 -0.462396 0
M  V30 2187 H 209.318 -0.734034 0.0660494 0
M  V30 2188 H 211.96 -1.70272 0.843058 0
M  V30 2189 H 210.11 -3.86739 -0.369527 0
M  V30 2190 H 211.782 -4.03553 2.23479 0
M  V30 2191 H 210.025 -3.76084 2.16201 0
M  V30 2192 H 210.696 -5.28834 1.58237 0
M  V30 2193 H 213.172 -4.16095 0.0197215 0
M  V30 2194 H 212.048 -5.47305 -0.418188 0
M  V30 2195 H 212.309 -4.14493 -1.53778 0
M  V30 2196 N 211.368 -0.403325 -1.52352 0
M  V30 2197 C 212.331 0.413051 -2.25447 0
M  V30 2198 C 213.331 0.978513 -1.276 0
M  V30 2199 O 214.521 0.858305 -1.51587 0
M  V30 2200 C 211.653 1.58087 -3.02029 0
M  V30 2201 H 212.846 -0.227094 -2.99039 0
M  V30 2202 H 210.399 -0.155722 -1.55522 0
M  V30 2203 H 211.134 2.25804 -2.32772 0
M  V30 2204 H 210.919 1.18195 -3.73861 0
M  V30 2205 H 212.409 2.1585 -3.57489 0
M  V30 2206 N 212.846 1.57033 -0.133567 0
M  V30 2207 C 214.094 1.953 0.519848 0
M  V30 2208 C 214.415 1.01866 1.66278 0
M  V30 2209 O 213.685 0.0776513 1.95746 0
M  V30 2210 H 212.265 0.721091 0.195032 0
M  V30 2211 H 214.927 1.93809 -0.205921 0
M  V30 2212 H 214.023 2.98695 0.904854 0
M  V30 2213 N 214.325 -0.140222 1.56975 0
M  V30 2214 C 215.275 -1.17827 1.95194 0
M  V30 2215 C 216.259 -1.38195 0.824075 0
M  V30 2216 O 217.451 -1.39643 1.0876 0
M  V30 2217 C 214.58 -2.51024 2.34184 0
M  V30 2218 C 213.666 -2.3422 3.53556 0
M  V30 2219 N 214.057 -1.87185 4.69889 0
M  V30 2220 C 212.355 -2.64949 3.58773 0
M  V30 2221 C 213.056 -1.83586 5.5197 0
M  V30 2222 N 212.032 -2.2715 4.93866 0
M  V30 2223 H 215.834 -0.806817 2.82609 0
M  V30 2224 H 213.348 -0.348208 1.58623 0
M  V30 2225 H 215.345 -3.26074 2.59772 0
M  V30 2226 H 214.005 -2.88945 1.48124 0
M  V30 2227 H 215.016 -1.57048 4.93514 0
M  V30 2228 H 211.693 -3.067 2.8327 0
M  V30 2229 H 213.083 -1.48655 6.55249 0
M  V30 2230 N 215.803 -1.52179 -0.40978 0
M  V30 2231 C 216.766 -1.74853 -1.48186 0
M  V30 2232 C 217.766 -0.618417 -1.48433 0
M  V30 2233 O 218.956 -0.886286 -1.49969 0
M  V30 2234 C 216.088 -1.8303 -2.87598 0
M  V30 2235 H 217.281 -2.70559 -1.29374 0
M  V30 2236 H 214.834 -1.42586 -0.640233 0
M  V30 2237 H 215.569 -0.89236 -3.11781 0
M  V30 2238 H 215.354 -2.65187 -2.88822 0
M  V30 2239 H 216.844 -2.02316 -3.65319 0
M  V30 2240 N 217.281 0.66697 -1.42791 0
M  V30 2241 C 218.558 1.4234 -1.34159 0
M  V30 2242 C 218.938 2.11093 0.0172729 0
M  V30 2243 O 218.286 2.03808 1.03318 0
M  V30 2244 C 218.496 2.41942 -2.51526 0
M  V30 2245 C 219.844 3.06353 -2.93995 0
M  V30 2246 O 220.868 2.52269 -2.51473 0
M  V30 2247 O 219.727 4.04376 -3.67617 0
M  V30 2248 H 216.821 0.635277 -0.529483 0
M  V30 2249 H 219.367 0.695034 -1.54814 0
M  V30 2250 H 218.139 1.89991 -3.42081 0
M  V30 2251 H 217.762 3.22249 -2.32898 0
M  V30 2252 N 218.759 1.29093 0.90403 0
M  V30 2253 C 219.722 1.1386 1.98919 0
M  V30 2254 C 220.722 0.0753457 1.60623 0
M  V30 2255 O 221.912 0.321931 1.71199 0
M  V30 2256 C 219.044 0.740198 3.32767 0
M  V30 2257 H 220.237 2.10246 2.13861 0
M  V30 2258 H 217.79 1.12218 1.08797 0
M  V30 2259 H 218.525 -0.223997 3.23525 0
M  V30 2260 H 218.31 1.50838 3.61926 0
M  V30 2261 H 219.8 0.656546 4.12407 0
M  V30 2262 N 220.237 -1.11381 1.11499 0
M  V30 2263 C 221.483 -1.83403 0.865512 0
M  V30 2264 C 221.816 -1.84459 -0.607329 0
M  V30 2265 O 221.091 -1.29811 -1.44842 0
M  V30 2266 C 221.374 -3.30552 1.42855 0
M  V30 2267 C 221.227 -3.37886 2.96906 0
M  V30 2268 C 222.546 -4.26643 1.08 0
M  V30 2269 H 219.665 -0.665879 0.31587 0
M  V30 2270 H 222.307 -1.30601 1.37998 0
M  V30 2271 H 220.457 -3.75648 0.990985 0
M  V30 2272 H 222.129 -3.01343 3.49271 0
M  V30 2273 H 220.372 -2.78088 3.32941 0
M  V30 2274 H 221.043 -4.41458 3.31389 0
M  V30 2275 H 223.519 -3.89729 1.45775 0
M  V30 2276 H 222.395 -5.27986 1.50072 0
M  V30 2277 H 222.656 -4.42099 -0.00915037 0
M  V30 2278 N 221.715 -0.905404 -1.28997 0
M  V30 2279 C 222.645 -0.404212 -2.29975 0
M  V30 2280 C 223.626 0.523784 -1.61835 0
M  V30 2281 O 224.811 0.433298 -1.89304 0
M  V30 2282 C 221.941 0.364042 -3.45387 0
M  V30 2283 C 220.895 -0.474048 -4.25367 0
M  V30 2284 C 220.221 0.422045 -5.33032 0
M  V30 2285 C 221.521 -1.72696 -4.92923 0
M  V30 2286 H 223.215 -1.24807 -2.72146 0
M  V30 2287 H 220.761 -0.601585 -1.30832 0
M  V30 2288 H 222.714 0.725447 -4.15109 0
M  V30 2289 H 221.438 1.24174 -3.02074 0
M  V30 2290 H 220.097 -0.81786 -3.57361 0
M  V30 2291 H 219.745 1.29804 -4.85963 0
M  V30 2292 H 219.445 -0.135057 -5.87445 0
M  V30 2293 H 220.969 0.779517 -6.05604 0
M  V30 2294 H 222.383 -1.43495 -5.55051 0
M  V30 2295 H 220.78 -2.22582 -5.57295 0
M  V30 2296 H 221.85 -2.45964 -4.17887 0
M  V30 2297 N 223.193 1.4272 -0.668489 0
M  V30 2298 C 224.156 2.292 0.00448567 0
M  V30 2299 C 225.156 1.43001 0.735339 0
M  V30 2300 O 226.346 1.64461 0.57429 0
M  V30 2301 C 223.478 3.25375 1.01705 0
M  V30 2302 H 224.671 2.90199 -0.756608 0
M  V30 2303 H 222.224 1.50254 -0.430506 0
M  V30 2304 H 222.959 2.69301 1.80686 0
M  V30 2305 H 222.744 3.88944 0.496463 0
M  V30 2306 H 224.234 3.90245 1.48655 0
M  V30 2307 N 224.671 0.411399 1.52136 0
M  V30 2308 C 225.634 -0.401089 2.25663 0
M  V30 2309 C 226.634 -0.971732 1.28117 0
M  V30 2310 O 227.824 -0.850254 1.52041 0
M  V30 2311 C 224.956 -1.56483 3.02863 0
M  V30 2312 H 226.149 0.24295 2.98914 0
M  V30 2313 H 223.702 0.163968 1.55438 0
M  V30 2314 H 224.437 -2.24567 2.33967 0
M  V30 2315 H 224.222 -1.16211 3.74483 0
M  V30 2316 H 225.712 -2.13951 3.58629 0
M  V30 2317 N 226.149 -1.5696 0.141893 0
M  V30 2318 C 227.079 -2.19516 -0.795936 0
M  V30 2319 C 228.06 -1.14187 -1.26077 0
M  V30 2320 O 229.245 -1.42511 -1.31925 0
M  V30 2321 C 226.375 -2.81272 -2.03723 0
M  V30 2322 C 225.329 -3.92384 -1.70936 0
M  V30 2323 C 224.655 -4.41052 -3.02287 0
M  V30 2324 C 225.955 -5.13403 -0.959954 0
M  V30 2325 H 227.649 -2.98138 -0.274596 0
M  V30 2326 H 225.195 -1.43406 -0.130636 0
M  V30 2327 H 227.148 -3.237 -2.69808 0
M  V30 2328 H 225.872 -1.99973 -2.58221 0
M  V30 2329 H 224.531 -3.50566 -1.07232 0
M  V30 2330 H 224.179 -3.56582 -3.54765 0
M  V30 2331 H 223.879 -5.15993 -2.81114 0
M  V30 2332 H 225.403 -4.86146 -3.69451 0
M  V30 2333 H 226.817 -5.52706 -1.52279 0
M  V30 2334 H 225.214 -5.94073 -0.848357 0
M  V30 2335 H 226.284 -4.84875 0.0492434 0
M  V30 2336 N 227.627 0.131896 -1.57047 0
M  V30 2337 C 228.574 1.16236 -1.99393 0
M  V30 2338 C 229.544 1.41863 -0.863943 0
M  V30 2339 O 230.729 1.53946 -1.12718 0
M  V30 2340 C 227.869 2.48708 -2.39245 0
M  V30 2341 C 226.982 2.30127 -3.65603 0
M  V30 2342 C 226.117 3.55738 -3.94492 0
M  V30 2343 C 225.156 3.32259 -5.14073 0
M  V30 2344 N 224.293 4.50039 -5.38896 0
M  V30 2345 H 229.133 0.794251 -2.87221 0
M  V30 2346 H 226.67 0.380707 -1.42088 0
M  V30 2347 H 228.628 3.25969 -2.60384 0
M  V30 2348 H 227.258 2.83437 -1.54478 0
M  V30 2349 H 226.31 1.43845 -3.52154 0
M  V30 2350 H 227.622 2.08746 -4.5302 0
M  V30 2351 H 226.776 4.41423 -4.1621 0
M  V30 2352 H 225.515 3.80138 -3.05526 0
M  V30 2353 H 224.52 2.44963 -4.92212 0
M  V30 2354 H 225.745 3.09242 -6.04604 0
M  V30 2355 H 223.691 4.74584 -4.52886 0
M  V30 2356 H 223.608 4.31716 -6.2061 0
M  V30 2357 H 224.876 5.36895 -5.65123 0
M  V30 2358 N 229.106 1.52395 0.401703 0
M  V30 2359 C 230.069 1.75636 1.47257 0
M  V30 2360 C 231.069 0.62628 1.48103 0
M  V30 2361 O 232.259 0.894227 1.49497 0
M  V30 2362 C 229.391 1.84553 2.86624 0
M  V30 2363 H 230.584 2.71241 1.27938 0
M  V30 2364 H 228.137 1.42923 0.632662 0
M  V30 2365 H 228.872 0.908882 3.11303 0
M  V30 2366 H 228.657 2.66715 2.87412 0
M  V30 2367 H 230.147 2.04251 3.64241 0
M  V30 2368 N 230.584 -0.659388 1.43143 0
M  V30 2369 C 231.534 -1.7655 1.44271 0
M  V30 2370 C 232.518 -1.57847 0.311961 0
M  V30 2371 O 233.71 -1.68064 0.555306 0
M  V30 2372 C 230.839 -3.15104 1.36251 0
M  V30 2373 C 229.925 -3.39377 2.54331 0
M  V30 2374 N 230.316 -3.34153 3.79704 0
M  V30 2375 C 228.614 -3.70072 2.48922 0
M  V30 2376 C 229.315 -3.58337 4.58225 0
M  V30 2377 N 228.291 -3.79851 3.88863 0
M  V30 2378 H 232.093 -1.70928 2.39083 0
M  V30 2379 H 229.607 -0.860823 1.37708 0
M  V30 2380 H 231.604 -3.94389 1.35141 0
M  V30 2381 H 230.264 -3.21913 0.424531 0
M  V30 2382 H 231.275 -3.13704 4.1208 0
M  V30 2383 H 227.952 -3.84034 1.63781 0
M  V30 2384 H 229.342 -3.60129 5.67236 0
M  V30 2385 N 232.062 -1.29571 -0.897171 0
M  V30 2386 C 233.025 -1.14913 -1.98312 0
M  V30 2387 C 234.025 -0.0838629 -1.60581 0
M  V30 2388 O 235.215 -0.331006 -1.71026 0
M  V30 2389 C 232.347 -0.757835 -3.3237 0
M  V30 2390 H 233.54 -2.11377 -2.12743 0
M  V30 2391 H 231.093 -1.12793 -1.08201 0
M  V30 2392 H 231.828 0.206837 -3.2364 0
M  V30 2393 H 231.613 -1.52755 -3.61121 0
M  V30 2394 H 233.103 -0.678408 -4.12053 0
M  V30 2395 N 233.54 1.10788 -1.12088 0
M  V30 2396 C 234.487 2.17025 -0.785407 0
M  V30 2397 C 235.457 1.64265 0.246191 0
M  V30 2398 O 236.642 1.90412 0.121584 0
M  V30 2399 C 233.782 3.44249 -0.242177 0
M  V30 2400 C 232.895 4.1098 -1.33115 0
M  V30 2401 C 232.03 5.25911 -0.747741 0
M  V30 2402 C 231.069 5.84538 -1.81609 0
M  V30 2403 N 230.206 6.90853 -1.25167 0
M  V30 2404 H 235.046 2.45066 -1.69548 0
M  V30 2405 H 232.583 1.20297 -0.846582 0
M  V30 2406 H 234.541 4.17101 0.0908026 0
M  V30 2407 H 233.171 3.16571 0.631072 0
M  V30 2408 H 232.223 3.36133 -1.78097 0
M  V30 2409 H 233.535 4.50601 -2.13917 0
M  V30 2410 H 232.689 6.056 -0.365216 0
M  V30 2411 H 231.428 4.87614 0.0915188 0
M  V30 2412 H 230.433 5.03522 -2.20785 0
M  V30 2413 H 231.658 6.249 -2.6585 0
M  V30 2414 H 229.604 6.54562 -0.434174 0
M  V30 2415 H 229.521 7.29166 -1.99633 0
M  V30 2416 H 230.789 7.7433 -0.896259 0
M  V30 2417 N 235.018 0.912232 1.28515 0
M  V30 2418 C 235.95 0.35676 2.26406 0
M  V30 2419 C 236.963 -0.503933 1.54804 0
M  V30 2420 O 238.152 -0.319059 1.75625 0
M  V30 2421 C 235.252 -0.508825 3.35058 0
M  V30 2422 C 234.425 0.329007 4.36161 0
M  V30 2423 C 233.484 -0.471422 5.24084 0
M  V30 2424 O 232.51 0.115482 5.69083 0
M  V30 2425 N 233.712 -1.77479 5.52704 0
M  V30 2426 H 236.477 1.19818 2.74707 0
M  V30 2427 H 234.038 0.778022 1.4198 0
M  V30 2428 H 236.03 -1.051 3.90815 0
M  V30 2429 H 234.6 -1.25095 2.86478 0
M  V30 2430 H 233.82 1.05256 3.79888 0
M  V30 2431 H 235.108 0.90234 5.00735 0
M  V30 2432 H 234.506 -2.27417 5.17975 0
M  V30 2433 H 233.063 -2.26382 6.11224 0
M  V30 2434 O 236.535 -1.39418 0.815163 0
M  V30 2435 H 237.226 -1.89641 0.394473 0
M  V30 END ATOM
M  V30 BEGIN BOND
M  V30 END BOND
M  V30 END CTAB
M  END
$$$$
