drugbank_target|Q8RJN5 Peptide amidase (DB01683)
 OpenBabel12092120223D

  0  0  0     0  0            999 V3000
M  V30 BEGIN CTAB
M  V30 COUNTS 8037 8120 0 0 0
M  V30 BEGIN ATOM
M  V30 1 H -0.908 1.98254 -0.117106 0
M  V30 2 N 0 1.576 0 0
M  V30 3 C 0.933 2.03868 1.02534 0
M  V30 4 C 1.911 0.928543 1.3348 0
M  V30 5 O 3.095 1.19667 1.45644 0
M  V30 6 C 0.222 2.43627 2.35294 0
M  V30 7 C -0.732 3.65373 2.2001 0
M  V30 8 S 0.101 5.13292 1.52614 0
M  V30 9 C 1.257 5.56322 2.86805 0
M  V30 10 H 1.49 2.90518 0.631377 0
M  V30 11 H -0.977 1.52953 0.210867 0
M  V30 12 H 0.981 2.67203 3.11629 0
M  V30 13 H -0.358 1.57376 2.7183 0
M  V30 14 H -1.165 3.90944 3.18086 0
M  V30 15 H -1.563 3.418 1.51819 0
M  V30 16 H 0.729 5.58782 3.83104 0
M  V30 17 H 1.672 6.56266 2.65933 0
M  V30 18 H 2.08 4.83886 2.90714 0
M  V30 19 N 1.4781 -0.272755 1.55222 0
M  V30 20 C 2.8941 -0.619959 1.47067 0
M  V30 21 C 3.0941 -1.895 0.684978 0
M  V30 22 O 2.1501 -2.51675 0.203931 0
M  V30 23 C 3.4631 -0.746693 2.91282 0
M  V30 24 C 5.0111 -0.840731 3.01497 0
M  V30 25 C 5.4861 -0.99924 4.46967 0
M  V30 26 N 6.9771 -1.06476 4.50796 0
M  V30 27 C 7.7121 -1.20621 5.6057 0
M  V30 28 N 7.2081 -1.31483 6.80209 0
M  V30 29 N 9.0011 -1.23733 5.48312 0
M  V30 30 H 1.1521 0.564606 2.04758 0
M  V30 31 H 3.4151 0.191177 0.928523 0
M  V30 32 H 3.1211 0.119753 3.51496 0
M  V30 33 H 2.9951 -1.6269 3.40311 0
M  V30 34 H 5.3821 -1.69764 2.41379 0
M  V30 35 H 5.4631 0.0640874 2.5572 0
M  V30 36 H 5.1071 -0.146984 5.07687 0
M  V30 37 H 5.0371 -1.91871 4.90401 0
M  V30 38 H 7.5281 -0.993196 3.64615 0
M  V30 39 H 7.8411 -1.42111 7.59621 0
M  V30 40 H 6.1861 -1.28487 6.8302 0
M  V30 41 H 9.3771 -1.14877 4.53785 0
M  V30 42 H 9.5501 -1.34412 6.33906 0
M  V30 43 N 2.9562 -1.48159 -0.537278 0
M  V30 44 C 4.3672 -1.49429 -1.11928 0
M  V30 45 C 4.7182 -0.26 -1.9447 0
M  V30 46 O 3.8432 0.633489 -2.0692 0
M  V30 47 C 4.4382 -2.70758 -2.03656 0
M  V30 48 C 2.9972 -2.74923 -2.57088 0
M  V30 49 C 2.1442 -2.42835 -1.3389 0
M  V30 50 H 5.0952 -1.55381 -0.322886 0
M  V30 51 H 5.1162 -2.48861 -2.87834 0
M  V30 52 H 4.6282 -3.60575 -1.43553 0
M  V30 53 H 2.7292 -1.89296 -3.20933 0
M  V30 54 H 2.8422 -3.76157 -2.9672 0
M  V30 55 H 1.2062 -1.93836 -1.65226 0
M  V30 56 H 1.9892 -3.34884 -0.755504 0
M  V30 57 N 4.4343 0.785586 -1.36625 0
M  V30 58 C 5.6593 1.57963 -1.34397 0
M  V30 59 C 6.0843 1.87964 0.071526 0
M  V30 60 O 5.4423 1.48182 1.0446 0
M  V30 61 C 5.4903 2.87511 -2.17646 0
M  V30 62 O 4.5943 3.81281 -1.57158 0
M  V30 63 H 3.9353 0.479014 -0.459828 0
M  V30 64 H 6.4653 0.973411 -1.79961 0
M  V30 65 H 6.4753 3.36745 -2.30362 0
M  V30 66 H 5.1503 2.65002 -3.20541 0
M  V30 67 H 3.7273 3.39885 -1.53403 0
M  V30 68 N 5.9124 1.20967 1.01018 0
M  V30 69 C 6.8424 0.988272 2.11555 0
M  V30 70 C 7.8234 -0.0849778 1.69888 0
M  V30 71 O 9.0084 0.0738202 1.9406 0
M  V30 72 C 6.1384 0.546528 3.42973 0
M  V30 73 C 5.0924 1.56375 3.9841 0
M  V30 74 C 4.4184 0.97842 5.25672 0
M  V30 75 C 5.7184 2.94922 4.31066 0
M  V30 76 H 7.4124 1.91276 2.30334 0
M  V30 77 H 4.9584 0.921073 1.1069 0
M  V30 78 H 6.9114 0.378839 4.19694 0
M  V30 79 H 5.6354 -0.413598 3.23971 0
M  V30 80 H 4.2944 1.71891 3.23804 0
M  V30 81 H 3.9424 0.0101688 5.02999 0
M  V30 82 H 3.6424 1.65784 5.63728 0
M  V30 83 H 5.1664 0.821939 6.05043 0
M  V30 84 H 6.5804 2.8288 4.9865 0
M  V30 85 H 4.9774 3.5983 4.80253 0
M  V30 86 H 6.0474 3.4616 3.39561 0
M  V30 87 N 7.3905 -1.2043 1.01659 0
M  V30 88 C 8.8015 -1.71517 0.737482 0
M  V30 89 C 9.1525 -1.81547 -0.743973 0
M  V30 90 O 8.2775 -1.47803 -1.58061 0
M  V30 91 C 8.8725 -3.11515 1.33206 0
M  V30 92 C 7.4315 -3.59912 1.10183 0
M  V30 93 C 6.5785 -2.37116 1.43776 0
M  V30 94 H 9.5295 -1.05444 1.18606 0
M  V30 95 H 9.5505 -3.73575 0.722636 0
M  V30 96 H 9.0625 -3.04182 2.41028 0
M  V30 97 H 7.1635 -3.72577 0.0412756 0
M  V30 98 H 7.2765 -4.44731 1.78188 0
M  V30 99 H 5.6405 -2.39857 0.856778 0
M  V30 100 H 6.4235 -2.32424 2.52654 0
M  V30 101 N 8.8686 -0.792821 -1.36206 0
M  V30 102 C 10.2796 -0.429513 -1.81692 0
M  V30 103 C 10.6306 1.04695 -1.65932 0
M  V30 104 O 9.7556 1.81256 -1.18218 0
M  V30 105 C 10.3506 -0.772831 -3.29868 0
M  V30 106 C 8.9096 -0.462307 -3.7355 0
M  V30 107 C 8.0566 -1.00569 -2.5842 0
M  V30 108 H 11.0076 -0.985672 -1.24379 0
M  V30 109 H 11.0286 -0.0651928 -3.80444 0
M  V30 110 H 10.5406 -1.84747 -3.41307 0
M  V30 111 H 8.6416 0.604158 -3.67669 0
M  V30 112 H 8.7546 -0.985299 -4.68859 0
M  V30 113 H 7.1186 -0.428734 -2.51066 0
M  V30 114 H 7.9016 -2.08616 -2.72643 0
M  V30 115 N 10.3467 1.47872 -0.545128 0
M  V30 116 C 11.2767 2.32661 0.197793 0
M  V30 117 C 12.2577 1.43041 0.920504 0
M  V30 118 O 13.4427 1.71912 0.90333 0
M  V30 119 C 10.5727 3.24569 1.23582 0
M  V30 120 C 9.5267 4.23333 0.630323 0
M  V30 121 C 8.8527 5.0448 1.77211 0
M  V30 122 C 10.1527 5.20704 -0.407974 0
M  V30 123 H 11.8467 2.95024 -0.510045 0
M  V30 124 H 9.3927 1.4187 -0.246731 0
M  V30 125 H 11.3457 3.8272 1.76362 0
M  V30 126 H 10.0697 2.60236 1.97344 0
M  V30 127 H 8.7287 3.6639 0.123922 0
M  V30 128 H 8.3767 4.36561 2.49847 0
M  V30 129 H 8.0767 5.71339 1.37281 0
M  V30 130 H 9.6007 5.65487 2.3034 0
M  V30 131 H 11.0147 5.7329 0.033305 0
M  V30 132 H 9.4117 5.95699 -0.725486 0
M  V30 133 H 10.4817 4.66917 -1.30828 0
M  V30 134 N 11.8248 0.280983 1.55075 0
M  V30 135 C 12.7548 -0.597469 2.25727 0
M  V30 136 C 13.7358 -1.15417 1.24952 0
M  V30 137 O 14.9208 -1.18722 1.53684 0
M  V30 138 C 12.0508 -1.7789 2.98283 0
M  V30 139 C 11.0048 -1.35347 4.06036 0
M  V30 140 C 10.3308 -2.61846 4.66198 0
M  V30 141 C 11.6308 -0.499354 5.19907 0
M  V30 142 H 13.3248 -0.00824265 2.99399 0
M  V30 143 H 10.8708 -0.0025244 1.44 0
M  V30 144 H 12.8238 -2.39937 3.46422 0
M  V30 145 H 11.5478 -2.39405 2.22155 0
M  V30 146 H 10.2068 -0.756156 3.58717 0
M  V30 147 H 9.8548 -3.21632 3.86732 0
M  V30 148 H 9.5548 -2.3409 5.38958 0
M  V30 149 H 11.0788 -3.24732 5.1709 0
M  V30 150 H 12.4928 -1.02498 5.64063 0
M  V30 151 H 10.8898 -0.316424 5.99265 0
M  V30 152 H 11.9598 0.480459 4.82514 0
M  V30 153 N 13.3029 -1.57598 0.00835791 0
M  V30 154 C 14.5309 -1.95214 -0.68549 0
M  V30 155 C 14.9459 -0.883706 -1.66841 0
M  V30 156 O 14.3029 0.136565 -1.81988 0
M  V30 157 C 14.3539 -3.32865 -1.41007 0
M  V30 158 O 14.0749 -4.35609 -0.466552 0
M  V30 159 C 15.5759 -3.84991 -2.19765 0
M  V30 160 H 12.7959 -0.643422 -0.190392 0
M  V30 161 H 15.3399 -2.04406 0.0619607 0
M  V30 162 H 13.4949 -3.24956 -2.10908 0
M  V30 163 H 13.9089 -5.15288 -0.978699 0
M  V30 164 H 15.3829 -4.8371 -2.65948 0
M  V30 165 H 15.8599 -3.18137 -3.02796 0
M  V30 166 H 16.4659 -3.96103 -1.54864 0
M  V30 167 N 14.781 0.264519 -1.55364 0
M  V30 168 C 16.021 1.00254 -1.78125 0
M  V30 169 C 16.385 1.83187 -0.575017 0
M  V30 170 O 17.586 2.60029 -0.681042 0
M  V30 171 C 15.857 1.85478 -3.05504 0
M  V30 172 S 17.416 2.6543 -3.49417 0
M  V30 173 H 14.234 0.337522 -0.625779 0
M  V30 174 H 16.836 0.272111 -1.93597 0
M  V30 175 H 15.54 1.23491 -3.9138 0
M  V30 176 H 15.071 2.62827 -2.92721 0
M  V30 177 H 17.086 3.87958 -3.09359 0
M  V30 178 N 16.2591 1.48442 0.529413 0
M  V30 179 C 17.1891 1.65902 1.64313 0
M  V30 180 C 18.1701 0.507897 1.6234 0
M  V30 181 O 19.3551 0.740503 1.79528 0
M  V30 182 C 16.4851 1.69911 3.02898 0
M  V30 183 C 15.4391 2.8453 3.19729 0
M  V30 184 C 14.7651 2.73629 4.59381 0
M  V30 185 C 16.0651 4.25821 3.02447 0
M  V30 186 H 17.7591 2.5914 1.49955 0
M  V30 187 H 15.3051 1.24709 0.719982 0
M  V30 188 H 17.2581 1.80715 3.80684 0
M  V30 189 H 15.9821 0.732524 3.18279 0
M  V30 190 H 14.6411 2.73283 2.44361 0
M  V30 191 H 14.2891 1.74938 4.71599 0
M  V30 192 H 13.9891 3.50541 4.71588 0
M  V30 193 H 15.5131 2.86401 5.39265 0
M  V30 194 H 16.9271 4.37898 3.70024 0
M  V30 195 H 15.3241 5.03735 3.26146 0
M  V30 196 H 16.3941 4.42244 1.98867 0
M  V30 197 N 17.7372 -0.778329 1.37039 0
M  V30 198 C 18.6672 -1.90546 1.34962 0
M  V30 199 C 19.6482 -1.68681 0.219274 0
M  V30 200 O 20.8332 -1.89634 0.418624 0
M  V30 201 C 17.9632 -3.27734 1.14925 0
M  V30 202 C 16.9172 -3.64147 2.24902 0
M  V30 203 C 16.2432 -4.99806 1.89996 0
M  V30 204 C 17.5432 -3.71579 3.67051 0
M  V30 205 H 19.2372 -1.92541 2.29277 0
M  V30 206 H 16.7832 -0.924948 1.10366 0
M  V30 207 H 18.7362 -4.06215 1.12104 0
M  V30 208 H 17.4602 -3.26154 0.170631 0
M  V30 209 H 16.1192 -2.8797 2.26868 0
M  V30 210 H 15.7672 -4.94759 0.906796 0
M  V30 211 H 15.4672 -5.25139 2.63634 0
M  V30 212 H 16.9912 -5.80694 1.88749 0
M  V30 213 H 18.4052 -4.40227 3.67251 0
M  V30 214 H 16.8022 -4.08405 4.39688 0
M  V30 215 H 17.8722 -2.72404 4.01154 0
M  V30 216 N 19.2153 -1.21501 -1.00376 0
M  V30 217 C 20.1783 -0.976927 -2.07337 0
M  V30 218 C 21.1783 0.0525322 -1.60714 0
M  V30 219 O 22.3683 -0.184869 -1.73216 0
M  V30 220 C 19.5003 -0.473423 -3.37597 0
M  V30 221 H 20.6933 -1.92587 -2.29892 0
M  V30 222 H 18.2463 -1.03217 -1.17371 0
M  V30 223 H 18.9813 0.480379 -3.20722 0
M  V30 224 H 18.7663 -1.216 -3.72768 0
M  V30 225 H 20.2563 -0.32675 -4.1632 0
M  V30 226 N 20.6934 1.19889 -1.02296 0
M  V30 227 C 21.6564 2.21116 -0.603351 0
M  V30 228 C 22.6564 1.5738 0.329884 0
M  V30 229 O 23.8464 1.73802 0.117702 0
M  V30 230 C 20.9784 3.40696 0.117992 0
M  V30 231 H 22.1714 2.59754 -1.49893 0
M  V30 232 H 19.7244 1.33463 -0.813468 0
M  V30 233 H 20.4594 3.07569 1.0282 0
M  V30 234 H 20.2444 3.88188 -0.552511 0
M  V30 235 H 21.7344 4.15692 0.398696 0
M  V30 236 N 22.1715 0.800033 1.35784 0
M  V30 237 C 23.1015 0.220184 2.3246 0
M  V30 238 C 24.0825 -0.65073 1.57161 0
M  V30 239 O 25.2675 -0.582359 1.85263 0
M  V30 240 C 22.3975 -0.637353 3.41402 0
M  V30 241 C 21.3515 0.134531 4.27789 0
M  V30 242 C 20.6775 -0.844285 5.27992 0
M  V30 243 C 21.9775 1.32979 5.05088 0
M  V30 244 H 23.6715 1.02787 2.81203 0
M  V30 245 H 21.2175 0.495717 1.35199 0
M  V30 246 H 23.1705 -1.05302 4.08031 0
M  V30 247 H 21.8945 -1.47785 2.91251 0
M  V30 248 H 20.5535 0.531296 3.6273 0
M  V30 249 H 20.2015 -1.68011 4.74111 0
M  V30 250 H 19.9015 -0.332184 5.8666 0
M  V30 251 H 21.4255 -1.2583 5.97494 0
M  V30 252 H 22.8395 0.98934 5.64699 0
M  V30 253 H 21.2365 1.77593 5.7322 0
M  V30 254 H 22.3065 2.11978 4.36111 0
M  V30 255 N 23.6496 -1.47581 0.552962 0
M  V30 256 C 25.0606 -1.86324 0.118463 0
M  V30 257 C 25.4116 -1.46006 -1.3106 0
M  V30 258 O 24.5366 -0.861182 -1.98526 0
M  V30 259 C 25.1316 -3.3816 0.20821 0
M  V30 260 C 23.6906 -3.7601 -0.171226 0
M  V30 261 C 22.8376 -2.71634 0.557686 0
M  V30 262 H 25.7886 -1.39159 0.762928 0
M  V30 263 H 25.8096 -3.76141 -0.574278 0
M  V30 264 H 25.3216 -3.67473 1.24841 0
M  V30 265 H 23.4226 -3.52313 -1.21269 0
M  V30 266 H 23.5356 -4.78745 0.184379 0
M  V30 267 H 21.8996 -2.547 0.00125792 0
M  V30 268 H 22.6826 -3.0379 1.59896 0
M  V30 269 N 25.1277 -0.289203 -1.54924 0
M  V30 270 C 26.0907 0.579144 -2.21762 0
M  V30 271 C 27.0907 1.07047 -1.1999 0
M  V30 272 O 28.2807 0.968384 -1.44803 0
M  V30 273 C 25.4127 1.80055 -2.8947 0
M  V30 274 H 26.6057 -0.00464908 -2.999 0
M  V30 275 H 24.1587 -0.0399306 -1.56249 0
M  V30 276 H 24.8937 2.42449 -2.15381 0
M  V30 277 H 24.6787 1.45602 -3.64064 0
M  V30 278 H 26.1687 2.41773 -3.40493 0
M  V30 279 N 26.6058 1.57591 -0.0167156 0
M  V30 280 C 27.5358 2.12496 0.967858 0
M  V30 281 C 28.5168 1.03807 1.34752 0
M  V30 282 O 29.7018 1.31577 1.42833 0
M  V30 283 C 26.8318 2.64194 2.25431 0
M  V30 284 C 25.7858 3.77559 2.01576 0
M  V30 285 C 25.1118 4.15636 3.36379 0
M  V30 286 C 26.4118 5.04151 1.36489 0
M  V30 287 H 28.1058 2.95013 0.510643 0
M  V30 288 H 25.6518 1.41915 0.244181 0
M  V30 289 H 27.6048 3.01236 2.94678 0
M  V30 290 H 26.3288 1.78821 2.73296 0
M  V30 291 H 24.9878 3.40937 1.34751 0
M  V30 292 H 24.6358 3.27263 3.81979 0
M  V30 293 H 24.3358 4.92022 3.21229 0
M  V30 294 H 25.8598 4.5525 4.06915 0
M  V30 295 H 27.2738 5.38857 1.95718 0
M  V30 296 H 25.6708 5.85453 1.31776 0
M  V30 297 H 26.7408 4.83733 0.336219 0
M  V30 298 N 28.0839 -0.256276 1.55502 0
M  V30 299 C 29.0139 -1.32102 1.92539 0
M  V30 300 C 29.9949 -1.50684 0.789194 0
M  V30 301 O 31.1799 -1.63449 1.04872 0
M  V30 302 C 28.3099 -2.67752 2.21192 0
M  V30 303 C 27.2639 -2.63878 3.36975 0
M  V30 304 C 26.5899 -4.03236 3.51147 0
M  V30 305 C 27.8899 -2.21682 4.72921 0
M  V30 306 H 29.5839 -1.01351 2.81724 0
M  V30 307 H 27.1299 -0.486105 1.35547 0
M  V30 308 H 29.0829 -3.42365 2.45691 0
M  V30 309 H 27.8069 -3.0012 1.28824 0
M  V30 310 H 26.4659 -1.91722 3.12471 0
M  V30 311 H 26.1139 -4.32854 2.56216 0
M  V30 312 H 25.8139 -4.01535 4.29003 0
M  V30 313 H 27.3379 -4.79563 3.77957 0
M  V30 314 H 28.7519 -2.86023 4.96854 0
M  V30 315 H 27.1489 -2.3111 5.53812 0
M  V30 316 H 28.2189 -1.16833 4.70615 0
M  V30 317 N 29.562 -1.4872 -0.521534 0
M  V30 318 C 30.787 -1.61101 -1.30618 0
M  V30 319 C 31.212 -0.274611 -1.86085 0
M  V30 320 O 30.57 0.754937 -1.64834 0
M  V30 321 C 30.618 -2.66709 -2.4269 0
M  V30 322 O 29.722 -2.24456 -3.45967 0
M  V30 323 H 29.063 -0.539921 -0.386499 0
M  V30 324 H 31.593 -1.94767 -0.626645 0
M  V30 325 H 31.603 -2.88245 -2.88754 0
M  V30 326 H 30.278 -3.63727 -2.01682 0
M  V30 327 H 28.855 -2.13168 -3.05964 0
M  V30 328 N 31.0401 0.771051 -1.3745 0
M  V30 329 C 32.0031 1.86598 -1.33093 0
M  V30 330 C 33.0031 1.59076 -0.234845 0
M  V30 331 O 34.1931 1.67145 -0.490732 0
M  V30 332 C 31.3251 3.23747 -1.06773 0
M  V30 333 H 32.5181 1.91873 -2.30488 0
M  V30 334 H 30.0711 0.970876 -1.2249 0
M  V30 335 H 30.8061 3.24148 -0.099129 0
M  V30 336 H 30.5911 3.45115 -1.86112 0
M  V30 337 H 32.0811 4.03824 -1.06377 0
M  V30 338 N 32.5182 1.22032 0.997298 0
M  V30 339 C 33.7662 1.04016 1.73278 0
M  V30 340 C 34.0872 -0.426255 1.90284 0
M  V30 341 O 33.3572 -1.30694 1.45931 0
M  V30 342 H 31.9372 0.381897 0.642 0
M  V30 343 H 34.5992 1.5347 1.20137 0
M  V30 344 H 33.6952 1.51441 2.72896 0
M  V30 345 N 33.9963 -1.19345 1.0293 0
M  V30 346 C 35.2363 -1.90738 0.734727 0
M  V30 347 C 35.6003 -1.7785 -0.723414 0
M  V30 348 O 36.8013 -2.43844 -1.13108 0
M  V30 349 C 35.0723 -3.37569 1.17396 0
M  V30 350 S 36.6313 -4.27176 1.00329 0
M  V30 351 H 33.4493 -0.658771 0.267474 0
M  V30 352 H 36.0513 -1.4428 1.31922 0
M  V30 353 H 34.7553 -3.44475 2.23081 0
M  V30 354 H 34.2863 -3.8906 0.582772 0
M  V30 355 H 36.3013 -4.96126 -0.0859152 0
M  V30 356 N 35.4744 -0.807222 -1.35358 0
M  V30 357 C 36.6994 -0.399309 -2.0352 0
M  V30 358 C 37.1244 0.981986 -1.60433 0
M  V30 359 O 36.4824 1.63601 -0.781299 0
M  V30 360 C 36.5304 -0.491552 -3.57234 0
M  V30 361 O 35.6344 0.494754 -4.09421 0
M  V30 362 H 34.9754 -0.166682 -0.642739 0
M  V30 363 H 37.5054 -1.09328 -1.72941 0
M  V30 364 H 37.5154 -0.361588 -4.06395 0
M  V30 365 H 36.1904 -1.49907 -3.87944 0
M  V30 366 H 34.7674 0.324977 -3.71481 0
M  V30 367 N 36.9525 1.47285 -0.560781 0
M  V30 368 C 38.3635 1.86258 -0.128343 0
M  V30 369 C 38.7145 1.46699 1.30284 0
M  V30 370 O 37.8395 0.871698 1.98067 0
M  V30 371 C 38.4345 3.38044 -0.22614 0
M  V30 372 C 36.9935 3.76096 0.151283 0
M  V30 373 C 36.1405 2.71335 -0.572084 0
M  V30 374 H 39.0915 1.38752 -0.770297 0
M  V30 375 H 39.1125 3.76441 0.554322 0
M  V30 376 H 38.6245 3.66806 -1.26788 0
M  V30 377 H 36.7255 3.52951 1.19399 0
M  V30 378 H 36.8385 4.78641 -0.209765 0
M  V30 379 H 35.2025 2.54696 -0.0147653 0
M  V30 380 H 35.9855 3.02938 -1.61504 0
M  V30 381 N 38.4306 0.297415 1.54768 0
M  V30 382 C 39.3936 -0.567375 2.22066 0
M  V30 383 C 40.3936 -1.06409 1.20556 0
M  V30 384 O 41.5836 -0.960691 1.45315 0
M  V30 385 C 38.7156 -1.78517 2.90421 0
M  V30 386 H 39.9086 0.0205534 2.99893 0
M  V30 387 H 37.4616 0.0482163 1.56226 0
M  V30 388 H 38.1966 -2.41303 2.16664 0
M  V30 389 H 37.9816 -1.43669 3.64831 0
M  V30 390 H 39.4716 -2.39964 3.41771 0
M  V30 391 N 39.9087 -1.5758 0.0250728 0
M  V30 392 C 41.1367 -1.9593 -0.664747 0
M  V30 393 C 41.5517 -0.901352 -1.65895 0
M  V30 394 O 40.9087 0.117255 -1.82123 0
M  V30 395 C 40.9597 -3.34342 -1.37468 0
M  V30 396 O 40.6807 -4.36079 -0.420324 0
M  V30 397 C 42.1817 -3.873 -2.1567 0
M  V30 398 H 39.4017 -0.645405 -0.183557 0
M  V30 399 H 41.9457 -2.04329 0.0836372 0
M  V30 400 H 40.1007 -3.27175 -2.0745 0
M  V30 401 H 40.5147 -5.16297 -0.923991 0
M  V30 402 H 41.9887 -4.86504 -2.60803 0
M  V30 403 H 42.4657 -3.21331 -2.99405 0
M  V30 404 H 43.0717 -3.97723 -1.50654 0
M  V30 405 N 41.3868 0.248026 -1.55636 0
M  V30 406 C 42.7978 0.817177 -1.67866 0
M  V30 407 C 43.1488 1.86069 -0.622322 0
M  V30 408 O 42.2738 2.15157 0.231618 0
M  V30 409 C 42.8688 1.489 -3.04326 0
M  V30 410 C 41.4278 2.00587 -3.185 0
M  V30 411 C 40.5748 0.856573 -2.63739 0
M  V30 412 H 43.5258 0.0238579 -1.58682 0
M  V30 413 H 43.5468 2.35698 -2.98708 0
M  V30 414 H 43.0588 0.729279 -3.81186 0
M  V30 415 H 41.1598 2.79443 -2.4646 0
M  V30 416 H 41.2728 2.20402 -4.25393 0
M  V30 417 H 39.6368 1.25678 -2.21534 0
M  V30 418 H 40.4198 0.109953 -3.43124 0
M  V30 419 N 42.8649 1.48995 0.513639 0
M  V30 420 C 44.0899 1.61792 1.29762 0
M  V30 421 C 44.5149 0.284475 1.85936 0
M  V30 422 O 43.8729 -0.746185 1.65232 0
M  V30 423 C 43.9209 2.67993 2.41272 0
M  V30 424 O 43.0249 2.26287 3.44772 0
M  V30 425 H 42.3659 0.541963 0.38363 0
M  V30 426 H 44.8959 1.95097 0.616307 0
M  V30 427 H 44.9059 2.89772 2.87221 0
M  V30 428 H 43.5809 3.64791 1.9975 0
M  V30 429 H 42.1579 2.14788 3.04829 0
M  V30 430 N 44.343 -0.763751 1.37857 0
M  V30 431 C 45.306 -1.85889 1.34081 0
M  V30 432 C 46.306 -1.58949 0.243277 0
M  V30 433 O 47.496 -1.66882 0.499589 0
M  V30 434 C 44.628 -3.23176 1.08489 0
M  V30 435 H 45.821 -1.90648 2.31502 0
M  V30 436 H 43.374 -0.964367 1.23003 0
M  V30 437 H 44.109 -3.24091 0.116318 0
M  V30 438 H 43.894 -3.44124 1.8794 0
M  V30 439 H 45.384 -4.03254 1.08517 0
M  V30 440 N 45.8211 -1.22559 -0.990812 0
M  V30 441 C 46.7711 -0.964807 -2.0658 0
M  V30 442 C 47.7551 0.0853472 -1.60673 0
M  V30 443 O 48.9471 -0.125443 -1.76555 0
M  V30 444 C 46.0761 -0.546707 -3.38919 0
M  V30 445 C 45.1621 -1.6317 -3.91454 0
M  V30 446 N 45.5531 -2.85985 -4.17189 0
M  V30 447 C 43.8511 -1.50387 -4.19881 0
M  V30 448 C 44.5521 -3.56159 -4.59919 0
M  V30 449 N 43.5281 -2.83637 -4.63736 0
M  V30 450 H 47.3301 -1.89769 -2.24421 0
M  V30 451 H 44.8441 -1.12343 -1.17273 0
M  V30 452 H 46.8411 -0.34119 -4.15502 0
M  V30 453 H 45.5011 0.379254 -3.22478 0
M  V30 454 H 46.5121 -3.22392 -4.05319 0
M  V30 455 H 43.1891 -0.644254 -4.12499 0
M  V30 456 H 44.5791 -4.6139 -4.88435 0
M  V30 457 N 47.2992 1.18797 -1.03562 0
M  V30 458 C 48.2622 2.20464 -0.626769 0
M  V30 459 C 49.2622 1.57721 0.313173 0
M  V30 460 O 50.4522 1.73917 0.0992615 0
M  V30 461 C 47.5842 3.40802 0.0818498 0
M  V30 462 H 48.7772 2.58149 -1.5264 0
M  V30 463 H 46.3302 1.32593 -0.827578 0
M  V30 464 H 47.0652 3.08642 0.995518 0
M  V30 465 H 46.8502 3.8758 -0.593652 0
M  V30 466 H 48.3402 4.16092 0.354584 0
M  V30 467 N 48.7773 0.814389 1.34928 0
M  V30 468 C 49.7403 0.235759 2.27984 0
M  V30 469 C 50.7403 -0.581412 1.49921 0
M  V30 470 O 51.9303 -0.398758 1.69575 0
M  V30 471 C 49.0623 -0.670433 3.34242 0
M  V30 472 H 50.2553 1.05659 2.80671 0
M  V30 473 H 47.8083 0.585614 1.44915 0
M  V30 474 H 48.5433 -1.51466 2.86755 0
M  V30 475 H 48.3283 -0.0860822 3.92005 0
M  V30 476 H 49.8183 -1.06935 4.03676 0
M  V30 477 N 50.2554 -1.46986 0.568584 0
M  V30 478 C 51.1654 -2.33942 -0.17555 0
M  V30 479 C 52.1814 -1.48891 -0.90041 0
M  V30 480 O 53.3574 -1.81794 -0.86676 0
M  V30 481 C 50.4224 -3.25811 -1.18524 0
M  V30 482 C 49.4834 -4.26757 -0.466582 0
M  V30 483 C 48.7164 -5.14236 -1.42817 0
M  V30 484 O 48.9394 -5.04379 -2.66379 0
M  V30 485 O 47.8734 -5.94412 -0.946453 0
M  V30 486 H 51.6994 -2.98896 0.538036 0
M  V30 487 H 49.2844 -1.4573 0.329097 0
M  V30 488 H 51.1664 -3.82527 -1.76779 0
M  V30 489 H 49.8414 -2.63471 -1.88055 0
M  V30 490 H 48.7484 -3.73769 0.157451 0
M  V30 491 H 50.0814 -4.91843 0.187485 0
M  V30 492 N 51.7335 -0.305618 -1.54608 0
M  V30 493 C 53.1445 0.186098 -1.8577 0
M  V30 494 C 53.4955 1.53058 -1.22751 0
M  V30 495 O 52.6205 2.09888 -0.526893 0
M  V30 496 C 53.2155 0.344449 -3.37044 0
M  V30 497 C 51.7745 0.780384 -3.68221 0
M  V30 498 C 50.9215 -0.108554 -2.77087 0
M  V30 499 H 53.8725 -0.526485 -1.49712 0
M  V30 500 H 53.8935 1.17828 -3.61796 0
M  V30 501 H 53.4055 -0.634235 -3.82883 0
M  V30 502 H 51.5065 1.76945 -3.27904 0
M  V30 503 H 51.6195 0.596572 -4.75371 0
M  V30 504 H 49.9835 0.412931 -2.5133 0
M  V30 505 H 50.7665 -1.08368 -3.25747 0
M  V30 506 N 53.2116 1.57565 -0.0334293 0
M  V30 507 C 54.1746 2.09393 0.932048 0
M  V30 508 C 55.1746 1.00986 1.25134 0
M  V30 509 O 56.3646 1.27129 1.19096 0
M  V30 510 C 53.4966 2.56338 2.2473 0
M  V30 511 H 54.6896 2.95984 0.483085 0
M  V30 512 H 52.2426 1.54819 0.21468 0
M  V30 513 H 52.9776 1.7309 2.74245 0
M  V30 514 H 52.7626 3.35542 2.02865 0
M  V30 515 H 54.2526 2.96646 2.93923 0
M  V30 516 N 54.6897 -0.239769 1.55765 0
M  V30 517 C 55.9147 -0.988373 1.82335 0
M  V30 518 C 56.3397 -1.77886 0.611421 0
M  V30 519 O 55.6977 -1.75889 -0.439639 0
M  V30 520 C 55.7457 -1.89627 3.06715 0
M  V30 521 O 54.8497 -2.98904 2.84131 0
M  V30 522 H 54.1907 -0.280858 0.601677 0
M  V30 523 H 56.7207 -0.258597 2.02959 0
M  V30 524 H 56.7307 -2.30957 3.36338 0
M  V30 525 H 55.4057 -1.31511 3.9456 0
M  V30 526 H 53.9827 -2.61651 2.65694 0
M  V30 527 N 56.1678 -1.49265 -0.50573 0
M  V30 528 C 57.5838 -1.35923 -0.836486 0
M  V30 529 C 57.7838 -0.388704 -1.97715 0
M  V30 530 O 56.8398 0.181336 -2.51848 0
M  V30 531 C 58.1528 -2.76531 -1.18115 0
M  V30 532 C 59.7008 -2.85197 -1.28964 0
M  V30 533 C 60.1758 -4.26561 -1.66761 0
M  V30 534 N 61.6668 -4.2935 -1.73819 0
M  V30 535 C 62.4018 -5.35693 -2.045 0
M  V30 536 N 61.8978 -6.52287 -2.33438 0
M  V30 537 N 63.6908 -5.23105 -2.05711 0
M  V30 538 H 55.8418 -2.10965 0.246519 0
M  V30 539 H 58.1048 -0.9468 0.0476887 0
M  V30 540 H 57.8108 -3.49226 -0.416398 0
M  V30 541 H 57.6848 -3.11599 -2.1257 0
M  V30 542 H 60.0718 -2.12742 -2.04511 0
M  V30 543 H 60.1528 -2.53718 -0.325704 0
M  V30 544 H 59.7968 -4.99541 -0.917656 0
M  V30 545 H 59.7268 -4.55502 -2.64246 0
M  V30 546 H 62.2178 -3.4526 -1.53635 0
M  V30 547 H 62.5308 -7.29158 -2.56024 0
M  V30 548 H 60.8758 -6.55521 -2.30905 0
M  V30 549 H 64.0668 -4.31026 -1.82577 0
M  V30 550 H 64.2398 -6.06078 -2.29289 0
M  V30 551 N 57.6459 0.756429 -1.3826 0
M  V30 552 C 58.5939 1.89149 -1.35372 0
M  V30 553 C 59.5879 1.67691 -0.24004 0
M  V30 554 O 60.7939 1.75294 -0.408919 0
M  V30 555 H 57.1689 0.622271 -0.422236 0
M  V30 556 H 59.1399 1.88701 -2.31159 0
M  V30 557 C 57.8889 3.26599 -1.19284 0
M  V30 558 H 57.2119 3.43695 -2.0424 0
M  V30 559 H 58.6519 4.06274 -1.21316 0
M  V30 560 C 57.1109 3.3675 0.100454 0
M  V30 561 O 57.6409 3.86951 1.07851 0
M  V30 562 N 55.8469 2.90179 0.15633 0
M  V30 563 H 55.3939 2.49517 -0.640253 0
M  V30 564 H 55.3519 2.97352 1.02123 0
M  V30 565 N 59.124 1.23083 0.984299 0
M  V30 566 C 60.37 1.06214 1.72761 0
M  V30 567 C 60.703 -0.400584 1.90024 0
M  V30 568 O 59.978 -1.29672 1.44967 0
M  V30 569 C 60.261 1.78375 3.12817 0
M  V30 570 C 60.114 3.32296 3.03149 0
M  V30 571 C 61.433 1.54309 4.12161 0
M  V30 572 H 58.552 0.387251 0.627061 0
M  V30 573 H 61.194 1.51536 1.14616 0
M  V30 574 H 59.344 1.39848 3.62457 0
M  V30 575 H 61.016 3.8032 2.61064 0
M  V30 576 H 59.259 3.6153 2.39747 0
M  V30 577 H 59.93 3.77972 4.02295 0
M  V30 578 H 62.406 1.87791 3.71314 0
M  V30 579 H 61.282 2.07281 5.08258 0
M  V30 580 H 61.543 0.477572 4.39513 0
M  V30 581 N 60.6021 -1.18246 1.0419 0
M  V30 582 C 62.0131 -1.69914 0.773698 0
M  V30 583 C 62.3641 -1.83085 -0.705297 0
M  V30 584 O 61.4891 -1.51123 -1.5489 0
M  V30 585 C 62.0841 -3.08619 1.39784 0
M  V30 586 C 60.6431 -3.57494 1.17792 0
M  V30 587 C 59.7901 -2.34013 1.48773 0
M  V30 588 H 62.7411 -1.02904 1.20816 0
M  V30 589 H 62.7621 -3.71958 0.801714 0
M  V30 590 H 62.2741 -2.99001 2.47426 0
M  V30 591 H 60.3751 -3.72406 0.120295 0
M  V30 592 H 60.4881 -4.40852 1.87581 0
M  V30 593 H 58.8521 -2.37986 0.907463 0
M  V30 594 H 59.6351 -2.27013 2.57527 0
M  V30 595 N 62.0802 -0.821533 -1.34494 0
M  V30 596 C 63.3272 -0.408946 -1.98328 0
M  V30 597 C 63.6552 1.02764 -1.65136 0
M  V30 598 O 62.9102 1.73026 -0.914349 0
M  V30 599 C 63.2092 -0.556512 -3.53041 0
M  V30 600 C 62.8752 -1.95861 -4.0614 0
M  V30 601 C 61.5372 -2.34217 -4.20352 0
M  V30 602 C 63.8892 -2.87523 -4.34718 0
M  V30 603 C 61.2172 -3.63572 -4.6047 0
M  V30 604 C 63.5692 -4.1634 -4.76281 0
M  V30 605 C 62.2332 -4.54675 -4.88699 0
M  V30 606 H 61.5032 -0.149644 -0.725732 0
M  V30 607 H 64.1502 -1.04521 -1.6046 0
M  V30 608 H 62.4552 0.163148 -3.9146 0
M  V30 609 H 64.1522 -0.217826 -4.00408 0
M  V30 610 H 60.7422 -1.65066 -3.95539 0
M  V30 611 H 64.9262 -2.59133 -4.23277 0
M  V30 612 H 60.1822 -3.93101 -4.68275 0
M  V30 613 H 64.3562 -4.87455 -4.97354 0
M  V30 614 H 61.9832 -5.54959 -5.19542 0
M  V30 615 N 63.5583 1.46682 -0.576371 0
M  V30 616 C 64.9693 1.86112 -0.148091 0
M  V30 617 C 65.3203 1.48073 1.2872 0
M  V30 618 O 64.4453 0.892656 1.97131 0
M  V30 619 C 65.0403 3.37786 -0.261982 0
M  V30 620 C 63.5993 3.76235 0.111384 0
M  V30 621 C 62.7463 2.70713 -0.60083 0
M  V30 622 H 65.6973 1.37927 -0.78497 0
M  V30 623 H 65.7183 3.77007 0.514364 0
M  V30 624 H 65.2303 3.6544 -1.30671 0
M  V30 625 H 63.3313 3.54198 1.15649 0
M  V30 626 H 63.4443 4.78391 -0.26052 0
M  V30 627 H 61.8083 2.54666 -0.0417783 0
M  V30 628 H 62.5913 3.01208 -1.64708 0
M  V30 629 N 65.0364 0.313813 1.54444 0
M  V30 630 C 66.2664 -0.293491 2.04505 0
M  V30 631 C 66.6744 -1.47086 1.19005 0
M  V30 632 O 66.0174 -1.82481 0.211257 0
M  V30 633 C 66.0794 -0.800455 3.50475 0
M  V30 634 C 65.7434 0.253322 4.56297 0
M  V30 635 C 66.7404 1.08612 5.08428 0
M  V30 636 C 64.4254 0.398708 5.00715 0
M  V30 637 C 66.4194 2.05013 6.0353 0
M  V30 638 C 64.1064 1.36614 5.95634 0
M  V30 639 C 65.1044 2.19033 6.46926 0
M  V30 640 O 64.7924 3.14134 7.39983 0
M  V30 641 H 64.5244 -0.0658325 0.672787 0
M  V30 642 H 67.0784 0.455177 2.00293 0
M  V30 643 H 65.3084 -1.59987 3.52053 0
M  V30 644 H 66.9974 -1.32504 3.83663 0
M  V30 645 H 67.7634 0.984736 4.74898 0
M  V30 646 H 63.6424 -0.23289 4.60411 0
M  V30 647 H 67.1864 2.69382 6.4349 0
M  V30 648 H 63.0834 1.4682 6.28581 0
M  V30 649 H 63.8514 3.0926 7.57826 0
M  V30 650 N 66.5145 -1.57545 0.0417849 0
M  V30 651 C 67.4775 -2.09885 -0.92093 0
M  V30 652 C 68.4775 -1.01648 -1.24596 0
M  V30 653 O 69.6675 -1.27759 -1.1842 0
M  V30 654 C 66.7995 -2.57527 -2.23367 0
M  V30 655 H 67.9925 -2.96236 -0.467382 0
M  V30 656 H 65.5455 -1.5493 -0.206467 0
M  V30 657 H 66.2805 -1.74542 -2.73323 0
M  V30 658 H 66.0655 -3.36613 -2.01083 0
M  V30 659 H 67.5555 -2.98201 -2.92346 0
M  V30 660 N 67.9926 0.231505 -1.5589 0
M  V30 661 C 68.9026 1.308 -1.94752 0
M  V30 662 C 69.9186 1.51826 -0.849989 0
M  V30 663 O 71.0946 1.6515 -1.15271 0
M  V30 664 C 68.1596 2.63968 -2.24771 0
M  V30 665 C 67.2206 2.51331 -3.48039 0
M  V30 666 C 66.4536 3.78148 -3.76616 0
M  V30 667 O 66.6766 4.80722 -3.07022 0
M  V30 668 O 65.6106 3.75857 -4.70123 0
M  V30 669 H 69.4366 1.0083 -2.86474 0
M  V30 670 H 67.0216 0.433547 -1.42971 0
M  V30 671 H 68.9036 3.42633 -2.45318 0
M  V30 672 H 67.5786 2.9364 -1.36225 0
M  V30 673 H 66.4856 1.709 -3.32782 0
M  V30 674 H 67.8186 2.26601 -4.36936 0
M  V30 675 N 69.4707 1.49531 0.497807 0
M  V30 676 C 70.6987 1.62893 1.27567 0
M  V30 677 C 71.1137 0.301585 1.86376 0
M  V30 678 O 70.4707 -0.713335 1.67982 0
M  V30 679 C 70.5217 2.70013 2.40364 0
M  V30 680 O 70.2427 3.976 1.83972 0
M  V30 681 C 71.7437 2.94109 3.31685 0
M  V30 682 H 68.9637 0.548298 0.386794 0
M  V30 683 H 71.5077 1.95584 0.597245 0
M  V30 684 H 69.6627 2.40092 3.04031 0
M  V30 685 H 70.0767 4.56631 2.58047 0
M  V30 686 H 71.5507 3.72788 4.07104 0
M  V30 687 H 72.0277 2.04147 3.88871 0
M  V30 688 H 72.6337 3.2546 2.73781 0
M  V30 689 N 70.9488 -0.749086 1.3866 0
M  V30 690 C 72.2258 -1.4992 1.25632 0
M  V30 691 C 72.6058 -2.10633 -0.140317 0
M  V30 692 O 71.9538 -1.97437 -1.15025 0
M  V30 693 C 72.1638 -2.56195 2.36992 0
M  V30 694 C 73.5118 -3.22972 2.75634 0
M  V30 695 O 74.5358 -2.66502 2.36337 0
M  V30 696 O 73.3948 -4.25122 3.43415 0
M  V30 697 H 70.4888 -0.665067 0.491544 0
M  V30 698 H 73.0348 -0.784113 1.50498 0
M  V30 699 H 71.8068 -2.09612 3.30422 0
M  V30 700 H 71.4298 -3.35279 2.13714 0
M  V30 701 N 72.4269 -1.23603 -0.977757 0
M  V30 702 C 73.6729 -1.07129 -1.72195 0
M  V30 703 C 74.0059 0.390501 -1.90233 0
M  V30 704 O 73.2809 1.28902 -1.45653 0
M  V30 705 C 73.5639 -1.80031 -3.11867 0
M  V30 706 C 73.4169 -3.33899 -3.01383 0
M  V30 707 C 74.7359 -1.56492 -4.11337 0
M  V30 708 H 71.8549 -0.390571 -0.624999 0
M  V30 709 H 74.4969 -1.52142 -1.13811 0
M  V30 710 H 72.6469 -1.41768 -3.6171 0
M  V30 711 H 74.3189 -3.81699 -2.59043 0
M  V30 712 H 72.5619 -3.62796 -2.37827 0
M  V30 713 H 73.2329 -3.801 -4.00285 0
M  V30 714 H 75.7089 -1.89757 -3.70313 0
M  V30 715 H 74.5849 -2.09973 -5.07151 0
M  V30 716 H 74.8459 -0.500874 -4.39254 0
M  V30 717 N 73.905 1.17692 -1.04816 0
M  V30 718 C 74.868 2.19787 -0.650117 0
M  V30 719 C 75.868 1.58044 0.296427 0
M  V30 720 O 77.058 1.74012 0.0808097 0
M  V30 721 C 74.19 3.40869 0.0456987 0
M  V30 722 H 75.383 2.56516 -1.5537 0
M  V30 723 H 72.936 1.31708 -0.841594 0
M  V30 724 H 73.671 3.09681 0.962726 0
M  V30 725 H 73.456 3.86928 -0.634727 0
M  V30 726 H 74.946 4.16445 0.310432 0
M  V30 727 N 75.3831 0.828654 1.34056 0
M  V30 728 C 76.6601 0.341809 1.9259 0
M  V30 729 C 77.0401 -1.17158 1.75605 0
M  V30 730 O 76.3881 -1.98132 1.13824 0
M  V30 731 C 76.5981 0.777453 3.4023 0
M  V30 732 C 77.9461 0.779579 4.17382 0
M  V30 733 O 78.9701 0.7204 3.48839 0
M  V30 734 O 77.8291 0.857996 5.39723 0
M  V30 735 H 74.9231 0.0946085 0.821571 0
M  V30 736 H 77.4691 0.913827 1.42994 0
M  V30 737 H 76.2411 1.8196 3.46419 0
M  V30 738 H 75.8641 0.181444 3.97186 0
M  V30 739 N 76.8612 -1.46375 0.584142 0
M  V30 740 C 77.7912 -2.33103 -0.136037 0
M  V30 741 C 78.7722 -1.45431 -0.882255 0
M  V30 742 O 79.9572 -1.74246 -0.857434 0
M  V30 743 C 77.0872 -3.27731 -1.14933 0
M  V30 744 C 76.0412 -4.24855 -0.517862 0
M  V30 745 C 75.3672 -5.09001 -1.63773 0
M  V30 746 C 76.6672 -5.19439 0.545886 0
M  V30 747 H 78.3612 -2.93568 0.588086 0
M  V30 748 H 75.9072 -1.41166 0.284259 0
M  V30 749 H 77.8602 -3.87261 -1.66153 0
M  V30 750 H 76.5842 -2.65377 -1.90375 0
M  V30 751 H 75.2432 -3.6659 -0.0267361 0
M  V30 752 H 74.8912 -4.43031 -2.38185 0
M  V30 753 H 74.5912 -5.74777 -1.22085 0
M  V30 754 H 76.1152 -5.71396 -2.15266 0
M  V30 755 H 77.5292 -5.73177 0.118704 0
M  V30 756 H 75.9262 -5.93566 0.88317 0
M  V30 757 H 76.9962 -4.63285 1.43162 0
M  V30 758 N 78.3393 -0.321999 -1.54275 0
M  V30 759 C 79.2713 0.578671 -2.21775 0
M  V30 760 C 80.2843 1.08109 -1.21722 0
M  V30 761 O 81.4733 0.994938 -1.482 0
M  V30 762 C 78.5733 1.80661 -2.86731 0
M  V30 763 C 77.7463 1.44314 -4.12907 0
M  V30 764 C 76.8053 2.52845 -4.61472 0
M  V30 765 O 75.8313 2.17054 -5.2619 0
M  V30 766 N 77.0333 3.83748 -4.35566 0
M  V30 767 H 79.7983 0.000709447 -2.997 0
M  V30 768 H 77.3593 -0.145132 -1.61248 0
M  V30 769 H 79.3513 2.52655 -3.16145 0
M  V30 770 H 77.9213 2.29245 -2.12521 0
M  V30 771 H 77.1413 0.554906 -3.90275 0
M  V30 772 H 78.4293 1.17598 -4.95023 0
M  V30 773 H 77.8273 4.15625 -3.83761 0
M  V30 774 H 76.3843 4.51977 -4.69638 0
M  V30 775 N 79.8174 1.5752 -0.0501392 0
M  V30 776 C 80.7804 2.1037 0.909786 0
M  V30 777 C 81.7804 1.02308 1.24056 0
M  V30 778 O 82.9704 1.28385 1.17741 0
M  V30 779 C 80.1024 2.58708 2.21998 0
M  V30 780 H 81.2954 2.96479 0.451665 0
M  V30 781 H 78.8484 1.55038 0.198248 0
M  V30 782 H 79.5834 1.75989 2.72394 0
M  V30 783 H 79.3684 3.37675 1.99295 0
M  V30 784 H 80.8584 2.99747 2.9076 0
M  V30 785 N 81.2955 -0.223234 1.56011 0
M  V30 786 C 82.7115 -0.572856 1.48965 0
M  V30 787 C 82.9115 -1.87225 0.74492 0
M  V30 788 O 81.9675 -2.50899 0.283896 0
M  V30 789 C 83.2805 -0.653646 2.9351 0
M  V30 790 C 84.8285 -0.744386 3.0402 0
M  V30 791 C 85.3035 -0.856535 4.49919 0
M  V30 792 N 86.7945 -0.9208 4.53955 0
M  V30 793 C 87.5295 -1.02726 5.64123 0
M  V30 794 N 87.0255 -1.09777 6.84047 0
M  V30 795 N 88.8185 -1.06226 5.51971 0
M  V30 796 H 80.9695 0.629462 2.02858 0
M  V30 797 H 83.2325 0.220621 0.921971 0
M  V30 798 H 82.9385 0.231518 3.50937 0
M  V30 799 H 82.8125 -1.51781 3.45315 0
M  V30 800 H 85.1995 -1.61999 2.46658 0
M  V30 801 H 85.2805 0.14541 2.55386 0
M  V30 802 H 84.9245 0.0146069 5.07898 0
M  V30 803 H 84.8545 -1.76172 4.96257 0
M  V30 804 H 87.3455 -0.876694 3.6759 0
M  V30 805 H 87.6585 -1.17872 7.63758 0
M  V30 806 H 86.0035 -1.06693 6.86762 0
M  V30 807 H 89.1945 -1.00382 4.5721 0
M  V30 808 H 89.3675 -1.14177 6.37862 0
M  V30 809 N 82.7736 -1.49793 -0.48987 0
M  V30 810 C 83.7066 -1.61898 -1.60823 0
M  V30 811 C 84.6846 -0.467651 -1.5573 0
M  V30 812 O 85.8686 -0.684682 -1.75626 0
M  V30 813 C 82.9956 -1.58422 -2.99366 0
M  V30 814 C 82.0416 -2.78889 -3.22682 0
M  V30 815 S 82.8746 -4.40429 -3.04602 0
M  V30 816 C 84.0306 -4.39617 -4.4552 0
M  V30 817 H 84.2636 -2.56502 -1.50312 0
M  V30 818 H 81.7966 -1.38822 -0.675849 0
M  V30 819 H 83.7546 -1.57103 -3.79248 0
M  V30 820 H 82.4156 -0.650866 -3.07283 0
M  V30 821 H 81.6086 -2.72708 -4.23847 0
M  V30 822 H 81.2106 -2.77678 -2.50541 0
M  V30 823 H 83.5026 -4.12022 -5.37814 0
M  V30 824 H 84.4456 -5.41097 -4.56749 0
M  V30 825 H 84.8536 -3.69554 -4.2672 0
M  V30 826 N 84.2517 0.741722 -1.39055 0
M  V30 827 C 85.4797 1.53098 -1.39171 0
M  V30 828 C 85.8947 1.88794 0.0155099 0
M  V30 829 O 85.2517 1.53626 0.985159 0
M  V30 830 C 85.3027 2.82274 -2.2584 0
M  V30 831 O 85.0237 2.48097 -3.61081 0
M  V30 832 C 86.5247 3.76343 -2.34266 0
M  V30 833 H 83.7447 0.473335 -0.4756 0
M  V30 834 H 86.2887 0.917045 -1.82785 0
M  V30 835 H 84.4437 3.40015 -1.85656 0
M  V30 836 H 84.8577 3.31029 -4.06842 0
M  V30 837 H 86.3317 4.63898 -2.9917 0
M  V30 838 H 86.8087 4.17619 -1.35982 0
M  V30 839 H 87.4147 3.24523 -2.74891 0
M  V30 840 N 85.7298 1.2412 0.971189 0
M  V30 841 C 86.6928 1.03156 2.04674 0
M  V30 842 C 87.6928 -0.00990322 1.60797 0
M  V30 843 O 88.8828 0.230729 1.72665 0
M  V30 844 C 86.0148 0.562765 3.36223 0
M  V30 845 H 87.2078 1.98614 2.24705 0
M  V30 846 H 84.7608 1.06293 1.14593 0
M  V30 847 H 85.4958 -0.395176 3.21883 0
M  V30 848 H 85.2808 1.31441 3.69413 0
M  V30 849 H 86.7708 0.437015 4.15307 0
M  V30 850 N 87.2079 -1.17134 1.05439 0
M  V30 851 C 88.4559 -1.87085 0.764429 0
M  V30 852 C 88.7769 -1.81584 -0.710787 0
M  V30 853 O 88.0469 -1.24349 -1.51374 0
M  V30 854 H 86.6269 -0.692627 0.279779 0
M  V30 855 H 89.2889 -1.42087 1.33406 0
M  V30 856 H 88.3849 -2.92759 1.0816 0
M  V30 857 N 88.686 -0.835752 -1.33615 0
M  V30 858 C 89.596 -0.269088 -2.33052 0
M  V30 859 C 90.612 0.603251 -1.63208 0
M  V30 860 O 91.788 0.508112 -1.94885 0
M  V30 861 C 88.853 0.549091 -3.42324 0
M  V30 862 C 87.914 -0.347156 -4.27894 0
M  V30 863 C 87.147 0.43207 -5.31948 0
M  V30 864 O 87.37 1.66409 -5.45586 0
M  V30 865 O 86.304 -0.192298 -6.01593 0
M  V30 866 H 90.13 -1.09243 -2.83372 0
M  V30 867 H 87.715 -0.598198 -1.36901 0
M  V30 868 H 89.597 1.01414 -4.09015 0
M  V30 869 H 88.272 1.34955 -2.94226 0
M  V30 870 H 87.179 -0.859979 -3.64081 0
M  V30 871 H 88.512 -1.1123 -4.79467 0
M  V30 872 N 90.1641 1.46063 -0.591896 0
M  V30 873 C 91.0941 2.33172 0.123673 0
M  V30 874 C 92.0751 1.45897 0.87453 0
M  V30 875 O 93.2601 1.74698 0.848181 0
M  V30 876 C 90.3901 3.28336 1.13194 0
M  V30 877 C 89.3441 4.25124 0.495324 0
M  V30 878 C 88.6701 5.09863 1.61071 0
M  V30 879 C 89.9701 5.19143 -0.573425 0
M  V30 880 H 91.6641 2.93252 -0.603646 0
M  V30 881 H 89.2101 1.41014 -0.291741 0
M  V30 882 H 91.1631 3.88137 1.64097 0
M  V30 883 H 89.8871 2.66383 1.88965 0
M  V30 884 H 88.5461 3.66599 0.00729452 0
M  V30 885 H 88.1941 4.44288 2.35832 0
M  V30 886 H 87.8941 5.75417 1.19035 0
M  V30 887 H 89.4181 5.72529 2.12233 0
M  V30 888 H 90.8321 5.73106 -0.1491 0
M  V30 889 H 89.2291 5.93089 -0.914636 0
M  V30 890 H 90.2991 4.62519 -1.45617 0
M  V30 891 N 91.6422 0.330177 1.54103 0
M  V30 892 C 92.9192 -0.325007 1.92881 0
M  V30 893 C 93.2992 -1.6934 1.26045 0
M  V30 894 O 92.6472 -2.24855 0.406526 0
M  V30 895 C 92.8572 -0.410634 3.46576 0
M  V30 896 C 94.2052 -0.667801 4.19316 0
M  V30 897 O 95.2292 -0.49329 3.52768 0
M  V30 898 O 94.0882 -1.00491 5.37181 0
M  V30 899 H 91.1822 -0.186873 0.80561 0
M  V30 900 H 93.7282 0.380376 1.65382 0
M  V30 901 H 92.5002 0.550164 3.87413 0
M  V30 902 H 92.1232 -1.16333 3.802 0
M  V30 903 N 93.1203 -1.57491 0.0584922 0
M  V30 904 C 94.3453 -1.97711 -0.62652 0
M  V30 905 C 94.7703 -0.936132 -1.63151 0
M  V30 906 O 94.1283 0.099811 -1.81025 0
M  V30 907 C 94.1763 -3.36989 -1.28338 0
M  V30 908 O 93.2803 -3.35433 -2.39913 0
M  V30 909 H 92.6213 -0.643868 -0.162266 0
M  V30 910 H 95.1513 -2.04193 0.129064 0
M  V30 911 H 95.1613 -3.73879 -1.63335 0
M  V30 912 H 93.8363 -4.12289 -0.546889 0
M  V30 913 H 92.4133 -3.10298 -2.06809 0
M  V30 914 N 94.5984 0.214957 -1.56127 0
M  V30 915 C 95.8264 0.955092 -1.83536 0
M  V30 916 C 96.2414 1.77677 -0.638472 0
M  V30 917 O 95.5984 1.78219 0.392968 0
M  V30 918 C 95.6494 1.86734 -3.09536 0
M  V30 919 O 95.3704 1.07887 -4.24608 0
M  V30 920 C 96.8714 2.72082 -3.4998 0
M  V30 921 H 94.0914 0.279611 -0.609966 0
M  V30 922 H 96.6354 0.228197 -2.03223 0
M  V30 923 H 94.7904 2.5481 -2.91806 0
M  V30 924 H 95.2044 1.69872 -4.9623 0
M  V30 925 H 96.6784 3.31782 -4.41163 0
M  V30 926 H 97.1554 3.44806 -2.7204 0
M  V30 927 H 97.7614 2.09409 -3.70173 0
M  V30 928 N 96.0765 1.50051 0.48192 0
M  V30 929 C 97.3045 1.64237 1.25832 0
M  V30 930 C 97.7195 0.321336 1.86045 0
M  V30 931 O 97.0765 -0.695478 1.68729 0
M  V30 932 C 97.1275 2.72548 2.37487 0
M  V30 933 O 96.8485 3.99529 1.79745 0
M  V30 934 C 98.3495 2.9761 3.28547 0
M  V30 935 H 95.5695 0.55237 0.380957 0
M  V30 936 H 98.1135 1.96207 0.576467 0
M  V30 937 H 96.2685 2.43303 3.01467 0
M  V30 938 H 96.6825 4.59342 2.5319 0
M  V30 939 H 98.1565 3.77084 4.03127 0
M  V30 940 H 98.6335 2.0826 3.86684 0
M  V30 941 H 99.2395 3.28345 2.70314 0
M  V30 942 N 97.5546 -0.734337 1.39446 0
M  V30 943 C 98.4846 -1.86155 1.40955 0
M  V30 944 C 99.4656 -1.67898 0.272827 0
M  V30 945 O 100.651 -1.88207 0.478743 0
M  V30 946 C 97.7806 -3.23912 1.25294 0
M  V30 947 C 96.7346 -3.56808 2.36373 0
M  V30 948 C 96.0606 -4.93508 2.058 0
M  V30 949 C 97.3606 -3.59713 3.78687 0
M  V30 950 H 99.0546 -1.8515 2.35287 0
M  V30 951 H 96.6006 -0.889367 1.13253 0
M  V30 952 H 98.5536 -4.02443 1.2497 0
M  V30 953 H 97.2776 -3.25446 0.274308 0
M  V30 954 H 95.9366 -2.80606 2.35914 0
M  V30 955 H 95.5846 -4.91623 1.06374 0
M  V30 956 H 95.2846 -5.16486 2.80208 0
M  V30 957 H 96.8086 -5.74396 2.07128 0
M  V30 958 H 98.2226 -4.2832 3.81071 0
M  V30 959 H 96.6196 -3.94209 4.52459 0
M  V30 960 H 97.6896 -2.59504 4.09617 0
M  V30 961 N 99.0327 -1.24633 -0.964593 0
M  V30 962 C 100.261 -1.11501 -1.74285 0
M  V30 963 C 100.676 0.332165 -1.85855 0
M  V30 964 O 100.033 1.22903 -1.34911 0
M  V30 965 C 100.084 -1.75258 -3.16175 0
M  V30 966 O 99.8047 -3.14318 -3.05182 0
M  V30 967 C 101.306 -1.67776 -4.10324 0
M  V30 968 H 98.5257 -0.389407 -0.546446 0
M  V30 969 H 101.07 -1.64801 -1.21083 0
M  V30 970 H 99.2247 -1.25954 -3.66353 0
M  V30 971 H 99.6387 -3.4551 -3.94618 0
M  V30 972 H 101.113 -2.17064 -5.0753 0
M  V30 973 H 101.59 -0.639584 -4.34518 0
M  V30 974 H 102.196 -2.16522 -3.66058 0
M  V30 975 N 100.511 1.16574 -1.06058 0
M  V30 976 C 101.443 2.2045 -0.627239 0
M  V30 977 C 102.456 1.59752 0.313534 0
M  V30 978 O 103.645 1.78192 0.104896 0
M  V30 979 C 100.745 3.3875 0.100974 0
M  V30 980 C 99.9178 4.29008 -0.852687 0
M  V30 981 C 98.9768 5.25944 -0.164152 0
M  V30 982 O 98.0028 5.63535 -0.801047 0
M  V30 983 N 99.2048 5.70075 1.09518 0
M  V30 984 H 101.97 2.58249 -1.52077 0
M  V30 985 H 99.5308 1.3156 -0.943594 0
M  V30 986 H 101.523 4.00638 0.57194 0
M  V30 987 H 100.093 2.99476 0.89628 0
M  V30 988 H 99.3128 3.64419 -1.50308 0
M  V30 989 H 100.601 4.86195 -1.49972 0
M  V30 990 H 99.9988 5.41624 1.6328 0
M  V30 991 H 98.5558 6.34067 1.51006 0
M  V30 992 N 101.989 0.842826 1.3317 0
M  V30 993 C 102.952 0.284065 2.27433 0
M  V30 994 C 103.952 -0.54948 1.5112 0
M  V30 995 O 105.142 -0.362699 1.70382 0
M  V30 996 C 102.274 -0.599384 3.35589 0
M  V30 997 H 103.467 1.11589 2.78366 0
M  V30 998 H 101.02 0.616221 1.4364 0
M  V30 999 H 101.755 -1.45349 2.89904 0
M  V30 1000 H 101.54 -0.00291266 3.921 0
M  V30 1001 H 103.03 -0.983488 4.05854 0
M  V30 1002 N 103.467 -1.45747 0.599634 0
M  V30 1003 C 104.697 -2.06369 0.0977132 0
M  V30 1004 C 105.105 -1.44624 -1.21985 0
M  V30 1005 O 104.448 -0.551831 -1.75216 0
M  V30 1006 C 104.51 -3.59284 -0.124673 0
M  V30 1007 C 104.174 -4.43318 1.10987 0
M  V30 1008 C 105.171 -4.78796 2.02609 0
M  V30 1009 C 102.856 -4.84194 1.33647 0
M  V30 1010 C 104.85 -5.53997 3.15224 0
M  V30 1011 C 102.537 -5.5915 2.46565 0
M  V30 1012 C 103.535 -5.93968 3.37182 0
M  V30 1013 O 103.223 -6.67405 4.48136 0
M  V30 1014 H 102.955 -0.673122 0.0623153 0
M  V30 1015 H 105.509 -1.88104 0.824981 0
M  V30 1016 H 103.739 -3.75919 -0.906745 0
M  V30 1017 H 105.428 -4.01775 -0.577201 0
M  V30 1018 H 106.194 -4.47781 1.86325 0
M  V30 1019 H 102.073 -4.56534 0.64016 0
M  V30 1020 H 105.617 -5.81091 3.85978 0
M  V30 1021 H 101.514 -5.89579 2.62805 0
M  V30 1022 H 102.282 -6.85847 4.46717 0
M  V30 1023 N 104.945 -0.338344 -1.53925 0
M  V30 1024 C 105.875 0.51328 -2.27789 0
M  V30 1025 C 106.856 1.107 -1.29149 0
M  V30 1026 O 108.041 1.12937 -1.57984 0
M  V30 1027 C 105.171 1.66697 -3.04679 0
M  V30 1028 C 104.125 1.20183 -4.1078 0
M  V30 1029 C 103.451 2.44363 -4.75595 0
M  V30 1030 C 104.751 0.30605 -5.21403 0
M  V30 1031 H 106.445 -0.102883 -2.99223 0
M  V30 1032 H 103.991 -0.0509219 -1.4391 0
M  V30 1033 H 105.944 2.26915 -3.55088 0
M  V30 1034 H 104.668 2.30995 -2.30887 0
M  V30 1035 H 103.327 0.622499 -3.61276 0
M  V30 1036 H 102.975 3.07057 -3.98403 0
M  V30 1037 H 102.675 2.13925 -5.47275 0
M  V30 1038 H 104.199 3.05317 -5.28786 0
M  V30 1039 H 105.613 0.814929 -5.67478 0
M  V30 1040 H 104.01 0.0937929 -6.00027 0
M  V30 1041 H 105.08 -0.65921 -4.80398 0
M  V30 1042 N 106.423 1.57458 -0.0668435 0
M  V30 1043 C 107.355 2.09413 0.931601 0
M  V30 1044 C 108.368 1.02522 1.26464 0
M  V30 1045 O 109.557 1.30049 1.22269 0
M  V30 1046 C 106.657 2.53537 2.24882 0
M  V30 1047 C 105.83 3.83944 2.09537 0
M  V30 1048 C 104.889 4.14214 3.2452 0
M  V30 1049 O 103.915 4.83891 2.9973 0
M  V30 1050 N 105.117 3.67367 4.49469 0
M  V30 1051 H 107.882 2.95699 0.488048 0
M  V30 1052 H 105.443 1.61462 0.119009 0
M  V30 1053 H 107.435 2.70853 3.00701 0
M  V30 1054 H 106.005 1.72415 2.60753 0
M  V30 1055 H 105.225 3.76057 1.18215 0
M  V30 1056 H 106.513 4.69312 1.96529 0
M  V30 1057 H 105.911 3.11068 4.72497 0
M  V30 1058 H 104.468 3.89891 5.2233 0
M  V30 1059 N 107.901 -0.206675 1.56239 0
M  V30 1060 C 109.317 -0.557025 1.49564 0
M  V30 1061 C 109.517 -1.86424 0.764735 0
M  V30 1062 O 108.573 -2.50584 0.310491 0
M  V30 1063 C 109.886 -0.622478 2.94186 0
M  V30 1064 C 111.434 -0.712099 3.04792 0
M  V30 1065 C 111.909 -0.808767 4.50803 0
M  V30 1066 N 113.4 -0.8726 4.54907 0
M  V30 1067 C 114.135 -0.967365 5.65181 0
M  V30 1068 N 113.631 -1.02515 6.85173 0
M  V30 1069 N 115.424 -1.00366 5.53067 0
M  V30 1070 H 107.575 0.650943 2.02179 0
M  V30 1071 H 109.838 0.230387 0.919579 0
M  V30 1072 H 109.544 0.268727 3.50672 0
M  V30 1073 H 109.418 -1.4811 3.46905 0
M  V30 1074 H 111.805 -1.59374 2.48363 0
M  V30 1075 H 111.886 0.172489 2.55218 0
M  V30 1076 H 111.53 0.0684754 5.07854 0
M  V30 1077 H 111.46 -1.70899 4.98098 0
M  V30 1078 H 113.951 -0.837657 3.68499 0
M  V30 1079 H 114.264 -1.09765 7.64965 0
M  V30 1080 H 112.609 -0.994026 6.87855 0
M  V30 1081 H 115.8 -0.95527 4.58249 0
M  V30 1082 H 115.973 -1.07405 6.39037 0
M  V30 1083 N 109.379 -1.50304 -0.473955 0
M  V30 1084 C 110.628 -1.60392 -1.22301 0
M  V30 1085 C 110.941 -0.308411 -1.93153 0
M  V30 1086 O 112.147 -0.288156 -2.69966 0
M  V30 1087 C 110.603 -2.83109 -2.2221 0
M  V30 1088 C 110.211 -4.19524 -1.57173 0
M  V30 1089 C 111.955 -3.0254 -2.97775 0
M  V30 1090 C 109.862 -5.33431 -2.55353 0
M  V30 1091 H 108.792 -0.597286 -0.460179 0
M  V30 1092 H 111.443 -1.76731 -0.493803 0
M  V30 1093 H 109.825 -2.60322 -2.9841 0
M  V30 1094 H 110.999 -4.52554 -0.867824 0
M  V30 1095 H 109.314 -4.05674 -0.939002 0
M  V30 1096 H 111.911 -3.84811 -3.71248 0
M  V30 1097 H 112.254 -2.14154 -3.56992 0
M  V30 1098 H 112.787 -3.25494 -2.28688 0
M  V30 1099 H 109.526 -6.23962 -2.00878 0
M  V30 1100 H 109.046 -5.04823 -3.23904 0
M  V30 1101 H 110.725 -5.63887 -3.17239 0
M  V30 1102 N 110.857 0.726932 -1.39834 0
M  V30 1103 C 111.82 1.82269 -1.38962 0
M  V30 1104 C 112.82 1.58248 -0.285334 0
M  V30 1105 O 114.01 1.65499 -0.54366 0
M  V30 1106 C 111.142 3.20186 -1.17019 0
M  V30 1107 H 112.335 1.84443 -2.36476 0
M  V30 1108 H 109.888 0.931416 -1.25516 0
M  V30 1109 H 110.623 3.23669 -0.202204 0
M  V30 1110 H 110.408 3.3902 -1.96998 0
M  V30 1111 H 111.898 4.00235 -1.1917 0
M  V30 1112 N 112.336 1.25143 0.95797 0
M  V30 1113 C 113.299 1.05321 2.03569 0
M  V30 1114 C 114.299 0.007152 1.60798 0
M  V30 1115 O 115.489 0.24903 1.72411 0
M  V30 1116 C 112.621 0.598394 3.35607 0
M  V30 1117 H 113.814 2.00986 2.22586 0
M  V30 1118 H 111.367 1.07502 1.13459 0
M  V30 1119 H 112.102 -0.361014 3.22284 0
M  V30 1120 H 111.887 1.35351 3.67998 0
M  V30 1121 H 113.377 0.48104 4.1482 0
M  V30 1122 N 113.814 -1.1601 1.06675 0
M  V30 1123 C 114.744 -2.22688 0.702307 0
M  V30 1124 C 115.725 -1.67306 -0.307032 0
M  V30 1125 O 116.91 -1.93352 -0.181305 0
M  V30 1126 C 114.04 -3.47178 0.092038 0
M  V30 1127 C 112.994 -4.15477 1.02777 0
M  V30 1128 C 112.32 -5.33963 0.28061 0
M  V30 1129 C 113.62 -4.66019 2.35846 0
M  V30 1130 H 115.314 -2.53429 1.59419 0
M  V30 1131 H 112.86 -1.21813 0.767961 0
M  V30 1132 H 114.813 -4.21037 -0.174814 0
M  V30 1133 H 113.537 -3.15749 -0.834877 0
M  V30 1134 H 112.196 -3.43549 1.27944 0
M  V30 1135 H 111.844 -4.98788 -0.649545 0
M  V30 1136 H 111.544 -5.806 0.904258 0
M  V30 1137 H 113.068 -6.10596 0.021396 0
M  V30 1138 H 114.482 -5.3144 2.15045 0
M  V30 1139 H 112.879 -5.23293 2.93743 0
M  V30 1140 H 113.949 -3.82023 2.98641 0
M  V30 1141 N 115.292 -0.849877 -1.32721 0
M  V30 1142 C 116.569 -0.372405 -1.92022 0
M  V30 1143 C 116.949 1.1435 -1.77447 0
M  V30 1144 O 116.297 1.96296 -1.16962 0
M  V30 1145 C 116.507 -0.831482 -3.3895 0
M  V30 1146 C 117.855 -0.845882 -4.16089 0
M  V30 1147 O 118.879 -0.775806 -3.47649 0
M  V30 1148 O 117.738 -0.943753 -5.38289 0
M  V30 1149 H 114.832 -0.107667 -0.819961 0
M  V30 1150 H 117.378 -0.93646 -1.41522 0
M  V30 1151 H 116.15 -1.87448 -3.4348 0
M  V30 1152 H 115.773 -0.24461 -3.96847 0
M  V30 1153 N 116.77 1.45427 -0.607355 0
M  V30 1154 C 118.186 1.57283 -0.270985 0
M  V30 1155 C 118.386 1.59875 1.22647 0
M  V30 1156 O 117.442 1.52893 2.00948 0
M  V30 1157 C 118.755 2.85566 -0.941952 0
M  V30 1158 C 120.303 2.9924 -0.917849 0
M  V30 1159 C 120.778 4.30293 -1.56882 0
M  V30 1160 N 122.269 4.37051 -1.5343 0
M  V30 1161 C 123.004 5.37123 -2.00715 0
M  V30 1162 N 122.5 6.43734 -2.56084 0
M  V30 1163 N 124.293 5.28479 -1.91484 0
M  V30 1164 H 116.444 1.41988 -1.57966 0
M  V30 1165 H 118.707 0.67885 -0.661715 0
M  V30 1166 H 118.413 2.8955 -1.99633 0
M  V30 1167 H 118.287 3.74322 -0.465096 0
M  V30 1168 H 120.674 2.94822 0.127984 0
M  V30 1169 H 120.755 2.11895 -1.43297 0
M  V30 1170 H 120.399 4.35469 -2.61398 0
M  V30 1171 H 120.329 5.16454 -1.02873 0
M  V30 1172 H 122.82 3.60615 -1.12982 0
M  V30 1173 H 123.133 7.16341 -2.89958 0
M  V30 1174 H 121.478 6.44485 -2.60122 0
M  V30 1175 H 124.669 4.44098 -1.47967 0
M  V30 1176 H 124.842 6.0632 -2.28648 0
M  V30 1177 N 118.248 0.346503 1.53744 0
M  V30 1178 C 119.476 -0.25041 2.05379 0
M  V30 1179 C 119.891 -1.43979 1.22129 0
M  V30 1180 O 119.248 -1.80677 0.257321 0
M  V30 1181 C 119.299 -0.662575 3.55376 0
M  V30 1182 O 119.02 0.479515 4.35468 0
M  V30 1183 C 120.521 -1.31989 4.23195 0
M  V30 1184 H 117.741 -0.0478198 0.669294 0
M  V30 1185 H 120.285 0.499346 1.9831 0
M  V30 1186 H 118.44 -1.36227 3.62658 0
M  V30 1187 H 118.854 0.15037 5.24284 0
M  V30 1188 H 120.328 -1.55902 5.29527 0
M  V30 1189 H 120.805 -2.27436 3.75725 0
M  V30 1190 H 121.411 -0.662154 4.20114 0
M  V30 1191 N 119.726 -1.57421 0.075193 0
M  V30 1192 C 120.974 -1.93236 -0.591974 0
M  V30 1193 C 121.295 -0.956241 -1.69944 0
M  V30 1194 O 120.565 -0.00494792 -1.95899 0
M  V30 1195 H 119.145 -0.713355 -0.22166 0
M  V30 1196 H 121.807 -1.9444 0.133848 0
M  V30 1197 H 120.903 -2.95131 -1.01509 0
M  V30 1198 N 121.204 0.198386 -1.56346 0
M  V30 1199 C 122.615 0.763358 -1.70381 0
M  V30 1200 C 122.966 1.83995 -0.681203 0
M  V30 1201 O 122.091 2.15785 0.16305 0
M  V30 1202 C 122.686 1.39143 -3.08909 0
M  V30 1203 C 121.245 1.90352 -3.2472 0
M  V30 1204 C 120.392 0.772233 -2.6633 0
M  V30 1205 H 123.343 -0.0266377 -1.58678 0
M  V30 1206 H 123.364 2.26076 -3.06055 0
M  V30 1207 H 122.876 0.607638 -3.83314 0
M  V30 1208 H 120.977 2.71461 -2.55225 0
M  V30 1209 H 121.09 2.06757 -4.3219 0
M  V30 1210 H 119.454 1.18566 -2.2542 0
M  V30 1211 H 120.237 0.00073556 -3.433 0
M  V30 1212 N 122.682 1.50554 0.465978 0
M  V30 1213 C 124.098 1.38093 0.800154 0
M  V30 1214 C 124.298 0.440988 1.96615 0
M  V30 1215 O 123.354 -0.114499 2.5224 0
M  V30 1216 C 124.667 2.79565 1.10742 0
M  V30 1217 C 126.215 2.88516 1.21357 0
M  V30 1218 C 126.69 4.30833 1.55393 0
M  V30 1219 N 128.181 4.33807 1.62375 0
M  V30 1220 C 128.916 5.40927 1.90225 0
M  V30 1221 N 128.412 6.58247 2.16062 0
M  V30 1222 N 130.205 5.28376 1.9177 0
M  V30 1223 H 122.356 2.10237 -0.302366 0
M  V30 1224 H 124.619 0.945203 -0.0727746 0
M  V30 1225 H 124.325 3.50208 0.323661 0
M  V30 1226 H 124.199 3.17125 2.04234 0
M  V30 1227 H 126.586 2.1809 1.98799 0
M  V30 1228 H 126.667 2.54492 0.258321 0
M  V30 1229 H 126.311 5.01799 0.784889 0
M  V30 1230 H 126.241 4.62347 2.52076 0
M  V30 1231 H 128.732 3.49212 1.44427 0
M  V30 1232 H 129.045 7.3569 2.36601 0
M  V30 1233 H 127.39 6.61413 2.13444 0
M  V30 1234 H 130.581 4.35715 1.71085 0
M  V30 1235 H 130.754 6.11944 2.13139 0
M  V30 1236 N 124.16 -0.719506 1.40217 0
M  V30 1237 C 125.09 -1.8465 1.42922 0
M  V30 1238 C 126.071 -1.67599 0.29062 0
M  V30 1239 O 127.256 -1.87688 0.498677 0
M  V30 1240 C 124.386 -3.22565 1.28722 0
M  V30 1241 C 123.34 -3.54281 2.40144 0
M  V30 1242 C 122.666 -4.91298 2.11023 0
M  V30 1243 C 123.966 -3.55676 3.82481 0
M  V30 1244 H 125.66 -1.82644 2.37237 0
M  V30 1245 H 123.206 -0.877305 1.1419 0
M  V30 1246 H 125.159 -4.01095 1.29232 0
M  V30 1247 H 123.883 -3.25137 0.308811 0
M  V30 1248 H 122.542 -2.78088 2.38877 0
M  V30 1249 H 122.19 -4.90468 1.11582 0
M  V30 1250 H 121.89 -5.13485 2.8567 0
M  V30 1251 H 123.414 -5.72166 2.13209 0
M  V30 1252 H 124.828 -4.24254 3.85592 0
M  V30 1253 H 123.225 -3.89388 4.56614 0
M  V30 1254 H 124.295 -2.55144 4.12346 0
M  V30 1255 N 125.638 -1.25649 -0.95132 0
M  V30 1256 C 127.054 -1.02542 -1.223 0
M  V30 1257 C 127.254 0.255715 -1.99871 0
M  V30 1258 O 126.31 0.967558 -2.33226 0
M  V30 1259 C 127.623 -2.25065 -1.99415 0
M  V30 1260 C 129.171 -2.29861 -2.12446 0
M  V30 1261 C 129.646 -3.52048 -2.92961 0
M  V30 1262 N 131.137 -3.52465 -3.00538 0
M  V30 1263 C 131.872 -4.43672 -3.63239 0
M  V30 1264 N 131.368 -5.45157 -4.27523 0
M  V30 1265 N 133.161 -4.31346 -3.60412 0
M  V30 1266 H 125.312 -2.07951 -0.432471 0
M  V30 1267 H 127.575 -0.91339 -0.253816 0
M  V30 1268 H 127.281 -3.18194 -1.49817 0
M  V30 1269 H 127.155 -2.28502 -3.00111 0
M  V30 1270 H 129.542 -1.37252 -2.61239 0
M  V30 1271 H 129.623 -2.3044 -1.11044 0
M  V30 1272 H 129.267 -4.44981 -2.44856 0
M  V30 1273 H 129.197 -3.48715 -3.94596 0
M  V30 1274 H 131.688 -2.79056 -2.54826 0
M  V30 1275 H 132.001 -6.10958 -4.73234 0
M  V30 1276 H 130.346 -5.49025 -4.26141 0
M  V30 1277 H 133.537 -3.51288 -3.09377 0
M  V30 1278 H 133.71 -5.02624 -4.0899 0
M  V30 1279 N 127.117 1.15442 -1.07289 0
M  V30 1280 C 128.08 2.18358 -0.696591 0
M  V30 1281 C 129.08 1.58637 0.262837 0
M  V30 1282 O 130.27 1.74145 0.0438809 0
M  V30 1283 C 127.402 3.4089 -0.0266151 0
M  V30 1284 H 128.595 2.53162 -1.60776 0
M  V30 1285 H 126.148 1.29893 -0.869342 0
M  V30 1286 H 126.883 3.11653 0.896822 0
M  V30 1287 H 126.668 3.85495 -0.716657 0
M  V30 1288 H 128.158 4.17009 0.222028 0
M  V30 1289 N 128.595 0.856903 1.32268 0
M  V30 1290 C 129.841 0.462069 1.97466 0
M  V30 1291 C 130.174 -0.980298 1.67642 0
M  V30 1292 O 129.449 -1.68824 0.965858 0
M  V30 1293 C 129.732 0.704336 3.53145 0
M  V30 1294 C 129.585 2.19529 3.9259 0
M  V30 1295 C 130.904 0.1622 4.39801 0
M  V30 1296 H 128.023 0.169357 0.717278 0
M  V30 1297 H 130.665 1.07574 1.56614 0
M  V30 1298 H 128.815 0.181999 3.88073 0
M  V30 1299 H 130.487 2.78387 3.67829 0
M  V30 1300 H 128.73 2.67292 3.41668 0
M  V30 1301 H 129.401 2.31549 5.01088 0
M  V30 1302 H 131.877 0.608905 4.11621 0
M  V30 1303 H 130.753 0.361265 5.4771 0
M  V30 1304 H 131.014 -0.935158 4.32096 0
M  V30 1305 N 130.073 -1.45103 0.615059 0
M  V30 1306 C 131.322 -2.01396 0.110718 0
M  V30 1307 C 131.635 -1.48834 -1.26916 0
M  V30 1308 O 132.841 -1.97152 -1.86664 0
M  V30 1309 C 131.297 -3.59599 0.14723 0
M  V30 1310 C 130.905 -4.21158 1.52743 0
M  V30 1311 C 132.649 -4.23428 -0.30148 0
M  V30 1312 C 130.556 -5.71535 1.51992 0
M  V30 1313 H 129.486 -0.753061 0.0376241 0
M  V30 1314 H 132.137 -1.66494 0.77149 0
M  V30 1315 H 130.519 -3.91724 -0.580339 0
M  V30 1316 H 131.693 -4.00594 2.2773 0
M  V30 1317 H 130.008 -3.69552 1.91886 0
M  V30 1318 H 132.605 -5.33703 -0.326392 0
M  V30 1319 H 132.948 -3.94629 -1.32565 0
M  V30 1320 H 133.481 -3.96047 0.373065 0
M  V30 1321 H 130.22 -6.05044 2.52193 0
M  V30 1322 H 129.74 -5.94268 0.81274 0
M  V30 1323 H 131.419 -6.34873 1.24681 0
M  V30 1324 N 131.551 -0.354651 -1.53558 0
M  V30 1325 C 132.461 0.50515 -2.29097 0
M  V30 1326 C 133.477 1.10223 -1.34636 0
M  V30 1327 O 134.653 1.11553 -1.67684 0
M  V30 1328 C 131.718 1.63479 -3.05738 0
M  V30 1329 C 130.779 1.06636 -4.15845 0
M  V30 1330 C 130.012 2.14217 -4.88822 0
M  V30 1331 O 130.235 3.35137 -4.61562 0
M  V30 1332 O 129.169 1.77887 -5.75013 0
M  V30 1333 H 132.995 -0.109237 -3.03503 0
M  V30 1334 H 130.58 -0.119357 -1.48922 0
M  V30 1335 H 132.462 2.2918 -3.5363 0
M  V30 1336 H 131.137 2.23478 -2.34178 0
M  V30 1337 H 130.044 0.373565 -3.7223 0
M  V30 1338 H 131.377 0.511081 -4.89539 0
M  V30 1339 N 133.029 1.57378 -0.0835403 0
M  V30 1340 C 133.959 2.1641 0.87686 0
M  V30 1341 C 134.94 1.09429 1.30228 0
M  V30 1342 O 136.125 1.37516 1.37124 0
M  V30 1343 C 133.255 2.73517 2.14022 0
M  V30 1344 C 132.209 3.85769 1.85381 0
M  V30 1345 C 131.535 4.29529 3.18448 0
M  V30 1346 C 132.835 5.09486 1.14984 0
M  V30 1347 H 134.529 2.96914 0.385059 0
M  V30 1348 H 132.075 1.42823 0.18377 0
M  V30 1349 H 134.028 3.13463 2.81636 0
M  V30 1350 H 132.752 1.90252 2.65465 0
M  V30 1351 H 131.411 3.46345 1.20169 0
M  V30 1352 H 131.059 3.43169 3.67755 0
M  V30 1353 H 130.759 5.05204 3.00071 0
M  V30 1354 H 132.283 4.72099 3.8724 0
M  V30 1355 H 133.697 5.46674 1.72687 0
M  V30 1356 H 132.094 5.90515 1.06826 0
M  V30 1357 H 133.164 4.84724 0.130749 0
M  V30 1358 N 134.507 -0.190092 1.56449 0
M  V30 1359 C 135.455 -1.25501 1.95837 0
M  V30 1360 C 136.449 -1.4685 0.844485 0
M  V30 1361 O 137.655 -1.47651 1.02952 0
M  V30 1362 H 134.03 -0.421447 0.622805 0
M  V30 1363 H 136.001 -0.895821 2.84636 0
M  V30 1364 C 134.75 -2.59124 2.31841 0
M  V30 1365 H 134.073 -2.43514 3.17082 0
M  V30 1366 H 135.513 -3.32371 2.6326 0
M  V30 1367 C 133.972 -3.16488 1.15486 0
M  V30 1368 O 134.502 -3.99365 0.432535 0
M  V30 1369 N 132.708 -2.75305 0.930349 0
M  V30 1370 H 132.255 -2.08013 1.51948 0
M  V30 1371 H 132.213 -3.14024 0.153634 0
M  V30 1372 N 135.985 -1.50799 -0.457987 0
M  V30 1373 C 137.396 -1.55152 -1.0385 0
M  V30 1374 C 137.747 -0.362719 -1.92818 0
M  V30 1375 O 136.872 0.522915 -2.09987 0
M  V30 1376 C 137.467 -2.81173 -1.89017 0
M  V30 1377 C 136.026 -2.88164 -2.42154 0
M  V30 1378 C 135.173 -2.49591 -1.20829 0
M  V30 1379 H 138.124 -1.56874 -0.240068 0
M  V30 1380 H 138.145 -2.63769 -2.74238 0
M  V30 1381 H 137.657 -3.67677 -1.24238 0
M  V30 1382 H 135.758 -2.06042 -3.10447 0
M  V30 1383 H 135.871 -3.91356 -2.76364 0
M  V30 1384 H 134.235 -2.02322 -1.54719 0
M  V30 1385 H 135.018 -3.38418 -0.576927 0
M  V30 1386 N 137.463 0.71206 -1.40597 0
M  V30 1387 C 138.74 1.46536 -1.29563 0
M  V30 1388 C 139.12 2.10931 0.0844217 0
M  V30 1389 O 138.468 2.00418 1.0975 0
M  V30 1390 C 138.678 2.49821 -2.43701 0
M  V30 1391 C 140.026 3.15551 -2.841 0
M  V30 1392 O 141.05 2.60142 -2.4332 0
M  V30 1393 O 139.909 4.15867 -3.54566 0
M  V30 1394 H 137.003 0.651801 -0.509004 0
M  V30 1395 H 139.549 0.743935 -1.52524 0
M  V30 1396 H 138.321 2.00778 -3.35863 0
M  V30 1397 H 137.944 3.29495 -2.22528 0
M  V30 1398 N 138.941 1.26152 0.944643 0
M  V30 1399 C 139.904 1.07474 2.0244 0
M  V30 1400 C 140.904 0.0242064 1.60782 0
M  V30 1401 O 142.094 0.267302 1.72137 0
M  V30 1402 C 139.226 0.633956 3.34953 0
M  V30 1403 H 140.419 2.03336 2.20442 0
M  V30 1404 H 137.972 1.087 1.12312 0
M  V30 1405 H 138.707 -0.326811 3.22649 0
M  V30 1406 H 138.492 1.39247 3.66542 0
M  V30 1407 H 139.982 0.52501 4.14287 0
M  V30 1408 N 140.419 -1.14872 1.07899 0
M  V30 1409 C 141.349 -2.2193 0.725887 0
M  V30 1410 C 142.33 -1.67622 -0.28927 0
M  V30 1411 O 143.515 -1.93533 -0.160787 0
M  V30 1412 C 140.645 -3.47061 0.128856 0
M  V30 1413 C 139.599 -4.14363 1.07178 0
M  V30 1414 C 138.925 -5.33636 0.337229 0
M  V30 1415 C 140.225 -4.63492 2.40775 0
M  V30 1416 H 141.919 -2.51724 1.62097 0
M  V30 1417 H 139.465 -1.20991 0.780838 0
M  V30 1418 H 141.418 -4.21199 -0.130147 0
M  V30 1419 H 140.142 -3.16617 -0.80134 0
M  V30 1420 H 138.801 -3.42173 1.3158 0
M  V30 1421 H 138.449 -4.99449 -0.596606 0
M  V30 1422 H 138.149 -5.79609 0.965788 0
M  V30 1423 H 139.673 -6.10539 0.0861567 0
M  V30 1424 H 141.087 -5.2913 2.20669 0
M  V30 1425 H 139.484 -5.20148 2.99276 0
M  V30 1426 H 140.554 -3.78834 3.02676 0
M  V30 1427 N 141.898 -0.863906 -1.31812 0
M  V30 1428 C 142.845 -0.313303 -2.28664 0
M  V30 1429 C 143.815 0.584868 -1.55462 0
M  V30 1430 O 145 0.517805 -1.83639 0
M  V30 1431 C 142.14 0.48441 -3.41683 0
M  V30 1432 C 141.253 -0.440594 -4.29747 0
M  V30 1433 C 140.388 0.370652 -5.29905 0
M  V30 1434 C 139.427 -0.551164 -6.09613 0
M  V30 1435 N 138.564 0.223462 -7.01744 0
M  V30 1436 H 143.404 -1.14444 -2.75148 0
M  V30 1437 H 140.941 -0.575769 -1.35364 0
M  V30 1438 H 142.899 0.962627 -4.05943 0
M  V30 1439 H 141.529 1.28029 -2.96325 0
M  V30 1440 H 140.581 -1.03724 -3.65986 0
M  V30 1441 H 141.893 -1.14767 -4.85417 0
M  V30 1442 H 141.047 0.911638 -5.99812 0
M  V30 1443 H 139.786 1.11105 -4.74876 0
M  V30 1444 H 138.791 -1.10396 -5.38603 0
M  V30 1445 H 140.016 -1.29032 -6.66729 0
M  V30 1446 H 137.962 0.946787 -6.49132 0
M  V30 1447 H 137.879 -0.424399 -7.54808 0
M  V30 1448 H 139.147 0.745876 -7.75923 0
M  V30 1449 N 143.376 1.44774 -0.622745 0
M  V30 1450 C 144.286 2.34433 0.0886031 0
M  V30 1451 C 145.302 1.52131 0.844529 0
M  V30 1452 O 146.478 1.84886 0.798691 0
M  V30 1453 C 143.543 3.29986 1.0635 0
M  V30 1454 C 142.604 4.28195 0.307873 0
M  V30 1455 C 141.837 5.19183 1.23633 0
M  V30 1456 O 142.06 5.13918 2.47476 0
M  V30 1457 O 140.994 5.97515 0.725189 0
M  V30 1458 H 144.82 2.96693 -0.648599 0
M  V30 1459 H 142.405 1.44408 -0.382957 0
M  V30 1460 H 144.287 3.88825 1.6246 0
M  V30 1461 H 142.962 2.70269 1.78146 0
M  V30 1462 H 141.869 3.72927 -0.296064 0
M  V30 1463 H 143.202 4.90808 -0.3699 0
M  V30 1464 N 144.854 0.36279 1.53368 0
M  V30 1465 C 145.817 -0.472679 2.24273 0
M  V30 1466 C 146.817 -1.012 1.24961 0
M  V30 1467 O 148.007 -0.898194 1.49259 0
M  V30 1468 C 145.139 -1.66039 2.97731 0
M  V30 1469 H 146.332 0.14773 2.99536 0
M  V30 1470 H 143.885 0.114434 1.55881 0
M  V30 1471 H 144.62 -2.31896 2.26704 0
M  V30 1472 H 144.405 -1.28066 3.70596 0
M  V30 1473 H 145.895 -2.25252 3.51641 0
M  V30 1474 N 146.332 -1.57332 0.0918853 0
M  V30 1475 C 147.295 -2.12708 -0.85369 0
M  V30 1476 C 148.295 -1.05561 -1.213 0
M  V30 1477 O 149.485 -1.31461 -1.14296 0
M  V30 1478 C 146.617 -2.64503 -2.15061 0
M  V30 1479 H 147.81 -2.97573 -0.3729 0
M  V30 1480 H 145.363 -1.55509 -0.157072 0
M  V30 1481 H 146.098 -1.83149 -2.67632 0
M  V30 1482 H 145.883 -3.4284 -1.90272 0
M  V30 1483 H 147.373 -3.07351 -2.82711 0
M  V30 1484 N 147.81 0.181792 -1.56548 0
M  V30 1485 C 148.72 1.24538 -1.98815 0
M  V30 1486 C 149.736 1.49045 -0.897861 0
M  V30 1487 O 150.912 1.61399 -1.20467 0
M  V30 1488 C 147.977 2.56683 -2.33055 0
M  V30 1489 C 147.038 2.40131 -3.55859 0
M  V30 1490 C 146.271 3.65975 -3.88456 0
M  V30 1491 O 146.494 4.70711 -3.22161 0
M  V30 1492 O 145.428 3.6071 -4.81842 0
M  V30 1493 H 149.254 0.916647 -2.89536 0
M  V30 1494 H 146.839 0.387842 -1.44278 0
M  V30 1495 H 148.721 3.34655 -2.56094 0
M  V30 1496 H 147.396 2.89157 -1.45498 0
M  V30 1497 H 146.303 1.60226 -3.38051 0
M  V30 1498 H 147.636 2.12585 -4.43924 0
M  V30 1499 N 149.288 1.51039 0.449983 0
M  V30 1500 C 150.704 1.38934 0.785462 0
M  V30 1501 C 150.904 0.461817 1.96136 0
M  V30 1502 O 149.96 -0.0877389 2.52348 0
M  V30 1503 C 151.273 2.80724 1.0777 0
M  V30 1504 C 152.821 2.89787 1.1829 0
M  V30 1505 C 153.296 4.32457 1.50815 0
M  V30 1506 N 154.787 4.35505 1.57764 0
M  V30 1507 C 155.522 5.42914 1.84477 0
M  V30 1508 N 155.018 6.60502 2.09068 0
M  V30 1509 N 156.811 5.3038 1.86155 0
M  V30 1510 H 148.962 2.09904 -0.324647 0
M  V30 1511 H 151.225 0.944378 -0.0827957 0
M  V30 1512 H 150.931 3.50531 0.286498 0
M  V30 1513 H 150.805 3.19273 2.00859 0
M  V30 1514 H 153.192 2.20186 1.96474 0
M  V30 1515 H 153.273 2.54752 0.231314 0
M  V30 1516 H 152.917 5.02603 0.731622 0
M  V30 1517 H 152.847 4.64995 2.47158 0
M  V30 1518 H 155.338 3.50724 1.40715 0
M  V30 1519 H 155.651 7.38158 2.28785 0
M  V30 1520 H 153.996 6.63639 2.06416 0
M  V30 1521 H 157.187 4.37505 1.66454 0
M  V30 1522 H 157.36 6.1417 2.06637 0
M  V30 1523 N 150.766 -0.704594 1.40972 0
M  V30 1524 C 152.043 -1.45847 1.30338 0
M  V30 1525 C 152.423 -2.10973 -0.0732344 0
M  V30 1526 O 151.771 -2.00997 -1.08685 0
M  V30 1527 C 151.981 -2.48525 2.45023 0
M  V30 1528 C 153.329 -3.1404 2.8577 0
M  V30 1529 O 154.353 -2.58848 2.44696 0
M  V30 1530 O 153.212 -4.13981 3.56766 0
M  V30 1531 H 150.306 -0.649092 0.512454 0
M  V30 1532 H 152.852 -0.735836 1.52917 0
M  V30 1533 H 151.624 -1.98994 3.36923 0
M  V30 1534 H 151.247 -3.2831 2.24272 0
M  V30 1535 N 152.244 -1.26651 -0.937939 0
M  V30 1536 C 153.66 -1.03834 -1.21205 0
M  V30 1537 C 153.86 0.234502 -2.00131 0
M  V30 1538 O 152.916 0.942767 -2.3424 0
M  V30 1539 C 154.229 -2.27167 -1.97017 0
M  V30 1540 C 155.777 -2.32101 -2.09996 0
M  V30 1541 C 156.252 -3.55136 -2.8921 0
M  V30 1542 N 157.743 -3.55632 -2.96783 0
M  V30 1543 C 158.478 -4.475 -3.58512 0
M  V30 1544 N 157.974 -5.4966 -4.21717 0
M  V30 1545 N 159.767 -4.35145 -3.55816 0
M  V30 1546 H 151.918 -2.08398 -0.410391 0
M  V30 1547 H 154.181 -0.916031 -0.244114 0
M  V30 1548 H 153.887 -3.19765 -1.46434 0
M  V30 1549 H 153.761 -2.31672 -2.97671 0
M  V30 1550 H 156.148 -1.40015 -2.59769 0
M  V30 1551 H 156.229 -2.31605 -1.08594 0
M  V30 1552 H 155.873 -4.47553 -2.40123 0
M  V30 1553 H 155.803 -3.5288 -3.90875 0
M  V30 1554 H 158.294 -2.81743 -2.51852 0
M  V30 1555 H 158.607 -6.15943 -4.66727 0
M  V30 1556 H 156.952 -5.53514 -4.20294 0
M  V30 1557 H 160.143 -3.5455 -3.05634 0
M  V30 1558 H 160.316 -5.06934 -4.03636 0
M  V30 1559 N 153.722 1.14298 -1.08507 0
M  V30 1560 C 154.632 2.23027 -0.727753 0
M  V30 1561 C 155.648 1.71952 0.26619 0
M  V30 1562 O 156.824 2.011 0.109882 0
M  V30 1563 C 153.889 3.46403 -0.143541 0
M  V30 1564 C 152.95 4.12413 -1.19223 0
M  V30 1565 C 152.183 5.29899 -0.635798 0
M  V30 1566 O 152.406 5.67796 0.544393 0
M  V30 1567 O 151.34 5.85717 -1.38634 0
M  V30 1568 H 155.166 2.55945 -1.63481 0
M  V30 1569 H 152.751 1.22248 -0.858817 0
M  V30 1570 H 154.633 4.21018 0.179404 0
M  V30 1571 H 153.308 3.15206 0.736659 0
M  V30 1572 H 152.215 3.39667 -1.56772 0
M  V30 1573 H 153.548 4.47718 -2.04474 0
M  V30 1574 N 155.201 0.870884 1.31352 0
M  V30 1575 C 156.617 0.562932 1.49343 0
M  V30 1576 C 156.817 -0.902725 1.80148 0
M  V30 1577 O 155.873 -1.68484 1.88067 0
M  V30 1578 C 157.186 1.46393 2.62659 0
M  V30 1579 C 158.734 1.46607 2.76542 0
M  V30 1580 C 159.209 2.35266 3.92955 0
M  V30 1581 N 160.7 2.33151 4.00243 0
M  V30 1582 C 161.435 2.98471 4.89594 0
M  V30 1583 N 160.931 3.72964 5.8384 0
M  V30 1584 N 162.724 2.87775 4.82848 0
M  V30 1585 H 154.875 1.81923 1.09626 0
M  V30 1586 H 157.138 0.777934 0.541777 0
M  V30 1587 H 156.844 2.50689 2.46674 0
M  V30 1588 H 156.718 1.16314 3.58819 0
M  V30 1589 H 159.105 0.43069 2.9194 0
M  V30 1590 H 159.186 1.8071 1.81046 0
M  V30 1591 H 158.83 3.38881 3.78315 0
M  V30 1592 H 158.76 1.98487 4.87761 0
M  V30 1593 H 161.251 1.79006 3.32814 0
M  V30 1594 H 161.564 4.19932 6.4875 0
M  V30 1595 H 159.909 3.77073 5.83816 0
M  V30 1596 H 163.1 2.29116 4.08195 0
M  V30 1597 H 163.273 3.38961 5.52277 0
M  V30 1598 N 156.679 -1.44442 0.630414 0
M  V30 1599 C 158.095 -1.56832 0.295973 0
M  V30 1600 C 158.295 -1.61806 -1.20088 0
M  V30 1601 O 157.351 -1.5607 -1.9849 0
M  V30 1602 C 158.664 -2.84031 0.987264 0
M  V30 1603 C 160.212 -2.97742 0.96534 0
M  V30 1604 C 160.687 -4.27743 1.63708 0
M  V30 1605 N 162.178 -4.34555 1.60364 0
M  V30 1606 C 162.913 -5.33862 2.09234 0
M  V30 1607 N 162.409 -6.39578 2.66292 0
M  V30 1608 N 164.202 -5.25366 1.99867 0
M  V30 1609 H 156.353 -1.39457 1.60205 0
M  V30 1610 H 158.616 -0.668237 0.672431 0
M  V30 1611 H 158.322 -2.86338 2.04215 0
M  V30 1612 H 158.196 -3.73534 0.524588 0
M  V30 1613 H 160.583 -2.94989 -0.0810639 0
M  V30 1614 H 160.664 -2.09589 1.4665 0
M  V30 1615 H 160.308 -4.31255 2.68293 0
M  V30 1616 H 160.238 -5.14752 1.11076 0
M  V30 1617 H 162.729 -3.58772 1.18705 0
M  V30 1618 H 163.042 -7.11637 3.01317 0
M  V30 1619 H 161.387 -6.40265 2.70343 0
M  V30 1620 H 164.578 -4.41688 1.55013 0
M  V30 1621 H 164.751 -6.02606 2.38265 0
M  V30 1622 N 158.157 -0.370918 -1.53173 0
M  V30 1623 C 159.434 0.273754 -1.93675 0
M  V30 1624 C 159.814 1.65938 -1.3049 0
M  V30 1625 O 159.162 2.23698 -0.465999 0
M  V30 1626 C 159.372 0.318602 -3.47543 0
M  V30 1627 C 160.72 0.556392 -4.20939 0
M  V30 1628 O 161.744 0.399587 -3.53952 0
M  V30 1629 O 160.603 0.862133 -5.39657 0
M  V30 1630 H 157.697 0.165448 -0.810281 0
M  V30 1631 H 160.243 -0.42409 -1.64315 0
M  V30 1632 H 159.015 -0.652687 -3.85818 0
M  V30 1633 H 158.638 1.06212 -3.83151 0
M  V30 1634 N 159.635 1.57281 -0.100228 0
M  V30 1635 C 160.883 1.94153 0.561157 0
M  V30 1636 C 161.204 0.983157 1.68401 0
M  V30 1637 O 160.474 0.0361132 1.95867 0
M  V30 1638 H 159.054 0.716791 0.210283 0
M  V30 1639 H 161.716 1.94202 -0.164765 0
M  V30 1640 H 160.812 2.96709 0.968008 0
M  V30 1641 N 161.113 -0.173488 1.56642 0
M  V30 1642 C 162.529 -0.525174 1.50712 0
M  V30 1643 C 162.729 -1.8476 0.804107 0
M  V30 1644 O 161.785 -2.49869 0.363574 0
M  V30 1645 C 163.098 -0.559937 2.95441 0
M  V30 1646 C 164.646 -0.647288 3.06234 0
M  V30 1647 C 165.121 -0.712963 4.52417 0
M  V30 1648 N 166.612 -0.775911 4.56655 0
M  V30 1649 C 167.347 -0.847264 5.67106 0
M  V30 1650 N 166.843 -0.879585 6.87194 0
M  V30 1651 N 168.636 -0.886117 5.55071 0
M  V30 1652 H 160.787 0.693681 2.00753 0
M  V30 1653 H 163.05 0.249841 0.914485 0
M  V30 1654 H 162.756 0.343049 3.50023 0
M  V30 1655 H 162.63 -1.40718 3.49969 0
M  V30 1656 H 165.017 -1.5407 2.51687 0
M  V30 1657 H 165.098 0.226586 2.54794 0
M  V30 1658 H 164.742 0.176183 5.07594 0
M  V30 1659 H 164.672 -1.60295 5.0161 0
M  V30 1660 H 167.163 -0.759304 3.70193 0
M  V30 1661 H 167.476 -0.935144 7.67121 0
M  V30 1662 H 165.821 -0.847898 6.89808 0
M  V30 1663 H 169.012 -0.857853 4.60172 0
M  V30 1664 H 169.185 -0.938263 6.41171 0
M  V30 1665 N 162.591 -1.51276 -0.441967 0
M  V30 1666 C 163.521 -1.752 -1.54361 0
M  V30 1667 C 164.502 -0.601682 -1.59103 0
M  V30 1668 O 165.687 -0.843913 -1.74905 0
M  V30 1669 C 162.817 -1.87282 -2.92477 0
M  V30 1670 C 161.771 -3.02687 -3.02596 0
M  V30 1671 C 161.097 -2.99947 -4.42647 0
M  V30 1672 C 162.397 -4.4273 -2.77106 0
M  V30 1673 H 164.091 -2.67442 -1.34592 0
M  V30 1674 H 161.637 -1.28694 -0.646048 0
M  V30 1675 H 163.59 -2.02602 -3.695 0
M  V30 1676 H 162.314 -0.916844 -3.13467 0
M  V30 1677 H 160.973 -2.87065 -2.28012 0
M  V30 1678 H 160.621 -2.02136 -4.60597 0
M  V30 1679 H 160.321 -3.77439 -4.50348 0
M  V30 1680 H 161.845 -3.17354 -5.2165 0
M  V30 1681 H 163.259 -4.58727 -3.43864 0
M  V30 1682 H 161.656 -5.21893 -2.96222 0
M  V30 1683 H 162.726 -4.53087 -1.72744 0
M  V30 1684 N 164.069 0.697108 -1.41344 0
M  V30 1685 C 165.485 1.00751 -1.2378 0
M  V30 1686 C 165.685 2.01105 -0.126066 0
M  V30 1687 O 164.741 2.47295 0.51004 0
M  V30 1688 C 166.054 1.53359 -2.58653 0
M  V30 1689 C 167.602 1.6525 -2.65822 0
M  V30 1690 C 168.077 2.2126 -4.01009 0
M  V30 1691 N 169.568 2.28622 -4.02847 0
M  V30 1692 C 170.303 2.72984 -5.04249 0
M  V30 1693 N 169.799 3.16962 -6.16041 0
M  V30 1694 N 171.592 2.72534 -4.91611 0
M  V30 1695 H 163.743 0.0322662 -2.12375 0
M  V30 1696 H 166.006 0.0768853 -0.944877 0
M  V30 1697 H 165.712 0.870773 -3.4075 0
M  V30 1698 H 165.586 2.51597 -2.81032 0
M  V30 1699 H 167.973 2.30644 -1.84086 0
M  V30 1700 H 168.054 0.655614 -2.47256 0
M  V30 1701 H 167.698 1.56482 -4.83193 0
M  V30 1702 H 167.628 3.21698 -4.16915 0
M  V30 1703 H 170.119 1.97585 -3.22131 0
M  V30 1704 H 170.432 3.49434 -6.89287 0
M  V30 1705 H 168.777 3.14875 -6.1958 0
M  V30 1706 H 171.968 2.37525 -4.0336 0
M  V30 1707 H 172.141 3.06789 -5.70775 0
M  V30 1708 N 165.547 1.27147 0.931209 0
M  V30 1709 C 166.795 1.13055 1.6752 0
M  V30 1710 C 167.116 -0.324791 1.92276 0
M  V30 1711 O 166.386 -1.22775 1.52654 0
M  V30 1712 H 164.966 0.415391 0.620854 0
M  V30 1713 H 167.628 1.59623 1.11833 0
M  V30 1714 H 166.724 1.65694 2.64485 0
M  V30 1715 N 167.025 -1.13721 1.09112 0
M  V30 1716 C 168.436 -1.6648 0.845068 0
M  V30 1717 C 168.787 -1.85911 -0.62701 0
M  V30 1718 O 167.912 -1.57556 -1.48341 0
M  V30 1719 C 168.507 -3.02413 1.52748 0
M  V30 1720 C 167.066 -3.52176 1.32849 0
M  V30 1721 C 166.213 -2.27492 1.58564 0
M  V30 1722 H 169.164 -0.976872 1.25072 0
M  V30 1723 H 169.185 -3.68223 0.958752 0
M  V30 1724 H 168.697 -2.88238 2.59885 0
M  V30 1725 H 166.798 -3.7156 0.278137 0
M  V30 1726 H 166.911 -4.32499 2.0611 0
M  V30 1727 H 165.275 -2.33923 1.00758 0
M  V30 1728 H 166.058 -2.15886 2.66924 0
M  V30 1729 N 168.503 -0.877838 -1.30888 0
M  V30 1730 C 169.433 -0.35534 -2.3078 0
M  V30 1731 C 170.414 0.557994 -1.60687 0
M  V30 1732 O 171.599 0.473355 -1.88343 0
M  V30 1733 C 168.729 0.437221 -3.44537 0
M  V30 1734 C 167.683 -0.383715 -4.26276 0
M  V30 1735 C 167.009 0.535014 -5.32017 0
M  V30 1736 C 168.309 -1.62201 -4.96476 0
M  V30 1737 H 170.003 -1.19007 -2.74732 0
M  V30 1738 H 167.549 -0.573698 -1.32078 0
M  V30 1739 H 169.502 0.813334 -4.13477 0
M  V30 1740 H 168.226 1.30553 -2.99372 0
M  V30 1741 H 166.885 -0.741874 -3.59015 0
M  V30 1742 H 166.533 1.40083 -4.831 0
M  V30 1743 H 166.233 -0.0104211 -5.87599 0
M  V30 1744 H 167.757 0.907799 -6.03814 0
M  V30 1745 H 169.171 -1.31689 -5.5797 0
M  V30 1746 H 167.568 -2.10711 -5.61891 0
M  V30 1747 H 168.638 -2.37044 -4.23011 0
M  V30 1748 N 169.982 1.44106 -0.638065 0
M  V30 1749 C 170.932 2.27843 0.0847285 0
M  V30 1750 C 171.916 1.39055 0.809471 0
M  V30 1751 O 173.108 1.62808 0.694435 0
M  V30 1752 C 170.237 3.26497 1.06089 0
M  V30 1753 C 169.323 4.22772 0.33541 0
M  V30 1754 N 169.714 5.01737 -0.639787 0
M  V30 1755 C 168.012 4.42227 0.578921 0
M  V30 1756 C 168.713 5.71792 -1.06904 0
M  V30 1757 N 167.689 5.42079 -0.406395 0
M  V30 1758 H 171.491 2.86305 -0.663814 0
M  V30 1759 H 169.005 1.55627 -0.464122 0
M  V30 1760 H 171.002 3.8525 1.59337 0
M  V30 1761 H 169.662 2.69595 1.80966 0
M  V30 1762 H 170.673 5.07799 -1.01789 0
M  V30 1763 H 167.35 3.96415 1.31003 0
M  V30 1764 H 168.74 6.45205 -1.8751 0
M  V30 1765 N 171.46 0.379036 1.52974 0
M  V30 1766 C 172.708 -0.206014 2.01047 0
M  V30 1767 C 173.029 -1.48175 1.26765 0
M  V30 1768 O 172.299 -1.92085 0.384743 0
M  V30 1769 H 170.879 -0.0791184 0.742798 0
M  V30 1770 H 173.541 0.508366 1.88153 0
M  V30 1771 H 172.637 -0.423501 3.09213 0
M  V30 1772 N 172.938 -1.57226 0.108567 0
M  V30 1773 C 174.187 -1.94008 -0.551703 0
M  V30 1774 C 174.5 -0.993442 -1.68494 0
M  V30 1775 O 175.706 -1.25551 -2.40726 0
M  V30 1776 C 174.162 -3.44763 -1.03279 0
M  V30 1777 C 173.77 -4.47943 0.0714193 0
M  V30 1778 C 175.514 -3.90483 -1.66503 0
M  V30 1779 C 173.421 -5.89865 -0.425779 0
M  V30 1780 H 172.351 -0.724206 -0.209863 0
M  V30 1781 H 175.002 -1.82547 0.186741 0
M  V30 1782 H 173.384 -3.51422 -1.82533 0
M  V30 1783 H 174.558 -4.52942 0.847365 0
M  V30 1784 H 172.873 -4.11913 0.609669 0
M  V30 1785 H 175.47 -4.93925 -2.04798 0
M  V30 1786 H 175.813 -3.29877 -2.53942 0
M  V30 1787 H 176.346 -3.86581 -0.938074 0
M  V30 1788 H 173.085 -6.54202 0.412316 0
M  V30 1789 H 172.605 -5.88309 -1.16843 0
M  V30 1790 H 174.284 -6.40844 -0.890397 0
M  V30 1791 N 174.416 0.165178 -1.56732 0
M  V30 1792 C 175.827 0.727046 -1.71962 0
M  V30 1793 C 176.178 1.82508 -0.720078 0
M  V30 1794 O 175.303 2.16082 0.117242 0
M  V30 1795 C 175.898 1.32559 -3.11791 0
M  V30 1796 C 174.457 1.83422 -3.28684 0
M  V30 1797 C 173.604 0.715567 -2.67908 0
M  V30 1798 H 176.555 -0.0602896 -1.58585 0
M  V30 1799 H 176.576 2.19533 -3.10782 0
M  V30 1800 H 176.088 0.526195 -3.84516 0
M  V30 1801 H 174.189 2.65986 -2.60926 0
M  V30 1802 H 174.302 1.97543 -4.36478 0
M  V30 1803 H 172.666 1.13758 -2.27884 0
M  V30 1804 H 173.449 -0.0720836 -3.43224 0
M  V30 1805 N 175.894 1.51508 0.433938 0
M  V30 1806 C 176.824 1.76016 1.53429 0
M  V30 1807 C 177.805 0.610112 1.58782 0
M  V30 1808 O 178.99 0.853177 1.74455 0
M  V30 1809 C 176.12 1.88831 2.9148 0
M  V30 1810 C 175.074 3.04288 3.00987 0
M  V30 1811 C 174.4 3.0229 4.4105 0
M  V30 1812 C 175.7 4.44193 2.74754 0
M  V30 1813 H 177.394 2.68152 1.33171 0
M  V30 1814 H 174.94 1.29035 0.639214 0
M  V30 1815 H 176.893 2.04559 3.6842 0
M  V30 1816 H 175.617 0.933455 3.12976 0
M  V30 1817 H 174.276 2.8827 2.26486 0
M  V30 1818 H 173.924 2.04576 4.59519 0
M  V30 1819 H 173.624 3.79822 4.4834 0
M  V30 1820 H 175.148 3.20116 5.1996 0
M  V30 1821 H 176.562 4.60544 3.41426 0
M  V30 1822 H 174.959 5.23457 2.9345 0
M  V30 1823 H 176.029 4.53996 1.70339 0
M  V30 1824 N 177.372 -0.689602 1.41712 0
M  V30 1825 C 178.302 -1.81577 1.46806 0
M  V30 1826 C 179.283 -1.66945 0.326105 0
M  V30 1827 O 180.468 -1.86588 0.538377 0
M  V30 1828 C 177.598 -3.19762 1.35535 0
M  V30 1829 C 176.552 -3.49107 2.47605 0
M  V30 1830 C 175.878 -4.86711 2.21397 0
M  V30 1831 C 177.178 -3.47483 3.89939 0
M  V30 1832 H 178.872 -1.7757 2.41058 0
M  V30 1833 H 176.418 -0.852887 1.16025 0
M  V30 1834 H 178.371 -3.98263 1.3771 0
M  V30 1835 H 177.095 -3.24409 0.377708 0
M  V30 1836 H 175.754 -2.72959 2.44722 0
M  V30 1837 H 175.402 -4.8799 1.21961 0
M  V30 1838 H 175.102 -5.0731 2.96497 0
M  V30 1839 H 176.626 -5.67515 2.25297 0
M  V30 1840 H 178.04 -4.1598 3.94505 0
M  V30 1841 H 176.437 -3.79615 4.64771 0
M  V30 1842 H 177.507 -2.46341 4.17665 0
M  V30 1843 N 178.85 -1.27639 -0.924453 0
M  V30 1844 C 179.78 -1.13166 -2.04244 0
M  V30 1845 C 180.761 -0.032256 -1.70069 0
M  V30 1846 O 181.946 -0.207328 -1.9309 0
M  V30 1847 C 179.076 -0.781496 -3.38393 0
M  V30 1848 C 178.03 -1.83449 -3.86692 0
M  V30 1849 C 177.356 -1.33822 -5.17683 0
M  V30 1850 C 178.656 -3.23917 -4.09726 0
M  V30 1851 H 180.35 -2.06689 -2.1661 0
M  V30 1852 H 177.896 -0.995136 -1.04082 0
M  V30 1853 H 179.849 -0.667057 -4.16087 0
M  V30 1854 H 178.573 0.189439 -3.2605 0
M  V30 1855 H 177.232 -1.93789 -3.11193 0
M  V30 1856 H 176.88 -0.35665 -5.01734 0
M  V30 1857 H 176.58 -2.04224 -5.50968 0
M  V30 1858 H 178.104 -1.23679 -5.97943 0
M  V30 1859 H 179.518 -3.16559 -4.77978 0
M  V30 1860 H 177.915 -3.92059 -4.54324 0
M  V30 1861 H 178.985 -3.68729 -3.14908 0
M  V30 1862 N 180.328 1.1314 -1.09713 0
M  V30 1863 C 181.275 2.18642 -0.739196 0
M  V30 1864 C 182.245 1.63706 0.280978 0
M  V30 1865 O 183.43 1.90111 0.161946 0
M  V30 1866 C 180.57 3.44685 -0.169102 0
M  V30 1867 C 179.683 4.13711 -1.24367 0
M  V30 1868 C 178.818 5.27379 -0.636019 0
M  V30 1869 C 177.857 5.88259 -1.69169 0
M  V30 1870 N 176.994 6.93352 -1.10485 0
M  V30 1871 H 181.834 2.48607 -1.64312 0
M  V30 1872 H 179.371 1.22066 -0.820875 0
M  V30 1873 H 181.329 4.16815 0.179256 0
M  V30 1874 H 179.959 3.15161 0.698079 0
M  V30 1875 H 179.011 3.39835 -1.70927 0
M  V30 1876 H 180.323 4.55037 -2.04311 0
M  V30 1877 H 179.477 6.06238 -0.236677 0
M  V30 1878 H 178.216 4.8731 0.194928 0
M  V30 1879 H 177.221 5.08092 -2.10055 0
M  V30 1880 H 178.446 6.30399 -2.52536 0
M  V30 1881 H 176.392 6.55335 -0.295234 0
M  V30 1882 H 176.309 7.33236 -1.84121 0
M  V30 1883 H 177.577 7.76057 -0.73181 0
M  V30 1884 N 181.806 0.884767 1.30421 0
M  V30 1885 C 183.083 0.423185 1.90967 0
M  V30 1886 C 183.463 -1.09605 1.80416 0
M  V30 1887 O 182.811 -1.93126 1.22125 0
M  V30 1888 C 183.021 0.921056 3.36627 0
M  V30 1889 C 184.369 0.955903 4.137 0
M  V30 1890 O 185.393 0.867706 3.4547 0
M  V30 1891 O 184.252 1.08614 5.35598 0
M  V30 1892 H 181.346 0.129369 0.816819 0
M  V30 1893 H 183.892 0.973653 1.3899 0
M  V30 1894 H 182.664 1.96489 3.3839 0
M  V30 1895 H 182.287 0.349741 3.96059 0
M  V30 1896 N 183.284 -1.43765 0.645699 0
M  V30 1897 C 184.232 -2.32516 -0.0624849 0
M  V30 1898 C 185.226 -1.48183 -0.820855 0
M  V30 1899 O 186.432 -1.64439 -0.732106 0
M  V30 1900 H 182.807 -0.750989 -0.0389864 0
M  V30 1901 H 184.778 -2.89979 0.703892 0
M  V30 1902 C 183.527 -3.32389 -1.02044 0
M  V30 1903 H 182.85 -3.97301 -0.446312 0
M  V30 1904 H 184.29 -3.97138 -1.48517 0
M  V30 1905 C 182.749 -2.62416 -2.11281 0
M  V30 1906 O 183.279 -2.434 -3.19561 0
M  V30 1907 N 181.485 -2.21913 -1.87624 0
M  V30 1908 H 181.032 -2.37578 -0.995703 0
M  V30 1909 H 180.99 -1.75424 -2.6091 0
M  V30 1910 N 184.763 -0.387143 -1.52771 0
M  V30 1911 C 186.012 0.19697 -2.00736 0
M  V30 1912 C 186.325 1.48082 -1.27793 0
M  V30 1913 O 187.531 2.14485 -1.66458 0
M  V30 1914 C 185.987 0.401568 -3.57653 0
M  V30 1915 C 185.595 -0.868907 -4.39493 0
M  V30 1916 C 187.339 0.942164 -4.13912 0
M  V30 1917 C 185.246 -0.632705 -5.88006 0
M  V30 1918 H 184.176 0.0773827 -0.750019 0
M  V30 1919 H 186.827 -0.50921 -1.76293 0
M  V30 1920 H 185.209 1.16954 -3.78335 0
M  V30 1921 H 186.383 -1.64133 -4.30577 0
M  V30 1922 H 184.698 -1.33429 -3.94443 0
M  V30 1923 H 187.295 1.13455 -5.22525 0
M  V30 1924 H 187.638 1.9106 -3.69867 0
M  V30 1925 H 188.171 0.233814 -3.97112 0
M  V30 1926 H 184.91 -1.57208 -6.36369 0
M  V30 1927 H 184.43 0.100825 -5.99715 0
M  V30 1928 H 186.109 -0.26642 -6.46451 0
M  V30 1929 N 186.241 1.57166 -0.116904 0
M  V30 1930 C 187.189 2.16457 0.851418 0
M  V30 1931 C 188.183 1.11323 1.27686 0
M  V30 1932 O 189.389 1.2963 1.24884 0
M  V30 1933 H 185.764 0.69271 0.292672 0
M  V30 1934 H 187.735 2.96605 0.32685 0
M  V30 1935 C 186.484 2.77689 2.09246 0
M  V30 1936 H 185.807 3.58285 1.77402 0
M  V30 1937 H 187.247 3.22716 2.7501 0
M  V30 1938 C 185.706 1.74667 2.88085 0
M  V30 1939 O 186.236 1.19877 3.83396 0
M  V30 1940 N 184.442 1.44656 2.52038 0
M  V30 1941 H 183.989 1.89402 1.74599 0
M  V30 1942 H 183.947 0.759675 3.05084 0
M  V30 1943 N 187.719 -0.156864 1.56817 0
M  V30 1944 C 188.682 -1.17781 1.96622 0
M  V30 1945 C 189.682 -1.36401 0.851555 0
M  V30 1946 O 190.872 -1.33561 1.11836 0
M  V30 1947 C 188.004 -2.54008 2.27361 0
M  V30 1948 H 189.197 -0.836564 2.87996 0
M  V30 1949 H 186.75 -0.39985 1.51099 0
M  V30 1950 H 187.485 -2.9312 1.38748 0
M  V30 1951 H 187.27 -2.41856 3.08623 0
M  V30 1952 H 188.76 -3.27558 2.59029 0
M  V30 1953 N 189.197 -1.51736 -0.425897 0
M  V30 1954 C 190.16 -1.73271 -1.50032 0
M  V30 1955 C 191.16 -0.602639 -1.4908 0
M  V30 1956 O 192.35 -0.87033 -1.509 0
M  V30 1957 C 189.482 -1.79969 -2.89523 0
M  V30 1958 H 190.675 -2.69172 -1.32237 0
M  V30 1959 H 188.228 -1.41899 -0.65532 0
M  V30 1960 H 188.963 -0.859241 -3.1271 0
M  V30 1961 H 188.748 -2.62109 -2.91619 0
M  V30 1962 H 190.238 -1.9843 -3.67444 0
M  V30 1963 N 190.675 0.682077 -1.42076 0
M  V30 1964 C 192.086 1.26246 -1.37546 0
M  V30 1965 C 192.437 1.96092 -0.0651481 0
M  V30 1966 O 191.562 1.99587 0.836297 0
M  V30 1967 C 192.157 2.29594 -2.49143 0
M  V30 1968 C 190.716 2.83175 -2.47969 0
M  V30 1969 C 189.863 1.57395 -2.28303 0
M  V30 1970 H 192.814 0.475937 -1.51395 0
M  V30 1971 H 192.835 3.11175 -2.18976 0
M  V30 1972 H 192.347 1.78729 -3.44496 0
M  V30 1973 H 190.448 3.3818 -1.56413 0
M  V30 1974 H 190.561 3.32687 -3.44755 0
M  V30 1975 H 188.925 1.83699 -1.76428 0
M  V30 1976 H 189.708 1.08507 -3.25701 0
M  V30 1977 N 192.153 1.28127 0.917671 0
M  V30 1978 C 193.086 1.06039 2.02067 0
M  V30 1979 C 194.064 -0.0223285 1.62585 0
M  V30 1980 O 195.248 0.124823 1.88086 0
M  V30 1981 C 192.375 0.610596 3.33151 0
M  V30 1982 C 191.421 1.68937 3.91615 0
M  V30 1983 S 192.254 3.28437 4.22953 0
M  V30 1984 C 193.41 2.85283 5.57103 0
M  V30 1985 H 193.643 1.99425 2.20493 0
M  V30 1986 H 191.176 1.12071 1.06205 0
M  V30 1987 H 193.134 0.357778 4.08938 0
M  V30 1988 H 191.795 -0.303364 3.12632 0
M  V30 1989 H 190.988 1.32619 4.86239 0
M  V30 1990 H 190.59 1.89478 3.2245 0
M  V30 1991 H 192.882 2.3121 6.36827 0
M  V30 1992 H 193.825 3.7869 5.98331 0
M  V30 1993 H 194.233 2.24118 5.18104 0
M  V30 1994 N 193.631 -1.12557 1.10312 0
M  V30 1995 C 194.594 -2.16434 0.75424 0
M  V30 1996 C 195.594 -1.59278 -0.220685 0
M  V30 1997 O 196.784 -1.742 0.00230591 0
M  V30 1998 C 193.916 -3.40699 0.116987 0
M  V30 1999 H 195.109 -2.48811 1.67431 0
M  V30 2000 H 192.662 -1.27542 0.903475 0
M  V30 2001 H 193.397 -3.13921 -0.813877 0
M  V30 2002 H 193.182 -3.83459 0.818613 0
M  V30 2003 H 194.672 -4.17451 -0.111387 0
M  V30 2004 N 195.109 -0.891671 -1.2995 0
M  V30 2005 C 196.337 -0.52866 -2.00032 0
M  V30 2006 C 196.752 0.884574 -1.66795 0
M  V30 2007 O 196.109 1.5827 -0.908669 0
M  V30 2008 C 196.16 -0.701814 -3.54622 0
M  V30 2009 O 195.881 -2.05942 -3.86678 0
M  V30 2010 C 197.382 -0.342683 -4.41973 0
M  V30 2011 H 194.602 -0.203659 -0.639347 0
M  V30 2012 H 197.146 -1.19881 -1.65677 0
M  V30 2013 H 195.301 -0.0789468 -3.8732 0
M  V30 2014 H 195.715 -2.08291 -4.81368 0
M  V30 2015 H 197.189 -0.514709 -5.49595 0
M  V30 2016 H 197.666 0.71975 -4.33262 0
M  V30 2017 H 198.272 -0.942154 -4.14733 0
M  V30 2018 N 196.587 1.43421 -0.653314 0
M  V30 2019 C 197.812 2.06678 -0.172846 0
M  V30 2020 C 198.237 1.48648 1.15262 0
M  V30 2021 O 197.595 0.596457 1.71208 0
M  V30 2022 C 197.643 3.60474 -0.0953184 0
M  V30 2023 O 196.747 4.01487 0.942442 0
M  V30 2024 H 196.088 0.657181 -0.0949155 0
M  V30 2025 H 198.618 1.83925 -0.896265 0
M  V30 2026 H 198.628 4.07905 0.0879728 0
M  V30 2027 H 197.303 4.02088 -1.06291 0
M  V30 2028 H 195.88 3.65646 0.731932 0
M  V30 2029 N 198.065 0.39524 1.52563 0
M  V30 2030 C 199.028 -0.425001 2.25225 0
M  V30 2031 C 200.028 -0.985266 1.27079 0
M  V30 2032 O 201.218 -0.866332 1.5113 0
M  V30 2033 C 198.35 -1.59686 3.01186 0
M  V30 2034 H 199.543 0.211233 2.99155 0
M  V30 2035 H 197.096 0.147472 1.55603 0
M  V30 2036 H 197.831 -2.27035 2.31572 0
M  V30 2037 H 197.616 -1.20176 3.73229 0
M  V30 2038 H 199.106 -2.17743 3.5634 0
M  V30 2039 N 199.544 -1.57102 0.125237 0
M  V30 2040 C 200.792 -1.95021 -0.530198 0
M  V30 2041 C 201.113 -1.00982 -1.66816 0
M  V30 2042 O 200.383 -0.0672693 -1.95784 0
M  V30 2043 H 198.963 -0.720046 -0.198853 0
M  V30 2044 H 201.625 -1.93916 0.19564 0
M  V30 2045 H 200.721 -2.98211 -0.920681 0
M  V30 2046 N 201.022 0.148545 -1.56898 0
M  V30 2047 C 202.247 0.880385 -1.87787 0
M  V30 2048 C 202.672 1.74018 -0.714093 0
M  V30 2049 O 202.03 1.78153 0.336343 0
M  V30 2050 C 202.078 1.71422 -3.17249 0
M  V30 2051 O 201.182 2.8183 -3.01074 0
M  V30 2052 H 200.523 0.245301 -0.617028 0
M  V30 2053 H 203.053 0.139826 -2.04122 0
M  V30 2054 H 203.063 2.10954 -3.49231 0
M  V30 2055 H 201.738 1.08284 -4.01556 0
M  V30 2056 H 200.315 2.45715 -2.80497 0
M  V30 2057 N 202.5 1.5196 0.417844 0
M  V30 2058 C 203.43 1.77634 1.51554 0
M  V30 2059 C 204.411 0.626918 1.58126 0
M  V30 2060 O 205.596 0.871632 1.7354 0
M  V30 2061 C 202.726 1.91911 2.8946 0
M  V30 2062 C 201.68 3.07463 2.97743 0
M  V30 2063 C 201.006 3.06951 4.37819 0
M  V30 2064 C 202.306 4.47082 2.70027 0
M  V30 2065 H 204 2.6955 1.3032 0
M  V30 2066 H 201.546 1.29706 0.625492 0
M  V30 2067 H 203.499 2.08455 3.6623 0
M  V30 2068 H 202.223 0.966598 3.11969 0
M  V30 2069 H 200.882 2.90656 2.23416 0
M  V30 2070 H 200.53 2.09438 4.57323 0
M  V30 2071 H 200.23 3.84556 4.44286 0
M  V30 2072 H 201.754 3.25613 5.16535 0
M  V30 2073 H 203.168 4.6414 3.36522 0
M  V30 2074 H 201.565 5.2654 2.87881 0
M  V30 2075 H 202.635 4.55777 1.65514 0
M  V30 2076 N 203.978 -0.674533 1.42435 0
M  V30 2077 C 204.941 -1.76986 1.45632 0
M  V30 2078 C 205.941 -1.5708 0.343871 0
M  V30 2079 O 207.131 -1.63367 0.604709 0
M  V30 2080 C 204.263 -3.15623 1.28822 0
M  V30 2081 H 205.456 -1.75539 2.43158 0
M  V30 2082 H 203.009 -0.884189 1.28887 0
M  V30 2083 H 203.744 -3.22696 0.322193 0
M  V30 2084 H 203.529 -3.31475 2.09444 0
M  V30 2085 H 205.019 -3.95537 1.33942 0
M  V30 2086 N 205.456 -1.28612 -0.910864 0
M  V30 2087 C 206.386 -1.15326 -2.03032 0
M  V30 2088 C 207.367 -0.0502924 -1.70026 0
M  V30 2089 O 208.552 -0.227797 -1.92859 0
M  V30 2090 C 205.682 -0.817343 -3.37545 0
M  V30 2091 C 204.636 -1.8754 -3.84724 0
M  V30 2092 C 203.962 -1.39305 -5.16235 0
M  V30 2093 C 205.262 -3.28244 -4.06267 0
M  V30 2094 H 206.956 -2.08975 -2.14406 0
M  V30 2095 H 204.502 -1.00612 -1.03021 0
M  V30 2096 H 206.455 -0.711151 -4.15356 0
M  V30 2097 H 205.179 0.154846 -3.26233 0
M  V30 2098 H 203.838 -1.97079 -3.09121 0
M  V30 2099 H 203.486 -0.409846 -5.01328 0
M  V30 2100 H 203.186 -2.10057 -5.48771 0
M  V30 2101 H 204.71 -1.30014 -5.96598 0
M  V30 2102 H 206.124 -3.21611 -4.74594 0
M  V30 2103 H 204.521 -3.96855 -4.5014 0
M  V30 2104 H 205.591 -3.72048 -3.10979 0
M  V30 2105 N 206.934 1.1197 -1.10907 0
M  V30 2106 C 207.866 2.17592 -0.720175 0
M  V30 2107 C 208.879 1.60938 0.245495 0
M  V30 2108 O 210.068 1.78476 0.0292245 0
M  V30 2109 C 207.168 3.38873 -0.0427917 0
M  V30 2110 C 206.341 4.25006 -1.03388 0
M  V30 2111 C 205.4 5.24774 -0.387075 0
M  V30 2112 O 204.426 5.59631 -1.03934 0
M  V30 2113 N 205.628 5.74208 0.852407 0
M  V30 2114 H 208.393 2.51567 -1.62893 0
M  V30 2115 H 205.954 1.27439 -0.998543 0
M  V30 2116 H 207.946 4.02703 0.401501 0
M  V30 2117 H 206.516 3.03007 0.768456 0
M  V30 2118 H 205.736 3.57716 -1.65629 0
M  V30 2119 H 207.024 4.79397 -1.70458 0
M  V30 2120 H 206.422 5.48062 1.40161 0
M  V30 2121 H 204.979 6.39901 1.23977 0
M  V30 2122 N 208.412 0.89855 1.29475 0
M  V30 2123 C 209.66 0.522847 1.9522 0
M  V30 2124 C 209.981 -0.93371 1.71192 0
M  V30 2125 O 209.251 -1.65823 1.04305 0
M  V30 2126 H 207.831 0.190366 0.722336 0
M  V30 2127 H 210.493 1.14459 1.5775 0
M  V30 2128 H 209.589 0.704476 3.04045 0
M  V30 2129 N 209.89 -1.43072 0.660911 0
M  V30 2130 C 211.137 -2.01721 0.177445 0
M  V30 2131 C 211.465 -1.5218 -1.21126 0
M  V30 2132 O 210.72 -0.708659 -1.82419 0
M  V30 2133 C 211.019 -3.57103 0.145563 0
M  V30 2134 C 210.685 -4.26021 1.47705 0
M  V30 2135 C 209.347 -4.44563 1.84165 0
M  V30 2136 C 211.699 -4.64983 2.35458 0
M  V30 2137 C 209.027 -4.99334 3.0803 0
M  V30 2138 C 211.379 -5.21127 3.58622 0
M  V30 2139 C 210.043 -5.37884 3.95268 0
M  V30 2140 H 209.313 -0.73815 0.0649317 0
M  V30 2141 H 211.96 -1.71446 0.853144 0
M  V30 2142 H 210.265 -3.86965 -0.61361 0
M  V30 2143 H 211.962 -4.00248 -0.2455 0
M  V30 2144 H 208.552 -4.11939 1.18339 0
M  V30 2145 H 212.736 -4.50343 2.08579 0
M  V30 2146 H 207.992 -5.10493 3.36462 0
M  V30 2147 H 212.166 -5.50262 4.26831 0
M  V30 2148 H 209.793 -5.80089 4.91325 0
M  V30 2149 N 211.368 -0.403325 -1.52352 0
M  V30 2150 C 212.784 -0.0539281 -1.59509 0
M  V30 2151 C 212.984 1.43307 -1.41652 0
M  V30 2152 O 212.04 2.19924 -1.24056 0
M  V30 2153 C 213.353 -0.543654 -2.95745 0
M  V30 2154 C 214.901 -0.501125 -3.08962 0
M  V30 2155 C 215.376 -0.967267 -4.47669 0
M  V30 2156 N 216.867 -0.923849 -4.53893 0
M  V30 2157 C 217.602 -1.25578 -5.5948 0
M  V30 2158 N 217.098 -1.65889 -6.72646 0
M  V30 2159 N 218.891 -1.17613 -5.49658 0
M  V30 2160 H 211.042 -1.37123 -1.62206 0
M  V30 2161 H 213.305 -0.56294 -0.76276 0
M  V30 2162 H 213.011 -1.58275 -3.14073 0
M  V30 2163 H 212.885 0.0498042 -3.77167 0
M  V30 2164 H 215.272 0.528909 -2.90321 0
M  V30 2165 H 215.353 -1.13056 -2.2946 0
M  V30 2166 H 214.997 -1.9956 -4.67053 0
M  V30 2167 H 214.927 -0.314698 -5.25659 0
M  V30 2168 H 217.418 -0.627403 -3.72655 0
M  V30 2169 H 217.731 -1.89543 -7.49195 0
M  V30 2170 H 216.076 -1.69787 -6.73942 0
M  V30 2171 H 219.267 -0.860115 -4.6013 0
M  V30 2172 H 219.44 -1.43812 -6.3184 0
M  V30 2173 N 212.846 1.57033 -0.133567 0
M  V30 2174 C 214.257 1.82593 0.389464 0
M  V30 2175 C 214.608 1.05156 1.6564 0
M  V30 2176 O 213.733 0.292644 2.14412 0
M  V30 2177 C 214.328 3.31204 0.713377 0
M  V30 2178 C 212.887 3.57393 1.18098 0
M  V30 2179 C 212.034 2.76598 0.197126 0
M  V30 2180 H 214.985 1.54598 -0.358481 0
M  V30 2181 H 215.006 3.46627 1.56939 0
M  V30 2182 H 214.518 3.87537 -0.2089 0
M  V30 2183 H 212.619 3.06433 2.11966 0
M  V30 2184 H 212.732 4.65915 1.11624 0
M  V30 2185 H 211.096 2.45257 0.687088 0
M  V30 2186 H 211.879 3.35697 -0.718504 0
M  V30 2187 N 214.325 -0.140222 1.56975 0
M  V30 2188 C 215.602 -0.880769 1.74648 0
M  V30 2189 C 215.982 -1.99036 0.703404 0
M  V30 2190 O 215.33 -2.26821 -0.27648 0
M  V30 2191 C 215.54 -1.417 3.18939 0
M  V30 2192 C 216.888 -1.87774 3.80823 0
M  V30 2193 O 217.912 -1.51427 3.2241 0
M  V30 2194 O 216.771 -2.54827 4.83452 0
M  V30 2195 H 213.865 -0.416713 0.714338 0
M  V30 2196 H 216.411 -0.125618 1.69234 0
M  V30 2197 H 215.183 -0.619902 3.86359 0
M  V30 2198 H 214.806 -2.23546 3.28805 0
M  V30 2199 N 215.803 -1.52179 -0.40978 0
M  V30 2200 C 217.08 -1.56769 -1.16974 0
M  V30 2201 C 217.46 -0.348322 -2.08206 0
M  V30 2202 O 216.808 0.664862 -2.18613 0
M  V30 2203 C 217.018 -2.89603 -1.9476 0
M  V30 2204 C 218.366 -3.42579 -2.50849 0
M  V30 2205 O 219.39 -2.91338 -2.04941 0
M  V30 2206 O 218.249 -4.32054 -3.34652 0
M  V30 2207 H 215.343 -0.631439 -0.534054 0
M  V30 2208 H 217.889 -1.64507 -0.416613 0
M  V30 2209 H 216.661 -3.698 -1.27921 0
M  V30 2210 H 216.284 -2.85155 -2.77079 0
M  V30 2211 N 217.281 0.66697 -1.42791 0
M  V30 2212 C 218.244 1.76211 -1.46568 0
M  V30 2213 C 219.244 1.56896 -0.352196 0
M  V30 2214 O 220.434 1.63044 -0.613364 0
M  V30 2215 C 217.566 3.14935 -1.30494 0
M  V30 2216 H 218.759 1.74247 -2.44086 0
M  V30 2217 H 216.312 0.877342 -1.29354 0
M  V30 2218 H 217.047 3.2252 -0.339301 0
M  V30 2219 H 216.832 3.30359 -2.11199 0
M  V30 2220 H 218.322 3.94821 -1.36038 0
M  V30 2221 N 218.759 1.29093 0.90403 0
M  V30 2222 C 219.989 1.19516 1.68522 0
M  V30 2223 C 220.397 -0.24738 1.87576 0
M  V30 2224 O 219.74 -1.17798 1.40959 0
M  V30 2225 C 219.802 1.83249 3.0929 0
M  V30 2226 C 219.466 3.32531 3.13484 0
M  V30 2227 C 220.463 4.28821 2.93953 0
M  V30 2228 C 218.148 3.73656 3.35688 0
M  V30 2229 C 220.142 5.64212 2.96553 0
M  V30 2230 C 217.829 5.0917 3.37919 0
M  V30 2231 C 218.827 6.04258 3.18373 0
M  V30 2232 O 218.515 7.37298 3.20385 0
M  V30 2233 H 218.247 0.415467 0.533257 0
M  V30 2234 H 220.801 1.70912 1.13922 0
M  V30 2235 H 219.031 1.26358 3.65473 0
M  V30 2236 H 220.72 1.68054 3.69476 0
M  V30 2237 H 221.486 3.98382 2.76616 0
M  V30 2238 H 217.365 3.00101 3.49943 0
M  V30 2239 H 220.909 6.38407 2.81216 0
M  V30 2240 H 216.806 5.39256 3.54787 0
M  V30 2241 H 217.574 7.46048 3.36681 0
M  V30 2242 N 220.237 -1.11381 1.11499 0
M  V30 2243 C 221.167 -2.19509 0.796125 0
M  V30 2244 C 222.148 -1.68458 -0.235796 0
M  V30 2245 O 223.333 -1.93947 -0.0991344 0
M  V30 2246 C 220.463 -3.46475 0.239205 0
M  V30 2247 C 219.417 -4.10744 1.20307 0
M  V30 2248 C 218.743 -5.32293 0.50683 0
M  V30 2249 C 220.043 -4.55597 2.55399 0
M  V30 2250 H 221.737 -2.46439 1.70024 0
M  V30 2251 H 219.283 -1.18446 0.818935 0
M  V30 2252 H 221.236 -4.214 0.00392006 0
M  V30 2253 H 219.96 -3.19006 -0.700206 0
M  V30 2254 H 218.619 -3.37813 1.42399 0
M  V30 2255 H 218.267 -5.01095 -0.437408 0
M  V30 2256 H 217.967 -5.76243 1.1497 0
M  V30 2257 H 219.491 -6.09956 0.280351 0
M  V30 2258 H 220.905 -5.21841 2.37391 0
M  V30 2259 H 219.302 -5.10363 3.15673 0
M  V30 2260 H 220.372 -3.69013 3.14575 0
M  V30 2261 N 221.715 -0.905404 -1.28997 0
M  V30 2262 C 222.961 -0.535039 -1.95615 0
M  V30 2263 C 223.294 0.917404 -1.71165 0
M  V30 2264 O 222.569 1.65123 -1.02785 0
M  V30 2265 C 222.852 -0.834918 -3.50287 0
M  V30 2266 C 222.705 -2.33948 -3.84172 0
M  V30 2267 C 224.024 -0.325318 -4.38896 0
M  V30 2268 H 221.143 -0.195861 -0.710498 0
M  V30 2269 H 223.785 -1.13313 -1.52513 0
M  V30 2270 H 221.935 -0.325904 -3.87131 0
M  V30 2271 H 223.607 -2.91847 -3.57243 0
M  V30 2272 H 221.85 -2.79789 -3.31513 0
M  V30 2273 H 222.521 -2.49987 -4.92149 0
M  V30 2274 H 224.997 -0.761256 -4.09077 0
M  V30 2275 H 223.873 -0.564295 -5.45992 0
M  V30 2276 H 224.134 0.774144 -4.35269 0
M  V30 2277 N 223.193 1.4272 -0.668489 0
M  V30 2278 C 224.609 1.55992 -0.33745 0
M  V30 2279 C 224.809 1.64933 1.15756 0
M  V30 2280 O 223.865 1.61278 1.94282 0
M  V30 2281 C 225.178 2.81314 -1.06222 0
M  V30 2282 C 226.726 2.95078 -1.04394 0
M  V30 2283 C 227.201 4.23252 -1.74991 0
M  V30 2284 N 228.692 4.3015 -1.71829 0
M  V30 2285 C 229.427 5.28127 -2.23315 0
M  V30 2286 N 228.923 6.32293 -2.83156 0
M  V30 2287 N 230.716 5.19882 -2.13726 0
M  V30 2288 H 222.867 1.3516 -1.63846 0
M  V30 2289 H 225.13 0.650174 -0.689912 0
M  V30 2290 H 224.836 2.80823 -2.11734 0
M  V30 2291 H 224.71 3.72012 -0.62344 0
M  V30 2292 H 227.097 2.951 0.0028244 0
M  V30 2293 H 227.178 2.05627 -1.52155 0
M  V30 2294 H 226.822 4.2399 -2.79633 0
M  V30 2295 H 226.752 5.11626 -1.24685 0
M  V30 2296 H 229.243 3.55499 -1.28175 0
M  V30 2297 H 229.556 7.03398 -3.20079 0
M  V30 2298 H 227.901 6.32873 -2.87223 0
M  V30 2299 H 231.092 4.37423 -1.66669 0
M  V30 2300 H 231.265 5.96077 -2.54158 0
M  V30 2301 N 224.671 0.411399 1.52136 0
M  V30 2302 C 226.087 0.0623865 1.59478 0
M  V30 2303 C 226.287 -1.42554 1.4241 0
M  V30 2304 O 225.343 -2.19263 1.2522 0
M  V30 2305 C 226.656 0.559331 2.95452 0
M  V30 2306 C 228.204 0.517503 3.08692 0
M  V30 2307 C 228.679 0.990994 4.4715 0
M  V30 2308 N 230.17 0.947908 4.53397 0
M  V30 2309 C 230.905 1.28544 5.58806 0
M  V30 2310 N 230.401 1.69454 6.71757 0
M  V30 2311 N 232.194 1.20526 5.49026 0
M  V30 2312 H 224.345 1.37982 1.61477 0
M  V30 2313 H 226.608 0.566977 0.759764 0
M  V30 2314 H 226.314 1.59938 3.1323 0
M  V30 2315 H 226.188 -0.0298014 3.77188 0
M  V30 2316 H 228.575 -0.513505 2.90598 0
M  V30 2317 H 228.656 1.14272 2.28857 0
M  V30 2318 H 228.3 2.02034 4.65988 0
M  V30 2319 H 228.23 0.34257 5.25485 0
M  V30 2320 H 230.721 0.647157 3.72317 0
M  V30 2321 H 231.034 1.93513 7.48179 0
M  V30 2322 H 229.379 1.73359 6.73032 0
M  V30 2323 H 232.57 0.884505 4.59667 0
M  V30 2324 H 232.743 1.47161 6.31069 0
M  V30 2325 N 226.149 -1.5696 0.141893 0
M  V30 2326 C 227.079 -2.19516 -0.795936 0
M  V30 2327 C 228.06 -1.14187 -1.26077 0
M  V30 2328 O 229.245 -1.42511 -1.31925 0
M  V30 2329 C 226.375 -2.81272 -2.03723 0
M  V30 2330 C 225.329 -3.92384 -1.70936 0
M  V30 2331 C 224.655 -4.41052 -3.02287 0
M  V30 2332 C 225.955 -5.13403 -0.959954 0
M  V30 2333 H 227.649 -2.98138 -0.274596 0
M  V30 2334 H 225.195 -1.43406 -0.130636 0
M  V30 2335 H 227.148 -3.237 -2.69808 0
M  V30 2336 H 225.872 -1.99973 -2.58221 0
M  V30 2337 H 224.531 -3.50566 -1.07232 0
M  V30 2338 H 224.179 -3.56582 -3.54765 0
M  V30 2339 H 223.879 -5.15993 -2.81114 0
M  V30 2340 H 225.403 -4.86146 -3.69451 0
M  V30 2341 H 226.817 -5.52706 -1.52279 0
M  V30 2342 H 225.214 -5.94073 -0.848357 0
M  V30 2343 H 226.284 -4.84875 0.0492434 0
M  V30 2344 N 227.627 0.131896 -1.57047 0
M  V30 2345 C 229.043 0.485031 -1.52051 0
M  V30 2346 C 229.243 1.82563 -0.85281 0
M  V30 2347 O 228.299 2.48817 -0.429694 0
M  V30 2348 C 229.612 0.481409 -2.96821 0
M  V30 2349 C 231.16 0.565868 -3.07842 0
M  V30 2350 C 231.635 0.592762 -4.54148 0
M  V30 2351 N 233.126 0.654564 -4.58552 0
M  V30 2352 C 233.861 0.696608 -5.69153 0
M  V30 2353 N 233.357 0.697078 -6.89284 0
M  V30 2354 N 235.15 0.738639 -5.57226 0
M  V30 2355 H 227.301 -0.746664 -1.98843 0
M  V30 2356 H 229.564 -0.273999 -0.90754 0
M  V30 2357 H 229.27 -0.435731 -3.4899 0
M  V30 2358 H 229.144 1.3139 -3.53577 0
M  V30 2359 H 231.531 1.47343 -2.55684 0
M  V30 2360 H 231.612 -0.29406 -2.54104 0
M  V30 2361 H 231.256 -0.310701 -5.06949 0
M  V30 2362 H 231.186 1.46939 -5.05684 0
M  V30 2363 H 233.677 0.660887 -3.72076 0
M  V30 2364 H 233.99 0.731426 -7.69331 0
M  V30 2365 H 232.335 0.66471 -6.91814 0
M  V30 2366 H 235.526 0.735545 -4.62285 0
M  V30 2367 H 235.699 0.767938 -6.43434 0
M  V30 2368 N 229.106 1.52395 0.401703 0
M  V30 2369 C 230.383 1.57387 1.16141 0
M  V30 2370 C 230.763 0.359359 2.08019 0
M  V30 2371 O 230.111 -0.65326 2.18963 0
M  V30 2372 C 230.321 2.90631 1.93221 0
M  V30 2373 C 231.669 3.43904 2.49028 0
M  V30 2374 O 232.693 2.92421 2.03393 0
M  V30 2375 O 231.552 4.33823 3.32356 0
M  V30 2376 H 228.646 0.634262 0.530698 0
M  V30 2377 H 231.192 1.64725 0.407883 0
M  V30 2378 H 229.964 3.70473 1.25958 0
M  V30 2379 H 229.587 2.8662 2.75563 0
M  V30 2380 N 230.584 -0.659388 1.43143 0
M  V30 2381 C 231.547 -1.75432 1.47501 0
M  V30 2382 C 232.547 -1.56707 0.360512 0
M  V30 2383 O 233.737 -1.62717 0.622002 0
M  V30 2384 C 230.869 -3.14239 1.32162 0
M  V30 2385 H 232.062 -1.7295 2.45006 0
M  V30 2386 H 229.615 -0.870469 1.29817 0
M  V30 2387 H 230.35 -3.22336 0.356401 0
M  V30 2388 H 230.135 -3.29235 2.12948 0
M  V30 2389 H 231.625 -3.94094 1.3813 0
M  V30 2390 N 232.062 -1.29571 -0.897171 0
M  V30 2391 C 233.31 -1.17456 -1.64464 0
M  V30 2392 C 233.631 0.273698 -1.9307 0
M  V30 2393 O 232.901 1.18684 -1.55855 0
M  V30 2394 H 231.481 -0.431706 -0.609622 0
M  V30 2395 H 234.143 -1.62531 -1.07562 0
M  V30 2396 H 233.239 -1.72648 -2.59998 0
M  V30 2397 N 233.54 1.10788 -1.12088 0
M  V30 2398 C 234.503 2.15207 -0.788577 0
M  V30 2399 C 235.503 1.59609 0.195317 0
M  V30 2400 O 236.693 1.74174 -0.0300193 0
M  V30 2401 C 233.825 3.4047 -0.171174 0
M  V30 2402 H 235.018 2.46116 -1.71368 0
M  V30 2403 H 232.571 1.26089 -0.923652 0
M  V30 2404 H 233.306 3.15176 0.763832 0
M  V30 2405 H 233.091 3.82109 -0.879514 0
M  V30 2406 H 234.581 4.17576 0.04496 0
M  V30 2407 N 235.018 0.912232 1.28515 0
M  V30 2408 C 236.264 0.545405 1.95328 0
M  V30 2409 C 236.597 -0.908313 1.71649 0
M  V30 2410 O 235.872 -1.64575 1.03659 0
M  V30 2411 C 236.155 0.853483 3.4984 0
M  V30 2412 C 236.008 2.35982 3.82926 0
M  V30 2413 C 237.327 0.348589 4.38717 0
M  V30 2414 H 234.446 0.199626 0.709449 0
M  V30 2415 H 237.088 1.1412 1.5191 0
M  V30 2416 H 235.238 0.34643 3.86952 0
M  V30 2417 H 236.91 2.93738 3.55691 0
M  V30 2418 H 235.153 2.81543 3.30024 0
M  V30 2419 H 235.824 2.52593 4.90816 0
M  V30 2420 H 238.3 0.78294 4.08668 0
M  V30 2421 H 237.176 0.593242 5.45685 0
M  V30 2422 H 237.437 -0.751049 4.35674 0
M  V30 2423 N 236.496 -1.42363 0.676048 0
M  V30 2424 C 237.742 -2.0182 0.199125 0
M  V30 2425 C 238.075 -1.53339 -1.19168 0
M  V30 2426 O 237.35 -0.736124 -1.80032 0
M  V30 2427 C 237.633 -3.59331 0.235144 0
M  V30 2428 C 237.486 -4.17989 1.66149 0
M  V30 2429 C 238.805 -4.3813 -0.41595 0
M  V30 2430 H 235.924 -0.733293 0.0738311 0
M  V30 2431 H 238.566 -1.69368 0.86107 0
M  V30 2432 H 236.716 -3.87109 -0.328487 0
M  V30 2433 H 238.388 -4.0116 2.27747 0
M  V30 2434 H 236.631 -3.7377 2.20178 0
M  V30 2435 H 237.302 -5.27126 1.63837 0
M  V30 2436 H 239.778 -4.16051 0.0638529 0
M  V30 2437 H 238.654 -5.47717 -0.360115 0
M  V30 2438 H 238.915 -4.16101 -1.49373 0
M  V30 2439 N 237.974 -0.419461 -1.51915 0
M  V30 2440 C 238.904 0.391813 -2.30189 0
M  V30 2441 C 239.885 1.03699 -1.34836 0
M  V30 2442 O 241.07 1.04403 -1.63748 0
M  V30 2443 C 238.2 1.50312 -3.13087 0
M  V30 2444 C 237.154 0.9824 -4.16573 0
M  V30 2445 C 236.48 2.18809 -4.8788 0
M  V30 2446 C 237.78 0.0292356 -5.22292 0
M  V30 2447 H 239.474 -0.26135 -2.98257 0
M  V30 2448 H 237.02 -0.127134 -1.43438 0
M  V30 2449 H 238.973 2.07773 -3.66617 0
M  V30 2450 H 237.697 2.18431 -2.42807 0
M  V30 2451 H 236.356 0.430119 -3.64068 0
M  V30 2452 H 236.004 2.85507 -4.14119 0
M  V30 2453 H 235.704 1.84615 -5.57845 0
M  V30 2454 H 237.228 2.76858 -5.44226 0
M  V30 2455 H 238.642 0.512976 -5.71 0
M  V30 2456 H 237.039 -0.2244 -5.9968 0
M  V30 2457 H 238.109 -0.912931 -4.76228 0
M  V30 2458 N 239.452 1.56882 -0.150215 0
M  V30 2459 C 240.7 1.9584 0.499105 0
M  V30 2460 C 241.021 1.03623 1.65188 0
M  V30 2461 O 240.291 0.0984084 1.95653 0
M  V30 2462 H 238.871 0.723119 0.187373 0
M  V30 2463 H 241.533 1.9358 -0.226466 0
M  V30 2464 H 240.629 2.99638 0.873122 0
M  V30 2465 N 240.93 -0.123565 1.57115 0
M  V30 2466 C 241.877 -1.15177 2.00007 0
M  V30 2467 C 242.847 -1.41403 0.871454 0
M  V30 2468 O 244.032 -1.53346 1.13533 0
M  V30 2469 C 241.172 -2.47436 2.40561 0
M  V30 2470 C 240.285 -2.28184 3.66819 0
M  V30 2471 C 239.42 -3.53641 3.96373 0
M  V30 2472 C 238.459 -3.29528 5.15827 0
M  V30 2473 N 237.596 -4.47175 5.41275 0
M  V30 2474 H 242.436 -0.779008 2.87638 0
M  V30 2475 H 239.973 -0.373166 1.42288 0
M  V30 2476 H 241.931 -3.24584 2.62109 0
M  V30 2477 H 240.561 -2.82614 1.55978 0
M  V30 2478 H 239.613 -1.41976 3.52912 0
M  V30 2479 H 240.925 -2.0634 4.5412 0
M  V30 2480 H 240.079 -4.39209 4.18545 0
M  V30 2481 H 238.818 -3.78512 3.07538 0
M  V30 2482 H 237.823 -2.42349 4.93505 0
M  V30 2483 H 239.048 -3.06031 6.06236 0
M  V30 2484 H 236.994 -4.72175 4.55397 0
M  V30 2485 H 236.911 -4.28419 6.22891 0
M  V30 2486 H 238.179 -5.3389 5.67963 0
M  V30 2487 N 242.408 -1.52605 -0.393616 0
M  V30 2488 C 243.636 -1.71294 -1.16043 0
M  V30 2489 C 244.051 -0.429259 -1.83855 0
M  V30 2490 O 243.408 0.595921 -1.72496 0
M  V30 2491 C 243.459 -2.8593 -2.21193 0
M  V30 2492 O 243.18 -4.09329 -1.56146 0
M  V30 2493 C 244.681 -3.16259 -3.10636 0
M  V30 2494 H 241.901 -0.573641 -0.348104 0
M  V30 2495 H 244.445 -1.99234 -0.461092 0
M  V30 2496 H 242.6 -2.60465 -2.86769 0
M  V30 2497 H 243.014 -4.73323 -2.25978 0
M  V30 2498 H 244.488 -3.99946 -3.80456 0
M  V30 2499 H 244.965 -2.3045 -3.73884 0
M  V30 2500 H 245.571 -3.43547 -2.50711 0
M  V30 2501 N 243.887 0.651787 -1.4349 0
M  V30 2502 C 244.835 1.78586 -1.49029 0
M  V30 2503 C 245.829 1.65448 -0.363767 0
M  V30 2504 O 247.035 1.71777 -0.537821 0
M  V30 2505 H 243.41 0.589236 -0.467231 0
M  V30 2506 H 245.381 1.71035 -2.44519 0
M  V30 2507 C 244.13 3.16851 -1.43181 0
M  V30 2508 H 243.453 3.27598 -2.29171 0
M  V30 2509 H 244.893 3.96156 -1.51118 0
M  V30 2510 C 243.352 3.36568 -0.149616 0
M  V30 2511 O 243.882 3.93885 0.788509 0
M  V30 2512 N 242.088 2.90539 -0.0593484 0
M  V30 2513 H 241.635 2.4408 -0.823575 0
M  V30 2514 H 241.593 3.04108 0.797853 0
M  V30 2515 N 245.365 1.30045 0.890287 0
M  V30 2516 C 246.295 1.18541 2.01172 0
M  V30 2517 C 247.276 0.0773356 1.69924 0
M  V30 2518 O 248.461 0.25845 1.92473 0
M  V30 2519 C 245.591 0.870941 3.36202 0
M  V30 2520 C 244.545 1.93637 3.81692 0
M  V30 2521 C 243.871 1.475 5.13953 0
M  V30 2522 C 245.171 3.34666 4.00994 0
M  V30 2523 H 246.865 2.12359 2.11054 0
M  V30 2524 H 244.411 1.02238 1.01407 0
M  V30 2525 H 246.364 0.777141 4.14172 0
M  V30 2526 H 245.088 -0.102926 3.26438 0
M  V30 2527 H 243.747 2.01972 3.05946 0
M  V30 2528 H 243.395 0.489551 5.00612 0
M  V30 2529 H 243.095 2.1876 5.4536 0
M  V30 2530 H 244.619 1.39489 5.94454 0
M  V30 2531 H 246.033 3.2912 4.69417 0
M  V30 2532 H 244.43 4.03966 4.43769 0
M  V30 2533 H 245.5 3.76949 3.05021 0
M  V30 2534 N 246.843 -1.10192 1.12674 0
M  V30 2535 C 248.068 -1.86523 0.906853 0
M  V30 2536 C 248.493 -1.80221 -0.538711 0
M  V30 2537 O 247.851 -1.17396 -1.38158 0
M  V30 2538 C 247.899 -3.32758 1.3894 0
M  V30 2539 O 247.003 -4.08449 0.5695 0
M  V30 2540 H 246.344 -0.578678 0.325619 0
M  V30 2541 H 248.874 -1.39203 1.49946 0
M  V30 2542 H 248.884 -3.83608 1.38958 0
M  V30 2543 H 247.559 -3.36661 2.44197 0
M  V30 2544 H 246.136 -3.67427 0.636528 0
M  V30 2545 N 248.321 -0.919034 -1.28029 0
M  V30 2546 C 249.231 -0.416756 -2.30869 0
M  V30 2547 C 250.247 0.498235 -1.66714 0
M  V30 2548 O 251.423 0.383144 -1.97722 0
M  V30 2549 C 248.488 0.330274 -3.45123 0
M  V30 2550 C 247.549 -0.618578 -4.2482 0
M  V30 2551 C 246.782 0.0928959 -5.33619 0
M  V30 2552 O 247.005 1.31375 -5.55065 0
M  V30 2553 O 245.939 -0.574499 -5.99152 0
M  V30 2554 H 249.765 -1.27043 -2.75851 0
M  V30 2555 H 247.35 -0.684052 -1.3282 0
M  V30 2556 H 249.232 0.751972 -4.14636 0
M  V30 2557 H 247.907 1.1597 -3.02213 0
M  V30 2558 H 246.814 -1.08978 -3.57875 0
M  V30 2559 H 248.147 -1.41497 -4.71423 0
M  V30 2560 N 249.799 1.42003 -0.683588 0
M  V30 2561 C 251.045 2.02223 -0.218536 0
M  V30 2562 C 251.4 1.53126 1.16492 0
M  V30 2563 O 250.693 0.727459 1.77253 0
M  V30 2564 C 250.887 3.56827 -0.202357 0
M  V30 2565 C 250.716 4.20928 -1.5827 0
M  V30 2566 C 249.486 4.5573 -2.18262 0
M  V30 2567 C 251.684 4.47933 -2.52706 0
M  V30 2568 N 249.666 5.05056 -3.48986 0
M  V30 2569 C 251.037 4.98906 -3.68094 0
M  V30 2570 C 253.092 4.29931 -2.51125 0
M  V30 2571 C 251.795 5.33768 -4.82166 0
M  V30 2572 C 253.821 4.65875 -3.643 0
M  V30 2573 C 253.183 5.17008 -4.78417 0
M  V30 2574 H 249.282 0.771931 -0.125088 0
M  V30 2575 H 251.866 1.72729 -0.898479 0
M  V30 2576 H 250.037 3.85819 0.447029 0
M  V30 2577 H 251.769 4.03755 0.276399 0
M  V30 2578 H 248.524 4.41781 -1.70665 0
M  V30 2579 H 248.948 5.34139 -4.15962 0
M  V30 2580 H 253.59 3.89647 -1.6412 0
M  V30 2581 H 251.308 5.72981 -5.6984 0
M  V30 2582 H 254.894 4.53615 -3.64314 0
M  V30 2583 H 253.774 5.44301 -5.64541 0
M  V30 2584 N 251.277 0.427512 1.51691 0
M  V30 2585 C 252.24 -0.377132 2.26076 0
M  V30 2586 C 253.24 -0.958089 1.29141 0
M  V30 2587 O 254.43 -0.83408 1.52934 0
M  V30 2588 C 251.562 -1.53262 3.04506 0
M  V30 2589 H 252.755 0.27464 2.9864 0
M  V30 2590 H 250.308 0.180445 1.55255 0
M  V30 2591 H 251.043 -2.22072 2.36335 0
M  V30 2592 H 250.828 -1.12232 3.75694 0
M  V30 2593 H 252.318 -2.10135 3.60878 0
M  V30 2594 N 252.755 -1.56801 0.158532 0
M  V30 2595 C 253.703 -2.18638 -0.793729 0
M  V30 2596 C 254.697 -1.14669 -1.24689 0
M  V30 2597 O 255.903 -1.32895 -1.21403 0
M  V30 2598 H 252.278 -0.700226 -0.274204 0
M  V30 2599 H 254.249 -2.97367 -0.248095 0
M  V30 2600 C 252.998 -2.83139 -2.0181 0
M  V30 2601 H 252.321 -3.62863 -1.67841 0
M  V30 2602 H 253.761 -3.29894 -2.66357 0
M  V30 2603 C 252.22 -1.82244 -2.83353 0
M  V30 2604 O 252.75 -1.3 -3.80083 0
M  V30 2605 N 250.956 -1.51288 -2.48114 0
M  V30 2606 H 250.503 -1.93964 -1.69516 0
M  V30 2607 H 250.461 -0.840296 -3.02963 0
M  V30 2608 N 254.233 0.115231 -1.57178 0
M  V30 2609 C 255.48 0.822351 -1.8505 0
M  V30 2610 C 255.808 1.79701 -0.744168 0
M  V30 2611 O 255.063 1.93909 0.26414 0
M  V30 2612 C 255.362 1.60324 -3.19423 0
M  V30 2613 C 255.028 0.772536 -4.44233 0
M  V30 2614 C 253.69 0.543468 -4.78121 0
M  V30 2615 C 256.042 0.193746 -5.2084 0
M  V30 2616 C 253.37 -0.274583 -5.86057 0
M  V30 2617 C 255.722 -0.611517 -6.29637 0
M  V30 2618 C 254.386 -0.850867 -6.62055 0
M  V30 2619 H 253.656 0.30092 -0.677147 0
M  V30 2620 H 256.303 0.0845802 -1.91313 0
M  V30 2621 H 254.608 2.41203 -3.08753 0
M  V30 2622 H 256.305 2.1544 -3.38211 0
M  V30 2623 H 252.895 0.96117 -4.17683 0
M  V30 2624 H 257.079 0.357926 -4.95008 0
M  V30 2625 H 252.335 -0.469206 -6.09597 0
M  V30 2626 H 256.509 -1.06697 -6.88178 0
M  V30 2627 H 254.136 -1.48657 -7.45523 0
M  V30 2628 N 255.711 1.52812 0.385517 0
M  V30 2629 C 257.127 1.4214 0.725829 0
M  V30 2630 C 257.327 0.544589 1.94001 0
M  V30 2631 O 256.383 0.0193693 2.52493 0
M  V30 2632 C 257.696 2.85042 0.957668 0
M  V30 2633 C 259.244 2.94543 1.05892 0
M  V30 2634 C 259.719 4.38464 1.32337 0
M  V30 2635 N 261.21 4.41804 1.39151 0
M  V30 2636 C 261.945 5.5025 1.61285 0
M  V30 2637 N 261.441 6.68775 1.80866 0
M  V30 2638 N 263.234 5.37798 1.63492 0
M  V30 2639 H 255.385 2.08338 -0.413383 0
M  V30 2640 H 257.648 0.940016 -0.122775 0
M  V30 2641 H 257.354 3.51431 0.137568 0
M  V30 2642 H 257.228 3.27505 1.87137 0
M  V30 2643 H 259.615 2.28321 1.86959 0
M  V30 2644 H 259.696 2.55504 0.123057 0
M  V30 2645 H 259.34 5.05254 0.517793 0
M  V30 2646 H 259.27 4.75059 2.27214 0
M  V30 2647 H 261.761 3.56377 1.25713 0
M  V30 2648 H 262.074 7.47197 1.97271 0
M  V30 2649 H 260.419 6.71797 1.78083 0
M  V30 2650 H 263.61 4.44171 1.47749 0
M  V30 2651 H 263.783 6.22382 1.80402 0
M  V30 2652 N 257.189 -0.644168 1.43834 0
M  V30 2653 C 258.437 -1.40117 1.45642 0
M  V30 2654 C 258.758 -1.94814 0.0852413 0
M  V30 2655 O 258.028 -1.74988 -0.880688 0
M  V30 2656 H 256.608 -0.52005 0.536243 0
M  V30 2657 H 259.27 -0.7591 1.7951 0
M  V30 2658 H 258.366 -2.23902 2.17427 0
M  V30 2659 N 258.668 -1.30515 -0.883378 0
M  V30 2660 C 259.616 -1.16941 -2.01066 0
M  V30 2661 C 260.61 -0.0809148 -1.69207 0
M  V30 2662 O 261.816 -0.241877 -1.78367 0
M  V30 2663 H 258.191 -0.361705 -0.659298 0
M  V30 2664 H 260.162 -2.12344 -2.09649 0
M  V30 2665 C 258.911 -0.879694 -3.36388 0
M  V30 2666 H 258.234 -1.70936 -3.61415 0
M  V30 2667 H 259.674 -0.82483 -4.159 0
M  V30 2668 C 258.133 0.417409 -3.34304 0
M  V30 2669 O 258.663 1.43843 -3.75063 0
M  V30 2670 N 256.869 0.429141 -2.87414 0
M  V30 2671 H 256.416 -0.402222 -2.5444 0
M  V30 2672 H 256.374 1.29696 -2.86403 0
M  V30 2673 N 260.146 1.09593 -1.13257 0
M  V30 2674 C 261.423 1.78293 -0.804432 0
M  V30 2675 C 261.803 1.99004 0.70431 0
M  V30 2676 O 261.151 1.59007 1.641 0
M  V30 2677 C 261.361 3.10707 -1.5894 0
M  V30 2678 C 262.709 3.85443 -1.78099 0
M  V30 2679 O 263.733 3.20454 -1.55525 0
M  V30 2680 O 262.592 5.02108 -2.15753 0
M  V30 2681 H 259.686 0.773156 -0.293528 0
M  V30 2682 H 262.232 1.16164 -1.23709 0
M  V30 2683 H 261.004 2.91106 -2.61482 0
M  V30 2684 H 260.627 3.80558 -1.15157 0
M  V30 2685 N 261.624 0.925811 1.2754 0
M  V30 2686 C 262.849 0.580924 1.99098 0
M  V30 2687 C 263.274 -0.833555 1.68622 0
M  V30 2688 O 262.632 -1.55903 0.925422 0
M  V30 2689 C 262.68 0.811186 3.51358 0
M  V30 2690 O 261.784 -0.124129 4.12213 0
M  V30 2691 H 261.125 0.223873 0.625122 0
M  V30 2692 H 263.655 1.24455 1.62395 0
M  V30 2693 H 263.665 0.72601 4.01489 0
M  V30 2694 H 262.34 1.84227 3.72872 0
M  V30 2695 H 260.917 0.0108006 3.72898 0
M  V30 2696 N 263.102 -1.41638 0.69111 0
M  V30 2697 C 264.351 -2.00526 0.217318 0
M  V30 2698 C 264.664 -1.55353 -1.18848 0
M  V30 2699 O 265.87 -2.06769 -1.75951 0
M  V30 2700 C 264.326 -3.58313 0.337639 0
M  V30 2701 C 263.934 -4.12469 1.74852 0
M  V30 2702 C 265.678 -4.24431 -0.0766066 0
M  V30 2703 C 263.585 -5.62675 1.82074 0
M  V30 2704 H 262.515 -0.750008 0.0774893 0
M  V30 2705 H 265.166 -1.6217 0.858661 0
M  V30 2706 H 263.548 -3.9425 -0.371879 0
M  V30 2707 H 264.722 -3.8796 2.48644 0
M  V30 2708 H 263.037 -3.58861 2.11205 0
M  V30 2709 H 265.634 -5.34683 -0.0430284 0
M  V30 2710 H 265.977 -4.01101 -1.1146 0
M  V30 2711 H 266.51 -3.93512 0.582476 0
M  V30 2712 H 263.249 -5.90826 2.83911 0
M  V30 2713 H 262.769 -5.89124 1.12661 0
M  V30 2714 H 264.448 -6.27371 1.58159 0
M  V30 2715 N 264.58 -0.43555 -1.51462 0
M  V30 2716 C 265.805 0.132627 -2.06976 0
M  V30 2717 C 266.23 1.35848 -1.30104 0
M  V30 2718 O 265.588 1.78112 -0.338493 0
M  V30 2719 C 265.636 0.43523 -3.57964 0
M  V30 2720 O 264.74 1.52198 -3.83288 0
M  V30 2721 H 264.081 0.00265 -0.663995 0
M  V30 2722 H 266.611 -0.616369 -1.95095 0
M  V30 2723 H 266.621 0.686206 -4.02188 0
M  V30 2724 H 265.296 -0.460739 -4.1334 0
M  V30 2725 H 263.873 1.2611 -3.50928 0
M  V30 2726 N 266.058 1.56714 -0.166846 0
M  V30 2727 C 267.306 1.96358 0.478305 0
M  V30 2728 C 267.627 1.0537 1.6408 0
M  V30 2729 O 266.897 0.119154 1.95537 0
M  V30 2730 H 265.477 0.725065 0.179692 0
M  V30 2731 H 268.139 1.93329 -0.246985 0
M  V30 2732 H 267.235 3.00547 0.841292 0
M  V30 2733 N 267.536 -0.106894 1.57237 0
M  V30 2734 C 268.782 -0.808678 1.86633 0
M  V30 2735 C 269.137 -1.76917 0.756178 0
M  V30 2736 O 268.43 -1.90055 -0.242834 0
M  V30 2737 C 268.624 -1.58628 3.20268 0
M  V30 2738 C 268.453 -0.702592 4.44178 0
M  V30 2739 C 267.223 -0.352808 5.04067 0
M  V30 2740 C 269.421 -0.0148031 5.14298 0
M  V30 2741 N 267.403 0.540279 6.11518 0
M  V30 2742 C 268.774 0.736809 6.15606 0
M  V30 2743 C 270.829 0.0603524 4.97863 0
M  V30 2744 C 269.532 1.55654 7.02257 0
M  V30 2745 C 271.558 0.866942 5.85011 0
M  V30 2746 C 270.92 1.60671 6.85831 0
M  V30 2747 H 267.019 -0.27246 0.733001 0
M  V30 2748 H 269.603 -0.0717858 1.94568 0
M  V30 2749 H 267.774 -2.29413 3.13408 0
M  V30 2750 H 269.506 -2.23434 3.3743 0
M  V30 2751 H 266.261 -0.697802 4.68431 0
M  V30 2752 H 266.685 0.979029 6.69884 0
M  V30 2753 H 271.327 -0.497236 4.19866 0
M  V30 2754 H 269.045 2.12524 7.79653 0
M  V30 2755 H 272.631 0.927612 5.74358 0
M  V30 2756 H 271.511 2.2208 7.52097 0
M  V30 2757 N 269.014 -1.53014 -0.377408 0
M  V30 2758 C 270.239 -1.72818 -1.14668 0
M  V30 2759 C 270.664 -0.450725 -1.8262 0
M  V30 2760 O 270.022 0.59439 -1.7128 0
M  V30 2761 C 270.07 -2.88627 -2.16164 0
M  V30 2762 O 269.174 -2.56409 -3.22998 0
M  V30 2763 H 268.515 -0.574301 -0.333278 0
M  V30 2764 H 271.045 -1.99853 -0.438152 0
M  V30 2765 H 271.055 -3.14455 -2.59966 0
M  V30 2766 H 269.73 -3.81294 -1.66095 0
M  V30 2767 H 268.307 -2.4136 -2.84253 0
M  V30 2768 N 270.492 0.636531 -1.44174 0
M  V30 2769 C 271.455 1.73063 -1.50273 0
M  V30 2770 C 272.455 1.56113 -0.385397 0
M  V30 2771 O 273.645 1.61707 -0.64781 0
M  V30 2772 C 270.777 3.12096 -1.37145 0
M  V30 2773 H 271.97 1.69031 -2.47727 0
M  V30 2774 H 269.523 0.849706 -1.31186 0
M  V30 2775 H 270.258 3.21728 -0.407636 0
M  V30 2776 H 270.043 3.25805 -2.18159 0
M  V30 2777 H 271.533 3.91846 -1.44382 0
M  V30 2778 N 271.97 1.30982 0.876444 0
M  V30 2779 C 273.386 1.09498 1.16113 0
M  V30 2780 C 273.586 -0.13875 2.01022 0
M  V30 2781 O 272.642 -0.829935 2.38471 0
M  V30 2782 C 273.955 2.36308 1.85954 0
M  V30 2783 C 275.503 2.41856 1.98683 0
M  V30 2784 C 275.978 3.6853 2.71937 0
M  V30 2785 N 277.469 3.69387 2.79477 0
M  V30 2786 C 278.204 4.64096 3.36753 0
M  V30 2787 N 277.7 5.69155 3.95012 0
M  V30 2788 N 279.493 4.51626 3.3465 0
M  V30 2789 H 271.644 2.10118 0.310494 0
M  V30 2790 H 273.907 0.926634 0.200131 0
M  V30 2791 H 273.613 3.26388 1.31011 0
M  V30 2792 H 273.487 2.4561 2.86278 0
M  V30 2793 H 275.874 1.52249 2.52793 0
M  V30 2794 H 275.955 2.36523 0.9742 0
M  V30 2795 H 275.599 4.58499 2.18496 0
M  V30 2796 H 275.529 3.71127 3.73593 0
M  V30 2797 H 278.02 2.93438 2.38123 0
M  V30 2798 H 278.333 6.3751 4.36808 0
M  V30 2799 H 276.678 5.72937 3.93406 0
M  V30 2800 H 279.869 3.68728 2.8837 0
M  V30 2801 H 280.042 5.25614 3.7899 0
M  V30 2802 N 273.449 -1.08991 1.13837 0
M  V30 2803 C 274.697 -1.80899 0.901098 0
M  V30 2804 C 275.018 -1.86356 -0.574134 0
M  V30 2805 O 274.288 -1.35235 -1.41733 0
M  V30 2806 H 272.868 -0.669966 0.330386 0
M  V30 2807 H 275.53 -1.318 1.43578 0
M  V30 2808 H 274.626 -2.83929 1.29578 0
M  V30 2809 N 274.927 -0.932562 -1.27047 0
M  V30 2810 C 276.175 -0.574422 -1.93765 0
M  V30 2811 C 276.496 0.887993 -1.73608 0
M  V30 2812 O 275.766 1.62999 -1.08665 0
M  V30 2813 H 274.346 -0.209451 -0.717035 0
M  V30 2814 H 277.008 -1.18601 -1.5466 0
M  V30 2815 H 276.104 -0.784841 -3.02071 0
M  V30 2816 N 276.405 1.4127 -0.698611 0
M  V30 2817 C 277.337 2.292 0.00399731 0
M  V30 2818 C 278.35 1.44944 0.741279 0
M  V30 2819 O 279.539 1.68416 0.591477 0
M  V30 2820 C 276.639 3.22875 1.02979 0
M  V30 2821 C 275.812 4.35904 0.36151 0
M  V30 2822 C 274.871 5.10134 1.29033 0
M  V30 2823 O 273.897 5.63809 0.781562 0
M  V30 2824 N 275.099 5.17885 2.6225 0
M  V30 2825 H 277.864 2.9014 -0.750921 0
M  V30 2826 H 275.425 1.52455 -0.544882 0
M  V30 2827 H 277.417 3.69404 1.65296 0
M  V30 2828 H 275.987 2.63221 1.68622 0
M  V30 2829 H 275.207 3.91719 -0.441584 0
M  V30 2830 H 276.495 5.08696 -0.103055 0
M  V30 2831 H 275.893 4.7573 3.061 0
M  V30 2832 H 274.45 5.6798 3.19754 0
M  V30 2833 N 277.883 0.443576 1.51229 0
M  V30 2834 C 279.111 -0.11929 2.06556 0
M  V30 2835 C 279.526 -1.35921 1.31038 0
M  V30 2836 O 278.883 -1.78675 0.371704 0
M  V30 2837 C 278.934 -0.435228 3.5887 0
M  V30 2838 O 278.655 0.755486 4.31537 0
M  V30 2839 C 280.156 -1.04808 4.30732 0
M  V30 2840 H 277.376 -0.0051584 0.67098 0
M  V30 2841 H 279.92 0.624453 1.94733 0
M  V30 2842 H 278.075 -1.12887 3.70588 0
M  V30 2843 H 278.489 0.483491 5.22267 0
M  V30 2844 H 279.963 -1.2191 5.3837 0
M  V30 2845 H 280.44 -2.03081 3.89429 0
M  V30 2846 H 281.046 -0.393637 4.23474 0
M  V30 2847 N 279.361 -1.56624 0.175154 0
M  V30 2848 C 280.777 -1.58571 -0.180966 0
M  V30 2849 C 280.977 -1.19065 -1.6256 0
M  V30 2850 O 280.033 -0.904044 -2.35761 0
M  V30 2851 C 281.346 -3.00522 0.103326 0
M  V30 2852 C 282.894 -3.12972 0.0418426 0
M  V30 2853 C 283.369 -4.57022 0.299175 0
M  V30 2854 N 284.86 -4.62541 0.247086 0
M  V30 2855 C 285.595 -5.71857 0.420318 0
M  V30 2856 N 285.091 -6.89717 0.652816 0
M  V30 2857 N 286.884 -5.60972 0.355957 0
M  V30 2858 H 279.035 -1.80589 1.11809 0
M  V30 2859 H 281.298 -0.837178 0.444788 0
M  V30 2860 H 281.004 -3.33916 1.10422 0
M  V30 2861 H 280.878 -3.72344 -0.603299 0
M  V30 2862 H 283.265 -2.79403 -0.949636 0
M  V30 2863 H 283.346 -2.43578 0.781238 0
M  V30 2864 H 282.99 -4.913 1.28788 0
M  V30 2865 H 282.92 -5.24579 -0.460876 0
M  V30 2866 H 285.411 -3.77829 0.0731895 0
M  V30 2867 H 285.724 -7.68911 0.774347 0
M  V30 2868 H 284.069 -6.91572 0.689476 0
M  V30 2869 H 287.26 -4.67773 0.174882 0
M  V30 2870 H 287.433 -6.46111 0.494388 0
M  V30 2871 N 280.839 0.0985539 -1.57292 0
M  V30 2872 C 281.787 1.1387 -2.02821 0
M  V30 2873 C 282.781 1.41676 -0.928666 0
M  V30 2874 O 283.987 1.41398 -1.11385 0
M  V30 2875 H 280.362 0.384419 -0.646317 0
M  V30 2876 H 282.333 0.728347 -2.89375 0
M  V30 2877 C 281.082 2.45166 -2.46554 0
M  V30 2878 H 280.405 2.24613 -3.3074 0
M  V30 2879 H 281.845 3.16456 -2.8219 0
M  V30 2880 C 280.304 3.09216 -1.33742 0
M  V30 2881 O 280.834 3.96163 -0.66464 0
M  V30 2882 N 279.04 2.69413 -1.08928 0
M  V30 2883 H 278.587 1.98801 -1.63817 0
M  V30 2884 H 278.545 3.12594 -0.336458 0
M  V30 2885 N 282.317 1.53212 0.369288 0
M  V30 2886 C 283.728 1.60943 0.946276 0
M  V30 2887 C 284.079 0.47452 1.90375 0
M  V30 2888 O 283.204 -0.399597 2.12679 0
M  V30 2889 C 283.799 2.91715 1.72302 0
M  V30 2890 C 282.358 3.01792 2.24941 0
M  V30 2891 C 281.505 2.56211 1.06072 0
M  V30 2892 H 284.456 1.58007 0.148198 0
M  V30 2893 H 284.477 2.79309 2.58393 0
M  V30 2894 H 283.989 3.74295 1.0259 0
M  V30 2895 H 282.09 2.23791 2.97906 0
M  V30 2896 H 282.203 4.06803 2.53077 0
M  V30 2897 H 280.567 2.10998 1.4266 0
M  V30 2898 H 281.35 3.41206 0.378639 0
M  V30 2899 N 283.795 -0.628877 1.44509 0
M  V30 2900 C 285.025 -1.41349 1.50678 0
M  V30 2901 C 285.433 -1.88745 0.131075 0
M  V30 2902 O 284.776 -1.61592 -0.87371 0
M  V30 2903 C 284.838 -2.66608 2.41165 0
M  V30 2904 C 284.502 -2.40993 3.88293 0
M  V30 2905 C 285.499 -2.0268 4.78766 0
M  V30 2906 C 283.184 -2.54563 4.33016 0
M  V30 2907 C 285.178 -1.78269 6.11963 0
M  V30 2908 C 282.865 -2.29766 5.6626 0
M  V30 2909 C 283.863 -1.91678 6.55552 0
M  V30 2910 O 283.551 -1.67158 7.86329 0
M  V30 2911 H 283.283 -0.439851 0.51333 0
M  V30 2912 H 285.837 -0.776084 1.90174 0
M  V30 2913 H 284.067 -3.32994 1.96601 0
M  V30 2914 H 285.756 -3.28615 2.38259 0
M  V30 2915 H 286.522 -1.91751 4.45485 0
M  V30 2916 H 282.401 -2.83179 3.63773 0
M  V30 2917 H 285.945 -1.48465 6.81619 0
M  V30 2918 H 281.842 -2.40306 5.99102 0
M  V30 2919 H 282.61 -1.81386 7.98149 0
M  V30 2920 N 285.273 -1.31445 -0.869486 0
M  V30 2921 C 286.689 -1.10113 -1.15531 0
M  V30 2922 C 286.889 0.128087 -2.01092 0
M  V30 2923 O 285.945 0.817276 -2.38908 0
M  V30 2924 C 287.258 -2.37291 -1.84698 0
M  V30 2925 C 288.806 -2.42906 -1.97397 0
M  V30 2926 C 289.281 -3.69967 -2.69979 0
M  V30 2927 N 290.772 -3.70864 -2.77514 0
M  V30 2928 C 291.507 -4.65875 -3.34287 0
M  V30 2929 N 291.003 -5.71242 -3.91988 0
M  V30 2930 N 292.796 -4.53394 -3.3225 0
M  V30 2931 H 284.947 -2.1028 -0.299347 0
M  V30 2932 H 287.21 -0.927683 -0.195214 0
M  V30 2933 H 286.916 -3.27078 -1.29278 0
M  V30 2934 H 286.79 -2.47125 -2.84972 0
M  V30 2935 H 289.177 -1.53588 -2.51982 0
M  V30 2936 H 289.258 -2.37036 -0.961643 0
M  V30 2937 H 288.902 -4.59652 -2.16062 0
M  V30 2938 H 288.832 -3.73103 -3.7162 0
M  V30 2939 H 291.323 -2.94697 -2.36563 0
M  V30 2940 H 291.636 -6.39817 -4.33421 0
M  V30 2941 H 289.981 -5.75015 -3.90362 0
M  V30 2942 H 293.172 -3.70252 -2.8641 0
M  V30 2943 H 293.345 -5.27617 -3.76197 0
M  V30 2944 N 286.751 1.08385 -1.14413 0
M  V30 2945 C 288 1.80153 -0.907076 0
M  V30 2946 C 288.313 1.87176 0.567851 0
M  V30 2947 O 289.519 2.55359 0.922172 0
M  V30 2948 C 287.975 3.23687 -1.57336 0
M  V30 2949 C 287.583 3.24897 -3.08457 0
M  V30 2950 C 289.327 4.00136 -1.41744 0
M  V30 2951 C 287.234 4.6302 -3.67921 0
M  V30 2952 H 286.164 0.675139 -0.335714 0
M  V30 2953 H 288.815 1.21733 -1.37307 0
M  V30 2954 H 287.197 3.82234 -1.03505 0
M  V30 2955 H 288.371 2.76055 -3.68958 0
M  V30 2956 H 286.686 2.61943 -3.2369 0
M  V30 2957 H 289.283 5.02201 -1.83572 0
M  V30 2958 H 289.626 4.14709 -0.363576 0
M  V30 2959 H 290.159 3.48058 -1.92614 0
M  V30 2960 H 286.898 4.5365 -4.73161 0
M  V30 2961 H 286.418 5.12143 -3.12201 0
M  V30 2962 H 288.097 5.31994 -3.68227 0
M  V30 2963 N 288.23 0.939286 1.26551 0
M  V30 2964 C 289.455 0.602008 1.98471 0
M  V30 2965 C 289.88 -0.815624 1.69497 0
M  V30 2966 O 289.238 -1.54912 0.941905 0
M  V30 2967 C 289.286 0.848407 3.50477 0
M  V30 2968 O 288.39 -0.0804009 4.12322 0
M  V30 2969 H 287.731 0.23049 0.622712 0
M  V30 2970 H 290.261 1.2617 1.61066 0
M  V30 2971 H 290.271 0.768553 4.00696 0
M  V30 2972 H 288.946 1.88171 3.70897 0
M  V30 2973 H 287.523 0.0503508 3.72866 0
M  V30 2974 N 289.708 -1.40897 0.706093 0
M  V30 2975 C 290.658 -2.27987 0.0240746 0
M  V30 2976 C 291.642 -1.42759 -0.742204 0
M  V30 2977 O 292.834 -1.65936 -0.615966 0
M  V30 2978 C 289.963 -3.31186 -0.903907 0
M  V30 2979 C 289.049 -4.2389 -0.133318 0
M  V30 2980 N 289.44 -4.98113 0.878444 0
M  V30 2981 C 287.738 -4.44485 -0.367269 0
M  V30 2982 C 288.439 -5.6604 1.34064 0
M  V30 2983 N 287.415 -5.39522 0.664565 0
M  V30 2984 H 291.217 -2.82812 0.799658 0
M  V30 2985 H 288.731 -1.53235 0.537845 0
M  V30 2986 H 290.728 -3.92413 -1.40775 0
M  V30 2987 H 289.388 -2.77922 -1.67897 0
M  V30 2988 H 290.399 -5.02364 1.25901 0
M  V30 2989 H 287.076 -4.02213 -1.1194 0
M  V30 2990 H 288.466 -6.35524 2.1808 0
M  V30 2991 N 291.186 -0.45159 -1.50991 0
M  V30 2992 C 292.411 0.110667 -2.07105 0
M  V30 2993 C 292.836 1.3446 -1.31538 0
M  V30 2994 O 292.194 1.77743 -0.357365 0
M  V30 2995 C 292.242 0.397238 -3.58405 0
M  V30 2996 O 291.346 1.48124 -3.84881 0
M  V30 2997 H 290.687 -0.00439271 -0.663985 0
M  V30 2998 H 293.217 -0.637026 -1.9443 0
M  V30 2999 H 293.227 0.64351 -4.02893 0
M  V30 3000 H 291.902 -0.504553 -4.12828 0
M  V30 3001 H 290.479 1.22381 -3.52246 0
M  V30 3002 N 292.664 1.56529 -0.183458 0
M  V30 3003 C 294.075 1.83739 0.331177 0
M  V30 3004 C 294.426 1.10373 1.62211 0
M  V30 3005 O 293.551 0.36071 2.13373 0
M  V30 3006 C 294.146 3.33306 0.607646 0
M  V30 3007 C 292.705 3.60969 1.06668 0
M  V30 3008 C 291.852 2.77086 0.109029 0
M  V30 3009 H 294.803 1.53379 -0.407484 0
M  V30 3010 H 294.824 3.51444 1.45832 0
M  V30 3011 H 294.336 3.86677 -0.332086 0
M  V30 3012 H 292.437 3.13021 2.0211 0
M  V30 3013 H 292.55 4.69231 0.967447 0
M  V30 3014 H 290.914 2.47319 0.608714 0
M  V30 3015 H 291.697 3.33241 -0.82494 0
M  V30 3016 N 294.142 -0.090211 1.57342 0
M  V30 3017 C 295.382 -0.798365 1.88163 0
M  V30 3018 C 295.746 -1.75662 0.775046 0
M  V30 3019 O 296.947 -2.50849 0.965816 0
M  V30 3020 C 295.218 -1.50376 3.24225 0
M  V30 3021 S 296.777 -2.24952 3.76752 0
M  V30 3022 H 293.595 -0.265883 0.659414 0
M  V30 3023 H 296.197 -0.055264 1.95422 0
M  V30 3024 H 294.901 -0.792286 4.0268 0
M  V30 3025 H 294.432 -2.28666 3.20118 0
M  V30 3026 H 296.447 -3.51173 3.5056 0
M  V30 3027 N 295.62 -1.53406 -0.361157 0
M  V30 3028 C 296.868 -1.69467 -1.10115 0
M  V30 3029 C 297.189 -0.451352 -1.89705 0
M  V30 3030 O 296.459 0.534636 -1.88463 0
M  V30 3031 H 295.039 -0.624749 -0.409508 0
M  V30 3032 H 297.701 -1.90609 -0.406699 0
M  V30 3033 H 296.797 -2.55774 -1.78847 0
M  V30 3034 N 297.098 0.621204 -1.44841 0
M  V30 3035 C 298.323 1.41244 -1.51871 0
M  V30 3036 C 298.748 1.87519 -0.147764 0
M  V30 3037 O 298.106 1.59334 0.865 0
M  V30 3038 C 298.154 2.60221 -2.49634 0
M  V30 3039 O 297.258 3.60395 -2.00473 0
M  V30 3040 H 296.599 0.42223 -0.512463 0
M  V30 3041 H 299.129 0.757305 -1.90069 0
M  V30 3042 H 299.139 3.0764 -2.67996 0
M  V30 3043 H 297.814 2.25887 -3.4921 0
M  V30 3044 H 296.391 3.19717 -1.91925 0
M  V30 3045 N 298.576 1.31904 0.862503 0
M  V30 3046 C 299.801 1.25135 1.65397 0
M  V30 3047 C 300.226 -0.179 1.87246 0
M  V30 3048 O 299.584 -1.1277 1.4196 0
M  V30 3049 C 299.632 2.00832 2.99498 0
M  V30 3050 O 298.736 1.35075 3.89652 0
M  V30 3051 H 298.077 0.431655 0.504549 0
M  V30 3052 H 300.607 1.74094 1.07483 0
M  V30 3053 H 300.617 2.10709 3.49379 0
M  V30 3054 H 299.292 3.04847 2.82916 0
M  V30 3055 H 297.869 1.33696 3.48109 0
M  V30 3056 N 300.054 -1.07777 1.14986 0
M  V30 3057 C 301.279 -1.84558 0.946213 0
M  V30 3058 C 301.704 -1.81323 -0.500362 0
M  V30 3059 O 301.062 -1.20301 -1.35637 0
M  V30 3060 C 301.11 -3.29736 1.45968 0
M  V30 3061 O 300.214 -4.07149 0.65601 0
M  V30 3062 H 299.555 -0.571641 0.33782 0
M  V30 3063 H 302.085 -1.35991 1.52865 0
M  V30 3064 H 302.095 -3.80574 1.47063 0
M  V30 3065 H 300.77 -3.31406 2.51283 0
M  V30 3066 H 299.347 -3.65994 0.714322 0
M  V30 3067 N 301.532 -0.945985 -1.26051 0
M  V30 3068 C 302.78 -0.594941 -1.93145 0
M  V30 3069 C 303.101 0.86953 -1.7454 0
M  V30 3070 O 302.371 1.61838 -1.10387 0
M  V30 3071 H 300.951 -0.217044 -0.714773 0
M  V30 3072 H 303.613 -1.20235 -1.53393 0
M  V30 3073 H 302.709 -0.816835 -3.01221 0
M  V30 3074 N 303.011 1.40521 -0.713556 0
M  V30 3075 C 304.236 2.05759 -0.26035 0
M  V30 3076 C 304.661 1.53403 1.08854 0
M  V30 3077 O 304.019 0.668535 1.68524 0
M  V30 3078 C 304.067 3.59745 -0.248122 0
M  V30 3079 O 303.171 4.05123 0.77131 0
M  V30 3080 H 302.512 0.652564 -0.122703 0
M  V30 3081 H 305.042 1.79958 -0.973467 0
M  V30 3082 H 305.052 4.07911 -0.0851129 0
M  V30 3083 H 303.727 3.97218 -1.2325 0
M  V30 3084 H 302.304 3.68422 0.57619 0
M  V30 3085 N 304.489 0.459591 1.5075 0
M  V30 3086 C 305.452 -0.329093 2.26825 0
M  V30 3087 C 306.452 -0.930481 1.31144 0
M  V30 3088 O 307.642 -0.801453 1.54669 0
M  V30 3089 C 304.774 -1.46768 3.07688 0
M  V30 3090 H 305.967 0.337924 2.9799 0
M  V30 3091 H 303.52 0.213336 1.54837 0
M  V30 3092 H 304.255 -2.17009 2.40993 0
M  V30 3093 H 304.04 -1.04238 3.77991 0
M  V30 3094 H 305.53 -2.02433 3.65254 0
M  V30 3095 N 305.967 -1.56429 0.191757 0
M  V30 3096 C 307.213 -1.97777 -0.448554 0
M  V30 3097 C 307.546 -1.07847 -1.61501 0
M  V30 3098 O 306.821 -0.129774 -1.94067 0
M  V30 3099 C 307.104 -3.48362 -0.911906 0
M  V30 3100 C 306.957 -4.4907 0.256136 0
M  V30 3101 C 308.276 -4.02561 -1.77857 0
M  V30 3102 H 305.395 -0.719071 -0.161572 0
M  V30 3103 H 308.037 -1.87896 0.282007 0
M  V30 3104 H 306.187 -3.56914 -1.53442 0
M  V30 3105 H 307.859 -4.5256 0.893733 0
M  V30 3106 H 306.102 -4.24181 0.908436 0
M  V30 3107 H 306.773 -5.51889 -0.11053 0
M  V30 3108 H 309.249 -3.96767 -1.25359 0
M  V30 3109 H 308.125 -5.08301 -2.07174 0
M  V30 3110 H 308.386 -3.47616 -2.73158 0
M  V30 3111 N 307.445 0.0818655 -1.57387 0
M  V30 3112 C 308.408 1.08265 -2.02018 0
M  V30 3113 C 309.408 1.32183 -0.915664 0
M  V30 3114 O 310.598 1.28073 -1.18081 0
M  V30 3115 C 307.73 2.42871 -2.39221 0
M  V30 3116 H 308.923 0.698204 -2.91659 0
M  V30 3117 H 306.476 0.327303 -1.52835 0
M  V30 3118 H 307.211 2.86167 -1.52575 0
M  V30 3119 H 306.996 2.26855 -3.19811 0
M  V30 3120 H 308.486 3.14826 -2.74362 0
M  V30 3121 N 308.923 1.53595 0.353017 0
M  V30 3122 C 310.169 1.70638 1.09593 0
M  V30 3123 C 310.502 0.463286 1.88593 0
M  V30 3124 O 309.777 -0.539597 1.86865 0
M  V30 3125 C 310.06 2.96406 2.04489 0
M  V30 3126 C 309.913 4.30901 1.29014 0
M  V30 3127 C 311.232 3.17812 3.0444 0
M  V30 3128 H 308.351 0.620913 0.397034 0
M  V30 3129 H 310.993 1.86254 0.375446 0
M  V30 3130 H 309.143 2.83223 2.65927 0
M  V30 3131 H 310.815 4.55917 0.702638 0
M  V30 3132 H 309.058 4.29741 0.592071 0
M  V30 3133 H 309.729 5.1506 1.98537 0
M  V30 3134 H 312.205 3.30263 2.53112 0
M  V30 3135 H 311.081 4.07223 3.6805 0
M  V30 3136 H 311.342 2.33669 3.75301 0
M  V30 3137 N 310.401 -0.613514 1.45168 0
M  V30 3138 C 311.364 -1.7065 1.53007 0
M  V30 3139 C 312.364 -1.5548 0.410184 0
M  V30 3140 O 313.554 -1.60656 0.673455 0
M  V30 3141 C 310.686 -3.09875 1.42093 0
M  V30 3142 H 311.879 -1.65068 2.50385 0
M  V30 3143 H 309.432 -0.828728 1.32521 0
M  V30 3144 H 310.167 -3.21039 0.458769 0
M  V30 3145 H 309.952 -3.22293 2.23315 0
M  V30 3146 H 311.442 -3.895 1.50598 0
M  V30 3147 N 311.879 -1.3236 -0.855495 0
M  V30 3148 C 312.842 -1.21164 -1.94556 0
M  V30 3149 C 313.842 -0.134908 -1.60233 0
M  V30 3150 O 315.032 -0.385249 -1.69887 0
M  V30 3151 C 312.164 -0.863192 -3.29791 0
M  V30 3152 H 313.357 -2.18038 -2.05911 0
M  V30 3153 H 310.91 -1.16179 -1.04557 0
M  V30 3154 H 311.645 0.103769 -3.24134 0
M  V30 3155 H 311.43 -1.64166 -3.56078 0
M  V30 3156 H 312.92 -0.809156 -4.09686 0
M  V30 3157 N 313.357 1.07166 -1.15556 0
M  V30 3158 C 314.305 2.16517 -0.8499 0
M  V30 3159 C 315.299 1.68468 0.177454 0
M  V30 3160 O 316.505 1.79971 0.0323026 0
M  V30 3161 H 312.88 0.706652 -0.25719 0
M  V30 3162 H 314.851 2.39514 -1.77976 0
M  V30 3163 C 313.6 3.45855 -0.357682 0
M  V30 3164 H 312.923 3.83214 -1.13961 0
M  V30 3165 H 314.363 4.23607 -0.182489 0
M  V30 3166 C 312.822 3.24062 0.921152 0
M  V30 3167 O 313.352 3.48813 1.9923 0
M  V30 3168 N 311.558 2.77539 0.86141 0
M  V30 3169 H 311.105 2.57598 -0.0104408 0
M  V30 3170 H 311.063 2.63337 1.71758 0
M  V30 3171 N 314.835 0.952656 1.25548 0
M  V30 3172 C 315.765 0.489287 2.28316 0
M  V30 3173 C 316.746 -0.463359 1.63667 0
M  V30 3174 O 317.931 -0.36274 1.90782 0
M  V30 3175 C 315.061 -0.235603 3.465 0
M  V30 3176 C 314.015 0.631593 4.23314 0
M  V30 3177 C 313.341 -0.223923 5.34231 0
M  V30 3178 C 314.641 1.90871 4.86174 0
M  V30 3179 H 316.335 1.34822 2.67326 0
M  V30 3180 H 313.881 0.649728 1.28509 0
M  V30 3181 H 315.834 -0.570882 4.17515 0
M  V30 3182 H 314.558 -1.12877 3.06474 0
M  V30 3183 H 313.217 0.949929 3.54079 0
M  V30 3184 H 312.865 -1.11678 4.90446 0
M  V30 3185 H 312.565 0.35299 5.86539 0
M  V30 3186 H 314.089 -0.554214 6.0808 0
M  V30 3187 H 315.503 1.63997 5.49343 0
M  V30 3188 H 313.9 2.43112 5.4865 0
M  V30 3189 H 314.97 2.61304 4.08471 0
M  V30 3190 N 316.313 -1.40141 0.720998 0
M  V30 3191 C 317.276 -2.29058 0.0805834 0
M  V30 3192 C 318.276 -1.45632 -0.681758 0
M  V30 3193 O 319.466 -1.6648 -0.512856 0
M  V30 3194 C 316.598 -3.28925 -0.895593 0
M  V30 3195 H 317.791 -2.87191 0.863793 0
M  V30 3196 H 315.344 -1.48553 0.485975 0
M  V30 3197 H 316.079 -2.75822 -1.70566 0
M  V30 3198 H 315.864 -3.90519 -0.351766 0
M  V30 3199 H 317.354 -3.95494 -1.34069 0
M  V30 3200 N 317.792 -0.46758 -1.50504 0
M  V30 3201 C 319.017 0.0886943 -2.0721 0
M  V30 3202 C 319.442 1.33057 -1.32956 0
M  V30 3203 O 318.8 1.77354 -0.376197 0
M  V30 3204 C 318.848 0.359202 -3.58806 0
M  V30 3205 O 317.952 1.44034 -3.8643 0
M  V30 3206 H 317.293 -0.0114349 -0.663902 0
M  V30 3207 H 319.823 -0.657613 -1.93744 0
M  V30 3208 H 319.833 0.600742 -4.03553 0
M  V30 3209 H 318.508 -0.548311 -4.1227 0
M  V30 3210 H 317.085 1.18638 -3.53524 0
M  V30 3211 N 319.27 1.56325 -0.20005 0
M  V30 3212 C 320.516 1.98012 0.438059 0
M  V30 3213 C 320.849 1.08702 1.60927 0
M  V30 3214 O 320.124 0.140064 1.93995 0
M  V30 3215 C 320.407 3.48841 0.893419 0
M  V30 3216 C 320.26 4.48928 -0.279947 0
M  V30 3217 C 321.579 4.03498 1.75719 0
M  V30 3218 H 318.698 0.719918 0.157757 0
M  V30 3219 H 321.34 1.87743 -0.291968 0
M  V30 3220 H 319.49 3.57723 1.51547 0
M  V30 3221 H 321.162 4.52079 -0.91772 0
M  V30 3222 H 319.405 4.23694 -0.930919 0
M  V30 3223 H 320.076 5.5194 0.0812601 0
M  V30 3224 H 322.552 3.97427 1.23253 0
M  V30 3225 H 321.428 5.09393 2.04476 0
M  V30 3226 H 321.689 3.4906 2.71311 0
M  V30 3227 N 320.748 -0.0735177 1.57428 0
M  V30 3228 C 321.711 -1.07192 2.02589 0
M  V30 3229 C 322.711 -1.31695 0.922661 0
M  V30 3230 O 323.901 -1.27445 1.18758 0
M  V30 3231 C 321.033 -2.41599 2.40506 0
M  V30 3232 H 322.226 -0.682727 2.92025 0
M  V30 3233 H 319.779 -0.319193 1.53006 0
M  V30 3234 H 320.514 -2.85354 1.5409 0
M  V30 3235 H 320.299 -2.25156 3.21009 0
M  V30 3236 H 321.789 -3.13367 2.76027 0
M  V30 3237 N 322.226 -1.5378 -0.344866 0
M  V30 3238 C 323.475 -1.7018 -1.08267 0
M  V30 3239 C 323.788 -0.471 -1.89845 0
M  V30 3240 O 324.994 -0.515917 -2.66553 0
M  V30 3241 C 323.45 -3.00923 -1.97417 0
M  V30 3242 C 323.058 -4.31335 -1.21053 0
M  V30 3243 C 324.802 -3.26688 -2.71063 0
M  V30 3244 C 322.709 -5.53153 -2.09225 0
M  V30 3245 H 321.639 -0.634138 -0.407903 0
M  V30 3246 H 324.29 -1.8028 -0.342246 0
M  V30 3247 H 322.672 -2.84676 -2.75274 0
M  V30 3248 H 323.846 -4.58281 -0.481159 0
M  V30 3249 H 322.161 -4.12173 -0.591813 0
M  V30 3250 H 324.758 -4.1489 -3.37299 0
M  V30 3251 H 325.101 -2.43639 -3.37558 0
M  V30 3252 H 325.634 -3.43705 -2.0028 0
M  V30 3253 H 322.373 -6.38741 -1.47274 0
M  V30 3254 H 321.893 -5.30458 -2.79955 0
M  V30 3255 H 323.572 -5.88744 -2.68308 0
M  V30 3256 N 323.704 0.605807 -1.45491 0
M  V30 3257 C 324.952 1.36207 -1.49305 0
M  V30 3258 C 325.273 1.94519 -0.136863 0
M  V30 3259 O 324.543 1.77261 0.833983 0
M  V30 3260 H 323.123 0.50565 -0.549843 0
M  V30 3261 H 325.785 0.711239 -1.81459 0
M  V30 3262 H 324.881 2.18058 -2.23287 0
M  V30 3263 N 325.182 1.32811 0.848464 0
M  V30 3264 C 326.41 1.26739 1.63538 0
M  V30 3265 C 326.825 -0.163484 1.88091 0
M  V30 3266 O 326.182 -1.10258 1.45429 0
M  V30 3267 C 326.233 2.03013 2.99112 0
M  V30 3268 O 325.954 3.40518 2.75643 0
M  V30 3269 C 327.455 2.04038 3.93552 0
M  V30 3270 H 324.675 0.437024 0.509167 0
M  V30 3271 H 327.219 1.75033 1.05753 0
M  V30 3272 H 325.374 1.58426 3.53525 0
M  V30 3273 H 325.788 3.79635 3.61908 0
M  V30 3274 H 327.262 2.61877 4.85926 0
M  V30 3275 H 327.739 1.0282 4.26995 0
M  V30 3276 H 328.345 2.486 3.45077 0
M  V30 3277 N 326.66 -1.06551 1.16123 0
M  V30 3278 C 327.57 -2.17484 0.879662 0
M  V30 3279 C 328.586 -1.73377 -0.147104 0
M  V30 3280 O 329.762 -2.01379 0.0289128 0
M  V30 3281 C 326.827 -3.44591 0.381829 0
M  V30 3282 C 325.888 -4.0322 1.4735 0
M  V30 3283 C 325.121 -5.24261 0.999324 0
M  V30 3284 O 325.344 -5.70198 -0.151957 0
M  V30 3285 O 324.278 -5.74775 1.78653 0
M  V30 3286 H 328.104 -2.44075 1.80724 0
M  V30 3287 H 325.689 -1.16042 0.940992 0
M  V30 3288 H 327.571 -4.21254 0.111053 0
M  V30 3289 H 326.246 -3.19532 -0.51777 0
M  V30 3290 H 325.153 -3.2806 1.79798 0
M  V30 3291 H 326.486 -4.32568 2.34831 0
M  V30 3292 N 328.138 -0.959301 -1.25041 0
M  V30 3293 C 329.366 -0.633949 -1.96948 0
M  V30 3294 C 329.781 0.794916 -1.7125 0
M  V30 3295 O 329.138 1.53231 -0.991287 0
M  V30 3296 C 329.189 -0.888805 -3.50403 0
M  V30 3297 O 328.91 -2.26149 -3.75218 0
M  V30 3298 C 330.411 -0.576482 -4.39536 0
M  V30 3299 H 327.631 -0.237263 -0.627652 0
M  V30 3300 H 330.175 -1.28495 -1.59089 0
M  V30 3301 H 328.33 -0.284145 -3.86357 0
M  V30 3302 H 328.744 -2.33514 -4.6965 0
M  V30 3303 H 330.218 -0.805314 -5.46094 0
M  V30 3304 H 330.695 0.489075 -4.36468 0
M  V30 3305 H 331.301 -1.16067 -4.09156 0
M  V30 3306 N 329.616 1.39756 -0.72842 0
M  V30 3307 C 330.893 1.94574 -0.200079 0
M  V30 3308 C 331.273 1.66569 1.29684 0
M  V30 3309 O 330.621 0.990326 2.05924 0
M  V30 3310 C 330.831 3.45004 -0.526608 0
M  V30 3311 C 332.179 4.21965 -0.472318 0
M  V30 3312 O 333.203 3.53173 -0.463413 0
M  V30 3313 O 332.062 5.44552 -0.461075 0
M  V30 3314 H 329.156 0.826289 -0.0342851 0
M  V30 3315 H 331.702 1.49293 -0.806829 0
M  V30 3316 H 330.474 3.58796 -1.56144 0
M  V30 3317 H 330.097 3.97449 0.109449 0
M  V30 3318 N 331.094 0.475555 1.50254 0
M  V30 3319 C 332.342 -0.077738 2.0195 0
M  V30 3320 C 332.663 -1.39813 1.35931 0
M  V30 3321 O 331.933 -1.89249 0.506123 0
M  V30 3322 H 330.513 -0.031719 0.746326 0
M  V30 3323 H 333.175 0.626995 1.84539 0
M  V30 3324 H 332.271 -0.225995 3.11281 0
M  V30 3325 N 332.573 -1.56217 0.208337 0
M  V30 3326 C 333.798 -2.02782 -0.435222 0
M  V30 3327 C 334.223 -1.08738 -1.53485 0
M  V30 3328 O 333.581 -0.0731855 -1.81152 0
M  V30 3329 C 333.629 -3.47687 -0.956335 0
M  V30 3330 O 332.733 -3.56773 -2.06849 0
M  V30 3331 H 332.074 -0.656403 -0.100158 0
M  V30 3332 H 334.604 -2.02033 0.3231 0
M  V30 3333 H 334.614 -3.87745 -1.26955 0
M  V30 3334 H 333.289 -4.15624 -0.15143 0
M  V30 3335 H 331.866 -3.28597 -1.76292 0
M  V30 3336 N 334.051 0.0651679 -1.57465 0
M  V30 3337 C 335.3 0.761916 -1.86756 0
M  V30 3338 C 335.613 1.78406 -0.801925 0
M  V30 3339 O 336.819 2.53084 -0.982885 0
M  V30 3340 C 335.275 1.40603 -3.31299 0
M  V30 3341 C 334.883 0.422115 -4.46007 0
M  V30 3342 C 336.627 2.08476 -3.69781 0
M  V30 3343 C 334.534 1.07252 -5.81593 0
M  V30 3344 H 333.464 0.288308 -0.696702 0
M  V30 3345 H 336.115 0.015344 -1.83494 0
M  V30 3346 H 334.497 2.20109 -3.29193 0
M  V30 3347 H 335.671 -0.343613 -4.59517 0
M  V30 3348 H 333.986 -0.152527 -4.16121 0
M  V30 3349 H 336.583 2.57925 -4.68379 0
M  V30 3350 H 336.926 2.88712 -2.99919 0
M  V30 3351 H 337.459 1.35792 -3.73905 0
M  V30 3352 H 334.198 0.310342 -6.54765 0
M  V30 3353 H 333.718 1.80895 -5.71872 0
M  V30 3354 H 335.397 1.59043 -6.27148 0
M  V30 3355 N 335.529 1.53961 0.336706 0
M  V30 3356 C 336.775 1.7179 1.07777 0
M  V30 3357 C 337.108 0.483263 1.88091 0
M  V30 3358 O 336.383 -0.519747 1.87427 0
M  V30 3359 C 336.666 2.98558 2.01334 0
M  V30 3360 C 336.519 4.32245 1.24437 0
M  V30 3361 C 337.838 3.21023 3.01052 0
M  V30 3362 H 334.957 0.625089 0.390426 0
M  V30 3363 H 337.599 1.86641 0.35567 0
M  V30 3364 H 335.749 2.86028 2.62908 0
M  V30 3365 H 337.421 4.56637 0.654243 0
M  V30 3366 H 335.664 4.30344 0.546458 0
M  V30 3367 H 336.335 5.17137 1.93063 0
M  V30 3368 H 338.811 3.32929 2.49595 0
M  V30 3369 H 337.687 4.11104 3.6371 0
M  V30 3370 H 337.948 2.37637 3.72802 0
M  V30 3371 N 337.007 -0.598083 1.45811 0
M  V30 3372 C 338.247 -1.36802 1.5187 0
M  V30 3373 C 338.611 -1.9133 0.160224 0
M  V30 3374 O 339.812 -2.6863 0.0955302 0
M  V30 3375 C 338.083 -2.47835 2.57513 0
M  V30 3376 S 339.642 -3.35458 2.82866 0
M  V30 3377 H 336.46 -0.466278 0.536755 0
M  V30 3378 H 339.062 -0.689152 1.82951 0
M  V30 3379 H 337.766 -2.06141 3.54872 0
M  V30 3380 H 337.297 -3.20512 2.28114 0
M  V30 3381 H 339.312 -4.46251 2.16967 0
M  V30 3382 N 338.485 -1.33259 -0.841409 0
M  V30 3383 C 339.896 -1.22066 -1.41269 0
M  V30 3384 C 340.247 0.161479 -1.95534 0
M  V30 3385 O 339.372 1.06094 -1.88608 0
M  V30 3386 C 339.967 -2.20996 -2.568 0
M  V30 3387 C 338.526 -2.13649 -3.09888 0
M  V30 3388 C 337.673 -2.08623 -1.82679 0
M  V30 3389 H 340.624 -1.44895 -0.647395 0
M  V30 3390 H 340.645 -1.81621 -3.34356 0
M  V30 3391 H 340.157 -3.2158 -2.17274 0
M  V30 3392 H 338.258 -1.16359 -3.53965 0
M  V30 3393 H 338.371 -3.04079 -3.70234 0
M  V30 3394 H 336.735 -1.54061 -2.02824 0
M  V30 3395 H 337.518 -3.1101 -1.45353 0
M  V30 3396 N 339.963 1.05934 -1.16686 0
M  V30 3397 C 340.926 2.11669 -0.879144 0
M  V30 3398 C 341.926 1.60294 0.127445 0
M  V30 3399 O 343.116 1.7389 -0.103865 0
M  V30 3400 C 340.248 3.39438 -0.315425 0
M  V30 3401 H 341.441 2.38626 -1.81653 0
M  V30 3402 H 338.994 1.22058 -0.976299 0
M  V30 3403 H 339.729 3.18132 0.629468 0
M  V30 3404 H 339.514 3.78034 -1.04079 0
M  V30 3405 H 341.004 4.17391 -0.132189 0
M  V30 3406 N 341.441 0.965919 1.2453 0
M  V30 3407 C 342.404 0.499547 2.2369 0
M  V30 3408 C 343.404 -0.40294 1.5567 0
M  V30 3409 O 344.594 -0.19865 1.73064 0
M  V30 3410 C 341.726 -0.276792 3.39774 0
M  V30 3411 H 342.919 1.37613 2.66463 0
M  V30 3412 H 340.472 0.750324 1.37112 0
M  V30 3413 H 341.207 -1.17055 3.02438 0
M  V30 3414 H 340.992 0.370826 3.90343 0
M  V30 3415 H 342.482 -0.592175 4.1338 0
M  V30 3416 N 342.919 -1.39368 0.735821 0
M  V30 3417 C 344.168 -1.99733 0.281004 0
M  V30 3418 C 344.481 -1.59055 -1.13846 0
M  V30 3419 O 345.687 -2.12262 -1.69284 0
M  V30 3420 C 344.143 -3.57057 0.451462 0
M  V30 3421 C 343.751 -4.06697 1.87886 0
M  V30 3422 C 345.495 -4.2446 0.0584616 0
M  V30 3423 C 343.402 -5.56598 1.99883 0
M  V30 3424 H 342.332 -0.747163 0.101311 0
M  V30 3425 H 344.983 -1.59357 0.909819 0
M  V30 3426 H 343.365 -3.95234 -0.246263 0
M  V30 3427 H 344.539 -3.79853 2.60861 0
M  V30 3428 H 342.854 -3.5196 2.22515 0
M  V30 3429 H 345.451 -5.34549 0.127099 0
M  V30 3430 H 345.794 -4.04444 -0.986433 0
M  V30 3431 H 346.327 -3.9146 0.707374 0
M  V30 3432 H 343.066 -5.81494 3.02564 0
M  V30 3433 H 342.586 -5.85242 1.31346 0
M  V30 3434 H 344.265 -6.22022 1.78039 0
M  V30 3435 N 344.397 -0.483516 -1.5 0
M  V30 3436 C 345.345 0.318061 -2.30415 0
M  V30 3437 C 346.339 0.978988 -1.38247 0
M  V30 3438 O 347.545 0.908673 -1.55381 0
M  V30 3439 H 343.92 0.121419 -0.742133 0
M  V30 3440 H 345.891 -0.380403 -2.95965 0
M  V30 3441 C 344.64 1.38013 -3.19136 0
M  V30 3442 H 343.963 0.880952 -3.89973 0
M  V30 3443 H 345.403 1.91332 -3.78375 0
M  V30 3444 C 343.862 2.38884 -2.37563 0
M  V30 3445 O 344.392 3.44412 -2.06744 0
M  V30 3446 N 342.598 2.10912 -1.99911 0
M  V30 3447 H 342.145 1.25118 -2.25174 0
M  V30 3448 H 342.103 2.78635 -1.45636 0
M  V30 3449 N 345.875 1.56104 -0.216619 0
M  V30 3450 C 347.123 1.97781 0.415593 0
M  V30 3451 C 347.444 1.10536 1.60645 0
M  V30 3452 O 346.714 0.181303 1.95059 0
M  V30 3453 H 345.294 0.730415 0.156534 0
M  V30 3454 H 347.956 1.92445 -0.308366 0
M  V30 3455 H 347.052 3.03072 0.74525 0
M  V30 3456 N 347.353 -0.0568162 1.57498 0
M  V30 3457 C 348.599 -0.75422 1.88253 0
M  V30 3458 C 348.932 -1.76461 0.810865 0
M  V30 3459 O 348.207 -1.93691 -0.177259 0
M  V30 3460 C 348.49 -1.44878 3.2967 0
M  V30 3461 C 348.343 -0.453789 4.47505 0
M  V30 3462 C 349.662 -2.38994 3.69554 0
M  V30 3463 H 346.781 -0.272724 0.684683 0
M  V30 3464 H 349.423 -0.0172113 1.89992 0
M  V30 3465 H 347.573 -2.077 3.28318 0
M  V30 3466 H 349.245 0.170371 4.60985 0
M  V30 3467 H 347.488 0.229552 4.33192 0
M  V30 3468 H 348.159 -0.977699 5.43273 0
M  V30 3469 H 350.635 -1.86239 3.72095 0
M  V30 3470 H 349.511 -2.84587 4.69363 0
M  V30 3471 H 349.772 -3.24461 3.00296 0
M  V30 3472 N 348.832 -1.54138 -0.328536 0
M  V30 3473 C 350.078 -1.7236 -1.06865 0
M  V30 3474 C 350.411 -0.493231 -1.87832 0
M  V30 3475 O 349.686 0.5098 -1.877 0
M  V30 3476 C 349.969 -2.99621 -1.99747 0
M  V30 3477 C 349.822 -4.32899 -1.22143 0
M  V30 3478 C 351.141 -3.22615 -2.99345 0
M  V30 3479 H 348.26 -0.627151 -0.387105 0
M  V30 3480 H 350.902 -1.86827 -0.345767 0
M  V30 3481 H 349.052 -2.87418 -2.61387 0
M  V30 3482 H 350.724 -4.56978 -0.630017 0
M  V30 3483 H 348.967 -4.30628 -0.523628 0
M  V30 3484 H 349.638 -5.18154 -1.90318 0
M  V30 3485 H 352.114 -3.34248 -2.47826 0
M  V30 3486 H 350.99 -4.13027 -3.61524 0
M  V30 3487 H 351.251 -2.3961 -3.71536 0
M  V30 3488 N 350.31 0.590341 -1.46126 0
M  V30 3489 C 351.558 1.34616 -1.50742 0
M  V30 3490 C 351.879 1.94363 -0.157486 0
M  V30 3491 O 351.149 1.78136 0.815136 0
M  V30 3492 H 349.729 0.499789 -0.555175 0
M  V30 3493 H 352.391 0.691953 -1.82203 0
M  V30 3494 H 351.487 2.15678 -2.25587 0
M  V30 3495 N 351.788 1.33704 0.83433 0
M  V30 3496 C 352.718 1.26967 1.95963 0
M  V30 3497 C 353.699 0.149337 1.69443 0
M  V30 3498 O 354.884 0.339852 1.91203 0
M  V30 3499 C 352.014 1.01275 3.32206 0
M  V30 3500 C 350.968 2.09652 3.73136 0
M  V30 3501 C 350.294 1.69166 5.07235 0
M  V30 3502 C 351.594 3.51372 3.86439 0
M  V30 3503 H 353.288 2.2112 2.01857 0
M  V30 3504 H 350.834 1.06447 0.969793 0
M  V30 3505 H 352.787 0.952106 4.10503 0
M  V30 3506 H 351.511 0.0356203 3.26581 0
M  V30 3507 H 350.17 2.14766 2.97104 0
M  V30 3508 H 349.818 0.701437 4.98085 0
M  V30 3509 H 349.518 2.41694 5.35591 0
M  V30 3510 H 351.042 1.64576 5.88003 0
M  V30 3511 H 352.456 3.48734 4.55036 0
M  V30 3512 H 350.853 4.22425 4.26236 0
M  V30 3513 H 351.923 3.89546 2.88759 0
M  V30 3514 N 353.266 -1.05314 1.17247 0
M  V30 3515 C 354.213 -2.13031 0.888058 0
M  V30 3516 C 355.183 -1.65253 -0.167537 0
M  V30 3517 O 356.368 -1.90775 -0.0305974 0
M  V30 3518 C 353.508 -3.42702 0.406147 0
M  V30 3519 C 352.621 -4.04161 1.52572 0
M  V30 3520 C 351.756 -5.21744 0.997808 0
M  V30 3521 C 350.795 -5.75207 2.09291 0
M  V30 3522 N 349.932 -6.84094 1.57986 0
M  V30 3523 H 354.772 -2.36698 1.81048 0
M  V30 3524 H 352.309 -1.16121 0.903013 0
M  V30 3525 H 354.267 -4.17059 0.108305 0
M  V30 3526 H 352.897 -3.19222 -0.479313 0
M  V30 3527 H 351.949 -3.27253 1.93931 0
M  V30 3528 H 353.261 -4.39881 2.35172 0
M  V30 3529 H 352.415 -6.03168 0.653739 0
M  V30 3530 H 351.154 -4.87495 0.141232 0
M  V30 3531 H 350.159 -4.92414 2.44557 0
M  V30 3532 H 351.384 -6.11505 2.95362 0
M  V30 3533 H 349.33 -6.51745 0.74598 0
M  V30 3534 H 349.247 -7.18811 2.34195 0
M  V30 3535 H 350.515 -7.69172 1.26468 0
M  V30 3536 N 354.744 -0.972509 -1.24016 0
M  V30 3537 C 356.155 -0.67517 -1.74064 0
M  V30 3538 C 356.506 0.808939 -1.78747 0
M  V30 3539 O 355.631 1.63286 -1.42009 0
M  V30 3540 C 356.226 -1.21889 -3.16115 0
M  V30 3541 C 354.785 -0.971358 -3.6365 0
M  V30 3542 C 353.932 -1.35134 -2.42145 0
M  V30 3543 H 356.883 -1.14727 -1.09651 0
M  V30 3544 H 356.904 -0.587489 -3.75937 0
M  V30 3545 H 356.416 -2.29906 -3.12674 0
M  V30 3546 H 354.517 0.0930686 -3.72484 0
M  V30 3547 H 354.63 -1.62039 -4.50866 0
M  V30 3548 H 352.994 -0.769751 -2.4279 0
M  V30 3549 H 353.777 -2.4411 -2.41381 0
M  V30 3550 N 356.222 1.38976 -0.743202 0
M  V30 3551 C 357.45 2.04636 -0.30525 0
M  V30 3552 C 357.865 1.56044 1.06281 0
M  V30 3553 O 357.222 0.728921 1.67311 0
M  V30 3554 C 357.273 3.60193 -0.307177 0
M  V30 3555 O 356.994 4.06998 -1.62124 0
M  V30 3556 C 358.495 4.4306 0.145928 0
M  V30 3557 H 355.715 0.65788 -0.132041 0
M  V30 3558 H 358.259 1.77866 -1.00915 0
M  V30 3559 H 356.414 3.85835 0.347898 0
M  V30 3560 H 356.828 5.01371 -1.54036 0
M  V30 3561 H 358.302 5.51921 0.0934183 0
M  V30 3562 H 358.779 4.22706 1.19231 0
M  V30 3563 H 359.385 4.22584 -0.479886 0
M  V30 3564 N 357.7 0.491464 1.49741 0
M  V30 3565 C 358.946 -0.0565092 2.02721 0
M  V30 3566 C 359.279 -1.37522 1.37118 0
M  V30 3567 O 358.554 -1.87866 0.503645 0
M  V30 3568 C 358.837 -0.219051 3.59433 0
M  V30 3569 C 358.69 1.12211 4.35579 0
M  V30 3570 C 360.009 -0.964157 4.29409 0
M  V30 3571 H 357.128 -0.0190627 0.736753 0
M  V30 3572 H 359.77 0.641021 1.7886 0
M  V30 3573 H 357.92 -0.813165 3.79895 0
M  V30 3574 H 359.592 1.75437 4.26637 0
M  V30 3575 H 357.835 1.71377 3.98513 0
M  V30 3576 H 358.506 0.961794 5.43556 0
M  V30 3577 H 360.982 -0.460378 4.13545 0
M  V30 3578 H 359.858 -1.04671 5.38828 0
M  V30 3579 H 360.119 -2.00563 3.93988 0
M  V30 3580 N 359.178 -1.55987 0.224894 0
M  V30 3581 C 360.426 -1.97998 -0.405099 0
M  V30 3582 C 360.747 -1.11387 -1.60056 0
M  V30 3583 O 360.017 -0.191645 -1.9496 0
M  V30 3584 H 358.597 -0.731235 -0.152658 0
M  V30 3585 H 361.259 -1.92279 0.318567 0
M  V30 3586 H 360.355 -3.03463 -0.729167 0
M  V30 3587 N 360.656 0.0484629 -1.57525 0
M  V30 3588 C 361.586 1.0549 -2.08313 0
M  V30 3589 C 362.567 1.38929 -0.981463 0
M  V30 3590 O 363.752 1.48151 -1.25558 0
M  V30 3591 C 360.882 2.36162 -2.54646 0
M  V30 3592 C 359.836 2.17016 -3.68901 0
M  V30 3593 C 359.162 3.53278 -4.01371 0
M  V30 3594 C 360.462 1.57219 -4.98076 0
M  V30 3595 H 362.156 0.632195 -2.92649 0
M  V30 3596 H 359.702 0.302654 -1.40784 0
M  V30 3597 H 361.655 3.06882 -2.88793 0
M  V30 3598 H 360.379 2.80456 -1.67368 0
M  V30 3599 H 359.038 1.48733 -3.35073 0
M  V30 3600 H 358.686 3.95185 -3.11188 0
M  V30 3601 H 358.386 3.41299 -4.78318 0
M  V30 3602 H 359.91 4.25391 -4.38035 0
M  V30 3603 H 361.324 2.17832 -5.30304 0
M  V30 3604 H 359.721 1.55871 -5.79503 0
M  V30 3605 H 360.791 0.535956 -4.81929 0
M  V30 3606 N 362.134 1.5431 0.320358 0
M  V30 3607 C 363.38 1.72924 1.05949 0
M  V30 3608 C 363.713 0.503185 1.87568 0
M  V30 3609 O 362.988 -0.499839 1.87968 0
M  V30 3610 C 363.271 3.00676 1.98156 0
M  V30 3611 C 363.124 4.3354 1.19845 0
M  V30 3612 C 364.443 3.24198 2.9763 0
M  V30 3613 H 361.562 0.629195 0.383774 0
M  V30 3614 H 364.204 1.87008 0.335854 0
M  V30 3615 H 362.354 2.888 2.59859 0
M  V30 3616 H 364.026 4.57305 0.605773 0
M  V30 3617 H 362.269 4.309 0.500784 0
M  V30 3618 H 362.94 5.19156 1.87567 0
M  V30 3619 H 365.416 3.35557 2.4605 0
M  V30 3620 H 364.292 4.14938 3.59329 0
M  V30 3621 H 364.553 2.41577 3.7026 0
M  V30 3622 N 363.613 -0.582584 1.46437 0
M  V30 3623 C 364.838 -1.37168 1.55563 0
M  V30 3624 C 365.263 -1.87061 0.19743 0
M  V30 3625 O 364.621 -1.61572 -0.822451 0
M  V30 3626 C 364.669 -2.53511 2.56446 0
M  V30 3627 O 363.773 -3.54953 2.09958 0
M  V30 3628 H 363.114 -0.408494 0.523477 0
M  V30 3629 H 365.644 -0.706646 1.9201 0
M  V30 3630 H 365.654 -3.00426 2.76058 0
M  V30 3631 H 364.329 -2.16549 3.55076 0
M  V30 3632 H 362.906 -3.14516 2.00334 0
M  V30 3633 N 365.091 -1.34144 -0.827227 0
M  V30 3634 C 366.507 -1.13732 -1.11969 0
M  V30 3635 C 366.707 0.0640463 -2.01398 0
M  V30 3636 O 365.763 0.740856 -2.41387 0
M  V30 3637 C 367.076 -2.43047 -1.77055 0
M  V30 3638 C 368.624 -2.49063 -1.89569 0
M  V30 3639 C 369.099 -3.78369 -2.58072 0
M  V30 3640 N 370.59 -3.79505 -2.65575 0
M  V30 3641 C 371.325 -4.76274 -3.19297 0
M  V30 3642 N 370.821 -5.83424 -3.73616 0
M  V30 3643 N 372.614 -4.63735 -3.17658 0
M  V30 3644 H 364.765 -2.11126 -0.232296 0
M  V30 3645 H 367.028 -0.933424 -0.165602 0
M  V30 3646 H 366.734 -3.31025 -1.18807 0
M  V30 3647 H 366.608 -2.56066 -2.76966 0
M  V30 3648 H 368.995 -1.61527 -2.46968 0
M  V30 3649 H 369.076 -2.39975 -0.885745 0
M  V30 3650 H 368.72 -4.66293 -2.01329 0
M  V30 3651 H 368.65 -3.84737 -3.59562 0
M  V30 3652 H 371.141 -3.02074 -2.27068 0
M  V30 3653 H 371.454 -6.53282 -4.12846 0
M  V30 3654 H 369.799 -5.87143 -3.71871 0
M  V30 3655 H 372.99 -3.79177 -2.74486 0
M  V30 3656 H 373.163 -5.39318 -3.59221 0
M  V30 3657 N 366.569 1.04691 -1.17803 0
M  V30 3658 C 367.846 1.7472 -0.879328 0
M  V30 3659 C 368.226 2.01812 0.619271 0
M  V30 3660 O 367.574 1.65824 1.57209 0
M  V30 3661 C 367.784 3.03686 -1.71976 0
M  V30 3662 C 369.132 3.77542 -1.94286 0
M  V30 3663 O 370.156 3.13569 -1.68976 0
M  V30 3664 O 369.015 4.92506 -2.36855 0
M  V30 3665 H 366.109 0.760011 -0.326056 0
M  V30 3666 H 368.655 1.10813 -1.28525 0
M  V30 3667 H 367.427 2.79754 -2.73594 0
M  V30 3668 H 367.05 3.75332 -1.31194 0
M  V30 3669 N 368.047 0.979072 1.23499 0
M  V30 3670 C 369.295 0.645941 1.91499 0
M  V30 3671 C 369.616 -0.822948 1.76784 0
M  V30 3672 O 368.886 -1.58854 1.14639 0
M  V30 3673 H 367.466 0.235919 0.708767 0
M  V30 3674 H 370.128 1.2426 1.50152 0
M  V30 3675 H 369.224 0.896411 2.9895 0
M  V30 3676 N 369.525 -1.3858 0.750561 0
M  V30 3677 C 370.774 -1.99424 0.302172 0
M  V30 3678 C 371.087 -1.60254 -1.12152 0
M  V30 3679 O 372.293 -2.14046 -1.67023 0
M  V30 3680 C 370.749 -3.56558 0.489307 0
M  V30 3681 C 370.357 -4.04682 1.92189 0
M  V30 3682 C 372.101 -4.24374 0.103478 0
M  V30 3683 C 370.008 -5.54446 2.05775 0
M  V30 3684 H 368.938 -0.746046 0.10923 0
M  V30 3685 H 371.589 -1.58383 0.92667 0
M  V30 3686 H 369.971 -3.95472 -0.204329 0
M  V30 3687 H 371.145 -3.77065 2.64875 0
M  V30 3688 H 369.46 -3.4958 2.26236 0
M  V30 3689 H 372.057 -5.34384 0.183787 0
M  V30 3690 H 372.4 -4.05468 -0.943481 0
M  V30 3691 H 372.933 -3.90688 0.748854 0
M  V30 3692 H 369.672 -5.78252 3.08714 0
M  V30 3693 H 369.192 -5.83816 1.37546 0
M  V30 3694 H 370.871 -6.20099 1.84626 0
M  V30 3695 N 371.003 -0.499398 -1.49478 0
M  V30 3696 C 372.252 0.0475259 -2.01644 0
M  V30 3697 C 372.565 1.38195 -1.38425 0
M  V30 3698 O 373.771 2.01547 -1.8191 0
M  V30 3699 C 372.227 0.135164 -3.59646 0
M  V30 3700 C 371.835 -1.19252 -4.31837 0
M  V30 3701 C 373.579 0.632538 -4.19761 0
M  V30 3702 C 371.486 -1.06713 -5.81693 0
M  V30 3703 H 370.416 0.0215349 -0.753692 0
M  V30 3704 H 373.067 -0.638577 -1.7203 0
M  V30 3705 H 371.449 0.885681 -3.85969 0
M  V30 3706 H 372.623 -1.9562 -4.17216 0
M  V30 3707 H 370.938 -1.62321 -3.83459 0
M  V30 3708 H 373.535 0.743833 -5.29501 0
M  V30 3709 H 373.878 1.63098 -3.83021 0
M  V30 3710 H 374.411 -0.0613987 -3.97753 0
M  V30 3711 H 371.15 -2.03979 -6.22955 0
M  V30 3712 H 370.67 -0.344307 -5.98811 0
M  V30 3713 H 372.349 -0.745208 -6.42694 0
M  V30 3714 N 372.481 1.55866 -0.233164 0
M  V30 3715 C 373.892 1.847 0.272554 0
M  V30 3716 C 374.243 1.15477 1.58617 0
M  V30 3717 O 373.368 0.42841 2.12117 0
M  V30 3718 C 373.963 3.35071 0.501299 0
M  V30 3719 C 372.522 3.6418 0.951304 0
M  V30 3720 C 371.669 2.77292 0.0208209 0
M  V30 3721 H 374.62 1.52005 -0.456074 0
M  V30 3722 H 374.641 3.55906 1.34577 0
M  V30 3723 H 374.153 3.85424 -0.454936 0
M  V30 3724 H 372.254 3.19293 1.92049 0
M  V30 3725 H 372.367 4.72071 0.817675 0
M  V30 3726 H 370.731 2.49131 0.529723 0
M  V30 3727 H 371.514 3.30448 -0.93054 0
M  V30 3728 N 373.959 -0.0401083 1.57549 0
M  V30 3729 C 375.208 -0.732108 1.87944 0
M  V30 3730 C 375.521 -1.77107 0.830206 0
M  V30 3731 O 376.727 -2.51488 1.02302 0
M  V30 3732 C 375.183 -1.35315 3.33494 0
M  V30 3733 C 374.791 -0.351105 4.46622 0
M  V30 3734 C 376.535 -2.02566 3.73051 0
M  V30 3735 C 374.442 -0.979859 5.83226 0
M  V30 3736 H 373.372 -0.277188 0.701201 0
M  V30 3737 H 376.023 0.0138501 1.83495 0
M  V30 3738 H 374.405 -2.14844 3.32653 0
M  V30 3739 H 375.579 0.416674 4.58912 0
M  V30 3740 H 373.894 0.218708 4.15825 0
M  V30 3741 H 376.491 -2.50441 4.72423 0
M  V30 3742 H 376.834 -2.83904 3.04474 0
M  V30 3743 H 377.367 -1.29827 3.76018 0
M  V30 3744 H 374.106 -0.206135 6.55176 0
M  V30 3745 H 373.626 -1.71774 5.74677 0
M  V30 3746 H 375.305 -1.49046 6.29599 0
M  V30 3747 N 375.437 -1.54477 -0.31217 0
M  V30 3748 C 376.662 -1.77526 -1.07235 0
M  V30 3749 C 377.087 -0.527775 -1.80544 0
M  V30 3750 O 376.445 0.52121 -1.73646 0
M  V30 3751 C 376.493 -2.97535 -2.03728 0
M  V30 3752 O 375.597 -2.69878 -3.11833 0
M  V30 3753 H 374.938 -0.58792 -0.30862 0
M  V30 3754 H 377.468 -2.01532 -0.352993 0
M  V30 3755 H 377.478 -3.25198 -2.46395 0
M  V30 3756 H 376.153 -3.87996 -1.49774 0
M  V30 3757 H 374.73 -2.53199 -2.7376 0
M  V30 3758 N 376.915 0.57481 -1.46744 0
M  V30 3759 C 378.162 1.33272 -1.52462 0
M  V30 3760 C 378.49 1.93669 -0.179572 0
M  V30 3761 O 377.745 1.7743 0.825664 0
M  V30 3762 C 378.044 2.476 -2.57738 0
M  V30 3763 C 377.71 2.05146 -4.01529 0
M  V30 3764 C 376.372 1.93284 -4.40676 0
M  V30 3765 C 378.724 1.72506 -4.91824 0
M  V30 3766 C 376.052 1.47049 -5.67973 0
M  V30 3767 C 378.404 1.27748 -6.19567 0
M  V30 3768 C 377.068 1.14468 -6.57612 0
M  V30 3769 H 376.338 0.487678 -0.557899 0
M  V30 3770 H 378.985 0.646456 -1.80259 0
M  V30 3771 H 377.29 3.21708 -2.23632 0
M  V30 3772 H 378.987 3.05807 -2.5939 0
M  V30 3773 H 375.577 2.15316 -3.7059 0
M  V30 3774 H 379.761 1.80552 -4.62293 0
M  V30 3775 H 375.017 1.35417 -5.96215 0
M  V30 3776 H 379.191 1.01547 -6.88957 0
M  V30 3777 H 376.818 0.78419 -7.56145 0
M  V30 3778 N 378.394 1.34581 0.820102 0
M  V30 3779 C 379.619 1.30333 1.61332 0
M  V30 3780 C 380.044 -0.119339 1.87721 0
M  V30 3781 O 379.402 -1.08197 1.45475 0
M  V30 3782 C 379.45 2.10258 2.92957 0
M  V30 3783 O 378.554 1.47404 3.85157 0
M  V30 3784 H 377.895 0.447488 0.490561 0
M  V30 3785 H 380.425 1.77425 1.01889 0
M  V30 3786 H 380.435 2.21718 3.42498 0
M  V30 3787 H 379.11 3.13693 2.73074 0
M  V30 3788 H 377.687 1.44703 3.43679 0
M  V30 3789 N 379.872 -1.04064 1.18357 0
M  V30 3790 C 380.804 -2.12114 0.868358 0
M  V30 3791 C 381.817 -1.62247 -0.134045 0
M  V30 3792 O 383.006 -1.78253 0.0937933 0
M  V30 3793 C 380.106 -3.37773 0.276132 0
M  V30 3794 C 379.279 -4.16874 1.3242 0
M  V30 3795 C 378.338 -5.20861 0.747662 0
M  V30 3796 O 377.364 -5.51141 1.42239 0
M  V30 3797 N 378.566 -5.78715 -0.454823 0
M  V30 3798 H 381.331 -2.39748 1.79836 0
M  V30 3799 H 378.892 -1.20258 1.08396 0
M  V30 3800 H 380.884 -4.04513 -0.123133 0
M  V30 3801 H 379.454 -3.07581 -0.557895 0
M  V30 3802 H 378.674 -3.45456 1.89878 0
M  V30 3803 H 379.962 -4.66516 2.03078 0
M  V30 3804 H 379.36 -5.56415 -1.02073 0
M  V30 3805 H 377.917 -6.46921 -0.79601 0
M  V30 3806 N 381.35 -0.985608 -1.22978 0
M  V30 3807 C 382.627 -0.573599 -1.87001 0
M  V30 3808 C 383.007 0.949213 -1.88555 0
M  V30 3809 O 382.355 1.82811 -1.37086 0
M  V30 3810 C 382.565 -1.18564 -3.28243 0
M  V30 3811 C 383.913 -1.28163 -4.04796 0
M  V30 3812 O 384.937 -1.13949 -3.37482 0
M  V30 3813 O 383.796 -1.50832 -5.25273 0
M  V30 3814 H 380.89 -0.193868 -0.803955 0
M  V30 3815 H 383.436 -1.08102 -1.30813 0
M  V30 3816 H 382.208 -2.22758 -3.21706 0
M  V30 3817 H 381.831 -0.663363 -3.92027 0
M  V30 3818 N 382.828 1.3818 -0.7579 0
M  V30 3819 C 384.056 2.04301 -0.326937 0
M  V30 3820 C 384.471 1.57163 1.0462 0
M  V30 3821 O 383.828 0.746626 1.66529 0
M  V30 3822 C 383.879 3.59846 -0.345363 0
M  V30 3823 O 383.6 4.05256 -1.66432 0
M  V30 3824 C 385.101 4.4319 0.098927 0
M  V30 3825 H 382.321 0.656443 -0.139012 0
M  V30 3826 H 384.865 1.76786 -1.02796 0
M  V30 3827 H 383.02 3.86182 0.306955 0
M  V30 3828 H 383.434 4.99709 -1.59345 0
M  V30 3829 H 384.908 5.51989 0.0348745 0
M  V30 3830 H 385.385 4.23947 1.14741 0
M  V30 3831 H 385.991 4.22051 -0.52468 0
M  V30 3832 N 384.306 0.507319 1.49211 0
M  V30 3833 C 385.269 -0.256763 2.27757 0
M  V30 3834 C 386.269 -0.888287 1.34038 0
M  V30 3835 O 387.459 -0.751841 1.5714 0
M  V30 3836 C 384.591 -1.36905 3.12202 0
M  V30 3837 H 385.784 0.432557 2.96764 0
M  V30 3838 H 383.337 0.262488 1.5408 0
M  V30 3839 H 384.072 -2.09233 2.47775 0
M  V30 3840 H 383.857 -0.921599 3.81115 0
M  V30 3841 H 385.347 -1.9071 3.7151 0
M  V30 3842 N 385.784 -1.5574 0.241426 0
M  V30 3843 C 387.032 -1.98417 -0.384075 0
M  V30 3844 C 387.353 -1.13078 -1.58866 0
M  V30 3845 O 386.623 -0.212312 -1.94746 0
M  V30 3846 H 385.203 -0.732813 -0.144894 0
M  V30 3847 H 387.865 -1.9193 0.338943 0
M  V30 3848 H 386.961 -3.04219 -0.696939 0
M  V30 3849 N 387.262 0.0317525 -1.57568 0
M  V30 3850 C 388.673 0.578692 -1.77505 0
M  V30 3851 C 389.024 1.75749 -0.872164 0
M  V30 3852 O 388.149 2.16298 -0.0663106 0
M  V30 3853 C 388.744 1.05658 -3.21904 0
M  V30 3854 C 387.303 1.54906 -3.43047 0
M  V30 3855 C 386.45 0.485939 -2.73009 0
M  V30 3856 H 389.401 -0.194475 -1.57504 0
M  V30 3857 H 389.422 1.92404 -3.28269 0
M  V30 3858 H 388.934 0.198422 -3.87592 0
M  V30 3859 H 387.035 2.42915 -2.82529 0
M  V30 3860 H 387.148 1.59841 -4.5165 0
M  V30 3861 H 385.512 0.940354 -2.36705 0
M  V30 3862 H 386.295 -0.362709 -3.41379 0
M  V30 3863 N 388.74 1.54641 0.303973 0
M  V30 3864 C 389.673 1.80263 1.3993 0
M  V30 3865 C 390.651 0.653657 1.48883 0
M  V30 3866 O 391.835 0.893284 1.6599 0
M  V30 3867 C 388.962 1.9367 2.77866 0
M  V30 3868 C 388.008 3.16078 2.86351 0
M  V30 3869 S 388.841 4.74219 2.4875 0
M  V30 3870 C 389.997 4.90558 3.88721 0
M  V30 3871 H 390.23 2.72886 1.17986 0
M  V30 3872 H 387.763 1.46014 0.501918 0
M  V30 3873 H 389.721 2.0208 3.57315 0
M  V30 3874 H 388.382 1.01991 2.9708 0
M  V30 3875 H 387.575 3.22252 3.87517 0
M  V30 3876 H 387.177 3.06099 2.14893 0
M  V30 3877 H 389.469 4.74398 4.83687 0
M  V30 3878 H 390.412 5.92651 3.87518 0
M  V30 3879 H 390.82 4.18728 3.78585 0
M  V30 3880 N 390.218 -0.567019 1.47046 0
M  V30 3881 C 391.181 -1.65696 1.58359 0
M  V30 3882 C 392.181 -1.54097 0.459441 0
M  V30 3883 O 393.371 -1.58432 0.724225 0
M  V30 3884 C 390.503 -3.05197 1.51879 0
M  V30 3885 H 391.696 -1.57019 2.5551 0
M  V30 3886 H 389.249 -0.786148 1.3509 0
M  V30 3887 H 389.984 -3.19417 0.560673 0
M  V30 3888 H 389.769 -3.15025 2.33455 0
M  V30 3889 H 391.259 -3.84511 1.62913 0
M  V30 3890 N 391.696 -1.35014 -0.812953 0
M  V30 3891 C 393.112 -1.14914 -1.10757 0
M  V30 3892 C 393.312 0.0426818 -2.01455 0
M  V30 3893 O 392.368 0.715212 -2.42159 0
M  V30 3894 C 393.681 -2.44911 -1.74468 0
M  V30 3895 C 395.229 -2.5106 -1.86917 0
M  V30 3896 C 395.704 -3.81085 -2.54044 0
M  V30 3897 N 397.195 -3.82301 -2.61535 0
M  V30 3898 C 397.93 -4.79634 -3.14227 0
M  V30 3899 N 397.426 -5.87353 -3.67407 0
M  V30 3900 N 399.219 -4.67078 -3.12721 0
M  V30 3901 H 391.37 -2.1136 -0.20989 0
M  V30 3902 H 393.633 -0.935128 -0.155692 0
M  V30 3903 H 393.339 -3.32267 -1.15289 0
M  V30 3904 H 393.213 -2.58989 -2.74234 0
M  V30 3905 H 395.6 -1.64137 -2.45241 0
M  V30 3906 H 395.681 -2.40901 -0.860242 0
M  V30 3907 H 395.325 -4.68402 -1.96372 0
M  V30 3908 H 395.255 -3.88529 -3.55461 0
M  V30 3909 H 397.746 -3.04465 -2.23851 0
M  V30 3910 H 398.059 -6.57624 -4.05894 0
M  V30 3911 H 396.404 -5.91054 -3.65623 0
M  V30 3912 H 399.595 -3.82067 -2.70449 0
M  V30 3913 H 399.768 -5.43098 -3.53481 0
M  V30 3914 N 393.175 1.03435 -1.18907 0
M  V30 3915 C 394.4 1.80919 -1.01406 0
M  V30 3916 C 394.825 1.83055 0.432721 0
M  V30 3917 O 394.183 1.25252 1.31079 0
M  V30 3918 C 394.231 3.24091 -1.58105 0
M  V30 3919 O 393.335 4.04434 -0.806669 0
M  V30 3920 H 392.676 0.558709 -0.358803 0
M  V30 3921 H 395.206 1.30223 -1.57807 0
M  V30 3922 H 395.216 3.74853 -1.61087 0
M  V30 3923 H 393.891 3.21851 -2.6341 0
M  V30 3924 H 392.468 3.63091 -0.849666 0
M  V30 3925 N 394.653 0.992116 1.22453 0
M  V30 3926 C 395.899 0.668523 1.91464 0
M  V30 3927 C 396.232 -0.797313 1.77078 0
M  V30 3928 O 395.507 -1.5765 1.13916 0
M  V30 3929 C 395.79 1.07424 3.43703 0
M  V30 3930 C 395.643 2.59857 3.67143 0
M  V30 3931 C 396.962 0.626891 4.35612 0
M  V30 3932 H 394.081 0.244341 0.695318 0
M  V30 3933 H 396.723 1.2355 1.44345 0
M  V30 3934 H 394.873 0.591816 3.83966 0
M  V30 3935 H 396.545 3.15764 3.3629 0
M  V30 3936 H 394.788 3.01961 3.11451 0
M  V30 3937 H 395.459 2.83296 4.73759 0
M  V30 3938 H 397.935 1.04125 4.02861 0
M  V30 3939 H 396.811 0.939076 5.40807 0
M  V30 3940 H 397.072 -0.472457 4.39568 0
M  V30 3941 N 396.131 -1.37776 0.765217 0
M  V30 3942 C 397.094 -2.28686 0.153416 0
M  V30 3943 C 398.094 -1.47727 -0.635081 0
M  V30 3944 O 399.284 -1.68027 -0.459632 0
M  V30 3945 C 396.416 -3.31608 -0.790495 0
M  V30 3946 H 397.609 -2.84297 0.954723 0
M  V30 3947 H 395.162 -1.46932 0.53299 0
M  V30 3948 H 395.897 -2.81109 -1.61705 0
M  V30 3949 H 395.682 -3.9144 -0.227348 0
M  V30 3950 H 397.172 -3.99559 -1.21419 0
M  V30 3951 N 397.609 -0.515225 -1.4894 0
M  V30 3952 C 398.886 0.0879088 -1.95402 0
M  V30 3953 C 399.266 1.52745 -1.45712 0
M  V30 3954 O 398.614 2.18238 -0.677093 0
M  V30 3955 C 398.824 -0.0141055 -3.48997 0
M  V30 3956 C 400.172 0.152646 -4.24326 0
M  V30 3957 O 401.196 0.0604025 -3.56149 0
M  V30 3958 O 400.055 0.34384 -5.45417 0
M  V30 3959 H 397.149 0.0874636 -0.822362 0
M  V30 3960 H 399.695 -0.578775 -1.59525 0
M  V30 3961 H 398.467 -1.01745 -3.77841 0
M  V30 3962 H 398.09 0.692091 -3.9153 0
M  V30 3963 N 399.087 1.5561 -0.249682 0
M  V30 3964 C 400.05 2.20217 0.635394 0
M  V30 3965 C 401.05 1.17227 1.10066 0
M  V30 3966 O 402.24 1.42292 1.00492 0
M  V30 3967 C 399.372 2.84794 1.87363 0
M  V30 3968 H 400.565 2.99814 0.0716752 0
M  V30 3969 H 398.118 1.563 -0.000153234 0
M  V30 3970 H 398.853 2.09142 2.47851 0
M  V30 3971 H 398.638 3.60241 1.5482 0
M  V30 3972 H 400.128 3.3423 2.5036 0
M  V30 3973 N 400.565 -0.0233959 1.57583 0
M  V30 3974 C 401.528 -1.00693 2.05897 0
M  V30 3975 C 402.528 -1.28693 0.964092 0
M  V30 3976 O 403.718 -1.23602 1.22753 0
M  V30 3977 C 400.85 -2.33825 2.4807 0
M  V30 3978 H 402.043 -0.589476 2.9405 0
M  V30 3979 H 399.596 -0.270354 1.53944 0
M  V30 3980 H 400.331 -2.80307 1.6309 0
M  V30 3981 H 400.116 -2.1483 3.2801 0
M  V30 3982 H 401.606 -3.04426 2.85857 0
M  V30 3983 N 402.043 -1.548 -0.295768 0
M  V30 3984 C 403.006 -1.85363 -1.34808 0
M  V30 3985 C 404.006 -0.726817 -1.43436 0
M  V30 3986 O 405.196 -0.995088 -1.42981 0
M  V30 3987 C 402.328 -2.03859 -2.73229 0
M  V30 3988 H 403.521 -2.7941 -1.08949 0
M  V30 3989 H 401.074 -1.46942 -0.532702 0
M  V30 3990 H 401.809 -1.12117 -3.04303 0
M  V30 3991 H 401.594 -2.8588 -2.68356 0
M  V30 3992 H 403.084 -2.28857 -3.49305 0
M  V30 3993 N 403.521 0.559213 -1.47345 0
M  V30 3994 C 404.767 1.31843 -1.54095 0
M  V30 3995 C 405.1 1.93149 -0.201726 0
M  V30 3996 O 404.375 1.77759 0.789428 0
M  V30 3997 C 404.658 2.43006 -2.65744 0
M  V30 3998 C 404.511 1.86581 -4.09277 0
M  V30 3999 C 405.83 3.44943 -2.73318 0
M  V30 4000 H 402.949 0.478012 -0.560957 0
M  V30 4001 H 405.591 0.625977 -1.79392 0
M  V30 4002 H 403.741 3.02072 -2.44305 0
M  V30 4003 H 405.413 1.31792 -4.42073 0
M  V30 4004 H 403.656 1.17268 -4.17649 0
M  V30 4005 H 404.327 2.66933 -4.83168 0
M  V30 4006 H 406.803 2.95793 -2.92653 0
M  V30 4007 H 405.679 4.20153 -3.53218 0
M  V30 4008 H 405.94 4.03665 -1.80296 0
M  V30 4009 N 404.999 1.35443 0.805782 0
M  V30 4010 C 405.929 1.31095 1.93226 0
M  V30 4011 C 406.91 0.185244 1.69088 0
M  V30 4012 O 408.095 0.380332 1.90439 0
M  V30 4013 C 405.225 1.08299 3.29983 0
M  V30 4014 C 404.179 2.17519 3.68605 0
M  V30 4015 C 403.505 1.79887 5.03532 0
M  V30 4016 C 404.805 3.5949 3.78898 0
M  V30 4017 H 406.499 2.25352 1.97122 0
M  V30 4018 H 404.045 1.0848 0.946996 0
M  V30 4019 H 405.998 1.03897 4.08391 0
M  V30 4020 H 404.722 0.104885 3.26432 0
M  V30 4021 H 403.381 2.2102 2.92482 0
M  V30 4022 H 403.029 0.80693 4.96485 0
M  V30 4023 H 402.729 2.53001 5.30344 0
M  V30 4024 H 404.253 1.77011 5.84379 0
M  V30 4025 H 405.667 3.58307 4.47536 0
M  V30 4026 H 404.064 4.31371 4.1718 0
M  V30 4027 H 405.134 3.95584 2.80431 0
M  V30 4028 N 406.477 -1.02803 1.19454 0
M  V30 4029 C 407.705 -1.79841 1.02297 0
M  V30 4030 C 408.12 -1.83879 -0.428259 0
M  V30 4031 O 407.477 -1.28345 -1.29745 0
M  V30 4032 C 407.528 -3.24852 1.58598 0
M  V30 4033 O 407.249 -3.21097 2.98041 0
M  V30 4034 C 408.75 -4.18485 1.46236 0
M  V30 4035 H 405.97 -0.565936 0.360496 0
M  V30 4036 H 408.514 -1.2948 1.58288 0
M  V30 4037 H 406.669 -3.72401 1.06753 0
M  V30 4038 H 407.083 -4.12033 3.24545 0
M  V30 4039 H 408.557 -5.18121 1.90407 0
M  V30 4040 H 409.034 -4.37254 0.41301 0
M  V30 4041 H 409.64 -3.76811 1.97215 0
M  V30 4042 N 407.956 -0.998596 -1.21925 0
M  V30 4043 C 408.919 -0.558679 -2.22287 0
M  V30 4044 C 409.919 0.361525 -1.56683 0
M  V30 4045 O 411.109 0.152695 -1.73529 0
M  V30 4046 C 408.241 0.18661 -3.40389 0
M  V30 4047 H 409.434 -1.4463 -2.62721 0
M  V30 4048 H 406.987 -0.786413 -1.35075 0
M  V30 4049 H 407.722 1.08996 -3.05435 0
M  V30 4050 H 407.507 -0.474188 -3.89222 0
M  V30 4051 H 408.997 0.482367 -4.14805 0
M  V30 4052 N 409.434 1.37368 -0.772513 0
M  V30 4053 C 410.683 1.98918 -0.333861 0
M  V30 4054 C 410.996 1.62017 1.09589 0
M  V30 4055 O 412.202 2.16676 1.63596 0
M  V30 4056 C 410.658 3.55735 -0.545971 0
M  V30 4057 C 410.266 4.01573 -1.98603 0
M  V30 4058 C 412.01 4.24156 -0.170979 0
M  V30 4059 C 409.917 5.51102 -2.1457 0
M  V30 4060 H 408.847 0.744214 -0.121085 0
M  V30 4061 H 411.498 1.56888 -0.95175 0
M  V30 4062 H 409.88 3.95748 0.141387 0
M  V30 4063 H 411.054 3.72803 -2.7084 0
M  V30 4064 H 409.369 3.45937 -2.31769 0
M  V30 4065 H 411.966 5.34024 -0.26878 0
M  V30 4066 H 412.309 4.06917 0.878855 0
M  V30 4067 H 412.842 3.89447 -0.810914 0
M  V30 4068 H 409.581 5.73268 -3.17875 0
M  V30 4069 H 409.101 5.81554 -1.46817 0
M  V30 4070 H 410.78 6.17083 -1.94468 0
M  V30 4071 N 410.912 0.523116 1.48665 0
M  V30 4072 C 411.875 -0.232592 2.28017 0
M  V30 4073 C 412.875 -0.874021 1.34972 0
M  V30 4074 O 414.065 -0.735132 1.57929 0
M  V30 4075 C 411.197 -1.33586 3.13636 0
M  V30 4076 H 412.39 0.464008 2.96289 0
M  V30 4077 H 409.943 0.278816 1.53793 0
M  V30 4078 H 410.678 -2.06593 2.4998 0
M  V30 4079 H 410.463 -0.881125 3.82071 0
M  V30 4080 H 411.953 -1.86759 3.73511 0
M  V30 4081 N 412.39 -1.55475 0.257931 0
M  V30 4082 C 413.638 -1.98813 -0.363009 0
M  V30 4083 C 413.959 -1.14757 -1.57657 0
M  V30 4084 O 413.229 -0.232956 -1.9451 0
M  V30 4085 H 411.809 -0.734308 -0.137113 0
M  V30 4086 H 414.471 -1.9156 0.359281 0
M  V30 4087 H 413.567 -3.04941 -0.664634 0
M  V30 4088 N 413.868 0.0150385 -1.57593 0
M  V30 4089 C 415.284 0.370907 -1.5523 0
M  V30 4090 C 415.484 1.75735 -0.985882 0
M  V30 4091 O 414.54 2.44944 -0.613077 0
M  V30 4092 C 415.853 0.259908 -2.99575 0
M  V30 4093 C 417.401 0.335959 -3.11192 0
M  V30 4094 C 417.876 0.254253 -4.57294 0
M  V30 4095 N 419.367 0.312618 -4.62144 0
M  V30 4096 C 420.102 0.272505 -5.72752 0
M  V30 4097 N 419.598 0.183864 -6.92556 0
M  V30 4098 N 421.391 0.323267 -5.6117 0
M  V30 4099 H 413.542 -0.892104 -1.92757 0
M  V30 4100 H 415.805 -0.340563 -0.884715 0
M  V30 4101 H 415.511 -0.693403 -3.44797 0
M  V30 4102 H 415.385 1.048 -3.62349 0
M  V30 4103 H 417.772 1.27971 -2.65909 0
M  V30 4104 H 417.853 -0.481739 -2.51223 0
M  V30 4105 H 417.497 -0.685887 -5.03247 0
M  V30 4106 H 417.427 1.09024 -5.15191 0
M  V30 4107 H 419.918 0.38307 -3.75953 0
M  V30 4108 H 420.231 0.15874 -7.72637 0
M  V30 4109 H 418.576 0.149708 -6.94839 0
M  V30 4110 H 421.767 0.390607 -4.66467 0
M  V30 4111 H 421.94 0.288539 -6.47357 0
M  V30 4112 N 415.346 1.54954 0.287554 0
M  V30 4113 C 416.623 1.65569 1.04146 0
M  V30 4114 C 417.003 0.512672 2.0478 0
M  V30 4115 O 416.351 -0.489038 2.23205 0
M  V30 4116 C 416.561 3.04163 1.71131 0
M  V30 4117 C 417.909 3.61429 2.22832 0
M  V30 4118 O 418.933 3.06702 1.81141 0
M  V30 4119 O 417.792 4.57281 2.9926 0
M  V30 4120 H 414.886 0.671881 0.482188 0
M  V30 4121 H 417.432 1.67297 0.28457 0
M  V30 4122 H 416.204 3.78796 0.981303 0
M  V30 4123 H 415.827 3.06271 2.53543 0
M  V30 4124 N 416.824 -0.551391 1.4764 0
M  V30 4125 C 418.101 -1.31229 1.45046 0
M  V30 4126 C 418.481 -2.10563 0.150527 0
M  V30 4127 O 417.829 -2.11374 -0.867956 0
M  V30 4128 C 418.039 -2.21189 2.69956 0
M  V30 4129 C 419.387 -2.82021 3.1741 0
M  V30 4130 O 420.411 -2.31488 2.70724 0
M  V30 4131 O 419.27 -3.73885 3.98588 0
M  V30 4132 H 416.364 -0.591193 0.578291 0
M  V30 4133 H 418.91 -0.569813 1.59847 0
M  V30 4134 H 417.682 -1.62207 3.56096 0
M  V30 4135 H 417.305 -3.02722 2.57769 0
M  V30 4136 N 418.302 -1.35869 -0.798587 0
M  V30 4137 C 419.265 -1.29307 -1.89242 0
M  V30 4138 C 420.265 -0.202747 -1.59517 0
M  V30 4139 O 421.455 -0.456957 -1.681 0
M  V30 4140 C 418.587 -1.00229 -3.25833 0
M  V30 4141 H 419.78 -2.26576 -1.96478 0
M  V30 4142 H 417.333 -1.20509 -0.995358 0
M  V30 4143 H 418.068 -0.033801 -3.24282 0
M  V30 4144 H 417.853 -1.79121 -3.48795 0
M  V30 4145 H 419.343 -0.98219 -4.05885 0
M  V30 4146 N 419.78 1.02168 -1.19998 0
M  V30 4147 C 421.057 1.72816 -0.916191 0
M  V30 4148 C 421.437 2.03081 0.576325 0
M  V30 4149 O 420.785 1.69122 1.53656 0
M  V30 4150 C 420.995 2.9997 -1.78378 0
M  V30 4151 C 422.343 3.73336 -2.02251 0
M  V30 4152 O 423.367 3.09914 -1.75589 0
M  V30 4153 O 422.226 4.87371 -2.47249 0
M  V30 4154 H 419.32 0.752924 -0.342103 0
M  V30 4155 H 421.866 1.08062 -1.30846 0
M  V30 4156 H 420.638 2.73888 -2.79466 0
M  V30 4157 H 420.261 3.72464 -1.39126 0
M  V30 4158 N 421.258 1.00505 1.21394 0
M  V30 4159 C 422.669 0.721082 1.72213 0
M  V30 4160 C 423.02 -0.761263 1.80829 0
M  V30 4161 O 422.145 -1.59464 1.46288 0
M  V30 4162 C 422.74 1.30228 3.12772 0
M  V30 4163 C 421.299 1.06743 3.60947 0
M  V30 4164 C 420.446 1.41507 2.38477 0
M  V30 4165 H 423.397 1.17594 1.06571 0
M  V30 4166 H 423.418 0.686955 3.74247 0
M  V30 4167 H 422.93 2.38115 3.06468 0
M  V30 4168 H 421.031 0.00572162 3.726 0
M  V30 4169 H 421.144 1.73936 4.46411 0
M  V30 4170 H 419.508 0.833852 2.40664 0
M  V30 4171 H 420.291 2.50424 2.34824 0
M  V30 4172 N 422.737 -1.36956 0.779787 0
M  V30 4173 C 423.7 -2.2851 0.177662 0
M  V30 4174 C 424.7 -1.48393 -0.619377 0
M  V30 4175 O 425.89 -1.68505 -0.441785 0
M  V30 4176 C 423.022 -3.32428 -0.755279 0
M  V30 4177 H 424.215 -2.83269 0.984823 0
M  V30 4178 H 421.768 -1.46358 0.548544 0
M  V30 4179 H 422.503 -2.82808 -1.58714 0
M  V30 4180 H 422.288 -3.91659 -0.185817 0
M  V30 4181 H 423.778 -4.00824 -1.17174 0
M  V30 4182 N 424.215 -0.530993 -1.48385 0
M  V30 4183 C 425.443 -0.00134122 -2.069 0
M  V30 4184 C 425.858 1.2805 -1.3874 0
M  V30 4185 O 425.215 1.76204 -0.475244 0
M  V30 4186 C 425.266 0.225256 -3.60798 0
M  V30 4187 O 424.987 -1.0058 -4.26398 0
M  V30 4188 C 426.488 0.795172 -4.3611 0
M  V30 4189 H 423.708 -0.0339704 -0.67014 0
M  V30 4190 H 426.252 -0.736926 -1.90761 0
M  V30 4191 H 424.407 0.910891 -3.76539 0
M  V30 4192 H 424.821 -0.787165 -5.1856 0
M  V30 4193 H 426.295 0.903143 -5.44562 0
M  V30 4194 H 426.772 1.80031 -4.00606 0
M  V30 4195 H 427.378 0.146069 -4.25049 0
M  V30 4196 N 425.693 1.55336 -0.266172 0
M  V30 4197 C 426.656 2.20878 0.612001 0
M  V30 4198 C 427.656 1.18388 1.08816 0
M  V30 4199 O 428.846 1.4335 0.989774 0
M  V30 4200 C 425.978 2.86765 1.84332 0
M  V30 4201 H 427.171 2.99873 0.0398718 0
M  V30 4202 H 424.724 1.56291 -0.0167309 0
M  V30 4203 H 425.459 2.11759 2.45619 0
M  V30 4204 H 425.244 3.61862 1.5099 0
M  V30 4205 H 426.734 3.36867 2.46801 0
M  V30 4206 N 427.171 -0.0066808 1.57599 0
M  V30 4207 C 428.399 -0.704087 1.94551 0
M  V30 4208 C 428.814 -1.67677 0.867746 0
M  V30 4209 O 428.171 -1.8185 -0.153925 0
M  V30 4210 C 428.222 -1.44177 3.31505 0
M  V30 4211 O 427.943 -0.508097 4.35144 0
M  V30 4212 C 429.444 -2.23429 3.82876 0
M  V30 4213 H 426.664 -0.196523 0.641576 0
M  V30 4214 H 429.208 0.042453 2.04456 0
M  V30 4215 H 427.363 -2.13999 3.22929 0
M  V30 4216 H 427.777 -1.02782 5.14331 0
M  V30 4217 H 429.251 -2.70552 4.8115 0
M  V30 4218 H 429.728 -3.05818 3.15233 0
M  V30 4219 H 430.334 -1.58636 3.94607 0
M  V30 4220 N 428.649 -1.55105 -0.279332 0
M  V30 4221 C 429.582 -1.82467 -1.37044 0
M  V30 4222 C 430.56 -0.677261 -1.47824 0
M  V30 4223 O 431.744 -0.919578 -1.64548 0
M  V30 4224 C 428.871 -1.98066 -2.7475 0
M  V30 4225 C 427.917 -3.20594 -2.81286 0
M  V30 4226 S 428.75 -4.78116 -2.41175 0
M  V30 4227 C 429.906 -4.9668 -3.80867 0
M  V30 4228 H 430.139 -2.74728 -1.1363 0
M  V30 4229 H 427.672 -1.46794 -0.478625 0
M  V30 4230 H 429.63 -2.07739 -3.54055 0
M  V30 4231 H 428.291 -1.06704 -2.9542 0
M  V30 4232 H 427.484 -3.28376 -3.82341 0
M  V30 4233 H 427.086 -3.09479 -2.09996 0
M  V30 4234 H 429.378 -4.82033 -4.76078 0
M  V30 4235 H 430.321 -5.98741 -3.78041 0
M  V30 4236 H 430.729 -4.24698 -3.71876 0
M  V30 4237 N 430.127 0.543554 -1.4793 0
M  V30 4238 C 431.538 1.12561 -1.48953 0
M  V30 4239 C 431.889 1.94578 -0.251754 0
M  V30 4240 O 431.014 2.0665 0.642255 0
M  V30 4241 C 431.609 2.04801 -2.69892 0
M  V30 4242 C 430.168 2.58251 -2.73831 0
M  V30 4243 C 429.315 1.34918 -2.42265 0
M  V30 4244 H 432.266 0.32947 -1.55242 0
M  V30 4245 H 432.287 2.88886 -2.47639 0
M  V30 4246 H 431.799 1.4508 -3.59963 0
M  V30 4247 H 429.9 3.21732 -1.87934 0
M  V30 4248 H 430.013 2.98312 -3.74895 0
M  V30 4249 H 428.377 1.66046 -1.93134 0
M  V30 4250 H 429.16 0.769693 -3.3456 0
M  V30 4251 N 431.605 1.3629 0.791371 0
M  V30 4252 C 432.853 1.30154 1.5461 0
M  V30 4253 C 433.174 -0.119409 1.94634 0
M  V30 4254 O 432.444 -1.05924 1.64794 0
M  V30 4255 H 431.024 0.478784 0.573389 0
M  V30 4256 H 433.686 1.70565 0.94306 0
M  V30 4257 H 432.782 1.92762 2.45457 0
M  V30 4258 N 433.083 -1.0153 1.20538 0
M  V30 4259 C 434.499 -1.27461 0.96051 0
M  V30 4260 C 434.699 -1.98273 -0.359193 0
M  V30 4261 O 433.755 -2.27886 -1.0874 0
M  V30 4262 C 435.068 -2.10837 2.14402 0
M  V30 4263 C 436.616 -2.24099 2.18515 0
M  V30 4264 C 437.091 -3.10852 3.36355 0
M  V30 4265 N 438.582 -3.18441 3.36377 0
M  V30 4266 C 439.317 -3.85795 4.24205 0
M  V30 4267 N 438.813 -4.55264 5.22213 0
M  V30 4268 N 440.606 -3.82331 4.12043 0
M  V30 4269 H 432.757 -0.539907 2.05423 0
M  V30 4270 H 435.02 -0.30092 0.898972 0
M  V30 4271 H 434.726 -1.66144 3.09983 0
M  V30 4272 H 434.6 -3.11576 2.12604 0
M  V30 4273 H 436.987 -2.68016 1.23497 0
M  V30 4274 H 437.068 -1.22865 2.24361 0
M  V30 4275 H 436.712 -2.6764 4.31661 0
M  V30 4276 H 436.642 -4.12177 3.27746 0
M  V30 4277 H 439.133 -2.68978 2.65442 0
M  V30 4278 H 439.446 -5.04331 5.85551 0
M  V30 4279 H 437.791 -4.54085 5.26148 0
M  V30 4280 H 440.982 -3.27207 3.34743 0
M  V30 4281 H 441.155 -4.34547 4.807 0
M  V30 4282 N 434.561 -1.01147 -1.20859 0
M  V30 4283 C 435.524 -0.582224 -2.21682 0
M  V30 4284 C 436.524 0.344887 -1.57058 0
M  V30 4285 O 437.714 0.134281 -1.73682 0
M  V30 4286 C 434.846 0.150496 -3.40568 0
M  V30 4287 H 436.039 -1.47408 -2.61172 0
M  V30 4288 H 433.592 -0.800695 -1.34233 0
M  V30 4289 H 434.327 1.0575 -3.06574 0
M  V30 4290 H 434.112 -0.515444 -3.88697 0
M  V30 4291 H 435.602 0.438344 -4.15293 0
M  V30 4292 N 436.039 1.36541 -0.78704 0
M  V30 4293 C 437.285 1.99599 -0.358872 0
M  V30 4294 C 437.618 1.62323 1.06606 0
M  V30 4295 O 436.893 0.876858 1.73613 0
M  V30 4296 C 437.176 3.56327 -0.519944 0
M  V30 4297 C 437.029 4.03464 -1.98839 0
M  V30 4298 C 438.348 4.4005 0.0664737 0
M  V30 4299 H 435.467 0.725107 -0.131869 0
M  V30 4300 H 438.109 1.6199 -0.992936 0
M  V30 4301 H 436.259 3.88495 0.0198321 0
M  V30 4302 H 437.931 3.81793 -2.58905 0
M  V30 4303 H 436.174 3.55092 -2.49183 0
M  V30 4304 H 436.845 5.12439 -2.05207 0
M  V30 4305 H 439.321 4.14228 -0.394267 0
M  V30 4306 H 438.197 5.48847 -0.0762682 0
M  V30 4307 H 438.458 4.26655 1.15835 0
M  V30 4308 N 437.518 0.538854 1.48102 0
M  V30 4309 C 438.748 0.0122958 2.06596 0
M  V30 4310 C 439.156 -1.27861 1.39457 0
M  V30 4311 O 438.499 -1.77348 0.478907 0
M  V30 4312 C 438.561 -0.273131 3.58461 0
M  V30 4313 C 438.225 0.92561 4.47528 0
M  V30 4314 C 439.222 1.82637 4.86765 0
M  V30 4315 C 436.907 1.13511 4.89306 0
M  V30 4316 C 438.901 2.92047 5.66558 0
M  V30 4317 C 436.588 2.23233 5.68868 0
M  V30 4318 C 437.586 3.12333 6.07402 0
M  V30 4319 O 437.274 4.20155 6.85365 0
M  V30 4320 H 437.006 0.0344283 0.675123 0
M  V30 4321 H 439.56 0.746494 1.91355 0
M  V30 4322 H 437.79 -1.06141 3.71848 0
M  V30 4323 H 439.479 -0.742842 3.99045 0
M  V30 4324 H 440.245 1.67649 4.55103 0
M  V30 4325 H 436.124 0.450835 4.5879 0
M  V30 4326 H 439.668 3.6162 5.96554 0
M  V30 4327 H 435.565 2.38201 5.99942 0
M  V30 4328 H 436.333 4.17975 7.03732 0
M  V30 4329 N 438.996 -1.55193 0.274407 0
M  V30 4330 C 440.273 -1.91584 -0.394331 0
M  V30 4331 C 440.653 -1.19858 -1.73774 0
M  V30 4332 O 440.001 -0.3252 -2.26174 0
M  V30 4333 C 440.211 -3.4487 -0.535311 0
M  V30 4334 C 441.559 -4.16636 -0.818534 0
M  V30 4335 O 442.583 -3.5076 -0.620146 0
M  V30 4336 O 441.442 -5.33209 -1.19792 0
M  V30 4337 H 438.536 -0.798349 -0.215794 0
M  V30 4338 H 441.082 -1.66646 0.320507 0
M  V30 4339 H 439.854 -3.89145 0.410141 0
M  V30 4340 H 439.477 -3.75759 -1.29964 0
M  V30 4341 N 440.474 -0.00167713 -1.576 0
M  V30 4342 C 441.704 0.692754 -1.94639 0
M  V30 4343 C 442.112 1.67744 -0.87513 0
M  V30 4344 O 441.455 1.8305 0.154382 0
M  V30 4345 C 441.517 1.47881 -3.27676 0
M  V30 4346 C 441.181 0.655518 -4.52274 0
M  V30 4347 C 442.178 -0.0575214 -5.19868 0
M  V30 4348 C 439.863 0.600994 -4.98692 0
M  V30 4349 C 441.857 -0.814052 -6.3218 0
M  V30 4350 C 439.544 -0.15926 -6.10892 0
M  V30 4351 C 440.542 -0.865515 -6.77494 0
M  V30 4352 O 440.23 -1.61336 -7.87544 0
M  V30 4353 H 439.962 0.197792 -0.646417 0
M  V30 4354 H 442.516 -0.049423 -2.05341 0
M  V30 4355 H 440.746 2.2655 -3.13388 0
M  V30 4356 H 442.435 2.05874 -3.49816 0
M  V30 4357 H 443.201 -0.0245611 -4.84994 0
M  V30 4358 H 439.08 1.14025 -4.46676 0
M  V30 4359 H 442.624 -1.36584 -6.84098 0
M  V30 4360 H 438.521 -0.194035 -6.45208 0
M  V30 4361 H 439.289 -1.53025 -8.04068 0
M  V30 4362 N 441.952 1.55251 0.271103 0
M  V30 4363 C 443.18 1.79974 1.02064 0
M  V30 4364 C 443.595 0.574003 1.79863 0
M  V30 4365 O 442.952 -0.456962 1.76686 0
M  V30 4366 C 443.003 3.02603 1.97772 0
M  V30 4367 O 442.724 4.20443 1.23124 0
M  V30 4368 C 444.225 3.39944 2.84522 0
M  V30 4369 H 441.445 0.599489 0.301419 0
M  V30 4370 H 443.989 2.02268 0.301313 0
M  V30 4371 H 442.144 2.8243 2.65165 0
M  V30 4372 H 442.558 4.89783 1.87651 0
M  V30 4373 H 444.032 4.28915 3.47471 0
M  V30 4374 H 444.509 2.59432 3.54389 0
M  V30 4375 H 445.115 3.62383 2.22618 0
M  V30 4376 N 443.43 -0.535701 1.48216 0
M  V30 4377 C 444.393 -1.623 1.61838 0
M  V30 4378 C 445.393 -1.53087 0.492024 0
M  V30 4379 O 446.583 -1.5686 0.757668 0
M  V30 4380 C 443.715 -3.01907 1.58319 0
M  V30 4381 H 444.908 -1.51564 2.58783 0
M  V30 4382 H 442.461 -0.757317 1.36727 0
M  V30 4383 H 443.196 -3.18155 0.628299 0
M  V30 4384 H 442.981 -3.10003 2.40085 0
M  V30 4385 H 444.471 -3.80969 1.71033 0
M  V30 4386 N 444.908 -1.36708 -0.784132 0
M  V30 4387 C 446.324 -1.17237 -1.08294 0
M  V30 4388 C 446.524 -5.93947e-05 -2.015 0
M  V30 4389 O 445.58 0.663686 -2.43622 0
M  V30 4390 C 446.893 -2.48557 -1.69233 0
M  V30 4391 C 448.441 -2.54968 -1.8155 0
M  V30 4392 C 448.916 -3.86388 -2.45904 0
M  V30 4393 N 450.407 -3.87762 -2.53367 0
M  V30 4394 C 451.142 -4.86191 -3.03983 0
M  V30 4395 N 450.638 -5.95015 -3.54866 0
M  V30 4396 N 452.431 -4.73606 -3.02743 0
M  V30 4397 H 444.582 -2.11758 -0.16501 0
M  V30 4398 H 446.845 -0.93822 -0.135822 0
M  V30 4399 H 446.551 -3.34638 -1.08215 0
M  V30 4400 H 446.425 -2.64748 -2.68679 0
M  V30 4401 H 448.812 -1.69302 -2.41704 0
M  V30 4402 H 448.893 -2.42672 -0.80895 0
M  V30 4403 H 448.537 -4.72462 -1.86392 0
M  V30 4404 H 448.467 -3.95982 -3.4714 0
M  V30 4405 H 450.958 -3.09145 -2.17343 0
M  V30 4406 H 451.271 -6.66086 -3.91854 0
M  V30 4407 H 449.616 -5.98676 -3.53003 0
M  V30 4408 H 452.807 -3.87717 -2.62284 0
M  V30 4409 H 452.98 -5.50473 -3.41881 0
M  V30 4410 N 446.386 1.0089 -1.21074 0
M  V30 4411 C 447.316 2.1145 -0.990523 0
M  V30 4412 C 448.297 1.69897 0.0831699 0
M  V30 4413 O 449.482 1.94052 -0.0758853 0
M  V30 4414 C 446.612 3.42914 -0.550177 0
M  V30 4415 C 445.566 3.98244 -1.56799 0
M  V30 4416 C 444.892 5.25568 -0.984013 0
M  V30 4417 C 446.192 4.30752 -2.95381 0
M  V30 4418 H 447.886 2.3013 -1.91521 0
M  V30 4419 H 445.432 1.10592 -0.92225 0
M  V30 4420 H 447.385 4.19653 -0.383305 0
M  V30 4421 H 446.109 3.24014 0.41015 0
M  V30 4422 H 444.768 3.23621 -1.72236 0
M  V30 4423 H 444.416 5.02998 -0.0155216 0
M  V30 4424 H 444.116 5.63551 -1.66384 0
M  V30 4425 H 445.64 6.04955 -0.828378 0
M  V30 4426 H 447.054 4.98349 -2.8341 0
M  V30 4427 H 445.451 4.79869 -3.60341 0
M  V30 4428 H 446.521 3.39192 -3.46521 0
M  V30 4429 N 447.864 1.01787 1.20321 0
M  V30 4430 C 449.141 0.622978 1.85414 0
M  V30 4431 C 449.521 -0.898887 1.91006 0
M  V30 4432 O 448.869 -1.79112 1.41884 0
M  V30 4433 C 449.079 1.27226 3.24984 0
M  V30 4434 C 450.427 1.3885 4.01255 0
M  V30 4435 O 451.451 1.22857 3.34342 0
M  V30 4436 O 450.31 1.64705 5.2109 0
M  V30 4437 H 447.404 0.215116 0.798533 0
M  V30 4438 H 449.95 1.11533 1.27901 0
M  V30 4439 H 448.722 2.31209 3.15687 0
M  V30 4440 H 448.345 0.767069 3.90131 0
M  V30 4441 N 449.342 -1.36122 0.79427 0
M  V30 4442 C 450.753 -1.81646 0.431446 0
M  V30 4443 C 451.104 -1.66043 -1.04518 0
M  V30 4444 O 450.229 -1.1841 -1.8113 0
M  V30 4445 C 450.824 -3.29785 0.776341 0
M  V30 4446 C 449.383 -3.73501 0.466282 0
M  V30 4447 C 448.53 -2.58313 1.00844 0
M  V30 4448 H 451.481 -1.24274 0.986995 0
M  V30 4449 H 451.502 -3.80437 0.0692413 0
M  V30 4450 H 451.014 -3.4111 1.8511 0
M  V30 4451 H 449.115 -3.67733 -0.600245 0
M  V30 4452 H 449.228 -4.68754 0.990288 0
M  V30 4453 H 447.592 -2.5102 0.431406 0
M  V30 4454 H 448.375 -2.72421 2.08906 0
M  V30 4455 N 450.82 -0.546701 -1.47814 0
M  V30 4456 C 451.752 0.244196 -2.27895 0
M  V30 4457 C 452.765 0.88911 -1.36377 0
M  V30 4458 O 453.954 0.764733 -1.61289 0
M  V30 4459 C 451.054 1.36252 -3.10304 0
M  V30 4460 C 450.227 0.816382 -4.29714 0
M  V30 4461 C 449.286 1.81789 -4.93801 0
M  V30 4462 O 448.312 1.36818 -5.52512 0
M  V30 4463 N 449.514 3.15085 -4.87547 0
M  V30 4464 H 452.279 -0.442694 -2.96412 0
M  V30 4465 H 449.84 -0.382095 -1.57327 0
M  V30 4466 H 451.832 2.03102 -3.50045 0
M  V30 4467 H 450.402 1.95281 -2.44099 0
M  V30 4468 H 449.622 -0.0285981 -3.9419 0
M  V30 4469 H 450.91 0.430668 -5.06974 0
M  V30 4470 H 450.308 3.54275 -4.41028 0
M  V30 4471 H 448.865 3.77522 -5.31339 0
M  V30 4472 N 452.299 1.55045 -0.282633 0
M  V30 4473 C 453.547 1.99365 0.331334 0
M  V30 4474 C 453.868 1.1725 1.55812 0
M  V30 4475 O 453.138 0.263871 1.94115 0
M  V30 4476 H 451.718 0.736397 0.125414 0
M  V30 4477 H 454.38 1.90964 -0.389711 0
M  V30 4478 H 453.476 3.0596 0.616036 0
M  V30 4479 N 453.777 0.010035 1.57597 0
M  V30 4480 C 454.707 -0.976857 2.12084 0
M  V30 4481 C 455.688 -1.35191 1.03235 0
M  V30 4482 O 456.873 -1.43389 1.3097 0
M  V30 4483 C 454.003 -2.26548 2.63236 0
M  V30 4484 C 452.957 -2.03175 3.76701 0
M  V30 4485 C 452.283 -3.38138 4.14206 0
M  V30 4486 C 453.583 -1.38625 5.03568 0
M  V30 4487 H 455.277 -0.523145 2.94794 0
M  V30 4488 H 452.823 -0.250195 1.4181 0
M  V30 4489 H 454.776 -2.95952 2.99984 0
M  V30 4490 H 453.5 -2.74051 1.77661 0
M  V30 4491 H 452.159 -1.36195 3.40362 0
M  V30 4492 H 451.807 -3.83363 3.25641 0
M  V30 4493 H 451.507 -3.23312 4.90656 0
M  V30 4494 H 453.031 -4.08841 4.53521 0
M  V30 4495 H 454.445 -1.98 5.38023 0
M  V30 4496 H 452.842 -1.34256 5.84889 0
M  V30 4497 H 453.912 -0.356722 4.83586 0
M  V30 4498 N 455.255 -1.55392 -0.262866 0
M  V30 4499 C 456.671 -1.47459 -0.610582 0
M  V30 4500 C 456.871 -0.697031 -1.8906 0
M  V30 4501 O 455.927 -0.219952 -2.5154 0
M  V30 4502 C 457.24 -2.91751 -0.728131 0
M  V30 4503 C 458.788 -3.02027 -0.821517 0
M  V30 4504 C 459.263 -4.47594 -0.97076 0
M  V30 4505 N 460.754 -4.51465 -1.03603 0
M  V30 4506 C 461.489 -5.61326 -1.17049 0
M  V30 4507 N 460.985 -6.81032 -1.2715 0
M  V30 4508 N 462.778 -5.49089 -1.20239 0
M  V30 4509 H 454.929 -2.04395 0.577632 0
M  V30 4510 H 457.192 -0.927287 0.197086 0
M  V30 4511 H 456.898 -3.51413 0.142132 0
M  V30 4512 H 456.772 -3.4134 -1.6052 0
M  V30 4513 H 459.159 -2.42456 -1.68224 0
M  V30 4514 H 459.24 -2.55674 0.0803688 0
M  V30 4515 H 458.884 -5.07771 -0.114655 0
M  V30 4516 H 458.814 -4.91613 -1.88745 0
M  V30 4517 H 461.305 -3.6524 -0.96996 0
M  V30 4518 H 461.618 -7.60511 -1.37271 0
M  V30 4519 H 459.963 -6.83824 -1.24136 0
M  V30 4520 H 463.154 -4.54507 -1.11985 0
M  V30 4521 H 463.327 -6.34749 -1.30373 0
M  V30 4522 N 456.733 0.527833 -1.48498 0
M  V30 4523 C 457.981 1.28101 -1.56316 0
M  V30 4524 C 458.302 1.9352 -0.239781 0
M  V30 4525 O 457.572 1.81433 0.738849 0
M  V30 4526 H 456.152 0.475793 -0.575873 0
M  V30 4527 H 458.814 0.614052 -1.84974 0
M  V30 4528 H 457.91 2.05916 -2.34532 0
M  V30 4529 N 458.211 1.37122 0.776871 0
M  V30 4530 C 459.158 1.3247 1.88998 0
M  V30 4531 C 460.128 0.191143 1.64997 0
M  V30 4532 O 461.313 0.379683 1.86984 0
M  V30 4533 C 458.453 1.13241 3.25992 0
M  V30 4534 C 457.566 2.35782 3.61982 0
M  V30 4535 C 456.701 2.09465 4.88158 0
M  V30 4536 C 455.74 3.279 5.16864 0
M  V30 4537 N 454.877 3.01167 6.34226 0
M  V30 4538 H 459.717 2.27642 1.9231 0
M  V30 4539 H 457.254 1.13125 0.94027 0
M  V30 4540 H 459.212 1.00115 4.0501 0
M  V30 4541 H 457.842 0.217186 3.22069 0
M  V30 4542 H 456.894 2.59666 2.77989 0
M  V30 4543 H 458.206 3.24125 3.79137 0
M  V30 4544 H 457.36 1.93341 5.75069 0
M  V30 4545 H 456.099 1.18452 4.73097 0
M  V30 4546 H 455.104 3.44569 4.2843 0
M  V30 4547 H 456.329 4.19757 5.33836 0
M  V30 4548 H 454.275 2.12779 6.20533 0
M  V30 4549 H 454.192 3.83052 6.51772 0
M  V30 4550 H 455.46 2.88649 7.24087 0
M  V30 4551 N 459.689 -1.00246 1.21608 0
M  V30 4552 C 461.105 -1.26435 0.973975 0
M  V30 4553 C 461.305 -1.98642 -0.338143 0
M  V30 4554 O 460.361 -2.29026 -1.06317 0
M  V30 4555 C 461.674 -2.08551 2.16626 0
M  V30 4556 C 463.222 -2.21769 2.20879 0
M  V30 4557 C 463.697 -3.07267 3.39633 0
M  V30 4558 N 465.188 -3.14855 3.39736 0
M  V30 4559 C 465.923 -3.81274 4.28273 0
M  V30 4560 N 465.419 -4.497 5.27012 0
M  V30 4561 N 467.212 -3.7794 4.16074 0
M  V30 4562 H 459.363 -0.518089 2.05984 0
M  V30 4563 H 461.626 -0.291368 0.902113 0
M  V30 4564 H 461.332 -1.62847 3.11727 0
M  V30 4565 H 461.206 -3.09303 2.15897 0
M  V30 4566 H 463.593 -2.66691 1.26332 0
M  V30 4567 H 463.674 -1.20478 2.25652 0
M  V30 4568 H 463.318 -2.63047 4.34475 0
M  V30 4569 H 463.248 -4.08678 3.321 0
M  V30 4570 H 465.739 -2.66147 2.6828 0
M  V30 4571 H 466.052 -4.98092 5.90867 0
M  V30 4572 H 464.397 -4.48479 5.30935 0
M  V30 4573 H 467.588 -3.23638 3.38195 0
M  V30 4574 H 467.761 -4.29424 4.85282 0
M  V30 4575 N 461.167 -1.02423 -1.1978 0
M  V30 4576 C 462.416 -0.713265 -1.88667 0
M  V30 4577 C 462.729 0.7609 -1.80193 0
M  V30 4578 O 463.935 1.18473 -2.44288 0
M  V30 4579 C 462.391 -1.22545 -3.38394 0
M  V30 4580 C 461.999 -2.72706 -3.55437 0
M  V30 4581 C 463.743 -0.990257 -4.12788 0
M  V30 4582 C 461.65 -3.17367 -4.99031 0
M  V30 4583 H 460.58 -0.263105 -0.706606 0
M  V30 4584 H 463.231 -1.23792 -1.35454 0
M  V30 4585 H 461.613 -0.628732 -3.90977 0
M  V30 4586 H 462.787 -3.37993 -3.13205 0
M  V30 4587 H 461.102 -2.94453 -2.94425 0
M  V30 4588 H 463.699 -1.29926 -5.18675 0
M  V30 4589 H 464.042 0.0730761 -4.16236 0
M  V30 4590 H 464.575 -1.55074 -3.66329 0
M  V30 4591 H 461.314 -4.23009 -5.00743 0
M  V30 4592 H 460.834 -2.56805 -5.42044 0
M  V30 4593 H 462.513 -3.10441 -5.67658 0
M  V30 4594 N 462.645 1.35699 -0.801477 0
M  V30 4595 C 463.893 1.9852 -0.37871 0
M  V30 4596 C 464.214 1.63907 1.05638 0
M  V30 4597 O 463.484 0.919013 1.73006 0
M  V30 4598 H 462.064 0.734322 -0.137042 0
M  V30 4599 H 464.726 1.65697 -1.02619 0
M  V30 4600 H 463.822 3.08382 -0.480284 0
M  V30 4601 N 464.123 0.554532 1.47522 0
M  V30 4602 C 465.053 -0.182974 2.32782 0
M  V30 4603 C 466.034 -0.911377 1.43624 0
M  V30 4604 O 467.219 -0.892366 1.72483 0
M  V30 4605 C 464.349 -1.21513 3.25349 0
M  V30 4606 C 463.303 -0.603355 4.23726 0
M  V30 4607 C 462.629 -1.73995 5.05598 0
M  V30 4608 C 463.929 0.441121 5.20434 0
M  V30 4609 H 465.623 0.52882 2.94693 0
M  V30 4610 H 463.169 0.255759 1.41711 0
M  V30 4611 H 465.122 -1.73922 3.83835 0
M  V30 4612 H 463.846 -1.95683 2.61487 0
M  V30 4613 H 462.505 -0.10059 3.66462 0
M  V30 4614 H 462.153 -2.47063 4.38143 0
M  V30 4615 H 461.853 -1.3364 5.72201 0
M  V30 4616 H 463.377 -2.26735 5.66942 0
M  V30 4617 H 464.791 0.00319931 5.733 0
M  V30 4618 H 463.188 0.763402 5.95224 0
M  V30 4619 H 464.258 1.33799 4.66075 0
M  V30 4620 N 465.601 -1.54893 0.290851 0
M  V30 4621 C 466.531 -2.26103 -0.583084 0
M  V30 4622 C 467.512 -1.25684 -1.14619 0
M  V30 4623 O 468.697 -1.54436 -1.17741 0
M  V30 4624 C 465.827 -2.99409 -1.75987 0
M  V30 4625 C 464.781 -4.0689 -1.32758 0
M  V30 4626 C 464.107 -4.67856 -2.58872 0
M  V30 4627 C 465.407 -5.20215 -0.46624 0
M  V30 4628 H 467.101 -2.99398 0.0108214 0
M  V30 4629 H 464.647 -1.43998 0.00664468 0
M  V30 4630 H 466.6 -3.47943 -2.37727 0
M  V30 4631 H 465.324 -2.23675 -2.37985 0
M  V30 4632 H 463.983 -3.59191 -0.733299 0
M  V30 4633 H 463.631 -3.88772 -3.19163 0
M  V30 4634 H 463.331 -5.40438 -2.30653 0
M  V30 4635 H 464.855 -5.19147 -3.21433 0
M  V30 4636 H 466.269 -5.64704 -0.989047 0
M  V30 4637 H 464.666 -5.99455 -0.27826 0
M  V30 4638 H 465.736 -4.82198 0.511173 0
M  V30 4639 N 467.08 -0.0183926 -1.57589 0
M  V30 4640 C 468.012 0.995557 -2.06449 0
M  V30 4641 C 469.025 1.29556 -0.985849 0
M  V30 4642 O 470.214 1.2621 -1.26227 0
M  V30 4643 C 467.314 2.32572 -2.46502 0
M  V30 4644 C 466.487 2.21245 -3.77319 0
M  V30 4645 C 465.546 3.37104 -4.04039 0
M  V30 4646 O 464.572 3.14468 -4.74445 0
M  V30 4647 N 465.774 4.60553 -3.53372 0
M  V30 4648 H 468.539 0.578746 -2.94059 0
M  V30 4649 H 466.1 0.168603 -1.6102 0
M  V30 4650 H 468.092 3.08887 -2.61478 0
M  V30 4651 H 466.662 2.65931 -1.64315 0
M  V30 4652 H 465.882 1.29723 -3.72244 0
M  V30 4653 H 467.17 2.10868 -4.63047 0
M  V30 4654 H 466.568 4.81839 -2.96391 0
M  V30 4655 H 465.125 5.34072 -3.73644 0
M  V30 4656 N 468.558 1.5553 0.254621 0
M  V30 4657 C 469.786 1.81046 1.00149 0
M  V30 4658 C 470.201 0.593047 1.79244 0
M  V30 4659 O 469.558 -0.438196 1.77161 0
M  V30 4660 C 469.609 3.04684 1.94551 0
M  V30 4661 O 469.33 4.21725 1.18658 0
M  V30 4662 C 470.831 3.42943 2.80901 0
M  V30 4663 H 468.051 0.602653 0.295044 0
M  V30 4664 H 470.595 2.02576 0.279842 0
M  V30 4665 H 468.75 2.85226 2.62154 0
M  V30 4666 H 469.164 4.91746 1.82445 0
M  V30 4667 H 470.638 4.32576 3.42902 0
M  V30 4668 H 471.115 2.63176 3.51617 0
M  V30 4669 H 471.721 3.64724 2.18762 0
M  V30 4670 N 470.036 -0.519951 1.48776 0
M  V30 4671 C 471.447 -1.10177 1.50725 0
M  V30 4672 C 471.798 -1.94153 0.282678 0
M  V30 4673 O 470.923 -2.07645 -0.609298 0
M  V30 4674 C 471.518 -2.00482 2.73116 0
M  V30 4675 C 470.077 -2.53862 2.77905 0
M  V30 4676 C 469.224 -1.31047 2.44381 0
M  V30 4677 H 472.175 -0.30473 1.55747 0
M  V30 4678 H 472.196 -2.8491 2.52203 0
M  V30 4679 H 471.708 -1.39335 3.62225 0
M  V30 4680 H 469.809 -3.18702 1.93029 0
M  V30 4681 H 469.922 -2.9231 3.79594 0
M  V30 4682 H 468.286 -1.62953 1.95751 0
M  V30 4683 H 469.069 -0.71637 3.35743 0
M  V30 4684 N 471.514 -1.37532 -0.769588 0
M  V30 4685 C 472.444 -1.36172 -1.89682 0
M  V30 4686 C 473.425 -0.23001 -1.68538 0
M  V30 4687 O 474.61 -0.43069 -1.89364 0
M  V30 4688 C 471.74 -1.1701 -3.26995 0
M  V30 4689 C 470.694 -2.27216 -3.62708 0
M  V30 4690 C 470.02 -1.93174 -4.98586 0
M  V30 4691 C 471.32 -3.6941 -3.69234 0
M  V30 4692 H 473.014 -2.30499 -1.91078 0
M  V30 4693 H 470.56 -1.10953 -0.917902 0
M  V30 4694 H 472.513 -1.14688 -4.05493 0
M  V30 4695 H 471.237 -0.191395 -3.26039 0
M  V30 4696 H 469.896 -2.28697 -2.86519 0
M  V30 4697 H 469.544 -0.938281 -4.94171 0
M  V30 4698 H 469.244 -2.66973 -5.23449 0
M  V30 4699 H 470.768 -1.92443 -5.79481 0
M  V30 4700 H 472.182 -3.70047 -4.37879 0
M  V30 4701 H 470.579 -4.4228 -4.05597 0
M  V30 4702 H 471.649 -4.0288 -2.69844 0
M  V30 4703 N 472.992 0.995999 -1.22138 0
M  V30 4704 C 473.922 2.10387 -1.01289 0
M  V30 4705 C 474.903 1.69975 0.0651454 0
M  V30 4706 O 476.088 1.9396 -0.0964628 0
M  V30 4707 C 473.218 3.42312 -0.586517 0
M  V30 4708 C 472.172 3.96558 -1.61014 0
M  V30 4709 C 471.498 5.24494 -1.0397 0
M  V30 4710 C 472.798 4.27595 -2.99933 0
M  V30 4711 H 474.492 2.28086 -1.93951 0
M  V30 4712 H 472.038 1.09607 -0.933928 0
M  V30 4713 H 473.991 4.19223 -0.427793 0
M  V30 4714 H 472.715 3.24431 0.375761 0
M  V30 4715 H 471.374 3.21776 -1.75658 0
M  V30 4716 H 471.022 5.02953 -0.0688703 0
M  V30 4717 H 470.722 5.61755 -1.72352 0
M  V30 4718 H 472.246 6.04042 -0.892494 0
M  V30 4719 H 473.66 4.95315 -2.8868 0
M  V30 4720 H 472.057 4.76021 -3.6541 0
M  V30 4721 H 473.127 3.35498 -3.50099 0
M  V30 4722 N 474.47 1.03057 1.19235 0
M  V30 4723 C 475.417 0.612832 2.22515 0
M  V30 4724 C 476.387 -0.374224 1.61829 0
M  V30 4725 O 477.572 -0.270501 1.88873 0
M  V30 4726 C 474.712 -0.028475 3.45088 0
M  V30 4727 C 473.825 1.00483 4.20151 0
M  V30 4728 C 472.96 0.333102 5.30155 0
M  V30 4729 C 471.999 1.3522 5.96977 0
M  V30 4730 N 471.136 0.70616 6.9854 0
M  V30 4731 H 475.976 1.49812 2.57605 0
M  V30 4732 H 473.513 0.749658 1.26564 0
M  V30 4733 H 475.471 -0.417548 4.15105 0
M  V30 4734 H 474.101 -0.877334 3.10649 0
M  V30 4735 H 473.153 1.51194 3.49062 0
M  V30 4736 H 474.465 1.77929 4.65986 0
M  V30 4737 H 473.619 -0.110725 6.06599 0
M  V30 4738 H 472.358 -0.473547 4.85396 0
M  V30 4739 H 471.363 1.80627 5.19282 0
M  V30 4740 H 472.588 2.16037 6.4382 0
M  V30 4741 H 470.534 -0.0803667 6.55951 0
M  V30 4742 H 470.451 1.41848 7.42573 0
M  V30 4743 H 471.719 0.286391 7.78974 0
M  V30 4744 N 475.948 -1.35272 0.808662 0
M  V30 4745 C 477.178 -2.02652 0.401953 0
M  V30 4746 C 477.586 -1.6108 -0.992462 0
M  V30 4747 O 476.929 -0.804984 -1.65123 0
M  V30 4748 C 476.991 -3.57174 0.408246 0
M  V30 4749 C 476.655 -4.22019 1.75353 0
M  V30 4750 C 477.652 -4.43552 2.71215 0
M  V30 4751 C 475.337 -4.59093 2.03811 0
M  V30 4752 C 477.331 -5.01264 3.93717 0
M  V30 4753 C 475.018 -5.16519 3.26576 0
M  V30 4754 C 476.016 -5.37546 4.21347 0
M  V30 4755 O 475.704 -5.93761 5.41944 0
M  V30 4756 H 475.436 -0.656495 0.161216 0
M  V30 4757 H 477.99 -1.73829 1.0942 0
M  V30 4758 H 476.22 -3.85197 -0.340608 0
M  V30 4759 H 477.909 -4.05893 0.0235623 0
M  V30 4760 H 478.675 -4.15288 2.50522 0
M  V30 4761 H 474.554 -4.42039 1.30854 0
M  V30 4762 H 478.098 -5.17592 4.67701 0
M  V30 4763 H 473.995 -5.4421 3.47139 0
M  V30 4764 H 474.763 -6.1221 5.43269 0
M  V30 4765 N 477.426 -0.562348 -1.47226 0
M  V30 4766 C 478.842 -0.222492 -1.58042 0
M  V30 4767 C 479.042 1.27505 -1.56028 0
M  V30 4768 O 478.098 2.05555 -1.46641 0
M  V30 4769 C 479.411 -0.853694 -2.88327 0
M  V30 4770 C 480.959 -0.825397 -3.01921 0
M  V30 4771 C 481.434 -1.43576 -4.34914 0
M  V30 4772 N 482.925 -1.39918 -4.41562 0
M  V30 4773 C 483.66 -1.84103 -5.43041 0
M  V30 4774 N 483.156 -2.36167 -6.51304 0
M  V30 4775 N 484.949 -1.75142 -5.34118 0
M  V30 4776 H 477.1 -1.53525 -1.46778 0
M  V30 4777 H 479.363 -0.640527 -0.698877 0
M  V30 4778 H 479.069 -1.90635 -2.95552 0
M  V30 4779 H 478.943 -0.34977 -3.75575 0
M  V30 4780 H 481.33 0.218583 -2.94289 0
M  V30 4781 H 481.411 -1.36713 -2.16202 0
M  V30 4782 H 481.055 -2.47884 -4.43301 0
M  V30 4783 H 480.985 -0.869427 -5.19373 0
M  V30 4784 H 483.476 -1.0184 -3.63919 0
M  V30 4785 H 483.789 -2.67793 -7.24919 0
M  V30 4786 H 482.134 -2.40181 -6.52179 0
M  V30 4787 H 485.325 -1.34241 -4.48439 0
M  V30 4788 H 485.498 -2.09895 -6.13065 0
M  V30 4789 N 478.904 1.54736 -0.299062 0
M  V30 4790 C 480.152 1.99706 0.31017 0
M  V30 4791 C 480.473 1.18896 1.54559 0
M  V30 4792 O 479.743 0.284445 1.93824 0
M  V30 4793 H 478.323 0.737686 0.117596 0
M  V30 4794 H 480.985 1.9054 -0.409943 0
M  V30 4795 H 480.081 3.06596 0.58355 0
M  V30 4796 N 480.382 0.0267497 1.57577 0
M  V30 4797 C 481.315 -0.99059 2.05579 0
M  V30 4798 C 482.293 -1.31884 0.951065 0
M  V30 4799 O 483.477 -1.43592 1.22121 0
M  V30 4800 C 480.604 -2.31125 2.47586 0
M  V30 4801 C 479.65 -2.13777 3.69055 0
M  V30 4802 S 480.483 -1.4388 5.15809 0
M  V30 4803 C 481.639 -2.77321 5.6111 0
M  V30 4804 H 481.872 -0.581976 2.91548 0
M  V30 4805 H 479.405 -0.184876 1.53289 0
M  V30 4806 H 481.363 -3.07049 2.72454 0
M  V30 4807 H 480.024 -2.6912 1.61967 0
M  V30 4808 H 479.217 -3.11405 3.96287 0
M  V30 4809 H 478.819 -1.45996 3.44327 0
M  V30 4810 H 481.111 -3.73565 5.65204 0
M  V30 4811 H 482.054 -2.54756 6.60685 0
M  V30 4812 H 482.462 -2.82459 4.88751 0
M  V30 4813 N 481.861 -1.55662 -0.24637 0
M  V30 4814 C 483.272 -1.67953 -0.81539 0
M  V30 4815 C 483.623 -0.624302 -1.86002 0
M  V30 4816 O 482.748 0.229328 -2.15181 0
M  V30 4817 C 483.343 -3.04484 -1.48576 0
M  V30 4818 C 481.902 -3.18713 -2.00248 0
M  V30 4819 C 481.049 -2.6383 -0.853766 0
M  V30 4820 H 484 -1.58685 -0.0221692 0
M  V30 4821 H 484.021 -2.98959 -2.3538 0
M  V30 4822 H 483.533 -3.81264 -0.725222 0
M  V30 4823 H 481.634 -2.46757 -2.79181 0
M  V30 4824 H 481.747 -4.25628 -2.1995 0
M  V30 4825 H 480.111 -2.21667 -1.25442 0
M  V30 4826 H 480.894 -3.43135 -0.106302 0
M  V30 4827 N 483.339 0.512053 -1.4905 0
M  V30 4828 C 484.75 1.09376 -1.51307 0
M  V30 4829 C 485.101 1.94 -0.292971 0
M  V30 4830 O 484.226 2.07965 0.598277 0
M  V30 4831 C 484.821 1.99031 -2.74176 0
M  V30 4832 C 483.38 2.52385 -2.79247 0
M  V30 4833 C 482.527 1.29749 -2.45073 0
M  V30 4834 H 485.478 0.296467 -1.55906 0
M  V30 4835 H 485.499 2.83569 -2.53711 0
M  V30 4836 H 485.011 1.37412 -3.62959 0
M  V30 4837 H 483.112 3.17673 -1.94716 0
M  V30 4838 H 483.225 2.90293 -3.81139 0
M  V30 4839 H 481.589 1.61912 -1.96612 0
M  V30 4840 H 482.372 0.698555 -3.36118 0
M  V30 4841 N 484.817 1.37938 0.762283 0
M  V30 4842 C 485.747 1.37176 1.88958 0
M  V30 4843 C 486.728 0.238945 1.68413 0
M  V30 4844 O 487.913 0.440726 1.89133 0
M  V30 4845 C 485.043 1.18742 3.2637 0
M  V30 4846 C 483.997 2.29136 3.61498 0
M  V30 4847 C 483.323 1.95816 4.97554 0
M  V30 4848 C 484.623 3.71363 3.6727 0
M  V30 4849 H 486.317 2.31509 1.89853 0
M  V30 4850 H 483.863 1.11438 0.912005 0
M  V30 4851 H 485.816 1.16837 4.04879 0
M  V30 4852 H 484.54 0.208683 3.25933 0
M  V30 4853 H 483.199 2.30213 2.85303 0
M  V30 4854 H 482.847 0.964475 4.93667 0
M  V30 4855 H 482.547 2.69745 5.22026 0
M  V30 4856 H 484.071 1.95513 5.78452 0
M  V30 4857 H 485.485 3.72364 4.35911 0
M  V30 4858 H 483.882 4.44425 4.03245 0
M  V30 4859 H 484.952 4.04305 2.67704 0
M  V30 4860 N 486.295 -0.989507 1.22664 0
M  V30 4861 C 487.544 -1.72375 1.04737 0
M  V30 4862 C 487.857 -1.91096 -0.417316 0
M  V30 4863 O 489.063 -2.6188 -0.716334 0
M  V30 4864 C 487.519 -3.10161 1.82561 0
M  V30 4865 C 487.127 -2.99358 3.333 0
M  V30 4866 C 488.871 -3.87607 1.73093 0
M  V30 4867 C 486.778 -4.32319 4.03552 0
M  V30 4868 H 485.708 -0.646326 0.388302 0
M  V30 4869 H 488.359 -1.10437 1.46546 0
M  V30 4870 H 486.741 -3.728 1.33552 0
M  V30 4871 H 487.915 -2.45863 3.89728 0
M  V30 4872 H 486.23 -2.35392 3.43481 0
M  V30 4873 H 488.827 -4.86025 2.22899 0
M  V30 4874 H 489.17 -4.10509 0.691976 0
M  V30 4875 H 489.703 -3.31652 2.19663 0
M  V30 4876 H 486.442 -4.14616 5.07714 0
M  V30 4877 H 485.962 -4.85714 3.51911 0
M  V30 4878 H 487.641 -5.01051 4.09337 0
M  V30 4879 N 487.773 -1.03688 -1.18687 0
M  V30 4880 C 488.683 -0.634908 -2.25845 0
M  V30 4881 C 489.699 0.337065 -1.70704 0
M  V30 4882 O 490.875 0.192943 -2.00474 0
M  V30 4883 C 487.94 -0.000180054 -3.467 0
M  V30 4884 C 487.001 -1.02067 -4.1699 0
M  V30 4885 C 486.234 -0.41614 -5.32075 0
M  V30 4886 O 486.457 0.778712 -5.65059 0
M  V30 4887 O 485.391 -1.14296 -5.90948 0
M  V30 4888 H 489.217 -1.52757 -2.62486 0
M  V30 4889 H 486.802 -0.807533 -1.25695 0
M  V30 4890 H 488.684 0.353342 -4.19916 0
M  V30 4891 H 487.359 0.866367 -3.11891 0
M  V30 4892 H 486.266 -1.42592 -3.45859 0
M  V30 4893 H 487.599 -1.85786 -4.5579 0
M  V30 4894 N 489.251 1.34841 -0.815825 0
M  V30 4895 C 490.183 2.28409 -0.190265 0
M  V30 4896 C 491.196 1.50705 0.615771 0
M  V30 4897 O 492.385 1.72822 0.446616 0
M  V30 4898 C 489.485 3.30441 0.752446 0
M  V30 4899 C 488.658 4.37399 -0.00922152 0
M  V30 4900 C 487.717 5.19234 0.853351 0
M  V30 4901 O 486.743 5.68404 0.300919 0
M  V30 4902 N 487.945 5.38248 2.17416 0
M  V30 4903 H 490.71 2.82732 -0.994114 0
M  V30 4904 H 488.271 1.47289 -0.672129 0
M  V30 4905 H 490.263 3.82084 1.33394 0
M  V30 4906 H 488.833 2.76565 1.45707 0
M  V30 4907 H 488.053 3.86567 -0.771979 0
M  V30 4908 H 489.341 5.05992 -0.533807 0
M  V30 4909 H 488.739 4.99961 2.6468 0
M  V30 4910 H 487.296 5.93035 2.70467 0
M  V30 4911 N 490.729 0.570148 1.46925 0
M  V30 4912 C 491.692 -0.159933 2.28641 0
M  V30 4913 C 492.692 -0.830638 1.37685 0
M  V30 4914 O 493.882 -0.684516 1.60187 0
M  V30 4915 C 491.014 -1.2354 3.17727 0
M  V30 4916 H 492.207 0.558035 2.94662 0
M  V30 4917 H 489.76 0.327603 1.52828 0
M  V30 4918 H 490.495 -1.98535 2.56426 0
M  V30 4919 H 490.28 -0.759125 3.84681 0
M  V30 4920 H 491.77 -1.74782 3.79264 0
M  V30 4921 N 492.207 -1.54576 0.307264 0
M  V30 4922 C 493.17 -2.22423 -0.553224 0
M  V30 4923 C 494.17 -1.21231 -1.05639 0
M  V30 4924 O 495.36 -1.45923 -0.951419 0
M  V30 4925 C 492.492 -2.91552 -1.76664 0
M  V30 4926 H 493.685 -2.99874 0.0396484 0
M  V30 4927 H 491.238 -1.56192 0.0581629 0
M  V30 4928 H 491.973 -2.18196 -2.39918 0
M  V30 4929 H 491.758 -3.65738 -1.41343 0
M  V30 4930 H 493.248 -3.43292 -2.37783 0
M  V30 4931 N 493.685 -0.035106 -1.57561 0
M  V30 4932 C 494.913 0.652258 -1.9635 0
M  V30 4933 C 495.328 1.65317 -0.911897 0
M  V30 4934 O 494.685 1.82194 0.105657 0
M  V30 4935 C 494.736 1.35337 -3.35211 0
M  V30 4936 O 494.457 0.392548 -4.36338 0
M  V30 4937 C 495.958 2.13199 -3.88666 0
M  V30 4938 H 493.178 0.179444 -0.646561 0
M  V30 4939 H 495.722 -0.0966459 -2.04271 0
M  V30 4940 H 493.877 2.05362 -3.28489 0
M  V30 4941 H 494.291 0.891097 -5.16875 0
M  V30 4942 H 495.765 2.577 -4.88154 0
M  V30 4943 H 496.242 2.97353 -3.23231 0
M  V30 4944 H 496.848 1.48118 -3.98674 0
M  V30 4945 N 495.163 1.55791 0.238111 0
M  V30 4946 C 496.073 1.94196 1.31625 0
M  V30 4947 C 497.089 0.843545 1.52185 0
M  V30 4948 O 498.265 1.1457 1.65637 0
M  V30 4949 C 495.33 2.2365 2.64918 0
M  V30 4950 C 494.391 3.46971 2.52804 0
M  V30 4951 C 493.624 3.7501 3.79741 0
M  V30 4952 O 493.847 3.04982 4.82019 0
M  V30 4953 O 492.781 4.68525 3.77846 0
M  V30 4954 H 496.607 2.86044 1.02043 0
M  V30 4955 H 494.192 1.42786 0.439603 0
M  V30 4956 H 496.074 2.43863 3.4367 0
M  V30 4957 H 494.749 1.34979 2.94215 0
M  V30 4958 H 493.656 3.32055 1.72309 0
M  V30 4959 H 494.989 4.35971 2.28451 0
M  V30 4960 N 496.642 -0.504142 1.49319 0
M  V30 4961 C 497.572 -1.61473 1.68667 0
M  V30 4962 C 498.553 -1.61455 0.535378 0
M  V30 4963 O 499.738 -1.78245 0.770868 0
M  V30 4964 C 496.868 -2.99971 1.75028 0
M  V30 4965 C 495.822 -3.14854 2.89916 0
M  V30 4966 C 495.148 -4.54671 2.81387 0
M  V30 4967 C 496.448 -2.95176 4.30893 0
M  V30 4968 H 498.142 -1.45535 2.61648 0
M  V30 4969 H 495.688 -0.698711 1.25913 0
M  V30 4970 H 497.641 -3.77562 1.8715 0
M  V30 4971 H 496.365 -3.1699 0.786441 0
M  V30 4972 H 495.024 -2.39687 2.77391 0
M  V30 4973 H 494.672 -4.68562 1.82917 0
M  V30 4974 H 494.372 -4.6557 3.58494 0
M  V30 4975 H 495.896 -5.34327 2.95512 0
M  V30 4976 H 497.31 -3.62538 4.44116 0
M  V30 4977 H 495.707 -3.17549 5.09198 0
M  V30 4978 H 496.777 -1.91332 4.45556 0
M  V30 4979 N 498.12 -1.38341 -0.754957 0
M  V30 4980 C 499.536 -1.19508 -1.05783 0
M  V30 4981 C 499.736 -0.0428005 -2.01455 0
M  V30 4982 O 498.792 0.611861 -2.44975 0
M  V30 4983 C 500.105 -2.52091 -1.63923 0
M  V30 4984 C 501.653 -2.58762 -1.76101 0
M  V30 4985 C 502.128 -3.91517 -2.37652 0
M  V30 4986 N 503.619 -3.93049 -2.45085 0
M  V30 4987 C 504.354 -4.9253 -2.93602 0
M  V30 4988 N 503.85 -6.02408 -3.42165 0
M  V30 4989 N 505.643 -4.79921 -2.92629 0
M  V30 4990 H 497.794 -2.1206 -0.120056 0
M  V30 4991 H 500.057 -0.94089 -0.11589 0
M  V30 4992 H 499.763 -3.36858 -1.01093 0
M  V30 4993 H 499.637 -2.70388 -2.63003 0
M  V30 4994 H 502.024 -1.74391 -2.38058 0
M  V30 4995 H 502.105 -2.44333 -0.757294 0
M  V30 4996 H 501.749 -4.76309 -1.76329 0
M  V30 4997 H 501.679 -4.03256 -3.38662 0
M  V30 4998 H 504.17 -3.13685 -2.10736 0
M  V30 4999 H 504.483 -6.74248 -3.77637 0
M  V30 5000 H 502.828 -6.0603 -3.40225 0
M  V30 5001 H 506.019 -3.93194 -2.54001 0
M  V30 5002 H 506.192 -5.57601 -3.30128 0
M  V30 5003 N 499.598 0.982988 -1.23187 0
M  V30 5004 C 501.014 1.2487 -0.993967 0
M  V30 5005 C 501.214 1.99155 0.306498 0
M  V30 5006 O 500.27 2.30688 1.0266 0
M  V30 5007 C 501.583 2.05078 -2.19917 0
M  V30 5008 C 503.131 2.18227 -2.2438 0
M  V30 5009 C 503.606 3.01825 -3.44479 0
M  V30 5010 N 505.097 3.09411 -3.44702 0
M  V30 5011 C 505.832 3.74412 -4.34285 0
M  V30 5012 N 505.328 4.41259 -5.341 0
M  V30 5013 N 507.121 3.71273 -4.22035 0
M  V30 5014 H 499.272 0.485253 -2.06783 0
M  V30 5015 H 501.535 0.276979 -0.906635 0
M  V30 5016 H 501.241 1.57867 -3.14279 0
M  V30 5017 H 501.115 3.05829 -2.2079 0
M  V30 5018 H 503.502 2.64648 -1.30559 0
M  V30 5019 H 503.583 1.16873 -2.2754 0
M  V30 5020 H 503.227 2.56102 -4.38605 0
M  V30 5021 H 503.157 4.03342 -3.38559 0
M  V30 5022 H 505.648 2.61845 -2.7248 0
M  V30 5023 H 505.961 4.88629 -5.98717 0
M  V30 5024 H 504.306 4.39975 -5.38002 0
M  V30 5025 H 507.497 3.18217 -3.43301 0
M  V30 5026 H 507.67 4.21649 -4.92053 0
M  V30 5027 N 501.076 1.04316 1.18135 0
M  V30 5028 C 502.039 0.640794 2.2006 0
M  V30 5029 C 503.039 -0.303124 1.57917 0
M  V30 5030 O 504.229 -0.0881855 1.73977 0
M  V30 5031 C 501.361 -0.060148 3.40847 0
M  V30 5032 H 502.554 1.54281 2.57172 0
M  V30 5033 H 500.107 0.836004 1.32063 0
M  V30 5034 H 500.842 -0.975845 3.0927 0
M  V30 5035 H 500.627 0.618319 3.87194 0
M  V30 5036 H 502.117 -0.328082 4.16309 0
M  V30 5037 N 502.554 -1.34406 0.822964 0
M  V30 5038 C 503.802 -1.97892 0.410245 0
M  V30 5039 C 504.123 -1.65567 -1.03017 0
M  V30 5040 O 503.393 -0.94642 -1.71522 0
M  V30 5041 H 501.973 -0.732049 0.148707 0
M  V30 5042 H 504.635 -1.64043 1.05242 0
M  V30 5043 H 503.731 -3.07579 0.529284 0
M  V30 5044 N 504.032 -0.577932 -1.46621 0
M  V30 5045 C 504.995 0.147805 -2.28723 0
M  V30 5046 C 505.995 0.823325 -1.38123 0
M  V30 5047 O 507.185 0.676011 -1.60548 0
M  V30 5048 C 504.317 1.21853 -3.18378 0
M  V30 5049 H 505.51 -0.573654 -2.94362 0
M  V30 5050 H 503.063 -0.335703 -1.52652 0
M  V30 5051 H 503.798 1.97173 -2.57475 0
M  V30 5052 H 503.583 0.738714 -3.85078 0
M  V30 5053 H 505.073 1.72768 -3.80186 0
M  V30 5054 N 505.51 1.54411 -0.315457 0
M  V30 5055 C 506.756 2.00716 0.289972 0
M  V30 5056 C 507.089 1.2034 1.5242 0
M  V30 5057 O 506.364 0.283579 1.92422 0
M  V30 5058 C 506.647 3.54507 0.632196 0
M  V30 5059 C 506.5 4.45615 -0.61218 0
M  V30 5060 C 507.819 4.15421 1.45305 0
M  V30 5061 H 504.938 0.729637 0.10392 0
M  V30 5062 H 507.58 1.8506 -0.430427 0
M  V30 5063 H 505.73 3.67979 1.24595 0
M  V30 5064 H 507.402 4.44026 -1.25053 0
M  V30 5065 H 505.645 4.15621 -1.24264 0
M  V30 5066 H 506.316 5.51022 -0.328379 0
M  V30 5067 H 508.792 4.05474 0.934331 0
M  V30 5068 H 507.668 5.23157 1.66127 0
M  V30 5069 H 507.929 3.68223 2.44671 0
M  V30 5070 N 506.988 0.0434614 1.5754 0
M  V30 5071 C 508.234 -0.632971 1.92669 0
M  V30 5072 C 508.567 -1.70947 0.921446 0
M  V30 5073 O 507.842 -1.94426 -0.0537202 0
M  V30 5074 C 508.125 -1.23619 3.38216 0
M  V30 5075 C 507.978 -0.168274 4.49485 0
M  V30 5076 C 509.297 -2.15008 3.84005 0
M  V30 5077 H 506.416 -0.228629 0.700641 0
M  V30 5078 H 509.058 0.103651 1.89717 0
M  V30 5079 H 507.208 -1.864 3.40863 0
M  V30 5080 H 508.88 0.463196 4.58969 0
M  V30 5081 H 507.123 0.504581 4.30855 0
M  V30 5082 H 507.794 -0.630218 5.48391 0
M  V30 5083 H 510.27 -1.62198 3.83185 0
M  V30 5084 H 509.146 -2.54161 4.86511 0
M  V30 5085 H 509.407 -3.04707 3.20322 0
M  V30 5086 N 508.466 -1.55915 -0.229846 0
M  V30 5087 C 509.712 -1.78807 -0.956868 0
M  V30 5088 C 510.045 -0.611687 -1.84315 0
M  V30 5089 O 509.32 0.389398 -1.90562 0
M  V30 5090 C 509.603 -3.11718 -1.80288 0
M  V30 5091 C 509.456 -4.3979 -0.943649 0
M  V30 5092 C 510.775 -3.40999 -2.78222 0
M  V30 5093 H 507.894 -0.6505 -0.346437 0
M  V30 5094 H 510.536 -1.88648 -0.226252 0
M  V30 5095 H 508.686 -3.03459 -2.42579 0
M  V30 5096 H 510.358 -4.60059 -0.338121 0
M  V30 5097 H 508.601 -4.33086 -0.248705 0
M  V30 5098 H 509.272 -5.29208 -1.5698 0
M  V30 5099 H 511.748 -3.49332 -2.26067 0
M  V30 5100 H 510.624 -4.35183 -3.34526 0
M  V30 5101 H 510.885 -2.62754 -3.55546 0
M  V30 5102 N 509.944 0.496216 -1.49584 0
M  V30 5103 C 511.355 1.07765 -1.52459 0
M  V30 5104 C 511.706 1.93679 -0.31353 0
M  V30 5105 O 510.831 2.08588 0.576186 0
M  V30 5106 C 511.426 1.96111 -2.76271 0
M  V30 5107 C 509.985 2.49409 -2.81908 0
M  V30 5108 C 509.132 1.27142 -2.46435 0
M  V30 5109 H 512.083 0.279914 -1.56212 0
M  V30 5110 H 512.104 2.80862 -2.56704 0
M  V30 5111 H 511.616 1.33555 -3.64396 0
M  V30 5112 H 509.717 3.1559 -1.98074 0
M  V30 5113 H 509.83 2.86234 -3.84196 0
M  V30 5114 H 508.194 1.59818 -1.98319 0
M  V30 5115 H 508.977 0.662866 -3.3684 0
M  V30 5116 N 511.423 1.38739 0.74761 0
M  V30 5117 C 512.669 1.35475 1.50912 0
M  V30 5118 C 513.002 -0.0533093 1.94127 0
M  V30 5119 O 512.277 -1.01572 1.65871 0
M  V30 5120 C 512.56 2.31582 2.75757 0
M  V30 5121 C 512.413 3.81274 2.38642 0
M  V30 5122 C 513.732 2.25722 3.77806 0
M  V30 5123 H 510.851 0.493427 0.547447 0
M  V30 5124 H 513.493 1.69634 0.855823 0
M  V30 5125 H 511.643 2.02582 3.31501 0
M  V30 5126 H 513.315 4.20972 1.88626 0
M  V30 5127 H 511.558 3.98664 1.71025 0
M  V30 5128 H 512.229 4.4399 3.27989 0
M  V30 5129 H 514.705 2.51336 3.31616 0
M  V30 5130 H 513.581 2.95069 4.62845 0
M  V30 5131 H 513.842 1.25803 4.23823 0
M  V30 5132 N 512.901 -0.976442 1.23707 0
M  V30 5133 C 513.811 -2.10359 1.03856 0
M  V30 5134 C 514.827 -1.73991 -0.0180919 0
M  V30 5135 O 516.003 -2.0061 0.178211 0
M  V30 5136 C 513.068 -3.40809 0.636387 0
M  V30 5137 C 512.129 -3.91179 1.76854 0
M  V30 5138 C 511.362 -5.15404 1.38546 0
M  V30 5139 O 511.585 -5.69754 0.27142 0
M  V30 5140 O 510.519 -5.5994 2.20797 0
M  V30 5141 H 514.345 -2.29997 1.98331 0
M  V30 5142 H 511.93 -1.08742 1.02448 0
M  V30 5143 H 513.812 -4.19269 0.423223 0
M  V30 5144 H 512.487 -3.22493 -0.279322 0
M  V30 5145 H 511.394 -3.13819 2.03638 0
M  V30 5146 H 512.727 -4.13958 2.6627 0
M  V30 5147 N 514.379 -1.04941 -1.1758 0
M  V30 5148 C 515.309 -0.669172 -2.23706 0
M  V30 5149 C 516.29 0.331835 -1.66832 0
M  V30 5150 O 517.475 0.209988 -1.93061 0
M  V30 5151 C 514.605 -0.0404889 -3.47276 0
M  V30 5152 C 513.559 -0.965983 -4.16957 0
M  V30 5153 C 512.885 -0.201312 -5.34321 0
M  V30 5154 C 514.185 -2.28902 -4.69469 0
M  V30 5155 H 515.879 -1.55639 -2.55767 0
M  V30 5156 H 513.425 -0.749793 -1.22939 0
M  V30 5157 H 515.378 0.237298 -4.20731 0
M  V30 5158 H 514.102 0.881658 -3.14475 0
M  V30 5159 H 512.761 -1.22829 -3.45411 0
M  V30 5160 H 512.409 0.723519 -4.97769 0
M  V30 5161 H 512.109 -0.817968 -5.81879 0
M  V30 5162 H 513.633 0.0692499 -6.10561 0
M  V30 5163 H 515.047 -2.07132 -5.34574 0
M  V30 5164 H 513.444 -2.85942 -5.27596 0
M  V30 5165 H 514.514 -2.92937 -3.86414 0
M  V30 5166 N 515.857 1.33968 -0.830081 0
M  V30 5167 C 517.268 1.80439 -0.479455 0
M  V30 5168 C 517.619 1.68756 1.00079 0
M  V30 5169 O 516.744 1.23171 1.77927 0
M  V30 5170 C 517.339 3.27611 -0.863505 0
M  V30 5171 C 515.898 3.72133 -0.565145 0
M  V30 5172 C 515.045 2.55549 -1.07657 0
M  V30 5173 H 517.996 1.21614 -1.0196 0
M  V30 5174 H 518.017 3.8012 -0.170083 0
M  V30 5175 H 517.529 3.36082 -1.94089 0
M  V30 5176 H 515.63 3.69196 0.502536 0
M  V30 5177 H 515.743 4.65963 -1.11422 0
M  V30 5178 H 514.107 2.49788 -0.497807 0
M  V30 5179 H 514.89 2.66786 -2.16055 0
M  V30 5180 N 517.335 0.585699 1.46312 0
M  V30 5181 C 518.283 -0.158577 2.32059 0
M  V30 5182 C 519.277 -0.881427 1.44662 0
M  V30 5183 O 520.483 -0.799476 1.61271 0
M  V30 5184 H 516.858 -0.0700066 0.748734 0
M  V30 5185 H 518.829 0.583383 2.92642 0
M  V30 5186 C 517.578 -1.15701 3.27885 0
M  V30 5187 H 516.901 -0.610215 3.95116 0
M  V30 5188 H 518.341 -1.64812 3.90657 0
M  V30 5189 C 516.8 -2.21951 2.53455 0
M  V30 5190 O 517.33 -3.29352 2.29978 0
M  V30 5191 N 515.536 -1.9664 2.13965 0
M  V30 5192 H 515.083 -1.09309 2.33258 0
M  V30 5193 H 515.041 -2.6794 1.64485 0
M  V30 5194 N 518.813 -1.54241 0.323641 0
M  V30 5195 C 519.745 -2.21836 -0.576311 0
M  V30 5196 C 520.758 -1.21837 -1.07979 0
M  V30 5197 O 521.947 -1.48306 -0.99336 0
M  V30 5198 C 519.047 -2.86923 -1.80356 0
M  V30 5199 C 518.22 -4.1306 -1.43875 0
M  V30 5200 C 517.279 -4.6174 -2.52353 0
M  V30 5201 O 516.305 -5.26421 -2.16494 0
M  V30 5202 N 517.507 -4.35974 -3.83284 0
M  V30 5203 H 520.272 -2.997 0.00247987 0
M  V30 5204 H 517.833 -1.61233 0.146848 0
M  V30 5205 H 519.825 -3.16414 -2.52318 0
M  V30 5206 H 518.395 -2.12765 -2.29019 0
M  V30 5207 H 517.615 -3.90334 -0.550752 0
M  V30 5208 H 518.903 -4.95148 -1.17071 0
M  V30 5209 H 518.301 -3.84203 -4.15216 0
M  V30 5210 H 516.858 -4.70119 -4.51477 0
M  V30 5211 N 520.291 -0.0518155 -1.57515 0
M  V30 5212 C 521.539 0.620595 -1.92336 0
M  V30 5213 C 521.86 1.71345 -0.930907 0
M  V30 5214 O 521.13 1.95885 0.0241341 0
M  V30 5215 H 519.71 0.232226 -0.709986 0
M  V30 5216 H 522.372 -0.104969 -1.94617 0
M  V30 5217 H 521.468 1.05879 -2.93592 0
M  V30 5218 N 521.769 1.56035 0.221574 0
M  V30 5219 C 522.732 1.91584 1.2581 0
M  V30 5220 C 523.732 0.794425 1.39805 0
M  V30 5221 O 524.922 1.06217 1.38071 0
M  V30 5222 C 522.054 2.16663 2.63192 0
M  V30 5223 H 523.247 2.8429 0.954935 0
M  V30 5224 H 520.8 1.49316 0.461988 0
M  V30 5225 H 521.535 1.26508 2.98607 0
M  V30 5226 H 521.32 2.98358 2.5441 0
M  V30 5227 H 522.81 2.45262 3.37988 0
M  V30 5228 N 523.247 -0.488276 1.49845 0
M  V30 5229 C 524.493 -1.24065 1.61182 0
M  V30 5230 C 524.848 -1.9004 0.300435 0
M  V30 5231 O 524.141 -1.78341 -0.700365 0
M  V30 5232 C 524.335 -2.32152 2.71735 0
M  V30 5233 C 524.164 -1.76778 4.13497 0
M  V30 5234 C 522.934 -1.57513 4.80123 0
M  V30 5235 C 525.132 -1.27242 4.98311 0
M  V30 5236 N 523.114 -0.972015 6.06156 0
M  V30 5237 C 524.485 -0.791457 6.14928 0
M  V30 5238 C 526.54 -1.15934 4.84214 0
M  V30 5239 C 525.243 -0.208593 7.18997 0
M  V30 5240 C 527.269 -0.590436 5.88445 0
M  V30 5241 C 526.631 -0.119767 7.04298 0
M  V30 5242 H 522.73 -0.443487 0.644083 0
M  V30 5243 H 525.314 -0.545551 1.86901 0
M  V30 5244 H 523.485 -2.99108 2.47768 0
M  V30 5245 H 525.217 -2.99187 2.72523 0
M  V30 5246 H 521.972 -1.82247 4.37131 0
M  V30 5247 H 522.396 -0.689367 6.73481 0
M  V30 5248 H 527.038 -1.5092 3.94947 0
M  V30 5249 H 524.756 0.153501 8.07954 0
M  V30 5250 H 528.342 -0.505548 5.79599 0
M  V30 5251 H 527.222 0.313568 7.83573 0
M  V30 5252 N 524.725 -1.39134 -0.740242 0
M  V30 5253 C 525.688 -1.37217 -1.83587 0
M  V30 5254 C 526.688 -0.270221 -1.58513 0
M  V30 5255 O 527.878 -0.527843 -1.6601 0
M  V30 5256 C 525.01 -1.13959 -3.21288 0
M  V30 5257 H 526.203 -2.34705 -1.86691 0
M  V30 5258 H 523.756 -1.24622 -0.94335 0
M  V30 5259 H 524.491 -0.17131 -3.23847 0
M  V30 5260 H 524.276 -1.93754 -3.40884 0
M  V30 5261 H 525.766 -1.15346 -4.01354 0
M  V30 5262 N 526.204 0.969867 -1.24223 0
M  V30 5263 C 527.114 2.09806 -1.0497 0
M  V30 5264 C 528.13 1.73998 0.00886455 0
M  V30 5265 O 529.306 2.00513 -0.188848 0
M  V30 5266 C 526.371 3.40467 -0.654452 0
M  V30 5267 C 525.432 3.90236 -1.78926 0
M  V30 5268 C 524.665 5.14662 -1.41277 0
M  V30 5269 O 524.888 5.69602 -0.301632 0
M  V30 5270 O 523.822 5.58761 -2.23763 0
M  V30 5271 H 527.648 2.28942 -1.99548 0
M  V30 5272 H 525.233 1.08197 -1.03023 0
M  V30 5273 H 527.115 4.19039 -0.445452 0
M  V30 5274 H 525.79 3.22636 0.262216 0
M  V30 5275 H 524.697 3.12735 -2.05299 0
M  V30 5276 H 526.03 4.1254 -2.68462 0
M  V30 5277 N 527.682 1.05563 1.17022 0
M  V30 5278 C 528.645 0.664098 2.19368 0
M  V30 5279 C 529.645 -0.286358 1.5823 0
M  V30 5280 O 530.835 -0.069728 1.7406 0
M  V30 5281 C 527.967 -0.0239932 3.40892 0
M  V30 5282 H 529.16 1.57 2.55521 0
M  V30 5283 H 526.713 0.849964 1.31169 0
M  V30 5284 H 527.448 -0.942988 3.10287 0
M  V30 5285 H 527.233 0.659351 3.86516 0
M  V30 5286 H 528.723 -0.283909 4.16634 0
M  V30 5287 N 529.16 -1.33526 0.837174 0
M  V30 5288 C 530.07 -2.33023 0.271568 0
M  V30 5289 C 531.086 -1.63272 -0.601514 0
M  V30 5290 O 532.262 -1.94939 -0.506038 0
M  V30 5291 C 529.327 -3.42382 -0.545448 0
M  V30 5292 C 528.388 -4.27857 0.351709 0
M  V30 5293 C 527.621 -5.31994 -0.426409 0
M  V30 5294 O 527.844 -5.45763 -1.65828 0
M  V30 5295 O 526.778 -6.01572 0.1987 0
M  V30 5296 H 530.604 -2.83256 1.09545 0
M  V30 5297 H 528.189 -1.36837 0.599655 0
M  V30 5298 H 530.071 -4.09122 -1.00979 0
M  V30 5299 H 528.746 -2.94369 -1.34641 0
M  V30 5300 H 527.653 -3.6399 0.863853 0
M  V30 5301 H 528.986 -4.79349 1.1174 0
M  V30 5302 N 530.638 -0.59345 -1.46 0
M  V30 5303 C 532.054 -0.255965 -1.57534 0
M  V30 5304 C 532.254 1.24167 -1.58697 0
M  V30 5305 O 531.31 2.02398 -1.50968 0
M  V30 5306 C 532.623 -0.91466 -2.86451 0
M  V30 5307 C 534.171 -0.889253 -3.00102 0
M  V30 5308 C 534.646 -1.52769 -4.3177 0
M  V30 5309 N 536.137 -1.49253 -4.38495 0
M  V30 5310 C 536.872 -1.9558 -5.39014 0
M  V30 5311 N 536.368 -2.49929 -6.46148 0
M  V30 5312 N 538.161 -1.86432 -5.30282 0
M  V30 5313 H 530.312 -1.56604 -1.43489 0
M  V30 5314 H 532.575 -0.655207 -0.685133 0
M  V30 5315 H 532.281 -1.96861 -2.91442 0
M  V30 5316 H 532.155 -0.429356 -3.74748 0
M  V30 5317 H 534.542 0.156111 -2.94687 0
M  V30 5318 H 534.623 -1.41268 -2.13253 0
M  V30 5319 H 534.267 -2.57231 -4.37944 0
M  V30 5320 H 534.197 -0.979398 -5.17412 0
M  V30 5321 H 536.688 -1.09536 -3.61677 0
M  V30 5322 H 537.001 -2.83109 -7.19075 0
M  V30 5323 H 535.346 -2.53961 -6.46938 0
M  V30 5324 H 538.537 -1.43722 -4.4549 0
M  V30 5325 H 538.71 -2.22852 -6.08474 0
M  V30 5326 N 532.116 1.54067 -0.331816 0
M  V30 5327 C 533.344 2.05131 0.269996 0
M  V30 5328 C 533.759 1.20749 1.45138 0
M  V30 5329 O 533.116 0.240069 1.80914 0
M  V30 5330 C 533.167 3.54728 0.696456 0
M  V30 5331 O 532.888 4.35906 -0.43794 0
M  V30 5332 C 534.389 4.21916 1.36021 0
M  V30 5333 H 531.609 0.668807 0.0542042 0
M  V30 5334 H 534.153 1.98777 -0.4804 0
M  V30 5335 H 532.308 3.61342 1.39681 0
M  V30 5336 H 532.722 5.24404 -0.100334 0
M  V30 5337 H 534.196 5.28015 1.60947 0
M  V30 5338 H 534.673 3.73538 2.31011 0
M  V30 5339 H 535.279 4.19463 0.702212 0
M  V30 5340 N 533.594 0.0601682 1.57485 0
M  V30 5341 C 534.524 -0.90889 2.15085 0
M  V30 5342 C 535.505 -1.31838 1.07484 0
M  V30 5343 O 536.69 -1.3915 1.35466 0
M  V30 5344 C 533.82 -2.18059 2.7031 0
M  V30 5345 C 532.774 -1.91088 3.82974 0
M  V30 5346 C 532.1 -3.24789 4.24754 0
M  V30 5347 C 533.4 -1.22535 5.07723 0
M  V30 5348 H 535.094 -0.429093 2.96309 0
M  V30 5349 H 532.64 -0.204952 1.42534 0
M  V30 5350 H 534.593 -2.86258 3.09248 0
M  V30 5351 H 533.317 -2.6826 1.8629 0
M  V30 5352 H 531.976 -1.25297 3.44523 0
M  V30 5353 H 531.624 -3.72809 3.37672 0
M  V30 5354 H 531.324 -3.07538 5.00694 0
M  V30 5355 H 532.848 -3.94205 4.66299 0
M  V30 5356 H 534.262 -1.80783 5.4405 0
M  V30 5357 H 532.659 -1.1558 5.88864 0
M  V30 5358 H 533.729 -0.202692 4.84476 0
M  V30 5359 N 535.072 -1.5615 -0.213296 0
M  V30 5360 C 536.002 -1.96109 -1.26742 0
M  V30 5361 C 536.983 -0.830448 -1.48451 0
M  V30 5362 O 538.168 -1.09339 -1.60495 0
M  V30 5363 C 535.298 -2.28492 -2.61551 0
M  V30 5364 C 534.252 -3.44124 -2.54485 0
M  V30 5365 C 533.578 -3.62134 -3.93399 0
M  V30 5366 C 534.878 -4.78855 -2.08556 0
M  V30 5367 H 536.572 -2.84412 -0.935434 0
M  V30 5368 H 534.118 -1.36836 -0.44854 0
M  V30 5369 H 536.071 -2.55039 -3.3546 0
M  V30 5370 H 534.795 -1.37052 -2.96453 0
M  V30 5371 H 533.454 -3.17639 -1.83033 0
M  V30 5372 H 533.102 -2.68055 -4.25623 0
M  V30 5373 H 532.802 -4.39913 -3.89551 0
M  V30 5374 H 534.326 -3.91038 -4.68958 0
M  V30 5375 H 535.74 -5.04552 -2.72213 0
M  V30 5376 H 534.137 -5.59975 -2.1575 0
M  V30 5377 H 535.207 -4.73657 -1.03811 0
M  V30 5378 N 536.55 0.480323 -1.50102 0
M  V30 5379 C 537.48 1.58769 -1.71215 0
M  V30 5380 C 538.461 1.60583 -0.560997 0
M  V30 5381 O 539.646 1.76996 -0.799127 0
M  V30 5382 C 536.776 2.97148 -1.79778 0
M  V30 5383 C 535.73 3.10201 -2.94888 0
M  V30 5384 C 535.056 4.50137 -2.88584 0
M  V30 5385 C 536.356 2.88283 -4.35534 0
M  V30 5386 H 538.05 1.41354 -2.6393 0
M  V30 5387 H 535.596 0.678591 -1.27008 0
M  V30 5388 H 537.549 3.74536 -1.93133 0
M  V30 5389 H 536.273 3.15699 -0.836772 0
M  V30 5390 H 534.932 2.35244 -2.81169 0
M  V30 5391 H 534.58 4.65593 -1.90349 0
M  V30 5392 H 534.28 4.59808 -3.65856 0
M  V30 5393 H 535.804 5.29558 -3.03976 0
M  V30 5394 H 537.218 3.55427 -4.49827 0
M  V30 5395 H 535.615 3.09408 -5.14186 0
M  V30 5396 H 536.685 1.84219 -4.48544 0
M  V30 5397 N 538.028 1.39524 0.732853 0
M  V30 5398 C 539.258 1.3994 1.51988 0
M  V30 5399 C 539.666 -0.00727973 1.89199 0
M  V30 5400 O 539.009 -0.989521 1.54771 0
M  V30 5401 C 539.071 2.21026 2.83527 0
M  V30 5402 C 538.735 3.69633 2.68738 0
M  V30 5403 C 539.732 4.62665 2.37143 0
M  V30 5404 C 537.417 4.13244 2.85542 0
M  V30 5405 C 539.411 5.97291 2.22536 0
M  V30 5406 C 537.098 5.47945 2.70554 0
M  V30 5407 C 538.096 6.39783 2.39097 0
M  V30 5408 O 537.784 7.72002 2.24204 0
M  V30 5409 H 537.516 0.479795 0.476206 0
M  V30 5410 H 540.07 1.8399 0.913054 0
M  V30 5411 H 538.3 1.71728 3.46477 0
M  V30 5412 H 539.989 2.13594 3.45156 0
M  V30 5413 H 540.755 4.30272 2.2381 0
M  V30 5414 H 536.634 3.42094 3.09019 0
M  V30 5415 H 540.178 6.68939 1.97905 0
M  V30 5416 H 536.075 5.79928 2.83466 0
M  V30 5417 H 536.843 7.8275 2.39258 0
M  V30 5418 N 539.506 -0.963266 1.24736 0
M  V30 5419 C 540.416 -2.09246 1.06082 0
M  V30 5420 C 541.432 -1.74 0.000363101 0
M  V30 5421 O 542.608 -2.0041 0.199479 0
M  V30 5422 C 539.673 -3.40115 0.672498 0
M  V30 5423 C 538.734 -3.89282 1.80993 0
M  V30 5424 C 537.967 -5.13905 1.44004 0
M  V30 5425 O 538.19 -5.69434 0.331835 0
M  V30 5426 O 537.124 -5.57566 2.26723 0
M  V30 5427 H 540.95 -2.27881 2.00759 0
M  V30 5428 H 538.535 -1.07649 1.03595 0
M  V30 5429 H 540.417 -4.18797 0.467668 0
M  V30 5430 H 539.092 -3.22771 -0.245102 0
M  V30 5431 H 537.999 -3.11642 2.06955 0
M  V30 5432 H 539.332 -4.1111 2.70646 0
M  V30 5433 N 540.985 -1.06182 -1.16461 0
M  V30 5434 C 542.232 -0.777863 -1.86964 0
M  V30 5435 C 542.56 0.695602 -1.81636 0
M  V30 5436 O 541.815 1.52532 -1.22607 0
M  V30 5437 C 542.114 -1.21633 -3.36066 0
M  V30 5438 C 541.78 -2.69371 -3.61594 0
M  V30 5439 C 540.442 -3.09727 -3.6827 0
M  V30 5440 C 542.794 -3.64791 -3.7226 0
M  V30 5441 C 540.122 -4.44345 -3.83112 0
M  V30 5442 C 542.474 -4.99155 -3.88623 0
M  V30 5443 C 541.138 -5.39149 -3.93541 0
M  V30 5444 H 540.408 -0.28464 -0.68415 0
M  V30 5445 H 543.055 -1.33071 -1.37711 0
M  V30 5446 H 541.36 -0.582651 -3.87443 0
M  V30 5447 H 543.057 -0.973682 -3.88999 0
M  V30 5448 H 539.647 -2.37124 -3.57029 0
M  V30 5449 H 543.831 -3.34746 -3.66413 0
M  V30 5450 H 539.087 -4.74819 -3.85172 0
M  V30 5451 H 543.261 -5.72976 -3.95817 0
M  V30 5452 H 540.888 -6.43464 -4.04794 0
M  V30 5453 N 542.463 1.3308 -0.844243 0
M  V30 5454 C 543.41 2.29104 -0.279323 0
M  V30 5455 C 544.38 1.54577 0.607882 0
M  V30 5456 O 545.565 1.8285 0.545009 0
M  V30 5457 C 542.705 3.40927 0.53508 0
M  V30 5458 C 541.818 4.30354 -0.376749 0
M  V30 5459 C 540.953 5.29297 0.449276 0
M  V30 5460 C 539.992 6.10365 -0.460606 0
M  V30 5461 N 539.129 7.01335 0.327612 0
M  V30 5462 H 543.969 2.76817 -1.10346 0
M  V30 5463 H 541.506 1.36203 -0.555611 0
M  V30 5464 H 543.464 4.04469 1.02278 0
M  V30 5465 H 542.094 2.94391 1.32414 0
M  V30 5466 H 541.146 3.67485 -0.982791 0
M  V30 5467 H 542.458 4.87067 -1.07549 0
M  V30 5468 H 541.612 5.98392 1.00058 0
M  V30 5469 H 540.351 4.73174 1.18143 0
M  V30 5470 H 539.356 5.40182 -1.02388 0
M  V30 5471 H 540.581 6.68571 -1.1912 0
M  V30 5472 H 538.527 6.47655 1.04305 0
M  V30 5473 H 538.444 7.55355 -0.3123 0
M  V30 5474 H 539.712 7.74731 0.86098 0
M  V30 5475 N 543.941 0.601185 1.45683 0
M  V30 5476 C 544.904 -0.111398 2.28929 0
M  V30 5477 C 545.904 -0.801246 1.39416 0
M  V30 5478 O 547.094 -0.650383 1.61603 0
M  V30 5479 C 544.226 -1.16773 3.20276 0
M  V30 5480 H 545.419 0.620412 2.93413 0
M  V30 5481 H 542.972 0.359946 1.52099 0
M  V30 5482 H 543.707 -1.93051 2.60579 0
M  V30 5483 H 543.492 -0.677358 3.86205 0
M  V30 5484 H 544.982 -1.66698 3.82886 0
M  V30 5485 N 545.419 -1.53889 0.339982 0
M  V30 5486 C 546.667 -2.00458 -0.257112 0
M  V30 5487 C 546.988 -1.22953 -1.51353 0
M  V30 5488 O 546.258 -0.335734 -1.93002 0
M  V30 5489 H 544.838 -0.740544 -0.0979965 0
M  V30 5490 H 547.5 -1.89386 0.460317 0
M  V30 5491 H 546.596 -3.08035 -0.502057 0
M  V30 5492 N 546.897 -0.0685191 -1.57451 0
M  V30 5493 C 547.827 0.89747 -2.15564 0
M  V30 5494 C 548.808 1.31266 -1.08181 0
M  V30 5495 O 549.993 1.38429 -1.36202 0
M  V30 5496 C 547.123 2.16623 -2.71463 0
M  V30 5497 C 546.077 1.89054 -3.83982 0
M  V30 5498 C 545.403 3.22532 -4.26471 0
M  V30 5499 C 546.703 1.1984 -5.08366 0
M  V30 5500 H 548.397 0.413373 -2.96533 0
M  V30 5501 H 545.943 0.197391 -1.42641 0
M  V30 5502 H 547.896 2.84614 -3.10761 0
M  V30 5503 H 546.62 2.67269 -1.8771 0
M  V30 5504 H 545.279 1.23469 -3.45183 0
M  V30 5505 H 544.927 3.71013 -3.39644 0
M  V30 5506 H 544.627 3.04879 -5.02317 0
M  V30 5507 H 546.151 3.91727 -4.68383 0
M  V30 5508 H 547.565 1.77896 -5.45001 0
M  V30 5509 H 545.962 1.12456 -5.89469 0
M  V30 5510 H 547.032 0.176996 -4.84577 0
M  V30 5511 N 548.375 1.56261 0.205012 0
M  V30 5512 C 549.285 1.96944 1.27476 0
M  V30 5513 C 550.301 0.875636 1.50362 0
M  V30 5514 O 551.477 1.18058 1.6317 0
M  V30 5515 C 548.542 2.29219 2.60115 0
M  V30 5516 C 547.603 3.52255 2.45387 0
M  V30 5517 C 546.836 3.8298 3.71701 0
M  V30 5518 O 547.059 3.15138 4.75441 0
M  V30 5519 O 545.993 4.76435 3.67823 0
M  V30 5520 H 549.819 2.88144 0.959527 0
M  V30 5521 H 547.404 1.43686 0.409217 0
M  V30 5522 H 549.286 2.51098 3.3842 0
M  V30 5523 H 547.961 1.4119 2.91285 0
M  V30 5524 H 546.868 3.35635 1.65227 0
M  V30 5525 H 548.201 4.40719 2.19152 0
M  V30 5526 N 549.853 -0.472356 1.50355 0
M  V30 5527 C 551.269 -0.806001 1.37753 0
M  V30 5528 C 551.469 -1.968 0.432649 0
M  V30 5529 O 550.525 -2.52189 -0.12519 0
M  V30 5530 C 551.838 -1.11926 2.79093 0
M  V30 5531 C 553.386 -1.22579 2.87999 0
M  V30 5532 C 553.861 -1.57218 4.3017 0
M  V30 5533 N 555.352 -1.64212 4.33115 0
M  V30 5534 C 556.087 -1.92517 5.40116 0
M  V30 5535 N 555.583 -2.1885 6.57325 0
M  V30 5536 N 557.376 -1.94008 5.27558 0
M  V30 5537 H 549.527 0.293451 2.10363 0
M  V30 5538 H 551.79 0.0687672 0.945503 0
M  V30 5539 H 551.496 -0.338504 3.50067 0
M  V30 5540 H 551.37 -2.05577 3.16256 0
M  V30 5541 H 553.757 -1.99722 2.17245 0
M  V30 5542 H 553.838 -0.269107 2.54381 0
M  V30 5543 H 553.482 -0.806154 5.01461 0
M  V30 5544 H 553.412 -2.54034 4.61275 0
M  V30 5545 H 555.903 -1.45906 3.48597 0
M  V30 5546 H 556.216 -2.39718 7.3468 0
M  V30 5547 H 554.561 -2.16245 6.60502 0
M  V30 5548 H 557.752 -1.72931 4.34986 0
M  V30 5549 H 557.925 -2.15731 6.11035 0
M  V30 5550 N 551.331 -1.39911 -0.725443 0
M  V30 5551 C 552.561 -1.40744 -1.51244 0
M  V30 5552 C 552.969 -0.00275403 -1.892 0
M  V30 5553 O 552.312 0.981299 -1.55294 0
M  V30 5554 C 552.374 -2.22527 -2.82351 0
M  V30 5555 C 552.038 -3.71053 -2.66774 0
M  V30 5556 C 553.035 -4.63916 -2.34686 0
M  V30 5557 C 550.72 -4.14753 -2.83347 0
M  V30 5558 C 552.714 -5.98463 -2.19366 0
M  V30 5559 C 550.401 -5.49372 -2.67644 0
M  V30 5560 C 551.399 -6.41042 -2.357 0
M  V30 5561 O 551.087 -7.73181 -2.20107 0
M  V30 5562 H 550.819 -0.482314 -0.473655 0
M  V30 5563 H 553.373 -1.84472 -0.903284 0
M  V30 5564 H 551.603 -1.73563 -3.45562 0
M  V30 5565 H 553.292 -2.15421 -3.44018 0
M  V30 5566 H 554.058 -4.31453 -2.21525 0
M  V30 5567 H 549.937 -3.43728 -3.072 0
M  V30 5568 H 553.481 -6.69979 -1.94354 0
M  V30 5569 H 549.378 -5.81424 -2.80387 0
M  V30 5570 H 550.146 -7.84008 -2.35103 0
M  V30 5571 N 552.809 0.956637 -1.25245 0
M  V30 5572 C 554.056 1.701 -1.09874 0
M  V30 5573 C 554.384 1.91128 0.36062 0
M  V30 5574 O 553.639 1.47837 1.28229 0
M  V30 5575 C 553.938 3.08996 -1.79601 0
M  V30 5576 C 553.604 3.07774 -3.29523 0
M  V30 5577 C 552.266 3.07149 -3.70423 0
M  V30 5578 C 554.618 3.01257 -4.25316 0
M  V30 5579 C 551.946 2.97752 -5.0553 0
M  V30 5580 C 554.298 2.93403 -5.60444 0
M  V30 5581 C 552.962 2.91111 -6.00675 0
M  V30 5582 H 552.232 0.62244 -0.402056 0
M  V30 5583 H 554.879 1.1178 -1.55491 0
M  V30 5584 H 553.184 3.70848 -1.26408 0
M  V30 5585 H 554.881 3.65407 -1.65162 0
M  V30 5586 H 551.471 3.09032 -2.9698 0
M  V30 5587 H 555.655 3.00861 -3.9471 0
M  V30 5588 H 550.911 2.94346 -5.35883 0
M  V30 5589 H 555.085 2.87321 -6.34366 0
M  V30 5590 H 552.712 2.83586 -7.05325 0
M  V30 5591 N 554.287 1.06798 1.15896 0
M  V30 5592 C 555.235 0.677525 2.22514 0
M  V30 5593 C 556.229 -0.308994 1.66558 0
M  V30 5594 O 557.435 -0.173308 1.79164 0
M  V30 5595 H 553.81 0.200994 0.724642 0
M  V30 5596 H 555.781 1.5865 2.52731 0
M  V30 5597 C 554.53 0.0854153 3.47595 0
M  V30 5598 H 553.853 0.835645 3.90969 0
M  V30 5599 H 555.293 -0.150199 4.23734 0
M  V30 5600 C 553.752 -1.1724 3.15843 0
M  V30 5601 O 554.282 -2.25965 3.32119 0
M  V30 5602 N 552.488 -1.07636 2.69931 0
M  V30 5603 H 552.035 -0.191559 2.56887 0
M  V30 5604 H 551.993 -1.91876 2.4906 0
M  V30 5605 N 555.766 -1.3263 0.851289 0
M  V30 5606 C 556.994 -2.01563 0.466899 0
M  V30 5607 C 557.409 -1.63996 -0.935447 0
M  V30 5608 O 556.766 -0.85957 -1.6099 0
M  V30 5609 C 556.817 -3.56613 0.592433 0
M  V30 5610 O 556.538 -3.92828 1.93954 0
M  V30 5611 C 558.039 -4.42818 0.206612 0
M  V30 5612 H 555.259 -0.645307 0.183902 0
M  V30 5613 H 557.803 -1.69285 1.1473 0
M  V30 5614 H 555.958 -3.87379 -0.0401936 0
M  V30 5615 H 556.372 -4.87545 1.9339 0
M  V30 5616 H 557.846 -5.50918 0.345462 0
M  V30 5617 H 558.323 -4.30844 -0.85264 0
M  V30 5618 H 558.929 -4.17434 0.814176 0
M  V30 5619 N 557.244 -0.608902 -1.45362 0
M  V30 5620 C 558.194 0.130616 -2.27626 0
M  V30 5621 C 559.178 0.837323 -1.37396 0
M  V30 5622 O 560.37 0.727096 -1.61376 0
M  V30 5623 C 557.499 1.12646 -3.24293 0
M  V30 5624 C 556.585 0.42052 -4.2201 0
M  V30 5625 N 556.976 -0.538569 -5.02925 0
M  V30 5626 C 555.274 0.667901 -4.40971 0
M  V30 5627 C 555.975 -0.953625 -5.7383 0
M  V30 5628 N 554.951 -0.297097 -5.42788 0
M  V30 5629 H 558.753 -0.605996 -2.87585 0
M  V30 5630 H 556.267 -0.432672 -1.5653 0
M  V30 5631 H 558.264 1.67066 -3.81961 0
M  V30 5632 H 556.924 1.86361 -2.65894 0
M  V30 5633 H 557.935 -0.915375 -5.09746 0
M  V30 5634 H 554.612 1.38963 -3.93695 0
M  V30 5635 H 556.002 -1.74473 -6.48852 0
M  V30 5636 N 558.722 1.53707 -0.348139 0
M  V30 5637 C 560.138 1.596 0.00361134 0
M  V30 5638 C 560.338 1.36394 1.4832 0
M  V30 5639 O 559.394 1.16046 2.24253 0
M  V30 5640 C 560.707 2.97512 -0.436682 0
M  V30 5641 C 562.255 3.10568 -0.389416 0
M  V30 5642 C 562.73 4.50866 -0.805249 0
M  V30 5643 N 564.221 4.56929 -0.759616 0
M  V30 5644 C 564.956 5.63643 -1.05327 0
M  V30 5645 N 564.452 6.78189 -1.41531 0
M  V30 5646 N 566.245 5.5354 -0.977207 0
M  V30 5647 H 558.396 1.67044 -1.31187 0
M  V30 5648 H 560.659 0.782559 -0.535075 0
M  V30 5649 H 560.365 3.19575 -1.46849 0
M  V30 5650 H 560.239 3.76742 0.185744 0
M  V30 5651 H 562.626 2.88226 0.633228 0
M  V30 5652 H 562.707 2.33387 -1.04711 0
M  V30 5653 H 562.351 4.73943 -1.82593 0
M  V30 5654 H 562.281 5.26452 -0.124989 0
M  V30 5655 H 564.772 3.74675 -0.49265 0
M  V30 5656 H 565.085 7.55541 -1.62411 0
M  V30 5657 H 563.43 6.79624 -1.45381 0
M  V30 5658 H 566.621 4.62932 -0.693675 0
M  V30 5659 H 566.794 6.36614 -1.2094 0
M  V30 5660 N 560.2 0.0768682 1.57412 0
M  V30 5661 C 561.163 -0.873949 2.11884 0
M  V30 5662 C 562.163 -1.22301 1.04398 0
M  V30 5663 O 563.353 -1.15545 1.30365 0
M  V30 5664 C 560.485 -2.17575 2.62438 0
M  V30 5665 H 561.678 -0.401278 2.97203 0
M  V30 5666 H 559.231 -0.171904 1.55352 0
M  V30 5667 H 559.966 -2.69368 1.80587 0
M  V30 5668 H 559.751 -1.93534 3.41009 0
M  V30 5669 H 561.241 -2.85631 3.04639 0
M  V30 5670 N 561.678 -1.56367 -0.196722 0
M  V30 5671 C 563.089 -1.70462 -0.761545 0
M  V30 5672 C 563.44 -0.683161 -1.83922 0
M  V30 5673 O 562.565 0.160753 -2.15802 0
M  V30 5674 C 563.16 -3.09057 -1.38814 0
M  V30 5675 C 561.719 -3.24922 -1.90007 0
M  V30 5676 C 560.866 -2.66412 -0.769399 0
M  V30 5677 H 563.817 -1.58675 0.0283263 0
M  V30 5678 H 563.838 -3.06296 -2.2575 0
M  V30 5679 H 563.35 -3.83378 -0.603559 0
M  V30 5680 H 561.451 -2.55514 -2.71189 0
M  V30 5681 H 561.564 -4.3241 -2.06297 0
M  V30 5682 H 559.928 -2.25546 -1.18326 0
M  V30 5683 H 560.711 -3.433 0.00291773 0
M  V30 5684 N 563.156 0.464375 -1.50603 0
M  V30 5685 C 564.086 1.56944 -1.72889 0
M  V30 5686 C 565.067 1.59979 -0.577997 0
M  V30 5687 O 566.252 1.76138 -0.817855 0
M  V30 5688 C 563.382 2.95225 -1.8292 0
M  V30 5689 C 562.336 3.07056 -2.98162 0
M  V30 5690 C 561.662 4.47051 -2.93343 0
M  V30 5691 C 562.962 2.83648 -4.38567 0
M  V30 5692 H 564.656 1.38547 -2.65415 0
M  V30 5693 H 562.202 0.665082 -1.27721 0
M  V30 5694 H 564.155 3.72467 -1.97095 0
M  V30 5695 H 562.879 3.14793 -0.870209 0
M  V30 5696 H 561.538 2.32248 -2.83648 0
M  V30 5697 H 561.186 4.63547 -1.95276 0
M  V30 5698 H 560.886 4.55902 -3.70712 0
M  V30 5699 H 562.41 5.26304 -3.09575 0
M  V30 5700 H 563.824 3.50636 -4.53572 0
M  V30 5701 H 562.221 3.03937 -5.17438 0
M  V30 5702 H 563.291 1.79451 -4.50472 0
M  V30 5703 N 564.634 1.40294 0.718013 0
M  V30 5704 C 566.05 1.2227 1.02577 0
M  V30 5705 C 566.25 0.0961976 2.0127 0
M  V30 5706 O 565.306 -0.546695 2.46511 0
M  V30 5707 C 566.619 2.56348 1.57182 0
M  V30 5708 C 568.167 2.6334 1.69178 0
M  V30 5709 C 568.642 3.9768 2.27188 0
M  V30 5710 N 570.133 3.99409 2.34578 0
M  V30 5711 C 570.868 5.00141 2.8044 0
M  V30 5712 N 570.364 6.11268 3.26073 0
M  V30 5713 N 572.157 4.87511 2.79802 0
M  V30 5714 H 564.308 2.12304 0.0637899 0
M  V30 5715 H 566.571 0.943632 0.0909036 0
M  V30 5716 H 566.277 3.3942 0.921262 0
M  V30 5717 H 566.151 2.77266 2.55741 0
M  V30 5718 H 568.538 1.80641 2.33351 0
M  V30 5719 H 568.619 2.46255 0.692247 0
M  V30 5720 H 568.263 4.80817 1.63638 0
M  V30 5721 H 568.193 4.12093 3.27852 0
M  V30 5722 H 570.684 3.19162 2.02346 0
M  V30 5723 H 570.997 6.84023 3.59628 0
M  V30 5724 H 569.342 6.14837 3.24038 0
M  V30 5725 H 572.533 3.9979 2.43487 0
M  V30 5726 H 572.706 5.66158 3.15228 0
M  V30 5727 N 566.112 -0.949982 1.2575 0
M  V30 5728 C 567.337 -1.73503 1.13628 0
M  V30 5729 C 567.762 -1.85601 -0.30559 0
M  V30 5730 O 567.12 -1.33984 -1.22139 0
M  V30 5731 C 567.168 -3.1243 1.80055 0
M  V30 5732 O 566.272 -3.97916 1.08336 0
M  V30 5733 H 565.613 -0.532665 0.396439 0
M  V30 5734 H 568.143 -1.19043 1.66403 0
M  V30 5735 H 568.153 -3.62866 1.86527 0
M  V30 5736 H 566.828 -3.02941 2.84956 0
M  V30 5737 H 565.405 -3.56375 1.09777 0
M  V30 5738 N 567.59 -1.07411 -1.15328 0
M  V30 5739 C 568.52 -0.716472 -2.22236 0
M  V30 5740 C 569.501 0.296373 -1.67498 0
M  V30 5741 O 570.686 0.168989 -1.93463 0
M  V30 5742 C 567.816 -0.114142 -3.47112 0
M  V30 5743 C 566.77 -1.05421 -4.14814 0
M  V30 5744 C 566.096 -0.314604 -5.33774 0
M  V30 5745 C 567.396 -2.38808 -4.64508 0
M  V30 5746 H 569.09 -1.61029 -2.52408 0
M  V30 5747 H 566.636 -0.775702 -1.21321 0
M  V30 5748 H 568.589 0.148001 -4.2114 0
M  V30 5749 H 567.313 0.814755 -3.16274 0
M  V30 5750 H 565.972 -1.30128 -3.42728 0
M  V30 5751 H 565.62 0.617772 -4.99192 0
M  V30 5752 H 565.32 -0.941209 -5.80013 0
M  V30 5753 H 566.844 -0.0602747 -6.1057 0
M  V30 5754 H 568.258 -2.18424 -5.3006 0
M  V30 5755 H 566.655 -2.97069 -5.21412 0
M  V30 5756 H 567.725 -3.01067 -3.80114 0
M  V30 5757 N 569.068 1.32177 -0.85831 0
M  V30 5758 C 570.031 2.27086 -0.310588 0
M  V30 5759 C 571.031 1.51751 0.531806 0
M  V30 5760 O 572.221 1.70794 0.34279 0
M  V30 5761 C 569.353 3.36266 0.560179 0
M  V30 5762 H 570.546 2.77045 -1.1483 0
M  V30 5763 H 568.099 1.42911 -0.632942 0
M  V30 5764 H 568.834 2.9158 1.41956 0
M  V30 5765 H 568.619 3.92077 -0.0428473 0
M  V30 5766 H 570.109 4.06974 0.936056 0
M  V30 5767 N 570.547 0.616602 1.45037 0
M  V30 5768 C 571.824 0.0469086 1.95544 0
M  V30 5769 C 572.204 -1.42345 1.55888 0
M  V30 5770 O 571.552 -2.13055 0.825824 0
M  V30 5771 C 571.762 0.254489 3.48071 0
M  V30 5772 C 573.11 0.140025 4.24369 0
M  V30 5773 O 574.134 0.185084 3.55719 0
M  V30 5774 O 572.993 0.0327034 5.4649 0
M  V30 5775 H 570.087 -0.0306051 0.826433 0
M  V30 5776 H 572.633 0.687293 1.55159 0
M  V30 5777 H 571.405 1.27532 3.69934 0
M  V30 5778 H 571.028 -0.42073 3.95368 0
M  V30 5779 N 572.025 -1.5352 0.356285 0
M  V30 5780 C 572.955 -2.28372 -0.486661 0
M  V30 5781 C 573.936 -1.30432 -1.09185 0
M  V30 5782 O 575.121 -1.59291 -1.11085 0
M  V30 5783 C 572.251 -3.06604 -1.63129 0
M  V30 5784 C 571.205 -4.12154 -1.15381 0
M  V30 5785 C 570.531 -4.78415 -2.38796 0
M  V30 5786 C 571.831 -5.21724 -0.245179 0
M  V30 5787 H 573.525 -2.99083 0.137797 0
M  V30 5788 H 571.071 -1.43841 0.0677134 0
M  V30 5789 H 573.024 -3.57712 -2.22755 0
M  V30 5790 H 571.748 -2.33568 -2.28284 0
M  V30 5791 H 570.407 -3.61978 -0.580294 0
M  V30 5792 H 570.055 -4.01959 -3.02387 0
M  V30 5793 H 569.755 -5.49734 -2.07524 0
M  V30 5794 H 571.279 -5.32313 -2.99125 0
M  V30 5795 H 572.693 -5.68391 -0.748646 0
M  V30 5796 H 571.09 -6.00095 -0.0237608 0
M  V30 5797 H 572.16 -4.79596 0.715229 0
M  V30 5798 N 573.503 -0.0852151 -1.57369 0
M  V30 5799 C 574.752 0.580443 -1.93168 0
M  V30 5800 C 575.065 1.6995 -0.968319 0
M  V30 5801 O 576.271 2.42564 -1.21963 0
M  V30 5802 C 574.727 1.08386 -3.43192 0
M  V30 5803 C 574.335 -0.00491388 -4.48 0
M  V30 5804 C 576.079 1.72281 -3.87968 0
M  V30 5805 C 573.986 0.513299 -5.89168 0
M  V30 5806 H 572.916 0.22059 -0.72101 0
M  V30 5807 H 575.567 -0.159621 -1.82804 0
M  V30 5808 H 573.949 1.8773 -3.48674 0
M  V30 5809 H 575.123 -0.780032 -4.5415 0
M  V30 5810 H 573.438 -0.548453 -4.12772 0
M  V30 5811 H 576.035 2.12108 -4.9083 0
M  V30 5812 H 576.378 2.58811 -3.26071 0
M  V30 5813 H 576.911 0.995359 -3.85146 0
M  V30 5814 H 573.65 -0.315153 -6.54742 0
M  V30 5815 H 573.17 1.25564 -5.8651 0
M  V30 5816 H 574.849 0.985433 -6.39451 0
M  V30 5817 N 574.981 1.5647 0.188427 0
M  V30 5818 C 575.944 1.9421 1.21718 0
M  V30 5819 C 576.944 0.823901 1.38089 0
M  V30 5820 O 578.134 1.09122 1.35787 0
M  V30 5821 C 575.266 2.22197 2.58537 0
M  V30 5822 H 576.459 2.86252 0.894418 0
M  V30 5823 H 574.012 1.50263 0.430211 0
M  V30 5824 H 574.747 1.32814 2.95856 0
M  V30 5825 H 574.532 3.03688 2.48025 0
M  V30 5826 H 576.022 2.52376 3.3271 0
M  V30 5827 N 576.459 -0.456382 1.50847 0
M  V30 5828 C 577.706 -1.20736 1.62571 0
M  V30 5829 C 578.034 -1.9163 0.332904 0
M  V30 5830 O 577.289 -1.8343 -0.682058 0
M  V30 5831 C 577.588 -2.26336 2.76599 0
M  V30 5832 C 577.254 -1.7259 4.16562 0
M  V30 5833 C 575.916 -1.57654 4.54641 0
M  V30 5834 C 578.268 -1.32877 5.03977 0
M  V30 5835 C 575.596 -1.0145 5.77862 0
M  V30 5836 C 577.948 -0.7811 6.27759 0
M  V30 5837 C 576.612 -0.618488 6.64628 0
M  V30 5838 H 575.882 -0.441803 0.594888 0
M  V30 5839 H 578.529 -0.501169 1.84826 0
M  V30 5840 H 576.834 -3.0292 2.48489 0
M  V30 5841 H 578.531 -2.84227 2.82871 0
M  V30 5842 H 575.121 -1.85187 3.86528 0
M  V30 5843 H 579.305 -1.43245 4.75179 0
M  V30 5844 H 574.561 -0.876109 6.0509 0
M  V30 5845 H 578.735 -0.464783 6.94847 0
M  V30 5846 H 576.362 -0.180838 7.59985 0
M  V30 5847 N 577.937 -1.40673 -0.710563 0
M  V30 5848 C 578.885 -1.41517 -1.84596 0
M  V30 5849 C 579.879 -0.295043 -1.66811 0
M  V30 5850 O 581.085 -0.466331 -1.73854 0
M  V30 5851 H 577.46 -0.442467 -0.608052 0
M  V30 5852 H 579.431 -2.37238 -1.80999 0
M  V30 5853 C 578.18 -1.29957 -3.225 0
M  V30 5854 H 577.503 -2.15429 -3.36794 0
M  V30 5855 H 578.943 -1.34608 -4.02066 0
M  V30 5856 C 577.402 -0.0103164 -3.36898 0
M  V30 5857 O 577.932 0.950707 -3.90288 0
M  V30 5858 N 576.138 0.0608409 -2.90536 0
M  V30 5859 H 575.685 -0.721943 -2.47277 0
M  V30 5860 H 575.643 0.92292 -3.00549 0
M  V30 5861 N 579.415 0.9433 -1.26252 0
M  V30 5862 C 580.347 2.04542 -1.03417 0
M  V30 5863 C 581.36 1.62799 0.0046911 0
M  V30 5864 O 582.549 1.76944 -0.235146 0
M  V30 5865 C 579.649 3.34511 -0.543671 0
M  V30 5866 C 578.822 4.05033 -1.65128 0
M  V30 5867 C 577.881 5.13273 -1.1592 0
M  V30 5868 O 576.907 5.38095 -1.85586 0
M  V30 5869 N 578.109 5.805 -0.00649279 0
M  V30 5870 H 580.874 2.24699 -1.98319 0
M  V30 5871 H 578.435 1.11264 -1.1761 0
M  V30 5872 H 580.427 4.04212 -0.198703 0
M  V30 5873 H 578.997 3.11042 0.311711 0
M  V30 5874 H 578.217 3.29275 -2.16729 0
M  V30 5875 H 579.505 4.48903 -2.39508 0
M  V30 5876 H 578.903 5.62767 0.575347 0
M  V30 5877 H 577.46 6.51201 0.279416 0
M  V30 5878 N 580.893 1.08022 1.14757 0
M  V30 5879 C 581.856 0.71048 2.1791 0
M  V30 5880 C 582.856 -0.252731 1.58801 0
M  V30 5881 O 584.046 -0.0327915 1.74169 0
M  V30 5882 C 581.178 0.0483203 3.40866 0
M  V30 5883 H 582.371 1.62384 2.52134 0
M  V30 5884 H 579.924 0.877595 1.29337 0
M  V30 5885 H 580.659 -0.876959 3.12218 0
M  V30 5886 H 580.444 0.741189 3.85031 0
M  V30 5887 H 581.934 -0.195471 4.17142 0
M  V30 5888 N 582.371 -1.3172 0.865308 0
M  V30 5889 C 583.321 -2.26157 0.289305 0
M  V30 5890 C 584.305 -1.50428 -0.570977 0
M  V30 5891 O 585.497 -1.71978 -0.418617 0
M  V30 5892 C 582.626 -3.39457 -0.512237 0
M  V30 5893 C 581.712 -4.22561 0.361028 0
M  V30 5894 N 582.103 -4.84501 1.45231 0
M  V30 5895 C 580.401 -4.45739 0.152641 0
M  V30 5896 C 581.102 -5.46586 1.99043 0
M  V30 5897 N 580.078 -5.28119 1.28809 0
M  V30 5898 H 583.88 -2.71581 1.12344 0
M  V30 5899 H 581.394 -1.45932 0.712565 0
M  V30 5900 H 583.391 -4.06133 -0.941379 0
M  V30 5901 H 582.051 -2.95577 -1.34404 0
M  V30 5902 H 583.062 -4.84293 1.83524 0
M  V30 5903 H 579.739 -4.1251 -0.643583 0
M  V30 5904 H 581.129 -6.05817 2.90577 0
M  V30 5905 N 583.85 -0.624285 -1.44708 0
M  V30 5906 C 585.075 -0.131171 -2.06985 0
M  V30 5907 C 585.5 1.18234 -1.46295 0
M  V30 5908 O 584.858 1.72375 -0.561842 0
M  V30 5909 C 584.906 -0.0226724 -3.60593 0
M  V30 5910 O 584.01 1.02314 -3.99507 0
M  V30 5911 H 583.351 -0.0816556 -0.65896 0
M  V30 5912 H 585.88 -0.859027 -1.85693 0
M  V30 5913 H 585.891 0.170138 -4.07645 0
M  V30 5914 H 584.566 -0.981685 -4.04148 0
M  V30 5915 H 583.143 0.805452 -3.64097 0
M  V30 5916 N 585.328 1.53329 -0.364422 0
M  V30 5917 C 586.275 2.25698 0.482607 0
M  V30 5918 C 587.245 1.26325 1.07848 0
M  V30 5919 O 588.43 1.55104 1.11119 0
M  V30 5920 C 585.57 3.04873 1.61699 0
M  V30 5921 C 584.683 4.19135 1.0464 0
M  V30 5922 C 583.818 4.85754 2.14979 0
M  V30 5923 C 582.857 5.9205 1.5538 0
M  V30 5924 N 581.994 6.52365 2.59547 0
M  V30 5925 H 586.834 2.97666 -0.141032 0
M  V30 5926 H 584.371 1.46875 -0.0813692 0
M  V30 5927 H 586.329 3.49051 2.28516 0
M  V30 5928 H 584.959 2.35162 2.2113 0
M  V30 5929 H 584.011 3.79451 0.268553 0
M  V30 5930 H 585.323 4.95525 0.570653 0
M  V30 5931 H 584.477 5.3311 2.89619 0
M  V30 5932 H 583.216 4.08834 2.65906 0
M  V30 5933 H 582.221 5.44058 0.792549 0
M  V30 5934 H 583.446 6.7089 1.0528 0
M  V30 5935 H 581.392 5.78298 3.09689 0
M  V30 5936 H 581.309 7.2429 2.16655 0
M  V30 5937 H 582.577 7.0437 3.33892 0
M  V30 5938 N 586.806 0.0935595 1.57322 0
M  V30 5939 C 587.738 -0.895923 2.10964 0
M  V30 5940 C 588.751 -1.24705 1.04654 0
M  V30 5941 O 589.94 -1.20044 1.32105 0
M  V30 5942 C 587.04 -2.20546 2.57318 0
M  V30 5943 C 586.213 -2.0299 3.87445 0
M  V30 5944 C 585.272 -3.17443 4.19662 0
M  V30 5945 O 584.298 -2.91474 4.88909 0
M  V30 5946 N 585.5 -4.43168 3.74943 0
M  V30 5947 H 588.265 -0.437788 2.96485 0
M  V30 5948 H 585.826 -0.0915863 1.61641 0
M  V30 5949 H 587.818 -2.9606 2.75917 0
M  V30 5950 H 586.388 -2.57789 1.76816 0
M  V30 5951 H 585.608 -1.11815 3.78009 0
M  V30 5952 H 586.896 -1.88535 4.7258 0
M  V30 5953 H 586.294 -4.67149 3.19043 0
M  V30 5954 H 584.851 -5.15637 3.987 0
M  V30 5955 N 588.284 -1.56567 -0.180126 0
M  V30 5956 C 589.194 -1.98947 -1.24327 0
M  V30 5957 C 590.21 -0.899446 -1.4895 0
M  V30 5958 O 591.386 -1.20639 -1.61271 0
M  V30 5959 C 588.451 -2.33328 -2.56435 0
M  V30 5960 C 587.512 -3.56114 -2.39752 0
M  V30 5961 C 586.745 -3.88845 -3.65561 0
M  V30 5962 O 586.968 -3.22662 -4.70368 0
M  V30 5963 O 585.902 -4.82226 -3.60197 0
M  V30 5964 H 589.728 -2.89634 -0.913565 0
M  V30 5965 H 587.313 -1.44319 -0.386306 0
M  V30 5966 H 589.195 -2.5645 -3.34382 0
M  V30 5967 H 587.87 -1.45806 -2.89002 0
M  V30 5968 H 586.777 -3.38221 -1.59866 0
M  V30 5969 H 588.11 -4.4415 -2.12113 0
M  V30 5970 N 589.762 0.448376 -1.51087 0
M  V30 5971 C 590.692 1.55102 -1.74544 0
M  V30 5972 C 591.673 1.59357 -0.594932 0
M  V30 5973 O 592.858 1.75261 -0.836491 0
M  V30 5974 C 589.988 2.93268 -1.86041 0
M  V30 5975 C 588.942 3.03877 -3.01402 0
M  V30 5976 C 588.268 4.43914 -2.98068 0
M  V30 5977 C 589.568 2.7898 -4.41551 0
M  V30 5978 H 591.262 1.35724 -2.66869 0
M  V30 5979 H 588.808 0.651498 -1.28419 0
M  V30 5980 H 590.761 3.70356 -2.01034 0
M  V30 5981 H 589.485 3.13853 -0.903548 0
M  V30 5982 H 588.144 2.29227 -2.86096 0
M  V30 5983 H 587.792 4.6145 -2.00182 0
M  V30 5984 H 587.492 4.51944 -3.75527 0
M  V30 5985 H 589.016 5.22991 -3.1514 0
M  V30 5986 H 590.43 3.45805 -4.57265 0
M  V30 5987 H 588.827 2.98431 -5.20633 0
M  V30 5988 H 589.897 1.74663 -4.5235 0
M  V30 5989 N 591.24 1.41047 0.703093 0
M  V30 5990 C 592.488 1.39723 1.4602 0
M  V30 5991 C 592.809 0.00461257 1.94999 0
M  V30 5992 O 592.079 -0.952292 1.71196 0
M  V30 5993 H 590.659 0.514281 0.541779 0
M  V30 5994 H 593.321 1.76217 0.832678 0
M  V30 5995 H 592.417 2.07982 2.32701 0
M  V30 5996 N 592.718 -0.936591 1.26751 0
M  V30 5997 C 593.648 -2.05315 1.11212 0
M  V30 5998 C 594.629 -1.70092 0.0160262 0
M  V30 5999 O 595.814 -1.93279 0.188894 0
M  V30 6000 C 592.944 -3.39123 0.749171 0
M  V30 6001 C 591.898 -3.88425 1.79751 0
M  V30 6002 C 591.224 -5.18936 1.28876 0
M  V30 6003 C 592.524 -4.12798 3.19992 0
M  V30 6004 H 594.218 -2.18573 2.04613 0
M  V30 6005 H 591.764 -1.05027 0.985159 0
M  V30 6006 H 593.717 -4.16704 0.627323 0
M  V30 6007 H 592.441 -3.25855 -0.220543 0
M  V30 6008 H 591.1 -3.13028 1.90811 0
M  V30 6009 H 590.748 -5.02051 0.308757 0
M  V30 6010 H 590.448 -5.52892 1.98958 0
M  V30 6011 H 591.972 -5.99096 1.17967 0
M  V30 6012 H 593.386 -4.80977 3.11983 0
M  V30 6013 H 591.783 -4.58044 3.87705 0
M  V30 6014 H 592.853 -3.18412 3.65707 0
M  V30 6015 N 594.196 -1.08629 -1.14182 0
M  V30 6016 C 595.443 -0.817345 -1.85272 0
M  V30 6017 C 595.771 0.656917 -1.83071 0
M  V30 6018 O 595.026 1.49897 -1.25815 0
M  V30 6019 C 595.325 -1.28734 -3.3341 0
M  V30 6020 C 594.991 -2.76981 -3.55798 0
M  V30 6021 C 593.653 -3.17469 -3.61617 0
M  V30 6022 C 596.005 -3.72605 -3.64438 0
M  V30 6023 C 593.333 -4.52371 -3.736 0
M  V30 6024 C 595.685 -5.07286 -3.77947 0
M  V30 6025 C 594.349 -5.47376 -3.82016 0
M  V30 6026 H 593.619 -0.299088 -0.677958 0
M  V30 6027 H 596.266 -1.35962 -1.34857 0
M  V30 6028 H 594.571 -0.664702 -3.8612 0
M  V30 6029 H 596.268 -1.05598 -3.86846 0
M  V30 6030 H 592.858 -2.44644 -3.51919 0
M  V30 6031 H 597.042 -3.42443 -3.5923 0
M  V30 6032 H 592.298 -4.82882 -3.75013 0
M  V30 6033 H 596.472 -5.81243 -3.83575 0
M  V30 6034 H 594.099 -6.51906 -3.91054 0
M  V30 6035 N 595.674 1.31259 -0.872281 0
M  V30 6036 C 596.922 1.96233 -0.483409 0
M  V30 6037 C 597.243 1.69276 0.968012 0
M  V30 6038 O 596.513 1.00943 1.67891 0
M  V30 6039 H 595.093 0.726025 -0.175774 0
M  V30 6040 H 597.755 1.60024 -1.11258 0
M  V30 6041 H 596.851 3.05403 -0.643075 0
M  V30 6042 N 597.152 0.631951 1.44375 0
M  V30 6043 C 598.084 -0.110911 2.28931 0
M  V30 6044 C 599.097 -0.808086 1.41329 0
M  V30 6045 O 600.286 -0.669396 1.65473 0
M  V30 6046 C 597.386 -1.17928 3.1772 0
M  V30 6047 C 596.559 -0.564458 4.33743 0
M  V30 6048 C 595.618 -1.5269 5.0356 0
M  V30 6049 O 594.644 -1.04372 5.59549 0
M  V30 6050 N 595.846 -2.86123 5.05088 0
M  V30 6051 H 598.611 0.614758 2.93327 0
M  V30 6052 H 596.172 0.473171 1.54831 0
M  V30 6053 H 598.164 -1.82348 3.61291 0
M  V30 6054 H 596.734 -1.80717 2.55069 0
M  V30 6055 H 595.954 0.258373 3.93352 0
M  V30 6056 H 597.242 -0.134355 5.08623 0
M  V30 6057 H 596.64 -3.27959 4.60933 0
M  V30 6058 H 595.197 -3.45901 5.52445 0
M  V30 6059 N 598.631 -1.53133 0.372548 0
M  V30 6060 C 599.541 -2.29671 -0.478379 0
M  V30 6061 C 600.557 -1.35913 -1.08644 0
M  V30 6062 O 601.733 -1.68975 -1.09588 0
M  V30 6063 C 598.798 -3.07625 -1.599 0
M  V30 6064 C 597.859 -4.17061 -1.01776 0
M  V30 6065 C 597.092 -4.91289 -2.08497 0
M  V30 6066 O 597.315 -4.65442 -3.29727 0
M  V30 6067 O 596.249 -5.7705 -1.71164 0
M  V30 6068 H 600.075 -3.03355 0.144649 0
M  V30 6069 H 597.66 -1.48773 0.136729 0
M  V30 6070 H 599.542 -3.56281 -2.25038 0
M  V30 6071 H 598.217 -2.3677 -2.2073 0
M  V30 6072 H 597.124 -3.72641 -0.330098 0
M  V30 6073 H 598.457 -4.90102 -0.453915 0
M  V30 6074 N 600.109 -0.101901 -1.5727 0
M  V30 6075 C 601.039 0.851544 -2.17419 0
M  V30 6076 C 602.02 1.28942 -1.10941 0
M  V30 6077 O 603.205 1.35509 -1.39107 0
M  V30 6078 C 600.335 2.10816 -2.75996 0
M  V30 6079 C 599.289 1.80867 -3.87906 0
M  V30 6080 C 598.615 3.13413 -4.33216 0
M  V30 6081 C 599.915 1.0903 -5.10793 0
M  V30 6082 H 601.609 0.350381 -2.97343 0
M  V30 6083 H 599.155 0.16709 -1.43027 0
M  V30 6084 H 601.108 2.77959 -3.16729 0
M  V30 6085 H 599.832 2.63227 -1.93337 0
M  V30 6086 H 598.491 1.16119 -3.47724 0
M  V30 6087 H 598.139 3.63725 -3.47438 0
M  V30 6088 H 597.839 2.94155 -5.08671 0
M  V30 6089 H 599.363 3.81704 -4.76586 0
M  V30 6090 H 600.777 1.66295 -5.48652 0
M  V30 6091 H 599.174 0.99927 -5.91722 0
M  V30 6092 H 600.244 0.0741704 -4.84843 0
M  V30 6093 N 601.587 1.56661 0.17182 0
M  V30 6094 C 602.517 1.99401 1.21498 0
M  V30 6095 C 603.498 0.869516 1.46197 0
M  V30 6096 O 604.683 1.13556 1.57539 0
M  V30 6097 C 601.813 2.35346 2.55401 0
M  V30 6098 C 600.767 3.5075 2.45272 0
M  V30 6099 C 600.093 3.72437 3.8366 0
M  V30 6100 C 601.393 4.84216 1.95787 0
M  V30 6101 H 603.087 2.86792 0.859699 0
M  V30 6102 H 600.633 1.37977 0.412103 0
M  V30 6103 H 602.586 2.63843 3.2858 0
M  V30 6104 H 601.31 1.44864 2.92715 0
M  V30 6105 H 599.969 3.2238 1.74547 0
M  V30 6106 H 599.617 2.79246 4.18367 0
M  V30 6107 H 599.317 4.50087 3.77751 0
M  V30 6108 H 600.841 4.03334 4.58426 0
M  V30 6109 H 602.255 5.11592 2.5874 0
M  V30 6110 H 600.652 5.65498 2.00827 0
M  V30 6111 H 601.722 4.76243 0.912159 0
M  V30 6112 N 603.065 -0.440357 1.51323 0
M  V30 6113 C 604.311 -1.19181 1.64085 0
M  V30 6114 C 604.644 -1.90936 0.354575 0
M  V30 6115 O 603.919 -1.8347 -0.645675 0
M  V30 6116 C 604.202 -2.2112 2.84215 0
M  V30 6117 C 604.055 -1.53468 4.22809 0
M  V30 6118 C 605.374 -3.22133 2.99864 0
M  V30 6119 H 602.493 -0.431924 0.597169 0
M  V30 6120 H 605.135 -0.481443 1.83799 0
M  V30 6121 H 603.285 -2.81703 2.67537 0
M  V30 6122 H 604.957 -0.962455 4.51148 0
M  V30 6123 H 603.2 -0.837086 4.25647 0
M  V30 6124 H 603.871 -2.27694 5.02852 0
M  V30 6125 H 606.347 -2.71601 3.15233 0
M  V30 6126 H 605.223 -3.90756 3.85488 0
M  V30 6127 H 605.484 -3.88061 2.11804 0
M  V30 6128 N 604.543 -1.41418 -0.695603 0
M  V30 6129 C 605.453 -1.45622 -1.83933 0
M  V30 6130 C 606.469 -0.346825 -1.70508 0
M  V30 6131 O 607.645 -0.59454 -1.92424 0
M  V30 6132 C 604.71 -1.33627 -3.19914 0
M  V30 6133 C 603.771 -2.54882 -3.45447 0
M  V30 6134 C 603.004 -2.43449 -4.7494 0
M  V30 6135 O 603.227 -1.45905 -5.51424 0
M  V30 6136 O 602.161 -3.33206 -5.01256 0
M  V30 6137 H 605.987 -2.42114 -1.83342 0
M  V30 6138 H 603.572 -1.22956 -0.848658 0
M  V30 6139 H 605.454 -1.29221 -4.01098 0
M  V30 6140 H 604.129 -0.402508 -3.21188 0
M  V30 6141 H 603.036 -2.64865 -2.64192 0
M  V30 6142 H 604.369 -3.47087 -3.48987 0
M  V30 6143 N 606.021 0.929856 -1.27246 0
M  V30 6144 C 606.984 2.01172 -1.09829 0
M  V30 6145 C 607.984 1.60743 -0.0429687 0
M  V30 6146 O 609.174 1.71813 -0.287373 0
M  V30 6147 C 606.306 3.34191 -0.673003 0
M  V30 6148 H 607.499 2.18054 -2.05895 0
M  V30 6149 H 605.052 1.11036 -1.10003 0
M  V30 6150 H 605.787 3.23009 0.289134 0
M  V30 6151 H 605.572 3.64892 -1.43515 0
M  V30 6152 H 607.062 4.13646 -0.573323 0
M  V30 6153 N 607.499 1.09233 1.13605 0
M  V30 6154 C 608.776 0.739633 1.81077 0
M  V30 6155 C 609.156 -0.775595 1.96336 0
M  V30 6156 O 608.504 -1.69726 1.52988 0
M  V30 6157 C 608.714 1.47636 3.16235 0
M  V30 6158 C 610.062 1.64087 3.91613 0
M  V30 6159 O 611.086 1.43871 3.25852 0
M  V30 6160 O 609.945 1.97511 5.0956 0
M  V30 6161 H 607.039 0.265464 0.783236 0
M  V30 6162 H 609.585 1.19441 1.20549 0
M  V30 6163 H 608.357 2.50818 3.00344 0
M  V30 6164 H 607.98 1.01362 3.84462 0
M  V30 6165 N 608.977 -1.30795 0.87923 0
M  V30 6166 C 609.94 -2.26563 0.346676 0
M  V30 6167 C 610.94 -1.52578 -0.507597 0
M  V30 6168 O 612.13 -1.71318 -0.315575 0
M  V30 6169 C 609.262 -3.37115 -0.506611 0
M  V30 6170 H 610.455 -2.75183 1.19223 0
M  V30 6171 H 608.008 -1.41886 0.655598 0
M  V30 6172 H 608.743 -2.93802 -1.37299 0
M  V30 6173 H 608.528 -3.91959 0.105218 0
M  V30 6174 H 610.018 -4.08412 -0.871192 0
M  V30 6175 N 610.455 -0.639598 -1.44038 0
M  V30 6176 C 611.683 -0.154811 -2.0632 0
M  V30 6177 C 612.098 1.17406 -1.47856 0
M  V30 6178 O 611.455 1.72193 -0.604638 0
M  V30 6179 C 611.506 -0.0429958 -3.61474 0
M  V30 6180 O 611.227 -1.31932 -4.17763 0
M  V30 6181 C 612.728 0.469486 -4.40807 0
M  V30 6182 H 609.948 -0.0835862 -0.665773 0
M  V30 6183 H 612.492 -0.876397 -1.84769 0
M  V30 6184 H 610.647 0.629075 -3.82258 0
M  V30 6185 H 611.061 -1.16965 -5.11292 0
M  V30 6186 H 612.535 0.496712 -5.49761 0
M  V30 6187 H 613.012 1.49819 -4.12857 0
M  V30 6188 H 613.618 -0.169624 -4.24962 0
M  V30 6189 N 611.933 1.52934 -0.380664 0
M  V30 6190 C 612.896 2.24809 0.446473 0
M  V30 6191 C 613.896 1.26133 0.997347 0
M  V30 6192 O 615.086 1.50297 0.880714 0
M  V30 6193 C 612.218 2.99649 1.62553 0
M  V30 6194 H 613.411 2.99343 -0.182677 0
M  V30 6195 H 610.964 1.55736 -0.132618 0
M  V30 6196 H 611.699 2.29395 2.29235 0
M  V30 6197 H 611.484 3.72066 1.23732 0
M  V30 6198 H 612.974 3.54246 2.21133 0
M  V30 6199 N 613.412 0.11024 1.57214 0
M  V30 6200 C 614.66 -0.548783 1.94506 0
M  V30 6201 C 614.981 -1.67772 0.99386 0
M  V30 6202 O 614.251 -1.9584 0.0485841 0
M  V30 6203 H 612.831 -0.205715 0.718116 0
M  V30 6204 H 615.493 0.177127 1.94093 0
M  V30 6205 H 614.589 -0.949096 2.97319 0
M  V30 6206 N 614.89 -1.56749 -0.16351 0
M  V30 6207 C 615.82 -2.00042 -1.20438 0
M  V30 6208 C 616.801 -0.877256 -1.45733 0
M  V30 6209 O 617.986 -1.1439 -1.56935 0
M  V30 6210 C 615.116 -2.36697 -2.54149 0
M  V30 6211 C 614.07 -3.52046 -2.43408 0
M  V30 6212 C 613.396 -3.74466 -3.81679 0
M  V30 6213 C 614.696 -4.85247 -1.93216 0
M  V30 6214 H 616.39 -2.87244 -0.844477 0
M  V30 6215 H 613.936 -1.38194 -0.40478 0
M  V30 6216 H 615.889 -2.65582 -3.27176 0
M  V30 6217 H 614.613 -1.46414 -2.91943 0
M  V30 6218 H 613.272 -3.23301 -1.72834 0
M  V30 6219 H 612.92 -2.81461 -4.1688 0
M  V30 6220 H 612.62 -4.52084 -3.75359 0
M  V30 6221 H 614.144 -4.0576 -4.5628 0
M  V30 6222 H 615.558 -5.12957 -2.56023 0
M  V30 6223 H 613.955 -5.66556 -1.97825 0
M  V30 6224 H 615.025 -4.7672 -0.88689 0
M  V30 6225 N 616.368 0.432326 -1.51554 0
M  V30 6226 C 617.331 1.50765 -1.72634 0
M  V30 6227 C 618.331 1.49334 -0.596314 0
M  V30 6228 O 619.521 1.51268 -0.863925 0
M  V30 6229 C 616.653 2.90284 -1.7874 0
M  V30 6230 H 617.846 1.33377 -2.68609 0
M  V30 6231 H 615.399 0.661329 -1.4162 0
M  V30 6232 H 616.134 3.13071 -0.845977 0
M  V30 6233 H 615.919 2.92727 -2.6087 0
M  V30 6234 H 617.409 3.68282 -1.96871 0
M  V30 6235 N 617.846 1.41785 0.688094 0
M  V30 6236 C 619.123 1.32031 1.44316 0
M  V30 6237 C 619.503 -0.0486079 2.11044 0
M  V30 6238 O 618.851 -1.06332 2.02252 0
M  V30 6239 C 619.061 2.47906 2.45649 0
M  V30 6240 C 620.409 2.89415 3.10683 0
M  V30 6241 O 621.433 2.477 2.55975 0
M  V30 6242 O 620.292 3.61573 4.09789 0
M  V30 6243 H 617.386 0.519994 0.643067 0
M  V30 6244 H 619.932 1.53765 0.71794 0
M  V30 6245 H 618.704 3.39222 1.95048 0
M  V30 6246 H 618.327 2.28089 3.25671 0
M  V30 6247 N 619.324 -0.923095 1.27737 0
M  V30 6248 C 620.735 -1.48626 1.12993 0
M  V30 6249 C 621.086 -1.94142 -0.283439 0
M  V30 6250 O 620.211 -1.81605 -1.17681 0
M  V30 6251 C 620.806 -2.70117 2.04505 0
M  V30 6252 C 619.365 -3.22642 1.93853 0
M  V30 6253 C 618.512 -1.95368 1.96791 0
M  V30 6254 H 621.463 -0.736737 1.40563 0
M  V30 6255 H 621.484 -3.4506 1.60356 0
M  V30 6256 H 620.996 -2.36959 3.07363 0
M  V30 6257 H 619.097 -3.60549 0.939968 0
M  V30 6258 H 619.21 -3.88525 2.80331 0
M  V30 6259 H 617.574 -2.12061 1.41076 0
M  V30 6260 H 618.357 -1.64517 3.01312 0
M  V30 6261 N 620.802 -1.09834 -1.13024 0
M  V30 6262 C 621.765 -0.745058 -2.16752 0
M  V30 6263 C 622.765 0.227435 -1.59183 0
M  V30 6264 O 623.955 0.0050786 -1.74199 0
M  V30 6265 C 621.087 -0.102543 -3.40746 0
M  V30 6266 H 622.28 -1.66375 -2.49518 0
M  V30 6267 H 619.833 -0.898061 -1.27924 0
M  V30 6268 H 620.568 0.827177 -3.13573 0
M  V30 6269 H 620.353 -0.80235 -3.83803 0
M  V30 6270 H 621.843 0.129082 -4.174 0
M  V30 6271 N 622.28 1.30327 -0.886154 0
M  V30 6272 C 623.51 1.99964 -0.519421 0
M  V30 6273 C 623.918 1.66593 0.89686 0
M  V30 6274 O 623.261 0.899886 1.60149 0
M  V30 6275 C 623.323 3.54187 -0.615795 0
M  V30 6276 C 622.987 4.11078 -1.9966 0
M  V30 6277 C 623.984 4.26985 -2.96614 0
M  V30 6278 C 621.669 4.46429 -2.30231 0
M  V30 6279 C 623.663 4.77456 -4.22273 0
M  V30 6280 C 621.35 4.966 -3.56135 0
M  V30 6281 C 622.348 5.12066 -4.5197 0
M  V30 6282 O 622.036 5.61154 -5.7564 0
M  V30 6283 H 621.768 0.645979 -0.199217 0
M  V30 6284 H 624.322 1.67154 -1.19368 0
M  V30 6285 H 622.552 3.86528 0.115448 0
M  V30 6286 H 624.241 4.05065 -0.26017 0
M  V30 6287 H 625.007 3.99975 -2.74308 0
M  V30 6288 H 620.886 4.33658 -1.56404 0
M  V30 6289 H 624.43 4.89444 -4.97082 0
M  V30 6290 H 620.327 5.23045 -3.78277 0
M  V30 6291 H 621.095 5.79494 -5.78039 0
M  V30 6292 N 623.758 0.647228 1.43697 0
M  V30 6293 C 625.007 0.155552 2.01099 0
M  V30 6294 C 625.32 -1.23569 1.51624 0
M  V30 6295 O 626.526 -1.82226 2.01261 0
M  V30 6296 C 624.982 0.227296 3.59182 0
M  V30 6297 C 624.59 1.62086 4.17651 0
M  V30 6298 C 626.334 -0.207085 4.23995 0
M  V30 6299 C 624.241 1.64685 5.68008 0
M  V30 6300 H 623.171 0.0543895 0.752036 0
M  V30 6301 H 625.822 0.808386 1.64734 0
M  V30 6302 H 624.204 -0.492937 3.9292 0
M  V30 6303 H 625.378 2.36597 3.95422 0
M  V30 6304 H 623.693 2.0007 3.65186 0
M  V30 6305 H 626.29 -0.207426 5.34298 0
M  V30 6306 H 626.633 -1.23742 3.97484 0
M  V30 6307 H 627.166 0.461193 3.95118 0
M  V30 6308 H 623.905 2.65608 5.99277 0
M  V30 6309 H 623.425 0.944914 5.9231 0
M  V30 6310 H 625.104 1.38792 6.31938 0
M  V30 6311 N 625.236 -1.5273 0.388769 0
M  V30 6312 C 626.652 -1.59553 0.0387049 0
M  V30 6313 C 626.852 -1.40278 -1.44652 0
M  V30 6314 O 625.908 -1.21951 -2.21098 0
M  V30 6315 C 627.221 -2.9625 0.515409 0
M  V30 6316 C 628.769 -3.09426 0.471621 0
M  V30 6317 C 629.244 -4.48572 0.924505 0
M  V30 6318 N 630.735 -4.54754 0.880496 0
M  V30 6319 C 631.47 -5.60653 1.20234 0
M  V30 6320 N 630.966 -6.74198 1.59463 0
M  V30 6321 N 632.759 -5.50755 1.12363 0
M  V30 6322 H 624.91 -1.63508 1.35569 0
M  V30 6323 H 627.173 -0.768097 0.555636 0
M  V30 6324 H 626.879 -3.15569 1.5527 0
M  V30 6325 H 626.753 -3.77102 -0.085792 0
M  V30 6326 H 629.14 -2.89804 -0.556588 0
M  V30 6327 H 629.221 -2.30528 1.10862 0
M  V30 6328 H 628.865 -4.68936 1.95094 0
M  V30 6329 H 628.795 -5.25935 0.264524 0
M  V30 6330 H 631.286 -3.73237 0.591815 0
M  V30 6331 H 631.599 -7.5097 1.82385 0
M  V30 6332 H 629.944 -6.75531 1.63349 0
M  V30 6333 H 633.135 -4.6093 0.816169 0
M  V30 6334 H 633.308 -6.33184 1.37777 0
M  V30 6335 N 626.714 -0.118576 -1.57153 0
M  V30 6336 C 627.677 0.817464 -2.14127 0
M  V30 6337 C 628.677 1.1949 -1.07604 0
M  V30 6338 O 629.867 1.12048 -1.33382 0
M  V30 6339 C 626.999 2.10541 -2.68115 0
M  V30 6340 H 628.192 0.322339 -2.98163 0
M  V30 6341 H 625.745 0.130655 -1.55753 0
M  V30 6342 H 626.48 2.64485 -1.87665 0
M  V30 6343 H 626.265 1.84425 -3.4602 0
M  V30 6344 H 627.755 2.77453 -3.12105 0
M  V30 6345 N 628.193 1.56834 0.155195 0
M  V30 6346 C 629.609 1.51315 0.50755 0
M  V30 6347 C 629.809 0.825614 1.83809 0
M  V30 6348 O 628.865 0.39271 2.49427 0
M  V30 6349 C 630.178 2.96074 0.52542 0
M  V30 6350 C 631.726 3.06968 0.611505 0
M  V30 6351 C 632.201 4.53218 0.660115 0
M  V30 6352 N 633.692 4.5753 0.722564 0
M  V30 6353 C 634.427 5.68056 0.781023 0
M  V30 6354 N 633.923 6.88173 0.799327 0
M  V30 6355 N 635.716 5.56068 0.821278 0
M  V30 6356 H 627.867 1.9993 -0.717063 0
M  V30 6357 H 630.13 0.911507 -0.260496 0
M  V30 6358 H 629.836 3.49599 -0.383875 0
M  V30 6359 H 629.71 3.51587 1.36624 0
M  V30 6360 H 632.097 2.53468 1.51122 0
M  V30 6361 H 632.178 2.54513 -0.256306 0
M  V30 6362 H 631.822 5.07354 -0.23541 0
M  V30 6363 H 631.752 5.03447 1.5443 0
M  V30 6364 H 634.243 3.71054 0.716049 0
M  V30 6365 H 634.556 7.6816 0.845553 0
M  V30 6366 H 632.901 6.90751 0.767337 0
M  V30 6367 H 636.092 4.61142 0.804091 0
M  V30 6368 H 636.265 6.42223 0.863372 0
M  V30 6369 N 629.671 -0.424282 1.51781 0
M  V30 6370 C 630.896 -1.19928 1.6921 0
M  V30 6371 C 631.321 -1.8392 0.394355 0
M  V30 6372 O 630.679 -1.69371 -0.646778 0
M  V30 6373 C 630.727 -2.24937 2.81843 0
M  V30 6374 O 629.831 -3.3073 2.46356 0
M  V30 6375 H 629.172 -0.35078 0.563781 0
M  V30 6376 H 631.702 -0.499401 1.98412 0
M  V30 6377 H 631.712 -2.69512 3.06312 0
M  V30 6378 H 630.387 -1.77742 3.76006 0
M  V30 6379 H 628.964 -2.9154 2.32505 0
M  V30 6380 N 631.149 -1.42148 -0.680565 0
M  V30 6381 C 632.426 -1.32795 -1.43614 0
M  V30 6382 C 632.806 0.037415 -2.11067 0
M  V30 6383 O 632.154 1.05258 -2.02813 0
M  V30 6384 C 632.364 -2.49206 -2.44331 0
M  V30 6385 C 633.712 -2.91059 -3.09144 0
M  V30 6386 O 634.736 -2.49054 -2.54657 0
M  V30 6387 O 633.595 -3.63741 -4.07866 0
M  V30 6388 H 630.689 -0.523397 -0.640301 0
M  V30 6389 H 633.235 -1.54144 -0.709775 0
M  V30 6390 H 632.007 -3.40252 -1.93247 0
M  V30 6391 H 631.63 -2.29813 -3.24456 0
M  V30 6392 N 632.627 0.916307 -1.28225 0
M  V30 6393 C 633.59 1.99996 -1.11957 0
M  V30 6394 C 634.59 1.60688 -0.0600152 0
M  V30 6395 O 635.78 1.71499 -0.30558 0
M  V30 6396 C 632.912 3.33458 -0.708411 0
M  V30 6397 H 634.105 2.15858 -2.08196 0
M  V30 6398 H 631.658 1.09863 -1.11175 0
M  V30 6399 H 632.393 3.23297 0.254859 0
M  V30 6400 H 632.178 3.63349 -1.47377 0
M  V30 6401 H 633.668 4.13014 -0.617164 0
M  V30 6402 N 634.105 1.10431 1.1244 0
M  V30 6403 C 635.521 0.836096 1.35947 0
M  V30 6404 C 635.721 -0.544475 1.94004 0
M  V30 6405 O 634.777 -1.29735 2.16622 0
M  V30 6406 C 636.09 1.93575 2.30107 0
M  V30 6407 C 637.638 1.9642 2.43697 0
M  V30 6408 C 638.113 3.05559 3.41171 0
M  V30 6409 N 639.604 3.04865 3.48728 0
M  V30 6410 C 640.339 3.85954 4.24061 0
M  V30 6411 N 639.835 4.76977 5.02458 0
M  V30 6412 N 641.628 3.74172 4.19466 0
M  V30 6413 H 633.779 1.9942 0.731124 0
M  V30 6414 H 636.042 0.866607 0.384312 0
M  V30 6415 H 635.748 2.92943 1.94621 0
M  V30 6416 H 635.622 1.8229 3.30227 0
M  V30 6417 H 638.009 0.97685 2.78463 0
M  V30 6418 H 638.09 2.11782 1.43465 0
M  V30 6419 H 637.734 4.04513 3.07135 0
M  V30 6420 H 637.664 2.87438 4.41234 0
M  V30 6421 H 640.155 2.38908 2.92799 0
M  V30 6422 H 640.468 5.35409 5.57277 0
M  V30 6423 H 638.813 4.81006 5.01655 0
M  V30 6424 H 642.004 3.02412 3.57302 0
M  V30 6425 H 642.177 4.37602 4.77921 0
M  V30 6426 N 635.583 -1.29855 0.893053 0
M  V30 6427 C 636.999 -1.48366 0.588199 0
M  V30 6428 C 637.199 -1.81654 -0.872018 0
M  V30 6429 O 636.255 -1.909 -1.65268 0
M  V30 6430 C 637.568 -2.60136 1.5083 0
M  V30 6431 C 639.116 -2.74014 1.51279 0
M  V30 6432 C 639.591 -3.88905 2.41902 0
M  V30 6433 N 641.082 -3.96228 2.39911 0
M  V30 6434 C 641.817 -4.84458 3.06738 0
M  V30 6435 N 641.313 -5.77426 3.8282 0
M  V30 6436 N 643.106 -4.77894 2.95929 0
M  V30 6437 H 635.257 -1.06522 1.83757 0
M  V30 6438 H 637.52 -0.528495 0.787018 0
M  V30 6439 H 637.226 -2.42383 2.54839 0
M  V30 6440 H 637.1 -3.56793 1.22388 0
M  V30 6441 H 639.487 -2.91167 0.480179 0
M  V30 6442 H 639.568 -1.77952 1.83757 0
M  V30 6443 H 639.212 -3.72508 3.45253 0
M  V30 6444 H 639.142 -4.84322 2.06737 0
M  V30 6445 H 641.633 -3.29728 1.84629 0
M  V30 6446 H 641.946 -6.41529 4.30883 0
M  V30 6447 H 640.291 -5.77332 3.86927 0
M  V30 6448 H 643.482 -4.04248 2.36012 0
M  V30 6449 H 643.655 -5.46444 3.48286 0
M  V30 6450 N 637.061 -0.65484 -1.43351 0
M  V30 6451 C 637.991 0.0221809 -2.33489 0
M  V30 6452 C 638.972 0.810272 -1.49561 0
M  V30 6453 O 640.157 0.771426 -1.78221 0
M  V30 6454 C 637.287 0.988117 -3.32947 0
M  V30 6455 C 636.241 0.310026 -4.26876 0
M  V30 6456 C 635.567 1.38752 -5.16384 0
M  V30 6457 C 636.867 -0.798589 -5.16159 0
M  V30 6458 H 638.561 -0.730571 -2.9035 0
M  V30 6459 H 636.107 -0.352773 -1.39612 0
M  V30 6460 H 638.06 1.47067 -3.94904 0
M  V30 6461 H 636.784 1.77205 -2.74346 0
M  V30 6462 H 635.443 -0.152097 -3.66284 0
M  V30 6463 H 635.091 2.16293 -4.54121 0
M  V30 6464 H 634.791 0.939051 -5.80048 0
M  V30 6465 H 636.315 1.87141 -5.81215 0
M  V30 6466 H 637.729 -0.398126 -5.71916 0
M  V30 6467 H 636.126 -1.17163 -5.88552 0
M  V30 6468 H 637.196 -1.65588 -4.55751 0
M  V30 6469 N 638.539 1.52521 -0.396863 0
M  V30 6470 C 639.502 2.2527 0.422604 0
M  V30 6471 C 640.502 1.27184 0.983913 0
M  V30 6472 O 641.692 1.51222 0.864723 0
M  V30 6473 C 638.824 3.01356 1.59365 0
M  V30 6474 H 640.017 2.99133 -0.214416 0
M  V30 6475 H 637.57 1.55587 -0.149128 0
M  V30 6476 H 638.305 2.31813 2.26789 0
M  V30 6477 H 638.09 3.73357 1.19779 0
M  V30 6478 H 639.58 3.56571 2.17363 0
M  V30 6479 N 640.017 0.126909 1.57088 0
M  V30 6480 C 641.265 -0.528123 1.95078 0
M  V30 6481 C 641.586 -1.66708 1.0116 0
M  V30 6482 O 640.856 -1.95777 0.0693527 0
M  V30 6483 H 639.436 -0.198087 0.720257 0
M  V30 6484 H 642.098 0.197703 1.93895 0
M  V30 6485 H 641.194 -0.917507 2.98309 0
M  V30 6486 N 641.495 -1.56914 -0.146875 0
M  V30 6487 C 642.906 -1.72799 -0.706928 0
M  V30 6488 C 643.257 -0.741329 -1.81656 0
M  V30 6489 O 642.382 0.0920162 -2.16204 0
M  V30 6490 C 642.977 -3.13317 -1.28911 0
M  V30 6491 C 641.536 -3.30803 -1.79573 0
M  V30 6492 C 640.683 -2.68725 -0.684252 0
M  V30 6493 H 643.634 -1.58504 0.0787931 0
M  V30 6494 H 643.655 -3.13323 -2.15891 0
M  V30 6495 H 643.167 -3.85104 -0.481284 0
M  V30 6496 H 641.268 -2.64012 -2.62923 0
M  V30 6497 H 641.381 -4.38754 -1.92436 0
M  V30 6498 H 639.745 -2.29196 -1.11091 0
M  V30 6499 H 640.528 -3.43117 0.112134 0
M  V30 6500 N 642.974 0.416227 -1.52004 0
M  V30 6501 C 643.884 1.53147 -1.77717 0
M  V30 6502 C 644.9 1.609 -0.662368 0
M  V30 6503 O 646.076 1.77747 -0.946991 0
M  V30 6504 C 643.141 2.88948 -1.91598 0
M  V30 6505 C 642.202 2.9114 -3.15493 0
M  V30 6506 C 641.435 4.20464 -3.28703 0
M  V30 6507 O 641.658 5.13981 -2.47345 0
M  V30 6508 O 640.592 4.29368 -4.21813 0
M  V30 6509 H 644.418 1.34357 -2.72363 0
M  V30 6510 H 642.003 0.601373 -1.36762 0
M  V30 6511 H 643.885 3.69505 -2.02593 0
M  V30 6512 H 642.56 3.07821 -1.00141 0
M  V30 6513 H 641.467 2.09461 -3.09962 0
M  V30 6514 H 642.8 2.77216 -4.06709 0
M  V30 6515 N 644.452 1.42507 0.673017 0
M  V30 6516 C 645.7 1.42789 1.43023 0
M  V30 6517 C 646.021 0.0459738 1.94946 0
M  V30 6518 O 645.291 -0.915765 1.73178 0
M  V30 6519 H 643.871 0.525657 0.530748 0
M  V30 6520 H 646.533 1.77944 0.795113 0
M  V30 6521 H 645.629 2.12872 2.28237 0
M  V30 6522 N 645.93 -0.909495 1.28709 0
M  V30 6523 C 647.179 -1.65365 1.15487 0
M  V30 6524 C 647.492 -1.93364 -0.294941 0
M  V30 6525 O 648.698 -2.65905 -0.548338 0
M  V30 6526 C 647.154 -2.97923 2.01916 0
M  V30 6527 C 646.762 -2.77556 3.51663 0
M  V30 6528 C 648.506 -3.75814 1.97393 0
M  V30 6529 C 646.413 -4.0578 4.30229 0
M  V30 6530 H 645.343 -0.620323 0.42862 0
M  V30 6531 H 647.994 -1.00894 1.53273 0
M  V30 6532 H 646.376 -3.63552 1.5699 0
M  V30 6533 H 647.55 -2.2058 4.04575 0
M  V30 6534 H 645.865 -2.13072 3.57756 0
M  V30 6535 H 648.462 -4.70866 2.53357 0
M  V30 6536 H 648.805 -4.05277 0.951643 0
M  V30 6537 H 649.338 -3.1701 2.40311 0
M  V30 6538 H 646.077 -3.81488 5.33055 0
M  V30 6539 H 645.597 -4.62351 3.82089 0
M  V30 6540 H 647.276 -4.74004 4.40374 0
M  V30 6541 N 647.408 -1.11026 -1.11852 0
M  V30 6542 C 648.685 -0.768347 -1.79877 0
M  V30 6543 C 649.065 0.744261 -1.97545 0
M  V30 6544 O 648.413 1.67271 -1.55669 0
M  V30 6545 C 648.623 -1.52648 -3.13846 0
M  V30 6546 C 649.971 -1.70297 -3.88953 0
M  V30 6547 O 650.995 -1.49037 -3.23522 0
M  V30 6548 O 649.854 -2.05593 -5.06353 0
M  V30 6549 H 646.948 -0.277891 -0.778913 0
M  V30 6550 H 649.494 -1.21343 -1.18633 0
M  V30 6551 H 648.266 -2.55564 -2.96315 0
M  V30 6552 H 647.889 -1.07466 -3.82801 0
M  V30 6553 N 648.886 1.2938 -0.899927 0
M  V30 6554 C 649.849 2.25983 -0.382677 0
M  V30 6555 C 650.849 1.53366 0.483259 0
M  V30 6556 O 652.039 1.71798 0.28828 0
M  V30 6557 C 649.171 3.37878 0.452915 0
M  V30 6558 H 650.364 2.73252 -1.23586 0
M  V30 6559 H 647.917 1.40825 -0.678088 0
M  V30 6560 H 648.652 2.95949 1.32608 0
M  V30 6561 H 648.437 3.91742 -0.167562 0
M  V30 6562 H 649.927 4.09746 0.806107 0
M  V30 6563 N 650.364 0.662433 1.43002 0
M  V30 6564 C 651.327 -0.0142016 2.29196 0
M  V30 6565 C 652.327 -0.741394 1.42688 0
M  V30 6566 O 653.517 -0.581257 1.64216 0
M  V30 6567 C 650.649 -1.03084 3.24941 0
M  V30 6568 H 651.842 0.7443 2.90517 0
M  V30 6569 H 649.395 0.424133 1.50435 0
M  V30 6570 H 650.13 -1.81826 2.68533 0
M  V30 6571 H 649.915 -0.512946 3.8873 0
M  V30 6572 H 651.405 -1.50308 3.89612 0
M  V30 6573 N 651.842 -1.52309 0.404946 0
M  V30 6574 C 652.772 -2.29805 -0.41376 0
M  V30 6575 C 653.753 -1.3384 -1.0498 0
M  V30 6576 O 654.938 -1.62745 -1.05961 0
M  V30 6577 C 652.068 -3.11639 -1.53292 0
M  V30 6578 C 651.022 -4.15616 -1.02211 0
M  V30 6579 C 650.348 -4.8577 -2.23455 0
M  V30 6580 C 651.648 -5.2224 -0.0790725 0
M  V30 6581 H 653.342 -2.98493 0.232878 0
M  V30 6582 H 650.888 -1.43552 0.113441 0
M  V30 6583 H 652.841 -3.64618 -2.11262 0
M  V30 6584 H 651.565 -2.40712 -2.20738 0
M  V30 6585 H 650.224 -3.63641 -0.46484 0
M  V30 6586 H 649.872 -4.11376 -2.89445 0
M  V30 6587 H 649.572 -5.56058 -1.89929 0
M  V30 6588 H 651.096 -5.4156 -2.82038 0
M  V30 6589 H 652.51 -5.70485 -0.567438 0
M  V30 6590 H 650.907 -5.99867 0.167167 0
M  V30 6591 H 651.977 -4.77078 0.867447 0
M  V30 6592 N 653.32 -0.135238 -1.57019 0
M  V30 6593 C 654.283 0.794707 -2.14981 0
M  V30 6594 C 655.283 1.18342 -1.08866 0
M  V30 6595 O 656.473 1.10627 -1.34563 0
M  V30 6596 C 653.605 2.07685 -2.70333 0
M  V30 6597 H 654.798 0.290696 -2.98488 0
M  V30 6598 H 652.351 0.114128 -1.55883 0
M  V30 6599 H 653.086 2.6248 -1.9046 0
M  V30 6600 H 652.871 1.80745 -3.47957 0
M  V30 6601 H 654.361 2.74127 -3.1503 0
M  V30 6602 N 654.798 1.5699 0.138552 0
M  V30 6603 C 655.761 1.97984 1.15478 0
M  V30 6604 C 656.761 0.867416 1.35398 0
M  V30 6605 O 657.951 1.13387 1.32246 0
M  V30 6606 C 655.083 2.3031 2.51337 0
M  V30 6607 H 656.276 2.88953 0.802896 0
M  V30 6608 H 653.829 1.51555 0.382189 0
M  V30 6609 H 654.564 1.42159 2.91481 0
M  V30 6610 H 654.349 3.11425 2.38237 0
M  V30 6611 H 655.839 2.62834 3.24512 0
M  V30 6612 N 656.276 -0.40816 1.52223 0
M  V30 6613 C 657.226 -1.49648 1.72016 0
M  V30 6614 C 658.21 -1.50311 0.574069 0
M  V30 6615 O 659.402 -1.56271 0.831173 0
M  V30 6616 C 656.531 -2.87566 1.87512 0
M  V30 6617 C 655.617 -2.91547 3.07995 0
M  V30 6618 N 656.008 -2.65225 4.30685 0
M  V30 6619 C 654.306 -3.22715 3.07849 0
M  V30 6620 C 655.007 -2.75799 5.12162 0
M  V30 6621 N 653.983 -3.08719 4.4743 0
M  V30 6622 H 657.785 -1.28093 2.64517 0
M  V30 6623 H 655.299 -0.61588 1.50269 0
M  V30 6624 H 657.296 -3.65899 1.99809 0
M  V30 6625 H 655.956 -3.10118 0.962114 0
M  V30 6626 H 656.967 -2.39601 4.59142 0
M  V30 6627 H 653.644 -3.50856 2.26289 0
M  V30 6628 H 655.034 -2.59155 6.1991 0
M  V30 6629 N 657.755 -1.42862 -0.66545 0
M  V30 6630 C 658.687 -1.43026 -1.79098 0
M  V30 6631 C 659.7 -0.32803 -1.59461 0
M  V30 6632 O 660.889 -0.591709 -1.68407 0
M  V30 6633 C 657.989 -1.21566 -3.16346 0
M  V30 6634 C 657.162 -2.44399 -3.62751 0
M  V30 6635 C 656.221 -2.18344 -4.78761 0
M  V30 6636 O 655.247 -2.91611 -4.88827 0
M  V30 6637 N 656.449 -1.1924 -5.68122 0
M  V30 6638 H 659.214 -2.40045 -1.79439 0
M  V30 6639 H 656.775 -1.37861 -0.848872 0
M  V30 6640 H 658.767 -1.02037 -3.91625 0
M  V30 6641 H 657.337 -0.330368 -3.10849 0
M  V30 6642 H 656.557 -2.79433 -2.78048 0
M  V30 6643 H 657.845 -3.26173 -3.90498 0
M  V30 6644 H 657.243 -0.586603 -5.6265 0
M  V30 6645 H 655.8 -1.05698 -6.43173 0
M  V30 6646 N 659.233 0.902656 -1.29189 0
M  V30 6647 C 660.163 2.02294 -1.16616 0
M  V30 6648 C 661.144 1.6999 -0.0611175 0
M  V30 6649 O 662.329 1.9271 -0.240072 0
M  V30 6650 C 659.459 3.37018 -0.83882 0
M  V30 6651 C 658.413 3.83522 -1.89986 0
M  V30 6652 C 657.739 5.15337 -1.42589 0
M  V30 6653 C 659.039 4.04169 -3.30824 0
M  V30 6654 H 660.733 2.13071 -2.10336 0
M  V30 6655 H 658.279 1.02378 -1.01266 0
M  V30 6656 H 660.232 4.14895 -0.737584 0
M  V30 6657 H 658.956 3.26325 0.134071 0
M  V30 6658 H 657.615 3.07859 -1.99043 0
M  V30 6659 H 657.263 5.01056 -0.441759 0
M  V30 6660 H 656.963 5.47423 -2.13547 0
M  V30 6661 H 658.487 5.95758 -1.3381 0
M  V30 6662 H 659.901 4.72537 -3.24626 0
M  V30 6663 H 658.298 4.47604 -3.99713 0
M  V30 6664 H 659.368 3.08604 -3.74021 0
M  V30 6665 N 660.711 1.11618 1.11262 0
M  V30 6666 C 661.988 0.777876 1.79467 0
M  V30 6667 C 662.368 -0.733774 1.97937 0
M  V30 6668 O 661.716 -1.66443 1.56554 0
M  V30 6669 C 661.926 1.5431 3.13032 0
M  V30 6670 C 663.274 1.72357 3.88044 0
M  V30 6671 O 664.298 1.5075 3.22727 0
M  V30 6672 O 663.157 2.08276 5.05256 0
M  V30 6673 H 660.251 0.282018 0.777428 0
M  V30 6674 H 662.797 1.21971 1.17988 0
M  V30 6675 H 661.569 2.57132 2.94956 0
M  V30 6676 H 661.192 1.09495 3.82226 0
M  V30 6677 N 662.189 -1.289 0.906776 0
M  V30 6678 C 663.152 -2.25777 0.394656 0
M  V30 6679 C 664.152 -1.53621 -0.475119 0
M  V30 6680 O 665.342 -1.71949 -0.279165 0
M  V30 6681 C 662.474 -3.38113 -0.43499 0
M  V30 6682 H 663.667 -2.72592 1.25033 0
M  V30 6683 H 661.22 -1.40463 0.685547 0
M  V30 6684 H 661.955 -2.96648 -1.31036 0
M  V30 6685 H 661.74 -3.91647 0.188334 0
M  V30 6686 H 663.23 -4.10168 -0.784365 0
M  V30 6687 N 663.667 -0.670007 -1.42649 0
M  V30 6688 C 664.597 -0.00258501 -2.335 0
M  V30 6689 C 665.578 0.794364 -1.50412 0
M  V30 6690 O 666.763 0.75248 -1.79029 0
M  V30 6691 C 663.893 0.952748 -3.33976 0
M  V30 6692 C 662.847 0.264733 -4.2718 0
M  V30 6693 C 662.173 1.33267 -5.17826 0
M  V30 6694 C 663.473 -0.853289 -5.15283 0
M  V30 6695 H 665.167 -0.761326 -2.89559 0
M  V30 6696 H 662.713 -0.367561 -1.3923 0
M  V30 6697 H 664.666 1.4287 -3.96442 0
M  V30 6698 H 663.39 1.74285 -2.7621 0
M  V30 6699 H 662.049 -0.190938 -3.66102 0
M  V30 6700 H 661.697 2.11464 -4.5639 0
M  V30 6701 H 661.397 0.877476 -5.81011 0
M  V30 6702 H 662.921 1.80965 -5.83167 0
M  V30 6703 H 664.335 -0.458763 -5.71462 0
M  V30 6704 H 662.732 -1.23398 -5.87276 0
M  V30 6705 H 663.802 -1.70412 -4.53969 0
M  V30 6706 N 665.145 1.52092 -0.413018 0
M  V30 6707 C 666.391 2.02154 0.161737 0
M  V30 6708 C 666.724 1.29789 1.44459 0
M  V30 6709 O 665.999 0.405378 1.90229 0
M  V30 6710 C 666.282 3.5781 0.405463 0
M  V30 6711 C 666.135 4.40819 -0.894335 0
M  V30 6712 C 667.454 4.23821 1.18591 0
M  V30 6713 H 664.573 0.734769 0.0573077 0
M  V30 6714 H 667.215 1.81948 -0.547247 0
M  V30 6715 H 665.365 3.75158 1.0094 0
M  V30 6716 H 667.037 4.35175 -1.53039 0
M  V30 6717 H 665.28 4.06877 -1.50444 0
M  V30 6718 H 665.951 5.47819 -0.678144 0
M  V30 6719 H 668.427 4.10596 0.674573 0
M  V30 6720 H 667.303 5.32663 1.3252 0
M  V30 6721 H 667.564 3.83038 2.20758 0
M  V30 6722 N 666.623 0.143563 1.56945 0
M  V30 6723 C 667.586 -0.783295 2.154 0
M  V30 6724 C 668.586 -1.17763 1.09492 0
M  V30 6725 O 669.776 -1.09912 1.35148 0
M  V30 6726 C 666.908 -2.06248 2.7143 0
M  V30 6727 H 668.101 -0.274863 2.98638 0
M  V30 6728 H 665.654 -0.105859 1.55941 0
M  V30 6729 H 666.389 -2.61466 1.91849 0
M  V30 6730 H 666.174 -1.78897 3.4891 0
M  V30 6731 H 667.664 -2.72453 3.16479 0
M  V30 6732 N 668.101 -1.57061 -0.130224 0
M  V30 6733 C 669.512 -1.73539 -0.68856 0
M  V30 6734 C 669.863 -0.760554 -1.80859 0
M  V30 6735 O 668.988 0.0690796 -2.1629 0
M  V30 6736 C 669.583 -3.14666 -1.25581 0
M  V30 6737 C 668.142 -3.32689 -1.76055 0
M  V30 6738 C 667.289 -2.69436 -0.655712 0
M  V30 6739 H 670.24 -1.58412 0.0956002 0
M  V30 6740 H 670.261 -3.15595 -2.12556 0
M  V30 6741 H 669.773 -3.85593 -0.440412 0
M  V30 6742 H 667.874 -2.66786 -2.60108 0
M  V30 6743 H 667.987 -4.4077 -1.87772 0
M  V30 6744 H 666.351 -2.30362 -1.08654 0
M  V30 6745 H 667.134 -3.42979 0.14852 0
M  V30 6746 N 669.579 0.400081 -1.52437 0
M  V30 6747 C 670.807 1.16768 -1.70801 0
M  V30 6748 C 671.222 1.84036 -0.421462 0
M  V30 6749 O 670.579 1.72242 0.603228 0
M  V30 6750 C 670.63 2.22403 -2.8499 0
M  V30 6751 O 670.351 1.57879 -4.08663 0
M  V30 6752 C 671.852 3.11974 -3.1494 0
M  V30 6753 H 669.072 0.350533 -0.57216 0
M  V30 6754 H 671.616 0.469534 -1.99037 0
M  V30 6755 H 669.771 2.87871 -2.59247 0
M  V30 6756 H 670.185 2.27982 -4.7236 0
M  V30 6757 H 671.659 3.82148 -3.9833 0
M  V30 6758 H 672.136 3.74858 -2.28863 0
M  V30 6759 H 672.742 2.52165 -3.42481 0
M  V30 6760 N 671.057 1.43213 0.657864 0
M  V30 6761 C 672.285 1.48015 1.44566 0
M  V30 6762 C 672.7 0.0965951 1.88553 0
M  V30 6763 O 672.057 -0.892221 1.59203 0
M  V30 6764 C 672.108 2.42199 2.68369 0
M  V30 6765 O 671.829 3.75173 2.26223 0
M  V30 6766 C 673.33 2.56195 3.61772 0
M  V30 6767 H 670.55 0.502861 0.444266 0
M  V30 6768 H 673.094 1.87907 0.806917 0
M  V30 6769 H 671.249 2.05514 3.28394 0
M  V30 6770 H 671.663 4.25776 3.06293 0
M  V30 6771 H 673.137 3.26182 4.4532 0
M  V30 6772 H 673.614 1.60534 4.0881 0
M  V30 6773 H 674.22 2.93671 3.07632 0
M  V30 6774 N 672.536 -0.895792 1.29666 0
M  V30 6775 C 673.784 -1.64339 1.17631 0
M  V30 6776 C 674.105 -1.93099 -0.271643 0
M  V30 6777 O 673.375 -1.55981 -1.18518 0
M  V30 6778 H 671.955 -0.609162 0.432354 0
M  V30 6779 H 674.617 -1.07389 1.62646 0
M  V30 6780 H 673.713 -2.59815 1.72924 0
M  V30 6781 N 674.014 -1.12206 -1.10668 0
M  V30 6782 C 675.26 -0.877172 -1.82848 0
M  V30 6783 C 675.593 0.595571 -1.84842 0
M  V30 6784 O 674.868 1.44013 -1.30731 0
M  V30 6785 C 675.151 -1.44957 -3.29635 0
M  V30 6786 C 675.004 -2.99051 -3.35989 0
M  V30 6787 C 676.323 -1.10714 -4.25946 0
M  V30 6788 H 673.442 -0.320103 -0.663854 0
M  V30 6789 H 676.084 -1.38827 -1.2972 0
M  V30 6790 H 674.234 -1.01488 -3.7501 0
M  V30 6791 H 675.906 -3.51182 -2.99113 0
M  V30 6792 H 674.149 -3.34705 -2.75962 0
M  V30 6793 H 674.82 -3.34194 -4.39339 0
M  V30 6794 H 677.296 -1.48254 -3.88793 0
M  V30 6795 H 676.172 -1.5343 -5.2702 0
M  V30 6796 H 676.433 -0.019 -4.42096 0
M  V30 6797 N 675.492 1.28418 -0.913599 0
M  V30 6798 C 676.455 2.25564 -0.406624 0
M  V30 6799 C 677.455 1.5387 0.466965 0
M  V30 6800 O 678.645 1.72094 0.270042 0
M  V30 6801 C 675.777 3.38339 0.417053 0
M  V30 6802 H 676.97 2.71926 -1.26477 0
M  V30 6803 H 674.523 1.40098 -0.692986 0
M  V30 6804 H 675.258 2.97339 1.29461 0
M  V30 6805 H 675.043 3.91542 -0.209102 0
M  V30 6806 H 676.533 4.10578 0.762602 0
M  V30 6807 N 676.97 0.677563 1.42291 0
M  V30 6808 C 678.216 0.209962 2.02313 0
M  V30 6809 C 678.571 -1.1714 1.52631 0
M  V30 6810 O 677.864 -1.7756 0.719938 0
M  V30 6811 C 678.058 0.187229 3.56909 0
M  V30 6812 C 677.887 1.56484 4.21595 0
M  V30 6813 C 676.657 2.16329 4.56651 0
M  V30 6814 C 678.855 2.50805 4.49 0
M  V30 6815 N 676.837 3.46842 5.06531 0
M  V30 6816 C 678.208 3.65976 5.00461 0
M  V30 6817 C 680.263 2.493 4.30992 0
M  V30 6818 C 678.966 4.79899 5.35807 0
M  V30 6819 C 680.992 3.62322 4.67415 0
M  V30 6820 C 680.354 4.76221 5.19031 0
M  V30 6821 H 676.453 0.121815 0.772454 0
M  V30 6822 H 679.037 0.891148 1.73109 0
M  V30 6823 H 677.208 -0.46338 3.85626 0
M  V30 6824 H 678.94 -0.293512 4.03634 0
M  V30 6825 H 675.695 1.6879 4.42501 0
M  V30 6826 H 676.119 4.13694 5.35898 0
M  V30 6827 H 680.761 1.62467 3.90339 0
M  V30 6828 H 678.479 5.67406 5.75392 0
M  V30 6829 H 682.065 3.62388 4.55155 0
M  V30 6830 H 680.945 5.62228 5.46689 0
M  V30 6831 N 678.448 -1.51871 0.421078 0
M  V30 6832 C 679.859 -1.86644 -0.0457991 0
M  V30 6833 C 680.21 -1.33919 -1.43388 0
M  V30 6834 O 679.335 -0.683316 -2.05328 0
M  V30 6835 C 679.93 -3.38681 -0.0898844 0
M  V30 6836 C 678.489 -3.73049 -0.501127 0
M  V30 6837 C 677.636 -2.75485 0.316723 0
M  V30 6838 H 680.587 -1.45327 0.637635 0
M  V30 6839 H 680.608 -3.69636 -0.902734 0
M  V30 6840 H 680.12 -3.77025 0.920513 0
M  V30 6841 H 678.221 -3.40288 -1.51773 0
M  V30 6842 H 678.334 -4.78512 -0.237217 0
M  V30 6843 H 676.698 -2.53725 -0.222663 0
M  V30 6844 H 677.481 -3.16671 1.32569 0
M  V30 6845 N 679.926 -0.151884 -1.56866 0
M  V30 6846 C 681.175 0.497992 -1.95456 0
M  V30 6847 C 681.488 1.6569 -1.03953 0
M  V30 6848 O 682.694 2.37173 -1.32142 0
M  V30 6849 C 681.15 0.93732 -3.4748 0
M  V30 6850 C 680.758 -0.194921 -4.47576 0
M  V30 6851 C 682.502 1.55671 -3.94926 0
M  V30 6852 C 680.409 0.26295 -5.90815 0
M  V30 6853 H 679.339 0.189811 -0.729717 0
M  V30 6854 H 681.99 -0.237011 -1.81963 0
M  V30 6855 H 680.372 1.72773 -3.56322 0
M  V30 6856 H 681.546 -0.971951 -4.50433 0
M  V30 6857 H 679.861 -0.72303 -4.10075 0
M  V30 6858 H 682.458 1.91099 -4.99385 0
M  V30 6859 H 682.801 2.44748 -3.36755 0
M  V30 6860 H 683.334 0.831109 -3.89021 0
M  V30 6861 H 680.073 -0.592568 -6.52816 0
M  V30 6862 H 679.593 1.00575 -5.91308 0
M  V30 6863 H 681.272 0.713333 -6.43056 0
M  V30 6864 N 681.404 1.57128 0.121893 0
M  V30 6865 C 682.82 1.52357 0.47534 0
M  V30 6866 C 683.02 0.864417 1.82017 0
M  V30 6867 O 682.076 0.445529 2.48538 0
M  V30 6868 C 683.389 2.97122 0.4625 0
M  V30 6869 C 684.937 3.08196 0.546255 0
M  V30 6870 C 685.412 4.54516 0.563833 0
M  V30 6871 N 686.903 4.58959 0.625353 0
M  V30 6872 C 687.638 5.69585 0.660354 0
M  V30 6873 N 687.134 6.89714 0.653175 0
M  V30 6874 N 688.927 5.57685 0.703143 0
M  V30 6875 H 681.078 1.98364 -0.75931 0
M  V30 6876 H 683.341 0.905777 -0.279772 0
M  V30 6877 H 683.047 3.48706 -0.457943 0
M  V30 6878 H 682.921 3.54406 1.29136 0
M  V30 6879 H 685.308 2.56617 1.45712 0
M  V30 6880 H 685.389 2.53912 -0.310234 0
M  V30 6881 H 685.033 5.06741 -0.342974 0
M  V30 6882 H 684.963 5.06609 1.43716 0
M  V30 6883 H 687.454 3.72489 0.637182 0
M  V30 6884 H 687.767 7.69781 0.682425 0
M  V30 6885 H 686.112 6.92223 0.620646 0
M  V30 6886 H 689.303 4.62744 0.706095 0
M  V30 6887 H 689.476 6.43909 0.726952 0
M  V30 6888 N 682.882 -0.391992 1.52647 0
M  V30 6889 C 684.107 -1.16312 1.71716 0
M  V30 6890 C 684.532 -1.83042 0.433279 0
M  V30 6891 O 683.89 -1.70705 -0.610707 0
M  V30 6892 C 683.938 -2.18908 2.86551 0
M  V30 6893 O 683.042 -3.2543 2.53316 0
M  V30 6894 H 682.383 -0.338743 0.571095 0
M  V30 6895 H 684.913 -0.457202 1.99426 0
M  V30 6896 H 684.923 -2.62954 3.1196 0
M  V30 6897 H 683.598 -1.69726 3.79692 0
M  V30 6898 H 682.175 -2.86543 2.38637 0
M  V30 6899 N 684.36 -1.4356 -0.65026 0
M  V30 6900 C 685.27 -1.514 -1.79207 0
M  V30 6901 C 686.286 -0.400895 -1.69319 0
M  V30 6902 O 687.462 -0.655458 -1.90436 0
M  V30 6903 C 684.527 -1.43737 -3.155 0
M  V30 6904 C 683.588 -2.65743 -3.37163 0
M  V30 6905 C 682.821 -2.58436 -4.66954 0
M  V30 6906 O 683.044 -1.63374 -5.46503 0
M  V30 6907 O 681.978 -3.48984 -4.90402 0
M  V30 6908 H 685.804 -2.47825 -1.75547 0
M  V30 6909 H 683.389 -1.25594 -0.809111 0
M  V30 6910 H 685.271 -1.41916 -3.96784 0
M  V30 6911 H 683.946 -0.504488 -3.19745 0
M  V30 6912 H 682.853 -2.73136 -2.55632 0
M  V30 6913 H 684.186 -3.58014 -3.37768 0
M  V30 6914 N 685.838 0.888903 -1.30139 0
M  V30 6915 C 687.086 1.63713 -1.18501 0
M  V30 6916 C 687.407 1.9324 0.261399 0
M  V30 6917 O 686.677 1.56608 1.17689 0
M  V30 6918 H 685.257 0.606861 -0.435579 0
M  V30 6919 H 687.919 1.06525 -1.63213 0
M  V30 6920 H 687.015 2.58894 -1.743 0
M  V30 6921 N 687.317 1.12792 1.10072 0
M  V30 6922 C 688.594 0.796867 1.78632 0
M  V30 6923 C 688.974 -0.712739 1.98704 0
M  V30 6924 O 688.322 -1.64773 1.5831 0
M  V30 6925 C 688.532 1.57622 3.11378 0
M  V30 6926 C 689.88 1.76463 3.86194 0
M  V30 6927 O 690.904 1.54165 3.2111 0
M  V30 6928 O 689.763 2.13623 5.03018 0
M  V30 6929 H 686.857 0.290248 0.774394 0
M  V30 6930 H 689.403 1.23215 1.16688 0
M  V30 6931 H 688.175 2.60246 2.92212 0
M  V30 6932 H 687.798 1.13543 3.81043 0
M  V30 6933 N 688.795 -1.27931 0.920396 0
M  V30 6934 C 690.072 -1.89728 0.475687 0
M  V30 6935 C 690.452 -1.8337 -1.04588 0
M  V30 6936 O 689.8 -1.27404 -1.89685 0
M  V30 6937 C 690.01 -3.33959 1.01354 0
M  V30 6938 C 691.358 -4.10907 1.06963 0
M  V30 6939 O 692.382 -3.42945 0.962646 0
M  V30 6940 O 691.241 -5.32399 1.23343 0
M  V30 6941 H 688.335 -0.81294 0.151845 0
M  V30 6942 H 690.881 -1.36252 1.01161 0
M  V30 6943 H 689.653 -3.32843 2.05746 0
M  V30 6944 H 689.276 -3.94944 0.458829 0
M  V30 6945 N 690.273 -0.685099 -1.4193 0
M  V30 6946 C 691.52 -0.211658 -2.01391 0
M  V30 6947 C 691.848 1.18526 -1.54214 0
M  V30 6948 O 691.103 1.81189 -0.739519 0
M  V30 6949 C 691.402 -0.206154 -3.56805 0
M  V30 6950 C 691.068 -1.54915 -4.23453 0
M  V30 6951 C 689.73 -1.91684 -4.41373 0
M  V30 6952 C 692.082 -2.43317 -4.60919 0
M  V30 6953 C 689.41 -3.16461 -4.94034 0
M  V30 6954 C 691.762 -3.67415 -5.14965 0
M  V30 6955 C 690.426 -4.04341 -5.31098 0
M  V30 6956 H 689.696 -0.0774511 -0.736941 0
M  V30 6957 H 692.343 -0.882121 -1.69973 0
M  V30 6958 H 690.648 0.547841 -3.87951 0
M  V30 6959 H 692.345 0.17753 -4.00607 0
M  V30 6960 H 688.935 -1.25314 -4.09871 0
M  V30 6961 H 693.119 -2.16192 -4.46738 0
M  V30 6962 H 688.375 -3.45078 -5.04709 0
M  V30 6963 H 692.549 -4.3611 -5.42938 0
M  V30 6964 H 690.176 -5.01101 -5.71666 0
M  V30 6965 N 691.751 1.51645 -0.429126 0
M  V30 6966 C 693.162 1.86665 0.0359003 0
M  V30 6967 C 693.513 1.34677 1.42676 0
M  V30 6968 O 692.638 0.694195 2.04963 0
M  V30 6969 C 693.233 3.38724 0.0719221 0
M  V30 6970 C 691.792 3.7331 0.481336 0
M  V30 6971 C 690.939 2.75313 -0.331329 0
M  V30 6972 H 693.89 1.44987 -0.645333 0
M  V30 6973 H 693.911 3.7011 0.883118 0
M  V30 6974 H 693.423 3.76532 -0.940495 0
M  V30 6975 H 691.524 3.41088 1.49966 0
M  V30 6976 H 691.637 4.78631 0.211837 0
M  V30 6977 H 690.001 2.53839 0.209204 0
M  V30 6978 H 690.784 3.15963 -1.34247 0
M  V30 6979 N 693.229 0.160201 1.56784 0
M  V30 6980 C 694.477 -0.486625 1.96154 0
M  V30 6981 C 694.798 -1.64525 1.04673 0
M  V30 6982 O 694.068 -1.95586 0.110864 0
M  V30 6983 H 692.648 -0.182764 0.724297 0
M  V30 6984 H 695.31 0.238787 1.93432 0
M  V30 6985 H 694.406 -0.854025 3.00188 0
M  V30 6986 N 694.707 -1.5719 -0.113559 0
M  V30 6987 C 695.617 -2.04041 -1.15777 0
M  V30 6988 C 696.633 -0.961812 -1.45001 0
M  V30 6989 O 697.809 -1.2737 -1.56009 0
M  V30 6990 C 694.874 -2.43994 -2.46308 0
M  V30 6991 C 693.935 -3.65962 -2.24433 0
M  V30 6992 C 693.168 -4.04 -3.4874 0
M  V30 6993 O 693.391 -3.42321 -4.56259 0
M  V30 6994 O 692.325 -4.97069 -3.3942 0
M  V30 6995 H 696.151 -2.93248 -0.789899 0
M  V30 6996 H 693.736 -1.45828 -0.324748 0
M  V30 6997 H 695.618 -2.70401 -3.23204 0
M  V30 6998 H 694.293 -1.57932 -2.82558 0
M  V30 6999 H 693.2 -3.44697 -1.45377 0
M  V30 7000 H 694.533 -4.52746 -1.93084 0
M  V30 7001 N 696.185 0.383891 -1.52853 0
M  V30 7002 C 697.41 1.154 -1.7233 0
M  V30 7003 C 697.835 1.82809 -0.44298 0
M  V30 7004 O 697.193 1.71026 0.601645 0
M  V30 7005 C 697.241 2.17386 -2.87708 0
M  V30 7006 O 696.345 3.24082 -2.55038 0
M  V30 7007 H 695.686 0.335709 -0.572883 0
M  V30 7008 H 698.216 0.44662 -1.99666 0
M  V30 7009 H 698.226 2.61296 -3.1335 0
M  V30 7010 H 696.901 1.6771 -3.80587 0
M  V30 7011 H 695.478 2.85273 -2.40153 0
M  V30 7012 N 697.663 1.43903 0.642637 0
M  V30 7013 C 698.893 1.49323 1.4278 0
M  V30 7014 C 699.301 0.113058 1.88862 0
M  V30 7015 O 698.644 -0.889089 1.60751 0
M  V30 7016 C 698.706 2.3861 2.68897 0
M  V30 7017 C 698.37 3.85976 2.44687 0
M  V30 7018 C 699.367 4.7681 2.07239 0
M  V30 7019 C 697.052 4.30567 2.58683 0
M  V30 7020 C 699.046 6.10234 1.841 0
M  V30 7021 C 696.733 5.64042 2.35159 0
M  V30 7022 C 697.731 6.53693 1.97925 0
M  V30 7023 O 697.419 7.84698 1.74654 0
M  V30 7024 H 697.151 0.509109 0.444729 0
M  V30 7025 H 699.705 1.89425 0.794195 0
M  V30 7026 H 697.935 1.93415 3.34855 0
M  V30 7027 H 699.624 2.35112 3.30873 0
M  V30 7028 H 700.39 4.43635 1.95993 0
M  V30 7029 H 696.269 3.61054 2.86637 0
M  V30 7030 H 699.813 6.80171 1.54962 0
M  V30 7031 H 695.71 5.96782 2.46011 0
M  V30 7032 H 696.478 7.96382 1.88993 0
M  V30 7033 N 699.141 -0.881989 1.30609 0
M  V30 7034 C 700.366 -1.67236 1.22665 0
M  V30 7035 C 700.791 -1.8696 -0.206777 0
M  V30 7036 O 700.149 -1.4027 -1.14865 0
M  V30 7037 C 700.197 -3.02446 1.96363 0
M  V30 7038 O 699.301 -3.91614 1.29276 0
M  V30 7039 H 698.642 -0.510902 0.424117 0
M  V30 7040 H 701.172 -1.10055 1.72479 0
M  V30 7041 H 701.182 -3.52468 2.055 0
M  V30 7042 H 699.857 -2.8741 3.00613 0
M  V30 7043 H 698.434 -3.50055 1.28514 0
M  V30 7044 N 700.619 -1.13374 -1.09472 0
M  V30 7045 C 701.582 -0.813639 -2.14272 0
M  V30 7046 C 702.582 0.176677 -1.59826 0
M  V30 7047 O 703.772 -0.0503441 -1.74127 0
M  V30 7048 C 700.904 -0.210897 -3.40247 0
M  V30 7049 H 702.097 -1.74229 -2.44099 0
M  V30 7050 H 699.65 -0.938304 -1.25002 0
M  V30 7051 H 700.385 0.726998 -3.16046 0
M  V30 7052 H 700.17 -0.924048 -3.81056 0
M  V30 7053 H 701.66 -0.00377603 -4.176 0
M  V30 7054 N 702.098 1.27442 -0.927168 0
M  V30 7055 C 703.061 2.2512 -0.430525 0
M  V30 7056 C 704.061 1.54357 0.450619 0
M  V30 7057 O 705.251 1.72371 0.251774 0
M  V30 7058 C 702.383 3.38763 0.381144 0
M  V30 7059 H 703.576 2.70569 -1.29354 0
M  V30 7060 H 701.129 1.39355 -0.707806 0
M  V30 7061 H 701.864 2.98695 1.263 0
M  V30 7062 H 701.649 3.91298 -0.250618 0
M  V30 7063 H 703.139 4.11364 0.719012 0
M  V30 7064 N 703.576 0.692616 1.41565 0
M  V30 7065 C 704.539 0.0344174 2.29174 0
M  V30 7066 C 705.539 -0.710961 1.44229 0
M  V30 7067 O 706.729 -0.546293 1.65412 0
M  V30 7068 C 703.861 -0.961682 3.27054 0
M  V30 7069 H 705.054 0.805755 2.88873 0
M  V30 7070 H 702.607 0.455947 1.49502 0
M  V30 7071 H 703.342 -1.76089 2.72329 0
M  V30 7072 H 703.127 -0.430375 3.89731 0
M  V30 7073 H 704.617 -1.4201 3.92712 0
M  V30 7074 N 705.054 -1.51416 0.437162 0
M  V30 7075 C 706.3 -2.02386 -0.129555 0
M  V30 7076 C 706.633 -1.32071 -1.42376 0
M  V30 7077 O 705.908 -0.43559 -1.8956 0
M  V30 7078 C 706.191 -3.5841 -0.348487 0
M  V30 7079 C 706.044 -4.39341 0.964352 0
M  V30 7080 C 707.363 -4.25654 -1.11834 0
M  V30 7081 H 704.482 -0.735587 -0.0456109 0
M  V30 7082 H 707.124 -1.81055 0.576124 0
M  V30 7083 H 705.274 -3.76716 -0.949592 0
M  V30 7084 H 706.946 -4.32685 1.59942 0
M  V30 7085 H 705.189 -4.04432 1.56898 0
M  V30 7086 H 705.86 -5.4667 0.765212 0
M  V30 7087 H 708.336 -4.11617 -0.609165 0
M  V30 7088 H 707.212 -5.34704 -1.24029 0
M  V30 7089 H 707.473 -3.86502 -2.14636 0
M  V30 7090 N 706.532 -0.168513 -1.56696 0
M  V30 7091 C 707.495 0.748928 -2.16619 0
M  V30 7092 C 708.495 1.16007 -1.11351 0
M  V30 7093 O 709.685 1.07748 -1.3688 0
M  V30 7094 C 706.817 2.01904 -2.74677 0
M  V30 7095 H 708.01 0.227317 -2.99037 0
M  V30 7096 H 705.563 0.0810372 -1.5609 0
M  V30 7097 H 706.298 2.58381 -1.95985 0
M  V30 7098 H 706.083 1.73323 -3.51712 0
M  V30 7099 H 707.573 2.67383 -3.20774 0
M  V30 7100 N 708.01 1.57248 0.105221 0
M  V30 7101 C 709.258 1.85204 0.808951 0
M  V30 7102 C 709.579 0.75574 1.7976 0
M  V30 7103 O 708.849 -0.218984 1.94672 0
M  V30 7104 H 707.429 0.683346 0.301739 0
M  V30 7105 H 710.091 1.94695 0.0892605 0
M  V30 7106 H 709.187 2.81595 1.34575 0
M  V30 7107 N 709.488 -0.375779 1.53054 0
M  V30 7108 C 710.718 -1.1387 1.72386 0
M  V30 7109 C 711.126 -1.8382 0.447966 0
M  V30 7110 O 710.469 -1.74027 -0.588244 0
M  V30 7111 C 710.531 -2.22047 2.82728 0
M  V30 7112 C 710.195 -1.71951 4.23417 0
M  V30 7113 C 711.192 -1.18909 5.06119 0
M  V30 7114 C 708.877 -1.77773 4.69789 0
M  V30 7115 C 710.871 -0.723529 6.3328 0
M  V30 7116 C 708.558 -1.30829 5.96931 0
M  V30 7117 C 709.556 -0.782077 6.78508 0
M  V30 7118 O 709.244 -0.319529 8.03265 0
M  V30 7119 H 708.976 -0.346835 0.580242 0
M  V30 7120 H 711.53 -0.443748 2.00549 0
M  V30 7121 H 709.76 -2.95006 2.50017 0
M  V30 7122 H 711.449 -2.83654 2.90336 0
M  V30 7123 H 712.215 -1.13758 4.7147 0
M  V30 7124 H 708.094 -2.17673 4.06373 0
M  V30 7125 H 711.638 -0.312126 6.96901 0
M  V30 7126 H 707.535 -1.3567 6.31081 0
M  V30 7127 H 708.303 -0.439796 8.17318 0
M  V30 7128 N 710.966 -1.44241 -0.634997 0
M  V30 7129 C 712.377 -1.41622 -1.21655 0
M  V30 7130 C 712.728 -0.129584 -1.95772 0
M  V30 7131 O 711.853 0.770225 -2.02229 0
M  V30 7132 C 712.448 -2.56557 -2.21278 0
M  V30 7133 C 711.007 -2.57145 -2.7487 0
M  V30 7134 C 710.154 -2.33354 -1.49804 0
M  V30 7135 H 713.105 -1.52878 -0.425905 0
M  V30 7136 H 713.126 -2.29089 -3.03807 0
M  V30 7137 H 712.638 -3.50186 -1.67306 0
M  V30 7138 H 710.739 -1.67447 -3.32855 0
M  V30 7139 H 710.852 -3.55507 -3.21172 0
M  V30 7140 H 709.216 -1.82372 -1.77799 0
M  V30 7141 H 709.999 -3.29092 -0.977402 0
M  V30 7142 N 712.444 0.87505 -1.31075 0
M  V30 7143 C 713.669 1.66583 -1.23551 0
M  V30 7144 C 714.094 1.87067 0.19686 0
M  V30 7145 O 713.452 1.40877 1.1412 0
M  V30 7146 C 713.5 3.01401 -1.97965 0
M  V30 7147 O 712.604 3.90923 -1.31351 0
M  V30 7148 H 711.945 0.508645 -0.426821 0
M  V30 7149 H 714.475 1.09139 -1.7306 0
M  V30 7150 H 714.485 3.51374 -2.07366 0
M  V30 7151 H 713.16 2.85812 -3.02133 0
M  V30 7152 H 711.737 3.49369 -1.30368 0
M  V30 7153 N 713.922 1.13953 1.08869 0
M  V30 7154 C 714.852 0.844824 2.17681 0
M  V30 7155 C 715.833 -0.198213 1.68941 0
M  V30 7156 O 717.018 -0.0559073 1.9412 0
M  V30 7157 C 714.148 0.316325 3.45856 0
M  V30 7158 C 713.102 1.29426 4.07962 0
M  V30 7159 C 712.428 0.625275 5.31031 0
M  V30 7160 C 713.728 2.65484 4.49795 0
M  V30 7161 H 715.422 1.75471 2.42591 0
M  V30 7162 H 712.968 0.845116 1.16592 0
M  V30 7163 H 714.921 0.0977876 4.21287 0
M  V30 7164 H 713.645 -0.628972 3.20486 0
M  V30 7165 H 712.304 1.49889 3.34558 0
M  V30 7166 H 711.952 -0.325678 5.01945 0
M  V30 7167 H 711.652 1.27777 5.73539 0
M  V30 7168 H 713.176 0.416152 6.0918 0
M  V30 7169 H 714.59 2.48957 5.16424 0
M  V30 7170 H 712.987 3.26963 5.03205 0
M  V30 7171 H 714.057 3.22717 3.61914 0
M  V30 7172 N 715.4 -1.26948 0.933913 0
M  V30 7173 C 716.628 -1.98186 0.59414 0
M  V30 7174 C 717.043 -1.69614 -0.829257 0
M  V30 7175 O 716.4 -0.960213 -1.55197 0
M  V30 7176 C 716.451 -3.52123 0.818026 0
M  V30 7177 O 716.172 -3.79698 2.18543 0
M  V30 7178 C 717.673 -4.40608 0.48781 0
M  V30 7179 H 714.893 -0.632305 0.224569 0
M  V30 7180 H 717.437 -1.61646 1.25263 0
M  V30 7181 H 715.592 -3.86851 0.206246 0
M  V30 7182 H 716.006 -4.7426 2.24005 0
M  V30 7183 H 717.48 -5.47606 0.695126 0
M  V30 7184 H 717.957 -4.35394 -0.576913 0
M  V30 7185 H 718.563 -4.11411 1.078 0
M  V30 7186 N 716.879 -0.700114 -1.41195 0
M  V30 7187 C 718.125 -0.233351 -2.01453 0
M  V30 7188 C 718.458 1.16548 -1.55339 0
M  V30 7189 O 717.733 1.78756 -0.766575 0
M  V30 7190 C 718.016 -0.2961 -3.58881 0
M  V30 7191 C 717.869 -1.7322 -4.15108 0
M  V30 7192 C 719.188 0.341525 -4.38773 0
M  V30 7193 H 716.307 -0.0862667 -0.731934 0
M  V30 7194 H 718.949 -0.889693 -1.67882 0
M  V30 7195 H 717.099 0.262736 -3.87611 0
M  V30 7196 H 718.771 -2.34523 -3.97236 0
M  V30 7197 H 717.014 -2.2649 -3.69979 0
M  V30 7198 H 717.685 -1.7276 -5.24269 0
M  V30 7199 H 720.161 -0.134461 -4.15883 0
M  V30 7200 H 719.037 0.267098 -5.4825 0
M  V30 7201 H 719.298 1.42289 -4.18577 0
M  V30 7202 N 718.357 1.51182 -0.445186 0
M  V30 7203 C 719.768 1.86693 0.0160999 0
M  V30 7204 C 720.119 1.36183 1.4124 0
M  V30 7205 O 719.244 0.715895 2.04215 0
M  V30 7206 C 719.839 3.38781 0.0359918 0
M  V30 7207 C 718.398 3.73799 0.441715 0
M  V30 7208 C 717.545 2.74947 -0.360511 0
M  V30 7209 H 720.496 1.44294 -0.660674 0
M  V30 7210 H 720.517 3.71026 0.843813 0
M  V30 7211 H 720.029 3.75513 -0.980378 0
M  V30 7212 H 718.13 3.42659 1.4634 0
M  V30 7213 H 718.243 4.78829 0.16106 0
M  V30 7214 H 716.607 2.54047 0.182269 0
M  V30 7215 H 717.39 3.14521 -1.3759 0
M  V30 7216 N 719.835 0.176821 1.56605 0
M  V30 7217 C 720.768 -0.790135 2.14084 0
M  V30 7218 C 721.746 -1.22219 1.07244 0
M  V30 7219 O 722.93 -1.31298 1.35252 0
M  V30 7220 C 720.057 -2.06475 2.68488 0
M  V30 7221 C 719.103 -1.77628 3.87751 0
M  V30 7222 S 719.936 -0.940612 5.27174 0
M  V30 7223 C 721.092 -2.22577 5.84988 0
M  V30 7224 H 721.325 -0.30144 2.95768 0
M  V30 7225 H 718.858 -0.0379279 1.54353 0
M  V30 7226 H 720.816 -2.79683 3.00479 0
M  V30 7227 H 719.477 -2.52457 1.8688 0
M  V30 7228 H 718.67 -2.72215 4.24164 0
M  V30 7229 H 718.272 -1.12512 3.56675 0
M  V30 7230 H 720.564 -3.17992 5.98237 0
M  V30 7231 H 721.507 -1.90624 6.81959 0
M  V30 7232 H 721.915 -2.34588 5.13448 0
M  V30 7233 N 721.313 -1.57302 -0.09688 0
M  V30 7234 C 722.561 -1.8563 -0.799117 0
M  V30 7235 C 722.882 -0.765263 -1.79356 0
M  V30 7236 O 722.152 0.208657 -1.94786 0
M  V30 7237 H 720.732 -0.684937 -0.298111 0
M  V30 7238 H 723.394 -1.9474 -0.0789341 0
M  V30 7239 H 722.49 -2.82305 -1.3308 0
M  V30 7240 N 722.791 0.367657 -1.53252 0
M  V30 7241 C 723.723 1.47032 -1.75824 0
M  V30 7242 C 724.736 1.49736 -0.63898 0
M  V30 7243 O 725.925 1.53253 -0.915193 0
M  V30 7244 C 723.025 2.85805 -1.82122 0
M  V30 7245 C 722.198 3.06822 -3.11736 0
M  V30 7246 C 721.257 4.25698 -3.09302 0
M  V30 7247 O 720.283 4.20972 -3.83107 0
M  V30 7248 N 721.485 5.33002 -2.29977 0
M  V30 7249 H 724.25 1.28048 -2.70968 0
M  V30 7250 H 721.811 0.557363 -1.52004 0
M  V30 7251 H 723.803 3.63465 -1.77975 0
M  V30 7252 H 722.373 2.98046 -0.942716 0
M  V30 7253 H 721.593 2.1684 -3.29202 0
M  V30 7254 H 722.881 3.17731 -3.97397 0
M  V30 7255 H 722.279 5.39703 -1.69521 0
M  V30 7256 H 720.836 6.09247 -2.3165 0
M  V30 7257 N 724.269 1.44576 0.627338 0
M  V30 7258 C 725.518 1.46837 1.38281 0
M  V30 7259 C 725.831 0.10635 1.95311 0
M  V30 7260 O 727.037 0.00651084 2.71499 0
M  V30 7261 C 725.493 2.58527 2.50384 0
M  V30 7262 C 725.101 4.00953 1.99851 0
M  V30 7263 C 726.845 2.70013 3.27557 0
M  V30 7264 C 724.752 5.0406 3.09318 0
M  V30 7265 H 723.682 0.546319 0.519664 0
M  V30 7266 H 726.333 1.70654 0.674497 0
M  V30 7267 H 724.715 2.27957 3.23808 0
M  V30 7268 H 725.889 4.41108 1.33267 0
M  V30 7269 H 724.204 3.93743 1.35482 0
M  V30 7270 H 726.801 3.44217 4.09168 0
M  V30 7271 H 727.144 1.75961 3.77284 0
M  V30 7272 H 727.677 3.00011 2.61224 0
M  V30 7273 H 724.416 5.99753 2.6453 0
M  V30 7274 H 723.936 4.68493 3.74532 0
M  V30 7275 H 725.615 5.2793 3.74031 0
M  V30 7276 N 725.747 -0.868086 1.31537 0
M  V30 7277 C 727.024 -1.60384 1.11965 0
M  V30 7278 C 727.404 -2.08584 -0.324949 0
M  V30 7279 O 726.752 -1.86561 -1.31937 0
M  V30 7280 C 726.962 -2.76038 2.13551 0
M  V30 7281 C 728.31 -3.45954 2.46173 0
M  V30 7282 O 729.334 -2.86247 2.11993 0
M  V30 7283 O 728.193 -4.53666 3.04711 0
M  V30 7284 H 725.287 -0.705705 0.431172 0
M  V30 7285 H 727.833 -0.913385 1.43022 0
M  V30 7286 H 726.605 -2.37849 3.10714 0
M  V30 7287 H 726.228 -3.52769 1.83411 0
M  V30 7288 N 727.225 -1.14528 -1.08264 0
M  V30 7289 C 728.473 -0.912599 -1.80322 0
M  V30 7290 C 728.794 0.562256 -1.86718 0
M  V30 7291 O 728.064 1.40869 -1.36135 0
M  V30 7292 H 726.644 -0.334645 -0.667849 0
M  V30 7293 H 729.306 -1.44415 -1.30883 0
M  V30 7294 H 728.402 -1.31384 -2.83098 0
M  V30 7295 N 728.703 1.26451 -0.940633 0
M  V30 7296 C 729.633 2.28773 -0.467479 0
M  V30 7297 C 730.614 1.63218 0.478955 0
M  V30 7298 O 731.799 1.90427 0.380929 0
M  V30 7299 C 728.929 3.46259 0.268656 0
M  V30 7300 C 727.883 4.23898 -0.591171 0
M  V30 7301 C 727.209 5.33993 0.274891 0
M  V30 7302 C 728.509 4.87974 -1.86223 0
M  V30 7303 H 730.203 2.68601 -1.32265 0
M  V30 7304 H 727.749 1.29123 -0.637436 0
M  V30 7305 H 729.702 4.16951 0.610696 0
M  V30 7306 H 728.426 3.05383 1.15796 0
M  V30 7307 H 727.085 3.54969 -0.916098 0
M  V30 7308 H 726.733 4.89358 1.16353 0
M  V30 7309 H 726.433 5.86849 -0.297006 0
M  V30 7310 H 727.957 6.07523 0.612213 0
M  V30 7311 H 729.371 5.50883 -1.58747 0
M  V30 7312 H 727.768 5.50945 -2.37866 0
M  V30 7313 H 728.838 4.10945 -2.57394 0
M  V30 7314 N 730.181 0.707592 1.40822 0
M  V30 7315 C 731.592 0.317011 1.83989 0
M  V30 7316 C 731.943 -1.14697 1.59182 0
M  V30 7317 O 731.068 -1.8818 1.06852 0
M  V30 7318 C 731.663 0.568593 3.33995 0
M  V30 7319 C 730.222 0.231804 3.75686 0
M  V30 7320 C 729.369 0.844933 2.64114 0
M  V30 7321 H 732.32 0.907349 1.30203 0
M  V30 7322 H 732.341 -0.168798 3.80125 0
M  V30 7323 H 731.853 1.63417 3.52018 0
M  V30 7324 H 729.954 -0.82903 3.6326 0
M  V30 7325 H 730.067 0.695219 4.74029 0
M  V30 7326 H 728.431 0.273588 2.53226 0
M  V30 7327 H 729.214 1.91462 2.84951 0
M  V30 7328 N 731.66 -1.50943 0.453197 0
M  V30 7329 C 732.906 -2.02512 -0.108082 0
M  V30 7330 C 733.239 -1.33574 -1.40967 0
M  V30 7331 O 732.514 -0.455671 -1.89087 0
M  V30 7332 C 732.797 -3.58759 -0.310453 0
M  V30 7333 C 732.65 -4.38293 1.0109 0
M  V30 7334 C 733.969 -4.26816 -1.07313 0
M  V30 7335 H 731.088 -0.73603 -0.0378064 0
M  V30 7336 H 733.73 -1.80433 0.595295 0
M  V30 7337 H 731.88 -3.77702 -0.909582 0
M  V30 7338 H 733.552 -4.30964 1.64523 0
M  V30 7339 H 731.795 -4.02745 1.61179 0
M  V30 7340 H 732.466 -5.45828 0.82315 0
M  V30 7341 H 734.942 -4.1224 -0.565473 0
M  V30 7342 H 733.818 -5.35989 -1.1835 0
M  V30 7343 H 734.079 -3.88757 -2.10525 0
M  V30 7344 N 733.138 -0.185124 -1.56509 0
M  V30 7345 C 734.386 0.455357 -1.96903 0
M  V30 7346 C 734.707 1.62839 -1.07277 0
M  V30 7347 O 733.977 1.95385 -0.141966 0
M  V30 7348 H 732.557 0.171218 -0.727113 0
M  V30 7349 H 735.219 -0.26953 -1.93027 0
M  V30 7350 H 734.315 0.80616 -3.01509 0
M  V30 7351 N 734.616 1.57351 0.0885366 0
M  V30 7352 C 735.546 2.05561 1.10757 0
M  V30 7353 C 736.527 0.945789 1.41382 0
M  V30 7354 O 737.712 1.21747 1.51299 0
M  V30 7355 C 734.842 2.48554 2.42566 0
M  V30 7356 C 733.796 3.63259 2.26334 0
M  V30 7357 C 733.122 3.9225 3.63378 0
M  V30 7358 C 734.422 4.93913 1.69844 0
M  V30 7359 H 736.116 2.90946 0.706468 0
M  V30 7360 H 733.662 1.39968 0.338385 0
M  V30 7361 H 735.615 2.8089 3.14132 0
M  V30 7362 H 734.339 1.60176 2.84625 0
M  V30 7363 H 732.998 3.31179 1.57213 0
M  V30 7364 H 732.646 3.0103 4.02976 0
M  V30 7365 H 732.346 4.69478 3.53362 0
M  V30 7366 H 733.87 4.27067 4.36401 0
M  V30 7367 H 735.284 5.24588 2.31258 0
M  V30 7368 H 733.681 5.75349 1.70569 0
M  V30 7369 H 734.751 4.80409 0.65843 0
M  V30 7370 N 736.094 -0.359525 1.53444 0
M  V30 7371 C 737.024 -1.44662 1.8329 0
M  V30 7372 C 738.005 -1.55617 0.68683 0
M  V30 7373 O 739.19 -1.70086 0.93725 0
M  V30 7374 C 736.32 -2.81923 2.02822 0
M  V30 7375 C 735.274 -2.85787 3.18606 0
M  V30 7376 C 734.6 -4.25781 3.23442 0
M  V30 7377 C 735.9 -2.52762 4.57065 0
M  V30 7378 H 737.594 -1.19934 2.74329 0
M  V30 7379 H 735.14 -0.575517 1.31999 0
M  V30 7380 H 737.093 -3.58005 2.22285 0
M  V30 7381 H 735.817 -3.08051 1.085 0
M  V30 7382 H 734.476 -2.12157 2.98973 0
M  V30 7383 H 734.124 -4.48994 2.26745 0
M  V30 7384 H 733.824 -4.29281 4.01238 0
M  V30 7385 H 735.348 -5.03727 3.45096 0
M  V30 7386 H 736.762 -3.18557 4.76649 0
M  V30 7387 H 735.159 -2.67569 5.37147 0
M  V30 7388 H 736.229 -1.47993 4.61764 0
M  V30 7389 N 737.572 -1.44907 -0.619662 0
M  V30 7390 C 738.819 -1.48292 -1.37898 0
M  V30 7391 C 739.147 -0.119933 -1.9413 0
M  V30 7392 O 738.402 0.879834 -1.74807 0
M  V30 7393 C 738.701 -2.50002 -2.55409 0
M  V30 7394 C 738.367 -3.95031 -2.17397 0
M  V30 7395 C 737.029 -4.34524 -2.06743 0
M  V30 7396 C 739.381 -4.86287 -1.87548 0
M  V30 7397 C 736.709 -5.63183 -1.64445 0
M  V30 7398 C 739.061 -6.15346 -1.4674 0
M  V30 7399 C 737.725 -6.53781 -1.34636 0
M  V30 7400 H 736.995 -0.542638 -0.504603 0
M  V30 7401 H 739.642 -1.78186 -0.701581 0
M  V30 7402 H 737.947 -2.13634 -3.28433 0
M  V30 7403 H 739.644 -2.49864 -3.13639 0
M  V30 7404 H 736.234 -3.63793 -2.26611 0
M  V30 7405 H 740.418 -4.56522 -1.94682 0
M  V30 7406 H 735.674 -5.91769 -1.53687 0
M  V30 7407 H 739.848 -6.85508 -1.22685 0
M  V30 7408 H 737.475 -7.53375 -1.01634 0
M  V30 7409 N 739.05 0.861098 -1.31996 0
M  V30 7410 C 739.983 1.97266 -1.14724 0
M  V30 7411 C 740.961 1.62528 -0.0483789 0
M  V30 7412 O 742.145 1.87366 -0.206478 0
M  V30 7413 C 739.272 3.30181 -0.754861 0
M  V30 7414 C 738.318 3.839 -1.85804 0
M  V30 7415 S 739.151 4.08274 -3.46515 0
M  V30 7416 C 740.307 5.44174 -3.09235 0
M  V30 7417 H 740.54 2.11614 -2.08822 0
M  V30 7418 H 738.073 1.01232 -1.16582 0
M  V30 7419 H 740.031 4.06996 -0.535232 0
M  V30 7420 H 738.692 3.13655 0.167155 0
M  V30 7421 H 737.885 4.80013 -1.53633 0
M  V30 7422 H 737.487 3.13907 -2.03318 0
M  V30 7423 H 739.779 6.26172 -2.58679 0
M  V30 7424 H 740.722 5.81301 -4.04345 0
M  V30 7425 H 741.13 5.0787 -2.46431 0
M  V30 7426 N 740.528 1.15101 1.07655 0
M  V30 7427 C 741.776 0.922149 1.79836 0
M  V30 7428 C 742.097 -0.552346 1.87014 0
M  V30 7429 O 741.367 -1.40145 1.3688 0
M  V30 7430 H 739.947 0.338182 0.666064 0
M  V30 7431 H 742.609 1.45107 1.30115 0
M  V30 7432 H 741.705 1.32883 2.82398 0
M  V30 7433 N 742.006 -1.2595 0.947325 0
M  V30 7434 C 743.234 -1.97544 0.615127 0
M  V30 7435 C 743.649 -1.70484 -0.811221 0
M  V30 7436 O 743.006 -0.97662 -1.5417 0
M  V30 7437 C 743.057 -3.51236 0.855328 0
M  V30 7438 O 742.778 -3.77359 2.22558 0
M  V30 7439 C 744.279 -4.40066 0.534515 0
M  V30 7440 H 741.499 -0.629888 0.231263 0
M  V30 7441 H 744.043 -1.60308 1.26971 0
M  V30 7442 H 742.198 -3.8661 0.247266 0
M  V30 7443 H 742.612 -4.71857 2.29022 0
M  V30 7444 H 744.086 -5.46838 0.753168 0
M  V30 7445 H 744.563 -4.35982 -0.530701 0
M  V30 7446 H 745.169 -4.10245 1.12158 0
M  V30 7447 N 743.484 -0.715051 -1.40445 0
M  V30 7448 C 744.447 -0.0708726 -2.2909 0
M  V30 7449 C 745.447 0.687926 -1.45342 0
M  V30 7450 O 746.637 0.519908 -1.66261 0
M  V30 7451 C 743.769 0.909528 -3.28543 0
M  V30 7452 H 744.962 -0.851611 -2.87555 0
M  V30 7453 H 742.515 -0.479674 -1.48758 0
M  V30 7454 H 743.25 1.71734 -2.75096 0
M  V30 7455 H 743.035 0.368318 -3.90366 0
M  V30 7456 H 744.525 1.35744 -3.94922 0
M  V30 7457 N 744.962 1.50701 -0.461195 0
M  V30 7458 C 746.208 2.03203 0.0895017 0
M  V30 7459 C 746.563 1.33768 1.38289 0
M  V30 7460 O 745.856 0.451304 1.86209 0
M  V30 7461 C 746.05 3.55788 0.33908 0
M  V30 7462 C 745.879 4.40009 -0.928571 0
M  V30 7463 C 744.649 4.83475 -1.46903 0
M  V30 7464 C 746.847 4.80972 -1.82129 0
M  V30 7465 N 744.829 5.51985 -2.68673 0
M  V30 7466 C 746.2 5.48792 -2.88491 0
M  V30 7467 C 748.255 4.62937 -1.83285 0
M  V30 7468 C 746.958 6.00489 -3.95987 0
M  V30 7469 C 748.984 5.15568 -2.89731 0
M  V30 7470 C 748.346 5.83355 -3.94812 0
M  V30 7471 H 744.445 0.781968 -0.00702462 0
M  V30 7472 H 747.029 1.84321 -0.627195 0
M  V30 7473 H 745.2 3.74636 1.02481 0
M  V30 7474 H 746.932 3.94944 0.883242 0
M  V30 7475 H 743.687 4.62495 -1.01959 0
M  V30 7476 H 744.111 5.90854 -3.30486 0
M  V30 7477 H 748.753 4.0997 -1.03366 0
M  V30 7478 H 746.471 6.52499 -4.7673 0
M  V30 7479 H 750.057 5.0345 -2.91597 0
M  V30 7480 H 748.937 6.23347 -4.75824 0
M  V30 7481 N 746.441 0.193421 1.56409 0
M  V30 7482 C 747.666 -0.454552 2.02358 0
M  V30 7483 C 748.091 -1.54516 1.07268 0
M  V30 7484 O 747.449 -1.81214 0.0558962 0
M  V30 7485 C 747.497 -0.989469 3.46759 0
M  V30 7486 O 746.601 -2.10244 3.54783 0
M  V30 7487 H 745.942 -0.106417 0.655417 0
M  V30 7488 H 748.472 0.303807 2.02332 0
M  V30 7489 H 748.482 -1.30649 3.86516 0
M  V30 7490 H 747.157 -0.191083 4.15461 0
M  V30 7491 H 745.734 -1.79419 3.26899 0
M  V30 7492 N 747.919 -1.57396 -0.0801906 0
M  V30 7493 C 748.829 -2.06451 -1.11423 0
M  V30 7494 C 749.845 -0.992352 -1.42928 0
M  V30 7495 O 751.021 -1.30651 -1.53272 0
M  V30 7496 C 748.086 -2.49164 -2.41077 0
M  V30 7497 C 747.147 -3.70641 -2.16619 0
M  V30 7498 C 746.38 -4.11307 -3.40092 0
M  V30 7499 O 746.603 -3.51922 -4.48895 0
M  V30 7500 O 745.537 -5.04157 -3.288 0
M  V30 7501 H 749.363 -2.94857 -0.727519 0
M  V30 7502 H 746.948 -1.46484 -0.293743 0
M  V30 7503 H 748.83 -2.77196 -3.17396 0
M  V30 7504 H 747.505 -1.6389 -2.79145 0
M  V30 7505 H 746.412 -3.47703 -1.38033 0
M  V30 7506 H 747.745 -4.5674 -1.83437 0
M  V30 7507 N 749.397 0.351382 -1.53633 0
M  V30 7508 C 750.808 0.927429 -1.62036 0
M  V30 7509 C 751.159 1.89809 -0.496706 0
M  V30 7510 O 750.284 2.1313 0.374749 0
M  V30 7511 C 750.879 1.68886 -2.93706 0
M  V30 7512 C 749.438 2.21404 -3.04397 0
M  V30 7513 C 748.585 1.03075 -2.57431 0
M  V30 7514 H 751.536 0.129748 -1.58169 0
M  V30 7515 H 751.557 2.55116 -2.82305 0
M  V30 7516 H 751.069 0.982149 -3.75467 0
M  V30 7517 H 749.17 2.95274 -2.27253 0
M  V30 7518 H 749.283 2.48312 -4.09729 0
M  V30 7519 H 747.647 1.40188 -2.12649 0
M  V30 7520 H 748.43 0.338793 -3.41624 0
M  V30 7521 N 750.875 1.45233 0.611969 0
M  V30 7522 C 751.822 1.5357 1.72293 0
M  V30 7523 C 752.792 0.381912 1.6165 0
M  V30 7524 O 753.977 0.594765 1.81293 0
M  V30 7525 C 751.117 1.50419 3.10593 0
M  V30 7526 C 750.23 2.76316 3.32074 0
M  V30 7527 C 749.365 2.64866 4.60456 0
M  V30 7528 C 748.404 3.85838 4.7518 0
M  V30 7529 N 747.541 3.72949 5.94856 0
M  V30 7530 H 752.381 2.4848 1.64504 0
M  V30 7531 H 749.918 1.23302 0.802191 0
M  V30 7532 H 751.876 1.4658 3.90602 0
M  V30 7533 H 750.506 0.590621 3.17351 0
M  V30 7534 H 749.558 2.90261 2.45872 0
M  V30 7535 H 750.87 3.66055 3.38829 0
M  V30 7536 H 750.024 2.58969 5.48653 0
M  V30 7537 H 748.763 1.72719 4.56092 0
M  V30 7538 H 747.768 3.92099 3.85407 0
M  V30 7539 H 748.993 4.79045 4.81344 0
M  V30 7540 H 746.939 2.83567 5.91545 0
M  V30 7541 H 746.856 4.56319 6.02751 0
M  V30 7542 H 748.124 3.70976 6.85563 0
M  V30 7543 N 752.353 -0.854086 1.3245 0
M  V30 7544 C 753.283 -1.97827 1.24044 0
M  V30 7545 C 754.264 -1.69646 0.124166 0
M  V30 7546 O 755.449 -1.91687 0.31143 0
M  V30 7547 C 752.579 -3.33673 0.963324 0
M  V30 7548 C 751.533 -3.76207 2.04089 0
M  V30 7549 C 750.859 -5.0969 1.61618 0
M  V30 7550 C 752.159 -3.91612 3.45597 0
M  V30 7551 H 753.853 -2.05118 2.18099 0
M  V30 7552 H 751.399 -0.985489 1.04996 0
M  V30 7553 H 753.352 -4.11871 0.891061 0
M  V30 7554 H 752.076 -3.26597 -0.0128649 0
M  V30 7555 H 750.735 -3.0026 2.10332 0
M  V30 7556 H 750.383 -4.99072 0.627418 0
M  V30 7557 H 750.083 -5.3912 2.33717 0
M  V30 7558 H 751.607 -5.90381 1.55829 0
M  V30 7559 H 753.021 -4.60163 3.4194 0
M  V30 7560 H 751.418 -4.3246 4.16051 0
M  V30 7561 H 752.488 -2.9451 3.85217 0
M  V30 7562 N 753.831 -1.1567 -1.07043 0
M  V30 7563 C 755.08 -0.928039 -1.79082 0
M  V30 7564 C 755.393 0.545968 -1.87826 0
M  V30 7565 O 756.599 0.892308 -2.56418 0
M  V30 7566 C 755.055 -1.61103 -3.21829 0
M  V30 7567 C 754.663 -3.12228 -3.21275 0
M  V30 7568 C 756.407 -1.46404 -3.98455 0
M  V30 7569 C 754.314 -3.733 -4.58695 0
M  V30 7570 H 753.244 -0.34357 -0.671175 0
M  V30 7571 H 755.895 -1.38718 -1.20123 0
M  V30 7572 H 754.277 -1.07958 -3.81 0
M  V30 7573 H 755.451 -3.72155 -2.71731 0
M  V30 7574 H 753.766 -3.26725 -2.58147 0
M  V30 7575 H 756.363 -1.8942 -5.00024 0
M  V30 7576 H 756.706 -0.41195 -4.14257 0
M  V30 7577 H 757.239 -1.96663 -3.45787 0
M  V30 7578 H 753.978 -4.78423 -4.48098 0
M  V30 7579 H 753.498 -3.18157 -5.08465 0
M  V30 7580 H 755.177 -3.7441 -5.27661 0
M  V30 7581 N 755.309 1.25446 -0.953992 0
M  V30 7582 C 756.219 2.29632 -0.480264 0
M  V30 7583 C 757.235 1.68025 0.452071 0
M  V30 7584 O 758.411 1.98703 0.328472 0
M  V30 7585 C 755.476 3.45903 0.234974 0
M  V30 7586 C 754.537 4.22953 -0.735495 0
M  V30 7587 C 753.77 5.33672 -0.0542957 0
M  V30 7588 O 753.993 5.58477 1.16018 0
M  V30 7589 O 752.927 5.9734 -0.739509 0
M  V30 7590 H 756.753 2.72242 -1.34602 0
M  V30 7591 H 754.338 1.30883 -0.720419 0
M  V30 7592 H 756.22 4.16552 0.637341 0
M  V30 7593 H 754.895 3.05296 1.07592 0
M  V30 7594 H 753.802 3.54734 -1.18806 0
M  V30 7595 H 755.135 4.67341 -1.54444 0
M  V30 7596 N 756.787 0.722489 1.40064 0
M  V30 7597 C 757.72 0.0233443 2.28188 0
M  V30 7598 C 758.698 -0.7606 1.43714 0
M  V30 7599 O 759.882 -0.745791 1.73119 0
M  V30 7600 C 757.009 -0.974264 3.24385 0
M  V30 7601 C 756.055 -0.280307 4.25578 0
M  V30 7602 S 756.888 0.996769 5.26141 0
M  V30 7603 C 758.044 0.00143923 6.259 0
M  V30 7604 H 758.277 0.770705 2.87137 0
M  V30 7605 H 755.81 0.513783 1.45601 0
M  V30 7606 H 757.768 -1.5446 3.80332 0
M  V30 7607 H 756.429 -1.69438 2.6448 0
M  V30 7608 H 755.622 -1.03471 4.93264 0
M  V30 7609 H 755.224 0.217657 3.73366 0
M  V30 7610 H 757.516 -0.843126 6.72233 0
M  V30 7611 H 758.459 0.645104 7.05155 0
M  V30 7612 H 758.867 -0.365371 5.63316 0
M  V30 7613 N 758.265 -1.50454 0.469181 0
M  V30 7614 C 759.228 -2.2703 -0.314643 0
M  V30 7615 C 760.228 -1.31734 -0.922111 0
M  V30 7616 O 761.418 -1.55176 -0.791588 0
M  V30 7617 C 758.55 -3.08616 -1.44806 0
M  V30 7618 H 759.743 -2.97769 0.356892 0
M  V30 7619 H 757.296 -1.54698 0.223191 0
M  V30 7620 H 758.031 -2.42369 -2.1547 0
M  V30 7621 H 757.816 -3.78647 -1.01829 0
M  V30 7622 H 759.306 -3.66536 -2.00103 0
M  V30 7623 N 759.743 -0.201713 -1.56304 0
M  V30 7624 C 760.973 0.440084 -2.01858 0
M  V30 7625 C 761.381 1.55279 -1.08098 0
M  V30 7626 O 760.724 1.83529 -0.0792216 0
M  V30 7627 C 760.786 1.05091 -3.43797 0
M  V30 7628 C 760.45 0.0761208 -4.56937 0
M  V30 7629 C 761.447 -0.716951 -5.14933 0
M  V30 7630 C 759.132 -0.0368815 -5.02286 0
M  V30 7631 C 761.126 -1.60993 -6.16733 0
M  V30 7632 C 758.813 -0.933409 -6.03929 0
M  V30 7633 C 759.811 -1.71849 -6.61027 0
M  V30 7634 O 759.499 -2.59998 -7.60695 0
M  V30 7635 H 759.231 0.114139 -0.666294 0
M  V30 7636 H 761.785 -0.309672 -2.03052 0
M  V30 7637 H 760.015 1.84938 -3.3961 0
M  V30 7638 H 761.704 1.59804 -3.73118 0
M  V30 7639 H 762.47 -0.63999 -4.80759 0
M  V30 7640 H 758.349 0.564034 -4.57537 0
M  V30 7641 H 761.893 -2.22315 -6.61227 0
M  V30 7642 H 757.79 -1.01146 -6.37526 0
M  V30 7643 H 758.558 -2.53851 -7.7814 0
M  V30 7644 N 761.222 1.57436 0.0718424 0
M  V30 7645 C 762.185 2.02703 1.06977 0
M  V30 7646 C 763.185 0.924062 1.31597 0
M  V30 7647 O 764.375 1.18894 1.27318 0
M  V30 7648 C 761.507 2.40763 2.41342 0
M  V30 7649 H 762.7 2.92098 0.679619 0
M  V30 7650 H 760.253 1.5304 0.317565 0
M  V30 7651 H 760.988 1.54394 2.8519 0
M  V30 7652 H 760.773 3.21249 2.24814 0
M  V30 7653 H 762.263 2.76361 3.13073 0
M  V30 7654 N 762.7 -0.34323 1.53817 0
M  V30 7655 C 763.93 -1.10188 1.74763 0
M  V30 7656 C 764.338 -1.82829 0.486856 0
M  V30 7657 O 763.681 -1.75236 -0.551198 0
M  V30 7658 C 763.743 -2.16 2.87375 0
M  V30 7659 C 763.407 -1.62931 4.26969 0
M  V30 7660 C 764.404 -1.08147 5.08528 0
M  V30 7661 C 762.089 -1.67769 4.73454 0
M  V30 7662 C 764.083 -0.589039 6.34672 0
M  V30 7663 C 761.77 -1.18138 5.99572 0
M  V30 7664 C 762.768 -0.637979 6.80014 0
M  V30 7665 O 762.456 -0.149073 8.03762 0
M  V30 7666 H 762.188 -0.33445 0.587469 0
M  V30 7667 H 764.742 -0.401109 2.01445 0
M  V30 7668 H 762.972 -2.89637 2.56218 0
M  V30 7669 H 764.661 -2.77432 2.96287 0
M  V30 7670 H 765.427 -1.03732 4.73777 0
M  V30 7671 H 761.306 -2.09004 4.10899 0
M  V30 7672 H 764.85 -0.164233 6.97407 0
M  V30 7673 H 760.747 -1.22254 6.33817 0
M  V30 7674 H 761.515 -0.266332 8.18067 0
M  V30 7675 N 764.178 -1.45556 -0.604258 0
M  V30 7676 C 765.088 -1.57025 -1.74299 0
M  V30 7677 C 766.104 -0.45456 -1.67958 0
M  V30 7678 O 767.28 -0.715711 -1.88254 0
M  V30 7679 C 764.345 -1.53702 -3.10768 0
M  V30 7680 C 763.406 -2.76335 -3.28538 0
M  V30 7681 C 762.639 -2.73161 -4.58496 0
M  V30 7682 O 762.862 -1.80678 -5.41028 0
M  V30 7683 O 761.796 -3.64409 -4.79051 0
M  V30 7684 H 765.622 -2.53284 -1.67573 0
M  V30 7685 H 763.207 -1.28104 -0.768745 0
M  V30 7686 H 765.089 -1.54468 -3.92068 0
M  V30 7687 H 763.764 -0.605957 -3.17978 0
M  V30 7688 H 762.671 -2.8113 -2.46813 0
M  V30 7689 H 764.004 -3.68578 -3.26207 0
M  V30 7690 N 765.656 0.84705 -1.32902 0
M  V30 7691 C 766.588 1.96308 -1.18304 0
M  V30 7692 C 767.601 1.62386 -0.116082 0
M  V30 7693 O 768.79 1.74713 -0.365751 0
M  V30 7694 C 765.89 3.29556 -0.790305 0
M  V30 7695 C 765.063 3.91668 -1.94717 0
M  V30 7696 C 764.122 5.0326 -1.53674 0
M  V30 7697 O 763.148 5.22847 -2.24989 0
M  V30 7698 N 764.35 5.78852 -0.437075 0
M  V30 7699 H 767.115 2.09369 -2.14441 0
M  V30 7700 H 764.676 1.02233 -1.25539 0
M  V30 7701 H 766.668 4.01624 -0.49799 0
M  V30 7702 H 765.238 3.12497 0.0801286 0
M  V30 7703 H 764.458 3.12292 -2.40557 0
M  V30 7704 H 765.746 4.299 -2.72146 0
M  V30 7705 H 765.144 5.65484 0.156316 0
M  V30 7706 H 763.701 6.51479 -0.204399 0
M  V30 7707 N 767.134 1.16236 1.06428 0
M  V30 7708 C 768.55 0.906983 1.31324 0
M  V30 7709 C 768.75 -0.440872 1.96618 0
M  V30 7710 O 767.806 -1.1807 2.23194 0
M  V30 7711 C 769.119 2.05501 2.19522 0
M  V30 7712 C 770.667 2.09061 2.32943 0
M  V30 7713 C 771.142 3.23214 3.24495 0
M  V30 7714 N 772.633 3.22922 3.32078 0
M  V30 7715 C 773.368 4.07889 4.03006 0
M  V30 7716 N 772.864 5.02941 4.76469 0
M  V30 7717 N 774.657 3.95881 3.99043 0
M  V30 7718 H 766.808 2.03015 0.624388 0
M  V30 7719 H 769.071 0.88576 0.337835 0
M  V30 7720 H 768.777 3.02847 1.78819 0
M  V30 7721 H 768.651 1.99538 3.201 0
M  V30 7722 H 771.038 1.12308 2.72893 0
M  V30 7723 H 771.119 2.19089 1.32037 0
M  V30 7724 H 770.763 4.20225 2.85261 0
M  V30 7725 H 770.693 3.10423 4.25377 0
M  V30 7726 H 773.184 2.54093 2.79724 0
M  V30 7727 H 773.497 5.64196 5.28112 0
M  V30 7728 H 771.842 5.06922 4.75453 0
M  V30 7729 H 775.033 3.20927 3.40769 0
M  V30 7730 H 775.206 4.62321 4.54052 0
M  V30 7731 N 768.612 -1.24939 0.960631 0
M  V30 7732 C 769.84 -1.96881 0.636045 0
M  V30 7733 C 770.255 -1.71334 -0.793093 0
M  V30 7734 O 769.612 -0.992917 -1.53125 0
M  V30 7735 C 769.663 -3.50309 0.892533 0
M  V30 7736 O 769.384 -3.74977 2.26548 0
M  V30 7737 C 770.885 -4.39474 0.581159 0
M  V30 7738 H 768.105 -0.627399 0.237931 0
M  V30 7739 H 770.649 -1.58952 1.28664 0
M  V30 7740 H 768.804 -3.86326 0.288257 0
M  V30 7741 H 769.218 -4.69401 2.34014 0
M  V30 7742 H 770.692 -5.46008 0.811125 0
M  V30 7743 H 771.169 -4.3652 -0.48443 0
M  V30 7744 H 771.775 -4.09032 1.16502 0
M  V30 7745 N 770.09 -0.729906 -1.39679 0
M  V30 7746 C 771.506 -0.404951 -1.54377 0
M  V30 7747 C 771.706 1.08476 -1.6981 0
M  V30 7748 O 770.762 1.87087 -1.69572 0
M  V30 7749 C 772.075 -1.18352 -2.76429 0
M  V30 7750 C 773.623 -1.17124 -2.9026 0
M  V30 7751 C 774.098 -1.93227 -4.15244 0
M  V30 7752 N 775.589 -1.90368 -4.22273 0
M  V30 7753 C 776.324 -2.46065 -5.17918 0
M  V30 7754 N 775.82 -3.10378 -6.19385 0
M  V30 7755 N 777.613 -2.36127 -5.10099 0
M  V30 7756 H 769.764 -1.69567 -1.27909 0
M  V30 7757 H 772.027 -0.717527 -0.619564 0
M  V30 7758 H 771.733 -2.23743 -2.71352 0
M  V30 7759 H 771.607 -0.784589 -3.6895 0
M  V30 7760 H 773.994 -0.125478 -2.94833 0
M  V30 7761 H 774.075 -1.60951 -1.98817 0
M  V30 7762 H 773.719 -2.97802 -4.11432 0
M  V30 7763 H 773.649 -1.4681 -5.05722 0
M  V30 7764 H 776.14 -1.4351 -3.4959 0
M  V30 7765 H 776.453 -3.50358 -6.88817 0
M  V30 7766 H 774.798 -3.14467 -6.19787 0
M  V30 7767 H 777.989 -1.85529 -4.29763 0
M  V30 7768 H 778.162 -2.79833 -5.84463 0
M  V30 7769 N 771.568 1.50203 -0.477153 0
M  V30 7770 C 772.531 2.27194 0.302599 0
M  V30 7771 C 773.531 1.32221 0.915112 0
M  V30 7772 O 774.721 1.55593 0.783348 0
M  V30 7773 C 771.853 3.0938 1.43167 0
M  V30 7774 H 773.046 2.97575 -0.372678 0
M  V30 7775 H 770.599 1.54578 -0.231392 0
M  V30 7776 H 771.334 2.43509 2.14182 0
M  V30 7777 H 771.119 3.79181 0.998197 0
M  V30 7778 H 772.609 3.67592 1.98157 0
M  V30 7779 N 773.046 0.209999 1.56195 0
M  V30 7780 C 774.462 -0.145598 1.58934 0
M  V30 7781 C 774.662 -1.59868 1.22656 0
M  V30 7782 O 773.718 -2.33689 0.956336 0
M  V30 7783 C 775.031 0.170243 3.00218 0
M  V30 7784 C 776.579 0.111548 3.12801 0
M  V30 7785 C 777.054 0.400904 4.56242 0
M  V30 7786 N 778.545 0.350058 4.61875 0
M  V30 7787 C 779.28 0.547598 5.70779 0
M  V30 7788 N 778.776 0.806291 6.88092 0
M  V30 7789 N 780.569 0.480827 5.6004 0
M  V30 7790 H 772.72 1.15804 1.78054 0
M  V30 7791 H 774.983 0.463326 0.827063 0
M  V30 7792 H 774.689 1.17833 3.31373 0
M  V30 7793 H 774.563 -0.520208 3.73596 0
M  V30 7794 H 776.95 -0.887162 2.81449 0
M  V30 7795 H 777.031 0.835302 2.41777 0
M  V30 7796 H 776.675 1.397 4.8831 0
M  V30 7797 H 776.605 -0.34391 5.25476 0
M  V30 7798 H 779.096 0.157334 3.77572 0
M  V30 7799 H 779.409 0.945433 7.66995 0
M  V30 7800 H 777.754 0.843355 6.89864 0
M  V30 7801 H 780.945 0.279037 4.67268 0
M  V30 7802 H 781.118 0.638189 6.4485 0
M  V30 7803 N 774.524 -1.57472 -0.0634922 0
M  V30 7804 C 775.94 -1.54016 -0.418466 0
M  V30 7805 C 776.14 -0.931376 -1.78683 0
M  V30 7806 O 775.196 -0.537465 -2.46714 0
M  V30 7807 C 776.509 -2.98634 -0.351906 0
M  V30 7808 C 778.057 -3.10012 -0.431494 0
M  V30 7809 C 778.532 -4.56296 -0.394754 0
M  V30 7810 N 780.023 -4.60964 -0.454583 0
M  V30 7811 C 780.758 -5.71643 -0.448501 0
M  V30 7812 N 780.254 -6.91663 -0.396742 0
M  V30 7813 N 782.047 -5.5991 -0.495677 0
M  V30 7814 H 774.198 -1.95409 0.832408 0
M  V30 7815 H 776.461 -0.894769 0.313197 0
M  V30 7816 H 776.167 -3.46766 0.587048 0
M  V30 7817 H 776.041 -3.58955 -1.15893 0
M  V30 7818 H 778.428 -2.61848 -1.36087 0
M  V30 7819 H 778.509 -2.52585 0.404258 0
M  V30 7820 H 778.153 -5.05119 0.530811 0
M  V30 7821 H 778.083 -5.11594 -1.24815 0
M  V30 7822 H 780.574 -3.74598 -0.498496 0
M  V30 7823 H 780.887 -7.71783 -0.396256 0
M  V30 7824 H 779.232 -6.9405 -0.363304 0
M  V30 7825 H 782.423 -4.65046 -0.533864 0
M  V30 7826 H 782.596 -6.46164 -0.487469 0
M  V30 7827 N 776.003 0.335068 -1.53997 0
M  V30 7828 C 777.414 0.910191 -1.6301 0
M  V30 7829 C 777.765 1.89271 -0.516809 0
M  V30 7830 O 776.89 2.13516 0.352123 0
M  V30 7831 C 777.485 1.65761 -2.9548 0
M  V30 7832 C 776.044 2.18163 -3.06728 0
M  V30 7833 C 775.191 1.00338 -2.5851 0
M  V30 7834 H 778.142 0.112965 -1.58297 0
M  V30 7835 H 778.163 2.52107 -2.84995 0
M  V30 7836 H 777.675 0.94227 -3.76488 0
M  V30 7837 H 775.776 2.92847 -2.30372 0
M  V30 7838 H 775.889 2.43952 -4.1234 0
M  V30 7839 H 774.253 1.37925 -2.14124 0
M  V30 7840 H 775.036 0.30254 -3.41964 0
M  V30 7841 N 777.481 1.45874 0.596531 0
M  V30 7842 C 778.892 1.44798 1.17857 0
M  V30 7843 C 779.243 0.181443 1.95359 0
M  V30 7844 O 778.368 -0.716336 2.042 0
M  V30 7845 C 778.963 2.62333 2.14398 0
M  V30 7846 C 777.522 2.64342 2.67955 0
M  V30 7847 C 776.669 2.37244 1.43564 0
M  V30 7848 H 779.62 1.53954 0.385222 0
M  V30 7849 H 779.641 2.37063 2.97626 0
M  V30 7850 H 779.153 3.54499 1.57963 0
M  V30 7851 H 777.254 1.76213 3.28298 0
M  V30 7852 H 777.367 3.63897 3.11634 0
M  V30 7853 H 775.731 1.87022 1.72901 0
M  V30 7854 H 776.514 3.31568 0.889805 0
M  V30 7855 N 778.959 -0.83999 1.33349 0
M  V30 7856 C 779.909 -1.93817 1.20079 0
M  V30 7857 C 780.893 -1.60564 0.103978 0
M  V30 7858 O 782.085 -1.73859 0.331964 0
M  V30 7859 C 779.214 -3.30151 0.941031 0
M  V30 7860 C 778.3 -3.69577 2.08023 0
M  V30 7861 N 778.691 -3.80707 3.3301 0
M  V30 7862 C 776.989 -3.99309 1.98667 0
M  V30 7863 C 777.69 -4.14899 4.07717 0
M  V30 7864 N 776.666 -4.27208 3.36146 0
M  V30 7865 H 780.468 -2.00576 2.14817 0
M  V30 7866 H 777.982 -1.03264 1.2534 0
M  V30 7867 H 779.979 -4.08617 0.826894 0
M  V30 7868 H 778.639 -3.247 0.00216738 0
M  V30 7869 H 779.65 -3.64644 3.67771 0
M  V30 7870 H 776.327 -4.02076 1.12433 0
M  V30 7871 H 777.717 -4.30857 5.15569 0
M  V30 7872 N 780.437 -1.16799 -1.0581 0
M  V30 7873 C 781.684 -0.952524 -1.78699 0
M  V30 7874 C 782.012 0.51931 -1.87439 0
M  V30 7875 O 781.267 1.40151 -1.36587 0
M  V30 7876 C 781.566 -1.53111 -3.22942 0
M  V30 7877 C 781.232 -3.0261 -3.34273 0
M  V30 7878 C 779.894 -3.43418 -3.37072 0
M  V30 7879 C 782.246 -3.98611 -3.35795 0
M  V30 7880 C 779.574 -4.78838 -3.39015 0
M  V30 7881 C 781.926 -5.33923 -3.39277 0
M  V30 7882 C 780.59 -5.74205 -3.40361 0
M  V30 7883 H 779.86 -0.348553 -0.653905 0
M  V30 7884 H 782.507 -1.45591 -1.244 0
M  V30 7885 H 780.812 -0.949286 -3.80126 0
M  V30 7886 H 782.509 -1.34002 -3.77948 0
M  V30 7887 H 779.099 -2.70075 -3.32803 0
M  V30 7888 H 783.283 -3.68146 -3.32839 0
M  V30 7889 H 778.539 -5.09369 -3.38161 0
M  V30 7890 H 782.713 -6.08094 -3.39403 0
M  V30 7891 H 780.34 -6.79117 -3.4162 0
M  V30 7892 N 781.915 1.24427 -0.967243 0
M  V30 7893 C 783.192 1.87831 -0.545776 0
M  V30 7894 C 783.572 1.87126 0.977099 0
M  V30 7895 O 782.92 1.34357 1.84826 0
M  V30 7896 C 783.13 3.29967 -1.13679 0
M  V30 7897 C 784.478 4.06654 -1.22139 0
M  V30 7898 O 785.502 3.39136 -1.08926 0
M  V30 7899 O 784.361 5.27455 -1.43017 0
M  V30 7900 H 781.455 0.806745 -0.181912 0
M  V30 7901 H 784.001 1.32403 -1.06148 0
M  V30 7902 H 782.773 3.24977 -2.17958 0
M  V30 7903 H 782.396 3.92969 -0.605093 0
M  V30 7904 N 783.393 0.737304 1.3929 0
M  V30 7905 C 784.621 0.296573 2.04763 0
M  V30 7906 C 785.036 -1.06941 1.55592 0
M  V30 7907 O 784.393 -1.67619 0.721822 0
M  V30 7908 C 784.444 0.291906 3.6032 0
M  V30 7909 O 784.165 1.60397 4.07682 0
M  V30 7910 C 785.666 -0.164708 4.42994 0
M  V30 7911 H 782.886 0.129251 0.658434 0
M  V30 7912 H 785.43 1.0016 1.78293 0
M  V30 7913 H 783.585 -0.364251 3.85684 0
M  V30 7914 H 783.999 1.51909 5.0202 0
M  V30 7915 H 785.473 -0.116814 5.51876 0
M  V30 7916 H 785.95 -1.21022 4.22197 0
M  V30 7917 H 786.556 0.461968 4.22784 0
M  V30 7918 N 784.871 -1.49948 0.485112 0
M  V30 7919 C 786.148 -1.95186 -0.12726 0
M  V30 7920 C 786.528 -1.42605 -1.5565 0
M  V30 7921 O 785.876 -0.632986 -2.19558 0
M  V30 7922 C 786.086 -3.48955 -0.0562117 0
M  V30 7923 C 787.434 -4.23932 -0.238106 0
M  V30 7924 O 788.458 -3.55955 -0.132145 0
M  V30 7925 O 787.317 -5.44614 -0.453658 0
M  V30 7926 H 784.411 -0.820433 -0.104014 0
M  V30 7927 H 786.957 -1.60659 0.546517 0
M  V30 7928 H 785.729 -3.79814 0.941122 0
M  V30 7929 H 785.352 -3.90056 -0.770834 0
M  V30 7930 N 786.349 -0.21828 -1.56081 0
M  V30 7931 C 787.312 0.679633 -2.18892 0
M  V30 7932 C 788.312 1.12405 -1.14986 0
M  V30 7933 O 789.502 1.03339 -1.40238 0
M  V30 7934 C 786.634 1.93063 -2.80962 0
M  V30 7935 H 787.827 0.132066 -2.99609 0
M  V30 7936 H 785.38 0.0313374 -1.56269 0
M  V30 7937 H 786.115 2.52015 -2.04106 0
M  V30 7938 H 785.9 1.62046 -3.57048 0
M  V30 7939 H 787.39 2.57043 -3.29118 0
M  V30 7940 N 787.827 1.57504 0.0551401 0
M  V30 7941 C 788.757 2.07864 1.06372 0
M  V30 7942 C 789.738 0.975565 1.39344 0
M  V30 7943 O 790.923 1.24929 1.48682 0
M  V30 7944 C 788.053 2.53643 2.3724 0
M  V30 7945 C 787.007 3.67978 2.18578 0
M  V30 7946 C 786.333 3.9987 3.54976 0
M  V30 7947 C 787.633 4.97405 1.59329 0
M  V30 7948 H 789.327 2.92379 0.644595 0
M  V30 7949 H 786.873 1.40654 0.308619 0
M  V30 7950 H 788.826 2.8749 3.08103 0
M  V30 7951 H 787.55 1.66177 2.81163 0
M  V30 7952 H 786.209 3.3444 1.50152 0
M  V30 7953 H 785.857 3.0951 3.965 0
M  V30 7954 H 785.557 4.76867 3.43324 0
M  V30 7955 H 787.081 4.36228 4.27244 0
M  V30 7956 H 788.495 5.29375 2.20078 0
M  V30 7957 H 786.892 5.78837 1.58327 0
M  V30 7958 H 787.962 4.81697 0.55638 0
M  V30 7959 N 789.305 -0.326896 1.54172 0
M  V30 7960 C 790.554 -1.06274 1.71431 0
M  V30 7961 C 790.867 -1.89282 0.493123 0
M  V30 7962 O 792.073 -2.65933 0.54699 0
M  V30 7963 C 790.529 -1.93892 3.03206 0
M  V30 7964 C 790.137 -1.16011 4.32719 0
M  V30 7965 C 791.881 -2.67232 3.29829 0
M  V30 7966 C 789.788 -2.02755 5.55558 0
M  V30 7967 H 788.718 -0.400475 0.638855 0
M  V30 7968 H 791.369 -0.321184 1.80667 0
M  V30 7969 H 789.751 -2.71933 2.87869 0
M  V30 7970 H 790.925 -0.427643 4.58811 0
M  V30 7971 H 789.24 -0.54367 4.12836 0
M  V30 7972 H 791.837 -3.32434 4.18798 0
M  V30 7973 H 792.18 -3.34692 2.47562 0
M  V30 7974 H 792.713 -1.96255 3.46018 0
M  V30 7975 H 789.452 -1.3981 6.40417 0
M  V30 7976 H 788.972 -2.73745 5.33689 0
M  V30 7977 H 790.651 -2.61419 5.91835 0
M  V30 7978 N 790.784 -1.46188 -0.588786 0
M  V30 7979 C 792.061 -1.41659 -1.34878 0
M  V30 7980 C 792.441 -0.0968913 -2.10878 0
M  V30 7981 O 791.789 0.921468 -2.09096 0
M  V30 7982 C 791.999 -2.6424 -2.27988 0
M  V30 7983 C 793.347 -3.1013 -2.90008 0
M  V30 7984 O 794.371 -2.64745 -2.38303 0
M  V30 7985 O 793.23 -3.88944 -3.83908 0
M  V30 7986 H 790.324 -0.563058 -0.605718 0
M  V30 7987 H 792.87 -1.58346 -0.610309 0
M  V30 7988 H 791.642 -3.51853 -1.71217 0
M  V30 7989 H 791.265 -2.49982 -3.09184 0
M  V30 7990 N 792.262 0.832906 -1.33792 0
M  V30 7991 C 793.225 1.92471 -1.24449 0
M  V30 7992 C 794.225 1.59981 -0.162085 0
M  V30 7993 O 795.415 1.69208 -0.414029 0
M  V30 7994 C 792.547 3.28278 -0.919044 0
M  V30 7995 H 793.74 2.0218 -2.21502 0
M  V30 7996 H 791.293 1.0257 -1.17936 0
M  V30 7997 H 792.028 3.24263 0.048738 0
M  V30 7998 H 791.813 3.53241 -1.70187 0
M  V30 7999 H 793.303 4.08253 -0.878576 0
M  V30 8000 N 793.74 1.17359 1.05189 0
M  V30 8001 C 794.988 0.960087 1.77839 0
M  V30 8002 C 795.309 -0.512554 1.88143 0
M  V30 8003 O 794.579 -1.3721 1.39822 0
M  V30 8004 H 793.159 0.352234 0.658741 0
M  V30 8005 H 795.821 1.47834 1.27008 0
M  V30 8006 H 794.917 1.38843 2.79516 0
M  V30 8007 N 795.218 -1.23913 0.973828 0
M  V30 8008 C 796.128 -2.28838 0.516735 0
M  V30 8009 C 797.144 -1.68723 -0.425282 0
M  V30 8010 O 798.32 -1.99201 -0.296819 0
M  V30 8011 C 795.385 -3.46233 -0.179914 0
M  V30 8012 C 794.446 -4.21729 0.80269 0
M  V30 8013 C 793.679 -5.33518 0.139191 0
M  V30 8014 O 793.902 -5.60252 -1.07118 0
M  V30 8015 O 792.836 -5.96088 0.834447 0
M  V30 8016 H 796.662 -2.70067 1.38916 0
M  V30 8017 H 794.247 -1.2972 0.74115 0
M  V30 8018 H 796.129 -4.17514 -0.570991 0
M  V30 8019 H 794.804 -3.06969 -1.02721 0
M  V30 8020 H 793.711 -3.52799 1.24434 0
M  V30 8021 H 795.044 -4.64825 1.61859 0
M  V30 8022 N 796.696 -0.74468 -1.38897 0
M  V30 8023 C 798.107 -0.36568 -1.83084 0
M  V30 8024 C 798.458 1.10436 -1.62168 0
M  V30 8025 O 797.583 1.85281 -1.11804 0
M  V30 8026 C 798.178 -0.656946 -3.3237 0
M  V30 8027 C 796.737 -0.331329 -3.74939 0
M  V30 8028 C 795.884 -0.914661 -2.61781 0
M  V30 8029 H 798.835 -0.941551 -1.27752 0
M  V30 8030 H 798.856 0.0679546 -3.80439 0
M  V30 8031 H 798.368 -1.72693 -3.47561 0
M  V30 8032 H 796.469 0.732426 -3.6533 0
M  V30 8033 H 796.582 -0.820655 -4.72019 0
M  V30 8034 H 794.946 -0.34063 -2.52412 0
M  V30 8035 H 795.729 -1.98949 -2.79775 0
M  V30 8036 O 798.213 1.48503 -0.634761 0
M  V30 8037 H 798.904 1.93081 -0.154671 0
M  V30 END ATOM
M  V30 BEGIN BOND
M  V30 END BOND
M  V30 END CTAB
M  END
$$$$
