drugbank_target|Q8RQE7 DNA-directed RNA polymerase subunit omega (DB08226; DB08266)
 OpenBabel12092120303D

  0  0  0     0  0            999 V3000
M  V30 BEGIN CTAB
M  V30 COUNTS 2134 2272 0 0 0
M  V30 BEGIN ATOM
M  V30 1 H -2.588 8.49073 -0.0679273 0
M  V30 2 O -1.492 9.37262 0.0843559 0
M  V30 3 P 0 8.791 0 0
M  V30 4 O 1.422 9.31096 0.027933 0
M  V30 5 O -0.36 7.77869 -1.04071 0
M  V30 6 O -0.323 8.09533 1.41463 0
M  V30 7 C -0.483 9.0349 2.53943 0
M  V30 8 C 0.057 8.35226 3.79016 0
M  V30 9 O -0.999 7.57992 4.15078 0
M  V30 10 C 1.275 7.45087 3.67298 0
M  V30 11 O 2.013 7.27796 4.85194 0
M  V30 12 C 0.606 6.17323 3.12027 0
M  V30 13 O 1.405 5.04231 3.47188 0
M  V30 14 C -0.731 6.19961 3.81809 0
M  V30 15 H -0.699 5.58218 4.73051 0
M  V30 16 H 0.484 6.21726 2.02589 0
M  V30 17 H 1.968 7.86112 2.9231 0
M  V30 18 H 0.274 9.11627 4.55076 0
M  V30 19 H 0.084 9.9573 2.34194 0
M  V30 20 H -1.546 9.2792 2.67832 0
M  V30 21 H 1.093 4.67702 4.28772 0
M  V30 22 P 2.95057 7.39546 4.75277 0
M  V30 23 O 4.37157 7.81861 5.05793 0
M  V30 24 O 2.59057 7.1065 3.32998 0
M  V30 25 O 2.62757 6.04542 5.56673 0
M  V30 26 C 2.46657 6.22839 7.02169 0
M  V30 27 C 3.00757 4.97725 7.70406 0
M  V30 28 O 1.95257 4.13208 7.58899 0
M  V30 29 C 4.22557 4.28231 7.11815 0
M  V30 30 O 4.96357 3.49945 8.01648 0
M  V30 31 C 3.55757 3.5063 5.96244 0
M  V30 32 O 4.35557 2.37008 5.64352 0
M  V30 33 C 2.21957 3.15122 6.56374 0
M  V30 34 N 1.17657 3.22311 5.55692 0
M  V30 35 C 1.34557 3.99655 4.46046 0
M  V30 36 N 0.31857 3.97599 3.63918 0
M  V30 37 C -0.56643 3.11159 4.25334 0
M  V30 38 C -1.83343 2.64972 3.85157 0
M  V30 39 N -2.43243 3.02132 2.69405 0
M  V30 40 N -2.39843 1.78482 4.74759 0
M  V30 41 C -1.79643 1.37463 5.90819 0
M  V30 42 N -0.61943 1.7733 6.31889 0
M  V30 43 C -0.04443 2.64393 5.43725 0
M  V30 44 H 2.25157 2.13823 6.99656 0
M  V30 45 H 3.43457 4.12931 5.06895 0
M  V30 46 H 4.91757 5.03285 6.70911 0
M  V30 47 H 3.22357 5.20001 8.76217 0
M  V30 48 H 3.03357 7.11046 7.35349 0
M  V30 49 H 1.40357 6.35815 7.26986 0
M  V30 50 H -2.33243 0.66574 6.53015 0
M  V30 51 H 2.24557 4.58037 4.27732 0
M  V30 52 H -3.36243 2.64828 2.45331 0
M  V30 53 H -1.95843 3.67472 2.05644 0
M  V30 54 H 4.04357 1.61619 6.13468 0
M  V30 55 P 5.90114 3.65191 7.99657 0
M  V30 56 O 7.32314 3.8425 8.48115 0
M  V30 57 O 5.54114 4.17805 6.64342 0
M  V30 58 O 5.57814 2.07613 7.95143 0
M  V30 59 C 5.41814 1.44328 9.27336 0
M  V30 60 C 5.95814 0.0220036 9.17197 0
M  V30 61 O 4.90214 -0.626867 8.61923 0
M  V30 62 C 7.17614 -0.24586 8.30336 0
M  V30 63 O 7.91414 -1.39011 8.63583 0
M  V30 64 C 6.50714 -0.273849 6.91158 0
M  V30 65 O 7.30614 -1.06348 6.02892 0
M  V30 66 C 5.17014 -0.897649 7.22545 0
M  V30 67 H 5.20214 -1.9841 7.04286 0
M  V30 68 H 6.38514 0.739928 6.497 0
M  V30 69 H 7.86914 0.60668 8.36503 0
M  V30 70 H 6.17514 -0.352479 10.1829 0
M  V30 71 H 5.98514 2.00611 10.0304 0
M  V30 72 H 4.35514 1.41843 9.55327 0
M  V30 73 H 6.99414 -1.95734 6.03555 0
M  V30 74 P 8.85171 -1.25109 8.70152 0
M  V30 75 O 10.2737 -1.35274 9.21221 0
M  V30 76 O 8.49171 -0.0769065 7.84762 0
M  V30 77 O 8.52871 -2.55232 7.81161 0
M  V30 78 C 8.36871 -3.79939 8.58154 0
M  V30 79 C 8.90871 -4.94023 7.72785 0
M  V30 80 O 7.85271 -5.18726 6.91205 0
M  V30 81 C 10.1267 -4.69597 6.85231 0
M  V30 82 O 10.8647 -5.83832 6.51337 0
M  V30 83 C 9.45771 -3.96706 5.66633 0
M  V30 84 O 10.2567 -4.15414 4.49689 0
M  V30 85 C 8.12071 -4.66153 5.59313 0
M  V30 86 H 8.15271 -5.47679 4.85214 0
M  V30 87 H 9.33571 -2.89008 5.86566 0
M  V30 88 H 10.8197 -4.0121 7.36511 0
M  V30 89 H 9.12571 -5.80182 8.37584 0
M  V30 90 H 8.93571 -3.73517 9.52265 0
M  V30 91 H 7.30571 -3.97163 8.80359 0
M  V30 92 H 9.94471 -4.90969 4.01921 0
M  V30 93 P 11.8023 -5.75688 6.64379 0
M  V30 94 O 13.2243 -6.11981 7.01997 0
M  V30 95 O 11.4423 -4.30744 6.56026 0
M  V30 96 O 11.4793 -6.37042 5.19165 0
M  V30 97 C 11.3193 -7.83578 5.16515 0
M  V30 98 C 11.8593 -8.33307 3.82977 0
M  V30 99 O 10.8043 -8.10074 3.01034 0
M  V30 100 C 13.0773 -7.65514 3.2257 0
M  V30 101 O 13.8153 -8.4329 2.32297 0
M  V30 102 C 12.4093 -6.40075 2.62207 0
M  V30 103 O 13.2073 -5.92492 1.53687 0
M  V30 104 C 11.0713 -6.9454 2.18503 0
M  V30 105 N 10.0283 -5.95905 2.39948 0
M  V30 106 C 10.0903 -5.13994 3.44742 0
M  V30 107 N 9.04528 -4.30684 3.46712 0
M  V30 108 C 8.31128 -4.65583 2.41086 0
M  V30 109 C 7.00528 -4.20877 1.99581 0
M  V30 110 O 6.27228 -3.35913 2.52616 0
M  V30 111 N 6.57528 -4.83271 0.873406 0
M  V30 112 C 7.32428 -5.82006 0.185129 0
M  V30 113 N 6.72728 -6.30619 -0.95439 0
M  V30 114 N 8.47728 -6.28443 0.578524 0
M  V30 115 C 8.93428 -5.68486 1.70138 0
M  V30 116 H 11.1033 -7.23063 1.12091 0
M  V30 117 H 12.2863 -5.60165 3.3715 0
M  V30 118 H 13.7713 -7.3611 4.01946 0
M  V30 119 H 12.0763 -9.40912 3.9095 0
M  V30 120 H 11.8863 -8.29056 5.99158 0
M  V30 121 H 10.2553 -8.10073 5.25882 0
M  V30 122 H 5.67928 -4.58323 0.505262 0
M  V30 123 H 10.8863 -5.14564 4.1935 0
M  V30 124 H 5.81628 -5.93402 -1.25364 0
M  V30 125 H 7.19228 -7.0425 -1.50254 0
M  V30 126 H 12.8963 -6.30224 0.72668 0
M  V30 127 P 14.7528 -8.4349 2.47671 0
M  V30 128 O 16.1748 -8.94167 2.5964 0
M  V30 129 O 14.3928 -7.1704 3.19006 0
M  V30 130 O 14.4298 -8.16596 0.923387 0
M  V30 131 C 14.2698 -9.38437 0.108857 0
M  V30 132 C 14.8098 -9.08175 -1.28353 0
M  V30 133 O 13.7538 -8.44229 -1.84713 0
M  V30 134 C 16.0278 -8.18386 -1.42505 0
M  V30 135 O 16.7659 -8.3501 -2.60497 0
M  V30 136 C 15.3588 -6.80225 -1.25468 0
M  V30 137 O 16.1578 -5.81621 -1.91066 0
M  V30 138 C 14.0218 -7.02416 -1.9168 0
M  V30 139 H 14.0538 -6.6888 -2.96621 0
M  V30 140 H 15.2368 -6.53617 -0.192223 0
M  V30 141 H 16.7208 -8.36622 -0.589963 0
M  V30 142 H 15.0268 -10.0291 -1.79807 0
M  V30 143 H 14.8368 -10.2138 0.558219 0
M  V30 144 H 13.2068 -9.6579 0.0444202 0
M  V30 145 H 15.8458 -5.69556 -2.79637 0
M  V30 146 P 17.7034 -8.4349 -2.47671 0
M  V30 147 O 19.1254 -8.92593 -2.65 0
M  V30 148 O 17.3434 -7.7568 -1.19296 0
M  V30 149 O 17.3804 -7.36886 -3.63805 0
M  V30 150 C 17.2204 -7.95349 -4.982 0
M  V30 151 C 17.7604 -6.94612 -5.98974 0
M  V30 152 O 16.7044 -6.10347 -6.11815 0
M  V30 153 C 18.9784 -6.11426 -5.62335 0
M  V30 154 O 19.7164 -5.6162 -6.70584 0
M  V30 155 C 18.3094 -5.04409 -4.73308 0
M  V30 156 O 19.1084 -3.85992 -4.75183 0
M  V30 157 C 16.9724 -4.8728 -5.41006 0
M  V30 158 H 17.0044 -4.02333 -6.11157 0
M  V30 159 H 18.1874 -5.39466 -3.69543 0
M  V30 160 H 19.6714 -6.71916 -5.01943 0
M  V30 161 H 17.9774 -7.4649 -6.93477 0
M  V30 162 H 17.7874 -8.89416 -5.05237 0
M  V30 163 H 16.1574 -8.14876 -5.18409 0
M  V30 164 H 18.7964 -3.27957 -5.4317 0
M  V30 165 P 20.654 -5.75688 -6.64379 0
M  V30 166 O 22.076 -6.07627 -7.05504 0
M  V30 167 O 20.294 -5.88047 -5.19722 0
M  V30 168 O 20.331 -4.2322 -7.04443 0
M  V30 169 C 20.171 -3.99743 -8.4911 0
M  V30 170 C 20.711 -2.60516 -8.79425 0
M  V30 171 O 19.655 -1.82684 -8.4467 0
M  V30 172 C 21.929 -2.10343 -8.03628 0
M  V30 173 O 22.667 -1.09919 -8.67766 0
M  V30 174 C 21.26 -1.68446 -6.70876 0
M  V30 175 O 22.059 -0.678137 -6.08433 0
M  V30 176 C 19.923 -1.17436 -7.18567 0
M  V30 177 H 19.955 -0.0804732 -7.31656 0
M  V30 178 H 21.138 -2.54037 -6.02537 0
M  V30 179 H 22.622 -2.93881 -7.85526 0
M  V30 180 H 20.928 -2.53065 -9.86973 0
M  V30 181 H 20.738 -4.75072 -9.05887 0
M  V30 182 H 19.108 -4.05244 -8.76668 0
M  V30 183 H 21.747 0.177647 -6.34251 0
M  V30 184 P 23.6046 -1.25109 -8.70152 0
M  V30 185 O 25.0266 -1.29744 -9.22016 0
M  V30 186 O 23.2446 -2.13714 -7.55141 0
M  V30 187 O 23.2816 0.248149 -8.21425 0
M  V30 188 C 23.1216 1.22779 -9.30434 0
M  V30 189 C 23.6616 2.56293 -8.80664 0
M  V30 190 O 22.6056 3.02979 -8.09349 0
M  V30 191 C 24.8796 2.57523 -7.89775 0
M  V30 192 O 25.6176 3.7668 -7.89438 0
M  V30 193 C 24.2106 2.20997 -6.55446 0
M  V30 194 O 25.0096 2.71895 -5.48509 0
M  V30 195 C 22.8736 2.89693 -6.67988 0
M  V30 196 H 22.9056 3.88793 -6.19859 0
M  V30 197 H 24.0886 1.12046 -6.44229 0
M  V30 198 H 25.5726 1.7746 -8.19711 0
M  V30 199 H 23.8786 3.20706 -9.67112 0
M  V30 200 H 23.6886 0.901032 -10.1892 0
M  V30 201 H 22.0586 1.33049 -9.56592 0
M  V30 202 H 24.6976 3.57847 -5.23962 0
M  V30 203 P 26.5551 3.65191 -7.99657 0
M  V30 204 O 27.9771 3.89332 -8.45794 0
M  V30 205 O 26.1951 2.28472 -7.50807 0
M  V30 206 O 26.2321 4.64972 -6.77611 0
M  V30 207 C 26.0721 6.06319 -7.16352 0
M  V30 208 C 26.6121 6.91731 -6.02299 0
M  V30 209 O 25.5561 6.92449 -5.17064 0
M  V30 210 C 27.8301 6.43627 -5.25174 0
M  V30 211 O 28.5681 7.43686 -4.60469 0
M  V30 212 C 27.1611 5.40275 -4.31916 0
M  V30 213 O 27.9601 5.25279 -3.14438 0
M  V30 214 C 25.8241 6.04847 -4.05327 0
M  V30 215 H 25.8561 6.62195 -3.11261 0
M  V30 216 H 27.0391 4.42556 -4.81383 0
M  V30 217 H 28.5231 5.92458 -5.93643 0
M  V30 218 H 26.8291 7.92655 -6.402 0
M  V30 219 H 26.6391 6.26671 -8.0846 0
M  V30 220 H 25.0091 6.29101 -7.32804 0
M  V30 221 H 27.6481 5.84315 -2.47318 0
M  V30 222 P 29.5057 7.39546 -4.75277 0
M  V30 223 O 30.9277 7.84966 -5.01146 0
M  V30 224 O 29.1457 5.9812 -5.08098 0
M  V30 225 O 29.1827 7.57503 -3.1866 0
M  V30 226 C 29.0227 8.97357 -2.74833 0
M  V30 227 C 29.5627 9.0745 -1.32694 0
M  V30 228 O 28.5077 8.62072 -0.606159 0
M  V30 229 C 30.7807 8.25383 -0.938334 0
M  V30 230 O 31.5187 8.74577 0.146954 0
M  V30 231 C 30.1127 6.8802 -0.712559 0
M  V30 232 O 30.9107 6.11791 0.194623 0
M  V30 233 C 28.7747 7.27966 -0.139777 0
M  V30 234 N 27.7317 6.39368 -0.623421 0
M  V30 235 C 27.7937 5.90299 -1.85969 0
M  V30 236 N 26.7487 5.10919 -2.1133 0
M  V30 237 C 26.0147 5.14646 -1.0015 0
M  V30 238 C 24.7087 4.60057 -0.729219 0
M  V30 239 O 23.9757 3.93476 -1.47746 0
M  V30 240 N 24.2787 4.88302 0.523505 0
M  V30 241 C 25.0277 5.63646 1.46207 0
M  V30 242 N 24.4307 5.78186 2.69239 0
M  V30 243 N 26.1807 6.19285 1.21544 0
M  V30 244 C 26.6377 5.93392 -0.0308487 0
M  V30 245 H 28.8067 7.25354 0.961601 0
M  V30 246 H 29.9897 6.3246 -1.65676 0
M  V30 247 H 31.4747 8.19533 -1.78278 0
M  V30 248 H 29.7797 10.1294 -1.10029 0
M  V30 249 H 29.5897 9.64276 -3.41316 0
M  V30 250 H 27.9587 9.25417 -2.76357 0
M  V30 251 H 23.3827 4.53993 0.806451 0
M  V30 252 H 28.5897 6.11865 -2.57394 0
M  V30 253 H 23.5197 5.34046 2.87467 0
M  V30 254 H 24.8957 6.33391 3.42578 0
M  V30 255 H 30.5997 6.25169 1.0783 0
M  V30 256 P 32.4563 8.791 -9.96115e-15 0
M  V30 257 O 33.8783 9.31096 0.027933 0
M  V30 258 O 32.0963 7.77869 -1.04071 0
M  V30 259 O 32.1333 8.09533 1.41463 0
M  V30 260 C 31.9733 9.0349 2.53943 0
M  V30 261 C 32.5133 8.35226 3.79016 0
M  V30 262 O 31.4573 7.57992 4.15078 0
M  V30 263 C 33.7313 7.45087 3.67298 0
M  V30 264 O 34.4693 7.27796 4.85194 0
M  V30 265 C 33.0623 6.17323 3.12027 0
M  V30 266 O 33.8613 5.04231 3.47188 0
M  V30 267 C 31.7253 6.19961 3.81809 0
M  V30 268 H 31.7573 5.58218 4.73051 0
M  V30 269 H 32.9403 6.21726 2.02589 0
M  V30 270 H 34.4243 7.86112 2.9231 0
M  V30 271 H 32.7303 9.11627 4.55076 0
M  V30 272 H 32.5403 9.9573 2.34194 0
M  V30 273 H 30.9103 9.2792 2.67832 0
M  V30 274 H 33.5493 4.67702 4.28772 0
M  V30 275 P 35.4068 7.39546 4.75277 0
M  V30 276 O 36.8288 7.81777 5.05738 0
M  V30 277 O 35.0468 7.1065 3.32998 0
M  V30 278 O 35.0838 6.04542 5.56673 0
M  V30 279 C 34.9238 6.22772 7.02095 0
M  V30 280 C 35.4638 4.97725 7.70406 0
M  V30 281 O 34.4078 4.13256 7.58987 0
M  V30 282 C 36.6818 4.28231 7.11815 0
M  V30 283 O 37.4198 3.49945 8.01648 0
M  V30 284 C 36.0128 3.5063 5.96244 0
M  V30 285 O 36.8118 2.36482 5.64681 0
M  V30 286 C 34.6758 3.15122 6.56374 0
M  V30 287 H 34.7078 2.13853 6.99751 0
M  V30 288 H 35.8908 4.13501 5.06559 0
M  V30 289 H 37.3748 5.03285 6.70911 0
M  V30 290 H 35.6808 5.20877 8.75697 0
M  V30 291 H 35.4908 7.11046 7.35349 0
M  V30 292 H 33.8608 6.35815 7.26986 0
M  V30 293 H 36.4998 1.61644 6.13565 0
M  V30 294 P 38.3574 3.65191 7.99657 0
M  V30 295 O 39.7794 3.8425 8.48115 0
M  V30 296 O 37.9974 4.17805 6.64342 0
M  V30 297 O 38.0344 2.07613 7.95143 0
M  V30 298 C 37.8744 1.44328 9.27336 0
M  V30 299 C 38.4144 0.0220036 9.17197 0
M  V30 300 O 37.3584 -0.626867 8.61923 0
M  V30 301 C 39.6324 -0.24586 8.30336 0
M  V30 302 O 40.3704 -1.39011 8.63583 0
M  V30 303 C 38.9634 -0.273849 6.91158 0
M  V30 304 O 39.7624 -1.06348 6.02892 0
M  V30 305 C 37.6264 -0.897649 7.22545 0
M  V30 306 H 37.6584 -1.9841 7.04286 0
M  V30 307 H 38.8414 0.739928 6.497 0
M  V30 308 H 40.3254 0.60668 8.36503 0
M  V30 309 H 38.6314 -0.352479 10.1829 0
M  V30 310 H 38.4414 2.00611 10.0304 0
M  V30 311 H 36.8114 1.41843 9.55327 0
M  V30 312 H 39.4504 -1.95734 6.03555 0
M  V30 313 P 41.308 -1.25109 8.70152 0
M  V30 314 O 42.73 -1.35274 9.21221 0
M  V30 315 O 40.948 -0.0769065 7.84762 0
M  V30 316 O 40.985 -2.55232 7.81161 0
M  V30 317 C 40.825 -3.79939 8.58154 0
M  V30 318 C 41.365 -4.94023 7.72785 0
M  V30 319 O 40.309 -5.18726 6.91205 0
M  V30 320 C 42.583 -4.69597 6.85231 0
M  V30 321 O 43.321 -5.83832 6.51337 0
M  V30 322 C 41.914 -3.96706 5.66633 0
M  V30 323 O 42.713 -4.15414 4.49689 0
M  V30 324 C 40.577 -4.66153 5.59313 0
M  V30 325 H 40.609 -5.47679 4.85214 0
M  V30 326 H 41.792 -2.89008 5.86566 0
M  V30 327 H 43.276 -4.0121 7.36511 0
M  V30 328 H 41.582 -5.80182 8.37584 0
M  V30 329 H 41.392 -3.73517 9.52265 0
M  V30 330 H 39.762 -3.97163 8.80359 0
M  V30 331 H 42.401 -4.90969 4.01921 0
M  V30 332 P 44.2585 -5.75688 6.64379 0
M  V30 333 O 45.6805 -6.11849 7.01846 0
M  V30 334 O 43.8985 -4.30744 6.56026 0
M  V30 335 O 43.9355 -6.37042 5.19165 0
M  V30 336 C 43.7755 -7.83578 5.16515 0
M  V30 337 C 44.3155 -8.33398 3.83019 0
M  V30 338 O 43.2595 -8.10074 3.01034 0
M  V30 339 C 45.5335 -7.65514 3.2257 0
M  V30 340 O 46.2715 -8.4329 2.32297 0
M  V30 341 C 44.8645 -6.40075 2.62207 0
M  V30 342 O 45.6635 -5.92589 1.53712 0
M  V30 343 C 43.5275 -6.9454 2.18503 0
M  V30 344 H 43.5595 -7.23063 1.12091 0
M  V30 345 H 44.7425 -5.6025 3.37201 0
M  V30 346 H 46.2265 -7.35707 4.02681 0
M  V30 347 H 44.5325 -9.40912 3.9095 0
M  V30 348 H 44.3425 -8.29056 5.99158 0
M  V30 349 H 42.7125 -8.10073 5.25882 0
M  V30 350 H 45.3515 -6.30324 0.726794 0
M  V30 351 P 47.2091 -8.4349 2.47671 0
M  V30 352 O 48.6101 -8.98227 2.65696 0
M  V30 353 O 46.8311 -7.20409 3.23964 0
M  V30 354 O 46.8861 -8.16496 0.923275 0
M  V30 355 C 46.7261 -9.38437 0.108857 0
M  V30 356 C 47.2661 -9.08076 -1.28339 0
M  V30 357 O 46.2101 -8.44131 -1.84692 0
M  V30 358 C 48.4831 -8.18386 -1.42505 0
M  V30 359 O 49.2221 -8.3501 -2.60497 0
M  V30 360 C 47.8161 -6.80225 -1.25468 0
M  V30 361 O 48.6141 -5.81526 -1.91035 0
M  V30 362 C 46.4781 -7.02416 -1.9168 0
M  V30 363 N 45.4351 -6.31033 -1.20314 0
M  V30 364 C 44.4001 -5.77149 -1.928 0
M  V30 365 O 44.4391 -5.8521 -3.17729 0
M  V30 366 N 43.3881 -5.15445 -1.27997 0
M  V30 367 C 43.4361 -5.04472 0.0534726 0
M  V30 368 C 44.5321 -5.55244 0.808522 0
M  V30 369 C 45.4981 -6.18542 0.13981 0
M  V30 370 H 46.5101 -6.68789 -2.9658 0
M  V30 371 H 47.6931 -6.53498 -0.198729 0
M  V30 372 H 49.1771 -8.36663 -0.5984 0
M  V30 373 H 47.4831 -10.0273 -1.8081 0
M  V30 374 H 47.2921 -10.2138 0.558219 0
M  V30 375 H 45.6621 -9.6569 0.0444156 0
M  V30 376 H 44.5801 -5.43017 1.88792 0
M  V30 377 H 46.3441 -6.60539 0.686773 0
M  V30 378 H 48.3981 -5.79638 -2.8315 0
M  V30 379 P 50.1597 -8.4349 -2.47671 0
M  V30 380 O 51.5807 -8.92689 -2.65029 0
M  V30 381 O 49.7997 -7.7568 -1.19296 0
M  V30 382 O 49.8367 -7.36886 -3.63805 0
M  V30 383 C 49.6757 -7.95433 -4.98253 0
M  V30 384 C 50.2167 -6.94612 -5.98974 0
M  V30 385 O 49.1617 -6.10277 -6.11744 0
M  V30 386 C 51.4347 -6.11426 -5.62335 0
M  V30 387 O 52.1727 -5.6162 -6.70584 0
M  V30 388 C 50.7667 -5.04409 -4.73308 0
M  V30 389 O 51.5647 -3.86404 -4.74719 0
M  V30 390 C 49.4287 -4.8728 -5.41006 0
M  V30 391 N 48.3857 -4.65812 -4.42377 0
M  V30 392 C 48.5547 -5.09132 -3.15382 0
M  V30 393 N 47.5277 -4.84021 -2.3716 0
M  V30 394 C 46.6427 -4.18386 -3.20441 0
M  V30 395 C 45.3757 -3.6275 -2.94905 0
M  V30 396 N 44.8107 -3.05008 -4.05243 0
M  V30 397 C 45.4127 -2.98348 -5.28159 0
M  V30 398 N 46.5897 -3.48171 -5.56333 0
M  V30 399 C 47.1647 -4.06869 -4.47212 0
M  V30 400 H 50.6437 -5.39013 -3.70026 0
M  V30 401 H 52.1267 -6.71916 -5.01943 0
M  V30 402 H 50.4327 -7.45796 -6.94223 0
M  V30 403 H 50.2427 -8.89416 -5.05237 0
M  V30 404 H 48.6127 -8.14876 -5.18409 0
M  V30 405 H 49.4547 -5.59989 -2.81362 0
M  V30 406 H 51.2527 -3.27906 -5.43085 0
M  V30 407 P 53.1103 -5.75688 -6.64379 0
M  V30 408 O 54.5323 -6.07627 -7.05504 0
M  V30 409 O 52.7503 -5.88047 -5.19722 0
M  V30 410 O 52.7873 -4.2322 -7.04443 0
M  V30 411 C 52.6273 -3.99743 -8.4911 0
M  V30 412 C 53.1673 -2.60516 -8.79425 0
M  V30 413 O 52.1113 -1.82684 -8.4467 0
M  V30 414 C 54.3853 -2.10343 -8.03628 0
M  V30 415 O 55.1233 -1.09919 -8.67766 0
M  V30 416 C 53.7163 -1.68446 -6.70876 0
M  V30 417 O 54.5153 -0.678137 -6.08433 0
M  V30 418 C 52.3793 -1.17436 -7.18567 0
M  V30 419 H 52.4113 -0.0804732 -7.31656 0
M  V30 420 H 53.5943 -2.54037 -6.02537 0
M  V30 421 H 55.0783 -2.93881 -7.85526 0
M  V30 422 H 53.3843 -2.53065 -9.86973 0
M  V30 423 H 53.1943 -4.75072 -9.05887 0
M  V30 424 H 51.5643 -4.05244 -8.76668 0
M  V30 425 H 54.2033 0.177647 -6.34251 0
M  V30 426 P 56.0608 -1.25109 -8.70152 0
M  V30 427 O 57.4828 -1.29744 -9.22016 0
M  V30 428 O 55.7008 -2.13714 -7.55141 0
M  V30 429 O 55.7378 0.248149 -8.21425 0
M  V30 430 C 55.5778 1.22779 -9.30434 0
M  V30 431 C 56.1178 2.56293 -8.80664 0
M  V30 432 O 55.0618 3.02979 -8.09349 0
M  V30 433 C 57.3358 2.57523 -7.89775 0
M  V30 434 O 58.0738 3.7668 -7.89438 0
M  V30 435 C 56.6668 2.20997 -6.55446 0
M  V30 436 O 57.4658 2.71895 -5.48509 0
M  V30 437 C 55.3298 2.89693 -6.67988 0
M  V30 438 H 55.3618 3.88793 -6.19859 0
M  V30 439 H 56.5448 1.12046 -6.44229 0
M  V30 440 H 58.0288 1.7746 -8.19711 0
M  V30 441 H 56.3348 3.20706 -9.67112 0
M  V30 442 H 56.1448 0.901032 -10.1892 0
M  V30 443 H 54.5148 1.33049 -9.56592 0
M  V30 444 H 57.1538 3.57847 -5.23962 0
M  V30 445 P 59.0114 3.65191 -7.99657 0
M  V30 446 O 60.4334 3.89332 -8.45794 0
M  V30 447 O 58.6514 2.28472 -7.50807 0
M  V30 448 O 58.6884 4.64972 -6.77611 0
M  V30 449 C 58.5284 6.06319 -7.16352 0
M  V30 450 C 59.0684 6.91731 -6.02299 0
M  V30 451 O 58.0124 6.92449 -5.17064 0
M  V30 452 C 60.2864 6.43627 -5.25174 0
M  V30 453 O 61.0244 7.43686 -4.60469 0
M  V30 454 C 59.6174 5.40275 -4.31916 0
M  V30 455 O 60.4164 5.25279 -3.14438 0
M  V30 456 C 58.2804 6.04847 -4.05327 0
M  V30 457 H 58.3124 6.62195 -3.11261 0
M  V30 458 H 59.4954 4.42556 -4.81383 0
M  V30 459 H 60.9794 5.92458 -5.93643 0
M  V30 460 H 59.2854 7.92655 -6.402 0
M  V30 461 H 59.0954 6.26671 -8.0846 0
M  V30 462 H 57.4654 6.29101 -7.32804 0
M  V30 463 H 60.1044 5.84315 -2.47318 0
M  V30 464 P 61.962 7.39546 -4.75277 0
M  V30 465 O 63.384 7.84798 -5.01039 0
M  V30 466 O 61.602 5.9812 -5.08098 0
M  V30 467 O 61.639 7.57503 -3.1866 0
M  V30 468 C 61.479 8.97357 -2.74833 0
M  V30 469 C 62.019 9.07548 -1.32709 0
M  V30 470 O 60.963 8.62072 -0.606159 0
M  V30 471 C 63.237 8.25383 -0.938334 0
M  V30 472 O 63.975 8.74577 0.146954 0
M  V30 473 C 62.568 6.8802 -0.712559 0
M  V30 474 O 63.367 6.1189 0.194655 0
M  V30 475 C 61.231 7.27966 -0.139777 0
M  V30 476 H 61.263 7.25354 0.961601 0
M  V30 477 H 62.446 6.32557 -1.65702 0
M  V30 478 H 63.93 8.19355 -1.79097 0
M  V30 479 H 62.236 10.1294 -1.10029 0
M  V30 480 H 62.046 9.64276 -3.41316 0
M  V30 481 H 60.416 9.25417 -2.76357 0
M  V30 482 H 63.055 6.25267 1.07847 0
M  V30 483 P 64.9125 8.791 -3.55383e-14 0
M  V30 484 O 66.3345 9.31096 0.027933 0
M  V30 485 O 64.5525 7.77869 -1.04071 0
M  V30 486 O 64.5895 8.09533 1.41463 0
M  V30 487 C 64.4295 9.0349 2.53943 0
M  V30 488 C 64.9695 8.35226 3.79016 0
M  V30 489 O 63.9135 7.57992 4.15078 0
M  V30 490 C 66.1875 7.45087 3.67298 0
M  V30 491 O 66.9255 7.27796 4.85194 0
M  V30 492 C 65.5185 6.17323 3.12027 0
M  V30 493 O 66.3175 5.04231 3.47188 0
M  V30 494 C 64.1815 6.19961 3.81809 0
M  V30 495 H 64.2135 5.58218 4.73051 0
M  V30 496 H 65.3965 6.21726 2.02589 0
M  V30 497 H 66.8805 7.86112 2.9231 0
M  V30 498 H 65.1865 9.11627 4.55076 0
M  V30 499 H 64.9965 9.9573 2.34194 0
M  V30 500 H 63.3665 9.2792 2.67832 0
M  V30 501 H 66.0055 4.67702 4.28772 0
M  V30 502 P 67.8631 7.39546 4.75277 0
M  V30 503 O 69.2841 7.81861 5.05793 0
M  V30 504 O 67.5031 7.1065 3.32998 0
M  V30 505 O 67.5401 6.04542 5.56673 0
M  V30 506 C 67.3791 6.22839 7.02169 0
M  V30 507 C 67.9201 4.97725 7.70406 0
M  V30 508 O 66.8651 4.13208 7.58899 0
M  V30 509 C 69.1381 4.28231 7.11815 0
M  V30 510 O 69.8761 3.49945 8.01648 0
M  V30 511 C 68.4701 3.5063 5.96244 0
M  V30 512 O 69.2681 2.37008 5.64352 0
M  V30 513 C 67.1321 3.15122 6.56374 0
M  V30 514 N 66.0891 3.22311 5.55692 0
M  V30 515 C 66.2581 3.99655 4.46046 0
M  V30 516 N 65.2311 3.97599 3.63918 0
M  V30 517 C 64.3461 3.11159 4.25334 0
M  V30 518 C 63.0791 2.64972 3.85157 0
M  V30 519 N 62.4801 3.02132 2.69405 0
M  V30 520 N 62.5141 1.78482 4.74759 0
M  V30 521 C 63.1161 1.37463 5.90819 0
M  V30 522 N 64.2931 1.7733 6.31889 0
M  V30 523 C 64.8681 2.64393 5.43725 0
M  V30 524 H 67.1641 2.13823 6.99656 0
M  V30 525 H 68.3471 4.12931 5.06895 0
M  V30 526 H 69.8301 5.03285 6.70911 0
M  V30 527 H 68.1361 5.20001 8.76217 0
M  V30 528 H 67.9461 7.11046 7.35349 0
M  V30 529 H 66.3161 6.35815 7.26986 0
M  V30 530 H 62.5801 0.66574 6.53015 0
M  V30 531 H 67.1581 4.58037 4.27732 0
M  V30 532 H 61.5501 2.64828 2.45331 0
M  V30 533 H 62.9541 3.67472 2.05644 0
M  V30 534 H 68.9561 1.61619 6.13468 0
M  V30 535 P 70.8137 3.65191 7.99657 0
M  V30 536 O 72.2357 3.8425 8.48115 0
M  V30 537 O 70.4537 4.17805 6.64342 0
M  V30 538 O 70.4907 2.07613 7.95143 0
M  V30 539 C 70.3307 1.44328 9.27336 0
M  V30 540 C 70.8707 0.0220036 9.17197 0
M  V30 541 O 69.8147 -0.626867 8.61923 0
M  V30 542 C 72.0887 -0.24586 8.30336 0
M  V30 543 O 72.8267 -1.39011 8.63583 0
M  V30 544 C 71.4197 -0.273849 6.91158 0
M  V30 545 O 72.2187 -1.06348 6.02892 0
M  V30 546 C 70.0827 -0.897649 7.22545 0
M  V30 547 H 70.1147 -1.9841 7.04286 0
M  V30 548 H 71.2977 0.739928 6.497 0
M  V30 549 H 72.7817 0.60668 8.36503 0
M  V30 550 H 71.0877 -0.352479 10.1829 0
M  V30 551 H 70.8977 2.00611 10.0304 0
M  V30 552 H 69.2677 1.41843 9.55327 0
M  V30 553 H 71.9067 -1.95734 6.03555 0
M  V30 554 P 73.7642 -1.25109 8.70152 0
M  V30 555 O 75.1852 -1.35288 9.2132 0
M  V30 556 O 73.4042 -0.0769065 7.84762 0
M  V30 557 O 73.4412 -2.55232 7.81161 0
M  V30 558 C 73.2802 -3.79979 8.58246 0
M  V30 559 C 73.8212 -4.94023 7.72785 0
M  V30 560 O 72.7662 -5.18666 6.91125 0
M  V30 561 C 75.0392 -4.69597 6.85231 0
M  V30 562 O 75.7772 -5.83832 6.51337 0
M  V30 563 C 74.3712 -3.96706 5.66633 0
M  V30 564 O 75.1692 -4.14896 4.5003 0
M  V30 565 C 73.0332 -4.66153 5.59313 0
M  V30 566 N 71.9902 -3.71582 5.24027 0
M  V30 567 C 72.1592 -2.39715 5.48833 0
M  V30 568 N 71.1322 -1.65863 5.12845 0
M  V30 569 C 70.2472 -2.57637 4.5973 0
M  V30 570 C 68.9802 -2.40278 4.01027 0
M  V30 571 N 68.4152 -3.57711 3.59575 0
M  V30 572 C 69.0172 -4.80324 3.70476 0
M  V30 573 N 70.1942 -5.01121 4.23801 0
M  V30 574 C 70.7692 -3.84757 4.66372 0
M  V30 575 H 74.2482 -2.8955 5.86187 0
M  V30 576 H 75.7312 -4.0121 7.36511 0
M  V30 577 H 74.0372 -5.81019 8.37003 0
M  V30 578 H 73.8472 -3.73517 9.52265 0
M  V30 579 H 72.2172 -3.97163 8.80359 0
M  V30 580 H 73.0592 -1.98804 5.94332 0
M  V30 581 H 74.8572 -4.90891 4.01857 0
M  V30 582 P 76.7148 -5.75688 6.64379 0
M  V30 583 O 78.1358 -6.11915 7.01921 0
M  V30 584 O 76.3548 -4.30744 6.56026 0
M  V30 585 O 76.3918 -6.37042 5.19165 0
M  V30 586 C 76.2308 -7.83662 5.1657 0
M  V30 587 C 76.7718 -8.33398 3.83019 0
M  V30 588 O 75.7168 -8.0998 3.00999 0
M  V30 589 C 77.9898 -7.65514 3.2257 0
M  V30 590 O 78.7278 -8.4329 2.32297 0
M  V30 591 C 77.3218 -6.40075 2.62207 0
M  V30 592 O 78.1198 -5.92338 1.5428 0
M  V30 593 C 75.9838 -6.9454 2.18503 0
M  V30 594 N 74.9408 -5.95905 2.39948 0
M  V30 595 C 75.1098 -4.98383 3.32108 0
M  V30 596 N 74.0828 -4.16798 3.41761 0
M  V30 597 C 73.1978 -4.65287 2.47461 0
M  V30 598 C 71.9308 -4.18946 2.07461 0
M  V30 599 N 71.3318 -3.09661 2.60717 0
M  V30 600 N 71.3658 -4.95327 1.09101 0
M  V30 601 C 71.9678 -6.04369 0.519812 0
M  V30 602 N 73.1448 -6.50694 0.855982 0
M  V30 603 C 73.7198 -5.75818 1.84322 0
M  V30 604 H 76.0158 -7.22964 1.12076 0
M  V30 605 H 77.1988 -5.60502 3.36589 0
M  V30 606 H 78.6818 -7.35707 4.02681 0
M  V30 607 H 76.9878 -9.41302 3.90009 0
M  V30 608 H 76.7978 -8.29056 5.99158 0
M  V30 609 H 75.1678 -8.10073 5.25882 0
M  V30 610 H 71.4318 -6.55843 -0.270373 0
M  V30 611 H 76.0098 -4.88564 3.92502 0
M  V30 612 H 70.4018 -2.80523 2.27218 0
M  V30 613 H 71.8058 -2.55848 3.34465 0
M  V30 614 H 77.8078 -6.30224 0.72668 0
M  V30 615 P 79.6654 -8.4349 2.47671 0
M  V30 616 O 81.0874 -8.94167 2.5964 0
M  V30 617 O 79.3054 -7.1704 3.19006 0
M  V30 618 O 79.3424 -8.16596 0.923387 0
M  V30 619 C 79.1824 -9.38437 0.108857 0
M  V30 620 C 79.7224 -9.08175 -1.28353 0
M  V30 621 O 78.6664 -8.44229 -1.84713 0
M  V30 622 C 80.9404 -8.18386 -1.42505 0
M  V30 623 O 81.6784 -8.3501 -2.60497 0
M  V30 624 C 80.2714 -6.80225 -1.25468 0
M  V30 625 O 81.0704 -5.81621 -1.91066 0
M  V30 626 C 78.9344 -7.02416 -1.9168 0
M  V30 627 H 78.9664 -6.6888 -2.96621 0
M  V30 628 H 80.1494 -6.53617 -0.192223 0
M  V30 629 H 81.6334 -8.36622 -0.589963 0
M  V30 630 H 79.9394 -10.0291 -1.79807 0
M  V30 631 H 79.7494 -10.2138 0.558219 0
M  V30 632 H 78.1194 -9.6579 0.0444202 0
M  V30 633 H 80.7584 -5.69556 -2.79637 0
M  V30 634 P 82.616 -8.4349 -2.47671 0
M  V30 635 O 84.038 -8.92593 -2.65 0
M  V30 636 O 82.256 -7.7568 -1.19296 0
M  V30 637 O 82.293 -7.36886 -3.63805 0
M  V30 638 C 82.133 -7.95349 -4.982 0
M  V30 639 C 82.673 -6.94612 -5.98974 0
M  V30 640 O 81.617 -6.10347 -6.11815 0
M  V30 641 C 83.891 -6.11426 -5.62335 0
M  V30 642 O 84.629 -5.6162 -6.70584 0
M  V30 643 C 83.222 -5.04409 -4.73308 0
M  V30 644 O 84.021 -3.85992 -4.75183 0
M  V30 645 C 81.885 -4.8728 -5.41006 0
M  V30 646 H 81.917 -4.02333 -6.11157 0
M  V30 647 H 83.1 -5.39466 -3.69543 0
M  V30 648 H 84.584 -6.71916 -5.01943 0
M  V30 649 H 82.89 -7.4649 -6.93477 0
M  V30 650 H 82.7 -8.89416 -5.05237 0
M  V30 651 H 81.07 -8.14876 -5.18409 0
M  V30 652 H 83.709 -3.27957 -5.4317 0
M  V30 653 P 85.5665 -5.75688 -6.64379 0
M  V30 654 O 86.9885 -6.07627 -7.05504 0
M  V30 655 O 85.2065 -5.88047 -5.19722 0
M  V30 656 O 85.2435 -4.2322 -7.04443 0
M  V30 657 C 85.0835 -3.99743 -8.4911 0
M  V30 658 C 85.6235 -2.60516 -8.79425 0
M  V30 659 O 84.5675 -1.82684 -8.4467 0
M  V30 660 C 86.8415 -2.10343 -8.03628 0
M  V30 661 O 87.5795 -1.09919 -8.67766 0
M  V30 662 C 86.1725 -1.68446 -6.70876 0
M  V30 663 O 86.9715 -0.678137 -6.08433 0
M  V30 664 C 84.8355 -1.17436 -7.18567 0
M  V30 665 H 84.8675 -0.0804732 -7.31656 0
M  V30 666 H 86.0505 -2.54037 -6.02537 0
M  V30 667 H 87.5345 -2.93881 -7.85526 0
M  V30 668 H 85.8405 -2.53065 -9.86973 0
M  V30 669 H 85.6505 -4.75072 -9.05887 0
M  V30 670 H 84.0205 -4.05244 -8.76668 0
M  V30 671 H 86.6595 0.177647 -6.34251 0
M  V30 672 P 88.5171 -1.25109 -8.70152 0
M  V30 673 O 89.9391 -1.29744 -9.22016 0
M  V30 674 O 88.1571 -2.13714 -7.55141 0
M  V30 675 O 88.1941 0.248149 -8.21425 0
M  V30 676 C 88.0341 1.22779 -9.30434 0
M  V30 677 C 88.5741 2.56293 -8.80664 0
M  V30 678 O 87.5181 3.02979 -8.09349 0
M  V30 679 C 89.7921 2.57523 -7.89775 0
M  V30 680 O 90.5301 3.7668 -7.89438 0
M  V30 681 C 89.1231 2.20997 -6.55446 0
M  V30 682 O 89.9221 2.71895 -5.48509 0
M  V30 683 C 87.7861 2.89693 -6.67988 0
M  V30 684 H 87.8181 3.88793 -6.19859 0
M  V30 685 H 89.0011 1.12046 -6.44229 0
M  V30 686 H 90.4851 1.7746 -8.19711 0
M  V30 687 H 88.7911 3.20706 -9.67112 0
M  V30 688 H 88.6011 0.901032 -10.1892 0
M  V30 689 H 86.9711 1.33049 -9.56592 0
M  V30 690 H 89.6101 3.57847 -5.23962 0
M  V30 691 P 91.4677 3.65191 -7.99657 0
M  V30 692 O 92.8887 3.89374 -8.45885 0
M  V30 693 O 91.1077 2.28472 -7.50807 0
M  V30 694 O 91.1447 4.64972 -6.77611 0
M  V30 695 C 90.9837 6.06383 -7.16428 0
M  V30 696 C 91.5247 6.91731 -6.02299 0
M  V30 697 O 90.4697 6.92369 -5.17005 0
M  V30 698 C 92.7427 6.43627 -5.25174 0
M  V30 699 O 93.4807 7.43686 -4.60469 0
M  V30 700 C 92.0747 5.40275 -4.31916 0
M  V30 701 O 92.8727 5.24878 -3.14911 0
M  V30 702 C 90.7367 6.04847 -4.05327 0
M  V30 703 N 89.6937 5.04166 -3.98114 0
M  V30 704 C 89.8627 3.84629 -4.59066 0
M  V30 705 N 88.8357 3.0363 -4.45343 0
M  V30 706 C 87.9507 3.76722 -3.68523 0
M  V30 707 C 86.6837 3.43528 -3.17088 0
M  V30 708 N 86.1187 4.44526 -2.44231 0
M  V30 709 C 86.7207 5.65243 -2.20146 0
M  V30 710 N 87.8977 6.00221 -2.65453 0
M  V30 711 C 88.4727 5.00564 -3.39083 0
M  V30 712 H 91.9517 4.42969 -4.80867 0
M  V30 713 H 93.4347 5.92458 -5.93643 0
M  V30 714 H 91.7407 7.93295 -6.39407 0
M  V30 715 H 91.5507 6.26671 -8.0846 0
M  V30 716 H 89.9207 6.29101 -7.32804 0
M  V30 717 H 90.7627 3.58193 -5.14248 0
M  V30 718 H 92.5607 5.84223 -2.47279 0
M  V30 719 P 94.4182 7.39546 -4.75277 0
M  V30 720 O 95.8402 7.84798 -5.01039 0
M  V30 721 O 94.0582 5.9812 -5.08098 0
M  V30 722 O 94.0952 7.57503 -3.1866 0
M  V30 723 C 93.9352 8.97357 -2.74833 0
M  V30 724 C 94.4752 9.07548 -1.32709 0
M  V30 725 O 93.4192 8.62072 -0.606159 0
M  V30 726 C 95.6932 8.25383 -0.938334 0
M  V30 727 O 96.4312 8.74577 0.146954 0
M  V30 728 C 95.0242 6.8802 -0.712559 0
M  V30 729 O 95.8232 6.1189 0.194655 0
M  V30 730 C 93.6872 7.27966 -0.139777 0
M  V30 731 H 93.7192 7.25354 0.961601 0
M  V30 732 H 94.9022 6.32557 -1.65702 0
M  V30 733 H 96.3862 8.19355 -1.79097 0
M  V30 734 H 94.6922 10.1294 -1.10029 0
M  V30 735 H 94.5022 9.64276 -3.41316 0
M  V30 736 H 92.8722 9.25417 -2.76357 0
M  V30 737 H 95.5112 6.25267 1.07847 0
M  V30 738 P 97.3688 8.791 -6.89233e-14 0
M  V30 739 O 98.7908 9.31296 0.027939 0
M  V30 740 O 97.0088 7.77869 -1.04071 0
M  V30 741 O 97.0458 8.09533 1.41463 0
M  V30 742 C 96.8858 9.0349 2.53943 0
M  V30 743 C 97.4258 8.35135 3.78975 0
M  V30 744 O 96.3708 7.57992 4.15078 0
M  V30 745 C 98.6438 7.45087 3.67298 0
M  V30 746 O 99.3818 7.27796 4.85194 0
M  V30 747 C 97.9758 6.17323 3.12027 0
M  V30 748 O 98.7738 5.04149 3.47132 0
M  V30 749 C 96.6378 6.19961 3.81809 0
M  V30 750 N 95.5948 5.71575 2.93223 0
M  V30 751 C 95.6568 5.97133 1.62693 0
M  V30 752 N 94.6118 5.44066 0.984414 0
M  V30 753 C 93.8778 4.87093 1.93987 0
M  V30 754 C 92.5718 4.26449 1.8738 0
M  V30 755 O 91.8388 4.1089 0.884377 0
M  V30 756 N 92.1418 3.82483 3.08036 0
M  V30 757 C 92.8908 3.95124 4.27727 0
M  V30 758 N 92.2938 3.4084 5.39089 0
M  V30 759 N 94.0438 4.55264 4.3706 0
M  V30 760 C 94.5008 5.00861 3.18217 0
M  V30 761 H 96.6698 5.58218 4.73051 0
M  V30 762 H 97.8528 6.21631 2.02558 0
M  V30 763 H 99.3378 7.85819 2.93096 0
M  V30 764 H 97.6428 9.11627 4.55076 0
M  V30 765 H 97.4528 9.9573 2.34194 0
M  V30 766 H 95.8218 9.2792 2.67832 0
M  V30 767 H 91.2458 3.38323 3.1329 0
M  V30 768 H 96.4528 6.53891 1.14265 0
M  V30 769 H 91.3828 2.93852 5.30559 0
M  V30 770 H 92.7588 3.47631 6.30632 0
M  V30 771 H 98.4628 4.67628 4.28704 0
M  V30 772 P 100.319 7.39546 4.75277 0
M  V30 773 O 101.741 7.81777 5.05738 0
M  V30 774 O 99.9594 7.1065 3.32998 0
M  V30 775 O 99.9964 6.04542 5.56673 0
M  V30 776 C 99.8364 6.22772 7.02095 0
M  V30 777 C 100.376 4.97725 7.70406 0
M  V30 778 O 99.3204 4.13256 7.58987 0
M  V30 779 C 101.594 4.28231 7.11815 0
M  V30 780 O 102.332 3.49945 8.01648 0
M  V30 781 C 100.925 3.5063 5.96244 0
M  V30 782 O 101.724 2.36482 5.64681 0
M  V30 783 C 99.5884 3.15122 6.56374 0
M  V30 784 H 99.6204 2.13853 6.99751 0
M  V30 785 H 100.803 4.13501 5.06559 0
M  V30 786 H 102.287 5.03285 6.70911 0
M  V30 787 H 100.593 5.20877 8.75697 0
M  V30 788 H 100.403 7.11046 7.35349 0
M  V30 789 H 98.7734 6.35815 7.26986 0
M  V30 790 H 101.412 1.61644 6.13565 0
M  V30 791 P 103.27 3.65191 7.99657 0
M  V30 792 O 104.692 3.8425 8.48115 0
M  V30 793 O 102.91 4.17805 6.64342 0
M  V30 794 O 102.947 2.07613 7.95143 0
M  V30 795 C 102.787 1.44328 9.27336 0
M  V30 796 C 103.327 0.0220036 9.17197 0
M  V30 797 O 102.271 -0.626867 8.61923 0
M  V30 798 C 104.545 -0.24586 8.30336 0
M  V30 799 O 105.283 -1.39011 8.63583 0
M  V30 800 C 103.876 -0.273849 6.91158 0
M  V30 801 O 104.675 -1.06348 6.02892 0
M  V30 802 C 102.539 -0.897649 7.22545 0
M  V30 803 H 102.571 -1.9841 7.04286 0
M  V30 804 H 103.754 0.739928 6.497 0
M  V30 805 H 105.238 0.60668 8.36503 0
M  V30 806 H 103.544 -0.352479 10.1829 0
M  V30 807 H 103.354 2.00611 10.0304 0
M  V30 808 H 101.724 1.41843 9.55327 0
M  V30 809 H 104.363 -1.95734 6.03555 0
M  V30 810 P 106.221 -1.25109 8.70152 0
M  V30 811 O 107.643 -1.35274 9.21221 0
M  V30 812 O 105.861 -0.0769065 7.84762 0
M  V30 813 O 105.898 -2.55232 7.81161 0
M  V30 814 C 105.738 -3.79939 8.58154 0
M  V30 815 C 106.278 -4.94023 7.72785 0
M  V30 816 O 105.222 -5.18726 6.91205 0
M  V30 817 C 107.496 -4.69597 6.85231 0
M  V30 818 O 108.234 -5.83832 6.51337 0
M  V30 819 C 106.827 -3.96706 5.66633 0
M  V30 820 O 107.626 -4.15414 4.49689 0
M  V30 821 C 105.49 -4.66153 5.59313 0
M  V30 822 H 105.522 -5.47679 4.85214 0
M  V30 823 H 106.705 -2.89008 5.86566 0
M  V30 824 H 108.189 -4.0121 7.36511 0
M  V30 825 H 106.495 -5.80182 8.37584 0
M  V30 826 H 106.305 -3.73517 9.52265 0
M  V30 827 H 104.675 -3.97163 8.80359 0
M  V30 828 H 107.314 -4.90969 4.01921 0
M  V30 829 P 109.171 -5.75688 6.64379 0
M  V30 830 O 110.593 -6.11849 7.01846 0
M  V30 831 O 108.811 -4.30744 6.56026 0
M  V30 832 O 108.848 -6.37042 5.19165 0
M  V30 833 C 108.688 -7.83578 5.16515 0
M  V30 834 C 109.228 -8.33398 3.83019 0
M  V30 835 O 108.172 -8.10074 3.01034 0
M  V30 836 C 110.446 -7.65514 3.2257 0
M  V30 837 O 111.184 -8.4329 2.32297 0
M  V30 838 C 109.777 -6.40075 2.62207 0
M  V30 839 O 110.576 -5.92589 1.53712 0
M  V30 840 C 108.44 -6.9454 2.18503 0
M  V30 841 H 108.472 -7.23063 1.12091 0
M  V30 842 H 109.655 -5.6025 3.37201 0
M  V30 843 H 111.139 -7.35707 4.02681 0
M  V30 844 H 109.445 -9.40912 3.9095 0
M  V30 845 H 109.255 -8.29056 5.99158 0
M  V30 846 H 107.625 -8.10073 5.25882 0
M  V30 847 H 110.264 -6.30324 0.726794 0
M  V30 848 P 112.122 -8.4349 2.47671 0
M  V30 849 O 113.544 -8.94167 2.5964 0
M  V30 850 O 111.762 -7.1704 3.19006 0
M  V30 851 O 111.799 -8.16596 0.923387 0
M  V30 852 C 111.639 -9.38437 0.108857 0
M  V30 853 C 112.179 -9.08175 -1.28353 0
M  V30 854 O 111.123 -8.44229 -1.84713 0
M  V30 855 C 113.397 -8.18386 -1.42505 0
M  V30 856 O 114.135 -8.3501 -2.60497 0
M  V30 857 C 112.728 -6.80225 -1.25468 0
M  V30 858 O 113.527 -5.81621 -1.91066 0
M  V30 859 C 111.391 -7.02416 -1.9168 0
M  V30 860 H 111.423 -6.6888 -2.96621 0
M  V30 861 H 112.606 -6.53617 -0.192223 0
M  V30 862 H 114.09 -8.36622 -0.589963 0
M  V30 863 H 112.396 -10.0291 -1.79807 0
M  V30 864 H 112.206 -10.2138 0.558219 0
M  V30 865 H 110.576 -9.6579 0.0444202 0
M  V30 866 H 113.215 -5.69556 -2.79637 0
M  V30 867 P 115.072 -8.4349 -2.47671 0
M  V30 868 O 116.494 -8.92593 -2.65 0
M  V30 869 O 114.712 -7.7568 -1.19296 0
M  V30 870 O 114.749 -7.36886 -3.63805 0
M  V30 871 C 114.589 -7.95349 -4.982 0
M  V30 872 C 115.129 -6.94612 -5.98974 0
M  V30 873 O 114.073 -6.10347 -6.11815 0
M  V30 874 C 116.347 -6.11426 -5.62335 0
M  V30 875 O 117.085 -5.6162 -6.70584 0
M  V30 876 C 115.678 -5.04409 -4.73308 0
M  V30 877 O 116.477 -3.85992 -4.75183 0
M  V30 878 C 114.341 -4.8728 -5.41006 0
M  V30 879 H 114.373 -4.02333 -6.11157 0
M  V30 880 H 115.556 -5.39466 -3.69543 0
M  V30 881 H 117.04 -6.71916 -5.01943 0
M  V30 882 H 115.346 -7.4649 -6.93477 0
M  V30 883 H 115.156 -8.89416 -5.05237 0
M  V30 884 H 113.526 -8.14876 -5.18409 0
M  V30 885 H 116.165 -3.27957 -5.4317 0
M  V30 886 P 118.023 -5.75688 -6.64379 0
M  V30 887 O 119.445 -6.07627 -7.05504 0
M  V30 888 O 117.663 -5.88047 -5.19722 0
M  V30 889 O 117.7 -4.2322 -7.04443 0
M  V30 890 C 117.54 -3.99743 -8.4911 0
M  V30 891 C 118.08 -2.60516 -8.79425 0
M  V30 892 O 117.024 -1.82684 -8.4467 0
M  V30 893 C 119.298 -2.10343 -8.03628 0
M  V30 894 O 120.036 -1.09919 -8.67766 0
M  V30 895 C 118.629 -1.68446 -6.70876 0
M  V30 896 O 119.428 -0.678137 -6.08433 0
M  V30 897 C 117.292 -1.17436 -7.18567 0
M  V30 898 H 117.324 -0.0804732 -7.31656 0
M  V30 899 H 118.507 -2.54037 -6.02537 0
M  V30 900 H 119.991 -2.93881 -7.85526 0
M  V30 901 H 118.297 -2.53065 -9.86973 0
M  V30 902 H 118.107 -4.75072 -9.05887 0
M  V30 903 H 116.477 -4.05244 -8.76668 0
M  V30 904 H 119.116 0.177647 -6.34251 0
M  V30 905 P 120.973 -1.25109 -8.70152 0
M  V30 906 O 122.395 -1.29744 -9.22016 0
M  V30 907 O 120.613 -2.13714 -7.55141 0
M  V30 908 O 120.65 0.248149 -8.21425 0
M  V30 909 C 120.49 1.22779 -9.30434 0
M  V30 910 C 121.03 2.56293 -8.80664 0
M  V30 911 O 119.974 3.02979 -8.09349 0
M  V30 912 C 122.248 2.57523 -7.89775 0
M  V30 913 O 122.986 3.7668 -7.89438 0
M  V30 914 C 121.579 2.20997 -6.55446 0
M  V30 915 O 122.378 2.71895 -5.48509 0
M  V30 916 C 120.242 2.89693 -6.67988 0
M  V30 917 H 120.274 3.88793 -6.19859 0
M  V30 918 H 121.457 1.12046 -6.44229 0
M  V30 919 H 122.941 1.7746 -8.19711 0
M  V30 920 H 121.247 3.20706 -9.67112 0
M  V30 921 H 121.057 0.901032 -10.1892 0
M  V30 922 H 119.427 1.33049 -9.56592 0
M  V30 923 H 122.066 3.57847 -5.23962 0
M  V30 924 P 123.924 3.65191 -7.99657 0
M  V30 925 O 125.346 3.89332 -8.45794 0
M  V30 926 O 123.564 2.28472 -7.50807 0
M  V30 927 O 123.601 4.64972 -6.77611 0
M  V30 928 C 123.441 6.06319 -7.16352 0
M  V30 929 C 123.981 6.91731 -6.02299 0
M  V30 930 O 122.925 6.92449 -5.17064 0
M  V30 931 C 125.199 6.43627 -5.25174 0
M  V30 932 O 125.937 7.43686 -4.60469 0
M  V30 933 C 124.53 5.40275 -4.31916 0
M  V30 934 O 125.329 5.25279 -3.14438 0
M  V30 935 C 123.193 6.04847 -4.05327 0
M  V30 936 H 123.225 6.62195 -3.11261 0
M  V30 937 H 124.408 4.42556 -4.81383 0
M  V30 938 H 125.892 5.92458 -5.93643 0
M  V30 939 H 124.198 7.92655 -6.402 0
M  V30 940 H 124.008 6.26671 -8.0846 0
M  V30 941 H 122.378 6.29101 -7.32804 0
M  V30 942 H 125.017 5.84315 -2.47318 0
M  V30 943 P 126.875 7.39546 -4.75277 0
M  V30 944 O 128.297 7.84798 -5.01039 0
M  V30 945 O 126.515 5.9812 -5.08098 0
M  V30 946 O 126.552 7.57503 -3.1866 0
M  V30 947 C 126.392 8.97357 -2.74833 0
M  V30 948 C 126.932 9.07548 -1.32709 0
M  V30 949 O 125.876 8.62072 -0.606159 0
M  V30 950 C 128.15 8.25383 -0.938334 0
M  V30 951 O 128.888 8.74577 0.146954 0
M  V30 952 C 127.481 6.8802 -0.712559 0
M  V30 953 O 128.28 6.1189 0.194655 0
M  V30 954 C 126.144 7.27966 -0.139777 0
M  V30 955 H 126.176 7.25354 0.961601 0
M  V30 956 H 127.359 6.32557 -1.65702 0
M  V30 957 H 128.843 8.19355 -1.79097 0
M  V30 958 H 127.149 10.1294 -1.10029 0
M  V30 959 H 126.959 9.64276 -3.41316 0
M  V30 960 H 125.329 9.25417 -2.76357 0
M  V30 961 H 127.968 6.25267 1.07847 0
M  V30 962 P 129.825 8.791 -1.02308e-13 0
M  V30 963 O 131.246 9.31196 0.027936 0
M  V30 964 O 129.465 7.77869 -1.04071 0
M  V30 965 O 129.502 8.09533 1.41463 0
M  V30 966 C 129.341 9.03587 2.5397 0
M  V30 967 C 129.882 8.35226 3.79016 0
M  V30 968 O 128.827 7.57904 4.1503 0
M  V30 969 C 131.1 7.45087 3.67298 0
M  V30 970 O 131.838 7.27796 4.85194 0
M  V30 971 C 130.432 6.17323 3.12027 0
M  V30 972 O 131.23 5.04496 3.46627 0
M  V30 973 C 129.094 6.19961 3.81809 0
M  V30 974 N 128.051 5.71575 2.93223 0
M  V30 975 C 128.22 5.77362 1.59168 0
M  V30 976 N 127.193 5.3123 0.911893 0
M  V30 977 C 126.308 4.91717 1.89588 0
M  V30 978 C 125.041 4.3114 1.8076 0
M  V30 979 N 124.476 4.06823 3.02898 0
M  V30 980 C 125.078 4.35062 4.22711 0
M  V30 981 N 126.255 4.90805 4.35707 0
M  V30 982 C 126.83 5.16382 3.14469 0
M  V30 983 H 130.309 6.21428 2.0318 0
M  V30 984 H 131.792 7.86112 2.9231 0
M  V30 985 H 130.098 9.11171 4.55987 0
M  V30 986 H 129.908 9.9573 2.34194 0
M  V30 987 H 128.278 9.2792 2.67832 0
M  V30 988 H 129.12 6.16575 1.12198 0
M  V30 989 H 130.918 4.67628 4.28704 0
M  V30 990 P 132.776 7.39546 4.75277 0
M  V30 991 O 134.198 7.81777 5.05738 0
M  V30 992 O 132.416 7.1065 3.32998 0
M  V30 993 O 132.453 6.04542 5.56673 0
M  V30 994 C 132.293 6.22772 7.02095 0
M  V30 995 C 132.833 4.97725 7.70406 0
M  V30 996 O 131.777 4.13256 7.58987 0
M  V30 997 C 134.051 4.28231 7.11815 0
M  V30 998 O 134.789 3.49945 8.01648 0
M  V30 999 C 133.382 3.5063 5.96244 0
M  V30 1000 O 134.181 2.36482 5.64681 0
M  V30 1001 C 132.045 3.15122 6.56374 0
M  V30 1002 H 132.077 2.13853 6.99751 0
M  V30 1003 H 133.26 4.13501 5.06559 0
M  V30 1004 H 134.744 5.03285 6.70911 0
M  V30 1005 H 133.05 5.20877 8.75697 0
M  V30 1006 H 132.86 7.11046 7.35349 0
M  V30 1007 H 131.23 6.35815 7.26986 0
M  V30 1008 H 133.869 1.61644 6.13565 0
M  V30 1009 P 135.726 3.65191 7.99657 0
M  V30 1010 O 137.148 3.8425 8.48115 0
M  V30 1011 O 135.366 4.17805 6.64342 0
M  V30 1012 O 135.403 2.07613 7.95143 0
M  V30 1013 C 135.243 1.44328 9.27336 0
M  V30 1014 C 135.783 0.0220036 9.17197 0
M  V30 1015 O 134.727 -0.626867 8.61923 0
M  V30 1016 C 137.001 -0.24586 8.30336 0
M  V30 1017 O 137.739 -1.39011 8.63583 0
M  V30 1018 C 136.332 -0.273849 6.91158 0
M  V30 1019 O 137.131 -1.06348 6.02892 0
M  V30 1020 C 134.995 -0.897649 7.22545 0
M  V30 1021 H 135.027 -1.9841 7.04286 0
M  V30 1022 H 136.21 0.739928 6.497 0
M  V30 1023 H 137.694 0.60668 8.36503 0
M  V30 1024 H 136 -0.352479 10.1829 0
M  V30 1025 H 135.81 2.00611 10.0304 0
M  V30 1026 H 134.18 1.41843 9.55327 0
M  V30 1027 H 136.819 -1.95734 6.03555 0
M  V30 1028 P 138.677 -1.25109 8.70152 0
M  V30 1029 O 140.099 -1.35274 9.21221 0
M  V30 1030 O 138.317 -0.0769065 7.84762 0
M  V30 1031 O 138.354 -2.55232 7.81161 0
M  V30 1032 C 138.194 -3.79939 8.58154 0
M  V30 1033 C 138.734 -4.94023 7.72785 0
M  V30 1034 O 137.678 -5.18726 6.91205 0
M  V30 1035 C 139.952 -4.69597 6.85231 0
M  V30 1036 O 140.69 -5.83832 6.51337 0
M  V30 1037 C 139.283 -3.96706 5.66633 0
M  V30 1038 O 140.082 -4.15414 4.49689 0
M  V30 1039 C 137.946 -4.66153 5.59313 0
M  V30 1040 H 137.978 -5.47679 4.85214 0
M  V30 1041 H 139.161 -2.89008 5.86566 0
M  V30 1042 H 140.645 -4.0121 7.36511 0
M  V30 1043 H 138.951 -5.80182 8.37584 0
M  V30 1044 H 138.761 -3.73517 9.52265 0
M  V30 1045 H 137.131 -3.97163 8.80359 0
M  V30 1046 H 139.77 -4.90969 4.01921 0
M  V30 1047 P 141.627 -5.75688 6.64379 0
M  V30 1048 O 143.049 -6.11849 7.01846 0
M  V30 1049 O 141.267 -4.30744 6.56026 0
M  V30 1050 O 141.304 -6.37042 5.19165 0
M  V30 1051 C 141.144 -7.83578 5.16515 0
M  V30 1052 C 141.684 -8.33398 3.83019 0
M  V30 1053 O 140.628 -8.10074 3.01034 0
M  V30 1054 C 142.902 -7.65514 3.2257 0
M  V30 1055 O 143.64 -8.4329 2.32297 0
M  V30 1056 C 142.233 -6.40075 2.62207 0
M  V30 1057 O 143.032 -5.92589 1.53712 0
M  V30 1058 C 140.896 -6.9454 2.18503 0
M  V30 1059 H 140.928 -7.23063 1.12091 0
M  V30 1060 H 142.111 -5.6025 3.37201 0
M  V30 1061 H 143.595 -7.35707 4.02681 0
M  V30 1062 H 141.901 -9.40912 3.9095 0
M  V30 1063 H 141.711 -8.29056 5.99158 0
M  V30 1064 H 140.081 -8.10073 5.25882 0
M  V30 1065 H 142.72 -6.30324 0.726794 0
M  V30 1066 P 144.578 -8.4349 2.47671 0
M  V30 1067 O 146 -8.94167 2.5964 0
M  V30 1068 O 144.218 -7.1704 3.19006 0
M  V30 1069 O 144.255 -8.16596 0.923387 0
M  V30 1070 C 144.095 -9.38437 0.108857 0
M  V30 1071 C 144.635 -9.08175 -1.28353 0
M  V30 1072 O 143.579 -8.44229 -1.84713 0
M  V30 1073 C 145.853 -8.18386 -1.42505 0
M  V30 1074 O 146.591 -8.3501 -2.60497 0
M  V30 1075 C 145.184 -6.80225 -1.25468 0
M  V30 1076 O 145.983 -5.81621 -1.91066 0
M  V30 1077 C 143.847 -7.02416 -1.9168 0
M  V30 1078 H 143.879 -6.6888 -2.96621 0
M  V30 1079 H 145.062 -6.53617 -0.192223 0
M  V30 1080 H 146.546 -8.36622 -0.589963 0
M  V30 1081 H 144.852 -10.0291 -1.79807 0
M  V30 1082 H 144.662 -10.2138 0.558219 0
M  V30 1083 H 143.032 -9.6579 0.0444202 0
M  V30 1084 H 145.671 -5.69556 -2.79637 0
M  V30 1085 P 147.528 -8.4349 -2.47671 0
M  V30 1086 O 148.95 -8.92593 -2.65 0
M  V30 1087 O 147.168 -7.7568 -1.19296 0
M  V30 1088 O 147.205 -7.36886 -3.63805 0
M  V30 1089 C 147.045 -7.95349 -4.982 0
M  V30 1090 C 147.585 -6.94612 -5.98974 0
M  V30 1091 O 146.529 -6.10347 -6.11815 0
M  V30 1092 C 148.803 -6.11426 -5.62335 0
M  V30 1093 O 149.541 -5.6162 -6.70584 0
M  V30 1094 C 148.134 -5.04409 -4.73308 0
M  V30 1095 O 148.933 -3.85992 -4.75183 0
M  V30 1096 C 146.797 -4.8728 -5.41006 0
M  V30 1097 H 146.829 -4.02333 -6.11157 0
M  V30 1098 H 148.012 -5.39466 -3.69543 0
M  V30 1099 H 149.496 -6.71916 -5.01943 0
M  V30 1100 H 147.802 -7.4649 -6.93477 0
M  V30 1101 H 147.612 -8.89416 -5.05237 0
M  V30 1102 H 145.982 -8.14876 -5.18409 0
M  V30 1103 H 148.621 -3.27957 -5.4317 0
M  V30 1104 P 150.479 -5.75688 -6.64379 0
M  V30 1105 O 151.901 -6.07627 -7.05504 0
M  V30 1106 O 150.119 -5.88047 -5.19722 0
M  V30 1107 O 150.156 -4.2322 -7.04443 0
M  V30 1108 C 149.996 -3.99743 -8.4911 0
M  V30 1109 C 150.536 -2.60516 -8.79425 0
M  V30 1110 O 149.48 -1.82684 -8.4467 0
M  V30 1111 C 151.754 -2.10343 -8.03628 0
M  V30 1112 O 152.492 -1.09919 -8.67766 0
M  V30 1113 C 151.085 -1.68446 -6.70876 0
M  V30 1114 O 151.884 -0.678137 -6.08433 0
M  V30 1115 C 149.748 -1.17436 -7.18567 0
M  V30 1116 H 149.78 -0.0804732 -7.31656 0
M  V30 1117 H 150.963 -2.54037 -6.02537 0
M  V30 1118 H 152.447 -2.93881 -7.85526 0
M  V30 1119 H 150.753 -2.53065 -9.86973 0
M  V30 1120 H 150.563 -4.75072 -9.05887 0
M  V30 1121 H 148.933 -4.05244 -8.76668 0
M  V30 1122 H 151.572 0.177647 -6.34251 0
M  V30 1123 P 153.43 -1.25109 -8.70152 0
M  V30 1124 O 154.852 -1.29772 -9.22214 0
M  V30 1125 O 153.07 -2.13714 -7.55141 0
M  V30 1126 O 153.107 0.248149 -8.21425 0
M  V30 1127 C 152.947 1.22779 -9.30434 0
M  V30 1128 C 153.487 2.56265 -8.80568 0
M  V30 1129 O 152.432 3.02979 -8.09349 0
M  V30 1130 C 154.705 2.57523 -7.89775 0
M  V30 1131 O 155.443 3.7668 -7.89438 0
M  V30 1132 C 154.037 2.20997 -6.55446 0
M  V30 1133 O 154.835 2.71851 -5.48419 0
M  V30 1134 C 152.699 2.89693 -6.67988 0
M  V30 1135 N 151.656 2.08895 -6.07487 0
M  V30 1136 C 151.718 0.760559 -6.14209 0
M  V30 1137 N 150.673 0.200108 -5.52538 0
M  V30 1138 C 149.939 1.22692 -5.09742 0
M  V30 1139 C 148.633 1.24782 -4.48775 0
M  V30 1140 O 147.9 0.290617 -4.19294 0
M  V30 1141 N 148.203 2.50468 -4.22428 0
M  V30 1142 C 148.952 3.67142 -4.51974 0
M  V30 1143 N 148.355 4.85096 -4.14091 0
M  V30 1144 N 150.105 3.67821 -5.12831 0
M  V30 1145 C 150.562 2.43698 -5.4105 0
M  V30 1146 H 152.731 3.88793 -6.19859 0
M  V30 1147 H 153.914 1.12029 -6.4413 0
M  V30 1148 H 155.399 1.78279 -8.19533 0
M  V30 1149 H 153.704 3.20706 -9.67112 0
M  V30 1150 H 153.514 0.901032 -10.1892 0
M  V30 1151 H 151.883 1.33049 -9.56592 0
M  V30 1152 H 147.307 2.61953 -3.79465 0
M  V30 1153 H 152.514 0.200439 -6.63497 0
M  V30 1154 H 147.444 4.8334 -3.66367 0
M  V30 1155 H 148.82 5.7474 -4.33841 0
M  V30 1156 H 154.524 3.5779 -5.23879 0
M  V30 1157 P 156.38 3.65191 -7.99657 0
M  V30 1158 O 157.802 3.89332 -8.45794 0
M  V30 1159 O 156.02 2.28472 -7.50807 0
M  V30 1160 O 156.057 4.64972 -6.77611 0
M  V30 1161 C 155.897 6.06319 -7.16352 0
M  V30 1162 C 156.437 6.91731 -6.02299 0
M  V30 1163 O 155.381 6.92449 -5.17064 0
M  V30 1164 C 157.655 6.43627 -5.25174 0
M  V30 1165 O 158.393 7.43686 -4.60469 0
M  V30 1166 C 156.986 5.40275 -4.31916 0
M  V30 1167 O 157.785 5.25279 -3.14438 0
M  V30 1168 C 155.649 6.04847 -4.05327 0
M  V30 1169 H 155.681 6.62195 -3.11261 0
M  V30 1170 H 156.864 4.42556 -4.81383 0
M  V30 1171 H 158.348 5.92458 -5.93643 0
M  V30 1172 H 156.654 7.92655 -6.402 0
M  V30 1173 H 156.464 6.26671 -8.0846 0
M  V30 1174 H 154.834 6.29101 -7.32804 0
M  V30 1175 H 157.473 5.84315 -2.47318 0
M  V30 1176 P 159.331 7.39546 -4.75277 0
M  V30 1177 O 160.753 7.84798 -5.01039 0
M  V30 1178 O 158.971 5.9812 -5.08098 0
M  V30 1179 O 159.008 7.57503 -3.1866 0
M  V30 1180 C 158.848 8.97357 -2.74833 0
M  V30 1181 C 159.388 9.07548 -1.32709 0
M  V30 1182 O 158.332 8.62072 -0.606159 0
M  V30 1183 C 160.606 8.25383 -0.938334 0
M  V30 1184 O 161.344 8.74577 0.146954 0
M  V30 1185 C 159.937 6.8802 -0.712559 0
M  V30 1186 O 160.736 6.1189 0.194655 0
M  V30 1187 C 158.6 7.27966 -0.139777 0
M  V30 1188 H 158.632 7.25354 0.961601 0
M  V30 1189 H 159.815 6.32557 -1.65702 0
M  V30 1190 H 161.299 8.19355 -1.79097 0
M  V30 1191 H 159.605 10.1294 -1.10029 0
M  V30 1192 H 159.415 9.64276 -3.41316 0
M  V30 1193 H 157.785 9.25417 -2.76357 0
M  V30 1194 H 160.424 6.25267 1.07847 0
M  V30 1195 P 162.281 8.791 -1.35693e-13 0
M  V30 1196 O 163.703 9.31096 0.027933 0
M  V30 1197 O 161.921 7.77869 -1.04071 0
M  V30 1198 O 161.958 8.09533 1.41463 0
M  V30 1199 C 161.798 9.0349 2.53943 0
M  V30 1200 C 162.338 8.35226 3.79016 0
M  V30 1201 O 161.282 7.57992 4.15078 0
M  V30 1202 C 163.556 7.45087 3.67298 0
M  V30 1203 O 164.294 7.27796 4.85194 0
M  V30 1204 C 162.887 6.17323 3.12027 0
M  V30 1205 O 163.686 5.04231 3.47188 0
M  V30 1206 C 161.55 6.19961 3.81809 0
M  V30 1207 H 161.582 5.58218 4.73051 0
M  V30 1208 H 162.765 6.21726 2.02589 0
M  V30 1209 H 164.249 7.86112 2.9231 0
M  V30 1210 H 162.555 9.11627 4.55076 0
M  V30 1211 H 162.365 9.9573 2.34194 0
M  V30 1212 H 160.735 9.2792 2.67832 0
M  V30 1213 H 163.374 4.67702 4.28772 0
M  V30 1214 P 165.232 7.39546 4.75277 0
M  V30 1215 O 166.654 7.81777 5.05738 0
M  V30 1216 O 164.872 7.1065 3.32998 0
M  V30 1217 O 164.909 6.04542 5.56673 0
M  V30 1218 C 164.749 6.22772 7.02095 0
M  V30 1219 C 165.289 4.97725 7.70406 0
M  V30 1220 O 164.233 4.13256 7.58987 0
M  V30 1221 C 166.507 4.28231 7.11815 0
M  V30 1222 O 167.245 3.49945 8.01648 0
M  V30 1223 C 165.838 3.5063 5.96244 0
M  V30 1224 O 166.637 2.36482 5.64681 0
M  V30 1225 C 164.501 3.15122 6.56374 0
M  V30 1226 H 164.533 2.13853 6.99751 0
M  V30 1227 H 165.716 4.13501 5.06559 0
M  V30 1228 H 167.2 5.03285 6.70911 0
M  V30 1229 H 165.506 5.20877 8.75697 0
M  V30 1230 H 165.316 7.11046 7.35349 0
M  V30 1231 H 163.686 6.35815 7.26986 0
M  V30 1232 H 166.325 1.61644 6.13565 0
M  V30 1233 P 168.182 3.65191 7.99657 0
M  V30 1234 O 169.604 3.8425 8.48115 0
M  V30 1235 O 167.822 4.17805 6.64342 0
M  V30 1236 O 167.859 2.07613 7.95143 0
M  V30 1237 C 167.699 1.44328 9.27336 0
M  V30 1238 C 168.239 0.0220036 9.17197 0
M  V30 1239 O 167.183 -0.626867 8.61923 0
M  V30 1240 C 169.457 -0.24586 8.30336 0
M  V30 1241 O 170.195 -1.39011 8.63583 0
M  V30 1242 C 168.788 -0.273849 6.91158 0
M  V30 1243 O 169.587 -1.06348 6.02892 0
M  V30 1244 C 167.451 -0.897649 7.22545 0
M  V30 1245 H 167.483 -1.9841 7.04286 0
M  V30 1246 H 168.666 0.739928 6.497 0
M  V30 1247 H 170.15 0.60668 8.36503 0
M  V30 1248 H 168.456 -0.352479 10.1829 0
M  V30 1249 H 168.266 2.00611 10.0304 0
M  V30 1250 H 166.636 1.41843 9.55327 0
M  V30 1251 H 169.275 -1.95734 6.03555 0
M  V30 1252 P 171.133 -1.25109 8.70152 0
M  V30 1253 O 172.555 -1.35274 9.21221 0
M  V30 1254 O 170.773 -0.0769065 7.84762 0
M  V30 1255 O 170.81 -2.55232 7.81161 0
M  V30 1256 C 170.65 -3.79939 8.58154 0
M  V30 1257 C 171.19 -4.94023 7.72785 0
M  V30 1258 O 170.134 -5.18726 6.91205 0
M  V30 1259 C 172.408 -4.69597 6.85231 0
M  V30 1260 O 173.146 -5.83832 6.51337 0
M  V30 1261 C 171.739 -3.96706 5.66633 0
M  V30 1262 O 172.538 -4.15414 4.49689 0
M  V30 1263 C 170.402 -4.66153 5.59313 0
M  V30 1264 H 170.434 -5.47679 4.85214 0
M  V30 1265 H 171.617 -2.89008 5.86566 0
M  V30 1266 H 173.101 -4.0121 7.36511 0
M  V30 1267 H 171.407 -5.80182 8.37584 0
M  V30 1268 H 171.217 -3.73517 9.52265 0
M  V30 1269 H 169.587 -3.97163 8.80359 0
M  V30 1270 H 172.226 -4.90969 4.01921 0
M  V30 1271 P 174.084 -5.75688 6.64379 0
M  V30 1272 O 175.505 -6.11915 7.01921 0
M  V30 1273 O 173.724 -4.30744 6.56026 0
M  V30 1274 O 173.761 -6.37042 5.19165 0
M  V30 1275 C 173.6 -7.83662 5.1657 0
M  V30 1276 C 174.141 -8.33398 3.83019 0
M  V30 1277 O 173.086 -8.0998 3.00999 0
M  V30 1278 C 175.359 -7.65514 3.2257 0
M  V30 1279 O 176.097 -8.4329 2.32297 0
M  V30 1280 C 174.691 -6.40075 2.62207 0
M  V30 1281 O 175.489 -5.92338 1.5428 0
M  V30 1282 C 173.353 -6.9454 2.18503 0
M  V30 1283 N 172.31 -5.95905 2.39948 0
M  V30 1284 C 172.479 -4.98383 3.32108 0
M  V30 1285 N 171.452 -4.16798 3.41761 0
M  V30 1286 C 170.567 -4.65287 2.47461 0
M  V30 1287 C 169.3 -4.18946 2.07461 0
M  V30 1288 N 168.701 -3.09661 2.60717 0
M  V30 1289 N 168.735 -4.95327 1.09101 0
M  V30 1290 C 169.337 -6.04369 0.519812 0
M  V30 1291 N 170.514 -6.50694 0.855982 0
M  V30 1292 C 171.089 -5.75818 1.84322 0
M  V30 1293 H 173.385 -7.22964 1.12076 0
M  V30 1294 H 174.568 -5.60502 3.36589 0
M  V30 1295 H 176.051 -7.35707 4.02681 0
M  V30 1296 H 174.357 -9.41302 3.90009 0
M  V30 1297 H 174.167 -8.29056 5.99158 0
M  V30 1298 H 172.537 -8.10073 5.25882 0
M  V30 1299 H 168.801 -6.55843 -0.270373 0
M  V30 1300 H 173.379 -4.88564 3.92502 0
M  V30 1301 H 167.771 -2.80523 2.27218 0
M  V30 1302 H 169.175 -2.55848 3.34465 0
M  V30 1303 H 175.177 -6.30224 0.72668 0
M  V30 1304 P 177.034 -8.4349 2.47671 0
M  V30 1305 O 178.456 -8.94167 2.5964 0
M  V30 1306 O 176.674 -7.1704 3.19006 0
M  V30 1307 O 176.711 -8.16596 0.923387 0
M  V30 1308 C 176.551 -9.38437 0.108857 0
M  V30 1309 C 177.091 -9.08175 -1.28353 0
M  V30 1310 O 176.035 -8.44229 -1.84713 0
M  V30 1311 C 178.309 -8.18386 -1.42505 0
M  V30 1312 O 179.047 -8.3501 -2.60497 0
M  V30 1313 C 177.64 -6.80225 -1.25468 0
M  V30 1314 O 178.439 -5.81621 -1.91066 0
M  V30 1315 C 176.303 -7.02416 -1.9168 0
M  V30 1316 H 176.335 -6.6888 -2.96621 0
M  V30 1317 H 177.518 -6.53617 -0.192223 0
M  V30 1318 H 179.002 -8.36622 -0.589963 0
M  V30 1319 H 177.308 -10.0291 -1.79807 0
M  V30 1320 H 177.118 -10.2138 0.558219 0
M  V30 1321 H 175.488 -9.6579 0.0444202 0
M  V30 1322 H 178.127 -5.69556 -2.79637 0
M  V30 1323 P 179.985 -8.4349 -2.47671 0
M  V30 1324 O 181.407 -8.92593 -2.65 0
M  V30 1325 O 179.625 -7.7568 -1.19296 0
M  V30 1326 O 179.662 -7.36886 -3.63805 0
M  V30 1327 C 179.502 -7.95349 -4.982 0
M  V30 1328 C 180.042 -6.94612 -5.98974 0
M  V30 1329 O 178.986 -6.10347 -6.11815 0
M  V30 1330 C 181.26 -6.11426 -5.62335 0
M  V30 1331 O 181.998 -5.6162 -6.70584 0
M  V30 1332 C 180.591 -5.04409 -4.73308 0
M  V30 1333 O 181.39 -3.85992 -4.75183 0
M  V30 1334 C 179.254 -4.8728 -5.41006 0
M  V30 1335 H 179.286 -4.02333 -6.11157 0
M  V30 1336 H 180.469 -5.39466 -3.69543 0
M  V30 1337 H 181.953 -6.71916 -5.01943 0
M  V30 1338 H 180.259 -7.4649 -6.93477 0
M  V30 1339 H 180.069 -8.89416 -5.05237 0
M  V30 1340 H 178.439 -8.14876 -5.18409 0
M  V30 1341 H 181.078 -3.27957 -5.4317 0
M  V30 1342 P 182.935 -5.75688 -6.64379 0
M  V30 1343 O 184.357 -6.07627 -7.05504 0
M  V30 1344 O 182.575 -5.88047 -5.19722 0
M  V30 1345 O 182.612 -4.2322 -7.04443 0
M  V30 1346 C 182.452 -3.99743 -8.4911 0
M  V30 1347 C 182.992 -2.60516 -8.79425 0
M  V30 1348 O 181.936 -1.82684 -8.4467 0
M  V30 1349 C 184.21 -2.10343 -8.03628 0
M  V30 1350 O 184.948 -1.09919 -8.67766 0
M  V30 1351 C 183.541 -1.68446 -6.70876 0
M  V30 1352 O 184.34 -0.678137 -6.08433 0
M  V30 1353 C 182.204 -1.17436 -7.18567 0
M  V30 1354 H 182.236 -0.0804732 -7.31656 0
M  V30 1355 H 183.419 -2.54037 -6.02537 0
M  V30 1356 H 184.903 -2.93881 -7.85526 0
M  V30 1357 H 183.209 -2.53065 -9.86973 0
M  V30 1358 H 183.019 -4.75072 -9.05887 0
M  V30 1359 H 181.389 -4.05244 -8.76668 0
M  V30 1360 H 184.028 0.177647 -6.34251 0
M  V30 1361 P 185.886 -1.25109 -8.70152 0
M  V30 1362 O 187.307 -1.29758 -9.22115 0
M  V30 1363 O 185.526 -2.13714 -7.55141 0
M  V30 1364 O 185.563 0.248149 -8.21425 0
M  V30 1365 C 185.402 1.22792 -9.30533 0
M  V30 1366 C 185.943 2.56293 -8.80664 0
M  V30 1367 O 184.888 3.02944 -8.09255 0
M  V30 1368 C 187.161 2.57523 -7.89775 0
M  V30 1369 O 187.899 3.7668 -7.89438 0
M  V30 1370 C 186.493 2.20997 -6.55446 0
M  V30 1371 O 187.291 2.71302 -5.48691 0
M  V30 1372 C 185.155 2.89693 -6.67988 0
M  V30 1373 N 184.112 2.08895 -6.07487 0
M  V30 1374 C 184.281 0.753809 -5.94137 0
M  V30 1375 N 183.254 0.146592 -5.38801 0
M  V30 1376 C 182.369 1.1768 -5.13693 0
M  V30 1377 C 181.102 1.17563 -4.52477 0
M  V30 1378 N 180.503 0.057481 -4.04759 0
M  V30 1379 N 180.537 2.41918 -4.45789 0
M  V30 1380 C 181.139 3.56493 -4.90792 0
M  V30 1381 N 182.316 3.61423 -5.47817 0
M  V30 1382 C 182.891 2.37779 -5.5588 0
M  V30 1383 H 185.187 3.8874 -6.19774 0
M  V30 1384 H 186.37 1.12673 -6.44018 0
M  V30 1385 H 187.853 1.7746 -8.19711 0
M  V30 1386 H 186.159 3.21673 -9.66791 0
M  V30 1387 H 185.969 0.901032 -10.1892 0
M  V30 1388 H 184.339 1.33049 -9.56592 0
M  V30 1389 H 180.603 4.49919 -4.77947 0
M  V30 1390 H 185.181 0.233081 -6.26266 0
M  V30 1391 H 179.573 0.119831 -3.60801 0
M  V30 1392 H 180.977 -0.852272 -4.12385 0
M  V30 1393 H 186.979 3.5779 -5.23879 0
M  V30 1394 P 188.836 3.65191 -7.99657 0
M  V30 1395 O 190.258 3.89332 -8.45794 0
M  V30 1396 O 188.476 2.28472 -7.50807 0
M  V30 1397 O 188.513 4.64972 -6.77611 0
M  V30 1398 C 188.353 6.06319 -7.16352 0
M  V30 1399 C 188.893 6.91731 -6.02299 0
M  V30 1400 O 187.837 6.92449 -5.17064 0
M  V30 1401 C 190.111 6.43627 -5.25174 0
M  V30 1402 O 190.849 7.43686 -4.60469 0
M  V30 1403 C 189.442 5.40275 -4.31916 0
M  V30 1404 O 190.241 5.25279 -3.14438 0
M  V30 1405 C 188.105 6.04847 -4.05327 0
M  V30 1406 H 188.137 6.62195 -3.11261 0
M  V30 1407 H 189.32 4.42556 -4.81383 0
M  V30 1408 H 190.804 5.92458 -5.93643 0
M  V30 1409 H 189.11 7.92655 -6.402 0
M  V30 1410 H 188.92 6.26671 -8.0846 0
M  V30 1411 H 187.29 6.29101 -7.32804 0
M  V30 1412 H 189.929 5.84315 -2.47318 0
M  V30 1413 P 191.787 7.39546 -4.75277 0
M  V30 1414 O 193.209 7.84798 -5.01039 0
M  V30 1415 O 191.427 5.9812 -5.08098 0
M  V30 1416 O 191.464 7.57503 -3.1866 0
M  V30 1417 C 191.304 8.97357 -2.74833 0
M  V30 1418 C 191.844 9.07548 -1.32709 0
M  V30 1419 O 190.788 8.62072 -0.606159 0
M  V30 1420 C 193.062 8.25383 -0.938334 0
M  V30 1421 O 193.8 8.74577 0.146954 0
M  V30 1422 C 192.393 6.8802 -0.712559 0
M  V30 1423 O 193.192 6.1189 0.194655 0
M  V30 1424 C 191.056 7.27966 -0.139777 0
M  V30 1425 H 191.088 7.25354 0.961601 0
M  V30 1426 H 192.271 6.32557 -1.65702 0
M  V30 1427 H 193.755 8.19355 -1.79097 0
M  V30 1428 H 192.061 10.1294 -1.10029 0
M  V30 1429 H 191.871 9.64276 -3.41316 0
M  V30 1430 H 190.241 9.25417 -2.76357 0
M  V30 1431 H 192.88 6.25267 1.07847 0
M  V30 1432 P 194.738 8.791 1.12009e-13 0
M  V30 1433 O 196.16 9.31096 0.027933 0
M  V30 1434 O 194.378 7.77869 -1.04071 0
M  V30 1435 O 194.415 8.09533 1.41463 0
M  V30 1436 C 194.255 9.0349 2.53943 0
M  V30 1437 C 194.795 8.35226 3.79016 0
M  V30 1438 O 193.739 7.57992 4.15078 0
M  V30 1439 C 196.013 7.45087 3.67298 0
M  V30 1440 O 196.751 7.27796 4.85194 0
M  V30 1441 C 195.344 6.17323 3.12027 0
M  V30 1442 O 196.143 5.04231 3.47188 0
M  V30 1443 C 194.007 6.19961 3.81809 0
M  V30 1444 H 194.039 5.58218 4.73051 0
M  V30 1445 H 195.222 6.21726 2.02589 0
M  V30 1446 H 196.706 7.86112 2.9231 0
M  V30 1447 H 195.012 9.11627 4.55076 0
M  V30 1448 H 194.822 9.9573 2.34194 0
M  V30 1449 H 193.192 9.2792 2.67832 0
M  V30 1450 H 195.831 4.67702 4.28772 0
M  V30 1451 P 197.688 7.39546 4.75277 0
M  V30 1452 O 199.11 7.81777 5.05738 0
M  V30 1453 O 197.328 7.1065 3.32998 0
M  V30 1454 O 197.365 6.04542 5.56673 0
M  V30 1455 C 197.205 6.22772 7.02095 0
M  V30 1456 C 197.745 4.97725 7.70406 0
M  V30 1457 O 196.689 4.13256 7.58987 0
M  V30 1458 C 198.963 4.28231 7.11815 0
M  V30 1459 O 199.701 3.49945 8.01648 0
M  V30 1460 C 198.294 3.5063 5.96244 0
M  V30 1461 O 199.093 2.36482 5.64681 0
M  V30 1462 C 196.957 3.15122 6.56374 0
M  V30 1463 H 196.989 2.13853 6.99751 0
M  V30 1464 H 198.172 4.13501 5.06559 0
M  V30 1465 H 199.656 5.03285 6.70911 0
M  V30 1466 H 197.962 5.20877 8.75697 0
M  V30 1467 H 197.772 7.11046 7.35349 0
M  V30 1468 H 196.142 6.35815 7.26986 0
M  V30 1469 H 198.781 1.61644 6.13565 0
M  V30 1470 P 200.639 3.65191 7.99657 0
M  V30 1471 O 202.061 3.8425 8.48115 0
M  V30 1472 O 200.279 4.17805 6.64342 0
M  V30 1473 O 200.316 2.07613 7.95143 0
M  V30 1474 C 200.156 1.44328 9.27336 0
M  V30 1475 C 200.696 0.0220036 9.17197 0
M  V30 1476 O 199.64 -0.626867 8.61923 0
M  V30 1477 C 201.914 -0.24586 8.30336 0
M  V30 1478 O 202.652 -1.39011 8.63583 0
M  V30 1479 C 201.245 -0.273849 6.91158 0
M  V30 1480 O 202.044 -1.06348 6.02892 0
M  V30 1481 C 199.908 -0.897649 7.22545 0
M  V30 1482 H 199.94 -1.9841 7.04286 0
M  V30 1483 H 201.123 0.739928 6.497 0
M  V30 1484 H 202.607 0.60668 8.36503 0
M  V30 1485 H 200.913 -0.352479 10.1829 0
M  V30 1486 H 200.723 2.00611 10.0304 0
M  V30 1487 H 199.093 1.41843 9.55327 0
M  V30 1488 H 201.732 -1.95734 6.03555 0
M  V30 1489 P 203.589 -1.25109 8.70152 0
M  V30 1490 O 205.011 -1.35274 9.21221 0
M  V30 1491 O 203.229 -0.0769065 7.84762 0
M  V30 1492 O 203.266 -2.55232 7.81161 0
M  V30 1493 C 203.106 -3.79939 8.58154 0
M  V30 1494 C 203.646 -4.94023 7.72785 0
M  V30 1495 O 202.59 -5.18726 6.91205 0
M  V30 1496 C 204.864 -4.69597 6.85231 0
M  V30 1497 O 205.602 -5.83832 6.51337 0
M  V30 1498 C 204.195 -3.96706 5.66633 0
M  V30 1499 O 204.994 -4.15414 4.49689 0
M  V30 1500 C 202.858 -4.66153 5.59313 0
M  V30 1501 H 202.89 -5.47679 4.85214 0
M  V30 1502 H 204.073 -2.89008 5.86566 0
M  V30 1503 H 205.557 -4.0121 7.36511 0
M  V30 1504 H 203.863 -5.80182 8.37584 0
M  V30 1505 H 203.673 -3.73517 9.52265 0
M  V30 1506 H 202.043 -3.97163 8.80359 0
M  V30 1507 H 204.682 -4.90969 4.01921 0
M  V30 1508 P 206.54 -5.75688 6.64379 0
M  V30 1509 O 207.962 -6.11981 7.01997 0
M  V30 1510 O 206.18 -4.30744 6.56026 0
M  V30 1511 O 206.217 -6.37042 5.19165 0
M  V30 1512 C 206.057 -7.83578 5.16515 0
M  V30 1513 C 206.597 -8.33307 3.82977 0
M  V30 1514 O 205.542 -8.10074 3.01034 0
M  V30 1515 C 207.815 -7.65514 3.2257 0
M  V30 1516 O 208.553 -8.4329 2.32297 0
M  V30 1517 C 207.147 -6.40075 2.62207 0
M  V30 1518 O 207.945 -5.92492 1.53687 0
M  V30 1519 C 205.809 -6.9454 2.18503 0
M  V30 1520 N 204.766 -5.95905 2.39948 0
M  V30 1521 C 204.828 -5.13994 3.44742 0
M  V30 1522 N 203.783 -4.30684 3.46712 0
M  V30 1523 C 203.049 -4.65583 2.41086 0
M  V30 1524 C 201.743 -4.20877 1.99581 0
M  V30 1525 O 201.01 -3.35913 2.52616 0
M  V30 1526 N 201.313 -4.83271 0.873406 0
M  V30 1527 C 202.062 -5.82006 0.185129 0
M  V30 1528 N 201.465 -6.30619 -0.95439 0
M  V30 1529 N 203.215 -6.28443 0.578524 0
M  V30 1530 C 203.672 -5.68486 1.70138 0
M  V30 1531 H 205.841 -7.23063 1.12091 0
M  V30 1532 H 207.024 -5.60165 3.3715 0
M  V30 1533 H 208.509 -7.3611 4.01946 0
M  V30 1534 H 206.814 -9.40912 3.9095 0
M  V30 1535 H 206.624 -8.29056 5.99158 0
M  V30 1536 H 204.993 -8.10073 5.25882 0
M  V30 1537 H 200.417 -4.58323 0.505262 0
M  V30 1538 H 205.624 -5.14564 4.1935 0
M  V30 1539 H 200.554 -5.93402 -1.25364 0
M  V30 1540 H 201.93 -7.0425 -1.50254 0
M  V30 1541 H 207.634 -6.30224 0.72668 0
M  V30 1542 P 209.49 -8.4349 2.47671 0
M  V30 1543 O 210.911 -8.94263 2.59668 0
M  V30 1544 O 209.13 -7.1704 3.19006 0
M  V30 1545 O 209.167 -8.16596 0.923387 0
M  V30 1546 C 209.006 -9.38537 0.108869 0
M  V30 1547 C 209.547 -9.08175 -1.28353 0
M  V30 1548 O 208.492 -8.44131 -1.84692 0
M  V30 1549 C 210.765 -8.18386 -1.42505 0
M  V30 1550 O 211.503 -8.3501 -2.60497 0
M  V30 1551 C 210.097 -6.80225 -1.25468 0
M  V30 1552 O 210.895 -5.81716 -1.90454 0
M  V30 1553 C 208.759 -7.02416 -1.9168 0
M  V30 1554 N 207.716 -6.31033 -1.20314 0
M  V30 1555 C 207.885 -5.98817 0.0994088 0
M  V30 1556 N 206.858 -5.35403 0.621694 0
M  V30 1557 C 205.973 -5.25212 -0.43376 0
M  V30 1558 C 204.706 -4.64602 -0.519722 0
M  V30 1559 N 204.141 -4.7568 -1.76013 0
M  V30 1560 C 204.743 -5.3653 -2.83017 0
M  V30 1561 N 205.92 -5.93676 -2.79782 0
M  V30 1562 C 206.495 -5.84061 -1.56249 0
M  V30 1563 H 209.974 -6.53498 -0.198729 0
M  V30 1564 H 211.457 -8.36622 -0.589963 0
M  V30 1565 H 209.763 -10.0273 -1.8081 0
M  V30 1566 H 209.573 -10.2138 0.558219 0
M  V30 1567 H 207.943 -9.6579 0.0444202 0
M  V30 1568 H 208.785 -6.23209 0.660562 0
M  V30 1569 H 210.583 -5.69466 -2.79593 0
M  V30 1570 P 212.441 -8.4349 -2.47671 0
M  V30 1571 O 213.863 -8.92593 -2.65 0
M  V30 1572 O 212.081 -7.7568 -1.19296 0
M  V30 1573 O 212.118 -7.36886 -3.63805 0
M  V30 1574 C 211.958 -7.95349 -4.982 0
M  V30 1575 C 212.498 -6.94612 -5.98974 0
M  V30 1576 O 211.442 -6.10347 -6.11815 0
M  V30 1577 C 213.716 -6.11426 -5.62335 0
M  V30 1578 O 214.454 -5.6162 -6.70584 0
M  V30 1579 C 213.047 -5.04409 -4.73308 0
M  V30 1580 O 213.846 -3.85992 -4.75183 0
M  V30 1581 C 211.71 -4.8728 -5.41006 0
M  V30 1582 H 211.742 -4.02333 -6.11157 0
M  V30 1583 H 212.925 -5.39466 -3.69543 0
M  V30 1584 H 214.409 -6.71916 -5.01943 0
M  V30 1585 H 212.715 -7.4649 -6.93477 0
M  V30 1586 H 212.525 -8.89416 -5.05237 0
M  V30 1587 H 210.895 -8.14876 -5.18409 0
M  V30 1588 H 213.534 -3.27957 -5.4317 0
M  V30 1589 P 215.392 -5.75688 -6.64379 0
M  V30 1590 O 216.814 -6.07627 -7.05504 0
M  V30 1591 O 215.032 -5.88047 -5.19722 0
M  V30 1592 O 215.069 -4.2322 -7.04443 0
M  V30 1593 C 214.909 -3.99743 -8.4911 0
M  V30 1594 C 215.449 -2.60516 -8.79425 0
M  V30 1595 O 214.393 -1.82684 -8.4467 0
M  V30 1596 C 216.667 -2.10343 -8.03628 0
M  V30 1597 O 217.405 -1.09919 -8.67766 0
M  V30 1598 C 215.998 -1.68446 -6.70876 0
M  V30 1599 O 216.797 -0.678137 -6.08433 0
M  V30 1600 C 214.661 -1.17436 -7.18567 0
M  V30 1601 H 214.693 -0.0804732 -7.31656 0
M  V30 1602 H 215.876 -2.54037 -6.02537 0
M  V30 1603 H 217.36 -2.93881 -7.85526 0
M  V30 1604 H 215.666 -2.53065 -9.86973 0
M  V30 1605 H 215.476 -4.75072 -9.05887 0
M  V30 1606 H 213.846 -4.05244 -8.76668 0
M  V30 1607 H 216.485 0.177647 -6.34251 0
M  V30 1608 P 218.342 -1.25109 -8.70152 0
M  V30 1609 O 219.764 -1.29744 -9.22016 0
M  V30 1610 O 217.982 -2.13714 -7.55141 0
M  V30 1611 O 218.019 0.248149 -8.21425 0
M  V30 1612 C 217.859 1.22779 -9.30434 0
M  V30 1613 C 218.399 2.56293 -8.80664 0
M  V30 1614 O 217.343 3.02979 -8.09349 0
M  V30 1615 C 219.617 2.57523 -7.89775 0
M  V30 1616 O 220.355 3.7668 -7.89438 0
M  V30 1617 C 218.948 2.20997 -6.55446 0
M  V30 1618 O 219.747 2.71895 -5.48509 0
M  V30 1619 C 217.611 2.89693 -6.67988 0
M  V30 1620 H 217.643 3.88793 -6.19859 0
M  V30 1621 H 218.826 1.12046 -6.44229 0
M  V30 1622 H 220.31 1.7746 -8.19711 0
M  V30 1623 H 218.616 3.20706 -9.67112 0
M  V30 1624 H 218.426 0.901032 -10.1892 0
M  V30 1625 H 216.796 1.33049 -9.56592 0
M  V30 1626 H 219.435 3.57847 -5.23962 0
M  V30 1627 P 221.293 3.65191 -7.99657 0
M  V30 1628 O 222.715 3.89416 -8.45976 0
M  V30 1629 O 220.933 2.28472 -7.50807 0
M  V30 1630 O 220.97 4.64972 -6.77611 0
M  V30 1631 C 220.81 6.06319 -7.16352 0
M  V30 1632 C 221.35 6.91655 -6.02234 0
M  V30 1633 O 220.295 6.92449 -5.17064 0
M  V30 1634 C 222.568 6.43627 -5.25174 0
M  V30 1635 O 223.306 7.43686 -4.60469 0
M  V30 1636 C 221.9 5.40275 -4.31916 0
M  V30 1637 O 222.698 5.25193 -3.14386 0
M  V30 1638 C 220.562 6.04847 -4.05327 0
M  V30 1639 N 219.519 5.04166 -3.98114 0
M  V30 1640 C 219.581 3.96049 -4.75587 0
M  V30 1641 N 218.536 3.15559 -4.54006 0
M  V30 1642 C 217.802 3.78802 -3.62491 0
M  V30 1643 C 216.496 3.476 -3.10071 0
M  V30 1644 O 215.763 2.51136 -3.37021 0
M  V30 1645 N 216.066 4.39088 -2.19956 0
M  V30 1646 C 216.815 5.53215 -1.81733 0
M  V30 1647 N 216.218 6.31963 -0.860928 0
M  V30 1648 N 217.968 5.86688 -2.32562 0
M  V30 1649 C 218.425 4.97525 -3.23407 0
M  V30 1650 H 220.594 6.62195 -3.11261 0
M  V30 1651 H 221.777 4.42488 -4.8131 0
M  V30 1652 H 223.262 5.93051 -5.9305 0
M  V30 1653 H 221.567 7.92655 -6.402 0
M  V30 1654 H 221.377 6.26671 -8.0846 0
M  V30 1655 H 219.746 6.29101 -7.32804 0
M  V30 1656 H 215.17 4.25523 -1.77604 0
M  V30 1657 H 220.377 3.75576 -5.47333 0
M  V30 1658 H 215.307 6.04684 -0.468946 0
M  V30 1659 H 216.683 7.18054 -0.542422 0
M  V30 1660 H 222.387 5.84223 -2.47279 0
M  V30 1661 P 224.243 7.39546 -4.75277 0
M  V30 1662 O 225.665 7.84798 -5.01039 0
M  V30 1663 O 223.883 5.9812 -5.08098 0
M  V30 1664 O 223.92 7.57503 -3.1866 0
M  V30 1665 C 223.76 8.97357 -2.74833 0
M  V30 1666 C 224.3 9.07548 -1.32709 0
M  V30 1667 O 223.244 8.62072 -0.606159 0
M  V30 1668 C 225.518 8.25383 -0.938334 0
M  V30 1669 O 226.256 8.74577 0.146954 0
M  V30 1670 C 224.849 6.8802 -0.712559 0
M  V30 1671 O 225.648 6.1189 0.194655 0
M  V30 1672 C 223.512 7.27966 -0.139777 0
M  V30 1673 H 223.544 7.25354 0.961601 0
M  V30 1674 H 224.727 6.32557 -1.65702 0
M  V30 1675 H 226.211 8.19355 -1.79097 0
M  V30 1676 H 224.517 10.1294 -1.10029 0
M  V30 1677 H 224.327 9.64276 -3.41316 0
M  V30 1678 H 222.697 9.25417 -2.76357 0
M  V30 1679 H 225.336 6.25267 1.07847 0
M  V30 1680 P 227.194 8.791 4.22174e-13 0
M  V30 1681 O 228.616 9.31096 0.027933 0
M  V30 1682 O 226.834 7.77869 -1.04071 0
M  V30 1683 O 226.871 8.09533 1.41463 0
M  V30 1684 C 226.711 9.0349 2.53943 0
M  V30 1685 C 227.251 8.35226 3.79016 0
M  V30 1686 O 226.195 7.57992 4.15078 0
M  V30 1687 C 228.469 7.45087 3.67298 0
M  V30 1688 O 229.207 7.27796 4.85194 0
M  V30 1689 C 227.8 6.17323 3.12027 0
M  V30 1690 O 228.599 5.04231 3.47188 0
M  V30 1691 C 226.463 6.19961 3.81809 0
M  V30 1692 H 226.495 5.58218 4.73051 0
M  V30 1693 H 227.678 6.21726 2.02589 0
M  V30 1694 H 229.162 7.86112 2.9231 0
M  V30 1695 H 227.468 9.11627 4.55076 0
M  V30 1696 H 227.278 9.9573 2.34194 0
M  V30 1697 H 225.648 9.2792 2.67832 0
M  V30 1698 H 228.287 4.67702 4.28772 0
M  V30 1699 P 230.144 7.39546 4.75277 0
M  V30 1700 O 231.566 7.81777 5.05738 0
M  V30 1701 O 229.784 7.1065 3.32998 0
M  V30 1702 O 229.821 6.04542 5.56673 0
M  V30 1703 C 229.661 6.22772 7.02095 0
M  V30 1704 C 230.201 4.97725 7.70406 0
M  V30 1705 O 229.145 4.13256 7.58987 0
M  V30 1706 C 231.419 4.28231 7.11815 0
M  V30 1707 O 232.157 3.49945 8.01648 0
M  V30 1708 C 230.75 3.5063 5.96244 0
M  V30 1709 O 231.549 2.36482 5.64681 0
M  V30 1710 C 229.413 3.15122 6.56374 0
M  V30 1711 H 229.445 2.13853 6.99751 0
M  V30 1712 H 230.628 4.13501 5.06559 0
M  V30 1713 H 232.112 5.03285 6.70911 0
M  V30 1714 H 230.418 5.20877 8.75697 0
M  V30 1715 H 230.228 7.11046 7.35349 0
M  V30 1716 H 228.598 6.35815 7.26986 0
M  V30 1717 H 231.237 1.61644 6.13565 0
M  V30 1718 P 233.095 3.65191 7.99657 0
M  V30 1719 O 234.517 3.8425 8.48115 0
M  V30 1720 O 232.735 4.17805 6.64342 0
M  V30 1721 O 232.772 2.07613 7.95143 0
M  V30 1722 C 232.612 1.44328 9.27336 0
M  V30 1723 C 233.152 0.0220036 9.17197 0
M  V30 1724 O 232.096 -0.626867 8.61923 0
M  V30 1725 C 234.37 -0.24586 8.30336 0
M  V30 1726 O 235.108 -1.39011 8.63583 0
M  V30 1727 C 233.701 -0.273849 6.91158 0
M  V30 1728 O 234.5 -1.06348 6.02892 0
M  V30 1729 C 232.364 -0.897649 7.22545 0
M  V30 1730 H 232.396 -1.9841 7.04286 0
M  V30 1731 H 233.579 0.739928 6.497 0
M  V30 1732 H 235.063 0.60668 8.36503 0
M  V30 1733 H 233.369 -0.352479 10.1829 0
M  V30 1734 H 233.179 2.00611 10.0304 0
M  V30 1735 H 231.549 1.41843 9.55327 0
M  V30 1736 H 234.188 -1.95734 6.03555 0
M  V30 1737 P 236.046 -1.25109 8.70152 0
M  V30 1738 O 237.468 -1.35274 9.21221 0
M  V30 1739 O 235.686 -0.0769065 7.84762 0
M  V30 1740 O 235.723 -2.55232 7.81161 0
M  V30 1741 C 235.563 -3.79939 8.58154 0
M  V30 1742 C 236.103 -4.94023 7.72785 0
M  V30 1743 O 235.047 -5.18726 6.91205 0
M  V30 1744 C 237.321 -4.69597 6.85231 0
M  V30 1745 O 238.059 -5.83832 6.51337 0
M  V30 1746 C 236.652 -3.96706 5.66633 0
M  V30 1747 O 237.451 -4.15414 4.49689 0
M  V30 1748 C 235.315 -4.66153 5.59313 0
M  V30 1749 H 235.347 -5.47679 4.85214 0
M  V30 1750 H 236.53 -2.89008 5.86566 0
M  V30 1751 H 238.014 -4.0121 7.36511 0
M  V30 1752 H 236.32 -5.80182 8.37584 0
M  V30 1753 H 236.13 -3.73517 9.52265 0
M  V30 1754 H 234.5 -3.97163 8.80359 0
M  V30 1755 H 237.139 -4.90969 4.01921 0
M  V30 1756 P 238.996 -5.75688 6.64379 0
M  V30 1757 O 240.418 -6.11849 7.01846 0
M  V30 1758 O 238.636 -4.30744 6.56026 0
M  V30 1759 O 238.673 -6.37042 5.19165 0
M  V30 1760 C 238.513 -7.83578 5.16515 0
M  V30 1761 C 239.053 -8.33398 3.83019 0
M  V30 1762 O 237.997 -8.10074 3.01034 0
M  V30 1763 C 240.271 -7.65514 3.2257 0
M  V30 1764 O 241.009 -8.4329 2.32297 0
M  V30 1765 C 239.602 -6.40075 2.62207 0
M  V30 1766 O 240.401 -5.92589 1.53712 0
M  V30 1767 C 238.265 -6.9454 2.18503 0
M  V30 1768 H 238.297 -7.23063 1.12091 0
M  V30 1769 H 239.48 -5.6025 3.37201 0
M  V30 1770 H 240.964 -7.35707 4.02681 0
M  V30 1771 H 239.27 -9.40912 3.9095 0
M  V30 1772 H 239.08 -8.29056 5.99158 0
M  V30 1773 H 237.45 -8.10073 5.25882 0
M  V30 1774 H 240.089 -6.30324 0.726794 0
M  V30 1775 P 241.947 -8.4349 2.47671 0
M  V30 1776 O 243.369 -8.94167 2.5964 0
M  V30 1777 O 241.587 -7.1704 3.19006 0
M  V30 1778 O 241.624 -8.16596 0.923387 0
M  V30 1779 C 241.464 -9.38437 0.108857 0
M  V30 1780 C 242.004 -9.08175 -1.28353 0
M  V30 1781 O 240.948 -8.44229 -1.84713 0
M  V30 1782 C 243.222 -8.18386 -1.42505 0
M  V30 1783 O 243.96 -8.3501 -2.60497 0
M  V30 1784 C 242.553 -6.80225 -1.25468 0
M  V30 1785 O 243.352 -5.81621 -1.91066 0
M  V30 1786 C 241.216 -7.02416 -1.9168 0
M  V30 1787 H 241.248 -6.6888 -2.96621 0
M  V30 1788 H 242.431 -6.53617 -0.192223 0
M  V30 1789 H 243.915 -8.36622 -0.589963 0
M  V30 1790 H 242.221 -10.0291 -1.79807 0
M  V30 1791 H 242.031 -10.2138 0.558219 0
M  V30 1792 H 240.401 -9.6579 0.0444202 0
M  V30 1793 H 243.04 -5.69556 -2.79637 0
M  V30 1794 P 244.897 -8.4349 -2.47671 0
M  V30 1795 O 246.318 -8.92689 -2.65029 0
M  V30 1796 O 244.537 -7.7568 -1.19296 0
M  V30 1797 O 244.574 -7.36886 -3.63805 0
M  V30 1798 C 244.413 -7.95433 -4.98253 0
M  V30 1799 C 244.954 -6.94612 -5.98974 0
M  V30 1800 O 243.899 -6.10277 -6.11744 0
M  V30 1801 C 246.172 -6.11426 -5.62335 0
M  V30 1802 O 246.91 -5.6162 -6.70584 0
M  V30 1803 C 245.504 -5.04409 -4.73308 0
M  V30 1804 O 246.302 -3.86404 -4.74719 0
M  V30 1805 C 244.166 -4.8728 -5.41006 0
M  V30 1806 N 243.123 -4.65812 -4.42377 0
M  V30 1807 C 243.292 -5.09132 -3.15382 0
M  V30 1808 N 242.265 -4.84021 -2.3716 0
M  V30 1809 C 241.38 -4.18386 -3.20441 0
M  V30 1810 C 240.113 -3.6275 -2.94905 0
M  V30 1811 N 239.548 -3.05008 -4.05243 0
M  V30 1812 C 240.15 -2.98348 -5.28159 0
M  V30 1813 N 241.327 -3.48171 -5.56333 0
M  V30 1814 C 241.902 -4.06869 -4.47212 0
M  V30 1815 H 245.381 -5.39013 -3.70026 0
M  V30 1816 H 246.864 -6.71916 -5.01943 0
M  V30 1817 H 245.17 -7.45796 -6.94223 0
M  V30 1818 H 244.98 -8.89416 -5.05237 0
M  V30 1819 H 243.35 -8.14876 -5.18409 0
M  V30 1820 H 244.192 -5.59989 -2.81362 0
M  V30 1821 H 245.99 -3.27906 -5.43085 0
M  V30 1822 P 247.848 -5.75688 -6.64379 0
M  V30 1823 O 249.27 -6.07627 -7.05504 0
M  V30 1824 O 247.488 -5.88047 -5.19722 0
M  V30 1825 O 247.525 -4.2322 -7.04443 0
M  V30 1826 C 247.365 -3.99743 -8.4911 0
M  V30 1827 C 247.905 -2.60516 -8.79425 0
M  V30 1828 O 246.849 -1.82684 -8.4467 0
M  V30 1829 C 249.123 -2.10343 -8.03628 0
M  V30 1830 O 249.861 -1.09919 -8.67766 0
M  V30 1831 C 248.454 -1.68446 -6.70876 0
M  V30 1832 O 249.253 -0.678137 -6.08433 0
M  V30 1833 C 247.117 -1.17436 -7.18567 0
M  V30 1834 H 247.149 -0.0804732 -7.31656 0
M  V30 1835 H 248.332 -2.54037 -6.02537 0
M  V30 1836 H 249.816 -2.93881 -7.85526 0
M  V30 1837 H 248.122 -2.53065 -9.86973 0
M  V30 1838 H 247.932 -4.75072 -9.05887 0
M  V30 1839 H 246.302 -4.05244 -8.76668 0
M  V30 1840 H 248.941 0.177647 -6.34251 0
M  V30 1841 P 250.798 -1.25109 -8.70152 0
M  V30 1842 O 252.22 -1.29744 -9.22016 0
M  V30 1843 O 250.438 -2.13714 -7.55141 0
M  V30 1844 O 250.475 0.248149 -8.21425 0
M  V30 1845 C 250.315 1.22779 -9.30434 0
M  V30 1846 C 250.855 2.56293 -8.80664 0
M  V30 1847 O 249.799 3.02979 -8.09349 0
M  V30 1848 C 252.073 2.57523 -7.89775 0
M  V30 1849 O 252.811 3.7668 -7.89438 0
M  V30 1850 C 251.404 2.20997 -6.55446 0
M  V30 1851 O 252.203 2.71895 -5.48509 0
M  V30 1852 C 250.067 2.89693 -6.67988 0
M  V30 1853 H 250.099 3.88793 -6.19859 0
M  V30 1854 H 251.282 1.12046 -6.44229 0
M  V30 1855 H 252.766 1.7746 -8.19711 0
M  V30 1856 H 251.072 3.20706 -9.67112 0
M  V30 1857 H 250.882 0.901032 -10.1892 0
M  V30 1858 H 249.252 1.33049 -9.56592 0
M  V30 1859 H 251.891 3.57847 -5.23962 0
M  V30 1860 P 253.749 3.65191 -7.99657 0
M  V30 1861 O 255.171 3.89332 -8.45794 0
M  V30 1862 O 253.389 2.28472 -7.50807 0
M  V30 1863 O 253.426 4.64972 -6.77611 0
M  V30 1864 C 253.266 6.06319 -7.16352 0
M  V30 1865 C 253.806 6.91731 -6.02299 0
M  V30 1866 O 252.75 6.92449 -5.17064 0
M  V30 1867 C 255.024 6.43627 -5.25174 0
M  V30 1868 O 255.762 7.43686 -4.60469 0
M  V30 1869 C 254.355 5.40275 -4.31916 0
M  V30 1870 O 255.154 5.25279 -3.14438 0
M  V30 1871 C 253.018 6.04847 -4.05327 0
M  V30 1872 H 253.05 6.62195 -3.11261 0
M  V30 1873 H 254.233 4.42556 -4.81383 0
M  V30 1874 H 255.717 5.92458 -5.93643 0
M  V30 1875 H 254.023 7.92655 -6.402 0
M  V30 1876 H 253.833 6.26671 -8.0846 0
M  V30 1877 H 252.203 6.29101 -7.32804 0
M  V30 1878 H 254.842 5.84315 -2.47318 0
M  V30 1879 P 256.7 7.39546 -4.75277 0
M  V30 1880 O 258.122 7.84798 -5.01039 0
M  V30 1881 O 256.34 5.9812 -5.08098 0
M  V30 1882 O 256.377 7.57503 -3.1866 0
M  V30 1883 C 256.217 8.97357 -2.74833 0
M  V30 1884 C 256.757 9.07548 -1.32709 0
M  V30 1885 O 255.701 8.62072 -0.606159 0
M  V30 1886 C 257.975 8.25383 -0.938334 0
M  V30 1887 O 258.713 8.74577 0.146954 0
M  V30 1888 C 257.306 6.8802 -0.712559 0
M  V30 1889 O 258.105 6.1189 0.194655 0
M  V30 1890 C 255.969 7.27966 -0.139777 0
M  V30 1891 H 256.001 7.25354 0.961601 0
M  V30 1892 H 257.184 6.32557 -1.65702 0
M  V30 1893 H 258.668 8.19355 -1.79097 0
M  V30 1894 H 256.974 10.1294 -1.10029 0
M  V30 1895 H 256.784 9.64276 -3.41316 0
M  V30 1896 H 255.154 9.25417 -2.76357 0
M  V30 1897 H 257.793 6.25267 1.07847 0
M  V30 1898 P 259.65 8.791 7.3234e-13 0
M  V30 1899 O 261.072 9.31096 0.027933 0
M  V30 1900 O 259.29 7.77869 -1.04071 0
M  V30 1901 O 259.327 8.09533 1.41463 0
M  V30 1902 C 259.167 9.0349 2.53943 0
M  V30 1903 C 259.707 8.35226 3.79016 0
M  V30 1904 O 258.651 7.57992 4.15078 0
M  V30 1905 C 260.925 7.45087 3.67298 0
M  V30 1906 O 261.663 7.27796 4.85194 0
M  V30 1907 C 260.256 6.17323 3.12027 0
M  V30 1908 O 261.055 5.04231 3.47188 0
M  V30 1909 C 258.919 6.19961 3.81809 0
M  V30 1910 H 258.951 5.58218 4.73051 0
M  V30 1911 H 260.134 6.21726 2.02589 0
M  V30 1912 H 261.618 7.86112 2.9231 0
M  V30 1913 H 259.924 9.11627 4.55076 0
M  V30 1914 H 259.734 9.9573 2.34194 0
M  V30 1915 H 258.104 9.2792 2.67832 0
M  V30 1916 H 260.743 4.67702 4.28772 0
M  V30 1917 P 262.601 7.39546 4.75277 0
M  V30 1918 O 264.023 7.81777 5.05738 0
M  V30 1919 O 262.241 7.1065 3.32998 0
M  V30 1920 O 262.278 6.04542 5.56673 0
M  V30 1921 C 262.118 6.22772 7.02095 0
M  V30 1922 C 262.658 4.97725 7.70406 0
M  V30 1923 O 261.602 4.13256 7.58987 0
M  V30 1924 C 263.876 4.28231 7.11815 0
M  V30 1925 O 264.614 3.49945 8.01648 0
M  V30 1926 C 263.207 3.5063 5.96244 0
M  V30 1927 O 264.006 2.36482 5.64681 0
M  V30 1928 C 261.87 3.15122 6.56374 0
M  V30 1929 H 261.902 2.13853 6.99751 0
M  V30 1930 H 263.085 4.13501 5.06559 0
M  V30 1931 H 264.569 5.03285 6.70911 0
M  V30 1932 H 262.875 5.20877 8.75697 0
M  V30 1933 H 262.685 7.11046 7.35349 0
M  V30 1934 H 261.055 6.35815 7.26986 0
M  V30 1935 H 263.694 1.61644 6.13565 0
M  V30 1936 P 265.551 3.65191 7.99657 0
M  V30 1937 O 266.972 3.84292 8.48206 0
M  V30 1938 O 265.191 4.17805 6.64342 0
M  V30 1939 O 265.228 2.07613 7.95143 0
M  V30 1940 C 265.067 1.44344 9.27435 0
M  V30 1941 C 265.608 0.0220036 9.17197 0
M  V30 1942 O 264.553 -0.626794 8.61824 0
M  V30 1943 C 266.826 -0.24586 8.30336 0
M  V30 1944 O 267.564 -1.39011 8.63583 0
M  V30 1945 C 266.158 -0.273849 6.91158 0
M  V30 1946 O 266.956 -1.05728 6.029 0
M  V30 1947 C 264.82 -0.897649 7.22545 0
M  V30 1948 N 263.777 -0.292839 6.41732 0
M  V30 1949 C 263.946 0.950603 5.91308 0
M  V30 1950 N 262.919 1.37732 5.21105 0
M  V30 1951 C 262.034 0.318109 5.26039 0
M  V30 1952 C 260.767 0.146766 4.6727 0
M  V30 1953 N 260.202 -1.06525 4.95887 0
M  V30 1954 C 260.804 -2.0378 5.71347 0
M  V30 1955 N 261.981 -1.92445 6.27451 0
M  V30 1956 C 262.556 -0.715382 6.00353 0
M  V30 1957 H 266.035 0.733318 6.49674 0
M  V30 1958 H 267.518 0.60668 8.36503 0
M  V30 1959 H 265.824 -0.362662 10.1825 0
M  V30 1960 H 265.634 2.00611 10.0304 0
M  V30 1961 H 264.004 1.41843 9.55327 0
M  V30 1962 H 264.846 1.54076 6.07465 0
M  V30 1963 H 266.644 -1.95704 6.0346 0
M  V30 1964 P 268.502 -1.25109 8.70152 0
M  V30 1965 O 269.924 -1.35274 9.21221 0
M  V30 1966 O 268.142 -0.0769065 7.84762 0
M  V30 1967 O 268.179 -2.55232 7.81161 0
M  V30 1968 C 268.019 -3.79939 8.58154 0
M  V30 1969 C 268.559 -4.94023 7.72785 0
M  V30 1970 O 267.503 -5.18726 6.91205 0
M  V30 1971 C 269.777 -4.69597 6.85231 0
M  V30 1972 O 270.515 -5.83832 6.51337 0
M  V30 1973 C 269.108 -3.96706 5.66633 0
M  V30 1974 O 269.907 -4.15414 4.49689 0
M  V30 1975 C 267.771 -4.66153 5.59313 0
M  V30 1976 H 267.803 -5.47679 4.85214 0
M  V30 1977 H 268.986 -2.89008 5.86566 0
M  V30 1978 H 270.47 -4.0121 7.36511 0
M  V30 1979 H 268.776 -5.80182 8.37584 0
M  V30 1980 H 268.586 -3.73517 9.52265 0
M  V30 1981 H 266.956 -3.97163 8.80359 0
M  V30 1982 H 269.595 -4.90969 4.01921 0
M  V30 1983 P 271.452 -5.75688 6.64379 0
M  V30 1984 O 272.853 -6.11991 7.09136 0
M  V30 1985 O 271.074 -4.30899 6.62018 0
M  V30 1986 O 271.129 -6.36965 5.19102 0
M  V30 1987 C 270.969 -7.83578 5.16515 0
M  V30 1988 C 271.509 -8.33307 3.82977 0
M  V30 1989 O 270.453 -8.0998 3.00999 0
M  V30 1990 C 272.726 -7.65514 3.2257 0
M  V30 1991 O 273.465 -8.4329 2.32297 0
M  V30 1992 C 272.059 -6.40075 2.62207 0
M  V30 1993 O 272.857 -5.92492 1.53687 0
M  V30 1994 C 270.721 -6.9454 2.18503 0
M  V30 1995 N 269.678 -5.95905 2.39948 0
M  V30 1996 C 268.643 -5.89764 1.49837 0
M  V30 1997 O 268.682 -6.64088 0.490975 0
M  V30 1998 N 267.631 -5.02821 1.70992 0
M  V30 1999 C 267.679 -4.21498 2.77236 0
M  V30 2000 C 268.775 -4.23389 3.68205 0
M  V30 2001 C 269.741 -5.12792 3.46171 0
M  V30 2002 H 270.753 -7.22964 1.12076 0
M  V30 2003 H 271.936 -5.60502 3.36589 0
M  V30 2004 H 273.42 -7.36197 4.01993 0
M  V30 2005 H 271.726 -9.41302 3.90009 0
M  V30 2006 H 271.535 -8.29056 5.99158 0
M  V30 2007 H 269.905 -8.09989 5.25828 0
M  V30 2008 H 268.823 -3.54747 4.52399 0
M  V30 2009 H 270.587 -5.18551 4.1489 0
M  V30 2010 H 272.641 -6.40705 0.751752 0
M  V30 2011 P 274.403 -8.4349 2.47671 0
M  V30 2012 O 275.825 -8.94167 2.5964 0
M  V30 2013 O 274.043 -7.1704 3.19006 0
M  V30 2014 O 274.08 -8.16596 0.923387 0
M  V30 2015 C 273.92 -9.38437 0.108857 0
M  V30 2016 C 274.46 -9.08175 -1.28353 0
M  V30 2017 O 273.404 -8.44229 -1.84713 0
M  V30 2018 C 275.678 -8.18386 -1.42505 0
M  V30 2019 O 276.416 -8.3501 -2.60497 0
M  V30 2020 C 275.009 -6.80225 -1.25468 0
M  V30 2021 O 275.808 -5.81621 -1.91066 0
M  V30 2022 C 273.672 -7.02416 -1.9168 0
M  V30 2023 H 273.704 -6.6888 -2.96621 0
M  V30 2024 H 274.887 -6.53617 -0.192223 0
M  V30 2025 H 276.371 -8.36622 -0.589963 0
M  V30 2026 H 274.677 -10.0291 -1.79807 0
M  V30 2027 H 274.487 -10.2138 0.558219 0
M  V30 2028 H 272.857 -9.6579 0.0444202 0
M  V30 2029 H 275.496 -5.69556 -2.79637 0
M  V30 2030 P 277.354 -8.4349 -2.47671 0
M  V30 2031 O 278.776 -8.92593 -2.65 0
M  V30 2032 O 276.994 -7.7568 -1.19296 0
M  V30 2033 O 277.031 -7.36886 -3.63805 0
M  V30 2034 C 276.871 -7.95349 -4.982 0
M  V30 2035 C 277.411 -6.94612 -5.98974 0
M  V30 2036 O 276.355 -6.10347 -6.11815 0
M  V30 2037 C 278.629 -6.11426 -5.62335 0
M  V30 2038 O 279.367 -5.6162 -6.70584 0
M  V30 2039 C 277.96 -5.04409 -4.73308 0
M  V30 2040 O 278.759 -3.85992 -4.75183 0
M  V30 2041 C 276.623 -4.8728 -5.41006 0
M  V30 2042 H 276.655 -4.02333 -6.11157 0
M  V30 2043 H 277.838 -5.39466 -3.69543 0
M  V30 2044 H 279.322 -6.71916 -5.01943 0
M  V30 2045 H 277.628 -7.4649 -6.93477 0
M  V30 2046 H 277.438 -8.89416 -5.05237 0
M  V30 2047 H 275.808 -8.14876 -5.18409 0
M  V30 2048 H 278.447 -3.27957 -5.4317 0
M  V30 2049 P 280.304 -5.75688 -6.64379 0
M  V30 2050 O 281.726 -6.07627 -7.05504 0
M  V30 2051 O 279.944 -5.88047 -5.19722 0
M  V30 2052 O 279.981 -4.2322 -7.04443 0
M  V30 2053 C 279.821 -3.99743 -8.4911 0
M  V30 2054 C 280.361 -2.60516 -8.79425 0
M  V30 2055 O 279.305 -1.82684 -8.4467 0
M  V30 2056 C 281.579 -2.10343 -8.03628 0
M  V30 2057 O 282.317 -1.09919 -8.67766 0
M  V30 2058 C 280.91 -1.68446 -6.70876 0
M  V30 2059 O 281.709 -0.678137 -6.08433 0
M  V30 2060 C 279.573 -1.17436 -7.18567 0
M  V30 2061 H 279.605 -0.0804732 -7.31656 0
M  V30 2062 H 280.788 -2.54037 -6.02537 0
M  V30 2063 H 282.272 -2.93881 -7.85526 0
M  V30 2064 H 280.578 -2.53065 -9.86973 0
M  V30 2065 H 280.388 -4.75072 -9.05887 0
M  V30 2066 H 278.758 -4.05244 -8.76668 0
M  V30 2067 H 281.397 0.177647 -6.34251 0
M  V30 2068 P 283.255 -1.25109 -8.70152 0
M  V30 2069 O 284.676 -1.29758 -9.22115 0
M  V30 2070 O 282.895 -2.13714 -7.55141 0
M  V30 2071 O 282.932 0.248149 -8.21425 0
M  V30 2072 C 282.771 1.22792 -9.30533 0
M  V30 2073 C 283.312 2.56293 -8.80664 0
M  V30 2074 O 282.257 3.02944 -8.09255 0
M  V30 2075 C 284.53 2.57523 -7.89775 0
M  V30 2076 O 285.268 3.7668 -7.89438 0
M  V30 2077 C 283.862 2.20997 -6.55446 0
M  V30 2078 O 284.66 2.71302 -5.48691 0
M  V30 2079 C 282.524 2.89693 -6.67988 0
M  V30 2080 N 281.481 2.08895 -6.07487 0
M  V30 2081 C 281.65 0.753809 -5.94137 0
M  V30 2082 N 280.623 0.146592 -5.38801 0
M  V30 2083 C 279.738 1.1768 -5.13693 0
M  V30 2084 C 278.471 1.17563 -4.52477 0
M  V30 2085 N 277.906 2.41918 -4.45789 0
M  V30 2086 C 278.508 3.56493 -4.90792 0
M  V30 2087 N 279.685 3.61423 -5.47817 0
M  V30 2088 C 280.26 2.37779 -5.5588 0
M  V30 2089 H 283.739 1.12673 -6.44018 0
M  V30 2090 H 285.222 1.7746 -8.19711 0
M  V30 2091 H 283.528 3.21673 -9.66791 0
M  V30 2092 H 283.338 0.901032 -10.1892 0
M  V30 2093 H 281.708 1.33049 -9.56592 0
M  V30 2094 H 282.55 0.233081 -6.26266 0
M  V30 2095 H 284.348 3.5779 -5.23879 0
M  V30 2096 P 286.205 3.65191 -7.99657 0
M  V30 2097 O 287.627 3.89332 -8.45794 0
M  V30 2098 O 285.845 2.28472 -7.50807 0
M  V30 2099 O 285.882 4.64972 -6.77611 0
M  V30 2100 C 285.722 6.06319 -7.16352 0
M  V30 2101 C 286.262 6.91731 -6.02299 0
M  V30 2102 O 285.206 6.92449 -5.17064 0
M  V30 2103 C 287.48 6.43627 -5.25174 0
M  V30 2104 O 288.218 7.43686 -4.60469 0
M  V30 2105 C 286.811 5.40275 -4.31916 0
M  V30 2106 O 287.61 5.25279 -3.14438 0
M  V30 2107 C 285.474 6.04847 -4.05327 0
M  V30 2108 H 285.506 6.62195 -3.11261 0
M  V30 2109 H 286.689 4.42556 -4.81383 0
M  V30 2110 H 288.173 5.92458 -5.93643 0
M  V30 2111 H 286.479 7.92655 -6.402 0
M  V30 2112 H 286.289 6.26671 -8.0846 0
M  V30 2113 H 284.659 6.29101 -7.32804 0
M  V30 2114 H 287.298 5.84315 -2.47318 0
M  V30 2115 P 289.156 7.39546 -4.75277 0
M  V30 2116 O 290.578 7.84798 -5.01039 0
M  V30 2117 O 288.796 5.9812 -5.08098 0
M  V30 2118 O 288.833 7.57503 -3.1866 0
M  V30 2119 C 288.673 8.97357 -2.74833 0
M  V30 2120 C 289.213 9.07548 -1.32709 0
M  V30 2121 O 288.157 8.62072 -0.606159 0
M  V30 2122 C 290.431 8.25383 -0.938334 0
M  V30 2123 O 291.169 8.74577 0.146954 0
M  V30 2124 C 289.762 6.8802 -0.712559 0
M  V30 2125 O 290.561 6.1189 0.194655 0
M  V30 2126 C 288.425 7.27966 -0.139777 0
M  V30 2127 H 288.457 7.25354 0.961601 0
M  V30 2128 H 289.64 6.32557 -1.65702 0
M  V30 2129 H 291.124 8.19355 -1.79097 0
M  V30 2130 H 289.43 10.1294 -1.10029 0
M  V30 2131 H 289.24 9.64276 -3.41316 0
M  V30 2132 H 287.61 9.25417 -2.76357 0
M  V30 2133 H 290.249 6.25267 1.07847 0
M  V30 2134 H 292.802 8.24193 -0.0346053 0
M  V30 END ATOM
M  V30 BEGIN BOND
M  V30 END BOND
M  V30 END CTAB
M  END
$$$$
