drugbank_target|Q8T6S0 Odorant binding protein (DB14074)
 OpenBabel12092121193D

  0  0  0     0  0            999 V3000
M  V30 BEGIN CTAB
M  V30 COUNTS 2287 2317 0 0 0
M  V30 BEGIN ATOM
M  V30 1 H -0.908 1.98254 -0.117106 0
M  V30 2 N 0 1.576 0 0
M  V30 3 C 0.933 2.03868 1.02534 0
M  V30 4 C 1.911 0.928543 1.3348 0
M  V30 5 O 3.095 1.19667 1.45644 0
M  V30 6 C 0.222 2.43627 2.35294 0
M  V30 7 C -0.732 3.65373 2.2001 0
M  V30 8 S 0.101 5.13292 1.52614 0
M  V30 9 C 1.257 5.56322 2.86805 0
M  V30 10 H 1.49 2.90518 0.631377 0
M  V30 11 H -0.977 1.52953 0.210867 0
M  V30 12 H 0.981 2.67203 3.11629 0
M  V30 13 H -0.358 1.57376 2.7183 0
M  V30 14 H -1.165 3.90944 3.18086 0
M  V30 15 H -1.563 3.418 1.51819 0
M  V30 16 H 0.729 5.58782 3.83104 0
M  V30 17 H 1.672 6.56266 2.65933 0
M  V30 18 H 2.08 4.83886 2.90714 0
M  V30 19 N 1.4781 -0.272755 1.55222 0
M  V30 20 C 2.4251 -1.33716 1.88119 0
M  V30 21 C 3.3951 -1.49066 0.73271 0
M  V30 22 O 4.5801 -1.63469 0.984002 0
M  V30 23 C 1.7201 -2.69238 2.15882 0
M  V30 24 C 0.8331 -2.62108 3.43399 0
M  V30 25 C -0.0319 -3.89811 3.60861 0
M  V30 26 C -0.9929 -3.77193 4.8207 0
M  V30 27 N -1.8559 -4.9673 4.96189 0
M  V30 28 H 2.9841 -1.04962 2.78903 0
M  V30 29 H 0.5211 -0.507088 1.38083 0
M  V30 30 H 2.4791 -3.48089 2.29978 0
M  V30 31 H 1.1091 -2.96194 1.28331 0
M  V30 32 H 0.1611 -1.74967 3.37773 0
M  V30 33 H 1.4731 -2.48685 4.32386 0
M  V30 34 H 0.6271 -4.77103 3.74777 0
M  V30 35 H -0.6339 -4.06102 2.7006 0
M  V30 36 H -1.6289 -2.88284 4.68159 0
M  V30 37 H -0.4039 -3.62421 5.74307 0
M  V30 38 H -2.4579 -5.13431 4.08319 0
M  V30 39 H -2.5409 -4.85839 5.79221 0
M  V30 40 H -1.2729 -5.85594 5.1449 0
M  V30 41 N 2.9562 -1.48159 -0.537278 0
M  V30 42 C 3.8862 -1.65029 -1.6519 0
M  V30 43 C 4.8672 -0.499281 -1.62607 0
M  V30 44 O 6.0522 -0.730972 -1.79918 0
M  V30 45 C 3.1822 -1.68303 -3.03795 0
M  V30 46 C 2.1362 -2.8283 -3.21234 0
M  V30 47 C 1.4622 -2.71189 -4.60826 0
M  V30 48 C 2.7622 -4.24211 -3.04701 0
M  V30 49 H 4.4562 -2.58341 -1.51328 0
M  V30 50 H 2.0022 -1.24325 -0.726585 0
M  V30 51 H 3.9552 -1.78693 -3.81637 0
M  V30 52 H 2.6792 -0.715635 -3.18663 0
M  V30 53 H 1.3382 -2.71983 -2.45807 0
M  V30 54 H 0.9862 -1.72435 -4.7252 0
M  V30 55 H 0.6862 -3.48035 -4.7344 0
M  V30 56 H 2.2102 -2.83537 -5.40777 0
M  V30 57 H 3.6242 -4.3593 -3.72341 0
M  V30 58 H 2.0212 -5.01998 -3.28813 0
M  V30 59 H 3.0912 -4.41184 -2.01209 0
M  V30 60 N 4.4343 0.785586 -1.36625 0
M  V30 61 C 5.6803 1.54591 -1.31261 0
M  V30 62 C 6.0133 1.93906 0.106823 0
M  V30 63 O 5.2883 1.63007 1.06108 0
M  V30 64 C 5.5713 2.82038 -2.23889 0
M  V30 65 C 5.4243 2.49066 -3.74548 0
M  V30 66 C 6.7433 3.83887 -2.15217 0
M  V30 67 H 3.8623 0.560846 -0.478143 0
M  V30 68 H 6.5043 0.902278 -1.67209 0
M  V30 69 H 4.6543 3.36961 -1.93363 0
M  V30 70 H 6.3263 2.00164 -4.15611 0
M  V30 71 H 4.5693 1.81954 -3.93796 0
M  V30 72 H 5.2403 3.40109 -4.34776 0
M  V30 73 H 7.7163 3.38421 -2.42096 0
M  V30 74 H 6.5923 4.70806 -2.82193 0
M  V30 75 H 6.8533 4.27131 -1.14068 0
M  V30 76 N 5.9124 1.20967 1.01018 0
M  V30 77 C 7.1404 1.04956 1.78303 0
M  V30 78 C 7.5554 -0.400915 1.84494 0
M  V30 79 O 6.9124 -1.27826 1.30257 0
M  V30 80 C 6.9634 1.63403 3.22462 0
M  V30 81 O 6.6844 3.02775 3.16637 0
M  V30 82 C 8.1854 1.52432 4.16268 0
M  V30 83 H 5.4054 0.368858 0.560522 0
M  V30 84 H 7.9494 1.60193 1.27116 0
M  V30 85 H 6.1044 1.1227 3.70775 0
M  V30 86 H 6.5184 3.30626 4.07169 0
M  V30 87 H 7.9924 1.98078 5.15237 0
M  V30 88 H 8.4694 0.477875 4.36592 0
M  V30 89 H 9.0754 2.02787 3.73841 0
M  V30 90 N 7.3905 -1.2043 1.01659 0
M  V30 91 C 8.6375 -1.89797 0.705917 0
M  V30 92 C 8.9655 -1.78848 -0.764439 0
M  V30 93 O 8.2205 -1.16694 -1.57102 0
M  V30 94 C 8.5195 -3.40464 1.08714 0
M  V30 95 C 8.1855 -3.71614 2.5537 0
M  V30 96 C 6.8475 -3.79826 2.95441 0
M  V30 97 C 9.1995 -3.85915 3.50313 0
M  V30 98 C 6.5275 -3.99797 4.29394 0
M  V30 99 C 8.8795 -4.07396 4.83954 0
M  V30 100 C 7.5435 -4.13837 5.23732 0
M  V30 101 H 6.8135 -0.694518 0.258313 0
M  V30 102 H 9.4605 -1.42691 1.27717 0
M  V30 103 H 7.7655 -3.89385 0.434309 0
M  V30 104 H 9.4625 -3.92433 0.824461 0
M  V30 105 H 6.0525 -3.65822 2.23321 0
M  V30 106 H 10.2365 -3.78926 3.20513 0
M  V30 107 H 5.4925 -4.03018 4.59768 0
M  V30 108 H 9.6665 -4.17404 5.57447 0
M  V30 109 H 7.2935 -4.29064 6.27541 0
M  V30 110 N 8.8686 -0.792821 -1.36206 0
M  V30 111 C 10.1146 -0.36733 -1.99446 0
M  V30 112 C 10.4476 1.05917 -1.62774 0
M  V30 113 O 9.7226 1.7324 -0.88421 0
M  V30 114 C 10.0056 -0.535044 -3.56103 0
M  V30 115 C 9.8586 -2.00548 -4.02617 0
M  V30 116 C 11.1776 0.0478191 -4.40074 0
M  V30 117 H 8.2966 -0.134941 -0.724541 0
M  V30 118 H 10.9386 -0.999794 -1.61568 0
M  V30 119 H 9.0886 0.00336329 -3.885 0
M  V30 120 H 10.7606 -2.60521 -3.80692 0
M  V30 121 H 9.0036 -2.50686 -3.54032 0
M  V30 122 H 9.6746 -2.07377 -5.11565 0
M  V30 123 H 12.1506 -0.411822 -4.14057 0
M  V30 124 H 11.0266 -0.0995336 -5.4881 0
M  V30 125 H 11.2876 1.14025 -4.27142 0
M  V30 126 N 10.3467 1.47872 -0.545128 0
M  V30 127 C 11.5937 2.02493 -0.0165858 0
M  V30 128 C 11.9217 1.42073 1.32836 0
M  V30 129 O 11.1767 0.561459 1.87473 0
M  V30 130 C 11.4757 3.57131 0.13867 0
M  V30 131 C 11.1417 4.36411 -1.13384 0
M  V30 132 C 9.8037 4.57792 -1.48256 0
M  V30 133 C 12.1557 4.82223 -1.97764 0
M  V30 134 C 9.4837 5.22233 -2.67376 0
M  V30 135 C 11.8357 5.47977 -3.16076 0
M  V30 136 C 10.4997 5.67593 -3.51275 0
M  V30 137 H 9.7697 0.740975 -0.00606918 0
M  V30 138 H 12.4167 1.77683 -0.714207 0
M  V30 139 H 10.7217 3.80865 0.919172 0
M  V30 140 H 12.4187 3.97031 0.562782 0
M  V30 141 H 9.0087 4.2004 -0.852297 0
M  V30 142 H 13.1927 4.65493 -1.72132 0
M  V30 143 H 8.4487 5.35616 -2.94831 0
M  V30 144 H 12.6227 5.8244 -3.81755 0
M  V30 145 H 10.2497 6.17298 -4.43675 0
M  V30 146 N 11.8248 0.280983 1.55075 0
M  V30 147 C 12.7878 -0.590896 2.21452 0
M  V30 148 C 13.7878 -1.07682 1.19421 0
M  V30 149 O 14.9778 -0.97605 1.44288 0
M  V30 150 C 12.1098 -1.81587 2.88511 0
M  V30 151 H 13.3028 -0.0112554 2.99898 0
M  V30 152 H 10.8558 0.0316438 1.56268 0
M  V30 153 H 11.5908 -2.43587 2.14093 0
M  V30 154 H 11.3758 -1.4753 3.63287 0
M  V30 155 H 12.8658 -2.43575 3.39206 0
M  V30 156 N 13.3029 -1.57598 0.00835791 0
M  V30 157 C 14.2659 -2.07884 -0.965242 0
M  V30 158 C 15.2659 -0.989825 -1.26725 0
M  V30 159 O 16.4559 -1.25218 -1.21104 0
M  V30 160 C 13.5879 -2.52731 -2.28779 0
M  V30 161 H 14.7809 -2.95178 -0.530112 0
M  V30 162 H 12.3339 -1.54458 -0.239283 0
M  V30 163 H 13.0689 -1.68705 -2.76964 0
M  V30 164 H 12.8539 -3.32272 -2.08177 0
M  V30 165 H 14.3439 -2.91933 -2.98605 0
M  V30 166 N 14.781 0.264519 -1.55364 0
M  V30 167 C 15.711 1.33121 -1.91836 0
M  V30 168 C 16.692 1.51101 -0.781192 0
M  V30 169 O 17.877 1.64003 -1.04003 0
M  V30 170 C 15.007 2.68921 -2.19769 0
M  V30 171 C 13.961 2.65661 -3.35571 0
M  V30 172 C 13.287 4.05093 -3.49004 0
M  V30 173 C 14.587 2.24187 -4.71739 0
M  V30 174 H 16.281 1.02844 -2.81182 0
M  V30 175 H 13.827 0.493286 -1.35287 0
M  V30 176 H 15.78 3.43663 -2.43872 0
M  V30 177 H 14.504 3.00799 -1.27231 0
M  V30 178 H 13.163 1.93377 -3.1145 0
M  V30 179 H 12.811 4.34206 -2.53917 0
M  V30 180 H 12.511 4.03804 -4.26868 0
M  V30 181 H 14.035 4.81561 -3.75408 0
M  V30 182 H 15.449 2.88654 -4.9533 0
M  V30 183 H 13.846 2.34044 -5.52579 0
M  V30 184 H 14.916 1.19327 -4.69988 0
M  V30 185 N 16.2591 1.48442 0.529413 0
M  V30 186 C 17.5051 1.5672 1.28711 0
M  V30 187 C 17.8381 0.2406 1.92704 0
M  V30 188 O 17.1131 -0.753454 1.79313 0
M  V30 189 C 17.3961 2.70587 2.37603 0
M  V30 190 C 17.2491 4.12953 1.78297 0
M  V30 191 C 18.5681 2.80212 3.39366 0
M  V30 192 H 15.6871 0.570474 0.466613 0
M  V30 193 H 18.3291 1.80617 0.589706 0
M  V30 194 H 16.4791 2.50342 2.97088 0
M  V30 195 H 18.1511 4.44639 1.22858 0
M  V30 196 H 16.3941 4.19927 1.0883 0
M  V30 197 H 17.0651 4.88448 2.57144 0
M  V30 198 H 19.5411 2.98553 2.89836 0
M  V30 199 H 18.4171 3.61611 4.12951 0
M  V30 200 H 18.6781 1.88393 3.99951 0
M  V30 201 N 17.7372 -0.778329 1.37039 0
M  V30 202 C 18.9772 -1.54973 1.33276 0
M  V30 203 C 19.3412 -1.91816 -0.0839376 0
M  V30 204 O 20.5422 -2.6767 -0.246228 0
M  V30 205 C 18.8132 -2.78517 2.23971 0
M  V30 206 S 20.3722 -3.6865 2.37997 0
M  V30 207 H 17.1902 -0.530639 0.473226 0
M  V30 208 H 19.7922 -0.915806 1.72723 0
M  V30 209 H 18.4962 -2.4952 3.25835 0
M  V30 210 H 18.0272 -3.46875 1.85584 0
M  V30 211 H 20.0422 -4.70182 1.58567 0
M  V30 212 N 19.2153 -1.21501 -1.00376 0
M  V30 213 C 20.4553 -1.04444 -1.75701 0
M  V30 214 C 20.8193 0.414644 -1.87469 0
M  V30 215 O 22.0203 0.705763 -2.59369 0
M  V30 216 C 20.2913 -1.72389 -3.13077 0
M  V30 217 S 21.8503 -1.70604 -4.04277 0
M  V30 218 H 18.6683 -0.374249 -0.604532 0
M  V30 219 H 21.2703 -1.54267 -1.20091 0
M  V30 220 H 19.9743 -2.77734 -3.02146 0
M  V30 221 H 19.5053 -1.22751 -3.73759 0
M  V30 222 H 21.5203 -0.748012 -4.9053 0
M  V30 223 N 20.6934 1.19889 -1.02296 0
M  V30 224 C 21.9184 1.9393 -0.735237 0
M  V30 225 C 22.3434 1.74639 0.698782 0
M  V30 226 O 21.7014 1.04481 1.48167 0
M  V30 227 C 21.7494 3.43916 -1.08417 0
M  V30 228 O 20.8534 4.11917 -0.199446 0
M  V30 229 H 20.1944 0.605645 -0.272196 0
M  V30 230 H 22.7244 1.52137 -1.36804 0
M  V30 231 H 22.7344 3.9456 -1.03856 0
M  V30 232 H 21.4094 3.5728 -2.12894 0
M  V30 233 H 19.9864 3.71666 -0.303136 0
M  V30 234 N 22.1715 0.800033 1.35784 0
M  V30 235 C 23.1045 0.151499 2.27697 0
M  V30 236 C 24.0825 -0.678663 1.4776 0
M  V30 237 O 25.2665 -0.647358 1.77035 0
M  V30 238 C 22.3935 -0.790492 3.29346 0
M  V30 239 C 21.4395 -0.0407832 4.26481 0
M  V30 240 S 22.2725 1.29077 5.19711 0
M  V30 241 C 23.4285 0.353055 6.24903 0
M  V30 242 H 23.6615 0.930796 2.82353 0
M  V30 243 H 21.1945 0.594767 1.42485 0
M  V30 244 H 23.1525 -1.3285 3.88409 0
M  V30 245 H 21.8135 -1.54312 2.73581 0
M  V30 246 H 21.0065 -0.755971 4.98298 0
M  V30 247 H 20.6085 0.427063 3.71554 0
M  V30 248 H 22.9005 -0.464147 6.75908 0
M  V30 249 H 23.8435 1.04023 7.00418 0
M  V30 250 H 24.2515 -0.0483344 5.64479 0
M  V30 251 N 23.6496 -1.47581 0.552962 0
M  V30 252 C 24.8776 -2.06875 0.0320556 0
M  V30 253 C 25.2926 -1.40625 -1.25976 0
M  V30 254 O 24.6496 -0.501349 -1.75479 0
M  V30 255 C 24.7006 -3.61092 -0.17167 0
M  V30 256 O 24.4216 -4.24858 1.06899 0
M  V30 257 C 25.9226 -4.37242 -0.730344 0
M  V30 258 H 23.1426 -0.669561 0.043915 0
M  V30 259 H 25.6866 -1.89646 0.765163 0
M  V30 260 H 23.8416 -3.7785 -0.854894 0
M  V30 261 H 24.2556 -5.17334 0.864059 0
M  V30 262 H 25.7296 -5.45842 -0.822203 0
M  V30 263 H 26.2066 -4.03235 -1.74064 0
M  V30 264 H 26.8126 -4.25219 -0.0829543 0
M  V30 265 N 25.1277 -0.289203 -1.54924 0
M  V30 266 C 26.0577 0.58549 -2.2604 0
M  V30 267 C 27.0387 1.14753 -1.25562 0
M  V30 268 O 28.2237 1.17906 -1.54311 0
M  V30 269 C 25.3537 1.76305 -2.99222 0
M  V30 270 C 24.3077 1.33191 -4.06748 0
M  V30 271 C 23.6337 2.5937 -4.6758 0
M  V30 272 C 24.9337 0.471775 -5.20165 0
M  V30 273 H 26.6277 -0.00763532 -2.99399 0
M  V30 274 H 24.1737 -0.00511229 -1.43999 0
M  V30 275 H 26.1267 2.38097 -3.47689 0
M  V30 276 H 24.8507 2.38223 -2.23422 0
M  V30 277 H 23.5097 0.737121 -3.59113 0
M  V30 278 H 23.1577 3.19576 -3.88433 0
M  V30 279 H 22.8577 2.31228 -5.40192 0
M  V30 280 H 24.3817 3.21985 -5.18804 0
M  V30 281 H 25.7957 0.995056 -5.64599 0
M  V30 282 H 24.1927 0.284639 -5.99425 0
M  V30 283 H 25.2627 -0.506041 -4.82252 0
M  V30 284 N 26.6058 1.57591 -0.0167156 0
M  V30 285 C 27.8538 1.90906 0.663285 0
M  V30 286 C 28.1748 0.892509 1.73376 0
M  V30 287 O 27.4448 -0.0677623 1.95783 0
M  V30 288 H 26.0248 0.704637 0.247983 0
M  V30 289 H 28.6868 1.94803 -0.0615909 0
M  V30 290 H 27.7828 2.9116 1.12393 0
M  V30 291 N 28.0839 -0.256276 1.55502 0
M  V30 292 C 29.3609 -1.00789 1.67633 0
M  V30 293 C 29.7409 -2.03706 0.553826 0
M  V30 294 O 29.0889 -2.24145 -0.443969 0
M  V30 295 C 29.2989 -1.64968 3.07549 0
M  V30 296 C 30.6469 -2.15505 3.65845 0
M  V30 297 O 31.6709 -1.74925 3.1029 0
M  V30 298 O 30.5299 -2.89986 4.63217 0
M  V30 299 H 27.6239 -0.468553 0.681459 0
M  V30 300 H 30.1699 -0.250806 1.67836 0
M  V30 301 H 28.9419 -0.904785 3.80696 0
M  V30 302 H 28.5649 -2.47321 3.11317 0
M  V30 303 N 29.562 -1.4872 -0.521534 0
M  V30 304 C 30.79 -1.60843 -1.30142 0
M  V30 305 C 31.205 -0.271897 -1.86832 0
M  V30 306 O 30.562 0.739969 -1.66825 0
M  V30 307 C 30.613 -2.66155 -2.4463 0
M  V30 308 O 30.334 -3.94623 -1.90275 0
M  V30 309 C 31.835 -2.88795 -3.36322 0
M  V30 310 H 29.055 -0.542075 -0.395468 0
M  V30 311 H 31.599 -1.94609 -0.628285 0
M  V30 312 H 29.754 -2.35224 -3.07812 0
M  V30 313 H 30.168 -4.52468 -2.65279 0
M  V30 314 H 31.642 -3.66264 -4.12983 0
M  V30 315 H 32.119 -1.97934 -3.9207 0
M  V30 316 H 32.725 -3.21063 -2.78924 0
M  V30 317 N 31.0401 0.771051 -1.3745 0
M  V30 318 C 32.2681 1.56015 -1.35893 0
M  V30 319 C 32.6831 1.88718 0.0555523 0
M  V30 320 O 32.0401 1.51502 1.01752 0
M  V30 321 C 32.0911 2.87001 -2.19801 0
M  V30 322 O 31.8121 2.557 -3.55738 0
M  V30 323 C 33.3131 3.81228 -2.26231 0
M  V30 324 H 30.5331 0.483317 -0.465453 0
M  V30 325 H 33.0771 0.955611 -1.80799 0
M  V30 326 H 31.2321 3.43877 -1.78402 0
M  V30 327 H 31.6461 3.39584 -3.99729 0
M  V30 328 H 33.1201 4.70139 -2.89263 0
M  V30 329 H 33.5971 4.20409 -1.27093 0
M  V30 330 H 34.2031 3.30281 -2.67945 0
M  V30 331 N 32.5182 1.22032 0.997298 0
M  V30 332 C 33.9292 1.0397 1.55071 0
M  V30 333 C 34.2802 -0.398192 1.92117 0
M  V30 334 O 33.4052 -1.28254 1.74298 0
M  V30 335 C 34.0002 1.88109 2.81781 0
M  V30 336 C 32.5592 1.74357 3.33581 0
M  V30 337 C 31.7062 1.84846 2.06706 0
M  V30 338 H 34.6572 1.35941 0.818883 0
M  V30 339 H 34.6782 1.39589 3.53971 0
M  V30 340 H 34.1902 2.92754 2.54787 0
M  V30 341 H 32.2912 0.72427 3.65493 0
M  V30 342 H 32.4042 2.56772 4.04481 0
M  V30 343 H 30.7682 1.28238 2.20062 0
M  V30 344 H 31.5512 2.91014 1.82114 0
M  V30 345 N 33.9963 -1.19345 1.0293 0
M  V30 346 C 35.4123 -1.41069 0.746446 0
M  V30 347 C 35.6123 -1.90078 -0.668776 0
M  V30 348 O 34.6683 -2.0778 -1.4347 0
M  V30 349 C 35.9813 -2.42141 1.78292 0
M  V30 350 C 37.5293 -2.55887 1.80252 0
M  V30 351 C 38.0043 -3.60214 2.8286 0
M  V30 352 N 39.4953 -3.67711 2.81679 0
M  V30 353 C 40.2303 -4.48128 3.57727 0
M  V30 354 N 39.7263 -5.32248 4.43491 0
M  V30 355 N 41.5193 -4.42782 3.46267 0
M  V30 356 H 33.6703 -0.858536 1.94275 0
M  V30 357 H 35.9333 -0.439541 0.839945 0
M  V30 358 H 35.6393 -2.13155 2.79746 0
M  V30 359 H 35.5133 -3.41323 1.60557 0
M  V30 360 H 37.9003 -2.84196 0.794757 0
M  V30 361 H 37.9813 -1.56858 2.02062 0
M  V30 362 H 37.6253 -3.32647 3.83807 0
M  V30 363 H 37.5553 -4.58895 2.58307 0
M  V30 364 H 40.0463 -3.07634 2.19476 0
M  V30 365 H 40.3593 -5.90729 4.98256 0
M  V30 366 H 38.7043 -5.31707 4.47564 0
M  V30 367 H 41.8953 -3.76107 2.78677 0
M  V30 368 H 42.0683 -5.05215 4.05785 0
M  V30 369 N 35.4744 -0.807222 -1.35358 0
M  V30 370 C 36.8904 -0.491038 -1.51858 0
M  V30 371 C 37.0904 0.987648 -1.75635 0
M  V30 372 O 36.1464 1.77265 -1.79815 0
M  V30 373 C 37.4594 -1.33695 -2.69344 0
M  V30 374 C 39.0074 -1.33246 -2.83222 0
M  V30 375 C 39.4824 -2.1625 -4.03733 0
M  V30 376 N 40.9734 -2.1379 -4.10911 0
M  V30 377 C 41.7084 -2.74772 -5.03277 0
M  V30 378 N 41.2044 -3.44684 -6.0097 0
M  V30 379 N 42.9974 -2.6441 -4.96028 0
M  V30 380 H 35.1484 -1.76485 -1.18181 0
M  V30 381 H 37.4114 -0.751199 -0.578276 0
M  V30 382 H 37.1174 -2.38634 -2.58354 0
M  V30 383 H 36.9914 -0.990618 -3.6396 0
M  V30 384 H 39.3784 -0.290911 -2.93663 0
M  V30 385 H 39.4594 -1.71866 -1.89461 0
M  V30 386 H 39.1034 -3.20445 -3.94052 0
M  V30 387 H 39.0334 -1.74989 -4.96675 0
M  V30 388 H 41.5244 -1.62923 -3.40976 0
M  V30 389 H 41.8374 -3.88501 -6.68047 0
M  V30 390 H 40.1824 -3.48788 -6.01142 0
M  V30 391 H 43.3734 -2.0938 -4.18662 0
M  V30 392 H 43.5464 -3.12225 -5.6782 0
M  V30 393 N 36.9525 1.47285 -0.560781 0
M  V30 394 C 38.2295 1.9558 0.0277798 0
M  V30 395 C 38.6095 1.5034 1.48192 0
M  V30 396 O 37.9575 0.743882 2.16052 0
M  V30 397 C 38.1675 3.48789 -0.121418 0
M  V30 398 C 39.5155 4.24594 0.0220912 0
M  V30 399 O 40.5395 3.56166 -0.0491439 0
M  V30 400 O 39.3985 5.46217 0.175958 0
M  V30 401 H 36.4925 0.824663 0.0621342 0
M  V30 402 H 39.0385 1.5767 -0.627556 0
M  V30 403 H 37.8105 3.74533 -1.13316 0
M  V30 404 H 37.4335 3.93473 0.571366 0
M  V30 405 N 38.4306 0.297415 1.54768 0
M  V30 406 C 39.3936 -0.567375 2.22066 0
M  V30 407 C 40.3936 -1.06409 1.20556 0
M  V30 408 O 41.5836 -0.960691 1.45315 0
M  V30 409 C 38.7156 -1.78517 2.90421 0
M  V30 410 H 39.9086 0.0205534 2.99893 0
M  V30 411 H 37.4616 0.0482163 1.56226 0
M  V30 412 H 38.1966 -2.41303 2.16664 0
M  V30 413 H 37.9816 -1.43669 3.64831 0
M  V30 414 H 39.4716 -2.39964 3.41771 0
M  V30 415 N 39.9087 -1.5758 0.0250728 0
M  V30 416 C 40.8187 -2.1343 -0.973905 0
M  V30 417 C 41.8347 -1.08556 -1.35984 0
M  V30 418 O 43.0107 -1.40592 -1.44207 0
M  V30 419 C 40.0757 -2.64703 -2.23904 0
M  V30 420 C 39.1367 -3.84276 -1.91391 0
M  V30 421 C 38.3697 -4.33095 -3.11873 0
M  V30 422 O 38.5927 -3.81107 -4.24398 0
M  V30 423 O 37.5267 -5.24984 -2.94406 0
M  V30 424 H 41.3527 -2.99057 -0.529036 0
M  V30 425 H 38.9377 -1.48118 -0.195288 0
M  V30 426 H 40.8197 -2.97769 -2.98181 0
M  V30 427 H 39.4947 -1.82161 -2.6758 0
M  V30 428 H 38.4017 -3.56143 -1.14511 0
M  V30 429 H 39.7347 -4.67968 -1.52534 0
M  V30 430 N 41.3868 0.248026 -1.55636 0
M  V30 431 C 42.6168 0.992367 -1.81206 0
M  V30 432 C 43.0248 1.7949 -0.598324 0
M  V30 433 O 42.3678 1.78292 0.442434 0
M  V30 434 C 42.4298 1.97926 -3.00109 0
M  V30 435 C 42.0938 1.36377 -4.36177 0
M  V30 436 C 43.0908 0.76682 -5.14214 0
M  V30 437 C 40.7758 1.38347 -4.82872 0
M  V30 438 C 42.7698 0.197778 -6.37093 0
M  V30 439 C 40.4568 0.810574 -6.057 0
M  V30 440 C 41.4548 0.218754 -6.8265 0
M  V30 441 O 41.1428 -0.345298 -8.03158 0
M  V30 442 H 40.8748 0.297704 -0.606917 0
M  V30 443 H 43.4288 0.276517 -2.0353 0
M  V30 444 H 41.6588 2.73339 -2.73538 0
M  V30 445 H 43.3478 2.58694 -3.12781 0
M  V30 446 H 44.1138 0.744114 -4.79258 0
M  V30 447 H 39.9928 1.8335 -4.2297 0
M  V30 448 H 43.5368 -0.264788 -6.97097 0
M  V30 449 H 39.4338 0.830604 -6.40134 0
M  V30 450 H 40.2018 -0.237055 -8.18157 0
M  V30 451 N 42.8649 1.48995 0.513639 0
M  V30 452 C 44.2759 1.5119 1.09537 0
M  V30 453 C 44.6269 0.290906 1.94031 0
M  V30 454 O 43.7519 -0.60049 2.07902 0
M  V30 455 C 44.3469 2.73964 1.99322 0
M  V30 456 C 42.9059 2.78978 2.52682 0
M  V30 457 C 42.0529 2.44934 1.30009 0
M  V30 458 H 45.0039 1.55875 0.298125 0
M  V30 459 H 45.0249 2.53409 2.83838 0
M  V30 460 H 44.5369 3.62813 1.37799 0
M  V30 461 H 42.6379 1.94378 3.1788 0
M  V30 462 H 42.7509 3.8083 2.90698 0
M  V30 463 H 41.1149 1.9644 1.62122 0
M  V30 464 H 41.8979 3.36043 0.702131 0
M  V30 465 N 44.343 -0.763751 1.37857 0
M  V30 466 C 45.754 -1.3405 1.29952 0
M  V30 467 C 46.105 -1.96138 -0.0492898 0
M  V30 468 O 45.23 -1.94372 -0.951239 0
M  V30 469 C 45.825 -2.43729 2.35333 0
M  V30 470 C 44.384 -2.97151 2.31037 0
M  V30 471 C 43.531 -1.70438 2.18738 0
M  V30 472 H 46.482 -0.563396 1.48363 0
M  V30 473 H 46.503 -3.23412 2.00462 0
M  V30 474 H 46.015 -1.9851 3.33489 0
M  V30 475 H 44.116 -3.46724 1.3643 0
M  V30 476 H 44.229 -3.52221 3.24772 0
M  V30 477 H 42.593 -1.93673 1.65418 0
M  V30 478 H 43.376 -1.27312 3.18821 0
M  V30 479 N 45.8211 -1.22559 -0.990812 0
M  V30 480 C 47.2321 -1.04791 -1.54518 0
M  V30 481 C 47.5831 0.387998 -1.92325 0
M  V30 482 O 46.7081 1.27328 -1.74976 0
M  V30 483 C 47.3031 -1.896 -2.80779 0
M  V30 484 C 45.8621 -1.76124 -3.32652 0
M  V30 485 C 45.0091 -1.8594 -2.05722 0
M  V30 486 H 47.9601 -1.36374 -0.811662 0
M  V30 487 H 47.9811 -1.41464 -3.53225 0
M  V30 488 H 47.4931 -2.94101 -2.53231 0
M  V30 489 H 45.5941 -0.743643 -3.65104 0
M  V30 490 H 45.7071 -2.58913 -4.03114 0
M  V30 491 H 44.0711 -1.29403 -2.19379 0
M  V30 492 H 44.8541 -2.91976 -1.80568 0
M  V30 493 N 47.2992 1.18797 -1.03562 0
M  V30 494 C 48.2092 2.25913 -0.632505 0
M  V30 495 C 49.2252 1.70668 0.338882 0
M  V30 496 O 50.4012 2.00453 0.195076 0
M  V30 497 C 47.4662 3.467 0.00350942 0
M  V30 498 C 46.5272 4.17098 -1.01624 0
M  V30 499 C 45.7602 5.32119 -0.410478 0
M  V30 500 O 45.9832 5.64976 0.784725 0
M  V30 501 O 44.9172 5.9107 -1.13667 0
M  V30 502 H 48.7432 2.62648 -1.52478 0
M  V30 503 H 46.3282 1.25781 -0.806195 0
M  V30 504 H 48.2102 4.19878 0.35781 0
M  V30 505 H 46.8852 3.11798 0.869686 0
M  V30 506 H 45.7922 3.4601 -1.42224 0
M  V30 507 H 47.1252 4.55987 -1.85301 0
M  V30 508 N 48.7773 0.814389 1.34928 0
M  V30 509 C 49.7073 0.244827 2.32213 0
M  V30 510 C 50.6883 -0.634024 1.57842 0
M  V30 511 O 51.8733 -0.562676 1.8587 0
M  V30 512 C 49.0033 -0.601106 3.42058 0
M  V30 513 C 47.9573 0.179896 4.27622 0
M  V30 514 C 47.2833 -0.788237 5.28858 0
M  V30 515 C 48.5833 1.38329 5.03649 0
M  V30 516 H 50.2773 1.05763 2.80097 0
M  V30 517 H 47.8233 0.510029 1.34665 0
M  V30 518 H 49.7763 -1.00968 4.09125 0
M  V30 519 H 48.5003 -1.44688 2.92802 0
M  V30 520 H 47.1593 0.569739 3.62146 0
M  V30 521 H 46.8073 -1.62973 4.75866 0
M  V30 522 H 46.5073 -0.269942 5.8698 0
M  V30 523 H 48.0313 -1.19485 5.98795 0
M  V30 524 H 49.4453 1.04918 5.63618 0
M  V30 525 H 47.8423 1.83662 5.71304 0
M  V30 526 H 48.9123 2.16592 4.33839 0
M  V30 527 N 50.2554 -1.46986 0.568584 0
M  V30 528 C 51.1854 -2.32946 -0.160753 0
M  V30 529 C 52.1664 -1.44487 -0.897631 0
M  V30 530 O 53.3514 -1.73327 -0.875867 0
M  V30 531 C 50.4814 -3.26494 -1.18403 0
M  V30 532 C 49.4354 -4.24282 -0.562895 0
M  V30 533 C 48.7614 -5.07236 -1.69163 0
M  V30 534 C 50.0614 -5.19989 0.490761 0
M  V30 535 H 51.7554 -2.94175 0.556916 0
M  V30 536 H 49.3014 -1.4146 0.26927 0
M  V30 537 H 51.2544 -3.85477 -1.70251 0
M  V30 538 H 49.9784 -2.63343 -1.93179 0
M  V30 539 H 48.6374 -3.66541 -0.0656164 0
M  V30 540 H 48.2854 -4.4048 -2.42871 0
M  V30 541 H 47.9854 -5.7345 -1.28174 0
M  V30 542 H 49.5094 -5.6908 -2.21314 0
M  V30 543 H 50.9234 -5.73271 0.0579047 0
M  V30 544 H 49.3204 -5.94469 0.820165 0
M  V30 545 H 50.3904 -4.64777 1.3824 0
M  V30 546 N 51.7335 -0.305618 -1.54608 0
M  V30 547 C 52.6435 0.57778 -2.27374 0
M  V30 548 C 53.6595 1.14451 -1.31061 0
M  V30 549 O 54.8355 1.16831 -1.6405 0
M  V30 550 C 51.9005 1.73123 -3.00382 0
M  V30 551 C 50.9615 1.19812 -4.12242 0
M  V30 552 C 50.1945 2.2966 -4.81759 0
M  V30 553 O 50.4175 3.49651 -4.50666 0
M  V30 554 O 49.3515 1.96091 -5.69062 0
M  V30 555 H 53.1775 -0.012624 -3.03697 0
M  V30 556 H 50.7625 -0.0719184 -1.49227 0
M  V30 557 H 52.6445 2.40315 -3.4616 0
M  V30 558 H 51.3195 2.30815 -2.26949 0
M  V30 559 H 50.2265 0.491798 -3.70853 0
M  V30 560 H 51.5595 0.666566 -4.87666 0
M  V30 561 N 53.2116 1.57565 -0.0334293 0
M  V30 562 C 54.1746 2.09393 0.932048 0
M  V30 563 C 55.1746 1.00986 1.25134 0
M  V30 564 O 56.3646 1.27129 1.19096 0
M  V30 565 C 53.4966 2.56338 2.2473 0
M  V30 566 H 54.6896 2.95984 0.483085 0
M  V30 567 H 52.2426 1.54819 0.21468 0
M  V30 568 H 52.9776 1.7309 2.74245 0
M  V30 569 H 52.7626 3.35542 2.02865 0
M  V30 570 H 54.2526 2.96646 2.93923 0
M  V30 571 N 54.6897 -0.239769 1.55765 0
M  V30 572 C 55.6197 -1.30052 1.9393 0
M  V30 573 C 56.6007 -1.49839 0.805132 0
M  V30 574 O 57.7857 -1.62328 1.06599 0
M  V30 575 C 54.9157 -2.65391 2.2402 0
M  V30 576 C 53.8697 -2.60289 3.39755 0
M  V30 577 C 53.1957 -3.99489 3.55405 0
M  V30 578 C 54.4957 -2.16654 4.75246 0
M  V30 579 H 56.1897 -0.983573 2.82783 0
M  V30 580 H 53.7357 -0.471701 1.36055 0
M  V30 581 H 55.6887 -3.3974 2.49308 0
M  V30 582 H 54.4127 -2.98736 1.32 0
M  V30 583 H 53.0717 -1.88398 3.14487 0
M  V30 584 H 52.7197 -4.30112 2.60793 0
M  V30 585 H 52.4197 -3.96962 4.33238 0
M  V30 586 H 53.9437 -4.75528 3.83022 0
M  V30 587 H 55.3577 -2.80737 4.99859 0
M  V30 588 H 53.7547 -2.25223 5.56232 0
M  V30 589 H 54.8247 -1.11835 4.71827 0
M  V30 590 N 56.1678 -1.49265 -0.50573 0
M  V30 591 C 57.1148 -1.65585 -1.6078 0
M  V30 592 C 58.0848 -0.497396 -1.58478 0
M  V30 593 O 59.2698 -0.72385 -1.76536 0
M  V30 594 C 56.4098 -1.72408 -2.98948 0
M  V30 595 C 55.5228 -2.99525 -3.11301 0
M  V30 596 C 54.6578 -2.97356 -4.40174 0
M  V30 597 C 53.6968 -4.19074 -4.46143 0
M  V30 598 N 52.8338 -4.14841 -5.66437 0
M  V30 599 H 57.6738 -2.59688 -1.46172 0
M  V30 600 H 55.2108 -1.28761 -0.711261 0
M  V30 601 H 57.1688 -1.74344 -3.79025 0
M  V30 602 H 55.7988 -0.817753 -3.1227 0
M  V30 603 H 54.8508 -3.07222 -2.24318 0
M  V30 604 H 56.1628 -3.89518 -3.11572 0
M  V30 605 H 55.3168 -2.97829 -5.28567 0
M  V30 606 H 54.0558 -2.05133 -4.42461 0
M  V30 607 H 53.0608 -4.1885 -3.56153 0
M  V30 608 H 54.2858 -5.12483 -4.45575 0
M  V30 609 H 52.2318 -3.25453 -5.69575 0
M  V30 610 H 52.1488 -4.98564 -5.68304 0
M  V30 611 H 53.4168 -4.1941 -6.57051 0
M  V30 612 N 57.6459 0.756429 -1.3826 0
M  V30 613 C 59.0569 1.33359 -1.30661 0
M  V30 614 C 59.4079 1.96161 0.0388875 0
M  V30 615 O 58.5329 1.94874 0.940918 0
M  V30 616 C 59.1279 2.42477 -2.36622 0
M  V30 617 C 57.6869 2.95922 -2.3261 0
M  V30 618 C 56.8339 1.69275 -2.19639 0
M  V30 619 H 59.7849 0.55552 -1.4866 0
M  V30 620 H 59.8059 3.22345 -2.02174 0
M  V30 621 H 59.3179 1.96739 -3.34538 0
M  V30 622 H 57.4189 3.45996 -1.38267 0
M  V30 623 H 57.5319 3.50494 -3.26636 0
M  V30 624 H 55.8959 1.92793 -1.66442 0
M  V30 625 H 56.6789 1.25619 -3.19491 0
M  V30 626 N 59.124 1.23083 0.984299 0
M  V30 627 C 60.054 1.03292 2.09411 0
M  V30 628 C 61.035 -0.048923 1.7003 0
M  V30 629 O 62.22 0.114967 1.93859 0
M  V30 630 C 59.35 0.619155 3.41736 0
M  V30 631 C 58.304 1.64791 3.95004 0
M  V30 632 C 57.63 1.0897 5.23478 0
M  V30 633 C 58.93 3.03999 4.24714 0
M  V30 634 H 60.624 1.96119 2.26225 0
M  V30 635 H 58.17 0.944344 1.08711 0
M  V30 636 H 60.123 0.467777 4.18796 0
M  V30 637 H 58.847 -0.344786 3.24775 0
M  V30 638 H 57.506 1.78721 3.20085 0
M  V30 639 H 57.154 0.11686 5.02864 0
M  V30 640 H 56.854 1.77704 5.60085 0
M  V30 641 H 58.378 0.950093 6.03163 0
M  V30 642 H 59.792 2.93393 4.92538 0
M  V30 643 H 58.189 3.69936 4.72512 0
M  V30 644 H 59.259 3.53285 3.32142 0
M  V30 645 N 60.6021 -1.18246 1.0419 0
M  V30 646 C 61.5521 -2.19843 0.604392 0
M  V30 647 C 62.5361 -1.56962 -0.353814 0
M  V30 648 O 63.7281 -1.76156 -0.17267 0
M  V30 649 C 60.8571 -3.43287 -0.0298975 0
M  V30 650 C 59.9431 -4.13288 0.951531 0
M  V30 651 N 60.3341 -4.59271 2.11906 0
M  V30 652 C 58.6321 -4.39165 0.7778 0
M  V30 653 C 59.3331 -5.13173 2.73912 0
M  V30 654 N 58.3091 -5.04763 2.01779 0
M  V30 655 H 62.1111 -2.53089 1.4941 0
M  V30 656 H 59.6251 -1.34465 0.910658 0
M  V30 657 H 61.6221 -4.15334 -0.361037 0
M  V30 658 H 60.2821 -3.11537 -0.915127 0
M  V30 659 H 61.2931 -4.5368 2.49789 0
M  V30 660 H 57.9701 -4.17461 -0.0572331 0
M  V30 661 H 59.3601 -5.58947 3.72864 0
M  V30 662 N 62.0802 -0.821533 -1.34494 0
M  V30 663 C 63.3572 -0.33159 -1.92769 0
M  V30 664 C 63.7372 1.18088 -1.74981 0
M  V30 665 O 63.0852 1.98733 -1.12772 0
M  V30 666 C 63.2952 -0.759398 -3.40638 0
M  V30 667 C 64.6432 -0.757433 -4.1779 0
M  V30 668 O 65.6672 -0.70189 -3.49216 0
M  V30 669 O 64.5262 -0.829361 -5.4017 0
M  V30 670 H 61.6202 -0.0902502 -0.822061 0
M  V30 671 H 64.1662 -0.906231 -1.43477 0
M  V30 672 H 62.9382 -1.8012 -3.47379 0
M  V30 673 H 62.5612 -0.160378 -3.97276 0
M  V30 674 N 63.5583 1.46682 -0.576371 0
M  V30 675 C 64.8073 2.01619 -0.0572825 0
M  V30 676 C 65.1203 1.45417 1.30818 0
M  V30 677 O 66.3263 1.92133 1.91825 0
M  V30 678 C 64.7823 3.59863 -0.0518371 0
M  V30 679 C 64.3903 4.25059 -1.41523 0
M  V30 680 C 66.1343 4.2248 0.413639 0
M  V30 681 C 64.0413 5.75364 -1.36785 0
M  V30 682 H 62.9713 0.753794 -0.0176448 0
M  V30 683 H 65.6223 1.68481 -0.727076 0
M  V30 684 H 64.0043 3.90048 0.683994 0
M  V30 685 H 65.1783 4.06491 -2.17029 0
M  V30 686 H 63.4933 3.7451 -1.8202 0
M  V30 687 H 66.0903 5.3265 0.467779 0
M  V30 688 H 66.4333 3.90976 1.42982 0
M  V30 689 H 66.9663 3.96897 -0.267929 0
M  V30 690 H 63.7053 6.11518 -2.36063 0
M  V30 691 H 63.2253 5.96214 -0.654895 0
M  V30 692 H 64.9043 6.37955 -1.07805 0
M  V30 693 N 65.0364 0.313813 1.54444 0
M  V30 694 C 66.2764 -0.292389 2.02298 0
M  V30 695 C 66.6404 -1.50105 1.19719 0
M  V30 696 O 67.8414 -2.17947 1.5733 0
M  V30 697 C 66.1124 -0.627682 3.51845 0
M  V30 698 S 67.6714 -1.21493 4.21646 0
M  V30 699 H 64.4894 -0.0890247 0.705405 0
M  V30 700 H 67.0914 0.444668 1.90376 0
M  V30 701 H 65.7954 0.260265 4.09574 0
M  V30 702 H 65.3264 -1.39519 3.67829 0
M  V30 703 H 67.3414 -2.5022 4.28491 0
M  V30 704 N 66.5145 -1.57545 0.0417849 0
M  V30 705 C 67.4445 -2.14009 -0.933929 0
M  V30 706 C 68.4255 -1.05938 -1.33083 0
M  V30 707 O 69.6105 -1.33833 -1.40721 0
M  V30 708 C 66.7405 -2.67747 -2.21199 0
M  V30 709 C 65.6945 -3.80718 -1.95544 0
M  V30 710 C 65.0205 -4.20935 -3.29724 0
M  V30 711 C 66.3205 -5.06258 -1.28452 0
M  V30 712 H 68.0145 -2.95788 -0.463645 0
M  V30 713 H 65.5605 -1.42285 -0.221573 0
M  V30 714 H 67.5135 -3.05886 -2.89848 0
M  V30 715 H 66.2375 -1.83147 -2.70416 0
M  V30 716 H 64.8965 -3.43037 -1.2931 0
M  V30 717 H 64.5445 -3.33298 -3.76724 0
M  V30 718 H 64.2445 -4.9707 -3.13361 0
M  V30 719 H 65.7685 -4.61666 -3.9962 0
M  V30 720 H 67.1825 -5.41903 -1.8712 0
M  V30 721 H 65.5795 -5.87475 -1.22445 0
M  V30 722 H 66.6495 -4.84207 -0.259219 0
M  V30 723 N 67.9926 0.231505 -1.5589 0
M  V30 724 C 69.2406 0.955461 -1.78088 0
M  V30 725 C 69.5616 1.85262 -0.608533 0
M  V30 726 O 68.8316 1.92277 0.375035 0
M  V30 727 H 67.4116 0.355787 -0.656829 0
M  V30 728 H 70.0736 0.245751 -1.93344 0
M  V30 729 H 69.1696 1.56814 -2.69844 0
M  V30 730 N 69.4707 1.49531 0.497807 0
M  V30 731 C 70.4177 1.66436 1.59899 0
M  V30 732 C 71.3877 0.505793 1.58212 0
M  V30 733 O 72.5727 0.733202 1.7615 0
M  V30 734 C 69.7127 1.7399 2.98029 0
M  V30 735 C 68.8257 3.01172 3.09708 0
M  V30 736 C 67.9607 2.99686 4.38591 0
M  V30 737 C 66.9997 4.21434 4.43914 0
M  V30 738 N 66.1367 4.1784 5.64229 0
M  V30 739 H 70.9767 2.60459 1.44793 0
M  V30 740 H 68.5137 1.29137 0.704423 0
M  V30 741 H 70.4717 1.76352 3.78095 0
M  V30 742 H 69.1017 0.834301 3.11832 0
M  V30 743 H 68.1537 3.08408 2.22685 0
M  V30 744 H 69.4657 3.91165 3.09502 0
M  V30 745 H 68.6197 3.00628 5.2698 0
M  V30 746 H 67.3587 2.07477 4.41367 0
M  V30 747 H 66.3637 4.20733 3.53926 0
M  V30 748 H 67.5887 5.14839 4.42851 0
M  V30 749 H 65.5347 3.28469 5.67841 0
M  V30 750 H 65.4517 5.01571 5.65652 0
M  V30 751 H 66.7197 4.22889 6.54817 0
M  V30 752 N 70.9488 -0.749086 1.3866 0
M  V30 753 C 72.1768 -1.53834 1.38358 0
M  V30 754 C 72.5918 -1.88783 -0.0255219 0
M  V30 755 O 71.9488 -1.53101 -0.993292 0
M  V30 756 C 71.9998 -2.83468 2.2434 0
M  V30 757 O 71.7208 -2.50008 3.5976 0
M  V30 758 C 73.2218 -3.7758 2.32267 0
M  V30 759 H 70.4418 -0.47585 0.473083 0
M  V30 760 H 72.9858 -0.926726 1.82297 0
M  V30 761 H 71.1408 -3.40995 1.83851 0
M  V30 762 H 71.5548 -3.33182 4.05081 0
M  V30 763 H 73.0288 -4.65478 2.96706 0
M  V30 764 H 73.5058 -4.18334 1.33765 0
M  V30 765 H 74.1118 -3.25976 2.73166 0
M  V30 766 N 72.4269 -1.23603 -0.977757 0
M  V30 767 C 73.6749 -1.06759 -1.71601 0
M  V30 768 C 73.9959 0.395929 -1.90938 0
M  V30 769 O 73.2659 1.28356 -1.47992 0
M  V30 770 H 71.8459 -0.392062 -0.635843 0
M  V30 771 H 74.5079 -1.55362 -1.1768 0
M  V30 772 H 73.6039 -1.55763 -2.70452 0
M  V30 773 N 73.905 1.17692 -1.04816 0
M  V30 774 C 75.151 1.88137 -0.75711 0
M  V30 775 C 75.484 1.80604 0.713841 0
M  V30 776 O 74.759 1.21146 1.52164 0
M  V30 777 C 75.042 3.38318 -1.2334 0
M  V30 778 C 74.895 3.54622 -2.76701 0
M  V30 779 C 76.214 4.32214 -0.829415 0
M  V30 780 H 73.333 0.683163 -0.27651 0
M  V30 781 H 75.975 1.38424 -1.30149 0
M  V30 782 H 74.125 3.80787 -0.770286 0
M  V30 783 H 75.797 3.21194 -3.31107 0
M  V30 784 H 74.04 2.97026 -3.16161 0
M  V30 785 H 74.711 4.60028 -3.05088 0
M  V30 786 H 77.187 3.97565 -1.22805 0
M  V30 787 H 76.063 5.35838 -1.19033 0
M  V30 788 H 76.324 4.41294 0.266891 0
M  V30 789 N 75.3831 0.828654 1.34056 0
M  V30 790 C 76.6111 0.43262 2.02326 0
M  V30 791 C 77.0261 -0.963147 1.62385 0
M  V30 792 O 76.3831 -1.62425 0.832121 0
M  V30 793 C 76.4341 0.53182 3.57567 0
M  V30 794 O 76.1551 1.87258 3.96063 0
M  V30 795 C 77.6561 0.131422 4.43105 0
M  V30 796 H 74.8761 0.172923 0.648335 0
M  V30 797 H 77.4201 1.1184 1.71208 0
M  V30 798 H 75.5751 -0.105938 3.87255 0
M  V30 799 H 75.9891 1.85087 4.90758 0
M  V30 800 H 77.4631 0.251904 5.51425 0
M  V30 801 H 77.9401 -0.925645 4.29335 0
M  V30 802 H 78.5461 0.743207 4.18756 0
M  V30 803 N 76.8612 -1.46375 0.584142 0
M  V30 804 C 77.7712 -2.34115 -0.150728 0
M  V30 805 C 78.7872 -1.49838 -0.884567 0
M  V30 806 O 79.9632 -1.82704 -0.847429 0
M  V30 807 C 77.0282 -3.2705 -1.15062 0
M  V30 808 C 76.0892 -4.27228 -0.421293 0
M  V30 809 C 75.3222 -5.15722 -1.37355 0
M  V30 810 O 75.5452 -5.07176 -2.61014 0
M  V30 811 O 74.4792 -5.95383 -0.883355 0
M  V30 812 H 78.3052 -2.98309 0.569708 0
M  V30 813 H 75.8902 -1.45373 0.344535 0
M  V30 814 H 77.7722 -3.84381 -1.72712 0
M  V30 815 H 76.4472 -2.65451 -1.8525 0
M  V30 816 H 75.3542 -3.7358 0.197085 0
M  V30 817 H 76.6872 -4.91616 0.239641 0
M  V30 818 N 78.3393 -0.321999 -1.54275 0
M  V30 819 C 79.2493 0.553631 -2.27974 0
M  V30 820 C 80.2653 1.13054 -1.32268 0
M  V30 821 O 81.4413 1.15084 -1.6528 0
M  V30 822 C 78.5063 1.69927 -3.02201 0
M  V30 823 C 77.5673 1.15433 -4.1349 0
M  V30 824 C 76.8003 2.24537 -4.84168 0
M  V30 825 O 77.0233 3.44852 -4.5435 0
M  V30 826 O 75.9573 1.90044 -5.7111 0
M  V30 827 H 79.7833 -0.0448345 -3.03667 0
M  V30 828 H 77.3683 -0.0877418 -1.49142 0
M  V30 829 H 79.2503 2.3663 -3.48689 0
M  V30 830 H 77.9253 2.28395 -2.29385 0
M  V30 831 H 76.8323 0.452436 -3.71354 0
M  V30 832 H 78.1653 0.614805 -4.88345 0
M  V30 833 N 79.8174 1.5752 -0.0501392 0
M  V30 834 C 80.7804 2.1037 0.909786 0
M  V30 835 C 81.7804 1.02308 1.24056 0
M  V30 836 O 82.9704 1.28385 1.17741 0
M  V30 837 C 80.1024 2.58708 2.21998 0
M  V30 838 H 81.2954 2.96479 0.451665 0
M  V30 839 H 78.8484 1.55038 0.198248 0
M  V30 840 H 79.5834 1.75989 2.72394 0
M  V30 841 H 79.3684 3.37675 1.99295 0
M  V30 842 H 80.8584 2.99747 2.9076 0
M  V30 843 N 81.2955 -0.223234 1.56011 0
M  V30 844 C 82.5445 -0.945912 1.78144 0
M  V30 845 C 82.8575 -1.85567 0.618396 0
M  V30 846 O 84.0635 -2.61688 0.723318 0
M  V30 847 C 82.5195 -1.73216 3.15475 0
M  V30 848 C 82.1275 -0.868619 4.39499 0
M  V30 849 C 83.8715 -2.44615 3.46935 0
M  V30 850 C 81.7785 -1.65212 5.67855 0
M  V30 851 H 80.7085 -0.356929 0.664167 0
M  V30 852 H 83.3595 -0.199845 1.82409 0
M  V30 853 H 81.7415 -2.52107 3.05382 0
M  V30 854 H 82.9155 -0.120366 4.60643 0
M  V30 855 H 81.2305 -0.26683 4.15544 0
M  V30 856 H 83.8275 -3.03732 4.40058 0
M  V30 857 H 84.1705 -3.17417 2.69355 0
M  V30 858 H 84.7035 -1.72715 3.58349 0
M  V30 859 H 81.4425 -0.967407 6.48322 0
M  V30 860 H 80.9625 -2.37503 5.50774 0
M  V30 861 H 82.6415 -2.21322 6.07968 0
M  V30 862 N 82.7736 -1.49793 -0.48987 0
M  V30 863 C 83.7206 -1.67281 -1.59014 0
M  V30 864 C 84.6906 -0.514177 -1.57941 0
M  V30 865 O 85.8756 -0.742533 -1.75759 0
M  V30 866 C 83.0156 -1.75569 -2.97102 0
M  V30 867 C 82.1286 -3.0281 -3.08107 0
M  V30 868 C 81.2636 -3.02008 -4.36995 0
M  V30 869 C 80.3026 -4.23782 -4.41673 0
M  V30 870 N 79.4396 -4.20826 -5.62005 0
M  V30 871 H 84.2796 -2.61224 -1.43409 0
M  V30 872 H 81.8166 -1.29508 -0.697565 0
M  V30 873 H 83.7746 -1.78354 -3.77155 0
M  V30 874 H 82.4046 -0.850827 -3.11385 0
M  V30 875 H 81.4566 -3.09584 -2.21047 0
M  V30 876 H 82.7686 -3.92801 -3.07423 0
M  V30 877 H 81.9226 -3.03418 -5.25378 0
M  V30 878 H 80.6616 -2.09815 -4.4026 0
M  V30 879 H 79.6666 -4.22604 -3.5169 0
M  V30 880 H 80.8916 -5.17181 -4.40115 0
M  V30 881 H 78.8376 -3.31476 -5.66091 0
M  V30 882 H 78.7546 -5.04564 -5.62984 0
M  V30 883 H 80.0226 -4.26355 -6.52565 0
M  V30 884 N 84.2517 0.741722 -1.39055 0
M  V30 885 C 85.1987 1.85566 -1.37237 0
M  V30 886 C 86.1687 1.64457 -0.233072 0
M  V30 887 O 87.3537 1.85957 -0.427147 0
M  V30 888 C 84.4937 3.23004 -1.215 0
M  V30 889 C 83.6067 3.55864 -2.44918 0
M  V30 890 C 82.7417 4.82669 -2.21821 0
M  V30 891 C 81.7807 5.08351 -3.40948 0
M  V30 892 N 80.9177 6.26356 -3.17211 0
M  V30 893 H 85.7577 1.86455 -2.32462 0
M  V30 894 H 83.2947 0.911176 -1.15482 0
M  V30 895 H 85.2527 4.02331 -1.10389 0
M  V30 896 H 83.8827 3.21411 -0.29908 0
M  V30 897 H 82.9347 2.7129 -2.66657 0
M  V30 898 H 84.2467 3.70765 -3.33668 0
M  V30 899 H 83.4007 5.69962 -2.07914 0
M  V30 900 H 82.1397 4.69929 -1.30454 0
M  V30 901 H 81.1447 4.19522 -3.55361 0
M  V30 902 H 82.3697 5.22981 -4.33207 0
M  V30 903 H 80.3157 6.14917 -2.28502 0
M  V30 904 H 80.2327 6.41813 -3.99515 0
M  V30 905 H 81.5007 7.16506 -3.06984 0
M  V30 906 N 85.7298 1.2412 0.971189 0
M  V30 907 C 86.9768 1.07881 1.71371 0
M  V30 908 C 87.3048 -0.382901 1.90694 0
M  V30 909 O 86.5598 -1.29945 1.46331 0
M  V30 910 C 86.8588 1.75983 3.11071 0
M  V30 911 C 86.5248 3.25909 3.11599 0
M  V30 912 C 85.1868 3.66813 3.11451 0
M  V30 913 C 87.5388 4.21771 3.062 0
M  V30 914 C 84.8668 5.02021 3.03631 0
M  V30 915 C 87.2188 5.56982 2.99923 0
M  V30 916 C 85.8828 5.97237 2.98102 0
M  V30 917 H 85.1528 0.394764 0.62709 0
M  V30 918 H 87.7998 1.54176 1.13587 0
M  V30 919 H 86.1048 1.22072 3.72298 0
M  V30 920 H 87.8018 1.60887 3.6731 0
M  V30 921 H 84.3918 2.93353 3.12477 0
M  V30 922 H 88.5758 3.91172 3.05447 0
M  V30 923 H 83.8318 5.32411 3.0058 0
M  V30 924 H 88.0058 6.30969 2.94704 0
M  V30 925 H 85.6328 7.01967 2.91798 0
M  V30 926 N 87.2079 -1.17134 1.05439 0
M  V30 927 C 88.4329 -1.91913 0.786396 0
M  V30 928 C 88.8579 -1.7643 -0.652234 0
M  V30 929 O 88.2159 -1.08372 -1.45345 0
M  V30 930 C 88.2639 -3.40921 1.17497 0
M  V30 931 O 87.3679 -4.11244 0.308589 0
M  V30 932 H 86.7089 -0.598215 0.288158 0
M  V30 933 H 89.2389 -1.48457 1.4079 0
M  V30 934 H 89.2489 -3.91668 1.14281 0
M  V30 935 H 87.9239 -3.5151 2.22292 0
M  V30 936 H 86.5009 -3.70731 0.40157 0
M  V30 937 N 88.686 -0.835752 -1.33615 0
M  V30 938 C 89.963 -0.352017 -1.92406 0
M  V30 939 C 90.343 1.16225 -1.76224 0
M  V30 940 O 89.691 1.97526 -1.14873 0
M  V30 941 C 89.901 -0.795485 -3.39813 0
M  V30 942 C 91.249 -0.801703 -4.16963 0
M  V30 943 O 92.273 -0.738889 -3.48452 0
M  V30 944 O 91.132 -0.886607 -5.3926 0
M  V30 945 H 88.226 -0.0989641 -0.821057 0
M  V30 946 H 90.772 -0.921397 -1.42507 0
M  V30 947 H 89.544 -1.83795 -3.45449 0
M  V30 948 H 89.167 -0.202505 -3.97084 0
M  V30 949 N 90.1641 1.46063 -0.591896 0
M  V30 950 C 91.0741 2.34192 0.13831 0
M  V30 951 C 92.0901 1.50305 0.876608 0
M  V30 952 O 93.2661 1.8315 0.837728 0
M  V30 953 C 90.3311 3.27656 1.13326 0
M  V30 954 C 89.3921 4.27445 0.39863 0
M  V30 955 C 88.6251 5.16443 1.34618 0
M  V30 956 O 88.8481 5.08553 2.58321 0
M  V30 957 O 87.7821 5.95843 0.851768 0
M  V30 958 H 91.6081 2.98002 -0.58552 0
M  V30 959 H 89.1931 1.45188 -0.352239 0
M  V30 960 H 91.0751 3.85291 1.70671 0
M  V30 961 H 89.7501 2.6643 1.83839 0
M  V30 962 H 88.6571 3.73471 -0.216895 0
M  V30 963 H 89.9901 4.91482 -0.265709 0
M  V30 964 N 91.6422 0.330177 1.54103 0
M  V30 965 C 92.5522 -0.541534 2.28264 0
M  V30 966 C 93.5682 -1.12351 1.32866 0
M  V30 967 O 94.7442 -1.14206 1.65888 0
M  V30 968 C 91.8092 -1.68322 3.03098 0
M  V30 969 C 90.8702 -1.13238 4.14096 0
M  V30 970 C 90.1032 -2.21966 4.85352 0
M  V30 971 O 90.3262 -3.42437 4.56172 0
M  V30 972 O 89.2602 -1.87013 5.7211 0
M  V30 973 H 93.0862 0.060938 3.03639 0
M  V30 974 H 90.6712 0.09565 1.49093 0
M  V30 975 H 92.5532 -2.34777 3.49939 0
M  V30 976 H 91.2282 -2.27176 2.30593 0
M  V30 977 H 90.1352 -0.432736 3.71589 0
M  V30 978 H 91.4682 -0.588898 4.88664 0
M  V30 979 N 93.1203 -1.57491 0.0584922 0
M  V30 980 C 94.3693 -1.92155 -0.613146 0
M  V30 981 C 94.6823 -0.939334 -1.71569 0
M  V30 982 O 95.8883 -1.17829 -2.44599 0
M  V30 983 C 94.3443 -3.41303 -1.14195 0
M  V30 984 C 93.9523 -4.47944 -0.0711265 0
M  V30 985 C 95.6963 -3.84988 -1.78841 0
M  V30 986 C 93.6033 -5.88212 -0.613225 0
M  V30 987 H 92.5333 -0.717162 -0.232796 0
M  V30 988 H 95.1843 -1.83049 0.12857 0
M  V30 989 H 93.5663 -3.45437 -1.93621 0
M  V30 990 H 94.7403 -4.55408 0.702836 0
M  V30 991 H 93.0553 -4.13644 0.478313 0
M  V30 992 H 95.6523 -4.87159 -2.20408 0
M  V30 993 H 95.9953 -3.21632 -2.64308 0
M  V30 994 H 96.5283 -3.83401 -1.06059 0
M  V30 995 H 93.2673 -6.55183 0.203978 0
M  V30 996 H 92.7873 -5.84294 -1.35501 0
M  V30 997 H 94.4663 -6.37687 -1.09383 0
M  V30 998 N 94.5984 0.214957 -1.56127 0
M  V30 999 C 95.5484 1.27006 -1.8935 0
M  V30 1000 C 96.5324 1.41969 -0.757202 0
M  V30 1001 O 97.7244 1.44673 -1.01973 0
M  V30 1002 C 94.8534 2.61911 -2.2194 0
M  V30 1003 C 93.9394 2.50822 -3.41978 0
M  V30 1004 N 94.3304 2.09391 -4.60423 0
M  V30 1005 C 92.6284 2.81765 -3.45723 0
M  V30 1006 C 93.3294 2.09712 -5.42582 0
M  V30 1007 N 92.3054 2.50454 -4.82466 0
M  V30 1008 H 96.1074 0.940734 -2.78437 0
M  V30 1009 H 93.6214 0.423492 -1.56781 0
M  V30 1010 H 95.6184 3.38096 -2.43919 0
M  V30 1011 H 94.2784 2.95684 -1.34169 0
M  V30 1012 H 95.2894 1.80416 -4.85459 0
M  V30 1013 H 91.9664 3.19865 -2.68314 0
M  V30 1014 H 93.3564 1.79748 -6.4741 0
M  V30 1015 N 96.0765 1.50051 0.48192 0
M  V30 1016 C 96.9865 1.7089 1.60728 0
M  V30 1017 C 98.0025 0.591788 1.63627 0
M  V30 1018 O 99.1785 0.868817 1.81696 0
M  V30 1019 C 96.2435 1.78855 2.97005 0
M  V30 1020 C 95.3045 3.02537 3.04581 0
M  V30 1021 C 94.5375 3.10112 4.34357 0
M  V30 1022 O 94.7605 2.24765 5.24249 0
M  V30 1023 O 93.6945 4.02747 4.47301 0
M  V30 1024 H 97.5205 2.66264 1.46072 0
M  V30 1025 H 95.1055 1.34018 0.660264 0
M  V30 1026 H 96.9875 1.86336 3.77964 0
M  V30 1027 H 95.6625 0.866628 3.11883 0
M  V30 1028 H 94.5695 3.00563 2.22739 0
M  V30 1029 H 95.9025 3.94272 2.94636 0
M  V30 1030 N 97.5546 -0.734337 1.39446 0
M  V30 1031 C 98.8316 -1.48579 1.27215 0
M  V30 1032 C 99.2116 -2.1077 -0.117968 0
M  V30 1033 O 98.5596 -1.98646 -1.12924 0
M  V30 1034 C 98.7696 -2.53667 2.39696 0
M  V30 1035 C 100.118 -3.20031 2.79044 0
M  V30 1036 O 101.142 -2.6398 2.39151 0
M  V30 1037 O 100.001 -4.21455 3.47905 0
M  V30 1038 H 97.0946 -0.659816 0.49857 0
M  V30 1039 H 99.6406 -0.768106 1.51322 0
M  V30 1040 H 98.4126 -2.06096 3.32626 0
M  V30 1041 H 98.0356 -3.32994 2.17258 0
M  V30 1042 N 99.0327 -1.24633 -0.964593 0
M  V30 1043 C 99.9427 -1.05859 -2.09359 0
M  V30 1044 C 100.959 0.00148855 -1.74 0
M  V30 1045 O 102.135 -0.197346 -2.00431 0
M  V30 1046 C 99.1997 -0.668879 -3.40187 0
M  V30 1047 C 98.2607 -1.80578 -3.89474 0
M  V30 1048 C 97.4937 -1.43457 -5.14058 0
M  V30 1049 O 97.7167 -0.325775 -5.69469 0
M  V30 1050 O 96.6507 -2.2613 -5.57807 0
M  V30 1051 H 100.477 -2.00516 -2.28094 0
M  V30 1052 H 98.0617 -1.03481 -1.0776 0
M  V30 1053 H 99.9437 -0.463211 -4.18846 0
M  V30 1054 H 98.6187 0.248536 -3.22744 0
M  V30 1055 H 97.5257 -2.06623 -3.11862 0
M  V30 1056 H 98.8587 -2.70208 -4.11398 0
M  V30 1057 N 100.511 1.16574 -1.06058 0
M  V30 1058 C 101.458 2.20883 -0.669263 0
M  V30 1059 C 102.428 1.62729 0.332918 0
M  V30 1060 O 103.613 1.895 0.222346 0
M  V30 1061 C 100.753 3.45049 -0.0593572 0
M  V30 1062 C 99.8658 4.17458 -1.11143 0
M  V30 1063 C 99.0008 5.29135 -0.467916 0
M  V30 1064 C 98.0398 5.93343 -1.50369 0
M  V30 1065 N 97.1768 6.96516 -0.883706 0
M  V30 1066 H 102.017 2.53709 -1.5632 0
M  V30 1067 H 99.5538 1.24616 -0.781625 0
M  V30 1068 H 101.512 4.16033 0.311771 0
M  V30 1069 H 100.142 3.12781 0.797992 0
M  V30 1070 H 99.1938 3.45101 -1.60029 0
M  V30 1071 H 100.506 4.61307 -1.89731 0
M  V30 1072 H 99.6598 6.06684 -0.0436871 0
M  V30 1073 H 98.3988 4.86443 0.349864 0
M  V30 1074 H 97.4038 5.14517 -1.93784 0
M  V30 1075 H 98.6288 6.38114 -2.32352 0
M  V30 1076 H 96.5748 6.55943 -0.086595 0
M  V30 1077 H 96.4918 7.38723 -1.607 0
M  V30 1078 H 97.7598 7.77993 -0.484543 0
M  V30 1079 N 101.989 0.842826 1.3317 0
M  V30 1080 C 102.919 0.294028 2.31641 0
M  V30 1081 C 103.9 -0.600401 1.59151 0
M  V30 1082 O 105.085 -0.523124 1.87022 0
M  V30 1083 C 102.215 -0.528416 3.43257 0
M  V30 1084 C 101.169 0.27056 4.27144 0
M  V30 1085 C 100.495 -0.675881 5.30411 0
M  V30 1086 C 101.795 1.48981 5.00602 0
M  V30 1087 H 103.489 1.11681 2.77791 0
M  V30 1088 H 101.035 0.538478 1.33553 0
M  V30 1089 H 102.988 -0.922674 4.11175 0
M  V30 1090 H 101.712 -1.38445 2.95805 0
M  V30 1091 H 100.371 0.646427 3.60856 0
M  V30 1092 H 100.019 -1.52842 4.79216 0
M  V30 1093 H 99.7189 -0.145374 5.8742 0
M  V30 1094 H 101.243 -1.06757 6.01195 0
M  V30 1095 H 102.657 1.16849 5.61266 0
M  V30 1096 H 101.054 1.95739 5.6728 0
M  V30 1097 H 102.124 2.25746 4.29147 0
M  V30 1098 N 103.467 -1.45747 0.599634 0
M  V30 1099 C 104.414 -2.30467 -0.123849 0
M  V30 1100 C 105.384 -1.41632 -0.86774 0
M  V30 1101 O 106.569 -1.70568 -0.855056 0
M  V30 1102 C 103.709 -3.26402 -1.12051 0
M  V30 1103 C 102.822 -4.3034 -0.37832 0
M  V30 1104 C 101.957 -5.13389 -1.364 0
M  V30 1105 C 100.996 -6.09061 -0.609171 0
M  V30 1106 N 100.133 -6.84918 -1.54374 0
M  V30 1107 H 104.973 -2.91802 0.604627 0
M  V30 1108 H 102.51 -1.43797 0.309972 0
M  V30 1109 H 104.468 -3.80482 -1.7114 0
M  V30 1110 H 103.098 -2.66839 -1.8165 0
M  V30 1111 H 102.15 -3.78984 0.327929 0
M  V30 1112 H 103.462 -4.98354 0.210997 0
M  V30 1113 H 102.616 -5.7183 -2.02719 0
M  V30 1114 H 101.355 -4.45376 -1.98725 0
M  V30 1115 H 100.36 -5.49758 0.0676979 0
M  V30 1116 H 101.585 -6.79099 0.00891991 0
M  V30 1117 H 99.531 -6.19601 -2.15478 0
M  V30 1118 H 99.448 -7.49254 -1.00766 0
M  V30 1119 H 100.716 -7.47906 -2.19676 0
M  V30 1120 N 104.945 -0.338344 -1.53925 0
M  V30 1121 C 106.185 0.260168 -2.02737 0
M  V30 1122 C 106.549 1.48181 -1.22092 0
M  V30 1123 O 107.75 2.15416 -1.60777 0
M  V30 1124 C 106.021 0.571627 -3.52799 0
M  V30 1125 S 107.58 1.14769 -4.23525 0
M  V30 1126 H 104.398 0.077791 -0.706732 0
M  V30 1127 H 107 -0.474899 -1.89644 0
M  V30 1128 H 105.704 -0.325392 -4.09108 0
M  V30 1129 H 105.235 1.3365 -3.70002 0
M  V30 1130 H 107.25 2.43372 -4.32417 0
M  V30 1131 N 106.423 1.57458 -0.0668435 0
M  V30 1132 C 107.653 1.97337 0.611677 0
M  V30 1133 C 108.061 0.943744 1.63982 0
M  V30 1134 O 107.404 -0.0785584 1.83532 0
M  V30 1135 C 107.466 3.33511 1.34205 0
M  V30 1136 C 107.13 4.54598 0.467941 0
M  V30 1137 C 108.127 5.19186 -0.272439 0
M  V30 1138 C 105.812 5.0075 0.39427 0
M  V30 1139 C 107.806 6.28274 -1.07476 0
M  V30 1140 C 105.493 6.09711 -0.411729 0
M  V30 1141 C 106.491 6.73335 -1.14492 0
M  V30 1142 O 106.179 7.80199 -1.93763 0
M  V30 1143 H 105.911 0.654042 0.170893 0
M  V30 1144 H 108.465 2.04961 -0.134289 0
M  V30 1145 H 106.695 3.22487 2.13398 0
M  V30 1146 H 108.384 3.58029 1.91233 0
M  V30 1147 H 109.15 4.84477 -0.225086 0
M  V30 1148 H 105.029 4.51009 0.954569 0
M  V30 1149 H 108.573 6.77866 -1.64755 0
M  V30 1150 H 104.47 6.43854 -0.460664 0
M  V30 1151 H 105.238 7.97053 -1.86142 0
M  V30 1152 N 107.901 -0.206675 1.56239 0
M  V30 1153 C 108.834 -1.28383 1.88661 0
M  V30 1154 C 109.812 -1.44504 0.745481 0
M  V30 1155 O 110.996 -1.60079 0.995336 0
M  V30 1156 C 108.123 -2.65211 2.10667 0
M  V30 1157 C 107.169 -2.66025 3.33366 0
M  V30 1158 S 108.002 -2.18609 4.88846 0
M  V30 1159 C 109.158 -3.57283 5.13906 0
M  V30 1160 H 109.391 -1.00691 2.7973 0
M  V30 1161 H 106.924 -0.409627 1.48867 0
M  V30 1162 H 108.882 -3.43979 2.24029 0
M  V30 1163 H 107.543 -2.90121 1.20369 0
M  V30 1164 H 106.736 -3.66607 3.45855 0
M  V30 1165 H 106.338 -1.95331 3.18938 0
M  V30 1166 H 108.63 -4.53074 5.03717 0
M  V30 1167 H 109.573 -3.49699 6.15724 0
M  V30 1168 H 109.981 -3.51659 4.41583 0
M  V30 1169 N 109.379 -1.50304 -0.473955 0
M  V30 1170 C 110.327 -1.69482 -1.59307 0
M  V30 1171 C 111.321 -0.560669 -1.59853 0
M  V30 1172 O 112.527 -0.741087 -1.64036 0
M  V30 1173 H 108.902 -0.534892 -0.528578 0
M  V30 1174 H 110.873 -2.63364 -1.40293 0
M  V30 1175 C 109.622 -1.80354 -2.97267 0
M  V30 1176 H 108.945 -2.67012 -2.97564 0
M  V30 1177 H 110.385 -1.97798 -3.75036 0
M  V30 1178 C 108.844 -0.55448 -3.32306 0
M  V30 1179 O 109.374 0.307661 -4.0052 0
M  V30 1180 N 107.58 -0.409354 -2.87702 0
M  V30 1181 H 107.127 -1.11196 -2.32364 0
M  V30 1182 H 107.085 0.425223 -3.11511 0
M  V30 1183 N 110.857 0.726932 -1.39834 0
M  V30 1184 C 112.097 1.4992 -1.38936 0
M  V30 1185 C 112.461 1.91996 0.0126883 0
M  V30 1186 O 113.662 2.68399 0.146715 0
M  V30 1187 C 111.933 2.70013 -2.34153 0
M  V30 1188 S 113.492 3.59563 -2.51515 0
M  V30 1189 H 110.31 0.51271 -0.492595 0
M  V30 1190 H 112.912 0.85107 -1.76003 0
M  V30 1191 H 111.616 2.37254 -3.34871 0
M  V30 1192 H 111.147 3.39748 -1.98331 0
M  V30 1193 H 113.162 4.63973 -1.75909 0
M  V30 1194 N 112.336 1.25143 0.95797 0
M  V30 1195 C 113.266 1.07711 2.07173 0
M  V30 1196 C 114.247 -0.0128462 1.70095 0
M  V30 1197 O 115.432 0.156061 1.93572 0
M  V30 1198 C 112.562 0.691503 3.40346 0
M  V30 1199 C 111.516 1.73132 3.9142 0
M  V30 1200 C 110.842 1.20049 5.21049 0
M  V30 1201 C 112.142 3.1294 4.1817 0
M  V30 1202 H 113.836 2.00873 2.22014 0
M  V30 1203 H 111.382 0.967191 1.06684 0
M  V30 1204 H 113.335 0.556505 4.17709 0
M  V30 1205 H 112.059 -0.275819 3.25433 0
M  V30 1206 H 110.718 1.8547 3.16222 0
M  V30 1207 H 110.366 0.223499 5.02503 0
M  V30 1208 H 110.066 1.89545 5.56189 0
M  V30 1209 H 111.59 1.07782 6.01012 0
M  V30 1210 H 113.004 3.03775 4.86203 0
M  V30 1211 H 111.401 3.79875 4.64559 0
M  V30 1212 H 112.471 3.6025 3.24573 0
M  V30 1213 N 113.814 -1.1601 1.06675 0
M  V30 1214 C 115.061 -1.86633 0.785781 0
M  V30 1215 C 115.389 -1.81929 -0.687896 0
M  V30 1216 O 114.644 -1.23253 -1.52011 0
M  V30 1217 C 114.943 -3.35547 1.23057 0
M  V30 1218 C 114.609 -3.60448 2.70902 0
M  V30 1219 C 113.271 -3.66954 3.11285 0
M  V30 1220 C 115.623 -3.7071 3.66365 0
M  V30 1221 C 112.951 -3.81225 4.45965 0
M  V30 1222 C 115.303 -3.86503 5.00797 0
M  V30 1223 C 113.967 -3.91252 5.40813 0
M  V30 1224 H 113.237 -0.682937 0.287538 0
M  V30 1225 H 115.884 -1.37146 1.33654 0
M  V30 1226 H 114.189 -3.87193 0.59907 0
M  V30 1227 H 115.886 -3.88583 0.990163 0
M  V30 1228 H 112.476 -3.56021 2.38636 0
M  V30 1229 H 116.66 -3.64991 3.36296 0
M  V30 1230 H 111.916 -3.83155 4.76447 0
M  V30 1231 H 116.09 -3.93385 5.74649 0
M  V30 1232 H 113.717 -4.02062 6.45174 0
M  V30 1233 N 115.292 -0.849877 -1.32721 0
M  V30 1234 C 116.242 -0.262892 -2.26479 0
M  V30 1235 C 117.226 0.588493 -1.49752 0
M  V30 1236 O 118.418 0.438659 -1.71478 0
M  V30 1237 C 115.547 0.551818 -3.38836 0
M  V30 1238 C 114.633 -0.311689 -4.22953 0
M  V30 1239 N 115.024 -1.39567 -4.86163 0
M  V30 1240 C 113.322 -0.100611 -4.45887 0
M  V30 1241 C 114.023 -1.92651 -5.48872 0
M  V30 1242 N 112.999 -1.22637 -5.29586 0
M  V30 1243 H 116.801 -1.09166 -2.72873 0
M  V30 1244 H 114.315 -0.695486 -1.46754 0
M  V30 1245 H 116.312 0.988713 -4.05006 0
M  V30 1246 H 114.972 1.37844 -2.93988 0
M  V30 1247 H 115.983 -1.77859 -4.86402 0
M  V30 1248 H 112.66 0.691681 -4.11731 0
M  V30 1249 H 114.05 -2.83487 -6.09167 0
M  V30 1250 N 116.77 1.45427 -0.607355 0
M  V30 1251 C 117.68 2.34325 0.113463 0
M  V30 1252 C 118.696 1.51226 0.860617 0
M  V30 1253 O 119.872 1.84029 0.818255 0
M  V30 1254 C 116.937 3.28839 1.09844 0
M  V30 1255 C 115.998 4.27844 0.353271 0
M  V30 1256 C 115.231 5.17842 1.29133 0
M  V30 1257 O 115.454 5.11264 2.52913 0
M  V30 1258 O 114.388 5.96713 0.788523 0
M  V30 1259 H 118.214 2.97364 -0.617094 0
M  V30 1260 H 115.799 1.44807 -0.367619 0
M  V30 1261 H 117.681 3.8708 1.66575 0
M  V30 1262 H 116.356 2.68365 1.81003 0
M  V30 1263 H 115.263 3.7322 -0.256494 0
M  V30 1264 H 116.596 4.91173 -0.317822 0
M  V30 1265 N 118.248 0.346503 1.53744 0
M  V30 1266 C 119.211 -0.496439 2.23759 0
M  V30 1267 C 120.211 -1.0252 1.2388 0
M  V30 1268 O 121.401 -0.913974 1.48297 0
M  V30 1269 C 118.533 -1.69187 2.95954 0
M  V30 1270 H 119.726 0.115952 2.99676 0
M  V30 1271 H 117.279 0.0978939 1.55993 0
M  V30 1272 H 118.014 -2.34288 2.24231 0
M  V30 1273 H 117.799 -1.31989 3.69217 0
M  V30 1274 H 119.289 -2.28969 3.49232 0
M  V30 1275 N 119.726 -1.57421 0.075193 0
M  V30 1276 C 120.673 -2.12915 -0.890843 0
M  V30 1277 C 121.643 -1.04252 -1.29309 0
M  V30 1278 O 122.828 -1.31933 -1.37834 0
M  V30 1279 C 119.968 -2.69795 -2.15186 0
M  V30 1280 C 119.081 -3.92624 -1.80194 0
M  V30 1281 C 118.216 -4.37736 -3.00933 0
M  V30 1282 C 117.255 -5.53205 -2.61974 0
M  V30 1283 N 116.392 -5.9326 -3.75483 0
M  V30 1284 H 121.232 -2.95156 -0.410735 0
M  V30 1285 H 118.769 -1.45854 -0.191086 0
M  V30 1286 H 120.727 -3.00883 -2.89008 0
M  V30 1287 H 119.357 -1.90313 -2.60731 0
M  V30 1288 H 118.409 -3.67977 -0.964218 0
M  V30 1289 H 119.721 -4.76482 -1.47534 0
M  V30 1290 H 118.875 -4.70503 -3.8303 0
M  V30 1291 H 117.614 -3.52739 -3.36789 0
M  V30 1292 H 116.619 -5.20086 -1.783 0
M  V30 1293 H 117.844 -6.39936 -2.27284 0
M  V30 1294 H 115.79 -5.11212 -4.11094 0
M  V30 1295 H 115.707 -6.71865 -3.46602 0
M  V30 1296 H 116.975 -6.30651 -4.58148 0
M  V30 1297 N 121.204 0.198386 -1.56346 0
M  V30 1298 C 122.45 0.920648 -1.80698 0
M  V30 1299 C 122.783 1.83045 -0.648697 0
M  V30 1300 O 122.058 1.91308 0.350925 0
M  V30 1301 C 122.341 1.73971 -3.15287 0
M  V30 1302 C 122.194 0.85485 -4.41602 0
M  V30 1303 C 123.513 2.71296 -3.46535 0
M  V30 1304 H 120.632 0.333261 -0.657348 0
M  V30 1305 H 123.274 0.188198 -1.89066 0
M  V30 1306 H 121.424 2.36416 -3.08285 0
M  V30 1307 H 123.096 0.245362 -4.60647 0
M  V30 1308 H 121.339 0.161398 -4.335 0
M  V30 1309 H 122.01 1.46286 -5.32264 0
M  V30 1310 H 124.486 2.18983 -3.53816 0
M  V30 1311 H 123.362 3.2569 -4.41834 0
M  V30 1312 H 123.623 3.5018 -2.69864 0
M  V30 1313 N 122.682 1.50554 0.465978 0
M  V30 1314 C 123.928 1.62038 1.21949 0
M  V30 1315 C 124.261 0.322116 1.9151 0
M  V30 1316 O 123.536 -0.676723 1.82348 0
M  V30 1317 C 123.819 2.80421 2.25912 0
M  V30 1318 C 123.672 4.20144 1.60622 0
M  V30 1319 C 124.991 2.94354 3.27176 0
M  V30 1320 H 122.11 0.589752 0.441998 0
M  V30 1321 H 124.752 1.82956 0.51257 0
M  V30 1322 H 122.902 2.62717 2.86203 0
M  V30 1323 H 124.574 4.49449 1.03889 0
M  V30 1324 H 122.817 4.24165 0.909211 0
M  V30 1325 H 123.488 4.98914 2.36196 0
M  V30 1326 H 125.964 3.10578 2.76913 0
M  V30 1327 H 124.84 3.788 3.97242 0
M  V30 1328 H 125.101 2.05186 3.916 0
M  V30 1329 N 124.16 -0.719506 1.40217 0
M  V30 1330 C 125.437 -1.47221 1.28784 0
M  V30 1331 C 125.817 -2.10883 -0.0956067 0
M  V30 1332 O 125.165 -1.99833 -1.10811 0
M  V30 1333 C 125.375 -2.5111 2.42373 0
M  V30 1334 C 126.723 -3.17053 2.82423 0
M  V30 1335 O 127.747 -2.61429 2.41937 0
M  V30 1336 O 126.606 -4.17742 3.52355 0
M  V30 1337 H 123.7 -0.654491 0.50554 0
M  V30 1338 H 126.246 -0.752014 1.52128 0
M  V30 1339 H 125.018 -2.02556 3.34793 0
M  V30 1340 H 124.641 -3.3067 2.20778 0
M  V30 1341 N 125.638 -1.25649 -0.95132 0
M  V30 1342 C 126.915 -1.01361 -1.67288 0
M  V30 1343 C 127.295 0.459135 -2.06046 0
M  V30 1344 O 126.643 1.43723 -1.7764 0
M  V30 1345 C 126.853 -1.95256 -2.89268 0
M  V30 1346 C 128.201 -2.23289 -3.61147 0
M  V30 1347 O 129.225 -1.93041 -2.99355 0
M  V30 1348 O 128.084 -2.74741 -4.72419 0
M  V30 1349 H 125.178 -0.38464 -0.732107 0
M  V30 1350 H 127.724 -1.36817 -1.00395 0
M  V30 1351 H 126.496 -2.94685 -2.57442 0
M  V30 1352 H 126.119 -1.60218 -3.6389 0
M  V30 1353 N 127.117 1.15442 -1.07289 0
M  V30 1354 C 128.065 2.22225 -0.686952 0
M  V30 1355 C 129.059 1.66688 0.30193 0
M  V30 1356 O 130.265 1.79236 0.165712 0
M  V30 1357 H 126.64 0.723783 -0.204064 0
M  V30 1358 H 128.611 2.52056 -1.5972 0
M  V30 1359 C 127.36 3.47556 -0.100149 0
M  V30 1360 H 126.683 3.90612 -0.852211 0
M  V30 1361 H 128.123 4.23794 0.132235 0
M  V30 1362 C 126.582 3.16337 1.159 0
M  V30 1363 O 127.112 3.33074 2.24555 0
M  V30 1364 N 125.318 2.70385 1.06491 0
M  V30 1365 H 124.865 2.56966 0.180668 0
M  V30 1366 H 124.823 2.49871 1.90819 0
M  V30 1367 N 128.595 0.856903 1.32268 0
M  V30 1368 C 129.843 0.460474 1.96784 0
M  V30 1369 C 130.164 -0.987701 1.68135 0
M  V30 1370 O 129.434 -1.69058 0.989765 0
M  V30 1371 H 128.014 0.167289 0.728027 0
M  V30 1372 H 130.676 1.09383 1.61312 0
M  V30 1373 H 129.772 0.60739 3.06133 0
M  V30 1374 N 130.073 -1.45103 0.615059 0
M  V30 1375 C 131.35 -1.95549 0.0448276 0
M  V30 1376 C 131.73 -1.55737 -1.4251 0
M  V30 1377 O 131.078 -0.823556 -2.13143 0
M  V30 1378 C 131.288 -3.48098 0.250785 0
M  V30 1379 C 132.636 -4.24384 0.135509 0
M  V30 1380 O 133.66 -3.55738 0.181299 0
M  V30 1381 O 132.519 -5.46493 0.0268878 0
M  V30 1382 H 129.613 -0.8264 -0.0314845 0
M  V30 1383 H 132.159 -1.55232 0.685642 0
M  V30 1384 H 130.931 -3.7007 1.27139 0
M  V30 1385 H 130.554 -3.95323 -0.424937 0
M  V30 1386 N 131.551 -0.354651 -1.53558 0
M  V30 1387 C 132.797 0.238797 -2.01389 0
M  V30 1388 C 133.13 1.49309 -1.2418 0
M  V30 1389 O 132.405 1.91638 -0.332457 0
M  V30 1390 C 132.688 0.541771 -3.56001 0
M  V30 1391 C 132.541 -0.725388 -4.43912 0
M  V30 1392 C 133.86 1.34685 -4.18984 0
M  V30 1393 H 130.979 0.0853177 -0.732045 0
M  V30 1394 H 133.621 -0.477384 -1.83905 0
M  V30 1395 H 131.771 1.15189 -3.71031 0
M  V30 1396 H 133.443 -1.36313 -4.407 0
M  V30 1397 H 131.686 -1.34801 -4.12324 0
M  V30 1398 H 132.357 -0.468505 -5.50008 0
M  V30 1399 H 134.833 0.830837 -4.07721 0
M  V30 1400 H 133.709 1.52759 -5.27215 0
M  V30 1401 H 133.97 2.35221 -3.74331 0
M  V30 1402 N 133.029 1.57378 -0.0835403 0
M  V30 1403 C 133.979 2.09916 0.889905 0
M  V30 1404 C 134.963 1.01151 1.25129 0
M  V30 1405 O 136.155 1.27443 1.2283 0
M  V30 1406 C 133.284 2.67379 2.15322 0
M  V30 1407 C 132.37 3.83167 1.81779 0
M  V30 1408 N 132.761 4.91665 1.18739 0
M  V30 1409 C 131.059 3.92685 2.11459 0
M  V30 1410 C 131.76 5.72409 1.0355 0
M  V30 1411 N 130.736 5.21062 1.54906 0
M  V30 1412 H 134.538 2.91188 0.398378 0
M  V30 1413 H 132.052 1.61956 0.120013 0
M  V30 1414 H 134.049 3.0334 2.8599 0
M  V30 1415 H 132.709 1.87558 2.65051 0
M  V30 1416 H 133.72 5.10784 0.855604 0
M  V30 1417 H 130.397 3.23856 2.63483 0
M  V30 1418 H 131.787 6.69699 0.543425 0
M  V30 1419 N 134.507 -0.190092 1.56449 0
M  V30 1420 C 135.437 -1.23816 1.97969 0
M  V30 1421 C 136.418 -1.47201 0.852395 0
M  V30 1422 O 137.603 -1.58854 1.1171 0
M  V30 1423 C 134.733 -2.5813 2.3235 0
M  V30 1424 C 133.687 -2.49348 3.47864 0
M  V30 1425 C 133.013 -3.8798 3.67934 0
M  V30 1426 C 134.313 -2.01424 4.81898 0
M  V30 1427 H 136.007 -0.89311 2.85769 0
M  V30 1428 H 133.553 -0.428177 1.37487 0
M  V30 1429 H 135.506 -3.31637 2.59991 0
M  V30 1430 H 134.23 -2.94386 1.41438 0
M  V30 1431 H 132.889 -1.78297 3.20321 0
M  V30 1432 H 132.537 -4.21597 2.74344 0
M  V30 1433 H 132.237 -3.82978 4.45648 0
M  V30 1434 H 133.761 -4.63101 3.97957 0
M  V30 1435 H 135.175 -2.64693 5.08538 0
M  V30 1436 H 133.572 -2.07413 5.63116 0
M  V30 1437 H 134.642 -0.967677 4.75146 0
M  V30 1438 N 135.985 -1.50799 -0.457987 0
M  V30 1439 C 136.895 -1.73426 -1.57989 0
M  V30 1440 C 137.911 -0.617745 -1.62665 0
M  V30 1441 O 139.087 -0.897614 -1.80291 0
M  V30 1442 C 136.152 -1.83557 -2.94122 0
M  V30 1443 C 135.213 -3.07345 -2.99729 0
M  V30 1444 C 134.446 -3.16983 -4.29368 0
M  V30 1445 O 134.669 -2.33077 -5.20607 0
M  V30 1446 O 133.603 -4.09812 -4.40837 0
M  V30 1447 H 137.429 -2.68555 -1.41817 0
M  V30 1448 H 135.014 -1.35052 -0.638859 0
M  V30 1449 H 136.896 -1.92326 -3.74952 0
M  V30 1450 H 135.571 -0.916137 -3.10465 0
M  V30 1451 H 134.478 -3.04068 -2.1793 0
M  V30 1452 H 135.811 -3.9891 -2.88326 0
M  V30 1453 N 137.463 0.71206 -1.40597 0
M  V30 1454 C 138.41 1.82613 -1.41142 0
M  V30 1455 C 139.38 1.63925 -0.267903 0
M  V30 1456 O 140.565 1.85009 -0.466495 0
M  V30 1457 C 137.705 3.20354 -1.28324 0
M  V30 1458 C 136.818 3.50589 -2.52411 0
M  V30 1459 C 135.953 4.77855 -2.32009 0
M  V30 1460 C 134.992 5.01005 -3.51654 0
M  V30 1461 N 134.129 6.19487 -3.30425 0
M  V30 1462 H 138.969 1.81482 -2.36365 0
M  V30 1463 H 136.506 0.886475 -1.17388 0
M  V30 1464 H 138.464 3.99899 -1.18899 0
M  V30 1465 H 137.094 3.20705 -0.367189 0
M  V30 1466 H 136.146 2.65573 -2.72351 0
M  V30 1467 H 137.458 3.63604 -3.41458 0
M  V30 1468 H 136.612 5.65424 -2.19956 0
M  V30 1469 H 135.351 4.67056 -1.40392 0
M  V30 1470 H 134.356 4.1189 -3.64179 0
M  V30 1471 H 135.581 5.13674 -4.44202 0
M  V30 1472 H 133.527 6.09932 -2.41494 0
M  V30 1473 H 133.444 6.33194 -4.13039 0
M  V30 1474 H 134.712 7.09834 -3.22113 0
M  V30 1475 N 138.941 1.26152 0.944643 0
M  V30 1476 C 139.871 1.09902 2.06019 0
M  V30 1477 C 140.852 0.00519538 1.70099 0
M  V30 1478 O 142.037 0.176583 1.93396 0
M  V30 1479 C 139.167 0.727562 3.39594 0
M  V30 1480 C 138.121 1.77274 3.89561 0
M  V30 1481 C 137.447 1.25569 5.19747 0
M  V30 1482 C 138.747 3.17357 4.14827 0
M  V30 1483 H 140.441 2.03217 2.19871 0
M  V30 1484 H 137.987 0.978452 1.05652 0
M  V30 1485 H 139.94 0.600777 4.17095 0
M  V30 1486 H 138.664 -0.241287 3.25707 0
M  V30 1487 H 137.323 1.88814 3.14237 0
M  V30 1488 H 136.971 0.276783 5.02238 0
M  V30 1489 H 136.671 1.95433 5.54148 0
M  V30 1490 H 138.195 1.1415 5.99835 0
M  V30 1491 H 139.609 3.08914 4.82954 0
M  V30 1492 H 138.006 3.84781 4.60504 0
M  V30 1493 H 139.076 3.63673 3.20734 0
M  V30 1494 N 140.419 -1.14872 1.07899 0
M  V30 1495 C 141.369 -2.17809 0.674027 0
M  V30 1496 C 142.353 -1.58008 -0.303699 0
M  V30 1497 O 143.545 -1.76616 -0.11654 0
M  V30 1498 C 140.674 -3.43208 0.0793318 0
M  V30 1499 C 139.76 -4.10051 1.08253 0
M  V30 1500 N 140.151 -4.52296 2.2641 0
M  V30 1501 C 138.449 -4.36469 0.917124 0
M  V30 1502 C 139.15 -5.04199 2.901 0
M  V30 1503 N 138.126 -4.98088 2.17736 0
M  V30 1504 H 141.928 -2.48207 1.57386 0
M  V30 1505 H 139.442 -1.315 0.952976 0
M  V30 1506 H 141.439 -4.16272 -0.228719 0
M  V30 1507 H 140.099 -3.14291 -0.815551 0
M  V30 1508 H 141.11 -4.45504 2.64096 0
M  V30 1509 H 137.787 -4.17432 0.0756078 0
M  V30 1510 H 139.177 -5.46802 3.90458 0
M  V30 1511 N 141.898 -0.863906 -1.31812 0
M  V30 1512 C 143.175 -0.39275 -1.91616 0
M  V30 1513 C 143.555 1.12461 -1.7865 0
M  V30 1514 O 142.903 1.95045 -1.19037 0
M  V30 1515 C 143.113 -0.867385 -3.38049 0
M  V30 1516 C 144.461 -0.889966 -4.15168 0
M  V30 1517 O 145.485 -0.812635 -3.46806 0
M  V30 1518 O 144.344 -1.00079 -5.37258 0
M  V30 1519 H 141.438 -0.116358 -0.818773 0
M  V30 1520 H 143.984 -0.951418 -1.40521 0
M  V30 1521 H 142.756 -1.91081 -3.41473 0
M  V30 1522 H 142.379 -0.286687 -3.96565 0
M  V30 1523 N 143.376 1.44774 -0.622745 0
M  V30 1524 C 144.601 2.06999 -0.128968 0
M  V30 1525 C 145.026 1.4617 1.1839 0
M  V30 1526 O 144.384 0.560007 1.72434 0
M  V30 1527 C 144.432 3.60595 -0.0188351 0
M  V30 1528 O 143.536 3.99398 1.02739 0
M  V30 1529 H 142.877 0.659047 -0.0809544 0
M  V30 1530 H 145.407 1.85784 -0.85705 0
M  V30 1531 H 145.417 4.07627 0.174476 0
M  V30 1532 H 144.092 4.04252 -0.977384 0
M  V30 1533 H 142.669 3.64011 0.809326 0
M  V30 1534 N 144.854 0.36279 1.53368 0
M  V30 1535 C 145.784 -0.476976 2.28576 0
M  V30 1536 C 146.765 -1.08631 1.30894 0
M  V30 1537 O 147.95 -1.10409 1.59761 0
M  V30 1538 C 145.08 -1.61828 3.07293 0
M  V30 1539 C 144.034 -1.13633 4.1264 0
M  V30 1540 C 143.36 -2.36766 4.79423 0
M  V30 1541 C 144.66 -0.223061 5.21823 0
M  V30 1542 H 146.354 0.150474 2.99022 0
M  V30 1543 H 143.9 0.0738103 1.43811 0
M  V30 1544 H 145.853 -2.21237 3.58653 0
M  V30 1545 H 144.577 -2.27292 2.34533 0
M  V30 1546 H 143.236 -0.564945 3.62221 0
M  V30 1547 H 142.884 -3.0068 4.03238 0
M  V30 1548 H 142.584 -2.05192 5.50609 0
M  V30 1549 H 144.108 -2.96865 5.33576 0
M  V30 1550 H 145.522 -0.724545 5.68703 0
M  V30 1551 H 143.919 0.001678 6.001 0
M  V30 1552 H 144.989 0.735553 4.79289 0
M  V30 1553 N 146.332 -1.57332 0.0918853 0
M  V30 1554 C 147.743 -1.81496 -0.437739 0
M  V30 1555 C 148.094 -1.00727 -1.6837 0
M  V30 1556 O 147.219 -0.235694 -2.15113 0
M  V30 1557 C 147.814 -3.29197 -0.800939 0
M  V30 1558 C 146.373 -3.54136 -1.27532 0
M  V30 1559 C 145.52 -2.75979 -0.270392 0
M  V30 1560 H 148.471 -1.55494 0.317366 0
M  V30 1561 H 148.492 -3.42344 -1.66074 0
M  V30 1562 H 148.004 -3.87955 0.106078 0
M  V30 1563 H 146.105 -3.00705 -2.20016 0
M  V30 1564 H 146.218 -4.62792 -1.23938 0
M  V30 1565 H 144.582 -2.43349 -0.751872 0
M  V30 1566 H 145.365 -3.37484 0.629248 0
M  V30 1567 N 147.81 0.181792 -1.56548 0
M  V30 1568 C 149.035 0.920019 -1.85877 0
M  V30 1569 C 149.46 1.75494 -0.677021 0
M  V30 1570 O 148.818 1.77399 0.374056 0
M  V30 1571 C 148.866 1.78112 -3.13542 0
M  V30 1572 O 147.97 2.88152 -2.95029 0
M  V30 1573 H 147.311 0.258334 -0.611686 0
M  V30 1574 H 149.841 0.183092 -2.03779 0
M  V30 1575 H 149.851 2.18314 -3.44678 0
M  V30 1576 H 148.526 1.16777 -3.99169 0
M  V30 1577 H 147.103 2.51609 -2.75222 0
M  V30 1578 N 149.288 1.51039 0.449983 0
M  V30 1579 C 150.513 1.6715 1.22783 0
M  V30 1580 C 150.938 0.363081 1.84563 0
M  V30 1581 O 150.296 -0.675433 1.68249 0
M  V30 1582 C 150.344 2.77985 2.29689 0
M  V30 1583 O 149.448 2.40707 3.34864 0
M  V30 1584 H 148.789 0.557746 0.360299 0
M  V30 1585 H 151.319 1.97535 0.533005 0
M  V30 1586 H 151.329 3.01693 2.74673 0
M  V30 1587 H 150.004 3.72935 1.84098 0
M  V30 1588 H 148.581 2.27523 2.95445 0
M  V30 1589 N 150.766 -0.704594 1.40972 0
M  V30 1590 C 151.699 -1.82861 1.36518 0
M  V30 1591 C 152.677 -1.6091 0.23382 0
M  V30 1592 O 153.861 -1.83778 0.419271 0
M  V30 1593 C 150.988 -3.1939 1.12729 0
M  V30 1594 C 150.034 -3.60148 2.28463 0
M  V30 1595 S 150.867 -3.65994 3.90907 0
M  V30 1596 C 152.023 -5.05264 3.69403 0
M  V30 1597 H 152.256 -1.86361 2.3164 0
M  V30 1598 H 149.789 -0.872439 1.27389 0
M  V30 1599 H 151.747 -3.98211 0.996893 0
M  V30 1600 H 150.408 -3.1351 0.192427 0
M  V30 1601 H 149.601 -4.59309 2.07489 0
M  V30 1602 H 149.203 -2.88612 2.37863 0
M  V30 1603 H 151.495 -5.92504 3.28551 0
M  V30 1604 H 152.438 -5.31278 4.68134 0
M  V30 1605 H 152.846 -4.76377 3.02862 0
M  V30 1606 N 152.244 -1.26651 -0.937939 0
M  V30 1607 C 153.194 -1.05156 -2.02302 0
M  V30 1608 C 154.178 0.0171233 -1.60891 0
M  V30 1609 O 155.37 -0.200213 -1.75864 0
M  V30 1610 C 152.499 -0.689962 -3.36295 0
M  V30 1611 C 151.585 -1.79626 -3.84181 0
M  V30 1612 N 151.976 -3.03422 -4.04684 0
M  V30 1613 C 150.274 -1.6806 -4.13124 0
M  V30 1614 C 150.975 -3.75345 -4.444 0
M  V30 1615 N 149.951 -3.03051 -4.51288 0
M  V30 1616 H 153.753 -1.99117 -2.1617 0
M  V30 1617 H 151.267 -1.17216 -1.12402 0
M  V30 1618 H 153.264 -0.517112 -4.13681 0
M  V30 1619 H 151.924 0.242139 -3.23796 0
M  V30 1620 H 152.935 -3.39293 -3.91281 0
M  V30 1621 H 149.612 -0.818629 -4.09396 0
M  V30 1622 H 151.002 -4.81691 -4.68427 0
M  V30 1623 N 153.722 1.14298 -1.08507 0
M  V30 1624 C 154.999 1.81544 -0.728088 0
M  V30 1625 C 155.379 1.95838 0.78808 0
M  V30 1626 O 154.727 1.51904 1.70697 0
M  V30 1627 C 154.937 3.17169 -1.45619 0
M  V30 1628 C 156.285 3.9265 -1.61591 0
M  V30 1629 O 157.309 3.26762 -1.41793 0
M  V30 1630 O 156.168 5.10807 -1.94263 0
M  V30 1631 H 153.262 0.78491 -0.260471 0
M  V30 1632 H 155.808 1.21307 -1.18671 0
M  V30 1633 H 154.58 3.01934 -2.489 0
M  V30 1634 H 154.203 3.851 -0.989124 0
M  V30 1635 N 155.201 0.870884 1.31352 0
M  V30 1636 C 156.45 0.478408 1.95944 0
M  V30 1637 C 156.763 -0.974493 1.69597 0
M  V30 1638 O 157.969 -1.47316 2.28058 0
M  V30 1639 C 156.425 0.804609 3.50791 0
M  V30 1640 C 156.033 2.27433 3.85977 0
M  V30 1641 C 157.777 0.480648 4.2177 0
M  V30 1642 C 155.684 2.5429 5.33939 0
M  V30 1643 H 154.614 0.175175 0.733369 0
M  V30 1644 H 157.265 1.06391 1.4951 0
M  V30 1645 H 155.647 0.148347 3.95722 0
M  V30 1646 H 156.821 2.97373 3.52002 0
M  V30 1647 H 155.136 2.56442 3.28065 0
M  V30 1648 H 157.733 0.658519 5.30629 0
M  V30 1649 H 158.076 -0.578979 4.12254 0
M  V30 1650 H 158.609 1.09349 3.82476 0
M  V30 1651 H 155.348 3.58939 5.48491 0
M  V30 1652 H 154.868 1.88945 5.69263 0
M  V30 1653 H 156.547 2.39066 6.01212 0
M  V30 1654 N 156.679 -1.44442 0.630414 0
M  V30 1655 C 157.642 -2.29107 -0.0652523 0
M  V30 1656 C 158.642 -1.41002 -0.772995 0
M  V30 1657 O 159.832 -1.62881 -0.617692 0
M  V30 1658 C 156.964 -3.22564 -1.10296 0
M  V30 1659 H 158.157 -2.92103 0.679401 0
M  V30 1660 H 155.71 -1.51343 0.390517 0
M  V30 1661 H 156.445 -2.64416 -1.87762 0
M  V30 1662 H 156.23 -3.87491 -0.59941 0
M  V30 1663 H 157.72 -3.86167 -1.5895 0
M  V30 1664 N 158.157 -0.370918 -1.53173 0
M  V30 1665 C 159.09 0.516727 -2.22273 0
M  V30 1666 C 160.068 1.07877 -1.21661 0
M  V30 1667 O 161.252 1.13389 -1.50583 0
M  V30 1668 C 158.379 1.71346 -2.92161 0
M  V30 1669 C 157.425 1.27838 -4.0689 0
M  V30 1670 S 158.258 0.275217 -5.34792 0
M  V30 1671 C 159.414 1.47816 -6.08195 0
M  V30 1672 H 159.647 -0.0701054 -2.97217 0
M  V30 1673 H 157.18 -0.155038 -1.5362 0
M  V30 1674 H 159.138 2.39988 -3.3304 0
M  V30 1675 H 157.799 2.27156 -2.16931 0
M  V30 1676 H 156.992 2.17141 -4.54825 0
M  V30 1677 H 156.594 0.671105 -3.6793 0
M  V30 1678 H 158.886 2.40831 -6.33251 0
M  V30 1679 H 159.829 1.04008 -7.0042 0
M  V30 1680 H 160.237 1.68663 -5.38714 0
M  V30 1681 N 159.635 1.57281 -0.100228 0
M  V30 1682 C 160.585 2.10848 0.86759 0
M  V30 1683 C 161.569 1.02473 1.24049 0
M  V30 1684 O 162.761 1.28739 1.21471 0
M  V30 1685 C 159.89 2.69648 2.12474 0
M  V30 1686 C 158.976 3.85074 1.77704 0
M  V30 1687 N 159.367 4.92897 1.13518 0
M  V30 1688 C 157.665 3.94905 2.07282 0
M  V30 1689 C 158.366 5.73475 0.974735 0
M  V30 1690 N 157.342 5.22675 1.4937 0
M  V30 1691 H 161.144 2.91594 0.367471 0
M  V30 1692 H 158.658 1.62074 0.102829 0
M  V30 1693 H 160.655 3.06356 2.82757 0
M  V30 1694 H 159.315 1.90359 2.63047 0
M  V30 1695 H 160.326 5.11662 0.801381 0
M  V30 1696 H 157.003 3.26633 2.60033 0
M  V30 1697 H 158.393 6.70238 0.472364 0
M  V30 1698 N 161.113 -0.173488 1.56642 0
M  V30 1699 C 162.046 -1.24353 1.91342 0
M  V30 1700 C 163.024 -1.4289 0.775965 0
M  V30 1701 O 164.208 -1.57932 1.02907 0
M  V30 1702 C 161.335 -2.60683 2.16245 0
M  V30 1703 C 160.381 -2.58894 3.38934 0
M  V30 1704 S 161.214 -2.0819 4.93373 0
M  V30 1705 C 162.37 -3.46302 5.21369 0
M  V30 1706 H 162.603 -0.947345 2.81803 0
M  V30 1707 H 160.136 -0.377958 1.49703 0
M  V30 1708 H 162.094 -3.39149 2.31275 0
M  V30 1709 H 160.755 -2.87502 1.26496 0
M  V30 1710 H 159.948 -3.59188 3.53553 0
M  V30 1711 H 159.55 -1.88522 3.2301 0
M  V30 1712 H 161.842 -4.42287 5.13214 0
M  V30 1713 H 162.785 -3.3656 6.23003 0
M  V30 1714 H 163.193 -3.42214 4.48943 0
M  V30 1715 N 162.591 -1.51276 -0.441967 0
M  V30 1716 C 163.839 -1.63392 -1.18943 0
M  V30 1717 C 164.16 -0.350159 -1.9183 0
M  V30 1718 O 163.43 0.633784 -1.85364 0
M  V30 1719 H 162.01 -0.602164 -0.442049 0
M  V30 1720 H 164.672 -1.88186 -0.507165 0
M  V30 1721 H 163.768 -2.45934 -1.92154 0
M  V30 1722 N 164.069 0.697108 -1.41344 0
M  V30 1723 C 165.016 1.81106 -1.43071 0
M  V30 1724 C 165.986 1.63632 -0.285275 0
M  V30 1725 O 167.171 1.84504 -0.486091 0
M  V30 1726 C 164.311 3.18975 -1.31715 0
M  V30 1727 C 163.424 3.47892 -2.56115 0
M  V30 1728 C 162.559 4.75367 -2.37064 0
M  V30 1729 C 161.598 4.97247 -3.56948 0
M  V30 1730 N 160.735 6.15947 -3.36977 0
M  V30 1731 H 165.575 1.78965 -2.38276 0
M  V30 1732 H 163.112 0.873975 -1.18322 0
M  V30 1733 H 165.07 3.98615 -1.23133 0
M  V30 1734 H 163.7 3.20297 -0.401183 0
M  V30 1735 H 162.752 2.62669 -2.75153 0
M  V30 1736 H 164.064 3.59962 -3.45295 0
M  V30 1737 H 163.218 5.63059 -2.25941 0
M  V30 1738 H 161.957 4.65541 -1.45338 0
M  V30 1739 H 160.962 4.08004 -3.68527 0
M  V30 1740 H 162.187 5.08934 -4.49626 0
M  V30 1741 H 160.133 6.07336 -2.47949 0
M  V30 1742 H 160.05 6.28777 -4.19732 0
M  V30 1743 H 161.318 7.06377 -3.29623 0
M  V30 1744 N 165.547 1.27147 0.931209 0
M  V30 1745 C 166.963 1.04475 1.20653 0
M  V30 1746 C 167.163 -0.223885 2.00252 0
M  V30 1747 O 166.219 -0.930332 2.34736 0
M  V30 1748 C 167.532 2.28209 1.95809 0
M  V30 1749 C 169.08 2.33211 2.08762 0
M  V30 1750 C 169.555 3.56665 2.87323 0
M  V30 1751 N 171.046 3.57201 2.94892 0
M  V30 1752 C 171.781 4.49395 3.56134 0
M  V30 1753 N 171.277 5.51889 4.18796 0
M  V30 1754 N 173.07 4.37026 3.53504 0
M  V30 1755 H 165.221 2.08612 0.399333 0
M  V30 1756 H 167.484 0.917312 0.239253 0
M  V30 1757 H 167.19 3.20538 1.44736 0
M  V30 1758 H 167.064 2.33247 2.96438 0
M  V30 1759 H 169.451 1.41391 2.59023 0
M  V30 1760 H 169.532 2.32178 1.07364 0
M  V30 1761 H 169.176 4.4882 2.37746 0
M  V30 1762 H 169.106 3.54948 3.88998 0
M  V30 1763 H 171.597 2.83074 2.50354 0
M  V30 1764 H 171.91 6.18409 4.63454 0
M  V30 1765 H 170.255 5.55735 4.17353 0
M  V30 1766 H 173.446 3.56166 3.03749 0
M  V30 1767 H 173.619 5.09067 4.00942 0
M  V30 1768 N 167.025 -1.13721 1.09112 0
M  V30 1769 C 168.265 -1.86576 0.834801 0
M  V30 1770 C 168.629 -1.81435 -0.628122 0
M  V30 1771 O 169.83 -2.49497 -1.00024 0
M  V30 1772 C 168.101 -3.30872 1.35124 0
M  V30 1773 S 169.66 -4.21257 1.22832 0
M  V30 1774 H 166.478 -0.643666 0.302017 0
M  V30 1775 H 169.08 -1.37085 1.39385 0
M  V30 1776 H 167.784 -3.32166 2.41027 0
M  V30 1777 H 167.315 -3.85423 0.788185 0
M  V30 1778 H 169.33 -4.95884 0.177191 0
M  V30 1779 N 168.503 -0.877838 -1.30888 0
M  V30 1780 C 169.433 -0.35534 -2.3078 0
M  V30 1781 C 170.414 0.557994 -1.60687 0
M  V30 1782 O 171.599 0.473355 -1.88343 0
M  V30 1783 C 168.729 0.437221 -3.44537 0
M  V30 1784 C 167.683 -0.383715 -4.26276 0
M  V30 1785 C 167.009 0.535014 -5.32017 0
M  V30 1786 C 168.309 -1.62201 -4.96476 0
M  V30 1787 H 170.003 -1.19007 -2.74732 0
M  V30 1788 H 167.549 -0.573698 -1.32078 0
M  V30 1789 H 169.502 0.813334 -4.13477 0
M  V30 1790 H 168.226 1.30553 -2.99372 0
M  V30 1791 H 166.885 -0.741874 -3.59015 0
M  V30 1792 H 166.533 1.40083 -4.831 0
M  V30 1793 H 166.233 -0.0104211 -5.87599 0
M  V30 1794 H 167.757 0.907799 -6.03814 0
M  V30 1795 H 169.171 -1.31689 -5.5797 0
M  V30 1796 H 167.568 -2.10711 -5.61891 0
M  V30 1797 H 168.638 -2.37044 -4.23011 0
M  V30 1798 N 169.982 1.44106 -0.638065 0
M  V30 1799 C 171.212 2.06037 -0.152394 0
M  V30 1800 C 171.62 1.47808 1.18108 0
M  V30 1801 O 170.963 0.598092 1.73691 0
M  V30 1802 C 171.025 3.59488 0.0293714 0
M  V30 1803 C 170.689 4.4022 -1.22702 0
M  V30 1804 C 171.686 4.73256 -2.15232 0
M  V30 1805 C 169.371 4.8048 -1.46437 0
M  V30 1806 C 171.365 5.45444 -3.29802 0
M  V30 1807 C 169.052 5.52417 -2.61303 0
M  V30 1808 C 170.05 5.84819 -3.52811 0
M  V30 1809 O 169.738 6.55289 -4.65673 0
M  V30 1810 H 169.47 0.671233 -0.0801401 0
M  V30 1811 H 172.024 1.85851 -0.874563 0
M  V30 1812 H 170.254 3.78191 0.806758 0
M  V30 1813 H 171.943 4.03164 0.470475 0
M  V30 1814 H 172.709 4.42684 -1.98131 0
M  V30 1815 H 168.588 4.54676 -0.760977 0
M  V30 1816 H 172.132 5.70653 -4.01249 0
M  V30 1817 H 168.029 5.82404 -2.78344 0
M  V30 1818 H 168.797 6.73762 -4.64744 0
M  V30 1819 N 171.46 0.379036 1.52974 0
M  V30 1820 C 172.871 -0.0972525 1.86447 0
M  V30 1821 C 173.222 -1.47027 1.29914 0
M  V30 1822 O 172.347 -2.07135 0.626433 0
M  V30 1823 C 172.942 -0.183248 3.38304 0
M  V30 1824 C 171.501 -0.603812 3.71525 0
M  V30 1825 C 170.648 0.240632 2.76254 0
M  V30 1826 H 173.599 0.597316 1.4703 0
M  V30 1827 H 173.62 -1.00432 3.67006 0
M  V30 1828 H 173.132 0.816191 3.79421 0
M  V30 1829 H 171.233 -1.61099 3.35973 0
M  V30 1830 H 171.346 -0.369086 4.77676 0
M  V30 1831 H 169.71 -0.292548 2.53014 0
M  V30 1832 H 170.493 1.23786 3.20206 0
M  V30 1833 N 172.938 -1.57226 0.108567 0
M  V30 1834 C 173.848 -2.18292 -0.859401 0
M  V30 1835 C 174.864 -1.15612 -1.30038 0
M  V30 1836 O 176.04 -1.48039 -1.36552 0
M  V30 1837 C 173.105 -2.762 -2.09558 0
M  V30 1838 C 172.166 -3.93881 -1.70752 0
M  V30 1839 C 171.399 -4.49018 -2.88477 0
M  V30 1840 O 171.622 -4.03068 -4.036 0
M  V30 1841 O 170.556 -5.39852 -2.66164 0
M  V30 1842 H 174.382 -3.01441 -0.369769 0
M  V30 1843 H 171.967 -1.48945 -0.1165 0
M  V30 1844 H 173.849 -3.13156 -2.81978 0
M  V30 1845 H 172.524 -1.96089 -2.57548 0
M  V30 1846 H 171.431 -3.61713 -0.954714 0
M  V30 1847 H 172.764 -4.75396 -1.27513 0
M  V30 1848 N 174.416 0.165178 -1.56732 0
M  V30 1849 C 175.664 0.879068 -1.8198 0
M  V30 1850 C 175.985 1.82514 -0.686561 0
M  V30 1851 O 175.255 1.93694 0.293146 0
M  V30 1852 H 173.835 0.327608 -0.671329 0
M  V30 1853 H 176.497 0.163526 -1.94213 0
M  V30 1854 H 175.593 1.45228 -2.76252 0
M  V30 1855 N 175.894 1.51508 0.433938 0
M  V30 1856 C 176.804 1.75917 1.5521 0
M  V30 1857 C 177.82 0.643545 1.61662 0
M  V30 1858 O 178.996 0.926183 1.7884 0
M  V30 1859 C 176.061 1.88213 2.91164 0
M  V30 1860 C 175.122 3.12074 2.94802 0
M  V30 1861 C 174.355 3.23774 4.24271 0
M  V30 1862 O 174.578 2.4133 5.16833 0
M  V30 1863 O 173.512 4.16774 4.34262 0
M  V30 1864 H 177.338 2.70777 1.37527 0
M  V30 1865 H 174.923 1.36051 0.617293 0
M  V30 1866 H 176.805 1.98267 3.71845 0
M  V30 1867 H 175.48 0.965413 3.08968 0
M  V30 1868 H 174.387 3.07497 2.13065 0
M  V30 1869 H 175.72 4.03446 2.81943 0
M  V30 1870 N 177.372 -0.689602 1.41712 0
M  V30 1871 C 178.6 -1.47827 1.44758 0
M  V30 1872 C 179.015 -1.88721 0.0545703 0
M  V30 1873 O 178.372 -1.57176 -0.927463 0
M  V30 1874 C 178.423 -2.73698 2.3616 0
M  V30 1875 O 178.144 -2.34524 3.7004 0
M  V30 1876 C 179.645 -3.67389 2.48072 0
M  V30 1877 H 176.865 -0.455357 0.49284 0
M  V30 1878 H 179.409 -0.848574 1.86063 0
M  V30 1879 H 177.564 -3.32891 1.98148 0
M  V30 1880 H 177.978 -3.15701 4.18847 0
M  V30 1881 H 179.452 -4.52475 3.16181 0
M  V30 1882 H 179.929 -4.12284 1.51388 0
M  V30 1883 H 180.535 -3.14097 2.86746 0
M  V30 1884 N 178.85 -1.27639 -0.924453 0
M  V30 1885 C 179.78 -1.13166 -2.04244 0
M  V30 1886 C 180.761 -0.032256 -1.70069 0
M  V30 1887 O 181.946 -0.207328 -1.9309 0
M  V30 1888 C 179.076 -0.781496 -3.38393 0
M  V30 1889 C 178.03 -1.83449 -3.86692 0
M  V30 1890 C 177.356 -1.33822 -5.17683 0
M  V30 1891 C 178.656 -3.23917 -4.09726 0
M  V30 1892 H 180.35 -2.06689 -2.1661 0
M  V30 1893 H 177.896 -0.995136 -1.04082 0
M  V30 1894 H 179.849 -0.667057 -4.16087 0
M  V30 1895 H 178.573 0.189439 -3.2605 0
M  V30 1896 H 177.232 -1.93789 -3.11193 0
M  V30 1897 H 176.88 -0.35665 -5.01734 0
M  V30 1898 H 176.58 -2.04224 -5.50968 0
M  V30 1899 H 178.104 -1.23679 -5.97943 0
M  V30 1900 H 179.518 -3.16559 -4.77978 0
M  V30 1901 H 177.915 -3.92059 -4.54324 0
M  V30 1902 H 178.985 -3.68729 -3.14908 0
M  V30 1903 N 180.328 1.1314 -1.09713 0
M  V30 1904 C 181.568 1.8613 -0.844683 0
M  V30 1905 C 181.932 1.81765 0.618491 0
M  V30 1906 O 183.133 2.50024 0.98699 0
M  V30 1907 C 181.404 3.30151 -1.36877 0
M  V30 1908 S 182.963 4.206 -1.25064 0
M  V30 1909 H 179.781 0.642056 -0.305427 0
M  V30 1910 H 182.383 1.36343 -1.4011 0
M  V30 1911 H 181.087 3.30883 -2.42786 0
M  V30 1912 H 180.618 3.85 -0.808614 0
M  V30 1913 H 182.633 4.95783 -0.203486 0
M  V30 1914 N 181.806 0.884767 1.30421 0
M  V30 1915 C 183.083 0.423185 1.90967 0
M  V30 1916 C 183.463 -1.09605 1.80416 0
M  V30 1917 O 182.811 -1.93126 1.22125 0
M  V30 1918 C 183.021 0.921056 3.36627 0
M  V30 1919 C 184.369 0.955903 4.137 0
M  V30 1920 O 185.393 0.867706 3.4547 0
M  V30 1921 O 184.252 1.08614 5.35598 0
M  V30 1922 H 181.346 0.129369 0.816819 0
M  V30 1923 H 183.892 0.973653 1.3899 0
M  V30 1924 H 182.664 1.96489 3.3839 0
M  V30 1925 H 182.287 0.349741 3.96059 0
M  V30 1926 N 183.284 -1.43765 0.645699 0
M  V30 1927 C 184.231 -2.30745 -0.0504648 0
M  V30 1928 C 185.201 -1.4432 -0.822241 0
M  V30 1929 O 186.386 -1.73202 -0.800358 0
M  V30 1930 C 183.526 -3.29802 -1.0161 0
M  V30 1931 C 182.639 -4.31326 -0.241219 0
M  V30 1932 C 181.774 -5.17469 -1.19998 0
M  V30 1933 C 180.813 -6.10691 -0.415094 0
M  V30 1934 N 179.95 -6.89483 -1.32506 0
M  V30 1935 H 184.79 -2.8973 0.697155 0
M  V30 1936 H 182.327 -1.42738 0.355563 0
M  V30 1937 H 184.285 -3.85734 -1.58949 0
M  V30 1938 H 182.915 -2.72483 -1.73069 0
M  V30 1939 H 181.967 -3.77749 0.448334 0
M  V30 1940 H 183.279 -4.9743 0.369437 0
M  V30 1941 H 182.433 -5.7799 -1.84424 0
M  V30 1942 H 181.172 -4.51473 -1.84455 0
M  V30 1943 H 180.177 -5.49265 0.242565 0
M  V30 1944 H 181.402 -6.78727 0.224966 0
M  V30 1945 H 179.348 -6.26142 -1.95657 0
M  V30 1946 H 179.265 -7.52081 -0.768783 0
M  V30 1947 H 180.533 -7.54516 -1.9577 0
M  V30 1948 N 184.763 -0.387143 -1.52771 0
M  V30 1949 C 185.726 0.436939 -2.24997 0
M  V30 1950 C 186.726 0.991991 -1.26555 0
M  V30 1951 O 187.916 0.874335 -1.50669 0
M  V30 1952 C 185.048 1.61281 -3.00335 0
M  V30 1953 H 186.241 -0.195365 -2.99263 0
M  V30 1954 H 183.794 -0.139218 -1.55679 0
M  V30 1955 H 184.529 2.2826 -2.30364 0
M  V30 1956 H 184.314 1.22154 -3.72587 0
M  V30 1957 H 185.804 2.19629 -3.5518 0
M  V30 1958 N 186.241 1.57166 -0.116904 0
M  V30 1959 C 187.488 1.95123 0.541603 0
M  V30 1960 C 187.816 1.00006 1.6682 0
M  V30 1961 O 187.071 0.0235658 1.95686 0
M  V30 1962 C 187.37 3.39508 1.11664 0
M  V30 1963 C 187.036 4.50762 0.111606 0
M  V30 1964 C 185.698 4.80918 -0.164758 0
M  V30 1965 C 188.05 5.18036 -0.573438 0
M  V30 1966 C 185.378 5.75666 -1.13249 0
M  V30 1967 C 187.73 6.13824 -1.52978 0
M  V30 1968 C 186.394 6.42374 -1.81415 0
M  V30 1969 H 185.664 0.714005 0.198187 0
M  V30 1970 H 188.311 1.9048 -0.197365 0
M  V30 1971 H 186.616 3.40835 1.93232 0
M  V30 1972 H 188.313 3.66189 1.63422 0
M  V30 1973 H 184.903 4.27272 0.337192 0
M  V30 1974 H 189.087 4.94896 -0.373092 0
M  V30 1975 H 184.343 5.96092 -1.35958 0
M  V30 1976 H 188.517 6.65039 -2.06629 0
M  V30 1977 H 186.144 7.15599 -2.56557 0
M  V30 1978 N 187.719 -0.156864 1.56817 0
M  V30 1979 C 188.965 -0.867645 1.83966 0
M  V30 1980 C 189.32 -1.79233 0.699511 0
M  V30 1981 O 188.613 -1.89186 -0.303176 0
M  V30 1982 C 188.807 -1.68737 3.1506 0
M  V30 1983 C 188.636 -0.843548 4.41718 0
M  V30 1984 C 187.406 -0.512994 5.02689 0
M  V30 1985 C 189.604 -0.178416 5.1399 0
M  V30 1986 N 187.586 0.345456 6.12927 0
M  V30 1987 C 188.957 0.540586 6.17639 0
M  V30 1988 C 191.012 -0.0980696 4.97803 0
M  V30 1989 C 189.715 1.33233 7.06853 0
M  V30 1990 C 191.741 0.680387 5.87473 0
M  V30 1991 C 191.103 1.3877 6.90596 0
M  V30 1992 H 187.202 -0.295642 0.723961 0
M  V30 1993 H 189.786 -0.13365 1.94241 0
M  V30 1994 H 187.957 -2.39268 3.0595 0
M  V30 1995 H 189.689 -2.34056 3.30151 0
M  V30 1996 H 186.444 -0.846476 4.65974 0
M  V30 1997 H 186.868 0.765415 6.72659 0
M  V30 1998 H 191.51 -0.630562 4.18071 0
M  V30 1999 H 189.228 1.87612 7.8602 0
M  V30 2000 H 192.814 0.744415 5.77018 0
M  V30 2001 H 191.694 1.9804 7.58782 0
M  V30 2002 N 189.197 -1.51736 -0.425897 0
M  V30 2003 C 190.127 -1.76827 -1.52494 0
M  V30 2004 C 191.108 -0.618524 -1.58456 0
M  V30 2005 O 192.293 -0.862416 -1.74 0
M  V30 2006 C 189.423 -1.90374 -2.90474 0
M  V30 2007 C 188.377 -3.0588 -2.99369 0
M  V30 2008 C 187.703 -3.04625 -4.3944 0
M  V30 2009 C 189.003 -4.45644 -2.72394 0
M  V30 2010 H 190.697 -2.68855 -1.31748 0
M  V30 2011 H 188.243 -1.29372 -0.632362 0
M  V30 2012 H 190.196 -2.0651 -3.6733 0
M  V30 2013 H 188.92 -0.95004 -3.12477 0
M  V30 2014 H 187.579 -2.89467 -2.24954 0
M  V30 2015 H 187.227 -2.0701 -4.58428 0
M  V30 2016 H 186.927 -3.82195 -4.46319 0
M  V30 2017 H 188.451 -3.22869 -5.18255 0
M  V30 2018 H 189.865 -4.62348 -3.38979 0
M  V30 2019 H 188.262 -5.25006 -2.9067 0
M  V30 2020 H 189.332 -4.54893 -1.67929 0
M  V30 2021 N 190.675 0.682077 -1.42076 0
M  V30 2022 C 191.625 1.78823 -1.41444 0
M  V30 2023 C 192.609 1.58323 -0.28681 0
M  V30 2024 O 193.801 1.68926 -0.528498 0
M  V30 2025 C 190.93 3.17232 -1.3122 0
M  V30 2026 C 190.016 3.4338 -2.489 0
M  V30 2027 N 190.407 3.40152 -3.7434 0
M  V30 2028 C 188.705 3.73986 -2.43003 0
M  V30 2029 C 189.406 3.65581 -4.52466 0
M  V30 2030 N 188.382 3.85989 -3.8277 0
M  V30 2031 H 192.184 1.7471 -2.36334 0
M  V30 2032 H 189.698 0.882622 -1.36321 0
M  V30 2033 H 191.695 3.96489 -1.2885 0
M  V30 2034 H 190.355 3.22547 -0.373263 0
M  V30 2035 H 191.366 3.20221 -4.07037 0
M  V30 2036 H 188.043 3.86591 -1.57651 0
M  V30 2037 H 189.433 3.69108 -5.61435 0
M  V30 2038 N 192.153 1.28127 0.917671 0
M  V30 2039 C 193.1 1.11717 2.0196 0
M  V30 2040 C 194.07 0.0153929 1.66093 0
M  V30 2041 O 195.255 0.179596 1.89953 0
M  V30 2042 C 192.395 0.780927 3.36148 0
M  V30 2043 C 191.508 1.96135 3.84909 0
M  V30 2044 C 190.643 1.56609 5.0759 0
M  V30 2045 C 189.682 2.71339 5.48673 0
M  V30 2046 N 188.819 2.32332 6.62545 0
M  V30 2047 H 193.659 2.06003 2.15329 0
M  V30 2048 H 191.196 1.02535 1.05475 0
M  V30 2049 H 193.154 0.56675 4.13333 0
M  V30 2050 H 191.784 -0.124998 3.22558 0
M  V30 2051 H 190.836 2.28777 3.03916 0
M  V30 2052 H 192.148 2.82165 4.1132 0
M  V30 2053 H 191.302 1.31374 5.92305 0
M  V30 2054 H 190.041 0.677014 4.82978 0
M  V30 2055 H 189.046 2.97276 4.62501 0
M  V30 2056 H 190.271 3.60882 5.75274 0
M  V30 2057 H 188.217 1.45889 6.39572 0
M  V30 2058 H 188.134 3.11899 6.88662 0
M  V30 2059 H 189.402 2.10371 7.50576 0
M  V30 2060 N 193.631 -1.12557 1.10312 0
M  V30 2061 C 194.871 -1.8568 0.854543 0
M  V30 2062 C 195.235 -1.82091 -0.608843 0
M  V30 2063 O 196.436 -2.50544 -0.973717 0
M  V30 2064 C 194.707 -3.2942 1.38626 0
M  V30 2065 S 196.266 -4.19931 1.27293 0
M  V30 2066 H 193.084 -0.640427 0.308827 0
M  V30 2067 H 195.686 -1.35599 1.40831 0
M  V30 2068 H 194.39 -3.2959 2.44537 0
M  V30 2069 H 193.921 -3.84566 0.82902 0
M  V30 2070 H 195.936 -4.95668 0.229776 0
M  V30 2071 N 195.109 -0.891671 -1.2995 0
M  V30 2072 C 196.355 -0.523649 -1.96544 0
M  V30 2073 C 196.71 0.918394 -1.69066 0
M  V30 2074 O 196.003 1.64122 -0.988659 0
M  V30 2075 C 196.197 -0.742868 -3.49594 0
M  V30 2076 C 196.026 -2.20467 -3.9195 0
M  V30 2077 C 194.796 -2.85055 -4.17219 0
M  V30 2078 C 196.994 -3.17912 -4.04273 0
M  V30 2079 N 194.976 -4.21762 -4.46083 0
M  V30 2080 C 196.347 -4.39712 -4.37097 0
M  V30 2081 C 198.402 -3.1361 -3.86721 0
M  V30 2082 C 197.105 -5.5776 -4.54199 0
M  V30 2083 C 199.131 -4.30936 -4.05028 0
M  V30 2084 C 198.493 -5.51504 -4.38204 0
M  V30 2085 H 194.592 -0.241072 -0.743914 0
M  V30 2086 H 197.176 -1.15081 -1.5705 0
M  V30 2087 H 195.347 -0.14515 -3.88129 0
M  V30 2088 H 197.079 -0.341081 -4.0326 0
M  V30 2089 H 193.834 -2.35889 -4.10674 0
M  V30 2090 H 194.258 -4.92382 -4.64638 0
M  V30 2091 H 198.9 -2.21489 -3.60142 0
M  V30 2092 H 196.618 -6.50379 -4.79618 0
M  V30 2093 H 200.204 -4.29085 -3.92909 0
M  V30 2094 H 199.084 -6.40778 -4.52077 0
M  V30 2095 N 196.587 1.43421 -0.653314 0
M  V30 2096 C 197.534 2.30768 0.0382271 0
M  V30 2097 C 198.504 1.44755 0.814576 0
M  V30 2098 O 199.689 1.73624 0.791162 0
M  V30 2099 C 196.829 3.30336 0.998599 0
M  V30 2100 C 195.942 4.31448 0.218342 0
M  V30 2101 C 195.077 5.18098 1.17252 0
M  V30 2102 C 194.116 6.10902 0.382702 0
M  V30 2103 N 193.253 6.90176 1.28848 0
M  V30 2104 H 198.093 2.89357 -0.712511 0
M  V30 2105 H 195.63 1.42548 -0.363128 0
M  V30 2106 H 197.588 3.86572 1.56901 0
M  V30 2107 H 196.218 2.73397 1.71621 0
M  V30 2108 H 195.27 3.77506 -0.46836 0
M  V30 2109 H 196.582 4.97227 -0.395812 0
M  V30 2110 H 195.736 5.7896 1.81356 0
M  V30 2111 H 194.475 4.52444 1.82058 0
M  V30 2112 H 193.48 5.49128 -0.27169 0
M  V30 2113 H 194.705 6.78598 -0.260957 0
M  V30 2114 H 192.651 6.27171 1.92334 0
M  V30 2115 H 192.568 7.52478 0.728887 0
M  V30 2116 H 193.836 7.55543 1.91766 0
M  V30 2117 N 198.065 0.39524 1.52563 0
M  V30 2118 C 198.997 -0.472201 2.24283 0
M  V30 2119 C 200.01 -1.02178 1.26742 0
M  V30 2120 O 201.199 -0.923097 1.52778 0
M  V30 2121 C 198.299 -1.66775 2.95024 0
M  V30 2122 C 197.472 -1.2445 4.19322 0
M  V30 2123 C 196.531 -2.30539 4.7301 0
M  V30 2124 O 195.557 -1.91702 5.35947 0
M  V30 2125 N 196.759 -3.6253 4.53379 0
M  V30 2126 H 199.524 0.142282 2.99362 0
M  V30 2127 H 197.085 0.2219 1.60372 0
M  V30 2128 H 199.077 -2.37283 3.27839 0
M  V30 2129 H 197.647 -2.18845 2.23217 0
M  V30 2130 H 196.867 -0.368069 3.92478 0
M  V30 2131 H 198.155 -0.938457 5.0007 0
M  V30 2132 H 197.553 -3.96841 4.03154 0
M  V30 2133 H 196.11 -4.29055 4.90668 0
M  V30 2134 N 199.544 -1.57102 0.125237 0
M  V30 2135 C 200.769 -2.0019 -0.542101 0
M  V30 2136 C 201.194 -1.00449 -1.59034 0
M  V30 2137 O 200.552 0.0229423 -1.81285 0
M  V30 2138 C 200.6 -3.42129 -1.13929 0
M  V30 2139 O 199.704 -3.45307 -2.2547 0
M  V30 2140 H 199.045 -0.650171 -0.134812 0
M  V30 2141 H 201.575 -2.03461 0.215553 0
M  V30 2142 H 201.585 -3.80471 -1.4733 0
M  V30 2143 H 200.26 -4.14237 -0.371531 0
M  V30 2144 H 198.837 -3.1879 -1.93462 0
M  V30 2145 N 201.022 0.148545 -1.56898 0
M  V30 2146 C 202.299 0.890019 -1.74178 0
M  V30 2147 C 202.679 1.99407 -0.692839 0
M  V30 2148 O 202.027 2.26671 0.288505 0
M  V30 2149 C 202.237 1.43389 -3.18183 0
M  V30 2150 C 203.585 1.89791 -3.79822 0
M  V30 2151 O 204.609 1.53134 -3.21603 0
M  V30 2152 O 203.468 2.57387 -4.82093 0
M  V30 2153 H 200.562 0.420496 -0.712118 0
M  V30 2154 H 203.108 0.134591 -1.69165 0
M  V30 2155 H 201.88 0.640383 -3.86024 0
M  V30 2156 H 201.503 2.25287 -3.27615 0
M  V30 2157 N 202.5 1.5196 0.417844 0
M  V30 2158 C 203.911 1.57851 0.997 0
M  V30 2159 C 204.262 0.413714 1.91789 0
M  V30 2160 O 203.387 -0.467057 2.113 0
M  V30 2161 C 203.982 2.86085 1.81496 0
M  V30 2162 C 202.541 2.94483 2.34428 0
M  V30 2163 C 201.688 2.52707 1.14169 0
M  V30 2164 H 204.639 1.57455 0.198392 0
M  V30 2165 H 204.66 2.70947 2.67148 0
M  V30 2166 H 204.172 3.70842 1.14446 0
M  V30 2167 H 202.273 2.142 3.04875 0
M  V30 2168 H 202.386 3.98546 2.65891 0
M  V30 2169 H 200.75 2.06353 1.49301 0
M  V30 2170 H 201.533 3.39828 0.486999 0
M  V30 2171 N 203.978 -0.674533 1.42435 0
M  V30 2172 C 204.925 -1.78807 1.45934 0
M  V30 2173 C 205.895 -1.63157 0.311271 0
M  V30 2174 O 207.08 -1.83707 0.515383 0
M  V30 2175 C 204.22 -3.16839 1.36773 0
M  V30 2176 C 203.333 -3.43774 2.61617 0
M  V30 2177 C 202.468 -4.71536 2.44597 0
M  V30 2178 C 201.507 -4.91505 3.64814 0
M  V30 2179 N 200.644 -6.10508 3.46734 0
M  V30 2180 H 205.484 -1.75151 2.41093 0
M  V30 2181 H 203.021 -0.85504 1.19697 0
M  V30 2182 H 204.979 -3.96606 1.29459 0
M  V30 2183 H 203.609 -3.19619 0.452089 0
M  V30 2184 H 202.661 -2.58259 2.79297 0
M  V30 2185 H 203.973 -3.54423 3.50978 0
M  V30 2186 H 203.127 -5.59393 2.3487 0
M  V30 2187 H 201.866 -4.6317 1.52726 0
M  V30 2188 H 200.871 -4.0209 3.74972 0
M  V30 2189 H 202.096 -5.01716 4.57665 0
M  V30 2190 H 200.042 -6.03315 2.5758 0
M  V30 2191 H 199.959 -6.2202 4.29682 0
M  V30 2192 H 201.227 -7.01044 3.40819 0
M  V30 2193 N 205.456 -1.28612 -0.910864 0
M  V30 2194 C 206.406 -1.09423 -2.00026 0
M  V30 2195 C 207.39 -0.0170079 -1.60891 0
M  V30 2196 O 208.582 -0.237472 -1.754 0
M  V30 2197 C 205.711 -0.76114 -3.34756 0
M  V30 2198 C 204.797 -1.87735 -3.80285 0
M  V30 2199 N 205.188 -3.11938 -3.98156 0
M  V30 2200 C 203.486 -1.76786 -4.09467 0
M  V30 2201 C 204.187 -3.84687 -4.36338 0
M  V30 2202 N 203.163 -3.12555 -4.44759 0
M  V30 2203 H 206.965 -2.03658 -2.11898 0
M  V30 2204 H 204.479 -1.19573 -1.09891 0
M  V30 2205 H 206.476 -0.604743 -4.12491 0
M  V30 2206 H 205.136 0.173403 -3.24237 0
M  V30 2207 H 206.147 -3.47516 -3.83996 0
M  V30 2208 H 202.824 -0.905284 -4.07567 0
M  V30 2209 H 204.214 -4.91518 -4.58104 0
M  V30 2210 N 206.934 1.1197 -1.10907 0
M  V30 2211 C 208.164 1.8713 -0.875553 0
M  V30 2212 C 208.572 1.8016 0.577843 0
M  V30 2213 O 207.915 1.17699 1.41042 0
M  V30 2214 C 207.977 3.37005 -1.2517 0
M  V30 2215 C 207.641 3.67748 -2.71313 0
M  V30 2216 C 208.638 3.65698 -3.69542 0
M  V30 2217 C 206.323 3.96928 -3.07821 0
M  V30 2218 C 208.317 3.92395 -5.023 0
M  V30 2219 C 206.004 4.23284 -4.40765 0
M  V30 2220 C 207.002 4.21005 -5.37814 0
M  V30 2221 O 206.69 4.46704 -6.68364 0
M  V30 2222 H 206.422 0.598786 -0.313737 0
M  V30 2223 H 208.976 1.42568 -1.47863 0
M  V30 2224 H 207.206 3.82146 -0.591741 0
M  V30 2225 H 208.895 3.93519 -0.994877 0
M  V30 2226 H 209.661 3.43211 -3.42682 0
M  V30 2227 H 205.54 3.97841 -2.32902 0
M  V30 2228 H 209.084 3.90531 -5.78041 0
M  V30 2229 H 204.981 4.45246 -4.67361 0
M  V30 2230 H 205.749 4.64299 -6.74069 0
M  V30 2231 N 208.412 0.89855 1.29475 0
M  V30 2232 C 209.659 0.523882 1.95606 0
M  V30 2233 C 209.987 -0.929608 1.70847 0
M  V30 2234 O 209.242 -1.67401 1.01367 0
M  V30 2235 C 209.541 0.761398 3.49195 0
M  V30 2236 C 209.207 2.19207 3.94029 0
M  V30 2237 C 207.869 2.58326 4.05982 0
M  V30 2238 C 210.221 3.12379 4.17216 0
M  V30 2239 C 207.549 3.898 4.38489 0
M  V30 2240 C 209.901 4.43401 4.51197 0
M  V30 2241 C 208.565 4.82394 4.61359 0
M  V30 2242 H 207.835 0.191702 0.715773 0
M  V30 2243 H 210.482 1.13699 1.54094 0
M  V30 2244 H 208.787 0.0653622 3.91745 0
M  V30 2245 H 210.484 0.450904 3.98457 0
M  V30 2246 H 207.074 1.87846 3.85242 0
M  V30 2247 H 211.258 2.83371 4.07449 0
M  V30 2248 H 206.514 4.19734 4.44559 0
M  V30 2249 H 210.688 5.15623 4.68087 0
M  V30 2250 H 208.315 5.84306 4.86303 0
M  V30 2251 N 209.89 -1.43072 0.660911 0
M  V30 2252 C 210.82 -2.33497 -0.0122829 0
M  V30 2253 C 211.801 -1.49903 -0.803925 0
M  V30 2254 O 212.986 -1.78546 -0.763864 0
M  V30 2255 C 210.116 -3.33363 -0.973994 0
M  V30 2256 C 209.07 -4.27003 -0.291928 0
M  V30 2257 C 208.396 -5.16967 -1.36562 0
M  V30 2258 C 209.696 -5.15816 0.820462 0
M  V30 2259 H 211.39 -2.90038 0.742873 0
M  V30 2260 H 208.936 -1.39461 0.358688 0
M  V30 2261 H 210.889 -3.95524 -1.45392 0
M  V30 2262 H 209.613 -2.75095 -1.7604 0
M  V30 2263 H 208.272 -3.66217 0.167623 0
M  V30 2264 H 207.92 -4.55034 -2.14366 0
M  V30 2265 H 207.62 -5.80441 -0.914454 0
M  V30 2266 H 209.144 -5.82003 -1.84675 0
M  V30 2267 H 210.558 -5.71742 0.422366 0
M  V30 2268 H 208.955 -5.8805 1.19656 0
M  V30 2269 H 210.025 -4.55045 1.67518 0
M  V30 2270 N 211.368 -0.403325 -1.52352 0
M  V30 2271 C 212.614 0.174605 -2.02047 0
M  V30 2272 C 212.947 1.45282 -1.28867 0
M  V30 2273 O 212.222 1.90483 -0.393257 0
M  V30 2274 C 212.505 0.428238 -3.57545 0
M  V30 2275 C 212.358 -0.866248 -4.4138 0
M  V30 2276 C 213.677 1.21287 -4.23057 0
M  V30 2277 H 210.796 0.0619851 -0.734389 0
M  V30 2278 H 213.438 -0.53565 -1.82293 0
M  V30 2279 H 211.588 1.03327 -3.74507 0
M  V30 2280 H 213.26 -1.50265 -4.3614 0
M  V30 2281 H 211.503 -1.47851 -4.07827 0
M  V30 2282 H 212.174 -0.643249 -5.48239 0
M  V30 2283 H 214.65 0.700703 -4.10158 0
M  V30 2284 H 213.526 1.35909 -5.31808 0
M  V30 2285 H 213.787 2.23193 -3.81625 0
M  V30 2286 O 212.885 1.59156 -0.274172 0
M  V30 2287 H 213.576 1.91425 0.295987 0
M  V30 END ATOM
M  V30 BEGIN BOND
M  V30 END BOND
M  V30 END CTAB
M  END
$$$$
