drugbank_target|Q8T8E9 UDP-galactose 4-epimerase (DB03435)
 OpenBabel12092120233D

  0  0  0     0  0            999 V3000
M  V30 BEGIN CTAB
M  V30 COUNTS 6068 6136 0 0 0
M  V30 BEGIN ATOM
M  V30 1 H -0.908 1.98254 -0.117106 0
M  V30 2 N 0 1.576 0 0
M  V30 3 C 0.933 2.03868 1.02534 0
M  V30 4 C 1.911 0.928543 1.3348 0
M  V30 5 O 3.095 1.19667 1.45644 0
M  V30 6 C 0.222 2.43627 2.35294 0
M  V30 7 C -0.732 3.65373 2.2001 0
M  V30 8 S 0.101 5.13292 1.52614 0
M  V30 9 C 1.257 5.56322 2.86805 0
M  V30 10 H 1.49 2.90518 0.631377 0
M  V30 11 H -0.977 1.52953 0.210867 0
M  V30 12 H 0.981 2.67203 3.11629 0
M  V30 13 H -0.358 1.57376 2.7183 0
M  V30 14 H -1.165 3.90944 3.18086 0
M  V30 15 H -1.563 3.418 1.51819 0
M  V30 16 H 0.729 5.58782 3.83104 0
M  V30 17 H 1.672 6.56266 2.65933 0
M  V30 18 H 2.08 4.83886 2.90714 0
M  V30 19 N 1.4781 -0.272755 1.55222 0
M  V30 20 C 2.8941 -0.619959 1.47067 0
M  V30 21 C 3.0941 -1.895 0.684978 0
M  V30 22 O 2.1501 -2.51675 0.203931 0
M  V30 23 C 3.4631 -0.746693 2.91282 0
M  V30 24 C 5.0111 -0.840731 3.01497 0
M  V30 25 C 5.4861 -0.99924 4.46967 0
M  V30 26 N 6.9771 -1.06476 4.50796 0
M  V30 27 C 7.7121 -1.20621 5.6057 0
M  V30 28 N 7.2081 -1.31483 6.80209 0
M  V30 29 N 9.0011 -1.23733 5.48312 0
M  V30 30 H 1.1521 0.564606 2.04758 0
M  V30 31 H 3.4151 0.191177 0.928523 0
M  V30 32 H 3.1211 0.119753 3.51496 0
M  V30 33 H 2.9951 -1.6269 3.40311 0
M  V30 34 H 5.3821 -1.69764 2.41379 0
M  V30 35 H 5.4631 0.0640874 2.5572 0
M  V30 36 H 5.1071 -0.146984 5.07687 0
M  V30 37 H 5.0371 -1.91871 4.90401 0
M  V30 38 H 7.5281 -0.993196 3.64615 0
M  V30 39 H 7.8411 -1.42111 7.59621 0
M  V30 40 H 6.1861 -1.28487 6.8302 0
M  V30 41 H 9.3771 -1.14877 4.53785 0
M  V30 42 H 9.5501 -1.34412 6.33906 0
M  V30 43 N 2.9562 -1.48159 -0.537278 0
M  V30 44 C 4.2022 -1.56035 -1.29541 0
M  V30 45 C 4.5352 -0.230377 -1.92829 0
M  V30 46 O 3.8102 0.762952 -1.78911 0
M  V30 47 C 4.0932 -2.69323 -2.39034 0
M  V30 48 C 3.9462 -4.12002 -1.80485 0
M  V30 49 C 5.2652 -2.78408 -3.40847 0
M  V30 50 H 2.3842 -0.567992 -0.469632 0
M  V30 51 H 5.0262 -1.80302 -0.599277 0
M  V30 52 H 3.1762 -2.48763 -2.98412 0
M  V30 53 H 4.8482 -4.43981 -1.25215 0
M  V30 54 H 3.0912 -4.19344 -1.11055 0
M  V30 55 H 3.7622 -4.87077 -2.59731 0
M  V30 56 H 6.2382 -2.97012 -2.91416 0
M  V30 57 H 5.1142 -3.59416 -4.14863 0
M  V30 58 H 5.3752 -1.86269 -4.00944 0
M  V30 59 N 4.4343 0.785586 -1.36625 0
M  V30 60 C 5.3643 1.91259 -1.33949 0
M  V30 61 C 6.3453 1.68795 -0.210325 0
M  V30 62 O 7.5303 1.89854 -0.408561 0
M  V30 63 C 4.6603 3.28339 -1.13186 0
M  V30 64 C 3.6143 3.65335 -2.22967 0
M  V30 65 C 2.9403 5.00806 -1.87342 0
M  V30 66 C 4.2403 3.7352 -3.65075 0
M  V30 67 H 5.9343 1.93755 -2.28253 0
M  V30 68 H 3.4803 0.930788 -1.09874 0
M  V30 69 H 5.4333 4.06804 -1.09948 0
M  V30 70 H 4.1573 3.2624 -0.153332 0
M  V30 71 H 2.8163 2.89169 -2.25337 0
M  V30 72 H 2.4643 4.95233 -0.880545 0
M  V30 73 H 2.1643 5.26529 -2.60846 0
M  V30 74 H 3.6883 5.81687 -1.85667 0
M  V30 75 H 5.1023 4.42168 -3.64911 0
M  V30 76 H 3.4993 4.10731 -4.37516 0
M  V30 77 H 4.5693 2.74527 -3.99703 0
M  V30 78 N 5.9124 1.20967 1.01018 0
M  V30 79 C 7.1584 1.02526 1.74975 0
M  V30 80 C 7.4914 -0.4408 1.89131 0
M  V30 81 O 6.7664 -1.32718 1.42184 0
M  V30 82 C 7.0494 1.71699 3.1653 0
M  V30 83 C 6.9024 3.25791 3.10129 0
M  V30 84 C 8.2214 1.45531 4.15342 0
M  V30 85 H 5.3404 0.373863 0.635134 0
M  V30 86 H 7.9824 1.49071 1.17805 0
M  V30 87 H 6.1324 1.32128 3.65341 0
M  V30 88 H 7.8044 3.74697 2.69072 0
M  V30 89 H 6.0474 3.56363 2.47362 0
M  V30 90 H 6.7184 3.69353 4.10222 0
M  V30 91 H 9.1944 1.79872 3.75213 0
M  V30 92 H 8.0704 1.96453 5.1254 0
M  V30 93 H 8.3314 0.384237 4.40427 0
M  V30 94 N 7.3905 -1.2043 1.01659 0
M  V30 95 C 8.6305 -1.91507 0.714456 0
M  V30 96 C 8.9945 -1.77073 -0.742237 0
M  V30 97 O 10.1955 -2.42631 -1.15688 0
M  V30 98 C 8.4665 -3.38795 1.13809 0
M  V30 99 S 10.0255 -4.28216 0.957925 0
M  V30 100 H 6.8435 -0.661571 0.260471 0
M  V30 101 H 9.4455 -1.45671 1.30384 0
M  V30 102 H 8.1495 -3.46822 2.19415 0
M  V30 103 H 7.6805 -3.89656 0.541474 0
M  V30 104 H 9.6955 -4.96007 -0.138531 0
M  V30 105 N 8.8686 -0.792821 -1.36206 0
M  V30 106 C 10.1166 -0.366062 -1.98757 0
M  V30 107 C 10.4376 1.0668 -1.63231 0
M  V30 108 O 9.7076 1.73587 -0.907978 0
M  V30 109 H 8.2876 -0.132364 -0.735179 0
M  V30 110 H 10.9496 -1.01562 -1.66347 0
M  V30 111 H 10.0456 -0.460638 -3.08682 0
M  V30 112 N 10.3467 1.47872 -0.545128 0
M  V30 113 C 11.5947 2.02093 -0.016553 0
M  V30 114 C 11.9157 1.42305 1.3332 0
M  V30 115 O 11.1857 0.593853 1.86682 0
M  V30 116 H 9.7657 0.746993 -0.00313038 0
M  V30 117 H 12.4277 1.81414 -0.712397 0
M  V30 118 H 11.5237 3.11996 0.0805422 0
M  V30 119 N 11.8248 0.280983 1.55075 0
M  V30 120 C 12.7878 -0.590896 2.21452 0
M  V30 121 C 13.7878 -1.07682 1.19421 0
M  V30 122 O 14.9778 -0.97605 1.44288 0
M  V30 123 C 12.1098 -1.81587 2.88511 0
M  V30 124 H 13.3028 -0.0112554 2.99898 0
M  V30 125 H 10.8558 0.0316438 1.56268 0
M  V30 126 H 11.5908 -2.43587 2.14093 0
M  V30 127 H 11.3758 -1.4753 3.63287 0
M  V30 128 H 12.8658 -2.43575 3.39206 0
M  V30 129 N 13.3029 -1.57598 0.00835791 0
M  V30 130 C 14.5509 -1.90551 -0.6734 0
M  V30 131 C 14.8719 -0.883301 -1.73847 0
M  V30 132 O 14.1419 0.0781442 -1.95744 0
M  V30 133 H 12.7219 -0.703312 -0.251717 0
M  V30 134 H 15.3839 -1.94833 0.0512592 0
M  V30 135 H 14.4799 -2.9056 -1.13935 0
M  V30 136 N 14.781 0.264519 -1.55364 0
M  V30 137 C 16.011 1.01153 -1.80143 0
M  V30 138 C 16.419 1.80115 -0.579253 0
M  V30 139 O 15.762 1.77813 0.46132 0
M  V30 140 C 15.824 2.01098 -2.97993 0
M  V30 141 C 15.488 1.40995 -4.34706 0
M  V30 142 C 16.485 0.821316 -5.13372 0
M  V30 143 C 14.17 1.43461 -4.81378 0
M  V30 144 C 16.164 0.265339 -6.36847 0
M  V30 145 C 13.851 0.874771 -6.04807 0
M  V30 146 C 14.849 0.291146 -6.82379 0
M  V30 147 O 14.537 -0.260093 -8.03479 0
M  V30 148 H 14.269 0.304125 -0.603725 0
M  V30 149 H 16.823 0.298089 -2.03225 0
M  V30 150 H 15.053 2.76224 -2.70623 0
M  V30 151 H 16.742 2.61997 -3.1002 0
M  V30 152 H 17.508 0.794903 -4.78442 0
M  V30 153 H 13.387 1.87826 -4.21002 0
M  V30 154 H 16.931 -0.190837 -6.97339 0
M  V30 155 H 12.828 0.898452 -6.39217 0
M  V30 156 H 13.596 -0.150265 -8.18362 0
M  V30 157 N 16.2591 1.48442 0.529413 0
M  V30 158 C 17.5081 1.55742 1.28169 0
M  V30 159 C 17.8211 0.236511 1.94165 0
M  V30 160 O 19.0271 0.187761 2.7085 0
M  V30 161 C 17.4831 2.74667 2.32564 0
M  V30 162 C 17.0911 4.13402 1.72636 0
M  V30 163 C 18.8351 2.9128 3.08798 0
M  V30 164 C 16.7421 5.23587 2.74975 0
M  V30 165 H 15.6721 0.579796 0.48203 0
M  V30 166 H 18.3231 1.74776 0.559056 0
M  V30 167 H 16.7051 2.49067 3.07866 0
M  V30 168 H 17.8791 4.49022 1.03519 0
M  V30 169 H 16.1941 4.0191 1.08892 0
M  V30 170 H 18.7911 3.70767 3.85274 0
M  V30 171 H 19.1341 2.00757 3.64695 0
M  V30 172 H 19.6671 3.16782 2.40611 0
M  V30 173 H 16.4061 6.16076 2.23897 0
M  V30 174 H 15.9261 4.92454 3.42417 0
M  V30 175 H 17.6051 5.51724 3.37949 0
M  V30 176 N 17.7372 -0.778329 1.37039 0
M  V30 177 C 18.9852 -1.53361 1.31623 0
M  V30 178 C 19.3062 -1.94739 -0.100831 0
M  V30 179 O 18.5762 -1.65797 -1.04347 0
M  V30 180 H 17.1562 -0.568794 0.484234 0
M  V30 181 H 19.8182 -0.926742 1.71457 0
M  V30 182 H 18.9142 -2.43606 1.95096 0
M  V30 183 N 19.2153 -1.21501 -1.00376 0
M  V30 184 C 20.4403 -1.05977 -1.78279 0
M  V30 185 C 20.8653 0.385994 -1.84097 0
M  V30 186 O 20.2233 1.27849 -1.28547 0
M  V30 187 C 20.2713 -1.66302 -3.19963 0
M  V30 188 O 19.3753 -0.909333 -4.0225 0
M  V30 189 H 18.7163 -0.372906 -0.549397 0
M  V30 190 H 21.2463 -1.6107 -1.26165 0
M  V30 191 H 21.2563 -1.70574 -3.70632 0
M  V30 192 H 19.9313 -2.71515 -3.15043 0
M  V30 193 H 18.5083 -0.941795 -3.60811 0
M  V30 194 N 20.6934 1.19889 -1.02296 0
M  V30 195 C 21.6434 2.20777 -0.56934 0
M  V30 196 C 22.6274 1.56379 0.378741 0
M  V30 197 O 23.8194 1.75859 0.200673 0
M  V30 198 C 20.9484 3.43196 0.0845077 0
M  V30 199 C 20.0344 4.14749 -0.88566 0
M  V30 200 N 20.4254 4.62584 -2.04573 0
M  V30 201 C 18.7234 4.40347 -0.707835 0
M  V30 202 C 19.4244 5.17466 -2.65714 0
M  V30 203 N 18.4004 5.0791 -1.93723 0
M  V30 204 H 22.2024 2.55434 -1.45365 0
M  V30 205 H 19.7164 1.35897 -0.88915 0
M  V30 206 H 21.7134 4.14707 0.427067 0
M  V30 207 H 20.3734 3.10042 0.964574 0
M  V30 208 H 21.3844 4.57597 -2.4254 0
M  V30 209 H 18.0614 4.17317 0.12364 0
M  V30 210 H 19.4514 5.64808 -3.63925 0
M  V30 211 N 22.1715 0.800033 1.35784 0
M  V30 212 C 23.4185 0.377342 1.98953 0
M  V30 213 C 23.7465 -1.05378 1.6348 0
M  V30 214 O 23.0015 -1.74459 0.886707 0
M  V30 215 C 23.3005 0.500276 3.53881 0
M  V30 216 C 22.9665 1.89375 4.09204 0
M  V30 217 C 21.6285 2.27499 4.24025 0
M  V30 218 C 23.9805 2.8057 4.39238 0
M  V30 219 C 21.3085 3.562 4.66195 0
M  V30 220 C 23.6605 4.0871 4.82844 0
M  V30 221 C 22.3245 4.46843 4.95871 0
M  V30 222 H 21.5945 0.138079 0.728021 0
M  V30 223 H 24.2415 1.01955 1.62103 0
M  V30 224 H 22.5465 -0.225405 3.91151 0
M  V30 225 H 24.2435 0.154097 4.00704 0
M  V30 226 H 20.8335 1.58753 3.98115 0
M  V30 227 H 25.0175 2.52367 4.27346 0
M  V30 228 H 20.2735 3.85602 4.74469 0
M  V30 229 H 24.4475 4.79481 5.05046 0
M  V30 230 H 22.0745 5.46623 5.28306 0
M  V30 231 N 23.6496 -1.47581 0.552962 0
M  V30 232 C 24.8956 -2.02782 0.0273648 0
M  V30 233 C 25.2286 -1.42687 -1.31734 0
M  V30 234 O 24.5036 -0.580897 -1.85623 0
M  V30 235 C 24.7866 -3.60031 -0.0702371 0
M  V30 236 C 24.6396 -4.30566 1.30126 0
M  V30 237 C 25.9586 -4.33028 -0.785771 0
M  V30 238 H 23.0776 -0.736912 0.0114185 0
M  V30 239 H 25.7196 -1.76056 0.714432 0
M  V30 240 H 23.8696 -3.82932 -0.655382 0
M  V30 241 H 25.5416 -4.19018 1.92929 0
M  V30 242 H 23.7846 -3.91086 1.87709 0
M  V30 243 H 24.4556 -5.39114 1.18573 0
M  V30 244 H 26.9316 -4.15095 -0.288982 0
M  V30 245 H 25.8076 -5.42695 -0.823013 0
M  V30 246 H 26.0686 -4.01945 -1.841 0
M  V30 247 N 25.1277 -0.289203 -1.54924 0
M  V30 248 C 26.5437 0.0645403 -1.59469 0
M  V30 249 C 26.7437 1.53419 -1.30632 0
M  V30 250 O 25.7997 2.2852 -1.074 0
M  V30 251 C 27.1127 -0.32278 -2.98963 0
M  V30 252 C 28.6607 -0.270564 -3.11828 0
M  V30 253 C 29.1357 -0.632532 -4.53611 0
M  V30 254 N 30.6267 -0.584617 -4.59496 0
M  V30 255 C 31.3617 -0.837314 -5.67254 0
M  V30 256 N 30.8577 -1.15536 -6.83098 0
M  V30 257 N 32.6507 -0.765166 -5.56868 0
M  V30 258 H 24.8017 -1.24714 -1.71931 0
M  V30 259 H 27.0647 -0.504809 -0.802416 0
M  V30 260 H 26.7707 -1.34541 -3.24948 0
M  V30 261 H 26.6447 0.32944 -3.75759 0
M  V30 262 H 29.0317 0.742805 -2.85598 0
M  V30 263 H 29.1127 -0.957242 -2.37214 0
M  V30 264 H 28.7567 -1.64365 -4.80569 0
M  V30 265 H 28.6867 0.07609 -5.26545 0
M  V30 266 H 31.1777 -0.349248 -3.76283 0
M  V30 267 H 31.4907 -1.33447 -7.61191 0
M  V30 268 H 29.8357 -1.19328 -6.84679 0
M  V30 269 H 33.0267 -0.516432 -4.65243 0
M  V30 270 H 33.1997 -0.965477 -6.40767 0
M  V30 271 N 26.6058 1.57591 -0.0167156 0
M  V30 272 C 27.5688 2.08393 0.954204 0
M  V30 273 C 28.5688 0.996531 1.26198 0
M  V30 274 O 29.7588 1.25858 1.20438 0
M  V30 275 C 26.8908 2.5394 2.27436 0
M  V30 276 H 28.0838 2.95455 0.514451 0
M  V30 277 H 25.6368 1.54582 0.231089 0
M  V30 278 H 26.3718 1.70171 2.76066 0
M  V30 279 H 26.1568 3.33371 2.06412 0
M  V30 280 H 27.6468 2.93512 2.97053 0
M  V30 281 N 28.0839 -0.256276 1.55502 0
M  V30 282 C 29.0139 -1.32102 1.92539 0
M  V30 283 C 29.9949 -1.50684 0.789194 0
M  V30 284 O 31.1799 -1.63449 1.04872 0
M  V30 285 C 28.3099 -2.67752 2.21192 0
M  V30 286 C 27.2639 -2.63878 3.36975 0
M  V30 287 C 26.5899 -4.03236 3.51147 0
M  V30 288 C 27.8899 -2.21682 4.72921 0
M  V30 289 H 29.5839 -1.01351 2.81724 0
M  V30 290 H 27.1299 -0.486105 1.35547 0
M  V30 291 H 29.0829 -3.42365 2.45691 0
M  V30 292 H 27.8069 -3.0012 1.28824 0
M  V30 293 H 26.4659 -1.91722 3.12471 0
M  V30 294 H 26.1139 -4.32854 2.56216 0
M  V30 295 H 25.8139 -4.01535 4.29003 0
M  V30 296 H 27.3379 -4.79563 3.77957 0
M  V30 297 H 28.7519 -2.86023 4.96854 0
M  V30 298 H 27.1489 -2.3111 5.53812 0
M  V30 299 H 28.2189 -1.16833 4.70615 0
M  V30 300 N 29.562 -1.4872 -0.521534 0
M  V30 301 C 30.492 -1.66771 -1.63431 0
M  V30 302 C 31.473 -0.516499 -1.62069 0
M  V30 303 O 32.658 -0.750013 -1.79132 0
M  V30 304 C 29.788 -1.71515 -3.01993 0
M  V30 305 C 28.742 -2.86222 -3.18216 0
M  V30 306 C 28.068 -2.76061 -4.57924 0
M  V30 307 C 29.368 -4.27419 -3.00184 0
M  V30 308 H 31.062 -2.59932 -1.48579 0
M  V30 309 H 28.608 -1.25089 -0.713358 0
M  V30 310 H 30.561 -1.82731 -3.7972 0
M  V30 311 H 29.285 -0.749393 -3.17886 0
M  V30 312 H 27.944 -2.74575 -2.42908 0
M  V30 313 H 27.592 -1.77437 -4.70665 0
M  V30 314 H 27.292 -3.53037 -4.69722 0
M  V30 315 H 28.816 -2.89256 -5.37739 0
M  V30 316 H 30.23 -4.39855 -3.67697 0
M  V30 317 H 28.627 -5.05458 -3.2347 0
M  V30 318 H 29.697 -4.43293 -1.96518 0
M  V30 319 N 31.0401 0.771051 -1.3745 0
M  V30 320 C 32.4561 1.07171 -1.18265 0
M  V30 321 C 32.6561 2.01491 -0.019287 0
M  V30 322 O 31.7121 2.44244 0.640408 0
M  V30 323 C 33.0251 1.66854 -2.50161 0
M  V30 324 C 34.5731 1.79109 -2.56689 0
M  V30 325 C 35.0481 2.42205 -3.88717 0
M  V30 326 N 36.5391 2.49655 -3.90162 0
M  V30 327 C 37.2741 2.9933 -4.8907 0
M  V30 328 N 36.7701 3.49172 -5.98374 0
M  V30 329 N 38.5631 2.9821 -4.76474 0
M  V30 330 H 30.7141 0.144796 -2.11906 0
M  V30 331 H 32.9771 0.126863 -0.939473 0
M  V30 332 H 32.6831 1.05017 -3.35655 0
M  V30 333 H 32.5571 2.6614 -2.673 0
M  V30 334 H 34.9441 2.40077 -1.71601 0
M  V30 335 H 35.0251 0.785757 -2.43433 0
M  V30 336 H 34.6691 1.81875 -4.74219 0
M  V30 337 H 34.5991 3.43345 -3.99276 0
M  V30 338 H 37.0901 2.14383 -3.11205 0
M  V30 339 H 37.4031 3.8548 -6.69795 0
M  V30 340 H 35.7481 3.47275 -6.02018 0
M  V30 341 H 38.9391 2.58572 -3.90203 0
M  V30 342 H 39.1121 3.36613 -5.53711 0
M  V30 343 N 32.5182 1.22032 0.997298 0
M  V30 344 C 33.7952 0.950823 1.70935 0
M  V30 345 C 34.1752 -0.535292 2.042 0
M  V30 346 O 33.5232 -1.50217 1.72183 0
M  V30 347 C 33.7332 1.84386 2.96315 0
M  V30 348 C 35.0812 2.09732 3.69185 0
M  V30 349 O 36.1052 1.81798 3.06314 0
M  V30 350 O 34.9642 2.57018 4.82291 0
M  V30 351 H 32.0582 0.357204 0.745878 0
M  V30 352 H 34.6042 1.32997 1.05404 0
M  V30 353 H 33.3762 2.84928 2.68201 0
M  V30 354 H 32.9992 1.46602 3.69586 0
M  V30 355 N 33.9963 -1.19345 1.0293 0
M  V30 356 C 35.2243 -1.92997 0.745644 0
M  V30 357 C 35.6393 -1.75519 -0.695589 0
M  V30 358 O 34.9963 -1.07737 -1.47306 0
M  V30 359 C 35.0473 -3.44741 1.08792 0
M  V30 360 O 34.7683 -3.61658 2.47256 0
M  V30 361 C 36.2693 -4.35515 0.827129 0
M  V30 362 H 33.4893 -0.613042 0.272801 0
M  V30 363 H 36.0333 -1.51473 1.3739 0
M  V30 364 H 34.1883 -3.84097 0.504832 0
M  V30 365 H 34.6023 -4.55514 2.60015 0
M  V30 366 H 36.0763 -5.40589 1.11658 0
M  V30 367 H 36.5533 -4.38552 -0.238436 0
M  V30 368 H 37.1593 -4.01841 1.39297 0
M  V30 369 N 35.4744 -0.807222 -1.35358 0
M  V30 370 C 36.4224 -0.20614 -2.31685 0
M  V30 371 C 37.4164 0.644445 -1.56663 0
M  V30 372 O 38.6224 0.537538 -1.71786 0
M  V30 373 H 34.9974 -0.0479006 -0.750473 0
M  V30 374 H 36.9684 -1.03369 -2.79924 0
M  V30 375 C 35.7174 0.630212 -3.41941 0
M  V30 376 H 35.0404 -0.0149558 -3.99797 0
M  V30 377 H 36.4804 1.01716 -4.11619 0
M  V30 378 C 34.9394 1.79601 -2.85035 0
M  V30 379 O 35.4694 2.89351 -2.78637 0
M  V30 380 N 33.6754 1.60774 -2.42074 0
M  V30 381 H 33.2224 0.715009 -2.47478 0
M  V30 382 H 33.1804 2.38933 -2.04349 0
M  V30 383 N 36.9525 1.47285 -0.560781 0
M  V30 384 C 37.9025 2.27073 0.205384 0
M  V30 385 C 38.8865 1.34569 0.882044 0
M  V30 386 O 40.0785 1.58899 0.77976 0
M  V30 387 C 37.2075 3.20414 1.23247 0
M  V30 388 C 36.2935 4.20399 0.559041 0
M  V30 389 N 36.6845 5.04423 -0.372927 0
M  V30 390 C 34.9825 4.38536 0.812522 0
M  V30 391 C 35.6835 5.76655 -0.764446 0
M  V30 392 N 34.6595 5.43471 -0.11848 0
M  V30 393 H 38.4615 2.89422 -0.511117 0
M  V30 394 H 35.9755 1.57868 -0.380975 0
M  V30 395 H 37.9725 3.76262 1.79534 0
M  V30 396 H 36.6325 2.59623 1.95002 0
M  V30 397 H 37.6435 5.1248 -0.747287 0
M  V30 398 H 34.3205 3.88913 1.51832 0
M  V30 399 H 35.7105 6.54238 -1.53045 0
M  V30 400 N 38.4306 0.297415 1.54768 0
M  V30 401 C 39.6556 -0.318435 2.04941 0
M  V30 402 C 40.0806 -1.4701 1.17345 0
M  V30 403 O 39.4386 -1.80436 0.176758 0
M  V30 404 C 39.4866 -0.755749 3.52592 0
M  V30 405 O 38.5906 -1.86088 3.68028 0
M  V30 406 H 37.9316 -0.062421 0.661059 0
M  V30 407 H 40.4616 0.438215 1.99852 0
M  V30 408 H 40.4716 -1.04552 3.94376 0
M  V30 409 H 39.1466 0.0867233 4.1581 0
M  V30 410 H 37.7236 -1.57193 3.38149 0
M  V30 411 N 39.9087 -1.5758 0.0250728 0
M  V30 412 C 41.1547 -1.91917 -0.655413 0
M  V30 413 C 41.4877 -0.901433 -1.72011 0
M  V30 414 O 40.7627 0.0764069 -1.9435 0
M  V30 415 C 41.0457 -3.36751 -1.27558 0
M  V30 416 C 40.8987 -4.49258 -0.220719 0
M  V30 417 C 42.2177 -3.81469 -2.19475 0
M  V30 418 H 39.3367 -0.697925 -0.23679 0
M  V30 419 H 41.9787 -1.89825 0.0815036 0
M  V30 420 H 40.1287 -3.38664 -1.90365 0
M  V30 421 H 41.8007 -4.59478 0.409601 0
M  V30 422 H 40.0437 -4.31415 0.454264 0
M  V30 423 H 40.7147 -5.47618 -0.694175 0
M  V30 424 H 43.1907 -3.81266 -1.66659 0
M  V30 425 H 42.0667 -4.83512 -2.59822 0
M  V30 426 H 42.3277 -3.16744 -3.08424 0
M  V30 427 N 41.3868 0.248026 -1.55636 0
M  V30 428 C 42.6328 0.97767 -1.77678 0
M  V30 429 C 42.9658 1.85016 -0.590135 0
M  V30 430 O 42.2408 1.90095 0.411611 0
M  V30 431 C 42.5238 1.83914 -3.09593 0
M  V30 432 C 42.3768 0.99491 -4.38659 0
M  V30 433 C 43.6958 2.82183 -3.37729 0
M  V30 434 H 40.8148 0.354005 -0.646413 0
M  V30 435 H 43.4568 0.248253 -1.88371 0
M  V30 436 H 41.6068 2.46104 -3.00608 0
M  V30 437 H 43.2788 0.391789 -4.59633 0
M  V30 438 H 41.5218 0.299231 -4.32767 0
M  V30 439 H 42.1928 1.63145 -5.2734 0
M  V30 440 H 44.6688 2.30129 -3.4667 0
M  V30 441 H 43.5448 3.39582 -4.31249 0
M  V30 442 H 43.8058 3.58588 -2.58586 0
M  V30 443 N 42.8649 1.48995 0.513639 0
M  V30 444 C 44.1139 1.57093 1.2651 0
M  V30 445 C 44.4269 0.257091 1.93903 0
M  V30 446 O 45.6329 0.216478 2.70636 0
M  V30 447 C 44.0889 2.77118 2.29638 0
M  V30 448 C 43.6969 4.15209 1.68241 0
M  V30 449 C 45.4409 2.94538 3.05692 0
M  V30 450 C 43.3479 5.26474 2.69406 0
M  V30 451 H 42.2779 0.584876 0.475854 0
M  V30 452 H 44.9289 1.7536 0.540487 0
M  V30 453 H 43.3109 2.52319 3.05207 0
M  V30 454 H 44.4849 4.50094 0.987505 0
M  V30 455 H 42.7999 4.03042 1.04623 0
M  V30 456 H 45.3969 3.74832 3.8132 0
M  V30 457 H 45.7399 2.04614 3.62545 0
M  V30 458 H 46.2729 3.19316 2.37238 0
M  V30 459 H 43.0119 6.18417 2.17351 0
M  V30 460 H 42.5319 4.96058 3.37175 0
M  V30 461 H 44.2109 5.55277 3.32078 0
M  V30 462 N 44.343 -0.763751 1.37857 0
M  V30 463 C 45.589 -1.52483 1.33704 0
M  V30 464 C 45.922 -1.94051 -0.0759612 0
M  V30 465 O 45.197 -1.64675 -1.03501 0
M  V30 466 C 45.48 -2.78441 2.28348 0
M  V30 467 C 45.333 -2.43075 3.78463 0
M  V30 468 C 46.652 -3.80415 2.21298 0
M  V30 469 H 43.771 -0.553169 0.487005 0
M  V30 470 H 46.413 -0.875562 1.68624 0
M  V30 471 H 44.563 -3.33842 1.987 0
M  V30 472 H 46.235 -1.93527 4.18742 0
M  V30 473 H 44.478 -1.75666 3.96641 0
M  V30 474 H 45.149 -3.33149 4.40132 0
M  V30 475 H 47.625 -3.34527 2.47449 0
M  V30 476 H 46.501 -4.66257 2.89647 0
M  V30 477 H 46.762 -4.25262 1.20849 0
M  V30 478 N 45.8211 -1.22559 -0.990812 0
M  V30 479 C 47.0981 -0.959875 -1.70428 0
M  V30 480 C 47.4781 0.524455 -2.04481 0
M  V30 481 O 46.8261 1.49302 -1.72977 0
M  V30 482 C 47.0361 -1.85955 -2.95333 0
M  V30 483 C 48.3841 -2.11687 -3.68068 0
M  V30 484 O 49.4081 -1.8342 -3.05345 0
M  V30 485 O 48.2671 -2.59572 -4.80921 0
M  V30 486 H 45.3611 -0.361154 -0.743974 0
M  V30 487 H 47.9071 -1.33554 -1.04697 0
M  V30 488 H 46.6791 -2.86346 -2.66687 0
M  V30 489 H 46.3021 -1.4856 -3.68803 0
M  V30 490 N 47.2992 1.18797 -1.03562 0
M  V30 491 C 48.5242 1.9314 -0.755764 0
M  V30 492 C 48.9492 1.7537 0.68022 0
M  V30 493 O 48.3072 1.06046 1.47051 0
M  V30 494 C 48.3552 3.42747 -1.12058 0
M  V30 495 O 47.4592 4.11683 -0.243124 0
M  V30 496 H 46.8002 0.602724 -0.278604 0
M  V30 497 H 49.3302 1.50678 -1.3841 0
M  V30 498 H 49.3402 3.93437 -1.08035 0
M  V30 499 H 48.0152 3.55002 -2.16672 0
M  V30 500 H 46.5922 3.71323 -0.342539 0
M  V30 501 N 48.7773 0.814389 1.34928 0
M  V30 502 C 49.7073 0.244827 2.32213 0
M  V30 503 C 50.6883 -0.634024 1.57842 0
M  V30 504 O 51.8733 -0.562676 1.8587 0
M  V30 505 C 49.0033 -0.601106 3.42058 0
M  V30 506 C 47.9573 0.179896 4.27622 0
M  V30 507 C 47.2833 -0.788237 5.28858 0
M  V30 508 C 48.5833 1.38329 5.03649 0
M  V30 509 H 50.2773 1.05763 2.80097 0
M  V30 510 H 47.8233 0.510029 1.34665 0
M  V30 511 H 49.7763 -1.00968 4.09125 0
M  V30 512 H 48.5003 -1.44688 2.92802 0
M  V30 513 H 47.1593 0.569739 3.62146 0
M  V30 514 H 46.8073 -1.62973 4.75866 0
M  V30 515 H 46.5073 -0.269942 5.8698 0
M  V30 516 H 48.0313 -1.19485 5.98795 0
M  V30 517 H 49.4453 1.04918 5.63618 0
M  V30 518 H 47.8423 1.83662 5.71304 0
M  V30 519 H 48.9123 2.16592 4.33839 0
M  V30 520 N 50.2554 -1.46986 0.568584 0
M  V30 521 C 51.5014 -2.02741 0.0488709 0
M  V30 522 C 51.8344 -1.44077 -1.30214 0
M  V30 523 O 51.1094 -0.600552 -1.84996 0
M  V30 524 C 51.3924 -3.60086 -0.032047 0
M  V30 525 C 51.2454 -4.29162 1.34686 0
M  V30 526 C 52.5644 -4.33838 -0.739798 0
M  V30 527 H 49.6834 -0.736749 0.0192338 0
M  V30 528 H 52.3254 -1.75289 0.733065 0
M  V30 529 H 50.4754 -3.83606 -0.61473 0
M  V30 530 H 52.1474 -4.16948 1.97362 0
M  V30 531 H 50.3904 -3.89073 1.91846 0
M  V30 532 H 51.0614 -5.37826 1.24285 0
M  V30 533 H 53.5374 -4.15378 -0.244939 0
M  V30 534 H 52.4134 -5.43537 -0.765406 0
M  V30 535 H 52.6744 -4.03875 -1.79827 0
M  V30 536 N 51.7335 -0.305618 -1.54608 0
M  V30 537 C 52.9815 0.301701 -1.99835 0
M  V30 538 C 53.3025 1.54054 -1.19551 0
M  V30 539 O 52.5725 1.93702 -0.292658 0
M  V30 540 H 51.1525 0.114468 -0.738178 0
M  V30 541 H 53.8145 -0.418016 -1.90364 0
M  V30 542 H 52.9105 0.570548 -3.06841 0
M  V30 543 N 53.2116 1.57565 -0.0334293 0
M  V30 544 C 54.4396 1.9628 0.654347 0
M  V30 545 C 54.8546 0.910138 1.65414 0
M  V30 546 O 54.2116 -0.107595 1.82183 0
M  V30 547 C 54.2626 3.35067 1.35693 0
M  V30 548 O 53.9836 4.36296 0.397191 0
M  V30 549 C 55.4846 3.88439 2.13613 0
M  V30 550 H 52.7046 0.646369 0.180132 0
M  V30 551 H 55.2486 2.04282 -0.0944721 0
M  V30 552 H 53.4036 3.2827 2.05712 0
M  V30 553 H 53.8176 5.1678 0.896597 0
M  V30 554 H 55.2916 4.8788 2.58219 0
M  V30 555 H 55.7686 3.22914 2.97696 0
M  V30 556 H 56.3746 3.98516 1.48543 0
M  V30 557 N 54.6897 -0.239769 1.55765 0
M  V30 558 C 55.6397 -1.30002 1.87306 0
M  V30 559 C 56.6237 -1.43156 0.73452 0
M  V30 560 O 57.8157 -1.46277 0.99659 0
M  V30 561 C 54.9447 -2.65409 2.17745 0
M  V30 562 C 54.0307 -2.56231 3.37945 0
M  V30 563 N 54.4217 -2.16689 4.57033 0
M  V30 564 C 52.7197 -2.87229 3.41197 0
M  V30 565 C 53.4207 -2.18318 5.39177 0
M  V30 566 N 52.3967 -2.58098 4.78421 0
M  V30 567 H 56.1987 -0.984912 2.76906 0
M  V30 568 H 53.7127 -0.448381 1.56087 0
M  V30 569 H 55.7097 -3.41934 2.38509 0
M  V30 570 H 54.3697 -2.97781 1.29448 0
M  V30 571 H 55.3807 -1.88116 4.82528 0
M  V30 572 H 52.0577 -3.24094 2.63191 0
M  V30 573 H 53.4477 -1.90025 6.44469 0
M  V30 574 N 56.1678 -1.49265 -0.50573 0
M  V30 575 C 57.4158 -1.582 -1.25766 0
M  V30 576 C 57.7368 -0.268482 -1.93143 0
M  V30 577 O 57.0068 0.711833 -1.8251 0
M  V30 578 H 55.5868 -0.582873 -0.467191 0
M  V30 579 H 58.2488 -1.85865 -0.586525 0
M  V30 580 H 57.3448 -2.37563 -2.02412 0
M  V30 581 N 57.6459 0.756429 -1.3826 0
M  V30 582 C 58.5929 1.87011 -1.35261 0
M  V30 583 C 59.5629 1.64695 -0.215616 0
M  V30 584 O 60.7479 1.864 -0.407399 0
M  V30 585 C 57.8879 3.24275 -1.18068 0
M  V30 586 C 57.0009 3.58442 -2.41129 0
M  V30 587 C 56.1359 4.84994 -2.16689 0
M  V30 588 C 55.1749 5.11939 -3.35537 0
M  V30 589 N 54.3119 6.29685 -3.10549 0
M  V30 590 H 59.1519 1.8891 -2.30472 0
M  V30 591 H 56.6889 0.923373 -1.14509 0
M  V30 592 H 58.6469 4.03479 -1.06116 0
M  V30 593 H 57.2769 3.21711 -0.264973 0
M  V30 594 H 56.3289 2.74103 -2.63764 0
M  V30 595 H 57.6409 3.74283 -3.29717 0
M  V30 596 H 56.7949 5.72135 -2.01857 0
M  V30 597 H 55.5339 4.71286 -1.25462 0
M  V30 598 H 54.5389 4.23268 -3.50891 0
M  V30 599 H 55.7639 5.27546 -4.27635 0
M  V30 600 H 53.7099 6.17306 -2.21967 0
M  V30 601 H 53.6269 6.46014 -3.92686 0
M  V30 602 H 54.8949 7.19722 -2.99367 0
M  V30 603 N 59.124 1.23083 0.984299 0
M  V30 604 C 60.349 1.088 1.76571 0
M  V30 605 C 60.774 -0.356657 1.84688 0
M  V30 606 O 60.132 -1.25788 1.30565 0
M  V30 607 C 60.18 1.71371 3.17277 0
M  V30 608 O 59.284 0.973213 4.00752 0
M  V30 609 H 58.625 0.381599 0.543395 0
M  V30 610 H 61.155 1.63057 1.23587 0
M  V30 611 H 61.165 1.76449 3.67872 0
M  V30 612 H 59.84 2.76493 3.10684 0
M  V30 613 H 58.417 0.999078 3.59267 0
M  V30 614 N 60.6021 -1.18246 1.0419 0
M  V30 615 C 61.8791 -1.84121 0.660208 0
M  V30 616 C 62.2591 -1.92778 -0.860221 0
M  V30 617 O 61.6071 -1.45464 -1.76217 0
M  V30 618 C 61.8171 -3.22355 1.33747 0
M  V30 619 C 63.1651 -3.98376 1.46906 0
M  V30 620 O 64.1891 -3.31799 1.29568 0
M  V30 621 O 63.0481 -5.17665 1.75171 0
M  V30 622 H 60.1421 -0.794036 0.231161 0
M  V30 623 H 62.6881 -1.25628 1.14087 0
M  V30 624 H 61.4601 -3.10964 2.37522 0
M  V30 625 H 61.0831 -3.88506 0.845515 0
M  V30 626 N 62.0802 -0.821533 -1.34494 0
M  V30 627 C 63.0302 -0.214793 -2.26986 0
M  V30 628 C 64.0142 0.620125 -1.4847 0
M  V30 629 O 65.2062 0.474933 -1.70509 0
M  V30 630 C 62.3352 0.623566 -3.37589 0
M  V30 631 C 61.4212 -0.221904 -4.23519 0
M  V30 632 N 61.8122 -1.29223 -4.89014 0
M  V30 633 C 60.1102 -0.00600922 -4.46 0
M  V30 634 C 60.8112 -1.80965 -5.52835 0
M  V30 635 N 59.7872 -1.11376 -5.32068 0
M  V30 636 H 63.5892 -1.03354 -2.75128 0
M  V30 637 H 61.1032 -0.6642 -1.48196 0
M  V30 638 H 63.1002 1.0744 -4.02818 0
M  V30 639 H 61.7602 1.44049 -2.90998 0
M  V30 640 H 62.7712 -1.67502 -4.90065 0
M  V30 641 H 59.4482 0.77886 -4.10171 0
M  V30 642 H 60.8382 -2.70502 -6.15043 0
M  V30 643 N 63.5583 1.46682 -0.576371 0
M  V30 644 C 64.8043 2.02712 -0.0596221 0
M  V30 645 C 65.1373 1.44765 1.29448 0
M  V30 646 O 64.4123 0.610355 1.84675 0
M  V30 647 C 64.6953 3.60098 0.0129503 0
M  V30 648 C 64.5483 4.28441 -1.3696 0
M  V30 649 C 65.8673 4.34224 0.71678 0
M  V30 650 H 62.9863 0.736637 -0.0231407 0
M  V30 651 H 65.6283 1.74898 -0.742351 0
M  V30 652 H 63.7783 3.83926 0.594378 0
M  V30 653 H 65.4503 4.15896 -1.9957 0
M  V30 654 H 63.6933 3.8805 -1.93907 0
M  V30 655 H 64.3643 5.3716 -1.27135 0
M  V30 656 H 66.8403 4.15503 0.222908 0
M  V30 657 H 65.7163 5.43936 0.73657 0
M  V30 658 H 65.9773 4.04823 1.77682 0
M  V30 659 N 65.0364 0.313813 1.54444 0
M  V30 660 C 65.9464 -0.565714 2.27677 0
M  V30 661 C 66.9624 -1.13754 1.31666 0
M  V30 662 O 68.1384 -1.15959 1.64668 0
M  V30 663 C 65.2034 -1.71528 3.01296 0
M  V30 664 C 64.2644 -1.17624 4.12872 0
M  V30 665 C 63.4974 -2.27102 4.8297 0
M  V30 666 O 63.7204 -3.47256 4.52514 0
M  V30 667 O 62.6544 -1.9307 5.70094 0
M  V30 668 H 66.4804 0.0287296 3.03686 0
M  V30 669 H 64.0654 0.0798312 1.49187 0
M  V30 670 H 65.9474 -2.38476 3.4743 0
M  V30 671 H 64.6224 -2.29608 2.2817 0
M  V30 672 H 63.5294 -0.472124 3.71109 0
M  V30 673 H 64.8624 -0.640695 4.88012 0
M  V30 674 N 66.5145 -1.57545 0.0417849 0
M  V30 675 C 67.7425 -1.96624 -0.643928 0
M  V30 676 C 68.1575 -0.918897 -1.64929 0
M  V30 677 O 67.5145 0.0979323 -1.82237 0
M  V30 678 C 67.5655 -3.35781 -1.33914 0
M  V30 679 O 67.2865 -4.365 -0.374048 0
M  V30 680 C 68.7875 -3.89566 -2.1155 0
M  V30 681 H 66.0075 -0.647316 -0.176702 0
M  V30 682 H 68.5515 -2.04229 0.105304 0
M  V30 683 H 66.7065 -3.29357 -2.03968 0
M  V30 684 H 67.1205 -5.17248 -0.869179 0
M  V30 685 H 68.5945 -4.89242 -2.55628 0
M  V30 686 H 69.0715 -3.24488 -2.9598 0
M  V30 687 H 69.6775 -3.99298 -1.46427 0
M  V30 688 N 67.9926 0.231505 -1.5589 0
M  V30 689 C 69.4086 0.580748 -1.48659 0
M  V30 690 C 69.6086 1.87617 -0.73498 0
M  V30 691 O 68.6646 2.51046 -0.270586 0
M  V30 692 C 69.9776 0.669202 -2.93159 0
M  V30 693 C 71.5256 0.760499 -3.03621 0
M  V30 694 C 72.0006 0.880383 -4.49459 0
M  V30 695 N 73.4916 0.944861 -4.53461 0
M  V30 696 C 74.2266 1.05716 -5.63571 0
M  V30 697 N 73.7226 1.13403 -6.83456 0
M  V30 698 N 75.5156 1.09152 -5.514 0
M  V30 699 H 67.6666 -0.618695 -2.03189 0
M  V30 700 H 69.9296 -0.215728 -0.923128 0
M  V30 701 H 69.6356 -0.212904 -3.51055 0
M  V30 702 H 69.5096 1.5361 -3.44505 0
M  V30 703 H 71.8966 1.63305 -2.45796 0
M  V30 704 H 71.9776 -0.131864 -2.5546 0
M  V30 705 H 71.6216 0.0123284 -5.07899 0
M  V30 706 H 71.5516 1.78802 -4.95316 0
M  V30 707 H 74.0426 0.896176 -3.6712 0
M  V30 708 H 74.3556 1.21921 -7.63122 0
M  V30 709 H 72.7006 1.10333 -6.86186 0
M  V30 710 H 75.8916 1.02805 -4.56671 0
M  V30 711 H 76.0646 1.17558 -6.37247 0
M  V30 712 N 69.4707 1.49531 0.497807 0
M  V30 713 C 70.3807 1.69176 1.62532 0
M  V30 714 C 71.3967 0.5744 1.64246 0
M  V30 715 O 72.5727 0.849497 1.82608 0
M  V30 716 C 69.6377 1.75695 2.98885 0
M  V30 717 C 68.6987 2.9929 3.07773 0
M  V30 718 C 67.9317 3.05488 4.37622 0
M  V30 719 O 68.1547 2.19192 5.26603 0
M  V30 720 O 67.0887 3.9798 4.51548 0
M  V30 721 H 70.9147 2.647 1.48887 0
M  V30 722 H 68.4997 1.3331 0.674441 0
M  V30 723 H 70.3817 1.82317 3.79919 0
M  V30 724 H 69.0567 0.8335 3.12785 0
M  V30 725 H 67.9637 2.98183 2.25915 0
M  V30 726 H 69.2967 3.91125 2.98801 0
M  V30 727 N 70.9488 -0.749086 1.3866 0
M  V30 728 C 71.8968 -1.88428 1.36373 0
M  V30 729 C 72.8908 -1.67561 0.248929 0
M  V30 730 O 74.0968 -1.75074 0.41821 0
M  V30 731 H 70.4718 -0.620023 0.42553 0
M  V30 732 H 72.4428 -1.87473 2.32156 0
M  V30 733 C 71.1918 -3.25961 1.21014 0
M  V30 734 H 70.5148 -3.42607 2.06059 0
M  V30 735 H 71.9548 -4.05625 1.23469 0
M  V30 736 C 70.4138 -3.36799 -0.0825941 0
M  V30 737 O 70.9438 -3.87517 -1.05797 0
M  V30 738 N 69.1498 -2.90258 -0.140939 0
M  V30 739 H 68.6968 -2.49174 0.653477 0
M  V30 740 H 68.6548 -2.97889 -1.00545 0
M  V30 741 N 72.4269 -1.23603 -0.977757 0
M  V30 742 C 73.6729 -1.07129 -1.72195 0
M  V30 743 C 74.0059 0.390501 -1.90233 0
M  V30 744 O 73.2809 1.28902 -1.45653 0
M  V30 745 C 73.5639 -1.80031 -3.11867 0
M  V30 746 C 73.4169 -3.33899 -3.01383 0
M  V30 747 C 74.7359 -1.56492 -4.11337 0
M  V30 748 H 71.8549 -0.390571 -0.624999 0
M  V30 749 H 74.4969 -1.52142 -1.13811 0
M  V30 750 H 72.6469 -1.41768 -3.6171 0
M  V30 751 H 74.3189 -3.81699 -2.59043 0
M  V30 752 H 72.5619 -3.62796 -2.37827 0
M  V30 753 H 73.2329 -3.801 -4.00285 0
M  V30 754 H 75.7089 -1.89757 -3.70313 0
M  V30 755 H 74.5849 -2.09973 -5.07151 0
M  V30 756 H 74.8459 -0.500874 -4.39254 0
M  V30 757 N 73.905 1.17692 -1.04816 0
M  V30 758 C 74.868 2.19787 -0.650117 0
M  V30 759 C 75.868 1.58044 0.296427 0
M  V30 760 O 77.058 1.74012 0.0808097 0
M  V30 761 C 74.19 3.40869 0.0456987 0
M  V30 762 H 75.383 2.56516 -1.5537 0
M  V30 763 H 72.936 1.31708 -0.841594 0
M  V30 764 H 73.671 3.09681 0.962726 0
M  V30 765 H 73.456 3.86928 -0.634727 0
M  V30 766 H 74.946 4.16445 0.310432 0
M  V30 767 N 75.3831 0.828654 1.34056 0
M  V30 768 C 76.7991 0.515135 1.51058 0
M  V30 769 C 76.9991 -0.959581 1.77184 0
M  V30 770 O 76.0551 -1.74382 1.82612 0
M  V30 771 C 77.3681 1.37963 2.67183 0
M  V30 772 C 78.9161 1.37735 2.81066 0
M  V30 773 C 79.3911 2.22645 4.00241 0
M  V30 774 N 80.8821 2.203 4.07458 0
M  V30 775 C 81.6171 2.82744 4.98842 0
M  V30 776 N 81.1131 3.54201 5.9541 0
M  V30 777 N 82.9061 2.72268 4.91759 0
M  V30 778 H 75.0571 1.78343 1.15358 0
M  V30 779 H 77.3201 0.760304 0.566252 0
M  V30 780 H 77.0261 2.42714 2.54525 0
M  V30 781 H 76.9001 1.0484 3.62338 0
M  V30 782 H 79.2871 0.337593 2.93163 0
M  V30 783 H 79.3681 1.74859 1.86703 0
M  V30 784 H 79.0121 3.26674 3.88905 0
M  V30 785 H 78.9421 1.82869 4.93829 0
M  V30 786 H 81.4331 1.68327 3.38341 0
M  V30 787 H 81.7461 3.9908 6.61782 0
M  V30 788 H 80.0911 3.58308 5.95517 0
M  V30 789 H 83.2821 2.16014 4.15278 0
M  V30 790 H 83.4551 3.21219 5.62781 0
M  V30 791 N 76.8612 -1.46375 0.584142 0
M  V30 792 C 77.8082 -2.30323 -0.148286 0
M  V30 793 C 78.7782 -1.40703 -0.882713 0
M  V30 794 O 79.9632 -1.69651 -0.873099 0
M  V30 795 C 77.1032 -3.25196 -1.15507 0
M  V30 796 C 76.2162 -4.29915 -0.423943 0
M  V30 797 C 75.3512 -5.11914 -1.41838 0
M  V30 798 C 74.3902 -6.08381 -0.673736 0
M  V30 799 N 73.5272 -6.83242 -1.6163 0
M  V30 800 H 78.3672 -2.92427 0.573644 0
M  V30 801 H 75.9042 -1.44118 0.294703 0
M  V30 802 H 77.8622 -3.78646 -1.75166 0
M  V30 803 H 76.4922 -2.64898 -1.8447 0
M  V30 804 H 75.5442 -3.7931 0.287714 0
M  V30 805 H 76.8562 -4.98549 0.158128 0
M  V30 806 H 76.0102 -5.69648 -2.08773 0
M  V30 807 H 74.7492 -4.43243 -2.03438 0
M  V30 808 H 73.7542 -5.49799 0.00938483 0
M  V30 809 H 74.9792 -6.79071 -0.0631082 0
M  V30 810 H 72.9252 -6.1728 -2.22038 0
M  V30 811 H 72.8422 -7.48144 -1.08707 0
M  V30 812 H 74.1102 -7.45534 -2.27596 0
M  V30 813 N 78.3393 -0.321999 -1.54275 0
M  V30 814 C 79.2693 0.537411 -2.27231 0
M  V30 815 C 80.2503 1.12064 -1.27968 0
M  V30 816 O 81.4353 1.14606 -1.56777 0
M  V30 817 C 78.5653 1.69919 -3.02894 0
M  V30 818 C 77.5193 1.24534 -4.09482 0
M  V30 819 C 76.8453 2.49394 -4.72977 0
M  V30 820 C 78.1453 0.361335 -5.21049 0
M  V30 821 H 79.8393 -0.0711406 -2.99315 0
M  V30 822 H 77.3853 -0.0356555 -1.43956 0
M  V30 823 H 79.3383 2.30668 -3.52662 0
M  V30 824 H 78.0623 2.33431 -2.28424 0
M  V30 825 H 76.7213 0.660782 -3.60596 0
M  V30 826 H 76.3693 3.11265 -3.95124 0
M  V30 827 H 76.0693 2.19718 -5.44975 0
M  V30 828 H 77.5933 3.10908 -5.25517 0
M  V30 829 H 79.0073 0.875072 -5.66582 0
M  V30 830 H 77.4043 0.157428 -5.99893 0
M  V30 831 H 78.4743 -0.60822 -4.8107 0
M  V30 832 N 79.8174 1.5752 -0.0501392 0
M  V30 833 C 80.7494 2.08413 0.95376 0
M  V30 834 C 81.7624 1.01175 1.27544 0
M  V30 835 O 82.9514 1.28744 1.23641 0
M  V30 836 C 80.0514 2.51138 2.27559 0
M  V30 837 C 79.2244 3.817 2.13598 0
M  V30 838 C 78.2834 4.10749 3.28895 0
M  V30 839 O 77.3094 4.80685 3.04845 0
M  V30 840 N 78.5114 3.62579 4.5334 0
M  V30 841 H 81.2764 2.95165 0.519383 0
M  V30 842 H 78.8374 1.61327 0.136127 0
M  V30 843 H 80.8294 2.67648 3.03557 0
M  V30 844 H 79.3994 1.6964 2.62567 0
M  V30 845 H 78.6194 3.74782 1.22197 0
M  V30 846 H 79.9074 4.67201 2.01496 0
M  V30 847 H 79.3054 3.06039 4.75769 0
M  V30 848 H 77.8624 3.84329 5.26436 0
M  V30 849 N 81.2955 -0.223234 1.56011 0
M  V30 850 C 82.2275 -1.30006 1.88762 0
M  V30 851 C 83.2405 -1.43129 0.775746 0
M  V30 852 O 84.4295 -1.44057 1.05403 0
M  V30 853 C 81.5295 -2.67589 2.07965 0
M  V30 854 C 80.7025 -2.76434 3.38973 0
M  V30 855 C 79.7615 -3.95019 3.47629 0
M  V30 856 O 78.7875 -3.83436 4.20672 0
M  V30 857 N 79.9895 -5.09249 2.78649 0
M  V30 858 H 82.7545 -1.02238 2.81722 0
M  V30 859 H 80.3155 -0.413278 1.56536 0
M  V30 860 H 82.3075 -3.45297 2.11073 0
M  V30 861 H 80.8775 -2.87964 1.21638 0
M  V30 862 H 80.0975 -1.85216 3.47978 0
M  V30 863 H 81.3855 -2.79313 4.25278 0
M  V30 864 H 80.7835 -5.21556 2.19081 0
M  V30 865 H 79.3405 -5.85007 2.8742 0
M  V30 866 N 82.7736 -1.49793 -0.48987 0
M  V30 867 C 83.9986 -1.63836 -1.27172 0
M  V30 868 C 84.4236 -0.31402 -1.8546 0
M  V30 869 O 83.7816 0.719803 -1.66399 0
M  V30 870 C 83.8296 -2.71797 -2.36978 0
M  V30 871 O 82.9336 -2.31744 -3.41128 0
M  V30 872 H 82.2746 -0.547997 -0.37496 0
M  V30 873 H 84.8046 -1.96053 -0.585191 0
M  V30 874 H 84.8146 -2.94305 -2.82575 0
M  V30 875 H 83.4896 -3.67923 -1.93921 0
M  V30 876 H 82.0666 -2.1961 -3.01373 0
M  V30 877 N 84.2517 0.741722 -1.39055 0
M  V30 878 C 85.5287 1.49252 -1.26425 0
M  V30 879 C 85.9087 2.10705 0.129144 0
M  V30 880 O 85.2567 1.98045 1.13976 0
M  V30 881 C 85.4667 2.54934 -2.38347 0
M  V30 882 C 86.8147 3.21506 -2.77343 0
M  V30 883 O 87.8387 2.65245 -2.37747 0
M  V30 884 O 86.6977 4.23294 -3.45665 0
M  V30 885 H 83.7917 0.662451 -0.495064 0
M  V30 886 H 86.3377 0.776121 -1.50912 0
M  V30 887 H 85.1097 2.07857 -3.31529 0
M  V30 888 H 84.7327 3.34141 -2.15489 0
M  V30 889 N 85.7298 1.2412 0.971189 0
M  V30 890 C 86.9778 1.07668 1.71032 0
M  V30 891 C 87.2988 -0.385797 1.91146 0
M  V30 892 O 86.5688 -1.27569 1.4867 0
M  V30 893 H 85.1488 0.395429 0.633755 0
M  V30 894 H 87.8108 1.55984 1.16855 0
M  V30 895 H 86.9068 1.57195 2.69622 0
M  V30 896 N 87.2079 -1.17134 1.05439 0
M  V30 897 C 88.6189 -1.69084 0.791676 0
M  V30 898 C 88.9699 -1.83822 -0.685839 0
M  V30 899 O 88.0949 -1.52757 -1.53278 0
M  V30 900 C 88.6899 -3.07119 1.4305 0
M  V30 901 C 87.2489 -3.56225 1.21577 0
M  V30 902 C 86.3959 -2.32421 1.51247 0
M  V30 903 H 89.3469 -1.01617 1.219 0
M  V30 904 H 89.3679 -3.71087 0.84112 0
M  V30 905 H 88.8799 -2.9636 2.50584 0
M  V30 906 H 86.9809 -3.72257 0.159787 0
M  V30 907 H 87.0939 -4.38837 1.92246 0
M  V30 908 H 85.4579 -2.3701 0.932653 0
M  V30 909 H 86.2409 -2.24268 2.5992 0
M  V30 910 N 88.686 -0.835752 -1.33615 0
M  V30 911 C 89.633 -0.26473 -2.29277 0
M  V30 912 C 90.603 0.617712 -1.54187 0
M  V30 913 O 91.788 0.556641 -1.825 0
M  V30 914 C 88.928 0.556777 -3.40579 0
M  V30 915 C 88.041 -0.349339 -4.30585 0
M  V30 916 C 87.176 0.482969 -5.29 0
M  V30 917 C 86.215 -0.421732 -6.10645 0
M  V30 918 N 85.352 0.372262 -7.01112 0
M  V30 919 H 90.192 -1.08582 -2.77514 0
M  V30 920 H 87.729 -0.546927 -1.36554 0
M  V30 921 H 89.687 1.04852 -4.03809 0
M  V30 922 H 88.317 1.34286 -2.93542 0
M  V30 923 H 87.369 -0.959372 -3.68104 0
M  V30 924 H 88.681 -1.04445 -4.87742 0
M  V30 925 H 87.835 1.03866 -5.97743 0
M  V30 926 H 86.574 1.21153 -4.72412 0
M  V30 927 H 85.579 -0.989464 -5.40823 0
M  V30 928 H 86.804 -1.14861 -6.69316 0
M  V30 929 H 84.75 1.08426 -6.46977 0
M  V30 930 H 84.667 -0.264198 -7.55538 0
M  V30 931 H 85.935 0.910293 -7.74167 0
M  V30 932 N 90.1641 1.46063 -0.591896 0
M  V30 933 C 91.5751 1.85944 -0.167822 0
M  V30 934 C 91.9261 1.49429 1.27143 0
M  V30 935 O 91.0511 0.913515 1.96173 0
M  V30 936 C 91.6461 3.37489 -0.297794 0
M  V30 937 C 90.2051 3.76332 0.0714732 0
M  V30 938 C 89.3521 2.7006 -0.629509 0
M  V30 939 H 92.3031 1.37087 -0.799555 0
M  V30 940 H 92.3241 3.77532 0.474349 0
M  V30 941 H 91.8361 3.64034 -1.3454 0
M  V30 942 H 89.9371 3.55405 1.11886 0
M  V30 943 H 90.0501 4.78088 -0.311245 0
M  V30 944 H 88.4141 2.54607 -0.0687867 0
M  V30 945 H 89.1971 2.99444 -1.67894 0
M  V30 946 N 91.6422 0.330177 1.54103 0
M  V30 947 C 93.0532 -0.15652 1.86043 0
M  V30 948 C 93.4042 -1.51086 1.2517 0
M  V30 949 O 92.5292 -2.09023 0.560217 0
M  V30 950 C 93.1242 -0.290784 3.3755 0
M  V30 951 C 91.6832 -0.721705 3.69416 0
M  V30 952 C 90.8302 0.152622 2.7688 0
M  V30 953 H 93.7812 0.550237 1.48856 0
M  V30 954 H 93.8022 -1.12058 3.63625 0
M  V30 955 H 93.3142 0.695068 3.81825 0
M  V30 956 H 91.4152 -1.71706 3.30678 0
M  V30 957 H 91.5282 -0.520869 4.7626 0
M  V30 958 H 89.8922 -0.372894 2.51956 0
M  V30 959 H 90.6752 1.13536 3.23982 0
M  V30 960 N 93.1203 -1.57491 0.0584922 0
M  V30 961 C 94.3663 -1.94081 -0.608617 0
M  V30 962 C 94.7213 -0.937438 -1.68017 0
M  V30 963 O 94.0143 0.0423034 -1.91553 0
M  V30 964 C 94.2083 -3.3513 -1.24188 0
M  V30 965 C 94.0373 -4.49095 -0.233187 0
M  V30 966 C 92.8073 -5.04988 0.177439 0
M  V30 967 C 95.0053 -5.1162 0.524306 0
M  V30 968 N 92.9873 -6.02487 1.17823 0
M  V30 969 C 94.3583 -6.04493 1.37796 0
M  V30 970 C 96.4133 -4.94489 0.581822 0
M  V30 971 C 95.1163 -6.82075 2.28399 0
M  V30 972 C 97.1423 -5.72703 1.47531 0
M  V30 973 C 96.5043 -6.65214 2.31667 0
M  V30 974 H 92.6033 -0.75752 -0.194134 0
M  V30 975 H 95.1873 -1.94248 0.132533 0
M  V30 976 H 93.3583 -3.35726 -1.95302 0
M  V30 977 H 95.0903 -3.5899 -1.86838 0
M  V30 978 H 91.8453 -4.73165 -0.203004 0
M  V30 979 H 92.2693 -6.55933 1.67573 0
M  V30 980 H 96.9113 -4.22765 -0.054443 0
M  V30 981 H 94.6293 -7.53085 2.93067 0
M  V30 982 H 98.2153 -5.61472 1.52448 0
M  V30 983 H 97.0953 -7.24679 2.99683 0
M  V30 984 N 94.5984 0.214957 -1.56127 0
M  V30 985 C 95.5614 1.24997 -1.92116 0
M  V30 986 C 96.5614 1.39467 -0.800344 0
M  V30 987 O 97.7514 1.37619 -1.06802 0
M  V30 988 C 94.8834 2.62271 -2.17777 0
M  V30 989 H 96.0764 0.942875 -2.84693 0
M  V30 990 H 93.6294 0.455654 -1.49511 0
M  V30 991 H 94.3644 2.98068 -1.27773 0
M  V30 992 H 94.1494 2.53143 -2.99434 0
M  V30 993 H 95.6394 3.36946 -2.46693 0
M  V30 994 N 96.0765 1.50051 0.48192 0
M  V30 995 C 97.3535 1.51009 1.2432 0
M  V30 996 C 97.7335 0.248587 2.09631 0
M  V30 997 O 97.0815 -0.768409 2.15192 0
M  V30 998 C 97.2915 2.79981 2.08355 0
M  V30 999 C 98.6395 3.3022 2.66908 0
M  V30 1000 O 99.6635 2.81228 2.18607 0
M  V30 1001 O 98.5225 4.15595 3.54884 0
M  V30 1002 H 95.6165 0.605239 0.563573 0
M  V30 1003 H 98.1625 1.62332 0.494627 0
M  V30 1004 H 96.9345 3.63275 1.45419 0
M  V30 1005 H 96.5575 2.7161 2.90368 0
M  V30 1006 N 97.5546 -0.734337 1.39446 0
M  V30 1007 C 98.9706 -1.03997 1.21065 0
M  V30 1008 C 99.1706 -2.01369 0.0727019 0
M  V30 1009 O 98.2266 -2.45856 -0.575426 0
M  V30 1010 C 99.5396 -1.60163 2.54496 0
M  V30 1011 C 101.088 -1.7224 2.61347 0
M  V30 1012 C 101.563 -2.31814 3.95002 0
M  V30 1013 N 103.054 -2.39223 3.96644 0
M  V30 1014 C 103.789 -2.86258 4.96834 0
M  V30 1015 N 103.285 -3.33184 6.07421 0
M  V30 1016 N 105.078 -2.85473 4.84213 0
M  V30 1017 H 97.2286 -0.0885624 2.12215 0
M  V30 1018 H 99.4916 -0.10191 0.942506 0
M  V30 1019 H 99.1976 -0.960811 3.38321 0
M  V30 1020 H 99.0716 -2.5896 2.74262 0
M  V30 1021 H 101.459 -2.35443 1.77906 0
M  V30 1022 H 101.54 -0.720939 2.4543 0
M  V30 1023 H 101.184 -1.69238 4.78875 0
M  V30 1024 H 101.114 -3.32638 4.08239 0
M  V30 1025 H 103.605 -2.06057 3.16779 0
M  V30 1026 H 103.918 -3.67586 6.7978 0
M  V30 1027 H 102.263 -3.31191 6.11013 0
M  V30 1028 H 105.454 -2.48136 3.96921 0
M  V30 1029 H 105.627 -3.21814 5.62441 0
M  V30 1030 N 99.0327 -1.24633 -0.964593 0
M  V30 1031 C 100.263 -1.11339 -1.74032 0
M  V30 1032 C 100.671 0.336593 -1.86182 0
M  V30 1033 O 100.014 1.24389 -1.35178 0
M  V30 1034 C 100.076 -1.68284 -3.1768 0
M  V30 1035 C 99.7397 -3.17196 -3.28992 0
M  V30 1036 C 100.737 -4.14308 -3.14078 0
M  V30 1037 C 98.4217 -3.57215 -3.53133 0
M  V30 1038 C 100.416 -5.4942 -3.23135 0
M  V30 1039 C 98.1027 -4.92468 -3.61827 0
M  V30 1040 C 99.1007 -5.8838 -3.46841 0
M  V30 1041 O 98.7887 -7.21173 -3.55197 0
M  V30 1042 H 98.5207 -0.389551 -0.552472 0
M  V30 1043 H 101.075 -1.65282 -1.21946 0
M  V30 1044 H 99.3047 -1.08777 -3.71085 0
M  V30 1045 H 100.994 -1.50234 -3.77074 0
M  V30 1046 H 101.76 -3.84731 -2.95308 0
M  V30 1047 H 97.6387 -2.83063 -3.63863 0
M  V30 1048 H 101.183 -6.24263 -3.11355 0
M  V30 1049 H 97.0797 -5.21714 -3.80111 0
M  V30 1050 H 97.8477 -7.29135 -3.71892 0
M  V30 1051 N 100.511 1.16574 -1.06058 0
M  V30 1052 C 101.474 2.19085 -0.673392 0
M  V30 1053 C 102.474 1.5835 0.279648 0
M  V30 1054 O 103.664 1.74088 0.0623488 0
M  V30 1055 C 100.796 3.40899 0.00954234 0
M  V30 1056 H 101.989 2.54853 -1.58081 0
M  V30 1057 H 99.5418 1.30808 -0.855516 0
M  V30 1058 H 100.277 3.10684 0.929826 0
M  V30 1059 H 100.062 3.86233 -0.67573 0
M  V30 1060 H 101.552 4.1675 0.266245 0
M  V30 1061 N 101.989 0.842826 1.3317 0
M  V30 1062 C 102.952 0.284065 2.27433 0
M  V30 1063 C 103.952 -0.54948 1.5112 0
M  V30 1064 O 105.142 -0.362699 1.70382 0
M  V30 1065 C 102.274 -0.599384 3.35589 0
M  V30 1066 H 103.467 1.11589 2.78366 0
M  V30 1067 H 101.02 0.616221 1.4364 0
M  V30 1068 H 101.755 -1.45349 2.89904 0
M  V30 1069 H 101.54 -0.00291266 3.921 0
M  V30 1070 H 103.03 -0.983488 4.05854 0
M  V30 1071 N 103.467 -1.45747 0.599634 0
M  V30 1072 C 104.397 -2.33235 -0.111306 0
M  V30 1073 C 105.378 -1.46359 -0.866781 0
M  V30 1074 O 106.563 -1.75146 -0.838904 0
M  V30 1075 C 103.693 -3.28932 -1.11451 0
M  V30 1076 C 102.647 -4.25381 -0.472772 0
M  V30 1077 C 101.973 -5.1071 -1.58365 0
M  V30 1078 C 103.273 -5.18831 0.600948 0
M  V30 1079 H 104.967 -2.92927 0.61919 0
M  V30 1080 H 102.513 -1.40857 0.299215 0
M  V30 1081 H 104.466 -3.89002 -1.62036 0
M  V30 1082 H 103.19 -2.67381 -1.8755 0
M  V30 1083 H 101.849 -3.66598 0.0121472 0
M  V30 1084 H 101.497 -4.45533 -2.33473 0
M  V30 1085 H 101.197 -5.7604 -1.15982 0
M  V30 1086 H 102.721 -5.73647 -2.09194 0
M  V30 1087 H 104.135 -5.73019 0.179491 0
M  V30 1088 H 102.532 -5.92595 0.946076 0
M  V30 1089 H 103.602 -4.6174 1.48068 0
M  V30 1090 N 104.945 -0.338344 -1.53925 0
M  V30 1091 C 105.855 0.529421 -2.28548 0
M  V30 1092 C 106.871 1.11645 -1.3346 0
M  V30 1093 O 108.047 1.13325 -1.66492 0
M  V30 1094 C 105.112 1.66713 -3.03987 0
M  V30 1095 C 104.173 1.11041 -4.14691 0
M  V30 1096 C 103.406 2.19389 -4.86522 0
M  V30 1097 O 103.629 3.40013 -4.57982 0
M  V30 1098 O 102.563 1.83976 -5.73094 0
M  V30 1099 H 106.389 -0.0770399 -3.03602 0
M  V30 1100 H 103.974 -0.103555 -1.49041 0
M  V30 1101 H 105.856 2.32918 -3.5118 0
M  V30 1102 H 104.531 2.25949 -2.31794 0
M  V30 1103 H 103.438 0.413024 -3.71813 0
M  V30 1104 H 104.771 0.562975 -4.8897 0
M  V30 1105 N 106.423 1.57458 -0.0668435 0
M  V30 1106 C 107.669 1.93587 0.6043 0
M  V30 1107 C 108.002 0.946722 1.69561 0
M  V30 1108 O 107.277 -0.0248516 1.94484 0
M  V30 1109 C 107.56 3.40014 1.18585 0
M  V30 1110 C 107.413 4.49685 0.101529 0
M  V30 1111 C 108.732 3.87154 2.09284 0
M  V30 1112 H 105.851 0.703958 0.218202 0
M  V30 1113 H 108.493 1.89542 -0.131804 0
M  V30 1114 H 106.643 3.43592 1.81319 0
M  V30 1115 H 108.315 4.5823 -0.531279 0
M  V30 1116 H 106.558 4.30059 -0.568487 0
M  V30 1117 H 107.229 5.49266 0.54874 0
M  V30 1118 H 109.705 3.85551 1.56491 0
M  V30 1119 H 108.581 4.90231 2.46911 0
M  V30 1120 H 108.842 3.2481 2.99918 0
M  V30 1121 N 107.901 -0.206675 1.56239 0
M  V30 1122 C 109.149 -0.927007 1.79586 0
M  V30 1123 C 109.47 -1.8427 0.637929 0
M  V30 1124 O 108.74 -1.92849 -0.344398 0
M  V30 1125 H 107.32 -0.345292 0.662407 0
M  V30 1126 H 109.982 -0.21496 1.93711 0
M  V30 1127 H 109.078 -1.52501 2.72305 0
M  V30 1128 N 109.379 -1.50304 -0.473955 0
M  V30 1129 C 110.656 -1.51667 -1.23518 0
M  V30 1130 C 111.036 -0.259701 -2.09496 0
M  V30 1131 O 110.384 0.756986 -2.15597 0
M  V30 1132 C 110.594 -2.81082 -2.06868 0
M  V30 1133 C 111.942 -3.31631 -2.65153 0
M  V30 1134 O 112.966 -2.82384 -2.17113 0
M  V30 1135 O 111.825 -4.17471 -3.52675 0
M  V30 1136 H 108.919 -0.60822 -0.560355 0
M  V30 1137 H 111.465 -1.62592 -0.486011 0
M  V30 1138 H 110.237 -3.64041 -1.4349 0
M  V30 1139 H 109.86 -2.73146 -2.88924 0
M  V30 1140 N 110.857 0.726932 -1.39834 0
M  V30 1141 C 112.103 1.48884 -1.377 0
M  V30 1142 C 112.436 1.94185 0.0244852 0
M  V30 1143 O 111.711 1.67361 0.990986 0
M  V30 1144 C 111.994 2.72288 -2.3565 0
M  V30 1145 C 111.847 2.32956 -3.84775 0
M  V30 1146 C 113.166 3.74414 -2.31306 0
M  V30 1147 H 110.285 0.540062 -0.5015 0
M  V30 1148 H 112.927 0.830547 -1.70886 0
M  V30 1149 H 111.077 3.28457 -2.07481 0
M  V30 1150 H 112.749 1.82356 -4.23726 0
M  V30 1151 H 110.992 1.65088 -4.01159 0
M  V30 1152 H 111.663 3.21362 -4.4881 0
M  V30 1153 H 114.139 3.27849 -2.56231 0
M  V30 1154 H 113.015 4.58414 -3.01907 0
M  V30 1155 H 113.276 4.21909 -1.32081 0
M  V30 1156 N 112.336 1.25143 0.95797 0
M  V30 1157 C 113.752 1.01892 1.22842 0
M  V30 1158 C 113.952 -0.266311 1.99732 0
M  V30 1159 O 113.008 -0.979913 2.3271 0
M  V30 1160 C 114.321 2.24004 2.00606 0
M  V30 1161 C 115.869 2.28731 2.13662 0
M  V30 1162 C 116.344 3.5049 2.94823 0
M  V30 1163 N 117.835 3.50866 3.02403 0
M  V30 1164 C 118.57 4.4174 3.65586 0
M  V30 1165 N 118.066 5.42882 4.30408 0
M  V30 1166 N 119.859 4.29429 3.62694 0
M  V30 1167 H 112.01 2.07718 0.443493 0
M  V30 1168 H 114.273 0.912031 0.258657 0
M  V30 1169 H 113.979 3.17395 1.51503 0
M  V30 1170 H 113.853 2.26907 3.01319 0
M  V30 1171 H 116.24 1.35865 2.61963 0
M  V30 1172 H 116.321 2.29848 1.12265 0
M  V30 1173 H 115.965 4.43676 2.47213 0
M  V30 1174 H 115.895 3.46617 3.96439 0
M  V30 1175 H 118.386 2.777 2.56302 0
M  V30 1176 H 118.699 6.0844 4.76467 0
M  V30 1177 H 117.044 5.46758 4.29047 0
M  V30 1178 H 120.235 3.49643 3.11236 0
M  V30 1179 H 120.408 5.00448 4.1165 0
M  V30 1180 N 113.814 -1.1601 1.06675 0
M  V30 1181 C 114.762 -2.22586 0.675157 0
M  V30 1182 C 115.756 -1.66525 -0.310766 0
M  V30 1183 O 116.962 -1.79145 -0.175215 0
M  V30 1184 H 113.337 -0.724855 0.200223 0
M  V30 1185 H 115.308 -2.52899 1.58381 0
M  V30 1186 C 114.057 -3.47604 0.0817162 0
M  V30 1187 H 113.38 -3.91058 0.831484 0
M  V30 1188 H 114.82 -4.23718 -0.154708 0
M  V30 1189 C 113.279 -3.15718 -1.17576 0
M  V30 1190 O 113.809 -3.31878 -2.26318 0
M  V30 1191 N 112.015 -2.69816 -1.07923 0
M  V30 1192 H 111.562 -2.56866 -0.194293 0
M  V30 1193 H 111.52 -2.48855 -1.92141 0
M  V30 1194 N 115.292 -0.849877 -1.32721 0
M  V30 1195 C 116.202 -0.293791 -2.32753 0
M  V30 1196 C 117.218 0.585906 -1.63839 0
M  V30 1197 O 118.394 0.487413 -1.95413 0
M  V30 1198 C 115.459 0.512752 -3.42887 0
M  V30 1199 C 114.52 -0.39252 -4.27502 0
M  V30 1200 C 113.753 0.375625 -5.32377 0
M  V30 1201 O 113.976 1.60613 -5.4732 0
M  V30 1202 O 112.91 -0.256094 -6.01355 0
M  V30 1203 H 116.736 -1.12242 -2.82197 0
M  V30 1204 H 114.321 -0.612685 -1.36259 0
M  V30 1205 H 116.203 0.970704 -4.10067 0
M  V30 1206 H 114.878 1.31826 -2.95641 0
M  V30 1207 H 113.785 -0.898547 -3.63149 0
M  V30 1208 H 115.118 -1.16309 -4.7826 0
M  V30 1209 N 116.77 1.45427 -0.607355 0
M  V30 1210 C 118.047 1.9557 -0.0344566 0
M  V30 1211 C 118.427 1.54979 1.43334 0
M  V30 1212 O 117.775 0.812241 2.13576 0
M  V30 1213 C 117.985 3.48226 -0.232321 0
M  V30 1214 C 119.333 4.2445 -0.113001 0
M  V30 1215 O 120.357 3.55829 -0.162431 0
M  V30 1216 O 119.216 5.465 0.00209442 0
M  V30 1217 H 116.31 0.826222 0.0358667 0
M  V30 1218 H 118.856 1.55594 -0.6774 0
M  V30 1219 H 117.628 3.70739 -1.25174 0
M  V30 1220 H 117.251 3.95092 0.445896 0
M  V30 1221 N 118.248 0.346503 1.53744 0
M  V30 1222 C 119.495 -0.249104 2.00962 0
M  V30 1223 C 119.823 -1.5032 1.23426 0
M  V30 1224 O 119.078 -1.93217 0.310761 0
M  V30 1225 C 119.377 -0.605809 3.52228 0
M  V30 1226 C 119.043 0.551747 4.47512 0
M  V30 1227 C 117.705 0.86941 4.73281 0
M  V30 1228 C 120.057 1.32818 5.03993 0
M  V30 1229 C 117.385 1.96582 5.52786 0
M  V30 1230 C 119.737 2.41486 5.84694 0
M  V30 1231 C 118.401 2.73808 6.08757 0
M  V30 1232 H 117.671 -0.0911538 0.735372 0
M  V30 1233 H 120.318 0.475027 1.85515 0
M  V30 1234 H 118.623 -1.4107 3.65522 0
M  V30 1235 H 120.32 -1.07858 3.86222 0
M  V30 1236 H 116.91 0.294102 4.2759 0
M  V30 1237 H 121.094 1.09602 4.84047 0
M  V30 1238 H 116.35 2.22045 5.69654 0
M  V30 1239 H 120.524 3.02078 6.27473 0
M  V30 1240 H 118.151 3.58892 6.7015 0
M  V30 1241 N 119.726 -1.57421 0.075193 0
M  V30 1242 C 120.656 -2.15942 -0.888324 0
M  V30 1243 C 121.637 -1.08737 -1.30806 0
M  V30 1244 O 122.822 -1.36787 -1.37851 0
M  V30 1245 C 119.952 -2.72379 -2.1547 0
M  V30 1246 C 118.906 -3.8478 -1.87425 0
M  V30 1247 C 118.232 -4.27834 -3.20721 0
M  V30 1248 C 119.532 -5.08869 -1.17684 0
M  V30 1249 H 121.226 -2.96705 -0.400799 0
M  V30 1250 H 118.772 -1.42723 -0.191342 0
M  V30 1251 H 120.725 -3.11965 -2.83295 0
M  V30 1252 H 119.449 -1.88841 -2.6647 0
M  V30 1253 H 118.108 -3.45703 -1.22004 0
M  V30 1254 H 117.756 -3.41214 -3.6957 0
M  V30 1255 H 117.456 -5.03605 -3.02746 0
M  V30 1256 H 118.98 -4.70039 -3.89738 0
M  V30 1257 H 120.394 -5.4575 -1.75584 0
M  V30 1258 H 118.791 -5.8994 -1.09956 0
M  V30 1259 H 119.861 -4.84648 -0.156453 0
M  V30 1260 N 121.204 0.198386 -1.56346 0
M  V30 1261 C 122.152 1.26538 -1.95169 0
M  V30 1262 C 123.146 1.47295 -0.836685 0
M  V30 1263 O 124.352 1.48195 -1.02167 0
M  V30 1264 H 120.727 0.424744 -0.620561 0
M  V30 1265 H 122.698 0.910904 -2.84157 0
M  V30 1266 C 121.447 2.6035 -2.30463 0
M  V30 1267 H 120.77 2.45192 -3.15786 0
M  V30 1268 H 122.21 3.33762 -2.61494 0
M  V30 1269 C 120.669 3.17096 -1.13806 0
M  V30 1270 O 121.199 3.99588 -0.41135 0
M  V30 1271 N 119.405 2.75795 -0.915736 0
M  V30 1272 H 118.952 2.08816 -1.50843 0
M  V30 1273 H 118.91 3.14101 -0.136979 0
M  V30 1274 N 122.682 1.50554 0.465978 0
M  V30 1275 C 123.93 1.61479 1.21528 0
M  V30 1276 C 124.251 0.319596 1.92363 0
M  V30 1277 O 123.521 -0.663194 1.84333 0
M  V30 1278 H 122.101 0.595055 0.451573 0
M  V30 1279 H 124.763 1.87355 0.53704 0
M  V30 1280 H 123.859 2.42846 1.96042 0
M  V30 1281 N 124.16 -0.719506 1.40217 0
M  V30 1282 C 125.406 -1.48152 1.38488 0
M  V30 1283 C 125.739 -1.94195 -0.0141867 0
M  V30 1284 O 125.014 -1.67884 -0.982096 0
M  V30 1285 C 125.297 -2.71035 2.37091 0
M  V30 1286 C 125.15 -2.30912 3.86005 0
M  V30 1287 C 126.469 -3.73182 2.33288 0
M  V30 1288 H 123.588 -0.537395 0.504357 0
M  V30 1289 H 126.23 -0.821472 1.71324 0
M  V30 1290 H 124.38 -3.27352 2.0922 0
M  V30 1291 H 126.052 -1.80107 4.24687 0
M  V30 1292 H 124.295 -1.62958 4.02029 0
M  V30 1293 H 124.966 -3.18978 4.50508 0
M  V30 1294 H 127.442 -3.26485 2.57966 0
M  V30 1295 H 126.318 -4.56806 3.04334 0
M  V30 1296 H 126.579 -4.21202 1.34317 0
M  V30 1297 N 125.638 -1.25649 -0.95132 0
M  V30 1298 C 126.885 -1.10594 -1.69633 0
M  V30 1299 C 127.213 0.352515 -1.91279 0
M  V30 1300 O 126.468 1.27601 -1.4838 0
M  V30 1301 C 126.767 -1.80909 -3.08231 0
M  V30 1302 C 126.433 -3.30825 -3.06375 0
M  V30 1303 C 125.095 -3.71722 -3.05576 0
M  V30 1304 C 127.447 -4.26589 -2.99452 0
M  V30 1305 C 124.775 -5.06788 -2.95606 0
M  V30 1306 C 127.127 -5.61683 -2.91024 0
M  V30 1307 C 125.791 -6.01904 -2.88562 0
M  V30 1308 H 125.061 -0.404691 -0.620731 0
M  V30 1309 H 127.708 -1.55964 -1.11119 0
M  V30 1310 H 126.013 -1.27979 -3.70309 0
M  V30 1311 H 127.71 -1.6671 -3.64704 0
M  V30 1312 H 124.3 -2.98287 -3.07771 0
M  V30 1313 H 128.484 -3.95982 -2.99185 0
M  V30 1314 H 123.74 -5.37126 -2.92071 0
M  V30 1315 H 127.914 -6.35578 -2.84629 0
M  V30 1316 H 125.541 -7.06521 -2.80593 0
M  V30 1317 N 127.117 1.15442 -1.07289 0
M  V30 1318 C 128.345 1.90096 -0.81676 0
M  V30 1319 C 128.76 1.7798 0.629966 0
M  V30 1320 O 128.117 1.1313 1.43206 0
M  V30 1321 C 128.168 3.40466 -1.21512 0
M  V30 1322 O 127.889 3.52232 -2.60508 0
M  V30 1323 C 129.39 4.32145 -0.988198 0
M  V30 1324 H 126.61 0.602495 -0.295366 0
M  V30 1325 H 129.154 1.4627 -1.42918 0
M  V30 1326 H 127.309 3.81958 -0.647039 0
M  V30 1327 H 127.723 4.45549 -2.76742 0
M  V30 1328 H 129.197 5.36072 -1.31645 0
M  V30 1329 H 129.674 4.39135 0.0755063 0
M  V30 1330 H 130.28 3.96395 -1.54115 0
M  V30 1331 N 128.595 0.856903 1.32268 0
M  V30 1332 C 130.011 0.547061 1.49931 0
M  V30 1333 C 130.211 -0.921781 1.7918 0
M  V30 1334 O 129.267 -1.70469 1.8627 0
M  V30 1335 C 130.58 1.43599 2.64196 0
M  V30 1336 C 132.128 1.43665 2.78081 0
M  V30 1337 C 132.603 2.31085 3.95428 0
M  V30 1338 N 134.094 2.28893 4.02694 0
M  V30 1339 C 134.829 2.93262 4.92732 0
M  V30 1340 N 134.325 3.66751 5.87763 0
M  V30 1341 N 136.118 2.82638 4.85873 0
M  V30 1342 H 128.269 1.8075 1.11549 0
M  V30 1343 H 130.532 0.772144 0.549997 0
M  V30 1344 H 130.238 2.48058 2.49319 0
M  V30 1345 H 130.112 1.12502 3.60032 0
M  V30 1346 H 132.499 0.399701 2.92381 0
M  V30 1347 H 132.58 1.7878 1.82952 0
M  V30 1348 H 132.224 3.34849 3.81888 0
M  V30 1349 H 132.154 1.93302 4.89839 0
M  V30 1350 H 134.645 1.75466 3.34694 0
M  V30 1351 H 134.958 4.13027 6.53168 0
M  V30 1352 H 133.303 3.70859 5.87783 0
M  V30 1353 H 136.494 2.24774 4.10602 0
M  V30 1354 H 136.667 3.33084 5.55841 0
M  V30 1355 N 130.073 -1.45103 0.615059 0
M  V30 1356 C 131.023 -2.27679 -0.120966 0
M  V30 1357 C 132.007 -1.3775 -0.831491 0
M  V30 1358 O 133.199 -1.61683 -0.720249 0
M  V30 1359 C 130.328 -3.24767 -1.1127 0
M  V30 1360 C 129.414 -4.22184 -0.402627 0
M  V30 1361 N 129.805 -5.02692 0.559884 0
M  V30 1362 C 128.103 -4.4125 -0.649202 0
M  V30 1363 C 128.804 -5.73421 0.977942 0
M  V30 1364 N 127.78 -5.42657 0.320104 0
M  V30 1365 H 131.582 -2.87325 0.618181 0
M  V30 1366 H 129.096 -1.56345 0.439304 0
M  V30 1367 H 131.093 -3.82666 -1.65446 0
M  V30 1368 H 129.753 -2.66682 -1.85232 0
M  V30 1369 H 130.764 -5.09354 0.936976 0
M  V30 1370 H 127.441 -3.9428 -1.37293 0
M  V30 1371 H 128.831 -6.48107 1.77222 0
M  V30 1372 N 131.551 -0.354651 -1.53558 0
M  V30 1373 C 132.799 0.237972 -2.00694 0
M  V30 1374 C 133.12 1.50173 -1.24391 0
M  V30 1375 O 132.39 1.92673 -0.354135 0
M  V30 1376 H 130.97 0.0909256 -0.741446 0
M  V30 1377 H 133.632 -0.478368 -1.88938 0
M  V30 1378 H 132.728 0.47264 -3.085 0
M  V30 1379 N 133.029 1.57378 -0.0835403 0
M  V30 1380 C 134.44 1.81261 0.447358 0
M  V30 1381 C 134.791 0.998331 1.68902 0
M  V30 1382 O 133.916 0.224282 2.15235 0
M  V30 1383 C 134.511 3.28767 0.818386 0
M  V30 1384 C 133.07 3.53455 1.29409 0
M  V30 1385 C 132.217 2.75831 0.285024 0
M  V30 1386 H 135.168 1.5566 -0.309115 0
M  V30 1387 H 135.189 3.41459 1.67887 0
M  V30 1388 H 134.701 3.88006 -0.0855019 0
M  V30 1389 H 132.802 2.99534 2.21608 0
M  V30 1390 H 132.915 4.62128 1.2639 0
M  V30 1391 H 131.279 2.42947 0.764767 0
M  V30 1392 H 132.062 3.37813 -0.611341 0
M  V30 1393 N 134.507 -0.190092 1.56449 0
M  V30 1394 C 135.756 -0.907912 1.80111 0
M  V30 1395 C 136.069 -1.84214 0.657619 0
M  V30 1396 O 137.275 -2.60094 0.778663 0
M  V30 1397 C 135.731 -1.66485 3.19078 0
M  V30 1398 C 135.339 -0.7752 4.41242 0
M  V30 1399 C 137.083 -2.37201 3.52045 0
M  V30 1400 C 134.99 -1.53129 5.71231 0
M  V30 1401 H 133.92 -0.34276 0.671589 0
M  V30 1402 H 136.571 -0.161109 1.82791 0
M  V30 1403 H 134.953 -2.45572 3.10661 0
M  V30 1404 H 136.127 -0.0226298 4.60794 0
M  V30 1405 H 134.442 -0.178627 4.16017 0
M  V30 1406 H 137.039 -2.94329 4.46402 0
M  V30 1407 H 137.382 -3.11632 2.76028 0
M  V30 1408 H 137.915 -1.65075 3.61932 0
M  V30 1409 H 134.654 -0.82967 6.50228 0
M  V30 1410 H 134.174 -2.25767 5.55688 0
M  V30 1411 H 135.853 -2.08377 6.12526 0
M  V30 1412 N 135.985 -1.50799 -0.457987 0
M  V30 1413 C 137.262 -1.52968 -1.21902 0
M  V30 1414 C 137.642 -0.281906 -2.09209 0
M  V30 1415 O 136.99 0.734076 -2.16388 0
M  V30 1416 C 137.2 -2.8326 -2.03875 0
M  V30 1417 C 138.548 -3.34425 -2.6162 0
M  V30 1418 O 139.572 -2.8467 -2.14106 0
M  V30 1419 O 138.431 -4.21188 -3.48228 0
M  V30 1420 H 135.525 -0.614129 -0.553873 0
M  V30 1421 H 138.071 -1.63098 -0.468739 0
M  V30 1422 H 136.843 -3.65543 -1.39621 0
M  V30 1423 H 136.466 -2.76195 -2.8601 0
M  V30 1424 N 137.463 0.71206 -1.40597 0
M  V30 1425 C 138.426 1.80785 -1.40888 0
M  V30 1426 C 139.426 1.57937 -0.302103 0
M  V30 1427 O 140.616 1.64913 -0.561182 0
M  V30 1428 C 137.748 3.18927 -1.20409 0
M  V30 1429 H 138.941 1.81924 -2.38419 0
M  V30 1430 H 136.494 0.91805 -1.26497 0
M  V30 1431 H 137.229 3.23436 -0.236522 0
M  V30 1432 H 137.014 3.36911 -2.00582 0
M  V30 1433 H 138.504 3.98949 -1.23408 0
M  V30 1434 N 138.941 1.26152 0.944643 0
M  V30 1435 C 140.187 1.11657 1.69294 0
M  V30 1436 C 140.52 -0.339926 1.91202 0
M  V30 1437 O 139.795 -1.24994 1.49019 0
M  V30 1438 C 140.078 1.88236 3.06984 0
M  V30 1439 C 139.931 3.41772 2.92424 0
M  V30 1440 C 141.25 1.67343 4.07043 0
M  V30 1441 H 138.369 0.407004 0.614424 0
M  V30 1442 H 141.011 1.55106 1.09737 0
M  V30 1443 H 139.161 1.51308 3.57824 0
M  V30 1444 H 140.833 3.88433 2.48832 0
M  V30 1445 H 139.076 3.68974 2.28124 0
M  V30 1446 H 139.747 3.90579 3.90067 0
M  V30 1447 H 142.223 1.99509 3.65151 0
M  V30 1448 H 141.099 2.23346 5.01406 0
M  V30 1449 H 141.36 0.617158 4.37771 0
M  V30 1450 N 140.419 -1.14872 1.07899 0
M  V30 1451 C 141.665 -1.86064 0.806725 0
M  V30 1452 C 141.998 -1.82434 -0.665706 0
M  V30 1453 O 141.273 -1.25138 -1.48899 0
M  V30 1454 C 141.556 -3.34929 1.32267 0
M  V30 1455 C 141.409 -3.47161 2.86006 0
M  V30 1456 C 142.728 -4.29863 0.943717 0
M  V30 1457 H 139.847 -0.675591 0.294526 0
M  V30 1458 H 142.489 -1.34925 1.33773 0
M  V30 1459 H 140.639 -3.78611 0.870974 0
M  V30 1460 H 142.311 -3.12302 3.39507 0
M  V30 1461 H 140.554 -2.88539 3.23925 0
M  V30 1462 H 141.225 -4.51777 3.17177 0
M  V30 1463 H 143.701 -3.9417 1.33302 0
M  V30 1464 H 142.577 -5.32494 1.33198 0
M  V30 1465 H 142.838 -4.41846 -0.149796 0
M  V30 1466 N 141.898 -0.863906 -1.31812 0
M  V30 1467 C 142.848 -0.286898 -2.26188 0
M  V30 1468 C 143.832 0.572577 -1.50367 0
M  V30 1469 O 145.024 0.420447 -1.71934 0
M  V30 1470 C 142.153 0.515849 -3.39402 0
M  V30 1471 C 141.239 -0.356531 -4.22599 0
M  V30 1472 N 141.63 -1.44716 -4.84656 0
M  V30 1473 C 139.928 -0.147898 -4.45755 0
M  V30 1474 C 140.629 -1.98462 -5.46798 0
M  V30 1475 N 139.605 -1.28247 -5.28255 0
M  V30 1476 H 143.407 -1.12055 -2.717 0
M  V30 1477 H 140.921 -0.711012 -1.46008 0
M  V30 1478 H 142.918 0.945701 -4.06032 0
M  V30 1479 H 141.578 1.34718 -2.95434 0
M  V30 1480 H 142.589 -1.83008 -4.84488 0
M  V30 1481 H 139.266 0.647973 -4.12441 0
M  V30 1482 H 140.656 -2.89932 -6.06126 0
M  V30 1483 N 143.376 1.44774 -0.622745 0
M  V30 1484 C 144.309 2.27792 0.136329 0
M  V30 1485 C 145.287 1.38041 0.859264 0
M  V30 1486 O 146.471 1.67478 0.86506 0
M  V30 1487 C 143.598 3.16776 1.19878 0
M  V30 1488 C 142.644 4.22575 0.57731 0
M  V30 1489 S 143.477 5.31825 -0.626294 0
M  V30 1490 C 144.633 6.24377 0.436378 0
M  V30 1491 H 144.866 2.91824 -0.567967 0
M  V30 1492 H 142.399 1.48838 -0.410677 0
M  V30 1493 H 144.357 3.68596 1.80686 0
M  V30 1494 H 143.018 2.5198 1.87523 0
M  V30 1495 H 142.211 4.84818 1.37721 0
M  V30 1496 H 141.813 3.73974 0.0440439 0
M  V30 1497 H 144.105 6.64689 1.31128 0
M  V30 1498 H 145.048 7.07941 -0.150271 0
M  V30 1499 H 145.456 5.59381 0.758513 0
M  V30 1500 N 144.854 0.36279 1.53368 0
M  V30 1501 C 146.094 -0.227882 2.03126 0
M  V30 1502 C 146.458 -1.4622 1.24434 0
M  V30 1503 O 147.659 -2.12831 1.64184 0
M  V30 1504 C 145.93 -0.515427 3.53664 0
M  V30 1505 S 147.489 -1.08017 4.25297 0
M  V30 1506 H 144.307 -0.0665377 0.70788 0
M  V30 1507 H 146.909 0.50501 1.88865 0
M  V30 1508 H 145.613 0.390436 4.08539 0
M  V30 1509 H 145.144 -1.27747 3.72081 0
M  V30 1510 H 147.159 -2.36462 4.36234 0
M  V30 1511 N 146.332 -1.57332 0.0918853 0
M  V30 1512 C 147.295 -2.12708 -0.85369 0
M  V30 1513 C 148.295 -1.05561 -1.213 0
M  V30 1514 O 149.485 -1.31461 -1.14296 0
M  V30 1515 C 146.617 -2.64503 -2.15061 0
M  V30 1516 H 147.81 -2.97573 -0.3729 0
M  V30 1517 H 145.363 -1.55509 -0.157072 0
M  V30 1518 H 146.098 -1.83149 -2.67632 0
M  V30 1519 H 145.883 -3.4284 -1.90272 0
M  V30 1520 H 147.373 -3.07351 -2.82711 0
M  V30 1521 N 147.81 0.181792 -1.56548 0
M  V30 1522 C 149.057 0.900097 -1.81396 0
M  V30 1523 C 149.385 1.82695 -0.667281 0
M  V30 1524 O 148.64 1.92614 0.346146 0
M  V30 1525 C 148.939 1.73728 -3.12335 0
M  V30 1526 C 148.605 0.960255 -4.40556 0
M  V30 1527 C 147.267 0.745766 -4.75386 0
M  V30 1528 C 149.619 0.414477 -5.19549 0
M  V30 1529 C 146.947 -0.0257694 -5.86694 0
M  V30 1530 C 149.299 -0.343916 -6.31664 0
M  V30 1531 C 147.963 -0.569301 -6.65068 0
M  V30 1532 H 147.233 0.329369 -0.663775 0
M  V30 1533 H 149.88 0.165647 -1.90782 0
M  V30 1534 H 148.185 2.54081 -2.98245 0
M  V30 1535 H 149.882 2.29591 -3.28769 0
M  V30 1536 H 146.472 1.13746 -4.13231 0
M  V30 1537 H 150.656 0.567554 -4.93044 0
M  V30 1538 H 145.912 -0.210233 -6.11038 0
M  V30 1539 H 150.086 -0.774133 -6.92084 0
M  V30 1540 H 147.713 -1.16903 -7.51158 0
M  V30 1541 N 149.288 1.51039 0.449983 0
M  V30 1542 C 150.218 1.74379 1.55288 0
M  V30 1543 C 151.199 0.593236 1.5942 0
M  V30 1544 O 152.384 0.834625 1.7535 0
M  V30 1545 C 149.514 1.85728 2.93466 0
M  V30 1546 C 148.468 3.01078 3.04197 0
M  V30 1547 C 147.794 2.97595 4.44231 0
M  V30 1548 C 149.094 4.41254 2.7945 0
M  V30 1549 H 150.788 2.66725 1.36008 0
M  V30 1550 H 148.334 1.2835 0.652864 0
M  V30 1551 H 150.287 2.0064 3.70569 0
M  V30 1552 H 149.011 0.900207 3.13949 0
M  V30 1553 H 147.67 2.85851 2.29531 0
M  V30 1554 H 147.318 1.99691 4.61663 0
M  V30 1555 H 147.018 3.75046 4.52343 0
M  V30 1556 H 148.542 3.14583 5.23326 0
M  V30 1557 H 149.956 4.56897 3.46292 0
M  V30 1558 H 148.353 5.20315 2.98985 0
M  V30 1559 H 149.423 4.52164 1.75144 0
M  V30 1560 N 150.766 -0.704594 1.40972 0
M  V30 1561 C 151.729 -1.80035 1.41845 0
M  V30 1562 C 152.729 -1.57774 0.310474 0
M  V30 1563 O 153.919 -1.64613 0.56992 0
M  V30 1564 C 151.051 -3.18284 1.22098 0
M  V30 1565 H 152.244 -1.80658 2.3938 0
M  V30 1566 H 149.797 -0.911329 1.26982 0
M  V30 1567 H 150.532 -3.23306 0.253672 0
M  V30 1568 H 150.317 -3.35843 2.02366 0
M  V30 1569 H 151.807 -3.98289 1.25522 0
M  V30 1570 N 152.244 -1.26651 -0.937939 0
M  V30 1571 C 153.49 -1.12553 -1.687 0
M  V30 1572 C 153.823 0.329782 -1.91379 0
M  V30 1573 O 153.098 1.24202 -1.4968 0
M  V30 1574 C 153.381 -1.89862 -3.05981 0
M  V30 1575 C 153.234 -3.43318 -2.90607 0
M  V30 1576 C 154.553 -1.69499 -4.0615 0
M  V30 1577 H 151.672 -0.410257 -0.612257 0
M  V30 1578 H 154.314 -1.55685 -1.08913 0
M  V30 1579 H 152.464 -1.53204 -3.57017 0
M  V30 1580 H 154.136 -3.89747 -2.46769 0
M  V30 1581 H 152.379 -3.70179 -2.26164 0
M  V30 1582 H 153.05 -3.92642 -3.8799 0
M  V30 1583 H 155.526 -2.01442 -3.64088 0
M  V30 1584 H 154.402 -2.26002 -5.00214 0
M  V30 1585 H 154.663 -0.640365 -4.37438 0
M  V30 1586 N 153.722 1.14298 -1.08507 0
M  V30 1587 C 154.97 1.84993 -0.813763 0
M  V30 1588 C 155.291 1.83405 0.662393 0
M  V30 1589 O 154.561 1.28319 1.48024 0
M  V30 1590 H 153.141 0.684966 -0.298045 0
M  V30 1591 H 155.803 1.385 -1.37126 0
M  V30 1592 H 154.899 2.89788 -1.15884 0
M  V30 1593 N 155.201 0.870884 1.31352 0
M  V30 1594 C 156.111 0.330783 2.32256 0
M  V30 1595 C 157.127 -0.559767 1.6475 0
M  V30 1596 O 158.303 -0.456263 1.96164 0
M  V30 1597 C 155.368 -0.458137 3.4366 0
M  V30 1598 C 154.429 0.460482 4.26823 0
M  V30 1599 C 153.662 -0.290881 5.32907 0
M  V30 1600 O 153.885 -1.51885 5.49806 0
M  V30 1601 O 152.819 0.351732 6.00871 0
M  V30 1602 H 156.645 1.16718 2.80376 0
M  V30 1603 H 154.23 0.634285 1.35267 0
M  V30 1604 H 156.112 -0.905343 4.1156 0
M  V30 1605 H 154.787 -1.27106 2.97701 0
M  V30 1606 H 153.694 0.956207 3.61673 0
M  V30 1607 H 155.027 1.23903 4.7635 0
M  V30 1608 N 156.679 -1.44442 0.630414 0
M  V30 1609 C 157.904 -2.06927 0.139944 0
M  V30 1610 C 158.329 -1.46795 -1.17613 0
M  V30 1611 O 157.687 -0.569144 -1.72135 0
M  V30 1612 C 157.735 -3.6058 0.0379581 0
M  V30 1613 O 156.839 -3.99937 -1.0062 0
M  V30 1614 H 156.18 -0.658608 0.0844483 0
M  V30 1615 H 158.71 -1.85327 0.866891 0
M  V30 1616 H 158.72 -4.07714 -0.152856 0
M  V30 1617 H 157.395 -4.03728 0.998809 0
M  V30 1618 H 155.972 -3.64436 -0.79001 0
M  V30 1619 N 158.157 -0.370918 -1.53173 0
M  V30 1620 C 159.403 0.217423 -2.01631 0
M  V30 1621 C 159.736 1.47983 -1.25756 0
M  V30 1622 O 159.011 1.91274 -0.352764 0
M  V30 1623 C 159.294 0.503982 -3.56556 0
M  V30 1624 C 159.147 -0.77243 -4.43118 0
M  V30 1625 C 160.466 1.30234 -4.20389 0
M  V30 1626 H 157.585 0.0775486 -0.732909 0
M  V30 1627 H 160.227 -0.496863 -1.83388 0
M  V30 1628 H 158.377 1.11248 -3.72231 0
M  V30 1629 H 160.049 -1.4098 -4.39229 0
M  V30 1630 H 158.292 -1.39167 -4.10871 0
M  V30 1631 H 158.963 -0.526815 -5.4948 0
M  V30 1632 H 161.439 0.787546 -4.08579 0
M  V30 1633 H 160.315 1.47158 -5.28806 0
M  V30 1634 H 160.576 2.31237 -3.76805 0
M  V30 1635 N 159.635 1.57281 -0.100228 0
M  V30 1636 C 161.051 1.57527 0.256416 0
M  V30 1637 C 161.251 1.11173 1.68056 0
M  V30 1638 O 160.307 0.79053 2.39806 0
M  V30 1639 C 161.62 3.00673 0.0401747 0
M  V30 1640 C 163.168 3.12815 0.107528 0
M  V30 1641 C 163.643 4.57929 -0.0807834 0
M  V30 1642 N 165.134 4.63193 -0.0261207 0
M  V30 1643 C 165.869 5.73212 -0.146999 0
M  V30 1644 N 165.365 6.92047 -0.322999 0
M  V30 1645 N 167.158 5.62031 -0.0879044 0
M  V30 1646 H 159.309 1.85718 -1.03065 0
M  V30 1647 H 161.572 0.857446 -0.404339 0
M  V30 1648 H 161.278 3.38804 -0.943649 0
M  V30 1649 H 161.152 3.69042 0.780262 0
M  V30 1650 H 163.539 2.74554 1.08186 0
M  V30 1651 H 163.62 2.47028 -0.664134 0
M  V30 1652 H 163.264 4.96886 -1.05201 0
M  V30 1653 H 163.194 5.21783 0.710635 0
M  V30 1654 H 165.685 3.77748 0.107161 0
M  V30 1655 H 165.998 7.7173 -0.406608 0
M  V30 1656 H 164.343 6.94074 -0.358733 0
M  V30 1657 H 167.534 4.68075 0.048498 0
M  V30 1658 H 167.707 6.47734 -0.185557 0
M  V30 1659 N 161.113 -0.173488 1.56642 0
M  V30 1660 C 162.39 -0.917617 1.7274 0
M  V30 1661 C 162.77 -2.00484 0.661027 0
M  V30 1662 O 162.118 -2.26184 -0.32453 0
M  V30 1663 C 162.328 -1.48433 3.15862 0
M  V30 1664 C 163.676 -1.95809 3.76754 0
M  V30 1665 O 164.7 -1.58231 3.19126 0
M  V30 1666 O 163.559 -2.65024 4.77938 0
M  V30 1667 H 160.653 -0.431772 0.705338 0
M  V30 1668 H 163.199 -0.161487 1.6893 0
M  V30 1669 H 161.971 -0.701715 3.84957 0
M  V30 1670 H 161.594 -2.30471 3.23989 0
M  V30 1671 N 162.591 -1.51276 -0.441967 0
M  V30 1672 C 164.002 -1.56244 -1.02199 0
M  V30 1673 C 164.353 -0.383149 -1.92422 0
M  V30 1674 O 163.478 0.500613 -2.1053 0
M  V30 1675 C 164.073 -2.83162 -1.86024 0
M  V30 1676 C 162.632 -2.90716 -2.39084 0
M  V30 1677 C 161.779 -2.50858 -1.18175 0
M  V30 1678 H 164.73 -1.5712 -0.223416 0
M  V30 1679 H 164.751 -2.66663 -2.71425 0
M  V30 1680 H 164.263 -3.68974 -1.20331 0
M  V30 1681 H 162.364 -2.09323 -3.08244 0
M  V30 1682 H 162.477 -3.94266 -2.72198 0
M  V30 1683 H 160.841 -2.03951 -1.52565 0
M  V30 1684 H 161.624 -3.3901 -0.541001 0
M  V30 1685 N 164.069 0.697108 -1.41344 0
M  V30 1686 C 164.999 1.82353 -1.45841 0
M  V30 1687 C 165.98 1.67115 -0.317247 0
M  V30 1688 O 167.165 1.86871 -0.528474 0
M  V30 1689 C 164.295 3.20476 -1.33838 0
M  V30 1690 C 163.249 3.50415 -2.4575 0
M  V30 1691 C 162.575 4.87878 -2.18813 0
M  V30 1692 C 163.875 3.49546 -3.88091 0
M  V30 1693 H 165.569 1.78846 -2.40113 0
M  V30 1694 H 163.115 0.859028 -1.15571 0
M  V30 1695 H 165.068 3.98988 -1.35596 0
M  V30 1696 H 163.792 3.24604 -0.360498 0
M  V30 1697 H 162.451 2.74253 -2.43271 0
M  V30 1698 H 162.099 4.8863 -1.19371 0
M  V30 1699 H 161.799 5.08875 -2.93803 0
M  V30 1700 H 163.323 5.68702 -2.22284 0
M  V30 1701 H 164.737 4.18066 -3.92293 0
M  V30 1702 H 163.134 3.82075 -4.62751 0
M  V30 1703 H 164.204 2.48552 -4.16353 0
M  V30 1704 N 165.547 1.27147 0.931209 0
M  V30 1705 C 166.494 1.09568 2.03134 0
M  V30 1706 C 167.464 -0.00222433 1.661 0
M  V30 1707 O 168.649 0.159439 1.90133 0
M  V30 1708 C 165.789 0.745231 3.36957 0
M  V30 1709 C 164.902 1.92041 3.86968 0
M  V30 1710 C 164.037 1.51216 5.09222 0
M  V30 1711 C 163.076 2.65504 5.5152 0
M  V30 1712 N 162.213 2.25291 6.64972 0
M  V30 1713 H 167.053 2.03708 2.17502 0
M  V30 1714 H 164.59 1.01411 1.06556 0
M  V30 1715 H 166.548 0.522878 4.1391 0
M  V30 1716 H 165.178 -0.159202 3.22407 0
M  V30 1717 H 164.23 2.25541 3.06326 0
M  V30 1718 H 165.542 2.77787 4.1429 0
M  V30 1719 H 164.696 1.25084 5.93666 0
M  V30 1720 H 163.435 0.625749 4.83669 0
M  V30 1721 H 162.44 2.92354 4.65628 0
M  V30 1722 H 163.665 3.54761 5.7907 0
M  V30 1723 H 161.611 1.39098 6.41083 0
M  V30 1724 H 161.528 3.04577 6.91931 0
M  V30 1725 H 162.796 2.02398 7.52765 0
M  V30 1726 N 167.025 -1.13721 1.09112 0
M  V30 1727 C 168.255 -1.88499 0.845671 0
M  V30 1728 C 168.663 -1.79218 -0.606432 0
M  V30 1729 O 168.006 -1.1544 -1.42896 0
M  V30 1730 C 168.068 -3.38954 1.19793 0
M  V30 1731 C 167.732 -3.72018 2.65428 0
M  V30 1732 C 168.729 -3.7153 3.63677 0
M  V30 1733 C 166.414 -4.01775 3.01467 0
M  V30 1734 C 168.408 -4.00336 4.95994 0
M  V30 1735 C 166.095 -4.30243 4.33975 0
M  V30 1736 C 167.093 -4.29508 5.31048 0
M  V30 1737 O 166.781 -4.5728 6.61173 0
M  V30 1738 H 166.513 -0.603702 0.304171 0
M  V30 1739 H 169.067 -1.44903 1.45576 0
M  V30 1740 H 167.297 -3.83039 0.530871 0
M  V30 1741 H 168.986 -3.95052 0.932146 0
M  V30 1742 H 169.752 -3.4862 3.37179 0
M  V30 1743 H 165.631 -4.01496 2.26544 0
M  V30 1744 H 169.175 -3.99678 5.71755 0
M  V30 1745 H 165.072 -4.52625 4.60219 0
M  V30 1746 H 165.84 -4.74964 6.66597 0
M  V30 1747 N 168.503 -0.877838 -1.30888 0
M  V30 1748 C 169.733 -0.506678 -2.00291 0
M  V30 1749 C 170.141 0.907449 -1.66018 0
M  V30 1750 O 169.484 1.60719 -0.88967 0
M  V30 1751 C 169.546 -0.59323 -3.54572 0
M  V30 1752 C 169.21 -1.97038 -4.12341 0
M  V30 1753 C 170.207 -2.93889 -4.28865 0
M  V30 1754 C 167.892 -2.27383 -4.47886 0
M  V30 1755 C 169.886 -4.19224 -4.80136 0
M  V30 1756 C 167.573 -3.52965 -4.98857 0
M  V30 1757 C 168.571 -4.48701 -5.14934 0
M  V30 1758 O 168.259 -5.72056 -5.64808 0
M  V30 1759 H 167.991 -0.1951 -0.647234 0
M  V30 1760 H 170.545 -1.18301 -1.6791 0
M  V30 1761 H 168.775 0.140057 -3.86446 0
M  V30 1762 H 170.464 -0.234372 -4.05223 0
M  V30 1763 H 171.23 -2.71756 -4.01714 0
M  V30 1764 H 167.109 -1.53639 -4.34645 0
M  V30 1765 H 170.653 -4.93956 -4.92599 0
M  V30 1766 H 166.55 -3.74939 -5.25443 0
M  V30 1767 H 167.318 -5.74337 -5.83163 0
M  V30 1768 N 169.982 1.44106 -0.638065 0
M  V30 1769 C 171.259 1.95453 -0.0759321 0
M  V30 1770 C 171.639 1.57984 1.40015 0
M  V30 1771 O 170.987 0.857361 2.11806 0
M  V30 1772 C 171.197 3.47655 -0.306132 0
M  V30 1773 C 172.545 4.24114 -0.203008 0
M  V30 1774 O 173.569 3.55405 -0.237871 0
M  V30 1775 O 172.428 5.46381 -0.113827 0
M  V30 1776 H 169.522 0.826797 0.0183332 0
M  V30 1777 H 172.068 1.54122 -0.710251 0
M  V30 1778 H 170.84 3.68 -1.3301 0
M  V30 1779 H 170.463 3.95949 0.361991 0
M  V30 1780 N 171.46 0.379036 1.52974 0
M  V30 1781 C 172.408 -0.476033 2.27677 0
M  V30 1782 C 173.402 -1.0719 1.31174 0
M  V30 1783 O 174.608 -1.01355 1.48752 0
M  V30 1784 H 170.983 -0.172255 0.732006 0
M  V30 1785 H 172.954 0.175615 2.97883 0
M  V30 1786 C 171.703 -1.5967 3.0887 0
M  V30 1787 H 171.026 -1.1475 3.82978 0
M  V30 1788 H 172.466 -2.16943 3.64296 0
M  V30 1789 C 170.925 -2.54682 2.20542 0
M  V30 1790 O 171.455 -3.57836 1.82527 0
M  V30 1791 N 169.661 -2.24183 1.84907 0
M  V30 1792 H 169.208 -1.40333 2.1602 0
M  V30 1793 H 169.166 -2.88006 1.26096 0
M  V30 1794 N 172.938 -1.57226 0.108567 0
M  V30 1795 C 173.886 -2.16002 -0.862885 0
M  V30 1796 C 174.88 -1.10644 -1.28274 0
M  V30 1797 O 176.086 -1.28966 -1.2557 0
M  V30 1798 H 172.461 -0.691148 -0.296342 0
M  V30 1799 H 174.432 -2.96427 -0.342575 0
M  V30 1800 C 173.181 -2.76576 -2.10716 0
M  V30 1801 H 172.504 -3.5734 -1.793 0
M  V30 1802 H 173.944 -3.21253 -2.76717 0
M  V30 1803 C 172.403 -1.73137 -2.89007 0
M  V30 1804 O 172.933 -1.17842 -3.84026 0
M  V30 1805 N 171.139 -1.43317 -2.52801 0
M  V30 1806 H 170.686 -1.88473 -1.75601 0
M  V30 1807 H 170.644 -0.743485 -3.05483 0
M  V30 1808 N 174.416 0.165178 -1.56732 0
M  V30 1809 C 175.662 0.882112 -1.82611 0
M  V30 1810 C 175.995 1.81628 -0.687378 0
M  V30 1811 O 175.27 1.92009 0.310267 0
M  V30 1812 C 175.553 1.67245 -3.18906 0
M  V30 1813 C 175.406 0.760987 -4.43316 0
M  V30 1814 C 176.725 2.63884 -3.52212 0
M  V30 1815 H 173.844 0.319242 -0.664269 0
M  V30 1816 H 176.486 0.148052 -1.89422 0
M  V30 1817 H 174.636 2.29824 -3.1323 0
M  V30 1818 H 176.308 0.147596 -4.61064 0
M  V30 1819 H 174.551 0.0694102 -4.33744 0
M  V30 1820 H 175.222 1.34962 -5.35247 0
M  V30 1821 H 177.698 2.11429 -3.58381 0
M  V30 1822 H 176.574 3.16245 -4.48643 0
M  V30 1823 H 176.835 3.44377 -2.77231 0
M  V30 1824 N 175.894 1.51508 0.433938 0
M  V30 1825 C 177.14 1.64588 1.18484 0
M  V30 1826 C 177.473 0.362666 1.90784 0
M  V30 1827 O 176.748 -0.637892 1.83742 0
M  V30 1828 C 177.031 2.85149 2.19913 0
M  V30 1829 C 176.884 4.23456 1.51674 0
M  V30 1830 C 178.203 3.01227 3.20858 0
M  V30 1831 H 175.322 0.598994 0.429389 0
M  V30 1832 H 177.964 1.84002 0.473647 0
M  V30 1833 H 176.114 2.68729 2.80566 0
M  V30 1834 H 177.786 4.51552 0.943322 0
M  V30 1835 H 176.029 4.25998 0.819035 0
M  V30 1836 H 176.7 5.03812 2.2556 0
M  V30 1837 H 179.176 3.16382 2.70263 0
M  V30 1838 H 178.052 3.87141 3.89118 0
M  V30 1839 H 178.313 2.13447 3.8716 0
M  V30 1840 N 177.372 -0.689602 1.41712 0
M  V30 1841 C 178.62 -1.4468 1.4111 0
M  V30 1842 C 178.941 -1.94986 0.0232196 0
M  V30 1843 O 178.211 -1.72097 -0.935913 0
M  V30 1844 H 176.791 -0.536847 0.519427 0
M  V30 1845 H 179.453 -0.815825 1.77004 0
M  V30 1846 H 178.549 -2.30706 2.10193 0
M  V30 1847 N 178.85 -1.27639 -0.924453 0
M  V30 1848 C 180.099 -1.13549 -1.66702 0
M  V30 1849 C 180.412 0.317487 -1.93006 0
M  V30 1850 O 181.618 0.579333 -2.65247 0
M  V30 1851 C 180.074 -1.98426 -3.00259 0
M  V30 1852 C 179.682 -3.484 -2.81641 0
M  V30 1853 C 181.426 -1.92993 -3.78092 0
M  V30 1854 C 179.333 -4.25464 -4.10773 0
M  V30 1855 H 178.263 -0.421351 -0.625283 0
M  V30 1856 H 180.914 -1.52085 -1.02676 0
M  V30 1857 H 179.296 -1.52736 -3.6536 0
M  V30 1858 H 180.47 -4.01973 -2.25287 0
M  V30 1859 H 178.785 -3.55245 -2.17232 0
M  V30 1860 H 181.382 -2.47844 -4.7379 0
M  V30 1861 H 181.725 -0.904281 -4.0636 0
M  V30 1862 H 182.258 -2.36595 -3.19793 0
M  V30 1863 H 178.997 -5.28566 -3.87683 0
M  V30 1864 H 178.517 -3.76667 -4.66779 0
M  V30 1865 H 180.196 -4.34812 -4.79111 0
M  V30 1866 N 180.328 1.1314 -1.09713 0
M  V30 1867 C 181.258 2.20748 -0.761102 0
M  V30 1868 C 182.239 1.68061 0.262566 0
M  V30 1869 O 183.424 1.93765 0.129977 0
M  V30 1870 C 180.554 3.46812 -0.184054 0
M  V30 1871 C 179.508 4.12606 -1.13757 0
M  V30 1872 C 178.834 5.33031 -0.422083 0
M  V30 1873 C 180.134 4.59603 -2.48118 0
M  V30 1874 H 181.828 2.49113 -1.66082 0
M  V30 1875 H 179.374 1.19734 -0.799987 0
M  V30 1876 H 181.327 4.21353 0.0631215 0
M  V30 1877 H 180.051 3.17851 0.750868 0
M  V30 1878 H 178.71 3.40036 -1.37007 0
M  V30 1879 H 178.358 5.00335 0.517072 0
M  V30 1880 H 178.058 5.77999 -1.05788 0
M  V30 1881 H 179.582 6.10325 -0.183277 0
M  V30 1882 H 180.996 5.25552 -2.29059 0
M  V30 1883 H 179.393 5.15321 -3.07514 0
M  V30 1884 H 180.463 3.73971 -3.08665 0
M  V30 1885 N 181.806 0.884767 1.30421 0
M  V30 1886 C 183.222 0.57874 1.48737 0
M  V30 1887 C 183.422 -0.883567 1.81095 0
M  V30 1888 O 182.478 -1.6648 1.89844 0
M  V30 1889 C 183.791 1.49171 2.61091 0
M  V30 1890 C 185.339 1.49532 2.74971 0
M  V30 1891 C 185.814 2.39421 3.90438 0
M  V30 1892 N 187.305 2.37383 3.97748 0
M  V30 1893 C 188.04 3.03647 4.86401 0
M  V30 1894 N 187.536 3.79136 5.79852 0
M  V30 1895 N 189.329 2.9288 4.79768 0
M  V30 1896 H 181.48 1.83075 1.0769 0
M  V30 1897 H 183.743 0.783637 0.533495 0
M  V30 1898 H 183.449 2.53291 2.44001 0
M  V30 1899 H 183.323 1.20113 3.57565 0
M  V30 1900 H 185.71 0.46163 2.91467 0
M  V30 1901 H 185.791 1.8262 1.79119 0
M  V30 1902 H 185.435 3.42874 3.74699 0
M  V30 1903 H 185.365 2.03649 4.85628 0
M  V30 1904 H 187.856 1.82525 3.30897 0
M  V30 1905 H 188.169 4.26789 6.4426 0
M  V30 1906 H 186.514 3.83243 5.79784 0
M  V30 1907 H 189.705 2.33433 4.05742 0
M  V30 1908 H 189.878 3.448 5.4865 0
M  V30 1909 N 183.284 -1.43765 0.645699 0
M  V30 1910 C 184.214 -2.33471 -0.0370477 0
M  V30 1911 C 185.195 -1.49042 -0.819779 0
M  V30 1912 O 186.38 -1.77726 -0.782758 0
M  V30 1913 C 183.51 -3.32311 -1.0093 0
M  V30 1914 C 182.464 -4.2667 -0.337201 0
M  V30 1915 C 181.79 -5.1549 -1.42037 0
M  V30 1916 C 183.09 -5.16657 0.765706 0
M  V30 1917 H 184.784 -2.90809 0.712069 0
M  V30 1918 H 182.33 -1.39834 0.343876 0
M  V30 1919 H 184.283 -3.9396 -1.49578 0
M  V30 1920 H 183.007 -2.73213 -1.78948 0
M  V30 1921 H 181.666 -3.66374 0.128771 0
M  V30 1922 H 181.314 -4.52735 -2.1918 0
M  V30 1923 H 181.014 -5.79438 -0.975966 0
M  V30 1924 H 182.538 -5.80012 -1.90838 0
M  V30 1925 H 183.952 -5.72158 0.361702 0
M  V30 1926 H 182.349 -5.89286 1.13413 0
M  V30 1927 H 183.419 -4.56796 1.62683 0
M  V30 1928 N 184.763 -0.387143 -1.52771 0
M  V30 1929 C 185.693 0.440551 -2.29306 0
M  V30 1930 C 186.674 1.06535 -1.32606 0
M  V30 1931 O 187.859 1.07853 -1.61497 0
M  V30 1932 C 184.989 1.56919 -3.09829 0
M  V30 1933 C 183.943 1.07054 -4.14395 0
M  V30 1934 C 183.269 2.29109 -4.83129 0
M  V30 1935 C 184.569 0.140015 -5.22112 0
M  V30 1936 H 186.263 -0.198026 -2.98744 0
M  V30 1937 H 183.809 -0.09668 -1.43675 0
M  V30 1938 H 185.762 2.15503 -3.62128 0
M  V30 1939 H 184.486 2.23532 -2.3812 0
M  V30 1940 H 183.145 0.507247 -3.63074 0
M  V30 1941 H 182.793 2.94227 -4.0797 0
M  V30 1942 H 182.493 1.96406 -5.53804 0
M  V30 1943 H 184.017 2.88339 -5.38231 0
M  V30 1944 H 185.431 0.633978 -5.69784 0
M  V30 1945 H 183.828 -0.0971485 -6.00021 0
M  V30 1946 H 184.898 -0.811711 -4.78058 0
M  V30 1947 N 186.241 1.57166 -0.116904 0
M  V30 1948 C 187.173 2.12271 0.864507 0
M  V30 1949 C 188.186 1.06494 1.23138 0
M  V30 1950 O 189.375 1.33873 1.18069 0
M  V30 1951 C 186.475 2.60564 2.16702 0
M  V30 1952 C 185.648 3.90416 1.97216 0
M  V30 1953 C 184.707 4.24329 3.11178 0
M  V30 1954 O 183.733 4.93182 2.84184 0
M  V30 1955 N 184.935 3.8148 4.37554 0
M  V30 1956 H 187.7 2.97102 0.393726 0
M  V30 1957 H 185.261 1.61759 0.0675805 0
M  V30 1958 H 187.253 2.80282 2.91932 0
M  V30 1959 H 185.823 1.80623 2.55135 0
M  V30 1960 H 185.043 3.79627 1.06192 0
M  V30 1961 H 186.331 4.75327 1.81499 0
M  V30 1962 H 185.729 3.25943 4.62361 0
M  V30 1963 H 184.286 4.06311 5.09661 0
M  V30 1964 N 187.719 -0.156864 1.56817 0
M  V30 1965 C 188.682 -1.17781 1.96622 0
M  V30 1966 C 189.682 -1.36401 0.851555 0
M  V30 1967 O 190.872 -1.33561 1.11836 0
M  V30 1968 C 188.004 -2.54008 2.27361 0
M  V30 1969 H 189.197 -0.836564 2.87996 0
M  V30 1970 H 186.75 -0.39985 1.51099 0
M  V30 1971 H 187.485 -2.9312 1.38748 0
M  V30 1972 H 187.27 -2.41856 3.08623 0
M  V30 1973 H 188.76 -3.27558 2.59029 0
M  V30 1974 N 189.197 -1.51736 -0.425897 0
M  V30 1975 C 190.13 -1.68574 -1.53812 0
M  V30 1976 C 191.108 -0.53328 -1.53606 0
M  V30 1977 O 192.292 -0.758555 -1.72564 0
M  V30 1978 C 189.419 -1.70977 -2.92377 0
M  V30 1979 C 188.465 -2.92324 -3.10563 0
M  V30 1980 S 189.298 -4.52952 -2.85648 0
M  V30 1981 C 190.454 -4.58117 -4.26474 0
M  V30 1982 H 190.687 -2.62647 -1.39298 0
M  V30 1983 H 188.22 -1.41564 -0.616361 0
M  V30 1984 H 190.178 -1.73047 -3.72243 0
M  V30 1985 H 188.839 -0.78061 -3.04245 0
M  V30 1986 H 188.032 -2.90439 -4.11899 0
M  V30 1987 H 187.634 -2.88055 -2.38538 0
M  V30 1988 H 189.926 -4.34462 -5.19855 0
M  V30 1989 H 190.869 -5.59983 -4.33388 0
M  V30 1990 H 191.277 -3.8732 -4.10662 0
M  V30 1991 N 190.675 0.682077 -1.42076 0
M  V30 1992 C 191.605 1.80796 -1.47767 0
M  V30 1993 C 192.586 1.6677 -0.334954 0
M  V30 1994 O 193.771 1.863 -0.548264 0
M  V30 1995 C 190.901 3.19038 -1.37229 0
M  V30 1996 C 189.855 3.47789 -2.49453 0
M  V30 1997 C 189.181 4.8553 -2.23975 0
M  V30 1998 C 190.481 3.45411 -3.91776 0
M  V30 1999 H 192.175 1.7629 -2.41997 0
M  V30 2000 H 189.721 0.846721 -1.16476 0
M  V30 2001 H 191.674 3.97528 -1.39821 0
M  V30 2002 H 190.398 3.24204 -0.394907 0
M  V30 2003 H 189.057 2.71657 -2.46166 0
M  V30 2004 H 188.705 4.87337 -1.24547 0
M  V30 2005 H 188.405 5.0573 -2.99184 0
M  V30 2006 H 189.929 5.66312 -2.28304 0
M  V30 2007 H 191.343 4.13882 -3.96705 0
M  V30 2008 H 189.74 3.77145 -4.66778 0
M  V30 2009 H 190.81 2.44122 -4.18966 0
M  V30 2010 N 192.153 1.28127 0.917671 0
M  V30 2011 C 193.083 1.14248 2.03641 0
M  V30 2012 C 194.064 0.0412748 1.7005 0
M  V30 2013 O 195.249 0.217566 1.92977 0
M  V30 2014 C 192.379 0.799431 3.37974 0
M  V30 2015 C 191.333 1.85497 3.85713 0
M  V30 2016 C 190.659 1.36565 5.16966 0
M  V30 2017 C 191.959 3.26085 4.08002 0
M  V30 2018 H 193.653 2.07835 2.15511 0
M  V30 2019 H 191.199 1.00064 1.03553 0
M  V30 2020 H 193.152 0.689114 4.15727 0
M  V30 2021 H 191.876 -0.172145 3.26146 0
M  V30 2022 H 190.535 1.95437 3.10161 0
M  V30 2023 H 190.183 0.383253 5.01538 0
M  V30 2024 H 189.883 2.07143 5.49878 0
M  V30 2025 H 191.407 1.26848 5.97279 0
M  V30 2026 H 192.821 3.19089 4.76293 0
M  V30 2027 H 191.218 3.94462 4.52238 0
M  V30 2028 H 192.288 3.70394 3.12948 0
M  V30 2029 N 193.631 -1.12557 1.10312 0
M  V30 2030 C 194.581 -2.16331 0.720076 0
M  V30 2031 C 195.565 -1.58616 -0.270115 0
M  V30 2032 O 196.757 -1.76823 -0.0790507 0
M  V30 2033 C 193.886 -3.42963 0.152113 0
M  V30 2034 C 192.972 -4.07663 1.16927 0
M  V30 2035 N 193.363 -4.47392 2.35953 0
M  V30 2036 C 191.661 -4.34425 1.0095 0
M  V30 2037 C 192.362 -4.97932 3.0073 0
M  V30 2038 N 191.338 -4.93358 2.28252 0
M  V30 2039 H 195.14 -2.44813 1.62616 0
M  V30 2040 H 192.654 -1.29449 0.980654 0
M  V30 2041 H 194.651 -4.16664 -0.14037 0
M  V30 2042 H 193.311 -3.1595 -0.748701 0
M  V30 2043 H 194.322 -4.39802 2.73486 0
M  V30 2044 H 190.999 -4.17177 0.164134 0
M  V30 2045 H 192.389 -5.38397 4.01969 0
M  V30 2046 N 195.109 -0.891671 -1.2995 0
M  V30 2047 C 196.056 -0.361736 -2.27948 0
M  V30 2048 C 197.026 0.551761 -1.56668 0
M  V30 2049 O 198.211 0.478736 -1.84696 0
M  V30 2050 C 195.351 0.411825 -3.42634 0
M  V30 2051 C 194.464 -0.531651 -4.28716 0
M  V30 2052 C 193.599 0.258167 -5.30572 0
M  V30 2053 C 192.638 -0.680349 -6.08307 0
M  V30 2054 N 191.775 0.0745613 -7.0206 0
M  V30 2055 H 196.615 -1.20254 -2.72659 0
M  V30 2056 H 194.152 -0.604352 -1.34112 0
M  V30 2057 H 196.11 0.876304 -4.07893 0
M  V30 2058 H 194.74 1.21715 -2.98974 0
M  V30 2059 H 193.792 -1.11463 -3.63703 0
M  V30 2060 H 195.104 -1.25038 -4.82874 0
M  V30 2061 H 194.258 0.784204 -6.0161 0
M  V30 2062 H 192.997 1.01008 -4.77126 0
M  V30 2063 H 192.002 -1.21796 -5.3614 0
M  V30 2064 H 193.227 -1.43145 -6.63842 0
M  V30 2065 H 191.173 0.808883 -6.50994 0
M  V30 2066 H 191.09 -0.584409 -7.53738 0
M  V30 2067 H 192.358 0.581123 -7.77331 0
M  V30 2068 N 196.587 1.43421 -0.653314 0
M  V30 2069 C 197.827 2.03689 -0.170346 0
M  V30 2070 C 198.191 1.50427 1.19314 0
M  V30 2071 O 199.392 2.0234 1.76952 0
M  V30 2072 C 197.663 3.56946 -0.180183 0
M  V30 2073 S 199.222 4.38171 0.234925 0
M  V30 2074 H 196.04 0.707345 -0.0719976 0
M  V30 2075 H 198.642 1.75486 -0.86167 0
M  V30 2076 H 197.346 3.93212 -1.17526 0
M  V30 2077 H 196.877 3.89791 0.531675 0
M  V30 2078 H 198.892 4.73808 1.47378 0
M  V30 2079 N 198.065 0.39524 1.52563 0
M  V30 2080 C 199.342 -0.242908 1.94086 0
M  V30 2081 C 199.722 -1.63841 1.33114 0
M  V30 2082 O 199.07 -2.22928 0.501529 0
M  V30 2083 C 199.28 -0.26327 3.48006 0
M  V30 2084 C 200.628 -0.489354 4.21771 0
M  V30 2085 O 201.652 -0.343226 3.54543 0
M  V30 2086 O 200.511 -0.776169 5.4096 0
M  V30 2087 H 197.605 -0.152536 0.812811 0
M  V30 2088 H 200.151 0.450178 1.6362 0
M  V30 2089 H 198.923 0.713985 3.84731 0
M  V30 2090 H 198.546 -1.00103 3.84792 0
M  V30 2091 N 199.544 -1.57102 0.125237 0
M  V30 2092 C 200.491 -2.15641 -0.822655 0
M  V30 2093 C 201.461 -1.08313 -1.25927 0
M  V30 2094 O 202.646 -1.36251 -1.33567 0
M  V30 2095 C 199.786 -2.76504 -2.06494 0
M  V30 2096 C 198.899 -3.98158 -1.67612 0
M  V30 2097 C 198.034 -4.47088 -2.86854 0
M  V30 2098 C 197.073 -5.6126 -2.44242 0
M  V30 2099 N 196.21 -6.04905 -3.56419 0
M  V30 2100 H 201.05 -2.96313 -0.316625 0
M  V30 2101 H 198.587 -1.46388 -0.144588 0
M  V30 2102 H 200.545 -3.09925 -2.79289 0
M  V30 2103 H 199.175 -1.98512 -2.54545 0
M  V30 2104 H 198.227 -3.70858 -0.846661 0
M  V30 2105 H 199.539 -4.80934 -1.32301 0
M  V30 2106 H 198.693 -4.82451 -3.67867 0
M  V30 2107 H 197.432 -3.63275 -3.25396 0
M  V30 2108 H 196.437 -5.25495 -1.61663 0
M  V30 2109 H 197.662 -6.46843 -2.0681 0
M  V30 2110 H 195.608 -5.24032 -3.94623 0
M  V30 2111 H 195.525 -6.82552 -3.25051 0
M  V30 2112 H 196.793 -6.44907 -4.37853 0
M  V30 2113 N 201.022 0.148545 -1.56898 0
M  V30 2114 C 202.271 0.85984 -1.82454 0
M  V30 2115 C 202.584 1.82406 -0.706229 0
M  V30 2116 O 203.79 2.57938 -0.847349 0
M  V30 2117 C 202.246 1.57967 -3.2338 0
M  V30 2118 C 201.854 0.65794 -4.43142 0
M  V30 2119 C 203.598 2.27784 -3.58211 0
M  V30 2120 C 201.505 1.3793 -5.75091 0
M  V30 2121 H 200.435 0.324834 -0.68044 0
M  V30 2122 H 203.086 0.112588 -1.83154 0
M  V30 2123 H 201.468 2.37249 -3.17063 0
M  V30 2124 H 202.642 -0.0995497 -4.60692 0
M  V30 2125 H 200.957 0.0682643 -4.16344 0
M  V30 2126 H 203.554 2.8239 -4.54048 0
M  V30 2127 H 203.897 3.04204 -2.84193 0
M  V30 2128 H 204.43 1.55421 -3.66182 0
M  V30 2129 H 201.169 0.656982 -6.52199 0
M  V30 2130 H 200.689 2.10954 -5.61479 0
M  V30 2131 H 202.368 1.92063 -6.17835 0
M  V30 2132 N 202.5 1.5196 0.417844 0
M  V30 2133 C 203.749 1.6482 1.16264 0
M  V30 2134 C 204.062 0.379886 1.91876 0
M  V30 2135 O 205.268 0.388154 2.68711 0
M  V30 2136 C 203.724 2.91161 2.1155 0
M  V30 2137 C 203.332 4.25068 1.41495 0
M  V30 2138 C 205.076 3.13383 2.86341 0
M  V30 2139 C 202.983 5.42541 2.35379 0
M  V30 2140 H 201.913 0.613954 0.437694 0
M  V30 2141 H 204.564 1.78442 0.427871 0
M  V30 2142 H 202.946 2.71218 2.88543 0
M  V30 2143 H 204.12 4.55463 0.699263 0
M  V30 2144 H 202.435 4.0888 0.787792 0
M  V30 2145 H 205.032 3.98324 3.5671 0
M  V30 2146 H 205.375 2.27256 3.48798 0
M  V30 2147 H 205.908 3.33757 2.1645 0
M  V30 2148 H 202.647 6.30987 1.77582 0
M  V30 2149 H 202.167 5.16497 3.04945 0
M  V30 2150 H 203.846 5.75272 2.96093 0
M  V30 2151 N 203.978 -0.674533 1.42435 0
M  V30 2152 C 205.225 -1.43459 1.42919 0
M  V30 2153 C 205.553 -1.94446 0.0457312 0
M  V30 2154 O 204.808 -1.7132 -0.94593 0
M  V30 2155 C 205.107 -2.64767 2.40069 0
M  V30 2156 C 204.773 -2.3232 3.86443 0
M  V30 2157 C 203.435 -2.23182 4.26314 0
M  V30 2158 C 205.787 -2.05977 4.78773 0
M  V30 2159 C 203.115 -1.85827 5.56494 0
M  V30 2160 C 205.467 -1.70125 6.09295 0
M  V30 2161 C 204.131 -1.59498 6.48164 0
M  V30 2162 H 203.401 -0.524952 0.522978 0
M  V30 2163 H 206.048 -0.769097 1.75377 0
M  V30 2164 H 204.353 -3.36349 2.00939 0
M  V30 2165 H 206.05 -3.22949 2.37707 0
M  V30 2166 H 202.64 -2.40334 3.54877 0
M  V30 2167 H 206.824 -2.11969 4.48757 0
M  V30 2168 H 202.08 -1.76168 5.8547 0
M  V30 2169 H 206.254 -1.48767 6.80324 0
M  V30 2170 H 203.881 -1.30322 7.48946 0
M  V30 2171 N 205.456 -1.28612 -0.910864 0
M  V30 2172 C 206.681 -1.1891 -1.69927 0
M  V30 2173 C 207.106 0.248372 -1.86453 0
M  V30 2174 O 206.464 1.17961 -1.37676 0
M  V30 2175 C 206.512 -1.89578 -3.06745 0
M  V30 2176 O 205.616 -1.20521 -3.94396 0
M  V30 2177 H 204.957 -0.412632 -0.520222 0
M  V30 2178 H 207.487 -1.69985 -1.1387 0
M  V30 2179 H 207.497 -1.97597 -3.56958 0
M  V30 2180 H 206.172 -2.94136 -2.94035 0
M  V30 2181 H 204.749 -1.20684 -3.52831 0
M  V30 2182 N 206.934 1.1197 -1.10907 0
M  V30 2183 C 208.159 1.87942 -0.877064 0
M  V30 2184 C 208.584 1.79341 0.567314 0
M  V30 2185 O 207.942 1.15184 1.40009 0
M  V30 2186 C 207.99 3.34926 -1.33629 0
M  V30 2187 O 207.094 4.09303 -0.504447 0
M  V30 2188 H 206.435 0.583785 -0.316371 0
M  V30 2189 H 208.965 1.4157 -1.47712 0
M  V30 2190 H 208.975 3.8577 -1.32837 0
M  V30 2191 H 207.65 3.40504 -2.3881 0
M  V30 2192 H 206.227 3.68393 -0.577993 0
M  V30 2193 N 208.412 0.89855 1.29475 0
M  V30 2194 C 209.637 0.538561 2.00285 0
M  V30 2195 C 210.062 -0.869135 1.66816 0
M  V30 2196 O 209.42 -1.57831 0.892145 0
M  V30 2197 C 209.468 0.736475 3.52999 0
M  V30 2198 O 208.572 -0.211537 4.11857 0
M  V30 2199 H 207.913 0.210563 0.62973 0
M  V30 2200 H 210.443 1.20982 1.64998 0
M  V30 2201 H 210.453 0.640685 4.02938 0
M  V30 2202 H 209.128 1.76276 3.76696 0
M  V30 2203 H 207.705 -0.0682991 3.72837 0
M  V30 2204 N 209.89 -1.43072 0.660911 0
M  V30 2205 C 210.853 -2.29194 -0.0166406 0
M  V30 2206 C 211.853 -1.42609 -0.742912 0
M  V30 2207 O 213.043 -1.64155 -0.583004 0
M  V30 2208 C 210.175 -3.24831 -1.0343 0
M  V30 2209 H 211.368 -2.90596 0.741208 0
M  V30 2210 H 208.921 -1.5048 0.422532 0
M  V30 2211 H 209.656 -2.68339 -1.82111 0
M  V30 2212 H 209.441 -3.88676 -0.517082 0
M  V30 2213 H 210.931 -3.89451 -1.50723 0
M  V30 2214 N 211.368 -0.403325 -1.52352 0
M  V30 2215 C 212.331 0.413051 -2.25447 0
M  V30 2216 C 213.331 0.978513 -1.276 0
M  V30 2217 O 214.521 0.858305 -1.51587 0
M  V30 2218 C 211.653 1.58087 -3.02029 0
M  V30 2219 H 212.846 -0.227094 -2.99039 0
M  V30 2220 H 210.399 -0.155722 -1.55522 0
M  V30 2221 H 211.134 2.25804 -2.32772 0
M  V30 2222 H 210.919 1.18195 -3.73861 0
M  V30 2223 H 212.409 2.1585 -3.57489 0
M  V30 2224 N 212.846 1.57033 -0.133567 0
M  V30 2225 C 214.095 1.94861 0.520768 0
M  V30 2226 C 214.408 1.02012 1.66892 0
M  V30 2227 O 215.614 1.29365 2.38699 0
M  V30 2228 C 214.07 3.46362 0.977809 0
M  V30 2229 C 213.678 4.47773 -0.142674 0
M  V30 2230 C 215.422 3.93083 1.60269 0
M  V30 2231 C 213.329 5.90468 0.331883 0
M  V30 2232 H 212.259 0.727453 0.198315 0
M  V30 2233 H 214.91 1.82227 -0.215759 0
M  V30 2234 H 213.292 3.54282 1.7692 0
M  V30 2235 H 214.466 4.51536 -0.919317 0
M  V30 2236 H 212.781 4.10891 -0.675124 0
M  V30 2237 H 215.378 4.97121 1.96914 0
M  V30 2238 H 215.721 3.33876 2.48662 0
M  V30 2239 H 216.254 3.88025 0.876453 0
M  V30 2240 H 212.993 6.53463 -0.516341 0
M  V30 2241 H 212.513 5.90094 1.07469 0
M  V30 2242 H 214.192 6.42179 0.788332 0
M  V30 2243 N 214.325 -0.140222 1.56975 0
M  V30 2244 C 215.572 -0.851687 1.83719 0
M  V30 2245 C 215.9 -1.80862 0.715485 0
M  V30 2246 O 215.155 -1.93464 -0.294956 0
M  V30 2247 C 215.454 -1.65386 3.16832 0
M  V30 2248 C 215.12 -0.843112 4.42947 0
M  V30 2249 C 213.782 -0.619464 4.77196 0
M  V30 2250 C 216.134 -0.276582 5.20466 0
M  V30 2251 C 213.462 0.181312 5.8642 0
M  V30 2252 C 215.814 0.51127 6.30531 0
M  V30 2253 C 214.478 0.745432 6.63325 0
M  V30 2254 H 213.748 -0.311654 0.672274 0
M  V30 2255 H 216.395 -0.115006 1.91154 0
M  V30 2256 H 214.7 -2.46084 3.04877 0
M  V30 2257 H 216.397 -2.20793 3.34741 0
M  V30 2258 H 212.987 -1.0275 4.16101 0
M  V30 2259 H 217.171 -0.436632 4.94376 0
M  V30 2260 H 212.427 0.372165 6.10266 0
M  V30 2261 H 216.601 0.957354 6.89788 0
M  V30 2262 H 214.228 1.36778 7.47794 0
M  V30 2263 N 215.803 -1.52179 -0.40978 0
M  V30 2264 C 217.051 -1.65878 -1.15451 0
M  V30 2265 C 217.372 -0.390771 -1.91044 0
M  V30 2266 O 216.642 0.594323 -1.86667 0
M  V30 2267 H 215.222 -0.611405 -0.429177 0
M  V30 2268 H 217.884 -1.89219 -0.467134 0
M  V30 2269 H 216.98 -2.49954 -1.86894 0
M  V30 2270 N 217.281 0.66697 -1.42791 0
M  V30 2271 C 218.229 1.80157 -1.47127 0
M  V30 2272 C 219.223 1.65825 -0.346199 0
M  V30 2273 O 220.429 1.72338 -0.519572 0
M  V30 2274 H 216.804 0.594158 -0.460956 0
M  V30 2275 H 218.775 1.73619 -2.42692 0
M  V30 2276 C 217.524 3.18351 -1.39813 0
M  V30 2277 H 216.847 3.3001 -2.25684 0
M  V30 2278 H 218.287 3.97736 -1.46908 0
M  V30 2279 C 216.746 3.36707 -0.11391 0
M  V30 2280 O 217.276 3.93027 0.830241 0
M  V30 2281 N 215.482 2.90586 -0.0285295 0
M  V30 2282 H 215.029 2.4494 -0.79764 0
M  V30 2283 H 214.987 3.03245 0.830063 0
M  V30 2284 N 218.759 1.29093 0.90403 0
M  V30 2285 C 220.17 1.15186 1.46932 0
M  V30 2286 C 220.521 -0.254587 1.94541 0
M  V30 2287 O 219.646 -1.14972 1.83332 0
M  V30 2288 C 220.241 2.08492 2.67051 0
M  V30 2289 C 218.8 1.98621 3.19729 0
M  V30 2290 C 217.947 1.9967 1.92425 0
M  V30 2291 H 220.898 1.41641 0.715789 0
M  V30 2292 H 220.919 1.65461 3.42641 0
M  V30 2293 H 220.431 3.10847 2.3237 0
M  V30 2294 H 218.532 0.993389 3.59114 0
M  V30 2295 H 218.645 2.86068 3.8432 0
M  V30 2296 H 217.009 1.44208 2.09943 0
M  V30 2297 H 217.792 3.03721 1.60026 0
M  V30 2298 N 220.237 -1.11381 1.11499 0
M  V30 2299 C 221.465 -1.86934 0.88675 0
M  V30 2300 C 221.88 -1.80195 -0.563476 0
M  V30 2301 O 221.237 -1.18367 -1.38908 0
M  V30 2302 C 221.288 -3.35722 1.34064 0
M  V30 2303 O 221.009 -3.4232 2.73401 0
M  V30 2304 C 222.51 -4.2818 1.14791 0
M  V30 2305 H 219.73 -0.591117 0.317523 0
M  V30 2306 H 222.274 -1.40865 1.48248 0
M  V30 2307 H 220.429 -3.79294 0.788355 0
M  V30 2308 H 220.843 -4.34971 2.93087 0
M  V30 2309 H 222.317 -5.30817 1.5145 0
M  V30 2310 H 222.794 -4.39113 0.0875279 0
M  V30 2311 H 223.4 -3.90402 1.68721 0
M  V30 2312 N 221.715 -0.905404 -1.28997 0
M  V30 2313 C 222.648 -0.331959 -2.25773 0
M  V30 2314 C 223.626 0.559099 -1.52685 0
M  V30 2315 O 224.81 0.50463 -1.8162 0
M  V30 2316 C 221.937 0.526276 -3.34586 0
M  V30 2317 C 220.983 -0.298249 -4.25456 0
M  V30 2318 S 221.816 -1.69968 -5.0781 0
M  V30 2319 C 222.972 -0.848519 -6.20122 0
M  V30 2320 H 223.205 -1.15222 -2.74064 0
M  V30 2321 H 220.738 -0.706112 -1.37308 0
M  V30 2322 H 222.696 1.01565 -3.97737 0
M  V30 2323 H 221.357 1.32084 -2.84978 0
M  V30 2324 H 220.55 0.357607 -5.0273 0
M  V30 2325 H 220.152 -0.720968 -3.66985 0
M  V30 2326 H 222.444 -0.0744325 -6.77459 0
M  V30 2327 H 223.387 -1.59353 -6.89937 0
M  V30 2328 H 223.795 -0.400383 -5.63078 0
M  V30 2329 N 223.193 1.4272 -0.668489 0
M  V30 2330 C 224.441 2.01226 -0.187769 0
M  V30 2331 C 224.762 1.53092 1.2078 0
M  V30 2332 O 224.032 0.74993 1.80977 0
M  V30 2333 H 222.612 0.744041 -0.0664272 0
M  V30 2334 H 225.274 1.74723 -0.863583 0
M  V30 2335 H 224.37 3.11556 -0.184166 0
M  V30 2336 N 224.671 0.411399 1.52136 0
M  V30 2337 C 225.896 -0.165538 2.06738 0
M  V30 2338 C 226.321 -1.379 1.27926 0
M  V30 2339 O 225.679 -1.78628 0.310114 0
M  V30 2340 C 225.727 -0.492124 3.57226 0
M  V30 2341 O 224.831 -1.58276 3.80818 0
M  V30 2342 H 224.172 -0.0132132 0.663869 0
M  V30 2343 H 226.702 0.585253 1.96051 0
M  V30 2344 H 226.712 -0.750104 4.01045 0
M  V30 2345 H 225.387 0.394922 4.14021 0
M  V30 2346 H 223.964 -1.31677 3.48877 0
M  V30 2347 N 226.149 -1.5696 0.141893 0
M  V30 2348 C 227.395 -1.9625 -0.511248 0
M  V30 2349 C 227.728 -1.02654 -1.64851 0
M  V30 2350 O 227.003 -0.0679676 -1.94381 0
M  V30 2351 C 227.286 -3.45285 -1.02227 0
M  V30 2352 C 227.139 -4.49658 0.113138 0
M  V30 2353 C 228.458 -3.96698 -1.90574 0
M  V30 2354 H 225.577 -0.713567 -0.184367 0
M  V30 2355 H 228.219 -1.88698 0.222087 0
M  V30 2356 H 226.369 -3.51852 -1.64719 0
M  V30 2357 H 228.041 -4.55174 0.749302 0
M  V30 2358 H 226.284 -4.26857 0.773026 0
M  V30 2359 H 226.955 -5.51258 -0.286053 0
M  V30 2360 H 229.431 -3.92578 -1.37918 0
M  V30 2361 H 228.307 -5.01453 -2.2324 0
M  V30 2362 H 228.568 -3.3875 -2.84079 0
M  V30 2363 N 227.627 0.131896 -1.57047 0
M  V30 2364 C 228.852 0.860418 -1.8871 0
M  V30 2365 C 229.277 1.73251 -0.73251 0
M  V30 2366 O 228.635 1.785 0.317429 0
M  V30 2367 C 228.683 1.68047 -3.19049 0
M  V30 2368 O 227.787 2.7862 -3.04047 0
M  V30 2369 H 227.128 0.238743 -0.619595 0
M  V30 2370 H 229.658 0.118169 -2.04258 0
M  V30 2371 H 229.668 2.07238 -3.51449 0
M  V30 2372 H 228.343 1.04018 -4.02682 0
M  V30 2373 H 226.92 2.42726 -2.83088 0
M  V30 2374 N 229.106 1.52395 0.401703 0
M  V30 2375 C 230.334 1.70676 1.16949 0
M  V30 2376 C 230.749 0.419503 1.8408 0
M  V30 2377 O 230.106 -0.605061 1.72178 0
M  V30 2378 C 230.157 2.84753 2.22706 0
M  V30 2379 O 229.878 4.08495 1.58314 0
M  V30 2380 C 231.379 3.14608 3.12309 0
M  V30 2381 H 228.599 0.571787 0.351142 0
M  V30 2382 H 231.143 1.98987 0.471652 0
M  V30 2383 H 229.298 2.58941 2.88147 0
M  V30 2384 H 229.712 4.72117 2.28485 0
M  V30 2385 H 231.186 3.97923 3.82572 0
M  V30 2386 H 231.663 2.28464 3.75101 0
M  V30 2387 H 232.269 3.42212 2.52529 0
M  V30 2388 N 230.584 -0.659388 1.43143 0
M  V30 2389 C 231.532 -1.79374 1.4808 0
M  V30 2390 C 232.526 -1.65639 0.354988 0
M  V30 2391 O 233.732 -1.7206 0.528704 0
M  V30 2392 H 230.107 -0.591705 0.4641 0
M  V30 2393 H 232.078 -1.72329 2.43609 0
M  V30 2394 C 230.827 -3.17606 1.41499 0
M  V30 2395 H 230.15 -3.28809 2.27431 0
M  V30 2396 H 231.59 -3.96951 1.49015 0
M  V30 2397 C 230.049 -3.36642 0.131765 0
M  V30 2398 O 230.579 -3.93461 -0.809386 0
M  V30 2399 N 228.785 -2.90567 0.0439396 0
M  V30 2400 H 228.332 -2.44513 0.810619 0
M  V30 2401 H 228.29 -3.03681 -0.813969 0
M  V30 2402 N 232.062 -1.29571 -0.897171 0
M  V30 2403 C 233.025 -1.14913 -1.98312 0
M  V30 2404 C 234.025 -0.0838629 -1.60581 0
M  V30 2405 O 235.215 -0.331006 -1.71026 0
M  V30 2406 C 232.347 -0.757835 -3.3237 0
M  V30 2407 H 233.54 -2.11377 -2.12743 0
M  V30 2408 H 231.093 -1.12793 -1.08201 0
M  V30 2409 H 231.828 0.206837 -3.2364 0
M  V30 2410 H 231.613 -1.52755 -3.61121 0
M  V30 2411 H 233.103 -0.678408 -4.12053 0
M  V30 2412 N 233.54 1.10788 -1.12088 0
M  V30 2413 C 234.45 2.20599 -0.798338 0
M  V30 2414 C 235.466 1.72712 0.21135 0
M  V30 2415 O 236.642 2.01348 0.0458477 0
M  V30 2416 C 233.707 3.45771 -0.253674 0
M  V30 2417 C 232.768 4.08411 -1.32283 0
M  V30 2418 C 232.001 5.27608 -0.80406 0
M  V30 2419 O 232.224 5.69241 0.363478 0
M  V30 2420 O 231.158 5.8101 -1.57198 0
M  V30 2421 H 234.984 2.50614 -1.7154 0
M  V30 2422 H 232.569 1.19454 -0.897275 0
M  V30 2423 H 234.451 4.21376 0.0453691 0
M  V30 2424 H 233.126 3.1739 0.636005 0
M  V30 2425 H 232.033 3.34507 -1.67499 0
M  V30 2426 H 233.366 4.40986 -2.18614 0
M  V30 2427 N 235.018 0.912232 1.28515 0
M  V30 2428 C 236.429 0.591352 1.77087 0
M  V30 2429 C 236.78 -0.8933 1.74684 0
M  V30 2430 O 235.905 -1.69876 1.34056 0
M  V30 2431 C 236.5 1.06668 3.2157 0
M  V30 2432 C 235.059 0.79675 3.67871 0
M  V30 2433 C 234.206 1.23427 2.48316 0
M  V30 2434 H 237.157 1.09365 1.15 0
M  V30 2435 H 237.178 0.407455 3.78312 0
M  V30 2436 H 236.69 2.14726 3.23287 0
M  V30 2437 H 234.791 -0.270679 3.71616 0
M  V30 2438 H 234.904 1.40343 4.58084 0
M  V30 2439 H 233.268 0.653036 2.46186 0
M  V30 2440 H 234.051 2.32316 2.52753 0
M  V30 2441 N 236.496 -1.42363 0.676048 0
M  V30 2442 C 237.745 -2.00745 0.196037 0
M  V30 2443 C 238.058 -1.54083 -1.20489 0
M  V30 2444 O 239.264 -2.04891 -1.78134 0
M  V30 2445 C 237.72 -3.58651 0.299616 0
M  V30 2446 C 237.328 -4.143 1.70468 0
M  V30 2447 C 239.072 -4.24326 -0.121619 0
M  V30 2448 C 236.979 -5.64574 1.76096 0
M  V30 2449 H 235.909 -0.750787 0.0695301 0
M  V30 2450 H 238.56 -1.63072 0.841412 0
M  V30 2451 H 236.942 -3.93833 -0.413673 0
M  V30 2452 H 238.116 -3.90575 2.44515 0
M  V30 2453 H 236.431 -3.61081 2.07387 0
M  V30 2454 H 239.028 -5.34607 -0.0997362 0
M  V30 2455 H 239.371 -3.99897 -1.15708 0
M  V30 2456 H 239.904 -3.94108 0.540706 0
M  V30 2457 H 236.643 -5.93804 2.77628 0
M  V30 2458 H 236.163 -5.90286 1.06406 0
M  V30 2459 H 237.842 -6.29013 1.51496 0
M  V30 2460 N 237.974 -0.419461 -1.51915 0
M  V30 2461 C 239.251 0.211999 -1.94448 0
M  V30 2462 C 239.631 1.61703 -1.35703 0
M  V30 2463 O 238.979 2.22102 -0.536931 0
M  V30 2464 C 239.189 0.207872 -3.4838 0
M  V30 2465 C 240.537 0.422192 -4.22496 0
M  V30 2466 O 241.561 0.286778 -3.55044 0
M  V30 2467 O 240.42 0.690009 -5.42126 0
M  V30 2468 H 237.514 0.139586 -0.815135 0
M  V30 2469 H 240.06 -0.476151 -1.62883 0
M  V30 2470 H 238.832 -0.775102 -3.83546 0
M  V30 2471 H 238.455 0.939688 -3.86336 0
M  V30 2472 N 239.452 1.56882 -0.150215 0
M  V30 2473 C 240.701 1.95403 0.500071 0
M  V30 2474 C 241.014 1.03777 1.658 0
M  V30 2475 O 242.22 1.31889 2.37313 0
M  V30 2476 C 240.676 3.4738 0.941018 0
M  V30 2477 C 240.284 4.47596 -0.190158 0
M  V30 2478 C 242.028 3.9476 1.56091 0
M  V30 2479 C 239.935 5.90787 0.269237 0
M  V30 2480 H 238.865 0.729515 0.190588 0
M  V30 2481 H 241.516 1.81988 -0.235074 0
M  V30 2482 H 239.898 3.56138 1.73152 0
M  V30 2483 H 241.072 4.50536 -0.967157 0
M  V30 2484 H 239.387 4.10151 -0.718666 0
M  V30 2485 H 241.984 4.99181 1.9163 0
M  V30 2486 H 242.327 3.36494 2.45107 0
M  V30 2487 H 242.86 3.88932 0.835249 0
M  V30 2488 H 239.599 6.52879 -0.585621 0
M  V30 2489 H 239.119 5.912 1.01204 0
M  V30 2490 H 240.798 6.42979 0.720176 0
M  V30 2491 N 240.93 -0.123565 1.57115 0
M  V30 2492 C 241.878 -1.17082 2.00984 0
M  V30 2493 C 242.872 -1.43136 0.906009 0
M  V30 2494 O 244.078 -1.43152 1.09121 0
M  V30 2495 H 240.453 -0.394653 0.64012 0
M  V30 2496 H 242.424 -0.774292 2.88179 0
M  V30 2497 C 241.173 -2.49057 2.42623 0
M  V30 2498 H 240.496 -2.29846 3.27125 0
M  V30 2499 H 241.936 -3.20906 2.7712 0
M  V30 2500 C 240.395 -3.11305 1.28805 0
M  V30 2501 O 240.925 -3.97171 0.60153 0
M  V30 2502 N 239.131 -2.71111 1.04628 0
M  V30 2503 H 238.678 -2.01382 1.60634 0
M  V30 2504 H 238.636 -3.1309 0.286685 0
M  V30 2505 N 242.408 -1.52605 -0.393616 0
M  V30 2506 C 243.371 -1.76415 -1.46323 0
M  V30 2507 C 244.371 -0.634126 -1.47768 0
M  V30 2508 O 245.561 -0.902142 -1.4902 0
M  V30 2509 C 242.693 -1.8607 -2.85641 0
M  V30 2510 H 243.886 -2.71916 -1.26498 0
M  V30 2511 H 241.439 -1.43257 -0.625073 0
M  V30 2512 H 242.174 -0.925378 -3.10817 0
M  V30 2513 H 241.959 -2.68235 -2.85993 0
M  V30 2514 H 243.449 -2.06179 -3.63153 0
M  V30 2515 N 243.887 0.651787 -1.4349 0
M  V30 2516 C 244.834 1.76462 -1.4876 0
M  V30 2517 C 245.804 1.62641 -0.337189 0
M  V30 2518 O 246.989 1.82864 -0.544544 0
M  V30 2519 C 244.129 3.14623 -1.41796 0
M  V30 2520 C 243.242 3.39568 -2.67053 0
M  V30 2521 C 242.377 4.67585 -2.52068 0
M  V30 2522 C 241.416 4.85639 -3.72587 0
M  V30 2523 N 240.553 6.04915 -3.56402 0
M  V30 2524 H 245.393 1.71293 -2.43849 0
M  V30 2525 H 242.93 0.835889 -1.21043 0
M  V30 2526 H 244.888 3.94496 -1.35753 0
M  V30 2527 H 243.518 3.18859 -0.50288 0
M  V30 2528 H 242.57 2.53783 -2.8337 0
M  V30 2529 H 243.882 3.48795 -3.56572 0
M  V30 2530 H 243.036 5.55586 -2.4374 0
M  V30 2531 H 241.775 4.60681 -1.60075 0
M  V30 2532 H 240.78 3.96073 -3.81321 0
M  V30 2533 H 242.005 4.94372 -4.65589 0
M  V30 2534 H 239.951 5.9914 -2.67146 0
M  V30 2535 H 239.868 6.15106 -4.39524 0
M  V30 2536 H 241.136 6.95533 -3.51929 0
M  V30 2537 N 245.365 1.30045 0.890287 0
M  V30 2538 C 246.312 1.15976 1.99545 0
M  V30 2539 C 247.282 0.0506202 1.66023 0
M  V30 2540 O 248.467 0.219847 1.89529 0
M  V30 2541 C 245.607 0.852054 3.34416 0
M  V30 2542 C 244.72 2.04255 3.80662 0
M  V30 2543 C 243.855 1.6734 5.04154 0
M  V30 2544 C 242.894 2.82916 5.42794 0
M  V30 2545 N 242.031 2.46333 6.57468 0
M  V30 2546 H 246.871 2.10524 2.10911 0
M  V30 2547 H 244.408 1.04749 1.03276 0
M  V30 2548 H 246.366 0.654296 4.12037 0
M  V30 2549 H 244.996 -0.0565502 3.2275 0
M  V30 2550 H 244.048 2.35172 2.98995 0
M  V30 2551 H 245.36 2.90826 4.05242 0
M  V30 2552 H 244.514 1.43908 5.89386 0
M  V30 2553 H 243.253 0.779308 4.81433 0
M  V30 2554 H 242.258 3.0702 4.56091 0
M  V30 2555 H 243.483 3.73004 5.6749 0
M  V30 2556 H 241.429 1.59423 6.36334 0
M  V30 2557 H 241.346 3.26436 6.81891 0
M  V30 2558 H 242.614 2.26244 7.45945 0
M  V30 2559 N 246.843 -1.10192 1.12674 0
M  V30 2560 C 248.068 -1.86523 0.906853 0
M  V30 2561 C 248.493 -1.80221 -0.538711 0
M  V30 2562 O 247.851 -1.17396 -1.38158 0
M  V30 2563 C 247.899 -3.32758 1.3894 0
M  V30 2564 O 247.003 -4.08449 0.5695 0
M  V30 2565 H 246.344 -0.578678 0.325619 0
M  V30 2566 H 248.874 -1.39203 1.49946 0
M  V30 2567 H 248.884 -3.83608 1.38958 0
M  V30 2568 H 247.559 -3.36661 2.44197 0
M  V30 2569 H 246.136 -3.67427 0.636528 0
M  V30 2570 N 248.321 -0.919034 -1.28029 0
M  V30 2571 C 249.732 -0.600735 -1.76771 0
M  V30 2572 C 250.083 0.884024 -1.75156 0
M  V30 2573 O 249.208 1.69163 -1.34956 0
M  V30 2574 C 249.803 -1.08372 -3.21 0
M  V30 2575 C 248.362 -0.816248 -3.67443 0
M  V30 2576 C 247.509 -1.24742 -2.47658 0
M  V30 2577 H 250.46 -1.09974 -1.14418 0
M  V30 2578 H 250.481 -0.427512 -3.78091 0
M  V30 2579 H 249.993 -2.16437 -3.22144 0
M  V30 2580 H 248.094 0.250968 -3.71754 0
M  V30 2581 H 248.207 -1.4277 -4.57333 0
M  V30 2582 H 246.571 -0.666083 -2.45836 0
M  V30 2583 H 247.354 -2.33653 -2.51518 0
M  V30 2584 N 249.799 1.42003 -0.683588 0
M  V30 2585 C 250.709 2.34597 -0.0109075 0
M  V30 2586 C 251.725 1.55576 0.779245 0
M  V30 2587 O 252.901 1.88107 0.719555 0
M  V30 2588 C 249.966 3.34199 0.922588 0
M  V30 2589 C 249.027 4.29115 0.125984 0
M  V30 2590 C 248.26 5.23959 1.01502 0
M  V30 2591 O 248.483 5.23952 2.25456 0
M  V30 2592 O 247.417 6.00053 0.47111 0
M  V30 2593 H 251.243 2.93675 -0.773853 0
M  V30 2594 H 248.828 1.42654 -0.443861 0
M  V30 2595 H 250.71 3.95365 1.45823 0
M  V30 2596 H 249.385 2.77582 1.66523 0
M  V30 2597 H 248.292 3.71335 -0.453969 0
M  V30 2598 H 249.625 4.88798 -0.577736 0
M  V30 2599 N 251.277 0.427512 1.51691 0
M  V30 2600 C 252.502 -0.143601 2.06902 0
M  V30 2601 C 252.927 -1.36536 1.29382 0
M  V30 2602 O 252.285 -1.78289 0.329043 0
M  V30 2603 C 252.333 -0.454207 3.57728 0
M  V30 2604 O 251.437 -1.54228 3.82475 0
M  V30 2605 H 250.778 -0.00617128 0.663971 0
M  V30 2606 H 253.308 0.606014 1.95419 0
M  V30 2607 H 253.318 -0.707525 4.01818 0
M  V30 2608 H 251.993 0.438812 4.13579 0
M  V30 2609 H 250.57 -1.2797 3.50254 0
M  V30 2610 N 252.755 -1.56801 0.158532 0
M  V30 2611 C 254.166 -1.83189 -0.360366 0
M  V30 2612 C 254.517 -1.07778 -1.63946 0
M  V30 2613 O 253.642 -0.326718 -2.13919 0
M  V30 2614 C 254.237 -3.32297 -0.660595 0
M  V30 2615 C 252.796 -3.59227 -1.12398 0
M  V30 2616 C 251.943 -2.76877 -0.153097 0
M  V30 2617 H 254.894 -1.54008 0.383031 0
M  V30 2618 H 254.915 -3.4908 -1.51405 0
M  V30 2619 H 254.427 -3.87156 0.270527 0
M  V30 2620 H 252.528 -3.09766 -2.07064 0
M  V30 2621 H 252.641 -4.67632 -1.04197 0
M  V30 2622 H 251.005 -2.46319 -0.647983 0
M  V30 2623 H 251.788 -3.34511 0.77182 0
M  V30 2624 N 254.233 0.115231 -1.57178 0
M  V30 2625 C 255.463 0.835224 -1.88964 0
M  V30 2626 C 255.871 1.73774 -0.74829 0
M  V30 2627 O 255.214 1.81401 0.289739 0
M  V30 2628 C 255.276 1.7178 -3.15804 0
M  V30 2629 C 254.94 0.989198 -4.46166 0
M  V30 2630 C 255.937 0.328263 -5.18863 0
M  V30 2631 C 253.622 0.969256 -4.9286 0
M  V30 2632 C 255.616 -0.342873 -6.36477 0
M  V30 2633 C 253.303 0.294324 -6.10391 0
M  V30 2634 C 254.301 -0.360582 -6.82048 0
M  V30 2635 O 253.989 -1.02474 -7.97342 0
M  V30 2636 H 253.721 0.245197 -0.629964 0
M  V30 2637 H 256.275 0.10303 -2.05141 0
M  V30 2638 H 254.505 2.49173 -2.95719 0
M  V30 2639 H 256.194 2.31255 -3.33581 0
M  V30 2640 H 256.96 0.335263 -4.8384 0
M  V30 2641 H 252.839 1.46844 -4.36987 0
M  V30 2642 H 256.383 -0.854629 -6.92345 0
M  V30 2643 H 252.28 0.285099 -6.4487 0
M  V30 2644 H 253.048 -0.929594 -8.13204 0
M  V30 2645 N 255.711 1.52812 0.385517 0
M  V30 2646 C 256.959 1.67694 1.12797 0
M  V30 2647 C 257.28 0.421115 1.90399 0
M  V30 2648 O 256.55 -0.564551 1.87589 0
M  V30 2649 H 255.13 0.618155 0.419396 0
M  V30 2650 H 257.792 1.89938 0.436972 0
M  V30 2651 H 256.888 2.52896 1.82894 0
M  V30 2652 N 257.189 -0.644168 1.43834 0
M  V30 2653 C 258.099 -1.78563 1.52159 0
M  V30 2654 C 259.115 -1.69147 0.408069 0
M  V30 2655 O 260.291 -1.90156 0.663524 0
M  V30 2656 C 257.356 -3.14888 1.45073 0
M  V30 2657 C 256.417 -3.36034 2.6717 0
M  V30 2658 C 255.65 -4.65855 2.60413 0
M  V30 2659 O 255.873 -5.45805 1.65689 0
M  V30 2660 O 254.807 -4.88918 3.5106 0
M  V30 2661 H 258.633 -1.74494 2.48567 0
M  V30 2662 H 256.218 -0.80378 1.25935 0
M  V30 2663 H 258.1 -3.96179 1.43597 0
M  V30 2664 H 256.775 -3.19528 0.518037 0
M  V30 2665 H 255.682 -2.54472 2.74217 0
M  V30 2666 H 257.015 -3.36247 3.59442 0
M  V30 2667 N 258.668 -1.30515 -0.883378 0
M  V30 2668 C 259.893 -1.22487 -1.67367 0
M  V30 2669 C 260.318 0.208767 -1.86938 0
M  V30 2670 O 259.676 1.15015 -1.40148 0
M  V30 2671 C 259.724 -1.96041 -3.02655 0
M  V30 2672 O 258.828 -1.28859 -3.91751 0
M  V30 2673 H 258.169 -0.423573 -0.511353 0
M  V30 2674 H 260.699 -1.72362 -1.10239 0
M  V30 2675 H 260.709 -2.05124 -3.52687 0
M  V30 2676 H 259.384 -3.00307 -2.8773 0
M  V30 2677 H 257.961 -1.28141 -3.50192 0
M  V30 2678 N 260.146 1.09593 -1.13257 0
M  V30 2679 C 261.093 2.1618 -0.808381 0
M  V30 2680 C 262.063 1.64517 0.228754 0
M  V30 2681 O 263.248 1.9053 0.101381 0
M  V30 2682 C 260.388 3.43973 -0.278675 0
M  V30 2683 C 259.501 4.09545 -1.37466 0
M  V30 2684 C 258.636 5.25088 -0.803479 0
M  V30 2685 C 257.675 5.82579 -1.87799 0
M  V30 2686 N 256.812 6.89486 -1.32488 0
M  V30 2687 H 261.652 2.43254 -1.72138 0
M  V30 2688 H 259.189 1.19392 -0.859294 0
M  V30 2689 H 261.147 4.17174 0.0465583 0
M  V30 2690 H 259.777 3.17223 0.597459 0
M  V30 2691 H 258.829 3.34226 -1.81652 0
M  V30 2692 H 260.141 4.48307 -2.18684 0
M  V30 2693 H 259.295 6.05178 -0.429427 0
M  V30 2694 H 258.034 4.87684 0.0397956 0
M  V30 2695 H 257.039 5.01152 -2.26113 0
M  V30 2696 H 258.264 6.22045 -2.72463 0
M  V30 2697 H 256.21 6.54064 -0.503575 0
M  V30 2698 H 256.127 7.27007 -2.07355 0
M  V30 2699 H 257.395 7.73336 -0.978336 0
M  V30 2700 N 261.624 0.925811 1.2754 0
M  V30 2701 C 262.554 0.440748 2.29303 0
M  V30 2702 C 263.535 -0.497971 1.62648 0
M  V30 2703 O 264.72 -0.403126 1.8997 0
M  V30 2704 C 261.85 -0.309048 3.45922 0
M  V30 2705 C 260.804 0.54166 4.24559 0
M  V30 2706 C 260.13 -0.337191 5.33636 0
M  V30 2707 C 261.43 1.80516 4.90114 0
M  V30 2708 H 263.124 1.29121 2.70126 0
M  V30 2709 H 260.67 0.622323 1.29858 0
M  V30 2710 H 262.623 -0.659315 4.1621 0
M  V30 2711 H 261.347 -1.19352 3.04011 0
M  V30 2712 H 260.006 0.874609 3.56014 0
M  V30 2713 H 259.654 -1.22056 4.87966 0
M  V30 2714 H 259.354 0.228497 5.87156 0
M  V30 2715 H 260.878 -0.683072 6.06767 0
M  V30 2716 H 262.292 1.52307 5.52698 0
M  V30 2717 H 260.689 2.3142 5.53683 0
M  V30 2718 H 261.759 2.52581 4.13921 0
M  V30 2719 N 263.102 -1.41638 0.69111 0
M  V30 2720 C 264.351 -2.00526 0.217318 0
M  V30 2721 C 264.664 -1.55353 -1.18848 0
M  V30 2722 O 265.87 -2.06769 -1.75951 0
M  V30 2723 C 264.326 -3.58313 0.337639 0
M  V30 2724 C 263.934 -4.12469 1.74852 0
M  V30 2725 C 265.678 -4.24431 -0.0766066 0
M  V30 2726 C 263.585 -5.62675 1.82074 0
M  V30 2727 H 262.515 -0.750008 0.0774893 0
M  V30 2728 H 265.166 -1.6217 0.858661 0
M  V30 2729 H 263.548 -3.9425 -0.371879 0
M  V30 2730 H 264.722 -3.8796 2.48644 0
M  V30 2731 H 263.037 -3.58861 2.11205 0
M  V30 2732 H 265.634 -5.34683 -0.0430284 0
M  V30 2733 H 265.977 -4.01101 -1.1146 0
M  V30 2734 H 266.51 -3.93512 0.582476 0
M  V30 2735 H 263.249 -5.90826 2.83911 0
M  V30 2736 H 262.769 -5.89124 1.12661 0
M  V30 2737 H 264.448 -6.27371 1.58159 0
M  V30 2738 N 264.58 -0.43555 -1.51462 0
M  V30 2739 C 265.543 0.365137 -2.26273 0
M  V30 2740 C 266.543 0.951227 -1.29647 0
M  V30 2741 O 267.733 0.825958 -1.53374 0
M  V30 2742 C 264.865 1.51645 -3.05314 0
M  V30 2743 H 266.058 -0.290474 -2.9849 0
M  V30 2744 H 263.611 -0.188676 -1.55157 0
M  V30 2745 H 264.346 2.20816 -2.3751 0
M  V30 2746 H 264.131 1.10238 -3.76284 0
M  V30 2747 H 265.621 2.08218 -3.61987 0
M  V30 2748 N 266.058 1.56714 -0.166846 0
M  V30 2749 C 266.968 2.21331 0.777791 0
M  V30 2750 C 267.984 1.20358 1.25658 0
M  V30 2751 O 269.16 1.53005 1.30964 0
M  V30 2752 C 266.225 2.83787 1.99163 0
M  V30 2753 C 265.286 3.99947 1.56016 0
M  V30 2754 C 264.519 4.59415 2.71613 0
M  V30 2755 O 264.742 4.17769 3.88362 0
M  V30 2756 O 263.676 5.49359 2.45945 0
M  V30 2757 H 267.502 3.02605 0.257636 0
M  V30 2758 H 265.087 1.49275 0.0611393 0
M  V30 2759 H 266.969 3.23405 2.70161 0
M  V30 2760 H 265.644 2.05513 2.50092 0
M  V30 2761 H 264.551 3.65007 0.819809 0
M  V30 2762 H 265.884 4.79801 1.09782 0
M  V30 2763 N 267.536 -0.106894 1.57237 0
M  V30 2764 C 268.952 -0.46078 1.52804 0
M  V30 2765 C 269.152 -1.81184 0.881746 0
M  V30 2766 O 268.208 -2.48102 0.469224 0
M  V30 2767 C 269.521 -0.434127 2.9755 0
M  V30 2768 C 271.069 -0.516821 3.08704 0
M  V30 2769 C 271.544 -0.520436 4.55033 0
M  V30 2770 N 273.035 -0.58153 4.59535 0
M  V30 2771 C 273.77 -0.605973 5.70189 0
M  V30 2772 N 273.266 -0.587331 6.90306 0
M  V30 2773 N 275.059 -0.649895 5.5833 0
M  V30 2774 H 267.21 0.778203 1.9763 0
M  V30 2775 H 269.473 0.288403 0.903066 0
M  V30 2776 H 269.179 0.491197 3.48253 0
M  V30 2777 H 269.053 -1.25748 3.55622 0
M  V30 2778 H 271.44 -1.43256 2.57995 0
M  V30 2779 H 271.521 0.334449 2.53604 0
M  V30 2780 H 271.165 0.391313 5.0639 0
M  V30 2781 H 271.095 -1.38876 5.07958 0
M  V30 2782 H 273.586 -0.60161 3.73081 0
M  V30 2783 H 273.899 -0.60894 7.70397 0
M  V30 2784 H 272.244 -0.554564 6.92784 0
M  V30 2785 H 275.435 -0.661907 4.63397 0
M  V30 2786 H 275.608 -0.665476 6.44574 0
M  V30 2787 N 269.014 -1.53014 -0.377408 0
M  V30 2788 C 269.947 -1.73382 -1.48371 0
M  V30 2789 C 270.925 -0.581879 -1.51832 0
M  V30 2790 O 272.109 -0.81307 -1.70063 0
M  V30 2791 C 269.236 -1.80192 -2.8679 0
M  V30 2792 C 268.282 -3.02056 -3.01105 0
M  V30 2793 S 269.115 -4.61811 -2.71093 0
M  V30 2794 C 270.271 -4.71453 -4.11683 0
M  V30 2795 H 270.504 -2.66946 -1.30872 0
M  V30 2796 H 268.037 -1.43453 -0.571012 0
M  V30 2797 H 269.995 -1.84802 -3.6655 0
M  V30 2798 H 268.656 -0.877008 -3.01608 0
M  V30 2799 H 267.849 -3.03396 -4.02451 0
M  V30 2800 H 267.451 -2.95498 -2.29253 0
M  V30 2801 H 269.743 -4.50781 -5.0577 0
M  V30 2802 H 270.686 -5.73487 -4.15353 0
M  V30 2803 H 271.094 -4.00189 -3.98132 0
M  V30 2804 N 270.492 0.636531 -1.44174 0
M  V30 2805 C 271.741 1.39213 -1.45954 0
M  V30 2806 C 272.054 1.95374 -0.0939119 0
M  V30 2807 O 273.26 2.71498 0.0107767 0
M  V30 2808 C 271.716 2.52025 -2.56927 0
M  V30 2809 C 271.324 2.024 -3.99673 0
M  V30 2810 C 273.068 3.29269 -2.67922 0
M  V30 2811 C 270.975 3.12521 -5.0208 0
M  V30 2812 H 269.905 0.523132 -0.542999 0
M  V30 2813 H 272.556 0.685349 -1.70221 0
M  V30 2814 H 270.938 3.25253 -2.25891 0
M  V30 2815 H 272.112 1.36073 -4.40251 0
M  V30 2816 H 270.427 1.37987 -3.92872 0
M  V30 2817 H 273.024 4.11352 -3.41605 0
M  V30 2818 H 273.367 3.78397 -1.73555 0
M  V30 2819 H 273.9 2.63129 -2.98342 0
M  V30 2820 H 270.639 2.68343 -5.98057 0
M  V30 2821 H 270.159 3.77507 -4.66099 0
M  V30 2822 H 271.838 3.77385 -5.25538 0
M  V30 2823 N 271.97 1.30982 0.876444 0
M  V30 2824 C 273.386 1.09498 1.16113 0
M  V30 2825 C 273.586 -0.13875 2.01022 0
M  V30 2826 O 272.642 -0.829935 2.38471 0
M  V30 2827 C 273.955 2.36308 1.85954 0
M  V30 2828 C 275.503 2.41856 1.98683 0
M  V30 2829 C 275.978 3.6853 2.71937 0
M  V30 2830 N 277.469 3.69387 2.79477 0
M  V30 2831 C 278.204 4.64096 3.36753 0
M  V30 2832 N 277.7 5.69155 3.95012 0
M  V30 2833 N 279.493 4.51626 3.3465 0
M  V30 2834 H 271.644 2.10118 0.310494 0
M  V30 2835 H 273.907 0.926634 0.200131 0
M  V30 2836 H 273.613 3.26388 1.31011 0
M  V30 2837 H 273.487 2.4561 2.86278 0
M  V30 2838 H 275.874 1.52249 2.52793 0
M  V30 2839 H 275.955 2.36523 0.9742 0
M  V30 2840 H 275.599 4.58499 2.18496 0
M  V30 2841 H 275.529 3.71127 3.73593 0
M  V30 2842 H 278.02 2.93438 2.38123 0
M  V30 2843 H 278.333 6.3751 4.36808 0
M  V30 2844 H 276.678 5.72937 3.93406 0
M  V30 2845 H 279.869 3.68728 2.8837 0
M  V30 2846 H 280.042 5.25614 3.7899 0
M  V30 2847 N 273.449 -1.08991 1.13837 0
M  V30 2848 C 274.726 -1.77863 0.813876 0
M  V30 2849 C 275.106 -1.99375 -0.693746 0
M  V30 2850 O 274.454 -1.59875 -1.63255 0
M  V30 2851 C 274.664 -3.0986 1.60586 0
M  V30 2852 C 276.012 -3.84493 1.8014 0
M  V30 2853 O 277.036 -3.19624 1.57222 0
M  V30 2854 O 275.895 -5.00957 2.18413 0
M  V30 2855 H 272.989 -0.771589 0.297624 0
M  V30 2856 H 275.535 -1.15507 1.24323 0
M  V30 2857 H 274.307 -2.89715 2.63022 0
M  V30 2858 H 273.93 -3.79942 1.17173 0
M  V30 2859 N 274.927 -0.932562 -1.27047 0
M  V30 2860 C 276.167 -0.582919 -1.95912 0
M  V30 2861 C 276.531 0.860629 -1.71631 0
M  V30 2862 O 277.732 1.31878 -2.34225 0
M  V30 2863 C 276.003 -0.905673 -3.45734 0
M  V30 2864 S 277.562 -0.665277 -4.33727 0
M  V30 2865 H 274.38 -0.215 -0.677714 0
M  V30 2866 H 276.982 -1.20204 -1.54179 0
M  V30 2867 H 275.686 -1.95386 -3.60905 0
M  V30 2868 H 275.217 -0.275939 -3.92431 0
M  V30 2869 H 277.232 0.474635 -4.93925 0
M  V30 2870 N 276.405 1.4127 -0.698611 0
M  V30 2871 C 277.368 2.29158 -0.044132 0
M  V30 2872 C 278.368 1.44529 0.704841 0
M  V30 2873 O 279.558 1.65643 0.539276 0
M  V30 2874 C 276.69 3.27459 0.947809 0
M  V30 2875 H 277.883 2.88529 -0.817994 0
M  V30 2876 H 275.436 1.49307 -0.46228 0
M  V30 2877 H 276.171 2.73073 1.74933 0
M  V30 2878 H 275.956 3.8991 0.41385 0
M  V30 2879 H 277.446 3.93311 1.40344 0
M  V30 2880 N 277.883 0.443576 1.51229 0
M  V30 2881 C 278.793 -0.370721 2.31652 0
M  V30 2882 C 279.809 -1.02186 1.40833 0
M  V30 2883 O 280.985 -1.01586 1.73903 0
M  V30 2884 C 278.05 -1.45376 3.14749 0
M  V30 2885 C 277.111 -0.822099 4.21355 0
M  V30 2886 C 276.344 -1.85353 5.0048 0
M  V30 2887 O 276.567 -3.07656 4.80316 0
M  V30 2888 O 275.501 -1.4406 5.84406 0
M  V30 2889 H 279.327 0.286002 3.0235 0
M  V30 2890 H 276.912 0.20598 1.47973 0
M  V30 2891 H 278.794 -2.08173 3.66391 0
M  V30 2892 H 277.469 -2.09445 2.46809 0
M  V30 2893 H 276.376 -0.155909 3.73775 0
M  V30 2894 H 277.709 -0.224797 4.91686 0
M  V30 2895 N 279.361 -1.56624 0.175154 0
M  V30 2896 C 280.324 -2.16934 -0.739738 0
M  V30 2897 C 281.324 -1.11842 -1.15533 0
M  V30 2898 O 282.514 -1.37335 -1.07167 0
M  V30 2899 C 279.646 -2.75531 -2.00738 0
M  V30 2900 H 280.839 -2.99131 -0.214639 0
M  V30 2901 H 278.392 -1.56123 -0.0744197 0
M  V30 2902 H 279.127 -1.97078 -2.57548 0
M  V30 2903 H 278.912 -3.52444 -1.71831 0
M  V30 2904 H 280.402 -3.21904 -2.66021 0
M  V30 2905 N 280.839 0.0985539 -1.57292 0
M  V30 2906 C 282.069 0.815135 -1.8984 0
M  V30 2907 C 282.477 1.7297 -0.766679 0
M  V30 2908 O 281.82 1.81698 0.270483 0
M  V30 2909 C 281.882 1.6842 -3.17608 0
M  V30 2910 C 281.546 0.94182 -4.4719 0
M  V30 2911 C 282.543 0.273212 -5.19182 0
M  V30 2912 C 280.228 0.916927 -4.9386 0
M  V30 2913 C 282.222 -0.410361 -6.36078 0
M  V30 2914 C 279.909 0.229567 -6.10669 0
M  V30 2915 C 280.907 -0.432902 -6.81627 0
M  V30 2916 O 280.595 -1.10925 -7.9621 0
M  V30 2917 H 280.327 0.238501 -0.632529 0
M  V30 2918 H 282.881 0.0812659 -2.05239 0
M  V30 2919 H 281.111 2.46022 -2.98345 0
M  V30 2920 H 282.8 2.27704 -3.36015 0
M  V30 2921 H 283.566 0.283927 -4.84168 0
M  V30 2922 H 279.445 1.42201 -4.3852 0
M  V30 2923 H 282.989 -0.928013 -6.914 0
M  V30 2924 H 278.886 0.216686 -6.45136 0
M  V30 2925 H 279.654 -1.01579 -8.12172 0
M  V30 2926 N 282.317 1.53212 0.369288 0
M  V30 2927 C 283.565 1.68881 1.11012 0
M  V30 2928 C 283.886 0.441285 1.89941 0
M  V30 2929 O 283.156 -0.544623 1.88177 0
M  V30 2930 H 281.736 0.622569 0.412816 0
M  V30 2931 H 284.398 1.90391 0.416802 0
M  V30 2932 H 283.494 2.54822 1.80201 0
M  V30 2933 N 283.795 -0.628877 1.44509 0
M  V30 2934 C 285.044 -1.38437 1.4669 0
M  V30 2935 C 285.357 -1.95322 0.104272 0
M  V30 2936 O 286.563 -2.715 0.00362163 0
M  V30 2937 C 285.019 -2.50659 2.5826 0
M  V30 2938 C 284.627 -2.00277 4.0074 0
M  V30 2939 C 286.371 -3.27844 2.69664 0
M  V30 2940 C 284.278 -3.09854 5.0373 0
M  V30 2941 H 283.208 -0.520245 0.545766 0
M  V30 2942 H 285.859 -0.676313 1.70582 0
M  V30 2943 H 284.241 -3.2405 2.27612 0
M  V30 2944 H 285.415 -1.33736 4.40966 0
M  V30 2945 H 283.73 -1.35901 3.93599 0
M  V30 2946 H 286.327 -4.09534 3.43781 0
M  V30 2947 H 286.67 -3.77471 1.75559 0
M  V30 2948 H 287.203 -2.61543 2.99733 0
M  V30 2949 H 283.942 -2.65168 5.99472 0
M  V30 2950 H 283.462 -3.7503 4.68095 0
M  V30 2951 H 285.141 -3.74592 5.27532 0
M  V30 2952 N 285.273 -1.31445 -0.869486 0
M  V30 2953 C 286.22 -1.19135 -1.97675 0
M  V30 2954 C 287.19 -0.0770266 -1.65921 0
M  V30 2955 O 288.375 -0.249972 -1.89155 0
M  V30 2956 C 285.515 -0.905149 -3.33018 0
M  V30 2957 C 284.628 -2.10285 -3.77365 0
M  V30 2958 C 283.763 -1.75339 -5.01427 0
M  V30 2959 C 282.802 -2.91515 -5.38224 0
M  V30 2960 N 281.939 -2.56762 -6.53466 0
M  V30 2961 H 286.779 -2.13853 -2.07535 0
M  V30 2962 H 284.316 -1.06379 -1.01597 0
M  V30 2963 H 286.274 -0.719765 -4.10944 0
M  V30 2964 H 284.904 0.00519624 -3.228 0
M  V30 2965 H 283.956 -2.39899 -2.95216 0
M  V30 2966 H 285.268 -2.97237 -4.00564 0
M  V30 2967 H 284.422 -1.53266 -5.87022 0
M  V30 2968 H 283.161 -0.855801 -4.80133 0
M  V30 2969 H 282.166 -3.14237 -4.51149 0
M  V30 2970 H 283.391 -3.81985 -5.61484 0
M  V30 2971 H 281.337 -1.69526 -6.33717 0
M  V30 2972 H 281.254 -3.37243 -6.76612 0
M  V30 2973 H 282.522 -2.38083 -7.42251 0
M  V30 2974 N 286.751 1.08385 -1.14413 0
M  V30 2975 C 287.999 1.80419 -0.910679 0
M  V30 2976 C 288.32 1.86658 0.564243 0
M  V30 2977 O 287.59 1.35985 1.41014 0
M  V30 2978 H 286.17 0.668204 -0.333934 0
M  V30 2979 H 288.832 1.31037 -1.44275 0
M  V30 2980 H 287.928 2.83238 -1.31082 0
M  V30 2981 N 288.23 0.939286 1.26551 0
M  V30 2982 C 289.479 0.581601 1.93133 0
M  V30 2983 C 289.792 -0.883224 1.74524 0
M  V30 2984 O 290.998 -1.3502 2.35546 0
M  V30 2985 C 289.454 0.989425 3.46032 0
M  V30 2986 C 289.062 2.47573 3.73379 0
M  V30 2987 C 290.806 0.703544 4.18629 0
M  V30 2988 C 288.713 2.82235 5.19709 0
M  V30 2989 H 287.643 0.213803 0.723052 0
M  V30 2990 H 290.294 1.14167 1.4366 0
M  V30 2991 H 288.676 0.357902 3.94379 0
M  V30 2992 H 289.85 3.15614 3.35744 0
M  V30 2993 H 288.165 2.73471 3.1401 0
M  V30 2994 H 290.762 0.938869 5.26393 0
M  V30 2995 H 291.105 -0.359639 4.14744 0
M  V30 2996 H 291.638 1.2947 3.76141 0
M  V30 2997 H 288.377 3.87509 5.28694 0
M  V30 2998 H 287.897 2.18854 5.58447 0
M  V30 2999 H 289.576 2.70599 5.87695 0
M  V30 3000 N 289.708 -1.40897 0.706093 0
M  V30 3001 C 290.948 -2.02916 0.245827 0
M  V30 3002 C 291.312 -1.54751 -1.13649 0
M  V30 3003 O 292.513 -2.08768 -1.69321 0
M  V30 3004 C 290.784 -3.56031 0.312537 0
M  V30 3005 S 292.343 -4.38741 -0.0721388 0
M  V30 3006 H 289.161 -0.704186 0.0982007 0
M  V30 3007 H 291.763 -1.72168 0.926207 0
M  V30 3008 H 290.467 -3.88579 1.32039 0
M  V30 3009 H 289.998 -3.91495 -0.386641 0
M  V30 3010 H 292.013 -4.78952 -1.29692 0
M  V30 3011 N 291.186 -0.45159 -1.50991 0
M  V30 3012 C 292.116 0.342898 -2.30969 0
M  V30 3013 C 293.097 1.00815 -1.37005 0
M  V30 3014 O 294.282 1.00907 -1.65926 0
M  V30 3015 C 291.412 1.43637 -3.16205 0
M  V30 3016 C 290.366 0.893818 -4.18563 0
M  V30 3017 C 289.692 2.08411 -4.92411 0
M  V30 3018 C 290.992 -0.0815568 -5.22236 0
M  V30 3019 H 292.686 -0.324556 -2.97636 0
M  V30 3020 H 290.232 -0.157531 -1.43136 0
M  V30 3021 H 292.185 1.9995 -3.70942 0
M  V30 3022 H 290.909 2.13232 -2.47386 0
M  V30 3023 H 289.568 0.352798 -3.64898 0
M  V30 3024 H 289.216 2.76658 -4.20082 0
M  V30 3025 H 288.916 1.72741 -5.61636 0
M  V30 3026 H 290.44 2.65251 -5.49976 0
M  V30 3027 H 291.854 0.391742 -5.7196 0
M  V30 3028 H 290.251 -0.351551 -5.99069 0
M  V30 3029 H 291.321 -1.01374 -4.74185 0
M  V30 3030 N 292.664 1.56529 -0.183458 0
M  V30 3031 C 294.08 1.58664 0.172554 0
M  V30 3032 C 294.28 1.19925 1.61926 0
M  V30 3033 O 293.336 0.916534 2.35278 0
M  V30 3034 C 294.649 3.00463 -0.119262 0
M  V30 3035 C 296.197 3.12945 -0.0584396 0
M  V30 3036 C 296.672 4.56857 -0.323408 0
M  V30 3037 N 298.163 4.62403 -0.271612 0
M  V30 3038 C 298.898 5.71626 -0.450639 0
M  V30 3039 N 298.394 6.89362 -0.689384 0
M  V30 3040 N 300.187 5.60775 -0.385701 0
M  V30 3041 H 292.338 1.79994 -1.12765 0
M  V30 3042 H 294.601 0.834808 -0.449222 0
M  V30 3043 H 294.307 3.33326 -1.12192 0
M  V30 3044 H 294.181 3.72659 0.583544 0
M  V30 3045 H 296.568 2.79902 0.934805 0
M  V30 3046 H 296.649 2.4316 -0.794144 0
M  V30 3047 H 296.293 4.9061 -1.31392 0
M  V30 3048 H 296.223 5.24816 0.43305 0
M  V30 3049 H 298.714 3.77785 -0.0932256 0
M  V30 3050 H 299.027 7.68489 -0.815113 0
M  V30 3051 H 297.372 6.91196 -0.726142 0
M  V30 3052 H 300.563 4.67674 -0.199687 0
M  V30 3053 H 300.736 6.4584 -0.528646 0
M  V30 3054 N 294.142 -0.090211 1.57342 0
M  V30 3055 C 295.372 -0.805055 1.90269 0
M  V30 3056 C 295.78 -1.72561 0.775842 0
M  V30 3057 O 295.123 -1.81839 -0.260843 0
M  V30 3058 C 295.185 -1.66734 3.18497 0
M  V30 3059 C 294.849 -0.918092 4.47683 0
M  V30 3060 C 295.846 -0.245674 5.19319 0
M  V30 3061 C 293.531 -0.890724 4.94339 0
M  V30 3062 C 295.525 0.444088 6.35851 0
M  V30 3063 C 293.212 -0.197179 6.10782 0
M  V30 3064 C 294.21 0.469044 6.81388 0
M  V30 3065 O 293.898 1.15146 7.95611 0
M  V30 3066 H 293.63 -0.235143 0.633785 0
M  V30 3067 H 296.184 -0.0703805 2.05279 0
M  V30 3068 H 294.414 -2.44437 2.99646 0
M  V30 3069 H 296.103 -2.25919 3.37217 0
M  V30 3070 H 296.869 -0.258246 4.84312 0
M  V30 3071 H 292.748 -1.39873 4.39268 0
M  V30 3072 H 296.292 0.964667 6.90898 0
M  V30 3073 H 292.189 -0.18247 6.45242 0
M  V30 3074 H 292.957 1.05885 8.11622 0
M  V30 3075 N 295.62 -1.53406 -0.361157 0
M  V30 3076 C 296.867 -1.69802 -1.10333 0
M  V30 3077 C 297.195 -0.452087 -1.89173 0
M  V30 3078 O 296.45 0.566017 -1.87336 0
M  V30 3079 C 296.749 -2.90211 -2.08596 0
M  V30 3080 C 296.415 -4.26539 -1.46203 0
M  V30 3081 C 295.077 -4.6361 -1.28915 0
M  V30 3082 C 297.429 -5.113 -1.01101 0
M  V30 3083 C 294.757 -5.83075 -0.651157 0
M  V30 3084 C 297.109 -6.31415 -0.387007 0
M  V30 3085 C 295.773 -6.67195 -0.201657 0
M  V30 3086 H 295.043 -0.621351 -0.403737 0
M  V30 3087 H 297.69 -1.87598 -0.384609 0
M  V30 3088 H 295.995 -2.66946 -2.86788 0
M  V30 3089 H 297.692 -3.00091 -2.65982 0
M  V30 3090 H 294.282 -3.97352 -1.60653 0
M  V30 3091 H 298.466 -4.83206 -1.13249 0
M  V30 3092 H 293.722 -6.09385 -0.496006 0
M  V30 3093 H 297.896 -6.96394 -0.0293563 0
M  V30 3094 H 295.523 -7.59628 0.294766 0
M  V30 3095 N 297.098 0.621204 -1.44841 0
M  V30 3096 C 298.046 1.75385 -1.52784 0
M  V30 3097 C 299.04 1.64639 -0.398779 0
M  V30 3098 O 300.246 1.70598 -0.574137 0
M  V30 3099 H 296.621 0.579193 -0.479625 0
M  V30 3100 H 298.592 1.6581 -2.48092 0
M  V30 3101 C 297.341 3.13742 -1.4987 0
M  V30 3102 H 296.664 3.22663 -2.36069 0
M  V30 3103 H 298.104 3.92861 -1.59487 0
M  V30 3104 C 296.563 3.36175 -0.220973 0
M  V30 3105 O 297.093 3.95469 0.704782 0
M  V30 3106 N 295.299 2.90348 -0.120963 0
M  V30 3107 H 294.846 2.42278 -0.875162 0
M  V30 3108 H 294.804 3.05732 0.733168 0
M  V30 3109 N 298.576 1.31904 0.862503 0
M  V30 3110 C 299.539 1.20131 1.95195 0
M  V30 3111 C 300.539 0.126409 1.60302 0
M  V30 3112 O 301.729 0.376234 1.70089 0
M  V30 3113 C 298.861 0.845691 3.30244 0
M  V30 3114 H 300.054 2.16943 2.07064 0
M  V30 3115 H 297.607 1.15622 1.05172 0
M  V30 3116 H 298.342 -0.120957 3.24074 0
M  V30 3117 H 298.127 1.62276 3.56944 0
M  V30 3118 H 299.617 0.787418 4.10109 0
M  V30 3119 N 300.054 -1.07777 1.14986 0
M  V30 3120 C 301.294 -1.81888 0.932527 0
M  V30 3121 C 301.658 -1.84509 -0.531064 0
M  V30 3122 O 302.859 -2.54448 -0.866577 0
M  V30 3123 C 301.13 -3.23244 1.52473 0
M  V30 3124 S 302.689 -4.14154 1.44989 0
M  V30 3125 H 299.507 -0.626752 0.335712 0
M  V30 3126 H 302.109 -1.29503 1.46455 0
M  V30 3127 H 300.813 -3.18922 2.58296 0
M  V30 3128 H 300.344 -3.80704 0.991381 0
M  V30 3129 H 302.359 -4.94247 0.439799 0
M  V30 3130 N 301.532 -0.945985 -1.26051 0
M  V30 3131 C 302.78 -0.594941 -1.93145 0
M  V30 3132 C 303.101 0.86953 -1.7454 0
M  V30 3133 O 302.371 1.61838 -1.10387 0
M  V30 3134 H 300.951 -0.217044 -0.714773 0
M  V30 3135 H 303.613 -1.20235 -1.53393 0
M  V30 3136 H 302.709 -0.816835 -3.01221 0
M  V30 3137 N 303.011 1.40521 -0.713556 0
M  V30 3138 C 303.974 2.29098 -0.0684347 0
M  V30 3139 C 304.974 1.45268 0.689472 0
M  V30 3140 O 306.164 1.66205 0.521677 0
M  V30 3141 C 303.296 3.28446 0.913024 0
M  V30 3142 H 304.489 2.87645 -0.84855 0
M  V30 3143 H 302.042 1.48809 -0.47809 0
M  V30 3144 H 302.777 2.74913 1.72027 0
M  V30 3145 H 302.562 3.90327 0.372472 0
M  V30 3146 H 304.052 3.94777 1.36165 0
M  V30 3147 N 304.489 0.459591 1.5075 0
M  V30 3148 C 305.439 -0.358926 2.25157 0
M  V30 3149 C 306.423 -0.971285 1.28276 0
M  V30 3150 O 307.615 -0.885739 1.53244 0
M  V30 3151 C 304.744 -1.44695 3.11317 0
M  V30 3152 C 303.83 -0.842894 4.15639 0
M  V30 3153 N 304.221 0.0299373 5.05791 0
M  V30 3154 C 302.519 -1.10809 4.32015 0
M  V30 3155 C 303.22 0.371563 5.80512 0
M  V30 3156 N 302.196 -0.250409 5.43023 0
M  V30 3157 H 305.998 0.313636 2.92222 0
M  V30 3158 H 303.512 0.273021 1.60089 0
M  V30 3159 H 305.509 -2.04641 3.63218 0
M  V30 3160 H 304.169 -2.12162 2.45799 0
M  V30 3161 H 305.18 0.39797 5.16369 0
M  V30 3162 H 301.857 -1.7786 3.77719 0
M  V30 3163 H 303.247 1.08319 6.63111 0
M  V30 3164 N 305.967 -1.56429 0.191757 0
M  V30 3165 C 306.877 -2.22541 -0.742481 0
M  V30 3166 C 307.893 -1.22342 -1.23727 0
M  V30 3167 O 309.069 -1.55069 -1.28513 0
M  V30 3168 C 306.134 -2.8692 -1.94623 0
M  V30 3169 C 305.195 -4.02378 -1.49633 0
M  V30 3170 C 304.428 -4.63678 -2.6427 0
M  V30 3171 O 304.651 -4.23895 -3.81666 0
M  V30 3172 O 303.585 -5.53202 -2.37174 0
M  V30 3173 H 307.411 -3.02977 -0.209462 0
M  V30 3174 H 304.996 -1.49353 -0.0373832 0
M  V30 3175 H 306.878 -3.27663 -2.64982 0
M  V30 3176 H 305.553 -2.09466 -2.46791 0
M  V30 3177 H 304.46 -3.66265 -0.761636 0
M  V30 3178 H 305.793 -4.81487 -1.02134 0
M  V30 3179 N 307.445 0.0818655 -1.57387 0
M  V30 3180 C 308.722 0.815343 -1.77796 0
M  V30 3181 C 309.102 1.96289 -0.77679 0
M  V30 3182 O 308.45 2.27691 0.192106 0
M  V30 3183 C 308.66 1.29765 -3.23978 0
M  V30 3184 C 310.008 1.7351 -3.8753 0
M  V30 3185 O 311.032 1.39356 -3.27808 0
M  V30 3186 O 309.891 2.36708 -4.92576 0
M  V30 3187 H 306.985 0.389914 -0.729312 0
M  V30 3188 H 309.531 0.0627213 -1.69584 0
M  V30 3189 H 308.303 0.47608 -3.88393 0
M  V30 3190 H 307.926 2.11189 -3.36875 0
M  V30 3191 N 308.923 1.53595 0.353017 0
M  V30 3192 C 310.171 1.70049 1.09215 0
M  V30 3193 C 310.492 0.461406 1.89463 0
M  V30 3194 O 309.762 -0.524633 1.88744 0
M  V30 3195 H 308.342 0.626912 0.40619 0
M  V30 3196 H 311.004 1.90822 0.396585 0
M  V30 3197 H 310.1 2.56718 1.77488 0
M  V30 3198 N 310.401 -0.613514 1.45168 0
M  V30 3199 C 311.678 -1.37263 1.39349 0
M  V30 3200 C 312.058 -2.11012 0.0610848 0
M  V30 3201 O 311.406 -2.07502 -0.956825 0
M  V30 3202 C 311.616 -2.3244 2.60332 0
M  V30 3203 C 312.964 -2.9523 3.05163 0
M  V30 3204 O 313.988 -2.42762 2.60663 0
M  V30 3205 O 312.847 -3.90454 3.82372 0
M  V30 3206 H 309.941 -0.615188 0.552696 0
M  V30 3207 H 312.487 -0.637097 1.57287 0
M  V30 3208 H 311.259 -1.77164 3.48896 0
M  V30 3209 H 310.882 -3.13383 2.44698 0
M  V30 3210 N 311.879 -1.3236 -0.855495 0
M  V30 3211 C 313.128 -1.22226 -1.60448 0
M  V30 3212 C 313.441 0.214733 -1.94418 0
M  V30 3213 O 314.647 0.437917 -2.67945 0
M  V30 3214 C 313.103 -2.14063 -2.89318 0
M  V30 3215 C 312.711 -3.62839 -2.62777 0
M  V30 3216 C 314.455 -2.12764 -3.67331 0
M  V30 3217 C 312.362 -4.4664 -3.87643 0
M  V30 3218 H 311.292 -0.453904 -0.602069 0
M  V30 3219 H 313.943 -1.57314 -0.944698 0
M  V30 3220 H 312.325 -1.71889 -3.5675 0
M  V30 3221 H 313.499 -4.1335 -2.03662 0
M  V30 3222 H 311.814 -3.66261 -1.98096 0
M  V30 3223 H 314.411 -2.72611 -4.59987 0
M  V30 3224 H 314.754 -1.11841 -4.00995 0
M  V30 3225 H 315.287 -2.53214 -3.06802 0
M  V30 3226 H 312.026 -5.48373 -3.5912 0
M  V30 3227 H 311.546 -4.0088 -4.46156 0
M  V30 3228 H 313.225 -4.59597 -4.55389 0
M  V30 3229 N 313.357 1.07166 -1.15556 0
M  V30 3230 C 314.605 1.79443 -0.929764 0
M  V30 3231 C 314.926 1.87246 0.544414 0
M  V30 3232 O 314.196 1.37473 1.39564 0
M  V30 3233 H 312.776 0.664625 -0.341003 0
M  V30 3234 H 315.438 1.29499 -1.45657 0
M  V30 3235 H 314.534 2.81832 -1.34079 0
M  V30 3236 N 314.835 0.952656 1.25548 0
M  V30 3237 C 315.745 0.47782 2.29682 0
M  V30 3238 C 316.761 -0.453859 1.67977 0
M  V30 3239 O 317.937 -0.330587 1.98668 0
M  V30 3240 C 315.002 -0.238655 3.45878 0
M  V30 3241 C 314.063 0.730994 4.23031 0
M  V30 3242 C 313.296 0.0486165 5.33678 0
M  V30 3243 O 313.519 -1.16612 5.58353 0
M  V30 3244 O 312.453 0.733152 5.97418 0
M  V30 3245 H 316.279 1.34312 2.72386 0
M  V30 3246 H 313.864 0.719026 1.30959 0
M  V30 3247 H 315.746 -0.641774 4.16484 0
M  V30 3248 H 314.421 -1.07916 3.05181 0
M  V30 3249 H 313.328 1.18428 3.5486 0
M  V30 3250 H 314.661 1.53946 4.67506 0
M  V30 3251 N 316.313 -1.40141 0.720998 0
M  V30 3252 C 317.263 -2.27949 0.0482544 0
M  V30 3253 C 318.247 -1.43538 -0.727021 0
M  V30 3254 O 319.439 -1.6658 -0.598332 0
M  V30 3255 C 316.568 -3.32126 -0.868729 0
M  V30 3256 C 315.654 -4.24008 -0.0883515 0
M  V30 3257 N 316.045 -4.97154 0.931226 0
M  V30 3258 C 314.343 -4.4485 -0.320105 0
M  V30 3259 C 315.044 -5.64587 1.4006 0
M  V30 3260 N 314.02 -5.38787 0.721752 0
M  V30 3261 H 317.822 -2.81948 0.829609 0
M  V30 3262 H 315.336 -1.52656 0.554067 0
M  V30 3263 H 317.333 -3.93884 -1.36605 0
M  V30 3264 H 315.993 -2.79687 -1.6494 0
M  V30 3265 H 317.004 -5.01 1.31222 0
M  V30 3266 H 313.681 -4.03378 -1.07668 0
M  V30 3267 H 315.071 -6.33175 2.24808 0
M  V30 3268 N 317.792 -0.46758 -1.50504 0
M  V30 3269 C 319.022 0.086288 -2.0642 0
M  V30 3270 C 319.43 1.34369 -1.33197 0
M  V30 3271 O 318.773 1.79431 -0.393747 0
M  V30 3272 C 318.835 0.443846 -3.5675 0
M  V30 3273 C 318.499 -0.711035 -4.51435 0
M  V30 3274 C 319.496 -1.59205 -4.94924 0
M  V30 3275 C 317.181 -0.900363 -4.94165 0
M  V30 3276 C 319.175 -2.64683 -5.79846 0
M  V30 3277 C 316.862 -1.95837 -5.7887 0
M  V30 3278 C 317.86 -2.82997 -6.21612 0
M  V30 3279 O 317.548 -3.86977 -7.0463 0
M  V30 3280 H 317.28 -0.00217814 -0.675996 0
M  V30 3281 H 319.834 -0.654346 -1.94698 0
M  V30 3282 H 318.064 1.23762 -3.6636 0
M  V30 3283 H 319.753 0.932386 -3.95046 0
M  V30 3284 H 320.519 -1.45745 -4.62583 0
M  V30 3285 H 316.398 -0.231427 -4.60419 0
M  V30 3286 H 319.942 -3.32745 -6.13128 0
M  V30 3287 H 315.839 -2.09305 -6.10624 0
M  V30 3288 H 316.607 -3.83923 -7.22873 0
M  V30 3289 N 319.27 1.56325 -0.20005 0
M  V30 3290 C 320.202 2.16555 0.750771 0
M  V30 3291 C 321.215 1.12871 1.1732 0
M  V30 3292 O 322.404 1.39943 1.10807 0
M  V30 3293 C 319.504 2.71684 2.02586 0
M  V30 3294 C 318.677 4.00321 1.76244 0
M  V30 3295 C 317.736 4.40227 2.88248 0
M  V30 3296 O 316.762 5.07552 2.57642 0
M  V30 3297 N 317.964 4.04138 4.16717 0
M  V30 3298 H 320.729 2.98772 0.235685 0
M  V30 3299 H 318.29 1.6189 -0.0182594 0
M  V30 3300 H 320.282 2.95363 2.76664 0
M  V30 3301 H 318.852 1.93893 2.45202 0
M  V30 3302 H 318.072 3.84723 0.85919 0
M  V30 3303 H 319.36 4.84279 1.56048 0
M  V30 3304 H 318.758 3.49993 4.44434 0
M  V30 3305 H 317.315 4.32756 4.87407 0
M  V30 3306 N 320.748 -0.0735177 1.57428 0
M  V30 3307 C 321.996 -0.771472 1.86796 0
M  V30 3308 C 322.317 -1.78201 0.791804 0
M  V30 3309 O 321.587 -1.95074 -0.179718 0
M  V30 3310 H 320.167 -0.28791 0.689287 0
M  V30 3311 H 322.829 -0.0500161 1.94836 0
M  V30 3312 H 321.925 -1.28874 2.8425 0
M  V30 3313 N 322.226 -1.5378 -0.344866 0
M  V30 3314 C 323.451 -1.75211 -1.10977 0
M  V30 3315 C 323.876 -0.48936 -1.81623 0
M  V30 3316 O 323.234 0.557925 -1.72502 0
M  V30 3317 C 323.282 -2.93147 -2.09993 0
M  V30 3318 O 322.386 -2.63203 -3.17487 0
M  V30 3319 H 321.727 -0.581241 -0.321021 0
M  V30 3320 H 324.257 -2.00738 -0.395661 0
M  V30 3321 H 324.267 -3.19898 -2.53237 0
M  V30 3322 H 322.942 -3.84731 -1.5797 0
M  V30 3323 H 321.519 -2.47336 -2.79069 0
M  V30 3324 N 323.704 0.605807 -1.45491 0
M  V30 3325 C 324.932 1.39136 -1.5313 0
M  V30 3326 C 325.347 1.88082 -0.164507 0
M  V30 3327 O 324.704 1.62316 0.834247 0
M  V30 3328 C 324.755 2.59463 -2.51716 0
M  V30 3329 O 324.476 2.12551 -3.83084 0
M  V30 3330 C 325.977 3.52301 -2.6907 0
M  V30 3331 H 323.197 0.425849 -0.51855 0
M  V30 3332 H 325.741 0.73865 -1.90694 0
M  V30 3333 H 323.896 3.20772 -2.17219 0
M  V30 3334 H 324.31 2.90744 -4.36541 0
M  V30 3335 H 325.784 4.33271 -3.42024 0
M  V30 3336 H 326.261 4.02757 -1.75167 0
M  V30 3337 H 326.867 2.96845 -3.04571 0
M  V30 3338 N 325.182 1.32811 0.848464 0
M  V30 3339 C 326.132 1.18842 1.94578 0
M  V30 3340 C 327.116 0.0937517 1.60627 0
M  V30 3341 O 328.308 0.320887 1.74067 0
M  V30 3342 C 325.437 0.91999 3.30743 0
M  V30 3343 C 324.523 2.05665 3.70894 0
M  V30 3344 N 324.914 3.30579 3.8282 0
M  V30 3345 C 323.212 1.9612 4.00566 0
M  V30 3346 C 323.913 4.05067 4.17487 0
M  V30 3347 N 322.889 3.33419 4.2934 0
M  V30 3348 H 326.691 2.13536 2.0194 0
M  V30 3349 H 324.205 1.2468 1.0406 0
M  V30 3350 H 326.202 0.800859 4.09136 0
M  V30 3351 H 324.862 -0.0185076 3.24695 0
M  V30 3352 H 325.873 3.65441 3.66978 0
M  V30 3353 H 322.55 1.09871 4.02784 0
M  V30 3354 H 323.94 5.12815 4.34131 0
M  V30 3355 N 326.66 -1.06551 1.16123 0
M  V30 3356 C 327.59 -2.15935 0.88851 0
M  V30 3357 C 328.571 -1.69306 -0.164135 0
M  V30 3358 O 329.756 -1.94193 -0.0167857 0
M  V30 3359 C 326.886 -3.45149 0.385942 0
M  V30 3360 C 325.84 -4.05271 1.3762 0
M  V30 3361 C 325.166 -5.29664 0.732137 0
M  V30 3362 C 326.466 -4.44355 2.74493 0
M  V30 3363 H 328.16 -2.39006 1.80323 0
M  V30 3364 H 325.706 -1.14866 0.868435 0
M  V30 3365 H 327.659 -4.21004 0.182647 0
M  V30 3366 H 326.383 -3.21689 -0.564274 0
M  V30 3367 H 325.042 -3.3147 1.56599 0
M  V30 3368 H 324.69 -5.02499 -0.224483 0
M  V30 3369 H 324.39 -5.70848 1.39307 0
M  V30 3370 H 325.914 -6.08218 0.538802 0
M  V30 3371 H 327.328 -5.11303 2.59311 0
M  V30 3372 H 325.725 -4.96515 3.37035 0
M  V30 3373 H 326.795 -3.55339 3.29943 0
M  V30 3374 N 328.138 -0.959301 -1.25041 0
M  V30 3375 C 329.387 -0.612254 -1.92183 0
M  V30 3376 C 329.7 0.855347 -1.75907 0
M  V30 3377 O 330.906 1.31256 -2.37664 0
M  V30 3378 C 329.362 -1.04435 -3.44414 0
M  V30 3379 C 328.97 -2.53482 -3.69393 0
M  V30 3380 C 330.714 -0.770055 -4.17457 0
M  V30 3381 C 328.621 -2.90468 -5.15153 0
M  V30 3382 H 327.551 -0.225279 -0.719559 0
M  V30 3383 H 330.202 -1.16438 -1.41825 0
M  V30 3384 H 328.584 -0.4206 -3.9376 0
M  V30 3385 H 329.758 -3.20916 -3.30681 0
M  V30 3386 H 328.073 -2.78432 -3.0962 0
M  V30 3387 H 330.67 -1.02249 -5.24832 0
M  V30 3388 H 331.013 0.293611 -4.15263 0
M  V30 3389 H 331.546 -1.35437 -3.74034 0
M  V30 3390 H 328.285 -3.95871 -5.22462 0
M  V30 3391 H 327.805 -2.27711 -5.54894 0
M  V30 3392 H 329.484 -2.79914 -5.83315 0
M  V30 3393 N 329.616 1.39756 -0.72842 0
M  V30 3394 C 331.027 1.83498 -0.344289 0
M  V30 3395 C 331.378 1.60868 1.12321 0
M  V30 3396 O 330.503 1.09634 1.86573 0
M  V30 3397 C 331.098 3.33114 -0.618112 0
M  V30 3398 C 329.657 3.753 -0.287549 0
M  V30 3399 C 328.804 2.62831 -0.884048 0
M  V30 3400 H 331.755 1.28842 -0.926578 0
M  V30 3401 H 331.776 3.80334 0.112349 0
M  V30 3402 H 331.288 3.49553 -1.68625 0
M  V30 3403 H 329.389 3.64451 0.775012 0
M  V30 3404 H 329.502 4.72945 -0.765512 0
M  V30 3405 H 327.866 2.52792 -0.311149 0
M  V30 3406 H 328.649 2.82078 -1.95671 0
M  V30 3407 N 331.094 0.475555 1.50254 0
M  V30 3408 C 332.343 -0.0795996 2.01543 0
M  V30 3409 C 332.656 -1.4038 1.36209 0
M  V30 3410 O 333.862 -2.04415 1.7868 0
M  V30 3411 C 332.318 -0.192363 3.59386 0
M  V30 3412 C 331.926 1.12367 4.33679 0
M  V30 3413 C 333.67 -0.699238 4.18701 0
M  V30 3414 C 331.577 0.974453 5.83317 0
M  V30 3415 H 330.507 -0.0335228 0.753254 0
M  V30 3416 H 333.158 0.611128 1.73025 0
M  V30 3417 H 331.54 -0.946974 3.84511 0
M  V30 3418 H 332.714 1.88958 4.20276 0
M  V30 3419 H 331.029 1.562 3.85993 0
M  V30 3420 H 333.626 -0.827978 5.28251 0
M  V30 3421 H 333.969 -1.69171 3.80377 0
M  V30 3422 H 334.502 -0.00188807 3.978 0
M  V30 3423 H 331.241 1.94042 6.26121 0
M  V30 3424 H 330.761 0.248998 5.99283 0
M  V30 3425 H 332.44 0.642867 6.43798 0
M  V30 3426 N 332.573 -1.56217 0.208337 0
M  V30 3427 C 333.822 -1.97124 -0.427204 0
M  V30 3428 C 334.135 -1.09859 -1.61835 0
M  V30 3429 O 335.341 -1.40606 -2.32255 0
M  V30 3430 C 333.797 -3.50633 -0.811442 0
M  V30 3431 C 333.405 -4.46582 0.35615 0
M  V30 3432 C 335.149 -4.00282 -1.41332 0
M  V30 3433 C 333.056 -5.91379 -0.0497852 0
M  V30 3434 H 331.986 -0.736086 -0.163381 0
M  V30 3435 H 334.637 -1.8099 0.302456 0
M  V30 3436 H 333.019 -3.62319 -1.59815 0
M  V30 3437 H 334.193 -4.46636 1.1337 0
M  V30 3438 H 332.508 -4.07202 0.870396 0
M  V30 3439 H 335.105 -5.0595 -1.72972 0
M  V30 3440 H 335.448 -3.45359 -2.32449 0
M  V30 3441 H 335.981 -3.91764 -0.690323 0
M  V30 3442 H 332.72 -6.50255 0.827529 0
M  V30 3443 H 332.24 -5.94549 -0.791926 0
M  V30 3444 H 333.919 -6.45209 -0.481042 0
M  V30 3445 N 334.051 0.0651679 -1.57465 0
M  V30 3446 C 334.981 1.07693 -2.07182 0
M  V30 3447 C 335.962 1.39962 -0.966673 0
M  V30 3448 O 337.147 1.49475 -1.2398 0
M  V30 3449 C 334.277 2.3885 -2.52127 0
M  V30 3450 C 333.231 2.20917 -3.66579 0
M  V30 3451 C 332.557 3.57515 -3.97601 0
M  V30 3452 C 333.857 1.62493 -4.9638 0
M  V30 3453 H 335.551 0.663199 -2.91962 0
M  V30 3454 H 333.097 0.317569 -1.40455 0
M  V30 3455 H 335.05 3.09928 -2.85522 0
M  V30 3456 H 333.774 2.82215 -1.64384 0
M  V30 3457 H 332.433 1.52279 -3.33477 0
M  V30 3458 H 332.081 3.98463 -3.06979 0
M  V30 3459 H 331.781 3.46353 -4.74672 0
M  V30 3460 H 333.305 4.30013 -4.33499 0
M  V30 3461 H 334.719 2.23445 -5.27963 0
M  V30 3462 H 333.116 1.62009 -5.77818 0
M  V30 3463 H 334.186 0.587041 -4.81333 0
M  V30 3464 N 335.529 1.53961 0.336706 0
M  V30 3465 C 336.777 1.71197 1.07405 0
M  V30 3466 C 337.098 0.481475 1.88962 0
M  V30 3467 O 336.368 -0.504585 1.8929 0
M  V30 3468 H 334.948 0.631185 0.399517 0
M  V30 3469 H 337.61 1.91232 0.376323 0
M  V30 3470 H 336.706 2.58587 1.74755 0
M  V30 3471 N 337.007 -0.598083 1.45811 0
M  V30 3472 C 338.423 -0.919847 1.30426 0
M  V30 3473 C 338.623 -1.99759 0.264303 0
M  V30 3474 O 337.679 -2.50221 -0.338472 0
M  V30 3475 C 338.992 -1.35176 2.68603 0
M  V30 3476 C 340.54 -1.46546 2.76574 0
M  V30 3477 C 341.015 -1.9311 4.15298 0
M  V30 3478 N 342.506 -2.00328 4.1764 0
M  V30 3479 C 343.241 -2.37599 5.21856 0
M  V30 3480 N 342.737 -2.73771 6.36413 0
M  V30 3481 N 344.53 -2.38021 5.09218 0
M  V30 3482 H 336.681 0.114111 2.12093 0
M  V30 3483 H 338.944 -0.0116121 0.947929 0
M  V30 3484 H 338.65 -0.633969 3.45939 0
M  V30 3485 H 338.524 -2.3164 2.97696 0
M  V30 3486 H 340.911 -2.17415 1.99537 0
M  V30 3487 H 340.992 -0.483727 2.51185 0
M  V30 3488 H 340.636 -1.22824 4.92825 0
M  V30 3489 H 340.566 -2.92213 4.38086 0
M  V30 3490 H 343.057 -1.74925 3.34977 0
M  V30 3491 H 343.37 -3.0112 7.11721 0
M  V30 3492 H 341.715 -2.71445 6.39799 0
M  V30 3493 H 344.906 -2.09174 4.18765 0
M  V30 3494 H 345.079 -2.66741 5.90554 0
M  V30 3495 N 338.485 -1.33259 -0.841409 0
M  V30 3496 C 339.731 -1.24757 -1.59886 0
M  V30 3497 C 340.064 0.186913 -1.93298 0
M  V30 3498 O 339.339 1.12757 -1.5848 0
M  V30 3499 C 339.622 -2.12036 -2.91055 0
M  V30 3500 C 339.475 -3.63929 -2.6434 0
M  V30 3501 C 340.794 -1.9916 -3.92458 0
M  V30 3502 H 337.913 -0.454542 -0.580138 0
M  V30 3503 H 340.555 -1.63335 -0.970647 0
M  V30 3504 H 338.705 -1.79265 -3.44669 0
M  V30 3505 H 340.377 -4.06978 -2.17178 0
M  V30 3506 H 338.62 -3.85935 -1.98082 0
M  V30 3507 H 339.291 -4.20341 -3.57796 0
M  V30 3508 H 341.767 -2.27895 -3.48143 0
M  V30 3509 H 340.643 -2.62484 -4.82072 0
M  V30 3510 H 340.904 -0.963082 -4.31482 0
M  V30 3511 N 339.963 1.05934 -1.16686 0
M  V30 3512 C 340.896 2.1295 -0.820225 0
M  V30 3513 C 341.874 1.61242 0.209722 0
M  V30 3514 O 343.058 1.88271 0.0929688 0
M  V30 3515 C 340.185 3.3797 -0.22223 0
M  V30 3516 C 339.231 4.08488 -1.22637 0
M  V30 3517 S 340.064 4.58015 -2.77457 0
M  V30 3518 C 341.22 5.86292 -2.19117 0
M  V30 3519 H 341.453 2.42025 -1.72659 0
M  V30 3520 H 338.986 1.18423 -0.990722 0
M  V30 3521 H 340.944 4.10335 0.116322 0
M  V30 3522 H 339.605 3.07045 0.66196 0
M  V30 3523 H 338.798 4.98291 -0.756455 0
M  V30 3524 H 338.4 3.42154 -1.51019 0
M  V30 3525 H 340.692 6.59246 -1.56209 0
M  V30 3526 H 341.635 6.38019 -3.07144 0
M  V30 3527 H 342.043 5.40497 -1.62858 0
M  V30 3528 N 341.441 0.965919 1.2453 0
M  V30 3529 C 342.666 0.643971 1.97149 0
M  V30 3530 C 343.091 -0.779487 1.71189 0
M  V30 3531 O 342.449 -1.5288 0.974553 0
M  V30 3532 C 342.497 0.922557 3.48599 0
M  V30 3533 O 341.601 0.00707672 4.12399 0
M  V30 3534 H 340.942 0.243647 0.617683 0
M  V30 3535 H 343.472 1.29558 1.58353 0
M  V30 3536 H 343.482 0.853373 3.98976 0
M  V30 3537 H 342.157 1.95996 3.66822 0
M  V30 3538 H 340.734 0.12943 3.72675 0
M  V30 3539 N 342.919 -1.39368 0.735821 0
M  V30 3540 C 344.196 -1.94465 0.210395 0
M  V30 3541 C 344.576 -1.67254 -1.28799 0
M  V30 3542 O 343.924 -1.00123 -2.05396 0
M  V30 3543 C 344.134 -3.4472 0.544897 0
M  V30 3544 C 345.482 -4.21708 0.494689 0
M  V30 3545 O 346.506 -3.52922 0.482136 0
M  V30 3546 O 345.365 -5.44299 0.489947 0
M  V30 3547 H 342.459 -0.826096 0.0386666 0
M  V30 3548 H 345.005 -1.48863 0.814735 0
M  V30 3549 H 343.777 -3.57963 1.58045 0
M  V30 3550 H 343.4 -3.97502 -0.08837 0
M  V30 3551 N 344.397 -0.483516 -1.5 0
M  V30 3552 C 345.646 0.0689102 -2.01582 0
M  V30 3553 C 345.959 1.39655 -1.36952 0
M  V30 3554 O 347.165 2.03465 -1.79762 0
M  V30 3555 C 345.621 0.173302 -3.59483 0
M  V30 3556 C 345.229 -1.14665 -4.33077 0
M  V30 3557 C 346.973 0.677024 -4.19066 0
M  V30 3558 C 344.88 -1.00537 -5.82792 0
M  V30 3559 H 343.81 0.0295277 -0.753422 0
M  V30 3560 H 346.461 -0.620295 -1.72698 0
M  V30 3561 H 344.843 0.926569 -3.85007 0
M  V30 3562 H 346.017 -1.91184 -4.19268 0
M  V30 3563 H 344.332 -1.58244 -3.85159 0
M  V30 3564 H 346.929 0.799952 -5.28682 0
M  V30 3565 H 347.272 1.67151 -3.81269 0
M  V30 3566 H 347.805 -0.0192083 -3.97795 0
M  V30 3567 H 344.544 -1.9736 -6.25083 0
M  V30 3568 H 344.064 -0.280776 -5.99142 0
M  V30 3569 H 345.743 -0.677 -6.43448 0
M  V30 3570 N 345.875 1.56104 -0.216619 0
M  V30 3571 C 346.838 2.18819 0.681962 0
M  V30 3572 C 347.838 1.14866 1.12528 0
M  V30 3573 O 349.028 1.40128 1.03488 0
M  V30 3574 C 346.16 2.80756 1.93362 0
M  V30 3575 H 347.353 2.99595 0.135254 0
M  V30 3576 H 344.906 1.56265 0.0330003 0
M  V30 3577 H 345.641 2.03837 2.52232 0
M  V30 3578 H 345.426 3.56876 1.62426 0
M  V30 3579 H 346.916 3.28844 2.57393 0
M  V30 3580 N 347.353 -0.0568162 1.57498 0
M  V30 3581 C 348.764 -0.606858 1.76562 0
M  V30 3582 C 349.115 -1.77114 0.844094 0
M  V30 3583 O 348.24 -2.16376 0.0318911 0
M  V30 3584 C 348.835 -1.10766 3.20182 0
M  V30 3585 C 347.394 -1.60344 3.40539 0
M  V30 3586 C 346.541 -0.529311 2.72201 0
M  V30 3587 H 349.492 0.169393 1.57793 0
M  V30 3588 H 349.513 -1.97602 3.25167 0
M  V30 3589 H 349.025 -0.26006 3.87228 0
M  V30 3590 H 347.126 -2.47379 2.78629 0
M  V30 3591 H 347.239 -1.67006 4.4905 0
M  V30 3592 H 345.603 -0.977893 2.35179 0
M  V30 3593 H 346.386 0.308352 3.41912 0
M  V30 3594 N 348.832 -1.54138 -0.328536 0
M  V30 3595 C 350.109 -1.62749 -1.08499 0
M  V30 3596 C 350.489 -0.458198 -2.06067 0
M  V30 3597 O 349.837 0.548046 -2.2183 0
M  V30 3598 C 350.047 -2.99519 -1.79135 0
M  V30 3599 C 351.395 -3.55394 -2.32337 0
M  V30 3600 O 352.419 -3.01792 -1.89209 0
M  V30 3601 O 351.278 -4.49186 -3.11279 0
M  V30 3602 H 348.372 -0.65886 -0.499832 0
M  V30 3603 H 350.918 -1.66484 -0.328826 0
M  V30 3604 H 349.69 -3.76061 -1.08139 0
M  V30 3605 H 349.313 -2.99441 -2.61574 0
M  V30 3606 N 350.31 0.590341 -1.46126 0
M  V30 3607 C 351.242 1.71427 -1.52136 0
M  V30 3608 C 352.255 1.57542 -0.41042 0
M  V30 3609 O 353.444 1.65106 -0.678389 0
M  V30 3610 C 350.544 3.09605 -1.37834 0
M  V30 3611 C 349.717 3.49566 -2.62912 0
M  V30 3612 C 348.776 4.66773 -2.42918 0
M  V30 3613 O 347.802 4.73019 -3.1661 0
M  V30 3614 N 349.004 5.61161 -1.4859 0
M  V30 3615 H 351.769 1.66728 -2.49042 0
M  V30 3616 H 349.33 0.776113 -1.42085 0
M  V30 3617 H 351.322 3.85796 -1.22243 0
M  V30 3618 H 349.892 3.08714 -0.491393 0
M  V30 3619 H 349.112 2.63158 -2.93499 0
M  V30 3620 H 350.4 3.73028 -3.46017 0
M  V30 3621 H 349.798 5.58844 -0.87808 0
M  V30 3622 H 348.355 6.36814 -1.38965 0
M  V30 3623 N 351.788 1.33704 0.83433 0
M  V30 3624 C 353.204 1.13137 1.12571 0
M  V30 3625 C 353.404 -0.0747261 2.01361 0
M  V30 3626 O 352.46 -0.753647 2.4099 0
M  V30 3627 C 353.773 2.42105 1.78342 0
M  V30 3628 C 355.321 2.48054 1.90888 0
M  V30 3629 C 355.796 3.76995 2.60075 0
M  V30 3630 N 357.287 3.78092 2.67584 0
M  V30 3631 C 358.022 4.74574 3.21818 0
M  V30 3632 N 357.518 5.81434 3.76705 0
M  V30 3633 N 359.311 4.62044 3.20112 0
M  V30 3634 H 351.462 2.11 0.243489 0
M  V30 3635 H 353.725 0.932532 0.17055 0
M  V30 3636 H 353.431 3.30391 1.20561 0
M  V30 3637 H 353.305 2.54594 2.7832 0
M  V30 3638 H 355.692 1.60215 2.47821 0
M  V30 3639 H 355.773 2.39502 0.898459 0
M  V30 3640 H 355.417 4.65219 2.03799 0
M  V30 3641 H 355.347 3.82825 3.61597 0
M  V30 3642 H 357.838 3.00865 2.28667 0
M  V30 3643 H 358.151 6.51084 4.16305 0
M  V30 3644 H 356.496 5.85163 3.7498 0
M  V30 3645 H 359.687 3.77716 2.76493 0
M  V30 3646 H 359.86 5.37406 3.62076 0
M  V30 3647 N 353.266 -1.05314 1.17247 0
M  V30 3648 C 354.196 -2.1498 0.911362 0
M  V30 3649 C 355.177 -1.69471 -0.146169 0
M  V30 3650 O 356.362 -1.942 0.003812 0
M  V30 3651 C 353.492 -3.4472 0.422528 0
M  V30 3652 C 352.446 -4.03789 1.4191 0
M  V30 3653 C 351.772 -5.28858 0.788274 0
M  V30 3654 C 353.072 -4.41418 2.7919 0
M  V30 3655 H 354.766 -2.3708 1.82848 0
M  V30 3656 H 352.312 -1.13938 0.880569 0
M  V30 3657 H 354.265 -4.20787 0.227289 0
M  V30 3658 H 352.989 -3.22269 -0.530123 0
M  V30 3659 H 351.648 -3.2979 1.60106 0
M  V30 3660 H 351.296 -5.02709 -0.171173 0
M  V30 3661 H 350.996 -5.69338 1.45353 0
M  V30 3662 H 352.52 -6.07612 0.603282 0
M  V30 3663 H 353.934 -5.08524 2.64719 0
M  V30 3664 H 352.331 -4.92913 3.42282 0
M  V30 3665 H 353.401 -3.51819 3.33693 0
M  V30 3666 N 354.744 -0.972509 -1.24016 0
M  V30 3667 C 355.972 -0.654803 -1.96265 0
M  V30 3668 C 356.387 0.776708 -1.72083 0
M  V30 3669 O 355.744 1.52171 -1.00748 0
M  V30 3670 C 355.795 -0.92592 -3.49441 0
M  V30 3671 O 355.516 -2.30116 -3.72798 0
M  V30 3672 C 357.017 -0.623068 -4.38899 0
M  V30 3673 H 354.237 -0.243907 -0.6251 0
M  V30 3674 H 356.781 -1.30175 -1.57717 0
M  V30 3675 H 354.936 -0.325108 -3.86033 0
M  V30 3676 H 355.35 -2.38483 -4.67147 0
M  V30 3677 H 356.824 -0.863189 -5.45209 0
M  V30 3678 H 357.301 0.442754 -4.36963 0
M  V30 3679 H 357.907 -1.204 -4.07902 0
M  V30 3680 N 356.222 1.38976 -0.743202 0
M  V30 3681 C 357.471 1.99581 -0.291592 0
M  V30 3682 C 357.784 1.59656 1.13001 0
M  V30 3683 O 358.99 2.13157 1.68156 0
M  V30 3684 C 357.446 3.56813 -0.470391 0
M  V30 3685 C 357.054 4.05695 -1.90041 0
M  V30 3686 C 358.798 4.24423 -0.0809709 0
M  V30 3687 C 356.705 5.5553 -2.02832 0
M  V30 3688 H 355.635 0.746615 -0.105272 0
M  V30 3689 H 358.286 1.58872 -0.918258 0
M  V30 3690 H 356.668 3.95359 0.225299 0
M  V30 3691 H 357.842 3.78464 -2.62872 0
M  V30 3692 H 356.157 3.50775 -2.24379 0
M  V30 3693 H 358.754 5.34474 -0.155445 0
M  V30 3694 H 359.097 4.04962 0.96497 0
M  V30 3695 H 359.63 3.9108 -0.728124 0
M  V30 3696 H 356.369 5.79881 -3.05643 0
M  V30 3697 H 355.889 5.84537 -1.34448 0
M  V30 3698 H 357.568 6.21069 -1.81335 0
M  V30 3699 N 357.7 0.491464 1.49741 0
M  V30 3700 C 358.65 -0.311086 2.25868 0
M  V30 3701 C 359.634 -0.943857 1.30308 0
M  V30 3702 O 360.826 -0.853035 1.55088 0
M  V30 3703 C 357.955 -1.38059 3.14316 0
M  V30 3704 C 357.041 -0.754541 4.17334 0
M  V30 3705 N 357.432 0.137216 5.05614 0
M  V30 3706 C 355.73 -1.01621 4.34269 0
M  V30 3707 C 356.431 0.494614 5.79593 0
M  V30 3708 N 355.407 -0.135169 5.43432 0
M  V30 3709 H 359.209 0.37555 2.91491 0
M  V30 3710 H 356.723 0.306917 1.59473 0
M  V30 3711 H 358.72 -1.96891 3.67477 0
M  V30 3712 H 357.38 -2.06901 2.50244 0
M  V30 3713 H 358.391 0.50741 5.15408 0
M  V30 3714 H 355.068 -1.69808 3.81407 0
M  V30 3715 H 356.458 1.2236 6.60665 0
M  V30 3716 N 359.178 -1.55987 0.224894 0
M  V30 3717 C 360.088 -2.24066 -0.69511 0
M  V30 3718 C 361.104 -1.24939 -1.21104 0
M  V30 3719 O 362.28 -1.5776 -1.25195 0
M  V30 3720 C 359.345 -2.90983 -1.88493 0
M  V30 3721 C 358.406 -4.05462 -1.41064 0
M  V30 3722 C 357.639 -4.69179 -2.54375 0
M  V30 3723 O 357.862 -4.31895 -3.72589 0
M  V30 3724 O 356.796 -5.58108 -2.25386 0
M  V30 3725 H 360.622 -3.03353 -0.145149 0
M  V30 3726 H 358.207 -1.49399 -0.00569476 0
M  V30 3727 H 360.089 -3.33209 -2.57972 0
M  V30 3728 H 358.764 -2.14653 -2.42293 0
M  V30 3729 H 357.671 -3.67798 -0.683774 0
M  V30 3730 H 359.004 -4.83545 -0.918985 0
M  V30 3731 N 360.656 0.0484629 -1.57525 0
M  V30 3732 C 361.933 0.777447 -1.79486 0
M  V30 3733 C 362.313 1.94597 -0.818251 0
M  V30 3734 O 361.661 2.28047 0.143767 0
M  V30 3735 C 361.871 1.22864 -3.26658 0
M  V30 3736 C 363.219 1.65251 -3.91123 0
M  V30 3737 O 364.243 1.32372 -3.3069 0
M  V30 3738 O 363.102 2.26207 -4.97486 0
M  V30 3739 H 360.196 0.374357 -0.737419 0
M  V30 3740 H 362.742 0.0267359 -1.69679 0
M  V30 3741 H 361.514 0.393589 -3.89316 0
M  V30 3742 H 361.137 2.03996 -3.41279 0
M  V30 3743 N 362.134 1.5431 0.320358 0
M  V30 3744 C 363.097 1.83195 1.3774 0
M  V30 3745 C 364.097 0.703906 1.44575 0
M  V30 3746 O 365.287 0.972214 1.44546 0
M  V30 3747 C 362.419 1.99487 2.76438 0
M  V30 3748 H 363.612 2.77642 1.1338 0
M  V30 3749 H 361.165 1.46076 0.556012 0
M  V30 3750 H 361.9 1.07262 3.06048 0
M  V30 3751 H 361.685 2.81575 2.7287 0
M  V30 3752 H 363.175 2.23271 3.52902 0
M  V30 3753 N 363.613 -0.582584 1.46437 0
M  V30 3754 C 364.838 -1.37168 1.55563 0
M  V30 3755 C 365.263 -1.87061 0.19743 0
M  V30 3756 O 364.621 -1.61572 -0.822451 0
M  V30 3757 C 364.669 -2.53511 2.56446 0
M  V30 3758 O 363.773 -3.54953 2.09958 0
M  V30 3759 H 363.114 -0.408494 0.523477 0
M  V30 3760 H 365.644 -0.706646 1.9201 0
M  V30 3761 H 365.654 -3.00426 2.76058 0
M  V30 3762 H 364.329 -2.16549 3.55076 0
M  V30 3763 H 362.906 -3.14516 2.00334 0
M  V30 3764 N 365.091 -1.34144 -0.827227 0
M  V30 3765 C 366.319 -1.29325 -1.61501 0
M  V30 3766 C 366.734 0.13354 -1.88327 0
M  V30 3767 O 366.091 1.0793 -1.47164 0
M  V30 3768 C 366.142 -2.07746 -2.95844 0
M  V30 3769 O 365.863 -3.4486 -2.70191 0
M  V30 3770 C 367.364 -2.10273 -3.90256 0
M  V30 3771 H 364.584 -0.445069 -0.50215 0
M  V30 3772 H 367.128 -1.76693 -1.02955 0
M  V30 3773 H 365.283 -1.6403 -3.5096 0
M  V30 3774 H 365.697 -3.85345 -3.55822 0
M  V30 3775 H 367.171 -2.69575 -4.81698 0
M  V30 3776 H 367.648 -1.096 -4.25305 0
M  V30 3777 H 368.254 -2.54059 -3.41078 0
M  V30 3778 N 366.569 1.04691 -1.17803 0
M  V30 3779 C 367.846 1.7472 -0.879328 0
M  V30 3780 C 368.226 2.01812 0.619271 0
M  V30 3781 O 367.574 1.65824 1.57209 0
M  V30 3782 C 367.784 3.03686 -1.71976 0
M  V30 3783 C 369.132 3.77542 -1.94286 0
M  V30 3784 O 370.156 3.13569 -1.68976 0
M  V30 3785 O 369.015 4.92506 -2.36855 0
M  V30 3786 H 366.109 0.760011 -0.326056 0
M  V30 3787 H 368.655 1.10813 -1.28525 0
M  V30 3788 H 367.427 2.79754 -2.73594 0
M  V30 3789 H 367.05 3.75332 -1.31194 0
M  V30 3790 N 368.047 0.979072 1.23499 0
M  V30 3791 C 368.994 0.517904 2.24914 0
M  V30 3792 C 369.964 -0.442525 1.60097 0
M  V30 3793 O 371.149 -0.350365 1.87556 0
M  V30 3794 C 368.289 -0.174813 3.44657 0
M  V30 3795 C 367.402 0.825721 4.24035 0
M  V30 3796 C 366.537 0.107946 5.3109 0
M  V30 3797 C 365.576 1.09778 6.02175 0
M  V30 3798 N 364.713 0.40925 7.00906 0
M  V30 3799 H 369.553 1.38751 2.63727 0
M  V30 3800 H 367.09 0.695303 1.2963 0
M  V30 3801 H 369.048 -0.593233 4.12961 0
M  V30 3802 H 367.678 -1.0083 3.06648 0
M  V30 3803 H 366.73 1.36253 3.55161 0
M  V30 3804 H 368.042 1.58005 4.73113 0
M  V30 3805 H 367.196 -0.367904 6.05583 0
M  V30 3806 H 365.935 -0.678994 4.8295 0
M  V30 3807 H 364.94 1.5844 5.26476 0
M  V30 3808 H 366.165 1.88536 6.52404 0
M  V30 3809 H 364.111 -0.358506 6.5502 0
M  V30 3810 H 364.028 1.10226 7.47921 0
M  V30 3811 H 365.296 -0.0442557 7.79487 0
M  V30 3812 N 369.525 -1.3858 0.750561 0
M  V30 3813 C 370.941 -1.53759 0.427824 0
M  V30 3814 C 371.141 -1.71401 -1.05943 0
M  V30 3815 O 370.197 -1.72331 -1.84549 0
M  V30 3816 C 371.51 -2.74642 1.22443 0
M  V30 3817 C 373.058 -2.88489 1.2142 0
M  V30 3818 C 373.533 -4.12329 1.9937 0
M  V30 3819 N 375.024 -4.194 1.96616 0
M  V30 3820 C 375.759 -5.14209 2.53727 0
M  V30 3821 N 375.255 -6.14709 3.19539 0
M  V30 3822 N 377.048 -5.06537 2.43673 0
M  V30 3823 H 369.199 -1.25377 1.71447 0
M  V30 3824 H 371.462 -0.608844 0.726645 0
M  V30 3825 H 371.168 -2.68 2.27747 0
M  V30 3826 H 371.042 -3.67745 0.839273 0
M  V30 3827 H 373.429 -2.94614 0.169232 0
M  V30 3828 H 373.51 -1.96406 1.63885 0
M  V30 3829 H 373.154 -4.06966 3.03877 0
M  V30 3830 H 373.084 -5.03486 1.54302 0
M  V30 3831 H 375.575 -3.47421 1.48684 0
M  V30 3832 H 375.888 -6.8354 3.60545 0
M  V30 3833 H 374.233 -6.1505 3.23633 0
M  V30 3834 H 377.424 -4.26962 1.91889 0
M  V30 3835 H 377.597 -5.80245 2.88479 0
M  V30 3836 N 371.003 -0.499398 -1.49478 0
M  V30 3837 C 371.936 0.326491 -2.25852 0
M  V30 3838 C 372.914 0.971776 -1.30366 0
M  V30 3839 O 374.098 1.00219 -1.59651 0
M  V30 3840 C 371.225 1.45969 -3.05632 0
M  V30 3841 C 370.271 0.928938 -4.16261 0
M  V30 3842 S 371.104 -0.179012 -5.35201 0
M  V30 3843 C 372.26 0.957389 -6.18534 0
M  V30 3844 H 372.493 -0.321746 -2.95554 0
M  V30 3845 H 370.026 -0.284674 -1.51753 0
M  V30 3846 H 371.984 2.109 -3.52181 0
M  V30 3847 H 370.645 2.07953 -2.35402 0
M  V30 3848 H 369.838 1.77813 -4.71592 0
M  V30 3849 H 369.44 0.356869 -3.72293 0
M  V30 3850 H 371.732 1.86296 -6.51383 0
M  V30 3851 H 372.675 0.442733 -7.06715 0
M  V30 3852 H 373.083 1.224 -5.5107 0
M  V30 3853 N 372.481 1.55866 -0.233164 0
M  V30 3854 C 373.892 1.847 0.272554 0
M  V30 3855 C 374.243 1.15477 1.58617 0
M  V30 3856 O 373.368 0.42841 2.12117 0
M  V30 3857 C 373.963 3.35071 0.501299 0
M  V30 3858 C 372.522 3.6418 0.951304 0
M  V30 3859 C 371.669 2.77292 0.0208209 0
M  V30 3860 H 374.62 1.52005 -0.456074 0
M  V30 3861 H 374.641 3.55906 1.34577 0
M  V30 3862 H 374.153 3.85424 -0.454936 0
M  V30 3863 H 372.254 3.19293 1.92049 0
M  V30 3864 H 372.367 4.72071 0.817675 0
M  V30 3865 H 370.731 2.49131 0.529723 0
M  V30 3866 H 371.514 3.30448 -0.93054 0
M  V30 3867 N 373.959 -0.0401083 1.57549 0
M  V30 3868 C 375.208 -0.732108 1.87944 0
M  V30 3869 C 375.521 -1.77107 0.830206 0
M  V30 3870 O 376.727 -2.51488 1.02302 0
M  V30 3871 C 375.183 -1.35315 3.33494 0
M  V30 3872 C 374.791 -0.351105 4.46622 0
M  V30 3873 C 376.535 -2.02566 3.73051 0
M  V30 3874 C 374.442 -0.979859 5.83226 0
M  V30 3875 H 373.372 -0.277188 0.701201 0
M  V30 3876 H 376.023 0.0138501 1.83495 0
M  V30 3877 H 374.405 -2.14844 3.32653 0
M  V30 3878 H 375.579 0.416674 4.58912 0
M  V30 3879 H 373.894 0.218708 4.15825 0
M  V30 3880 H 376.491 -2.50441 4.72423 0
M  V30 3881 H 376.834 -2.83904 3.04474 0
M  V30 3882 H 377.367 -1.29827 3.76018 0
M  V30 3883 H 374.106 -0.206135 6.55176 0
M  V30 3884 H 373.626 -1.71774 5.74677 0
M  V30 3885 H 375.305 -1.49046 6.29599 0
M  V30 3886 N 375.437 -1.54477 -0.31217 0
M  V30 3887 C 376.684 -1.73227 -1.04875 0
M  V30 3888 C 377.012 -0.512042 -1.87639 0
M  V30 3889 O 376.267 0.506131 -1.89042 0
M  V30 3890 C 376.566 -2.967 -1.99258 0
M  V30 3891 C 376.232 -4.30974 -1.32559 0
M  V30 3892 C 374.894 -4.67477 -1.141 0
M  V30 3893 C 377.246 -5.14258 -0.847835 0
M  V30 3894 C 374.574 -5.84852 -0.465326 0
M  V30 3895 C 376.926 -6.32327 -0.185931 0
M  V30 3896 C 375.59 -6.67499 0.0107077 0
M  V30 3897 H 374.86 -0.633881 -0.383765 0
M  V30 3898 H 377.507 -1.88727 -0.324731 0
M  V30 3899 H 375.812 -2.75935 -2.7815 0
M  V30 3900 H 377.509 -3.08401 -2.563 0
M  V30 3901 H 374.099 -4.02262 -1.4793 0
M  V30 3902 H 378.283 -4.86565 -0.978192 0
M  V30 3903 H 373.539 -6.10654 -0.301883 0
M  V30 3904 H 377.713 -6.96135 0.192211 0
M  V30 3905 H 375.34 -7.58306 0.536287 0
M  V30 3906 N 376.915 0.57481 -1.46744 0
M  V30 3907 C 378.163 1.33009 -1.52161 0
M  V30 3908 C 378.484 1.94185 -0.178092 0
M  V30 3909 O 377.754 1.7899 0.796196 0
M  V30 3910 H 376.334 0.493873 -0.560445 0
M  V30 3911 H 378.996 0.672589 -1.82927 0
M  V30 3912 H 378.092 2.13273 -2.27862 0
M  V30 3913 N 378.394 1.34581 0.820102 0
M  V30 3914 C 379.622 1.3018 1.60813 0
M  V30 3915 C 380.037 -0.123551 1.88395 0
M  V30 3916 O 379.394 -1.07148 1.47735 0
M  V30 3917 C 379.445 2.09312 2.94739 0
M  V30 3918 O 379.166 3.46288 2.68358 0
M  V30 3919 C 380.667 2.1234 3.89136 0
M  V30 3920 H 377.887 0.447726 0.499782 0
M  V30 3921 H 380.431 1.77237 1.02017 0
M  V30 3922 H 378.586 1.65889 3.50085 0
M  V30 3923 H 379 3.87227 3.53774 0
M  V30 3924 H 380.474 2.72126 4.80262 0
M  V30 3925 H 380.951 1.11854 4.24718 0
M  V30 3926 H 381.557 2.55864 3.39726 0
M  V30 3927 N 379.872 -1.04064 1.18357 0
M  V30 3928 C 381.149 -1.74252 0.888581 0
M  V30 3929 C 381.529 -2.02138 -0.60856 0
M  V30 3930 O 380.877 -1.66656 -1.56327 0
M  V30 3931 C 381.087 -3.0277 1.73584 0
M  V30 3932 C 382.435 -3.76506 1.96286 0
M  V30 3933 O 383.459 -3.12668 1.70637 0
M  V30 3934 O 382.318 -4.91243 2.39464 0
M  V30 3935 H 379.412 -0.758271 0.330082 0
M  V30 3936 H 381.958 -1.1013 1.2911 0
M  V30 3937 H 380.73 -2.78299 2.75073 0
M  V30 3938 H 380.353 -3.74631 1.33183 0
M  V30 3939 N 381.35 -0.985608 -1.22978 0
M  V30 3940 C 382.58 -0.674603 -1.95276 0
M  V30 3941 C 382.988 0.763483 -1.73111 0
M  V30 3942 O 382.331 1.52601 -1.02268 0
M  V30 3943 C 382.393 -0.891597 -3.48268 0
M  V30 3944 C 382.057 -2.31275 -3.94158 0
M  V30 3945 C 383.054 -3.29179 -4.02415 0
M  V30 3946 C 380.739 -2.64524 -4.27004 0
M  V30 3947 C 382.733 -4.58407 -4.42879 0
M  V30 3948 C 380.42 -3.93974 -4.67149 0
M  V30 3949 C 381.418 -4.90727 -4.75053 0
M  V30 3950 O 381.106 -6.17865 -5.14294 0
M  V30 3951 H 380.838 -0.249251 -0.628371 0
M  V30 3952 H 383.392 -1.32106 -1.5728 0
M  V30 3953 H 381.622 -0.187962 -3.86243 0
M  V30 3954 H 383.311 -0.576957 -4.01779 0
M  V30 3955 H 384.077 -3.04823 -3.77237 0
M  V30 3956 H 379.956 -1.89923 -4.2006 0
M  V30 3957 H 383.5 -5.33926 -4.48964 0
M  V30 3958 H 379.397 -4.18122 -4.91777 0
M  V30 3959 H 380.165 -6.21694 -5.32389 0
M  V30 3960 N 382.828 1.3818 -0.7579 0
M  V30 3961 C 384.239 1.82726 -0.383134 0
M  V30 3962 C 384.59 1.63214 1.08884 0
M  V30 3963 O 383.715 1.13566 1.84205 0
M  V30 3964 C 384.31 3.31728 -0.688631 0
M  V30 3965 C 382.869 3.74606 -0.367091 0
M  V30 3966 C 382.016 2.60896 -0.939599 0
M  V30 3967 H 384.967 1.26847 -0.953699 0
M  V30 3968 H 384.988 3.80487 0.0316492 0
M  V30 3969 H 384.5 3.45898 -1.76001 0
M  V30 3970 H 382.601 3.66013 0.697532 0
M  V30 3971 H 382.714 4.71215 -0.865658 0
M  V30 3972 H 381.078 2.52075 -0.3647 0
M  V30 3973 H 381.861 2.77864 -2.0161 0
M  V30 3974 N 384.306 0.507319 1.49211 0
M  V30 3975 C 385.534 -0.0315749 2.06876 0
M  V30 3976 C 385.949 -1.30241 1.36685 0
M  V30 3977 O 385.306 -1.76937 0.447152 0
M  V30 3978 C 385.357 -0.282627 3.60393 0
M  V30 3979 O 385.078 0.937835 4.27944 0
M  V30 3980 C 386.579 -0.864453 4.3479 0
M  V30 3981 H 383.799 0.0233048 0.670595 0
M  V30 3982 H 386.343 0.706484 1.91909 0
M  V30 3983 H 384.498 -0.97068 3.75042 0
M  V30 3984 H 384.912 0.704567 5.19746 0
M  V30 3985 H 386.386 -0.989664 5.43056 0
M  V30 3986 H 386.863 -1.86382 3.97692 0
M  V30 3987 H 387.469 -0.213672 4.24763 0
M  V30 3988 N 385.784 -1.5574 0.241426 0
M  V30 3989 C 387.195 -1.84842 -0.262755 0
M  V30 3990 C 387.546 -1.16317 -1.58003 0
M  V30 3991 O 386.671 -0.439653 -2.11887 0
M  V30 3992 C 387.266 -3.35332 -0.483523 0
M  V30 3993 C 385.825 -3.6468 -0.931977 0
M  V30 3994 C 384.972 -2.77299 -0.0061151 0
M  V30 3995 H 387.923 -1.51761 0.464129 0
M  V30 3996 H 387.944 -3.56615 -1.32688 0
M  V30 3997 H 387.456 -3.85178 0.47537 0
M  V30 3998 H 385.557 -3.20307 -1.90353 0
M  V30 3999 H 385.67 -4.72498 -0.792628 0
M  V30 4000 H 384.034 -2.49408 -0.516503 0
M  V30 4001 H 384.817 -3.2995 0.948052 0
M  V30 4002 N 387.262 0.0317525 -1.57568 0
M  V30 4003 C 388.539 0.758366 -1.803 0
M  V30 4004 C 388.919 1.93718 -0.838845 0
M  V30 4005 O 388.267 2.28187 0.119571 0
M  V30 4006 C 388.477 1.19392 -3.27943 0
M  V30 4007 C 389.825 1.61094 -3.92854 0
M  V30 4008 O 390.849 1.28857 -3.32076 0
M  V30 4009 O 389.708 2.20918 -4.99858 0
M  V30 4010 H 386.802 0.366514 -0.741348 0
M  V30 4011 H 389.348 0.00873765 -1.69698 0
M  V30 4012 H 388.12 0.352275 -3.89711 0
M  V30 4013 H 387.743 2.00365 -3.43424 0
M  V30 4014 N 388.74 1.54641 0.303973 0
M  V30 4015 C 389.988 1.73437 1.0375 0
M  V30 4016 C 390.309 0.521449 1.87899 0
M  V30 4017 O 389.579 -0.46432 1.90318 0
M  V30 4018 H 388.159 0.639518 0.386039 0
M  V30 4019 H 390.821 1.91988 0.335675 0
M  V30 4020 H 389.917 2.62235 1.69231 0
M  V30 4021 N 390.218 -0.567019 1.47046 0
M  V30 4022 C 391.446 -1.35027 1.56765 0
M  V30 4023 C 391.861 -1.8758 0.214316 0
M  V30 4024 O 391.218 -1.64471 -0.790919 0
M  V30 4025 C 391.269 -2.52698 2.58507 0
M  V30 4026 O 390.99 -2.0232 3.88585 0
M  V30 4027 C 392.491 -3.45043 2.78316 0
M  V30 4028 H 389.711 -0.41195 0.529658 0
M  V30 4029 H 392.255 -0.687832 1.92585 0
M  V30 4030 H 390.41 -3.149 2.25648 0
M  V30 4031 H 390.824 -2.79068 4.44096 0
M  V30 4032 H 392.298 -4.2405 3.53391 0
M  V30 4033 H 392.775 -3.97971 1.85784 0
M  V30 4034 H 393.381 -2.88665 3.12334 0
M  V30 4035 N 391.696 -1.35014 -0.812953 0
M  V30 4036 C 392.936 -1.29289 -1.58315 0
M  V30 4037 C 393.3 0.132727 -1.91541 0
M  V30 4038 O 394.501 0.314269 -2.66957 0
M  V30 4039 C 392.772 -2.1681 -2.84127 0
M  V30 4040 S 394.331 -2.28538 -3.74588 0
M  V30 4041 H 391.149 -0.459569 -0.542511 0
M  V30 4042 H 393.751 -1.70336 -0.959467 0
M  V30 4043 H 392.455 -3.19379 -2.57731 0
M  V30 4044 H 391.986 -1.76697 -3.51485 0
M  V30 4045 H 394.001 -1.4655 -4.74065 0
M  V30 4046 N 393.175 1.03435 -1.18907 0
M  V30 4047 C 394.421 1.77005 -0.989798 0
M  V30 4048 C 394.754 1.88205 0.478816 0
M  V30 4049 O 394.029 1.39481 1.35556 0
M  V30 4050 C 394.312 3.19925 -1.65287 0
M  V30 4051 C 394.165 3.1663 -3.19477 0
M  V30 4052 C 395.484 4.18189 -1.37134 0
M  V30 4053 H 392.603 0.642538 -0.360991 0
M  V30 4054 H 395.245 1.20784 -1.46667 0
M  V30 4055 H 393.395 3.67929 -1.24741 0
M  V30 4056 H 395.067 2.76567 -3.692 0
M  V30 4057 H 393.31 2.54491 -3.51307 0
M  V30 4058 H 393.981 4.1758 -3.61013 0
M  V30 4059 H 396.457 3.78761 -1.72276 0
M  V30 4060 H 395.333 5.16394 -1.86087 0
M  V30 4061 H 395.594 4.41112 -0.295424 0
M  V30 4062 N 394.653 0.992116 1.22453 0
M  V30 4063 C 396.069 0.702713 1.43297 0
M  V30 4064 C 396.269 -0.726909 1.87932 0
M  V30 4065 O 395.325 -1.49792 2.0327 0
M  V30 4066 C 396.638 1.70762 2.47509 0
M  V30 4067 C 398.186 1.72298 2.61309 0
M  V30 4068 C 398.661 2.71649 3.68742 0
M  V30 4069 N 400.152 2.70239 3.76199 0
M  V30 4070 C 400.887 3.43778 4.58917 0
M  V30 4071 N 400.383 4.26914 5.45633 0
M  V30 4072 N 402.176 3.32487 4.5322 0
M  V30 4073 H 394.327 1.91543 0.917871 0
M  V30 4074 H 396.59 0.826031 0.465162 0
M  V30 4075 H 396.296 2.73059 2.21657 0
M  V30 4076 H 396.17 1.49985 3.46099 0
M  V30 4077 H 398.557 0.706989 2.86506 0
M  V30 4078 H 398.638 1.97143 1.62997 0
M  V30 4079 H 398.282 3.73397 3.44292 0
M  V30 4080 H 398.212 2.44074 4.66622 0
M  V30 4081 H 400.703 2.09912 3.14237 0
M  V30 4082 H 401.016 4.79855 6.05771 0
M  V30 4083 H 399.361 4.31002 5.45218 0
M  V30 4084 H 402.552 2.6698 3.84499 0
M  V30 4085 H 402.725 3.90058 5.17454 0
M  V30 4086 N 396.131 -1.37776 0.765217 0
M  V30 4087 C 397.408 -1.93975 0.251596 0
M  V30 4088 C 397.788 -1.69949 -1.25222 0
M  V30 4089 O 397.136 -1.04457 -2.03226 0
M  V30 4090 C 397.346 -3.43487 0.617895 0
M  V30 4091 C 398.694 -4.20564 0.584029 0
M  V30 4092 O 399.718 -3.5182 0.556888 0
M  V30 4093 O 398.577 -5.43138 0.605291 0
M  V30 4094 H 395.671 -0.82509 0.0561806 0
M  V30 4095 H 398.217 -1.47101 0.846128 0
M  V30 4096 H 396.989 -3.5453 1.65602 0
M  V30 4097 H 396.612 -3.976 -0.00403411 0
M  V30 4098 N 397.609 -0.515225 -1.4894 0
M  V30 4099 C 398.839 0.0205735 -2.0659 0
M  V30 4100 C 399.247 1.30064 -1.37405 0
M  V30 4101 O 398.59 1.78087 -0.450632 0
M  V30 4102 C 398.652 0.330124 -3.57981 0
M  V30 4103 C 398.316 -0.854295 -4.48944 0
M  V30 4104 C 399.313 -1.7487 -4.89609 0
M  V30 4105 C 396.998 -1.05712 -4.9105 0
M  V30 4106 C 398.992 -2.82996 -5.71132 0
M  V30 4107 C 396.679 -2.14154 -5.72347 0
M  V30 4108 C 397.677 -3.0263 -6.12294 0
M  V30 4109 O 397.365 -4.09198 -6.91962 0
M  V30 4110 H 397.097 -0.0236833 -0.675585 0
M  V30 4111 H 399.651 -0.715956 -1.92518 0
M  V30 4112 H 397.881 1.12044 -3.70112 0
M  V30 4113 H 399.57 0.806233 -3.97812 0
M  V30 4114 H 400.336 -1.60388 -4.57712 0
M  V30 4115 H 396.215 -0.377788 -4.59449 0
M  V30 4116 H 399.759 -3.52083 -6.02232 0
M  V30 4117 H 395.656 -2.28626 -6.03656 0
M  V30 4118 H 396.424 -4.06726 -7.10293 0
M  V30 4119 N 399.087 1.5561 -0.249682 0
M  V30 4120 C 400.333 1.99306 0.374841 0
M  V30 4121 C 400.666 1.13767 1.57387 0
M  V30 4122 O 399.941 0.201711 1.93451 0
M  V30 4123 C 400.224 3.51507 0.781986 0
M  V30 4124 C 400.077 4.4781 -0.422629 0
M  V30 4125 C 401.396 4.08884 1.62793 0
M  V30 4126 H 398.515 0.724572 0.134773 0
M  V30 4127 H 401.157 1.86719 -0.351549 0
M  V30 4128 H 399.307 3.62363 1.4009 0
M  V30 4129 H 400.979 4.48931 -1.06108 0
M  V30 4130 H 399.222 4.20518 -1.06524 0
M  V30 4131 H 399.893 5.51919 -0.0943766 0
M  V30 4132 H 402.369 4.01147 1.10547 0
M  V30 4133 H 401.245 5.1564 1.88166 0
M  V30 4134 H 401.506 3.57515 2.60068 0
M  V30 4135 N 400.565 -0.0233959 1.57583 0
M  V30 4136 C 401.515 -1.03023 2.03397 0
M  V30 4137 C 402.499 -1.31701 0.924315 0
M  V30 4138 O 403.691 -1.31191 1.18819 0
M  V30 4139 C 400.82 -2.32961 2.52159 0
M  V30 4140 C 399.906 -2.07349 3.69956 0
M  V30 4141 N 400.297 -1.51814 4.82479 0
M  V30 4142 C 398.595 -2.37606 3.77438 0
M  V30 4143 C 399.296 -1.42136 5.64068 0
M  V30 4144 N 398.272 -1.89891 5.09355 0
M  V30 4145 H 402.074 -0.594962 2.87815 0
M  V30 4146 H 399.588 -0.229586 1.60769 0
M  V30 4147 H 401.585 -3.05906 2.83244 0
M  V30 4148 H 400.245 -2.77162 1.69149 0
M  V30 4149 H 401.256 -1.20008 5.03804 0
M  V30 4150 H 397.933 -2.84842 3.05239 0
M  V30 4151 H 399.323 -0.996405 6.64471 0
M  V30 4152 N 402.043 -1.548 -0.295768 0
M  V30 4153 C 403.289 -1.74588 -1.03184 0
M  V30 4154 C 403.622 -0.532962 -1.86744 0
M  V30 4155 O 402.897 0.469872 -1.88739 0
M  V30 4156 C 403.18 -3.03791 -1.93347 0
M  V30 4157 C 403.033 -4.35392 -1.12933 0
M  V30 4158 C 404.352 -3.28892 -2.92435 0
M  V30 4159 H 401.471 -0.635221 -0.373715 0
M  V30 4160 H 404.113 -1.87519 -0.30606 0
M  V30 4161 H 402.263 -2.92898 -2.55232 0
M  V30 4162 H 403.935 -4.58211 -0.532943 0
M  V30 4163 H 402.178 -4.31642 -0.432168 0
M  V30 4164 H 402.849 -5.22074 -1.79284 0
M  V30 4165 H 405.325 -3.39429 -2.4068 0
M  V30 4166 H 404.201 -4.20603 -3.52682 0
M  V30 4167 H 404.462 -2.47437 -3.6637 0
M  V30 4168 N 403.521 0.559213 -1.47345 0
M  V30 4169 C 404.761 1.32728 -1.55444 0
M  V30 4170 C 405.125 1.90838 -0.210895 0
M  V30 4171 O 406.326 2.68282 -0.166719 0
M  V30 4172 C 404.597 2.4092 -2.63993 0
M  V30 4173 S 406.156 3.2784 -2.91661 0
M  V30 4174 H 402.974 0.451883 -0.548929 0
M  V30 4175 H 405.576 0.640404 -1.84714 0
M  V30 4176 H 404.28 1.9666 -3.60212 0
M  V30 4177 H 403.811 3.14351 -2.36531 0
M  V30 4178 H 405.826 4.40341 -2.28722 0
M  V30 4179 N 404.999 1.35443 0.805782 0
M  V30 4180 C 406.276 1.19325 1.54987 0
M  V30 4181 C 406.656 -0.227294 2.09873 0
M  V30 4182 O 406.004 -1.2309 1.92512 0
M  V30 4183 C 406.214 2.26196 2.65775 0
M  V30 4184 C 407.562 2.62043 3.34094 0
M  V30 4185 O 408.586 2.25115 2.76046 0
M  V30 4186 O 407.445 3.25542 4.38958 0
M  V30 4187 H 404.539 0.463623 0.684823 0
M  V30 4188 H 407.085 1.47127 0.845674 0
M  V30 4189 H 405.857 3.21471 2.23096 0
M  V30 4190 H 405.48 1.99667 3.43829 0
M  V30 4191 N 406.477 -1.02803 1.19454 0
M  V30 4192 C 407.407 -2.12999 0.956758 0
M  V30 4193 C 408.388 -1.69743 -0.110188 0
M  V30 4194 O 409.573 -1.94148 0.0450038 0
M  V30 4195 C 406.703 -3.43746 0.495553 0
M  V30 4196 C 405.657 -4.00688 1.50443 0
M  V30 4197 C 404.983 -5.27067 0.900275 0
M  V30 4198 C 406.283 -4.35397 2.8849 0
M  V30 4199 H 407.977 -2.33148 1.87836 0
M  V30 4200 H 405.523 -1.12045 0.904539 0
M  V30 4201 H 407.476 -4.2021 0.316493 0
M  V30 4202 H 406.2 -3.23321 -0.461646 0
M  V30 4203 H 404.859 -3.2632 1.67065 0
M  V30 4204 H 404.507 -5.02959 -0.064503 0
M  V30 4205 H 404.207 -5.66127 1.57397 0
M  V30 4206 H 405.731 -6.06196 0.73203 0
M  V30 4207 H 407.145 -5.02795 2.75446 0
M  V30 4208 H 405.542 -4.85541 3.52661 0
M  V30 4209 H 406.612 -3.44662 3.41081 0
M  V30 4210 N 407.956 -0.998596 -1.21925 0
M  V30 4211 C 408.919 -0.558679 -2.22287 0
M  V30 4212 C 409.919 0.361525 -1.56683 0
M  V30 4213 O 411.109 0.152695 -1.73529 0
M  V30 4214 C 408.241 0.18661 -3.40389 0
M  V30 4215 H 409.434 -1.4463 -2.62721 0
M  V30 4216 H 406.987 -0.786413 -1.35075 0
M  V30 4217 H 407.722 1.08996 -3.05435 0
M  V30 4218 H 407.507 -0.474188 -3.89222 0
M  V30 4219 H 408.997 0.482367 -4.14805 0
M  V30 4220 N 409.434 1.37368 -0.772513 0
M  V30 4221 C 410.659 2.0447 -0.347386 0
M  V30 4222 C 411.084 1.57882 1.0225 0
M  V30 4223 O 410.442 0.73941 1.65537 0
M  V30 4224 C 410.49 3.58369 -0.400479 0
M  V30 4225 O 409.594 4.0803 0.598789 0
M  V30 4226 H 408.935 0.646773 -0.15027 0
M  V30 4227 H 411.465 1.75667 -1.04892 0
M  V30 4228 H 411.475 4.07183 -0.258045 0
M  V30 4229 H 410.15 3.91633 -1.39986 0
M  V30 4230 H 408.727 3.70534 0.419411 0
M  V30 4231 N 410.912 0.523116 1.48665 0
M  V30 4232 C 411.875 -0.232592 2.28017 0
M  V30 4233 C 412.875 -0.874021 1.34972 0
M  V30 4234 O 414.065 -0.735132 1.57929 0
M  V30 4235 C 411.197 -1.33586 3.13636 0
M  V30 4236 H 412.39 0.464008 2.96289 0
M  V30 4237 H 409.943 0.278816 1.53793 0
M  V30 4238 H 410.678 -2.06593 2.4998 0
M  V30 4239 H 410.463 -0.881125 3.82071 0
M  V30 4240 H 411.953 -1.86759 3.73511 0
M  V30 4241 N 412.39 -1.55475 0.257931 0
M  V30 4242 C 413.34 -2.18506 -0.651094 0
M  V30 4243 C 414.324 -1.14431 -1.13112 0
M  V30 4244 O 415.516 -1.40305 -1.07905 0
M  V30 4245 C 412.645 -2.89653 -1.84272 0
M  V30 4246 C 411.731 -4.00996 -1.38068 0
M  V30 4247 N 412.122 -5.01816 -0.633609 0
M  V30 4248 C 410.42 -4.13753 -1.66506 0
M  V30 4249 C 411.121 -5.80371 -0.392922 0
M  V30 4250 N 410.097 -5.3505 -0.960359 0
M  V30 4251 H 413.899 -2.93811 -0.0722883 0
M  V30 4252 H 411.413 -1.62286 0.0607256 0
M  V30 4253 H 413.41 -3.33245 -2.50506 0
M  V30 4254 H 412.07 -2.15854 -2.42564 0
M  V30 4255 H 413.081 -5.17128 -0.282626 0
M  V30 4256 H 409.758 -3.51133 -2.25858 0
M  V30 4257 H 411.148 -6.7159 0.204235 0
M  V30 4258 N 413.868 0.0150385 -1.57593 0
M  V30 4259 C 415.117 0.702115 -1.89085 0
M  V30 4260 C 415.43 1.75764 -0.858277 0
M  V30 4261 O 416.636 2.49829 -1.0629 0
M  V30 4262 C 415.092 1.29992 -3.35604 0
M  V30 4263 C 414.7 0.280007 -4.47124 0
M  V30 4264 C 416.444 1.96606 -3.76227 0
M  V30 4265 C 414.351 0.886949 -5.84711 0
M  V30 4266 H 413.281 0.265997 -0.705522 0
M  V30 4267 H 415.932 -0.0430408 -1.8345 0
M  V30 4268 H 414.314 2.09525 -3.36029 0
M  V30 4269 H 415.488 -0.489631 -4.58191 0
M  V30 4270 H 413.803 -0.284835 -4.15425 0
M  V30 4271 H 416.4 2.42893 -4.76347 0
M  V30 4272 H 416.743 2.79024 -3.08952 0
M  V30 4273 H 417.276 1.23828 -3.78036 0
M  V30 4274 H 414.015 0.101876 -6.55421 0
M  V30 4275 H 413.535 1.6261 -5.77337 0
M  V30 4276 H 415.214 1.39011 -6.3189 0
M  V30 4277 N 415.346 1.54954 0.287554 0
M  V30 4278 C 416.276 1.89839 1.35954 0
M  V30 4279 C 417.257 0.758675 1.52244 0
M  V30 4280 O 418.442 1.01557 1.65529 0
M  V30 4281 C 415.572 2.15753 2.72154 0
M  V30 4282 C 414.526 3.3159 2.70614 0
M  V30 4283 C 413.852 3.42952 4.10229 0
M  V30 4284 C 415.152 4.68359 2.31165 0
M  V30 4285 H 416.846 2.79625 1.07007 0
M  V30 4286 H 414.392 1.3454 0.513316 0
M  V30 4287 H 416.345 2.38743 3.47246 0
M  V30 4288 H 415.069 1.22752 3.02654 0
M  V30 4289 H 413.728 3.08545 1.97979 0
M  V30 4290 H 413.376 2.47443 4.37928 0
M  V30 4291 H 413.076 4.20826 4.10097 0
M  V30 4292 H 414.6 3.68218 4.87081 0
M  V30 4293 H 416.014 4.9099 2.95976 0
M  V30 4294 H 414.411 5.49044 2.42221 0
M  V30 4295 H 415.481 4.68165 1.26291 0
M  V30 4296 N 416.824 -0.551391 1.4764 0
M  V30 4297 C 417.787 -1.64007 1.60107 0
M  V30 4298 C 418.787 -1.53601 0.47576 0
M  V30 4299 O 419.977 -1.57655 0.740988 0
M  V30 4300 C 417.109 -3.03569 1.55108 0
M  V30 4301 H 418.302 -1.543 2.57161 0
M  V30 4302 H 415.855 -0.771776 1.35917 0
M  V30 4303 H 416.59 -3.18804 0.594519 0
M  V30 4304 H 416.375 -3.12532 2.36783 0
M  V30 4305 H 417.865 -3.82762 1.66982 0
M  V30 4306 N 418.302 -1.35869 -0.798587 0
M  V30 4307 C 419.232 -1.32118 -1.92528 0
M  V30 4308 C 420.213 -0.194209 -1.68988 0
M  V30 4309 O 421.398 -0.390426 -1.90235 0
M  V30 4310 C 418.528 -1.10047 -3.29404 0
M  V30 4311 C 417.482 -2.19471 -3.67446 0
M  V30 4312 C 416.808 -1.82555 -5.02571 0
M  V30 4313 C 418.108 -3.61495 -3.76987 0
M  V30 4314 H 419.802 -2.26394 -1.95924 0
M  V30 4315 H 417.348 -1.08981 -0.94123 0
M  V30 4316 H 419.301 -1.06061 -4.07835 0
M  V30 4317 H 418.025 -0.122195 -3.26371 0
M  V30 4318 H 416.684 -2.22568 -2.91306 0
M  V30 4319 H 416.332 -0.833249 -4.9605 0
M  V30 4320 H 416.032 -2.5581 -5.28995 0
M  V30 4321 H 417.556 -1.80108 -5.83432 0
M  V30 4322 H 418.97 -3.60676 -4.4563 0
M  V30 4323 H 417.367 -4.33577 -4.14887 0
M  V30 4324 H 418.437 -3.97065 -2.78329 0
M  V30 4325 N 419.78 1.02168 -1.19998 0
M  V30 4326 C 421.057 1.72816 -0.916191 0
M  V30 4327 C 421.437 2.03081 0.576325 0
M  V30 4328 O 420.785 1.69122 1.53656 0
M  V30 4329 C 420.995 2.9997 -1.78378 0
M  V30 4330 C 422.343 3.73336 -2.02251 0
M  V30 4331 O 423.367 3.09914 -1.75589 0
M  V30 4332 O 422.226 4.87371 -2.47249 0
M  V30 4333 H 419.32 0.752924 -0.342103 0
M  V30 4334 H 421.866 1.08062 -1.30846 0
M  V30 4335 H 420.638 2.73888 -2.79466 0
M  V30 4336 H 420.261 3.72464 -1.39126 0
M  V30 4337 N 421.258 1.00505 1.21394 0
M  V30 4338 C 422.488 0.705584 1.94178 0
M  V30 4339 C 422.896 -0.735846 1.74304 0
M  V30 4340 O 422.239 -1.50954 1.04683 0
M  V30 4341 C 422.301 0.94689 3.46806 0
M  V30 4342 C 421.965 2.37517 3.90429 0
M  V30 4343 C 422.962 3.35539 3.97127 0
M  V30 4344 C 420.647 2.71284 4.22742 0
M  V30 4345 C 422.641 4.65395 4.3553 0
M  V30 4346 C 420.328 4.01356 4.60822 0
M  V30 4347 C 421.326 4.98223 4.67186 0
M  V30 4348 O 421.014 6.25969 5.04399 0
M  V30 4349 H 420.746 0.259216 0.624326 0
M  V30 4350 H 423.3 1.34592 1.55159 0
M  V30 4351 H 421.53 0.249386 3.85895 0
M  V30 4352 H 423.219 0.640804 4.0081 0
M  V30 4353 H 423.985 3.10786 3.7234 0
M  V30 4354 H 419.864 1.96581 4.16985 0
M  V30 4355 H 423.408 5.41002 4.40412 0
M  V30 4356 H 419.305 4.25893 4.85063 0
M  V30 4357 H 420.073 6.30085 5.22431 0
M  V30 4358 N 422.737 -1.36956 0.779787 0
M  V30 4359 C 423.983 -1.99787 0.348281 0
M  V30 4360 C 424.316 -1.61756 -1.07465 0
M  V30 4361 O 423.591 -0.867639 -1.74075 0
M  V30 4362 C 423.874 -3.56597 0.50104 0
M  V30 4363 C 423.727 -4.04513 1.96697 0
M  V30 4364 C 425.046 -4.40008 -0.0898097 0
M  V30 4365 H 422.165 -0.725796 0.128022 0
M  V30 4366 H 424.807 -1.62514 0.984331 0
M  V30 4367 H 422.957 -3.88479 -0.0404347 0
M  V30 4368 H 424.629 -3.83161 2.56876 0
M  V30 4369 H 422.872 -3.56408 2.47297 0
M  V30 4370 H 423.543 -5.1352 2.02486 0
M  V30 4371 H 426.019 -4.14431 0.372293 0
M  V30 4372 H 424.895 -5.4888 0.0471605 0
M  V30 4373 H 425.156 -4.26035 -1.18096 0
M  V30 4374 N 424.215 -0.530993 -1.48385 0
M  V30 4375 C 425.125 0.23503 -2.3342 0
M  V30 4376 C 426.141 0.93801 -1.46552 0
M  V30 4377 O 427.317 0.912745 -1.7953 0
M  V30 4378 C 424.382 1.26778 -3.22689 0
M  V30 4379 C 423.443 0.575038 -4.25431 0
M  V30 4380 C 422.676 1.55858 -5.10435 0
M  V30 4381 O 422.899 2.79129 -4.97437 0
M  V30 4382 O 421.833 1.09742 -5.91811 0
M  V30 4383 H 425.659 -0.461794 -3.00169 0
M  V30 4384 H 423.244 -0.291903 -1.46521 0
M  V30 4385 H 425.126 1.86457 -3.77904 0
M  V30 4386 H 423.801 1.94699 -2.586 0
M  V30 4387 H 422.708 -0.0622782 -3.74048 0
M  V30 4388 H 424.041 -0.062253 -4.92161 0
M  V30 4389 N 425.693 1.55336 -0.266172 0
M  V30 4390 C 426.64 2.22172 0.625165 0
M  V30 4391 C 427.61 1.19211 1.15663 0
M  V30 4392 O 428.795 1.47723 1.20758 0
M  V30 4393 C 425.935 2.93972 1.8076 0
M  V30 4394 C 425.048 4.11632 1.31084 0
M  V30 4395 C 424.183 4.71099 2.45436 0
M  V30 4396 C 423.222 5.8097 1.92718 0
M  V30 4397 N 422.359 6.34538 3.00509 0
M  V30 4398 H 427.199 2.9796 0.0485582 0
M  V30 4399 H 424.736 1.47095 0.0122024 0
M  V30 4400 H 426.694 3.33811 2.50251 0
M  V30 4401 H 425.324 2.20623 2.35638 0
M  V30 4402 H 424.376 3.76975 0.509326 0
M  V30 4403 H 425.688 4.90893 0.884633 0
M  V30 4404 H 424.842 5.13612 3.22936 0
M  V30 4405 H 423.581 3.91096 2.91368 0
M  V30 4406 H 422.586 5.37916 1.13695 0
M  V30 4407 H 423.811 6.62836 1.47733 0
M  V30 4408 H 421.757 5.57433 3.45839 0
M  V30 4409 H 421.674 7.09046 2.62279 0
M  V30 4410 H 422.942 6.81709 3.78011 0
M  V30 4411 N 427.171 -0.0066808 1.57599 0
M  V30 4412 C 428.101 -0.999296 2.11036 0
M  V30 4413 C 429.082 -1.36278 1.01795 0
M  V30 4414 O 430.267 -1.4477 1.29442 0
M  V30 4415 C 427.397 -2.29328 2.60818 0
M  V30 4416 C 426.351 -2.07159 3.74525 0
M  V30 4417 C 425.677 -3.42512 4.10596 0
M  V30 4418 C 426.977 -1.43959 5.02069 0
M  V30 4419 H 428.671 -0.554382 2.94223 0
M  V30 4420 H 426.217 -0.265221 1.41536 0
M  V30 4421 H 428.17 -2.99117 2.96828 0
M  V30 4422 H 426.894 -2.7592 1.74745 0
M  V30 4423 H 425.553 -1.39797 3.38899 0
M  V30 4424 H 425.201 -3.86795 3.21556 0
M  V30 4425 H 424.901 -3.28498 4.87199 0
M  V30 4426 H 426.425 -4.13628 4.4916 0
M  V30 4427 H 427.839 -2.03696 5.35893 0
M  V30 4428 H 426.236 -1.40452 5.83432 0
M  V30 4429 H 427.306 -0.407992 4.83181 0
M  V30 4430 N 428.649 -1.55105 -0.279332 0
M  V30 4431 C 429.897 -1.75066 -1.00977 0
M  V30 4432 C 430.218 -0.551276 -1.87045 0
M  V30 4433 O 429.488 0.433984 -1.91032 0
M  V30 4434 H 428.068 -0.645578 -0.375816 0
M  V30 4435 H 430.73 -1.92497 -0.305089 0
M  V30 4436 H 429.826 -2.64894 -1.65038 0
M  V30 4437 N 430.127 0.543554 -1.4793 0
M  V30 4438 C 431.538 1.12561 -1.48953 0
M  V30 4439 C 431.889 1.94578 -0.251754 0
M  V30 4440 O 431.014 2.0665 0.642255 0
M  V30 4441 C 431.609 2.04801 -2.69892 0
M  V30 4442 C 430.168 2.58251 -2.73831 0
M  V30 4443 C 429.315 1.34918 -2.42265 0
M  V30 4444 H 432.266 0.32947 -1.55242 0
M  V30 4445 H 432.287 2.88886 -2.47639 0
M  V30 4446 H 431.799 1.4508 -3.59963 0
M  V30 4447 H 429.9 3.21732 -1.87934 0
M  V30 4448 H 430.013 2.98312 -3.74895 0
M  V30 4449 H 428.377 1.66046 -1.93134 0
M  V30 4450 H 429.16 0.769693 -3.3456 0
M  V30 4451 N 431.605 1.3629 0.791371 0
M  V30 4452 C 432.553 1.30514 1.92533 0
M  V30 4453 C 433.547 0.197285 1.68247 0
M  V30 4454 O 434.753 0.364176 1.76278 0
M  V30 4455 H 431.128 0.406263 0.632815 0
M  V30 4456 H 433.099 2.26282 1.94523 0
M  V30 4457 C 431.848 1.10933 3.29529 0
M  V30 4458 H 431.171 1.95427 3.48781 0
M  V30 4459 H 432.611 1.10937 4.0923 0
M  V30 4460 C 431.07 -0.186123 3.36385 0
M  V30 4461 O 431.6 -1.17664 3.84081 0
M  V30 4462 N 429.806 -0.230128 2.89687 0
M  V30 4463 H 429.353 0.576545 2.51065 0
M  V30 4464 H 429.311 -1.09658 2.94657 0
M  V30 4465 N 433.083 -1.0153 1.20538 0
M  V30 4466 C 434.36 -1.72327 0.925343 0
M  V30 4467 C 434.74 -2.03383 -0.565547 0
M  V30 4468 O 434.088 -1.69934 -1.52757 0
M  V30 4469 C 434.298 -2.9902 1.79967 0
M  V30 4470 C 435.646 -3.72258 2.04228 0
M  V30 4471 O 436.67 -3.08979 1.77231 0
M  V30 4472 O 435.529 -4.86053 2.4983 0
M  V30 4473 H 432.623 -0.751099 0.346092 0
M  V30 4474 H 435.169 -1.07366 1.31417 0
M  V30 4475 H 433.941 -2.72402 2.80915 0
M  V30 4476 H 433.564 -3.71721 1.41099 0
M  V30 4477 N 434.561 -1.01147 -1.20859 0
M  V30 4478 C 435.508 -0.577354 -2.23462 0
M  V30 4479 C 436.478 0.399922 -1.61214 0
M  V30 4480 O 437.663 0.300515 -1.88419 0
M  V30 4481 C 434.803 0.083372 -3.44999 0
M  V30 4482 C 433.916 -0.937856 -4.21697 0
M  V30 4483 C 433.051 -0.248717 -5.30617 0
M  V30 4484 C 432.09 -1.25705 -5.99053 0
M  V30 4485 N 431.227 -0.594939 -6.99575 0
M  V30 4486 H 436.067 -1.45695 -2.59956 0
M  V30 4487 H 433.604 -0.729428 -1.27741 0
M  V30 4488 H 435.562 0.483535 -4.14388 0
M  V30 4489 H 434.192 0.926645 -3.09214 0
M  V30 4490 H 433.244 -1.45622 -3.51423 0
M  V30 4491 H 434.556 -1.70493 -4.68757 0
M  V30 4492 H 433.71 0.207215 -6.06346 0
M  V30 4493 H 432.449 0.55071 -4.84581 0
M  V30 4494 H 431.454 -1.72343 -5.2209 0
M  V30 4495 H 432.679 -2.05767 -6.47176 0
M  V30 4496 H 430.625 0.184713 -6.5574 0
M  V30 4497 H 430.542 -1.30017 -7.44736 0
M  V30 4498 H 431.81 -0.162427 -7.79331 0
M  V30 4499 N 436.039 1.36541 -0.78704 0
M  V30 4500 C 437.264 2.0409 -0.369053 0
M  V30 4501 C 437.689 1.58957 1.00569 0
M  V30 4502 O 437.047 0.756926 1.64743 0
M  V30 4503 C 437.095 3.57924 -0.438466 0
M  V30 4504 O 436.199 4.08642 0.555479 0
M  V30 4505 H 435.54 0.645142 -0.157122 0
M  V30 4506 H 438.07 1.74545 -1.06749 0
M  V30 4507 H 438.08 4.06887 -0.301218 0
M  V30 4508 H 436.755 3.90127 -1.44132 0
M  V30 4509 H 435.332 3.70958 0.380088 0
M  V30 4510 N 437.518 0.538854 1.48102 0
M  V30 4511 C 438.465 -0.219042 2.29758 0
M  V30 4512 C 439.435 -0.925562 1.37922 0
M  V30 4513 O 440.62 -0.924855 1.66886 0
M  V30 4514 C 437.76 -1.25452 3.2149 0
M  V30 4515 C 436.873 -0.555943 4.28408 0
M  V30 4516 C 436.008 -1.57512 5.0731 0
M  V30 4517 C 435.047 -0.860498 6.06021 0
M  V30 4518 N 434.184 -1.82564 6.77949 0
M  V30 4519 H 439.024 0.483449 2.94052 0
M  V30 4520 H 436.561 0.250247 1.44956 0
M  V30 4521 H 438.519 -1.86727 3.7308 0
M  V30 4522 H 437.149 -1.92528 2.591 0
M  V30 4523 H 436.201 0.170938 3.80016 0
M  V30 4524 H 437.513 0.00474616 4.988 0
M  V30 4525 H 436.667 -2.26191 5.62959 0
M  V30 4526 H 435.406 -2.16972 4.36778 0
M  V30 4527 H 434.411 -0.159686 5.49568 0
M  V30 4528 H 435.636 -0.271897 6.78555 0
M  V30 4529 H 433.582 -2.40915 6.10161 0
M  V30 4530 H 433.499 -1.31662 7.44447 0
M  V30 4531 H 434.767 -2.50414 7.38182 0
M  V30 4532 N 438.996 -1.55193 0.274407 0
M  V30 4533 C 440.226 -2.03692 -0.345442 0
M  V30 4534 C 440.634 -1.15224 -1.50067 0
M  V30 4535 O 439.977 -0.164749 -1.8296 0
M  V30 4536 C 440.039 -3.48325 -0.88939 0
M  V30 4537 C 439.703 -4.56794 0.137115 0
M  V30 4538 C 440.7 -5.11028 0.956378 0
M  V30 4539 C 438.385 -5.01568 0.27115 0
M  V30 4540 C 440.379 -6.08552 1.89587 0
M  V30 4541 C 438.066 -5.98918 1.21412 0
M  V30 4542 C 439.064 -6.52291 2.02498 0
M  V30 4543 O 438.752 -7.47738 2.952 0
M  V30 4544 H 438.484 -0.670893 -0.0829332 0
M  V30 4545 H 441.038 -2.01387 0.404056 0
M  V30 4546 H 439.268 -3.47867 -1.68895 0
M  V30 4547 H 440.957 -3.80167 -1.42225 0
M  V30 4548 H 441.723 -4.7725 0.863559 0
M  V30 4549 H 437.602 -4.5967 -0.349987 0
M  V30 4550 H 441.146 -6.50137 2.52918 0
M  V30 4551 H 437.043 -6.32114 1.30776 0
M  V30 4552 H 437.811 -7.65451 2.89874 0
M  V30 4553 N 440.474 -0.00167713 -1.576 0
M  V30 4554 C 441.721 0.68282 -1.90641 0
M  V30 4555 C 442.049 1.73686 -0.875415 0
M  V30 4556 O 441.304 1.95334 0.119575 0
M  V30 4557 C 441.603 1.36189 -3.30435 0
M  V30 4558 C 441.269 0.440887 -4.48739 0
M  V30 4559 C 439.931 0.187312 -4.80835 0
M  V30 4560 C 442.283 -0.193134 -5.20842 0
M  V30 4561 C 439.611 -0.70855 -5.82406 0
M  V30 4562 C 441.963 -1.07688 -6.23367 0
M  V30 4563 C 440.627 -1.33962 -6.53919 0
M  V30 4564 H 439.897 0.249862 -0.697603 0
M  V30 4565 H 442.544 -0.0575642 -1.91413 0
M  V30 4566 H 440.849 2.17636 -3.25794 0
M  V30 4567 H 442.546 1.89759 -3.5326 0
M  V30 4568 H 439.136 0.648694 -4.23663 0
M  V30 4569 H 443.32 -0.0102445 -4.96299 0
M  V30 4570 H 438.576 -0.920097 -6.04437 0
M  V30 4571 H 442.75 -1.57451 -6.78367 0
M  V30 4572 H 440.377 -2.03549 -7.32442 0
M  V30 4573 N 441.952 1.55251 0.271103 0
M  V30 4574 C 443.177 1.80306 1.02491 0
M  V30 4575 C 443.602 0.575457 1.79081 0
M  V30 4576 O 442.96 -0.474987 1.74967 0
M  V30 4577 C 443.008 3.02832 1.95768 0
M  V30 4578 O 442.112 2.78051 3.04568 0
M  V30 4579 H 441.453 0.595896 0.292923 0
M  V30 4580 H 443.983 2.02397 0.299436 0
M  V30 4581 H 443.993 3.31616 2.37686 0
M  V30 4582 H 442.668 3.9183 1.39434 0
M  V30 4583 H 441.245 2.60369 2.66951 0
M  V30 4584 N 443.43 -0.535701 1.48216 0
M  V30 4585 C 444.676 -1.29375 1.56173 0
M  V30 4586 C 445.009 -1.92804 0.232429 0
M  V30 4587 O 444.284 -1.78992 -0.761048 0
M  V30 4588 C 444.567 -2.38747 2.69577 0
M  V30 4589 C 444.42 -1.80046 4.12193 0
M  V30 4590 C 445.739 -3.40551 2.78771 0
M  V30 4591 H 442.858 -0.469027 0.568491 0
M  V30 4592 H 445.5 -0.597358 1.80365 0
M  V30 4593 H 443.65 -2.98147 2.4908 0
M  V30 4594 H 445.322 -1.24742 4.44114 0
M  V30 4595 H 443.565 -1.10609 4.19462 0
M  V30 4596 H 444.236 -2.59212 4.87353 0
M  V30 4597 H 446.712 -2.91099 2.97322 0
M  V30 4598 H 445.588 -4.1448 3.59857 0
M  V30 4599 H 445.849 -4.00746 1.86696 0
M  V30 4600 N 444.908 -1.36708 -0.784132 0
M  V30 4601 C 446.155 -1.31231 -1.54222 0
M  V30 4602 C 446.483 0.106864 -1.94206 0
M  V30 4603 O 445.738 1.07734 -1.63376 0
M  V30 4604 C 446.037 -2.18571 -2.82774 0
M  V30 4605 C 445.703 -3.67039 -2.61903 0
M  V30 4606 C 444.365 -4.07503 -2.55919 0
M  V30 4607 C 446.717 -4.61149 -2.4288 0
M  V30 4608 C 444.045 -5.40211 -2.28886 0
M  V30 4609 C 446.397 -5.94081 -2.17373 0
M  V30 4610 C 445.061 -6.33664 -2.09825 0
M  V30 4611 H 444.331 -0.48021 -0.56434 0
M  V30 4612 H 446.978 -1.68807 -0.904233 0
M  V30 4613 H 445.283 -1.73949 -3.51068 0
M  V30 4614 H 446.98 -2.11655 -3.40592 0
M  V30 4615 H 443.57 -3.34941 -2.67418 0
M  V30 4616 H 447.754 -4.30756 -2.46501 0
M  V30 4617 H 443.01 -5.69855 -2.21529 0
M  V30 4618 H 447.184 -6.66566 -2.01649 0
M  V30 4619 H 444.811 -7.36423 -1.88641 0
M  V30 4620 N 446.386 1.0089 -1.21074 0
M  V30 4621 C 447.334 2.11707 -0.963476 0
M  V30 4622 C 448.328 1.69172 0.0879032 0
M  V30 4623 O 449.534 1.79889 -0.0631415 0
M  V30 4624 H 445.909 0.692026 -0.294287 0
M  V30 4625 H 447.88 2.29743 -1.90422 0
M  V30 4626 C 446.629 3.43473 -0.540509 0
M  V30 4627 H 445.952 3.76634 -1.34114 0
M  V30 4628 H 447.392 4.22044 -0.406777 0
M  V30 4629 C 445.851 3.2849 0.748079 0
M  V30 4630 O 446.381 3.58883 1.8046 0
M  V30 4631 N 444.587 2.81715 0.713081 0
M  V30 4632 H 444.134 2.5718 -0.146973 0
M  V30 4633 H 444.092 2.72071 1.57558 0
M  V30 4634 N 447.864 1.01787 1.20321 0
M  V30 4635 C 448.794 0.609625 2.25401 0
M  V30 4636 C 449.775 -0.375951 1.65893 0
M  V30 4637 O 450.96 -0.261101 1.92437 0
M  V30 4638 C 448.09 -0.0515995 3.47262 0
M  V30 4639 C 447.044 0.855095 4.19371 0
M  V30 4640 C 446.37 0.0595757 5.34667 0
M  V30 4641 C 447.67 2.16374 4.75373 0
M  V30 4642 H 449.364 1.48803 2.59804 0
M  V30 4643 H 446.91 0.716934 1.24884 0
M  V30 4644 H 448.863 -0.348764 4.19954 0
M  V30 4645 H 447.587 -0.964726 3.12027 0
M  V30 4646 H 446.246 1.13628 3.48546 0
M  V30 4647 H 445.894 -0.85524 4.95676 0
M  V30 4648 H 445.594 0.663406 5.83843 0
M  V30 4649 H 447.118 -0.231105 6.10162 0
M  V30 4650 H 448.532 1.92885 5.39878 0
M  V30 4651 H 446.929 2.71853 5.34991 0
M  V30 4652 H 447.999 2.82589 3.94045 0
M  V30 4653 N 449.342 -1.36122 0.79427 0
M  V30 4654 C 450.59 -1.98718 0.368177 0
M  V30 4655 C 450.911 -1.63345 -1.06506 0
M  V30 4656 O 450.181 -0.909825 -1.73491 0
M  V30 4657 H 448.761 -0.735038 0.133146 0
M  V30 4658 H 451.423 -1.66239 1.01739 0
M  V30 4659 H 450.519 -3.08633 0.463923 0
M  V30 4660 N 450.82 -0.546701 -1.47814 0
M  V30 4661 C 452.048 -0.0232857 -2.06887 0
M  V30 4662 C 452.463 1.26571 -1.4009 0
M  V30 4663 O 451.82 1.7569 -0.493906 0
M  V30 4664 C 451.871 0.186975 -3.61016 0
M  V30 4665 O 451.592 -1.05097 -4.25307 0
M  V30 4666 C 453.093 0.748872 -4.36929 0
M  V30 4667 H 450.313 -0.0410763 -0.669742 0
M  V30 4668 H 452.857 -0.757117 -1.89968 0
M  V30 4669 H 451.012 0.870903 -3.77484 0
M  V30 4670 H 451.426 -0.842121 -5.17695 0
M  V30 4671 H 452.9 0.845334 -5.45489 0
M  V30 4672 H 453.377 1.75772 -4.02493 0
M  V30 4673 H 453.983 0.100979 -4.2518 0
M  V30 4674 N 452.299 1.55045 -0.282633 0
M  V30 4675 C 453.524 2.04628 0.337977 0
M  V30 4676 C 453.949 1.15937 1.48123 0
M  V30 4677 O 453.307 0.159532 1.80597 0
M  V30 4678 C 453.355 3.51854 0.78936 0
M  V30 4679 O 452.459 3.66236 1.89592 0
M  V30 4680 H 451.8 0.660434 0.0687261 0
M  V30 4681 H 454.33 2.00261 -0.419124 0
M  V30 4682 H 454.34 3.93361 1.08311 0
M  V30 4683 H 453.015 4.15873 -0.0470419 0
M  V30 4684 H 451.592 3.36633 1.60413 0
M  V30 4685 N 453.777 0.010035 1.57597 0
M  V30 4686 C 455.193 -0.346164 1.55801 0
M  V30 4687 C 455.393 -1.74144 1.01371 0
M  V30 4688 O 454.449 -2.43938 0.651968 0
M  V30 4689 C 455.762 -0.212216 2.9995 0
M  V30 4690 C 457.31 -0.286409 3.11687 0
M  V30 4691 C 457.785 -0.18147 4.5764 0
M  V30 4692 N 459.276 -0.239056 4.62583 0
M  V30 4693 C 460.011 -0.181351 5.73113 0
M  V30 4694 N 459.507 -0.073661 6.92761 0
M  V30 4695 N 461.3 -0.233949 5.61613 0
M  V30 4696 H 453.451 0.922657 1.91313 0
M  V30 4697 H 455.714 0.354595 0.879185 0
M  V30 4698 H 455.42 0.748169 3.4365 0
M  V30 4699 H 455.294 -0.990224 3.6397 0
M  V30 4700 H 457.681 -1.23724 2.67911 0
M  V30 4701 H 457.762 0.521645 2.50425 0
M  V30 4702 H 457.406 0.765863 5.02093 0
M  V30 4703 H 457.336 -1.00814 5.1686 0
M  V30 4704 H 459.827 -0.32321 3.76515 0
M  V30 4705 H 460.14 -0.0358003 7.72792 0
M  V30 4706 H 458.485 -0.0391461 6.94989 0
M  V30 4707 H 461.676 -0.316347 4.6703 0
M  V30 4708 H 461.849 -0.185514 6.47734 0
M  V30 4709 N 455.255 -1.55392 -0.262866 0
M  V30 4710 C 456.503 -1.76127 -0.991147 0
M  V30 4711 C 456.824 -0.571083 -1.8645 0
M  V30 4712 O 456.094 0.413698 -1.91482 0
M  V30 4713 H 454.674 -0.649528 -0.368948 0
M  V30 4714 H 457.336 -1.9281 -0.284655 0
M  V30 4715 H 456.432 -2.6663 -1.62219 0
M  V30 4716 N 456.733 0.527833 -1.48498 0
M  V30 4717 C 457.963 1.30633 -1.60058 0
M  V30 4718 C 458.371 1.87394 -0.260786 0
M  V30 4719 O 457.714 1.67227 0.760317 0
M  V30 4720 C 457.776 2.49361 -2.58958 0
M  V30 4721 C 457.44 2.13671 -4.03972 0
M  V30 4722 C 458.437 1.69217 -4.91591 0
M  V30 4723 C 456.122 2.24129 -4.49524 0
M  V30 4724 C 458.116 1.35689 -6.2279 0
M  V30 4725 C 455.803 1.90212 -5.80743 0
M  V30 4726 C 456.801 1.46063 -6.67199 0
M  V30 4727 O 456.489 1.12593 -7.95976 0
M  V30 4728 H 456.221 0.403444 -0.54241 0
M  V30 4729 H 458.775 0.643233 -1.95068 0
M  V30 4730 H 457.005 3.18659 -2.19073 0
M  V30 4731 H 458.694 3.11421 -2.6033 0
M  V30 4732 H 459.46 1.60607 -4.57636 0
M  V30 4733 H 455.339 2.57447 -3.82416 0
M  V30 4734 H 458.883 1.01157 -6.90227 0
M  V30 4735 H 454.78 1.98464 -6.14233 0
M  V30 4736 H 455.548 1.25972 -8.08748 0
M  V30 4737 N 458.211 1.37122 0.776871 0
M  V30 4738 C 459.436 1.354 1.57104 0
M  V30 4739 C 459.861 -0.0595562 1.88006 0
M  V30 4740 O 459.219 -1.03514 1.48844 0
M  V30 4741 C 459.267 2.19472 2.8612 0
M  V30 4742 O 458.371 1.59582 3.80273 0
M  V30 4743 H 457.712 0.462869 0.476076 0
M  V30 4744 H 460.242 1.80577 0.961932 0
M  V30 4745 H 460.252 2.32502 3.35271 0
M  V30 4746 H 458.927 3.22222 2.62956 0
M  V30 4747 H 457.504 1.55564 3.38902 0
M  V30 4748 N 459.689 -1.00246 1.21608 0
M  V30 4749 C 460.935 -1.74319 1.03638 0
M  V30 4750 C 461.268 -1.89408 -0.428749 0
M  V30 4751 O 460.543 -1.43026 -1.3181 0
M  V30 4752 C 460.826 -3.15431 1.73711 0
M  V30 4753 C 460.679 -3.08049 3.27759 0
M  V30 4754 C 461.998 -4.14407 1.48173 0
M  V30 4755 H 459.117 -0.632741 0.377899 0
M  V30 4756 H 461.759 -1.16853 1.49818 0
M  V30 4757 H 459.909 -3.64493 1.34452 0
M  V30 4758 H 461.581 -2.66681 3.76403 0
M  V30 4759 H 459.824 -2.45088 3.57931 0
M  V30 4760 H 460.495 -4.07862 3.71958 0
M  V30 4761 H 462.971 -3.74061 1.82258 0
M  V30 4762 H 461.847 -5.11279 1.99713 0
M  V30 4763 H 462.108 -4.40174 0.412273 0
M  V30 4764 N 461.167 -1.02423 -1.1978 0
M  V30 4765 C 462.583 -0.740459 -1.41384 0
M  V30 4766 C 462.783 0.676827 -1.89793 0
M  V30 4767 O 461.839 1.4435 -2.0717 0
M  V30 4768 C 463.152 -1.77264 -2.42895 0
M  V30 4769 C 464.7 -1.79165 -2.56649 0
M  V30 4770 C 465.175 -2.8133 -3.6141 0
M  V30 4771 N 466.666 -2.80118 -3.68901 0
M  V30 4772 C 467.401 -3.55824 -4.49641 0
M  V30 4773 N 466.897 -4.41231 -5.34123 0
M  V30 4774 N 468.69 -3.44387 -4.44246 0
M  V30 4775 H 460.841 -1.9391 -0.866764 0
M  V30 4776 H 463.104 -0.838074 -0.443098 0
M  V30 4777 H 462.81 -2.7884 -2.14339 0
M  V30 4778 H 462.684 -1.59108 -3.42001 0
M  V30 4779 H 465.071 -0.782702 -2.84531 0
M  V30 4780 H 465.152 -2.01396 -1.57713 0
M  V30 4781 H 464.796 -3.82394 -3.34271 0
M  V30 4782 H 464.726 -2.56359 -4.59986 0
M  V30 4783 H 467.217 -2.1817 -3.08562 0
M  V30 4784 H 467.53 -4.95747 -5.92836 0
M  V30 4785 H 465.875 -4.45306 -5.33599 0
M  V30 4786 H 469.066 -2.7708 -3.77285 0
M  V30 4787 H 469.239 -4.0364 -5.06931 0
M  V30 4788 N 462.645 1.35699 -0.801477 0
M  V30 4789 C 463.555 2.33661 -0.209691 0
M  V30 4790 C 464.571 1.6162 0.644591 0
M  V30 4791 O 465.747 1.93529 0.557545 0
M  V30 4792 C 462.812 3.40816 0.636033 0
M  V30 4793 C 461.873 4.28639 -0.238147 0
M  V30 4794 C 461.106 5.30676 0.567307 0
M  V30 4795 O 461.329 5.41174 1.8024 0
M  V30 4796 O 460.263 6.01887 -0.0391336 0
M  V30 4797 H 464.089 2.8606 -1.01996 0
M  V30 4798 H 461.674 1.38379 -0.563164 0
M  V30 4799 H 463.556 4.06301 1.11791 0
M  V30 4800 H 462.231 2.90696 1.42399 0
M  V30 4801 H 461.138 3.66152 -0.767044 0
M  V30 4802 H 462.471 4.82143 -0.989915 0
M  V30 4803 N 464.123 0.554532 1.47522 0
M  V30 4804 C 465.369 0.0295227 2.02779 0
M  V30 4805 C 465.702 -1.31582 1.42828 0
M  V30 4806 O 464.977 -1.85561 0.582872 0
M  V30 4807 C 465.26 -0.0664057 3.60039 0
M  V30 4808 C 465.113 1.30585 4.30427 0
M  V30 4809 C 466.432 -0.781162 4.33112 0
M  V30 4810 H 463.551 0.0122027 0.736899 0
M  V30 4811 H 466.193 0.716305 1.7598 0
M  V30 4812 H 464.343 -0.651307 3.83002 0
M  V30 4813 H 466.015 1.93374 4.18813 0
M  V30 4814 H 464.258 1.88125 3.90886 0
M  V30 4815 H 464.929 1.19147 5.38988 0
M  V30 4816 H 467.405 -0.284565 4.15126 0
M  V30 4817 H 466.281 -0.817237 5.42782 0
M  V30 4818 H 466.542 -1.83672 4.0214 0
M  V30 4819 N 465.601 -1.54893 0.290851 0
M  V30 4820 C 466.85 -1.99111 -0.322113 0
M  V30 4821 C 467.163 -1.18283 -1.55784 0
M  V30 4822 O 468.369 -1.5272 -2.24475 0
M  V30 4823 C 466.825 -3.54442 -0.624438 0
M  V30 4824 C 466.433 -4.44066 0.592373 0
M  V30 4825 C 468.177 -4.07211 -1.19916 0
M  V30 4826 C 466.084 -5.90812 0.263762 0
M  V30 4827 H 465.014 -0.743712 -0.124133 0
M  V30 4828 H 467.665 -1.79132 0.39797 0
M  V30 4829 H 466.047 -3.70281 -1.40384 0
M  V30 4830 H 467.221 -4.39999 1.36886 0
M  V30 4831 H 465.536 -4.02015 1.08502 0
M  V30 4832 H 468.133 -5.14407 -1.45909 0
M  V30 4833 H 468.476 -3.57196 -2.13815 0
M  V30 4834 H 469.009 -3.94873 -0.481687 0
M  V30 4835 H 465.748 -6.44955 1.17105 0
M  V30 4836 H 465.268 -5.97911 -0.475655 0
M  V30 4837 H 466.947 -6.46852 -0.138354 0
M  V30 4838 N 467.08 -0.0183926 -1.57589 0
M  V30 4839 C 467.99 0.982943 -2.13015 0
M  V30 4840 C 469.006 1.36443 -1.07979 0
M  V30 4841 O 470.182 1.44802 -1.3998 0
M  V30 4842 C 467.247 2.25024 -2.63752 0
M  V30 4843 C 466.308 1.93018 -3.83461 0
M  V30 4844 C 465.541 3.13706 -4.31769 0
M  V30 4845 O 465.764 4.2601 -3.79305 0
M  V30 4846 O 464.698 2.96629 -5.23732 0
M  V30 4847 H 468.524 0.541709 -2.9883 0
M  V30 4848 H 466.109 0.201565 -1.48034 0
M  V30 4849 H 467.991 2.99441 -2.96502 0
M  V30 4850 H 466.666 2.68349 -1.81026 0
M  V30 4851 H 465.573 1.16019 -3.55655 0
M  V30 4852 H 466.906 1.54516 -4.67317 0
M  V30 4853 N 468.558 1.5553 0.254621 0
M  V30 4854 C 469.804 1.77262 0.985193 0
M  V30 4855 C 470.137 0.582286 1.85265 0
M  V30 4856 O 469.412 -0.419666 1.89919 0
M  V30 4857 C 469.695 3.0881 1.85225 0
M  V30 4858 C 469.548 4.38233 1.0135 0
M  V30 4859 C 470.867 3.3653 2.83612 0
M  V30 4860 H 467.986 0.644906 0.356742 0
M  V30 4861 H 470.628 1.88264 0.256236 0
M  V30 4862 H 468.778 2.99562 2.47376 0
M  V30 4863 H 470.45 4.59463 0.411269 0
M  V30 4864 H 468.693 4.32636 0.317574 0
M  V30 4865 H 469.364 5.26644 1.65379 0
M  V30 4866 H 471.84 3.45691 2.31596 0
M  V30 4867 H 470.716 4.29805 3.41407 0
M  V30 4868 H 470.977 2.57064 3.59681 0
M  V30 4869 N 470.036 -0.519951 1.48776 0
M  V30 4870 C 470.999 -1.60574 1.6355 0
M  V30 4871 C 471.999 -1.52557 0.508234 0
M  V30 4872 O 473.189 -1.56047 0.774262 0
M  V30 4873 C 470.321 -3.00211 1.61512 0
M  V30 4874 H 471.514 -1.4881 2.60376 0
M  V30 4875 H 469.067 -0.742772 1.37523 0
M  V30 4876 H 469.802 -3.17471 0.662009 0
M  V30 4877 H 469.587 -3.07439 2.43359 0
M  V30 4878 H 471.077 -3.79134 1.75064 0
M  V30 4879 N 471.514 -1.37532 -0.769588 0
M  V30 4880 C 472.93 -1.18379 -1.07045 0
M  V30 4881 C 473.13 -0.0214312 -2.01489 0
M  V30 4882 O 472.186 0.637809 -2.44312 0
M  V30 4883 C 473.499 -2.50338 -1.66588 0
M  V30 4884 C 475.047 -2.56879 -1.78835 0
M  V30 4885 C 475.522 -3.88974 -2.41792 0
M  V30 4886 N 477.013 -3.90428 -2.4924 0
M  V30 4887 C 477.748 -4.89388 -2.98809 0
M  V30 4888 N 477.244 -5.98745 -3.48535 0
M  V30 4889 N 479.037 -4.76791 -2.97703 0
M  V30 4890 H 471.188 -2.11921 -0.142541 0
M  V30 4891 H 473.451 -0.939608 -0.125863 0
M  V30 4892 H 473.157 -3.35767 -1.0466 0
M  V30 4893 H 473.031 -2.67583 -2.65856 0
M  V30 4894 H 475.418 -1.71856 -2.39895 0
M  V30 4895 H 475.499 -2.43516 -0.783166 0
M  V30 4896 H 475.143 -4.74412 -1.81371 0
M  V30 4897 H 475.073 -3.99641 -3.4292 0
M  V30 4898 H 477.564 -3.11433 -2.14052 0
M  V30 4899 H 477.877 -6.70205 -3.84767 0
M  V30 4900 H 476.222 -6.02387 -3.46634 0
M  V30 4901 H 479.413 -3.90478 -2.58157 0
M  V30 4902 H 479.586 -5.54069 -3.36024 0
M  V30 4903 N 472.992 0.995999 -1.22138 0
M  V30 4904 C 473.939 2.08551 -0.988687 0
M  V30 4905 C 474.909 1.65864 0.0885021 0
M  V30 4906 O 476.094 1.90704 -0.0604589 0
M  V30 4907 C 473.234 3.40374 -0.569191 0
M  V30 4908 C 472.347 3.96421 -1.71681 0
M  V30 4909 C 471.482 5.1639 -1.2456 0
M  V30 4910 C 470.521 5.64567 -2.36497 0
M  V30 4911 N 469.658 6.75777 -1.90445 0
M  V30 4912 H 474.498 2.2779 -1.92135 0
M  V30 4913 H 472.035 1.1168 -0.957388 0
M  V30 4914 H 473.993 4.16068 -0.307166 0
M  V30 4915 H 472.623 3.21145 0.326462 0
M  V30 4916 H 471.675 3.17628 -2.09324 0
M  V30 4917 H 472.987 4.2816 -2.55891 0
M  V30 4918 H 472.141 5.99362 -0.940774 0
M  V30 4919 H 470.88 4.86266 -0.373662 0
M  V30 4920 H 469.885 4.80185 -2.67772 0
M  V30 4921 H 471.11 5.96716 -3.24202 0
M  V30 4922 H 469.056 6.47443 -1.05609 0
M  V30 4923 H 468.973 7.06818 -2.68223 0
M  V30 4924 H 470.241 7.62262 -1.63022 0
M  V30 4925 N 474.47 1.03057 1.19235 0
M  V30 4926 C 475.698 0.747697 1.92917 0
M  V30 4927 C 476.113 -0.69372 1.75593 0
M  V30 4928 O 475.47 -1.47191 1.07894 0
M  V30 4929 C 475.521 1.09159 3.44625 0
M  V30 4930 O 475.242 2.47641 3.61394 0
M  V30 4931 C 476.743 0.831763 4.35427 0
M  V30 4932 H 473.963 0.273453 0.612751 0
M  V30 4933 H 476.507 1.37552 1.51327 0
M  V30 4934 H 474.662 0.508919 3.84043 0
M  V30 4935 H 475.076 2.60499 4.55237 0
M  V30 4936 H 476.55 1.12233 5.4047 0
M  V30 4937 H 477.027 -0.233769 4.38577 0
M  V30 4938 H 477.633 1.39725 4.01693 0
M  V30 4939 N 475.948 -1.35272 0.808662 0
M  V30 4940 C 477.176 -2.02946 0.402537 0
M  V30 4941 C 477.591 -1.60937 -0.987147 0
M  V30 4942 O 476.948 -0.807917 -1.63643 0
M  V30 4943 C 476.999 -3.58317 0.47868 0
M  V30 4944 O 476.72 -3.98799 1.81358 0
M  V30 4945 C 478.221 -4.43251 0.0656281 0
M  V30 4946 H 475.441 -0.650831 0.163279 0
M  V30 4947 H 477.985 -1.72849 1.09286 0
M  V30 4948 H 476.14 -3.87055 -0.163415 0
M  V30 4949 H 476.554 -4.93451 1.77781 0
M  V30 4950 H 478.028 -5.51738 0.170017 0
M  V30 4951 H 478.505 -4.27913 -0.989278 0
M  V30 4952 H 479.111 -4.19813 0.68096 0
M  V30 4953 N 477.426 -0.562348 -1.47226 0
M  V30 4954 C 478.674 -0.0401371 -2.0206 0
M  V30 4955 C 478.995 1.3165 -1.43852 0
M  V30 4956 O 478.265 1.85976 -0.615599 0
M  V30 4957 H 476.845 -0.0118479 -0.746906 0
M  V30 4958 H 479.507 -0.73352 -1.8057 0
M  V30 4959 H 478.603 0.0441254 -3.12069 0
M  V30 4960 N 478.904 1.54736 -0.299062 0
M  V30 4961 C 479.854 2.20155 0.592932 0
M  V30 4962 C 480.838 1.1739 1.10038 0
M  V30 4963 O 482.03 1.43116 1.04147 0
M  V30 4964 C 479.159 2.94437 1.76527 0
M  V30 4965 C 478.245 4.04516 1.27388 0
M  V30 4966 N 478.636 5.03319 0.500339 0
M  V30 4967 C 476.934 4.18022 1.55478 0
M  V30 4968 C 477.635 5.81209 0.238909 0
M  V30 4969 N 476.611 5.37408 0.818163 0
M  V30 4970 H 480.413 2.93899 -0.00563596 0
M  V30 4971 H 477.927 1.62068 -0.103732 0
M  V30 4972 H 479.924 3.3977 2.41582 0
M  V30 4973 H 478.584 2.22209 2.36756 0
M  V30 4974 H 479.595 5.17696 0.145419 0
M  V30 4975 H 476.272 3.56998 2.16469 0
M  V30 4976 H 477.662 6.70812 -0.382223 0
M  V30 4977 N 480.382 0.0267497 1.57577 0
M  V30 4978 C 481.793 -0.512413 1.79531 0
M  V30 4979 C 482.144 -1.72391 0.936791 0
M  V30 4980 O 481.269 -2.15903 0.146543 0
M  V30 4981 C 481.864 -0.936378 3.25603 0
M  V30 4982 C 480.423 -1.42067 3.4856 0
M  V30 4983 C 479.57 -0.384278 2.74624 0
M  V30 4984 H 482.521 0.252797 1.56674 0
M  V30 4985 H 482.542 -1.80088 3.35184 0
M  V30 4986 H 482.054 -0.0544332 3.88062 0
M  V30 4987 H 480.155 -2.32262 2.9135 0
M  V30 4988 H 480.268 -1.42968 4.57271 0
M  V30 4989 H 478.632 -0.851855 2.40032 0
M  V30 4990 H 479.415 0.489159 3.39797 0
M  V30 4991 N 481.861 -1.55662 -0.24637 0
M  V30 4992 C 483.11 -1.7672 -0.972254 0
M  V30 4993 C 483.423 -0.59078 -1.86465 0
M  V30 4994 O 484.629 -0.684391 -2.62732 0
M  V30 4995 C 483.085 -3.12869 -1.7788 0
M  V30 4996 C 482.693 -4.38161 -0.933768 0
M  V30 4997 C 484.437 -3.43265 -2.49738 0
M  V30 4998 C 482.344 -5.6534 -1.73623 0
M  V30 4999 H 481.274 -0.658795 -0.366749 0
M  V30 5000 H 483.925 -1.82092 -0.226902 0
M  V30 5001 H 482.307 -3.01606 -2.56612 0
M  V30 5002 H 483.481 -4.60413 -0.188736 0
M  V30 5003 H 481.796 -4.15102 -0.328488 0
M  V30 5004 H 484.393 -4.35501 -3.10231 0
M  V30 5005 H 484.736 -2.64614 -3.2138 0
M  V30 5006 H 485.269 -3.55746 -1.78016 0
M  V30 5007 H 482.008 -6.46814 -1.06354 0
M  V30 5008 H 481.528 -5.47188 -2.45653 0
M  V30 5009 H 483.207 -6.04616 -2.30323 0
M  V30 5010 N 483.339 0.512053 -1.4905 0
M  V30 5011 C 484.75 1.09376 -1.51307 0
M  V30 5012 C 485.101 1.94 -0.292971 0
M  V30 5013 O 484.226 2.07965 0.598277 0
M  V30 5014 C 484.821 1.99031 -2.74176 0
M  V30 5015 C 483.38 2.52385 -2.79247 0
M  V30 5016 C 482.527 1.29749 -2.45073 0
M  V30 5017 H 485.478 0.296467 -1.55906 0
M  V30 5018 H 485.499 2.83569 -2.53711 0
M  V30 5019 H 485.011 1.37412 -3.62959 0
M  V30 5020 H 483.112 3.17673 -1.94716 0
M  V30 5021 H 483.225 2.90293 -3.81139 0
M  V30 5022 H 481.589 1.61912 -1.96612 0
M  V30 5023 H 482.372 0.698555 -3.36118 0
M  V30 5024 N 484.817 1.37938 0.762283 0
M  V30 5025 C 486.063 1.33866 1.52341 0
M  V30 5026 C 486.396 -0.0738961 1.94059 0
M  V30 5027 O 485.671 -1.03326 1.64785 0
M  V30 5028 C 485.954 2.28644 2.78197 0
M  V30 5029 C 485.807 3.78722 2.42672 0
M  V30 5030 C 487.126 2.21702 3.80179 0
M  V30 5031 H 484.245 0.487593 0.55265 0
M  V30 5032 H 486.887 1.68717 0.873767 0
M  V30 5033 H 485.037 1.99055 3.33631 0
M  V30 5034 H 486.709 4.18948 1.93081 0
M  V30 5035 H 484.952 3.96827 1.75244 0
M  V30 5036 H 485.623 4.40486 3.3268 0
M  V30 5037 H 488.099 2.47805 3.34263 0
M  V30 5038 H 486.975 2.90143 4.65949 0
M  V30 5039 H 487.236 1.21301 4.25133 0
M  V30 5040 N 486.295 -0.989507 1.22664 0
M  V30 5041 C 487.711 -1.25395 0.987331 0
M  V30 5042 C 487.911 -1.9899 -0.317056 0
M  V30 5043 O 486.967 -2.30141 -1.03882 0
M  V30 5044 C 488.28 -2.06242 2.18826 0
M  V30 5045 C 489.828 -2.19413 2.23219 0
M  V30 5046 C 490.303 -3.03648 3.42873 0
M  V30 5047 N 491.794 -3.11234 3.43056 0
M  V30 5048 C 492.529 -3.7671 4.32293 0
M  V30 5049 N 492.025 -4.44085 5.31752 0
M  V30 5050 N 493.818 -3.73505 4.2006 0
M  V30 5051 H 485.969 -0.496212 2.06522 0
M  V30 5052 H 488.232 -0.281784 0.905153 0
M  V30 5053 H 487.938 -1.59531 3.13437 0
M  V30 5054 H 487.812 -3.06996 2.19165 0
M  V30 5055 H 490.199 -2.65336 1.29154 0
M  V30 5056 H 490.28 -1.18078 2.26917 0
M  V30 5057 H 489.924 -2.58424 4.37241 0
M  V30 5058 H 489.854 -4.05132 3.36416 0
M  V30 5059 H 492.345 -2.63287 2.71088 0
M  V30 5060 H 492.658 -4.91797 5.96117 0
M  V30 5061 H 491.003 -4.42822 5.35662 0
M  V30 5062 H 494.194 -3.20033 3.41609 0
M  V30 5063 H 494.367 -4.24253 4.8981 0
M  V30 5064 N 487.773 -1.03688 -1.18687 0
M  V30 5065 C 488.683 -0.634908 -2.25845 0
M  V30 5066 C 489.699 0.337065 -1.70704 0
M  V30 5067 O 490.875 0.192943 -2.00474 0
M  V30 5068 C 487.94 -0.000180054 -3.467 0
M  V30 5069 C 487.001 -1.02067 -4.1699 0
M  V30 5070 C 486.234 -0.41614 -5.32075 0
M  V30 5071 O 486.457 0.778712 -5.65059 0
M  V30 5072 O 485.391 -1.14296 -5.90948 0
M  V30 5073 H 489.217 -1.52757 -2.62486 0
M  V30 5074 H 486.802 -0.807533 -1.25695 0
M  V30 5075 H 488.684 0.353342 -4.19916 0
M  V30 5076 H 487.359 0.866367 -3.11891 0
M  V30 5077 H 486.266 -1.42592 -3.45859 0
M  V30 5078 H 487.599 -1.85786 -4.5579 0
M  V30 5079 N 489.251 1.34841 -0.815825 0
M  V30 5080 C 490.491 2.00321 -0.406297 0
M  V30 5081 C 490.855 1.63293 1.00992 0
M  V30 5082 O 492.056 2.21563 1.52195 0
M  V30 5083 C 490.327 3.52421 -0.594469 0
M  V30 5084 S 491.886 4.37926 -0.276735 0
M  V30 5085 H 488.704 0.694155 -0.153848 0
M  V30 5086 H 491.306 1.64263 -1.06009 0
M  V30 5087 H 490.01 3.76858 -1.625 0
M  V30 5088 H 489.541 3.9333 0.0743157 0
M  V30 5089 H 491.556 4.87743 0.912215 0
M  V30 5090 N 490.729 0.570148 1.46925 0
M  V30 5091 C 491.977 0.0508523 2.02036 0
M  V30 5092 C 492.298 -1.30885 1.44548 0
M  V30 5093 O 491.568 -1.85647 0.625453 0
M  V30 5094 H 490.148 0.0158088 0.746833 0
M  V30 5095 H 492.81 0.743086 1.80178 0
M  V30 5096 H 491.906 -0.027575 3.12088 0
M  V30 5097 N 492.207 -1.54576 0.307264 0
M  V30 5098 C 493.623 -1.59534 -0.0459251 0
M  V30 5099 C 493.823 -1.32414 -1.51884 0
M  V30 5100 O 492.879 -1.1006 -2.27251 0
M  V30 5101 C 494.192 -2.98566 0.357649 0
M  V30 5102 C 495.74 -3.11491 0.306937 0
M  V30 5103 C 496.215 -4.52842 0.685427 0
M  V30 5104 N 497.706 -4.58782 0.638203 0
M  V30 5105 C 498.441 -5.66238 0.903458 0
M  V30 5106 N 497.937 -6.81703 1.23501 0
M  V30 5107 N 499.73 -5.55937 0.830102 0
M  V30 5108 H 491.881 -1.70464 1.26712 0
M  V30 5109 H 494.144 -0.79647 0.514139 0
M  V30 5110 H 493.85 -3.23356 1.38325 0
M  V30 5111 H 493.724 -3.76117 -0.285565 0
M  V30 5112 H 496.111 -2.86446 -0.709424 0
M  V30 5113 H 496.192 -2.36081 0.984861 0
M  V30 5114 H 495.836 -4.78618 1.69963 0
M  V30 5115 H 495.766 -5.26598 -0.0146346 0
M  V30 5116 H 498.257 -3.75849 0.393138 0
M  V30 5117 H 498.57 -7.59582 1.42322 0
M  V30 5118 H 496.915 -6.8324 1.27311 0
M  V30 5119 H 500.106 -4.64608 0.570693 0
M  V30 5120 H 500.279 -6.39597 1.04019 0
M  V30 5121 N 493.685 -0.035106 -1.57561 0
M  V30 5122 C 495.101 0.321334 -1.56332 0
M  V30 5123 C 495.301 1.72509 -1.04129 0
M  V30 5124 O 494.357 2.4287 -0.690694 0
M  V30 5125 C 495.67 0.164469 -3.0025 0
M  V30 5126 C 497.218 0.236786 -3.12103 0
M  V30 5127 C 497.693 0.10864 -4.57871 0
M  V30 5128 N 499.184 0.165433 -4.62904 0
M  V30 5129 C 499.919 0.0901506 -5.73329 0
M  V30 5130 N 499.415 -0.0365606 -6.9279 0
M  V30 5131 N 501.208 0.144572 -5.61914 0
M  V30 5132 H 493.359 -0.952976 -1.89821 0
M  V30 5133 H 495.622 -0.368537 -0.873432 0
M  V30 5134 H 495.328 -0.802746 -3.42416 0
M  V30 5135 H 495.202 0.932194 -3.655 0
M  V30 5136 H 497.589 1.19446 -2.69845 0
M  V30 5137 H 497.67 -0.561419 -2.49563 0
M  V30 5138 H 497.314 -0.845644 -5.00811 0
M  V30 5139 H 497.244 0.925786 -5.18398 0
M  V30 5140 H 499.735 0.263269 -3.76982 0
M  V30 5141 H 500.048 -0.0871487 -7.72751 0
M  V30 5142 H 498.393 -0.0714256 -6.94963 0
M  V30 5143 H 501.584 0.242006 -4.67474 0
M  V30 5144 H 501.757 0.0824413 -6.47948 0
M  V30 5145 N 495.163 1.55791 0.238111 0
M  V30 5146 C 496.073 1.94196 1.31625 0
M  V30 5147 C 497.089 0.843545 1.52185 0
M  V30 5148 O 498.265 1.1457 1.65637 0
M  V30 5149 C 495.33 2.2365 2.64918 0
M  V30 5150 C 494.391 3.46971 2.52804 0
M  V30 5151 C 493.624 3.7501 3.79741 0
M  V30 5152 O 493.847 3.04982 4.82019 0
M  V30 5153 O 492.781 4.68525 3.77846 0
M  V30 5154 H 496.607 2.86044 1.02043 0
M  V30 5155 H 494.192 1.42786 0.439603 0
M  V30 5156 H 496.074 2.43863 3.4367 0
M  V30 5157 H 494.749 1.34979 2.94215 0
M  V30 5158 H 493.656 3.32055 1.72309 0
M  V30 5159 H 494.989 4.35971 2.28451 0
M  V30 5160 N 496.642 -0.504142 1.49319 0
M  V30 5161 C 497.89 -1.25598 1.58334 0
M  V30 5162 C 498.211 -1.93114 0.270538 0
M  V30 5163 O 497.481 -1.82585 -0.709891 0
M  V30 5164 H 496.061 -0.466571 0.58337 0
M  V30 5165 H 498.723 -0.584547 1.85928 0
M  V30 5166 H 497.819 -2.02159 2.37778 0
M  V30 5167 N 498.12 -1.38341 -0.754957 0
M  V30 5168 C 499.397 -1.24995 -1.50451 0
M  V30 5169 C 499.777 0.149244 -2.10572 0
M  V30 5170 O 499.125 1.15861 -1.96948 0
M  V30 5171 C 499.335 -2.35904 -2.57197 0
M  V30 5172 C 500.683 -2.74262 -3.24138 0
M  V30 5173 O 501.707 -2.35205 -2.67501 0
M  V30 5174 O 500.566 -3.4161 -4.26574 0
M  V30 5175 H 497.66 -0.48872 -0.667144 0
M  V30 5176 H 500.206 -1.50165 -0.790486 0
M  V30 5177 H 498.978 -3.2953 -2.11011 0
M  V30 5178 H 498.601 -2.12291 -3.36182 0
M  V30 5179 N 499.598 0.982988 -1.23187 0
M  V30 5180 C 501.009 1.53847 -1.05773 0
M  V30 5181 C 501.36 1.92568 0.375744 0
M  V30 5182 O 500.485 1.75783 1.26211 0
M  V30 5183 C 501.08 2.79567 -1.91384 0
M  V30 5184 C 499.639 3.31524 -1.78238 0
M  V30 5185 C 498.786 2.04534 -1.87246 0
M  V30 5186 H 501.737 0.802962 -1.36888 0
M  V30 5187 H 501.758 3.52317 -1.43711 0
M  V30 5188 H 501.27 2.51353 -2.95708 0
M  V30 5189 H 499.371 3.64623 -0.766875 0
M  V30 5190 H 499.484 4.01457 -2.61475 0
M  V30 5191 H 497.848 2.1855 -1.30797 0
M  V30 5192 H 498.631 1.78706 -2.9312 0
M  V30 5193 N 501.076 1.04316 1.18135 0
M  V30 5194 C 502.039 0.640794 2.2006 0
M  V30 5195 C 503.039 -0.303124 1.57917 0
M  V30 5196 O 504.229 -0.0881855 1.73977 0
M  V30 5197 C 501.361 -0.060148 3.40847 0
M  V30 5198 H 502.554 1.54281 2.57172 0
M  V30 5199 H 500.107 0.836004 1.32063 0
M  V30 5200 H 500.842 -0.975845 3.0927 0
M  V30 5201 H 500.627 0.618319 3.87194 0
M  V30 5202 H 502.117 -0.328082 4.16309 0
M  V30 5203 N 502.554 -1.34406 0.822964 0
M  V30 5204 C 503.784 -2.02214 0.423424 0
M  V30 5205 C 504.192 -1.62124 -0.975322 0
M  V30 5206 O 503.535 -0.822452 -1.6426 0
M  V30 5207 C 503.597 -3.56721 0.446107 0
M  V30 5208 C 503.261 -4.20136 1.79819 0
M  V30 5209 C 504.258 -4.4065 2.75904 0
M  V30 5210 C 501.943 -4.56906 2.08669 0
M  V30 5211 C 503.937 -4.9706 3.99012 0
M  V30 5212 C 501.624 -5.13026 3.32036 0
M  V30 5213 C 502.622 -5.33047 4.27024 0
M  V30 5214 O 502.31 -5.87979 5.48211 0
M  V30 5215 H 502.042 -0.654748 0.168169 0
M  V30 5216 H 504.596 -1.72659 1.11257 0
M  V30 5217 H 502.826 -3.85537 -0.299734 0
M  V30 5218 H 504.515 -4.05845 0.0666114 0
M  V30 5219 H 505.281 -4.12607 2.54912 0
M  V30 5220 H 501.16 -4.40626 1.35535 0
M  V30 5221 H 504.704 -5.12603 4.73164 0
M  V30 5222 H 500.601 -5.40498 3.52891 0
M  V30 5223 H 501.369 -6.06413 5.49732 0
M  V30 5224 N 504.032 -0.577932 -1.46621 0
M  V30 5225 C 504.962 0.145917 -2.33044 0
M  V30 5226 C 505.943 0.888412 -1.45056 0
M  V30 5227 O 507.128 0.864812 -1.73881 0
M  V30 5228 C 504.258 1.16322 -3.27241 0
M  V30 5229 C 503.212 0.535868 -4.24632 0
M  V30 5230 C 502.538 1.65929 -5.08303 0
M  V30 5231 C 503.838 -0.523861 -5.19666 0
M  V30 5232 H 505.532 -0.575636 -2.93814 0
M  V30 5233 H 503.078 -0.278272 -1.41286 0
M  V30 5234 H 505.031 1.67793 -3.86553 0
M  V30 5235 H 503.755 1.91498 -2.64567 0
M  V30 5236 H 502.414 0.0422759 -3.66576 0
M  V30 5237 H 502.062 2.40061 -4.42018 0
M  V30 5238 H 501.762 1.2452 -5.74255 0
M  V30 5239 H 503.286 2.17686 -5.70478 0
M  V30 5240 H 504.7 -0.0944059 -5.73222 0
M  V30 5241 H 503.097 -0.858 -5.93935 0
M  V30 5242 H 504.167 -1.41197 -4.63887 0
M  V30 5243 N 505.51 1.54411 -0.315457 0
M  V30 5244 C 506.756 2.00716 0.289972 0
M  V30 5245 C 507.089 1.2034 1.5242 0
M  V30 5246 O 506.364 0.283579 1.92422 0
M  V30 5247 C 506.647 3.54507 0.632196 0
M  V30 5248 C 506.5 4.45615 -0.61218 0
M  V30 5249 C 507.819 4.15421 1.45305 0
M  V30 5250 H 504.938 0.729637 0.10392 0
M  V30 5251 H 507.58 1.8506 -0.430427 0
M  V30 5252 H 505.73 3.67979 1.24595 0
M  V30 5253 H 507.402 4.44026 -1.25053 0
M  V30 5254 H 505.645 4.15621 -1.24264 0
M  V30 5255 H 506.316 5.51022 -0.328379 0
M  V30 5256 H 508.792 4.05474 0.934331 0
M  V30 5257 H 507.668 5.23157 1.66127 0
M  V30 5258 H 507.929 3.68223 2.44671 0
M  V30 5259 N 506.988 0.0434614 1.5754 0
M  V30 5260 C 507.951 -0.918696 2.09982 0
M  V30 5261 C 508.951 -1.24488 1.01781 0
M  V30 5262 O 510.141 -1.18284 1.27885 0
M  V30 5263 C 507.273 -2.23093 2.57764 0
M  V30 5264 H 508.466 -0.464229 2.96285 0
M  V30 5265 H 506.019 -0.204818 1.54952 0
M  V30 5266 H 506.754 -2.73137 1.74832 0
M  V30 5267 H 506.539 -2.00724 3.36827 0
M  V30 5268 H 508.029 -2.92028 2.98512 0
M  V30 5269 N 508.466 -1.55915 -0.229846 0
M  V30 5270 C 509.429 -1.90914 -1.26824 0
M  V30 5271 C 510.429 -0.786999 -1.40225 0
M  V30 5272 O 511.619 -1.05484 -1.38632 0
M  V30 5273 C 508.751 -2.15264 -2.64337 0
M  V30 5274 H 509.944 -2.8378 -0.969998 0
M  V30 5275 H 507.497 -1.49069 -0.4699 0
M  V30 5276 H 508.232 -1.24923 -2.99274 0
M  V30 5277 H 508.017 -2.97005 -2.55989 0
M  V30 5278 H 509.507 -2.43467 -3.39284 0
M  V30 5279 N 509.944 0.496216 -1.49584 0
M  V30 5280 C 511.169 1.27865 -1.63295 0
M  V30 5281 C 511.594 1.85592 -0.306156 0
M  V30 5282 O 510.952 1.66092 0.726851 0
M  V30 5283 C 511 2.38128 -2.7079 0
M  V30 5284 O 510.104 3.42108 -2.30296 0
M  V30 5285 H 509.445 0.377279 -0.546403 0
M  V30 5286 H 511.975 0.593497 -1.95803 0
M  V30 5287 H 511.985 2.8382 -2.93104 0
M  V30 5288 H 510.66 1.95479 -3.67098 0
M  V30 5289 H 509.237 3.02301 -2.18331 0
M  V30 5290 N 511.423 1.38739 0.74761 0
M  V30 5291 C 512.7 1.25791 1.49786 0
M  V30 5292 C 513.08 -0.138075 2.10648 0
M  V30 5293 O 512.428 -1.14815 1.9756 0
M  V30 5294 C 512.638 2.37265 2.55942 0
M  V30 5295 C 513.986 2.75978 3.22679 0
M  V30 5296 O 515.01 2.36621 2.6625 0
M  V30 5297 O 513.869 3.43867 4.24756 0
M  V30 5298 H 510.963 0.492251 0.664543 0
M  V30 5299 H 513.509 1.50582 0.782511 0
M  V30 5300 H 512.281 3.30644 2.0926 0
M  V30 5301 H 511.904 2.14071 3.35051 0
M  V30 5302 N 512.901 -0.976442 1.23707 0
M  V30 5303 C 513.848 -2.06952 1.02174 0
M  V30 5304 C 514.818 -1.65984 -0.0621034 0
M  V30 5305 O 516.003 -1.90584 0.0907906 0
M  V30 5306 C 513.143 -3.39425 0.62327 0
M  V30 5307 C 512.256 -3.9364 1.77966 0
M  V30 5308 C 511.391 -5.14343 1.3276 0
M  V30 5309 C 510.43 -5.60733 2.45449 0
M  V30 5310 N 509.567 -6.72662 2.01172 0
M  V30 5311 H 514.407 -2.24704 1.95734 0
M  V30 5312 H 511.944 -1.10143 0.975034 0
M  V30 5313 H 513.902 -4.15526 0.37332 0
M  V30 5314 H 512.532 -3.21624 -0.275329 0
M  V30 5315 H 511.584 -3.14258 2.14351 0
M  V30 5316 H 512.896 -4.24035 2.62671 0
M  V30 5317 H 512.05 -5.97789 1.03601 0
M  V30 5318 H 510.789 -4.8561 0.450975 0
M  V30 5319 H 509.794 -4.75865 2.75378 0
M  V30 5320 H 511.019 -5.91483 3.33654 0
M  V30 5321 H 508.965 -6.45681 1.15895 0
M  V30 5322 H 508.882 -7.02462 2.79434 0
M  V30 5323 H 510.15 -7.59572 1.75129 0
M  V30 5324 N 514.379 -1.04941 -1.1758 0
M  V30 5325 C 515.342 -0.652456 -2.19717 0
M  V30 5326 C 516.342 0.294745 -1.58076 0
M  V30 5327 O 517.532 0.0789579 -1.74021 0
M  V30 5328 C 514.664 0.0420712 -3.40874 0
M  V30 5329 H 515.857 -1.55642 -2.5635 0
M  V30 5330 H 513.41 -0.842995 -1.31618 0
M  V30 5331 H 514.145 0.95943 -3.09783 0
M  V30 5332 H 513.93 -0.638844 -3.86861 0
M  V30 5333 H 515.42 0.306 -4.16477 0
M  V30 5334 N 515.857 1.33968 -0.830081 0
M  V30 5335 C 517.273 1.51003 -0.516742 0
M  V30 5336 C 517.473 1.77286 0.957694 0
M  V30 5337 O 516.529 1.82797 1.74188 0
M  V30 5338 C 517.842 2.67036 -1.38247 0
M  V30 5339 C 519.39 2.80919 -1.38034 0
M  V30 5340 C 519.865 4.00004 -2.23071 0
M  V30 5341 N 521.356 4.07224 -2.20733 0
M  V30 5342 C 522.091 4.98541 -2.83275 0
M  V30 5343 N 521.587 5.95033 -3.54835 0
M  V30 5344 N 523.38 4.91469 -2.72791 0
M  V30 5345 H 515.531 1.15168 -1.78466 0
M  V30 5346 H 517.794 0.565443 -0.760906 0
M  V30 5347 H 517.5 2.54266 -2.42985 0
M  V30 5348 H 517.374 3.62226 -1.05225 0
M  V30 5349 H 519.761 2.93127 -0.340713 0
M  V30 5350 H 519.842 1.86517 -1.75057 0
M  V30 5351 H 519.486 3.88557 -3.27087 0
M  V30 5352 H 519.416 4.93634 -1.83394 0
M  V30 5353 H 521.907 3.38162 -1.68687 0
M  V30 5354 H 522.22 6.61357 -3.99784 0
M  V30 5355 H 520.565 5.95135 -3.58942 0
M  V30 5356 H 523.756 4.15048 -2.16456 0
M  V30 5357 H 523.929 5.62439 -3.21818 0
M  V30 5358 N 517.335 0.585699 1.46312 0
M  V30 5359 C 518.245 -0.148236 2.34131 0
M  V30 5360 C 519.261 -0.882972 1.49932 0
M  V30 5361 O 520.437 -0.845484 1.82794 0
M  V30 5362 C 517.502 -1.14714 3.27172 0
M  V30 5363 C 516.563 -0.416746 4.27272 0
M  V30 5364 C 515.796 -1.36806 5.15868 0
M  V30 5365 O 516.019 -2.60475 5.07454 0
M  V30 5366 O 514.953 -0.877018 5.95476 0
M  V30 5367 H 518.779 0.572882 2.98248 0
M  V30 5368 H 516.364 0.346082 1.45336 0
M  V30 5369 H 518.246 -1.72303 3.84564 0
M  V30 5370 H 516.921 -1.84967 2.65648 0
M  V30 5371 H 515.828 0.201061 3.73559 0
M  V30 5372 H 517.161 0.244872 4.9159 0
M  V30 5373 N 518.813 -1.54241 0.323641 0
M  V30 5374 C 520.059 -2.00867 -0.279323 0
M  V30 5375 C 520.392 -1.21146 -1.5178 0
M  V30 5376 O 519.667 -0.29378 -1.92269 0
M  V30 5377 C 519.95 -3.54837 -0.613387 0
M  V30 5378 C 519.803 -4.45284 0.635803 0
M  V30 5379 C 521.122 -4.16186 -1.43099 0
M  V30 5380 H 518.241 -0.730177 -0.100049 0
M  V30 5381 H 520.883 -1.84829 0.440235 0
M  V30 5382 H 519.033 -3.68634 -1.22641 0
M  V30 5383 H 520.705 -4.43357 1.27406 0
M  V30 5384 H 518.948 -4.14956 1.26466 0
M  V30 5385 H 519.619 -5.5084 0.357597 0
M  V30 5386 H 522.095 -4.05964 -0.912814 0
M  V30 5387 H 520.971 -5.24031 -1.6335 0
M  V30 5388 H 521.232 -3.69516 -2.42715 0
M  V30 5389 N 520.291 -0.0518155 -1.57515 0
M  V30 5390 C 521.221 0.920283 -2.146 0
M  V30 5391 C 522.202 1.32406 -1.06783 0
M  V30 5392 O 523.387 1.39866 -1.34726 0
M  V30 5393 C 520.517 2.1949 -2.6915 0
M  V30 5394 C 519.471 1.93116 -3.81956 0
M  V30 5395 C 518.797 3.27037 -4.23026 0
M  V30 5396 C 520.097 1.25225 -5.07066 0
M  V30 5397 H 521.791 0.444801 -2.96077 0
M  V30 5398 H 519.337 0.212508 -1.42423 0
M  V30 5399 H 521.29 2.87894 -3.07725 0
M  V30 5400 H 520.014 2.69244 -1.84865 0
M  V30 5401 H 518.673 1.27123 -3.43854 0
M  V30 5402 H 518.321 3.74595 -3.3569 0
M  V30 5403 H 518.021 3.10189 -4.99056 0
M  V30 5404 H 519.545 3.96673 -4.64202 0
M  V30 5405 H 520.959 1.83666 -5.43083 0
M  V30 5406 H 519.356 1.18702 -5.88243 0
M  V30 5407 H 520.426 0.228382 -4.84362 0
M  V30 5408 N 521.769 1.56035 0.221574 0
M  V30 5409 C 523.017 1.78693 0.944102 0
M  V30 5410 C 523.338 0.620317 1.8487 0
M  V30 5411 O 522.608 -0.362784 1.92512 0
M  V30 5412 H 521.188 0.659082 0.351597 0
M  V30 5413 H 523.85 1.93497 0.233435 0
M  V30 5414 H 522.946 2.70837 1.55093 0
M  V30 5415 N 523.247 -0.488276 1.49845 0
M  V30 5416 C 524.493 -1.24065 1.61182 0
M  V30 5417 C 524.848 -1.9004 0.300435 0
M  V30 5418 O 524.141 -1.78341 -0.700365 0
M  V30 5419 C 524.335 -2.32152 2.71735 0
M  V30 5420 C 524.164 -1.76778 4.13497 0
M  V30 5421 C 522.934 -1.57513 4.80123 0
M  V30 5422 C 525.132 -1.27242 4.98311 0
M  V30 5423 N 523.114 -0.972015 6.06156 0
M  V30 5424 C 524.485 -0.791457 6.14928 0
M  V30 5425 C 526.54 -1.15934 4.84214 0
M  V30 5426 C 525.243 -0.208593 7.18997 0
M  V30 5427 C 527.269 -0.590436 5.88445 0
M  V30 5428 C 526.631 -0.119767 7.04298 0
M  V30 5429 H 522.73 -0.443487 0.644083 0
M  V30 5430 H 525.314 -0.545551 1.86901 0
M  V30 5431 H 523.485 -2.99108 2.47768 0
M  V30 5432 H 525.217 -2.99187 2.72523 0
M  V30 5433 H 521.972 -1.82247 4.37131 0
M  V30 5434 H 522.396 -0.689367 6.73481 0
M  V30 5435 H 527.038 -1.5092 3.94947 0
M  V30 5436 H 524.756 0.153501 8.07954 0
M  V30 5437 H 528.342 -0.505548 5.79599 0
M  V30 5438 H 527.222 0.313568 7.83573 0
M  V30 5439 N 524.725 -1.39134 -0.740242 0
M  V30 5440 C 525.672 -1.37434 -1.8542 0
M  V30 5441 C 526.642 -0.234822 -1.64432 0
M  V30 5442 O 527.827 -0.429125 -1.85912 0
M  V30 5443 C 524.967 -1.21844 -3.22875 0
M  V30 5444 C 524.08 -2.45296 -3.55603 0
M  V30 5445 C 523.215 -2.22334 -4.82432 0
M  V30 5446 C 522.254 -3.41488 -5.07988 0
M  V30 5447 N 521.391 -3.17877 -6.26018 0
M  V30 5448 H 526.231 -2.3266 -1.86207 0
M  V30 5449 H 523.768 -1.15578 -0.909946 0
M  V30 5450 H 525.726 -1.10818 -4.02213 0
M  V30 5451 H 524.356 -0.3025 -3.21379 0
M  V30 5452 H 523.408 -2.66945 -2.71006 0
M  V30 5453 H 524.72 -3.34063 -3.7041 0
M  V30 5454 H 523.874 -2.0852 -5.69741 0
M  V30 5455 H 522.613 -1.30954 -4.6979 0
M  V30 5456 H 521.618 -3.55807 -4.19144 0
M  V30 5457 H 522.843 -4.33763 -5.22519 0
M  V30 5458 H 520.789 -2.29156 -6.14673 0
M  V30 5459 H 520.706 -4.00198 -6.41387 0
M  V30 5460 H 521.974 -3.07746 -7.16179 0
M  V30 5461 N 526.204 0.969867 -1.24223 0
M  V30 5462 C 527.615 1.52717 -1.07399 0
M  V30 5463 C 527.966 1.92956 0.355298 0
M  V30 5464 O 527.091 1.77112 1.2434 0
M  V30 5465 C 527.686 2.77521 -1.94339 0
M  V30 5466 C 526.245 3.29615 -1.81744 0
M  V30 5467 C 525.392 2.02537 -1.89405 0
M  V30 5468 H 528.343 0.788399 -1.37732 0
M  V30 5469 H 528.364 3.50773 -1.47439 0
M  V30 5470 H 527.876 2.48203 -2.98357 0
M  V30 5471 H 525.977 3.63789 -0.805505 0
M  V30 5472 H 526.09 3.98661 -2.65718 0
M  V30 5473 H 524.454 2.17151 -1.33108 0
M  V30 5474 H 525.237 1.75587 -2.94999 0
M  V30 5475 N 527.682 1.05563 1.17022 0
M  V30 5476 C 528.629 0.659893 2.21165 0
M  V30 5477 C 529.599 -0.339813 1.62587 0
M  V30 5478 O 530.784 -0.230378 1.89404 0
M  V30 5479 C 527.924 0.0447297 3.45071 0
M  V30 5480 C 527.037 1.09372 4.17926 0
M  V30 5481 C 526.172 0.445481 5.29329 0
M  V30 5482 C 525.211 1.47852 5.93975 0
M  V30 5483 N 524.348 0.854172 6.96885 0
M  V30 5484 H 529.188 1.55243 2.54369 0
M  V30 5485 H 526.725 0.776336 1.24946 0
M  V30 5486 H 528.683 -0.329404 4.15898 0
M  V30 5487 H 527.313 -0.811244 3.1244 0
M  V30 5488 H 526.365 1.58564 3.45777 0
M  V30 5489 H 527.677 1.87773 4.62107 0
M  V30 5490 H 526.831 0.0179688 6.06697 0
M  V30 5491 H 525.57 -0.370481 4.86291 0
M  V30 5492 H 524.575 1.91601 5.15334 0
M  V30 5493 H 525.8 2.29645 6.39093 0
M  V30 5494 H 523.746 0.0587882 6.55974 0
M  V30 5495 H 523.663 1.57567 7.39397 0
M  V30 5496 H 524.931 0.451559 7.78191 0
M  V30 5497 N 529.16 -1.33526 0.837174 0
M  V30 5498 C 530.39 -2.01754 0.444848 0
M  V30 5499 C 530.798 -1.63149 -0.958072 0
M  V30 5500 O 530.141 -0.839827 -1.63379 0
M  V30 5501 C 530.203 -3.56228 0.483917 0
M  V30 5502 C 529.867 -4.18205 1.84265 0
M  V30 5503 C 530.864 -4.37699 2.80563 0
M  V30 5504 C 528.549 -4.54667 2.13503 0
M  V30 5505 C 530.543 -4.928 4.04261 0
M  V30 5506 C 528.23 -5.09475 3.37458 0
M  V30 5507 C 529.228 -5.28488 4.32654 0
M  V30 5508 O 528.916 -5.82132 5.54417 0
M  V30 5509 H 528.648 -0.652928 0.175104 0
M  V30 5510 H 531.202 -1.71469 1.13082 0
M  V30 5511 H 529.432 -3.85833 -0.258826 0
M  V30 5512 H 531.121 -4.05752 0.109653 0
M  V30 5513 H 531.887 -4.0988 2.59274 0
M  V30 5514 H 527.766 -4.39164 1.40201 0
M  V30 5515 H 531.31 -5.07555 4.78574 0
M  V30 5516 H 527.207 -5.36725 3.58604 0
M  V30 5517 H 527.975 -6.00548 5.56133 0
M  V30 5518 N 530.638 -0.59345 -1.46 0
M  V30 5519 C 531.915 -0.0157933 -1.95594 0
M  V30 5520 C 532.295 1.44807 -1.53604 0
M  V30 5521 O 531.643 2.14342 -0.791824 0
M  V30 5522 C 531.853 -0.199081 -3.48432 0
M  V30 5523 C 533.201 -0.0724943 -4.24538 0
M  V30 5524 O 534.225 -0.128469 -3.55968 0
M  V30 5525 O 533.084 0.0542426 -5.46473 0
M  V30 5526 H 530.178 0.043749 -0.825842 0
M  V30 5527 H 532.724 -0.662522 -1.56233 0
M  V30 5528 H 531.496 -1.21631 -3.71916 0
M  V30 5529 H 531.119 0.483576 -3.94648 0
M  V30 5530 N 532.116 1.54067 -0.331816 0
M  V30 5531 C 533.344 2.05131 0.269996 0
M  V30 5532 C 533.759 1.20749 1.45138 0
M  V30 5533 O 533.116 0.240069 1.80914 0
M  V30 5534 C 533.167 3.54728 0.696456 0
M  V30 5535 O 532.888 4.35906 -0.43794 0
M  V30 5536 C 534.389 4.21916 1.36021 0
M  V30 5537 H 531.609 0.668807 0.0542042 0
M  V30 5538 H 534.153 1.98777 -0.4804 0
M  V30 5539 H 532.308 3.61342 1.39681 0
M  V30 5540 H 532.722 5.24404 -0.100334 0
M  V30 5541 H 534.196 5.28015 1.60947 0
M  V30 5542 H 534.673 3.73538 2.31011 0
M  V30 5543 H 535.279 4.19463 0.702212 0
M  V30 5544 N 533.594 0.0601682 1.57485 0
M  V30 5545 C 534.524 -0.90889 2.15085 0
M  V30 5546 C 535.505 -1.31838 1.07484 0
M  V30 5547 O 536.69 -1.3915 1.35466 0
M  V30 5548 C 533.82 -2.18059 2.7031 0
M  V30 5549 C 532.774 -1.91088 3.82974 0
M  V30 5550 C 532.1 -3.24789 4.24754 0
M  V30 5551 C 533.4 -1.22535 5.07723 0
M  V30 5552 H 535.094 -0.429093 2.96309 0
M  V30 5553 H 532.64 -0.204952 1.42534 0
M  V30 5554 H 534.593 -2.86258 3.09248 0
M  V30 5555 H 533.317 -2.6826 1.8629 0
M  V30 5556 H 531.976 -1.25297 3.44523 0
M  V30 5557 H 531.624 -3.72809 3.37672 0
M  V30 5558 H 531.324 -3.07538 5.00694 0
M  V30 5559 H 532.848 -3.94205 4.66299 0
M  V30 5560 H 534.262 -1.80783 5.4405 0
M  V30 5561 H 532.659 -1.1558 5.88864 0
M  V30 5562 H 533.729 -0.202692 4.84476 0
M  V30 5563 N 535.072 -1.5615 -0.213296 0
M  V30 5564 C 535.982 -1.96265 -1.28519 0
M  V30 5565 C 536.998 -0.86765 -1.50824 0
M  V30 5566 O 538.174 -1.17191 -1.63793 0
M  V30 5567 C 535.239 -2.27836 -2.61327 0
M  V30 5568 C 534.3 -3.50949 -2.47252 0
M  V30 5569 C 533.533 -3.81004 -3.73727 0
M  V30 5570 O 533.756 -3.12612 -4.77106 0
M  V30 5571 O 532.69 -4.74477 -3.70344 0
M  V30 5572 H 536.516 -2.87631 -0.974795 0
M  V30 5573 H 534.101 -1.43467 -0.416832 0
M  V30 5574 H 535.983 -2.49299 -3.39747 0
M  V30 5575 H 534.658 -1.39643 -2.9203 0
M  V30 5576 H 533.565 -3.34754 -1.67004 0
M  V30 5577 H 534.898 -4.39551 -2.21486 0
M  V30 5578 N 536.55 0.480323 -1.50102 0
M  V30 5579 C 537.513 1.56181 -1.6775 0
M  V30 5580 C 538.513 1.51156 -0.548503 0
M  V30 5581 O 539.703 1.5394 -0.815363 0
M  V30 5582 C 536.835 2.95823 -1.69415 0
M  V30 5583 H 538.028 1.41855 -2.6423 0
M  V30 5584 H 535.581 0.70605 -1.39444 0
M  V30 5585 H 536.316 3.15604 -0.745948 0
M  V30 5586 H 536.101 3.00878 -2.51425 0
M  V30 5587 H 537.591 3.74359 -1.85054 0
M  V30 5588 N 538.028 1.39524 0.732853 0
M  V30 5589 C 539.277 1.36175 1.48792 0
M  V30 5590 C 539.59 -0.0388195 1.95561 0
M  V30 5591 O 540.796 -0.194899 2.708 0
M  V30 5592 C 539.252 2.39242 2.68871 0
M  V30 5593 C 538.86 3.85024 2.29042 0
M  V30 5594 C 540.604 2.44972 3.46683 0
M  V30 5595 C 538.511 4.79727 3.45856 0
M  V30 5596 H 537.441 0.506267 0.558757 0
M  V30 5597 H 540.092 1.65181 0.799226 0
M  V30 5598 H 538.474 2.0331 3.39825 0
M  V30 5599 H 539.648 4.30008 1.6562 0
M  V30 5600 H 537.963 3.82609 1.64316 0
M  V30 5601 H 540.56 3.12918 4.33574 0
M  V30 5602 H 540.903 1.4749 3.89297 0
M  V30 5603 H 541.436 2.79808 2.82759 0
M  V30 5604 H 538.175 5.78479 3.08289 0
M  V30 5605 H 537.695 4.39421 4.08251 0
M  V30 5606 H 539.374 4.98731 4.12161 0
M  V30 5607 N 539.506 -0.963266 1.24736 0
M  V30 5608 C 540.439 -2.05758 0.986852 0
M  V30 5609 C 541.417 -1.62398 -0.0809272 0
M  V30 5610 O 542.601 -1.88414 0.0569347 0
M  V30 5611 C 539.728 -3.35135 0.490095 0
M  V30 5612 C 538.774 -3.97451 1.54709 0
M  V30 5613 S 539.607 -4.34519 3.12976 0
M  V30 5614 C 540.763 -5.67026 2.65014 0
M  V30 5615 H 540.996 -2.27539 1.91346 0
M  V30 5616 H 538.529 -1.10176 1.08169 0
M  V30 5617 H 540.487 -4.09962 0.21012 0
M  V30 5618 H 539.148 -3.11335 -0.415873 0
M  V30 5619 H 538.341 -4.90704 1.15003 0
M  V30 5620 H 537.943 -3.29071 1.77731 0
M  V30 5621 H 540.235 -6.44748 2.08102 0
M  V30 5622 H 541.178 -6.11594 3.56873 0
M  V30 5623 H 541.586 -5.25847 2.05294 0
M  V30 5624 N 540.985 -1.06182 -1.16461 0
M  V30 5625 C 541.895 -0.682671 -2.24448 0
M  V30 5626 C 542.911 0.30078 -1.71381 0
M  V30 5627 O 544.087 0.150376 -2.00838 0
M  V30 5628 C 541.152 -0.0737202 -3.46622 0
M  V30 5629 C 540.213 -1.10889 -4.14731 0
M  V30 5630 C 539.446 -0.528908 -5.31073 0
M  V30 5631 O 539.669 0.65868 -5.66584 0
M  V30 5632 O 538.603 -1.26805 -5.88391 0
M  V30 5633 H 542.429 -1.58291 -2.59187 0
M  V30 5634 H 540.014 -0.834013 -1.23954 0
M  V30 5635 H 541.896 0.264192 -4.20571 0
M  V30 5636 H 540.571 0.800015 -3.13658 0
M  V30 5637 H 539.478 -1.49896 -3.42756 0
M  V30 5638 H 540.811 -1.95412 -4.51747 0
M  V30 5639 N 542.463 1.3308 -0.844243 0
M  V30 5640 C 543.691 2.01808 -0.456203 0
M  V30 5641 C 544.106 1.63498 0.944131 0
M  V30 5642 O 543.463 0.85102 1.61443 0
M  V30 5643 C 543.514 3.56922 -0.573513 0
M  V30 5644 O 543.235 3.93851 -1.91868 0
M  V30 5645 C 544.736 4.42922 -0.183125 0
M  V30 5646 H 541.956 0.646273 -0.180477 0
M  V30 5647 H 544.5 1.69891 -1.1383 0
M  V30 5648 H 542.655 3.87352 0.0607367 0
M  V30 5649 H 543.069 4.88564 -1.90802 0
M  V30 5650 H 544.543 5.51093 -0.316241 0
M  V30 5651 H 545.02 4.30386 0.875477 0
M  V30 5652 H 545.626 4.1786 -0.792027 0
M  V30 5653 N 543.941 0.601185 1.45683 0
M  V30 5654 C 545.166 0.0982245 2.07167 0
M  V30 5655 C 545.591 -1.20546 1.44396 0
M  V30 5656 O 544.949 -1.73247 0.534347 0
M  V30 5657 C 544.997 -0.0346976 3.60583 0
M  V30 5658 O 544.101 -1.08657 3.97828 0
M  V30 5659 H 543.442 0.0711618 0.660176 0
M  V30 5660 H 545.972 0.829376 1.87036 0
M  V30 5661 H 545.982 -0.234969 4.07323 0
M  V30 5662 H 544.657 0.917265 4.05659 0
M  V30 5663 H 543.234 -0.863275 3.6277 0
M  V30 5664 N 545.419 -1.53889 0.339982 0
M  V30 5665 C 546.665 -2.01849 -0.250694 0
M  V30 5666 C 547.02 -1.22356 -1.48482 0
M  V30 5667 O 546.313 -0.301906 -1.89206 0
M  V30 5668 C 546.507 -3.51968 -0.620735 0
M  V30 5669 C 546.336 -4.45996 0.575981 0
M  V30 5670 C 545.106 -4.93619 1.08019 0
M  V30 5671 C 547.304 -4.93923 1.43332 0
M  V30 5672 N 545.286 -5.7159 2.2396 0
M  V30 5673 C 546.657 -5.69982 2.43969 0
M  V30 5674 C 548.712 -4.76038 1.45918 0
M  V30 5675 C 547.415 -6.30057 3.47016 0
M  V30 5676 C 549.441 -5.36961 2.47845 0
M  V30 5677 C 548.803 -6.12884 3.47208 0
M  V30 5678 H 544.902 -0.780054 -0.0551368 0
M  V30 5679 H 547.486 -1.88722 0.478741 0
M  V30 5680 H 545.657 -3.65308 -1.31928 0
M  V30 5681 H 547.389 -3.86677 -1.19429 0
M  V30 5682 H 544.144 -4.69134 0.64884 0
M  V30 5683 H 544.568 -6.15247 2.82489 0
M  V30 5684 H 549.21 -4.16887 0.704608 0
M  V30 5685 H 546.928 -6.88319 4.23371 0
M  V30 5686 H 550.514 -5.2503 2.50668 0
M  V30 5687 H 549.394 -6.59187 4.24785 0
M  V30 5688 N 546.897 -0.0685191 -1.57451 0
M  V30 5689 C 547.844 0.899861 -2.12535 0
M  V30 5690 C 548.814 1.29749 -1.03703 0
M  V30 5691 O 549.999 1.38392 -1.31348 0
M  V30 5692 C 547.139 2.16328 -2.6888 0
M  V30 5693 C 546.252 1.81857 -3.91857 0
M  V30 5694 C 545.387 3.02786 -4.36457 0
M  V30 5695 C 544.426 2.64317 -5.5209 0
M  V30 5696 N 543.563 3.77994 -5.91663 0
M  V30 5697 H 548.403 0.423243 -2.94979 0
M  V30 5698 H 545.94 0.197268 -1.45771 0
M  V30 5699 H 547.898 2.90281 -2.99655 0
M  V30 5700 H 546.528 2.61536 -1.89206 0
M  V30 5701 H 545.58 0.979808 -3.67565 0
M  V30 5702 H 546.892 1.49553 -4.75852 0
M  V30 5703 H 546.046 3.85021 -4.68875 0
M  V30 5704 H 544.785 3.38281 -3.51308 0
M  V30 5705 H 543.79 1.80503 -5.19325 0
M  V30 5706 H 545.015 2.29995 -6.38967 0
M  V30 5707 H 542.961 4.13258 -5.09464 0
M  V30 5708 H 542.878 3.49447 -6.7039 0
M  V30 5709 H 544.146 4.60818 -6.28703 0
M  V30 5710 N 548.375 1.56261 0.205012 0
M  V30 5711 C 549.622 1.8004 0.926927 0
M  V30 5712 C 549.95 0.640086 1.83666 0
M  V30 5713 O 549.205 -0.374702 1.92079 0
M  V30 5714 C 549.504 3.09722 1.78345 0
M  V30 5715 C 549.17 4.39082 1.02555 0
M  V30 5716 C 547.832 4.74226 0.816256 0
M  V30 5717 C 550.184 5.18877 0.491559 0
M  V30 5718 C 547.512 5.86668 0.0613287 0
M  V30 5719 C 549.864 6.32105 -0.250107 0
M  V30 5720 C 548.528 6.6584 -0.470508 0
M  V30 5721 H 547.798 0.658812 0.339187 0
M  V30 5722 H 550.445 1.90515 0.19395 0
M  V30 5723 H 548.75 2.9444 2.5848 0
M  V30 5724 H 550.447 3.25324 2.34446 0
M  V30 5725 H 547.037 4.11497 1.19868 0
M  V30 5726 H 551.221 4.92147 0.640684 0
M  V30 5727 H 546.477 6.11283 -0.119501 0
M  V30 5728 H 550.651 6.93157 -0.671307 0
M  V30 5729 H 548.278 7.5281 -1.05739 0
M  V30 5730 N 549.853 -0.472356 1.50355 0
M  V30 5731 C 550.785 -1.58795 1.65278 0
M  V30 5732 C 551.798 -1.53782 0.534313 0
M  V30 5733 O 552.987 -1.59193 0.807446 0
M  V30 5734 C 550.087 -2.97672 1.62001 0
M  V30 5735 C 549.26 -3.27568 2.89859 0
M  V30 5736 C 548.319 -4.45993 2.79242 0
M  V30 5737 O 547.345 -4.46364 3.53197 0
M  V30 5738 N 548.547 -5.47578 1.92713 0
M  V30 5739 H 551.312 -1.46411 2.61503 0
M  V30 5740 H 548.873 -0.660751 1.47803 0
M  V30 5741 H 550.865 -3.74862 1.52513 0
M  V30 5742 H 549.435 -3.03832 0.735159 0
M  V30 5743 H 548.655 -2.39003 3.13483 0
M  V30 5744 H 549.943 -3.44352 3.74565 0
M  V30 5745 H 549.341 -5.50099 1.31939 0
M  V30 5746 H 547.898 -6.23757 1.8913 0
M  V30 5747 N 551.331 -1.39911 -0.725443 0
M  V30 5748 C 552.747 -1.21725 -1.03224 0
M  V30 5749 C 552.947 -0.0855224 -2.01318 0
M  V30 5750 O 552.003 0.55976 -2.46217 0
M  V30 5751 C 553.316 -2.55511 -1.58539 0
M  V30 5752 C 554.864 -2.62439 -1.70572 0
M  V30 5753 C 555.339 -3.9647 -2.29294 0
M  V30 5754 N 556.83 -3.98159 -2.36692 0
M  V30 5755 C 557.565 -4.98647 -2.83088 0
M  V30 5756 N 557.061 -6.0953 -3.2931 0
M  V30 5757 N 558.854 -4.8602 -2.82384 0
M  V30 5758 H 551.005 -2.12267 -0.075048 0
M  V30 5759 H 553.268 -0.943136 -0.0959066 0
M  V30 5760 H 552.974 -3.38926 -0.939249 0
M  V30 5761 H 552.848 -2.75905 -2.57208 0
M  V30 5762 H 555.235 -1.79401 -2.34306 0
M  V30 5763 H 555.316 -2.45885 -0.705297 0
M  V30 5764 H 554.96 -4.79942 -1.66186 0
M  V30 5765 H 554.89 -4.10349 -3.30032 0
M  V30 5766 H 557.381 -3.18085 -2.04035 0
M  V30 5767 H 557.694 -6.82106 -3.6325 0
M  V30 5768 H 556.039 -6.1311 -3.27294 0
M  V30 5769 H 559.23 -3.98493 -2.45603 0
M  V30 5770 H 559.403 -5.64478 -3.18226 0
M  V30 5771 N 552.809 0.956637 -1.25245 0
M  V30 5772 C 554.037 1.73571 -1.12608 0
M  V30 5773 C 554.452 1.86063 0.320324 0
M  V30 5774 O 553.809 1.35691 1.22042 0
M  V30 5775 C 553.86 3.15053 -1.77268 0
M  V30 5776 O 553.581 3.03174 -3.16255 0
M  V30 5777 C 555.082 4.09248 -1.70386 0
M  V30 5778 H 552.302 0.543955 -0.392879 0
M  V30 5779 H 554.846 1.20031 -1.65568 0
M  V30 5780 H 553.001 3.65543 -1.28284 0
M  V30 5781 H 553.415 3.9241 -3.48015 0
M  V30 5782 H 554.889 5.06138 -2.20291 0
M  V30 5783 H 555.366 4.34102 -0.667239 0
M  V30 5784 H 555.972 3.64672 -2.18849 0
M  V30 5785 N 554.287 1.06798 1.15896 0
M  V30 5786 C 555.237 0.653213 2.18443 0
M  V30 5787 C 556.221 -0.318763 1.57711 0
M  V30 5788 O 557.413 -0.133388 1.76497 0
M  V30 5789 C 554.542 0.0465785 3.43268 0
M  V30 5790 C 553.628 1.04336 4.11066 0
M  V30 5791 N 554.019 2.22084 4.54436 0
M  V30 5792 C 552.317 0.875433 4.37324 0
M  V30 5793 C 553.018 2.85276 5.06944 0
M  V30 5794 N 551.994 2.12973 5.00143 0
M  V30 5795 H 555.796 1.55011 2.49698 0
M  V30 5796 H 553.31 0.940384 1.32403 0
M  V30 5797 H 555.307 -0.26843 4.16035 0
M  V30 5798 H 553.967 -0.845504 3.13499 0
M  V30 5799 H 554.978 2.59833 4.48004 0
M  V30 5800 H 551.655 0.0357721 4.17485 0
M  V30 5801 H 553.045 3.85223 5.50503 0
M  V30 5802 N 555.766 -1.3263 0.851289 0
M  V30 5803 C 557.177 -1.79653 0.5081 0
M  V30 5804 C 557.528 -1.70327 -0.973815 0
M  V30 5805 O 556.653 -1.25986 -1.75944 0
M  V30 5806 C 557.248 -3.26196 0.915515 0
M  V30 5807 C 555.807 -3.71187 0.624277 0
M  V30 5808 C 554.954 -2.53804 1.11709 0
M  V30 5809 H 557.905 -1.19976 1.03882 0
M  V30 5810 H 557.926 -3.79801 0.230535 0
M  V30 5811 H 557.438 -3.32952 1.99411 0
M  V30 5812 H 555.539 -3.69948 -0.443737 0
M  V30 5813 H 555.652 -4.64132 1.18821 0
M  V30 5814 H 554.016 -2.48964 0.537484 0
M  V30 5815 H 554.799 -2.63315 2.20272 0
M  V30 5816 N 557.244 -0.608902 -1.45362 0
M  V30 5817 C 558.192 0.121639 -2.32282 0
M  V30 5818 C 559.186 0.858301 -1.46046 0
M  V30 5819 O 560.392 0.773718 -1.62523 0
M  V30 5820 H 556.767 0.058086 -0.749753 0
M  V30 5821 H 558.738 -0.629866 -2.91677 0
M  V30 5822 C 557.487 1.1047 -3.29684 0
M  V30 5823 H 556.81 0.547278 -3.96036 0
M  V30 5824 H 558.25 1.58576 -3.9323 0
M  V30 5825 C 556.709 2.17891 -2.56954 0
M  V30 5826 O 557.239 3.25652 -2.35189 0
M  V30 5827 N 555.445 1.93211 -2.17066 0
M  V30 5828 H 554.992 1.05584 -2.34967 0
M  V30 5829 H 554.95 2.6529 -1.68727 0
M  V30 5830 N 558.722 1.53707 -0.348139 0
M  V30 5831 C 559.97 2.00591 0.246478 0
M  V30 5832 C 560.291 1.23753 1.50699 0
M  V30 5833 O 559.561 0.345964 1.92821 0
M  V30 5834 H 558.141 0.741053 0.0940679 0
M  V30 5835 H 560.803 1.89139 -0.470354 0
M  V30 5836 H 559.899 3.08297 0.485714 0
M  V30 5837 N 560.2 0.0768682 1.57412 0
M  V30 5838 C 561.43 -0.5991 1.97723 0
M  V30 5839 C 561.838 -1.63378 0.954166 0
M  V30 5840 O 561.181 -1.83578 -0.0668706 0
M  V30 5841 C 561.243 -1.32078 3.34358 0
M  V30 5842 C 560.907 -0.438985 4.54887 0
M  V30 5843 C 561.904 0.305492 5.19002 0
M  V30 5844 C 559.589 -0.362378 5.00991 0
M  V30 5845 C 561.583 1.11475 6.27576 0
M  V30 5846 C 559.27 0.450543 6.09437 0
M  V30 5847 C 560.268 1.18777 6.72593 0
M  V30 5848 O 559.956 1.98727 7.7895 0
M  V30 5849 H 559.688 -0.166725 0.655117 0
M  V30 5850 H 562.242 0.147337 2.04871 0
M  V30 5851 H 560.472 -2.1134 3.2384 0
M  V30 5852 H 562.161 -1.88949 3.5924 0
M  V30 5853 H 562.927 0.25593 4.84324 0
M  V30 5854 H 558.806 -0.925832 4.51608 0
M  V30 5855 H 562.35 1.69068 6.76803 0
M  V30 5856 H 558.247 0.501651 6.43548 0
M  V30 5857 H 559.015 1.91214 7.95851 0
M  V30 5858 N 561.678 -1.56367 -0.196722 0
M  V30 5859 C 562.641 -1.93561 -1.22746 0
M  V30 5860 C 563.641 -0.816566 -1.38524 0
M  V30 5861 O 564.831 -1.084 -1.36363 0
M  V30 5862 C 561.963 -2.20823 -2.59712 0
M  V30 5863 H 563.156 -2.85774 -0.909586 0
M  V30 5864 H 560.709 -1.50032 -0.438174 0
M  V30 5865 H 561.444 -1.31243 -2.96557 0
M  V30 5866 H 561.229 -3.02368 -2.49632 0
M  V30 5867 H 562.719 -2.50608 -3.34044 0
M  V30 5868 N 563.156 0.464375 -1.50603 0
M  V30 5869 C 564.381 1.24372 -1.65971 0
M  V30 5870 C 564.806 1.84901 -0.345453 0
M  V30 5871 O 564.164 1.67596 0.691457 0
M  V30 5872 C 564.212 2.32331 -2.7578 0
M  V30 5873 O 563.316 3.37146 -2.375 0
M  V30 5874 H 562.657 0.365604 -0.554283 0
M  V30 5875 H 565.187 0.55183 -1.97018 0
M  V30 5876 H 565.197 2.77539 -2.99059 0
M  V30 5877 H 563.872 1.87648 -3.71162 0
M  V30 5878 H 562.449 2.97602 -2.24694 0
M  V30 5879 N 564.634 1.40294 0.718013 0
M  V30 5880 C 565.566 1.36281 1.84283 0
M  V30 5881 C 566.579 0.268621 1.60569 0
M  V30 5882 O 567.768 0.528798 1.70487 0
M  V30 5883 C 564.868 1.09741 3.2064 0
M  V30 5884 C 564.041 2.30767 3.71571 0
M  V30 5885 C 563.1 2.00424 4.86535 0
M  V30 5886 O 562.126 2.73268 4.99313 0
M  V30 5887 N 563.328 0.980724 5.72156 0
M  V30 5888 H 566.093 2.3322 1.88225 0
M  V30 5889 H 563.654 1.34616 0.899453 0
M  V30 5890 H 565.646 0.874322 3.95143 0
M  V30 5891 H 564.216 0.214771 3.11861 0
M  V30 5892 H 563.436 2.68921 2.88228 0
M  V30 5893 H 564.724 3.11455 4.02335 0
M  V30 5894 H 564.122 0.377375 5.6444 0
M  V30 5895 H 562.679 0.817538 6.46653 0
M  V30 5896 N 566.112 -0.949982 1.2575 0
M  V30 5897 C 567.022 -2.08109 1.08295 0
M  V30 5898 C 568.038 -1.7399 0.0188181 0
M  V30 5899 O 569.214 -2.00187 0.220724 0
M  V30 5900 C 566.279 -3.39383 0.708534 0
M  V30 5901 C 565.34 -3.8734 1.85111 0
M  V30 5902 C 564.573 -5.12349 1.49447 0
M  V30 5903 O 564.796 -5.6905 0.392212 0
M  V30 5904 O 563.73 -5.5513 2.32624 0
M  V30 5905 H 567.556 -2.25738 2.03165 0
M  V30 5906 H 565.141 -1.06545 1.04731 0
M  V30 5907 H 567.023 -4.18277 0.512061 0
M  V30 5908 H 565.698 -3.23013 -0.210854 0
M  V30 5909 H 564.605 -3.09429 2.10248 0
M  V30 5910 H 565.938 -4.08216 2.74991 0
M  V30 5911 N 567.59 -1.07411 -1.15328 0
M  V30 5912 C 568.538 -0.689316 -2.22151 0
M  V30 5913 C 569.532 0.300156 -1.6672 0
M  V30 5914 O 570.738 0.163804 -1.79253 0
M  V30 5915 H 567.113 -0.204834 -0.723566 0
M  V30 5916 H 569.084 -1.59988 -2.51886 0
M  V30 5917 C 567.833 -0.103848 -3.47545 0
M  V30 5918 H 567.156 -0.856367 -3.90521 0
M  V30 5919 H 568.596 0.127725 -4.23808 0
M  V30 5920 C 567.055 1.15563 -3.1646 0
M  V30 5921 O 567.585 2.242 -3.33312 0
M  V30 5922 N 565.791 1.06203 -2.70498 0
M  V30 5923 H 565.338 0.177933 -2.56985 0
M  V30 5924 H 565.296 1.90553 -2.50074 0
M  V30 5925 N 569.068 1.32177 -0.85831 0
M  V30 5926 C 570.316 1.96735 -0.462568 0
M  V30 5927 C 570.637 1.6824 0.985911 0
M  V30 5928 O 569.907 0.991564 1.68952 0
M  V30 5929 H 568.487 0.727849 -0.168064 0
M  V30 5930 H 571.149 1.61195 -1.09554 0
M  V30 5931 H 570.245 3.06068 -0.610647 0
M  V30 5932 N 570.547 0.616602 1.45037 0
M  V30 5933 C 571.775 0.121968 2.0654 0
M  V30 5934 C 572.19 -1.19743 1.45969 0
M  V30 5935 O 571.547 -1.73133 0.577168 0
M  V30 5936 C 571.598 -0.0145171 3.61497 0
M  V30 5937 O 571.319 1.25269 4.19809 0
M  V30 5938 C 572.82 -0.539555 4.40004 0
M  V30 5939 H 570.04 0.0729837 0.667019 0
M  V30 5940 H 572.584 0.846891 1.8614 0
M  V30 5941 H 570.739 -0.689809 3.81209 0
M  V30 5942 H 571.153 1.08816 5.13088 0
M  V30 5943 H 572.627 -0.584112 5.48901 0
M  V30 5944 H 573.104 -1.56368 4.10421 0
M  V30 5945 H 573.71 0.101995 4.25178 0
M  V30 5946 N 572.025 -1.5352 0.356285 0
M  V30 5947 C 573.436 -1.86282 -0.12492 0
M  V30 5948 C 573.787 -1.27717 -1.48939 0
M  V30 5949 O 572.912 -0.595614 -2.08042 0
M  V30 5950 C 573.507 -3.37995 -0.23345 0
M  V30 5951 C 572.066 -3.70588 -0.658899 0
M  V30 5952 C 571.213 -2.76581 0.199596 0
M  V30 5953 H 574.164 -1.47901 0.575423 0
M  V30 5954 H 574.185 -3.65475 -1.0587 0
M  V30 5955 H 573.697 -3.8059 0.759776 0
M  V30 5956 H 571.798 -3.33544 -1.66069 0
M  V30 5957 H 571.911 -4.77076 -0.439957 0
M  V30 5958 H 570.275 -2.52552 -0.330076 0
M  V30 5959 H 571.058 -3.22008 1.19019 0
M  V30 5960 N 573.503 -0.0852151 -1.57369 0
M  V30 5961 C 574.751 0.579658 -1.93609 0
M  V30 5962 C 575.072 1.69332 -0.967043 0
M  V30 5963 O 574.342 1.95892 -0.0174215 0
M  V30 5964 H 572.922 0.217113 -0.714752 0
M  V30 5965 H 575.584 -0.146226 -1.94351 0
M  V30 5966 H 574.68 0.996276 -2.95771 0
M  V30 5967 N 574.981 1.5647 0.188427 0
M  V30 5968 C 576.229 1.80655 0.905986 0
M  V30 5969 C 576.55 0.659391 1.83513 0
M  V30 5970 O 575.82 -0.321868 1.93238 0
M  V30 5971 H 574.4 0.666391 0.337538 0
M  V30 5972 H 577.062 1.93949 0.192339 0
M  V30 5973 H 576.158 2.74066 1.49313 0
M  V30 5974 N 576.459 -0.456382 1.50847 0
M  V30 5975 C 577.875 -0.791345 1.386 0
M  V30 5976 C 578.075 -1.9633 0.453498 0
M  V30 5977 O 577.131 -2.52308 -0.0984353 0
M  V30 5978 C 578.444 -1.08959 2.80265 0
M  V30 5979 C 579.992 -1.19517 2.89283 0
M  V30 5980 C 580.467 -1.52647 4.31814 0
M  V30 5981 N 581.958 -1.59609 4.34832 0
M  V30 5982 C 582.693 -1.86777 5.42127 0
M  V30 5983 N 582.189 -2.11866 6.59609 0
M  V30 5984 N 583.982 -1.88402 5.29586 0
M  V30 5985 H 576.133 0.315746 2.1004 0
M  V30 5986 H 578.396 0.0787916 0.94472 0
M  V30 5987 H 578.102 -0.301355 3.50407 0
M  V30 5988 H 577.976 -2.02211 3.18419 0
M  V30 5989 H 580.363 -1.97406 2.19351 0
M  V30 5990 H 580.444 -0.242111 2.54652 0
M  V30 5991 H 580.088 -0.752922 5.02288 0
M  V30 5992 H 580.018 -2.49127 4.63943 0
M  V30 5993 H 582.509 -1.42201 3.50125 0
M  V30 5994 H 582.822 -2.31912 7.37182 0
M  V30 5995 H 581.167 -2.09228 6.62758 0
M  V30 5996 H 584.358 -1.68307 4.36795 0
M  V30 5997 H 584.531 -2.09238 6.13289 0
M  V30 5998 N 577.937 -1.40673 -0.710563 0
M  V30 5999 C 579.165 -1.42547 -1.4996 0
M  V30 6000 C 579.58 -0.0265485 -1.88781 0
M  V30 6001 O 578.937 0.950694 -1.55782 0
M  V30 6002 C 578.988 -2.32071 -2.77173 0
M  V30 6003 O 578.709 -3.66518 -2.39992 0
M  V30 6004 C 580.21 -2.42591 -3.71032 0
M  V30 6005 H 577.43 -0.486025 -0.462623 0
M  V30 6006 H 579.974 -1.84783 -0.876102 0
M  V30 6007 H 578.129 -1.93184 -3.35795 0
M  V30 6008 H 578.543 -4.14115 -3.21884 0
M  V30 6009 H 580.017 -3.09429 -4.57119 0
M  V30 6010 H 580.494 -1.4525 -4.14486 0
M  V30 6011 H 581.1 -2.82051 -3.18319 0
M  V30 6012 N 579.415 0.9433 -1.26252 0
M  V30 6013 C 580.643 1.72367 -1.14443 0
M  V30 6014 C 581.058 1.86392 0.300572 0
M  V30 6015 O 580.415 1.36978 1.20596 0
M  V30 6016 C 580.466 3.13155 -1.806 0
M  V30 6017 O 580.187 2.99803 -3.19452 0
M  V30 6018 C 581.688 4.07417 -1.74717 0
M  V30 6019 H 578.908 0.539758 -0.398626 0
M  V30 6020 H 581.452 1.18268 -1.66832 0
M  V30 6021 H 579.607 3.64162 -1.32154 0
M  V30 6022 H 580.021 3.88697 -3.52158 0
M  V30 6023 H 581.495 5.03773 -2.25647 0
M  V30 6024 H 581.972 4.3337 -0.713244 0
M  V30 6025 H 582.578 3.6233 -2.22704 0
M  V30 6026 N 580.893 1.08022 1.14757 0
M  V30 6027 C 581.84 0.706657 2.19716 0
M  V30 6028 C 582.81 -0.30525 1.63271 0
M  V30 6029 O 583.995 -0.19015 1.8985 0
M  V30 6030 C 581.135 0.117914 3.44898 0
M  V30 6031 C 580.248 1.18212 4.15512 0
M  V30 6032 C 579.383 0.557659 5.28265 0
M  V30 6033 C 578.422 1.60418 5.90705 0
M  V30 6034 N 577.559 1.0018 6.94916 0
M  V30 6035 H 582.399 1.60603 2.51019 0
M  V30 6036 H 579.936 0.802664 1.23271 0
M  V30 6037 H 581.894 -0.241112 4.16503 0
M  V30 6038 H 580.524 -0.744788 3.1409 0
M  V30 6039 H 579.576 1.65863 3.42335 0
M  V30 6040 H 580.888 1.97533 4.5802 0
M  V30 6041 H 580.042 0.146654 6.06523 0
M  V30 6042 H 578.781 -0.267249 4.86967 0
M  V30 6043 H 577.786 2.02489 5.11154 0
M  V30 6044 H 579.011 2.43149 6.34078 0
M  V30 6045 H 576.957 0.197917 6.55701 0
M  V30 6046 H 576.874 1.73216 7.35889 0
M  V30 6047 H 578.142 0.616523 7.77058 0
M  V30 6048 N 582.371 -1.3172 0.865308 0
M  V30 6049 C 583.301 -2.31109 0.333302 0
M  V30 6050 C 584.282 -1.60148 -0.573301 0
M  V30 6051 O 585.467 -1.87882 -0.491305 0
M  V30 6052 C 582.597 -3.44104 -0.470078 0
M  V30 6053 C 581.551 -4.26623 0.343021 0
M  V30 6054 C 580.877 -5.31482 -0.585756 0
M  V30 6055 C 582.177 -4.98001 1.57456 0
M  V30 6056 H 583.871 -2.75855 1.1638 0
M  V30 6057 H 581.417 -1.3262 0.561069 0
M  V30 6058 H 583.37 -4.12682 -0.852752 0
M  V30 6059 H 582.094 -2.98112 -1.33404 0
M  V30 6060 H 580.753 -3.59707 0.707583 0
M  V30 6061 H 580.401 -4.81741 -1.44686 0
M  V30 6062 H 580.101 -5.87582 -0.0456494 0
M  V30 6063 H 581.625 -6.0292 -0.965375 0
M  V30 6064 H 583.039 -5.59201 1.26359 0
M  V30 6065 H 581.436 -5.63876 2.05339 0
M  V30 6066 H 582.506 -4.25253 2.32997 0
M  V30 6067 O 583.888 -0.764371 -1.42266 0
M  V30 6068 H 584.579 -0.325849 -1.9094 0
M  V30 END ATOM
M  V30 BEGIN BOND
M  V30 END BOND
M  V30 END CTAB
M  END
$$$$
