drugbank_target|Q8TAB3 Protocadherin-19 (DB01373)
 OpenBabel12092121033D

  0  0  0     0  0            999 V3000
M  V30 BEGIN CTAB
M  V30 COUNTS 17596 17764 0 0 0
M  V30 BEGIN ATOM
M  V30 1 H -0.908 1.98254 -0.117106 0
M  V30 2 N 0 1.576 0 0
M  V30 3 C 0.933 2.03868 1.02534 0
M  V30 4 C 1.911 0.928543 1.3348 0
M  V30 5 O 3.095 1.19667 1.45644 0
M  V30 6 C 0.222 2.43627 2.35294 0
M  V30 7 C -0.732 3.65373 2.2001 0
M  V30 8 S 0.101 5.13292 1.52614 0
M  V30 9 C 1.257 5.56322 2.86805 0
M  V30 10 H 1.49 2.90518 0.631377 0
M  V30 11 H -0.977 1.52953 0.210867 0
M  V30 12 H 0.981 2.67203 3.11629 0
M  V30 13 H -0.358 1.57376 2.7183 0
M  V30 14 H -1.165 3.90944 3.18086 0
M  V30 15 H -1.563 3.418 1.51819 0
M  V30 16 H 0.729 5.58782 3.83104 0
M  V30 17 H 1.672 6.56266 2.65933 0
M  V30 18 H 2.08 4.83886 2.90714 0
M  V30 19 N 1.4781 -0.272755 1.55222 0
M  V30 20 C 2.3881 -1.35918 1.91216 0
M  V30 21 C 3.4041 -1.54026 0.809436 0
M  V30 22 O 4.5801 -1.68148 1.10852 0
M  V30 23 C 1.6451 -2.69834 2.17693 0
M  V30 24 C 0.7061 -2.6047 3.41253 0
M  V30 25 C -0.0609 -3.88 3.66458 0
M  V30 26 O 0.1621 -4.88693 2.94169 0
M  V30 27 O -0.9039 -3.88189 4.59992 0
M  V30 28 H 2.9221 -1.0839 2.83699 0
M  V30 29 H 0.5071 -0.471301 1.41771 0
M  V30 30 H 2.3891 -3.49017 2.36147 0
M  V30 31 H 1.0641 -2.97148 1.28392 0
M  V30 32 H -0.0289 -1.79663 3.28134 0
M  V30 33 H 1.3041 -2.38106 4.30774 0
M  V30 34 N 2.9562 -1.48159 -0.537278 0
M  V30 35 C 4.1812 -1.59707 -1.32319 0
M  V30 36 C 4.6062 -0.254859 -1.86365 0
M  V30 37 O 3.9642 0.772378 -1.64024 0
M  V30 38 C 4.0122 -2.6412 -2.45505 0
M  V30 39 O 3.1162 -2.20774 -3.48328 0
M  V30 40 H 2.4572 -0.535791 -0.392204 0
M  V30 41 H 4.9872 -1.94092 -0.647268 0
M  V30 42 H 4.9972 -2.85166 -2.91795 0
M  V30 43 H 3.6722 -3.61567 -2.05528 0
M  V30 44 H 2.2492 -2.09911 -3.08207 0
M  V30 45 N 4.4343 0.785586 -1.36625 0
M  V30 46 C 5.3643 1.91259 -1.33949 0
M  V30 47 C 6.3453 1.68795 -0.210325 0
M  V30 48 O 7.5303 1.89854 -0.408561 0
M  V30 49 C 4.6603 3.28339 -1.13186 0
M  V30 50 C 3.6143 3.65335 -2.22967 0
M  V30 51 C 2.9403 5.00806 -1.87342 0
M  V30 52 C 4.2403 3.7352 -3.65075 0
M  V30 53 H 5.9343 1.93755 -2.28253 0
M  V30 54 H 3.4803 0.930788 -1.09874 0
M  V30 55 H 5.4333 4.06804 -1.09948 0
M  V30 56 H 4.1573 3.2624 -0.153332 0
M  V30 57 H 2.8163 2.89169 -2.25337 0
M  V30 58 H 2.4643 4.95233 -0.880545 0
M  V30 59 H 2.1643 5.26529 -2.60846 0
M  V30 60 H 3.6883 5.81687 -1.85667 0
M  V30 61 H 5.1023 4.42168 -3.64911 0
M  V30 62 H 3.4993 4.10731 -4.37516 0
M  V30 63 H 4.5693 2.74527 -3.99703 0
M  V30 64 N 5.9124 1.20967 1.01018 0
M  V30 65 C 6.8424 0.988272 2.11555 0
M  V30 66 C 7.8234 -0.0849778 1.69888 0
M  V30 67 O 9.0084 0.0738202 1.9406 0
M  V30 68 C 6.1384 0.546528 3.42973 0
M  V30 69 C 5.0924 1.56375 3.9841 0
M  V30 70 C 4.4184 0.97842 5.25672 0
M  V30 71 C 5.7184 2.94922 4.31066 0
M  V30 72 H 7.4124 1.91276 2.30334 0
M  V30 73 H 4.9584 0.921073 1.1069 0
M  V30 74 H 6.9114 0.378839 4.19694 0
M  V30 75 H 5.6354 -0.413598 3.23971 0
M  V30 76 H 4.2944 1.71891 3.23804 0
M  V30 77 H 3.9424 0.0101688 5.02999 0
M  V30 78 H 3.6424 1.65784 5.63728 0
M  V30 79 H 5.1664 0.821939 6.05043 0
M  V30 80 H 6.5804 2.8288 4.9865 0
M  V30 81 H 4.9774 3.5983 4.80253 0
M  V30 82 H 6.0474 3.4616 3.39561 0
M  V30 83 N 7.3905 -1.2043 1.01659 0
M  V30 84 C 8.3205 -2.25466 0.607226 0
M  V30 85 C 9.3015 -1.65853 -0.377716 0
M  V30 86 O 10.4865 -1.92409 -0.263149 0
M  V30 87 C 7.6165 -3.47256 -0.0552949 0
M  V30 88 C 6.5705 -4.19462 0.850632 0
M  V30 89 C 5.8965 -5.34673 0.0538859 0
M  V30 90 C 7.1965 -4.75603 2.15868 0
M  V30 91 H 8.8905 -2.59962 1.48526 0
M  V30 92 H 6.4365 -1.2496 0.715605 0
M  V30 93 H 8.3895 -4.19917 -0.353233 0
M  V30 94 H 7.1135 -3.11924 -0.968045 0
M  V30 95 H 5.7725 -3.48667 1.13257 0
M  V30 96 H 5.4205 -4.95585 -0.860514 0
M  V30 97 H 5.1205 -5.83913 0.657192 0
M  V30 98 H 6.6445 -6.10138 -0.237598 0
M  V30 99 H 8.0585 -5.40083 1.92311 0
M  V30 100 H 6.4555 -5.3528 2.71284 0
M  V30 101 H 7.5255 -3.94346 2.82169 0
M  V30 102 N 8.8686 -0.792821 -1.36206 0
M  V30 103 C 10.2796 -0.429513 -1.81692 0
M  V30 104 C 10.6306 1.04695 -1.65932 0
M  V30 105 O 9.7556 1.81256 -1.18218 0
M  V30 106 C 10.3506 -0.772831 -3.29868 0
M  V30 107 C 8.9096 -0.462307 -3.7355 0
M  V30 108 C 8.0566 -1.00569 -2.5842 0
M  V30 109 H 11.0076 -0.985672 -1.24379 0
M  V30 110 H 11.0286 -0.0651928 -3.80444 0
M  V30 111 H 10.5406 -1.84747 -3.41307 0
M  V30 112 H 8.6416 0.604158 -3.67669 0
M  V30 113 H 8.7546 -0.985299 -4.68859 0
M  V30 114 H 7.1186 -0.428734 -2.51066 0
M  V30 115 H 7.9016 -2.08616 -2.72643 0
M  V30 116 N 10.3467 1.47872 -0.545128 0
M  V30 117 C 11.5927 2.02793 -0.0166104 0
M  V30 118 C 11.9257 1.41987 1.32489 0
M  V30 119 O 11.2007 0.571045 1.85928 0
M  V30 120 C 11.4837 3.59989 0.0893294 0
M  V30 121 C 11.3367 4.3125 -1.27841 0
M  V30 122 C 12.6557 4.32606 0.808724 0
M  V30 123 H 9.7747 0.736962 -0.00751035 0
M  V30 124 H 12.4167 1.76433 -0.705085 0
M  V30 125 H 10.5667 3.82579 0.675681 0
M  V30 126 H 12.2387 4.20035 -1.90704 0
M  V30 127 H 10.4817 3.92076 -1.85632 0
M  V30 128 H 11.1527 5.39736 -1.15713 0
M  V30 129 H 13.6287 4.14936 0.310992 0
M  V30 130 H 12.5047 5.42251 0.851782 0
M  V30 131 H 12.7657 4.00963 1.86229 0
M  V30 132 N 11.8248 0.280983 1.55075 0
M  V30 133 C 12.7548 -0.597469 2.25727 0
M  V30 134 C 13.7358 -1.15417 1.24952 0
M  V30 135 O 14.9208 -1.18722 1.53684 0
M  V30 136 C 12.0508 -1.7789 2.98283 0
M  V30 137 C 11.0048 -1.35347 4.06036 0
M  V30 138 C 10.3308 -2.61846 4.66198 0
M  V30 139 C 11.6308 -0.499354 5.19907 0
M  V30 140 H 13.3248 -0.00824265 2.99399 0
M  V30 141 H 10.8708 -0.0025244 1.44 0
M  V30 142 H 12.8238 -2.39937 3.46422 0
M  V30 143 H 11.5478 -2.39405 2.22155 0
M  V30 144 H 10.2068 -0.756156 3.58717 0
M  V30 145 H 9.8548 -3.21632 3.86732 0
M  V30 146 H 9.5548 -2.3409 5.38958 0
M  V30 147 H 11.0788 -3.24732 5.1709 0
M  V30 148 H 12.4928 -1.02498 5.64063 0
M  V30 149 H 10.8898 -0.316424 5.99265 0
M  V30 150 H 11.9598 0.480459 4.82514 0
M  V30 151 N 13.3029 -1.57598 0.00835791 0
M  V30 152 C 14.2329 -2.1198 -0.979113 0
M  V30 153 C 15.2139 -1.03091 -1.35301 0
M  V30 154 O 16.3989 -1.30818 -1.43528 0
M  V30 155 C 13.5289 -2.62995 -2.26828 0
M  V30 156 C 12.4829 -3.76485 -2.03576 0
M  V30 157 C 11.8089 -4.13846 -3.38579 0
M  V30 158 C 13.1089 -5.0342 -1.39161 0
M  V30 159 H 14.8029 -2.94738 -0.526281 0
M  V30 160 H 12.3489 -1.41783 -0.251704 0
M  V30 161 H 14.3019 -2.99669 -2.96271 0
M  V30 162 H 13.0259 -1.7737 -2.7424 0
M  V30 163 H 11.6849 -3.40217 -1.36557 0
M  V30 164 H 11.3329 -3.25232 -3.83709 0
M  V30 165 H 11.0329 -4.90312 -3.23834 0
M  V30 166 H 12.5569 -4.53086 -4.09323 0
M  V30 167 H 13.9709 -5.37812 -1.98573 0
M  V30 168 H 12.3679 -5.84746 -1.34878 0
M  V30 169 H 13.4379 -4.83548 -0.361868 0
M  V30 170 N 14.781 0.264519 -1.55364 0
M  V30 171 C 15.711 1.33121 -1.91836 0
M  V30 172 C 16.692 1.51101 -0.781192 0
M  V30 173 O 17.877 1.64003 -1.04003 0
M  V30 174 C 15.007 2.68921 -2.19769 0
M  V30 175 C 13.961 2.65661 -3.35571 0
M  V30 176 C 13.287 4.05093 -3.49004 0
M  V30 177 C 14.587 2.24187 -4.71739 0
M  V30 178 H 16.281 1.02844 -2.81182 0
M  V30 179 H 13.827 0.493286 -1.35287 0
M  V30 180 H 15.78 3.43663 -2.43872 0
M  V30 181 H 14.504 3.00799 -1.27231 0
M  V30 182 H 13.163 1.93377 -3.1145 0
M  V30 183 H 12.811 4.34206 -2.53917 0
M  V30 184 H 12.511 4.03804 -4.26868 0
M  V30 185 H 14.035 4.81561 -3.75408 0
M  V30 186 H 15.449 2.88654 -4.9533 0
M  V30 187 H 13.846 2.34044 -5.52579 0
M  V30 188 H 14.916 1.19327 -4.69988 0
M  V30 189 N 16.2591 1.48442 0.529413 0
M  V30 190 C 17.1891 1.65902 1.64313 0
M  V30 191 C 18.1701 0.507897 1.6234 0
M  V30 192 O 19.3551 0.740503 1.79528 0
M  V30 193 C 16.4851 1.69911 3.02898 0
M  V30 194 C 15.4391 2.8453 3.19729 0
M  V30 195 C 14.7651 2.73629 4.59381 0
M  V30 196 C 16.0651 4.25821 3.02447 0
M  V30 197 H 17.7591 2.5914 1.49955 0
M  V30 198 H 15.3051 1.24709 0.719982 0
M  V30 199 H 17.2581 1.80715 3.80684 0
M  V30 200 H 15.9821 0.732524 3.18279 0
M  V30 201 H 14.6411 2.73283 2.44361 0
M  V30 202 H 14.2891 1.74938 4.71599 0
M  V30 203 H 13.9891 3.50541 4.71588 0
M  V30 204 H 15.5131 2.86401 5.39265 0
M  V30 205 H 16.9271 4.37898 3.70024 0
M  V30 206 H 15.3241 5.03735 3.26146 0
M  V30 207 H 16.3941 4.42244 1.98867 0
M  V30 208 N 17.7372 -0.778329 1.37039 0
M  V30 209 C 18.7002 -1.87301 1.32102 0
M  V30 210 C 19.7002 -1.59198 0.226405 0
M  V30 211 O 20.8902 -1.67403 0.481861 0
M  V30 212 C 18.0222 -3.24309 1.05055 0
M  V30 213 H 19.2152 -1.93093 2.29467 0
M  V30 214 H 16.7682 -0.977358 1.21973 0
M  V30 215 H 17.5032 -3.24196 0.0819373 0
M  V30 216 H 17.2882 -3.46098 1.84279 0
M  V30 217 H 18.7782 -4.04382 1.04234 0
M  V30 218 N 19.2153 -1.21501 -1.00376 0
M  V30 219 C 20.4643 -1.02718 -1.73586 0
M  V30 220 C 20.7773 0.439589 -1.90596 0
M  V30 221 O 21.9833 0.746848 -2.61026 0
M  V30 222 C 20.4393 -1.78929 -3.1227 0
M  V30 223 C 20.0473 -3.29783 -3.03228 0
M  V30 224 C 21.7913 -1.68557 -3.89601 0
M  V30 225 C 19.6983 -3.98479 -4.36999 0
M  V30 226 H 18.6283 -0.380733 -0.650814 0
M  V30 227 H 21.2793 -1.45248 -1.1214 0
M  V30 228 H 19.6613 -1.29192 -3.74333 0
M  V30 229 H 20.8353 -3.86832 -2.50395 0
M  V30 230 H 19.1503 -3.40711 -2.39385 0
M  V30 231 H 21.7473 -2.17211 -4.88593 0
M  V30 232 H 22.0903 -0.644021 -4.11288 0
M  V30 233 H 22.6233 -2.15778 -3.34193 0
M  V30 234 H 19.3623 -5.02841 -4.20513 0
M  V30 235 H 18.8823 -3.46219 -4.89788 0
M  V30 236 H 20.5613 -4.03462 -5.05794 0
M  V30 237 N 20.6934 1.19889 -1.02296 0
M  V30 238 C 21.6234 2.25141 -0.619174 0
M  V30 239 C 22.6044 1.66051 0.368915 0
M  V30 240 O 23.7894 1.92546 0.252941 0
M  V30 241 C 20.9194 3.4728 0.0368783 0
M  V30 242 C 19.8734 4.19005 -0.872865 0
M  V30 243 C 19.1994 5.34637 -0.0822402 0
M  V30 244 C 20.4994 4.74452 -2.18387 0
M  V30 245 H 22.1934 2.59171 -1.49903 0
M  V30 246 H 19.7394 1.24579 -0.722222 0
M  V30 247 H 21.6924 4.20098 0.330958 0
M  V30 248 H 20.4164 3.12433 0.95149 0
M  V30 249 H 19.0754 3.48061 -1.15105 0
M  V30 250 H 18.7234 4.96034 0.83422 0
M  V30 251 H 18.4234 5.83557 -0.688149 0
M  V30 252 H 19.9474 6.10255 0.205238 0
M  V30 253 H 21.3614 5.39055 -1.95172 0
M  V30 254 H 19.7584 5.33834 -2.74119 0
M  V30 255 H 20.8284 3.92844 -2.84257 0
M  V30 256 N 22.1715 0.800033 1.35784 0
M  V30 257 C 23.4175 0.38701 1.99684 0
M  V30 258 C 23.7725 -1.03268 1.62338 0
M  V30 259 O 23.0655 -1.70543 0.87325 0
M  V30 260 C 23.2595 0.500276 3.53881 0
M  V30 261 C 23.0885 1.92942 4.06206 0
M  V30 262 C 21.8585 2.55637 4.35865 0
M  V30 263 C 24.0565 2.89307 4.25213 0
M  V30 264 N 22.0385 3.9003 4.74078 0
M  V30 265 C 23.4095 4.08556 4.66349 0
M  V30 266 C 25.4645 2.86225 4.07406 0
M  V30 267 C 24.1675 5.25146 4.91543 0
M  V30 268 C 26.1935 4.02011 4.33752 0
M  V30 269 C 25.5555 5.20007 4.75155 0
M  V30 270 H 21.6545 0.189252 0.758754 0
M  V30 271 H 24.2385 1.03988 1.64604 0
M  V30 272 H 22.4095 -0.122568 3.88207 0
M  V30 273 H 24.1415 0.0624733 4.04652 0
M  V30 274 H 20.8965 2.07039 4.25948 0
M  V30 275 H 21.3205 4.59205 4.97454 0
M  V30 276 H 25.9625 1.96154 3.74544 0
M  V30 277 H 23.6805 6.15794 5.23281 0
M  V30 278 H 27.2665 4.00999 4.21534 0
M  V30 279 H 26.1465 6.08113 4.95145 0
M  V30 280 N 23.6496 -1.47581 0.552962 0
M  V30 281 C 24.8776 -2.06875 0.0320556 0
M  V30 282 C 25.2926 -1.40625 -1.25976 0
M  V30 283 O 24.6496 -0.501349 -1.75479 0
M  V30 284 C 24.7006 -3.61092 -0.17167 0
M  V30 285 O 24.4216 -4.24858 1.06899 0
M  V30 286 C 25.9226 -4.37242 -0.730344 0
M  V30 287 H 23.1426 -0.669561 0.043915 0
M  V30 288 H 25.6866 -1.89646 0.765163 0
M  V30 289 H 23.8416 -3.7785 -0.854894 0
M  V30 290 H 24.2556 -5.17334 0.864059 0
M  V30 291 H 25.7296 -5.45842 -0.822203 0
M  V30 292 H 26.2066 -4.03235 -1.74064 0
M  V30 293 H 26.8126 -4.25219 -0.0829543 0
M  V30 294 N 25.1277 -0.289203 -1.54924 0
M  V30 295 C 26.0597 0.625583 -2.20497 0
M  V30 296 C 27.0727 1.10667 -1.19402 0
M  V30 297 O 28.2617 1.02615 -1.46056 0
M  V30 298 C 25.3617 1.86702 -2.82835 0
M  V30 299 C 24.5347 1.5304 -4.09753 0
M  V30 300 C 23.5937 2.62576 -4.56005 0
M  V30 301 O 22.6197 2.28167 -5.21468 0
M  V30 302 N 23.8217 3.92901 -4.27328 0
M  V30 303 H 26.5867 0.0642801 -2.99631 0
M  V30 304 H 24.1477 -0.110896 -1.6152 0
M  V30 305 H 26.1397 2.59304 -3.10715 0
M  V30 306 H 24.7097 2.33702 -2.07611 0
M  V30 307 H 23.9297 0.637564 -3.8901 0
M  V30 308 H 25.2177 1.28072 -4.92418 0
M  V30 309 H 24.6157 4.23671 -3.74859 0
M  V30 310 H 23.1727 4.61837 -4.59946 0
M  V30 311 N 26.6058 1.57591 -0.0167156 0
M  V30 312 C 27.5688 2.08393 0.954204 0
M  V30 313 C 28.5688 0.996531 1.26198 0
M  V30 314 O 29.7588 1.25858 1.20438 0
M  V30 315 C 26.8908 2.5394 2.27436 0
M  V30 316 H 28.0838 2.95455 0.514451 0
M  V30 317 H 25.6368 1.54582 0.231089 0
M  V30 318 H 26.3718 1.70171 2.76066 0
M  V30 319 H 26.1568 3.33371 2.06412 0
M  V30 320 H 27.6468 2.93512 2.97053 0
M  V30 321 N 28.0839 -0.256276 1.55502 0
M  V30 322 C 29.0469 -1.30047 1.88734 0
M  V30 323 C 30.0469 -1.4154 0.763086 0
M  V30 324 O 31.2369 -1.40403 1.03115 0
M  V30 325 C 28.3689 -2.67953 2.10747 0
M  V30 326 H 29.5619 -1.01802 2.82093 0
M  V30 327 H 27.1149 -0.495134 1.4825 0
M  V30 328 H 27.8499 -3.01351 1.19825 0
M  V30 329 H 27.6349 -2.60993 2.92617 0
M  V30 330 H 29.1249 -3.43368 2.37673 0
M  V30 331 N 29.562 -1.4872 -0.521534 0
M  V30 332 C 30.525 -1.63379 -1.60748 0
M  V30 333 C 31.525 -0.50661 -1.52611 0
M  V30 334 O 32.715 -0.772601 -1.5613 0
M  V30 335 C 29.847 -1.61192 -3.00383 0
M  V30 336 H 31.04 -2.60217 -1.49087 0
M  V30 337 H 28.593 -1.37444 -0.744235 0
M  V30 338 H 29.328 -0.65863 -3.17541 0
M  V30 339 H 29.113 -2.43032 -3.07698 0
M  V30 340 H 30.603 -1.7466 -3.7932 0
M  V30 341 N 31.0401 0.771051 -1.3745 0
M  V30 342 C 31.9701 1.89827 -1.3597 0
M  V30 343 C 32.9511 1.68562 -0.228216 0
M  V30 344 O 34.1361 1.8941 -0.428675 0
M  V30 345 C 31.2661 3.2712 -1.16662 0
M  V30 346 C 30.2201 3.6295 -2.2683 0
M  V30 347 C 29.5461 4.98791 -1.92644 0
M  V30 348 C 30.8461 3.69627 -3.69017 0
M  V30 349 H 32.5401 1.91323 -2.30295 0
M  V30 350 H 30.0861 0.919082 -1.10855 0
M  V30 351 H 32.0391 4.05615 -1.14256 0
M  V30 352 H 30.7631 3.26059 -0.187926 0
M  V30 353 H 29.4221 2.86763 -2.28392 0
M  V30 354 H 29.0701 4.94271 -0.933021 0
M  V30 355 H 28.7701 5.23733 -2.66416 0
M  V30 356 H 30.2941 5.79685 -1.91826 0
M  V30 357 H 31.7081 4.38273 -3.69581 0
M  V30 358 H 30.1051 4.06067 -4.41848 0
M  V30 359 H 31.1751 2.70273 -4.02592 0
M  V30 360 N 32.5182 1.22032 0.997298 0
M  V30 361 C 33.7672 1.03637 1.73038 0
M  V30 362 C 34.0802 -0.429475 1.90827 0
M  V30 363 O 35.2862 -0.732995 2.61418 0
M  V30 364 C 33.7422 1.80582 3.11317 0
M  V30 365 C 33.3502 3.31387 3.01474 0
M  V30 366 C 35.0942 1.70621 3.88701 0
M  V30 367 C 33.0012 4.00791 4.3488 0
M  V30 368 H 31.9312 0.384179 0.648785 0
M  V30 369 H 34.5822 1.4584 1.11368 0
M  V30 370 H 32.9642 1.31175 3.73643 0
M  V30 371 H 34.1382 3.88155 2.4834 0
M  V30 372 H 32.4532 3.41976 2.37575 0
M  V30 373 H 35.0502 2.19799 4.87434 0
M  V30 374 H 35.3932 0.665823 4.10941 0
M  V30 375 H 35.9262 2.17547 3.33044 0
M  V30 376 H 32.6652 5.05064 4.1784 0
M  V30 377 H 32.1852 3.48811 4.87945 0
M  V30 378 H 33.8642 4.06139 5.03647 0
M  V30 379 N 33.9963 -1.19345 1.0293 0
M  V30 380 C 34.9443 -2.24621 0.604001 0
M  V30 381 C 35.9383 -1.65452 -0.363587 0
M  V30 382 O 37.1443 -1.78497 -0.23212 0
M  V30 383 H 33.5193 -0.730858 0.177061 0
M  V30 384 H 35.4903 -2.5781 1.50255 0
M  V30 385 C 34.2393 -3.47688 -0.0289127 0
M  V30 386 H 33.5623 -3.93505 0.706651 0
M  V30 387 H 35.0023 -4.23011 -0.289432 0
M  V30 388 C 33.4613 -3.11817 -1.2756 0
M  V30 389 O 33.9913 -3.2451 -2.36762 0
M  V30 390 N 32.1973 -2.66246 -1.16453 0
M  V30 391 H 31.7443 -2.56118 -0.275914 0
M  V30 392 H 31.7023 -2.42617 -1.99961 0
M  V30 393 N 35.4744 -0.807222 -1.35358 0
M  V30 394 C 36.4044 -0.232509 -2.3234 0
M  V30 395 C 37.3854 0.642386 -1.57504 0
M  V30 396 O 38.5704 0.572526 -1.85569 0
M  V30 397 C 35.7004 0.619238 -3.41735 0
M  V30 398 C 34.6544 -0.157215 -4.27711 0
M  V30 399 C 33.9804 0.816273 -5.28433 0
M  V30 400 C 35.2804 -1.35656 -5.04376 0
M  V30 401 H 36.9744 -1.04276 -2.80654 0
M  V30 402 H 34.5204 -0.50288 -1.34934 0
M  V30 403 H 36.4734 1.03137 -4.08584 0
M  V30 404 H 35.1974 1.46239 -2.92031 0
M  V30 405 H 33.8564 -0.550525 -3.62443 0
M  V30 406 H 33.5044 1.65494 -4.74996 0
M  V30 407 H 33.2044 0.301067 -5.86828 0
M  V30 408 H 34.7284 1.22659 -5.98153 0
M  V30 409 H 36.1424 -1.01927 -5.64166 0
M  V30 410 H 34.5394 -1.8063 -5.7227 0
M  V30 411 H 35.6094 -2.14288 -4.34981 0
M  V30 412 N 36.9525 1.47285 -0.560781 0
M  V30 413 C 37.8995 2.30058 0.18491 0
M  V30 414 C 38.8695 1.39281 0.904986 0
M  V30 415 O 40.0545 1.68241 0.899979 0
M  V30 416 C 37.1945 3.23317 1.20666 0
M  V30 417 C 36.3075 4.29186 0.492285 0
M  V30 418 C 35.4425 5.09592 1.49964 0
M  V30 419 C 34.4815 6.07232 0.770439 0
M  V30 420 N 33.6185 6.80584 1.72479 0
M  V30 421 H 38.4585 2.93302 -0.527048 0
M  V30 422 H 35.9955 1.44568 -0.271738 0
M  V30 423 H 37.9535 3.75811 1.81168 0
M  V30 424 H 36.5835 2.61929 1.88661 0
M  V30 425 H 35.6355 3.7972 -0.227333 0
M  V30 426 H 36.9475 4.98738 -0.0787929 0
M  V30 427 H 36.1015 5.66254 2.17809 0
M  V30 428 H 34.8405 4.3995 2.10464 0
M  V30 429 H 33.8455 5.49745 0.0780846 0
M  V30 430 H 35.0705 6.78884 0.171134 0
M  V30 431 H 33.0165 6.1367 2.3183 0
M  V30 432 H 32.9335 7.46319 1.20596 0
M  V30 433 H 34.2015 7.41818 2.39428 0
M  V30 434 N 38.4306 0.297415 1.54768 0
M  V30 435 C 39.6606 -0.315165 2.04182 0
M  V30 436 C 40.0686 -1.4834 1.17439 0
M  V30 437 O 39.4116 -1.82695 0.191891 0
M  V30 438 C 39.4736 -0.837583 3.49607 0
M  V30 439 C 39.1376 0.204912 4.5654 0
M  V30 440 C 40.1346 1.03214 5.09552 0
M  V30 441 C 37.8196 0.345578 5.0111 0
M  V30 442 C 39.8136 1.986 6.05671 0
M  V30 443 C 37.5006 1.30289 5.97049 0
M  V30 444 C 38.4986 2.12159 6.49213 0
M  V30 445 O 38.1866 3.06268 7.43273 0
M  V30 446 H 37.9186 -0.0729646 0.672051 0
M  V30 447 H 40.4726 0.433907 2.00765 0
M  V30 448 H 38.7026 -1.63712 3.50336 0
M  V30 449 H 40.3916 -1.36566 3.82236 0
M  V30 450 H 41.1576 0.934312 4.75916 0
M  V30 451 H 37.0366 -0.28171 4.60138 0
M  V30 452 H 40.5806 2.62542 6.46311 0
M  V30 453 H 36.4776 1.40145 6.30103 0
M  V30 454 H 37.2456 3.01205 7.61064 0
M  V30 455 N 39.9087 -1.5758 0.0250728 0
M  V30 456 C 41.1337 -1.96337 -0.668317 0
M  V30 457 C 41.5587 -0.901314 -1.651 0
M  V30 458 O 40.9167 0.138187 -1.80773 0
M  V30 459 C 40.9647 -3.34191 -1.35457 0
M  V30 460 O 40.0687 -3.30269 -2.46974 0
M  V30 461 H 39.4097 -0.640281 -0.175887 0
M  V30 462 H 41.9397 -2.0442 0.0857224 0
M  V30 463 H 41.9497 -3.70331 -1.71228 0
M  V30 464 H 40.6247 -4.11036 -0.634218 0
M  V30 465 H 39.2017 -3.05841 -2.13344 0
M  V30 466 N 41.3868 0.248026 -1.55636 0
M  V30 467 C 42.6328 0.97767 -1.77678 0
M  V30 468 C 42.9658 1.85016 -0.590135 0
M  V30 469 O 42.2408 1.90095 0.411611 0
M  V30 470 C 42.5238 1.83914 -3.09593 0
M  V30 471 C 42.3768 0.99491 -4.38659 0
M  V30 472 C 43.6958 2.82183 -3.37729 0
M  V30 473 H 40.8148 0.354005 -0.646413 0
M  V30 474 H 43.4568 0.248253 -1.88371 0
M  V30 475 H 41.6068 2.46104 -3.00608 0
M  V30 476 H 43.2788 0.391789 -4.59633 0
M  V30 477 H 41.5218 0.299231 -4.32767 0
M  V30 478 H 42.1928 1.63145 -5.2734 0
M  V30 479 H 44.6688 2.30129 -3.4667 0
M  V30 480 H 43.5448 3.39582 -4.31249 0
M  V30 481 H 43.8058 3.58588 -2.58586 0
M  V30 482 N 42.8649 1.48995 0.513639 0
M  V30 483 C 43.7749 1.67443 1.64317 0
M  V30 484 C 44.7909 0.556947 1.64846 0
M  V30 485 O 45.9669 0.830082 1.83498 0
M  V30 486 C 43.0319 1.72515 3.00732 0
M  V30 487 C 42.0929 2.96009 3.1093 0
M  V30 488 C 41.3259 3.00829 4.40837 0
M  V30 489 O 41.5489 2.13594 5.28898 0
M  V30 490 O 40.4829 3.93168 4.55744 0
M  V30 491 H 44.3089 2.63106 1.51687 0
M  V30 492 H 41.8939 1.32588 0.688543 0
M  V30 493 H 43.7759 1.78277 3.81831 0
M  V30 494 H 42.4509 0.800278 3.13651 0
M  V30 495 H 41.3579 2.9577 2.29065 0
M  V30 496 H 42.6909 3.87934 3.02933 0
M  V30 497 N 44.343 -0.763751 1.37857 0
M  V30 498 C 45.253 -1.90817 1.36478 0
M  V30 499 C 46.269 -1.71997 0.263248 0
M  V30 500 O 47.445 -1.95095 0.499979 0
M  V30 501 C 44.51 -3.2605 1.17864 0
M  V30 502 C 43.571 -3.57467 2.3773 0
M  V30 503 C 42.804 -4.86249 2.19995 0
M  V30 504 O 43.027 -5.57884 1.18836 0
M  V30 505 O 41.961 -5.16911 3.08361 0
M  V30 506 H 45.787 -1.94933 2.32884 0
M  V30 507 H 43.372 -0.907619 1.1867 0
M  V30 508 H 45.254 -4.06924 1.09504 0
M  V30 509 H 43.929 -3.22769 0.245372 0
M  V30 510 H 42.836 -2.76796 2.51664 0
M  V30 511 H 44.169 -3.655 3.29652 0
M  V30 512 N 45.8211 -1.22559 -0.990812 0
M  V30 513 C 46.7311 -1.01394 -2.11557 0
M  V30 514 C 47.7471 0.0383962 -1.73958 0
M  V30 515 O 48.9231 -0.154787 -2.00804 0
M  V30 516 C 45.9881 -0.596569 -3.41529 0
M  V30 517 C 45.0491 -1.72276 -3.93217 0
M  V30 518 C 44.2821 -1.32521 -5.16985 0
M  V30 519 O 44.5051 -0.204909 -5.70032 0
M  V30 520 O 43.4391 -2.14247 -5.62478 0
M  V30 521 H 47.2651 -1.95633 -2.32296 0
M  V30 522 H 44.8501 -1.01172 -1.0993 0
M  V30 523 H 46.7321 -0.374263 -4.19735 0
M  V30 524 H 45.4071 0.316939 -3.22145 0
M  V30 525 H 44.3141 -1.99961 -3.16174 0
M  V30 526 H 45.6471 -2.61421 -4.17037 0
M  V30 527 N 47.2992 1.18797 -1.03562 0
M  V30 528 C 48.2312 2.21731 -0.580337 0
M  V30 529 C 49.2442 1.59051 0.347349 0
M  V30 530 O 50.4332 1.77929 0.142669 0
M  V30 531 C 47.5332 3.38459 0.172805 0
M  V30 532 C 46.7062 4.3072 -0.761496 0
M  V30 533 C 45.7652 5.26174 -0.0525547 0
M  V30 534 O 44.7912 5.65108 -0.681333 0
M  V30 535 N 45.9932 5.67624 1.21586 0
M  V30 536 H 48.7582 2.61417 -1.46565 0
M  V30 537 H 46.3192 1.33531 -0.915476 0
M  V30 538 H 48.3112 3.99335 0.656793 0
M  V30 539 H 46.8812 2.97507 0.959602 0
M  V30 540 H 46.1012 3.67525 -1.42544 0
M  V30 541 H 47.3892 4.89267 -1.39626 0
M  V30 542 H 46.7872 5.38038 1.74732 0
M  V30 543 H 45.3442 6.30721 1.64421 0
M  V30 544 N 48.7773 0.814389 1.34928 0
M  V30 545 C 50.1933 0.499084 1.51596 0
M  V30 546 C 50.3933 -0.978319 1.76157 0
M  V30 547 O 49.4493 -1.76309 1.80752 0
M  V30 548 C 50.7623 1.35121 2.68631 0
M  V30 549 C 52.3103 1.34746 2.82511 0
M  V30 550 C 52.7853 2.18388 4.0258 0
M  V30 551 N 54.2763 2.15966 4.09772 0
M  V30 552 C 55.0113 2.77437 5.01813 0
M  V30 553 N 54.5073 3.47866 5.99134 0
M  V30 554 N 56.3003 2.67037 4.94619 0
M  V30 555 H 48.4513 1.7711 1.17243 0
M  V30 556 H 50.7143 0.754256 0.574284 0
M  V30 557 H 50.4203 2.40001 2.57085 0
M  V30 558 H 50.2943 1.00991 3.63429 0
M  V30 559 H 52.6813 0.30648 2.93504 0
M  V30 560 H 52.7623 1.72869 1.88547 0
M  V30 561 H 52.4063 3.2253 3.92347 0
M  V30 562 H 52.3363 1.77621 4.9574 0
M  V30 563 H 54.8273 1.64729 3.40107 0
M  V30 564 H 55.1403 3.92038 6.65977 0
M  V30 565 H 53.4853 3.51972 5.99284 0
M  V30 566 H 56.6763 2.11597 4.17546 0
M  V30 567 H 56.8493 3.15232 5.66156 0
M  V30 568 N 50.2554 -1.46986 0.568584 0
M  V30 569 C 51.2184 -2.28624 -0.162366 0
M  V30 570 C 52.2184 -1.37596 -0.832103 0
M  V30 571 O 53.4084 -1.60115 -0.68622 0
M  V30 572 C 50.5404 -3.17596 -1.23878 0
M  V30 573 H 51.7334 -2.94722 0.554899 0
M  V30 574 H 49.2864 -1.52863 0.325976 0
M  V30 575 H 50.0214 -2.56214 -1.98808 0
M  V30 576 H 49.8064 -3.846 -0.763219 0
M  V30 577 H 51.2964 -3.79078 -1.75185 0
M  V30 578 N 51.7335 -0.305618 -1.54608 0
M  V30 579 C 52.9815 0.301701 -1.99835 0
M  V30 580 C 53.3025 1.54054 -1.19551 0
M  V30 581 O 52.5725 1.93702 -0.292658 0
M  V30 582 H 51.1525 0.114468 -0.738178 0
M  V30 583 H 53.8145 -0.418016 -1.90364 0
M  V30 584 H 52.9105 0.570548 -3.06841 0
M  V30 585 N 53.2116 1.57565 -0.0334293 0
M  V30 586 C 54.4396 1.9628 0.654347 0
M  V30 587 C 54.8546 0.910138 1.65414 0
M  V30 588 O 54.2116 -0.107595 1.82183 0
M  V30 589 C 54.2626 3.35067 1.35693 0
M  V30 590 O 53.9836 4.36296 0.397191 0
M  V30 591 C 55.4846 3.88439 2.13613 0
M  V30 592 H 52.7046 0.646369 0.180132 0
M  V30 593 H 55.2486 2.04282 -0.0944721 0
M  V30 594 H 53.4036 3.2827 2.05712 0
M  V30 595 H 53.8176 5.1678 0.896597 0
M  V30 596 H 55.2916 4.8788 2.58219 0
M  V30 597 H 55.7686 3.22914 2.97696 0
M  V30 598 H 56.3746 3.98516 1.48543 0
M  V30 599 N 54.6897 -0.239769 1.55765 0
M  V30 600 C 55.9357 -0.968234 1.78194 0
M  V30 601 C 56.2687 -1.84701 0.599938 0
M  V30 602 O 55.5437 -1.9031 -0.401524 0
M  V30 603 C 55.8267 -1.8227 3.10564 0
M  V30 604 C 55.6797 -0.971633 4.3918 0
M  V30 605 C 56.9987 -2.80388 3.39221 0
M  V30 606 H 54.1177 -0.350572 0.648281 0
M  V30 607 H 56.7597 -0.238259 1.885 0
M  V30 608 H 54.9097 -2.44507 3.01908 0
M  V30 609 H 56.5817 -0.367408 4.59835 0
M  V30 610 H 54.8247 -0.276276 4.32919 0
M  V30 611 H 55.4957 -1.60346 5.28198 0
M  V30 612 H 57.9717 -2.28287 3.47885 0
M  V30 613 H 56.8477 -3.3729 4.33044 0
M  V30 614 H 57.1087 -3.57212 2.60484 0
M  V30 615 N 56.1678 -1.49265 -0.50573 0
M  V30 616 C 57.4168 -1.57761 -1.25675 0
M  V30 617 C 57.7298 -0.267371 -1.93764 0
M  V30 618 O 58.9358 -0.230827 -2.70517 0
M  V30 619 C 57.3918 -2.78332 -2.28165 0
M  V30 620 C 56.9998 -4.16096 -1.66037 0
M  V30 621 C 58.7438 -2.96155 -3.04125 0
M  V30 622 C 56.6508 -5.27895 -2.6661 0
M  V30 623 H 55.5808 -0.587391 -0.472745 0
M  V30 624 H 58.2318 -1.75644 -0.53118 0
M  V30 625 H 56.6138 -2.53934 -3.03865 0
M  V30 626 H 57.7878 -4.50612 -0.963622 0
M  V30 627 H 56.1028 -4.03591 -1.02484 0
M  V30 628 H 58.6998 -3.76849 -3.79327 0
M  V30 629 H 59.0428 -2.06534 -3.61455 0
M  V30 630 H 59.5758 -3.2057 -2.35541 0
M  V30 631 H 56.3148 -6.1956 -2.14068 0
M  V30 632 H 55.8348 -4.97839 -3.34539 0
M  V30 633 H 57.5138 -5.57031 -3.29129 0
M  V30 634 N 57.6459 0.756429 -1.3826 0
M  V30 635 C 58.6089 1.85176 -1.35065 0
M  V30 636 C 59.6089 1.58818 -0.251703 0
M  V30 637 O 60.7989 1.66615 -0.508433 0
M  V30 638 C 57.9309 3.22596 -1.10201 0
M  V30 639 H 59.1239 1.89417 -2.3251 0
M  V30 640 H 56.6769 0.95783 -1.23512 0
M  V30 641 H 57.4119 3.24025 -0.133504 0
M  V30 642 H 57.1969 3.43122 -1.89762 0
M  V30 643 H 58.6869 4.02673 -1.10654 0
M  V30 644 N 59.124 1.23083 0.984299 0
M  V30 645 C 60.072 1.00593 2.09723 0
M  V30 646 C 61.066 -0.0538014 1.69315 0
M  V30 647 O 62.272 0.0993719 1.79725 0
M  V30 648 H 58.647 0.30817 0.685956 0
M  V30 649 H 60.618 1.95012 2.2586 0
M  V30 650 C 59.367 0.609601 3.42314 0
M  V30 651 H 58.69 1.41675 3.73856 0
M  V30 652 H 60.13 0.491726 4.21139 0
M  V30 653 C 58.589 -0.681745 3.2993 0
M  V30 654 O 59.119 -1.73192 3.62446 0
M  V30 655 N 57.325 -0.656178 2.83095 0
M  V30 656 H 56.872 0.198759 2.56832 0
M  V30 657 H 56.83 -1.52044 2.75191 0
M  V30 658 N 60.6021 -1.18246 1.0419 0
M  V30 659 C 61.8481 -1.88536 0.747122 0
M  V30 660 C 62.1811 -1.80223 -0.723409 0
M  V30 661 O 61.4561 -1.20337 -1.52804 0
M  V30 662 C 61.7391 -3.38968 1.21544 0
M  V30 663 C 61.5921 -3.56084 2.74816 0
M  V30 664 C 62.9111 -4.32648 0.806482 0
M  V30 665 H 60.0301 -0.684619 0.272883 0
M  V30 666 H 62.6721 -1.39113 1.29413 0
M  V30 667 H 60.8221 -3.8119 0.750081 0
M  V30 668 H 62.4941 -3.22946 3.29399 0
M  V30 669 H 60.7371 -2.98699 3.14582 0
M  V30 670 H 61.4081 -4.61639 3.02644 0
M  V30 671 H 63.8841 -3.98211 1.20695 0
M  V30 672 H 62.7601 -5.36462 1.1619 0
M  V30 673 H 63.0211 -4.41146 -0.29029 0
M  V30 674 N 62.0802 -0.821533 -1.34494 0
M  V30 675 C 63.0432 -0.247847 -2.27856 0
M  V30 676 C 64.0432 0.573453 -1.50227 0
M  V30 677 O 65.2332 0.389759 -1.69784 0
M  V30 678 C 62.3652 0.652698 -3.34593 0
M  V30 679 H 63.5582 -1.07146 -2.80107 0
M  V30 680 H 61.1112 -0.593291 -1.44602 0
M  V30 681 H 61.8462 1.49943 -2.87555 0
M  V30 682 H 61.6312 0.065292 -3.92046 0
M  V30 683 H 63.1212 1.04793 -4.04238 0
M  V30 684 N 63.5583 1.46682 -0.576371 0
M  V30 685 C 64.5053 2.30241 0.160499 0
M  V30 686 C 65.4753 1.40233 0.890162 0
M  V30 687 O 66.6603 1.69186 0.882084 0
M  V30 688 C 63.8003 3.24578 1.1723 0
M  V30 689 C 62.9133 4.29684 0.446736 0
M  V30 690 C 62.0483 5.11154 1.44551 0
M  V30 691 C 61.0873 6.08015 0.70599 0
M  V30 692 N 60.2243 6.82376 1.65251 0
M  V30 693 H 65.0643 2.92727 -0.558127 0
M  V30 694 H 62.6013 1.44272 -0.287056 0
M  V30 695 H 64.5593 3.77711 1.77172 0
M  V30 696 H 63.1893 2.63916 1.85872 0
M  V30 697 H 62.2413 3.79458 -0.267594 0
M  V30 698 H 63.5533 4.98626 -0.131686 0
M  V30 699 H 62.7073 5.68533 2.11791 0
M  V30 700 H 61.4463 4.42158 2.05786 0
M  V30 701 H 60.4513 5.49796 0.0197725 0
M  V30 702 H 61.6763 6.79028 0.09912 0
M  V30 703 H 59.6223 6.16094 2.25308 0
M  V30 704 H 59.5393 7.47556 1.12673 0
M  V30 705 H 60.8073 7.44316 2.31546 0
M  V30 706 N 65.0364 0.313813 1.54444 0
M  V30 707 C 66.3134 -0.345447 1.92525 0
M  V30 708 C 66.6934 -1.70667 1.24242 0
M  V30 709 O 66.0414 -2.25273 0.382654 0
M  V30 710 C 66.2514 -0.44737 3.46121 0
M  V30 711 C 67.5994 -0.712238 4.18584 0
M  V30 712 O 68.6234 -0.530678 3.52225 0
M  V30 713 O 67.4824 -1.06183 5.36085 0
M  V30 714 H 64.5764 -0.195407 0.803583 0
M  V30 715 H 67.1224 0.362813 1.65776 0
M  V30 716 H 65.8944 0.509043 3.87975 0
M  V30 717 H 65.5174 -1.20359 3.78945 0
M  V30 718 N 66.5145 -1.57545 0.0417849 0
M  V30 719 C 67.4775 -2.09885 -0.92093 0
M  V30 720 C 68.4775 -1.01648 -1.24596 0
M  V30 721 O 69.6675 -1.27759 -1.1842 0
M  V30 722 C 66.7995 -2.57527 -2.23367 0
M  V30 723 H 67.9925 -2.96236 -0.467382 0
M  V30 724 H 65.5455 -1.5493 -0.206467 0
M  V30 725 H 66.2805 -1.74542 -2.73323 0
M  V30 726 H 66.0655 -3.36613 -2.01083 0
M  V30 727 H 67.5555 -2.98201 -2.92346 0
M  V30 728 N 67.9926 0.231505 -1.5589 0
M  V30 729 C 69.4086 0.580748 -1.48659 0
M  V30 730 C 69.6086 1.87617 -0.73498 0
M  V30 731 O 68.6646 2.51046 -0.270586 0
M  V30 732 C 69.9776 0.669202 -2.93159 0
M  V30 733 C 71.5256 0.760499 -3.03621 0
M  V30 734 C 72.0006 0.880383 -4.49459 0
M  V30 735 N 73.4916 0.944861 -4.53461 0
M  V30 736 C 74.2266 1.05716 -5.63571 0
M  V30 737 N 73.7226 1.13403 -6.83456 0
M  V30 738 N 75.5156 1.09152 -5.514 0
M  V30 739 H 67.6666 -0.618695 -2.03189 0
M  V30 740 H 69.9296 -0.215728 -0.923128 0
M  V30 741 H 69.6356 -0.212904 -3.51055 0
M  V30 742 H 69.5096 1.5361 -3.44505 0
M  V30 743 H 71.8966 1.63305 -2.45796 0
M  V30 744 H 71.9776 -0.131864 -2.5546 0
M  V30 745 H 71.6216 0.0123284 -5.07899 0
M  V30 746 H 71.5516 1.78802 -4.95316 0
M  V30 747 H 74.0426 0.896176 -3.6712 0
M  V30 748 H 74.3556 1.21921 -7.63122 0
M  V30 749 H 72.7006 1.10333 -6.86186 0
M  V30 750 H 75.8916 1.02805 -4.56671 0
M  V30 751 H 76.0646 1.17558 -6.37247 0
M  V30 752 N 69.4707 1.49531 0.497807 0
M  V30 753 C 70.3807 1.69176 1.62532 0
M  V30 754 C 71.3967 0.5744 1.64246 0
M  V30 755 O 72.5727 0.849497 1.82608 0
M  V30 756 C 69.6377 1.75695 2.98885 0
M  V30 757 C 68.6987 2.9929 3.07773 0
M  V30 758 C 67.9317 3.05488 4.37622 0
M  V30 759 O 68.1547 2.19192 5.26603 0
M  V30 760 O 67.0887 3.9798 4.51548 0
M  V30 761 H 70.9147 2.647 1.48887 0
M  V30 762 H 68.4997 1.3331 0.674441 0
M  V30 763 H 70.3817 1.82317 3.79919 0
M  V30 764 H 69.0567 0.8335 3.12785 0
M  V30 765 H 67.9637 2.98183 2.25915 0
M  V30 766 H 69.2967 3.91125 2.98801 0
M  V30 767 N 70.9488 -0.749086 1.3866 0
M  V30 768 C 71.9118 -1.84457 1.36045 0
M  V30 769 C 72.9118 -1.58682 0.260122 0
M  V30 770 O 74.1018 -1.66343 0.517261 0
M  V30 771 C 71.2338 -3.22008 1.11911 0
M  V30 772 H 72.4268 -1.88182 2.33512 0
M  V30 773 H 69.9798 -0.951266 1.24019 0
M  V30 774 H 70.7148 -3.2395 0.150686 0
M  V30 775 H 70.4998 -3.42111 1.91579 0
M  V30 776 H 71.9898 -4.0208 1.12788 0
M  V30 777 N 72.4269 -1.23603 -0.977757 0
M  V30 778 C 73.6749 -1.06759 -1.71601 0
M  V30 779 C 73.9959 0.395929 -1.90938 0
M  V30 780 O 73.2659 1.28356 -1.47992 0
M  V30 781 H 71.8459 -0.392062 -0.635843 0
M  V30 782 H 74.5079 -1.55362 -1.1768 0
M  V30 783 H 73.6039 -1.55763 -2.70452 0
M  V30 784 N 73.905 1.17692 -1.04816 0
M  V30 785 C 75.152 1.87859 -0.75599 0
M  V30 786 C 75.48 1.80812 0.716752 0
M  V30 787 O 74.735 1.20819 1.53952 0
M  V30 788 C 75.034 3.37462 -1.17703 0
M  V30 789 C 74.7 3.64713 -2.65133 0
M  V30 790 C 73.362 3.71859 -3.05408 0
M  V30 791 C 75.714 3.76492 -3.60421 0
M  V30 792 C 73.042 3.88271 -4.39843 0
M  V30 793 C 75.394 3.94421 -4.94585 0
M  V30 794 C 74.058 3.99806 -5.3452 0
M  V30 795 H 73.328 0.687425 -0.276636 0
M  V30 796 H 75.975 1.39255 -1.31455 0
M  V30 797 H 74.28 3.88097 -0.537395 0
M  V30 798 H 75.977 3.90109 -0.928218 0
M  V30 799 H 72.567 3.59772 -2.32942 0
M  V30 800 H 76.751 3.70295 -3.30447 0
M  V30 801 H 72.007 3.90687 -4.70291 0
M  V30 802 H 76.181 4.02477 -5.68318 0
M  V30 803 H 73.808 4.12276 -6.38696 0
M  V30 804 N 75.3831 0.828654 1.34056 0
M  V30 805 C 76.3461 0.259927 2.27721 0
M  V30 806 C 77.3461 -0.565478 1.50529 0
M  V30 807 O 78.5361 -0.38075 1.69988 0
M  V30 808 C 75.6681 -0.634944 3.34935 0
M  V30 809 H 76.8611 1.0863 2.79534 0
M  V30 810 H 74.4141 0.600951 1.44285 0
M  V30 811 H 75.1491 -1.48416 2.88346 0
M  V30 812 H 74.9341 -0.0444999 3.92075 0
M  V30 813 H 76.4241 -1.02648 4.04788 0
M  V30 814 N 76.8612 -1.46375 0.584142 0
M  V30 815 C 77.7912 -2.33103 -0.136037 0
M  V30 816 C 78.7722 -1.45431 -0.882255 0
M  V30 817 O 79.9572 -1.74246 -0.857434 0
M  V30 818 C 77.0872 -3.27731 -1.14933 0
M  V30 819 C 76.0412 -4.24855 -0.517862 0
M  V30 820 C 75.3672 -5.09001 -1.63773 0
M  V30 821 C 76.6672 -5.19439 0.545886 0
M  V30 822 H 78.3612 -2.93568 0.588086 0
M  V30 823 H 75.9072 -1.41166 0.284259 0
M  V30 824 H 77.8602 -3.87261 -1.66153 0
M  V30 825 H 76.5842 -2.65377 -1.90375 0
M  V30 826 H 75.2432 -3.6659 -0.0267361 0
M  V30 827 H 74.8912 -4.43031 -2.38185 0
M  V30 828 H 74.5912 -5.74777 -1.22085 0
M  V30 829 H 76.1152 -5.71396 -2.15266 0
M  V30 830 H 77.5292 -5.73177 0.118704 0
M  V30 831 H 75.9262 -5.93566 0.88317 0
M  V30 832 H 76.9962 -4.63285 1.43162 0
M  V30 833 N 78.3393 -0.321999 -1.54275 0
M  V30 834 C 79.6163 0.335232 -1.92706 0
M  V30 835 C 79.9963 1.70006 -1.25145 0
M  V30 836 O 79.3443 2.25067 -0.394596 0
M  V30 837 C 79.5543 0.429008 -3.46353 0
M  V30 838 C 80.9023 0.690029 -4.18956 0
M  V30 839 O 81.9263 0.511992 -3.52501 0
M  V30 840 O 80.7853 1.03338 -5.36641 0
M  V30 841 H 77.8793 0.191143 -0.804608 0
M  V30 842 H 80.4253 -0.3716 -1.65581 0
M  V30 843 H 79.1973 -0.529611 -3.87699 0
M  V30 844 H 78.8203 1.18348 -3.79578 0
M  V30 845 N 79.8174 1.5752 -0.0501392 0
M  V30 846 C 81.2284 1.80271 0.485705 0
M  V30 847 C 81.5794 0.96228 1.70981 0
M  V30 848 O 80.7044 0.178578 2.15662 0
M  V30 849 C 81.2994 3.26957 0.887938 0
M  V30 850 C 79.8584 3.5063 1.36877 0
M  V30 851 C 79.0054 2.75165 0.343468 0
M  V30 852 H 81.9564 1.56281 -0.276028 0
M  V30 853 H 81.9774 3.37821 1.75093 0
M  V30 854 H 81.4894 3.881 -0.0031809 0
M  V30 855 H 79.5904 2.94766 2.27911 0
M  V30 856 H 79.7034 4.59343 1.36164 0
M  V30 857 H 78.0674 2.4127 0.816128 0
M  V30 858 H 78.8504 3.39034 -0.539548 0
M  V30 859 N 81.2955 -0.223234 1.56011 0
M  V30 860 C 82.7115 -0.572856 1.48965 0
M  V30 861 C 82.9115 -1.87225 0.74492 0
M  V30 862 O 81.9675 -2.50899 0.283896 0
M  V30 863 C 83.2805 -0.653646 2.9351 0
M  V30 864 C 84.8285 -0.744386 3.0402 0
M  V30 865 C 85.3035 -0.856535 4.49919 0
M  V30 866 N 86.7945 -0.9208 4.53955 0
M  V30 867 C 87.5295 -1.02726 5.64123 0
M  V30 868 N 87.0255 -1.09777 6.84047 0
M  V30 869 N 88.8185 -1.06226 5.51971 0
M  V30 870 H 80.9695 0.629462 2.02858 0
M  V30 871 H 83.2325 0.220621 0.921971 0
M  V30 872 H 82.9385 0.231518 3.50937 0
M  V30 873 H 82.8125 -1.51781 3.45315 0
M  V30 874 H 85.1995 -1.61999 2.46658 0
M  V30 875 H 85.2805 0.14541 2.55386 0
M  V30 876 H 84.9245 0.0146069 5.07898 0
M  V30 877 H 84.8545 -1.76172 4.96257 0
M  V30 878 H 87.3455 -0.876694 3.6759 0
M  V30 879 H 87.6585 -1.17872 7.63758 0
M  V30 880 H 86.0035 -1.06693 6.86762 0
M  V30 881 H 89.1945 -1.00382 4.5721 0
M  V30 882 H 89.3675 -1.14177 6.37862 0
M  V30 883 N 82.7736 -1.49793 -0.48987 0
M  V30 884 C 83.7056 -1.63413 -1.60713 0
M  V30 885 C 84.7186 -0.516329 -1.54395 0
M  V30 886 O 85.9076 -0.788812 -1.60125 0
M  V30 887 C 83.0076 -1.58516 -2.99543 0
M  V30 888 C 82.1806 -2.86016 -3.30928 0
M  V30 889 C 81.2396 -2.74018 -4.49222 0
M  V30 890 O 80.2656 -3.47964 -4.50455 0
M  V30 891 N 81.4676 -1.86309 -5.4979 0
M  V30 892 H 84.2326 -2.59777 -1.49452 0
M  V30 893 H 81.7936 -1.47022 -0.677955 0
M  V30 894 H 83.7856 -1.48128 -3.76617 0
M  V30 895 H 82.3556 -0.69965 -3.0467 0
M  V30 896 H 81.5756 -3.10672 -2.42645 0
M  V30 897 H 82.8636 -3.70521 -3.487 0
M  V30 898 H 82.2616 -1.2551 -5.51601 0
M  V30 899 H 80.8186 -1.81837 -6.25922 0
M  V30 900 N 84.2517 0.741722 -1.39055 0
M  V30 901 C 85.2147 1.83733 -1.37021 0
M  V30 902 C 86.2147 1.58542 -0.268534 0
M  V30 903 O 87.4047 1.66067 -0.526076 0
M  V30 904 C 84.5367 3.2141 -1.13617 0
M  V30 905 H 85.7297 1.86941 -2.34506 0
M  V30 906 H 83.2827 0.944676 -1.24521 0
M  V30 907 H 84.0177 3.23865 -0.167863 0
M  V30 908 H 83.8027 3.4109 -1.93391 0
M  V30 909 H 85.2927 4.01477 -1.14918 0
M  V30 910 N 85.7298 1.2412 0.971189 0
M  V30 911 C 86.9548 1.10667 1.75407 0
M  V30 912 C 87.3798 -0.337048 1.85056 0
M  V30 913 O 86.7378 -1.24396 1.31892 0
M  V30 914 C 86.7858 1.74726 3.15441 0
M  V30 915 O 85.8898 1.01566 3.99697 0
M  V30 916 H 85.2308 0.387341 0.539317 0
M  V30 917 H 87.7608 1.64358 1.2185 0
M  V30 918 H 87.7708 1.80341 3.6598 0
M  V30 919 H 86.4458 2.79773 3.07734 0
M  V30 920 H 85.0228 1.03713 3.58187 0
M  V30 921 N 87.2079 -1.17134 1.05439 0
M  V30 922 C 88.1709 -2.19439 0.661764 0
M  V30 923 C 89.1709 -1.58199 -0.288042 0
M  V30 924 O 90.3609 -1.74053 -0.0715803 0
M  V30 925 C 87.4929 -3.40889 -0.0276209 0
M  V30 926 H 88.6859 -2.55688 1.56728 0
M  V30 927 H 86.2389 -1.31259 0.848567 0
M  V30 928 H 86.9739 -3.10187 -0.94629 0
M  V30 929 H 86.7589 -3.86586 0.655238 0
M  V30 930 H 88.2489 -4.16603 -0.288342 0
M  V30 931 N 88.686 -0.835752 -1.33615 0
M  V30 932 C 89.933 -0.429959 -1.97883 0
M  V30 933 C 90.261 1.01006 -1.66217 0
M  V30 934 O 89.516 1.72047 -0.93265 0
M  V30 935 C 89.815 -0.593925 -3.52431 0
M  V30 936 C 89.481 -2.00158 -4.04039 0
M  V30 937 C 88.143 -2.38662 -4.17844 0
M  V30 938 C 90.495 -2.92117 -4.31644 0
M  V30 939 C 87.823 -3.68435 -4.56588 0
M  V30 940 C 90.175 -4.21368 -4.71838 0
M  V30 941 C 88.839 -4.59833 -4.83849 0
M  V30 942 H 88.109 -0.157333 -0.724104 0
M  V30 943 H 90.756 -1.06217 -1.59343 0
M  V30 944 H 89.061 0.121619 -3.91611 0
M  V30 945 H 90.758 -0.260282 -4.00154 0
M  V30 946 H 87.348 -1.69252 -3.93766 0
M  V30 947 H 91.532 -2.63608 -4.20505 0
M  V30 948 H 86.788 -3.98046 -4.64079 0
M  V30 949 H 90.962 -4.92703 -4.92155 0
M  V30 950 H 88.589 -5.60438 -5.13627 0
M  V30 951 N 90.1641 1.46063 -0.591896 0
M  V30 952 C 91.5801 1.57561 -0.254288 0
M  V30 953 C 91.7801 1.58565 1.24336 0
M  V30 954 O 90.8361 1.50753 2.02558 0
M  V30 955 C 92.1491 2.86549 -0.911611 0
M  V30 956 C 93.6971 3.00197 -0.886059 0
M  V30 957 C 94.1721 4.31933 -1.5231 0
M  V30 958 N 95.6631 4.38654 -1.48786 0
M  V30 959 C 96.3981 5.39222 -1.95006 0
M  V30 960 N 95.8941 6.46414 -2.49241 0
M  V30 961 N 97.6871 5.3048 -1.85868 0
M  V30 962 H 89.8381 1.43655 -1.56451 0
M  V30 963 H 92.1011 0.68583 -0.654478 0
M  V30 964 H 91.8071 2.91651 -1.96551 0
M  V30 965 H 91.6811 3.74794 -0.425368 0
M  V30 966 H 94.0681 2.9467 0.159246 0
M  V30 967 H 94.1491 2.13403 -1.41041 0
M  V30 968 H 93.7931 4.38217 -2.56765 0
M  V30 969 H 93.7231 5.17516 -0.973891 0
M  V30 970 H 96.2141 3.61793 -1.09151 0
M  V30 971 H 96.5271 7.19376 -2.82344 0
M  V30 972 H 94.8721 6.47208 -2.53272 0
M  V30 973 H 98.0631 4.45643 -1.43248 0
M  V30 974 H 98.2361 6.08711 -2.22204 0
M  V30 975 N 91.6422 0.330177 1.54103 0
M  V30 976 C 92.8882 -0.270806 2.00984 0
M  V30 977 C 93.2212 -1.51265 1.21789 0
M  V30 978 O 92.4962 -1.92142 0.301927 0
M  V30 979 C 92.7792 -0.598339 3.55094 0
M  V30 980 C 92.6322 0.654674 4.4501 0
M  V30 981 C 93.9512 -1.41334 4.16789 0
M  V30 982 H 91.0702 -0.0969531 0.730595 0
M  V30 983 H 93.7122 0.448066 1.84641 0
M  V30 984 H 91.8622 -1.21078 3.69151 0
M  V30 985 H 93.5342 1.29285 4.42813 0
M  V30 986 H 91.7772 1.28224 4.14416 0
M  V30 987 H 92.4482 0.380944 5.50684 0
M  V30 988 H 94.9242 -0.895597 4.06347 0
M  V30 989 H 93.8002 -1.61127 5.24718 0
M  V30 990 H 94.0612 -2.41146 3.70541 0
M  V30 991 N 93.1203 -1.57491 0.0584922 0
M  V30 992 C 94.3663 -1.93264 -0.614558 0
M  V30 993 C 94.6993 -0.937717 -1.7006 0
M  V30 994 O 93.9743 0.0351652 -1.94468 0
M  V30 995 C 94.2573 -3.3938 -1.20386 0
M  V30 996 C 94.1103 -4.49625 -0.125375 0
M  V30 997 C 95.4293 -3.86039 -2.11334 0
M  V30 998 H 92.5483 -0.702791 -0.221933 0
M  V30 999 H 95.1903 -1.8961 0.12175 0
M  V30 1000 H 93.3403 -3.42626 -1.83139 0
M  V30 1001 H 95.0123 -4.58506 0.506971 0
M  V30 1002 H 93.2553 -4.30354 0.545672 0
M  V30 1003 H 93.9263 -5.48967 -0.577861 0
M  V30 1004 H 96.4023 -3.84716 -1.58534 0
M  V30 1005 H 95.2783 -4.88914 -2.49507 0
M  V30 1006 H 95.5393 -3.23215 -3.01636 0
M  V30 1007 N 94.5984 0.214957 -1.56127 0
M  V30 1008 C 95.8234 0.95924 -1.83884 0
M  V30 1009 C 96.2484 1.7689 -0.639644 0
M  V30 1010 O 95.6064 1.76566 0.411601 0
M  V30 1011 C 95.6544 1.84723 -3.09693 0
M  V30 1012 O 94.7584 2.94346 -2.8885 0
M  V30 1013 H 94.0994 0.27125 -0.606069 0
M  V30 1014 H 96.6294 0.226276 -2.03345 0
M  V30 1015 H 96.6394 2.25576 -3.39969 0
M  V30 1016 H 95.3144 1.25218 -3.96602 0
M  V30 1017 H 93.8914 2.57391 -2.69823 0
M  V30 1018 N 96.0765 1.50051 0.48192 0
M  V30 1019 C 97.0245 1.68635 1.60203 0
M  V30 1020 C 98.0185 0.552184 1.60148 0
M  V30 1021 O 99.2245 0.732377 1.64427 0
M  V30 1022 H 95.5995 0.532081 0.531407 0
M  V30 1023 H 97.5705 2.62616 1.41688 0
M  V30 1024 C 96.3195 1.78775 2.9822 0
M  V30 1025 H 95.6425 2.6543 2.98976 0
M  V30 1026 H 97.0825 1.95806 3.7608 0
M  V30 1027 C 95.5415 0.536849 3.32595 0
M  V30 1028 O 96.0715 -0.328897 4.00351 0
M  V30 1029 N 94.2775 0.394091 2.87915 0
M  V30 1030 H 93.8245 1.09962 2.32951 0
M  V30 1031 H 93.7825 -0.441737 3.11281 0
M  V30 1032 N 97.5546 -0.734337 1.39446 0
M  V30 1033 C 98.7796 -1.52866 1.40167 0
M  V30 1034 C 99.2046 -1.881 -0.00171513 0
M  V30 1035 O 98.5626 -1.51957 -0.988879 0
M  V30 1036 C 98.6106 -2.79235 2.28167 0
M  V30 1037 O 97.7146 -3.75185 1.71201 0
M  V30 1038 H 97.0556 -0.461618 0.477289 0
M  V30 1039 H 99.5856 -0.905949 1.8345 0
M  V30 1040 H 99.5956 -3.27963 2.42702 0
M  V30 1041 H 98.2706 -2.52923 3.30156 0
M  V30 1042 H 96.8476 -3.33958 1.65912 0
M  V30 1043 N 99.0327 -1.24633 -0.964593 0
M  V30 1044 C 99.9957 -1.0424 -2.04124 0
M  V30 1045 C 100.996 0.00137563 -1.608 0
M  V30 1046 O 102.186 -0.239883 -1.7254 0
M  V30 1047 C 99.3177 -0.580588 -3.3592 0
M  V30 1048 H 100.511 -1.99803 -2.23649 0
M  V30 1049 H 98.0637 -1.06899 -1.14027 0
M  V30 1050 H 98.7987 0.3781 -3.22088 0
M  V30 1051 H 98.5837 -1.33398 -3.6871 0
M  V30 1052 H 100.074 -0.459034 -4.15069 0
M  V30 1053 N 100.511 1.16574 -1.06058 0
M  V30 1054 C 101.922 1.68662 -0.800632 0
M  V30 1055 C 102.273 1.84184 0.67608 0
M  V30 1056 O 101.398 1.53568 1.52466 0
M  V30 1057 C 101.993 3.06356 -1.44676 0
M  V30 1058 C 100.552 3.55575 -1.23465 0
M  V30 1059 C 99.6988 2.31616 -1.52477 0
M  V30 1060 H 102.65 1.00969 -1.22438 0
M  V30 1061 H 102.671 3.70636 -0.860788 0
M  V30 1062 H 102.183 2.95027 -2.52152 0
M  V30 1063 H 100.284 3.72167 -0.179527 0
M  V30 1064 H 100.397 4.37812 -1.94571 0
M  V30 1065 H 98.7608 2.36512 -0.945209 0
M  V30 1066 H 99.5438 2.22887 -2.61106 0
M  V30 1067 N 101.989 0.842826 1.3317 0
M  V30 1068 C 102.939 0.250877 2.26616 0
M  V30 1069 C 103.923 -0.596427 1.49437 0
M  V30 1070 O 105.115 -0.447747 1.71243 0
M  V30 1071 C 102.244 -0.569779 3.38539 0
M  V30 1072 C 101.33 0.289254 4.23112 0
M  V30 1073 N 101.721 1.36987 4.86897 0
M  V30 1074 C 100.019 0.0769631 4.45934 0
M  V30 1075 C 100.72 1.89737 5.49886 0
M  V30 1076 N 99.6959 1.19827 5.30229 0
M  V30 1077 H 103.498 1.07718 2.73448 0
M  V30 1078 H 101.012 0.687693 1.47121 0
M  V30 1079 H 103.009 -1.01018 4.04476 0
M  V30 1080 H 101.669 -1.39401 2.93253 0
M  V30 1081 H 102.68 1.75277 4.87338 0
M  V30 1082 H 99.3569 -0.713507 4.11358 0
M  V30 1083 H 100.747 2.80253 6.10662 0
M  V30 1084 N 103.467 -1.45747 0.599634 0
M  V30 1085 C 104.397 -2.33235 -0.111306 0
M  V30 1086 C 105.378 -1.46359 -0.866781 0
M  V30 1087 O 106.563 -1.75146 -0.838904 0
M  V30 1088 C 103.693 -3.28932 -1.11451 0
M  V30 1089 C 102.647 -4.25381 -0.472772 0
M  V30 1090 C 101.973 -5.1071 -1.58365 0
M  V30 1091 C 103.273 -5.18831 0.600948 0
M  V30 1092 H 104.967 -2.92927 0.61919 0
M  V30 1093 H 102.513 -1.40857 0.299215 0
M  V30 1094 H 104.466 -3.89002 -1.62036 0
M  V30 1095 H 103.19 -2.67381 -1.8755 0
M  V30 1096 H 101.849 -3.66598 0.0121472 0
M  V30 1097 H 101.497 -4.45533 -2.33473 0
M  V30 1098 H 101.197 -5.7604 -1.15982 0
M  V30 1099 H 102.721 -5.73647 -2.09194 0
M  V30 1100 H 104.135 -5.73019 0.179491 0
M  V30 1101 H 102.532 -5.92595 0.946076 0
M  V30 1102 H 103.602 -4.6174 1.48068 0
M  V30 1103 N 104.945 -0.338344 -1.53925 0
M  V30 1104 C 106.191 0.260143 -2.01125 0
M  V30 1105 C 106.524 1.50617 -1.22589 0
M  V30 1106 O 105.799 1.91979 -0.312113 0
M  V30 1107 C 106.082 0.579499 -3.55407 0
M  V30 1108 C 105.935 -0.678264 -4.44657 0
M  V30 1109 C 107.254 1.39122 -4.17532 0
M  V30 1110 H 104.373 0.0930772 -0.731099 0
M  V30 1111 H 107.015 -0.457852 -1.84401 0
M  V30 1112 H 105.165 1.19118 -3.69788 0
M  V30 1113 H 106.837 -1.31631 -4.42121 0
M  V30 1114 H 105.08 -1.3042 -4.13731 0
M  V30 1115 H 105.751 -0.410143 -5.50474 0
M  V30 1116 H 108.227 0.874035 -4.06817 0
M  V30 1117 H 107.103 1.58342 -5.25565 0
M  V30 1118 H 107.364 2.39178 -3.71815 0
M  V30 1119 N 106.423 1.57458 -0.0668435 0
M  V30 1120 C 107.7 1.8469 0.644132 0
M  V30 1121 C 108.08 0.958343 1.88093 0
M  V30 1122 O 107.428 0.0233579 2.28488 0
M  V30 1123 C 107.638 3.34767 0.986509 0
M  V30 1124 C 108.986 4.02159 1.36212 0
M  V30 1125 O 110.01 3.39484 1.07839 0
M  V30 1126 O 108.869 5.12694 1.89227 0
M  V30 1127 H 105.963 0.762816 0.319437 0
M  V30 1128 H 108.509 1.6942 -0.0973986 0
M  V30 1129 H 107.281 3.91151 0.107883 0
M  V30 1130 H 106.904 3.55281 1.78497 0
M  V30 1131 N 107.901 -0.206675 1.56239 0
M  V30 1132 C 109.15 -0.926964 1.79138 0
M  V30 1133 C 109.463 -1.84901 0.638043 0
M  V30 1134 O 110.669 -2.60906 0.751033 0
M  V30 1135 C 109.125 -1.6986 3.17294 0
M  V30 1136 C 108.733 -0.821956 4.40395 0
M  V30 1137 C 110.477 -2.40922 3.4951 0
M  V30 1138 C 108.384 -1.59179 5.69575 0
M  V30 1139 H 107.314 -0.349864 0.667915 0
M  V30 1140 H 109.965 -0.180487 1.8261 0
M  V30 1141 H 108.347 -2.48853 3.08039 0
M  V30 1142 H 109.521 -0.0715019 4.60745 0
M  V30 1143 H 107.836 -0.222741 4.15804 0
M  V30 1144 H 110.433 -2.99047 4.43255 0
M  V30 1145 H 110.776 -3.14542 2.72707 0
M  V30 1146 H 111.309 -1.68905 3.60161 0
M  V30 1147 H 108.048 -0.898589 6.49312 0
M  V30 1148 H 107.568 -2.31648 5.53262 0
M  V30 1149 H 109.247 -2.14862 6.10281 0
M  V30 1150 N 109.379 -1.50304 -0.473955 0
M  V30 1151 C 110.327 -1.69482 -1.59307 0
M  V30 1152 C 111.321 -0.560669 -1.59853 0
M  V30 1153 O 112.527 -0.741087 -1.64036 0
M  V30 1154 H 108.902 -0.534892 -0.528578 0
M  V30 1155 H 110.873 -2.63364 -1.40293 0
M  V30 1156 C 109.622 -1.80354 -2.97267 0
M  V30 1157 H 108.945 -2.67012 -2.97564 0
M  V30 1158 H 110.385 -1.97798 -3.75036 0
M  V30 1159 C 108.844 -0.55448 -3.32306 0
M  V30 1160 O 109.374 0.307661 -4.0052 0
M  V30 1161 N 107.58 -0.409354 -2.87702 0
M  V30 1162 H 107.127 -1.11196 -2.32364 0
M  V30 1163 H 107.085 0.425223 -3.11511 0
M  V30 1164 N 110.857 0.726932 -1.39834 0
M  V30 1165 C 112.268 1.30558 -1.3346 0
M  V30 1166 C 112.619 1.962 -0.00273003 0
M  V30 1167 O 111.744 1.96826 0.899371 0
M  V30 1168 C 112.339 2.37404 -2.41713 0
M  V30 1169 C 110.898 2.90921 -2.38835 0
M  V30 1170 C 110.045 1.64578 -2.2318 0
M  V30 1171 H 112.996 0.523862 -1.49804 0
M  V30 1172 H 113.017 3.17984 -2.08966 0
M  V30 1173 H 112.529 1.89599 -3.38635 0
M  V30 1174 H 110.63 3.42985 -1.45575 0
M  V30 1175 H 110.743 3.43487 -3.33997 0
M  V30 1176 H 109.107 1.89219 -1.70494 0
M  V30 1177 H 109.89 1.18814 -3.22084 0
M  V30 1178 N 112.336 1.25143 0.95797 0
M  V30 1179 C 113.561 1.12521 1.74223 0
M  V30 1180 C 113.986 -0.317402 1.85403 0
M  V30 1181 O 113.344 -1.2299 1.33204 0
M  V30 1182 C 113.392 1.78062 3.1357 0
M  V30 1183 O 112.496 1.058 3.98598 0
M  V30 1184 H 111.837 0.39304 0.535178 0
M  V30 1185 H 114.367 1.65641 1.201 0
M  V30 1186 H 114.377 1.84213 3.64046 0
M  V30 1187 H 113.052 2.83021 3.04749 0
M  V30 1188 H 111.629 1.07506 3.57067 0
M  V30 1189 N 113.814 -1.1601 1.06675 0
M  V30 1190 C 115.039 -1.91068 0.806706 0
M  V30 1191 C 115.464 -1.77112 -0.633485 0
M  V30 1192 O 114.822 -1.09908 -1.44187 0
M  V30 1193 C 114.87 -3.39655 1.21106 0
M  V30 1194 O 113.974 -4.10893 0.352189 0
M  V30 1195 H 113.315 -0.595125 0.294486 0
M  V30 1196 H 115.845 -1.46955 1.42356 0
M  V30 1197 H 115.855 -3.90434 1.18428 0
M  V30 1198 H 114.53 -3.49132 2.26008 0
M  V30 1199 H 113.107 -3.70285 0.440868 0
M  V30 1200 N 115.292 -0.849877 -1.32721 0
M  V30 1201 C 116.54 -0.450032 -1.97026 0
M  V30 1202 C 116.861 0.996604 -1.67609 0
M  V30 1203 O 116.131 1.6958 -0.980786 0
M  V30 1204 H 114.711 -0.163426 -0.728904 0
M  V30 1205 H 117.373 -1.08526 -1.6189 0
M  V30 1206 H 116.469 -0.591146 -3.0645 0
M  V30 1207 N 116.77 1.45427 -0.607355 0
M  V30 1208 C 117.7 2.3329 0.0989352 0
M  V30 1209 C 118.681 1.46816 0.859007 0
M  V30 1210 O 119.866 1.75588 0.829604 0
M  V30 1211 C 116.996 3.29518 1.09705 0
M  V30 1212 C 115.95 4.25626 0.450206 0
M  V30 1213 C 115.276 5.11542 1.55655 0
M  V30 1214 C 116.576 5.18505 -0.628455 0
M  V30 1215 H 118.27 2.92595 -0.634716 0
M  V30 1216 H 115.816 1.40696 -0.306681 0
M  V30 1217 H 117.769 3.89855 1.59971 0
M  V30 1218 H 116.493 2.68372 1.86129 0
M  V30 1219 H 115.152 3.66586 -0.0315886 0
M  V30 1220 H 114.8 4.46765 2.31107 0
M  V30 1221 H 114.5 5.76647 1.12925 0
M  V30 1222 H 116.024 5.74748 2.06148 0
M  V30 1223 H 117.438 5.72916 -0.209877 0
M  V30 1224 H 115.835 5.92085 -0.977489 0
M  V30 1225 H 116.905 4.60948 -1.50514 0
M  V30 1226 N 118.248 0.346503 1.53744 0
M  V30 1227 C 119.178 -0.501193 2.28058 0
M  V30 1228 C 120.159 -1.10014 1.29734 0
M  V30 1229 O 121.344 -1.12097 1.58581 0
M  V30 1230 C 118.474 -1.65078 3.05559 0
M  V30 1231 C 117.428 -1.18003 4.11411 0
M  V30 1232 C 116.754 -2.41837 4.76884 0
M  V30 1233 C 118.054 -0.278394 5.21558 0
M  V30 1234 H 119.748 0.11875 2.99164 0
M  V30 1235 H 117.294 0.0585531 1.43881 0
M  V30 1236 H 119.247 -2.25028 3.56287 0
M  V30 1237 H 117.971 -2.29767 2.32109 0
M  V30 1238 H 116.63 -0.603331 3.61601 0
M  V30 1239 H 116.278 -3.0494 4.00026 0
M  V30 1240 H 115.978 -2.1102 5.48402 0
M  V30 1241 H 117.502 -3.02508 5.30397 0
M  V30 1242 H 118.916 -0.784823 5.67903 0
M  V30 1243 H 117.313 -0.0619707 6.00068 0
M  V30 1244 H 118.383 0.684677 4.80042 0
M  V30 1245 N 119.726 -1.57421 0.075193 0
M  V30 1246 C 120.972 -1.93905 -0.594025 0
M  V30 1247 C 121.305 -0.955701 -1.69056 0
M  V30 1248 O 120.58 0.0145373 -1.94495 0
M  V30 1249 C 120.863 -3.40638 -1.1678 0
M  V30 1250 C 120.716 -4.49733 -0.0776792 0
M  V30 1251 C 122.035 -3.88259 -2.07228 0
M  V30 1252 H 119.154 -0.705105 -0.214466 0
M  V30 1253 H 121.796 -1.8947 0.141854 0
M  V30 1254 H 119.946 -3.44549 -1.79494 0
M  V30 1255 H 121.618 -4.57942 0.555573 0
M  V30 1256 H 119.861 -4.29751 0.591286 0
M  V30 1257 H 120.532 -5.49549 -0.519603 0
M  V30 1258 H 123.008 -3.86376 -1.54445 0
M  V30 1259 H 121.884 -4.91533 -2.44308 0
M  V30 1260 H 122.145 -3.26396 -2.98191 0
M  V30 1261 N 121.204 0.198386 -1.56346 0
M  V30 1262 C 122.432 0.935572 -1.84539 0
M  V30 1263 C 122.847 1.76989 -0.657281 0
M  V30 1264 O 122.204 1.78626 0.374043 0
M  V30 1265 C 122.255 1.8344 -3.11499 0
M  V30 1266 O 121.976 1.03377 -4.25728 0
M  V30 1267 C 123.477 2.68355 -3.52846 0
M  V30 1268 H 120.697 0.273126 -0.612897 0
M  V30 1269 H 123.241 0.20663 -2.03453 0
M  V30 1270 H 121.396 2.51701 -2.94492 0
M  V30 1271 H 121.81 1.64599 -4.98003 0
M  V30 1272 H 123.284 3.27085 -4.44657 0
M  V30 1273 H 123.761 3.41901 -2.75681 0
M  V30 1274 H 124.367 2.05471 -3.72373 0
M  V30 1275 N 122.682 1.50554 0.465978 0
M  V30 1276 C 123.629 1.6979 1.56333 0
M  V30 1277 C 124.599 0.539239 1.57103 0
M  V30 1278 O 125.784 0.770401 1.74555 0
M  V30 1279 C 122.924 1.80273 2.94271 0
M  V30 1280 C 122.037 3.07674 3.0325 0
M  V30 1281 C 121.172 3.08922 4.32135 0
M  V30 1282 C 120.211 4.30755 4.34875 0
M  V30 1283 N 119.348 4.29714 5.55239 0
M  V30 1284 H 124.188 2.63472 1.39235 0
M  V30 1285 H 121.725 1.30602 0.676873 0
M  V30 1286 H 123.683 1.84332 3.74269 0
M  V30 1287 H 122.313 0.900258 3.09992 0
M  V30 1288 H 121.365 3.13062 2.16094 0
M  V30 1289 H 122.677 3.97642 3.01135 0
M  V30 1290 H 121.831 3.11738 5.20485 0
M  V30 1291 H 120.57 2.16792 4.36866 0
M  V30 1292 H 119.575 4.28146 3.44922 0
M  V30 1293 H 120.8 5.24117 4.31831 0
M  V30 1294 H 118.746 3.4044 5.60746 0
M  V30 1295 H 118.663 5.13456 5.54886 0
M  V30 1296 H 119.931 4.36683 6.457 0
M  V30 1297 N 124.16 -0.719506 1.40217 0
M  V30 1298 C 125.092 -1.84428 1.36084 0
M  V30 1299 C 126.105 -1.60597 0.266913 0
M  V30 1300 O 127.294 -1.70544 0.526983 0
M  V30 1301 C 124.394 -3.20757 1.094 0
M  V30 1302 C 123.567 -3.71817 2.30372 0
M  V30 1303 C 122.626 -4.86748 1.99907 0
M  V30 1304 O 121.652 -4.99603 2.72737 0
M  V30 1305 N 122.854 -5.7226 0.974635 0
M  V30 1306 H 125.619 -1.88473 2.33019 0
M  V30 1307 H 123.18 -0.900885 1.3452 0
M  V30 1308 H 125.172 -3.95235 0.870116 0
M  V30 1309 H 123.742 -3.11884 0.211452 0
M  V30 1310 H 122.962 -2.88514 2.68614 0
M  V30 1311 H 124.25 -4.02666 3.11026 0
M  V30 1312 H 123.648 -5.6448 0.371368 0
M  V30 1313 H 122.205 -6.46739 0.810656 0
M  V30 1314 N 125.638 -1.25649 -0.95132 0
M  V30 1315 C 126.585 -1.06323 -2.04851 0
M  V30 1316 C 127.555 0.0286491 -1.66075 0
M  V30 1317 O 128.74 -0.12917 -1.90362 0
M  V30 1318 C 125.88 -0.691529 -3.381 0
M  V30 1319 C 124.993 -1.85861 -3.89974 0
M  V30 1320 C 124.128 -1.43096 -5.11563 0
M  V30 1321 C 123.167 -2.56696 -5.55674 0
M  V30 1322 N 122.304 -2.14684 -6.68472 0
M  V30 1323 H 127.144 -2.00222 -2.20715 0
M  V30 1324 H 124.681 -0.997027 -1.08156 0
M  V30 1325 H 126.639 -0.456963 -4.1469 0
M  V30 1326 H 125.269 0.210474 -3.22113 0
M  V30 1327 H 124.321 -2.20639 -3.09875 0
M  V30 1328 H 125.633 -2.71161 -4.18657 0
M  V30 1329 H 124.787 -1.15624 -5.9558 0
M  V30 1330 H 123.526 -0.548722 -4.84603 0
M  V30 1331 H 122.531 -2.84909 -4.7022 0
M  V30 1332 H 123.756 -3.45503 -5.8464 0
M  V30 1333 H 121.702 -1.28881 -6.43215 0
M  V30 1334 H 121.619 -2.9353 -6.96689 0
M  V30 1335 H 122.887 -1.90397 -7.5589 0
M  V30 1336 N 127.117 1.15442 -1.07289 0
M  V30 1337 C 128.366 1.85557 -0.790669 0
M  V30 1338 C 128.679 1.83186 0.685739 0
M  V30 1339 O 129.885 2.48977 1.0827 0
M  V30 1340 C 128.341 3.33038 -1.36433 0
M  V30 1341 C 127.949 3.43856 -2.8717 0
M  V30 1342 C 129.693 4.0834 -1.1601 0
M  V30 1343 C 127.6 4.85482 -3.3773 0
M  V30 1344 H 126.53 0.695122 -0.292098 0
M  V30 1345 H 129.181 1.30219 -1.29287 0
M  V30 1346 H 127.563 3.88043 -0.789864 0
M  V30 1347 H 128.737 2.98961 -3.50655 0
M  V30 1348 H 127.052 2.81998 -3.06376 0
M  V30 1349 H 129.649 5.12859 -1.51262 0
M  V30 1350 H 129.992 4.16182 -0.0991007 0
M  V30 1351 H 130.525 3.59603 -1.70089 0
M  V30 1352 H 127.264 4.82823 -4.43353 0
M  V30 1353 H 126.784 5.30961 -2.78999 0
M  V30 1354 H 128.463 5.54335 -3.33648 0
M  V30 1355 N 128.595 0.856903 1.32268 0
M  V30 1356 C 129.872 0.382583 1.91822 0
M  V30 1357 C 130.252 -1.13407 1.78051 0
M  V30 1358 O 129.6 -1.95673 1.18001 0
M  V30 1359 C 129.81 0.849446 3.38505 0
M  V30 1360 C 131.158 0.867936 4.15634 0
M  V30 1361 O 132.182 0.794232 3.47232 0
M  V30 1362 O 131.041 0.972286 5.37781 0
M  V30 1363 H 128.135 0.112014 0.819379 0
M  V30 1364 H 130.681 0.943952 1.41024 0
M  V30 1365 H 129.453 1.89267 3.42482 0
M  V30 1366 H 129.076 0.265652 3.96712 0
M  V30 1367 N 130.073 -1.45103 0.615059 0
M  V30 1368 C 131.489 -1.57137 0.279322 0
M  V30 1369 C 131.689 -1.60523 -1.21797 0
M  V30 1370 O 130.745 -1.53956 -2.00134 0
M  V30 1371 C 132.058 -2.85062 0.957083 0
M  V30 1372 C 133.606 -2.98749 0.933706 0
M  V30 1373 C 134.081 -4.29455 1.59162 0
M  V30 1374 N 135.572 -4.36231 1.55746 0
M  V30 1375 C 136.307 -5.36051 2.0356 0
M  V30 1376 N 135.803 -6.42367 2.59494 0
M  V30 1377 N 137.596 -5.27456 1.94284 0
M  V30 1378 H 129.747 -1.41148 1.58717 0
M  V30 1379 H 132.01 -0.675331 0.665306 0
M  V30 1380 H 131.716 -2.88488 2.01166 0
M  V30 1381 H 131.59 -3.7407 0.48494 0
M  V30 1382 H 133.977 -2.94886 -0.112347 0
M  V30 1383 H 134.058 -2.11132 1.44419 0
M  V30 1384 H 133.702 -4.34077 2.63704 0
M  V30 1385 H 133.632 -5.15901 1.0561 0
M  V30 1386 H 136.123 -3.60011 1.14893 0
M  V30 1387 H 136.436 -7.14793 2.93752 0
M  V30 1388 H 134.781 -6.43097 2.63537 0
M  V30 1389 H 137.972 -4.43308 1.5032 0
M  V30 1390 H 138.145 -6.05099 2.3186 0
M  V30 1391 N 131.551 -0.354651 -1.53558 0
M  V30 1392 C 132.828 0.294281 -1.93374 0
M  V30 1393 C 133.208 1.67313 -1.28723 0
M  V30 1394 O 132.556 2.24179 -0.442247 0
M  V30 1395 C 132.766 0.355445 -3.47185 0
M  V30 1396 C 134.114 0.601007 -4.20325 0
M  V30 1397 O 135.138 0.437106 -3.53508 0
M  V30 1398 O 133.997 0.919322 -5.38712 0
M  V30 1399 H 131.091 0.174033 -0.808481 0
M  V30 1400 H 133.637 -0.406638 -1.64756 0
M  V30 1401 H 132.409 -0.611729 -3.86489 0
M  V30 1402 H 132.032 1.1027 -3.82003 0
M  V30 1403 N 133.029 1.57378 -0.0835403 0
M  V30 1404 C 133.959 2.1641 0.87686 0
M  V30 1405 C 134.94 1.09429 1.30228 0
M  V30 1406 O 136.125 1.37516 1.37124 0
M  V30 1407 C 133.255 2.73517 2.14022 0
M  V30 1408 C 132.209 3.85769 1.85381 0
M  V30 1409 C 131.535 4.29529 3.18448 0
M  V30 1410 C 132.835 5.09486 1.14984 0
M  V30 1411 H 134.529 2.96914 0.385059 0
M  V30 1412 H 132.075 1.42823 0.18377 0
M  V30 1413 H 134.028 3.13463 2.81636 0
M  V30 1414 H 132.752 1.90252 2.65465 0
M  V30 1415 H 131.411 3.46345 1.20169 0
M  V30 1416 H 131.059 3.43169 3.67755 0
M  V30 1417 H 130.759 5.05204 3.00071 0
M  V30 1418 H 132.283 4.72099 3.8724 0
M  V30 1419 H 133.697 5.46674 1.72687 0
M  V30 1420 H 132.094 5.90515 1.06826 0
M  V30 1421 H 133.164 4.84724 0.130749 0
M  V30 1422 N 134.507 -0.190092 1.56449 0
M  V30 1423 C 135.437 -1.23816 1.97969 0
M  V30 1424 C 136.418 -1.47201 0.852395 0
M  V30 1425 O 137.603 -1.58854 1.1171 0
M  V30 1426 C 134.733 -2.5813 2.3235 0
M  V30 1427 C 133.687 -2.49348 3.47864 0
M  V30 1428 C 133.013 -3.8798 3.67934 0
M  V30 1429 C 134.313 -2.01424 4.81898 0
M  V30 1430 H 136.007 -0.89311 2.85769 0
M  V30 1431 H 133.553 -0.428177 1.37487 0
M  V30 1432 H 135.506 -3.31637 2.59991 0
M  V30 1433 H 134.23 -2.94386 1.41438 0
M  V30 1434 H 132.889 -1.78297 3.20321 0
M  V30 1435 H 132.537 -4.21597 2.74344 0
M  V30 1436 H 132.237 -3.82978 4.45648 0
M  V30 1437 H 133.761 -4.63101 3.97957 0
M  V30 1438 H 135.175 -2.64693 5.08538 0
M  V30 1439 H 133.572 -2.07413 5.63116 0
M  V30 1440 H 134.642 -0.967677 4.75146 0
M  V30 1441 N 135.985 -1.50799 -0.457987 0
M  V30 1442 C 137.225 -1.64088 -1.21879 0
M  V30 1443 C 137.589 -0.339848 -1.88968 0
M  V30 1444 O 138.79 -0.348301 -2.66534 0
M  V30 1445 C 137.061 -2.79726 -2.2246 0
M  V30 1446 S 138.62 -3.13225 -3.07303 0
M  V30 1447 H 135.438 -0.578314 -0.41361 0
M  V30 1448 H 138.04 -1.88632 -0.513645 0
M  V30 1449 H 136.744 -3.72722 -1.71775 0
M  V30 1450 H 136.275 -2.57308 -2.97584 0
M  V30 1451 H 138.29 -2.58062 -4.23814 0
M  V30 1452 N 137.463 0.71206 -1.40597 0
M  V30 1453 C 138.879 1.02058 -1.22704 0
M  V30 1454 C 139.079 2.01228 -0.104729 0
M  V30 1455 O 138.135 2.4674 0.53624 0
M  V30 1456 C 139.448 1.56094 -2.57012 0
M  V30 1457 C 140.996 1.6806 -2.64054 0
M  V30 1458 C 141.471 2.25501 -3.9864 0
M  V30 1459 N 142.962 2.32882 -4.004 0
M  V30 1460 C 143.697 2.78317 -5.01325 0
M  V30 1461 N 143.193 3.23478 -6.12645 0
M  V30 1462 N 144.986 2.77733 -4.88693 0
M  V30 1463 H 137.137 0.0547896 -2.12329 0
M  V30 1464 H 139.4 0.0869027 -0.944008 0
M  V30 1465 H 139.106 0.906865 -3.39807 0
M  V30 1466 H 138.98 2.54564 -2.78347 0
M  V30 1467 H 141.367 2.32583 -1.81629 0
M  V30 1468 H 141.448 0.681802 -2.46546 0
M  V30 1469 H 141.092 1.61598 -4.81506 0
M  V30 1470 H 141.022 3.26102 -4.13479 0
M  V30 1471 H 143.513 2.00991 -3.20017 0
M  V30 1472 H 143.826 3.56725 -6.85542 0
M  V30 1473 H 142.171 3.21429 -6.16205 0
M  V30 1474 H 145.362 2.4179 -4.00818 0
M  V30 1475 H 145.535 3.12826 -5.67489 0
M  V30 1476 N 138.941 1.26152 0.944643 0
M  V30 1477 C 139.873 1.03199 2.04652 0
M  V30 1478 C 140.886 -0.00642356 1.62799 0
M  V30 1479 O 142.075 0.233263 1.76969 0
M  V30 1480 C 139.175 0.540111 3.34568 0
M  V30 1481 C 138.348 1.64697 4.05208 0
M  V30 1482 C 137.407 1.15374 5.13396 0
M  V30 1483 O 136.433 1.85013 5.38293 0
M  V30 1484 N 137.635 0.00031529 5.805 0
M  V30 1485 H 140.4 1.9808 2.2491 0
M  V30 1486 H 137.961 1.17491 1.11389 0
M  V30 1487 H 139.953 0.194401 4.04233 0
M  V30 1488 H 138.523 -0.315021 3.11009 0
M  V30 1489 H 137.743 2.16379 3.29506 0
M  V30 1490 H 139.031 2.3903 4.49157 0
M  V30 1491 H 138.429 -0.581336 5.62705 0
M  V30 1492 H 136.986 -0.286346 6.51171 0
M  V30 1493 N 140.419 -1.14872 1.07899 0
M  V30 1494 C 141.644 -1.90202 0.826926 0
M  V30 1495 C 142.069 -1.77774 -0.614664 0
M  V30 1496 O 141.427 -1.11431 -1.43013 0
M  V30 1497 C 141.475 -3.38352 1.24702 0
M  V30 1498 O 140.579 -4.10497 0.39575 0
M  V30 1499 H 139.92 -0.591968 0.300782 0
M  V30 1500 H 142.45 -1.45437 1.43907 0
M  V30 1501 H 142.46 -3.89156 1.22563 0
M  V30 1502 H 141.135 -3.46715 2.29698 0
M  V30 1503 H 139.712 -3.69796 0.480117 0
M  V30 1504 N 141.898 -0.863906 -1.31812 0
M  V30 1505 C 143.309 -0.52522 -1.7916 0
M  V30 1506 C 143.66 0.957518 -1.71248 0
M  V30 1507 O 142.785 1.74734 -1.27659 0
M  V30 1508 C 143.38 -0.9466 -3.25307 0
M  V30 1509 C 141.939 -0.659668 -3.70574 0
M  V30 1510 C 141.086 -1.14126 -2.52726 0
M  V30 1511 H 144.037 -1.05022 -1.1898 0
M  V30 1512 H 144.058 -0.266766 -3.79564 0
M  V30 1513 H 143.57 -2.02579 -3.31034 0
M  V30 1514 H 141.671 0.408416 -3.70355 0
M  V30 1515 H 141.784 -1.23245 -4.62977 0
M  V30 1516 H 140.148 -0.561216 -2.4844 0
M  V30 1517 H 140.931 -2.22775 -2.61201 0
M  V30 1518 N 143.376 1.44774 -0.622745 0
M  V30 1519 C 144.323 2.30635 0.0871679 0
M  V30 1520 C 145.293 1.42994 0.845097 0
M  V30 1521 O 146.478 1.71907 0.827812 0
M  V30 1522 C 143.618 3.28144 1.06844 0
M  V30 1523 C 142.731 4.30888 0.309809 0
M  V30 1524 C 141.866 5.15494 1.28215 0
M  V30 1525 C 140.905 6.09953 0.512198 0
M  V30 1526 N 140.042 6.87287 1.43458 0
M  V30 1527 H 144.882 2.90803 -0.650974 0
M  V30 1528 H 142.419 1.43286 -0.33281 0
M  V30 1529 H 144.377 3.83157 1.65066 0
M  V30 1530 H 143.007 2.69695 1.77382 0
M  V30 1531 H 142.059 3.78414 -0.388181 0
M  V30 1532 H 143.371 4.97955 -0.290254 0
M  V30 1533 H 142.525 5.74983 1.93596 0
M  V30 1534 H 141.264 4.48481 1.91614 0
M  V30 1535 H 140.269 5.49581 -0.155151 0
M  V30 1536 H 141.494 6.78999 -0.116958 0
M  V30 1537 H 139.44 6.2295 2.05594 0
M  V30 1538 H 139.357 7.50763 0.888335 0
M  V30 1539 H 140.625 7.51306 2.07749 0
M  V30 1540 N 144.854 0.36279 1.53368 0
M  V30 1541 C 146.094 -0.227882 2.03126 0
M  V30 1542 C 146.458 -1.4622 1.24434 0
M  V30 1543 O 147.659 -2.12831 1.64184 0
M  V30 1544 C 145.93 -0.515427 3.53664 0
M  V30 1545 S 147.489 -1.08017 4.25297 0
M  V30 1546 H 144.307 -0.0665377 0.70788 0
M  V30 1547 H 146.909 0.50501 1.88865 0
M  V30 1548 H 145.613 0.390436 4.08539 0
M  V30 1549 H 145.144 -1.27747 3.72081 0
M  V30 1550 H 147.159 -2.36462 4.36234 0
M  V30 1551 N 146.332 -1.57332 0.0918853 0
M  V30 1552 C 147.581 -1.93412 -0.572249 0
M  V30 1553 C 147.894 -0.975515 -1.69538 0
M  V30 1554 O 149.1 -1.22991 -2.42045 0
M  V30 1555 C 147.556 -3.43648 -1.0693 0
M  V30 1556 C 147.164 -4.47994 0.0239049 0
M  V30 1557 C 148.908 -3.88695 -1.70635 0
M  V30 1558 C 146.815 -5.89381 -0.488319 0
M  V30 1559 H 145.745 -0.721939 -0.217532 0
M  V30 1560 H 148.396 -1.82735 0.167369 0
M  V30 1561 H 146.778 -3.49466 -1.8625 0
M  V30 1562 H 147.952 -4.53815 0.799277 0
M  V30 1563 H 146.267 -4.12536 0.565946 0
M  V30 1564 H 148.864 -4.91725 -2.10025 0
M  V30 1565 H 149.207 -3.27166 -2.57426 0
M  V30 1566 H 149.74 -3.85564 -0.979023 0
M  V30 1567 H 146.479 -6.54602 0.342906 0
M  V30 1568 H 145.999 -5.87037 -1.23077 0
M  V30 1569 H 147.678 -6.39863 -0.958317 0
M  V30 1570 N 147.81 0.181792 -1.56548 0
M  V30 1571 C 149.059 0.898348 -1.8059 0
M  V30 1572 C 149.372 1.83862 -0.667379 0
M  V30 1573 O 150.578 2.59678 -0.792446 0
M  V30 1574 C 149.034 1.64791 -3.19956 0
M  V30 1575 C 148.642 0.751789 -4.41647 0
M  V30 1576 C 150.386 2.35331 -3.53298 0
M  V30 1577 C 148.293 1.50098 -5.72035 0
M  V30 1578 H 147.223 0.339194 -0.673397 0
M  V30 1579 H 149.874 0.151413 -1.82874 0
M  V30 1580 H 148.256 2.43921 -3.11959 0
M  V30 1581 H 149.43 -0.0018076 -4.608 0
M  V30 1582 H 147.745 0.156562 -4.16106 0
M  V30 1583 H 150.342 2.91958 -4.47956 0
M  V30 1584 H 150.685 3.10164 -2.77676 0
M  V30 1585 H 151.218 1.63154 -3.62803 0
M  V30 1586 H 147.957 0.795175 -6.50659 0
M  V30 1587 H 147.477 2.22817 -5.56878 0
M  V30 1588 H 149.156 2.05125 -6.13622 0
M  V30 1589 N 149.288 1.51039 0.449983 0
M  V30 1590 C 150.513 1.6715 1.22783 0
M  V30 1591 C 150.938 0.363081 1.84563 0
M  V30 1592 O 150.296 -0.675433 1.68249 0
M  V30 1593 C 150.344 2.77985 2.29689 0
M  V30 1594 O 149.448 2.40707 3.34864 0
M  V30 1595 H 148.789 0.557746 0.360299 0
M  V30 1596 H 151.319 1.97535 0.533005 0
M  V30 1597 H 151.329 3.01693 2.74673 0
M  V30 1598 H 150.004 3.72935 1.84098 0
M  V30 1599 H 148.581 2.27523 2.95445 0
M  V30 1600 N 150.766 -0.704594 1.40972 0
M  V30 1601 C 151.696 -1.83124 1.44872 0
M  V30 1602 C 152.677 -1.67281 0.30838 0
M  V30 1603 O 153.862 -1.87149 0.518556 0
M  V30 1604 C 150.992 -3.21181 1.32136 0
M  V30 1605 C 149.946 -3.51714 2.43888 0
M  V30 1606 C 149.272 -4.89032 2.16222 0
M  V30 1607 C 150.572 -3.516 3.86232 0
M  V30 1608 H 152.266 -1.80117 2.39161 0
M  V30 1609 H 149.812 -0.865145 1.15114 0
M  V30 1610 H 151.765 -3.99702 1.33479 0
M  V30 1611 H 150.489 -3.24791 0.343279 0
M  V30 1612 H 149.148 -2.75539 2.41813 0
M  V30 1613 H 148.796 -4.89256 1.16778 0
M  V30 1614 H 148.496 -5.10426 2.911 0
M  V30 1615 H 150.02 -5.69873 2.19265 0
M  V30 1616 H 151.434 -4.2014 3.9007 0
M  V30 1617 H 149.831 -3.84523 4.60719 0
M  V30 1618 H 150.901 -2.50757 4.15029 0
M  V30 1619 N 152.244 -1.26651 -0.937939 0
M  V30 1620 C 153.154 -1.10276 -2.07066 0
M  V30 1621 C 154.17 -0.0354197 -1.73964 0
M  V30 1622 O 155.346 -0.239816 -1.99967 0
M  V30 1623 C 152.411 -0.740887 -3.38691 0
M  V30 1624 C 151.472 -1.88799 -3.85556 0
M  V30 1625 C 150.705 -1.54329 -5.10899 0
M  V30 1626 O 150.928 -0.446494 -5.6865 0
M  V30 1627 O 149.862 -2.37911 -5.52885 0
M  V30 1628 H 153.688 -2.05309 -2.23789 0
M  V30 1629 H 151.273 -1.05743 -1.0554 0
M  V30 1630 H 153.155 -0.55195 -4.1777 0
M  V30 1631 H 151.83 0.180022 -3.23199 0
M  V30 1632 H 150.737 -2.13191 -3.07409 0
M  V30 1633 H 152.07 -2.78874 -4.05574 0
M  V30 1634 N 153.722 1.14298 -1.08507 0
M  V30 1635 C 154.968 1.85633 -0.816581 0
M  V30 1636 C 155.301 1.82784 0.656021 0
M  V30 1637 O 154.576 1.25926 1.48233 0
M  V30 1638 C 154.859 3.34223 -1.34041 0
M  V30 1639 C 154.712 3.45639 -2.87843 0
M  V30 1640 C 156.031 4.29356 -0.9665 0
M  V30 1641 H 153.15 0.67402 -0.298104 0
M  V30 1642 H 155.792 1.34214 -1.34487 0
M  V30 1643 H 153.942 3.78144 -0.89104 0
M  V30 1644 H 155.614 3.10498 -3.41158 0
M  V30 1645 H 153.857 2.86817 -3.25451 0
M  V30 1646 H 154.528 4.50089 -3.19569 0
M  V30 1647 H 157.004 3.93457 -1.35391 0
M  V30 1648 H 155.88 5.3178 -1.3602 0
M  V30 1649 H 156.141 4.41919 0.126362 0
M  V30 1650 N 155.201 0.870884 1.31352 0
M  V30 1651 C 156.134 0.271983 2.26573 0
M  V30 1652 C 157.112 -0.599385 1.51149 0
M  V30 1653 O 158.296 -0.552605 1.80218 0
M  V30 1654 C 155.423 -0.614801 3.33073 0
M  V30 1655 C 154.469 0.185342 4.26097 0
M  V30 1656 S 155.302 1.56444 5.12138 0
M  V30 1657 C 156.458 0.683807 6.22153 0
M  V30 1658 H 156.691 1.07916 2.77023 0
M  V30 1659 H 154.224 0.669459 1.39132 0
M  V30 1660 H 156.182 -1.12074 3.94905 0
M  V30 1661 H 154.843 -1.39593 2.81376 0
M  V30 1662 H 154.036 -0.490771 5.01605 0
M  V30 1663 H 153.638 0.623415 3.68768 0
M  V30 1664 H 155.93 -0.10521 6.77418 0
M  V30 1665 H 156.873 1.41004 6.93919 0
M  V30 1666 H 157.281 0.250952 5.63942 0
M  V30 1667 N 156.679 -1.44442 0.630414 0
M  V30 1668 C 157.904 -2.06927 0.139944 0
M  V30 1669 C 158.329 -1.46795 -1.17613 0
M  V30 1670 O 157.687 -0.569144 -1.72135 0
M  V30 1671 C 157.735 -3.6058 0.0379581 0
M  V30 1672 O 156.839 -3.99937 -1.0062 0
M  V30 1673 H 156.18 -0.658608 0.0844483 0
M  V30 1674 H 158.71 -1.85327 0.866891 0
M  V30 1675 H 158.72 -4.07714 -0.152856 0
M  V30 1676 H 157.395 -4.03728 0.998809 0
M  V30 1677 H 155.972 -3.64436 -0.79001 0
M  V30 1678 N 158.157 -0.370918 -1.53173 0
M  V30 1679 C 159.382 0.220293 -2.06227 0
M  V30 1680 C 159.807 1.41243 -1.24225 0
M  V30 1681 O 159.165 1.79387 -0.262645 0
M  V30 1682 C 159.213 0.586663 -3.55796 0
M  V30 1683 O 158.317 1.68317 -3.76488 0
M  V30 1684 H 157.658 0.0308099 -0.663285 0
M  V30 1685 H 160.188 -0.533068 -1.97534 0
M  V30 1686 H 160.198 0.85617 -3.98916 0
M  V30 1687 H 158.873 -0.285013 -4.14922 0
M  V30 1688 H 157.45 1.40881 -3.45264 0
M  V30 1689 N 159.635 1.57281 -0.100228 0
M  V30 1690 C 160.86 1.99302 0.573881 0
M  V30 1691 C 161.285 0.979059 1.60611 0
M  V30 1692 O 160.643 -0.0517803 1.81226 0
M  V30 1693 C 160.691 3.40274 1.19358 0
M  V30 1694 O 159.795 3.41676 2.30935 0
M  V30 1695 H 159.136 0.647944 0.145138 0
M  V30 1696 H 161.666 2.03779 -0.183156 0
M  V30 1697 H 161.676 3.78078 1.53365 0
M  V30 1698 H 160.351 4.13594 0.437385 0
M  V30 1699 H 158.928 3.15672 1.98509 0
M  V30 1700 N 161.113 -0.173488 1.56642 0
M  V30 1701 C 162.046 -1.24353 1.91342 0
M  V30 1702 C 163.024 -1.4289 0.775965 0
M  V30 1703 O 164.208 -1.57932 1.02907 0
M  V30 1704 C 161.335 -2.60683 2.16245 0
M  V30 1705 C 160.381 -2.58894 3.38934 0
M  V30 1706 S 161.214 -2.0819 4.93373 0
M  V30 1707 C 162.37 -3.46302 5.21369 0
M  V30 1708 H 162.603 -0.947345 2.81803 0
M  V30 1709 H 160.136 -0.377958 1.49703 0
M  V30 1710 H 162.094 -3.39149 2.31275 0
M  V30 1711 H 160.755 -2.87502 1.26496 0
M  V30 1712 H 159.948 -3.59188 3.53553 0
M  V30 1713 H 159.55 -1.88522 3.2301 0
M  V30 1714 H 161.842 -4.42287 5.13214 0
M  V30 1715 H 162.785 -3.3656 6.23003 0
M  V30 1716 H 163.193 -3.42214 4.48943 0
M  V30 1717 N 162.591 -1.51276 -0.441967 0
M  V30 1718 C 163.501 -1.75092 -1.56141 0
M  V30 1719 C 164.517 -0.634963 -1.62001 0
M  V30 1720 O 165.693 -0.916686 -1.79329 0
M  V30 1721 C 162.758 -1.86666 -2.92158 0
M  V30 1722 C 161.819 -3.10506 -2.96453 0
M  V30 1723 C 161.052 -3.21519 -4.25982 0
M  V30 1724 O 161.275 -2.38586 -5.18105 0
M  V30 1725 O 160.209 -4.14465 -4.36466 0
M  V30 1726 H 164.035 -2.70044 -1.38961 0
M  V30 1727 H 161.62 -1.35722 -0.624499 0
M  V30 1728 H 163.502 -1.96292 -3.72891 0
M  V30 1729 H 162.177 -0.949014 -3.09476 0
M  V30 1730 H 161.084 -3.06363 -2.14692 0
M  V30 1731 H 162.417 -4.01945 -2.84079 0
M  V30 1732 N 164.069 0.697108 -1.41344 0
M  V30 1733 C 165.318 1.45279 -1.39918 0
M  V30 1734 C 165.631 1.95597 -0.0109624 0
M  V30 1735 O 166.837 2.71208 0.125919 0
M  V30 1736 C 165.293 2.62695 -2.46007 0
M  V30 1737 C 164.901 2.19169 -3.90729 0
M  V30 1738 C 166.645 3.40336 -2.53715 0
M  V30 1739 C 164.552 3.33535 -4.88373 0
M  V30 1740 H 163.482 0.545692 -0.520323 0
M  V30 1741 H 166.133 0.756929 -1.67161 0
M  V30 1742 H 164.515 3.34541 -2.11892 0
M  V30 1743 H 165.689 1.54623 -4.34083 0
M  V30 1744 H 164.004 1.54525 -3.86666 0
M  V30 1745 H 166.601 4.2547 -3.2385 0
M  V30 1746 H 166.944 3.85418 -1.5735 0
M  V30 1747 H 167.477 2.75546 -2.86913 0
M  V30 1748 H 164.216 2.93468 -5.86137 0
M  V30 1749 H 163.736 3.96936 -4.49668 0
M  V30 1750 H 165.415 3.99335 -5.09059 0
M  V30 1751 N 165.547 1.27147 0.931209 0
M  V30 1752 C 166.787 1.14511 1.69312 0
M  V30 1753 C 167.151 -0.304638 1.89568 0
M  V30 1754 O 168.352 -0.553343 2.63043 0
M  V30 1755 C 166.623 1.90349 3.02493 0
M  V30 1756 S 168.182 1.93884 3.93642 0
M  V30 1757 H 165 0.408858 0.581684 0
M  V30 1758 H 167.602 1.61006 1.10893 0
M  V30 1759 H 166.306 2.94877 2.85439 0
M  V30 1760 H 165.837 1.44333 3.65966 0
M  V30 1761 H 167.852 1.03273 4.85334 0
M  V30 1762 N 167.025 -1.13721 1.09112 0
M  V30 1763 C 168.271 -1.85198 0.826414 0
M  V30 1764 C 168.604 -1.83129 -0.646319 0
M  V30 1765 O 167.879 -1.2671 -1.47563 0
M  V30 1766 C 168.162 -3.33507 1.35812 0
M  V30 1767 C 168.015 -3.44108 2.89672 0
M  V30 1768 C 169.334 -4.28838 0.989256 0
M  V30 1769 H 166.453 -0.67243 0.301675 0
M  V30 1770 H 169.095 -1.33499 1.35197 0
M  V30 1771 H 167.245 -3.77666 0.911082 0
M  V30 1772 H 168.917 -3.08684 3.428 0
M  V30 1773 H 167.16 -2.85087 3.26967 0
M  V30 1774 H 167.831 -4.48388 3.21951 0
M  V30 1775 H 170.307 -3.92734 1.37475 0
M  V30 1776 H 169.183 -5.31051 1.38838 0
M  V30 1777 H 169.444 -4.4198 -0.102924 0
M  V30 1778 N 168.503 -0.877838 -1.30888 0
M  V30 1779 C 169.752 -0.488793 -1.95688 0
M  V30 1780 C 170.065 0.965485 -1.70111 0
M  V30 1781 O 171.271 1.46104 -2.28836 0
M  V30 1782 C 169.727 -0.823201 -3.50359 0
M  V30 1783 C 169.335 -2.29477 -3.84765 0
M  V30 1784 C 171.079 -0.503009 -4.21509 0
M  V30 1785 C 168.986 -2.57118 -5.32583 0
M  V30 1786 H 167.916 -0.179062 -0.732429 0
M  V30 1787 H 170.567 -1.07183 -1.48943 0
M  V30 1788 H 168.949 -0.169331 -3.95638 0
M  V30 1789 H 170.123 -2.99236 -3.5042 0
M  V30 1790 H 168.438 -2.58178 -3.267 0
M  V30 1791 H 171.035 -0.68665 -5.30273 0
M  V30 1792 H 171.378 0.557109 -4.12555 0
M  V30 1793 H 171.911 -1.11376 -3.8189 0
M  V30 1794 H 168.65 -3.61843 -5.4658 0
M  V30 1795 H 168.17 -1.91961 -5.68253 0
M  V30 1796 H 169.849 -2.42251 -5.99936 0
M  V30 1797 N 169.982 1.44106 -0.638065 0
M  V30 1798 C 170.929 2.30715 0.062701 0
M  V30 1799 C 171.899 1.43882 0.829883 0
M  V30 1800 O 173.084 1.72775 0.809532 0
M  V30 1801 C 170.224 3.29258 1.03358 0
M  V30 1802 C 169.337 4.31192 0.26409 0
M  V30 1803 C 168.472 5.16825 1.22741 0
M  V30 1804 C 167.511 6.10462 0.447475 0
M  V30 1805 N 166.648 6.8877 1.36161 0
M  V30 1806 H 171.488 2.90096 -0.681781 0
M  V30 1807 H 169.025 1.42925 -0.347988 0
M  V30 1808 H 170.983 3.84886 1.60992 0
M  V30 1809 H 169.613 2.71562 1.74511 0
M  V30 1810 H 168.665 3.77981 -0.428295 0
M  V30 1811 H 169.977 4.97619 -0.343052 0
M  V30 1812 H 169.131 5.77004 1.87487 0
M  V30 1813 H 167.87 4.50488 1.86847 0
M  V30 1814 H 166.875 5.49386 -0.213433 0
M  V30 1815 H 168.1 6.78837 -0.188968 0
M  V30 1816 H 166.046 6.25096 1.98975 0
M  V30 1817 H 165.963 7.51663 0.808656 0
M  V30 1818 H 167.231 7.53467 1.99769 0
M  V30 1819 N 171.46 0.379036 1.52974 0
M  V30 1820 C 172.706 -0.206727 2.01744 0
M  V30 1821 C 173.039 -1.47314 1.26539 0
M  V30 1822 O 172.314 -1.91084 0.362903 0
M  V30 1823 C 172.597 -0.485066 3.56818 0
M  V30 1824 C 172.45 0.795919 4.42702 0
M  V30 1825 C 173.769 -1.28003 4.21074 0
M  V30 1826 H 170.888 -0.0736607 0.73331 0
M  V30 1827 H 173.53 0.506581 1.83122 0
M  V30 1828 H 171.68 -1.09272 3.72816 0
M  V30 1829 H 173.352 1.43307 4.38476 0
M  V30 1830 H 171.595 1.41344 4.10127 0
M  V30 1831 H 172.266 0.555947 5.49193 0
M  V30 1832 H 174.742 -0.765867 4.08991 0
M  V30 1833 H 173.618 -1.44352 5.29579 0
M  V30 1834 H 173.879 -2.29236 3.78026 0
M  V30 1835 N 172.938 -1.57226 0.108567 0
M  V30 1836 C 173.848 -2.18292 -0.859401 0
M  V30 1837 C 174.864 -1.15612 -1.30038 0
M  V30 1838 O 176.04 -1.48039 -1.36552 0
M  V30 1839 C 173.105 -2.762 -2.09558 0
M  V30 1840 C 172.166 -3.93881 -1.70752 0
M  V30 1841 C 171.399 -4.49018 -2.88477 0
M  V30 1842 O 171.622 -4.03068 -4.036 0
M  V30 1843 O 170.556 -5.39852 -2.66164 0
M  V30 1844 H 174.382 -3.01441 -0.369769 0
M  V30 1845 H 171.967 -1.48945 -0.1165 0
M  V30 1846 H 173.849 -3.13156 -2.81978 0
M  V30 1847 H 172.524 -1.96089 -2.57548 0
M  V30 1848 H 171.431 -3.61713 -0.954714 0
M  V30 1849 H 172.764 -4.75396 -1.27513 0
M  V30 1850 N 174.416 0.165178 -1.56732 0
M  V30 1851 C 175.665 0.879143 -1.81532 0
M  V30 1852 C 175.978 1.83144 -0.686842 0
M  V30 1853 O 177.184 2.58823 -0.819944 0
M  V30 1854 C 175.64 1.61388 -3.21686 0
M  V30 1855 C 175.248 0.704904 -4.4242 0
M  V30 1856 C 176.992 2.3157 -3.55774 0
M  V30 1857 C 174.899 1.44022 -5.73595 0
M  V30 1858 H 173.829 0.332033 -0.676957 0
M  V30 1859 H 176.48 0.132008 -1.83025 0
M  V30 1860 H 174.862 2.40599 -3.14529 0
M  V30 1861 H 176.036 -0.0506815 -4.60772 0
M  V30 1862 H 174.351 0.112419 -4.16248 0
M  V30 1863 H 176.948 2.8719 -4.51028 0
M  V30 1864 H 177.291 3.07201 -2.8095 0
M  V30 1865 H 177.824 1.59297 -3.64513 0
M  V30 1866 H 174.563 0.72612 -6.51466 0
M  V30 1867 H 174.083 2.16898 -5.5921 0
M  V30 1868 H 175.762 1.98606 -6.15764 0
M  V30 1869 N 175.894 1.51508 0.433938 0
M  V30 1870 C 176.841 1.73068 1.52696 0
M  V30 1871 C 177.811 0.572441 1.55924 0
M  V30 1872 O 178.996 0.807253 1.72882 0
M  V30 1873 C 176.136 1.86474 2.90381 0
M  V30 1874 C 175.249 3.14037 2.96656 0
M  V30 1875 C 174.384 3.18019 4.25485 0
M  V30 1876 C 173.423 4.39882 4.2564 0
M  V30 1877 N 172.56 4.41394 5.45999 0
M  V30 1878 H 177.4 2.66366 1.33615 0
M  V30 1879 H 174.937 1.32008 0.649018 0
M  V30 1880 H 176.895 1.92229 3.70275 0
M  V30 1881 H 175.525 0.965809 3.08013 0
M  V30 1882 H 174.577 3.17575 2.09404 0
M  V30 1883 H 175.889 4.0394 2.92633 0
M  V30 1884 H 175.043 3.22708 5.13755 0
M  V30 1885 H 173.782 2.2601 4.3217 0
M  V30 1886 H 172.787 4.35366 3.35763 0
M  V30 1887 H 174.012 5.33159 4.20617 0
M  V30 1888 H 171.958 3.52258 5.53399 0
M  V30 1889 H 171.875 5.25111 5.4387 0
M  V30 1890 H 173.143 4.50281 6.36292 0
M  V30 1891 N 177.372 -0.689602 1.41712 0
M  V30 1892 C 178.649 -1.44457 1.31877 0
M  V30 1893 C 179.029 -2.11039 -0.0508537 0
M  V30 1894 O 178.377 -2.02138 -1.06547 0
M  V30 1895 C 178.587 -2.45913 2.47645 0
M  V30 1896 C 179.935 -3.10991 2.89084 0
M  V30 1897 O 180.959 -2.56238 2.47428 0
M  V30 1898 O 179.818 -4.10174 3.61137 0
M  V30 1899 H 176.912 -0.64362 0.519309 0
M  V30 1900 H 179.458 -0.719576 1.53689 0
M  V30 1901 H 178.23 -1.95409 3.39015 0
M  V30 1902 H 177.853 -3.25913 2.27742 0
M  V30 1903 N 178.85 -1.27639 -0.924453 0
M  V30 1904 C 179.78 -1.13166 -2.04244 0
M  V30 1905 C 180.761 -0.032256 -1.70069 0
M  V30 1906 O 181.946 -0.207328 -1.9309 0
M  V30 1907 C 179.076 -0.781496 -3.38393 0
M  V30 1908 C 178.03 -1.83449 -3.86692 0
M  V30 1909 C 177.356 -1.33822 -5.17683 0
M  V30 1910 C 178.656 -3.23917 -4.09726 0
M  V30 1911 H 180.35 -2.06689 -2.1661 0
M  V30 1912 H 177.896 -0.995136 -1.04082 0
M  V30 1913 H 179.849 -0.667057 -4.16087 0
M  V30 1914 H 178.573 0.189439 -3.2605 0
M  V30 1915 H 177.232 -1.93789 -3.11193 0
M  V30 1916 H 176.88 -0.35665 -5.01734 0
M  V30 1917 H 176.58 -2.04224 -5.50968 0
M  V30 1918 H 178.104 -1.23679 -5.97943 0
M  V30 1919 H 179.518 -3.16559 -4.77978 0
M  V30 1920 H 177.915 -3.92059 -4.54324 0
M  V30 1921 H 178.985 -3.68729 -3.14908 0
M  V30 1922 N 180.328 1.1314 -1.09713 0
M  V30 1923 C 181.276 2.20717 -0.733934 0
M  V30 1924 C 182.27 1.6729 0.266506 0
M  V30 1925 O 183.476 1.79547 0.127656 0
M  V30 1926 H 179.851 0.719292 -0.21937 0
M  V30 1927 H 181.822 2.48611 -1.6503 0
M  V30 1928 C 180.571 3.47265 -0.173849 0
M  V30 1929 H 179.894 3.88716 -0.934873 0
M  V30 1930 H 181.334 4.23979 0.0423126 0
M  V30 1931 C 179.793 3.18724 1.09164 0
M  V30 1932 O 180.323 3.37762 2.17439 0
M  V30 1933 N 178.529 2.72583 1.00732 0
M  V30 1934 H 178.076 2.57291 0.126121 0
M  V30 1935 H 178.034 2.53862 1.85476 0
M  V30 1936 N 181.806 0.884767 1.30421 0
M  V30 1937 C 183.083 0.423185 1.90967 0
M  V30 1938 C 183.463 -1.09605 1.80416 0
M  V30 1939 O 182.811 -1.93126 1.22125 0
M  V30 1940 C 183.021 0.921056 3.36627 0
M  V30 1941 C 184.369 0.955903 4.137 0
M  V30 1942 O 185.393 0.867706 3.4547 0
M  V30 1943 O 184.252 1.08614 5.35598 0
M  V30 1944 H 181.346 0.129369 0.816819 0
M  V30 1945 H 183.892 0.973653 1.3899 0
M  V30 1946 H 182.664 1.96489 3.3839 0
M  V30 1947 H 182.287 0.349741 3.96059 0
M  V30 1948 N 183.284 -1.43765 0.645699 0
M  V30 1949 C 184.232 -2.32516 -0.0624849 0
M  V30 1950 C 185.226 -1.48183 -0.820855 0
M  V30 1951 O 186.432 -1.64439 -0.732106 0
M  V30 1952 H 182.807 -0.750989 -0.0389864 0
M  V30 1953 H 184.778 -2.89979 0.703892 0
M  V30 1954 C 183.527 -3.32389 -1.02044 0
M  V30 1955 H 182.85 -3.97301 -0.446312 0
M  V30 1956 H 184.29 -3.97138 -1.48517 0
M  V30 1957 C 182.749 -2.62416 -2.11281 0
M  V30 1958 O 183.279 -2.434 -3.19561 0
M  V30 1959 N 181.485 -2.21913 -1.87624 0
M  V30 1960 H 181.032 -2.37578 -0.995703 0
M  V30 1961 H 180.99 -1.75424 -2.6091 0
M  V30 1962 N 184.763 -0.387143 -1.52771 0
M  V30 1963 C 185.726 0.436939 -2.24997 0
M  V30 1964 C 186.726 0.991991 -1.26555 0
M  V30 1965 O 187.916 0.874335 -1.50669 0
M  V30 1966 C 185.048 1.61281 -3.00335 0
M  V30 1967 H 186.241 -0.195365 -2.99263 0
M  V30 1968 H 183.794 -0.139218 -1.55679 0
M  V30 1969 H 184.529 2.2826 -2.30364 0
M  V30 1970 H 184.314 1.22154 -3.72587 0
M  V30 1971 H 185.804 2.19629 -3.5518 0
M  V30 1972 N 186.241 1.57166 -0.116904 0
M  V30 1973 C 187.652 1.82169 0.408809 0
M  V30 1974 C 188.003 1.03393 1.66746 0
M  V30 1975 O 187.128 0.269886 2.1471 0
M  V30 1976 C 187.723 3.30429 0.748466 0
M  V30 1977 C 186.282 3.5612 1.21882 0
M  V30 1978 C 185.429 2.76374 0.226452 0
M  V30 1979 H 188.38 1.5497 -0.342063 0
M  V30 1980 H 188.401 3.44943 1.60607 0
M  V30 1981 H 187.913 3.87737 -0.167784 0
M  V30 1982 H 186.014 3.04168 2.15204 0
M  V30 1983 H 186.127 4.64705 1.16559 0
M  V30 1984 H 184.491 2.44515 0.713063 0
M  V30 1985 H 185.274 3.3644 -0.682859 0
M  V30 1986 N 187.719 -0.156864 1.56817 0
M  V30 1987 C 188.944 -0.890331 1.87318 0
M  V30 1988 C 189.369 -1.74394 0.704855 0
M  V30 1989 O 188.727 -1.77972 -0.345786 0
M  V30 1990 C 188.775 -1.73102 3.16336 0
M  V30 1991 O 187.879 -2.83422 2.99576 0
M  V30 1992 H 187.22 -0.24857 0.615718 0
M  V30 1993 H 189.75 -0.150649 2.04045 0
M  V30 1994 H 189.76 -2.12803 3.48107 0
M  V30 1995 H 188.435 -1.10412 4.00976 0
M  V30 1996 H 187.012 -2.47199 2.7919 0
M  V30 1997 N 189.197 -1.51736 -0.425897 0
M  V30 1998 C 190.444 -1.6497 -1.17436 0
M  V30 1999 C 190.772 -0.371445 -1.9092 0
M  V30 2000 O 190.027 0.644963 -1.84767 0
M  V30 2001 C 190.326 -2.81103 -2.20717 0
M  V30 2002 C 189.992 -4.19954 -1.64162 0
M  V30 2003 C 188.654 -4.57725 -1.48462 0
M  V30 2004 C 191.006 -5.06552 -1.22696 0
M  V30 2005 C 188.334 -5.79789 -0.897873 0
M  V30 2006 C 190.686 -6.29205 -0.654464 0
M  V30 2007 C 189.35 -6.6574 -0.484456 0
M  V30 2008 H 188.62 -0.603668 -0.429727 0
M  V30 2009 H 191.267 -1.85798 -0.463829 0
M  V30 2010 H 189.572 -2.54542 -2.97852 0
M  V30 2011 H 191.269 -2.8854 -2.78471 0
M  V30 2012 H 187.859 -3.90181 -1.77361 0
M  V30 2013 H 192.043 -4.77968 -1.33642 0
M  V30 2014 H 187.299 -6.06733 -0.75402 0
M  V30 2015 H 191.473 -6.95643 -0.324694 0
M  V30 2016 H 189.1 -7.60195 -0.0276833 0
M  V30 2017 N 190.675 0.682077 -1.42076 0
M  V30 2018 C 192.086 1.26246 -1.37546 0
M  V30 2019 C 192.437 1.96092 -0.0651481 0
M  V30 2020 O 191.562 1.99587 0.836297 0
M  V30 2021 C 192.157 2.29594 -2.49143 0
M  V30 2022 C 190.716 2.83175 -2.47969 0
M  V30 2023 C 189.863 1.57395 -2.28303 0
M  V30 2024 H 192.814 0.475937 -1.51395 0
M  V30 2025 H 192.835 3.11175 -2.18976 0
M  V30 2026 H 192.347 1.78729 -3.44496 0
M  V30 2027 H 190.448 3.3818 -1.56413 0
M  V30 2028 H 190.561 3.32687 -3.44755 0
M  V30 2029 H 188.925 1.83699 -1.76428 0
M  V30 2030 H 189.708 1.08507 -3.25701 0
M  V30 2031 N 192.153 1.28127 0.917671 0
M  V30 2032 C 193.116 1.11744 2.00115 0
M  V30 2033 C 194.116 0.0583052 1.60694 0
M  V30 2034 O 195.306 0.303755 1.71531 0
M  V30 2035 C 192.438 0.704862 3.33533 0
M  V30 2036 H 193.631 2.07966 2.16079 0
M  V30 2037 H 191.184 1.11058 1.09981 0
M  V30 2038 H 191.919 -0.258299 3.2327 0
M  V30 2039 H 191.704 1.4699 3.63505 0
M  V30 2040 H 193.194 0.612768 4.1308 0
M  V30 2041 N 193.631 -1.12557 1.10312 0
M  V30 2042 C 194.594 -2.16434 0.75424 0
M  V30 2043 C 195.594 -1.59278 -0.220685 0
M  V30 2044 O 196.784 -1.742 0.00230591 0
M  V30 2045 C 193.916 -3.40699 0.116987 0
M  V30 2046 H 195.109 -2.48811 1.67431 0
M  V30 2047 H 192.662 -1.27542 0.903475 0
M  V30 2048 H 193.397 -3.13921 -0.813877 0
M  V30 2049 H 193.182 -3.83459 0.818613 0
M  V30 2050 H 194.672 -4.17451 -0.111387 0
M  V30 2051 N 195.109 -0.891671 -1.2995 0
M  V30 2052 C 196.041 -0.320695 -2.26945 0
M  V30 2053 C 197.054 0.528497 -1.53983 0
M  V30 2054 O 198.243 0.346959 -1.75096 0
M  V30 2055 C 195.343 0.562066 -3.34207 0
M  V30 2056 C 194.516 -0.259576 -4.36629 0
M  V30 2057 C 193.575 0.554739 -5.23268 0
M  V30 2058 O 192.601 -0.0249311 -5.69195 0
M  V30 2059 N 193.803 1.8625 -5.4981 0
M  V30 2060 H 196.568 -1.15432 -2.76578 0
M  V30 2061 H 194.129 -0.755336 -1.432 0
M  V30 2062 H 196.121 1.11304 -3.89093 0
M  V30 2063 H 194.691 1.29637 -2.84452 0
M  V30 2064 H 193.911 -0.991986 -3.81514 0
M  V30 2065 H 195.199 -0.822564 -5.02107 0
M  V30 2066 H 194.597 2.35628 -5.14292 0
M  V30 2067 H 193.154 2.36078 -6.07545 0
M  V30 2068 N 196.587 1.43421 -0.653314 0
M  V30 2069 C 197.836 2.01032 -0.164076 0
M  V30 2070 C 198.149 1.52147 1.22926 0
M  V30 2071 O 199.355 2.02031 1.81371 0
M  V30 2072 C 197.811 3.59082 -0.24252 0
M  V30 2073 C 197.419 4.1696 -1.63855 0
M  V30 2074 C 199.163 4.24079 0.18911 0
M  V30 2075 C 197.07 5.67304 -1.67092 0
M  V30 2076 H 196 0.751798 -0.0575769 0
M  V30 2077 H 198.651 1.6439 -0.815362 0
M  V30 2078 H 197.033 3.93125 0.476276 0
M  V30 2079 H 198.207 3.94416 -2.38271 0
M  V30 2080 H 196.522 3.64335 -2.01616 0
M  V30 2081 H 199.119 5.34381 0.184775 0
M  V30 2082 H 199.462 3.98005 1.22056 0
M  V30 2083 H 199.995 3.94918 -0.477938 0
M  V30 2084 H 196.734 5.98145 -2.68146 0
M  V30 2085 H 196.254 5.91904 -0.970014 0
M  V30 2086 H 197.933 6.31344 -1.4147 0
M  V30 2087 N 198.065 0.39524 1.52563 0
M  V30 2088 C 198.975 -0.444232 2.30356 0
M  V30 2089 C 199.991 -1.06615 1.37511 0
M  V30 2090 O 201.167 -1.07067 1.70583 0
M  V30 2091 C 198.232 -1.55315 3.09964 0
M  V30 2092 C 197.293 -0.955734 4.18526 0
M  V30 2093 C 196.526 -2.01181 4.9433 0
M  V30 2094 O 196.749 -3.22781 4.70285 0
M  V30 2095 O 195.683 -1.62579 5.79527 0
M  V30 2096 H 199.509 0.189667 3.03107 0
M  V30 2097 H 197.094 0.1588 1.48554 0
M  V30 2098 H 198.976 -2.19724 3.59582 0
M  V30 2099 H 197.651 -2.17191 2.4002 0
M  V30 2100 H 196.558 -0.274743 3.7309 0
M  V30 2101 H 197.891 -0.381109 4.90722 0
M  V30 2102 N 199.544 -1.57102 0.125237 0
M  V30 2103 C 200.474 -2.18659 -0.819174 0
M  V30 2104 C 201.455 -1.12843 -1.27281 0
M  V30 2105 O 202.64 -1.41104 -1.33429 0
M  V30 2106 C 199.77 -2.79096 -2.06695 0
M  V30 2107 C 198.724 -3.90548 -1.75088 0
M  V30 2108 C 198.05 -4.37821 -3.06948 0
M  V30 2109 C 199.35 -5.12356 -1.01435 0
M  V30 2110 H 201.044 -2.9783 -0.306202 0
M  V30 2111 H 198.59 -1.4326 -0.145839 0
M  V30 2112 H 200.543 -3.2082 -2.73226 0
M  V30 2113 H 199.267 -1.97223 -2.60328 0
M  V30 2114 H 197.926 -3.49409 -1.10944 0
M  V30 2115 H 197.574 -3.52799 -3.58527 0
M  V30 2116 H 197.274 -5.12982 -2.86571 0
M  V30 2117 H 198.798 -4.822 -3.74587 0
M  V30 2118 H 200.212 -5.5106 -1.58132 0
M  V30 2119 H 198.609 -5.9314 -0.911319 0
M  V30 2120 H 199.679 -4.849 -0.00218681 0
M  V30 2121 N 201.022 0.148545 -1.56898 0
M  V30 2122 C 201.932 1.20293 -2.01412 0
M  V30 2123 C 202.948 1.47107 -0.929273 0
M  V30 2124 O 204.124 1.58807 -1.23863 0
M  V30 2125 C 201.189 2.51682 -2.38447 0
M  V30 2126 C 200.25 2.32529 -3.60872 0
M  V30 2127 C 199.483 3.57653 -3.96132 0
M  V30 2128 O 199.706 4.63771 -3.32073 0
M  V30 2129 O 198.64 3.50408 -4.89385 0
M  V30 2130 H 202.466 0.855025 -2.91416 0
M  V30 2131 H 200.051 0.357151 -1.45068 0
M  V30 2132 H 201.933 3.29147 -2.63135 0
M  V30 2133 H 200.608 2.86006 -1.51599 0
M  V30 2134 H 199.515 1.53019 -3.41373 0
M  V30 2135 H 200.848 2.03121 -4.48333 0
M  V30 2136 N 202.5 1.5196 0.417844 0
M  V30 2137 C 203.749 1.6482 1.16264 0
M  V30 2138 C 204.062 0.379886 1.91876 0
M  V30 2139 O 205.268 0.388154 2.68711 0
M  V30 2140 C 203.724 2.91161 2.1155 0
M  V30 2141 C 203.332 4.25068 1.41495 0
M  V30 2142 C 205.076 3.13383 2.86341 0
M  V30 2143 C 202.983 5.42541 2.35379 0
M  V30 2144 H 201.913 0.613954 0.437694 0
M  V30 2145 H 204.564 1.78442 0.427871 0
M  V30 2146 H 202.946 2.71218 2.88543 0
M  V30 2147 H 204.12 4.55463 0.699263 0
M  V30 2148 H 202.435 4.0888 0.787792 0
M  V30 2149 H 205.032 3.98324 3.5671 0
M  V30 2150 H 205.375 2.27256 3.48798 0
M  V30 2151 H 205.908 3.33757 2.1645 0
M  V30 2152 H 202.647 6.30987 1.77582 0
M  V30 2153 H 202.167 5.16497 3.04945 0
M  V30 2154 H 203.846 5.75272 2.96093 0
M  V30 2155 N 203.978 -0.674533 1.42435 0
M  V30 2156 C 205.203 -1.46784 1.46524 0
M  V30 2157 C 205.628 -1.87938 0.078066 0
M  V30 2158 O 204.986 -1.56014 -0.92354 0
M  V30 2159 C 205.034 -2.69307 2.39805 0
M  V30 2160 O 204.138 -3.67587 1.86959 0
M  V30 2161 H 203.479 -0.440959 0.496439 0
M  V30 2162 H 206.009 -0.827326 1.87127 0
M  V30 2163 H 206.019 -3.17374 2.56393 0
M  V30 2164 H 204.694 -2.38692 3.40586 0
M  V30 2165 H 203.271 -3.2662 1.79927 0
M  V30 2166 N 205.456 -1.28612 -0.910864 0
M  V30 2167 C 206.366 -1.14643 -2.0468 0
M  V30 2168 C 207.382 -0.0723121 -1.7385 0
M  V30 2169 O 208.558 -0.282178 -1.99413 0
M  V30 2170 C 205.623 -0.812561 -3.37044 0
M  V30 2171 C 204.684 -1.96935 -3.81465 0
M  V30 2172 C 203.917 -1.65131 -5.07511 0
M  V30 2173 O 204.14 -0.567013 -5.67575 0
M  V30 2174 O 203.074 -2.49585 -5.47714 0
M  V30 2175 H 206.9 -2.1001 -2.19384 0
M  V30 2176 H 204.485 -1.07958 -1.03274 0
M  V30 2177 H 206.367 -0.640441 -4.16505 0
M  V30 2178 H 205.042 0.111426 -3.23508 0
M  V30 2179 H 203.949 -2.19664 -3.02818 0
M  V30 2180 H 205.282 -2.87414 -3.99567 0
M  V30 2181 N 206.934 1.1197 -1.10907 0
M  V30 2182 C 207.897 2.16031 -0.765707 0
M  V30 2183 C 208.897 1.59393 0.212235 0
M  V30 2184 O 210.087 1.74196 -0.0115441 0
M  V30 2185 C 207.219 3.40632 -0.135053 0
M  V30 2186 H 208.412 2.47919 -1.68748 0
M  V30 2187 H 205.965 1.27061 -0.910226 0
M  V30 2188 H 206.7 3.14348 0.797218 0
M  V30 2189 H 206.485 3.8302 -0.838937 0
M  V30 2190 H 207.975 4.17505 0.0892469 0
M  V30 2191 N 208.412 0.89855 1.29475 0
M  V30 2192 C 209.375 0.380272 2.26023 0
M  V30 2193 C 210.375 -0.484891 1.53315 0
M  V30 2194 O 211.565 -0.290108 1.71767 0
M  V30 2195 C 208.697 -0.45651 3.3783 0
M  V30 2196 H 209.89 1.23295 2.73383 0
M  V30 2197 H 207.443 0.676589 1.40897 0
M  V30 2198 H 208.178 -1.32922 2.95808 0
M  V30 2199 H 207.963 0.163393 3.91759 0
M  V30 2200 H 209.453 -0.810466 4.0966 0
M  V30 2201 N 209.89 -1.43072 0.660911 0
M  V30 2202 C 211.115 -2.06584 0.183805 0
M  V30 2203 C 211.54 -1.49257 -1.14472 0
M  V30 2204 O 210.898 -0.605528 -1.70889 0
M  V30 2205 C 210.946 -3.60418 0.114434 0
M  V30 2206 O 210.05 -4.01981 -0.921137 0
M  V30 2207 H 209.391 -0.656669 0.0983994 0
M  V30 2208 H 211.921 -1.83447 0.906006 0
M  V30 2209 H 211.931 -4.07946 -0.0663394 0
M  V30 2210 H 210.606 -4.01519 1.08422 0
M  V30 2211 H 209.183 -3.66029 -0.71253 0
M  V30 2212 N 211.368 -0.403325 -1.52352 0
M  V30 2213 C 212.779 0.0675782 -1.86578 0
M  V30 2214 C 213.13 1.44941 -1.32236 0
M  V30 2215 O 212.255 2.06112 -0.659307 0
M  V30 2216 C 212.85 0.129404 -3.38553 0
M  V30 2217 C 211.409 0.544629 -3.72439 0
M  V30 2218 C 210.556 -0.284551 -2.75836 0
M  V30 2219 H 213.507 -0.620631 -1.46061 0
M  V30 2220 H 213.528 0.94581 -3.68558 0
M  V30 2221 H 213.04 -0.87645 -3.78074 0
M  V30 2222 H 211.141 1.55734 -3.38493 0
M  V30 2223 H 211.254 0.293046 -4.78203 0
M  V30 2224 H 209.618 0.252258 -2.53448 0
M  V30 2225 H 210.401 -1.28865 -3.18196 0
M  V30 2226 N 212.846 1.57033 -0.133567 0
M  V30 2227 C 214.094 1.953 0.519848 0
M  V30 2228 C 214.415 1.01866 1.66278 0
M  V30 2229 O 213.685 0.0776513 1.95746 0
M  V30 2230 H 212.265 0.721091 0.195032 0
M  V30 2231 H 214.927 1.93809 -0.205921 0
M  V30 2232 H 214.023 2.98695 0.904854 0
M  V30 2233 N 214.325 -0.140222 1.56975 0
M  V30 2234 C 215.553 -0.866437 1.87884 0
M  V30 2235 C 215.968 -1.74428 0.722517 0
M  V30 2236 O 215.325 -1.79891 -0.30749 0
M  V30 2237 C 215.376 -1.71753 3.18093 0
M  V30 2238 O 215.097 -0.875056 4.29272 0
M  V30 2239 C 216.598 -2.55074 3.62563 0
M  V30 2240 H 213.818 -0.25019 0.622612 0
M  V30 2241 H 216.362 -0.130977 2.0408 0
M  V30 2242 H 214.517 -2.40598 3.03631 0
M  V30 2243 H 214.931 -1.46002 5.03769 0
M  V30 2244 H 216.405 -3.10356 4.5649 0
M  V30 2245 H 216.882 -3.31434 2.88181 0
M  V30 2246 H 217.488 -1.91509 3.79743 0
M  V30 2247 N 215.803 -1.52179 -0.40978 0
M  V30 2248 C 217.219 -1.40968 -0.74835 0
M  V30 2249 C 217.419 -0.513657 -1.94843 0
M  V30 2250 O 216.475 0.0208026 -2.52491 0
M  V30 2251 C 217.788 -2.83483 -1.0029 0
M  V30 2252 C 219.336 -2.92821 -1.10565 0
M  V30 2253 C 219.811 -4.36303 -1.39296 0
M  V30 2254 N 221.302 -4.39535 -1.46162 0
M  V30 2255 C 222.037 -5.47614 -1.70018 0
M  V30 2256 N 221.533 -6.65812 -1.91483 0
M  V30 2257 N 223.326 -5.35129 -1.72027 0
M  V30 2258 H 215.477 -2.0897 0.380186 0
M  V30 2259 H 217.74 -0.94185 0.107805 0
M  V30 2260 H 217.446 -3.51168 -0.193461 0
M  V30 2261 H 217.32 -3.24487 -1.92323 0
M  V30 2262 H 219.707 -2.25318 -1.90568 0
M  V30 2263 H 219.788 -2.55276 -0.16369 0
M  V30 2264 H 219.432 -5.04366 -0.598109 0
M  V30 2265 H 219.362 -4.71385 -2.34743 0
M  V30 2266 H 221.853 -3.54332 -1.31367 0
M  V30 2267 H 222.166 -7.43964 -2.09134 0
M  V30 2268 H 220.511 -6.68879 -1.88749 0
M  V30 2269 H 223.702 -4.41764 -1.54796 0
M  V30 2270 H 223.875 -6.19433 -1.9028 0
M  V30 2271 N 217.281 0.66697 -1.42791 0
M  V30 2272 C 218.53 1.42278 -1.42968 0
M  V30 2273 C 218.843 1.9553 -0.0524489 0
M  V30 2274 O 220.049 2.71414 0.068363 0
M  V30 2275 C 218.505 2.57418 -2.51524 0
M  V30 2276 C 218.113 2.10832 -3.9529 0
M  V30 2277 C 219.857 3.34878 -2.60877 0
M  V30 2278 C 217.764 3.23101 -4.95338 0
M  V30 2279 H 216.694 0.534533 -0.531781 0
M  V30 2280 H 219.345 0.721302 -1.68729 0
M  V30 2281 H 217.727 3.29971 -2.18941 0
M  V30 2282 H 218.901 1.4538 -4.37266 0
M  V30 2283 H 217.216 1.46289 -3.89857 0
M  V30 2284 H 219.813 4.18505 -3.32802 0
M  V30 2285 H 220.156 3.81993 -1.6549 0
M  V30 2286 H 220.689 2.69398 -2.92693 0
M  V30 2287 H 217.428 2.80969 -5.9223 0
M  V30 2288 H 216.948 3.87309 -4.57987 0
M  V30 2289 H 218.627 3.88447 -5.17415 0
M  V30 2290 N 218.759 1.29093 0.90403 0
M  V30 2291 C 220.17 1.15186 1.46932 0
M  V30 2292 C 220.521 -0.254587 1.94541 0
M  V30 2293 O 219.646 -1.14972 1.83332 0
M  V30 2294 C 220.241 2.08492 2.67051 0
M  V30 2295 C 218.8 1.98621 3.19729 0
M  V30 2296 C 217.947 1.9967 1.92425 0
M  V30 2297 H 220.898 1.41641 0.715789 0
M  V30 2298 H 220.919 1.65461 3.42641 0
M  V30 2299 H 220.431 3.10847 2.3237 0
M  V30 2300 H 218.532 0.993389 3.59114 0
M  V30 2301 H 218.645 2.86068 3.8432 0
M  V30 2302 H 217.009 1.44208 2.09943 0
M  V30 2303 H 217.792 3.03721 1.60026 0
M  V30 2304 N 220.237 -1.11381 1.11499 0
M  V30 2305 C 221.167 -2.19509 0.796125 0
M  V30 2306 C 222.148 -1.68458 -0.235796 0
M  V30 2307 O 223.333 -1.93947 -0.0991344 0
M  V30 2308 C 220.463 -3.46475 0.239205 0
M  V30 2309 C 219.417 -4.10744 1.20307 0
M  V30 2310 C 218.743 -5.32293 0.50683 0
M  V30 2311 C 220.043 -4.55597 2.55399 0
M  V30 2312 H 221.737 -2.46439 1.70024 0
M  V30 2313 H 219.283 -1.18446 0.818935 0
M  V30 2314 H 221.236 -4.214 0.00392006 0
M  V30 2315 H 219.96 -3.19006 -0.700206 0
M  V30 2316 H 218.619 -3.37813 1.42399 0
M  V30 2317 H 218.267 -5.01095 -0.437408 0
M  V30 2318 H 217.967 -5.76243 1.1497 0
M  V30 2319 H 219.491 -6.09956 0.280351 0
M  V30 2320 H 220.905 -5.21841 2.37391 0
M  V30 2321 H 219.302 -5.10363 3.15673 0
M  V30 2322 H 220.372 -3.69013 3.14575 0
M  V30 2323 N 221.715 -0.905404 -1.28997 0
M  V30 2324 C 222.992 -0.453513 -1.9027 0
M  V30 2325 C 223.372 1.06721 -1.82137 0
M  V30 2326 O 222.72 1.91159 -1.25182 0
M  V30 2327 C 222.93 -0.974494 -3.35119 0
M  V30 2328 C 224.278 -1.0216 -4.12127 0
M  V30 2329 O 225.302 -0.922557 -3.44046 0
M  V30 2330 O 224.161 -1.17121 -5.33802 0
M  V30 2331 H 221.255 -0.142347 -0.814657 0
M  V30 2332 H 223.801 -0.995642 -1.37423 0
M  V30 2333 H 222.573 -2.01848 -3.35221 0
M  V30 2334 H 222.196 -0.412706 -3.95452 0
M  V30 2335 N 223.193 1.4272 -0.668489 0
M  V30 2336 C 224.418 2.06484 -0.194758 0
M  V30 2337 C 224.843 1.49862 1.13679 0
M  V30 2338 O 224.201 0.614582 1.70565 0
M  V30 2339 C 224.249 3.60353 -0.133546 0
M  V30 2340 O 223.353 4.02464 0.899806 0
M  V30 2341 H 222.694 0.656137 -0.10188 0
M  V30 2342 H 225.224 1.82964 -0.915722 0
M  V30 2343 H 225.234 4.07976 0.0447041 0
M  V30 2344 H 223.909 4.00938 -1.1055 0
M  V30 2345 H 222.486 3.66402 0.693109 0
M  V30 2346 N 224.671 0.411399 1.52136 0
M  V30 2347 C 225.634 -0.401089 2.25663 0
M  V30 2348 C 226.634 -0.971732 1.28117 0
M  V30 2349 O 227.824 -0.850254 1.52041 0
M  V30 2350 C 224.956 -1.56483 3.02863 0
M  V30 2351 H 226.149 0.24295 2.98914 0
M  V30 2352 H 223.702 0.163968 1.55438 0
M  V30 2353 H 224.437 -2.24567 2.33967 0
M  V30 2354 H 224.222 -1.16211 3.74483 0
M  V30 2355 H 225.712 -2.13951 3.58629 0
M  V30 2356 N 226.149 -1.5696 0.141893 0
M  V30 2357 C 227.379 -2.00031 -0.516828 0
M  V30 2358 C 227.787 -1.02091 -1.59293 0
M  V30 2359 O 227.13 -0.00909657 -1.83698 0
M  V30 2360 C 227.192 -3.39534 -1.1814 0
M  V30 2361 C 226.856 -4.56313 -0.250513 0
M  V30 2362 C 227.853 -5.17295 0.519839 0
M  V30 2363 C 225.538 -5.02061 -0.154907 0
M  V30 2364 C 227.532 -6.2243 1.3733 0
M  V30 2365 C 225.219 -6.07053 0.702161 0
M  V30 2366 C 226.217 -6.67106 1.46487 0
M  V30 2367 O 225.905 -7.70066 2.30767 0
M  V30 2368 H 225.637 -0.661451 -0.139493 0
M  V30 2369 H 228.191 -2.04086 0.231926 0
M  V30 2370 H 226.421 -3.32302 -1.97769 0
M  V30 2371 H 228.11 -3.66745 -1.73933 0
M  V30 2372 H 228.876 -4.82852 0.45598 0
M  V30 2373 H 224.755 -4.5505 -0.7383 0
M  V30 2374 H 228.299 -6.69233 1.96909 0
M  V30 2375 H 224.196 -6.40923 0.76733 0
M  V30 2376 H 224.964 -7.87264 2.23959 0
M  V30 2377 N 227.627 0.131896 -1.57047 0
M  V30 2378 C 228.904 0.871495 -1.75112 0
M  V30 2379 C 229.284 1.9866 -0.713949 0
M  V30 2380 O 228.632 2.26965 0.264447 0
M  V30 2381 C 228.842 1.40007 -3.19686 0
M  V30 2382 C 230.19 1.85752 -3.81813 0
M  V30 2383 O 231.214 1.49715 -3.23209 0
M  V30 2384 O 230.073 2.5226 -4.84796 0
M  V30 2385 H 227.167 0.412919 -0.716538 0
M  V30 2386 H 229.713 0.116641 -1.69299 0
M  V30 2387 H 228.485 0.599404 -3.86682 0
M  V30 2388 H 228.108 2.218 -3.29986 0
M  V30 2389 N 229.106 1.52395 0.401703 0
M  V30 2390 C 230.517 1.58899 0.980202 0
M  V30 2391 C 230.868 0.434032 1.91339 0
M  V30 2392 O 229.993 -0.444619 2.11783 0
M  V30 2393 C 230.588 2.87994 1.78451 0
M  V30 2394 C 229.147 2.96953 2.31292 0
M  V30 2395 C 228.294 2.53903 1.11483 0
M  V30 2396 H 231.245 1.57657 0.18168 0
M  V30 2397 H 231.266 2.73765 2.64259 0
M  V30 2398 H 230.778 3.72035 1.10506 0
M  V30 2399 H 228.879 2.17422 3.02586 0
M  V30 2400 H 228.992 4.01344 2.61649 0
M  V30 2401 H 227.356 2.07925 1.47104 0
M  V30 2402 H 228.139 3.40326 0.450928 0
M  V30 2403 N 230.584 -0.659388 1.43143 0
M  V30 2404 C 231.861 -1.41627 1.34912 0
M  V30 2405 C 232.241 -2.11099 -0.00607785 0
M  V30 2406 O 231.589 -2.04353 -1.02236 0
M  V30 2407 C 231.799 -2.40604 2.52805 0
M  V30 2408 C 233.147 -3.04789 2.95616 0
M  V30 2409 O 234.171 -2.50932 2.52807 0
M  V30 2410 O 233.03 -4.02421 3.69756 0
M  V30 2411 H 230.124 -0.63246 0.532844 0
M  V30 2412 H 232.67 -0.686814 1.5518 0
M  V30 2413 H 231.442 -1.88174 3.43083 0
M  V30 2414 H 231.065 -3.21009 2.34604 0
M  V30 2415 N 232.062 -1.29571 -0.897171 0
M  V30 2416 C 233.287 -1.20705 -1.68656 0
M  V30 2417 C 233.712 0.228582 -1.86706 0
M  V30 2418 O 233.07 1.16494 -1.3892 0
M  V30 2419 C 233.118 -1.9282 -3.04717 0
M  V30 2420 O 232.222 -1.24697 -3.93096 0
M  V30 2421 H 231.563 -0.418126 -0.515816 0
M  V30 2422 H 234.093 -1.71183 -1.12061 0
M  V30 2423 H 234.103 -2.01372 -3.54843 0
M  V30 2424 H 232.778 -2.97239 -2.90899 0
M  V30 2425 H 231.355 -1.2442 -3.51531 0
M  V30 2426 N 233.54 1.10788 -1.12088 0
M  V30 2427 C 234.788 1.8231 -0.872205 0
M  V30 2428 C 235.109 1.85419 0.603709 0
M  V30 2429 O 234.379 1.32963 1.43867 0
M  V30 2430 H 232.959 0.675137 -0.319686 0
M  V30 2431 H 235.621 1.34068 -1.41463 0
M  V30 2432 H 234.717 2.85955 -1.25045 0
M  V30 2433 N 235.018 0.912232 1.28515 0
M  V30 2434 C 236.243 0.559774 1.99703 0
M  V30 2435 C 236.668 -0.851393 1.67729 0
M  V30 2436 O 236.026 -1.56875 0.908834 0
M  V30 2437 C 236.074 0.773874 3.52198 0
M  V30 2438 O 235.178 -0.167842 4.12058 0
M  V30 2439 H 234.519 0.21723 0.627461 0
M  V30 2440 H 237.049 1.22725 1.63706 0
M  V30 2441 H 237.059 0.683386 4.02236 0
M  V30 2442 H 235.734 1.80261 3.74805 0
M  V30 2443 H 234.311 -0.0287509 3.72889 0
M  V30 2444 N 236.496 -1.42363 0.676048 0
M  V30 2445 C 237.743 -2.01522 0.19883 0
M  V30 2446 C 238.071 -1.53456 -1.19505 0
M  V30 2447 O 237.326 -0.727967 -1.81657 0
M  V30 2448 C 237.625 -3.56929 0.183431 0
M  V30 2449 C 237.291 -4.24431 1.52215 0
M  V30 2450 C 235.953 -4.42585 1.8887 0
M  V30 2451 C 238.305 -4.62459 2.40377 0
M  V30 2452 C 235.633 -4.96039 3.13309 0
M  V30 2453 C 237.985 -5.17294 3.64129 0
M  V30 2454 C 236.649 -5.33661 4.00951 0
M  V30 2455 H 235.919 -0.737419 0.0727571 0
M  V30 2456 H 238.566 -1.70531 0.871281 0
M  V30 2457 H 236.871 -3.87594 -0.572532 0
M  V30 2458 H 238.568 -4.00486 -0.203035 0
M  V30 2459 H 235.158 -4.10661 1.22701 0
M  V30 2460 H 239.342 -4.48105 2.13343 0
M  V30 2461 H 234.598 -5.06896 3.41857 0
M  V30 2462 H 238.772 -5.45704 4.32644 0
M  V30 2463 H 236.399 -5.74845 4.9745 0
M  V30 2464 N 237.974 -0.419461 -1.51915 0
M  V30 2465 C 239.222 0.152637 -2.01523 0
M  V30 2466 C 239.543 1.44762 -1.30649 0
M  V30 2467 O 238.813 1.90997 -0.435535 0
M  V30 2468 H 237.393 0.0593966 -0.744635 0
M  V30 2469 H 240.055 -0.558073 -1.86739 0
M  V30 2470 H 239.151 0.341369 -3.10227 0
M  V30 2471 N 239.452 1.56882 -0.150215 0
M  V30 2472 C 240.698 1.96518 0.500834 0
M  V30 2473 C 241.031 1.03527 1.64304 0
M  V30 2474 O 240.306 0.0782751 1.94342 0
M  V30 2475 C 240.589 3.45822 1.00395 0
M  V30 2476 C 240.442 4.49591 -0.136983 0
M  V30 2477 C 241.761 3.97704 1.88467 0
M  V30 2478 H 238.88 0.714535 0.18058 0
M  V30 2479 H 241.522 1.88577 -0.232091 0
M  V30 2480 H 239.672 3.5272 1.62851 0
M  V30 2481 H 241.344 4.5477 -0.77343 0
M  V30 2482 H 239.587 4.26441 -0.795652 0
M  V30 2483 H 240.258 5.51402 0.256815 0
M  V30 2484 H 242.734 3.93304 1.35834 0
M  V30 2485 H 241.61 5.0263 2.20578 0
M  V30 2486 H 241.871 3.40252 2.82279 0
M  V30 2487 N 240.93 -0.123565 1.57115 0
M  V30 2488 C 241.862 -1.17739 1.96648 0
M  V30 2489 C 242.875 -1.37906 0.865201 0
M  V30 2490 O 244.064 -1.37062 1.14351 0
M  V30 2491 C 241.164 -2.53821 2.24562 0
M  V30 2492 C 240.337 -2.54317 3.55867 0
M  V30 2493 C 239.396 -3.72112 3.72047 0
M  V30 2494 O 238.422 -3.55907 4.44206 0
M  V30 2495 N 239.624 -4.90498 3.10471 0
M  V30 2496 H 242.389 -0.841147 2.87654 0
M  V30 2497 H 239.95 -0.31289 1.58848 0
M  V30 2498 H 241.942 -3.31175 2.32606 0
M  V30 2499 H 240.512 -2.79645 1.39705 0
M  V30 2500 H 239.732 -1.62711 3.59053 0
M  V30 2501 H 241.02 -2.51701 4.42181 0
M  V30 2502 H 240.418 -5.06567 2.51806 0
M  V30 2503 H 238.975 -5.65544 3.24043 0
M  V30 2504 N 242.408 -1.52605 -0.393616 0
M  V30 2505 C 243.636 -1.71294 -1.16043 0
M  V30 2506 C 244.051 -0.429259 -1.83855 0
M  V30 2507 O 243.408 0.595921 -1.72496 0
M  V30 2508 C 243.459 -2.8593 -2.21193 0
M  V30 2509 O 243.18 -4.09329 -1.56146 0
M  V30 2510 C 244.681 -3.16259 -3.10636 0
M  V30 2511 H 241.901 -0.573641 -0.348104 0
M  V30 2512 H 244.445 -1.99234 -0.461092 0
M  V30 2513 H 242.6 -2.60465 -2.86769 0
M  V30 2514 H 243.014 -4.73323 -2.25978 0
M  V30 2515 H 244.488 -3.99946 -3.80456 0
M  V30 2516 H 244.965 -2.3045 -3.73884 0
M  V30 2517 H 245.571 -3.43547 -2.50711 0
M  V30 2518 N 243.887 0.651787 -1.4349 0
M  V30 2519 C 245.117 1.43728 -1.48411 0
M  V30 2520 C 245.525 1.8893 -0.10103 0
M  V30 2521 O 244.868 1.60182 0.899307 0
M  V30 2522 C 244.93 2.70411 -2.36893 0
M  V30 2523 C 244.594 2.4714 -3.8441 0
M  V30 2524 C 245.591 2.10271 -4.75481 0
M  V30 2525 C 243.276 2.6142 -4.28912 0
M  V30 2526 C 245.27 1.87982 -6.0905 0
M  V30 2527 C 242.957 2.38746 -5.62533 0
M  V30 2528 C 243.955 2.02083 -6.5242 0
M  V30 2529 O 243.643 1.79647 -7.8357 0
M  V30 2530 H 243.375 0.447962 -0.506267 0
M  V30 2531 H 245.929 0.80624 -1.88915 0
M  V30 2532 H 244.159 3.36079 -1.91278 0
M  V30 2533 H 245.848 3.32364 -2.33 0
M  V30 2534 H 246.614 1.98814 -4.42378 0
M  V30 2535 H 242.493 2.88931 -3.59222 0
M  V30 2536 H 246.037 1.5929 -6.7917 0
M  V30 2537 H 241.934 2.49806 -5.95203 0
M  V30 2538 H 242.702 1.9406 -7.95162 0
M  V30 2539 N 245.365 1.30045 0.890287 0
M  V30 2540 C 246.275 1.17885 2.02831 0
M  V30 2541 C 247.291 0.0999609 1.73713 0
M  V30 2542 O 248.467 0.313867 1.98939 0
M  V30 2543 C 245.532 0.866079 3.35708 0
M  V30 2544 C 244.593 2.02979 3.78283 0
M  V30 2545 C 243.826 1.73184 5.0482 0
M  V30 2546 O 244.049 0.657237 5.66601 0
M  V30 2547 O 242.983 2.58267 5.43674 0
M  V30 2548 H 246.809 2.13474 2.16015 0
M  V30 2549 H 244.394 1.09587 1.01543 0
M  V30 2550 H 246.276 0.706623 4.15433 0
M  V30 2551 H 244.951 -0.0599443 3.23644 0
M  V30 2552 H 243.858 2.24454 2.99285 0
M  V30 2553 H 245.191 2.93734 3.94944 0
M  V30 2554 N 246.843 -1.10192 1.12674 0
M  V30 2555 C 247.773 -2.18652 0.819362 0
M  V30 2556 C 248.754 -1.68698 -0.217915 0
M  V30 2557 O 249.939 -1.94041 -0.0785581 0
M  V30 2558 C 247.069 -3.46202 0.27594 0
M  V30 2559 C 246.023 -4.09444 1.24656 0
M  V30 2560 C 245.349 -5.31725 0.563258 0
M  V30 2561 C 246.649 -4.52863 2.60217 0
M  V30 2562 H 248.343 -2.44622 1.72628 0
M  V30 2563 H 245.889 -1.17571 0.831451 0
M  V30 2564 H 247.842 -4.21372 0.0486149 0
M  V30 2565 H 246.566 -3.1973 -0.666331 0
M  V30 2566 H 245.225 -3.36284 1.45974 0
M  V30 2567 H 244.873 -5.0153 -0.384235 0
M  V30 2568 H 244.573 -5.74991 1.21075 0
M  V30 2569 H 246.097 -6.09624 0.34503 0
M  V30 2570 H 247.511 -5.19294 2.42913 0
M  V30 2571 H 245.908 -5.06986 3.21068 0
M  V30 2572 H 246.978 -3.65656 3.18471 0
M  V30 2573 N 248.321 -0.919034 -1.28029 0
M  V30 2574 C 249.549 -0.570971 -1.98866 0
M  V30 2575 C 249.964 0.848996 -1.68634 0
M  V30 2576 O 249.321 1.56307 -0.942036 0
M  V30 2577 C 249.372 -0.776876 -3.53054 0
M  V30 2578 O 249.093 -2.14097 -3.82222 0
M  V30 2579 C 250.594 -0.436356 -4.41147 0
M  V30 2580 H 247.814 -0.217175 -0.634883 0
M  V30 2581 H 250.358 -1.23368 -1.63097 0
M  V30 2582 H 248.513 -0.161085 -3.87065 0
M  V30 2583 H 248.927 -2.18455 -4.76841 0
M  V30 2584 H 250.401 -0.63117 -5.4838 0
M  V30 2585 H 250.878 0.627686 -4.34692 0
M  V30 2586 H 251.484 -1.02991 -4.12641 0
M  V30 2587 N 249.799 1.42003 -0.683588 0
M  V30 2588 C 251.21 1.84501 -0.285736 0
M  V30 2589 C 251.561 1.57213 1.17382 0
M  V30 2590 O 250.686 1.03642 1.89966 0
M  V30 2591 C 251.281 3.34912 -0.511821 0
M  V30 2592 C 249.84 3.76025 -0.168005 0
M  V30 2593 C 248.987 2.6551 -0.799983 0
M  V30 2594 H 251.938 1.31724 -0.885119 0
M  V30 2595 H 251.959 3.79784 0.233292 0
M  V30 2596 H 251.471 3.54741 -1.57418 0
M  V30 2597 H 249.572 3.61801 0.890567 0
M  V30 2598 H 249.685 4.75141 -0.614661 0
M  V30 2599 H 248.049 2.53654 -0.230568 0
M  V30 2600 H 248.832 2.8816 -1.86597 0
M  V30 2601 N 251.277 0.427512 1.51691 0
M  V30 2602 C 252.225 -0.403359 2.29076 0
M  V30 2603 C 253.219 -1.02962 1.34518 0
M  V30 2604 O 254.425 -0.965715 1.51901 0
M  V30 2605 H 250.8 -0.148879 0.737115 0
M  V30 2606 H 252.771 0.270295 2.97173 0
M  V30 2607 C 251.52 -1.49763 3.13794 0
M  V30 2608 H 250.843 -1.02508 3.86435 0
M  V30 2609 H 252.283 -2.05244 3.71014 0
M  V30 2610 C 250.742 -2.47536 2.28533 0
M  V30 2611 O 251.272 -3.51848 1.93819 0
M  V30 2612 N 249.478 -2.18187 1.91945 0
M  V30 2613 H 249.025 -1.33389 2.20375 0
M  V30 2614 H 248.983 -2.83848 1.35195 0
M  V30 2615 N 252.755 -1.56801 0.158532 0
M  V30 2616 C 253.665 -2.20916 -0.789518 0
M  V30 2617 C 254.681 -1.1969 -1.26294 0
M  V30 2618 O 255.857 -1.52308 -1.31773 0
M  V30 2619 C 252.922 -2.82727 -2.00665 0
M  V30 2620 C 251.983 -3.99114 -1.58134 0
M  V30 2621 C 251.216 -4.57968 -2.74045 0
M  V30 2622 O 251.439 -4.15704 -3.90572 0
M  V30 2623 O 250.373 -5.48047 -2.48855 0
M  V30 2624 H 254.199 -3.02464 -0.273681 0
M  V30 2625 H 251.784 -1.4924 -0.0690548 0
M  V30 2626 H 253.666 -3.21968 -2.71872 0
M  V30 2627 H 252.341 -2.04184 -2.51179 0
M  V30 2628 H 251.248 -3.64567 -0.839155 0
M  V30 2629 H 252.581 -4.79212 -1.12325 0
M  V30 2630 N 254.233 0.115231 -1.57178 0
M  V30 2631 C 255.163 1.1423 -2.03651 0
M  V30 2632 C 256.144 1.42967 -0.921655 0
M  V30 2633 O 257.329 1.53343 -1.19162 0
M  V30 2634 C 254.459 2.4675 -2.44401 0
M  V30 2635 C 253.413 2.32467 -3.59365 0
M  V30 2636 C 252.739 3.69984 -3.86026 0
M  V30 2637 C 254.039 1.78203 -4.90959 0
M  V30 2638 H 255.733 0.755749 -2.89705 0
M  V30 2639 H 253.279 0.362093 -1.39373 0
M  V30 2640 H 255.232 3.18854 -2.75517 0
M  V30 2641 H 253.956 2.87302 -1.55322 0
M  V30 2642 H 252.615 1.62811 -3.28463 0
M  V30 2643 H 252.263 4.08028 -2.94147 0
M  V30 2644 H 251.963 3.61279 -4.63412 0
M  V30 2645 H 253.487 4.43587 -4.19599 0
M  V30 2646 H 254.901 2.40128 -5.20587 0
M  V30 2647 H 253.298 1.8031 -5.72371 0
M  V30 2648 H 254.368 0.739876 -4.79222 0
M  V30 2649 N 255.711 1.52812 0.385517 0
M  V30 2650 C 256.958 1.68026 1.1302 0
M  V30 2651 C 257.286 0.421934 1.89868 0
M  V30 2652 O 256.541 -0.595749 1.86412 0
M  V30 2653 C 256.84 2.86856 2.13187 0
M  V30 2654 C 256.506 4.24159 1.5297 0
M  V30 2655 C 255.168 4.61501 1.36274 0
M  V30 2656 C 257.52 5.09627 1.09223 0
M  V30 2657 C 254.848 5.81966 0.743837 0
M  V30 2658 C 257.2 6.30719 0.487411 0
M  V30 2659 C 255.864 6.6679 0.307777 0
M  V30 2660 H 255.134 0.614849 0.413571 0
M  V30 2661 H 257.781 1.86962 0.414405 0
M  V30 2662 H 256.086 2.6235 2.90998 0
M  V30 2663 H 257.783 2.95821 2.70722 0
M  V30 2664 H 254.373 3.94746 1.66954 0
M  V30 2665 H 258.557 4.81343 1.20922 0
M  V30 2666 H 253.813 6.08519 0.592891 0
M  V30 2667 H 257.987 6.96259 0.140143 0
M  V30 2668 H 255.614 7.60001 -0.173879 0
M  V30 2669 N 257.189 -0.644168 1.43834 0
M  V30 2670 C 258.437 -1.40117 1.45642 0
M  V30 2671 C 258.758 -1.94814 0.0852413 0
M  V30 2672 O 258.028 -1.74988 -0.880688 0
M  V30 2673 H 256.608 -0.52005 0.536243 0
M  V30 2674 H 259.27 -0.7591 1.7951 0
M  V30 2675 H 258.366 -2.23902 2.17427 0
M  V30 2676 N 258.668 -1.30515 -0.883378 0
M  V30 2677 C 259.598 -1.19607 -2.00541 0
M  V30 2678 C 260.579 -0.086346 -1.69881 0
M  V30 2679 O 261.764 -0.268654 -1.92333 0
M  V30 2680 C 258.894 -0.888758 -3.35736 0
M  V30 2681 C 257.848 -1.95659 -3.8066 0
M  V30 2682 C 257.174 -1.50224 -5.13164 0
M  V30 2683 C 258.474 -3.36788 -3.99213 0
M  V30 2684 H 260.168 -2.13476 -2.09925 0
M  V30 2685 H 257.714 -1.02775 -1.00863 0
M  V30 2686 H 259.667 -0.799094 -4.13754 0
M  V30 2687 H 258.391 0.0856125 -3.26488 0
M  V30 2688 H 257.05 -2.03591 -3.04871 0
M  V30 2689 H 256.698 -0.516092 -5.00345 0
M  V30 2690 H 256.398 -2.2165 -5.44192 0
M  V30 2691 H 257.922 -1.42639 -5.93706 0
M  V30 2692 H 259.336 -3.31605 -4.67665 0
M  V30 2693 H 257.733 -4.06314 -4.41621 0
M  V30 2694 H 258.803 -3.78561 -3.03017 0
M  V30 2695 N 260.146 1.09593 -1.13257 0
M  V30 2696 C 261.056 2.19739 -0.821691 0
M  V30 2697 C 262.072 1.72926 0.19302 0
M  V30 2698 O 263.248 2.01385 0.0244895 0
M  V30 2699 C 260.313 3.45482 -0.290333 0
M  V30 2700 C 259.374 4.06985 -1.36607 0
M  V30 2701 C 258.607 5.26726 -0.859975 0
M  V30 2702 O 258.83 5.69594 0.303082 0
M  V30 2703 O 257.764 5.7931 -1.63351 0
M  V30 2704 H 261.59 2.48781 -1.74189 0
M  V30 2705 H 259.175 1.18496 -0.909894 0
M  V30 2706 H 261.057 4.214 0.000674022 0
M  V30 2707 H 259.732 3.18047 0.602306 0
M  V30 2708 H 258.639 3.32712 -1.71037 0
M  V30 2709 H 259.972 4.38643 -2.23279 0
M  V30 2710 N 261.624 0.925811 1.2754 0
M  V30 2711 C 262.873 0.561084 1.93739 0
M  V30 2712 C 263.186 -0.901685 1.73577 0
M  V30 2713 O 264.392 -1.37511 2.34101 0
M  V30 2714 C 262.848 0.952668 3.47062 0
M  V30 2715 C 262.456 2.43599 3.75983 0
M  V30 2716 C 264.2 0.659103 4.19352 0
M  V30 2717 C 262.107 2.76707 5.22673 0
M  V30 2718 H 261.037 0.206122 0.725279 0
M  V30 2719 H 263.688 1.12637 1.44863 0
M  V30 2720 H 262.07 0.316053 3.94737 0
M  V30 2721 H 263.244 3.12035 3.39073 0
M  V30 2722 H 261.559 2.70125 3.16893 0
M  V30 2723 H 264.156 0.882985 5.27359 0
M  V30 2724 H 264.499 -0.403607 4.14339 0
M  V30 2725 H 265.032 1.25473 3.77494 0
M  V30 2726 H 261.771 3.8188 5.32774 0
M  V30 2727 H 261.291 2.12919 5.60737 0
M  V30 2728 H 262.97 2.6435 5.90532 0
M  V30 2729 N 263.102 -1.41638 0.69111 0
M  V30 2730 C 264.049 -2.30789 0.0229705 0
M  V30 2731 C 265.019 -1.46863 -0.775911 0
M  V30 2732 O 266.204 -1.75661 -0.74485 0
M  V30 2733 C 263.344 -3.32868 -0.910666 0
M  V30 2734 C 262.457 -4.31875 -0.103874 0
M  V30 2735 C 261.592 -5.21024 -1.03475 0
M  V30 2736 C 260.631 -6.11702 -0.220598 0
M  V30 2737 N 259.768 -6.93349 -1.10504 0
M  V30 2738 H 264.608 -2.87366 0.788978 0
M  V30 2739 H 262.145 -1.41535 0.400794 0
M  V30 2740 H 264.103 -3.90596 -1.46597 0
M  V30 2741 H 262.733 -2.77851 -1.64312 0
M  V30 2742 H 261.785 -3.76131 0.568285 0
M  V30 2743 H 263.097 -4.96003 0.527504 0
M  V30 2744 H 262.251 -5.83565 -1.65943 0
M  V30 2745 H 260.99 -4.57112 -1.69999 0
M  V30 2746 H 259.995 -5.48215 0.417187 0
M  V30 2747 H 261.22 -6.77668 0.440784 0
M  V30 2748 H 259.166 -6.3205 -1.75638 0
M  V30 2749 H 259.083 -7.54146 -0.529125 0
M  V30 2750 H 260.351 -7.60362 -1.71667 0
M  V30 2751 N 264.58 -0.43555 -1.51462 0
M  V30 2752 C 265.808 0.130242 -2.0649 0
M  V30 2753 C 266.223 1.36614 -1.30315 0
M  V30 2754 O 265.58 1.78869 -0.362223 0
M  V30 2755 C 265.631 0.454253 -3.58635 0
M  V30 2756 O 265.352 -0.73259 -4.31931 0
M  V30 2757 C 266.853 1.07091 -4.3017 0
M  V30 2758 H 264.073 0.00871669 -0.670943 0
M  V30 2759 H 266.617 -0.614117 -1.95061 0
M  V30 2760 H 264.772 1.14851 -3.69984 0
M  V30 2761 H 265.186 -0.455787 -5.22516 0
M  V30 2762 H 266.66 1.24764 -5.37716 0
M  V30 2763 H 267.137 2.05144 -3.88346 0
M  V30 2764 H 267.743 0.416089 -4.2326 0
M  V30 2765 N 266.058 1.56714 -0.166846 0
M  V30 2766 C 267.474 1.58473 0.189372 0
M  V30 2767 C 267.674 1.18201 1.63189 0
M  V30 2768 O 266.73 0.891528 2.36237 0
M  V30 2769 C 268.043 3.00573 -0.0873872 0
M  V30 2770 C 269.591 3.1299 -0.0252443 0
M  V30 2771 C 270.066 4.57174 -0.274934 0
M  V30 2772 N 271.557 4.62665 -0.222553 0
M  V30 2773 C 272.292 5.72072 -0.389985 0
M  V30 2774 N 271.788 6.90054 -0.616229 0
M  V30 2775 N 273.581 5.61153 -0.326202 0
M  V30 2776 H 265.732 1.8118 -1.10849 0
M  V30 2777 H 267.995 0.839525 -0.440342 0
M  V30 2778 H 267.701 3.34497 -1.0865 0
M  V30 2779 H 267.575 3.72019 0.623037 0
M  V30 2780 H 269.962 2.78895 0.96444 0
M  V30 2781 H 270.043 2.43989 -0.768309 0
M  V30 2782 H 269.687 4.91976 -1.26181 0
M  V30 2783 H 269.617 5.24328 0.48869 0
M  V30 2784 H 272.108 3.77863 -0.0531512 0
M  V30 2785 H 272.421 7.69311 -0.733559 0
M  V30 2786 H 270.766 6.91927 -0.652791 0
M  V30 2787 H 273.957 4.67859 -0.150072 0
M  V30 2788 H 274.13 6.46364 -0.460116 0
M  V30 2789 N 267.536 -0.106894 1.57237 0
M  V30 2790 C 268.784 -0.810921 1.85117 0
M  V30 2791 C 269.105 -1.7984 0.753827 0
M  V30 2792 O 268.375 -1.94649 -0.221056 0
M  V30 2793 H 266.955 -0.302466 0.683025 0
M  V30 2794 H 269.617 -0.0913324 1.94686 0
M  V30 2795 H 268.713 -1.34875 2.81452 0
M  V30 2796 N 269.014 -1.53014 -0.377408 0
M  V30 2797 C 270.291 -1.59215 -1.13622 0
M  V30 2798 C 270.671 -0.392407 -2.07421 0
M  V30 2799 O 270.019 0.618342 -2.19975 0
M  V30 2800 C 270.229 -2.93669 -1.88573 0
M  V30 2801 C 271.577 -3.47822 -2.43526 0
M  V30 2802 O 272.601 -2.9562 -1.98715 0
M  V30 2803 O 271.46 -4.39055 -3.25412 0
M  V30 2804 H 268.554 -0.642625 -0.52054 0
M  V30 2805 H 271.1 -1.65353 -0.381625 0
M  V30 2806 H 269.872 -3.7243 -1.20048 0
M  V30 2807 H 269.495 -2.90968 -2.70968 0
M  V30 2808 N 270.492 0.636531 -1.44174 0
M  V30 2809 C 271.74 1.39343 -1.46383 0
M  V30 2810 C 272.061 1.94766 -0.0955715 0
M  V30 2811 O 271.331 1.75452 0.871395 0
M  V30 2812 H 269.911 0.517199 -0.538994 0
M  V30 2813 H 272.573 0.74957 -1.7991 0
M  V30 2814 H 271.669 2.22746 -2.18611 0
M  V30 2815 N 271.97 1.30982 0.876444 0
M  V30 2816 C 273.195 1.23373 1.66715 0
M  V30 2817 C 273.62 -0.19885 1.87046 0
M  V30 2818 O 272.978 -1.1427 1.40756 0
M  V30 2819 C 273.026 1.97644 3.01611 0
M  V30 2820 O 272.13 1.30935 3.91062 0
M  V30 2821 H 271.471 0.426279 0.509099 0
M  V30 2822 H 274.001 1.72944 1.09323 0
M  V30 2823 H 274.011 2.06992 3.51594 0
M  V30 2824 H 272.686 3.01829 2.86133 0
M  V30 2825 H 271.263 1.29996 3.49507 0
M  V30 2826 N 273.449 -1.08991 1.13837 0
M  V30 2827 C 274.865 -1.33312 0.877506 0
M  V30 2828 C 275.065 -1.95587 -0.48456 0
M  V30 2829 O 274.121 -2.20509 -1.23013 0
M  V30 2830 C 275.434 -2.24045 2.0056 0
M  V30 2831 C 276.982 -2.37542 2.03821 0
M  V30 2832 C 277.457 -3.31614 3.15905 0
M  V30 2833 N 278.948 -3.39189 3.15445 0
M  V30 2834 C 279.683 -4.11992 3.98811 0
M  V30 2835 N 279.179 -4.87553 4.92203 0
M  V30 2836 N 280.972 -4.07762 3.86894 0
M  V30 2837 H 273.123 -0.669456 2.01574 0
M  V30 2838 H 275.386 -0.357482 0.878015 0
M  V30 2839 H 275.092 -1.85521 2.98789 0
M  V30 2840 H 274.966 -3.24466 1.92359 0
M  V30 2841 H 277.353 -2.75327 1.06202 0
M  V30 2842 H 277.434 -1.36884 2.16093 0
M  V30 2843 H 277.078 -2.94551 4.13766 0
M  V30 2844 H 277.008 -4.32186 3.0087 0
M  V30 2845 H 279.499 -2.85314 2.47799 0
M  V30 2846 H 279.812 -5.40549 5.52292 0
M  V30 2847 H 278.157 -4.86627 4.96205 0
M  V30 2848 H 281.348 -3.47833 3.13257 0
M  V30 2849 H 281.521 -4.64238 4.52092 0
M  V30 2850 N 274.927 -0.932562 -1.27047 0
M  V30 2851 C 276.174 -0.575559 -1.94148 0
M  V30 2852 C 276.502 0.883984 -1.73251 0
M  V30 2853 O 275.757 1.64655 -1.0577 0
M  V30 2854 C 276.056 -0.853713 -3.47054 0
M  V30 2855 C 275.722 -2.29577 -3.88079 0
M  V30 2856 C 274.384 -2.68999 -3.9899 0
M  V30 2857 C 276.736 -3.23331 -4.08787 0
M  V30 2858 C 274.064 -4.01289 -4.28 0
M  V30 2859 C 276.416 -4.55207 -4.39282 0
M  V30 2860 C 275.08 -4.94457 -4.48407 0
M  V30 2861 H 274.35 -0.210612 -0.710439 0
M  V30 2862 H 276.997 -1.17744 -1.51025 0
M  V30 2863 H 275.302 -0.169204 -3.91434 0
M  V30 2864 H 276.999 -0.55639 -3.97121 0
M  V30 2865 H 273.589 -1.97994 -3.80127 0
M  V30 2866 H 277.773 -2.94074 -3.99793 0
M  V30 2867 H 273.029 -4.31374 -4.33275 0
M  V30 2868 H 277.203 -5.27852 -4.54252 0
M  V30 2869 H 274.83 -5.96994 -4.7064 0
M  V30 2870 N 276.405 1.4127 -0.698611 0
M  V30 2871 C 277.368 2.29158 -0.044132 0
M  V30 2872 C 278.368 1.44529 0.704841 0
M  V30 2873 O 279.558 1.65643 0.539276 0
M  V30 2874 C 276.69 3.27459 0.947809 0
M  V30 2875 H 277.883 2.88529 -0.817994 0
M  V30 2876 H 275.436 1.49307 -0.46228 0
M  V30 2877 H 276.171 2.73073 1.74933 0
M  V30 2878 H 275.956 3.8991 0.41385 0
M  V30 2879 H 277.446 3.93311 1.40344 0
M  V30 2880 N 277.883 0.443576 1.51229 0
M  V30 2881 C 278.793 -0.370721 2.31652 0
M  V30 2882 C 279.809 -1.02186 1.40833 0
M  V30 2883 O 280.985 -1.01586 1.73903 0
M  V30 2884 C 278.05 -1.45376 3.14749 0
M  V30 2885 C 277.111 -0.822099 4.21355 0
M  V30 2886 C 276.344 -1.85353 5.0048 0
M  V30 2887 O 276.567 -3.07656 4.80316 0
M  V30 2888 O 275.501 -1.4406 5.84406 0
M  V30 2889 H 279.327 0.286002 3.0235 0
M  V30 2890 H 276.912 0.20598 1.47973 0
M  V30 2891 H 278.794 -2.08173 3.66391 0
M  V30 2892 H 277.469 -2.09445 2.46809 0
M  V30 2893 H 276.376 -0.155909 3.73775 0
M  V30 2894 H 277.709 -0.224797 4.91686 0
M  V30 2895 N 279.361 -1.56624 0.175154 0
M  V30 2896 C 280.291 -2.21155 -0.749195 0
M  V30 2897 C 281.272 -1.16836 -1.23626 0
M  V30 2898 O 282.457 -1.45277 -1.28873 0
M  V30 2899 C 279.587 -2.8553 -1.97711 0
M  V30 2900 C 278.541 -3.95921 -1.62575 0
M  V30 2901 C 277.867 -4.47365 -2.92864 0
M  V30 2902 C 279.167 -5.15323 -0.850838 0
M  V30 2903 H 280.861 -2.98653 -0.211295 0
M  V30 2904 H 278.407 -1.43651 -0.100188 0
M  V30 2905 H 280.36 -3.2935 -2.62881 0
M  V30 2906 H 279.084 -2.05406 -2.53921 0
M  V30 2907 H 277.743 -3.52762 -0.997719 0
M  V30 2908 H 277.391 -3.64027 -3.47122 0
M  V30 2909 H 277.091 -5.21839 -2.70106 0
M  V30 2910 H 278.615 -4.93873 -3.59056 0
M  V30 2911 H 280.029 -5.55812 -1.40521 0
M  V30 2912 H 278.426 -5.95739 -0.722154 0
M  V30 2913 H 279.496 -4.84661 0.152082 0
M  V30 2914 N 280.839 0.0985539 -1.57292 0
M  V30 2915 C 282.085 0.803867 -1.86188 0
M  V30 2916 C 282.418 1.78549 -0.763794 0
M  V30 2917 O 281.693 1.93153 0.22855 0
M  V30 2918 C 281.976 1.53568 -3.25713 0
M  V30 2919 C 281.829 0.572277 -4.46145 0
M  V30 2920 C 283.148 2.48708 -3.63087 0
M  V30 2921 H 280.267 0.290781 -0.677211 0
M  V30 2922 H 282.909 0.0675783 -1.8988 0
M  V30 2923 H 281.059 2.16332 -3.22696 0
M  V30 2924 H 282.731 -0.0480894 -4.61275 0
M  V30 2925 H 280.974 -0.114618 -4.33649 0
M  V30 2926 H 281.645 1.12139 -5.40489 0
M  V30 2927 H 284.121 1.96039 -3.67026 0
M  V30 2928 H 282.997 2.96932 -4.61652 0
M  V30 2929 H 283.258 3.32309 -2.91588 0
M  V30 2930 N 282.317 1.53212 0.369288 0
M  V30 2931 C 283.563 1.69466 1.11397 0
M  V30 2932 C 283.896 0.443257 1.89074 0
M  V30 2933 O 283.171 -0.559386 1.86282 0
M  V30 2934 C 283.454 2.9422 2.07621 0
M  V30 2935 C 283.307 4.29508 1.33577 0
M  V30 2936 C 284.626 3.14565 3.07794 0
M  V30 2937 H 281.745 0.616667 0.403597 0
M  V30 2938 H 284.387 1.85845 0.395179 0
M  V30 2939 H 282.537 2.80387 2.68916 0
M  V30 2940 H 284.209 4.55147 0.750955 0
M  V30 2941 H 282.452 4.29088 0.637618 0
M  V30 2942 H 283.123 5.12926 2.03989 0
M  V30 2943 H 285.599 3.2756 2.56601 0
M  V30 2944 H 284.475 4.03297 3.72348 0
M  V30 2945 H 284.736 2.29675 3.77759 0
M  V30 2946 N 283.795 -0.628877 1.44509 0
M  V30 2947 C 284.705 -1.7694 1.54044 0
M  V30 2948 C 285.721 -1.68705 0.425987 0
M  V30 2949 O 286.897 -1.89442 0.683656 0
M  V30 2950 C 283.962 -3.13332 1.48405 0
M  V30 2951 C 283.023 -3.33181 2.70719 0
M  V30 2952 C 282.256 -4.63067 2.6534 0
M  V30 2953 O 282.479 -5.44017 1.71469 0
M  V30 2954 O 281.413 -4.85167 3.56226 0
M  V30 2955 H 285.239 -1.71848 2.50403 0
M  V30 2956 H 282.824 -0.790378 1.26781 0
M  V30 2957 H 284.706 -3.94634 1.47791 0
M  V30 2958 H 283.381 -3.1896 0.551898 0
M  V30 2959 H 282.288 -2.51549 2.769 0
M  V30 2960 H 283.621 -3.32416 3.62988 0
M  V30 2961 N 285.273 -1.31445 -0.869486 0
M  V30 2962 C 286.22 -1.19135 -1.97675 0
M  V30 2963 C 287.19 -0.0770266 -1.65921 0
M  V30 2964 O 288.375 -0.249972 -1.89155 0
M  V30 2965 C 285.515 -0.905149 -3.33018 0
M  V30 2966 C 284.628 -2.10285 -3.77365 0
M  V30 2967 C 283.763 -1.75339 -5.01427 0
M  V30 2968 C 282.802 -2.91515 -5.38224 0
M  V30 2969 N 281.939 -2.56762 -6.53466 0
M  V30 2970 H 286.779 -2.13853 -2.07535 0
M  V30 2971 H 284.316 -1.06379 -1.01597 0
M  V30 2972 H 286.274 -0.719765 -4.10944 0
M  V30 2973 H 284.904 0.00519624 -3.228 0
M  V30 2974 H 283.956 -2.39899 -2.95216 0
M  V30 2975 H 285.268 -2.97237 -4.00564 0
M  V30 2976 H 284.422 -1.53266 -5.87022 0
M  V30 2977 H 283.161 -0.855801 -4.80133 0
M  V30 2978 H 282.166 -3.14237 -4.51149 0
M  V30 2979 H 283.391 -3.81985 -5.61484 0
M  V30 2980 H 281.337 -1.69526 -6.33717 0
M  V30 2981 H 281.254 -3.37243 -6.76612 0
M  V30 2982 H 282.522 -2.38083 -7.42251 0
M  V30 2983 N 286.751 1.08385 -1.14413 0
M  V30 2984 C 287.976 1.85057 -0.936413 0
M  V30 2985 C 288.401 1.81055 0.509971 0
M  V30 2986 O 287.759 1.1958 1.36273 0
M  V30 2987 C 287.807 3.30505 -1.44217 0
M  V30 2988 O 286.911 4.07491 -0.634409 0
M  V30 2989 H 286.252 0.573425 -0.334784 0
M  V30 2990 H 288.782 1.36799 -1.52142 0
M  V30 2991 H 288.792 3.81348 -1.45043 0
M  V30 2992 H 287.467 3.32734 -2.49522 0
M  V30 2993 H 286.044 3.66368 -0.694902 0
M  V30 2994 N 288.23 0.939286 1.26551 0
M  V30 2995 C 289.16 0.465044 2.28822 0
M  V30 2996 C 290.141 -0.480692 1.63167 0
M  V30 2997 O 291.326 -0.382955 1.90387 0
M  V30 2998 C 288.456 -0.27234 3.46231 0
M  V30 2999 C 287.41 0.58666 4.2396 0
M  V30 3000 C 286.736 -0.280573 5.33963 0
M  V30 3001 C 288.036 1.85704 4.88171 0
M  V30 3002 H 289.73 1.31979 2.68741 0
M  V30 3003 H 287.276 0.636061 1.29191 0
M  V30 3004 H 289.229 -0.615133 4.16886 0
M  V30 3005 H 287.953 -1.16121 3.0526 0
M  V30 3006 H 286.612 0.91232 3.55067 0
M  V30 3007 H 286.26 -1.16874 4.89234 0
M  V30 3008 H 285.96 0.29076 5.8688 0
M  V30 3009 H 287.484 -0.618678 6.07458 0
M  V30 3010 H 288.898 1.58161 5.51052 0
M  V30 3011 H 287.295 2.37279 5.51197 0
M  V30 3012 H 288.365 2.56957 4.11219 0
M  V30 3013 N 289.708 -1.40897 0.706093 0
M  V30 3014 C 290.985 -1.94868 0.169099 0
M  V30 3015 C 291.365 -1.64485 -1.32318 0
M  V30 3016 O 290.713 -0.95744 -2.07474 0
M  V30 3017 C 290.923 -3.45798 0.471654 0
M  V30 3018 C 292.271 -4.22663 0.405127 0
M  V30 3019 O 293.295 -3.53865 0.407168 0
M  V30 3020 O 292.154 -5.45216 0.374383 0
M  V30 3021 H 289.248 -0.82673 0.0211352 0
M  V30 3022 H 291.794 -1.50558 0.782976 0
M  V30 3023 H 290.566 -3.61235 1.50416 0
M  V30 3024 H 290.189 -3.97225 -0.172666 0
M  V30 3025 N 291.186 -0.45159 -1.50991 0
M  V30 3026 C 292.602 -0.104647 -1.59257 0
M  V30 3027 C 292.802 1.38728 -1.4614 0
M  V30 3028 O 291.858 2.15866 -1.30989 0
M  V30 3029 C 293.171 -0.637468 -2.93865 0
M  V30 3030 C 294.719 -0.599166 -3.07212 0
M  V30 3031 C 295.194 -1.1092 -4.44366 0
M  V30 3032 N 296.685 -1.06778 -4.50725 0
M  V30 3033 C 297.42 -1.43314 -5.55201 0
M  V30 3034 N 296.916 -1.87204 -6.67028 0
M  V30 3035 N 298.709 -1.3504 -5.45638 0
M  V30 3036 H 290.86 -1.42214 -1.57762 0
M  V30 3037 H 293.123 -0.586921 -0.744465 0
M  V30 3038 H 292.829 -1.68187 -3.08879 0
M  V30 3039 H 292.703 -0.0702139 -3.77135 0
M  V30 3040 H 295.09 0.436277 -2.91857 0
M  V30 3041 H 295.171 -1.20299 -2.25747 0
M  V30 3042 H 294.815 -2.14318 -4.60467 0
M  V30 3043 H 294.745 -0.481773 -5.24392 0
M  V30 3044 H 297.236 -0.745643 -3.70471 0
M  V30 3045 H 297.549 -2.13282 -7.42786 0
M  V30 3046 H 295.894 -1.91142 -6.68199 0
M  V30 3047 H 299.085 -1.00607 -4.57161 0
M  V30 3048 H 299.258 -1.63841 -6.26945 0
M  V30 3049 N 292.664 1.56529 -0.183458 0
M  V30 3050 C 293.574 2.22144 0.754272 0
M  V30 3051 C 294.59 1.21684 1.24374 0
M  V30 3052 O 295.766 1.54385 1.29333 0
M  V30 3053 C 292.831 2.85884 1.96141 0
M  V30 3054 C 291.892 4.01579 1.51765 0
M  V30 3055 C 291.125 4.6227 2.66725 0
M  V30 3056 O 291.348 4.21865 3.83909 0
M  V30 3057 O 290.282 5.51936 2.40104 0
M  V30 3058 H 294.108 3.02861 0.225527 0
M  V30 3059 H 291.693 1.49331 0.0453032 0
M  V30 3060 H 293.575 3.26253 2.66715 0
M  V30 3061 H 292.25 2.08154 2.47899 0
M  V30 3062 H 291.157 3.65856 0.781049 0
M  V30 3063 H 292.49 4.80938 1.04686 0
M  V30 3064 N 294.142 -0.090211 1.57342 0
M  V30 3065 C 295.37 -0.806224 1.90546 0
M  V30 3066 C 295.785 -1.72041 0.777644 0
M  V30 3067 O 295.142 -1.80778 -0.250103 0
M  V30 3068 C 295.193 -1.61546 3.23396 0
M  V30 3069 O 294.914 -0.738043 4.31839 0
M  V30 3070 C 296.415 -2.4341 3.70495 0
M  V30 3071 H 293.635 -0.230256 0.630257 0
M  V30 3072 H 296.179 -0.0659843 2.04394 0
M  V30 3073 H 294.334 -2.30816 3.11131 0
M  V30 3074 H 294.748 -1.29901 5.08159 0
M  V30 3075 H 296.222 -2.95676 4.66133 0
M  V30 3076 H 296.699 -3.22098 2.98579 0
M  V30 3077 H 297.305 -1.79331 3.85643 0
M  V30 3078 N 295.62 -1.53406 -0.361157 0
M  V30 3079 C 296.552 -1.76446 -1.46286 0
M  V30 3080 C 297.565 -0.645322 -1.49464 0
M  V30 3081 O 298.754 -0.921681 -1.52864 0
M  V30 3082 C 295.854 -1.83332 -2.85031 0
M  V30 3083 C 295.027 -3.13033 -3.05498 0
M  V30 3084 C 294.086 -3.11104 -4.24383 0
M  V30 3085 O 293.112 -3.84888 -4.19344 0
M  V30 3086 N 294.314 -2.32234 -5.32022 0
M  V30 3087 H 297.079 -2.71508 -1.26899 0
M  V30 3088 H 294.64 -1.52238 -0.550915 0
M  V30 3089 H 296.632 -1.79514 -3.62708 0
M  V30 3090 H 295.202 -0.955342 -2.97644 0
M  V30 3091 H 294.422 -3.30119 -2.15442 0
M  V30 3092 H 295.71 -3.9874 -3.16044 0
M  V30 3093 H 295.108 -1.71807 -5.38979 0
M  V30 3094 H 293.665 -2.3423 -6.08259 0
M  V30 3095 N 297.098 0.621204 -1.44841 0
M  V30 3096 C 298.323 1.41244 -1.51871 0
M  V30 3097 C 298.748 1.87519 -0.147764 0
M  V30 3098 O 298.106 1.59334 0.865 0
M  V30 3099 C 298.154 2.60221 -2.49634 0
M  V30 3100 O 297.258 3.60395 -2.00473 0
M  V30 3101 H 296.599 0.42223 -0.512463 0
M  V30 3102 H 299.129 0.757305 -1.90069 0
M  V30 3103 H 299.139 3.0764 -2.67996 0
M  V30 3104 H 297.814 2.25887 -3.4921 0
M  V30 3105 H 296.391 3.19717 -1.91925 0
M  V30 3106 N 298.576 1.31904 0.862503 0
M  V30 3107 C 299.526 1.16772 1.95827 0
M  V30 3108 C 300.51 0.0767098 1.60717 0
M  V30 3109 O 301.702 0.302407 1.74398 0
M  V30 3110 C 298.831 0.884858 3.317 0
M  V30 3111 C 297.917 2.0172 3.73055 0
M  V30 3112 N 298.308 3.265 3.86305 0
M  V30 3113 C 296.606 1.91861 4.02623 0
M  V30 3114 C 297.307 4.00616 4.2176 0
M  V30 3115 N 296.283 3.28847 4.32852 0
M  V30 3116 H 300.085 2.11382 2.04193 0
M  V30 3117 H 297.599 1.2357 1.05377 0
M  V30 3118 H 299.596 0.757419 4.09962 0
M  V30 3119 H 298.256 -0.0529448 3.24657 0
M  V30 3120 H 299.267 3.61529 3.70833 0
M  V30 3121 H 295.944 1.05593 4.03926 0
M  V30 3122 H 297.334 5.08182 4.39546 0
M  V30 3123 N 300.054 -1.07777 1.14986 0
M  V30 3124 C 301.284 -1.83752 0.944402 0
M  V30 3125 C 301.692 -1.8218 -0.51058 0
M  V30 3126 O 301.035 -1.22852 -1.36576 0
M  V30 3127 C 301.097 -3.32128 1.37592 0
M  V30 3128 C 300.761 -3.57425 2.84775 0
M  V30 3129 C 301.758 -3.5173 3.8286 0
M  V30 3130 C 299.443 -3.8523 3.2234 0
M  V30 3131 C 301.437 -3.73482 5.16517 0
M  V30 3132 C 299.124 -4.06634 4.56171 0
M  V30 3133 C 300.122 -4.00754 5.53069 0
M  V30 3134 O 299.81 -4.2159 6.84483 0
M  V30 3135 H 299.542 -0.58673 0.335744 0
M  V30 3136 H 302.096 -1.36982 1.53052 0
M  V30 3137 H 300.326 -3.79686 0.733165 0
M  V30 3138 H 302.015 -3.89555 1.14024 0
M  V30 3139 H 302.781 -3.30256 3.55184 0
M  V30 3140 H 298.66 -3.88923 2.47508 0
M  V30 3141 H 302.204 -3.68808 5.92137 0
M  V30 3142 H 298.101 -4.27593 4.83564 0
M  V30 3143 H 298.869 -4.38961 6.90837 0
M  V30 3144 N 301.532 -0.945985 -1.26051 0
M  V30 3145 C 302.757 -0.612525 -1.98149 0
M  V30 3146 C 303.182 0.806623 -1.69927 0
M  V30 3147 O 302.54 1.54411 -0.950108 0
M  V30 3148 C 302.588 -0.866981 -3.50023 0
M  V30 3149 O 301.692 0.0585333 -4.12358 0
M  V30 3150 H 301.033 -0.23379 -0.621481 0
M  V30 3151 H 303.563 -1.27023 -1.60395 0
M  V30 3152 H 303.573 -0.789792 -4.00283 0
M  V30 3153 H 302.248 -1.90135 -3.69894 0
M  V30 3154 H 300.825 -0.0701241 -3.72834 0
M  V30 3155 N 303.011 1.40521 -0.713556 0
M  V30 3156 C 304.258 2.00923 -0.25219 0
M  V30 3157 C 304.586 1.56571 1.15395 0
M  V30 3158 O 303.841 0.775874 1.79663 0
M  V30 3159 C 304.14 3.56317 -0.278 0
M  V30 3160 C 303.806 4.20246 -1.63415 0
M  V30 3161 C 302.468 4.37422 -2.00538 0
M  V30 3162 C 304.82 4.55923 -2.52554 0
M  V30 3163 C 302.148 4.87558 -3.2635 0
M  V30 3164 C 304.5 5.07458 -3.77716 0
M  V30 3165 C 303.164 5.22843 -4.14959 0
M  V30 3166 H 302.434 0.735231 -0.0922829 0
M  V30 3167 H 305.081 1.68161 -0.916188 0
M  V30 3168 H 303.386 3.88976 0.469567 0
M  V30 3169 H 305.083 4.00883 0.0967819 0
M  V30 3170 H 301.673 4.07263 -1.33546 0
M  V30 3171 H 305.857 4.42291 -2.25149 0
M  V30 3172 H 301.113 4.97654 -3.55176 0
M  V30 3173 H 305.287 5.34041 -4.4696 0
M  V30 3174 H 302.914 5.61454 -5.12516 0
M  V30 3175 N 304.489 0.459591 1.5075 0
M  V30 3176 C 305.905 0.113092 1.59199 0
M  V30 3177 C 306.105 -1.37951 1.46874 0
M  V30 3178 O 305.161 -2.15168 1.32132 0
M  V30 3179 C 306.474 0.653043 2.93523 0
M  V30 3180 C 308.022 0.615449 3.0689 0
M  V30 3181 C 308.497 1.13275 4.43771 0
M  V30 3182 N 309.988 1.09167 4.50152 0
M  V30 3183 C 310.723 1.46256 5.54434 0
M  V30 3184 N 310.219 1.90739 6.66026 0
M  V30 3185 N 312.012 1.37932 5.44914 0
M  V30 3186 H 304.163 1.43049 1.57005 0
M  V30 3187 H 306.426 0.590861 0.741341 0
M  V30 3188 H 306.132 1.69822 3.07983 0
M  V30 3189 H 306.006 0.0902132 3.77092 0
M  V30 3190 H 308.393 -0.420793 2.92084 0
M  V30 3191 H 308.474 1.21495 2.25106 0
M  V30 3192 H 308.118 2.16757 4.59324 0
M  V30 3193 H 308.048 0.509576 5.24129 0
M  V30 3194 H 310.539 0.76528 3.7007 0
M  V30 3195 H 310.852 2.17218 7.41644 0
M  V30 3196 H 309.197 1.94683 6.67176 0
M  V30 3197 H 312.388 1.0303 4.56621 0
M  V30 3198 H 312.561 1.67164 6.26067 0
M  V30 3199 N 305.967 -1.56429 0.191757 0
M  V30 3200 C 307.216 -1.9666 -0.448088 0
M  V30 3201 C 307.529 -1.08136 -1.62991 0
M  V30 3202 O 308.735 -1.38135 -2.33733 0
M  V30 3203 C 307.191 -3.49753 -0.848585 0
M  V30 3204 C 306.799 -4.46935 0.308764 0
M  V30 3205 C 308.543 -3.9876 -1.4557 0
M  V30 3206 C 306.45 -5.91293 -0.112506 0
M  V30 3207 H 305.38 -0.734312 -0.171179 0
M  V30 3208 H 308.031 -1.81301 0.283242 0
M  V30 3209 H 306.413 -3.60604 -1.63649 0
M  V30 3210 H 307.587 -4.47813 1.08627 0
M  V30 3211 H 305.902 -4.08102 0.827158 0
M  V30 3212 H 308.499 -5.04086 -1.78328 0
M  V30 3213 H 308.842 -3.42875 -2.36099 0
M  V30 3214 H 309.375 -3.9101 -0.731836 0
M  V30 3215 H 306.114 -6.51097 0.758514 0
M  V30 3216 H 305.634 -5.93676 -0.854941 0
M  V30 3217 H 307.313 -6.44663 -0.549448 0
M  V30 3218 N 307.445 0.0818655 -1.57387 0
M  V30 3219 C 308.673 0.796108 -1.9097 0
M  V30 3220 C 309.088 1.71626 -0.786757 0
M  V30 3221 O 308.445 1.80908 0.240513 0
M  V30 3222 C 308.496 1.59829 -3.24248 0
M  V30 3223 O 308.217 0.715131 -4.32224 0
M  V30 3224 C 309.718 2.41442 -3.7178 0
M  V30 3225 H 306.938 0.22691 -0.631469 0
M  V30 3226 H 309.482 0.0551439 -2.04426 0
M  V30 3227 H 307.637 2.29163 -3.12351 0
M  V30 3228 H 308.051 1.27205 -5.08841 0
M  V30 3229 H 309.525 2.932 -4.67694 0
M  V30 3230 H 310.002 3.2051 -3.00283 0
M  V30 3231 H 310.608 1.77283 -3.86589 0
M  V30 3232 N 308.923 1.53595 0.353017 0
M  V30 3233 C 309.886 1.80232 1.41594 0
M  V30 3234 C 310.886 0.673081 1.46035 0
M  V30 3235 O 312.076 0.941335 1.46576 0
M  V30 3236 C 309.208 1.93578 2.80607 0
M  V30 3237 H 310.401 2.75174 1.19244 0
M  V30 3238 H 307.954 1.44864 0.586872 0
M  V30 3239 H 308.689 1.00746 3.08254 0
M  V30 3240 H 308.474 2.75724 2.78781 0
M  V30 3241 H 309.964 2.15735 3.57558 0
M  V30 3242 N 310.401 -0.613514 1.45168 0
M  V30 3243 C 311.331 -1.7354 1.56225 0
M  V30 3244 C 312.312 -1.64981 0.41414 0
M  V30 3245 O 313.497 -1.83472 0.636526 0
M  V30 3246 C 310.627 -3.12128 1.52295 0
M  V30 3247 C 309.581 -3.35491 2.65762 0
M  V30 3248 C 308.907 -4.74291 2.46885 0
M  V30 3249 C 310.207 -3.26325 4.0781 0
M  V30 3250 H 311.901 -1.64543 2.50132 0
M  V30 3251 H 309.447 -0.790185 1.20383 0
M  V30 3252 H 311.4 -3.90404 1.58628 0
M  V30 3253 H 310.124 -3.2195 0.549139 0
M  V30 3254 H 308.783 -2.59603 2.58847 0
M  V30 3255 H 308.431 -4.80839 1.47657 0
M  V30 3256 H 308.131 -4.9088 3.22972 0
M  V30 3257 H 309.655 -5.54775 2.55063 0
M  V30 3258 H 311.069 -3.94483 4.16 0
M  V30 3259 H 309.466 -3.54445 4.8424 0
M  V30 3260 H 310.536 -2.23855 4.30136 0
M  V30 3261 N 311.879 -1.3236 -0.855495 0
M  V30 3262 C 313.156 -1.13491 -1.59309 0
M  V30 3263 C 313.536 0.30503 -2.08885 0
M  V30 3264 O 312.884 1.30151 -1.87811 0
M  V30 3265 C 313.094 -2.16176 -2.73987 0
M  V30 3266 C 314.442 -2.49463 -3.43589 0
M  V30 3267 O 315.466 -2.14715 -2.84211 0
M  V30 3268 O 314.325 -3.09027 -4.50738 0
M  V30 3269 H 311.419 -0.437887 -0.701559 0
M  V30 3270 H 313.965 -1.43887 -0.899696 0
M  V30 3271 H 312.737 -3.1297 -2.34873 0
M  V30 3272 H 312.36 -1.86769 -3.51003 0
M  V30 3273 N 313.357 1.07166 -1.15556 0
M  V30 3274 C 314.605 1.79443 -0.929764 0
M  V30 3275 C 314.926 1.87246 0.544414 0
M  V30 3276 O 314.196 1.37473 1.39564 0
M  V30 3277 H 312.776 0.664625 -0.341003 0
M  V30 3278 H 315.438 1.29499 -1.45657 0
M  V30 3279 H 314.534 2.81832 -1.34079 0
M  V30 3280 N 314.835 0.952656 1.25548 0
M  V30 3281 C 316.083 0.605176 1.92826 0
M  V30 3282 C 316.404 -0.860261 1.74999 0
M  V30 3283 O 315.674 -1.6125 1.11244 0
M  V30 3284 H 314.254 0.220832 0.713612 0
M  V30 3285 H 316.916 1.21047 1.52754 0
M  V30 3286 H 316.012 0.832798 3.00784 0
M  V30 3287 N 316.313 -1.40141 0.720998 0
M  V30 3288 C 317.59 -1.94677 0.189757 0
M  V30 3289 C 317.97 -1.65879 -1.30566 0
M  V30 3290 O 317.318 -0.979391 -2.06447 0
M  V30 3291 C 317.528 -3.45279 0.508304 0
M  V30 3292 C 318.876 -4.22209 0.449934 0
M  V30 3293 O 319.9 -3.53413 0.444677 0
M  V30 3294 O 318.759 -5.44788 0.432189 0
M  V30 3295 H 315.853 -0.826459 0.0299026 0
M  V30 3296 H 318.399 -1.49719 0.7989 0
M  V30 3297 H 317.171 -3.59619 1.54239 0
M  V30 3298 H 316.794 -3.97386 -0.130525 0
M  V30 3299 N 317.792 -0.46758 -1.50504 0
M  V30 3300 C 319.203 -0.0116166 -1.86696 0
M  V30 3301 C 319.554 1.39202 -1.38265 0
M  V30 3302 O 318.679 2.0313 -0.746132 0
M  V30 3303 C 319.274 -0.0143044 -3.38797 0
M  V30 3304 C 317.833 0.386175 -3.74414 0
M  V30 3305 C 316.98 -0.401287 -2.74381 0
M  V30 3306 H 319.931 -0.682022 -1.43297 0
M  V30 3307 H 319.952 0.788641 -3.72237 0
M  V30 3308 H 319.464 -1.03602 -3.74016 0
M  V30 3309 H 317.565 1.41237 -3.44794 0
M  V30 3310 H 317.678 0.0899596 -4.79016 0
M  V30 3311 H 316.042 0.144536 -2.5429 0
M  V30 3312 H 316.825 -1.42244 -3.12444 0
M  V30 3313 N 319.27 1.56325 -0.20005 0
M  V30 3314 C 320.681 1.8408 0.31167 0
M  V30 3315 C 321.032 1.12087 1.61031 0
M  V30 3316 O 320.157 0.38332 2.12978 0
M  V30 3317 C 320.752 3.33932 0.57226 0
M  V30 3318 C 319.311 3.6208 1.02834 0
M  V30 3319 C 318.458 2.77186 0.079634 0
M  V30 3320 H 321.409 1.52939 -0.423729 0
M  V30 3321 H 321.43 3.52971 1.42096 0
M  V30 3322 H 320.942 3.86303 -0.37308 0
M  V30 3323 H 319.043 3.15147 1.98778 0
M  V30 3324 H 319.156 4.7023 0.917624 0
M  V30 3325 H 317.52 2.47951 0.582448 0
M  V30 3326 H 318.303 3.32347 -0.860238 0
M  V30 3327 N 320.748 -0.0735177 1.57428 0
M  V30 3328 C 322.164 -0.428264 1.53747 0
M  V30 3329 C 322.364 -1.79272 0.91998 0
M  V30 3330 O 321.42 -2.47051 0.521745 0
M  V30 3331 C 322.733 -0.370914 2.98404 0
M  V30 3332 C 324.281 -0.451224 3.0973 0
M  V30 3333 C 324.756 -0.4238 4.56035 0
M  V30 3334 N 326.247 -0.483925 4.60665 0
M  V30 3335 C 326.982 -0.484891 5.71346 0
M  V30 3336 N 326.478 -0.440775 6.91396 0
M  V30 3337 N 328.271 -0.531319 5.59583 0
M  V30 3338 H 320.422 0.819949 1.95935 0
M  V30 3339 H 322.685 0.307493 0.896745 0
M  V30 3340 H 322.391 0.564956 3.47133 0
M  V30 3341 H 322.265 -1.18176 3.5821 0
M  V30 3342 H 324.652 -1.37752 2.60976 0
M  V30 3343 H 324.733 0.388167 2.52838 0
M  V30 3344 H 324.377 0.498638 5.05446 0
M  V30 3345 H 324.307 -1.2807 5.10789 0
M  V30 3346 H 326.798 -0.522338 3.74273 0
M  V30 3347 H 327.111 -0.44539 7.71515 0
M  V30 3348 H 325.456 -0.40749 6.93804 0
M  V30 3349 H 328.647 -0.563464 4.64696 0
M  V30 3350 H 328.82 -0.528603 6.4584 0
M  V30 3351 N 322.226 -1.5378 -0.344866 0
M  V30 3352 C 323.156 -1.84662 -1.42906 0
M  V30 3353 C 324.137 -0.701648 -1.54955 0
M  V30 3354 O 325.322 -0.953438 -1.69184 0
M  V30 3355 C 322.452 -2.05503 -2.79974 0
M  V30 3356 C 321.406 -3.21318 -2.82734 0
M  V30 3357 C 320.732 -3.2749 -4.22675 0
M  V30 3358 C 322.032 -4.59456 -2.48389 0
M  V30 3359 H 323.726 -2.75461 -1.17311 0
M  V30 3360 H 321.272 -1.32542 -0.562896 0
M  V30 3361 H 323.225 -2.25691 -3.55867 0
M  V30 3362 H 321.949 -1.11434 -3.07002 0
M  V30 3363 H 320.608 -3.00984 -2.09294 0
M  V30 3364 H 320.256 -2.31019 -4.4681 0
M  V30 3365 H 319.956 -4.05316 -4.25433 0
M  V30 3366 H 321.48 -3.49887 -5.00412 0
M  V30 3367 H 322.894 -4.79667 -3.13995 0
M  V30 3368 H 321.291 -5.39675 -2.62432 0
M  V30 3369 H 322.361 -4.63155 -1.4358 0
M  V30 3370 N 323.704 0.605807 -1.45491 0
M  V30 3371 C 324.952 1.36207 -1.49305 0
M  V30 3372 C 325.273 1.94519 -0.136863 0
M  V30 3373 O 324.543 1.77261 0.833983 0
M  V30 3374 H 323.123 0.50565 -0.549843 0
M  V30 3375 H 325.785 0.711239 -1.81459 0
M  V30 3376 H 324.881 2.18058 -2.23287 0
M  V30 3377 N 325.182 1.32811 0.848464 0
M  V30 3378 C 326.41 1.26739 1.63538 0
M  V30 3379 C 326.825 -0.163484 1.88091 0
M  V30 3380 O 326.182 -1.10258 1.45429 0
M  V30 3381 C 326.233 2.03013 2.99112 0
M  V30 3382 O 325.954 3.40518 2.75643 0
M  V30 3383 C 327.455 2.04038 3.93552 0
M  V30 3384 H 324.675 0.437024 0.509167 0
M  V30 3385 H 327.219 1.75033 1.05753 0
M  V30 3386 H 325.374 1.58426 3.53525 0
M  V30 3387 H 325.788 3.79635 3.61908 0
M  V30 3388 H 327.262 2.61877 4.85926 0
M  V30 3389 H 327.739 1.0282 4.26995 0
M  V30 3390 H 328.345 2.486 3.45077 0
M  V30 3391 N 326.66 -1.06551 1.16123 0
M  V30 3392 C 327.906 -1.79567 0.94252 0
M  V30 3393 C 328.239 -1.86869 -0.528547 0
M  V30 3394 O 327.514 -1.35838 -1.39206 0
M  V30 3395 C 327.797 -3.24195 1.56747 0
M  V30 3396 C 327.65 -3.24989 3.10969 0
M  V30 3397 C 328.969 -4.21678 1.25998 0
M  V30 3398 H 326.088 -0.651883 0.343828 0
M  V30 3399 H 328.73 -1.2463 1.43413 0
M  V30 3400 H 326.88 -3.71107 1.14942 0
M  V30 3401 H 328.552 -2.86258 3.61737 0
M  V30 3402 H 326.795 -2.63716 3.44436 0
M  V30 3403 H 327.466 -4.27005 3.49815 0
M  V30 3404 H 329.942 -3.83196 1.62174 0
M  V30 3405 H 328.818 -5.21146 1.7233 0
M  V30 3406 H 329.079 -4.4174 0.178367 0
M  V30 3407 N 328.138 -0.959301 -1.25041 0
M  V30 3408 C 329.386 -0.615393 -1.92503 0
M  V30 3409 C 329.707 0.850969 -1.75452 0
M  V30 3410 O 328.977 1.60658 -1.12098 0
M  V30 3411 H 327.557 -0.224613 -0.712431 0
M  V30 3412 H 330.219 -1.21855 -1.5211 0
M  V30 3413 H 329.315 -0.848738 -3.00338 0
M  V30 3414 N 329.616 1.39756 -0.72842 0
M  V30 3415 C 330.546 2.33289 -0.0991354 0
M  V30 3416 C 331.527 1.53568 0.731489 0
M  V30 3417 O 332.712 1.81987 0.677807 0
M  V30 3418 C 329.842 3.3763 0.813834 0
M  V30 3419 C 328.796 4.2791 0.0878663 0
M  V30 3420 C 328.122 5.22894 1.11741 0
M  V30 3421 C 329.422 5.11314 -1.06563 0
M  V30 3422 H 331.116 2.86163 -0.880408 0
M  V30 3423 H 328.662 1.37591 -0.424819 0
M  V30 3424 H 330.615 4.0201 1.26355 0
M  V30 3425 H 329.339 2.83181 1.62715 0
M  V30 3426 H 327.998 3.65 -0.342159 0
M  V30 3427 H 327.646 4.64744 1.92412 0
M  V30 3428 H 327.346 5.84143 0.636477 0
M  V30 3429 H 328.87 5.90151 1.56697 0
M  V30 3430 H 330.284 5.69076 -0.694671 0
M  V30 3431 H 328.681 5.81671 -1.47577 0
M  V30 3432 H 329.751 4.46534 -1.89038 0
M  V30 3433 N 331.094 0.475555 1.50254 0
M  V30 3434 C 332.319 -0.0777042 2.07254 0
M  V30 3435 C 332.744 -1.3235 1.3366 0
M  V30 3436 O 332.102 -1.77152 0.385597 0
M  V30 3437 C 332.15 -0.340169 3.58992 0
M  V30 3438 O 331.254 -1.41982 3.87188 0
M  V30 3439 H 330.595 0.0149556 0.663832 0
M  V30 3440 H 333.125 0.667878 1.93392 0
M  V30 3441 H 333.135 -0.579332 4.03866 0
M  V30 3442 H 331.81 0.570167 4.11973 0
M  V30 3443 H 330.387 -1.16762 3.54148 0
M  V30 3444 N 332.573 -1.56217 0.208337 0
M  V30 3445 C 333.822 -1.97124 -0.427204 0
M  V30 3446 C 334.135 -1.09859 -1.61835 0
M  V30 3447 O 335.341 -1.40606 -2.32255 0
M  V30 3448 C 333.797 -3.50633 -0.811442 0
M  V30 3449 C 333.405 -4.46582 0.35615 0
M  V30 3450 C 335.149 -4.00282 -1.41332 0
M  V30 3451 C 333.056 -5.91379 -0.0497852 0
M  V30 3452 H 331.986 -0.736086 -0.163381 0
M  V30 3453 H 334.637 -1.8099 0.302456 0
M  V30 3454 H 333.019 -3.62319 -1.59815 0
M  V30 3455 H 334.193 -4.46636 1.1337 0
M  V30 3456 H 332.508 -4.07202 0.870396 0
M  V30 3457 H 335.105 -5.0595 -1.72972 0
M  V30 3458 H 335.448 -3.45359 -2.32449 0
M  V30 3459 H 335.981 -3.91764 -0.690323 0
M  V30 3460 H 332.72 -6.50255 0.827529 0
M  V30 3461 H 332.24 -5.94549 -0.791926 0
M  V30 3462 H 333.919 -6.45209 -0.481042 0
M  V30 3463 N 334.051 0.0651679 -1.57465 0
M  V30 3464 C 334.998 1.07675 -2.04144 0
M  V30 3465 C 335.968 1.38071 -0.923335 0
M  V30 3466 O 337.153 1.49026 -1.19146 0
M  V30 3467 C 334.293 2.38337 -2.49579 0
M  V30 3468 C 333.406 2.14413 -3.75035 0
M  V30 3469 C 332.541 3.38686 -4.09225 0
M  V30 3470 C 331.58 3.10156 -5.27702 0
M  V30 3471 N 330.717 4.26778 -5.57499 0
M  V30 3472 H 335.557 0.671716 -2.90331 0
M  V30 3473 H 333.094 0.3201 -1.43575 0
M  V30 3474 H 335.052 3.14632 -2.73975 0
M  V30 3475 H 333.682 2.7663 -1.6636 0
M  V30 3476 H 332.734 1.2878 -3.57939 0
M  V30 3477 H 334.046 1.89344 -4.61466 0
M  V30 3478 H 333.2 4.23373 -4.34558 0
M  V30 3479 H 331.939 3.66837 -3.21374 0
M  V30 3480 H 330.944 2.23866 -5.02159 0
M  V30 3481 H 332.169 2.8332 -6.17176 0
M  V30 3482 H 330.115 4.54948 -4.72608 0
M  V30 3483 H 330.032 4.05005 -6.38362 0
M  V30 3484 H 331.3 5.12443 -5.87386 0
M  V30 3485 N 335.529 1.53961 0.336706 0
M  V30 3486 C 336.775 1.7179 1.07777 0
M  V30 3487 C 337.108 0.483263 1.88091 0
M  V30 3488 O 336.383 -0.519747 1.87427 0
M  V30 3489 C 336.666 2.98558 2.01334 0
M  V30 3490 C 336.519 4.32245 1.24437 0
M  V30 3491 C 337.838 3.21023 3.01052 0
M  V30 3492 H 334.957 0.625089 0.390426 0
M  V30 3493 H 337.599 1.86641 0.35567 0
M  V30 3494 H 335.749 2.86028 2.62908 0
M  V30 3495 H 337.421 4.56637 0.654243 0
M  V30 3496 H 335.664 4.30344 0.546458 0
M  V30 3497 H 336.335 5.17137 1.93063 0
M  V30 3498 H 338.811 3.32929 2.49595 0
M  V30 3499 H 337.687 4.11104 3.6371 0
M  V30 3500 H 337.948 2.37637 3.72802 0
M  V30 3501 N 337.007 -0.598083 1.45811 0
M  V30 3502 C 338.235 -1.38322 1.53866 0
M  V30 3503 C 338.65 -1.87992 0.174479 0
M  V30 3504 O 338.007 -1.62756 -0.825627 0
M  V30 3505 C 338.058 -2.58125 2.53089 0
M  V30 3506 O 337.779 -2.10516 3.84206 0
M  V30 3507 C 339.28 -3.50869 2.70935 0
M  V30 3508 H 336.5 -0.423093 0.520801 0
M  V30 3509 H 339.044 -0.728527 1.91083 0
M  V30 3510 H 337.199 -3.19615 2.18917 0
M  V30 3511 H 337.613 -2.88425 4.38077 0
M  V30 3512 H 339.087 -4.31451 3.44317 0
M  V30 3513 H 339.564 -4.01822 1.77301 0
M  V30 3514 H 340.17 -2.95225 3.06141 0
M  V30 3515 N 338.485 -1.33259 -0.841409 0
M  V30 3516 C 339.762 -1.15174 -1.58096 0
M  V30 3517 C 340.142 0.282858 -2.09196 0
M  V30 3518 O 339.49 1.28151 -1.89181 0
M  V30 3519 C 339.7 -2.1907 -2.71679 0
M  V30 3520 C 341.048 -2.53093 -3.40924 0
M  V30 3521 O 342.072 -2.17717 -2.81918 0
M  V30 3522 O 340.931 -3.1379 -4.47435 0
M  V30 3523 H 338.025 -0.445303 -0.696875 0
M  V30 3524 H 340.571 -1.44833 -0.884385 0
M  V30 3525 H 339.343 -3.15443 -2.31541 0
M  V30 3526 H 338.966 -1.90481 -3.49002 0
M  V30 3527 N 339.963 1.05934 -1.16686 0
M  V30 3528 C 341.188 1.83029 -0.975455 0
M  V30 3529 C 341.613 1.82096 0.471452 0
M  V30 3530 O 340.971 1.22443 1.33706 0
M  V30 3531 C 341.019 3.27372 -1.51195 0
M  V30 3532 O 340.123 4.06054 -0.720701 0
M  V30 3533 H 339.464 0.566194 -0.346872 0
M  V30 3534 H 341.994 1.33541 -1.55009 0
M  V30 3535 H 342.004 3.78186 -1.53099 0
M  V30 3536 H 340.679 3.27366 -2.56523 0
M  V30 3537 H 339.256 3.64812 -0.772458 0
M  V30 3538 N 341.441 0.965919 1.2453 0
M  V30 3539 C 342.389 0.486506 2.27455 0
M  V30 3540 C 343.383 -0.449041 1.6334 0
M  V30 3541 O 344.589 -0.324527 1.7705 0
M  V30 3542 H 340.964 0.138857 0.739069 0
M  V30 3543 H 342.935 1.3666 2.65267 0
M  V30 3544 C 341.684 -0.209481 3.47068 0
M  V30 3545 H 341.007 0.50129 3.96645 0
M  V30 3546 H 342.447 -0.508775 4.20936 0
M  V30 3547 C 340.906 -1.43586 3.0477 0
M  V30 3548 O 341.436 -2.53299 3.11773 0
M  V30 3549 N 339.642 -1.30126 2.59838 0
M  V30 3550 H 339.189 -0.408583 2.54339 0
M  V30 3551 H 339.147 -2.12294 2.31902 0
M  V30 3552 N 342.919 -1.39368 0.735821 0
M  V30 3553 C 344.196 -1.94465 0.210395 0
M  V30 3554 C 344.576 -1.67254 -1.28799 0
M  V30 3555 O 343.924 -1.00123 -2.05396 0
M  V30 3556 C 344.134 -3.4472 0.544897 0
M  V30 3557 C 345.482 -4.21708 0.494689 0
M  V30 3558 O 346.506 -3.52922 0.482136 0
M  V30 3559 O 345.365 -5.44299 0.489947 0
M  V30 3560 H 342.459 -0.826096 0.0386666 0
M  V30 3561 H 345.005 -1.48863 0.814735 0
M  V30 3562 H 343.777 -3.57963 1.58045 0
M  V30 3563 H 343.4 -3.97502 -0.08837 0
M  V30 3564 N 344.397 -0.483516 -1.5 0
M  V30 3565 C 345.345 0.318061 -2.30415 0
M  V30 3566 C 346.339 0.978988 -1.38247 0
M  V30 3567 O 347.545 0.908673 -1.55381 0
M  V30 3568 H 343.92 0.121419 -0.742133 0
M  V30 3569 H 345.891 -0.380403 -2.95965 0
M  V30 3570 C 344.64 1.38013 -3.19136 0
M  V30 3571 H 343.963 0.880952 -3.89973 0
M  V30 3572 H 345.403 1.91332 -3.78375 0
M  V30 3573 C 343.862 2.38884 -2.37563 0
M  V30 3574 O 344.392 3.44412 -2.06744 0
M  V30 3575 N 342.598 2.10912 -1.99911 0
M  V30 3576 H 342.145 1.25118 -2.25174 0
M  V30 3577 H 342.103 2.78635 -1.45636 0
M  V30 3578 N 345.875 1.56104 -0.216619 0
M  V30 3579 C 346.823 2.21434 0.712036 0
M  V30 3580 C 347.817 1.19218 1.20348 0
M  V30 3581 O 349.023 1.3731 1.16387 0
M  V30 3582 H 345.398 0.70992 0.248026 0
M  V30 3583 H 347.369 2.98083 0.137558 0
M  V30 3584 C 346.118 2.90434 1.91163 0
M  V30 3585 H 345.441 3.68842 1.54258 0
M  V30 3586 H 346.881 3.39552 2.5393 0
M  V30 3587 C 345.34 1.92635 2.76394 0
M  V30 3588 O 345.87 1.44017 3.74996 0
M  V30 3589 N 344.076 1.60392 2.42328 0
M  V30 3590 H 343.623 2.00122 1.622 0
M  V30 3591 H 343.581 0.952159 2.99635 0
M  V30 3592 N 347.353 -0.0568162 1.57498 0
M  V30 3593 C 348.764 -0.606858 1.76562 0
M  V30 3594 C 349.115 -1.77114 0.844094 0
M  V30 3595 O 348.24 -2.16376 0.0318911 0
M  V30 3596 C 348.835 -1.10766 3.20182 0
M  V30 3597 C 347.394 -1.60344 3.40539 0
M  V30 3598 C 346.541 -0.529311 2.72201 0
M  V30 3599 H 349.492 0.169393 1.57793 0
M  V30 3600 H 349.513 -1.97602 3.25167 0
M  V30 3601 H 349.025 -0.26006 3.87228 0
M  V30 3602 H 347.126 -2.47379 2.78629 0
M  V30 3603 H 347.239 -1.67006 4.4905 0
M  V30 3604 H 345.603 -0.977893 2.35179 0
M  V30 3605 H 346.386 0.308352 3.41912 0
M  V30 3606 N 348.832 -1.54138 -0.328536 0
M  V30 3607 C 350.078 -1.7236 -1.06865 0
M  V30 3608 C 350.411 -0.493231 -1.87832 0
M  V30 3609 O 349.686 0.5098 -1.877 0
M  V30 3610 C 349.969 -2.99621 -1.99747 0
M  V30 3611 C 349.822 -4.32899 -1.22143 0
M  V30 3612 C 351.141 -3.22615 -2.99345 0
M  V30 3613 H 348.26 -0.627151 -0.387105 0
M  V30 3614 H 350.902 -1.86827 -0.345767 0
M  V30 3615 H 349.052 -2.87418 -2.61387 0
M  V30 3616 H 350.724 -4.56978 -0.630017 0
M  V30 3617 H 348.967 -4.30628 -0.523628 0
M  V30 3618 H 349.638 -5.18154 -1.90318 0
M  V30 3619 H 352.114 -3.34248 -2.47826 0
M  V30 3620 H 350.99 -4.13027 -3.61524 0
M  V30 3621 H 351.251 -2.3961 -3.71536 0
M  V30 3622 N 350.31 0.590341 -1.46126 0
M  V30 3623 C 351.557 1.34882 -1.5104 0
M  V30 3624 C 351.885 1.93849 -0.159021 0
M  V30 3625 O 351.14 1.76544 0.844436 0
M  V30 3626 C 351.439 2.5032 -2.55097 0
M  V30 3627 C 351.105 2.09394 -3.99331 0
M  V30 3628 C 349.767 1.97947 -4.38601 0
M  V30 3629 C 352.119 1.77712 -4.89967 0
M  V30 3630 C 349.447 1.53065 -5.66381 0
M  V30 3631 C 351.799 1.34312 -6.18177 0
M  V30 3632 C 350.463 1.21436 -6.56361 0
M  V30 3633 H 349.733 0.493568 -0.552695 0
M  V30 3634 H 352.38 0.665539 -1.79563 0
M  V30 3635 H 350.685 3.24062 -2.20207 0
M  V30 3636 H 352.382 3.08541 -2.56132 0
M  V30 3637 H 348.972 2.19235 -3.68285 0
M  V30 3638 H 353.156 1.85445 -4.60352 0
M  V30 3639 H 348.412 1.41733 -5.94745 0
M  V30 3640 H 352.586 1.08849 -6.87841 0
M  V30 3641 H 350.213 0.864345 -7.5527 0
M  V30 3642 N 351.788 1.33704 0.83433 0
M  V30 3643 C 353.013 1.28615 1.62705 0
M  V30 3644 C 353.438 -0.139242 1.87584 0
M  V30 3645 O 352.796 -1.09734 1.4432 0
M  V30 3646 C 352.844 2.07139 2.95171 0
M  V30 3647 O 351.948 1.4331 3.86699 0
M  V30 3648 H 351.289 0.44226 0.49528 0
M  V30 3649 H 353.819 1.76335 1.03766 0
M  V30 3650 H 353.829 2.18073 3.44831 0
M  V30 3651 H 352.504 3.10779 2.76386 0
M  V30 3652 H 351.081 1.4105 3.45195 0
M  V30 3653 N 353.266 -1.05314 1.17247 0
M  V30 3654 C 354.176 -2.16538 0.90268 0
M  V30 3655 C 355.192 -1.73523 -0.128707 0
M  V30 3656 O 356.368 -2.01337 0.0502701 0
M  V30 3657 C 353.433 -3.44167 0.418356 0
M  V30 3658 C 352.494 -4.01635 1.51618 0
M  V30 3659 C 351.727 -5.23171 1.05487 0
M  V30 3660 O 351.95 -5.70327 -0.0914715 0
M  V30 3661 O 350.884 -5.72848 1.8474 0
M  V30 3662 H 354.71 -2.42145 1.83302 0
M  V30 3663 H 352.295 -1.15037 0.953246 0
M  V30 3664 H 354.177 -4.21112 0.155726 0
M  V30 3665 H 352.852 -3.20063 -0.48385 0
M  V30 3666 H 351.759 -3.26135 1.83268 0
M  V30 3667 H 353.092 -4.30053 2.39405 0
M  V30 3668 N 354.744 -0.972509 -1.24016 0
M  V30 3669 C 355.969 -0.654417 -1.96805 0
M  V30 3670 C 356.394 0.770398 -1.716 0
M  V30 3671 O 355.752 1.52361 -0.982647 0
M  V30 3672 C 355.8 -0.941031 -3.48105 0
M  V30 3673 O 354.904 -0.0289472 -4.1239 0
M  V30 3674 H 354.245 -0.24692 -0.616382 0
M  V30 3675 H 356.775 -1.30396 -1.57664 0
M  V30 3676 H 356.785 -0.87452 -3.98517 0
M  V30 3677 H 355.46 -1.97939 -3.65777 0
M  V30 3678 H 354.037 -0.149192 -3.72601 0
M  V30 3679 N 356.222 1.38976 -0.743202 0
M  V30 3680 C 357.45 2.04636 -0.30525 0
M  V30 3681 C 357.865 1.56044 1.06281 0
M  V30 3682 O 357.222 0.728921 1.67311 0
M  V30 3683 C 357.273 3.60193 -0.307177 0
M  V30 3684 O 356.994 4.06998 -1.62124 0
M  V30 3685 C 358.495 4.4306 0.145928 0
M  V30 3686 H 355.715 0.65788 -0.132041 0
M  V30 3687 H 358.259 1.77866 -1.00915 0
M  V30 3688 H 356.414 3.85835 0.347898 0
M  V30 3689 H 356.828 5.01371 -1.54036 0
M  V30 3690 H 358.302 5.51921 0.0934183 0
M  V30 3691 H 358.779 4.22706 1.19231 0
M  V30 3692 H 359.385 4.22584 -0.479886 0
M  V30 3693 N 357.7 0.491464 1.49741 0
M  V30 3694 C 358.93 -0.0534375 2.06531 0
M  V30 3695 C 359.338 -1.32233 1.35318 0
M  V30 3696 O 358.681 -1.78781 0.422243 0
M  V30 3697 C 358.743 -0.387034 3.57411 0
M  V30 3698 C 358.407 0.782764 4.50246 0
M  V30 3699 C 359.404 1.67059 4.92329 0
M  V30 3700 C 357.089 0.978866 4.9267 0
M  V30 3701 C 359.083 2.73874 5.75562 0
M  V30 3702 C 356.77 2.05022 5.75682 0
M  V30 3703 C 357.768 2.92851 6.17031 0
M  V30 3704 O 357.456 3.98138 6.98385 0
M  V30 3705 H 357.188 0.0129324 0.675876 0
M  V30 3706 H 359.742 0.685238 1.93633 0
M  V30 3707 H 357.972 -1.17918 3.68283 0
M  V30 3708 H 359.661 -0.869419 3.96479 0
M  V30 3709 H 360.427 1.53086 4.60206 0
M  V30 3710 H 356.306 0.304646 4.59992 0
M  V30 3711 H 359.85 3.42458 6.07757 0
M  V30 3712 H 355.747 2.18993 6.07217 0
M  V30 3713 H 356.515 3.95374 7.16674 0
M  V30 3714 N 359.178 -1.55987 0.224894 0
M  V30 3715 C 360.141 -2.19178 -0.670348 0
M  V30 3716 C 361.141 -1.15461 -1.11917 0
M  V30 3717 O 362.331 -1.40675 -1.02743 0
M  V30 3718 C 359.463 -2.81777 -1.9187 0
M  V30 3719 H 360.656 -2.99662 -0.119364 0
M  V30 3720 H 358.209 -1.5628 -0.0247128 0
M  V30 3721 H 358.944 -2.05172 -2.51147 0
M  V30 3722 H 358.729 -3.57732 -1.60531 0
M  V30 3723 H 360.219 -3.30205 -2.55645 0
M  V30 3724 N 360.656 0.0484629 -1.57525 0
M  V30 3725 C 361.902 0.744226 -1.88651 0
M  V30 3726 C 362.235 1.76029 -0.820212 0
M  V30 3727 O 361.51 1.93782 0.166985 0
M  V30 3728 C 361.793 1.43128 -3.30434 0
M  V30 3729 C 361.646 0.43005 -4.47739 0
M  V30 3730 C 362.965 2.37031 -3.70816 0
M  V30 3731 H 360.084 0.269089 -0.68612 0
M  V30 3732 H 362.726 0.00713532 -1.89999 0
M  V30 3733 H 360.876 2.05956 -3.29415 0
M  V30 3734 H 362.548 -0.194816 -4.60888 0
M  V30 3735 H 360.791 -0.252522 -4.33064 0
M  V30 3736 H 361.462 0.948874 -5.43783 0
M  V30 3737 H 363.938 1.84263 -3.73077 0
M  V30 3738 H 362.814 2.82094 -4.70865 0
M  V30 3739 H 363.075 3.22864 -3.02012 0
M  V30 3740 N 362.134 1.5431 0.320358 0
M  V30 3741 C 363.359 1.76954 1.08175 0
M  V30 3742 C 363.784 0.518193 1.80821 0
M  V30 3743 O 363.142 -0.530411 1.73368 0
M  V30 3744 C 363.19 2.96451 2.05303 0
M  V30 3745 O 362.294 2.68221 3.13259 0
M  V30 3746 H 361.635 0.586275 0.311733 0
M  V30 3747 H 364.165 2.01342 0.363676 0
M  V30 3748 H 364.175 3.23887 2.48116 0
M  V30 3749 H 362.85 3.87196 1.51829 0
M  V30 3750 H 361.427 2.51744 2.75099 0
M  V30 3751 N 363.613 -0.582584 1.46437 0
M  V30 3752 C 364.859 -1.34278 1.51978 0
M  V30 3753 C 365.192 -1.93446 0.170973 0
M  V30 3754 O 364.467 -1.76481 -0.817608 0
M  V30 3755 C 364.75 -2.47203 2.61845 0
M  V30 3756 C 364.603 -1.93069 4.06257 0
M  V30 3757 C 365.922 -3.49247 2.67795 0
M  V30 3758 H 363.041 -0.486876 0.553282 0
M  V30 3759 H 365.683 -0.654437 1.78374 0
M  V30 3760 H 363.833 -3.0592 2.39469 0
M  V30 3761 H 365.505 -1.38808 4.3992 0
M  V30 3762 H 363.748 -1.23898 4.1573 0
M  V30 3763 H 364.419 -2.74586 4.7886 0
M  V30 3764 H 366.895 -3.00411 2.8791 0
M  V30 3765 H 365.771 -4.25719 3.46489 0
M  V30 3766 H 366.032 -4.06482 1.73852 0
M  V30 3767 N 365.091 -1.34144 -0.827227 0
M  V30 3768 C 366.502 -1.23557 -1.39966 0
M  V30 3769 C 366.853 0.140731 -1.95695 0
M  V30 3770 O 365.978 1.04087 -1.89723 0
M  V30 3771 C 366.573 -2.23708 -2.54441 0
M  V30 3772 C 365.132 -2.16924 -3.07605 0
M  V30 3773 C 364.279 -2.10549 -1.80456 0
M  V30 3774 H 367.23 -1.45573 -0.631991 0
M  V30 3775 H 367.251 -1.85157 -3.32411 0
M  V30 3776 H 366.763 -3.23866 -2.13851 0
M  V30 3777 H 364.864 -1.20107 -3.52711 0
M  V30 3778 H 364.977 -3.07988 -3.66988 0
M  V30 3779 H 363.341 -1.56203 -2.01178 0
M  V30 3780 H 364.124 -3.12535 -1.42046 0
M  V30 3781 N 366.569 1.04691 -1.17803 0
M  V30 3782 C 367.479 2.16057 -0.914151 0
M  V30 3783 C 368.495 1.73589 0.119503 0
M  V30 3784 O 369.671 2.01308 -0.0609468 0
M  V30 3785 C 366.736 3.4394 -0.436603 0
M  V30 3786 C 365.797 4.00825 -1.53746 0
M  V30 3787 C 365.03 5.22604 -1.0826 0
M  V30 3788 O 365.253 5.70367 0.0612244 0
M  V30 3789 O 364.187 5.7186 -1.87775 0
M  V30 3790 H 368.013 2.41169 -1.84584 0
M  V30 3791 H 365.598 1.1453 -0.959334 0
M  V30 3792 H 367.48 4.21024 -0.178057 0
M  V30 3793 H 366.155 3.20316 0.466869 0
M  V30 3794 H 365.062 3.25158 -1.84995 0
M  V30 3795 H 366.395 4.28778 -2.41683 0
M  V30 3796 N 368.047 0.979072 1.23499 0
M  V30 3797 C 368.995 0.510604 2.26926 0
M  V30 3798 C 369.989 -0.431691 1.63807 0
M  V30 3799 O 371.195 -0.30573 1.77385 0
M  V30 3800 H 367.57 0.146688 0.737554 0
M  V30 3801 H 369.541 1.39466 2.63803 0
M  V30 3802 C 368.29 -0.172658 3.47271 0
M  V30 3803 H 367.613 0.543331 3.96091 0
M  V30 3804 H 369.053 -0.464101 4.21452 0
M  V30 3805 C 367.512 -1.40345 3.06276 0
M  V30 3806 O 368.042 -2.49978 3.14442 0
M  V30 3807 N 366.248 -1.27362 2.61203 0
M  V30 3808 H 365.795 -0.381584 2.54758 0
M  V30 3809 H 365.753 -2.09822 2.34141 0
M  V30 3810 N 369.525 -1.3858 0.750561 0
M  V30 3811 C 370.75 -2.04997 0.314812 0
M  V30 3812 C 371.175 -1.56235 -1.04749 0
M  V30 3813 O 370.533 -0.712981 -1.66692 0
M  V30 3814 C 370.581 -3.58961 0.343415 0
M  V30 3815 O 369.685 -4.07025 -0.663628 0
M  V30 3816 H 369.026 -0.649081 0.139962 0
M  V30 3817 H 371.556 -1.77313 1.02084 0
M  V30 3818 H 371.566 -4.07542 0.193233 0
M  V30 3819 H 370.241 -3.93811 1.33738 0
M  V30 3820 H 368.818 -3.6982 -0.478307 0
M  V30 3821 N 371.003 -0.499398 -1.49478 0
M  V30 3822 C 372.414 -0.051215 -1.8663 0
M  V30 3823 C 372.765 1.36238 -1.41186 0
M  V30 3824 O 371.89 2.01502 -0.789051 0
M  V30 3825 C 372.485 -0.0861651 -3.3869 0
M  V30 3826 C 371.044 0.30667 -3.75149 0
M  V30 3827 C 370.191 -0.459397 -2.73468 0
M  V30 3828 H 373.142 -0.712264 -1.41818 0
M  V30 3829 H 373.163 0.709507 -3.73826 0
M  V30 3830 H 372.675 -1.11512 -3.71735 0
M  V30 3831 H 370.776 1.33892 -3.47712 0
M  V30 3832 H 370.889 -0.0116669 -4.79099 0
M  V30 3833 H 369.253 0.0905645 -2.54539 0
M  V30 3834 H 370.036 -1.4884 -3.09357 0
M  V30 3835 N 372.481 1.55866 -0.233164 0
M  V30 3836 C 373.892 1.847 0.272554 0
M  V30 3837 C 374.243 1.15477 1.58617 0
M  V30 3838 O 373.368 0.42841 2.12117 0
M  V30 3839 C 373.963 3.35071 0.501299 0
M  V30 3840 C 372.522 3.6418 0.951304 0
M  V30 3841 C 371.669 2.77292 0.0208209 0
M  V30 3842 H 374.62 1.52005 -0.456074 0
M  V30 3843 H 374.641 3.55906 1.34577 0
M  V30 3844 H 374.153 3.85424 -0.454936 0
M  V30 3845 H 372.254 3.19293 1.92049 0
M  V30 3846 H 372.367 4.72071 0.817675 0
M  V30 3847 H 370.731 2.49131 0.529723 0
M  V30 3848 H 371.514 3.30448 -0.93054 0
M  V30 3849 N 373.959 -0.0401083 1.57549 0
M  V30 3850 C 374.907 -1.06264 2.06908 0
M  V30 3851 C 375.901 -1.38132 0.980608 0
M  V30 3852 O 377.107 -1.37167 1.16556 0
M  V30 3853 H 373.482 -0.360166 0.660139 0
M  V30 3854 H 375.453 -0.620445 2.91878 0
M  V30 3855 C 374.202 -2.35846 2.55483 0
M  V30 3856 H 373.525 -2.12183 3.38849 0
M  V30 3857 H 374.965 -3.05765 2.93741 0
M  V30 3858 C 373.424 -3.0404 1.45126 0
M  V30 3859 O 373.954 -3.93424 0.811216 0
M  V30 3860 N 372.16 -2.65184 1.18852 0
M  V30 3861 H 371.707 -1.92584 1.71083 0
M  V30 3862 H 371.665 -3.1113 0.452244 0
M  V30 3863 N 375.437 -1.54477 -0.31217 0
M  V30 3864 C 376.665 -1.77205 -1.068 0
M  V30 3865 C 377.08 -0.526114 -1.81321 0
M  V30 3866 O 376.437 0.503647 -1.75413 0
M  V30 3867 C 376.488 -2.97253 -2.05725 0
M  V30 3868 O 376.209 -4.1703 -1.34228 0
M  V30 3869 C 377.71 -3.32281 -2.93435 0
M  V30 3870 H 374.93 -0.591287 -0.317208 0
M  V30 3871 H 377.474 -2.01398 -0.354834 0
M  V30 3872 H 375.629 -2.753 -2.72559 0
M  V30 3873 H 376.043 -4.84636 -2.00571 0
M  V30 3874 H 377.517 -4.19551 -3.58721 0
M  V30 3875 H 377.994 -2.49945 -3.61143 0
M  V30 3876 H 378.6 -3.56353 -2.32147 0
M  V30 3877 N 376.915 0.57481 -1.46744 0
M  V30 3878 C 378.326 1.15695 -1.46532 0
M  V30 3879 C 378.677 1.95068 -0.210425 0
M  V30 3880 O 377.802 2.05241 0.685944 0
M  V30 3881 C 378.397 2.1048 -2.65487 0
M  V30 3882 C 376.956 2.64002 -2.68291 0
M  V30 3883 C 376.103 1.40026 -2.39349 0
M  V30 3884 H 379.054 0.362325 -1.54509 0
M  V30 3885 H 379.075 2.94074 -2.41455 0
M  V30 3886 H 378.587 1.52683 -3.56805 0
M  V30 3887 H 376.688 3.25646 -1.81067 0
M  V30 3888 H 376.801 3.06197 -3.68483 0
M  V30 3889 H 375.165 1.70106 -1.89568 0
M  V30 3890 H 375.948 0.840485 -3.32852 0
M  V30 3891 N 378.394 1.34581 0.820102 0
M  V30 3892 C 379.64 1.27285 1.57881 0
M  V30 3893 C 379.973 -0.156137 1.93571 0
M  V30 3894 O 379.248 -1.10222 1.60254 0
M  V30 3895 C 379.531 2.16639 2.87645 0
M  V30 3896 C 379.384 3.68088 2.58517 0
M  V30 3897 C 380.703 2.05378 3.8924 0
M  V30 3898 H 377.822 0.463714 0.572833 0
M  V30 3899 H 380.464 1.64859 0.944539 0
M  V30 3900 H 378.614 1.84725 3.41773 0
M  V30 3901 H 380.286 4.10382 2.10676 0
M  V30 3902 H 378.529 3.89038 1.91917 0
M  V30 3903 H 379.2 4.2598 3.51063 0
M  V30 3904 H 381.676 2.33404 3.44473 0
M  V30 3905 H 380.552 2.7012 4.77835 0
M  V30 3906 H 380.813 1.0316 4.29896 0
M  V30 3907 N 379.872 -1.04064 1.18357 0
M  V30 3908 C 381.121 -1.76662 0.973313 0
M  V30 3909 C 381.434 -1.89154 -0.497991 0
M  V30 3910 O 382.64 -2.58606 -0.826762 0
M  V30 3911 C 381.096 -3.17624 1.69242 0
M  V30 3912 C 380.704 -3.13225 3.20303 0
M  V30 3913 C 382.448 -3.946 1.56497 0
M  V30 3914 C 380.355 -4.49046 3.84853 0
M  V30 3915 H 379.285 -0.662214 0.36054 0
M  V30 3916 H 381.936 -1.16553 1.41731 0
M  V30 3917 H 380.318 -3.78129 1.1762 0
M  V30 3918 H 381.492 -2.62172 3.78949 0
M  V30 3919 H 379.807 -2.49749 3.33189 0
M  V30 3920 H 382.404 -4.95042 2.02084 0
M  V30 3921 H 382.747 -4.13074 0.517243 0
M  V30 3922 H 383.28 -3.4067 2.05399 0
M  V30 3923 H 380.019 -4.35777 4.89672 0
M  V30 3924 H 379.539 -5.00203 3.30994 0
M  V30 3925 H 381.218 -5.17961 3.87718 0
M  V30 3926 N 381.35 -0.985608 -1.22978 0
M  V30 3927 C 382.766 -0.695104 -1.43668 0
M  V30 3928 C 382.966 0.736866 -1.87543 0
M  V30 3929 O 382.022 1.50868 -2.02473 0
M  V30 3930 C 383.335 -1.69447 -2.48412 0
M  V30 3931 C 384.883 -1.70909 -2.62219 0
M  V30 3932 C 385.358 -2.6969 -3.70178 0
M  V30 3933 N 386.849 -2.6824 -3.77626 0
M  V30 3934 C 387.584 -3.41339 -4.60733 0
M  V30 3935 N 387.08 -4.24015 -5.4789 0
M  V30 3936 N 388.873 -3.30079 -4.54977 0
M  V30 3937 H 381.024 -1.91054 -0.928016 0
M  V30 3938 H 383.287 -0.823553 -0.469536 0
M  V30 3939 H 382.993 -2.7188 -2.23102 0
M  V30 3940 H 382.867 -1.48147 -3.46889 0
M  V30 3941 H 385.254 -0.691785 -2.86877 0
M  V30 3942 H 385.335 -1.96276 -1.6404 0
M  V30 3943 H 384.979 -3.71566 -3.46268 0
M  V30 3944 H 384.909 -2.41595 -4.67909 0
M  V30 3945 H 387.4 -2.08243 -3.15346 0
M  V30 3946 H 387.713 -4.76636 -6.08308 0
M  V30 3947 H 386.058 -4.28104 -5.47496 0
M  V30 3948 H 389.249 -2.64937 -3.85909 0
M  V30 3949 H 389.422 -3.87308 -5.19516 0
M  V30 3950 N 382.828 1.3818 -0.7579 0
M  V30 3951 C 383.758 2.33027 -0.148597 0
M  V30 3952 C 384.739 1.55085 0.69875 0
M  V30 3953 O 385.924 1.83384 0.639053 0
M  V30 3954 C 383.054 3.3928 0.742034 0
M  V30 3955 C 382.008 4.28 -0.00291946 0
M  V30 3956 C 381.334 5.25146 1.00625 0
M  V30 3957 C 382.634 5.08938 -1.17385 0
M  V30 3958 H 384.328 2.84231 -0.940909 0
M  V30 3959 H 381.874 1.36659 -0.453908 0
M  V30 3960 H 383.827 4.046 1.17799 0
M  V30 3961 H 382.551 2.86569 1.56671 0
M  V30 3962 H 381.21 3.64192 -0.419504 0
M  V30 3963 H 380.858 4.68721 1.8251 0
M  V30 3964 H 380.558 5.85361 0.512428 0
M  V30 3965 H 382.082 5.93342 1.44143 0
M  V30 3966 H 383.496 5.67474 -0.815224 0
M  V30 3967 H 381.893 5.7841 -1.59882 0
M  V30 3968 H 382.963 4.42424 -1.98468 0
M  V30 3969 N 384.306 0.507319 1.49211 0
M  V30 3970 C 385.254 -0.281364 2.30892 0
M  V30 3971 C 386.248 -0.95687 1.39787 0
M  V30 3972 O 387.454 -0.883838 1.56807 0
M  V30 3973 H 383.829 -0.109597 0.743971 0
M  V30 3974 H 385.8 0.42744 2.95323 0
M  V30 3975 C 384.549 -1.32918 3.21291 0
M  V30 3976 H 383.872 -0.818799 3.91326 0
M  V30 3977 H 385.312 -1.85288 3.81372 0
M  V30 3978 C 383.771 -2.35074 2.41333 0
M  V30 3979 O 384.301 -3.4108 2.12197 0
M  V30 3980 N 382.507 -2.07705 2.03241 0
M  V30 3981 H 382.054 -1.2152 2.27136 0
M  V30 3982 H 382.012 -2.76283 1.50051 0
M  V30 3983 N 385.784 -1.5574 0.241426 0
M  V30 3984 C 386.747 -2.19877 -0.647063 0
M  V30 3985 C 387.747 -1.16642 -1.10686 0
M  V30 3986 O 388.937 -1.41757 -1.01245 0
M  V30 3987 C 386.069 -2.83797 -1.88871 0
M  V30 3988 H 387.262 -2.99772 -0.087574 0
M  V30 3989 H 384.815 -1.56298 -0.00813574 0
M  V30 3990 H 385.55 -2.07824 -2.48957 0
M  V30 3991 H 385.335 -3.59414 -1.56728 0
M  V30 3992 H 386.825 -3.32898 -2.52129 0
M  V30 3993 N 387.262 0.0317525 -1.57568 0
M  V30 3994 C 388.487 0.738664 -1.938 0
M  V30 3995 C 388.912 1.68242 -0.841208 0
M  V30 3996 O 388.27 1.80157 0.203267 0
M  V30 3997 C 388.318 1.47417 -3.29091 0
M  V30 3998 O 387.422 2.5872 -3.2115 0
M  V30 3999 H 386.763 0.198856 -0.633524 0
M  V30 4000 H 389.293 -0.0119713 -2.04596 0
M  V30 4001 H 389.303 1.84468 -3.63917 0
M  V30 4002 H 387.978 0.781988 -4.08482 0
M  V30 4003 H 386.555 2.24231 -2.97951 0
M  V30 4004 N 388.74 1.54641 0.303973 0
M  V30 4005 C 390.017 1.64455 1.05896 0
M  V30 4006 C 390.397 0.490923 2.05312 0
M  V30 4007 O 389.745 -0.512685 2.22674 0
M  V30 4008 C 389.955 3.02331 1.74347 0
M  V30 4009 C 391.303 3.59045 2.26653 0
M  V30 4010 O 392.327 3.04764 1.84384 0
M  V30 4011 O 391.186 4.54081 3.04093 0
M  V30 4012 H 388.28 0.666729 0.489287 0
M  V30 4013 H 390.826 1.66986 0.302298 0
M  V30 4014 H 389.598 3.77734 1.02142 0
M  V30 4015 H 389.221 3.03565 2.56777 0
M  V30 4016 N 390.218 -0.567019 1.47046 0
M  V30 4017 C 391.629 -1.14916 1.47143 0
M  V30 4018 C 391.98 -1.94954 0.220767 0
M  V30 4019 O 391.105 -2.05602 -0.67505 0
M  V30 4020 C 391.7 -2.09069 2.666 0
M  V30 4021 C 390.259 -2.62575 2.69687 0
M  V30 4022 C 389.406 -1.38755 2.40088 0
M  V30 4023 H 392.357 -0.354126 1.54699 0
M  V30 4024 H 392.378 -2.92789 2.43011 0
M  V30 4025 H 391.89 -1.50789 3.57609 0
M  V30 4026 H 389.991 -3.24681 1.82792 0
M  V30 4027 H 390.104 -3.04239 3.70102 0
M  V30 4028 H 388.468 -1.69098 1.90468 0
M  V30 4029 H 389.251 -0.822822 3.33293 0
M  V30 4030 N 391.696 -1.35014 -0.812953 0
M  V30 4031 C 392.973 -1.18502 -1.55617 0
M  V30 4032 C 393.353 0.238421 -2.09749 0
M  V30 4033 O 392.701 1.2411 -1.91857 0
M  V30 4034 C 392.911 -2.24783 -2.66971 0
M  V30 4035 C 394.259 -2.60268 -3.35478 0
M  V30 4036 O 395.283 -2.23648 -2.77236 0
M  V30 4037 O 394.142 -3.2321 -4.40678 0
M  V30 4038 H 391.236 -0.459984 -0.687272 0
M  V30 4039 H 393.782 -1.46677 -0.853464 0
M  V30 4040 H 392.554 -3.20284 -2.24798 0
M  V30 4041 H 392.177 -1.97841 -3.44884 0
M  V30 4042 N 393.175 1.03435 -1.18907 0
M  V30 4043 C 394.085 2.15075 -0.937015 0
M  V30 4044 C 395.101 1.73706 0.101085 0
M  V30 4045 O 396.277 2.01232 -0.0822948 0
M  V30 4046 C 393.342 3.43458 -0.473057 0
M  V30 4047 C 392.403 3.99172 -1.57989 0
M  V30 4048 C 391.636 5.21427 -1.13797 0
M  V30 4049 O 391.859 5.704 0.000725941 0
M  V30 4050 O 390.793 5.69837 -1.9383 0
M  V30 4051 H 394.619 2.39198 -1.87131 0
M  V30 4052 H 392.204 1.13506 -0.971427 0
M  V30 4053 H 394.086 4.20811 -0.222702 0
M  V30 4054 H 392.761 3.20793 0.432869 0
M  V30 4055 H 391.668 3.23178 -1.88433 0
M  V30 4056 H 393.001 4.2619 -2.46217 0
M  V30 4057 N 394.653 0.992116 1.22453 0
M  V30 4058 C 395.901 0.666215 1.90804 0
M  V30 4059 C 396.222 -0.804152 1.77647 0
M  V30 4060 O 395.492 -1.57629 1.16318 0
M  V30 4061 H 394.072 0.243423 0.706225 0
M  V30 4062 H 396.734 1.25845 1.48825 0
M  V30 4063 H 395.83 0.928069 2.97982 0
M  V30 4064 N 396.131 -1.37776 0.765217 0
M  V30 4065 C 397.359 -2.04124 0.337767 0
M  V30 4066 C 397.774 -1.57715 -1.03785 0
M  V30 4067 O 397.131 -0.755447 -1.6613 0
M  V30 4068 C 397.182 -3.59658 0.364442 0
M  V30 4069 O 396.903 -4.04367 1.68579 0
M  V30 4070 C 398.404 -4.43236 -0.0754221 0
M  V30 4071 H 395.624 -0.655696 0.142491 0
M  V30 4072 H 398.168 -1.76238 1.03732 0
M  V30 4073 H 396.323 -3.86339 -0.286471 0
M  V30 4074 H 396.737 -4.98857 1.61993 0
M  V30 4075 H 398.211 -5.52 -0.00560067 0
M  V30 4076 H 398.688 -4.2455 -1.12491 0
M  V30 4077 H 399.294 -4.21767 0.547055 0
M  V30 4078 N 397.609 -0.515225 -1.4894 0
M  V30 4079 C 398.557 0.269115 -2.31038 0
M  V30 4080 C 399.551 0.949443 -1.40292 0
M  V30 4081 O 400.757 0.87551 -1.57273 0
M  V30 4082 H 397.132 0.10565 -0.744542 0
M  V30 4083 H 399.103 -0.443096 -2.95092 0
M  V30 4084 C 397.852 1.31213 -3.21991 0
M  V30 4085 H 397.175 0.798034 -3.91754 0
M  V30 4086 H 398.615 1.83263 -3.82349 0
M  V30 4087 C 397.074 2.33791 -2.42576 0
M  V30 4088 O 397.604 3.3995 -2.14003 0
M  V30 4089 N 395.81 2.06625 -2.0434 0
M  V30 4090 H 395.357 1.20314 -2.27777 0
M  V30 4091 H 395.315 2.75483 -1.51514 0
M  V30 4092 N 399.087 1.5561 -0.249682 0
M  V30 4093 C 400.335 1.98618 0.373548 0
M  V30 4094 C 400.656 1.13919 1.58264 0
M  V30 4095 O 399.926 0.222637 1.94631 0
M  V30 4096 H 398.506 0.733571 0.141006 0
M  V30 4097 H 401.168 1.91748 -0.349117 0
M  V30 4098 H 400.264 3.04584 0.680796 0
M  V30 4099 N 400.565 -0.0233959 1.57583 0
M  V30 4100 C 401.497 -1.04994 2.03737 0
M  V30 4101 C 402.51 -1.32125 0.951152 0
M  V30 4102 O 403.699 -1.29512 1.22837 0
M  V30 4103 C 400.799 -2.39026 2.40249 0
M  V30 4104 C 399.972 -2.31171 3.7132 0
M  V30 4105 C 399.031 -3.47698 3.94959 0
M  V30 4106 O 398.057 -3.26937 4.65941 0
M  V30 4107 N 399.259 -4.6976 3.41037 0
M  V30 4108 H 402.024 -0.656507 2.92421 0
M  V30 4109 H 399.585 -0.211235 1.60516 0
M  V30 4110 H 401.577 -3.15712 2.53196 0
M  V30 4111 H 400.147 -2.70194 1.57207 0
M  V30 4112 H 399.367 -1.39547 3.68674 0
M  V30 4113 H 400.655 -2.23071 4.57293 0
M  V30 4114 H 400.053 -4.89528 2.83512 0
M  V30 4115 H 398.61 -5.43791 3.59353 0
M  V30 4116 N 402.043 -1.548 -0.295768 0
M  V30 4117 C 403.289 -1.74588 -1.03184 0
M  V30 4118 C 403.622 -0.532962 -1.86744 0
M  V30 4119 O 402.897 0.469872 -1.88739 0
M  V30 4120 C 403.18 -3.03791 -1.93347 0
M  V30 4121 C 403.033 -4.35392 -1.12933 0
M  V30 4122 C 404.352 -3.28892 -2.92435 0
M  V30 4123 H 401.471 -0.635221 -0.373715 0
M  V30 4124 H 404.113 -1.87519 -0.30606 0
M  V30 4125 H 402.263 -2.92898 -2.55232 0
M  V30 4126 H 403.935 -4.58211 -0.532943 0
M  V30 4127 H 402.178 -4.31642 -0.432168 0
M  V30 4128 H 402.849 -5.22074 -1.79284 0
M  V30 4129 H 405.325 -3.39429 -2.4068 0
M  V30 4130 H 404.201 -4.20603 -3.52682 0
M  V30 4131 H 404.462 -2.47437 -3.6637 0
M  V30 4132 N 403.521 0.559213 -1.47345 0
M  V30 4133 C 404.767 1.31843 -1.54095 0
M  V30 4134 C 405.1 1.93149 -0.201726 0
M  V30 4135 O 404.375 1.77759 0.789428 0
M  V30 4136 C 404.658 2.43006 -2.65744 0
M  V30 4137 C 404.511 1.86581 -4.09277 0
M  V30 4138 C 405.83 3.44943 -2.73318 0
M  V30 4139 H 402.949 0.478012 -0.560957 0
M  V30 4140 H 405.591 0.625977 -1.79392 0
M  V30 4141 H 403.741 3.02072 -2.44305 0
M  V30 4142 H 405.413 1.31792 -4.42073 0
M  V30 4143 H 403.656 1.17268 -4.17649 0
M  V30 4144 H 404.327 2.66933 -4.83168 0
M  V30 4145 H 406.803 2.95793 -2.92653 0
M  V30 4146 H 405.679 4.20153 -3.53218 0
M  V30 4147 H 405.94 4.03665 -1.80296 0
M  V30 4148 N 404.999 1.35443 0.805782 0
M  V30 4149 C 406.229 1.31687 1.59192 0
M  V30 4150 C 406.637 -0.10756 1.88894 0
M  V30 4151 O 405.98 -1.07017 1.49309 0
M  V30 4152 C 406.042 2.05686 2.94845 0
M  V30 4153 C 405.706 3.54868 2.87954 0
M  V30 4154 C 406.703 4.49444 2.61335 0
M  V30 4155 C 404.388 3.97528 3.07046 0
M  V30 4156 C 406.382 5.84655 2.53885 0
M  V30 4157 C 404.069 5.32833 2.99219 0
M  V30 4158 C 405.067 6.26209 2.72674 0
M  V30 4159 O 404.755 7.59032 2.64811 0
M  V30 4160 H 404.487 0.453878 0.50097 0
M  V30 4161 H 407.041 1.78892 1.0093 0
M  V30 4162 H 405.271 1.5312 3.55093 0
M  V30 4163 H 406.96 1.94998 3.55993 0
M  V30 4164 H 407.726 4.17804 2.46303 0
M  V30 4165 H 403.605 3.25233 3.26718 0
M  V30 4166 H 407.149 6.57508 2.33086 0
M  V30 4167 H 403.046 5.64087 3.13809 0
M  V30 4168 H 403.814 7.68967 2.80413 0
M  V30 4169 N 406.477 -1.02803 1.19454 0
M  V30 4170 C 407.702 -1.80378 1.02364 0
M  V30 4171 C 408.127 -1.83282 -0.423007 0
M  V30 4172 O 407.485 -1.25945 -1.30413 0
M  V30 4173 C 407.533 -3.23248 1.59821 0
M  V30 4174 O 406.637 -4.04 0.828105 0
M  V30 4175 H 405.978 -0.556799 0.361761 0
M  V30 4176 H 408.508 -1.29385 1.58495 0
M  V30 4177 H 408.518 -3.73994 1.63073 0
M  V30 4178 H 407.193 -3.2045 2.65113 0
M  V30 4179 H 405.77 -3.62635 0.86891 0
M  V30 4180 N 407.956 -0.998596 -1.21925 0
M  V30 4181 C 409.203 -0.677663 -1.90824 0
M  V30 4182 C 409.531 0.790905 -1.77693 0
M  V30 4183 O 408.786 1.58817 -1.14349 0
M  V30 4184 C 409.085 -1.03648 -3.42041 0
M  V30 4185 C 408.751 -2.49825 -3.75364 0
M  V30 4186 C 407.413 -2.8977 -3.8417 0
M  V30 4187 C 409.765 -3.44545 -3.91073 0
M  V30 4188 C 407.093 -4.23412 -4.06127 0
M  V30 4189 C 409.445 -4.77853 -4.14535 0
M  V30 4190 C 408.109 -5.17531 -4.21566 0
M  V30 4191 H 407.379 -0.247975 -0.698276 0
M  V30 4192 H 410.026 -1.25584 -1.44571 0
M  V30 4193 H 408.331 -0.376457 -3.89987 0
M  V30 4194 H 410.028 -0.766113 -3.93614 0
M  V30 4195 H 406.618 -2.17866 -3.69097 0
M  V30 4196 H 410.802 -3.14853 -3.83642 0
M  V30 4197 H 406.058 -4.53734 -4.09799 0
M  V30 4198 H 410.232 -5.51189 -4.25633 0
M  V30 4199 H 407.859 -6.21102 -4.38333 0
M  V30 4200 N 409.434 1.37368 -0.772513 0
M  V30 4201 C 410.664 2.03647 -0.348082 0
M  V30 4202 C 411.072 1.58392 1.03482 0
M  V30 4203 O 410.415 0.760921 1.672 0
M  V30 4204 C 410.477 3.58131 -0.313404 0
M  V30 4205 C 410.141 4.2652 -1.64102 0
M  V30 4206 C 411.138 4.50587 -2.5936 0
M  V30 4207 C 408.823 4.64335 -1.91567 0
M  V30 4208 C 410.817 5.11526 -3.80289 0
M  V30 4209 C 408.504 5.24996 -3.12766 0
M  V30 4210 C 409.502 5.48529 -4.06946 0
M  V30 4211 O 409.19 6.07921 -5.26011 0
M  V30 4212 H 408.922 0.660538 -0.143753 0
M  V30 4213 H 411.476 1.76669 -1.04772 0
M  V30 4214 H 409.706 3.84159 0.442617 0
M  V30 4215 H 411.395 4.05813 0.0840613 0
M  V30 4216 H 412.161 4.21784 -2.39423 0
M  V30 4217 H 408.04 4.45353 -1.19088 0
M  V30 4218 H 411.584 5.29811 -4.53813 0
M  V30 4219 H 407.481 5.53223 -3.32588 0
M  V30 4220 H 408.249 6.26398 -5.26847 0
M  V30 4221 N 410.912 0.523116 1.48665 0
M  V30 4222 C 412.16 -0.0134497 2.02096 0
M  V30 4223 C 412.481 -1.35418 1.40311 0
M  V30 4224 O 411.751 -1.87543 0.566074 0
M  V30 4225 H 410.331 -0.00795915 0.746958 0
M  V30 4226 H 412.993 0.685388 1.82451 0
M  V30 4227 H 412.089 -0.126849 3.11842 0
M  V30 4228 N 412.39 -1.55475 0.257931 0
M  V30 4229 C 413.62 -2.03314 -0.367026 0
M  V30 4230 C 414.028 -1.13625 -1.51281 0
M  V30 4231 O 413.371 -0.145334 -1.83124 0
M  V30 4232 C 413.433 -3.47362 -0.926284 0
M  V30 4233 C 413.097 -4.56914 0.0886584 0
M  V30 4234 C 414.094 -5.12013 0.902123 0
M  V30 4235 C 411.779 -5.01827 0.217936 0
M  V30 4236 C 413.773 -6.10529 1.83122 0
M  V30 4237 C 411.46 -6.00172 1.15052 0
M  V30 4238 C 412.458 -6.54402 1.95568 0
M  V30 4239 O 412.146 -7.50827 2.87253 0
M  V30 4240 H 411.878 -0.669976 -0.0900443 0
M  V30 4241 H 414.432 -2.01804 0.382673 0
M  V30 4242 H 412.662 -3.46056 -1.72575 0
M  V30 4243 H 414.351 -3.78637 -1.46249 0
M  V30 4244 H 415.117 -4.78139 0.812891 0
M  V30 4245 H 410.996 -4.59272 -0.398721 0
M  V30 4246 H 414.54 -6.52783 2.46008 0
M  V30 4247 H 410.437 -6.33465 1.24064 0
M  V30 4248 H 411.205 -7.68483 2.81739 0
M  V30 4249 N 413.868 0.0150385 -1.57593 0
M  V30 4250 C 415.114 0.704043 -1.90187 0
M  V30 4251 C 415.447 1.74249 -0.857366 0
M  V30 4252 O 414.722 1.94092 0.125843 0
M  V30 4253 C 415.005 1.36087 -3.33395 0
M  V30 4254 C 414.858 0.334981 -4.48551 0
M  V30 4255 C 416.177 2.29112 -3.7576 0
M  V30 4256 H 413.296 0.254475 -0.691673 0
M  V30 4257 H 415.938 -0.0331678 -1.89971 0
M  V30 4258 H 414.088 1.98922 -3.3371 0
M  V30 4259 H 415.76 -0.292534 -4.60372 0
M  V30 4260 H 414.003 -0.344325 -4.32431 0
M  V30 4261 H 414.674 0.833316 -5.45674 0
M  V30 4262 H 417.15 1.76308 -3.76902 0
M  V30 4263 H 416.026 2.72043 -4.76743 0
M  V30 4264 H 416.287 3.16385 -3.08793 0
M  V30 4265 N 415.346 1.54954 0.287554 0
M  V30 4266 C 416.294 1.87606 1.37502 0
M  V30 4267 C 417.288 0.751001 1.51843 0
M  V30 4268 O 418.494 0.935169 1.53801 0
M  V30 4269 H 414.869 0.595231 0.459569 0
M  V30 4270 H 416.84 2.78477 1.07206 0
M  V30 4271 C 415.589 2.15183 2.73115 0
M  V30 4272 H 414.912 3.01234 2.62866 0
M  V30 4273 H 416.352 2.4196 3.48183 0
M  V30 4274 C 414.811 0.954686 3.2309 0
M  V30 4275 O 415.341 0.181949 4.01288 0
M  V30 4276 N 413.547 0.756368 2.80584 0
M  V30 4277 H 413.094 1.38643 2.17108 0
M  V30 4278 H 413.052 -0.0430391 3.14371 0
M  V30 4279 N 416.824 -0.551391 1.4764 0
M  V30 4280 C 418.101 -1.31229 1.45046 0
M  V30 4281 C 418.481 -2.10563 0.150527 0
M  V30 4282 O 417.829 -2.11374 -0.867956 0
M  V30 4283 C 418.039 -2.21189 2.69956 0
M  V30 4284 C 419.387 -2.82021 3.1741 0
M  V30 4285 O 420.411 -2.31488 2.70724 0
M  V30 4286 O 419.27 -3.73885 3.98588 0
M  V30 4287 H 416.364 -0.591193 0.578291 0
M  V30 4288 H 418.91 -0.569813 1.59847 0
M  V30 4289 H 417.682 -1.62207 3.56096 0
M  V30 4290 H 417.305 -3.02722 2.57769 0
M  V30 4291 N 418.302 -1.35869 -0.798587 0
M  V30 4292 C 419.718 -1.16082 -1.09532 0
M  V30 4293 C 419.918 0.0213124 -2.01489 0
M  V30 4294 O 418.974 0.689488 -2.42904 0
M  V30 4295 C 420.287 -2.46748 -1.7186 0
M  V30 4296 C 421.835 -2.53028 -1.84244 0
M  V30 4297 C 422.31 -3.83758 -2.49988 0
M  V30 4298 N 423.801 -3.85053 -2.57465 0
M  V30 4299 C 424.536 -4.8294 -3.09122 0
M  V30 4300 N 424.032 -5.91217 -3.61157 0
M  V30 4301 N 425.825 -4.70369 -3.0775 0
M  V30 4302 H 417.976 -2.11571 -0.187461 0
M  V30 4303 H 420.239 -0.936726 -0.145765 0
M  V30 4304 H 419.945 -3.33471 -1.11759 0
M  V30 4305 H 419.819 -2.61883 -2.71472 0
M  V30 4306 H 422.206 -1.66729 -2.43486 0
M  V30 4307 H 422.287 -2.418 -0.834643 0
M  V30 4308 H 421.931 -4.70459 -1.91393 0
M  V30 4309 H 421.861 -3.92278 -3.5132 0
M  V30 4310 H 424.352 -3.06822 -2.20609 0
M  V30 4311 H 424.665 -6.61892 -3.98896 0
M  V30 4312 H 423.01 -5.94899 -3.59333 0
M  V30 4313 H 426.201 -3.84914 -2.66381 0
M  V30 4314 H 426.374 -5.46816 -3.47701 0
M  V30 4315 N 419.78 1.02168 -1.19998 0
M  V30 4316 C 421.008 1.79296 -1.03249 0
M  V30 4317 C 421.423 1.84103 0.418502 0
M  V30 4318 O 420.78 1.29031 1.29063 0
M  V30 4319 C 420.831 3.24007 -1.60319 0
M  V30 4320 O 420.552 3.19512 -2.99739 0
M  V30 4321 C 422.053 4.17704 -1.48453 0
M  V30 4322 H 419.273 0.564016 -0.363493 0
M  V30 4323 H 421.817 1.28639 -1.58973 0
M  V30 4324 H 419.972 3.7183 -1.08727 0
M  V30 4325 H 420.386 4.10306 -3.26725 0
M  V30 4326 H 421.86 5.17104 -1.93153 0
M  V30 4327 H 422.337 4.37029 -0.436193 0
M  V30 4328 H 422.943 3.7576 -1.99211 0
M  V30 4329 N 421.258 1.00505 1.21394 0
M  V30 4330 C 422.674 0.717873 1.42544 0
M  V30 4331 C 422.874 -0.706936 1.88692 0
M  V30 4332 O 421.93 -1.47627 2.04847 0
M  V30 4333 C 423.243 1.73377 2.45684 0
M  V30 4334 C 424.791 1.75059 2.59467 0
M  V30 4335 C 425.266 2.75545 3.6584 0
M  V30 4336 N 426.757 2.74213 3.73311 0
M  V30 4337 C 427.492 3.48626 4.55245 0
M  V30 4338 N 426.988 4.32678 5.41075 0
M  V30 4339 N 428.781 3.37276 4.49668 0
M  V30 4340 H 420.932 1.92506 0.897503 0
M  V30 4341 H 423.195 0.830919 0.456375 0
M  V30 4342 H 422.901 2.75395 2.18748 0
M  V30 4343 H 422.775 1.53647 3.44489 0
M  V30 4344 H 425.162 0.737337 2.8574 0
M  V30 4345 H 425.243 1.98861 1.60897 0
M  V30 4346 H 424.887 3.77028 3.40313 0
M  V30 4347 H 424.817 2.49009 4.64007 0
M  V30 4348 H 427.308 2.13234 3.11993 0
M  V30 4349 H 427.621 4.86253 6.00648 0
M  V30 4350 H 425.966 4.3676 5.40616 0
M  V30 4351 H 429.157 2.71043 3.81646 0
M  V30 4352 H 429.33 3.95524 5.13288 0
M  V30 4353 N 422.737 -1.36956 0.779787 0
M  V30 4354 C 423.647 -2.33965 0.172491 0
M  V30 4355 C 424.663 -1.60574 -0.670222 0
M  V30 4356 O 425.839 -1.92617 -0.588263 0
M  V30 4357 C 422.904 -3.39761 -0.690173 0
M  V30 4358 C 421.965 -4.28964 0.169924 0
M  V30 4359 C 421.198 -5.29707 -0.651662 0
M  V30 4360 O 421.421 -5.38238 -1.88827 0
M  V30 4361 O 420.355 -6.01873 -0.0566264 0
M  V30 4362 H 424.181 -2.87647 0.974321 0
M  V30 4363 H 421.766 -1.39258 0.541078 0
M  V30 4364 H 423.648 -4.04471 -1.1824 0
M  V30 4365 H 422.323 -2.88394 -1.47006 0
M  V30 4366 H 421.23 -3.67326 0.708696 0
M  V30 4367 H 422.563 -4.83656 0.913085 0
M  V30 4368 N 424.215 -0.530993 -1.48385 0
M  V30 4369 C 425.145 0.219985 -2.32461 0
M  V30 4370 C 426.126 0.934111 -1.42156 0
M  V30 4371 O 427.311 0.919694 -1.71042 0
M  V30 4372 C 424.441 1.26674 -3.23375 0
M  V30 4373 C 423.395 0.67069 -4.22712 0
M  V30 4374 C 422.721 1.82017 -5.02766 0
M  V30 4375 C 424.021 -0.358268 -5.2107 0
M  V30 4376 H 425.715 -0.48187 -2.95497 0
M  V30 4377 H 423.261 -0.233182 -1.42099 0
M  V30 4378 H 425.214 1.80006 -3.81019 0
M  V30 4379 H 423.938 1.99818 -2.58341 0
M  V30 4380 H 422.597 0.158878 -3.66256 0
M  V30 4381 H 422.245 2.54002 -4.34157 0
M  V30 4382 H 421.945 1.42727 -5.70003 0
M  V30 4383 H 423.469 2.35725 -5.63264 0
M  V30 4384 H 424.883 0.0880081 -5.73232 0
M  V30 4385 H 423.28 -0.66861 -5.96364 0
M  V30 4386 H 424.35 -1.26367 -4.68145 0
M  V30 4387 N 425.693 1.55336 -0.266172 0
M  V30 4388 C 426.94 1.99397 0.353158 0
M  V30 4389 C 427.268 1.15451 1.56529 0
M  V30 4390 O 426.523 0.209974 1.9457 0
M  V30 4391 C 426.822 3.48606 0.787957 0
M  V30 4392 C 426.488 4.49773 -0.318541 0
M  V30 4393 C 425.15 4.77158 -0.62239 0
M  V30 4394 C 427.502 5.10212 -1.06459 0
M  V30 4395 C 424.83 5.62251 -1.67602 0
M  V30 4396 C 427.182 5.96449 -2.10788 0
M  V30 4397 C 425.846 6.22158 -2.41817 0
M  V30 4398 H 425.116 0.729644 0.12923 0
M  V30 4399 H 427.763 1.87732 -0.37802 0
M  V30 4400 H 426.068 3.57701 1.59866 0
M  V30 4401 H 427.765 3.80098 1.27775 0
M  V30 4402 H 424.355 4.2854 -0.0715925 0
M  V30 4403 H 428.539 4.89086 -0.843098 0
M  V30 4404 H 423.795 5.80419 -1.92155 0
M  V30 4405 H 427.969 6.42317 -2.69076 0
M  V30 4406 H 425.596 6.87888 -3.23596 0
M  V30 4407 N 427.171 -0.0066808 1.57599 0
M  V30 4408 C 428.103 -1.02827 2.04839 0
M  V30 4409 C 429.116 -1.31108 0.965113 0
M  V30 4410 O 430.305 -1.28202 1.24203 0
M  V30 4411 C 427.405 -2.36464 2.42771 0
M  V30 4412 C 426.578 -2.27219 3.73751 0
M  V30 4413 C 425.637 -3.43489 3.98625 0
M  V30 4414 O 424.663 -3.21976 4.69382 0
M  V30 4415 N 425.865 -4.66116 3.46 0
M  V30 4416 H 428.63 -0.625455 2.93101 0
M  V30 4417 H 426.191 -0.194198 1.60731 0
M  V30 4418 H 428.183 -3.13008 2.56531 0
M  V30 4419 H 426.753 -2.68512 1.60063 0
M  V30 4420 H 425.973 -1.35629 3.70133 0
M  V30 4421 H 427.261 -2.18208 4.59633 0
M  V30 4422 H 426.659 -4.86493 2.88688 0
M  V30 4423 H 425.216 -5.39949 3.65101 0
M  V30 4424 N 428.649 -1.55105 -0.279332 0
M  V30 4425 C 429.898 -1.74618 -1.00952 0
M  V30 4426 C 430.211 -0.551096 -1.87676 0
M  V30 4427 O 431.417 -0.628507 -2.64125 0
M  V30 4428 C 429.873 -3.09025 -1.84476 0
M  V30 4429 C 429.481 -4.36081 -1.0265 0
M  V30 4430 C 431.225 -3.37891 -2.56963 0
M  V30 4431 C 429.132 -5.6153 -1.85576 0
M  V30 4432 H 428.062 -0.650868 -0.38064 0
M  V30 4433 H 430.713 -1.81569 -0.265475 0
M  V30 4434 H 429.095 -2.96095 -2.62952 0
M  V30 4435 H 430.269 -4.59909 -0.286354 0
M  V30 4436 H 428.584 -4.14312 -0.416464 0
M  V30 4437 H 431.181 -4.28822 -3.19399 0
M  V30 4438 H 431.524 -2.57737 -3.26921 0
M  V30 4439 H 432.057 -3.5189 -1.85522 0
M  V30 4440 H 428.796 -6.44413 -1.2005 0
M  V30 4441 H 428.316 -5.41854 -2.57204 0
M  V30 4442 H 429.995 -5.99594 -2.43096 0
M  V30 4443 N 430.127 0.543554 -1.4793 0
M  V30 4444 C 431.404 1.30458 -1.4574 0
M  V30 4445 C 431.784 2.1048 -0.161692 0
M  V30 4446 O 431.132 2.11831 0.856734 0
M  V30 4447 C 431.342 2.19754 -2.71126 0
M  V30 4448 C 432.69 2.80334 -3.18901 0
M  V30 4449 O 433.714 2.30049 -2.71948 0
M  V30 4450 O 432.573 3.71766 -4.00565 0
M  V30 4451 H 429.667 0.588117 -0.581418 0
M  V30 4452 H 432.213 0.561328 -1.60147 0
M  V30 4453 H 430.985 1.60316 -3.56952 0
M  V30 4454 H 430.608 3.01351 -2.59371 0
M  V30 4455 N 431.605 1.3629 0.791371 0
M  V30 4456 C 433.016 1.27225 1.36641 0
M  V30 4457 C 433.367 -0.0887968 1.95999 0
M  V30 4458 O 432.492 -0.990207 1.92416 0
M  V30 4459 C 433.087 2.30375 2.48421 0
M  V30 4460 C 431.646 2.25004 3.01746 0
M  V30 4461 C 430.793 2.15259 1.7481 0
M  V30 4462 H 433.744 1.47198 0.593173 0
M  V30 4463 H 433.765 1.93905 3.27385 0
M  V30 4464 H 433.277 3.29422 2.05189 0
M  V30 4465 H 431.378 1.29417 3.49403 0
M  V30 4466 H 431.491 3.1761 3.58693 0
M  V30 4467 H 429.855 1.61482 1.96966 0
M  V30 4468 H 430.638 3.16191 1.33709 0
M  V30 4469 N 433.083 -1.0153 1.20538 0
M  V30 4470 C 434.033 -2.08482 0.922991 0
M  V30 4471 C 435.017 -1.60469 -0.117702 0
M  V30 4472 O 436.209 -1.76772 0.0898465 0
M  V30 4473 C 433.338 -3.39952 0.478312 0
M  V30 4474 C 432.424 -3.94662 1.5525 0
M  V30 4475 N 432.815 -4.22866 2.77521 0
M  V30 4476 C 431.113 -4.22825 1.41897 0
M  V30 4477 C 431.814 -4.67002 3.4682 0
M  V30 4478 N 430.79 -4.69356 2.74237 0
M  V30 4479 H 434.592 -2.28199 1.85209 0
M  V30 4480 H 432.106 -1.19512 1.09957 0
M  V30 4481 H 434.103 -4.16105 0.257408 0
M  V30 4482 H 432.763 -3.21648 -0.444148 0
M  V30 4483 H 433.774 -4.11732 3.1416 0
M  V30 4484 H 430.451 -4.13714 0.561015 0
M  V30 4485 H 431.841 -4.97632 4.51455 0
M  V30 4486 N 434.561 -1.01147 -1.20859 0
M  V30 4487 C 435.786 -0.716698 -1.94623 0
M  V30 4488 C 436.211 0.715415 -1.73964 0
M  V30 4489 O 435.569 1.49157 -1.03062 0
M  V30 4490 C 435.617 -1.0513 -3.44935 0
M  V30 4491 O 434.721 -0.160131 -4.12089 0
M  V30 4492 H 434.062 -0.266404 -0.608214 0
M  V30 4493 H 436.592 -1.35346 -1.53436 0
M  V30 4494 H 436.602 -1.00086 -3.95533 0
M  V30 4495 H 435.277 -2.09475 -3.59295 0
M  V30 4496 H 433.854 -0.267657 -3.71938 0
M  V30 4497 N 436.039 1.36541 -0.78704 0
M  V30 4498 C 437.287 1.98911 -0.357633 0
M  V30 4499 C 437.608 1.62778 1.07371 0
M  V30 4500 O 436.878 0.900612 1.73971 0
M  V30 4501 H 435.458 0.735734 -0.129246 0
M  V30 4502 H 438.12 1.66776 -1.00855 0
M  V30 4503 H 437.216 3.08874 -0.447549 0
M  V30 4504 N 437.518 0.538854 1.48102 0
M  V30 4505 C 438.448 -0.207654 2.32575 0
M  V30 4506 C 439.429 -0.926559 1.4265 0
M  V30 4507 O 440.614 -0.91061 1.71527 0
M  V30 4508 C 437.744 -1.24957 3.24042 0
M  V30 4509 C 436.698 -0.648263 4.23062 0
M  V30 4510 C 436.024 -1.79348 5.03725 0
M  V30 4511 C 437.324 0.385897 5.20872 0
M  V30 4512 H 439.018 0.497534 2.95237 0
M  V30 4513 H 436.564 0.240715 1.41974 0
M  V30 4514 H 438.517 -1.77983 3.81969 0
M  V30 4515 H 437.241 -1.98446 2.59397 0
M  V30 4516 H 435.9 -0.139452 3.66335 0
M  V30 4517 H 435.548 -2.51696 4.35498 0
M  V30 4518 H 435.248 -1.39702 5.70751 0
M  V30 4519 H 436.772 -2.32735 5.64506 0
M  V30 4520 H 438.186 -0.057607 5.73271 0
M  V30 4521 H 436.583 0.700227 5.96001 0
M  V30 4522 H 437.653 1.28848 4.67468 0
M  V30 4523 N 438.996 -1.55193 0.274407 0
M  V30 4524 C 440.242 -1.99877 -0.343086 0
M  V30 4525 C 440.575 -1.16256 -1.55558 0
M  V30 4526 O 439.85 -0.232462 -1.93106 0
M  V30 4527 C 440.133 -3.52706 -0.725965 0
M  V30 4528 C 439.986 -4.47081 0.493818 0
M  V30 4529 C 441.305 -4.11422 -1.56268 0
M  V30 4530 H 438.424 -0.726625 -0.123229 0
M  V30 4531 H 441.066 -1.86136 0.38121 0
M  V30 4532 H 439.216 -3.64546 -1.34307 0
M  V30 4533 H 440.888 -4.47186 1.13237 0
M  V30 4534 H 439.131 -4.1877 1.13201 0
M  V30 4535 H 439.802 -5.51699 0.18217 0
M  V30 4536 H 442.278 -4.02855 -1.04151 0
M  V30 4537 H 441.154 -5.18568 -1.79939 0
M  V30 4538 H 441.415 -3.61607 -2.54348 0
M  V30 4539 N 440.474 -0.00167713 -1.576 0
M  V30 4540 C 441.702 0.693759 -1.94922 0
M  V30 4541 C 442.117 1.67215 -0.876626 0
M  V30 4542 O 441.474 1.81929 0.144279 0
M  V30 4543 C 441.525 1.42416 -3.32265 0
M  V30 4544 O 441.246 0.485014 -4.35407 0
M  V30 4545 C 442.747 2.21395 -3.84056 0
M  V30 4546 H 439.967 0.193118 -0.642609 0
M  V30 4547 H 442.511 -0.0532952 -2.04431 0
M  V30 4548 H 440.666 2.12284 -3.24059 0
M  V30 4549 H 441.08 1.00053 -5.14868 0
M  V30 4550 H 442.554 2.67996 -4.82578 0
M  V30 4551 H 443.031 3.04142 -3.16851 0
M  V30 4552 H 443.637 1.56542 -3.95443 0
M  V30 4553 N 441.952 1.55251 0.271103 0
M  V30 4554 C 443.198 1.76207 1.00394 0
M  V30 4555 C 443.531 0.562604 1.85872 0
M  V30 4556 O 442.806 -0.439785 1.89463 0
M  V30 4557 C 443.089 3.06828 1.8849 0
M  V30 4558 C 442.942 4.37134 1.05992 0
M  V30 4559 C 444.261 3.33503 2.87165 0
M  V30 4560 H 441.38 0.641086 0.363562 0
M  V30 4561 H 444.022 1.87982 0.276189 0
M  V30 4562 H 442.172 2.96921 2.5054 0
M  V30 4563 H 443.844 4.59001 0.459978 0
M  V30 4564 H 442.087 4.32275 0.363443 0
M  V30 4565 H 442.758 5.2486 1.70955 0
M  V30 4566 H 445.234 3.43215 2.3525 0
M  V30 4567 H 444.11 4.2616 3.45946 0
M  V30 4568 H 444.371 2.53235 3.62387 0
M  V30 4569 N 443.43 -0.535701 1.48216 0
M  V30 4570 C 444.658 -1.31671 1.59594 0
M  V30 4571 C 445.073 -1.87083 0.254056 0
M  V30 4572 O 444.43 -1.66112 -0.755854 0
M  V30 4573 C 444.481 -2.47158 2.63809 0
M  V30 4574 O 444.202 -1.94032 3.92789 0
M  V30 4575 C 445.703 -3.39062 2.85573 0
M  V30 4576 H 442.923 -0.400623 0.538277 0
M  V30 4577 H 445.467 -0.646827 1.94001 0
M  V30 4578 H 443.622 -3.10043 2.32276 0
M  V30 4579 H 444.036 -2.69585 4.49916 0
M  V30 4580 H 445.51 -4.16459 3.62306 0
M  V30 4581 H 445.987 -3.93941 1.94184 0
M  V30 4582 H 446.593 -2.81975 3.18387 0
M  V30 4583 N 444.908 -1.36708 -0.784132 0
M  V30 4584 C 446.156 -1.30972 -1.53918 0
M  V30 4585 C 446.477 0.109086 -1.94695 0
M  V30 4586 O 445.747 1.05048 -1.65353 0
M  V30 4587 H 444.327 -0.481819 -0.570841 0
M  V30 4588 H 446.989 -1.71063 -0.934002 0
M  V30 4589 H 446.085 -1.94061 -2.44431 0
M  V30 4590 N 446.386 1.0089 -1.21074 0
M  V30 4591 C 447.349 2.0775 -0.968129 0
M  V30 4592 C 448.349 1.6069 0.0593445 0
M  V30 4593 O 449.539 1.73293 -0.177525 0
M  V30 4594 C 446.671 3.37794 -0.459108 0
M  V30 4595 H 447.864 2.30707 -1.9161 0
M  V30 4596 H 445.417 1.17807 -1.02719 0
M  V30 4597 H 446.152 3.20516 0.49397 0
M  V30 4598 H 445.937 3.7328 -1.20019 0
M  V30 4599 H 447.427 4.16454 -0.309099 0
M  V30 4600 N 447.864 1.01787 1.20321 0
M  V30 4601 C 448.794 0.609625 2.25401 0
M  V30 4602 C 449.775 -0.375951 1.65893 0
M  V30 4603 O 450.96 -0.261101 1.92437 0
M  V30 4604 C 448.09 -0.0515995 3.47262 0
M  V30 4605 C 447.044 0.855095 4.19371 0
M  V30 4606 C 446.37 0.0595757 5.34667 0
M  V30 4607 C 447.67 2.16374 4.75373 0
M  V30 4608 H 449.364 1.48803 2.59804 0
M  V30 4609 H 446.91 0.716934 1.24884 0
M  V30 4610 H 448.863 -0.348764 4.19954 0
M  V30 4611 H 447.587 -0.964726 3.12027 0
M  V30 4612 H 446.246 1.13628 3.48546 0
M  V30 4613 H 445.894 -0.85524 4.95676 0
M  V30 4614 H 445.594 0.663406 5.83843 0
M  V30 4615 H 447.118 -0.231105 6.10162 0
M  V30 4616 H 448.532 1.92885 5.39878 0
M  V30 4617 H 446.929 2.71853 5.34991 0
M  V30 4618 H 447.999 2.82589 3.94045 0
M  V30 4619 N 449.342 -1.36122 0.79427 0
M  V30 4620 C 450.619 -1.93398 0.292685 0
M  V30 4621 C 450.999 -1.72567 -1.21589 0
M  V30 4622 O 450.347 -1.08745 -2.00965 0
M  V30 4623 C 450.557 -3.42099 0.690614 0
M  V30 4624 C 451.905 -4.19231 0.673105 0
M  V30 4625 O 452.929 -3.50559 0.631389 0
M  V30 4626 O 451.788 -5.41732 0.720362 0
M  V30 4627 H 448.882 -0.823712 0.0736693 0
M  V30 4628 H 451.428 -1.45273 0.87714 0
M  V30 4629 H 450.2 -3.50938 1.73085 0
M  V30 4630 H 449.823 -3.97519 0.0803036 0
M  V30 4631 N 450.82 -0.546701 -1.47814 0
M  V30 4632 C 452.05 -0.0232519 -2.06587 0
M  V30 4633 C 452.458 1.2712 -1.40133 0
M  V30 4634 O 451.801 1.77091 -0.488305 0
M  V30 4635 C 451.863 0.254117 -3.58601 0
M  V30 4636 C 451.527 -0.949331 -4.47031 0
M  V30 4637 C 452.524 -1.85216 -4.85789 0
M  V30 4638 C 450.209 -1.16104 -4.88697 0
M  V30 4639 C 452.203 -2.95047 -5.65001 0
M  V30 4640 C 449.89 -2.26247 -5.67676 0
M  V30 4641 C 450.888 -3.1555 -6.05737 0
M  V30 4642 O 450.576 -4.23784 -6.83127 0
M  V30 4643 H 450.308 -0.0380082 -0.674931 0
M  V30 4644 H 452.862 -0.756631 -1.90956 0
M  V30 4645 H 451.092 1.04168 -3.72406 0
M  V30 4646 H 452.781 0.72167 -3.99433 0
M  V30 4647 H 453.547 -1.70061 -4.54207 0
M  V30 4648 H 449.426 -0.475159 -4.58545 0
M  V30 4649 H 452.97 -3.64778 -5.94628 0
M  V30 4650 H 448.867 -2.41379 -5.98671 0
M  V30 4651 H 449.635 -4.21701 -7.01506 0
M  V30 4652 N 452.299 1.55045 -0.282633 0
M  V30 4653 C 453.209 2.26491 0.61147 0
M  V30 4654 C 454.225 1.29348 1.16384 0
M  V30 4655 O 455.401 1.62298 1.19253 0
M  V30 4656 C 452.466 2.97779 1.77563 0
M  V30 4657 C 451.527 4.10418 1.25919 0
M  V30 4658 C 450.76 4.78297 2.36786 0
M  V30 4659 O 450.983 4.45426 3.56303 0
M  V30 4660 O 449.917 5.66089 2.04517 0
M  V30 4661 H 453.743 3.03683 0.0324615 0
M  V30 4662 H 451.328 1.49317 -0.0497576 0
M  V30 4663 H 453.21 3.42554 2.45427 0
M  V30 4664 H 451.885 2.23498 2.34159 0
M  V30 4665 H 450.792 3.70082 0.546797 0
M  V30 4666 H 452.125 4.86622 0.738887 0
M  V30 4667 N 453.777 0.010035 1.57597 0
M  V30 4668 C 454.687 -0.994226 2.12491 0
M  V30 4669 C 455.703 -1.37013 1.07254 0
M  V30 4670 O 456.879 -1.45542 1.3921 0
M  V30 4671 C 453.944 -2.2642 2.62555 0
M  V30 4672 C 453.005 -1.95049 3.82432 0
M  V30 4673 C 452.238 -3.15991 4.30099 0
M  V30 4674 O 452.461 -4.28015 3.7704 0
M  V30 4675 O 451.395 -2.99403 5.22151 0
M  V30 4676 H 455.221 -0.557549 2.98538 0
M  V30 4677 H 452.806 -0.209413 1.47925 0
M  V30 4678 H 454.688 -3.01009 2.9491 0
M  V30 4679 H 453.363 -2.69306 1.796 0
M  V30 4680 H 452.27 -1.17904 3.55034 0
M  V30 4681 H 453.603 -1.56992 4.66491 0
M  V30 4682 N 455.255 -1.55392 -0.262866 0
M  V30 4683 C 456.503 -1.76127 -0.991147 0
M  V30 4684 C 456.824 -0.571083 -1.8645 0
M  V30 4685 O 456.094 0.413698 -1.91482 0
M  V30 4686 H 454.674 -0.649528 -0.368948 0
M  V30 4687 H 457.336 -1.9281 -0.284655 0
M  V30 4688 H 456.432 -2.6663 -1.62219 0
M  V30 4689 N 456.733 0.527833 -1.48498 0
M  V30 4690 C 457.683 1.62844 -1.5958 0
M  V30 4691 C 458.667 1.54397 -0.452809 0
M  V30 4692 O 459.859 1.62381 -0.704364 0
M  V30 4693 C 456.988 3.01557 -1.64067 0
M  V30 4694 C 456.074 3.151 -2.83853 0
M  V30 4695 N 456.465 2.9861 -4.08247 0
M  V30 4696 C 454.763 3.46158 -2.8123 0
M  V30 4697 C 455.464 3.15626 -4.88626 0
M  V30 4698 N 454.44 3.43298 -4.21483 0
M  V30 4699 H 458.242 1.48708 -2.53502 0
M  V30 4700 H 455.756 0.733343 -1.44899 0
M  V30 4701 H 457.753 3.8062 -1.70101 0
M  V30 4702 H 456.413 3.16783 -0.712636 0
M  V30 4703 H 457.424 2.75329 -4.3865 0
M  V30 4704 H 454.101 3.67728 -1.97692 0
M  V30 4705 H 455.491 3.07596 -5.97356 0
M  V30 4706 N 458.211 1.37122 0.776871 0
M  V30 4707 C 459.457 1.32243 1.53752 0
M  V30 4708 C 459.79 -0.0944745 1.9397 0
M  V30 4709 O 459.065 -1.05068 1.6368 0
M  V30 4710 C 459.348 2.25681 2.80607 0
M  V30 4711 C 459.201 3.76127 2.46676 0
M  V30 4712 C 460.52 2.17657 3.82509 0
M  V30 4713 H 457.639 0.481704 0.557791 0
M  V30 4714 H 460.281 1.6778 0.891612 0
M  V30 4715 H 458.431 1.95505 3.35723 0
M  V30 4716 H 460.103 4.16877 1.97513 0
M  V30 4717 H 458.346 3.94946 1.79443 0
M  V30 4718 H 459.017 4.36933 3.37333 0
M  V30 4719 H 461.493 2.44245 3.36873 0
M  V30 4720 H 460.369 2.85185 4.69 0
M  V30 4721 H 460.63 1.16785 4.26396 0
M  V30 4722 N 459.689 -1.00246 1.21608 0
M  V30 4723 C 460.919 -1.77373 1.05935 0
M  V30 4724 C 461.327 -1.85059 -0.393686 0
M  V30 4725 O 460.67 -1.31289 -1.28487 0
M  V30 4726 C 460.732 -3.22705 1.58435 0
M  V30 4727 C 460.396 -3.38591 3.06929 0
M  V30 4728 C 461.393 -3.2667 4.04454 0
M  V30 4729 C 459.078 -3.6395 3.46187 0
M  V30 4730 C 461.072 -3.39877 5.39224 0
M  V30 4731 C 458.759 -3.768 4.81108 0
M  V30 4732 C 459.757 -3.6477 5.77436 0
M  V30 4733 O 459.445 -3.77206 7.09909 0
M  V30 4734 H 459.177 -0.56419 0.372378 0
M  V30 4735 H 461.731 -1.26971 1.61454 0
M  V30 4736 H 459.961 -3.74255 0.973147 0
M  V30 4737 H 461.65 -3.81515 1.38568 0
M  V30 4738 H 462.416 -3.06999 3.75468 0
M  V30 4739 H 458.295 -3.72395 2.71741 0
M  V30 4740 H 461.839 -3.30404 6.14393 0
M  V30 4741 H 457.736 -3.95975 5.09779 0
M  V30 4742 H 458.504 -3.94138 7.17355 0
M  V30 4743 N 461.167 -1.02423 -1.1978 0
M  V30 4744 C 462.077 -0.610919 -2.26506 0
M  V30 4745 C 463.093 0.355152 -1.70337 0
M  V30 4746 O 464.269 0.214195 -2.00258 0
M  V30 4747 C 461.334 0.0365921 -3.46681 0
M  V30 4748 C 460.395 -0.976389 -4.18049 0
M  V30 4749 C 459.628 -0.359683 -5.32487 0
M  V30 4750 O 459.851 0.838601 -5.64202 0
M  V30 4751 O 458.785 -1.08022 -5.92127 0
M  V30 4752 H 462.611 -1.49965 -2.64091 0
M  V30 4753 H 460.196 -0.794156 -1.26545 0
M  V30 4754 H 462.078 0.39786 -4.19518 0
M  V30 4755 H 460.753 0.899398 -3.10954 0
M  V30 4756 H 459.66 -1.38916 -3.47352 0
M  V30 4757 H 460.993 -1.80941 -4.57735 0
M  V30 4758 N 462.645 1.35699 -0.801477 0
M  V30 4759 C 463.575 2.32436 -0.222658 0
M  V30 4760 C 464.556 1.5723 0.649057 0
M  V30 4761 O 465.741 1.85324 0.580387 0
M  V30 4762 C 462.871 3.41469 0.633719 0
M  V30 4763 C 461.825 4.27774 -0.139083 0
M  V30 4764 C 461.151 5.28082 0.838666 0
M  V30 4765 C 462.451 5.04946 -1.33517 0
M  V30 4766 H 464.145 2.81094 -1.03086 0
M  V30 4767 H 461.691 1.35146 -0.497155 0
M  V30 4768 H 463.644 4.08143 1.04868 0
M  V30 4769 H 462.368 2.91408 1.47475 0
M  V30 4770 H 461.027 3.62673 -0.535156 0
M  V30 4771 H 460.675 4.7429 1.67506 0
M  V30 4772 H 460.375 5.86695 0.32594 0
M  V30 4773 H 461.899 5.97628 1.25194 0
M  V30 4774 H 463.313 5.64593 -0.995349 0
M  V30 4775 H 461.71 5.7303 -1.78202 0
M  V30 4776 H 462.78 4.35886 -2.12442 0
M  V30 4777 N 464.123 0.554532 1.47522 0
M  V30 4778 C 465.4 -0.0360704 1.95567 0
M  V30 4779 C 465.78 -1.48828 1.49711 0
M  V30 4780 O 465.128 -2.16366 0.734717 0
M  V30 4781 C 465.338 0.106631 3.48837 0
M  V30 4782 C 466.686 -0.0400899 4.24581 0
M  V30 4783 O 467.71 0.0340453 3.56184 0
M  V30 4784 O 466.569 -0.199111 5.46137 0
M  V30 4785 H 463.663 -0.0656294 0.824392 0
M  V30 4786 H 466.209 0.620867 1.57935 0
M  V30 4787 H 464.981 1.11727 3.7501 0
M  V30 4788 H 464.604 -0.58804 3.93227 0
M  V30 4789 N 465.601 -1.54893 0.290851 0
M  V30 4790 C 466.847 -2.0023 -0.321867 0
M  V30 4791 C 467.18 -1.179 -1.54316 0
M  V30 4792 O 466.455 -0.25293 -1.92848 0
M  V30 4793 C 466.738 -3.53456 -0.688515 0
M  V30 4794 C 466.591 -4.46532 0.541209 0
M  V30 4795 C 467.91 -4.13057 -1.51895 0
M  V30 4796 H 465.029 -0.727891 -0.115515 0
M  V30 4797 H 467.671 -1.85722 0.400931 0
M  V30 4798 H 465.821 -3.6595 -1.30433 0
M  V30 4799 H 467.493 -4.4596 1.17973 0
M  V30 4800 H 465.736 -4.17545 1.17636 0
M  V30 4801 H 466.407 -5.51475 0.240675 0
M  V30 4802 H 468.883 -4.03937 -0.99872 0
M  V30 4803 H 467.759 -5.20448 -1.74429 0
M  V30 4804 H 468.02 -3.64284 -2.50498 0
M  V30 4805 N 467.08 -0.0183926 -1.57589 0
M  V30 4806 C 468.012 0.995557 -2.06449 0
M  V30 4807 C 469.025 1.29556 -0.985849 0
M  V30 4808 O 470.214 1.2621 -1.26227 0
M  V30 4809 C 467.314 2.32572 -2.46502 0
M  V30 4810 C 466.487 2.21245 -3.77319 0
M  V30 4811 C 465.546 3.37104 -4.04039 0
M  V30 4812 O 464.572 3.14468 -4.74445 0
M  V30 4813 N 465.774 4.60553 -3.53372 0
M  V30 4814 H 468.539 0.578746 -2.94059 0
M  V30 4815 H 466.1 0.168603 -1.6102 0
M  V30 4816 H 468.092 3.08887 -2.61478 0
M  V30 4817 H 466.662 2.65931 -1.64315 0
M  V30 4818 H 465.882 1.29723 -3.72244 0
M  V30 4819 H 467.17 2.10868 -4.63047 0
M  V30 4820 H 466.568 4.81839 -2.96391 0
M  V30 4821 H 465.125 5.34072 -3.73644 0
M  V30 4822 N 468.558 1.5553 0.254621 0
M  V30 4823 C 469.521 1.88872 1.29846 0
M  V30 4824 C 470.521 0.764591 1.41459 0
M  V30 4825 O 471.711 1.03265 1.40293 0
M  V30 4826 C 468.843 2.11032 2.67728 0
M  V30 4827 H 470.036 2.82201 1.01502 0
M  V30 4828 H 467.589 1.48303 0.493556 0
M  V30 4829 H 468.324 1.20146 3.01223 0
M  V30 4830 H 468.109 2.92895 2.60682 0
M  V30 4831 H 469.599 2.38038 3.43115 0
M  V30 4832 N 470.036 -0.519951 1.48776 0
M  V30 4833 C 470.983 -1.62352 1.64044 0
M  V30 4834 C 471.953 -1.58945 0.482251 0
M  V30 4835 O 473.138 -1.77219 0.706971 0
M  V30 4836 C 470.278 -3.00579 1.69547 0
M  V30 4837 C 469.391 -3.14145 2.96541 0
M  V30 4838 C 468.526 -4.42991 2.93142 0
M  V30 4839 C 467.565 -4.50122 4.14797 0
M  V30 4840 N 466.702 -5.7037 4.09418 0
M  V30 4841 H 471.542 -1.48643 2.58281 0
M  V30 4842 H 469.079 -0.723516 1.28077 0
M  V30 4843 H 471.037 -3.80671 1.70719 0
M  V30 4844 H 469.667 -3.13036 0.787918 0
M  V30 4845 H 468.719 -2.27239 3.05068 0
M  V30 4846 H 470.031 -3.15275 3.86527 0
M  V30 4847 H 469.185 -5.31385 2.92772 0
M  V30 4848 H 467.924 -4.44398 2.00902 0
M  V30 4849 H 466.929 -3.60133 4.15433 0
M  V30 4850 H 468.154 -4.50445 5.08208 0
M  V30 4851 H 466.1 -5.72655 3.20004 0
M  V30 4852 H 466.017 -5.73036 4.93119 0
M  V30 4853 H 467.285 -6.61023 4.13121 0
M  V30 4854 N 471.514 -1.37532 -0.769588 0
M  V30 4855 C 472.791 -1.23392 -1.51768 0
M  V30 4856 C 473.171 0.17157 -2.10402 0
M  V30 4857 O 472.519 1.17943 -1.95708 0
M  V30 4858 C 472.729 -2.33163 -2.59685 0
M  V30 4859 C 474.077 -2.70809 -3.27028 0
M  V30 4860 O 475.101 -2.32355 -2.69981 0
M  V30 4861 O 473.96 -3.37066 -4.30173 0
M  V30 4862 H 471.054 -0.481617 -0.67229 0
M  V30 4863 H 473.6 -1.49318 -0.806368 0
M  V30 4864 H 472.372 -3.27273 -2.14494 0
M  V30 4865 H 471.995 -2.08713 -3.38415 0
M  V30 4866 N 472.992 0.995999 -1.22138 0
M  V30 4867 C 473.922 2.10387 -1.01289 0
M  V30 4868 C 474.903 1.69975 0.0651454 0
M  V30 4869 O 476.088 1.9396 -0.0964628 0
M  V30 4870 C 473.218 3.42312 -0.586517 0
M  V30 4871 C 472.172 3.96558 -1.61014 0
M  V30 4872 C 471.498 5.24494 -1.0397 0
M  V30 4873 C 472.798 4.27595 -2.99933 0
M  V30 4874 H 474.492 2.28086 -1.93951 0
M  V30 4875 H 472.038 1.09607 -0.933928 0
M  V30 4876 H 473.991 4.19223 -0.427793 0
M  V30 4877 H 472.715 3.24431 0.375761 0
M  V30 4878 H 471.374 3.21776 -1.75658 0
M  V30 4879 H 471.022 5.02953 -0.0688703 0
M  V30 4880 H 470.722 5.61755 -1.72352 0
M  V30 4881 H 472.246 6.04042 -0.892494 0
M  V30 4882 H 473.66 4.95315 -2.8868 0
M  V30 4883 H 472.057 4.76021 -3.6541 0
M  V30 4884 H 473.127 3.35498 -3.50099 0
M  V30 4885 N 474.47 1.03057 1.19235 0
M  V30 4886 C 475.718 0.726581 1.88587 0
M  V30 4887 C 476.039 -0.747227 1.80115 0
M  V30 4888 O 475.309 -1.53849 1.21274 0
M  V30 4889 H 473.889 0.265768 0.698124 0
M  V30 4890 H 476.551 1.30516 1.44746 0
M  V30 4891 H 475.647 1.0224 2.94879 0
M  V30 4892 N 475.948 -1.35272 0.808662 0
M  V30 4893 C 477.359 -1.81179 0.450688 0
M  V30 4894 C 477.71 -1.67143 -1.02751 0
M  V30 4895 O 476.835 -1.20325 -1.79864 0
M  V30 4896 C 477.43 -3.28943 0.811275 0
M  V30 4897 C 475.989 -3.72985 0.505871 0
M  V30 4898 C 475.136 -2.57229 1.03578 0
M  V30 4899 H 478.087 -1.2322 1.00012 0
M  V30 4900 H 478.108 -3.80342 0.109588 0
M  V30 4901 H 477.62 -3.39127 1.88718 0
M  V30 4902 H 475.721 -3.68349 -0.561209 0
M  V30 4903 H 475.834 -4.67677 1.03995 0
M  V30 4904 H 474.198 -2.50548 0.458005 0
M  V30 4905 H 474.981 -2.7019 2.11784 0
M  V30 4906 N 477.426 -0.562348 -1.47226 0
M  V30 4907 C 478.374 0.195476 -2.31777 0
M  V30 4908 C 479.368 0.90433 -1.43242 0
M  V30 4909 O 480.574 0.825031 -1.59979 0
M  V30 4910 H 476.949 0.0819095 -0.747526 0
M  V30 4911 H 478.92 -0.536753 -2.93533 0
M  V30 4912 C 477.669 1.20902 -3.26003 0
M  V30 4913 H 476.992 0.672997 -3.94095 0
M  V30 4914 H 478.432 1.71006 -3.87986 0
M  V30 4915 C 476.891 2.25955 -2.49891 0
M  V30 4916 O 477.421 3.32969 -2.2471 0
M  V30 4917 N 475.627 2.00019 -2.1081 0
M  V30 4918 H 475.174 1.13006 -2.31489 0
M  V30 4919 H 475.132 2.70523 -1.60201 0
M  V30 4920 N 478.904 1.54736 -0.299062 0
M  V30 4921 C 480.129 2.04975 0.316254 0
M  V30 4922 C 480.554 1.17501 1.46885 0
M  V30 4923 O 479.912 0.178678 1.80417 0
M  V30 4924 C 479.96 3.52672 0.751997 0
M  V30 4925 O 479.064 3.68226 1.85697 0
M  V30 4926 H 478.405 0.661126 0.0617175 0
M  V30 4927 H 480.935 1.99805 -0.440341 0
M  V30 4928 H 480.945 3.94488 1.04133 0
M  V30 4929 H 479.62 4.158 -0.0911482 0
M  V30 4930 H 478.197 3.38316 1.56834 0
M  V30 4931 N 480.382 0.0267497 1.57577 0
M  V30 4932 C 481.631 -0.651736 1.9088 0
M  V30 4933 C 481.944 -1.73427 0.904576 0
M  V30 4934 O 483.15 -2.46923 1.12877 0
M  V30 4935 C 481.606 -1.21048 3.38933 0
M  V30 4936 C 481.214 -0.161362 4.47709 0
M  V30 4937 C 482.958 -1.86562 3.81307 0
M  V30 4938 C 480.865 -0.731611 5.86857 0
M  V30 4939 H 479.795 -0.247198 0.712326 0
M  V30 4940 H 482.446 0.0916641 1.83271 0
M  V30 4941 H 480.828 -2.00542 3.41466 0
M  V30 4942 H 482.002 0.61094 4.56732 0
M  V30 4943 H 480.317 0.394877 4.14523 0
M  V30 4944 H 482.914 -2.30178 4.8262 0
M  V30 4945 H 483.257 -2.70735 3.16241 0
M  V30 4946 H 483.79 -1.13762 3.81186 0
M  V30 4947 H 480.529 0.0719329 6.55461 0
M  V30 4948 H 480.049 -1.47245 5.81445 0
M  V30 4949 H 481.728 -1.22208 6.35354 0
M  V30 4950 N 481.861 -1.55662 -0.24637 0
M  V30 4951 C 483.272 -1.67953 -0.81539 0
M  V30 4952 C 483.623 -0.624302 -1.86002 0
M  V30 4953 O 482.748 0.229328 -2.15181 0
M  V30 4954 C 483.343 -3.04484 -1.48576 0
M  V30 4955 C 481.902 -3.18713 -2.00248 0
M  V30 4956 C 481.049 -2.6383 -0.853766 0
M  V30 4957 H 484 -1.58685 -0.0221692 0
M  V30 4958 H 484.021 -2.98959 -2.3538 0
M  V30 4959 H 483.533 -3.81264 -0.725222 0
M  V30 4960 H 481.634 -2.46757 -2.79181 0
M  V30 4961 H 481.747 -4.25628 -2.1995 0
M  V30 4962 H 480.111 -2.21667 -1.25442 0
M  V30 4963 H 480.894 -3.43135 -0.106302 0
M  V30 4964 N 483.339 0.512053 -1.4905 0
M  V30 4965 C 484.302 1.59704 -1.64399 0
M  V30 4966 C 485.302 1.52285 -0.516317 0
M  V30 4967 O 486.492 1.55635 -0.782527 0
M  V30 4968 C 483.624 2.9935 -1.63102 0
M  V30 4969 H 484.817 1.47428 -2.61161 0
M  V30 4970 H 482.37 0.735469 -1.37915 0
M  V30 4971 H 483.105 3.17116 -0.678836 0
M  V30 4972 H 482.89 3.06144 -2.44986 0
M  V30 4973 H 484.38 3.782 -1.77072 0
M  V30 4974 N 484.817 1.37938 0.762283 0
M  V30 4975 C 485.767 1.30976 1.86626 0
M  V30 4976 C 486.751 0.195714 1.59705 0
M  V30 4977 O 487.943 0.430937 1.71674 0
M  V30 4978 C 485.072 1.12847 3.24223 0
M  V30 4979 C 484.158 2.28836 3.57064 0
M  V30 4980 N 484.549 3.54256 3.61022 0
M  V30 4981 C 482.847 2.21198 3.87282 0
M  V30 4982 C 483.548 4.30798 3.90881 0
M  V30 4983 N 482.524 3.60049 4.07266 0
M  V30 4984 H 486.326 2.25946 1.87951 0
M  V30 4985 H 483.84 1.31046 0.959206 0
M  V30 4986 H 485.837 1.05943 4.03214 0
M  V30 4987 H 484.497 0.188024 3.24155 0
M  V30 4988 H 485.508 3.8804 3.42995 0
M  V30 4989 H 482.185 1.35264 3.94981 0
M  V30 4990 H 483.575 5.39386 4.00639 0
M  V30 4991 N 486.295 -0.989507 1.22664 0
M  V30 4992 C 487.535 -1.7447 1.06488 0
M  V30 4993 C 487.899 -1.8794 -0.392737 0
M  V30 4994 O 489.1 -2.60175 -0.675446 0
M  V30 4995 C 487.371 -3.11043 1.76031 0
M  V30 4996 S 488.93 -4.02258 1.7531 0
M  V30 4997 H 485.748 -0.600123 0.381278 0
M  V30 4998 H 488.35 -1.18283 1.55658 0
M  V30 4999 H 487.054 -2.98884 2.81241 0
M  V30 5000 H 486.585 -3.72301 1.27105 0
M  V30 5001 H 488.6 -4.89623 0.805208 0
M  V30 5002 N 487.773 -1.03688 -1.18687 0
M  V30 5003 C 488.72 -0.624624 -2.22187 0
M  V30 5004 C 489.69 0.365636 -1.62026 0
M  V30 5005 O 490.875 0.260481 -1.89014 0
M  V30 5006 C 488.015 0.0101738 -3.45099 0
M  V30 5007 C 487.128 -1.02709 -4.19613 0
M  V30 5008 C 486.263 -0.361213 -5.2997 0
M  V30 5009 C 485.302 -1.38384 -5.96252 0
M  V30 5010 N 484.439 -0.743196 -6.98155 0
M  V30 5011 H 489.279 -1.51176 -2.56807 0
M  V30 5012 H 486.816 -0.75636 -1.26165 0
M  V30 5013 H 488.774 0.395528 -4.15321 0
M  V30 5014 H 487.404 0.860848 -3.1111 0
M  V30 5015 H 486.456 -1.53043 -3.48256 0
M  V30 5016 H 487.768 -1.80398 -4.65036 0
M  V30 5017 H 486.922 0.0785537 -6.06649 0
M  V30 5018 H 485.661 0.447799 -4.8564 0
M  V30 5019 H 484.666 -1.83378 -5.18317 0
M  V30 5020 H 485.891 -2.19448 -6.42666 0
M  V30 5021 H 483.837 0.0455789 -6.55984 0
M  V30 5022 H 483.754 -1.45784 -7.41811 0
M  V30 5023 H 485.022 -0.327698 -7.78811 0
M  V30 5024 N 489.251 1.34841 -0.815825 0
M  V30 5025 C 490.497 1.98793 -0.401129 0
M  V30 5026 C 490.83 1.64548 1.03139 0
M  V30 5027 O 490.105 0.913487 1.71714 0
M  V30 5028 C 490.388 3.55143 -0.595409 0
M  V30 5029 C 490.241 3.99155 -2.07352 0
M  V30 5030 C 491.56 4.40092 -0.0268823 0
M  V30 5031 H 488.679 0.722146 -0.14722 0
M  V30 5032 H 491.321 1.59847 -1.02707 0
M  V30 5033 H 489.471 3.8845 -0.0625779 0
M  V30 5034 H 491.143 3.76216 -2.66945 0
M  V30 5035 H 489.386 3.49726 -2.56659 0
M  V30 5036 H 490.057 5.07971 -2.1603 0
M  V30 5037 H 492.533 4.13298 -0.482042 0
M  V30 5038 H 491.409 5.48562 -0.19267 0
M  V30 5039 H 491.67 4.29016 1.06759 0
M  V30 5040 N 490.729 0.570148 1.46925 0
M  V30 5041 C 491.957 0.0561966 2.06824 0
M  V30 5042 C 492.372 -1.24326 1.42086 0
M  V30 5043 O 491.729 -1.74882 0.521794 0
M  V30 5044 C 491.78 -0.129517 3.61268 0
M  V30 5045 O 491.501 1.1185 4.23581 0
M  V30 5046 C 493.002 -0.679266 4.38065 0
M  V30 5047 H 490.222 0.0517261 0.669003 0
M  V30 5048 H 492.766 0.787243 1.8874 0
M  V30 5049 H 490.921 -0.810739 3.78822 0
M  V30 5050 H 491.335 0.924375 5.1629 0
M  V30 5051 H 492.809 -0.758445 5.46765 0
M  V30 5052 H 493.286 -1.69346 4.05239 0
M  V30 5053 H 493.892 -0.0333237 4.25287 0
M  V30 5054 N 492.207 -1.54576 0.307264 0
M  V30 5055 C 493.453 -2.0056 -0.300612 0
M  V30 5056 C 493.786 -1.1953 -1.53057 0
M  V30 5057 O 493.061 -0.27337 -1.92569 0
M  V30 5058 C 493.344 -3.54167 -0.650987 0
M  V30 5059 C 493.197 -4.45933 0.588539 0
M  V30 5060 C 494.516 -4.14645 -1.47506 0
M  V30 5061 H 491.635 -0.729075 -0.107788 0
M  V30 5062 H 494.277 -1.85286 0.420606 0
M  V30 5063 H 492.427 -3.67313 -1.26544 0
M  V30 5064 H 494.099 -4.44683 1.22697 0
M  V30 5065 H 492.342 -4.16274 1.22058 0
M  V30 5066 H 493.013 -5.51189 0.299153 0
M  V30 5067 H 495.489 -4.04973 -0.955821 0
M  V30 5068 H 494.365 -5.22269 -1.68899 0
M  V30 5069 H 494.626 -3.66921 -2.4662 0
M  V30 5070 N 493.685 -0.035106 -1.57561 0
M  V30 5071 C 494.91 0.655802 -1.96759 0
M  V30 5072 C 495.335 1.64523 -0.911809 0
M  V30 5073 O 494.693 1.80857 0.126673 0
M  V30 5074 C 494.741 1.33326 -3.35047 0
M  V30 5075 O 493.845 2.44866 -3.31835 0
M  V30 5076 H 493.186 0.171807 -0.641388 0
M  V30 5077 H 495.716 -0.0987369 -2.04362 0
M  V30 5078 H 495.726 1.68867 -3.71413 0
M  V30 5079 H 494.401 0.608033 -4.11431 0
M  V30 5080 H 492.978 2.11392 -3.07193 0
M  V30 5081 N 495.163 1.55791 0.238111 0
M  V30 5082 C 496.409 1.78297 0.966337 0
M  V30 5083 C 496.742 0.601903 1.84637 0
M  V30 5084 O 496.017 -0.399499 1.90353 0
M  V30 5085 C 496.3 3.10758 1.81939 0
M  V30 5086 C 496.153 4.39283 0.966958 0
M  V30 5087 C 497.472 3.39519 2.80027 0
M  V30 5088 H 494.591 0.648654 0.349882 0
M  V30 5089 H 497.233 1.88525 0.236253 0
M  V30 5090 H 495.383 3.02168 2.44185 0
M  V30 5091 H 497.055 4.59873 0.362514 0
M  V30 5092 H 495.298 4.32948 0.271669 0
M  V30 5093 H 495.969 5.28368 1.59784 0
M  V30 5094 H 498.445 3.48128 2.27917 0
M  V30 5095 H 497.321 4.33402 3.36829 0
M  V30 5096 H 497.582 2.60864 3.56934 0
M  V30 5097 N 496.642 -0.504142 1.49319 0
M  V30 5098 C 497.572 -1.61473 1.68667 0
M  V30 5099 C 498.553 -1.61455 0.535378 0
M  V30 5100 O 499.738 -1.78245 0.770868 0
M  V30 5101 C 496.868 -2.99971 1.75028 0
M  V30 5102 C 495.822 -3.14854 2.89916 0
M  V30 5103 C 495.148 -4.54671 2.81387 0
M  V30 5104 C 496.448 -2.95176 4.30893 0
M  V30 5105 H 498.142 -1.45535 2.61648 0
M  V30 5106 H 495.688 -0.698711 1.25913 0
M  V30 5107 H 497.641 -3.77562 1.8715 0
M  V30 5108 H 496.365 -3.1699 0.786441 0
M  V30 5109 H 495.024 -2.39687 2.77391 0
M  V30 5110 H 494.672 -4.68562 1.82917 0
M  V30 5111 H 494.372 -4.6557 3.58494 0
M  V30 5112 H 495.896 -5.34327 2.95512 0
M  V30 5113 H 497.31 -3.62538 4.44116 0
M  V30 5114 H 495.707 -3.17549 5.09198 0
M  V30 5115 H 496.777 -1.91332 4.45556 0
M  V30 5116 N 498.12 -1.38341 -0.754957 0
M  V30 5117 C 499.397 -1.24995 -1.50451 0
M  V30 5118 C 499.777 0.149244 -2.10572 0
M  V30 5119 O 499.125 1.15861 -1.96948 0
M  V30 5120 C 499.335 -2.35904 -2.57197 0
M  V30 5121 C 500.683 -2.74262 -3.24138 0
M  V30 5122 O 501.707 -2.35205 -2.67501 0
M  V30 5123 O 500.566 -3.4161 -4.26574 0
M  V30 5124 H 497.66 -0.48872 -0.667144 0
M  V30 5125 H 500.206 -1.50165 -0.790486 0
M  V30 5126 H 498.978 -3.2953 -2.11011 0
M  V30 5127 H 498.601 -2.12291 -3.36182 0
M  V30 5128 N 499.598 0.982988 -1.23187 0
M  V30 5129 C 500.826 1.75921 -1.08901 0
M  V30 5130 C 501.241 1.85341 0.359719 0
M  V30 5131 O 500.598 1.33072 1.24892 0
M  V30 5132 C 500.649 3.18742 -1.70545 0
M  V30 5133 O 500.37 3.09814 -3.09753 0
M  V30 5134 C 501.871 4.1277 -1.61667 0
M  V30 5135 H 499.091 0.552166 -0.381252 0
M  V30 5136 H 501.635 1.23516 -1.62985 0
M  V30 5137 H 499.79 3.68182 -1.20501 0
M  V30 5138 H 500.204 3.99703 -3.39614 0
M  V30 5139 H 501.678 5.10697 -2.09506 0
M  V30 5140 H 502.155 4.3542 -0.575009 0
M  V30 5141 H 502.761 3.69232 -2.11064 0
M  V30 5142 N 501.076 1.04316 1.18135 0
M  V30 5143 C 502.024 0.630175 2.23901 0
M  V30 5144 C 503.018 -0.344254 1.65865 0
M  V30 5145 O 504.224 -0.211273 1.78756 0
M  V30 5146 H 500.599 0.185578 0.728742 0
M  V30 5147 H 502.57 1.53253 2.56039 0
M  V30 5148 C 501.319 0.011666 3.47698 0
M  V30 5149 H 500.642 0.752526 3.92654 0
M  V30 5150 H 502.082 -0.240046 4.2332 0
M  V30 5151 C 500.541 -1.23913 3.13285 0
M  V30 5152 O 501.071 -2.32959 3.27251 0
M  V30 5153 N 499.277 -1.13338 2.67587 0
M  V30 5154 H 498.824 -0.246006 2.56423 0
M  V30 5155 H 498.782 -1.97116 2.44934 0
M  V30 5156 N 502.554 -1.34406 0.822964 0
M  V30 5157 C 503.831 -1.92733 0.333641 0
M  V30 5158 C 504.211 -1.75107 -1.17901 0
M  V30 5159 O 503.559 -1.12983 -1.98613 0
M  V30 5160 C 503.769 -3.40557 0.763023 0
M  V30 5161 C 505.117 -4.17709 0.761879 0
M  V30 5162 O 506.141 -3.49141 0.705606 0
M  V30 5163 O 505 -5.40082 0.835109 0
M  V30 5164 H 502.094 -0.821964 0.0911249 0
M  V30 5165 H 504.64 -1.4338 0.907757 0
M  V30 5166 H 503.412 -3.47187 1.8049 0
M  V30 5167 H 503.035 -3.97259 0.164605 0
M  V30 5168 N 504.032 -0.577932 -1.46621 0
M  V30 5169 C 504.98 0.170882 -2.31971 0
M  V30 5170 C 505.974 0.889086 -1.44193 0
M  V30 5171 O 507.18 0.808017 -1.60845 0
M  V30 5172 H 503.555 0.0739763 -0.748353 0
M  V30 5173 H 505.526 -0.567856 -2.92947 0
M  V30 5174 C 504.275 1.17438 -3.27267 0
M  V30 5175 H 503.598 0.63116 -3.94787 0
M  V30 5176 H 505.038 1.66882 -3.89778 0
M  V30 5177 C 503.497 2.23292 -2.52274 0
M  V30 5178 O 504.027 3.30567 -2.28229 0
M  V30 5179 N 502.233 1.97772 -2.12919 0
M  V30 5180 H 501.78 1.10545 -2.32675 0
M  V30 5181 H 501.738 2.68809 -1.63062 0
M  V30 5182 N 505.51 1.54411 -0.315457 0
M  V30 5183 C 506.921 1.85885 0.174265 0
M  V30 5184 C 507.272 1.23723 1.52273 0
M  V30 5185 O 506.397 0.540246 2.09548 0
M  V30 5186 C 506.992 3.37257 0.322981 0
M  V30 5187 C 505.551 3.68711 0.756922 0
M  V30 5188 C 504.698 2.77013 -0.126195 0
M  V30 5189 H 507.649 1.49374 -0.536007 0
M  V30 5190 H 507.67 3.62539 1.15522 0
M  V30 5191 H 507.182 3.82471 -0.658602 0
M  V30 5192 H 505.283 3.29024 1.74854 0
M  V30 5193 H 505.396 4.75741 0.566291 0
M  V30 5194 H 503.76 2.51588 0.39692 0
M  V30 5195 H 504.543 3.25051 -1.1044 0
M  V30 5196 N 506.988 0.0434614 1.5754 0
M  V30 5197 C 508.399 -0.493343 1.80064 0
M  V30 5198 C 508.75 -1.71388 0.955023 0
M  V30 5199 O 507.875 -2.15736 0.169434 0
M  V30 5200 C 508.47 -0.90179 3.26578 0
M  V30 5201 C 507.029 -1.38362 3.50047 0
M  V30 5202 C 506.176 -0.355129 2.75017 0
M  V30 5203 H 509.127 0.2694 1.56397 0
M  V30 5204 H 509.148 -1.76523 3.37075 0
M  V30 5205 H 508.66 -0.013271 3.88098 0
M  V30 5206 H 506.761 -2.29159 2.93798 0
M  V30 5207 H 506.874 -1.3811 4.58762 0
M  V30 5208 H 505.238 -0.826348 2.40922 0
M  V30 5209 H 506.021 0.525172 3.39259 0
M  V30 5210 N 508.466 -1.55915 -0.229846 0
M  V30 5211 C 509.712 -1.78807 -0.956868 0
M  V30 5212 C 510.045 -0.611687 -1.84315 0
M  V30 5213 O 509.32 0.389398 -1.90562 0
M  V30 5214 C 509.603 -3.11718 -1.80288 0
M  V30 5215 C 509.456 -4.3979 -0.943649 0
M  V30 5216 C 510.775 -3.40999 -2.78222 0
M  V30 5217 H 507.894 -0.6505 -0.346437 0
M  V30 5218 H 510.536 -1.88648 -0.226252 0
M  V30 5219 H 508.686 -3.03459 -2.42579 0
M  V30 5220 H 510.358 -4.60059 -0.338121 0
M  V30 5221 H 508.601 -4.33086 -0.248705 0
M  V30 5222 H 509.272 -5.29208 -1.5698 0
M  V30 5223 H 511.748 -3.49332 -2.26067 0
M  V30 5224 H 510.624 -4.35183 -3.34526 0
M  V30 5225 H 510.885 -2.62754 -3.55546 0
M  V30 5226 N 509.944 0.496216 -1.49584 0
M  V30 5227 C 511.193 1.24668 -1.58558 0
M  V30 5228 C 511.506 1.9359 -0.279703 0
M  V30 5229 O 512.712 2.70365 -0.248048 0
M  V30 5230 C 511.168 2.26388 -2.79779 0
M  V30 5231 C 510.776 1.63384 -4.17145 0
M  V30 5232 C 512.52 3.02233 -2.98086 0
M  V30 5233 C 510.427 2.63243 -5.29582 0
M  V30 5234 H 509.357 0.468995 -0.590389 0
M  V30 5235 H 512.008 0.519985 -1.75978 0
M  V30 5236 H 510.39 3.02241 -2.55863 0
M  V30 5237 H 511.564 0.93491 -4.51216 0
M  V30 5238 H 509.879 0.999121 -4.04236 0
M  V30 5239 H 512.476 3.76919 -3.79257 0
M  V30 5240 H 512.819 3.60132 -2.08831 0
M  V30 5241 H 513.352 2.33495 -3.22063 0
M  V30 5242 H 510.091 2.10119 -6.20911 0
M  V30 5243 H 509.611 3.31363 -4.99959 0
M  V30 5244 H 511.29 3.25575 -5.59115 0
M  V30 5245 N 511.423 1.38739 0.74761 0
M  V30 5246 C 512.371 1.36573 1.88283 0
M  V30 5247 C 513.365 0.250712 1.67534 0
M  V30 5248 O 514.571 0.420073 1.7503 0
M  V30 5249 H 510.946 0.42619 0.619569 0
M  V30 5250 H 512.917 2.32356 1.87226 0
M  V30 5251 C 511.666 1.21361 3.25832 0
M  V30 5252 H 510.989 2.06424 3.42388 0
M  V30 5253 H 512.429 1.23901 4.05493 0
M  V30 5254 C 510.888 -0.0790099 3.36807 0
M  V30 5255 O 511.418 -1.05385 3.8763 0
M  V30 5256 N 509.624 -0.13785 2.90273 0
M  V30 5257 H 509.171 0.656128 2.49104 0
M  V30 5258 H 509.129 -1.00228 2.97996 0
M  V30 5259 N 512.901 -0.976442 1.23707 0
M  V30 5260 C 513.831 -2.08749 1.04624 0
M  V30 5261 C 514.812 -1.70057 -0.0380956 0
M  V30 5262 O 515.997 -1.93782 0.127308 0
M  V30 5263 C 513.127 -3.41335 0.640902 0
M  V30 5264 C 512.081 -3.93947 1.67302 0
M  V30 5265 C 511.407 -5.22774 1.12301 0
M  V30 5266 C 512.707 -4.22769 3.06697 0
M  V30 5267 H 514.401 -2.24972 1.97555 0
M  V30 5268 H 511.947 -1.08108 0.951247 0
M  V30 5269 H 513.9 -4.18489 0.494434 0
M  V30 5270 H 512.624 -3.24988 -0.324099 0
M  V30 5271 H 511.283 -3.18941 1.80755 0
M  V30 5272 H 510.931 -5.0278 0.148877 0
M  V30 5273 H 510.631 -5.58942 1.81267 0
M  V30 5274 H 512.155 -6.02546 0.988479 0
M  V30 5275 H 513.569 -4.90659 2.96524 0
M  V30 5276 H 511.966 -4.70147 3.72937 0
M  V30 5277 H 513.036 -3.29885 3.55392 0
M  V30 5278 N 514.379 -1.04941 -1.1758 0
M  V30 5279 C 515.309 -0.669172 -2.23706 0
M  V30 5280 C 516.29 0.331835 -1.66832 0
M  V30 5281 O 517.475 0.209988 -1.93061 0
M  V30 5282 C 514.605 -0.0404889 -3.47276 0
M  V30 5283 C 513.559 -0.965983 -4.16957 0
M  V30 5284 C 512.885 -0.201312 -5.34321 0
M  V30 5285 C 514.185 -2.28902 -4.69469 0
M  V30 5286 H 515.879 -1.55639 -2.55767 0
M  V30 5287 H 513.425 -0.749793 -1.22939 0
M  V30 5288 H 515.378 0.237298 -4.20731 0
M  V30 5289 H 514.102 0.881658 -3.14475 0
M  V30 5290 H 512.761 -1.22829 -3.45411 0
M  V30 5291 H 512.409 0.723519 -4.97769 0
M  V30 5292 H 512.109 -0.817968 -5.81879 0
M  V30 5293 H 513.633 0.0692499 -6.10561 0
M  V30 5294 H 515.047 -2.07132 -5.34574 0
M  V30 5295 H 513.444 -2.85942 -5.27596 0
M  V30 5296 H 514.514 -2.92937 -3.86414 0
M  V30 5297 N 515.857 1.33968 -0.830081 0
M  V30 5298 C 517.082 2.02813 -0.433796 0
M  V30 5299 C 517.507 1.62076 0.954614 0
M  V30 5300 O 516.865 0.808955 1.62252 0
M  V30 5301 C 516.913 3.56348 -0.552115 0
M  V30 5302 O 516.017 4.10202 0.425191 0
M  V30 5303 H 515.358 0.639817 -0.177567 0
M  V30 5304 H 517.888 1.7106 -1.12248 0
M  V30 5305 H 517.898 4.05722 -0.430513 0
M  V30 5306 H 516.573 3.85344 -1.56471 0
M  V30 5307 H 515.15 3.71979 0.261878 0
M  V30 5308 N 517.335 0.585699 1.46312 0
M  V30 5309 C 518.581 0.0725284 2.0267 0
M  V30 5310 C 518.914 -1.28523 1.45586 0
M  V30 5311 O 518.189 -1.84283 0.622101 0
M  V30 5312 C 518.472 0.0099788 3.60099 0
M  V30 5313 C 518.325 1.39685 4.27561 0
M  V30 5314 C 519.644 -0.689117 4.34671 0
M  V30 5315 H 516.763 0.0278307 0.736474 0
M  V30 5316 H 519.405 0.753472 1.74421 0
M  V30 5317 H 517.555 -0.56992 3.84297 0
M  V30 5318 H 519.227 2.02215 4.14617 0
M  V30 5319 H 517.47 1.96374 3.86807 0
M  V30 5320 H 518.141 1.30553 5.36339 0
M  V30 5321 H 520.617 -0.196446 4.15636 0
M  V30 5322 H 519.493 -0.701921 5.44393 0
M  V30 5323 H 519.754 -1.75101 4.05946 0
M  V30 5324 N 518.813 -1.54241 0.323641 0
M  V30 5325 C 519.761 -2.25813 -0.557804 0
M  V30 5326 C 520.755 -1.27225 -1.11849 0
M  V30 5327 O 521.961 -1.45001 -1.06652 0
M  V30 5328 H 518.336 -0.72532 -0.198532 0
M  V30 5329 H 520.307 -2.98322 0.0681112 0
M  V30 5330 C 519.056 -3.02913 -1.70701 0
M  V30 5331 H 518.379 -3.78593 -1.28482 0
M  V30 5332 H 519.819 -3.56238 -2.29935 0
M  V30 5333 C 518.278 -2.11217 -2.62467 0
M  V30 5334 O 518.808 -1.69508 -3.64184 0
M  V30 5335 N 517.014 -1.76704 -2.30703 0
M  V30 5336 H 516.561 -2.1082 -1.48029 0
M  V30 5337 H 516.519 -1.15631 -2.92364 0
M  V30 5338 N 520.291 -0.0518155 -1.57515 0
M  V30 5339 C 521.516 0.634896 -1.97443 0
M  V30 5340 C 521.941 1.63546 -0.929207 0
M  V30 5341 O 521.299 1.80981 0.107484 0
M  V30 5342 C 521.347 1.29765 -3.36442 0
M  V30 5343 O 520.451 2.41333 -3.34413 0
M  V30 5344 H 519.792 0.164994 -0.643174 0
M  V30 5345 H 522.322 -0.120407 -2.04245 0
M  V30 5346 H 522.332 1.64918 -3.73184 0
M  V30 5347 H 521.007 0.564361 -4.12053 0
M  V30 5348 H 519.584 2.08122 -3.09418 0
M  V30 5349 N 521.769 1.56035 0.221574 0
M  V30 5350 C 522.679 1.95581 1.29558 0
M  V30 5351 C 523.695 0.859639 1.51282 0
M  V30 5352 O 524.871 1.16321 1.64413 0
M  V30 5353 C 521.936 2.26447 2.62531 0
M  V30 5354 C 520.997 3.49632 2.4911 0
M  V30 5355 C 520.23 3.79017 3.75742 0
M  V30 5356 O 520.453 3.10077 4.78757 0
M  V30 5357 O 519.387 4.72507 3.72855 0
M  V30 5358 H 523.213 2.8711 0.990035 0
M  V30 5359 H 520.798 1.43244 0.424434 0
M  V30 5360 H 522.68 2.47494 3.41064 0
M  V30 5361 H 521.355 1.38092 2.92766 0
M  V30 5362 H 520.262 3.33864 1.68777 0
M  V30 5363 H 521.595 4.3837 2.23814 0
M  V30 5364 N 523.247 -0.488276 1.49845 0
M  V30 5365 C 524.177 -1.59675 1.70371 0
M  V30 5366 C 525.158 -1.60878 0.552473 0
M  V30 5367 O 526.343 -1.77417 0.78973 0
M  V30 5368 C 523.473 -2.98098 1.782 0
M  V30 5369 C 522.427 -3.11761 2.93239 0
M  V30 5370 C 521.753 -4.51661 2.86193 0
M  V30 5371 C 523.053 -2.90589 4.33999 0
M  V30 5372 H 524.747 -1.42752 2.63177 0
M  V30 5373 H 522.293 -0.685317 1.26647 0
M  V30 5374 H 524.246 -3.75555 1.91144 0
M  V30 5375 H 522.97 -3.16138 0.820018 0
M  V30 5376 H 521.629 -2.36732 2.79917 0
M  V30 5377 H 521.277 -4.66595 1.87877 0
M  V30 5378 H 520.977 -4.61742 3.63412 0
M  V30 5379 H 522.501 -5.31162 3.01163 0
M  V30 5380 H 523.915 -3.57807 4.47936 0
M  V30 5381 H 522.312 -3.1213 5.12538 0
M  V30 5382 H 523.382 -1.86595 4.4756 0
M  V30 5383 N 524.725 -1.39134 -0.740242 0
M  V30 5384 C 525.971 -1.36273 -1.50192 0
M  V30 5385 C 526.304 0.0430136 -1.94152 0
M  V30 5386 O 525.579 1.00691 -1.66408 0
M  V30 5387 C 525.862 -2.33041 -2.74525 0
M  V30 5388 C 525.715 -3.82535 -2.36617 0
M  V30 5389 C 527.034 -2.27723 -3.76604 0
M  V30 5390 H 524.153 -0.496323 -0.544823 0
M  V30 5391 H 526.795 -1.70085 -0.846815 0
M  V30 5392 H 524.945 -2.04337 -3.30422 0
M  V30 5393 H 526.617 -4.21967 -1.86391 0
M  V30 5394 H 524.86 -3.99565 -1.68909 0
M  V30 5395 H 525.531 -4.45723 -3.2563 0
M  V30 5396 H 528.007 -2.53091 -3.30279 0
M  V30 5397 H 526.883 -2.97519 -4.61274 0
M  V30 5398 H 527.144 -1.28049 -4.2315 0
M  V30 5399 N 526.204 0.969867 -1.24223 0
M  V30 5400 C 527.114 2.09806 -1.0497 0
M  V30 5401 C 528.13 1.73998 0.00886455 0
M  V30 5402 O 529.306 2.00513 -0.188848 0
M  V30 5403 C 526.371 3.40467 -0.654452 0
M  V30 5404 C 525.432 3.90236 -1.78926 0
M  V30 5405 C 524.665 5.14662 -1.41277 0
M  V30 5406 O 524.888 5.69602 -0.301632 0
M  V30 5407 O 523.822 5.58761 -2.23763 0
M  V30 5408 H 527.648 2.28942 -1.99548 0
M  V30 5409 H 525.233 1.08197 -1.03023 0
M  V30 5410 H 527.115 4.19039 -0.445452 0
M  V30 5411 H 525.79 3.22636 0.262216 0
M  V30 5412 H 524.697 3.12735 -2.05299 0
M  V30 5413 H 526.03 4.1254 -2.68462 0
M  V30 5414 N 527.682 1.05563 1.17022 0
M  V30 5415 C 528.928 0.769074 1.87652 0
M  V30 5416 C 529.261 -0.702326 1.81055 0
M  V30 5417 O 528.536 -1.5139 1.22112 0
M  V30 5418 C 528.819 1.25492 3.37526 0
M  V30 5419 C 528.672 2.78953 3.52853 0
M  V30 5420 C 529.991 0.856919 4.31677 0
M  V30 5421 H 527.11 0.280854 0.681388 0
M  V30 5422 H 529.752 1.31027 1.37593 0
M  V30 5423 H 527.902 0.794516 3.80289 0
M  V30 5424 H 529.574 3.33146 3.19079 0
M  V30 5425 H 527.817 3.18046 2.95007 0
M  V30 5426 H 528.488 3.08011 4.58076 0
M  V30 5427 H 530.964 1.25334 3.96775 0
M  V30 5428 H 529.84 1.22443 5.35069 0
M  V30 5429 H 530.101 -0.238787 4.41455 0
M  V30 5430 N 529.16 -1.33526 0.837174 0
M  V30 5431 C 530.385 -2.0258 0.444545 0
M  V30 5432 C 530.81 -1.6258 -0.946006 0
M  V30 5433 O 530.168 -0.817548 -1.6182 0
M  V30 5434 C 530.216 -3.5605 0.571006 0
M  V30 5435 O 529.32 -4.10422 -0.403431 0
M  V30 5436 H 528.661 -0.638866 0.180958 0
M  V30 5437 H 531.191 -1.70462 1.13154 0
M  V30 5438 H 531.201 -4.05488 0.452024 0
M  V30 5439 H 529.876 -3.84509 1.58512 0
M  V30 5440 H 528.453 -3.72113 -0.242147 0
M  V30 5441 N 530.638 -0.59345 -1.46 0
M  V30 5442 C 531.548 0.135817 -2.34207 0
M  V30 5443 C 532.564 0.875008 -1.50398 0
M  V30 5444 O 533.74 0.835778 -1.83239 0
M  V30 5445 C 530.805 1.12977 -3.27776 0
M  V30 5446 C 529.866 0.394081 -4.27487 0
M  V30 5447 C 529.099 1.34068 -5.16586 0
M  V30 5448 O 529.322 2.5778 -5.08828 0
M  V30 5449 O 528.256 0.845426 -5.95933 0
M  V30 5450 H 532.082 -0.588691 -2.9794 0
M  V30 5451 H 529.667 -0.353784 -1.45151 0
M  V30 5452 H 531.549 1.70261 -3.85473 0
M  V30 5453 H 530.224 1.83556 -2.66625 0
M  V30 5454 H 529.131 -0.220869 -3.73447 0
M  V30 5455 H 530.464 -0.270939 -4.91454 0
M  V30 5456 N 532.116 1.54067 -0.331816 0
M  V30 5457 C 533.341 2.05599 0.272705 0
M  V30 5458 C 533.766 1.2059 1.44359 0
M  V30 5459 O 533.124 0.216907 1.79998 0
M  V30 5460 C 533.172 3.54188 0.677021 0
M  V30 5461 O 532.276 3.72082 1.77844 0
M  V30 5462 H 531.617 0.662286 0.0476801 0
M  V30 5463 H 534.147 1.98826 -0.482624 0
M  V30 5464 H 534.157 3.96608 0.957415 0
M  V30 5465 H 532.832 4.15513 -0.179325 0
M  V30 5466 H 531.409 3.41566 1.49622 0
M  V30 5467 N 533.594 0.0601682 1.57485 0
M  V30 5468 C 534.557 -0.896373 2.10945 0
M  V30 5469 C 535.557 -1.23402 1.03095 0
M  V30 5470 O 536.747 -1.16921 1.29132 0
M  V30 5471 C 533.879 -2.20346 2.60116 0
M  V30 5472 H 535.072 -0.432778 2.96761 0
M  V30 5473 H 532.625 -0.188372 1.55161 0
M  V30 5474 H 533.36 -2.71268 1.7772 0
M  V30 5475 H 533.145 -1.9714 3.38937 0
M  V30 5476 H 534.635 -2.88846 3.01592 0
M  V30 5477 N 535.072 -1.5615 -0.213296 0
M  V30 5478 C 536.483 -1.69645 -0.779582 0
M  V30 5479 C 536.834 -0.663615 -1.84636 0
M  V30 5480 O 535.959 0.183633 -2.15619 0
M  V30 5481 C 536.554 -3.07567 -1.42084 0
M  V30 5482 C 535.113 -3.22889 -1.93442 0
M  V30 5483 C 534.26 -2.65581 -0.797612 0
M  V30 5484 H 537.211 -1.58696 0.0114951 0
M  V30 5485 H 537.232 -3.03884 -2.28986 0
M  V30 5486 H 536.744 -3.82716 -0.644187 0
M  V30 5487 H 534.845 -2.52623 -2.73884 0
M  V30 5488 H 534.958 -4.30197 -2.10872 0
M  V30 5489 H 533.322 -2.24278 -1.20712 0
M  V30 5490 H 534.105 -3.43284 -0.033494 0
M  V30 5491 N 536.55 0.480323 -1.50102 0
M  V30 5492 C 537.961 1.06142 -1.53593 0
M  V30 5493 C 538.312 1.93335 -0.334055 0
M  V30 5494 O 537.437 2.09188 0.55403 0
M  V30 5495 C 538.032 1.9317 -2.78336 0
M  V30 5496 C 536.591 2.46405 -2.84538 0
M  V30 5497 C 535.738 1.24521 -2.4777 0
M  V30 5498 H 538.689 0.26333 -1.565 0
M  V30 5499 H 538.71 2.78123 -2.59669 0
M  V30 5500 H 538.222 1.29683 -3.65792 0
M  V30 5501 H 536.323 3.13472 -2.01411 0
M  V30 5502 H 536.436 2.82143 -3.87211 0
M  V30 5503 H 534.8 1.57706 -2.00003 0
M  V30 5504 H 535.583 0.627102 -3.37524 0
M  V30 5505 N 538.028 1.39524 0.732853 0
M  V30 5506 C 539.276 1.36594 1.48951 0
M  V30 5507 C 539.597 -0.0367507 1.94965 0
M  V30 5508 O 538.867 -0.988391 1.69138 0
M  V30 5509 H 537.447 0.502673 0.552566 0
M  V30 5510 H 540.109 1.74411 0.869869 0
M  V30 5511 H 539.205 2.03 2.3706 0
M  V30 5512 N 539.506 -0.963266 1.24736 0
M  V30 5513 C 540.736 -1.73913 1.11524 0
M  V30 5514 C 541.144 -1.86218 -0.334612 0
M  V30 5515 O 540.487 -1.3531 -1.24245 0
M  V30 5516 C 540.549 -3.17501 1.68622 0
M  V30 5517 C 540.213 -3.28655 3.17546 0
M  V30 5518 C 541.21 -3.13637 4.14642 0
M  V30 5519 C 538.895 -3.52753 3.5759 0
M  V30 5520 C 540.889 -3.2255 5.49764 0
M  V30 5521 C 538.576 -3.61303 4.92852 0
M  V30 5522 C 539.574 -3.46214 5.88748 0
M  V30 5523 O 539.262 -3.5443 7.2155 0
M  V30 5524 H 538.994 -0.552057 0.390139 0
M  V30 5525 H 541.548 -1.2177 1.65412 0
M  V30 5526 H 539.778 -3.70969 1.09172 0
M  V30 5527 H 541.467 -3.76914 1.50635 0
M  V30 5528 H 542.233 -2.94899 3.85045 0
M  V30 5529 H 538.112 -3.63561 2.83451 0
M  V30 5530 H 541.656 -3.1069 6.24594 0
M  V30 5531 H 537.553 -3.79556 5.22118 0
M  V30 5532 H 538.321 -3.71116 7.29531 0
M  V30 5533 N 540.985 -1.06182 -1.16461 0
M  V30 5534 C 542.231 -0.779015 -1.87241 0
M  V30 5535 C 542.564 0.692715 -1.81425 0
M  V30 5536 O 541.839 1.5074 -1.22913 0
M  V30 5537 C 542.122 -1.2728 -3.36856 0
M  V30 5538 C 541.975 -2.80821 -3.51368 0
M  V30 5539 C 543.294 -0.879799 -4.31216 0
M  V30 5540 H 540.413 -0.284464 -0.679889 0
M  V30 5541 H 543.055 -1.31755 -1.36896 0
M  V30 5542 H 541.205 -0.814673 -3.79862 0
M  V30 5543 H 542.877 -3.34833 -3.17308 0
M  V30 5544 H 541.12 -3.19606 -2.93316 0
M  V30 5545 H 541.791 -3.10435 -4.56436 0
M  V30 5546 H 544.267 -1.27436 -3.96105 0
M  V30 5547 H 543.143 -1.25278 -5.34412 0
M  V30 5548 H 543.404 0.215372 -4.41575 0
M  V30 5549 N 542.463 1.3308 -0.844243 0
M  V30 5550 C 543.712 1.96868 -0.438833 0
M  V30 5551 C 544.025 1.67599 1.00846 0
M  V30 5552 O 545.231 2.25043 1.51881 0
M  V30 5553 C 543.687 3.5234 -0.73377 0
M  V30 5554 C 543.295 3.90481 -2.1961 0
M  V30 5555 C 545.039 4.22653 -0.395574 0
M  V30 5556 C 542.946 5.38954 -2.43481 0
M  V30 5557 H 541.876 0.736749 -0.160364 0
M  V30 5558 H 544.527 1.51623 -1.03358 0
M  V30 5559 H 542.909 3.95941 -0.068589 0
M  V30 5560 H 544.083 3.57922 -2.90221 0
M  V30 5561 H 542.398 3.33165 -2.4978 0
M  V30 5562 H 544.995 5.31848 -0.551477 0
M  V30 5563 H 545.338 4.11004 0.661921 0
M  V30 5564 H 545.871 3.84601 -1.01621 0
M  V30 5565 H 542.61 5.55612 -3.47816 0
M  V30 5566 H 542.13 5.72954 -1.77437 0
M  V30 5567 H 543.809 6.05907 -2.26905 0
M  V30 5568 N 543.941 0.601185 1.45683 0
M  V30 5569 C 544.904 -0.111398 2.28929 0
M  V30 5570 C 545.904 -0.801246 1.39416 0
M  V30 5571 O 547.094 -0.650383 1.61603 0
M  V30 5572 C 544.226 -1.16773 3.20276 0
M  V30 5573 H 545.419 0.620412 2.93413 0
M  V30 5574 H 542.972 0.359946 1.52099 0
M  V30 5575 H 543.707 -1.93051 2.60579 0
M  V30 5576 H 543.492 -0.677358 3.86205 0
M  V30 5577 H 544.982 -1.66698 3.82886 0
M  V30 5578 N 545.419 -1.53889 0.339982 0
M  V30 5579 C 546.349 -2.27843 -0.510856 0
M  V30 5580 C 547.33 -1.29267 -1.10563 0
M  V30 5581 O 548.515 -1.58104 -1.12768 0
M  V30 5582 C 545.645 -3.04857 -1.66372 0
M  V30 5583 C 544.599 -4.10907 -1.19746 0
M  V30 5584 C 543.925 -4.75855 -2.43857 0
M  V30 5585 C 545.225 -5.21435 -0.300501 0
M  V30 5586 H 546.919 -2.99212 0.106067 0
M  V30 5587 H 544.465 -1.43904 0.0524533 0
M  V30 5588 H 546.418 -3.5533 -2.26537 0
M  V30 5589 H 545.142 -2.31133 -2.30749 0
M  V30 5590 H 543.801 -3.61342 -0.618654 0
M  V30 5591 H 543.449 -3.9873 -3.06633 0
M  V30 5592 H 543.149 -5.47502 -2.13343 0
M  V30 5593 H 544.673 -5.2911 -3.04754 0
M  V30 5594 H 546.087 -5.67565 -0.80889 0
M  V30 5595 H 544.484 -6.00036 -0.0874076 0
M  V30 5596 H 545.554 -4.80328 0.664321 0
M  V30 5597 N 546.897 -0.0685191 -1.57451 0
M  V30 5598 C 548.143 0.602239 -1.93652 0
M  V30 5599 C 548.476 1.6946 -0.948526 0
M  V30 5600 O 547.751 1.94487 0.022782 0
M  V30 5601 C 548.034 1.18223 -3.4014 0
M  V30 5602 C 547.887 0.0967431 -4.49696 0
M  V30 5603 C 549.206 2.08872 -3.87377 0
M  V30 5604 H 546.325 0.217453 -0.70419 0
M  V30 5605 H 548.967 -0.133821 -1.89528 0
M  V30 5606 H 547.117 1.80953 -3.43785 0
M  V30 5607 H 548.789 -0.536155 -4.58174 0
M  V30 5608 H 547.032 -0.573063 -4.29998 0
M  V30 5609 H 547.703 0.542894 -5.49324 0
M  V30 5610 H 550.179 1.56081 -3.85717 0
M  V30 5611 H 549.055 2.46389 -4.90493 0
M  V30 5612 H 549.316 2.99572 -3.25129 0
M  V30 5613 N 548.375 1.56261 0.205012 0
M  V30 5614 C 549.791 1.49623 0.555433 0
M  V30 5615 C 549.991 0.766719 1.86343 0
M  V30 5616 O 549.047 0.313158 2.50551 0
M  V30 5617 C 550.36 2.94253 0.619347 0
M  V30 5618 C 551.908 3.04868 0.708855 0
M  V30 5619 C 552.383 4.50888 0.803969 0
M  V30 5620 N 553.874 4.54999 0.867758 0
M  V30 5621 C 554.609 5.65284 0.96135 0
M  V30 5622 N 554.105 6.85282 1.01786 0
M  V30 5623 N 555.898 5.53174 0.997771 0
M  V30 5624 H 548.049 2.0211 -0.653094 0
M  V30 5625 H 550.312 0.919333 -0.231366 0
M  V30 5626 H 550.018 3.50643 -0.272458 0
M  V30 5627 H 549.892 3.47063 1.47741 0
M  V30 5628 H 552.279 2.48532 1.5911 0
M  V30 5629 H 552.36 2.55199 -0.175205 0
M  V30 5630 H 552.004 5.07846 -0.0738798 0
M  V30 5631 H 551.934 4.98279 1.70369 0
M  V30 5632 H 554.425 3.68588 0.833735 0
M  V30 5633 H 554.738 7.65081 1.08951 0
M  V30 5634 H 553.083 6.8796 0.986706 0
M  V30 5635 H 556.274 4.5835 0.950392 0
M  V30 5636 H 556.447 6.39151 1.06725 0
M  V30 5637 N 549.853 -0.472356 1.50355 0
M  V30 5638 C 551.099 -1.22634 1.6152 0
M  V30 5639 C 551.432 -1.91645 0.313995 0
M  V30 5640 O 550.707 -1.82059 -0.684446 0
M  V30 5641 C 550.99 -2.27099 2.7946 0
M  V30 5642 C 550.843 -1.62402 4.19459 0
M  V30 5643 C 552.162 -3.28421 2.92964 0
M  V30 5644 H 549.281 -0.444494 0.587873 0
M  V30 5645 H 551.923 -0.520321 1.82737 0
M  V30 5646 H 550.073 -2.87314 2.61501 0
M  V30 5647 H 551.745 -1.05793 4.49005 0
M  V30 5648 H 549.988 -0.927184 4.23776 0
M  V30 5649 H 550.659 -2.38309 4.97909 0
M  V30 5650 H 553.135 -2.78227 3.09401 0
M  V30 5651 H 552.011 -3.98845 3.77113 0
M  V30 5652 H 552.272 -3.92467 2.03525 0
M  V30 5653 N 551.331 -1.39911 -0.725443 0
M  V30 5654 C 552.556 -1.41137 -1.5197 0
M  V30 5655 C 552.981 -0.010262 -1.88097 0
M  V30 5656 O 552.339 0.979184 -1.52583 0
M  V30 5657 C 552.387 -2.2994 -2.77777 0
M  V30 5658 O 551.491 -1.73586 -3.74088 0
M  V30 5659 H 550.832 -0.480219 -0.458569 0
M  V30 5660 H 553.362 -1.84023 -0.894249 0
M  V30 5661 H 553.372 -2.44785 -3.26411 0
M  V30 5662 H 552.047 -3.31759 -2.50816 0
M  V30 5663 H 550.624 -1.68035 -3.32894 0
M  V30 5664 N 552.809 0.956637 -1.25245 0
M  V30 5665 C 554.086 1.67716 -1.00651 0
M  V30 5666 C 554.466 2.0585 0.467866 0
M  V30 5667 O 553.814 1.77029 1.44475 0
M  V30 5668 C 554.024 2.90093 -1.94028 0
M  V30 5669 C 555.372 3.6209 -2.21756 0
M  V30 5670 O 556.396 3.00171 -1.9177 0
M  V30 5671 O 555.255 4.7358 -2.72735 0
M  V30 5672 H 552.349 0.733731 -0.381533 0
M  V30 5673 H 554.895 1.00974 -1.3639 0
M  V30 5674 H 553.667 2.58689 -2.93591 0
M  V30 5675 H 553.29 3.64566 -1.58674 0
M  V30 5676 N 554.287 1.06798 1.15896 0
M  V30 5677 C 555.703 0.792423 1.38538 0
M  V30 5678 C 555.903 -0.60592 1.92174 0
M  V30 5679 O 554.959 -1.36561 2.12385 0
M  V30 5680 C 556.272 1.86157 2.36149 0
M  V30 5681 C 557.82 1.88567 2.49823 0
M  V30 5682 C 558.295 2.9455 3.5072 0
M  V30 5683 N 559.786 2.93616 3.58251 0
M  V30 5684 C 560.521 3.72267 4.36125 0
M  V30 5685 N 560.017 4.60751 5.17379 0
M  V30 5686 N 561.81 3.60637 4.31158 0
M  V30 5687 H 553.961 1.96993 0.794198 0
M  V30 5688 H 556.224 0.853942 0.411688 0
M  V30 5689 H 555.93 2.86603 2.03843 0
M  V30 5690 H 555.804 1.71692 3.3586 0
M  V30 5691 H 558.191 0.887765 2.8143 0
M  V30 5692 H 558.272 2.0711 1.5013 0
M  V30 5693 H 557.916 3.94537 3.19849 0
M  V30 5694 H 557.846 2.73255 4.50155 0
M  V30 5695 H 560.337 2.29472 3.00252 0
M  V30 5696 H 560.65 5.17408 5.74028 0
M  V30 5697 H 558.995 4.64803 5.16704 0
M  V30 5698 H 562.186 2.90892 3.66742 0
M  V30 5699 H 562.359 4.22176 4.91601 0
M  V30 5700 N 555.766 -1.3263 0.851289 0
M  V30 5701 C 557.043 -1.91982 0.374448 0
M  V30 5702 C 557.423 -1.77568 -1.14161 0
M  V30 5703 O 556.771 -1.1717 -1.96172 0
M  V30 5704 C 556.981 -3.38862 0.835088 0
M  V30 5705 C 558.329 -4.15999 0.850309 0
M  V30 5706 O 559.353 -3.47566 0.779505 0
M  V30 5707 O 558.212 -5.38189 0.949481 0
M  V30 5708 H 555.306 -0.819846 0.10854 0
M  V30 5709 H 557.852 -1.41422 0.937966 0
M  V30 5710 H 556.624 -3.43281 1.87814 0
M  V30 5711 H 556.247 -3.96821 0.248833 0
M  V30 5712 N 557.244 -0.608902 -1.45362 0
M  V30 5713 C 558.469 -0.10921 -2.07112 0
M  V30 5714 C 558.894 1.19779 -1.45033 0
M  V30 5715 O 558.252 1.72961 -0.543527 0
M  V30 5716 C 558.3 0.0155745 -3.60597 0
M  V30 5717 O 557.404 1.06546 -3.98399 0
M  V30 5718 H 556.745 -0.0746619 -0.659789 0
M  V30 5719 H 559.275 -0.839283 -1.86594 0
M  V30 5720 H 559.285 0.213364 -4.07442 0
M  V30 5721 H 557.96 -0.938765 -4.05167 0
M  V30 5722 H 556.537 0.844024 -3.63223 0
M  V30 5723 N 558.722 1.53707 -0.348139 0
M  V30 5724 C 559.97 2.00591 0.246478 0
M  V30 5725 C 560.291 1.23753 1.50699 0
M  V30 5726 O 559.561 0.345964 1.92821 0
M  V30 5727 H 558.141 0.741053 0.0940679 0
M  V30 5728 H 560.803 1.89139 -0.470354 0
M  V30 5729 H 559.899 3.08297 0.485714 0
M  V30 5730 N 560.2 0.0768682 1.57412 0
M  V30 5731 C 561.13 -0.886026 2.16037 0
M  V30 5732 C 562.111 -1.30691 1.08876 0
M  V30 5733 O 563.296 -1.37705 1.36934 0
M  V30 5734 C 560.426 -2.1518 2.72608 0
M  V30 5735 C 559.38 -1.87015 3.8498 0
M  V30 5736 C 558.706 -3.20266 4.28175 0
M  V30 5737 C 560.006 -1.17143 5.08994 0
M  V30 5738 H 561.7 -0.397642 2.96748 0
M  V30 5739 H 559.246 -0.189823 1.42743 0
M  V30 5740 H 561.199 -2.82962 3.12266 0
M  V30 5741 H 559.923 -2.66269 1.89125 0
M  V30 5742 H 558.582 -1.21636 3.45833 0
M  V30 5743 H 558.23 -3.69207 3.41607 0
M  V30 5744 H 557.93 -3.0221 5.03927 0
M  V30 5745 H 559.454 -3.89237 4.70454 0
M  V30 5746 H 560.868 -1.75003 5.45937 0
M  V30 5747 H 559.265 -1.09328 5.90057 0
M  V30 5748 H 560.335 -0.151295 4.84664 0
M  V30 5749 N 561.678 -1.56367 -0.196722 0
M  V30 5750 C 562.626 -1.95304 -1.2633 0
M  V30 5751 C 563.62 -0.838252 -1.47206 0
M  V30 5752 O 564.826 -1.02325 -1.48087 0
M  V30 5753 H 561.201 -0.621013 -0.424083 0
M  V30 5754 H 563.172 -2.84254 -0.907879 0
M  V30 5755 C 561.921 -2.3074 -2.60104 0
M  V30 5756 H 561.244 -3.16047 -2.44856 0
M  V30 5757 H 562.684 -2.61849 -3.33484 0
M  V30 5758 C 561.143 -1.14143 -3.16975 0
M  V30 5759 O 561.673 -0.415602 -3.99544 0
M  V30 5760 N 559.879 -0.91867 -2.75697 0
M  V30 5761 H 559.426 -1.51065 -2.08656 0
M  V30 5762 H 559.384 -0.140321 -3.14087 0
M  V30 5763 N 563.156 0.464375 -1.50603 0
M  V30 5764 C 564.404 1.21356 -1.61608 0
M  V30 5765 C 564.725 1.92329 -0.321643 0
M  V30 5766 O 563.995 1.84403 0.661232 0
M  V30 5767 H 562.575 0.45094 -0.595535 0
M  V30 5768 H 565.237 0.535046 -1.87412 0
M  V30 5769 H 564.333 1.95783 -2.43054 0
M  V30 5770 N 564.634 1.40294 0.718013 0
M  V30 5771 C 566.05 1.2227 1.02577 0
M  V30 5772 C 566.25 0.0961976 2.0127 0
M  V30 5773 O 565.306 -0.546695 2.46511 0
M  V30 5774 C 566.619 2.56348 1.57182 0
M  V30 5775 C 568.167 2.6334 1.69178 0
M  V30 5776 C 568.642 3.9768 2.27188 0
M  V30 5777 N 570.133 3.99409 2.34578 0
M  V30 5778 C 570.868 5.00141 2.8044 0
M  V30 5779 N 570.364 6.11268 3.26073 0
M  V30 5780 N 572.157 4.87511 2.79802 0
M  V30 5781 H 564.308 2.12304 0.0637899 0
M  V30 5782 H 566.571 0.943632 0.0909036 0
M  V30 5783 H 566.277 3.3942 0.921262 0
M  V30 5784 H 566.151 2.77266 2.55741 0
M  V30 5785 H 568.538 1.80641 2.33351 0
M  V30 5786 H 568.619 2.46255 0.692247 0
M  V30 5787 H 568.263 4.80817 1.63638 0
M  V30 5788 H 568.193 4.12093 3.27852 0
M  V30 5789 H 570.684 3.19162 2.02346 0
M  V30 5790 H 570.997 6.84023 3.59628 0
M  V30 5791 H 569.342 6.14837 3.24038 0
M  V30 5792 H 572.533 3.9979 2.43487 0
M  V30 5793 H 572.706 5.66158 3.15228 0
M  V30 5794 N 566.112 -0.949982 1.2575 0
M  V30 5795 C 567.358 -1.69766 1.10938 0
M  V30 5796 C 567.691 -1.91056 -0.348028 0
M  V30 5797 O 566.966 -1.48488 -1.25625 0
M  V30 5798 C 567.249 -3.07779 1.86933 0
M  V30 5799 C 567.102 -2.9387 3.4053 0
M  V30 5800 C 568.421 -4.07749 1.65616 0
M  V30 5801 H 565.54 -0.616144 0.404396 0
M  V30 5802 H 568.182 -1.10394 1.54639 0
M  V30 5803 H 566.332 -3.58462 1.4979 0
M  V30 5804 H 568.004 -2.50476 3.87375 0
M  V30 5805 H 566.247 -2.29686 3.68004 0
M  V30 5806 H 566.918 -3.91719 3.88922 0
M  V30 5807 H 569.394 -3.65994 1.97959 0
M  V30 5808 H 568.27 -5.02348 2.21218 0
M  V30 5809 H 568.531 -4.38029 0.598595 0
M  V30 5810 N 567.59 -1.07411 -1.15328 0
M  V30 5811 C 568.522 -0.652924 -2.19703 0
M  V30 5812 C 569.535 0.294869 -1.60107 0
M  V30 5813 O 570.724 0.0840932 -1.78302 0
M  V30 5814 C 567.824 0.061434 -3.38844 0
M  V30 5815 C 566.997 -0.902696 -4.27984 0
M  V30 5816 C 566.056 -0.225521 -5.25717 0
M  V30 5817 O 565.082 -0.86676 -5.62562 0
M  V30 5818 N 566.284 1.02858 -5.71315 0
M  V30 5819 H 569.049 -1.55081 -2.56457 0
M  V30 5820 H 566.61 -0.958883 -1.30449 0
M  V30 5821 H 568.602 0.525145 -4.01278 0
M  V30 5822 H 567.172 0.861269 -3.00501 0
M  V30 5823 H 566.392 -1.54551 -3.6264 0
M  V30 5824 H 567.68 -1.55636 -4.84412 0
M  V30 5825 H 567.078 1.56948 -5.43492 0
M  V30 5826 H 565.635 1.43596 -6.35786 0
M  V30 5827 N 569.068 1.32177 -0.85831 0
M  V30 5828 C 570.308 1.98927 -0.469822 0
M  V30 5829 C 570.672 1.66423 0.95746 0
M  V30 5830 O 571.873 2.26293 1.45069 0
M  V30 5831 C 570.144 3.50352 -0.706288 0
M  V30 5832 S 571.703 4.36824 -0.415918 0
M  V30 5833 H 568.521 0.688909 -0.175855 0
M  V30 5834 H 571.123 1.60807 -1.11181 0
M  V30 5835 H 569.827 3.71497 -1.74407 0
M  V30 5836 H 569.358 3.93367 -0.0508568 0
M  V30 5837 H 571.373 4.90398 0.756581 0
M  V30 5838 N 570.547 0.616602 1.45037 0
M  V30 5839 C 571.963 0.280994 1.57107 0
M  V30 5840 C 572.163 -1.21627 1.60653 0
M  V30 5841 O 571.219 -1.9997 1.54169 0
M  V30 5842 C 572.532 0.960116 2.8496 0
M  V30 5843 C 574.08 0.936884 2.98649 0
M  V30 5844 C 574.555 1.59619 4.29285 0
M  V30 5845 N 576.046 1.5621 4.36065 0
M  V30 5846 C 576.781 2.04131 5.35834 0
M  V30 5847 N 576.277 2.60177 6.4209 0
M  V30 5848 N 578.07 1.94845 5.27249 0
M  V30 5849 H 570.221 1.58867 1.40979 0
M  V30 5850 H 572.484 0.666024 0.674623 0
M  V30 5851 H 572.19 2.01473 2.88273 0
M  V30 5852 H 572.064 0.488921 3.74018 0
M  V30 5853 H 574.451 -0.109209 2.94898 0
M  V30 5854 H 574.532 1.44643 2.10979 0
M  V30 5855 H 574.176 2.64166 4.33796 0
M  V30 5856 H 574.106 1.06159 5.15789 0
M  V30 5857 H 576.597 1.15276 3.59889 0
M  V30 5858 H 576.91 2.94513 7.1448 0
M  V30 5859 H 575.255 2.64221 6.42816 0
M  V30 5860 H 578.446 1.50792 4.43147 0
M  V30 5861 H 578.619 2.32504 6.04852 0
M  V30 5862 N 572.025 -1.5352 0.356285 0
M  V30 5863 C 572.955 -2.28372 -0.486661 0
M  V30 5864 C 573.936 -1.30432 -1.09185 0
M  V30 5865 O 575.121 -1.59291 -1.11085 0
M  V30 5866 C 572.251 -3.06604 -1.63129 0
M  V30 5867 C 571.205 -4.12154 -1.15381 0
M  V30 5868 C 570.531 -4.78415 -2.38796 0
M  V30 5869 C 571.831 -5.21724 -0.245179 0
M  V30 5870 H 573.525 -2.99083 0.137797 0
M  V30 5871 H 571.071 -1.43841 0.0677134 0
M  V30 5872 H 573.024 -3.57712 -2.22755 0
M  V30 5873 H 571.748 -2.33568 -2.28284 0
M  V30 5874 H 570.407 -3.61978 -0.580294 0
M  V30 5875 H 570.055 -4.01959 -3.02387 0
M  V30 5876 H 569.755 -5.49734 -2.07524 0
M  V30 5877 H 571.279 -5.32313 -2.99125 0
M  V30 5878 H 572.693 -5.68391 -0.748646 0
M  V30 5879 H 571.09 -6.00095 -0.0237608 0
M  V30 5880 H 572.16 -4.79596 0.715229 0
M  V30 5881 N 573.503 -0.0852151 -1.57369 0
M  V30 5882 C 574.433 0.874556 -2.16503 0
M  V30 5883 C 575.414 1.30111 -1.09568 0
M  V30 5884 O 576.599 1.36977 -1.37662 0
M  V30 5885 C 573.729 2.13731 -2.73745 0
M  V30 5886 C 572.683 1.84971 -3.85966 0
M  V30 5887 C 572.009 3.17991 -4.29867 0
M  V30 5888 C 573.309 1.14442 -5.09608 0
M  V30 5889 H 575.003 0.381899 -2.96954 0
M  V30 5890 H 572.549 0.18225 -1.42842 0
M  V30 5891 H 574.502 2.81302 -3.13763 0
M  V30 5892 H 573.226 2.65263 -1.90534 0
M  V30 5893 H 571.885 1.19801 -3.46473 0
M  V30 5894 H 571.533 3.6739 -3.4356 0
M  V30 5895 H 571.233 2.99534 -5.05523 0
M  V30 5896 H 572.757 3.86737 -4.72511 0
M  V30 5897 H 574.171 1.72105 -5.46857 0
M  V30 5898 H 572.568 1.06197 -5.90629 0
M  V30 5899 H 573.638 0.12559 -4.84737 0
M  V30 5900 N 574.981 1.5647 0.188427 0
M  V30 5901 C 576.229 1.80655 0.905986 0
M  V30 5902 C 576.55 0.659391 1.83513 0
M  V30 5903 O 575.82 -0.321868 1.93238 0
M  V30 5904 H 574.4 0.666391 0.337538 0
M  V30 5905 H 577.062 1.93949 0.192339 0
M  V30 5906 H 576.158 2.74066 1.49313 0
M  V30 5907 N 576.459 -0.456382 1.50847 0
M  V30 5908 C 577.407 -1.57318 1.71329 0
M  V30 5909 C 578.401 -1.59187 0.579287 0
M  V30 5910 O 579.607 -1.6316 0.76018 0
M  V30 5911 H 575.982 -0.5223 0.541024 0
M  V30 5912 H 577.953 -1.3721 2.64983 0
M  V30 5913 C 576.702 -2.95142 1.83811 0
M  V30 5914 H 576.025 -2.94428 2.70467 0
M  V30 5915 H 577.465 -3.72702 2.02161 0
M  V30 5916 C 575.924 -3.31636 0.593224 0
M  V30 5917 O 576.454 -4.00852 -0.260898 0
M  V30 5918 N 574.66 -2.87205 0.442902 0
M  V30 5919 H 574.207 -2.31051 1.13901 0
M  V30 5920 H 574.165 -3.11986 -0.38884 0
M  V30 5921 N 577.937 -1.40673 -0.710563 0
M  V30 5922 C 579.183 -1.39428 -1.47267 0
M  V30 5923 C 579.516 0.00182129 -1.942 0
M  V30 5924 O 578.791 0.971387 -1.68506 0
M  V30 5925 C 579.074 -2.38812 -2.6952 0
M  V30 5926 C 578.927 -3.87467 -2.28449 0
M  V30 5927 C 580.246 -2.3566 -3.71689 0
M  V30 5928 H 577.365 -0.507768 -0.534173 0
M  V30 5929 H 580.007 -1.71843 -0.810547 0
M  V30 5930 H 578.157 -2.113 -3.26013 0
M  V30 5931 H 579.829 -4.25825 -1.77399 0
M  V30 5932 H 578.072 -4.03058 -1.60395 0
M  V30 5933 H 578.743 -4.5253 -3.16103 0
M  V30 5934 H 581.219 -2.6004 -3.24836 0
M  V30 5935 H 580.095 -3.07237 -4.54859 0
M  V30 5936 H 580.356 -1.36996 -4.20339 0
M  V30 5937 N 579.415 0.9433 -1.26252 0
M  V30 5938 C 580.826 1.50404 -1.10614 0
M  V30 5939 C 581.177 1.93666 0.31429 0
M  V30 5940 O 580.302 1.79709 1.20555 0
M  V30 5941 C 580.897 2.73336 -2.00182 0
M  V30 5942 C 579.456 3.25686 -1.88695 0
M  V30 5943 C 578.603 1.98474 -1.93658 0
M  V30 5944 H 581.554 0.759006 -1.39373 0
M  V30 5945 H 581.575 3.47567 -1.54847 0
M  V30 5946 H 581.087 2.41818 -3.03555 0
M  V30 5947 H 579.188 3.61998 -0.882489 0
M  V30 5948 H 579.301 3.92935 -2.74115 0
M  V30 5949 H 577.665 2.14278 -1.37684 0
M  V30 5950 H 578.448 1.6929 -2.98657 0
M  V30 5951 N 580.893 1.08022 1.14757 0
M  V30 5952 C 582.14 0.807509 1.85703 0
M  V30 5953 C 582.468 -0.666617 1.8272 0
M  V30 5954 O 581.723 -1.50562 1.25018 0
M  V30 5955 C 582.022 1.26964 3.34088 0
M  V30 5956 C 581.688 2.7509 3.57262 0
M  V30 5957 C 580.35 3.15547 3.63296 0
M  V30 5958 C 582.702 3.70667 3.66409 0
M  V30 5959 C 580.03 4.50384 3.75994 0
M  V30 5960 C 582.382 5.05274 3.80632 0
M  V30 5961 C 581.046 5.45342 3.84913 0
M  V30 5962 H 580.316 0.295488 0.679535 0
M  V30 5963 H 582.963 1.35245 1.35577 0
M  V30 5964 H 581.268 0.644216 3.86467 0
M  V30 5965 H 582.965 1.03544 3.87401 0
M  V30 5966 H 579.555 2.42775 3.53212 0
M  V30 5967 H 583.739 3.40533 3.61041 0
M  V30 5968 H 578.995 4.80886 3.77569 0
M  V30 5969 H 583.169 5.79201 3.86652 0
M  V30 5970 H 580.796 6.49823 3.94505 0
M  V30 5971 N 582.371 -1.3172 0.865308 0
M  V30 5972 C 583.787 -1.4958 0.556596 0
M  V30 5973 C 583.987 -1.79763 -0.910353 0
M  V30 5974 O 583.043 -1.87351 -1.6928 0
M  V30 5975 C 584.356 -2.63277 1.45279 0
M  V30 5976 C 585.904 -2.77161 1.45433 0
M  V30 5977 C 586.379 -3.93949 2.33598 0
M  V30 5978 N 587.87 -4.01228 2.31453 0
M  V30 5979 C 588.605 -4.90855 2.96393 0
M  V30 5980 N 588.101 -5.85416 3.70486 0
M  V30 5981 N 589.894 -4.84063 2.85726 0
M  V30 5982 H 582.045 -1.10396 1.81456 0
M  V30 5983 H 584.308 -0.54507 0.775631 0
M  V30 5984 H 584.014 -2.47734 2.49641 0
M  V30 5985 H 583.888 -3.59309 1.14792 0
M  V30 5986 H 586.275 -2.9212 0.41831 0
M  V30 5987 H 586.356 -1.8181 1.79941 0
M  V30 5988 H 586 -3.79748 3.37274 0
M  V30 5989 H 585.93 -4.88598 1.96417 0
M  V30 5990 H 588.421 -3.3357 1.77593 0
M  V30 5991 H 588.734 -6.50525 4.17178 0
M  V30 5992 H 587.079 -5.85409 3.74594 0
M  V30 5993 H 590.27 -4.09163 2.27384 0
M  V30 5994 H 590.443 -5.53708 3.36617 0
M  V30 5995 N 583.85 -0.624285 -1.44708 0
M  V30 5996 C 584.779 0.0717025 -2.3339 0
M  V30 5997 C 585.76 0.841814 -1.47809 0
M  V30 5998 O 586.946 0.809056 -1.76544 0
M  V30 5999 C 584.076 1.05852 -3.30776 0
M  V30 6000 C 583.029 0.400503 -4.26122 0
M  V30 6001 C 582.356 1.49674 -5.13324 0
M  V30 6002 C 583.656 -0.688924 -5.17737 0
M  V30 6003 H 585.35 -0.668819 -2.91834 0
M  V30 6004 H 582.896 -0.32308 -1.40329 0
M  V30 6005 H 584.849 1.5541 -3.91696 0
M  V30 6006 H 583.572 1.82984 -2.70526 0
M  V30 6007 H 582.231 -0.0743687 -3.66525 0
M  V30 6008 H 581.88 2.25877 -4.49431 0
M  V30 6009 H 581.58 1.06188 -5.77926 0
M  V30 6010 H 583.104 1.99427 -5.77115 0
M  V30 6011 H 584.518 -0.276724 -5.72632 0
M  V30 6012 H 582.915 -1.04652 -5.90904 0
M  V30 6013 H 583.985 -1.55884 -4.5916 0
M  V30 6014 N 585.328 1.53329 -0.364422 0
M  V30 6015 C 586.26 2.23286 0.517293 0
M  V30 6016 C 587.273 1.24657 1.04711 0
M  V30 6017 O 588.462 1.50887 0.95369 0
M  V30 6018 C 585.562 2.91604 1.72685 0
M  V30 6019 C 584.735 4.1673 1.32873 0
M  V30 6020 C 583.794 4.68269 2.40022 0
M  V30 6021 O 582.82 5.31976 2.02461 0
M  V30 6022 N 584.022 4.45983 3.7159 0
M  V30 6023 H 586.787 2.99588 -0.0819391 0
M  V30 6024 H 584.348 1.60787 -0.189544 0
M  V30 6025 H 586.34 3.22992 2.4384 0
M  V30 6026 H 584.91 2.18763 2.23297 0
M  V30 6027 H 584.13 3.91657 0.447069 0
M  V30 6028 H 585.418 4.98078 1.03902 0
M  V30 6029 H 584.816 3.95077 4.04883 0
M  V30 6030 H 583.373 4.81924 4.38854 0
M  V30 6031 N 586.806 0.0935595 1.57322 0
M  V30 6032 C 587.716 -0.880192 2.17462 0
M  V30 6033 C 588.732 -1.31135 1.14366 0
M  V30 6034 O 589.908 -1.37958 1.46729 0
M  V30 6035 C 586.973 -2.12184 2.74188 0
M  V30 6036 C 586.034 -1.74503 3.92234 0
M  V30 6037 C 585.267 -2.92748 4.46245 0
M  V30 6038 O 585.49 -4.07427 3.99198 0
M  V30 6039 O 584.424 -2.71303 5.37288 0
M  V30 6040 H 588.25 -0.398516 3.01074 0
M  V30 6041 H 585.835 -0.130707 1.48827 0
M  V30 6042 H 587.717 -2.84953 3.10451 0
M  V30 6043 H 586.392 -2.59407 1.93623 0
M  V30 6044 H 585.299 -0.989186 3.60785 0
M  V30 6045 H 586.632 -1.32044 4.74157 0
M  V30 6046 N 588.284 -1.56567 -0.180126 0
M  V30 6047 C 589.514 -1.85349 -0.912647 0
M  V30 6048 C 589.922 -0.675795 -1.76719 0
M  V30 6049 O 589.265 0.3645 -1.80047 0
M  V30 6050 C 589.327 -3.08431 -1.84691 0
M  V30 6051 C 588.991 -4.41694 -1.17284 0
M  V30 6052 C 589.988 -5.17062 -0.542532 0
M  V30 6053 C 587.673 -4.8843 -1.17223 0
M  V30 6054 C 589.667 -6.37351 0.0793953 0
M  V30 6055 C 587.354 -6.08652 -0.54647 0
M  V30 6056 C 588.352 -6.82955 0.0782458 0
M  V30 6057 O 588.04 -8.00897 0.694158 0
M  V30 6058 H 587.772 -0.619286 -0.271036 0
M  V30 6059 H 590.326 -2.0454 -0.187768 0
M  V30 6060 H 588.556 -2.85163 -2.61188 0
M  V30 6061 H 590.245 -3.23733 -2.44851 0
M  V30 6062 H 591.011 -4.8204 -0.535045 0
M  V30 6063 H 586.89 -4.30542 -1.64788 0
M  V30 6064 H 590.434 -6.95287 0.567612 0
M  V30 6065 H 586.331 -6.4314 -0.55151 0
M  V30 6066 H 587.099 -8.16352 0.592537 0
M  V30 6067 N 589.762 0.448376 -1.51087 0
M  V30 6068 C 590.672 1.56882 -1.74428 0
M  V30 6069 C 591.688 1.62268 -0.62809 0
M  V30 6070 O 592.864 1.79716 -0.909075 0
M  V30 6071 C 589.929 2.92947 -1.85426 0
M  V30 6072 C 588.99 2.97766 -3.09247 0
M  V30 6073 C 588.223 4.27341 -3.19711 0
M  V30 6074 O 588.446 5.19112 -2.36387 0
M  V30 6075 O 587.38 4.38219 -4.12611 0
M  V30 6076 H 591.206 1.40104 -2.69452 0
M  V30 6077 H 588.791 0.630247 -1.35456 0
M  V30 6078 H 590.673 3.73719 -1.94709 0
M  V30 6079 H 589.348 3.09876 -0.935887 0
M  V30 6080 H 588.255 2.15989 -3.0545 0
M  V30 6081 H 589.588 2.8578 -4.00738 0
M  V30 6082 N 591.24 1.41047 0.703093 0
M  V30 6083 C 592.465 1.43537 1.49706 0
M  V30 6084 C 592.89 0.0401853 1.88057 0
M  V30 6085 O 592.248 -0.954785 1.54122 0
M  V30 6086 C 592.296 2.3433 2.74084 0
M  V30 6087 O 591.4 1.79515 3.71279 0
M  V30 6088 H 590.741 0.487454 0.450871 0
M  V30 6089 H 593.271 1.85422 0.86486 0
M  V30 6090 H 593.281 2.49947 3.22476 0
M  V30 6091 H 591.956 3.35708 2.45506 0
M  V30 6092 H 590.533 1.7331 3.30179 0
M  V30 6093 N 592.718 -0.936591 1.26751 0
M  V30 6094 C 593.965 -1.68331 1.12566 0
M  V30 6095 C 594.293 -1.91677 -0.330168 0
M  V30 6096 O 593.548 -1.49859 -1.2586 0
M  V30 6097 C 593.847 -3.06099 1.84494 0
M  V30 6098 C 593.513 -3.02493 3.34378 0
M  V30 6099 C 592.175 -3.01217 3.75262 0
M  V30 6100 C 594.527 -2.94453 4.30055 0
M  V30 6101 C 591.855 -2.89672 5.10203 0
M  V30 6102 C 594.207 -2.84449 5.65041 0
M  V30 6103 C 592.871 -2.81518 6.0523 0
M  V30 6104 H 592.141 -0.615965 0.411907 0
M  V30 6105 H 594.788 -1.09292 1.5725 0
M  V30 6106 H 593.093 -3.6879 1.32292 0
M  V30 6107 H 594.79 -3.62733 1.70955 0
M  V30 6108 H 591.38 -3.04269 3.01858 0
M  V30 6109 H 595.564 -2.94544 3.99447 0
M  V30 6110 H 590.82 -2.85783 5.40498 0
M  V30 6111 H 594.994 -2.77192 6.38856 0
M  V30 6112 H 592.621 -2.72329 7.09747 0
M  V30 6113 N 594.196 -1.08629 -1.14182 0
M  V30 6114 C 595.421 -0.83902 -1.89671 0
M  V30 6115 C 595.846 0.603332 -1.78161 0
M  V30 6116 O 595.204 1.42301 -1.12339 0
M  V30 6117 C 595.252 -1.26854 -3.37551 0
M  V30 6118 O 594.356 -0.42188 -4.10236 0
M  V30 6119 H 593.697 -0.304545 -0.590041 0
M  V30 6120 H 596.227 -1.4483 -1.44518 0
M  V30 6121 H 596.237 -1.25038 -3.88368 0
M  V30 6122 H 594.912 -2.31901 -3.45246 0
M  V30 6123 H 593.489 -0.503654 -3.69483 0
M  V30 6124 N 595.674 1.31259 -0.872281 0
M  V30 6125 C 596.902 2.00795 -0.498907 0
M  V30 6126 C 597.317 1.65464 0.909238 0
M  V30 6127 O 596.674 0.885073 1.59602 0
M  V30 6128 C 596.725 3.55625 -0.649092 0
M  V30 6129 O 596.446 3.89692 -2.00179 0
M  V30 6130 C 597.947 4.42434 -0.277034 0
M  V30 6131 H 595.167 0.642299 -0.194145 0
M  V30 6132 H 597.711 1.67438 -1.17408 0
M  V30 6133 H 595.866 3.87394 -0.0214402 0
M  V30 6134 H 596.28 4.84407 -2.01122 0
M  V30 6135 H 597.754 5.50299 -0.433064 0
M  V30 6136 H 598.231 4.32146 0.783989 0
M  V30 6137 H 598.837 4.16086 -0.880483 0
M  V30 6138 N 597.152 0.631951 1.44375 0
M  V30 6139 C 598.401 0.134214 2.01253 0
M  V30 6140 C 598.714 -1.25171 1.50305 0
M  V30 6141 O 599.92 -1.8435 1.99317 0
M  V30 6142 C 598.376 0.189187 3.59402 0
M  V30 6143 C 597.984 1.57647 4.19346 0
M  V30 6144 C 599.728 -0.252044 4.23751 0
M  V30 6145 C 597.635 1.58651 5.69722 0
M  V30 6146 H 596.565 0.0464101 0.75257 0
M  V30 6147 H 599.216 0.790868 1.65582 0
M  V30 6148 H 597.598 -0.534584 3.92375 0
M  V30 6149 H 598.772 2.32389 3.97909 0
M  V30 6150 H 597.087 1.96186 3.67288 0
M  V30 6151 H 599.684 -0.264084 5.34047 0
M  V30 6152 H 600.027 -1.27951 3.96149 0
M  V30 6153 H 600.56 0.41926 3.95584 0
M  V30 6154 H 597.299 2.59237 6.0206 0
M  V30 6155 H 596.819 0.882039 5.93279 0
M  V30 6156 H 598.498 1.32082 6.33375 0
M  V30 6157 N 598.631 -1.53133 0.372548 0
M  V30 6158 C 599.561 -2.28876 -0.462412 0
M  V30 6159 C 600.542 -1.31583 -1.07796 0
M  V30 6160 O 601.727 -1.60461 -1.09389 0
M  V30 6161 C 598.857 -3.08317 -1.59868 0
M  V30 6162 C 597.811 -4.13355 -1.11003 0
M  V30 6163 C 597.137 -4.8092 -2.33708 0
M  V30 6164 C 598.437 -5.21955 -0.18983 0
M  V30 6165 H 600.131 -2.9892 0.169511 0
M  V30 6166 H 597.677 -1.43761 0.0829658 0
M  V30 6167 H 599.63 -3.60055 -2.18949 0
M  V30 6168 H 598.354 -2.35976 -2.25794 0
M  V30 6169 H 597.013 -3.62573 -0.541869 0
M  V30 6170 H 596.661 -4.05144 -2.98106 0
M  V30 6171 H 596.361 -5.51904 -2.01682 0
M  V30 6172 H 597.885 -5.35455 -2.93462 0
M  V30 6173 H 599.299 -5.69153 -0.688319 0
M  V30 6174 H 597.696 -6.00087 0.0398887 0
M  V30 6175 H 598.766 -4.78811 0.766057 0
M  V30 6176 N 600.109 -0.101901 -1.5727 0
M  V30 6177 C 601.355 0.561027 -1.94885 0
M  V30 6178 C 601.688 1.6741 -0.984258 0
M  V30 6179 O 600.963 1.94491 -0.0184767 0
M  V30 6180 C 601.246 1.10982 -3.42571 0
M  V30 6181 C 601.099 0.00133418 -4.498 0
M  V30 6182 C 602.418 2.00608 -3.9172 0
M  V30 6183 H 599.537 0.202467 -0.708644 0
M  V30 6184 H 602.179 -0.173992 -1.89202 0
M  V30 6185 H 600.329 1.73621 -3.47546 0
M  V30 6186 H 602.001 -0.63322 -4.56933 0
M  V30 6187 H 600.244 -0.664143 -4.28686 0
M  V30 6188 H 600.915 0.426253 -5.50352 0
M  V30 6189 H 603.391 1.47864 -3.88941 0
M  V30 6190 H 602.267 2.3593 -4.95609 0
M  V30 6191 H 602.528 2.92608 -3.3141 0
M  V30 6192 N 601.587 1.56661 0.17182 0
M  V30 6193 C 602.864 1.72838 0.915778 0
M  V30 6194 C 603.244 0.66316 2.00413 0
M  V30 6195 O 602.592 -0.322123 2.26218 0
M  V30 6196 C 602.802 3.16019 1.48097 0
M  V30 6197 C 604.15 3.76962 1.95408 0
M  V30 6198 O 605.174 3.19294 1.57892 0
M  V30 6199 O 604.033 4.78219 2.64516 0
M  V30 6200 H 601.127 0.705797 0.431021 0
M  V30 6201 H 603.673 1.68947 0.159689 0
M  V30 6202 H 602.445 3.85031 0.697618 0
M  V30 6203 H 602.068 3.24234 2.30126 0
M  V30 6204 N 603.065 -0.440357 1.51323 0
M  V30 6205 C 604.313 -1.18769 1.63518 0
M  V30 6206 C 604.634 -1.91793 0.352201 0
M  V30 6207 O 603.904 -1.85432 -0.631811 0
M  V30 6208 H 602.484 -0.441408 0.602634 0
M  V30 6209 H 605.146 -0.505162 1.8824 0
M  V30 6210 H 604.242 -1.91892 2.46138 0
M  V30 6211 N 604.543 -1.41418 -0.695603 0
M  V30 6212 C 605.959 -1.23887 -1.00619 0
M  V30 6213 C 606.159 -0.128206 -2.01092 0
M  V30 6214 O 605.215 0.507408 -2.47349 0
M  V30 6215 C 606.528 -2.58816 -1.53083 0
M  V30 6216 C 608.076 -2.65998 -1.64967 0
M  V30 6217 C 608.551 -4.01244 -2.20833 0
M  V30 6218 N 610.042 -4.0309 -2.28194 0
M  V30 6219 C 610.777 -5.04539 -2.72448 0
M  V30 6220 N 610.273 -6.16378 -3.16306 0
M  V30 6221 N 612.066 -4.91901 -2.72011 0
M  V30 6222 H 604.217 -2.12379 -0.0300061 0
M  V30 6223 H 606.48 -0.944958 -0.0758797 0
M  V30 6224 H 606.186 -3.40842 -0.867147 0
M  V30 6225 H 606.06 -2.81299 -2.51298 0
M  V30 6226 H 608.447 -1.84331 -2.30448 0
M  V30 6227 H 608.528 -2.47325 -0.652982 0
M  V30 6228 H 608.172 -4.83359 -1.55968 0
M  V30 6229 H 608.102 -4.17257 -3.21254 0
M  V30 6230 H 610.593 -3.22341 -1.97242 0
M  V30 6231 H 610.906 -6.89658 -3.487 0
M  V30 6232 H 609.251 -6.19914 -3.14215 0
M  V30 6233 H 612.442 -4.03613 -2.37095 0
M  V30 6234 H 612.615 -5.71102 -3.06181 0
M  V30 6235 N 606.021 0.929856 -1.27246 0
M  V30 6236 C 606.951 2.04722 -1.12299 0
M  V30 6237 C 607.932 1.70082 -0.0250464 0
M  V30 6238 O 609.117 1.93176 -0.199141 0
M  V30 6239 C 606.247 3.38721 -0.767145 0
M  V30 6240 C 605.201 3.87466 -1.81808 0
M  V30 6241 C 604.527 5.18246 -1.31626 0
M  V30 6242 C 605.827 4.11095 -3.22177 0
M  V30 6243 H 607.521 2.17485 -2.05769 0
M  V30 6244 H 605.067 1.04503 -0.990715 0
M  V30 6245 H 607.02 4.16366 -0.649413 0
M  V30 6246 H 605.744 3.25967 0.203259 0
M  V30 6247 H 604.403 3.12012 -1.92468 0
M  V30 6248 H 604.051 5.01881 -0.335378 0
M  V30 6249 H 603.751 5.51829 -2.01887 0
M  V30 6250 H 605.275 5.98462 -1.21143 0
M  V30 6251 H 606.689 4.79316 -3.1453 0
M  V30 6252 H 605.086 4.55982 -3.90129 0
M  V30 6253 H 606.156 3.16468 -3.67391 0
M  V30 6254 N 607.499 1.09233 1.13605 0
M  V30 6255 C 608.776 0.739633 1.81077 0
M  V30 6256 C 609.156 -0.775595 1.96336 0
M  V30 6257 O 608.504 -1.69726 1.52988 0
M  V30 6258 C 608.714 1.47636 3.16235 0
M  V30 6259 C 610.062 1.64087 3.91613 0
M  V30 6260 O 611.086 1.43871 3.25852 0
M  V30 6261 O 609.945 1.97511 5.0956 0
M  V30 6262 H 607.039 0.265464 0.783236 0
M  V30 6263 H 609.585 1.19441 1.20549 0
M  V30 6264 H 608.357 2.50818 3.00344 0
M  V30 6265 H 607.98 1.01362 3.84462 0
M  V30 6266 N 608.977 -1.30795 0.87923 0
M  V30 6267 C 610.393 -1.48981 0.57243 0
M  V30 6268 C 610.593 -1.80719 -0.891236 0
M  V30 6269 O 609.649 -1.89136 -1.67283 0
M  V30 6270 C 610.962 -2.61721 1.48063 0
M  V30 6271 C 612.51 -2.75603 1.48365 0
M  V30 6272 C 612.985 -3.91449 2.37763 0
M  V30 6273 N 614.476 -3.98751 2.35695 0
M  V30 6274 C 615.211 -4.87684 3.01583 0
M  V30 6275 N 614.707 -5.81454 3.76674 0
M  V30 6276 N 616.5 -4.81005 2.90844 0
M  V30 6277 H 608.651 -1.08465 1.82617 0
M  V30 6278 H 610.914 -0.536813 0.781368 0
M  V30 6279 H 610.62 -2.45073 2.52254 0
M  V30 6280 H 610.494 -3.58071 1.18596 0
M  V30 6281 H 612.881 -2.9166 0.44927 0
M  V30 6282 H 612.962 -1.79891 1.81859 0
M  V30 6283 H 612.606 -3.76149 3.41283 0
M  V30 6284 H 612.536 -4.86487 2.01589 0
M  V30 6285 H 615.027 -3.31668 1.81121 0
M  V30 6286 H 615.34 -6.46063 4.24054 0
M  V30 6287 H 613.685 -5.81403 3.80782 0
M  V30 6288 H 616.876 -4.06728 2.31711 0
M  V30 6289 H 617.049 -5.50107 3.42471 0
M  V30 6290 N 610.455 -0.639598 -1.44038 0
M  V30 6291 C 611.365 0.0612377 -2.3452 0
M  V30 6292 C 612.381 0.826717 -1.53106 0
M  V30 6293 O 613.557 0.777059 -1.85806 0
M  V30 6294 C 610.622 1.02492 -3.31204 0
M  V30 6295 C 609.683 0.25788 -4.28525 0
M  V30 6296 C 608.916 1.17566 -5.2059 0
M  V30 6297 O 609.139 2.41461 -5.16771 0
M  V30 6298 O 608.073 0.655407 -5.98321 0
M  V30 6299 H 611.899 -0.68318 -2.95916 0
M  V30 6300 H 609.484 -0.399784 -1.43952 0
M  V30 6301 H 611.366 1.57911 -3.90694 0
M  V30 6302 H 610.041 1.7498 -2.7233 0
M  V30 6303 H 608.948 -0.339566 -3.72556 0
M  V30 6304 H 610.281 -0.427154 -4.90343 0
M  V30 6305 N 611.933 1.52934 -0.380664 0
M  V30 6306 C 612.865 2.23822 0.493581 0
M  V30 6307 C 613.878 1.25761 1.03383 0
M  V30 6308 O 615.067 1.5189 0.937633 0
M  V30 6309 C 612.167 2.9342 1.69582 0
M  V30 6310 C 611.34 4.18115 1.28445 0
M  V30 6311 C 610.399 4.70788 2.35042 0
M  V30 6312 O 609.425 5.34093 1.96807 0
M  V30 6313 N 610.627 4.49899 3.66839 0
M  V30 6314 H 613.392 2.99484 -0.11371 0
M  V30 6315 H 610.953 1.60577 -0.206587 0
M  V30 6316 H 612.945 3.2556 2.40401 0
M  V30 6317 H 611.515 2.21119 2.20965 0
M  V30 6318 H 610.735 3.92109 0.405503 0
M  V30 6319 H 612.023 4.99152 0.986132 0
M  V30 6320 H 611.421 3.99349 4.0067 0
M  V30 6321 H 609.978 4.86551 4.33718 0
M  V30 6322 N 613.412 0.11024 1.57214 0
M  V30 6323 C 614.362 -0.854147 2.11396 0
M  V30 6324 C 615.346 -1.23394 1.03261 0
M  V30 6325 O 616.538 -1.20649 1.2951 0
M  V30 6326 C 613.667 -2.10752 2.70995 0
M  V30 6327 C 612.753 -1.75249 3.86198 0
M  V30 6328 N 613.144 -1.10377 4.9361 0
M  V30 6329 C 611.442 -2.04763 3.96217 0
M  V30 6330 C 612.143 -0.938199 5.74084 0
M  V30 6331 N 611.119 -1.46039 5.23616 0
M  V30 6332 H 614.921 -0.348897 2.91822 0
M  V30 6333 H 612.435 -0.0925071 1.62136 0
M  V30 6334 H 614.432 -2.80801 3.0815 0
M  V30 6335 H 613.092 -2.61829 1.9203 0
M  V30 6336 H 614.103 -0.768785 5.12162 0
M  V30 6337 H 610.78 -2.57948 3.28282 0
M  V30 6338 H 612.17 -0.429678 6.70525 0
M  V30 6339 N 614.89 -1.56749 -0.16351 0
M  V30 6340 C 616.167 -1.73321 -0.906599 0
M  V30 6341 C 616.547 -0.673779 -2.00059 0
M  V30 6342 O 615.895 0.310121 -2.26386 0
M  V30 6343 C 616.105 -3.168 -1.46419 0
M  V30 6344 C 617.453 -3.77993 -1.93407 0
M  V30 6345 O 618.477 -3.20127 -1.56196 0
M  V30 6346 O 617.336 -4.79615 -2.61976 0
M  V30 6347 H 614.43 -0.708073 -0.427272 0
M  V30 6348 H 616.976 -1.69029 -0.150727 0
M  V30 6349 H 615.748 -3.85396 -0.677189 0
M  V30 6350 H 615.371 -3.2545 -2.28403 0
M  V30 6351 N 616.368 0.432326 -1.51554 0
M  V30 6352 C 617.3 1.54357 -1.6943 0
M  V30 6353 C 618.313 1.52311 -0.574897 0
M  V30 6354 O 619.502 1.56997 -0.849369 0
M  V30 6355 C 616.602 2.93273 -1.69836 0
M  V30 6356 C 615.775 3.19768 -2.98442 0
M  V30 6357 C 614.834 4.38433 -2.90969 0
M  V30 6358 O 613.86 4.36842 -3.64908 0
M  V30 6359 N 615.062 5.42276 -2.07163 0
M  V30 6360 H 617.827 1.39426 -2.65293 0
M  V30 6361 H 615.388 0.621331 -1.49503 0
M  V30 6362 H 617.38 3.70687 -1.62399 0
M  V30 6363 H 615.95 3.01777 -0.815456 0
M  V30 6364 H 615.17 2.30607 -3.19709 0
M  V30 6365 H 616.458 3.343 -3.83563 0
M  V30 6366 H 615.856 5.46407 -1.46477 0
M  V30 6367 H 614.413 6.18524 -2.05601 0
M  V30 6368 N 617.846 1.41785 0.688094 0
M  V30 6369 C 619.076 1.44705 1.47459 0
M  V30 6370 C 619.484 0.052916 1.89126 0
M  V30 6371 O 618.827 -0.939781 1.57841 0
M  V30 6372 C 618.889 2.29935 2.76352 0
M  V30 6373 C 618.553 3.77996 2.56843 0
M  V30 6374 C 619.55 4.69976 2.22304 0
M  V30 6375 C 617.235 4.2212 2.7225 0
M  V30 6376 C 619.229 6.04068 2.03421 0
M  V30 6377 C 616.916 5.56275 2.52985 0
M  V30 6378 C 617.914 6.47065 2.18621 0
M  V30 6379 O 617.602 7.78744 1.9953 0
M  V30 6380 H 617.334 0.494703 0.460701 0
M  V30 6381 H 619.888 1.86802 0.854057 0
M  V30 6382 H 618.118 1.82664 3.40839 0
M  V30 6383 H 619.807 2.24467 3.38186 0
M  V30 6384 H 620.573 4.37175 2.10008 0
M  V30 6385 H 616.452 3.51752 2.97979 0
M  V30 6386 H 619.996 6.74897 1.76523 0
M  V30 6387 H 615.893 5.88653 2.64873 0
M  V30 6388 H 616.661 7.89966 2.14234 0
M  V30 6389 N 619.324 -0.923095 1.27737 0
M  V30 6390 C 620.272 -2.04567 1.10703 0
M  V30 6391 C 621.266 -1.69375 0.0288445 0
M  V30 6392 O 622.472 -1.79027 0.186913 0
M  V30 6393 H 618.847 -0.670109 0.34126 0
M  V30 6394 H 620.818 -2.1608 2.05796 0
M  V30 6395 C 619.567 -3.38934 0.775837 0
M  V30 6396 H 618.89 -3.66501 1.59741 0
M  V30 6397 H 620.33 -4.18239 0.696548 0
M  V30 6398 C 618.789 -3.32863 -0.520012 0
M  V30 6399 O 619.319 -3.70462 -1.55308 0
M  V30 6400 N 617.525 -2.85958 -0.51732 0
M  V30 6401 H 617.072 -2.55557 0.32379 0
M  V30 6402 H 617.03 -2.82279 -1.38441 0
M  V30 6403 N 620.802 -1.09834 -1.13024 0
M  V30 6404 C 621.732 -0.763451 -2.20666 0
M  V30 6405 C 622.713 0.260778 -1.68089 0
M  V30 6406 O 623.898 0.127915 -1.93778 0
M  V30 6407 C 621.028 -0.187744 -3.46792 0
M  V30 6408 C 619.982 -1.14196 -4.12484 0
M  V30 6409 C 619.308 -0.427755 -5.32986 0
M  V30 6410 C 620.608 -2.48607 -4.59338 0
M  V30 6411 H 622.302 -1.66347 -2.48936 0
M  V30 6412 H 619.848 -0.801261 -1.19649 0
M  V30 6413 H 621.801 0.0586375 -4.21359 0
M  V30 6414 H 620.525 0.747485 -3.17931 0
M  V30 6415 H 619.184 -1.37369 -3.3989 0
M  V30 6416 H 618.832 0.511747 -5.0039 0
M  V30 6417 H 618.532 -1.06403 -5.77886 0
M  V30 6418 H 620.056 -0.189772 -6.10305 0
M  V30 6419 H 621.47 -2.29618 -5.25308 0
M  V30 6420 H 619.867 -3.08062 -5.14993 0
M  V30 6421 H 620.937 -3.09062 -3.73642 0
M  V30 6422 N 622.28 1.30327 -0.886154 0
M  V30 6423 C 623.508 2.00254 -0.520176 0
M  V30 6424 C 623.923 1.66419 0.891637 0
M  V30 6425 O 623.28 0.901951 1.58654 0
M  V30 6426 C 623.331 3.54916 -0.686775 0
M  V30 6427 O 623.052 3.87547 -2.04301 0
M  V30 6428 C 624.553 4.42115 -0.323945 0
M  V30 6429 H 621.773 0.640204 -0.200947 0
M  V30 6430 H 624.317 1.66183 -1.19178 0
M  V30 6431 H 622.472 3.8735 -0.0625273 0
M  V30 6432 H 622.886 4.82247 -2.06249 0
M  V30 6433 H 624.36 5.49808 -0.491407 0
M  V30 6434 H 624.837 4.32953 0.73811 0
M  V30 6435 H 625.443 4.15129 -0.924565 0
M  V30 6436 N 623.758 0.647228 1.43697 0
M  V30 6437 C 625.007 0.155552 2.01099 0
M  V30 6438 C 625.32 -1.23569 1.51624 0
M  V30 6439 O 626.526 -1.82226 2.01261 0
M  V30 6440 C 624.982 0.227296 3.59182 0
M  V30 6441 C 624.59 1.62086 4.17651 0
M  V30 6442 C 626.334 -0.207085 4.23995 0
M  V30 6443 C 624.241 1.64685 5.68008 0
M  V30 6444 H 623.171 0.0543895 0.752036 0
M  V30 6445 H 625.822 0.808386 1.64734 0
M  V30 6446 H 624.204 -0.492937 3.9292 0
M  V30 6447 H 625.378 2.36597 3.95422 0
M  V30 6448 H 623.693 2.0007 3.65186 0
M  V30 6449 H 626.29 -0.207426 5.34298 0
M  V30 6450 H 626.633 -1.23742 3.97484 0
M  V30 6451 H 627.166 0.461193 3.95118 0
M  V30 6452 H 623.905 2.65608 5.99277 0
M  V30 6453 H 623.425 0.944914 5.9231 0
M  V30 6454 H 625.104 1.38792 6.31938 0
M  V30 6455 N 625.236 -1.5273 0.388769 0
M  V30 6456 C 626.168 -2.24081 -0.481704 0
M  V30 6457 C 627.181 -1.26307 -1.02715 0
M  V30 6458 O 628.37 -1.52386 -0.929565 0
M  V30 6459 C 625.47 -2.94315 -1.68024 0
M  V30 6460 C 624.643 -4.18791 -1.26226 0
M  V30 6461 C 623.702 -4.72028 -2.32542 0
M  V30 6462 O 622.728 -5.35129 -1.93972 0
M  V30 6463 N 623.93 -4.51838 -3.64448 0
M  V30 6464 H 626.695 -2.9942 0.129591 0
M  V30 6465 H 624.256 -1.60465 0.2151 0
M  V30 6466 H 626.248 -3.26831 -2.38671 0
M  V30 6467 H 624.818 -2.22287 -2.19789 0
M  V30 6468 H 624.038 -3.92318 -0.384703 0
M  V30 6469 H 625.326 -4.99668 -0.959647 0
M  V30 6470 H 624.724 -4.01468 -3.98547 0
M  V30 6471 H 623.281 -4.88845 -4.31131 0
M  V30 6472 N 626.714 -0.118576 -1.57153 0
M  V30 6473 C 627.677 0.817464 -2.14127 0
M  V30 6474 C 628.677 1.1949 -1.07604 0
M  V30 6475 O 629.867 1.12048 -1.33382 0
M  V30 6476 C 626.999 2.10541 -2.68115 0
M  V30 6477 H 628.192 0.322339 -2.98163 0
M  V30 6478 H 625.745 0.130655 -1.55753 0
M  V30 6479 H 626.48 2.64485 -1.87665 0
M  V30 6480 H 626.265 1.84425 -3.4602 0
M  V30 6481 H 627.755 2.77453 -3.12105 0
M  V30 6482 N 628.193 1.56834 0.155195 0
M  V30 6483 C 629.609 1.51315 0.50755 0
M  V30 6484 C 629.809 0.825614 1.83809 0
M  V30 6485 O 628.865 0.39271 2.49427 0
M  V30 6486 C 630.178 2.96074 0.52542 0
M  V30 6487 C 631.726 3.06968 0.611505 0
M  V30 6488 C 632.201 4.53218 0.660115 0
M  V30 6489 N 633.692 4.5753 0.722564 0
M  V30 6490 C 634.427 5.68056 0.781023 0
M  V30 6491 N 633.923 6.88173 0.799327 0
M  V30 6492 N 635.716 5.56068 0.821278 0
M  V30 6493 H 627.867 1.9993 -0.717063 0
M  V30 6494 H 630.13 0.911507 -0.260496 0
M  V30 6495 H 629.836 3.49599 -0.383875 0
M  V30 6496 H 629.71 3.51587 1.36624 0
M  V30 6497 H 632.097 2.53468 1.51122 0
M  V30 6498 H 632.178 2.54513 -0.256306 0
M  V30 6499 H 631.822 5.07354 -0.23541 0
M  V30 6500 H 631.752 5.03447 1.5443 0
M  V30 6501 H 634.243 3.71054 0.716049 0
M  V30 6502 H 634.556 7.6816 0.845553 0
M  V30 6503 H 632.901 6.90751 0.767337 0
M  V30 6504 H 636.092 4.61142 0.804091 0
M  V30 6505 H 636.265 6.42223 0.863372 0
M  V30 6506 N 629.671 -0.424282 1.51781 0
M  V30 6507 C 630.948 -1.18464 1.55646 0
M  V30 6508 C 631.328 -2.08529 0.328438 0
M  V30 6509 O 630.676 -2.17969 -0.685693 0
M  V30 6510 C 630.886 -1.97514 2.87731 0
M  V30 6511 C 632.234 -2.54106 3.40169 0
M  V30 6512 O 633.258 -2.07711 2.89369 0
M  V30 6513 O 632.117 -3.38759 4.28841 0
M  V30 6514 H 629.211 -0.540055 0.626314 0
M  V30 6515 H 631.757 -0.432291 1.64102 0
M  V30 6516 H 630.529 -1.31444 3.68562 0
M  V30 6517 H 630.152 -2.79787 2.82498 0
M  V30 6518 N 631.149 -1.42148 -0.680565 0
M  V30 6519 C 632.397 -1.42029 -1.43779 0
M  V30 6520 C 632.718 -0.0356347 -1.94967 0
M  V30 6521 O 631.988 0.924936 -1.7269 0
M  V30 6522 H 630.568 -0.522835 -0.533529 0
M  V30 6523 H 633.23 -1.7752 -0.804538 0
M  V30 6524 H 632.326 -2.11658 -2.29363 0
M  V30 6525 N 632.627 0.916307 -1.28225 0
M  V30 6526 C 633.875 1.6619 -1.15002 0
M  V30 6527 C 634.196 1.92642 0.302329 0
M  V30 6528 O 633.466 1.54076 1.20985 0
M  V30 6529 H 632.046 0.615964 -0.422608 0
M  V30 6530 H 634.708 1.09963 -1.60917 0
M  V30 6531 H 633.804 2.62533 -1.68769 0
M  V30 6532 N 634.105 1.10431 1.1244 0
M  V30 6533 C 635.351 0.847972 1.84221 0
M  V30 6534 C 635.684 -0.624903 1.83871 0
M  V30 6535 O 634.959 -1.46074 1.28423 0
M  V30 6536 C 635.242 1.39695 3.319 0
M  V30 6537 C 635.095 2.93668 3.40704 0
M  V30 6538 C 636.414 1.03924 4.27654 0
M  V30 6539 H 633.533 0.309502 0.668863 0
M  V30 6540 H 636.175 1.36745 1.31912 0
M  V30 6541 H 634.325 0.955095 3.76577 0
M  V30 6542 H 635.997 3.46379 3.04662 0
M  V30 6543 H 634.24 3.30272 2.81252 0
M  V30 6544 H 634.911 3.27162 4.446 0
M  V30 6545 H 637.387 1.42049 3.91102 0
M  V30 6546 H 636.263 1.45027 5.29394 0
M  V30 6547 H 636.524 -0.051336 4.4207 0
M  V30 6548 N 635.583 -1.29855 0.893053 0
M  V30 6549 C 636.994 -1.77946 0.564998 0
M  V30 6550 C 637.345 -1.73339 -0.919134 0
M  V30 6551 O 636.47 -1.3152 -1.71847 0
M  V30 6552 C 637.065 -3.23118 1.01883 0
M  V30 6553 C 635.624 -3.69013 0.742051 0
M  V30 6554 C 634.771 -2.50121 1.19727 0
M  V30 6555 H 637.722 -1.16611 1.07646 0
M  V30 6556 H 637.743 -3.78875 0.351249 0
M  V30 6557 H 637.255 -3.26439 2.09903 0
M  V30 6558 H 635.356 -3.71173 -0.325816 0
M  V30 6559 H 635.469 -4.60117 1.33527 0
M  V30 6560 H 633.833 -2.47128 0.616418 0
M  V30 6561 H 634.616 -2.56174 2.28538 0
M  V30 6562 N 637.061 -0.65484 -1.43351 0
M  V30 6563 C 637.994 0.0855537 -2.2804 0
M  V30 6564 C 638.972 0.828301 -1.39921 0
M  V30 6565 O 640.156 0.827539 -1.69364 0
M  V30 6566 C 637.283 1.12792 -3.19368 0
M  V30 6567 C 636.329 0.483037 -4.23756 0
M  V30 6568 S 637.162 -0.744605 -5.30298 0
M  V30 6569 C 638.318 0.297187 -6.25194 0
M  V30 6570 H 638.551 -0.632831 -2.90487 0
M  V30 6571 H 636.084 -0.44373 -1.47886 0
M  V30 6572 H 638.042 1.7243 -3.72529 0
M  V30 6573 H 636.703 1.81863 -2.56095 0
M  V30 6574 H 635.896 1.26888 -4.87766 0
M  V30 6575 H 635.498 -0.0392713 -3.73979 0
M  V30 6576 H 637.79 1.1629 -6.67445 0
M  V30 6577 H 638.733 -0.30793 -7.0743 0
M  V30 6578 H 639.141 0.633721 -5.60932 0
M  V30 6579 N 638.539 1.52521 -0.396863 0
M  V30 6580 C 639.469 2.29582 0.425941 0
M  V30 6581 C 640.45 1.33281 1.05689 0
M  V30 6582 O 641.635 1.62181 1.06823 0
M  V30 6583 C 638.765 3.10821 1.54943 0
M  V30 6584 C 637.719 4.15069 1.04413 0
M  V30 6585 C 637.045 4.84578 2.26028 0
M  V30 6586 C 638.345 5.22191 0.106767 0
M  V30 6587 H 640.039 2.98612 -0.217045 0
M  V30 6588 H 637.585 1.43611 -0.105826 0
M  V30 6589 H 639.538 3.63492 2.13193 0
M  V30 6590 H 638.262 2.39538 2.22011 0
M  V30 6591 H 636.921 3.63389 0.484118 0
M  V30 6592 H 636.569 4.09835 2.91623 0
M  V30 6593 H 636.269 5.55043 1.92876 0
M  V30 6594 H 637.793 5.40056 2.84906 0
M  V30 6595 H 639.207 5.70176 0.597685 0
M  V30 6596 H 637.604 5.99947 -0.135352 0
M  V30 6597 H 638.674 4.77531 -0.842134 0
M  V30 6598 N 640.017 0.126909 1.57088 0
M  V30 6599 C 640.949 -0.850973 2.12817 0
M  V30 6600 C 641.962 -1.22457 1.07276 0
M  V30 6601 O 643.151 -1.17215 1.34622 0
M  V30 6602 C 640.251 -2.15039 2.61938 0
M  V30 6603 C 639.424 -1.94726 3.91664 0
M  V30 6604 C 638.483 -3.0847 4.26301 0
M  V30 6605 O 637.509 -2.81038 4.94981 0
M  V30 6606 N 638.711 -4.35116 3.84259 0
M  V30 6607 H 641.476 -0.3748 2.97347 0
M  V30 6608 H 639.037 -0.0572793 1.61799 0
M  V30 6609 H 641.029 -2.90141 2.82135 0
M  V30 6610 H 639.599 -2.5398 1.82244 0
M  V30 6611 H 638.819 -1.03772 3.80296 0
M  V30 6612 H 640.107 -1.78469 4.76473 0
M  V30 6613 H 639.505 -4.60276 3.2888 0
M  V30 6614 H 638.062 -5.07064 4.09548 0
M  V30 6615 N 641.495 -1.56914 -0.146875 0
M  V30 6616 C 642.72 -1.87881 -0.878386 0
M  V30 6617 C 643.145 -0.715945 -1.73942 0
M  V30 6618 O 642.503 0.334447 -1.78189 0
M  V30 6619 C 642.551 -3.17431 -1.71084 0
M  V30 6620 O 641.655 -3.01374 -2.81509 0
M  V30 6621 H 640.996 -0.617289 -0.244644 0
M  V30 6622 H 643.526 -2.04136 -0.137654 0
M  V30 6623 H 643.536 -3.49455 -2.10582 0
M  V30 6624 H 642.211 -4.01671 -1.07856 0
M  V30 6625 H 640.788 -2.80758 -2.45416 0
M  V30 6626 N 642.974 0.416227 -1.52004 0
M  V30 6627 C 643.937 1.48926 -1.74223 0
M  V30 6628 C 644.937 1.48693 -0.612119 0
M  V30 6629 O 646.127 1.50343 -0.879921 0
M  V30 6630 C 643.259 2.88372 -1.81809 0
M  V30 6631 H 644.452 1.3052 -2.70008 0
M  V30 6632 H 642.005 0.646271 -1.42313 0
M  V30 6633 H 642.74 3.12157 -0.879135 0
M  V30 6634 H 642.525 2.89944 -2.6396 0
M  V30 6635 H 644.015 3.66173 -2.00766 0
M  V30 6636 N 644.452 1.42507 0.673017 0
M  V30 6637 C 645.399 1.46124 1.78651 0
M  V30 6638 C 646.369 0.313007 1.63124 0
M  V30 6639 O 647.554 0.517337 1.83653 0
M  V30 6640 C 644.694 1.3711 3.16694 0
M  V30 6641 C 643.807 2.61983 3.43495 0
M  V30 6642 C 642.942 2.45098 4.71275 0
M  V30 6643 C 641.981 3.65336 4.91117 0
M  V30 6644 N 641.118 3.47383 6.10139 0
M  V30 6645 H 645.958 2.4128 1.74895 0
M  V30 6646 H 643.495 1.19788 0.853766 0
M  V30 6647 H 645.453 1.29881 3.96468 0
M  V30 6648 H 644.083 0.45549 3.1957 0
M  V30 6649 H 643.135 2.79571 2.57961 0
M  V30 6650 H 644.447 3.51355 3.5405 0
M  V30 6651 H 643.601 2.35466 5.59143 0
M  V30 6652 H 642.34 1.53219 4.63007 0
M  V30 6653 H 641.345 3.754 4.0169 0
M  V30 6654 H 642.57 4.58199 5.01229 0
M  V30 6655 H 640.516 2.58222 6.0304 0
M  V30 6656 H 640.433 4.30344 6.21563 0
M  V30 6657 H 641.701 3.41565 7.00681 0
M  V30 6658 N 645.93 -0.909495 1.28709 0
M  V30 6659 C 647.155 -1.69801 1.1909 0
M  V30 6660 C 647.58 -1.86479 -0.246388 0
M  V30 6661 O 646.938 -1.37802 -1.17815 0
M  V30 6662 C 646.986 -3.06543 1.89904 0
M  V30 6663 O 646.09 -3.94268 1.2094 0
M  V30 6664 H 645.431 -0.519783 0.413185 0
M  V30 6665 H 647.961 -1.13689 1.70106 0
M  V30 6666 H 647.971 -3.56748 1.97977 0
M  V30 6667 H 646.646 -2.93722 2.94449 0
M  V30 6668 H 645.223 -3.52702 1.2106 0
M  V30 6669 N 647.408 -1.11026 -1.11852 0
M  V30 6670 C 648.655 -0.85646 -1.83497 0
M  V30 6671 C 648.983 0.617938 -1.84423 0
M  V30 6672 O 648.238 1.47194 -1.28966 0
M  V30 6673 C 648.537 -1.35777 -3.30604 0
M  V30 6674 C 648.203 -2.84465 -3.49843 0
M  V30 6675 C 646.865 -3.25068 -3.54802 0
M  V30 6676 C 649.217 -3.80251 -3.56453 0
M  V30 6677 C 646.545 -4.60194 -3.63921 0
M  V30 6678 C 648.897 -5.15188 -3.67102 0
M  V30 6679 C 647.561 -5.55356 -3.70319 0
M  V30 6680 H 646.831 -0.313401 -0.671462 0
M  V30 6681 H 649.478 -1.38792 -1.31943 0
M  V30 6682 H 647.783 -0.746455 -3.84624 0
M  V30 6683 H 649.48 -1.13779 -3.8452 0
M  V30 6684 H 646.07 -2.52054 -3.46651 0
M  V30 6685 H 650.254 -3.49986 -3.51886 0
M  V30 6686 H 645.51 -4.90728 -3.64686 0
M  V30 6687 H 649.684 -5.89248 -3.71159 0
M  V30 6688 H 647.311 -6.60054 -3.77138 0
M  V30 6689 N 648.886 1.2938 -0.899927 0
M  V30 6690 C 650.114 1.99691 -0.541386 0
M  V30 6691 C 650.529 1.67355 0.873936 0
M  V30 6692 O 649.886 0.918728 1.57688 0
M  V30 6693 C 649.937 3.54168 -0.72438 0
M  V30 6694 O 649.658 3.85359 -2.08399 0
M  V30 6695 C 651.159 4.41746 -0.370819 0
M  V30 6696 H 648.379 0.638037 -0.207726 0
M  V30 6697 H 650.923 1.6491 -1.20934 0
M  V30 6698 H 649.078 3.87261 -0.103607 0
M  V30 6699 H 649.492 4.80032 -2.11352 0
M  V30 6700 H 650.966 5.49256 -0.549693 0
M  V30 6701 H 651.443 4.33712 0.692148 0
M  V30 6702 H 652.049 4.14125 -0.968543 0
M  V30 6703 N 650.364 0.662433 1.43002 0
M  V30 6704 C 651.61 0.179857 2.02001 0
M  V30 6705 C 651.943 -1.20625 1.52195 0
M  V30 6706 O 651.218 -1.80726 0.718911 0
M  V30 6707 C 651.501 0.200845 3.59539 0
M  V30 6708 C 651.354 1.62153 4.19555 0
M  V30 6709 C 652.673 -0.457738 4.37713 0
M  V30 6710 H 649.792 0.0668305 0.733964 0
M  V30 6711 H 652.434 0.84487 1.70182 0
M  V30 6712 H 650.584 -0.365411 3.86778 0
M  V30 6713 H 652.256 2.23908 4.03315 0
M  V30 6714 H 650.499 2.16601 3.75854 0
M  V30 6715 H 651.17 1.58799 5.28665 0
M  V30 6716 H 653.646 0.0241495 4.16093 0
M  V30 6717 H 652.522 -0.412363 5.47349 0
M  V30 6718 H 652.783 -1.53336 4.14657 0
M  V30 6719 N 651.842 -1.52309 0.404946 0
M  V30 6720 C 652.772 -2.29805 -0.41376 0
M  V30 6721 C 653.753 -1.3384 -1.0498 0
M  V30 6722 O 654.938 -1.62745 -1.05961 0
M  V30 6723 C 652.068 -3.11639 -1.53292 0
M  V30 6724 C 651.022 -4.15616 -1.02211 0
M  V30 6725 C 650.348 -4.8577 -2.23455 0
M  V30 6726 C 651.648 -5.2224 -0.0790725 0
M  V30 6727 H 653.342 -2.98493 0.232878 0
M  V30 6728 H 650.888 -1.43552 0.113441 0
M  V30 6729 H 652.841 -3.64618 -2.11262 0
M  V30 6730 H 651.565 -2.40712 -2.20738 0
M  V30 6731 H 650.224 -3.63641 -0.46484 0
M  V30 6732 H 649.872 -4.11376 -2.89445 0
M  V30 6733 H 649.572 -5.56058 -1.89929 0
M  V30 6734 H 651.096 -5.4156 -2.82038 0
M  V30 6735 H 652.51 -5.70485 -0.567438 0
M  V30 6736 H 650.907 -5.99867 0.167167 0
M  V30 6737 H 651.977 -4.77078 0.867447 0
M  V30 6738 N 653.32 -0.135238 -1.57019 0
M  V30 6739 C 654.569 0.518694 -1.94917 0
M  V30 6740 C 654.882 1.66783 -1.0219 0
M  V30 6741 O 656.088 2.38561 -1.29619 0
M  V30 6742 C 654.544 0.974123 -3.46466 0
M  V30 6743 C 654.152 -0.147439 -4.47757 0
M  V30 6744 C 655.896 1.59851 -3.93253 0
M  V30 6745 C 653.803 0.325599 -5.90503 0
M  V30 6746 H 652.733 0.19754 -0.727663 0
M  V30 6747 H 655.384 -0.217698 -1.82204 0
M  V30 6748 H 653.766 1.76542 -3.5447 0
M  V30 6749 H 654.94 -0.924122 -4.51438 0
M  V30 6750 H 653.255 -0.679496 -4.10818 0
M  V30 6751 H 655.852 1.96385 -4.9733 0
M  V30 6752 H 656.195 2.48306 -3.3414 0
M  V30 6753 H 656.728 0.872323 -3.88118 0
M  V30 6754 H 653.467 -0.523295 -6.53408 0
M  V30 6755 H 652.987 1.06841 -5.90208 0
M  V30 6756 H 654.666 0.781498 -6.42263 0
M  V30 6757 N 654.798 1.5699 0.138552 0
M  V30 6758 C 656.026 1.87976 0.864437 0
M  V30 6759 C 656.441 0.724372 1.74351 0
M  V30 6760 O 655.798 -0.305575 1.79924 0
M  V30 6761 C 655.849 3.18276 1.71414 0
M  V30 6762 O 655.57 4.29365 0.870487 0
M  V30 6763 C 657.071 3.62834 2.54688 0
M  V30 6764 H 654.291 0.622878 0.249528 0
M  V30 6765 H 656.835 2.04094 0.128805 0
M  V30 6766 H 654.99 3.03886 2.40274 0
M  V30 6767 H 655.404 5.03924 1.45466 0
M  V30 6768 H 656.878 4.5682 3.0987 0
M  V30 6769 H 657.355 2.88533 3.31127 0
M  V30 6770 H 657.961 3.79946 1.91105 0
M  V30 6771 N 656.276 -0.40816 1.52223 0
M  V30 6772 C 657.553 -1.16807 1.56893 0
M  V30 6773 C 657.933 -2.08169 0.350537 0
M  V30 6774 O 657.281 -2.18684 -0.662536 0
M  V30 6775 C 657.491 -1.94451 2.8981 0
M  V30 6776 C 658.839 -2.50484 3.42845 0
M  V30 6777 O 659.863 -2.0463 2.91556 0
M  V30 6778 O 658.722 -3.34192 4.3241 0
M  V30 6779 H 655.816 -0.533382 0.632007 0
M  V30 6780 H 658.362 -0.414862 1.64551 0
M  V30 6781 H 657.134 -1.27527 3.69936 0
M  V30 6782 H 656.757 -2.76775 2.85449 0
M  V30 6783 N 657.755 -1.42862 -0.66545 0
M  V30 6784 C 658.665 -1.49491 -1.80803 0
M  V30 6785 C 659.681 -0.382914 -1.69734 0
M  V30 6786 O 660.857 -0.635223 -1.9112 0
M  V30 6787 C 657.922 -1.40383 -3.17007 0
M  V30 6788 C 656.983 -2.62152 -3.39963 0
M  V30 6789 C 656.216 -2.53469 -4.69669 0
M  V30 6790 O 656.439 -1.57568 -5.48205 0
M  V30 6791 O 655.373 -3.43763 -4.94075 0
M  V30 6792 H 659.199 -2.45949 -1.78165 0
M  V30 6793 H 656.784 -1.24728 -0.822387 0
M  V30 6794 H 658.666 -1.377 -3.98267 0
M  V30 6795 H 657.341 -0.470546 -3.20262 0
M  V30 6796 H 656.248 -2.70409 -2.58515 0
M  V30 6797 H 657.581 -3.54411 -3.41546 0
M  V30 6798 N 659.233 0.902656 -1.29189 0
M  V30 6799 C 660.181 2.0278 -1.13943 0
M  V30 6800 C 661.175 1.69308 -0.055787 0
M  V30 6801 O 662.381 1.78707 -0.215371 0
M  V30 6802 H 658.756 0.664595 -0.351877 0
M  V30 6803 H 660.727 2.12778 -2.09208 0
M  V30 6804 C 659.476 3.37657 -0.82966 0
M  V30 6805 H 658.799 3.63913 -1.65551 0
M  V30 6806 H 660.239 4.17078 -0.762998 0
M  V30 6807 C 658.698 3.33648 0.466991 0
M  V30 6808 O 659.228 3.72886 1.49395 0
M  V30 6809 N 657.434 2.86745 0.471761 0
M  V30 6810 H 656.981 2.55009 -0.364406 0
M  V30 6811 H 656.939 2.84446 1.33933 0
M  V30 6812 N 660.711 1.11618 1.11262 0
M  V30 6813 C 661.988 0.777876 1.79467 0
M  V30 6814 C 662.368 -0.733774 1.97937 0
M  V30 6815 O 661.716 -1.66443 1.56554 0
M  V30 6816 C 661.926 1.5431 3.13032 0
M  V30 6817 C 663.274 1.72357 3.88044 0
M  V30 6818 O 664.298 1.5075 3.22727 0
M  V30 6819 O 663.157 2.08276 5.05256 0
M  V30 6820 H 660.251 0.282018 0.777428 0
M  V30 6821 H 662.797 1.21971 1.17988 0
M  V30 6822 H 661.569 2.57132 2.94956 0
M  V30 6823 H 661.192 1.09495 3.82226 0
M  V30 6824 N 662.189 -1.289 0.906776 0
M  V30 6825 C 663.137 -2.29477 0.379873 0
M  V30 6826 C 664.131 -1.61068 -0.524747 0
M  V30 6827 O 665.337 -1.75344 -0.406765 0
M  V30 6828 H 661.712 -0.744742 0.10423 0
M  V30 6829 H 663.683 -2.71353 1.24137 0
M  V30 6830 C 662.432 -3.45713 -0.371154 0
M  V30 6831 H 661.755 -3.98551 0.315716 0
M  V30 6832 H 663.195 -4.18105 -0.704581 0
M  V30 6833 C 661.654 -2.9774 -1.57646 0
M  V30 6834 O 662.184 -2.99618 -2.67567 0
M  V30 6835 N 660.39 -2.53485 -1.42105 0
M  V30 6836 H 659.937 -2.52156 -0.526783 0
M  V30 6837 H 659.895 -2.21747 -2.22881 0
M  V30 6838 N 663.667 -0.670007 -1.42649 0
M  V30 6839 C 664.617 0.0339546 -2.27975 0
M  V30 6840 C 665.601 0.778295 -1.40824 0
M  V30 6841 O 666.793 0.657997 -1.64315 0
M  V30 6842 C 663.922 0.987899 -3.28779 0
M  V30 6843 C 663.008 0.241153 -4.23414 0
M  V30 6844 N 663.399 -0.751392 -5.00188 0
M  V30 6845 C 661.697 0.480269 -4.43407 0
M  V30 6846 C 662.398 -1.19615 -5.69269 0
M  V30 6847 N 661.374 -0.527045 -5.41039 0
M  V30 6848 H 665.176 -0.727425 -2.84756 0
M  V30 6849 H 662.69 -0.498673 -1.54554 0
M  V30 6850 H 664.687 1.50716 -3.88703 0
M  V30 6851 H 663.347 1.74916 -2.73559 0
M  V30 6852 H 664.358 -1.13075 -5.05405 0
M  V30 6853 H 661.035 1.2214 -3.99234 0
M  V30 6854 H 662.425 -2.01836 -6.40868 0
M  V30 6855 N 665.145 1.52092 -0.413018 0
M  V30 6856 C 666.556 1.86617 0.0556967 0
M  V30 6857 C 666.907 1.33156 1.44097 0
M  V30 6858 O 666.032 0.672417 2.05688 0
M  V30 6859 C 666.627 3.38628 0.107844 0
M  V30 6860 C 665.186 3.72778 0.520904 0
M  V30 6861 C 664.333 2.75649 -0.302109 0
M  V30 6862 H 667.284 1.45663 -0.629919 0
M  V30 6863 H 667.305 3.69152 0.922324 0
M  V30 6864 H 666.817 3.77508 -0.900506 0
M  V30 6865 H 664.918 3.39478 1.53575 0
M  V30 6866 H 665.031 4.7838 0.262591 0
M  V30 6867 H 663.395 2.53603 0.236115 0
M  V30 6868 H 664.178 3.17369 -1.30888 0
M  V30 6869 N 666.623 0.143563 1.56945 0
M  V30 6870 C 667.573 -0.809115 2.1316 0
M  V30 6871 C 668.557 -1.21176 1.05855 0
M  V30 6872 O 669.749 -1.17875 1.3204 0
M  V30 6873 C 666.878 -2.04957 2.75405 0
M  V30 6874 C 665.964 -1.67018 3.89828 0
M  V30 6875 N 666.355 -0.998822 4.9584 0
M  V30 6876 C 664.653 -1.96313 4.00471 0
M  V30 6877 C 665.354 -0.816217 5.75945 0
M  V30 6878 N 664.33 -1.349 5.26596 0
M  V30 6879 H 668.132 -0.286919 2.92496 0
M  V30 6880 H 665.646 -0.0580948 1.62296 0
M  V30 6881 H 667.643 -2.74201 3.14037 0
M  V30 6882 H 666.303 -2.57697 1.97541 0
M  V30 6883 H 667.314 -0.659975 5.13678 0
M  V30 6884 H 663.991 -2.50927 3.33679 0
M  V30 6885 H 665.381 -0.287353 6.71285 0
M  V30 6886 N 668.101 -1.57061 -0.130224 0
M  V30 6887 C 669.348 -1.84257 -0.839972 0
M  V30 6888 C 669.676 -0.726986 -1.80403 0
M  V30 6889 O 668.931 0.282632 -1.93648 0
M  V30 6890 C 669.23 -3.17878 -1.63365 0
M  V30 6891 C 668.896 -4.43475 -0.814891 0
M  V30 6892 C 667.558 -4.77581 -0.589066 0
M  V30 6893 C 669.91 -5.20631 -0.243437 0
M  V30 6894 C 667.238 -5.86292 0.218648 0
M  V30 6895 C 669.59 -6.30192 0.551408 0
M  V30 6896 C 668.254 -6.62837 0.787653 0
M  V30 6897 H 667.524 -0.674245 -0.307367 0
M  V30 6898 H 670.171 -1.91224 -0.102832 0
M  V30 6899 H 668.476 -3.06437 -2.44138 0
M  V30 6900 H 670.173 -3.3614 -2.18658 0
M  V30 6901 H 666.763 -4.16747 -1.00098 0
M  V30 6902 H 670.947 -4.94644 -0.405145 0
M  V30 6903 H 666.203 -6.10017 0.411016 0
M  V30 6904 H 670.377 -6.89165 1.00126 0
M  V30 6905 H 668.004 -7.46908 1.41537 0
M  V30 6906 N 669.579 0.400081 -1.52437 0
M  V30 6907 C 670.804 1.17221 -1.71096 0
M  V30 6908 C 671.229 1.83269 -0.423565 0
M  V30 6909 O 670.587 1.70378 0.619751 0
M  V30 6910 C 670.635 2.20425 -2.85386 0
M  V30 6911 O 669.739 3.26769 -2.51586 0
M  V30 6912 H 669.08 0.341766 -0.569291 0
M  V30 6913 H 671.61 0.467772 -1.99181 0
M  V30 6914 H 671.62 2.64605 -3.10561 0
M  V30 6915 H 670.295 1.71737 -3.78786 0
M  V30 6916 H 668.872 2.87804 -2.37114 0
M  V30 6917 N 671.057 1.43213 0.657864 0
M  V30 6918 C 672.004 1.48011 1.77092 0
M  V30 6919 C 672.974 0.330291 1.62783 0
M  V30 6920 O 674.159 0.536787 1.83094 0
M  V30 6921 C 671.299 1.40461 3.15222 0
M  V30 6922 C 670.412 2.65612 3.40697 0
M  V30 6923 C 669.547 2.50083 4.68649 0
M  V30 6924 C 668.586 3.70525 4.87214 0
M  V30 6925 N 667.723 3.53835 6.0642 0
M  V30 6926 H 672.563 2.43121 1.72326 0
M  V30 6927 H 670.1 1.20687 0.841013 0
M  V30 6928 H 672.058 1.34079 3.95068 0
M  V30 6929 H 670.688 0.489359 3.19069 0
M  V30 6930 H 669.74 2.82292 2.54982 0
M  V30 6931 H 671.052 3.5509 3.50303 0
M  V30 6932 H 670.206 2.41383 5.56614 0
M  V30 6933 H 668.945 1.58121 4.61356 0
M  V30 6934 H 667.95 3.79639 3.97686 0
M  V30 6935 H 669.175 4.63489 4.96341 0
M  V30 6936 H 667.121 2.64604 6.00267 0
M  V30 6937 H 667.038 4.36912 6.16963 0
M  V30 6938 H 668.306 3.48978 6.97019 0
M  V30 6939 N 672.536 -0.895792 1.29666 0
M  V30 6940 C 673.947 -1.46195 1.1612 0
M  V30 6941 C 674.298 -1.94699 -0.242195 0
M  V30 6942 O 673.423 -1.8406 -1.13802 0
M  V30 6943 C 674.018 -2.65718 2.10189 0
M  V30 6944 C 672.577 -3.18458 2.00653 0
M  V30 6945 C 671.724 -1.91149 2.00891 0
M  V30 6946 H 674.675 -0.706756 1.42094 0
M  V30 6947 H 674.696 -3.4158 1.6764 0
M  V30 6948 H 674.208 -2.30386 3.12321 0
M  V30 6949 H 672.309 -3.58474 1.01623 0
M  V30 6950 H 672.422 -3.82491 2.88509 0
M  V30 6951 H 670.786 -2.09021 1.45542 0
M  V30 6952 H 671.569 -1.58089 3.04734 0
M  V30 6953 N 674.014 -1.12206 -1.10668 0
M  V30 6954 C 675.244 -0.897332 -1.86095 0
M  V30 6955 C 675.652 0.556778 -1.80822 0
M  V30 6956 O 674.995 1.39658 -1.19337 0
M  V30 6957 C 675.057 -1.29095 -3.35522 0
M  V30 6958 C 674.721 -2.75586 -3.64556 0
M  V30 6959 C 675.718 -3.73785 -3.6136 0
M  V30 6960 C 673.403 -3.12432 -3.93309 0
M  V30 6961 C 675.397 -5.06845 -3.86506 0
M  V30 6962 C 673.084 -4.45675 -4.18111 0
M  V30 6963 C 674.082 -5.42691 -4.147 0
M  V30 6964 O 673.77 -6.73532 -4.38873 0
M  V30 6965 H 673.502 -0.320704 -0.595084 0
M  V30 6966 H 676.056 -1.49517 -1.40833 0
M  V30 6967 H 674.286 -0.636299 -3.81429 0
M  V30 6968 H 675.975 -1.04073 -3.92331 0
M  V30 6969 H 676.741 -3.46664 -3.39189 0
M  V30 6970 H 672.62 -2.3753 -3.95096 0
M  V30 6971 H 676.164 -5.82559 -3.83758 0
M  V30 6972 H 672.061 -4.72526 -4.39761 0
M  V30 6973 H 672.829 -6.79442 -4.564 0
M  V30 6974 N 675.492 1.28418 -0.913599 0
M  V30 6975 C 676.722 1.98817 -0.56172 0
M  V30 6976 C 677.13 1.68457 0.861321 0
M  V30 6977 O 676.473 0.933653 1.58204 0
M  V30 6978 C 676.535 3.52801 -0.690785 0
M  V30 6979 C 676.199 4.0675 -2.08334 0
M  V30 6980 C 677.196 4.20597 -3.05604 0
M  V30 6981 C 674.881 4.41445 -2.39648 0
M  V30 6982 C 676.875 4.68392 -4.32305 0
M  V30 6983 C 674.562 4.88934 -3.66588 0
M  V30 6984 C 675.56 5.02364 -4.6273 0
M  V30 6985 O 675.248 5.48817 -5.87414 0
M  V30 6986 H 674.98 0.641608 -0.212874 0
M  V30 6987 H 677.534 1.64584 -1.22887 0
M  V30 6988 H 675.764 3.86686 0.0334336 0
M  V30 6989 H 677.453 4.04422 -0.346031 0
M  V30 6990 H 678.219 3.94067 -2.8273 0
M  V30 6991 H 674.098 4.30242 -1.65567 0
M  V30 6992 H 677.642 4.7879 -5.07352 0
M  V30 6993 H 673.539 5.14904 -3.89287 0
M  V30 6994 H 674.307 5.67103 -5.90201 0
M  V30 6995 N 676.97 0.677563 1.42291 0
M  V30 6996 C 677.902 -0.0380218 2.29168 0
M  V30 6997 C 678.915 -0.762714 1.43828 0
M  V30 6998 O 680.104 -0.616413 1.67519 0
M  V30 6999 C 677.204 -1.07761 3.21311 0
M  V30 7000 C 676.377 -0.42618 4.35319 0
M  V30 7001 C 675.436 -1.36592 5.08162 0
M  V30 7002 O 674.462 -0.865174 5.62586 0
M  V30 7003 N 675.664 -2.69909 5.13935 0
M  V30 7004 H 678.429 0.707766 2.91223 0
M  V30 7005 H 675.99 0.52219 1.53247 0
M  V30 7006 H 677.982 -1.70761 3.6691 0
M  V30 7007 H 676.552 -1.72511 2.60689 0
M  V30 7008 H 675.772 0.383385 3.92331 0
M  V30 7009 H 677.06 0.0275277 5.08793 0
M  V30 7010 H 676.458 -3.13129 4.71134 0
M  V30 7011 H 675.015 -3.2815 5.6317 0
M  V30 7012 N 678.448 -1.51871 0.421078 0
M  V30 7013 C 679.694 -2.02237 -0.151014 0
M  V30 7014 C 680.027 -1.30554 -1.43768 0
M  V30 7015 O 679.302 -0.41546 -1.90011 0
M  V30 7016 C 679.585 -3.5802 -0.386482 0
M  V30 7017 C 679.438 -4.40339 0.9177 0
M  V30 7018 C 680.757 -4.24444 -1.16342 0
M  V30 7019 H 677.876 -0.735062 -0.0534102 0
M  V30 7020 H 680.518 -1.81656 0.556888 0
M  V30 7021 H 678.668 -3.75688 -0.989494 0
M  V30 7022 H 680.34 -4.34357 1.55344 0
M  V30 7023 H 678.583 -4.06073 1.526 0
M  V30 7024 H 679.254 -5.47451 0.707187 0
M  V30 7025 H 681.73 -4.10948 -0.652788 0
M  V30 7026 H 680.606 -5.33358 -1.29693 0
M  V30 7027 H 680.867 -3.84204 -2.18724 0
M  V30 7028 N 679.926 -0.151884 -1.56866 0
M  V30 7029 C 681.175 0.497992 -1.95456 0
M  V30 7030 C 681.488 1.6569 -1.03953 0
M  V30 7031 O 682.694 2.37173 -1.32142 0
M  V30 7032 C 681.15 0.93732 -3.4748 0
M  V30 7033 C 680.758 -0.194921 -4.47576 0
M  V30 7034 C 682.502 1.55671 -3.94926 0
M  V30 7035 C 680.409 0.26295 -5.90815 0
M  V30 7036 H 679.339 0.189811 -0.729717 0
M  V30 7037 H 681.99 -0.237011 -1.81963 0
M  V30 7038 H 680.372 1.72773 -3.56322 0
M  V30 7039 H 681.546 -0.971951 -4.50433 0
M  V30 7040 H 679.861 -0.72303 -4.10075 0
M  V30 7041 H 682.458 1.91099 -4.99385 0
M  V30 7042 H 682.801 2.44748 -3.36755 0
M  V30 7043 H 683.334 0.831109 -3.89021 0
M  V30 7044 H 680.073 -0.592568 -6.52816 0
M  V30 7045 H 679.593 1.00575 -5.91308 0
M  V30 7046 H 681.272 0.713333 -6.43056 0
M  V30 7047 N 681.404 1.57128 0.121893 0
M  V30 7048 C 682.65 1.84974 0.831418 0
M  V30 7049 C 682.983 0.737204 1.79663 0
M  V30 7050 O 682.258 -0.257199 1.92792 0
M  V30 7051 C 682.541 3.23397 1.58386 0
M  V30 7052 C 682.394 4.45246 0.638445 0
M  V30 7053 C 683.713 3.59355 2.54071 0
M  V30 7054 H 680.832 0.67282 0.300803 0
M  V30 7055 H 683.474 1.89759 0.0957587 0
M  V30 7056 H 681.624 3.19449 2.21098 0
M  V30 7057 H 683.296 4.61295 0.0203925 0
M  V30 7058 H 681.539 4.33771 -0.05023 0
M  V30 7059 H 682.21 5.38765 1.20151 0
M  V30 7060 H 684.686 3.64075 2.01465 0
M  V30 7061 H 683.562 4.57193 3.03752 0
M  V30 7062 H 683.823 2.86622 3.36601 0
M  V30 7063 N 682.882 -0.391992 1.52647 0
M  V30 7064 C 683.814 -1.49811 1.73463 0
M  V30 7065 C 684.827 -1.50734 0.615078 0
M  V30 7066 O 686.016 -1.5469 0.890696 0
M  V30 7067 C 683.116 -2.88667 1.77552 0
M  V30 7068 C 682.289 -3.11743 3.06815 0
M  V30 7069 C 681.348 -4.30564 3.02491 0
M  V30 7070 O 680.374 -4.27014 3.76361 0
M  V30 7071 N 681.576 -5.36593 2.21468 0
M  V30 7072 H 684.341 -1.32343 2.68897 0
M  V30 7073 H 681.902 -0.581475 1.51098 0
M  V30 7074 H 683.894 -3.66251 1.7217 0
M  V30 7075 H 682.464 -2.99508 0.895181 0
M  V30 7076 H 681.684 -2.2205 3.25711 0
M  V30 7077 H 682.972 -3.24013 3.92292 0
M  V30 7078 H 682.37 -5.42332 1.60913 0
M  V30 7079 H 680.927 -6.12855 2.21928 0
M  V30 7080 N 684.36 -1.4356 -0.65026 0
M  V30 7081 C 685.27 -1.514 -1.79207 0
M  V30 7082 C 686.286 -0.400895 -1.69319 0
M  V30 7083 O 687.462 -0.655458 -1.90436 0
M  V30 7084 C 684.527 -1.43737 -3.155 0
M  V30 7085 C 683.588 -2.65743 -3.37163 0
M  V30 7086 C 682.821 -2.58436 -4.66954 0
M  V30 7087 O 683.044 -1.63374 -5.46503 0
M  V30 7088 O 681.978 -3.48984 -4.90402 0
M  V30 7089 H 685.804 -2.47825 -1.75547 0
M  V30 7090 H 683.389 -1.25594 -0.809111 0
M  V30 7091 H 685.271 -1.41916 -3.96784 0
M  V30 7092 H 683.946 -0.504488 -3.19745 0
M  V30 7093 H 682.853 -2.73136 -2.55632 0
M  V30 7094 H 684.186 -3.58014 -3.37768 0
M  V30 7095 N 685.838 0.888903 -1.30139 0
M  V30 7096 C 686.786 2.0156 -1.16088 0
M  V30 7097 C 687.78 1.69239 -0.0737413 0
M  V30 7098 O 688.986 1.78468 -0.234313 0
M  V30 7099 H 685.361 0.660825 -0.358907 0
M  V30 7100 H 687.332 2.10547 -2.11453 0
M  V30 7101 C 686.081 3.36758 -0.865426 0
M  V30 7102 H 685.404 3.62137 -1.69402 0
M  V30 7103 H 686.844 4.16246 -0.807192 0
M  V30 7104 C 685.303 3.34124 0.431577 0
M  V30 7105 O 685.833 3.7445 1.45431 0
M  V30 7106 N 684.039 2.87229 0.441321 0
M  V30 7107 H 683.586 2.54609 -0.391433 0
M  V30 7108 H 683.544 2.8585 1.30909 0
M  V30 7109 N 687.317 1.12792 1.10072 0
M  V30 7110 C 688.265 0.794523 2.18609 0
M  V30 7111 C 689.259 -0.220271 1.67962 0
M  V30 7112 O 690.465 -0.0780938 1.79831 0
M  V30 7113 H 686.84 0.239123 0.712969 0
M  V30 7114 H 688.811 1.71823 2.43966 0
M  V30 7115 C 687.56 0.269548 3.46654 0
M  V30 7116 H 686.883 1.04171 3.8599 0
M  V30 7117 H 688.323 0.0746242 4.23934 0
M  V30 7118 C 686.782 -1.00333 3.21613 0
M  V30 7119 O 687.312 -2.08042 3.4363 0
M  V30 7120 N 685.518 -0.931763 2.75257 0
M  V30 7121 H 685.065 -0.0551197 2.57541 0
M  V30 7122 H 685.023 -1.78405 2.58881 0
M  V30 7123 N 688.795 -1.27931 0.920396 0
M  V30 7124 C 690.023 -1.98805 0.573087 0
M  V30 7125 C 690.438 -1.68724 -0.847201 0
M  V30 7126 O 689.795 -0.943699 -1.56207 0
M  V30 7127 C 689.846 -3.52971 0.780633 0
M  V30 7128 O 689.567 -3.81994 2.14504 0
M  V30 7129 C 691.068 -4.411 0.44105 0
M  V30 7130 H 688.288 -0.634651 0.21785 0
M  V30 7131 H 690.832 -1.62965 1.23542 0
M  V30 7132 H 688.987 -3.87048 0.165204 0
M  V30 7133 H 689.401 -4.76609 2.18962 0
M  V30 7134 H 690.875 -5.48312 0.637006 0
M  V30 7135 H 691.352 -4.34758 -0.62306 0
M  V30 7136 H 691.958 -4.12532 1.0343 0
M  V30 7137 N 690.273 -0.685099 -1.4193 0
M  V30 7138 C 691.684 -0.287699 -1.8447 0
M  V30 7139 C 692.035 1.17215 -1.57338 0
M  V30 7140 O 691.16 1.89856 -1.03845 0
M  V30 7141 C 691.755 -0.515385 -3.34857 0
M  V30 7142 C 690.314 -0.172006 -3.76007 0
M  V30 7143 C 689.461 -0.802808 -2.65425 0
M  V30 7144 H 692.412 -0.88652 -1.3163 0
M  V30 7145 H 692.433 0.229251 -3.79809 0
M  V30 7146 H 691.945 -1.57796 -3.54573 0
M  V30 7147 H 690.046 0.886716 -3.61895 0
M  V30 7148 H 690.159 -0.619717 -4.75075 0
M  V30 7149 H 688.523 -0.233267 -2.5363 0
M  V30 7150 H 689.306 -1.86904 -2.87961 0
M  V30 7151 N 691.751 1.51645 -0.429126 0
M  V30 7152 C 692.999 2.01616 0.139802 0
M  V30 7153 C 693.32 1.31568 1.43927 0
M  V30 7154 O 692.59 0.447688 1.90716 0
M  V30 7155 H 691.17 0.744998 0.054654 0
M  V30 7156 H 693.832 1.8638 -0.569952 0
M  V30 7157 H 692.928 3.10439 0.321609 0
M  V30 7158 N 693.229 0.160201 1.56784 0
M  V30 7159 C 694.192 -0.760405 2.16219 0
M  V30 7160 C 695.192 -1.16595 1.10735 0
M  V30 7161 O 696.382 -1.08472 1.36306 0
M  V30 7162 C 693.514 -2.03358 2.73603 0
M  V30 7163 H 694.707 -0.243173 2.98912 0
M  V30 7164 H 692.26 -0.0893139 1.56045 0
M  V30 7165 H 692.995 -2.59416 1.94612 0
M  V30 7166 H 692.78 -1.75186 3.50788 0
M  V30 7167 H 694.27 -2.69081 3.19351 0
M  V30 7168 N 694.707 -1.5719 -0.113559 0
M  V30 7169 C 695.937 -1.89053 -0.833212 0
M  V30 7170 C 696.345 -0.750139 -1.73694 0
M  V30 7171 O 695.688 0.287808 -1.81431 0
M  V30 7172 C 695.75 -3.15986 -1.71443 0
M  V30 7173 C 695.414 -4.46271 -0.984449 0
M  V30 7174 C 696.411 -5.18897 -0.322741 0
M  V30 7175 C 694.096 -4.92963 -0.964011 0
M  V30 7176 C 696.09 -6.3644 0.349646 0
M  V30 7177 C 693.777 -6.10422 -0.287828 0
M  V30 7178 C 694.775 -6.82009 0.36784 0
M  V30 7179 O 694.463 -7.97233 1.03322 0
M  V30 7180 H 694.195 -0.630225 -0.244526 0
M  V30 7181 H 696.749 -2.05152 -0.100847 0
M  V30 7182 H 694.979 -2.95984 -2.48858 0
M  V30 7183 H 696.668 -3.33826 -2.309 0
M  V30 7184 H 697.434 -4.83875 -0.330114 0
M  V30 7185 H 693.313 -4.37143 -1.46379 0
M  V30 7186 H 696.857 -6.92254 0.861996 0
M  V30 7187 H 692.754 -6.449 -0.278237 0
M  V30 7188 H 693.522 -8.13105 0.938247 0
M  V30 7189 N 696.185 0.383891 -1.52853 0
M  V30 7190 C 697.115 1.47559 -1.80965 0
M  V30 7191 C 698.096 1.5669 -0.661986 0
M  V30 7192 O 699.281 1.71556 -0.910072 0
M  V30 7193 C 696.411 2.85114 -1.98312 0
M  V30 7194 C 695.365 2.9082 -3.14019 0
M  V30 7195 C 694.691 4.30873 -3.16627 0
M  V30 7196 C 695.991 2.60001 -4.52986 0
M  V30 7197 H 697.685 1.24283 -2.72386 0
M  V30 7198 H 695.231 0.596445 -1.31067 0
M  V30 7199 H 697.184 3.61496 -2.16561 0
M  V30 7200 H 695.908 3.09738 -1.03585 0
M  V30 7201 H 694.567 2.16886 -2.9556 0
M  V30 7202 H 694.215 4.52545 -2.19573 0
M  V30 7203 H 693.915 4.3561 -3.94357 0
M  V30 7204 H 695.439 5.09154 -3.37038 0
M  V30 7205 H 696.853 3.261 -4.71521 0
M  V30 7206 H 695.25 2.76081 -5.32822 0
M  V30 7207 H 696.32 1.5532 -4.59351 0
M  V30 7208 N 697.663 1.43903 0.642637 0
M  V30 7209 C 698.593 1.52697 1.76652 0
M  V30 7210 C 699.574 0.380816 1.65782 0
M  V30 7211 O 700.759 0.599432 1.84717 0
M  V30 7212 C 697.889 1.45975 3.15133 0
M  V30 7213 C 696.843 2.58949 3.40778 0
M  V30 7214 C 696.169 2.37279 4.79169 0
M  V30 7215 C 697.469 4.01153 3.34475 0
M  V30 7216 H 699.163 2.46766 1.69549 0
M  V30 7217 H 696.709 1.18767 0.814279 0
M  V30 7218 H 698.662 1.5073 3.93521 0
M  V30 7219 H 697.386 0.484162 3.22991 0
M  V30 7220 H 696.045 2.53564 2.64765 0
M  V30 7221 H 695.693 1.37939 4.83717 0
M  V30 7222 H 695.393 3.13016 4.97287 0
M  V30 7223 H 696.917 2.43834 5.59801 0
M  V30 7224 H 698.331 4.07968 4.02784 0
M  V30 7225 H 696.728 4.77001 3.64129 0
M  V30 7226 H 697.798 4.25539 2.32475 0
M  V30 7227 N 699.141 -0.881989 1.30609 0
M  V30 7228 C 700.366 -1.67236 1.22665 0
M  V30 7229 C 700.791 -1.8696 -0.206777 0
M  V30 7230 O 700.149 -1.4027 -1.14865 0
M  V30 7231 C 700.197 -3.02446 1.96363 0
M  V30 7232 O 699.301 -3.91614 1.29276 0
M  V30 7233 H 698.642 -0.510902 0.424117 0
M  V30 7234 H 701.172 -1.10055 1.72479 0
M  V30 7235 H 701.182 -3.52468 2.055 0
M  V30 7236 H 699.857 -2.8741 3.00613 0
M  V30 7237 H 698.434 -3.50055 1.28514 0
M  V30 7238 N 700.619 -1.13374 -1.09472 0
M  V30 7239 C 701.865 -0.896516 -1.81908 0
M  V30 7240 C 702.198 0.575933 -1.85463 0
M  V30 7241 O 701.473 1.42618 -1.32251 0
M  V30 7242 C 701.756 -1.48445 -3.28079 0
M  V30 7243 C 701.609 -3.02598 -3.32798 0
M  V30 7244 C 702.928 -1.15226 -4.24748 0
M  V30 7245 H 700.047 -0.327127 -0.660422 0
M  V30 7246 H 702.689 -1.40195 -1.2824 0
M  V30 7247 H 700.839 -1.0546 -3.73912 0
M  V30 7248 H 702.511 -3.54335 -2.95372 0
M  V30 7249 H 700.754 -3.37613 -2.72397 0
M  V30 7250 H 701.425 -3.38835 -4.3577 0
M  V30 7251 H 703.901 -1.52369 -3.87199 0
M  V30 7252 H 702.777 -1.59012 -5.25363 0
M  V30 7253 H 703.038 -0.0658891 -4.42051 0
M  V30 7254 N 702.098 1.27442 -0.927168 0
M  V30 7255 C 703.323 1.99036 -0.583042 0
M  V30 7256 C 703.748 1.68711 0.83176 0
M  V30 7257 O 703.106 0.927081 1.55804 0
M  V30 7258 C 703.154 3.51271 -0.814925 0
M  V30 7259 O 702.258 4.12226 0.119742 0
M  V30 7260 H 701.599 0.624883 -0.224538 0
M  V30 7261 H 704.129 1.62263 -1.24628 0
M  V30 7262 H 704.139 4.01411 -0.730282 0
M  V30 7263 H 702.814 3.72676 -1.84623 0
M  V30 7264 H 701.391 3.72897 -0.0147688 0
M  V30 7265 N 703.576 0.692616 1.41565 0
M  V30 7266 C 704.539 0.0344174 2.29174 0
M  V30 7267 C 705.539 -0.710961 1.44229 0
M  V30 7268 O 706.729 -0.546293 1.65412 0
M  V30 7269 C 703.861 -0.961682 3.27054 0
M  V30 7270 H 705.054 0.805755 2.88873 0
M  V30 7271 H 702.607 0.455947 1.49502 0
M  V30 7272 H 703.342 -1.76089 2.72329 0
M  V30 7273 H 703.127 -0.430375 3.89731 0
M  V30 7274 H 704.617 -1.4201 3.92712 0
M  V30 7275 N 705.054 -1.51416 0.437162 0
M  V30 7276 C 706.47 -1.59349 0.0894459 0
M  V30 7277 C 706.67 -1.44809 -1.40116 0
M  V30 7278 O 705.726 -1.28924 -2.17106 0
M  V30 7279 C 707.039 -2.9446 0.609398 0
M  V30 7280 C 708.587 -3.07769 0.569824 0
M  V30 7281 C 709.062 -4.45404 1.06675 0
M  V30 7282 N 710.553 -4.51723 1.02473 0
M  V30 7283 C 711.288 -5.56544 1.3801 0
M  V30 7284 N 710.784 -6.68784 1.80831 0
M  V30 7285 N 712.577 -5.46901 1.29828 0
M  V30 7286 H 704.728 -1.59112 1.40703 0
M  V30 7287 H 706.991 -0.750031 0.579791 0
M  V30 7288 H 706.697 -3.1047 1.65231 0
M  V30 7289 H 706.571 -3.77184 0.0342236 0
M  V30 7290 H 708.958 -2.91428 -0.464107 0
M  V30 7291 H 709.039 -2.26885 1.1814 0
M  V30 7292 H 708.683 -4.62492 2.09914 0
M  V30 7293 H 708.613 -5.24827 0.431712 0
M  V30 7294 H 711.104 -3.71165 0.710258 0
M  V30 7295 H 711.417 -7.44787 2.06185 0
M  V30 7296 H 709.762 -6.69992 1.84757 0
M  V30 7297 H 712.953 -4.581 0.962397 0
M  V30 7298 H 713.126 -6.2848 1.57851 0
M  V30 7299 N 706.532 -0.168513 -1.56696 0
M  V30 7300 C 707.809 0.523367 -1.88468 0
M  V30 7301 C 708.189 1.81503 -1.07796 0
M  V30 7302 O 707.537 2.27859 -0.171045 0
M  V30 7303 C 707.747 0.767991 -3.40445 0
M  V30 7304 C 709.095 1.09924 -4.10124 0
M  V30 7305 O 710.119 0.856625 -3.45746 0
M  V30 7306 O 708.978 1.55681 -5.23856 0
M  V30 7307 H 706.072 0.269447 -0.781874 0
M  V30 7308 H 708.618 -0.206739 -1.68436 0
M  V30 7309 H 707.39 -0.145254 -3.9103 0
M  V30 7310 H 707.013 1.55151 -3.66079 0
M  V30 7311 N 708.01 1.57248 0.105221 0
M  V30 7312 C 709.421 1.74612 0.660865 0
M  V30 7313 C 709.772 0.789231 1.79626 0
M  V30 7314 O 708.897 -0.0346611 2.16372 0
M  V30 7315 C 709.492 3.16624 1.20559 0
M  V30 7316 C 708.051 3.35447 1.7074 0
M  V30 7317 C 707.198 2.70445 0.612764 0
M  V30 7318 H 710.149 1.5824 -0.12079 0
M  V30 7319 H 710.17 3.18937 2.07508 0
M  V30 7320 H 709.682 3.86245 0.379012 0
M  V30 7321 H 707.783 2.7089 2.5583 0
M  V30 7322 H 707.896 4.43702 1.80736 0
M  V30 7323 H 706.26 2.32061 1.04975 0
M  V30 7324 H 707.043 3.42699 -0.203066 0
M  V30 7325 N 709.488 -0.375779 1.53054 0
M  V30 7326 C 710.765 -1.13453 1.59336 0
M  V30 7327 C 711.145 -2.07379 0.394614 0
M  V30 7328 O 710.493 -2.2004 -0.616 0
M  V30 7329 C 710.703 -1.8826 2.93869 0
M  V30 7330 C 712.051 -2.43155 3.48081 0
M  V30 7331 O 713.075 -1.984 2.95831 0
M  V30 7332 O 711.934 -3.24944 4.39401 0
M  V30 7333 H 709.028 -0.519856 0.643179 0
M  V30 7334 H 711.574 -0.379865 1.65394 0
M  V30 7335 H 710.346 -1.19652 3.72558 0
M  V30 7336 H 709.969 -2.70658 2.91256 0
M  V30 7337 N 710.966 -1.44241 -0.634997 0
M  V30 7338 C 711.896 -1.53632 -1.7584 0
M  V30 7339 C 712.877 -0.389603 -1.65578 0
M  V30 7340 O 714.062 -0.609219 -1.84397 0
M  V30 7341 C 711.192 -1.47644 -3.14354 0
M  V30 7342 C 710.146 -2.60752 -3.394 0
M  V30 7343 C 709.472 -2.39817 -4.77904 0
M  V30 7344 C 710.772 -4.02921 -3.32343 0
M  V30 7345 H 712.466 -2.47662 -1.68238 0
M  V30 7346 H 710.012 -1.19197 -0.807969 0
M  V30 7347 H 711.965 -1.52815 -3.92716 0
M  V30 7348 H 710.689 -0.501284 -3.2273 0
M  V30 7349 H 709.348 -2.54965 -2.63417 0
M  V30 7350 H 708.996 -1.40502 -4.82978 0
M  V30 7351 H 708.696 -3.15649 -4.9562 0
M  V30 7352 H 710.22 -2.46799 -5.585 0
M  V30 7353 H 711.634 -4.10098 -4.00615 0
M  V30 7354 H 710.031 -4.78925 -3.61595 0
M  V30 7355 H 711.101 -4.26766 -2.30215 0
M  V30 7356 N 712.444 0.87505 -1.31075 0
M  V30 7357 C 713.692 1.62447 -1.20231 0
M  V30 7358 C 714.013 1.93506 0.240888 0
M  V30 7359 O 713.283 1.57847 1.16022 0
M  V30 7360 H 711.863 0.602207 -0.441991 0
M  V30 7361 H 714.525 1.04788 -1.64334 0
M  V30 7362 H 713.621 2.57031 -1.77036 0
M  V30 7363 N 713.922 1.13953 1.08869 0
M  V30 7364 C 714.852 0.844824 2.17681 0
M  V30 7365 C 715.833 -0.198213 1.68941 0
M  V30 7366 O 717.018 -0.0559073 1.9412 0
M  V30 7367 C 714.148 0.316325 3.45856 0
M  V30 7368 C 713.102 1.29426 4.07962 0
M  V30 7369 C 712.428 0.625275 5.31031 0
M  V30 7370 C 713.728 2.65484 4.49795 0
M  V30 7371 H 715.422 1.75471 2.42591 0
M  V30 7372 H 712.968 0.845116 1.16592 0
M  V30 7373 H 714.921 0.0977876 4.21287 0
M  V30 7374 H 713.645 -0.628972 3.20486 0
M  V30 7375 H 712.304 1.49889 3.34558 0
M  V30 7376 H 711.952 -0.325678 5.01945 0
M  V30 7377 H 711.652 1.27777 5.73539 0
M  V30 7378 H 713.176 0.416152 6.0918 0
M  V30 7379 H 714.59 2.48957 5.16424 0
M  V30 7380 H 712.987 3.26963 5.03205 0
M  V30 7381 H 714.057 3.22717 3.61914 0
M  V30 7382 N 715.4 -1.26948 0.933913 0
M  V30 7383 C 716.348 -2.2862 0.428463 0
M  V30 7384 C 717.342 -1.62144 -0.490464 0
M  V30 7385 O 718.548 -1.76167 -0.36948 0
M  V30 7386 H 714.923 -0.742363 0.120003 0
M  V30 7387 H 716.894 -2.68659 1.29865 0
M  V30 7388 C 715.643 -3.46423 -0.29774 0
M  V30 7389 H 714.966 -3.97792 0.400183 0
M  V30 7390 H 716.406 -4.19505 -0.615736 0
M  V30 7391 C 714.865 -3.01017 -1.51295 0
M  V30 7392 O 715.395 -3.05226 -2.61151 0
M  V30 7393 N 713.601 -2.56442 -1.36696 0
M  V30 7394 H 713.148 -2.53217 -0.473178 0
M  V30 7395 H 713.106 -2.26424 -2.18127 0
M  V30 7396 N 716.879 -0.700114 -1.41195 0
M  V30 7397 C 718.127 -0.232546 -2.00758 0
M  V30 7398 C 718.448 1.1734 -1.55745 0
M  V30 7399 O 717.718 1.79262 -0.790058 0
M  V30 7400 H 716.298 -0.0829845 -0.742376 0
M  V30 7401 H 718.96 -0.902289 -1.72756 0
M  V30 7402 H 718.056 -0.253521 -3.11069 0
M  V30 7403 N 718.357 1.51182 -0.445186 0
M  V30 7404 C 719.582 2.07056 0.119445 0
M  V30 7405 C 720.007 1.30966 1.35016 0
M  V30 7406 O 719.365 0.349827 1.77893 0
M  V30 7407 C 719.413 3.58234 0.412428 0
M  V30 7408 O 718.517 3.84249 1.49754 0
M  V30 7409 H 717.858 0.663998 -0.00157797 0
M  V30 7410 H 720.388 1.94699 -0.628779 0
M  V30 7411 H 720.398 4.02617 0.660583 0
M  V30 7412 H 719.073 4.13038 -0.487049 0
M  V30 7413 H 717.65 3.51724 1.23873 0
M  V30 7414 N 719.835 0.176821 1.56605 0
M  V30 7415 C 721.081 -0.467406 1.9734 0
M  V30 7416 C 721.414 -1.62523 1.06301 0
M  V30 7417 O 720.689 -1.94182 0.11125 0
M  V30 7418 C 720.972 -0.945106 3.47476 0
M  V30 7419 C 720.825 0.213273 4.49294 0
M  V30 7420 C 722.144 -1.8169 4.00845 0
M  V30 7421 H 719.263 -0.168426 0.717497 0
M  V30 7422 H 721.905 0.264065 1.88156 0
M  V30 7423 H 720.055 -1.56841 3.55434 0
M  V30 7424 H 721.727 0.850508 4.53392 0
M  V30 7425 H 719.97 0.867918 4.25029 0
M  V30 7426 H 720.641 -0.163187 5.51759 0
M  V30 7427 H 723.117 -1.29139 3.95553 0
M  V30 7428 H 721.993 -2.12015 5.06301 0
M  V30 7429 H 722.254 -2.76463 3.44994 0
M  V30 7430 N 721.313 -1.57302 -0.09688 0
M  V30 7431 C 722.538 -1.9058 -0.818169 0
M  V30 7432 C 722.963 -0.770921 -1.71576 0
M  V30 7433 O 722.321 0.277588 -1.79162 0
M  V30 7434 C 722.369 -3.22714 -1.60898 0
M  V30 7435 O 721.473 -3.10178 -2.71779 0
M  V30 7436 H 720.814 -0.624759 -0.224882 0
M  V30 7437 H 723.344 -2.04471 -0.07264 0
M  V30 7438 H 723.354 -3.55978 -1.99358 0
M  V30 7439 H 722.029 -4.04899 -0.950227 0
M  V30 7440 H 720.606 -2.88424 -2.3636 0
M  V30 7441 N 722.791 0.367657 -1.53252 0
M  V30 7442 C 724.021 1.12955 -1.72988 0
M  V30 7443 C 724.429 1.8358 -0.457708 0
M  V30 7444 O 723.772 1.74336 0.579006 0
M  V30 7445 C 723.834 2.20545 -2.83902 0
M  V30 7446 C 723.498 1.69704 -4.24323 0
M  V30 7447 C 724.495 1.16223 -5.06743 0
M  V30 7448 C 722.18 1.7528 -4.70725 0
M  V30 7449 C 724.174 0.689935 -6.33655 0
M  V30 7450 C 721.861 1.27662 -5.97617 0
M  V30 7451 C 722.859 0.746083 -6.78913 0
M  V30 7452 O 722.547 0.276925 -8.03423 0
M  V30 7453 H 722.279 0.343753 -0.582074 0
M  V30 7454 H 724.833 0.433106 -2.00782 0
M  V30 7455 H 723.063 2.93676 -2.51577 0
M  V30 7456 H 724.752 2.82111 -2.91836 0
M  V30 7457 H 725.518 1.11256 -4.72067 0
M  V30 7458 H 721.397 2.15515 -4.07522 0
M  V30 7459 H 724.941 0.275164 -6.97057 0
M  V30 7460 H 720.838 1.32322 -6.31792 0
M  V30 7461 H 721.606 0.396445 -8.17539 0
M  V30 7462 N 724.269 1.44576 0.627338 0
M  V30 7463 C 725.201 1.47724 1.75243 0
M  V30 7464 C 726.214 0.370193 1.58535 0
M  V30 7465 O 727.403 0.636151 1.66779 0
M  V30 7466 C 724.503 1.2991 3.13012 0
M  V30 7467 C 723.676 2.5393 3.56143 0
M  V30 7468 C 722.735 2.30961 4.72804 0
M  V30 7469 O 721.761 3.04469 4.80923 0
M  V30 7470 N 722.963 1.34261 5.6476 0
M  V30 7471 H 725.728 2.44718 1.73012 0
M  V30 7472 H 723.289 1.40064 0.812022 0
M  V30 7473 H 725.281 1.12385 3.88782 0
M  V30 7474 H 723.851 0.412668 3.09864 0
M  V30 7475 H 723.071 2.86707 2.70542 0
M  V30 7476 H 724.359 3.36411 3.81713 0
M  V30 7477 H 723.757 0.735573 5.60897 0
M  V30 7478 H 722.314 1.22713 6.40144 0
M  V30 7479 N 725.747 -0.868086 1.31537 0
M  V30 7480 C 726.996 -1.61607 1.20689 0
M  V30 7481 C 727.309 -1.94204 -0.233275 0
M  V30 7482 O 728.515 -2.67515 -0.463465 0
M  V30 7483 C 726.971 -2.91348 2.11292 0
M  V30 7484 C 726.579 -2.66227 3.60315 0
M  V30 7485 C 728.323 -3.69344 2.09249 0
M  V30 7486 C 726.23 -3.91887 4.42921 0
M  V30 7487 H 725.16 -0.606373 0.448138 0
M  V30 7488 H 727.811 -0.959666 1.56405 0
M  V30 7489 H 726.193 -3.58374 1.68477 0
M  V30 7490 H 727.367 -2.07597 4.11388 0
M  V30 7491 H 725.682 -2.01582 3.64354 0
M  V30 7492 H 728.279 -4.62567 2.68209 0
M  V30 7493 H 728.622 -4.02044 1.0801 0
M  V30 7494 H 729.155 -3.09205 2.50274 0
M  V30 7495 H 725.894 -3.64336 5.44922 0
M  V30 7496 H 725.414 -4.49961 3.96605 0
M  V30 7497 H 727.093 -4.59754 4.55231 0
M  V30 7498 N 727.225 -1.14528 -1.08264 0
M  V30 7499 C 728.471 -0.91576 -1.80947 0
M  V30 7500 C 728.804 0.55623 -1.86064 0
M  V30 7501 O 728.079 1.41207 -1.33756 0
M  V30 7502 C 728.362 -1.51917 -3.26486 0
M  V30 7503 C 728.215 -3.06111 -3.2957 0
M  V30 7504 C 729.534 -1.19724 -4.23502 0
M  V30 7505 H 726.653 -0.334113 -0.656915 0
M  V30 7506 H 729.295 -1.41547 -1.26746 0
M  V30 7507 H 727.445 -1.0942 -3.72773 0
M  V30 7508 H 729.117 -3.57448 -2.91597 0
M  V30 7509 H 727.36 -3.40483 -2.688 0
M  V30 7510 H 728.031 -3.43438 -4.32151 0
M  V30 7511 H 730.507 -1.56467 -3.85561 0
M  V30 7512 H 729.383 -1.64575 -5.23647 0
M  V30 7513 H 729.644 -0.112771 -4.41956 0
M  V30 7514 N 728.703 1.26451 -0.940633 0
M  V30 7515 C 730.114 1.75726 -0.630653 0
M  V30 7516 C 730.465 1.76631 0.854167 0
M  V30 7517 O 729.59 1.37807 1.66848 0
M  V30 7518 C 730.185 3.19114 -1.13805 0
M  V30 7519 C 728.744 3.66005 -0.878497 0
M  V30 7520 C 727.891 2.45505 -1.28928 0
M  V30 7521 H 730.842 1.12535 -1.119 0
M  V30 7522 H 730.863 3.77311 -0.491625 0
M  V30 7523 H 730.375 3.18424 -2.21874 0
M  V30 7524 H 728.476 3.72126 0.187833 0
M  V30 7525 H 728.589 4.54844 -1.50512 0
M  V30 7526 H 726.953 2.4467 -0.707713 0
M  V30 7527 H 727.736 2.47516 -2.37888 0
M  V30 7528 N 730.181 0.707592 1.40822 0
M  V30 7529 C 731.406 0.251626 2.05868 0
M  V30 7530 C 731.831 -1.09503 1.5294 0
M  V30 7531 O 731.189 -1.68806 0.661385 0
M  V30 7532 C 731.237 0.23287 3.59847 0
M  V30 7533 O 730.341 -0.788477 4.04792 0
M  V30 7534 H 729.682 0.119936 0.653078 0
M  V30 7535 H 732.212 0.96583 1.80369 0
M  V30 7536 H 732.222 0.0678204 4.07944 0
M  V30 7537 H 730.897 1.21565 3.97737 0
M  V30 7538 H 729.474 -0.591802 3.68174 0
M  V30 7539 N 731.66 -1.50943 0.453197 0
M  V30 7540 C 732.592 -2.25922 -0.38623 0
M  V30 7541 C 733.605 -1.3055 -0.972652 0
M  V30 7542 O 734.794 -1.56191 -0.864097 0
M  V30 7543 C 731.894 -3.01176 -1.5539 0
M  V30 7544 C 731.067 -4.23768 -1.0835 0
M  V30 7545 C 730.126 -4.81466 -2.12313 0
M  V30 7546 O 729.152 -5.42875 -1.71101 0
M  V30 7547 N 730.354 -4.66889 -3.44956 0
M  V30 7548 H 733.119 -2.98601 0.256468 0
M  V30 7549 H 730.68 -1.59408 0.282965 0
M  V30 7550 H 732.672 -3.36659 -2.24594 0
M  V30 7551 H 731.242 -2.31409 -2.10163 0
M  V30 7552 H 730.462 -3.93597 -0.217961 0
M  V30 7553 H 731.75 -5.03289 -0.746857 0
M  V30 7554 H 731.148 -4.18011 -3.81161 0
M  V30 7555 H 729.705 -5.06691 -4.1001 0
M  V30 7556 N 733.138 -0.185124 -1.56509 0
M  V30 7557 C 734.384 0.456934 -1.97585 0
M  V30 7558 C 734.717 1.61957 -1.07161 0
M  V30 7559 O 733.992 1.9412 -0.121546 0
M  V30 7560 C 734.275 0.926666 -3.47973 0
M  V30 7561 C 734.128 -0.237097 -4.49175 0
M  V30 7562 C 735.447 1.79561 -4.01803 0
M  V30 7563 H 732.566 0.164619 -0.71838 0
M  V30 7564 H 735.208 -0.274039 -1.88013 0
M  V30 7565 H 733.358 1.54954 -3.56261 0
M  V30 7566 H 735.03 -0.87454 -4.52934 0
M  V30 7567 H 733.273 -0.890446 -4.24563 0
M  V30 7568 H 733.944 0.133924 -5.51838 0
M  V30 7569 H 736.42 1.27039 -3.96232 0
M  V30 7570 H 735.296 2.09327 -5.07418 0
M  V30 7571 H 735.557 2.74629 -3.46455 0
M  V30 7572 N 734.616 1.57351 0.0885366 0
M  V30 7573 C 736.032 1.53331 0.442916 0
M  V30 7574 C 736.232 0.902831 1.80142 0
M  V30 7575 O 735.288 0.498147 2.47537 0
M  V30 7576 C 736.601 2.98036 0.399372 0
M  V30 7577 C 738.149 3.09286 0.480759 0
M  V30 7578 C 738.624 4.5561 0.467296 0
M  V30 7579 N 740.115 4.60182 0.52786 0
M  V30 7580 C 740.85 5.70857 0.539388 0
M  V30 7581 N 740.346 6.90944 0.506729 0
M  V30 7582 N 742.139 5.59051 0.584691 0
M  V30 7583 H 734.29 1.96709 -0.801215 0
M  V30 7584 H 736.553 0.899639 -0.298922 0
M  V30 7585 H 736.259 3.47656 -0.531806 0
M  V30 7586 H 736.133 3.57066 1.21589 0
M  V30 7587 H 738.52 2.5965 1.40236 0
M  V30 7588 H 738.601 2.53197 -0.364023 0
M  V30 7589 H 738.245 5.05899 -0.450384 0
M  V30 7590 H 738.175 5.09544 1.32938 0
M  V30 7591 H 740.666 3.73757 0.558028 0
M  V30 7592 H 740.979 7.71055 0.518989 0
M  V30 7593 H 739.324 6.93384 0.473675 0
M  V30 7594 H 742.515 4.64138 0.607781 0
M  V30 7595 H 742.688 6.45307 0.590206 0
M  V30 7596 N 736.094 -0.359525 1.53444 0
M  V30 7597 C 737.371 -1.11756 1.6053 0
M  V30 7598 C 737.751 -2.06949 0.416587 0
M  V30 7599 O 737.099 -2.20681 -0.592628 0
M  V30 7600 C 737.309 -1.85133 2.95849 0
M  V30 7601 C 738.657 -2.3945 3.50641 0
M  V30 7602 O 739.681 -1.95251 2.97918 0
M  V30 7603 O 738.54 -3.20266 4.42823 0
M  V30 7604 H 735.634 -0.513005 0.648656 0
M  V30 7605 H 738.18 -0.362301 1.65787 0
M  V30 7606 H 736.952 -1.15694 3.73806 0
M  V30 7607 H 736.575 -2.67554 2.9411 0
M  V30 7608 N 737.572 -1.44907 -0.619662 0
M  V30 7609 C 738.505 -1.47133 -1.74434 0
M  V30 7610 C 739.483 -0.328933 -1.59238 0
M  V30 7611 O 740.667 -0.527632 -1.80965 0
M  V30 7612 C 737.794 -1.31491 -3.12134 0
M  V30 7613 C 736.84 -2.49441 -3.4595 0
M  V30 7614 S 737.673 -4.11945 -3.42142 0
M  V30 7615 C 738.829 -3.98747 -4.82443 0
M  V30 7616 H 739.062 -2.42295 -1.7228 0
M  V30 7617 H 736.595 -1.32343 -0.795276 0
M  V30 7618 H 738.553 -1.23153 -3.91591 0
M  V30 7619 H 737.214 -0.378203 -3.11815 0
M  V30 7620 H 736.407 -2.3439 -4.46181 0
M  V30 7621 H 736.009 -2.54577 -2.73982 0
M  V30 7622 H 738.301 -3.63145 -5.71954 0
M  V30 7623 H 739.244 -4.98848 -5.0255 0
M  V30 7624 H 739.652 -3.30608 -4.57557 0
M  V30 7625 N 739.05 0.861098 -1.31996 0
M  V30 7626 C 740.461 1.43065 -1.19955 0
M  V30 7627 C 740.812 1.95273 0.190489 0
M  V30 7628 O 739.937 1.87012 1.08882 0
M  V30 7629 C 740.532 2.60052 -2.1716 0
M  V30 7630 C 739.091 3.13026 -2.09026 0
M  V30 7631 C 738.238 1.85756 -2.05888 0
M  V30 7632 H 741.189 0.668834 -1.43918 0
M  V30 7633 H 741.21 3.37016 -1.76637 0
M  V30 7634 H 740.722 2.22024 -3.18319 0
M  V30 7635 H 738.823 3.55653 -1.11092 0
M  V30 7636 H 738.936 3.74707 -2.98549 0
M  V30 7637 H 737.3 2.05088 -1.51033 0
M  V30 7638 H 738.083 1.49954 -3.08818 0
M  V30 7639 N 740.528 1.15101 1.07655 0
M  V30 7640 C 741.774 0.925343 1.80458 0
M  V30 7641 C 742.107 -0.546354 1.86356 0
M  V30 7642 O 741.382 -1.40496 1.34503 0
M  V30 7643 C 741.665 1.53646 3.25676 0
M  V30 7644 C 741.518 3.07854 3.27942 0
M  V30 7645 C 742.837 1.21968 4.22861 0
M  V30 7646 H 739.956 0.337592 0.655134 0
M  V30 7647 H 742.598 1.42217 1.25993 0
M  V30 7648 H 740.748 1.11395 3.72187 0
M  V30 7649 H 742.42 3.58989 2.89697 0
M  V30 7650 H 740.663 3.41904 2.66991 0
M  V30 7651 H 741.334 3.45725 4.30324 0
M  V30 7652 H 743.81 1.5851 3.84726 0
M  V30 7653 H 742.686 1.67349 5.22767 0
M  V30 7654 H 742.947 0.136207 4.4189 0
M  V30 7655 N 742.006 -1.2595 0.947325 0
M  V30 7656 C 743.253 -1.93463 0.598178 0
M  V30 7657 C 743.581 -1.74271 -0.863705 0
M  V30 7658 O 742.836 -1.07684 -1.63409 0
M  V30 7659 C 743.135 -3.46034 0.894158 0
M  V30 7660 C 742.801 -3.85373 2.3409 0
M  V30 7661 C 741.463 -3.95823 2.73637 0
M  V30 7662 C 743.815 -4.04986 3.2808 0
M  V30 7663 C 741.143 -4.23288 4.06257 0
M  V30 7664 C 743.495 -4.3394 4.60303 0
M  V30 7665 C 742.159 -4.42606 4.99656 0
M  V30 7666 H 741.429 -0.707933 0.218889 0
M  V30 7667 H 744.076 -1.4964 1.19499 0
M  V30 7668 H 742.381 -3.9121 0.214874 0
M  V30 7669 H 744.078 -3.96445 0.602698 0
M  V30 7670 H 740.668 -3.7779 2.02417 0
M  V30 7671 H 744.852 -3.96333 2.9872 0
M  V30 7672 H 740.108 -4.28211 4.36401 0
M  V30 7673 H 744.282 -4.48061 5.33118 0
M  V30 7674 H 741.909 -4.63641 6.02446 0
M  V30 7675 N 743.484 -0.715051 -1.40445 0
M  V30 7676 C 744.712 -0.263959 -2.05209 0
M  V30 7677 C 745.127 1.09403 -1.53871 0
M  V30 7678 O 744.484 1.68746 -0.695064 0
M  V30 7679 C 744.535 -0.234545 -3.60738 0
M  V30 7680 O 744.256 -1.53891 -4.10182 0
M  V30 7681 C 745.757 0.235164 -4.42676 0
M  V30 7682 H 742.977 -0.11876 -0.660407 0
M  V30 7683 H 745.521 -0.973107 -1.79864 0
M  V30 7684 H 743.676 0.425563 -3.85055 0
M  V30 7685 H 744.09 -1.43903 -5.04373 0
M  V30 7686 H 745.564 0.204598 -5.51621 0
M  V30 7687 H 746.041 1.27724 -4.20218 0
M  V30 7688 H 746.647 -0.394649 -4.23465 0
M  V30 7689 N 744.962 1.50701 -0.461195 0
M  V30 7690 C 746.192 2.06381 0.0950376 0
M  V30 7691 C 746.6 1.32627 1.34933 0
M  V30 7692 O 745.943 0.386137 1.79596 0
M  V30 7693 C 746.005 3.56558 0.458965 0
M  V30 7694 C 745.669 4.51732 -0.691891 0
M  V30 7695 C 746.666 4.95594 -1.57105 0
M  V30 7696 C 744.351 4.94542 -0.879407 0
M  V30 7697 C 746.345 5.80963 -2.62223 0
M  V30 7698 C 744.032 5.79695 -1.93382 0
M  V30 7699 C 745.03 6.22806 -2.80359 0
M  V30 7700 O 744.718 7.06265 -3.83986 0
M  V30 7701 H 744.45 0.676 0.000687488 0
M  V30 7702 H 747.004 1.94974 -0.646087 0
M  V30 7703 H 745.234 3.65832 1.25314 0
M  V30 7704 H 746.923 3.94647 0.949124 0
M  V30 7705 H 747.689 4.63197 -1.43783 0
M  V30 7706 H 743.568 4.60513 -0.211907 0
M  V30 7707 H 747.112 6.14533 -3.30143 0
M  V30 7708 H 743.009 6.11506 -2.06715 0
M  V30 7709 H 743.777 7.24494 -3.80855 0
M  V30 7710 N 746.441 0.193421 1.56409 0
M  V30 7711 C 747.687 -0.446449 1.97825 0
M  V30 7712 C 748.02 -1.61386 1.08019 0
M  V30 7713 O 747.295 -1.94053 0.131839 0
M  V30 7714 C 747.578 -0.908199 3.48459 0
M  V30 7715 C 747.431 0.260914 4.49043 0
M  V30 7716 C 748.75 -1.77428 4.0275 0
M  V30 7717 H 745.869 -0.160807 0.719243 0
M  V30 7718 H 748.511 0.284006 1.87865 0
M  V30 7719 H 746.661 -1.53062 3.57077 0
M  V30 7720 H 748.333 0.898548 4.52464 0
M  V30 7721 H 746.576 0.912949 4.24085 0
M  V30 7722 H 747.247 -0.104657 5.51901 0
M  V30 7723 H 749.723 -1.24936 3.96901 0
M  V30 7724 H 748.599 -2.06633 5.08521 0
M  V30 7725 H 748.86 -2.72788 3.47907 0
M  V30 7726 N 747.919 -1.57396 -0.0801906 0
M  V30 7727 C 749.144 -1.91437 -0.797909 0
M  V30 7728 C 749.569 -0.789075 -1.70749 0
M  V30 7729 O 748.927 0.25857 -1.79447 0
M  V30 7730 C 748.975 -3.24402 -1.57467 0
M  V30 7731 O 748.079 -3.13043 -2.68473 0
M  V30 7732 H 747.42 -0.627109 -0.218243 0
M  V30 7733 H 749.95 -2.04537 -0.050949 0
M  V30 7734 H 749.96 -3.58072 -1.95571 0
M  V30 7735 H 748.635 -4.05884 -0.907229 0
M  V30 7736 H 747.212 -2.90915 -2.33287 0
M  V30 7737 N 749.397 0.351382 -1.53633 0
M  V30 7738 C 750.646 1.08988 -1.69719 0
M  V30 7739 C 750.959 1.90043 -0.462948 0
M  V30 7740 O 752.165 2.66769 -0.504613 0
M  V30 7741 C 750.621 1.98691 -3.00083 0
M  V30 7742 C 750.229 1.22881 -4.30818 0
M  V30 7743 C 751.973 2.72446 -3.25536 0
M  V30 7744 C 749.88 2.11568 -5.52262 0
M  V30 7745 H 748.81 0.410588 -0.632403 0
M  V30 7746 H 751.461 0.349886 -1.80133 0
M  V30 7747 H 749.843 2.76478 -2.83506 0
M  V30 7748 H 751.017 0.500582 -4.58073 0
M  V30 7749 H 749.332 0.60928 -4.11918 0
M  V30 7750 H 751.929 3.39055 -4.13456 0
M  V30 7751 H 752.272 3.38588 -2.42206 0
M  V30 7752 H 752.805 2.01735 -3.42852 0
M  V30 7753 H 749.544 1.4998 -6.38111 0
M  V30 7754 H 749.064 2.82201 -5.29266 0
M  V30 7755 H 750.743 2.70802 -5.87601 0
M  V30 7756 N 750.875 1.45233 0.611969 0
M  V30 7757 C 751.823 1.53898 1.74408 0
M  V30 7758 C 752.817 0.409254 1.64382 0
M  V30 7759 O 754.023 0.584988 1.70229 0
M  V30 7760 H 750.398 0.483303 0.576127 0
M  V30 7761 H 752.369 2.49143 1.64227 0
M  V30 7762 C 751.118 1.51865 3.12782 0
M  V30 7763 H 750.441 2.38118 3.21154 0
M  V30 7764 H 751.881 1.61986 3.91838 0
M  V30 7765 C 750.34 0.242374 3.36027 0
M  V30 7766 O 750.87 -0.679587 3.9591 0
M  V30 7767 N 749.076 0.139448 2.90265 0
M  V30 7768 H 748.623 0.890571 2.41716 0
M  V30 7769 H 748.581 -0.713686 3.06193 0
M  V30 7770 N 752.353 -0.854086 1.3245 0
M  V30 7771 C 753.764 -1.42427 1.20712 0
M  V30 7772 C 754.115 -1.95371 -0.18013 0
M  V30 7773 O 753.24 -1.87587 -1.07889 0
M  V30 7774 C 753.835 -2.58897 2.18536 0
M  V30 7775 C 752.394 -3.11913 2.10683 0
M  V30 7776 C 751.541 -1.84661 2.06871 0
M  V30 7777 H 754.492 -0.661192 1.4427 0
M  V30 7778 H 754.513 -3.36074 1.78422 0
M  V30 7779 H 754.025 -2.20333 3.19492 0
M  V30 7780 H 752.126 -3.55059 1.12977 0
M  V30 7781 H 752.239 -3.73119 3.00532 0
M  V30 7782 H 750.603 -2.04285 1.52118 0
M  V30 7783 H 751.386 -1.48314 3.09609 0
M  V30 7784 N 753.831 -1.1567 -1.07043 0
M  V30 7785 C 754.779 -0.852204 -2.16426 0
M  V30 7786 C 755.773 0.175661 -1.68487 0
M  V30 7787 O 756.979 0.0303874 -1.79974 0
M  V30 7788 H 753.354 -0.257942 -0.706378 0
M  V30 7789 H 755.325 -1.78231 -2.39324 0
M  V30 7790 C 754.074 -0.361362 -3.45817 0
M  V30 7791 H 753.397 -1.14369 -3.83092 0
M  V30 7792 H 754.837 -0.186997 -4.23587 0
M  V30 7793 C 753.296 0.917703 -3.2416 0
M  V30 7794 O 753.826 1.98858 -3.49025 0
M  V30 7795 N 752.032 0.858456 -2.77631 0
M  V30 7796 H 751.579 -0.0131821 -2.57597 0
M  V30 7797 H 751.537 1.71478 -2.6352 0
M  V30 7798 N 755.309 1.25446 -0.953992 0
M  V30 7799 C 756.534 1.97755 -0.625129 0
M  V30 7800 C 756.959 1.70437 0.795787 0
M  V30 7801 O 756.317 0.95992 1.53803 0
M  V30 7802 C 756.365 3.49463 -0.889251 0
M  V30 7803 O 755.469 4.12387 0.0322757 0
M  V30 7804 H 754.81 0.61998 -0.237742 0
M  V30 7805 H 757.34 1.59582 -1.28041 0
M  V30 7806 H 757.35 3.99772 -0.815263 0
M  V30 7807 H 756.025 3.68676 -1.92487 0
M  V30 7808 H 754.602 3.72782 -0.0938625 0
M  V30 7809 N 756.787 0.722489 1.40064 0
M  V30 7810 C 758.035 0.264455 2.00362 0
M  V30 7811 C 758.356 -1.14847 1.57592 0
M  V30 7812 O 757.626 -1.77982 0.818477 0
M  V30 7813 H 756.206 0.0947846 0.740962 0
M  V30 7814 H 758.868 0.929659 1.71299 0
M  V30 7815 H 757.964 0.302977 3.10626 0
M  V30 7816 N 758.265 -1.50454 0.469181 0
M  V30 7817 C 759.542 -1.9504 -0.147955 0
M  V30 7818 C 759.922 -1.40946 -1.57154 0
M  V30 7819 O 759.27 -0.609663 -2.20217 0
M  V30 7820 C 759.48 -3.48875 -0.0932198 0
M  V30 7821 C 760.828 -4.23655 -0.283056 0
M  V30 7822 O 761.852 -3.55795 -0.169892 0
M  V30 7823 O 760.711 -5.44102 -0.511396 0
M  V30 7824 H 757.805 -0.819283 -0.11271 0
M  V30 7825 H 760.351 -1.6123 0.529446 0
M  V30 7826 H 759.123 -3.80791 0.900784 0
M  V30 7827 H 758.746 -3.89217 -0.812161 0
M  V30 7828 N 759.743 -0.201713 -1.56304 0
M  V30 7829 C 760.992 0.435557 -1.96941 0
M  V30 7830 C 761.305 1.62299 -1.09172 0
M  V30 7831 O 762.511 2.32849 -1.3962 0
M  V30 7832 C 760.967 0.826298 -3.50286 0
M  V30 7833 C 760.575 -0.337216 -4.46729 0
M  V30 7834 C 762.319 1.43028 -3.99679 0
M  V30 7835 C 760.226 0.0748539 -5.91353 0
M  V30 7836 H 759.156 0.1665 -0.735387 0
M  V30 7837 H 761.807 -0.294781 -1.81117 0
M  V30 7838 H 760.189 1.61349 -3.61639 0
M  V30 7839 H 761.363 -1.11476 -4.47113 0
M  V30 7840 H 759.678 -0.853126 -4.07567 0
M  V30 7841 H 762.275 1.75115 -5.05212 0
M  V30 7842 H 762.618 2.33911 -3.44371 0
M  V30 7843 H 763.151 0.706924 -3.91468 0
M  V30 7844 H 759.89 -0.799957 -6.506 0
M  V30 7845 H 759.41 0.817122 -5.94208 0
M  V30 7846 H 761.089 0.508389 -6.45 0
M  V30 7847 N 761.222 1.57436 0.0718424 0
M  V30 7848 C 762.452 1.91196 0.782795 0
M  V30 7849 C 762.86 0.795927 1.71644 0
M  V30 7850 O 762.203 -0.239604 1.82131 0
M  V30 7851 C 762.265 3.20421 1.63005 0
M  V30 7852 C 761.929 4.48724 0.865782 0
M  V30 7853 C 762.926 5.19571 0.185051 0
M  V30 7854 C 760.611 4.95345 0.832971 0
M  V30 7855 C 762.605 6.3529 -0.518264 0
M  V30 7856 C 760.292 6.1097 0.125884 0
M  V30 7857 C 761.29 6.80794 -0.548533 0
M  V30 7858 O 760.978 7.94213 -1.24423 0
M  V30 7859 H 760.71 0.636486 0.227731 0
M  V30 7860 H 763.264 2.05348 0.0464187 0
M  V30 7861 H 761.494 3.02478 2.40923 0
M  V30 7862 H 763.183 3.39831 2.21968 0
M  V30 7863 H 763.949 4.8458 0.201707 0
M  V30 7864 H 759.828 4.40871 1.34737 0
M  V30 7865 H 763.372 6.89725 -1.04523 0
M  V30 7866 H 759.269 6.45411 0.107155 0
M  V30 7867 H 760.037 8.10331 -1.1535 0
M  V30 7868 N 762.7 -0.34323 1.53817 0
M  V30 7869 C 763.663 -1.40444 1.8113 0
M  V30 7870 C 764.663 -1.45604 0.682366 0
M  V30 7871 O 765.853 -1.45974 0.950649 0
M  V30 7872 C 762.985 -2.79369 1.95361 0
M  V30 7873 H 764.178 -1.17489 2.75928 0
M  V30 7874 H 761.731 -0.577636 1.45234 0
M  V30 7875 H 762.466 -3.07607 1.02707 0
M  V30 7876 H 762.251 -2.7702 2.77493 0
M  V30 7877 H 763.741 -3.56178 2.18008 0
M  V30 7878 N 764.178 -1.45556 -0.604258 0
M  V30 7879 C 765.108 -1.57327 -1.72541 0
M  V30 7880 C 766.089 -0.424637 -1.64714 0
M  V30 7881 O 767.274 -0.648196 -1.83063 0
M  V30 7882 C 764.404 -1.54279 -3.11152 0
M  V30 7883 C 763.358 -2.67893 -3.33792 0
M  V30 7884 C 762.684 -2.499 -4.72709 0
M  V30 7885 C 763.984 -4.0988 -3.23722 0
M  V30 7886 H 765.678 -2.51175 -1.62947 0
M  V30 7887 H 763.224 -1.20884 -0.782504 0
M  V30 7888 H 765.177 -1.6111 -3.89386 0
M  V30 7889 H 763.901 -0.569627 -3.21594 0
M  V30 7890 H 762.56 -2.60495 -2.57949 0
M  V30 7891 H 762.208 -1.50715 -4.79889 0
M  V30 7892 H 761.908 -3.26091 -4.88813 0
M  V30 7893 H 763.432 -2.5859 -5.5314 0
M  V30 7894 H 764.846 -4.18503 -3.91826 0
M  V30 7895 H 763.243 -4.86487 -3.51355 0
M  V30 7896 H 764.313 -4.31553 -2.21111 0
M  V30 7897 N 765.656 0.84705 -1.32902 0
M  V30 7898 C 767.072 1.13645 -1.12058 0
M  V30 7899 C 767.272 2.01281 0.093937 0
M  V30 7900 O 766.328 2.4026 0.776608 0
M  V30 7901 C 767.641 1.80644 -2.40392 0
M  V30 7902 C 769.189 1.93246 -2.46221 0
M  V30 7903 C 769.664 2.6366 -3.74496 0
M  V30 7904 N 771.155 2.71179 -3.75521 0
M  V30 7905 C 771.89 3.26332 -4.71482 0
M  V30 7906 N 771.386 3.82236 -5.77813 0
M  V30 7907 N 773.179 3.24507 -4.58968 0
M  V30 7908 H 765.33 0.263612 -2.10758 0
M  V30 7909 H 767.593 0.17944 -0.930863 0
M  V30 7910 H 767.299 1.23708 -3.29225 0
M  V30 7911 H 767.173 2.80736 -2.51926 0
M  V30 7912 H 769.56 2.49338 -1.57843 0
M  V30 7913 H 769.641 0.921272 -2.38634 0
M  V30 7914 H 769.285 2.08229 -4.63253 0
M  V30 7915 H 769.215 3.65234 -3.79357 0
M  V30 7916 H 771.706 2.31527 -2.9867 0
M  V30 7917 H 772.019 4.22499 -6.47082 0
M  V30 7918 H 770.364 3.80546 -5.81558 0
M  V30 7919 H 773.555 2.80085 -3.7506 0
M  V30 7920 H 773.728 3.67188 -5.33926 0
M  V30 7921 N 767.134 1.16236 1.06428 0
M  V30 7922 C 768.359 0.967688 1.83441 0
M  V30 7923 C 768.784 -0.479167 1.81894 0
M  V30 7924 O 768.142 -1.34224 1.21875 0
M  V30 7925 C 768.19 1.49806 3.2801 0
M  V30 7926 O 767.294 0.703481 4.06356 0
M  V30 7927 H 766.635 0.344468 0.56766 0
M  V30 7928 H 769.165 1.54442 1.34197 0
M  V30 7929 H 769.175 1.51495 3.78831 0
M  V30 7930 H 767.85 2.55133 3.2845 0
M  V30 7931 H 766.427 0.756986 3.65136 0
M  V30 7932 N 768.612 -1.24939 0.960631 0
M  V30 7933 C 769.859 -1.92818 0.618663 0
M  V30 7934 C 770.187 -1.75177 -0.845173 0
M  V30 7935 O 769.442 -1.09412 -1.62258 0
M  V30 7936 C 769.741 -3.45066 0.930809 0
M  V30 7937 C 769.407 -3.82869 2.38164 0
M  V30 7938 C 768.069 -3.92899 2.7782 0
M  V30 7939 C 770.421 -4.01483 3.32356 0
M  V30 7940 C 767.749 -4.18955 4.10723 0
M  V30 7941 C 770.101 -4.29033 4.6488 0
M  V30 7942 C 768.765 -4.37282 5.04322 0
M  V30 7943 H 768.035 -0.705571 0.226385 0
M  V30 7944 H 770.682 -1.48365 1.21079 0
M  V30 7945 H 768.987 -3.9096 0.256355 0
M  V30 7946 H 770.684 -3.95783 0.644712 0
M  V30 7947 H 767.274 -3.75622 2.06413 0
M  V30 7948 H 771.458 -3.93143 3.02907 0
M  V30 7949 H 766.714 -4.23558 4.40918 0
M  V30 7950 H 770.888 -4.42381 5.3784 0
M  V30 7951 H 768.515 -4.57225 6.0733 0
M  V30 7952 N 770.09 -0.729906 -1.39679 0
M  V30 7953 C 771.038 -0.0756589 -2.32477 0
M  V30 7954 C 772.032 0.731438 -1.52795 0
M  V30 7955 O 773.238 0.633195 -1.68495 0
M  V30 7956 H 769.613 -0.00566492 -0.751979 0
M  V30 7957 H 771.584 -0.874797 -2.85289 0
M  V30 7958 C 770.333 0.821313 -3.37861 0
M  V30 7959 H 769.656 0.209666 -3.9925 0
M  V30 7960 H 771.096 1.24679 -4.05254 0
M  V30 7961 C 769.555 1.9533 -2.74495 0
M  V30 7962 O 770.085 3.04548 -2.61942 0
M  V30 7963 N 768.291 1.74119 -2.3266 0
M  V30 7964 H 767.838 0.852908 -2.4307 0
M  V30 7965 H 767.796 2.50036 -1.90603 0
M  V30 7966 N 771.568 1.50203 -0.477153 0
M  V30 7967 C 772.518 2.25561 0.332625 0
M  V30 7968 C 773.502 1.29401 0.956249 0
M  V30 7969 O 774.694 1.54267 0.867795 0
M  V30 7970 C 771.823 3.12984 1.41052 0
M  V30 7971 C 770.909 4.16595 0.79433 0
M  V30 7972 N 771.3 5.05722 -0.0889633 0
M  V30 7973 C 769.598 4.33279 1.0576 0
M  V30 7974 C 770.299 5.80039 -0.439286 0
M  V30 7975 N 769.275 5.43278 0.187018 0
M  V30 7976 H 773.077 2.91836 -0.347718 0
M  V30 7977 H 770.591 1.59759 -0.291686 0
M  V30 7978 H 772.588 3.65582 2.00388 0
M  V30 7979 H 771.248 2.48258 2.09279 0
M  V30 7980 H 772.259 5.15869 -0.458205 0
M  V30 7981 H 768.936 3.79769 1.7344 0
M  V30 7982 H 770.326 6.61802 -1.1605 0
M  V30 7983 N 773.046 0.209999 1.56195 0
M  V30 7984 C 773.956 -0.716459 2.23392 0
M  V30 7985 C 774.972 -1.22291 1.23778 0
M  V30 7986 O 776.148 -1.26694 1.56558 0
M  V30 7987 C 773.213 -1.91261 2.89172 0
M  V30 7988 C 772.274 -1.44927 4.04097 0
M  V30 7989 C 771.507 -2.5884 4.66731 0
M  V30 7990 O 771.73 -3.76693 4.2832 0
M  V30 7991 O 770.664 -2.30701 5.55932 0
M  V30 7992 H 774.49 -0.174089 3.03201 0
M  V30 7993 H 772.075 -0.0199505 1.49387 0
M  V30 7994 H 773.957 -2.6114 3.30733 0
M  V30 7995 H 772.632 -2.4433 2.12331 0
M  V30 7996 H 771.539 -0.718839 3.67129 0
M  V30 7997 H 772.872 -0.965084 4.82646 0
M  V30 7998 N 774.524 -1.57472 -0.0634922 0
M  V30 7999 C 775.456 -2.00999 -1.10145 0
M  V30 8000 C 776.469 -0.917219 -1.34503 0
M  V30 8001 O 777.658 -1.19501 -1.32596 0
M  V30 8002 C 774.758 -2.34089 -2.45063 0
M  V30 8003 C 773.931 -3.65317 -2.40546 0
M  V30 8004 C 772.99 -3.85982 -3.57637 0
M  V30 8005 O 772.016 -4.5747 -3.38689 0
M  V30 8006 N 773.218 -3.28971 -4.78287 0
M  V30 8007 H 775.983 -2.90656 -0.730714 0
M  V30 8008 H 773.544 -1.59926 -0.252017 0
M  V30 8009 H 775.536 -2.4508 -3.22053 0
M  V30 8010 H 774.106 -1.50279 -2.74107 0
M  V30 8011 H 773.326 -3.65003 -1.48885 0
M  V30 8012 H 774.614 -4.51468 -2.34636 0
M  V30 8013 H 774.012 -2.70962 -4.96584 0
M  V30 8014 H 772.569 -3.45398 -5.5276 0
M  V30 8015 N 776.003 0.335068 -1.53997 0
M  V30 8016 C 777.231 1.09418 -1.756 0
M  V30 8017 C 777.646 1.82083 -0.499138 0
M  V30 8018 O 777.003 1.74646 0.529631 0
M  V30 8019 C 777.054 2.10115 -2.94166 0
M  V30 8020 O 776.775 1.40404 -4.14992 0
M  V30 8021 C 778.276 2.98336 -3.27888 0
M  V30 8022 H 775.496 0.32595 -0.586513 0
M  V30 8023 H 778.04 0.384693 -2.00849 0
M  V30 8024 H 776.195 2.76616 -2.71224 0
M  V30 8025 H 776.609 2.07743 -4.81605 0
M  V30 8026 H 778.083 3.6491 -4.1418 0
M  V30 8027 H 778.56 3.64814 -2.44556 0
M  V30 8028 H 779.166 2.37412 -3.52868 0
M  V30 8029 N 777.481 1.45874 0.596531 0
M  V30 8030 C 778.428 1.55389 1.70655 0
M  V30 8031 C 779.398 0.399036 1.61236 0
M  V30 8032 O 780.583 0.61396 1.80652 0
M  V30 8033 C 777.723 1.53705 3.0898 0
M  V30 8034 C 776.836 2.79823 3.29125 0
M  V30 8035 C 775.971 2.69735 4.5762 0
M  V30 8036 C 775.01 3.90856 4.71061 0
M  V30 8037 N 774.147 3.79237 5.90867 0
M  V30 8038 H 778.987 2.50211 1.61859 0
M  V30 8039 H 776.524 1.24146 0.789069 0
M  V30 8040 H 778.482 1.50715 3.89026 0
M  V30 8041 H 777.112 0.624247 3.16706 0
M  V30 8042 H 776.164 2.92852 2.42779 0
M  V30 8043 H 777.476 3.69628 3.34927 0
M  V30 8044 H 776.63 2.64773 5.45875 0
M  V30 8045 H 775.369 1.77547 4.54234 0
M  V30 8046 H 774.374 3.96164 3.81227 0
M  V30 8047 H 775.599 4.84124 4.76236 0
M  V30 8048 H 773.545 2.89825 5.88504 0
M  V30 8049 H 773.462 4.62686 5.97877 0
M  V30 8050 H 774.73 3.78227 6.8159 0
M  V30 8051 N 778.959 -0.83999 1.33349 0
M  V30 8052 C 779.922 -1.93128 1.23426 0
M  V30 8053 C 780.922 -1.60065 0.153599 0
M  V30 8054 O 782.112 -1.69425 0.405049 0
M  V30 8055 C 779.244 -3.28761 0.901622 0
M  V30 8056 H 780.437 -2.03352 2.20427 0
M  V30 8057 H 777.99 -1.03194 1.17391 0
M  V30 8058 H 778.725 -3.24233 -0.0659337 0
M  V30 8059 H 778.51 -3.54138 1.68311 0
M  V30 8060 H 780 -4.08714 0.856913 0
M  V30 8061 N 780.437 -1.16799 -1.0581 0
M  V30 8062 C 781.684 -0.952524 -1.78699 0
M  V30 8063 C 782.012 0.51931 -1.87439 0
M  V30 8064 O 781.267 1.40151 -1.36587 0
M  V30 8065 C 781.566 -1.53111 -3.22942 0
M  V30 8066 C 781.232 -3.0261 -3.34273 0
M  V30 8067 C 779.894 -3.43418 -3.37072 0
M  V30 8068 C 782.246 -3.98611 -3.35795 0
M  V30 8069 C 779.574 -4.78838 -3.39015 0
M  V30 8070 C 781.926 -5.33923 -3.39277 0
M  V30 8071 C 780.59 -5.74205 -3.40361 0
M  V30 8072 H 779.86 -0.348553 -0.653905 0
M  V30 8073 H 782.507 -1.45591 -1.244 0
M  V30 8074 H 780.812 -0.949286 -3.80126 0
M  V30 8075 H 782.509 -1.34002 -3.77948 0
M  V30 8076 H 779.099 -2.70075 -3.32803 0
M  V30 8077 H 783.283 -3.68146 -3.32839 0
M  V30 8078 H 778.539 -5.09369 -3.38161 0
M  V30 8079 H 782.713 -6.08094 -3.39403 0
M  V30 8080 H 780.34 -6.79117 -3.4162 0
M  V30 8081 N 781.915 1.24427 -0.967243 0
M  V30 8082 C 782.825 2.29109 -0.504592 0
M  V30 8083 C 783.841 1.68495 0.434224 0
M  V30 8084 O 785.017 1.99041 0.307379 0
M  V30 8085 C 782.082 3.46133 0.198273 0
M  V30 8086 C 781.143 4.22149 -0.780313 0
M  V30 8087 C 780.376 5.33585 -0.110896 0
M  V30 8088 O 780.599 5.59676 1.10088 0
M  V30 8089 O 779.533 5.96522 -0.802823 0
M  V30 8090 H 783.359 2.708 -1.37482 0
M  V30 8091 H 780.944 1.30111 -0.73426 0
M  V30 8092 H 782.826 4.17205 0.593124 0
M  V30 8093 H 781.501 3.0642 1.04347 0
M  V30 8094 H 780.408 3.53454 -1.22561 0
M  V30 8095 H 781.741 4.65677 -1.59392 0
M  V30 8096 N 783.393 0.737304 1.3929 0
M  V30 8097 C 784.64 0.286257 2.00467 0
M  V30 8098 C 784.968 -1.1272 1.58507 0
M  V30 8099 O 784.223 -1.7832 0.806257 0
M  V30 8100 C 784.522 0.338438 3.55794 0
M  V30 8101 C 784.188 1.70524 4.17411 0
M  V30 8102 C 782.85 2.07934 4.33955 0
M  V30 8103 C 785.202 2.60256 4.51571 0
M  V30 8104 C 782.53 3.34578 4.81948 0
M  V30 8105 C 784.882 3.86275 5.00974 0
M  V30 8106 C 783.546 4.23774 5.15725 0
M  V30 8107 H 782.816 0.104749 0.733559 0
M  V30 8108 H 785.463 0.944598 1.66582 0
M  V30 8109 H 783.768 -0.403478 3.89717 0
M  V30 8110 H 785.465 -0.0287255 4.0099 0
M  V30 8111 H 782.055 1.40439 4.04938 0
M  V30 8112 H 786.239 2.32624 4.38406 0
M  V30 8113 H 781.495 3.63572 4.91554 0
M  V30 8114 H 785.669 4.5596 5.26378 0
M  V30 8115 H 783.296 5.21972 5.52674 0
M  V30 8116 N 784.871 -1.49948 0.485112 0
M  V30 8117 C 785.818 -2.28819 -0.301729 0
M  V30 8118 C 786.788 -1.34496 -0.974683 0
M  V30 8119 O 787.973 -1.63444 -0.984418 0
M  V30 8120 C 785.113 -3.16758 -1.36961 0
M  V30 8121 C 784.226 -4.26125 -0.710027 0
M  V30 8122 C 783.361 -5.01302 -1.75699 0
M  V30 8123 C 782.4 -6.02525 -1.07841 0
M  V30 8124 N 781.537 -6.70927 -2.06886 0
M  V30 8125 H 786.377 -2.95604 0.377127 0
M  V30 8126 H 783.914 -1.45764 0.197826 0
M  V30 8127 H 785.872 -3.66106 -2.00056 0
M  V30 8128 H 784.502 -2.51991 -2.01744 0
M  V30 8129 H 783.554 -3.80385 0.0338278 0
M  V30 8130 H 784.866 -4.98493 -0.175079 0
M  V30 8131 H 784.02 -5.54438 -2.46339 0
M  V30 8132 H 782.759 -4.28672 -2.32577 0
M  V30 8133 H 781.764 -5.48635 -0.357706 0
M  V30 8134 H 782.989 -6.77134 -0.516345 0
M  V30 8135 H 780.935 -6.01079 -2.62755 0
M  V30 8136 H 780.852 -7.39216 -1.58414 0
M  V30 8137 H 782.12 -7.28675 -2.76863 0
M  V30 8138 N 786.349 -0.21828 -1.56081 0
M  V30 8139 C 787.595 0.414921 -1.9851 0
M  V30 8140 C 787.928 1.59648 -1.10573 0
M  V30 8141 O 787.203 1.93818 -0.162695 0
M  V30 8142 C 787.486 0.852647 -3.4986 0
M  V30 8143 C 787.339 -0.33232 -4.48571 0
M  V30 8144 C 788.658 1.70998 -4.05521 0
M  V30 8145 H 785.777 0.149344 -0.72171 0
M  V30 8146 H 788.419 -0.313858 -1.8739 0
M  V30 8147 H 786.569 1.47362 -3.59467 0
M  V30 8148 H 788.241 -0.970418 -4.50977 0
M  V30 8149 H 786.484 -0.980302 -4.22578 0
M  V30 8150 H 787.155 0.0168407 -5.51997 0
M  V30 8151 H 789.631 1.18606 -3.98838 0
M  V30 8152 H 788.507 1.98517 -5.11744 0
M  V30 8153 H 788.768 2.67219 -3.52202 0
M  V30 8154 N 787.827 1.57504 0.0551401 0
M  V30 8155 C 788.757 2.07864 1.06372 0
M  V30 8156 C 789.738 0.975565 1.39344 0
M  V30 8157 O 790.923 1.24929 1.48682 0
M  V30 8158 C 788.053 2.53643 2.3724 0
M  V30 8159 C 787.007 3.67978 2.18578 0
M  V30 8160 C 786.333 3.9987 3.54976 0
M  V30 8161 C 787.633 4.97405 1.59329 0
M  V30 8162 H 789.327 2.92379 0.644595 0
M  V30 8163 H 786.873 1.40654 0.308619 0
M  V30 8164 H 788.826 2.8749 3.08103 0
M  V30 8165 H 787.55 1.66177 2.81163 0
M  V30 8166 H 786.209 3.3444 1.50152 0
M  V30 8167 H 785.857 3.0951 3.965 0
M  V30 8168 H 785.557 4.76867 3.43324 0
M  V30 8169 H 787.081 4.36228 4.27244 0
M  V30 8170 H 788.495 5.29375 2.20078 0
M  V30 8171 H 786.892 5.78837 1.58327 0
M  V30 8172 H 787.962 4.81697 0.55638 0
M  V30 8173 N 789.305 -0.326896 1.54172 0
M  V30 8174 C 790.268 -1.38515 1.8261 0
M  V30 8175 C 791.268 -1.44872 0.697771 0
M  V30 8176 O 792.458 -1.44957 0.966078 0
M  V30 8177 C 789.59 -2.77281 1.98313 0
M  V30 8178 H 790.783 -1.14556 2.77159 0
M  V30 8179 H 788.336 -0.562199 1.45839 0
M  V30 8180 H 789.071 -3.065 1.05964 0
M  V30 8181 H 788.856 -2.74061 2.80416 0
M  V30 8182 H 790.346 -3.53845 2.21773 0
M  V30 8183 N 790.784 -1.46188 -0.588786 0
M  V30 8184 C 791.731 -1.56292 -1.69828 0
M  V30 8185 C 792.701 -0.407581 -1.61022 0
M  V30 8186 O 793.886 -0.623532 -1.80324 0
M  V30 8187 C 791.026 -1.55341 -3.08161 0
M  V30 8188 C 790.139 -2.81564 -3.27636 0
M  V30 8189 C 789.274 -2.72158 -4.56183 0
M  V30 8190 C 788.313 -3.93348 -4.68981 0
M  V30 8191 N 787.45 -3.82365 -5.88848 0
M  V30 8192 H 792.29 -2.51066 -1.6053 0
M  V30 8193 H 789.827 -1.24562 -0.782474 0
M  V30 8194 H 791.785 -1.52776 -3.88221 0
M  V30 8195 H 790.415 -0.641034 -3.16371 0
M  V30 8196 H 789.467 -2.94136 -2.41223 0
M  V30 8197 H 790.779 -3.714 -3.32962 0
M  V30 8198 H 789.933 -2.67665 -5.44464 0
M  V30 8199 H 788.672 -1.79953 -4.53286 0
M  V30 8200 H 787.677 -3.98181 -3.7912 0
M  V30 8201 H 788.902 -4.86643 -4.73662 0
M  V30 8202 H 786.848 -2.92942 -5.86959 0
M  V30 8203 H 786.765 -4.65851 -5.95415 0
M  V30 8204 H 788.033 -3.81836 -6.79575 0
M  V30 8205 N 792.262 0.832906 -1.33792 0
M  V30 8206 C 793.539 1.57359 -1.16178 0
M  V30 8207 C 793.919 2.09372 0.269532 0
M  V30 8208 O 793.267 1.89993 1.26944 0
M  V30 8209 C 793.477 2.70279 -2.20795 0
M  V30 8210 C 794.825 3.39305 -2.55259 0
M  V30 8211 O 795.849 2.80526 -2.19508 0
M  V30 8212 O 794.708 4.45428 -3.16632 0
M  V30 8213 H 791.802 0.694025 -0.449731 0
M  V30 8214 H 794.348 0.875144 -1.45394 0
M  V30 8215 H 793.12 2.29527 -3.16911 0
M  V30 8216 H 792.743 3.47782 -1.927 0
M  V30 8217 N 793.74 1.17359 1.05189 0
M  V30 8218 C 794.988 0.960087 1.77839 0
M  V30 8219 C 795.309 -0.512554 1.88143 0
M  V30 8220 O 794.579 -1.3721 1.39822 0
M  V30 8221 H 793.159 0.352234 0.658741 0
M  V30 8222 H 795.821 1.47834 1.27008 0
M  V30 8223 H 794.917 1.38843 2.79516 0
M  V30 8224 N 795.218 -1.23913 0.973828 0
M  V30 8225 C 796.466 -1.91771 0.637817 0
M  V30 8226 C 796.787 -1.76434 -0.830435 0
M  V30 8227 O 796.057 -1.13965 -1.59339 0
M  V30 8228 H 794.637 -0.709761 0.232912 0
M  V30 8229 H 797.299 -1.50677 1.23622 0
M  V30 8230 H 796.395 -2.99327 0.883731 0
M  V30 8231 N 796.696 -0.74468 -1.38897 0
M  V30 8232 C 797.626 -0.126355 -2.33158 0
M  V30 8233 C 798.607 0.713517 -1.54412 0
M  V30 8234 O 799.792 0.656523 -1.82766 0
M  V30 8235 C 796.922 0.774375 -3.38557 0
M  V30 8236 C 795.876 0.0379214 -4.27983 0
M  V30 8237 C 795.202 1.05631 -5.24162 0
M  V30 8238 C 796.502 -1.12523 -5.10035 0
M  V30 8239 H 798.196 -0.913744 -2.85116 0
M  V30 8240 H 795.742 -0.440847 -1.37086 0
M  V30 8241 H 797.695 1.21655 -4.03458 0
M  V30 8242 H 796.419 1.59399 -2.85061 0
M  V30 8243 H 795.078 -0.384733 -3.64576 0
M  V30 8244 H 794.726 1.86975 -4.66958 0
M  V30 8245 H 794.426 0.568261 -5.84846 0
M  V30 8246 H 795.95 1.49799 -5.9194 0
M  V30 8247 H 797.364 -0.761037 -5.68226 0
M  V30 8248 H 795.761 -1.54355 -5.79909 0
M  V30 8249 H 796.831 -1.94237 -4.44297 0
M  V30 8250 N 798.174 1.49689 -0.493057 0
M  V30 8251 C 799.585 1.8665 -0.0433032 0
M  V30 8252 C 799.936 1.40607 1.36836 0
M  V30 8253 O 799.061 0.780503 2.01834 0
M  V30 8254 C 799.656 3.38724 -0.0718069 0
M  V30 8255 C 798.215 3.75015 0.32257 0
M  V30 8256 C 797.362 2.7366 -0.4478 0
M  V30 8257 H 800.313 1.42119 -0.706246 0
M  V30 8258 H 800.334 3.73522 0.725347 0
M  V30 8259 H 799.846 3.72204 -1.09935 0
M  V30 8260 H 797.947 3.47142 1.35364 0
M  V30 8261 H 798.06 4.79099 0.00864259 0
M  V30 8262 H 796.424 2.54498 0.101354 0
M  V30 8263 H 797.207 3.09985 -1.47527 0
M  V30 8264 N 799.652 0.226554 1.55963 0
M  V30 8265 C 800.877 -0.411527 2.03276 0
M  V30 8266 C 801.302 -1.52206 1.10521 0
M  V30 8267 O 800.66 -1.81054 0.0943217 0
M  V30 8268 C 800.708 -0.915694 3.4878 0
M  V30 8269 O 799.812 -2.02672 3.59163 0
M  V30 8270 H 799.153 -0.0924907 0.657527 0
M  V30 8271 H 801.683 0.346656 2.01642 0
M  V30 8272 H 801.693 -1.22421 3.892 0
M  V30 8273 H 800.368 -0.102915 4.15773 0
M  V30 8274 H 798.945 -1.72445 3.30632 0
M  V30 8275 N 801.13 -1.57531 -0.0467866 0
M  V30 8276 C 802.06 -2.08425 -1.05268 0
M  V30 8277 C 803.041 -0.982941 -1.38825 0
M  V30 8278 O 804.226 -1.25716 -1.48018 0
M  V30 8279 C 801.356 -2.54897 -2.35891 0
M  V30 8280 C 800.31 -3.69132 -2.16623 0
M  V30 8281 C 799.636 -4.01747 -3.52851 0
M  V30 8282 C 800.936 -4.98243 -1.56689 0
M  V30 8283 H 802.63 -2.92716 -0.62908 0
M  V30 8284 H 800.176 -1.40816 -0.301156 0
M  V30 8285 H 802.129 -2.8912 -3.06574 0
M  V30 8286 H 800.853 -1.67666 -2.80278 0
M  V30 8287 H 799.512 -3.35231 -1.48377 0
M  V30 8288 H 799.16 -3.11608 -3.94853 0
M  V30 8289 H 798.86 -4.78681 -3.4079 0
M  V30 8290 H 800.384 -4.38487 -4.24925 0
M  V30 8291 H 801.798 -5.30535 -2.17268 0
M  V30 8292 H 800.195 -5.79669 -1.55255 0
M  V30 8293 H 801.265 -4.81986 -0.530827 0
M  V30 8294 N 802.608 0.318715 -1.54344 0
M  V30 8295 C 803.54 1.41364 -1.80413 0
M  V30 8296 C 804.553 1.47627 -0.686294 0
M  V30 8297 O 805.742 1.50264 -0.963486 0
M  V30 8298 C 802.842 2.79867 -1.91123 0
M  V30 8299 C 802.015 2.96749 -3.21339 0
M  V30 8300 C 801.074 4.15642 -3.22689 0
M  V30 8301 O 800.1 4.08571 -3.96306 0
M  V30 8302 N 801.302 5.25416 -2.46817 0
M  V30 8303 H 804.067 1.19363 -2.74905 0
M  V30 8304 H 801.628 0.508722 -1.537 0
M  V30 8305 H 803.62 3.57619 -1.89448 0
M  V30 8306 H 802.19 2.94896 -1.03706 0
M  V30 8307 H 801.41 2.06257 -3.35934 0
M  V30 8308 H 802.698 3.04927 -4.07304 0
M  V30 8309 H 802.096 5.34037 -1.86605 0
M  V30 8310 H 800.653 6.01569 -2.50915 0
M  V30 8311 N 804.086 1.46499 0.581025 0
M  V30 8312 C 805.311 1.55708 1.37002 0
M  V30 8313 C 805.736 0.19942 1.8704 0
M  V30 8314 O 805.094 -0.820731 1.61659 0
M  V30 8315 C 805.142 2.56716 2.53238 0
M  V30 8316 O 804.246 2.10336 3.54729 0
M  V30 8317 H 803.587 0.523912 0.407937 0
M  V30 8318 H 806.117 1.92085 0.704602 0
M  V30 8319 H 806.127 2.76378 3.00132 0
M  V30 8320 H 804.802 3.55307 2.16171 0
M  V30 8321 H 803.379 2.00669 3.14303 0
M  V30 8322 N 805.565 -0.825799 1.34232 0
M  V30 8323 C 806.513 -1.95792 1.25572 0
M  V30 8324 C 807.507 -1.68695 0.154404 0
M  V30 8325 O 808.713 -1.77147 0.319196 0
M  V30 8326 H 805.088 -0.642949 0.390027 0
M  V30 8327 H 807.059 -2.00219 2.21258 0
M  V30 8328 C 805.808 -3.32245 1.02511 0
M  V30 8329 H 805.131 -3.53642 1.86487 0
M  V30 8330 H 806.571 -4.1192 1.00487 0
M  V30 8331 C 805.03 -3.35803 -0.27167 0
M  V30 8332 O 805.56 -3.80962 -1.274 0
M  V30 8333 N 803.766 -2.89008 -0.303778 0
M  V30 8334 H 803.313 -2.52451 0.512464 0
M  V30 8335 H 803.271 -2.9177 -1.17121 0
M  V30 8336 N 807.043 -1.17915 -1.04565 0
M  V30 8337 C 808.006 -0.903787 -2.10628 0
M  V30 8338 C 809.006 0.10873 -1.60432 0
M  V30 8339 O 810.196 -0.124152 -1.73757 0
M  V30 8340 C 807.328 -0.355017 -3.39046 0
M  V30 8341 H 808.521 -1.84425 -2.3649 0
M  V30 8342 H 806.074 -0.990477 -1.2091 0
M  V30 8343 H 806.809 0.592297 -3.18845 0
M  V30 8344 H 806.594 -1.08484 -3.76794 0
M  V30 8345 H 808.084 -0.180891 -4.17208 0
M  V30 8346 N 808.521 1.23394 -0.980386 0
M  V30 8347 C 809.749 1.95844 -0.667286 0
M  V30 8348 C 810.164 1.72574 0.765735 0
M  V30 8349 O 809.521 1.01715 1.51526 0
M  V30 8350 C 809.572 3.48844 -0.948151 0
M  V30 8351 O 809.293 3.71325 -2.32485 0
M  V30 8352 C 810.794 4.38494 -0.651002 0
M  V30 8353 H 808.014 0.623535 -0.247882 0
M  V30 8354 H 810.558 1.56885 -1.31176 0
M  V30 8355 H 808.713 3.85819 -0.349681 0
M  V30 8356 H 809.127 4.65619 -2.41452 0
M  V30 8357 H 810.601 5.44648 -0.897887 0
M  V30 8358 H 811.078 4.37236 0.414922 0
M  V30 8359 H 811.684 4.07127 -1.22995 0
M  V30 8360 N 809.999 0.752036 1.385 0
M  V30 8361 C 811.245 0.307958 2.00448 0
M  V30 8362 C 811.578 -1.10702 1.59558 0
M  V30 8363 O 810.853 -1.75788 0.832391 0
M  V30 8364 C 811.136 0.429092 3.57534 0
M  V30 8365 C 810.989 1.88507 4.08393 0
M  V30 8366 C 812.308 -0.178442 4.39738 0
M  V30 8367 H 809.427 0.113373 0.728228 0
M  V30 8368 H 812.069 0.951389 1.64465 0
M  V30 8369 H 810.219 -0.118695 3.88319 0
M  V30 8370 H 811.891 2.49104 3.88259 0
M  V30 8371 H 810.134 2.40066 3.61318 0
M  V30 8372 H 810.805 1.92099 5.17496 0
M  V30 8373 H 813.281 0.28872 4.15097 0
M  V30 8374 H 812.157 -0.0634349 5.48863 0
M  V30 8375 H 812.418 -1.26655 4.23569 0
M  V30 8376 N 811.477 -1.49425 0.500989 0
M  V30 8377 C 812.893 -1.58826 0.156951 0
M  V30 8378 C 813.093 -1.50622 -1.33848 0
M  V30 8379 O 812.149 -1.38016 -2.11442 0
M  V30 8380 C 813.462 -2.91611 0.73374 0
M  V30 8381 C 815.01 -3.05076 0.699846 0
M  V30 8382 C 815.485 -4.40479 1.2547 0
M  V30 8383 N 816.976 -4.4697 1.2154 0
M  V30 8384 C 817.711 -5.50189 1.6149 0
M  V30 8385 N 817.207 -6.60512 2.09034 0
M  V30 8386 N 819 -5.40903 1.52907 0
M  V30 8387 H 811.151 -1.53001 1.47324 0
M  V30 8388 H 813.414 -0.724765 0.61108 0
M  V30 8389 H 813.12 -3.03182 1.78251 0
M  V30 8390 H 812.994 -3.767 0.19417 0
M  V30 8391 H 815.381 -2.93134 -0.340085 0
M  V30 8392 H 815.462 -2.2167 1.27656 0
M  V30 8393 H 815.106 -4.53172 2.29341 0
M  V30 8394 H 815.036 -5.22524 0.653921 0
M  V30 8395 H 817.527 -3.67819 0.867043 0
M  V30 8396 H 817.84 -7.35372 2.37588 0
M  V30 8397 H 816.185 -6.61553 2.13008 0
M  V30 8398 H 819.376 -4.53606 1.15583 0
M  V30 8399 H 819.549 -6.21219 1.84365 0
M  V30 8400 N 812.955 -0.234822 -1.55841 0
M  V30 8401 C 814.201 0.393843 -1.98939 0
M  V30 8402 C 814.534 1.58466 -1.1226 0
M  V30 8403 O 813.809 1.93635 -0.183242 0
M  V30 8404 C 814.092 0.815492 -3.50745 0
M  V30 8405 C 813.945 -0.379878 -4.48193 0
M  V30 8406 C 815.264 1.66687 -4.07312 0
M  V30 8407 H 812.383 0.141681 -0.723253 0
M  V30 8408 H 815.025 -0.333716 -1.87046 0
M  V30 8409 H 813.175 1.43541 -3.6101 0
M  V30 8410 H 814.847 -1.0182 -4.49923 0
M  V30 8411 H 813.09 -1.02507 -4.21515 0
M  V30 8412 H 813.761 -0.0417069 -5.51984 0
M  V30 8413 H 816.237 1.14369 -4.00074 0
M  V30 8414 H 815.113 1.93078 -5.13821 0
M  V30 8415 H 815.374 2.63468 -3.55017 0
M  V30 8416 N 814.433 1.57553 0.0384317 0
M  V30 8417 C 815.682 1.88022 0.730108 0
M  V30 8418 C 815.995 0.83209 1.77019 0
M  V30 8419 O 817.201 1.0257 2.51379 0
M  V30 8420 C 815.657 3.33637 1.3496 0
M  V30 8421 C 815.265 4.46659 0.346352 0
M  V30 8422 C 817.009 3.73266 2.02169 0
M  V30 8423 C 814.916 5.8333 0.973652 0
M  V30 8424 H 813.846 0.701496 0.276442 0
M  V30 8425 H 816.497 1.83493 -0.0158028 0
M  V30 8426 H 814.879 3.32882 2.1449 0
M  V30 8427 H 816.053 4.58868 -0.421558 0
M  V30 8428 H 814.368 4.15802 -0.223133 0
M  V30 8429 H 816.965 4.72689 2.49938 0
M  V30 8430 H 817.308 3.04776 2.8358 0
M  V30 8431 H 817.841 3.76156 1.29427 0
M  V30 8432 H 814.58 6.55197 0.199163 0
M  V30 8433 H 814.1 5.7486 1.71162 0
M  V30 8434 H 815.779 6.29757 1.48376 0
M  V30 8435 N 815.911 -0.310526 1.54511 0
M  V30 8436 C 817.16 -1.0445 1.72549 0
M  V30 8437 C 817.473 -1.88748 0.513172 0
M  V30 8438 O 818.679 -2.65338 0.575165 0
M  V30 8439 C 817.135 -1.90665 3.05246 0
M  V30 8440 C 816.743 -1.11415 4.33925 0
M  V30 8441 C 818.487 -2.63719 3.32645 0
M  V30 8442 C 816.394 -1.96852 5.57677 0
M  V30 8443 H 815.324 -0.393676 0.643067 0
M  V30 8444 H 817.975 -0.302003 1.80998 0
M  V30 8445 H 816.357 -2.68864 2.90737 0
M  V30 8446 H 817.531 -0.378956 4.59239 0
M  V30 8447 H 815.846 -0.499853 4.13389 0
M  V30 8448 H 818.443 -3.27974 4.223 0
M  V30 8449 H 818.786 -3.32047 2.51098 0
M  V30 8450 H 819.319 -1.92574 3.48081 0
M  V30 8451 H 816.058 -1.33009 6.41864 0
M  V30 8452 H 815.578 -2.68069 5.36562 0
M  V30 8453 H 817.257 -2.55127 5.94575 0
M  V30 8454 N 817.389 -1.46805 -0.573248 0
M  V30 8455 C 818.319 -1.60951 -1.69165 0
M  V30 8456 C 819.3 -0.45948 -1.63777 0
M  V30 8457 O 820.485 -0.68688 -1.81647 0
M  V30 8458 C 817.615 -1.60844 -3.07809 0
M  V30 8459 C 816.569 -2.74913 -3.28035 0
M  V30 8460 C 815.895 -2.59871 -4.67302 0
M  V30 8461 C 817.195 -4.16654 -3.14955 0
M  V30 8462 H 818.889 -2.54574 -1.57582 0
M  V30 8463 H 816.435 -1.22516 -0.756686 0
M  V30 8464 H 818.388 -1.69334 -3.85881 0
M  V30 8465 H 817.112 -0.637714 -3.20314 0
M  V30 8466 H 815.771 -2.65908 -2.52366 0
M  V30 8467 H 815.419 -1.60861 -4.76585 0
M  V30 8468 H 815.119 -3.36386 -4.81786 0
M  V30 8469 H 816.643 -2.70265 -5.4753 0
M  V30 8470 H 818.057 -4.26721 -3.82861 0
M  V30 8471 H 816.454 -4.93831 -3.40956 0
M  V30 8472 H 817.524 -4.36146 -2.11908 0
M  V30 8473 N 818.867 0.818669 -1.34668 0
M  V30 8474 C 820.144 1.56118 -1.17841 0
M  V30 8475 C 820.524 2.09646 0.24731 0
M  V30 8476 O 819.872 1.91329 1.24922 0
M  V30 8477 C 820.082 2.67922 -2.23649 0
M  V30 8478 C 821.43 3.36579 -2.58843 0
M  V30 8479 O 822.454 2.78182 -2.22471 0
M  V30 8480 O 821.313 4.42045 -3.21339 0
M  V30 8481 H 818.407 0.689216 -0.457067 0
M  V30 8482 H 820.953 0.859674 -1.46314 0
M  V30 8483 H 819.725 2.26153 -3.19328 0
M  V30 8484 H 819.348 3.45719 -1.96377 0
M  V30 8485 N 820.346 1.18468 1.03938 0
M  V30 8486 C 821.592 0.982286 1.77423 0
M  V30 8487 C 821.925 -0.48679 1.88 0
M  V30 8488 O 821.2 -1.36146 1.38905 0
M  V30 8489 C 821.483 1.63929 3.20623 0
M  V30 8490 C 821.336 3.18132 3.17982 0
M  V30 8491 C 822.655 1.3536 4.18767 0
M  V30 8492 H 819.774 0.358264 0.644062 0
M  V30 8493 H 822.416 1.46154 1.21405 0
M  V30 8494 H 820.566 1.2318 3.68455 0
M  V30 8495 H 822.238 3.68024 2.78129 0
M  V30 8496 H 820.481 3.50225 2.55978 0
M  V30 8497 H 821.152 3.5924 4.19107 0
M  V30 8498 H 823.628 1.70669 3.79488 0
M  V30 8499 H 822.504 1.83896 5.17178 0
M  V30 8500 H 822.765 0.276722 4.41233 0
M  V30 8501 N 821.824 -1.22873 0.986916 0
M  V30 8502 C 822.772 -2.26597 0.525043 0
M  V30 8503 C 823.766 -1.64079 -0.421252 0
M  V30 8504 O 824.972 -1.77576 -0.294429 0
M  V30 8505 H 821.347 -0.736606 0.151381 0
M  V30 8506 H 823.318 -2.62909 1.41142 0
M  V30 8507 C 822.067 -3.47374 -0.150542 0
M  V30 8508 H 821.39 -3.95737 0.568541 0
M  V30 8509 H 822.83 -4.21739 -0.437256 0
M  V30 8510 C 821.289 -3.07163 -1.38392 0
M  V30 8511 O 821.819 -3.16028 -2.47971 0
M  V30 8512 N 820.025 -2.62009 -1.25697 0
M  V30 8513 H 819.572 -2.54996 -0.365355 0
M  V30 8514 H 819.53 -2.35472 -2.08327 0
M  V30 8515 N 823.302 -0.75937 -1.38099 0
M  V30 8516 C 824.579 -0.243371 -1.9408 0
M  V30 8517 C 824.959 1.25942 -1.69416 0
M  V30 8518 O 824.307 2.03667 -1.03595 0
M  V30 8519 C 824.517 -0.603328 -3.43745 0
M  V30 8520 C 825.865 -0.566195 -4.20808 0
M  V30 8521 O 826.889 -0.541969 -3.52053 0
M  V30 8522 O 825.748 -0.582261 -5.43389 0
M  V30 8523 H 822.842 -0.0526825 -0.82532 0
M  V30 8524 H 825.388 -0.839884 -1.47459 0
M  V30 8525 H 824.16 -1.64098 -3.55229 0
M  V30 8526 H 823.783 0.0208887 -3.97595 0
M  V30 8527 N 824.78 1.49157 -0.508906 0
M  V30 8528 C 825.728 2.30922 0.278906 0
M  V30 8529 C 826.722 1.39889 0.955382 0
M  V30 8530 O 827.928 1.56901 0.882169 0
M  V30 8531 H 824.303 0.744087 0.108805 0
M  V30 8532 H 826.274 2.95277 -0.430583 0
M  V30 8533 C 825.023 3.21432 1.32576 0
M  V30 8534 H 824.346 3.91413 0.814634 0
M  V30 8535 H 825.786 3.81568 1.84882 0
M  V30 8536 C 824.245 2.41583 2.34817 0
M  V30 8537 O 824.775 2.1256 3.40854 0
M  V30 8538 N 822.981 2.03462 2.07489 0
M  V30 8539 H 822.528 2.27265 1.21278 0
M  V30 8540 H 822.486 1.50345 2.76123 0
M  V30 8541 N 826.258 0.243083 1.55714 0
M  V30 8542 C 827.486 -0.386971 2.03249 0
M  V30 8543 C 827.901 -1.51812 1.12243 0
M  V30 8544 O 827.258 -1.81992 0.136119 0
M  V30 8545 C 827.309 -0.898361 3.5016 0
M  V30 8546 O 827.03 0.187708 4.37698 0
M  V30 8547 C 828.531 -1.59949 4.13438 0
M  V30 8548 H 825.751 -0.0923981 0.664608 0
M  V30 8549 H 828.295 0.365832 2.01201 0
M  V30 8550 H 826.45 -1.60136 3.52754 0
M  V30 8551 H 826.864 -0.200001 5.24119 0
M  V30 8552 H 828.338 -1.90907 5.17937 0
M  V30 8553 H 828.815 -2.52014 3.59702 0
M  V30 8554 H 829.421 -0.941163 4.14756 0
M  V30 8555 N 827.736 -1.57571 -0.0300757 0
M  V30 8556 C 829.147 -1.77567 -0.576802 0
M  V30 8557 C 829.498 -0.874034 -1.75656 0
M  V30 8558 O 828.623 -0.0686124 -2.16291 0
M  V30 8559 C 829.218 -3.22016 -1.05315 0
M  V30 8560 C 827.777 -3.43212 -1.5454 0
M  V30 8561 C 826.924 -2.73061 -0.483033 0
M  V30 8562 H 829.875 -1.57483 0.196151 0
M  V30 8563 H 829.896 -3.28474 -1.92055 0
M  V30 8564 H 829.408 -3.87613 -0.194298 0
M  V30 8565 H 827.509 -2.82788 -2.42615 0
M  V30 8566 H 827.622 -4.5182 -1.5936 0
M  V30 8567 H 825.986 -2.36805 -0.937835 0
M  V30 8568 H 826.769 -3.4134 0.366341 0
M  V30 8569 N 829.214 0.302327 -1.54673 0
M  V30 8570 C 830.46 1.03924 -1.74149 0
M  V30 8571 C 830.793 1.86968 -0.525041 0
M  V30 8572 O 830.068 1.88538 0.477868 0
M  V30 8573 C 830.351 1.94633 -3.02969 0
M  V30 8574 C 830.204 1.14778 -4.34909 0
M  V30 8575 C 831.523 2.93826 -3.27649 0
M  V30 8576 H 828.642 0.376405 -0.633631 0
M  V30 8577 H 831.284 0.314007 -1.87387 0
M  V30 8578 H 829.434 2.56471 -2.91813 0
M  V30 8579 H 831.106 0.552363 -4.57981 0
M  V30 8580 H 829.349 0.450462 -4.31455 0
M  V30 8581 H 830.02 1.81495 -5.21309 0
M  V30 8582 H 832.496 2.42117 -3.38406 0
M  V30 8583 H 831.372 3.54462 -4.19104 0
M  V30 8584 H 831.633 3.67416 -2.45882 0
M  V30 8585 N 830.692 1.47107 0.565454 0
M  V30 8586 C 831.941 1.5257 1.31929 0
M  V30 8587 C 832.254 0.189092 1.94684 0
M  V30 8588 O 833.46 0.121657 2.71227 0
M  V30 8589 C 831.916 2.68914 2.39193 0
M  V30 8590 C 831.524 4.09069 1.82665 0
M  V30 8591 C 833.268 2.83663 3.1581 0
M  V30 8592 C 831.175 5.16726 2.87661 0
M  V30 8593 H 830.105 0.567869 0.496025 0
M  V30 8594 H 832.756 1.73361 0.60151 0
M  V30 8595 H 831.138 2.41486 3.13848 0
M  V30 8596 H 832.312 4.46364 1.14438 0
M  V30 8597 H 830.627 3.99135 1.1866 0
M  V30 8598 H 833.224 3.61261 3.94201 0
M  V30 8599 H 833.567 1.91804 3.69482 0
M  V30 8600 H 834.1 3.10821 2.48265 0
M  V30 8601 H 830.839 6.10433 2.38854 0
M  V30 8602 H 830.359 4.83957 3.54324 0
M  V30 8603 H 832.038 5.43319 3.51303 0
M  V30 8604 N 832.17 -0.811516 1.35101 0
M  V30 8605 C 833.398 -1.59981 1.31201 0
M  V30 8606 C 833.813 -1.8847 -0.111552 0
M  V30 8607 O 833.17 -1.48414 -1.06205 0
M  V30 8608 C 833.221 -2.934 2.11184 0
M  V30 8609 O 832.942 -2.66148 3.4799 0
M  V30 8610 C 834.443 -3.87776 2.14813 0
M  V30 8611 H 831.663 -0.496921 0.450899 0
M  V30 8612 H 834.207 -1.00886 1.77883 0
M  V30 8613 H 832.362 -3.49022 1.68115 0
M  V30 8614 H 832.776 -3.51301 3.89471 0
M  V30 8615 H 834.25 -4.7852 2.75178 0
M  V30 8616 H 834.727 -4.23997 1.14556 0
M  V30 8617 H 835.333 -3.3809 2.58022 0
M  V30 8618 N 833.648 -1.19017 -1.03309 0
M  V30 8619 C 834.611 -0.926076 -2.09658 0
M  V30 8620 C 835.611 0.0917077 -1.60538 0
M  V30 8621 O 836.801 -0.142574 -1.73616 0
M  V30 8622 C 833.933 -0.390958 -3.38651 0
M  V30 8623 H 835.126 -1.86923 -2.3452 0
M  V30 8624 H 832.679 -1.00325 -1.19853 0
M  V30 8625 H 833.414 0.558446 -3.19456 0
M  V30 8626 H 833.199 -1.12474 -3.75622 0
M  V30 8627 H 834.689 -0.225131 -4.16993 0
M  V30 8628 N 835.127 1.22348 -0.993418 0
M  V30 8629 C 836.538 1.72893 -0.704616 0
M  V30 8630 C 836.889 1.80095 0.778483 0
M  V30 8631 O 836.014 1.4476 1.60853 0
M  V30 8632 C 836.609 3.14 -1.27237 0
M  V30 8633 C 835.168 3.61949 -1.03294 0
M  V30 8634 C 834.315 2.39816 -1.39225 0
M  V30 8635 H 837.266 1.07688 -1.16572 0
M  V30 8636 H 837.287 3.74886 -0.651212 0
M  V30 8637 H 836.799 3.08727 -2.3518 0
M  V30 8638 H 834.9 3.72588 0.0298329 0
M  V30 8639 H 835.013 4.48051 -1.69668 0
M  V30 8640 H 833.377 2.41448 -0.810849 0
M  V30 8641 H 834.16 2.37203 -2.48172 0
M  V30 8642 N 836.605 0.766683 1.37694 0
M  V30 8643 C 838.016 0.394761 1.82479 0
M  V30 8644 C 838.367 -1.07842 1.63904 0
M  V30 8645 O 837.492 -1.83479 1.14737 0
M  V30 8646 C 838.087 0.70974 3.31283 0
M  V30 8647 C 836.646 0.390936 3.74364 0
M  V30 8648 C 835.793 0.956192 2.60293 0
M  V30 8649 H 838.744 0.961756 1.26238 0
M  V30 8650 H 838.765 -0.00742144 3.80499 0
M  V30 8651 H 838.277 1.782 3.4477 0
M  V30 8652 H 836.378 -0.674213 3.66449 0
M  V30 8653 H 836.491 0.895645 4.70654 0
M  V30 8654 H 834.855 0.380744 2.51838 0
M  V30 8655 H 835.638 2.03375 2.76575 0
M  V30 8656 N 838.083 -1.48885 0.516809 0
M  V30 8657 C 839.013 -2.32241 -0.242157 0
M  V30 8658 C 839.994 -1.41258 -0.947633 0
M  V30 8659 O 841.179 -1.70156 -0.935973 0
M  V30 8660 C 838.309 -3.22151 -1.29754 0
M  V30 8661 C 837.263 -4.22053 -0.710995 0
M  V30 8662 C 836.589 -5.01007 -1.86806 0
M  V30 8663 C 837.889 -5.21388 0.30853 0
M  V30 8664 H 839.583 -2.95943 0.453651 0
M  V30 8665 H 837.129 -1.42316 0.219612 0
M  V30 8666 H 839.082 -3.79284 -1.83634 0
M  V30 8667 H 837.806 -2.56423 -2.02274 0
M  V30 8668 H 836.465 -3.66087 -0.193819 0
M  V30 8669 H 836.113 -4.31713 -2.58133 0
M  V30 8670 H 835.813 -5.68615 -1.48159 0
M  V30 8671 H 837.337 -5.60989 -2.4109 0
M  V30 8672 H 838.751 -5.73122 -0.142703 0
M  V30 8673 H 837.148 -5.96975 0.611673 0
M  V30 8674 H 838.218 -4.69329 1.21894 0
M  V30 8675 N 839.561 -0.251338 -1.55583 0
M  V30 8676 C 840.81 0.372681 -1.98227 0
M  V30 8677 C 841.123 1.58743 -1.1428 0
M  V30 8678 O 842.329 2.28289 -1.46957 0
M  V30 8679 C 840.785 0.714439 -3.52738 0
M  V30 8680 C 840.393 -0.479168 -4.4543 0
M  V30 8681 C 842.137 1.3024 -4.04027 0
M  V30 8682 C 840.044 -0.113318 -5.91291 0
M  V30 8683 H 838.974 0.14302 -0.740312 0
M  V30 8684 H 841.625 -0.352253 -1.80087 0
M  V30 8685 H 840.007 1.49762 -3.66589 0
M  V30 8686 H 841.181 -1.25644 -4.4334 0
M  V30 8687 H 839.496 -0.982359 -4.04646 0
M  V30 8688 H 842.093 1.58953 -5.10527 0
M  V30 8689 H 842.436 2.22837 -3.51638 0
M  V30 8690 H 842.969 0.582024 -3.93519 0
M  V30 8691 H 839.708 -1.00654 -6.47726 0
M  V30 8692 H 839.228 0.627666 -5.96507 0
M  V30 8693 H 840.907 0.30293 -6.4629 0
M  V30 8694 N 841.039 1.57585 0.0217189 0
M  V30 8695 C 841.987 2.08134 1.03842 0
M  V30 8696 C 842.981 0.996662 1.36978 0
M  V30 8697 O 844.187 1.18149 1.35797 0
M  V30 8698 H 840.562 0.664298 0.352438 0
M  V30 8699 H 842.533 2.92583 0.58634 0
M  V30 8700 C 841.282 2.58218 2.32849 0
M  V30 8701 H 840.605 3.41302 2.08214 0
M  V30 8702 H 842.045 2.97289 3.02316 0
M  V30 8703 C 840.504 1.48664 3.02325 0
M  V30 8704 O 841.034 0.857075 3.9245 0
M  V30 8705 N 839.24 1.21938 2.63779 0
M  V30 8706 H 838.787 1.73319 1.90574 0
M  V30 8707 H 838.745 0.488523 3.10581 0
M  V30 8708 N 842.517 -0.29412 1.54831 0
M  V30 8709 C 843.765 -1.02643 1.74094 0
M  V30 8710 C 844.086 -1.87563 0.533402 0
M  V30 8711 O 843.356 -1.9061 -0.452192 0
M  V30 8712 H 841.936 -0.381959 0.641963 0
M  V30 8713 H 844.598 -0.323444 1.92197 0
M  V30 8714 H 843.694 -1.67558 2.63307 0
M  V30 8715 N 843.995 -1.47404 -0.557645 0
M  V30 8716 C 845.223 -1.57622 -1.34026 0
M  V30 8717 C 845.638 -0.226256 -1.87439 0
M  V30 8718 O 844.995 0.78043 -1.64971 0
M  V30 8719 C 845.046 -2.60111 -2.51047 0
M  V30 8720 O 844.767 -3.89866 -1.99841 0
M  V30 8721 C 846.268 -2.80508 -3.43264 0
M  V30 8722 H 843.488 -0.532271 -0.40857 0
M  V30 8723 H 846.032 -1.93019 -0.675555 0
M  V30 8724 H 844.187 -2.27648 -3.13457 0
M  V30 8725 H 844.601 -4.45864 -2.76234 0
M  V30 8726 H 846.075 -3.56084 -4.21792 0
M  V30 8727 H 846.552 -1.88314 -3.9678 0
M  V30 8728 H 847.158 -3.14166 -2.86671 0
M  V30 8729 N 845.473 0.80434 -1.35529 0
M  V30 8730 C 846.436 1.89788 -1.28503 0
M  V30 8731 C 847.436 1.59601 -0.195983 0
M  V30 8732 O 848.626 1.68292 -0.449827 0
M  V30 8733 C 845.758 3.26255 -0.98847 0
M  V30 8734 H 846.951 1.97436 -2.25741 0
M  V30 8735 H 844.504 1.00046 -1.20086 0
M  V30 8736 H 845.239 3.24294 -0.0200541 0
M  V30 8737 H 845.024 3.49551 -1.77641 0
M  V30 8738 H 846.514 4.06298 -0.964975 0
M  V30 8739 N 846.951 1.19563 1.02676 0
M  V30 8740 C 847.861 0.950691 2.14474 0
M  V30 8741 C 848.877 -0.0900219 1.73767 0
M  V30 8742 O 850.053 0.0951063 2.01175 0
M  V30 8743 C 847.118 0.494917 3.43149 0
M  V30 8744 C 846.179 1.60527 3.98158 0
M  V30 8745 C 845.412 1.17115 5.20692 0
M  V30 8746 O 845.635 0.0355937 5.70389 0
M  V30 8747 O 844.569 1.97454 5.68591 0
M  V30 8748 H 848.395 1.88651 2.38001 0
M  V30 8749 H 845.98 0.978635 1.12885 0
M  V30 8750 H 847.862 0.249492 4.20661 0
M  V30 8751 H 846.537 -0.412434 3.21062 0
M  V30 8752 H 845.444 1.90487 3.21971 0
M  V30 8753 H 846.777 2.48925 4.24614 0
M  V30 8754 N 848.429 -1.21819 0.999893 0
M  V30 8755 C 849.675 -1.91035 0.680701 0
M  V30 8756 C 850.008 -1.77582 -0.786021 0
M  V30 8757 O 849.283 -1.14917 -1.56921 0
M  V30 8758 C 849.566 -3.43013 1.0961 0
M  V30 8759 C 849.419 -3.65481 2.6219 0
M  V30 8760 C 850.738 -4.35204 0.654616 0
M  V30 8761 H 847.857 -0.693748 0.248763 0
M  V30 8762 H 850.499 -1.43555 1.24466 0
M  V30 8763 H 848.649 -3.83581 0.616253 0
M  V30 8764 H 850.321 -3.34273 3.17899 0
M  V30 8765 H 848.564 -3.09522 3.03938 0
M  V30 8766 H 849.235 -4.71945 2.86307 0
M  V30 8767 H 851.711 -4.0219 1.06688 0
M  V30 8768 H 850.587 -5.40198 0.973492 0
M  V30 8769 H 850.848 -4.3986 -0.444458 0
M  V30 8770 N 849.908 -0.773975 -1.37286 0
M  V30 8771 C 851.138 -0.350249 -2.03609 0
M  V30 8772 C 851.546 1.03313 -1.58502 0
M  V30 8773 O 850.889 1.67118 -0.7627 0
M  V30 8774 C 850.951 -0.317215 -3.58098 0
M  V30 8775 C 850.615 -1.64556 -4.26345 0
M  V30 8776 C 851.612 -2.59839 -4.50311 0
M  V30 8777 C 849.297 -1.92061 -4.64131 0
M  V30 8778 C 851.291 -3.80833 -5.11122 0
M  V30 8779 C 848.978 -3.13325 -5.24663 0
M  V30 8780 C 849.976 -4.0753 -5.48095 0
M  V30 8781 O 849.664 -5.26658 -6.0736 0
M  V30 8782 H 849.396 -0.144456 -0.660385 0
M  V30 8783 H 851.95 -1.0496 -1.76557 0
M  V30 8784 H 850.18 0.438528 -3.84205 0
M  V30 8785 H 851.869 0.0797428 -4.05822 0
M  V30 8786 H 852.635 -2.39872 -4.21529 0
M  V30 8787 H 848.514 -1.19562 -4.45226 0
M  V30 8788 H 852.058 -4.54377 -5.29327 0
M  V30 8789 H 847.955 -3.33177 -5.52869 0
M  V30 8790 H 848.723 -5.27513 -6.25837 0
M  V30 8791 N 851.386 1.48609 -0.524698 0
M  V30 8792 C 852.635 2.01696 0.0132937 0
M  V30 8793 C 852.948 1.40751 1.35825 0
M  V30 8794 O 854.154 1.85304 1.9843 0
M  V30 8795 C 852.61 3.59824 0.0741012 0
M  V30 8796 C 852.218 4.2975 -1.26564 0
M  V30 8797 C 853.962 4.20774 0.5612 0
M  V30 8798 C 851.869 5.79798 -1.16571 0
M  V30 8799 H 850.799 0.753949 0.00873931 0
M  V30 8800 H 853.45 1.70922 -0.667684 0
M  V30 8801 H 851.832 3.87416 0.820043 0
M  V30 8802 H 853.006 4.13836 -2.02674 0
M  V30 8803 H 851.321 3.80649 -1.68806 0
M  V30 8804 H 853.918 5.30687 0.653853 0
M  V30 8805 H 854.261 3.85734 1.56573 0
M  V30 8806 H 854.794 3.97591 -0.128901 0
M  V30 8807 H 851.533 6.19403 -2.14523 0
M  V30 8808 H 851.053 5.9814 -0.445894 0
M  V30 8809 H 852.732 6.41337 -0.854186 0
M  V30 8810 N 852.864 0.259585 1.55447 0
M  V30 8811 C 854.275 -0.241165 1.85136 0
M  V30 8812 C 854.626 -1.56634 1.18153 0
M  V30 8813 O 853.751 -2.11359 0.464351 0
M  V30 8814 C 854.346 -0.444355 3.35873 0
M  V30 8815 C 852.905 -0.889354 3.65742 0
M  V30 8816 C 852.052 0.0262474 2.77288 0
M  V30 8817 H 855.003 0.481808 1.51209 0
M  V30 8818 H 855.024 -1.28517 3.58139 0
M  V30 8819 H 854.536 0.520289 3.84597 0
M  V30 8820 H 852.637 -1.86602 3.22507 0
M  V30 8821 H 852.75 -0.737432 4.73391 0
M  V30 8822 H 851.114 -0.487361 2.49994 0
M  V30 8823 H 851.897 0.986494 3.28821 0
M  V30 8824 N 854.342 -1.57594 -0.0133615 0
M  V30 8825 C 855.758 -1.5527 -0.369255 0
M  V30 8826 C 855.958 -0.987751 -1.7563 0
M  V30 8827 O 855.014 -0.615683 -2.44879 0
M  V30 8828 C 856.327 -2.99602 -0.25672 0
M  V30 8829 C 857.875 -3.11227 -0.332647 0
M  V30 8830 C 858.35 -4.57321 -0.249387 0
M  V30 8831 N 859.841 -4.62177 -0.3077 0
M  V30 8832 C 860.576 -5.72781 -0.26641 0
M  V30 8833 N 860.072 -6.92575 -0.176494 0
M  V30 8834 N 861.865 -5.61204 -0.317295 0
M  V30 8835 H 854.016 -1.92662 0.894154 0
M  V30 8836 H 856.279 -0.884352 0.341505 0
M  V30 8837 H 855.985 -3.44723 0.697072 0
M  V30 8838 H 855.859 -3.6246 -1.04415 0
M  V30 8839 H 858.246 -2.66045 -1.27688 0
M  V30 8840 H 858.327 -2.51171 0.484412 0
M  V30 8841 H 857.971 -5.03174 0.691242 0
M  V30 8842 H 857.901 -5.15306 -1.08476 0
M  V30 8843 H 860.392 -3.75994 -0.379069 0
M  V30 8844 H 860.705 -7.72653 -0.150518 0
M  V30 8845 H 859.05 -6.94854 -0.142314 0
M  V30 8846 H 862.241 -4.66509 -0.385643 0
M  V30 8847 H 862.414 -6.47388 -0.28165 0
M  V30 8848 N 855.82 0.285905 -1.54985 0
M  V30 8849 C 856.768 1.37302 -1.87752 0
M  V30 8850 C 857.762 1.51763 -0.752616 0
M  V30 8851 O 858.968 1.53701 -0.936805 0
M  V30 8852 H 855.343 0.458935 -0.59572 0
M  V30 8853 H 857.314 1.0691 -2.78591 0
M  V30 8854 C 856.063 2.72885 -2.15474 0
M  V30 8855 H 855.386 2.62545 -3.01513 0
M  V30 8856 H 856.826 3.47925 -2.42331 0
M  V30 8857 C 855.285 3.22989 -0.958124 0
M  V30 8858 O 855.815 4.01268 -0.186219 0
M  V30 8859 N 854.021 2.80503 -0.759354 0
M  V30 8860 H 853.568 2.16961 -1.38874 0
M  V30 8861 H 853.526 3.14375 0.0396937 0
M  V30 8862 N 857.298 1.47698 0.54982 0
M  V30 8863 C 858.523 1.58579 1.33669 0
M  V30 8864 C 858.948 0.239049 1.86575 0
M  V30 8865 O 858.306 -0.786256 1.63364 0
M  V30 8866 C 858.354 2.62029 2.47736 0
M  V30 8867 O 857.458 2.17813 3.50188 0
M  V30 8868 H 856.799 0.532447 0.396732 0
M  V30 8869 H 859.329 1.93536 0.6637 0
M  V30 8870 H 859.339 2.82682 2.94202 0
M  V30 8871 H 858.014 3.59812 2.08586 0
M  V30 8872 H 856.591 2.07291 3.09976 0
M  V30 8873 N 858.776 -0.797141 1.35954 0
M  V30 8874 C 860.024 -1.55161 1.29497 0
M  V30 8875 C 860.345 -1.94582 -0.127659 0
M  V30 8876 O 859.615 -1.64343 -1.06622 0
M  V30 8877 H 858.195 -0.575413 0.47635 0
M  V30 8878 H 860.857 -0.950282 1.70164 0
M  V30 8879 H 859.953 -2.46272 1.9172 0
M  V30 8880 N 860.254 -1.20106 -1.0204 0
M  V30 8881 C 861.503 -1.00316 -1.74985 0
M  V30 8882 C 861.816 0.465814 -1.89972 0
M  V30 8883 O 863.022 0.782749 -2.59972 0
M  V30 8884 C 861.478 -1.74608 -3.14706 0
M  V30 8885 C 861.086 -3.25573 -3.07744 0
M  V30 8886 C 862.83 -1.63172 -3.91887 0
M  V30 8887 C 860.737 -3.92419 -4.42449 0
M  V30 8888 H 859.667 -0.371728 -0.655999 0
M  V30 8889 H 862.318 -1.43688 -1.14131 0
M  V30 8890 H 860.7 -1.24021 -3.76078 0
M  V30 8891 H 861.874 -3.83345 -2.55702 0
M  V30 8892 H 860.189 -3.3738 -2.44057 0
M  V30 8893 H 862.786 -2.10457 -4.9154 0
M  V30 8894 H 863.129 -0.58728 -4.12137 0
M  V30 8895 H 863.662 -2.11152 -3.37135 0
M  V30 8896 H 860.401 -4.96998 -4.27403 0
M  V30 8897 H 859.921 -3.39436 -4.94513 0
M  V30 8898 H 861.6 -3.96453 -5.11306 0
M  V30 8899 N 861.732 1.21287 -1.00634 0
M  V30 8900 C 862.98 1.90013 -0.688438 0
M  V30 8901 C 863.301 1.78573 0.783365 0
M  V30 8902 O 862.571 1.1815 1.56261 0
M  V30 8903 H 861.151 0.703336 -0.251648 0
M  V30 8904 H 863.813 1.47346 -1.27574 0
M  V30 8905 H 862.909 2.96879 -0.962781 0
M  V30 8906 N 863.21 0.781244 1.36873 0
M  V30 8907 C 864.44 0.361042 2.03421 0
M  V30 8908 C 864.848 -1.02471 1.59048 0
M  V30 8909 O 864.191 -1.66712 0.771552 0
M  V30 8910 C 864.253 0.336202 3.57924 0
M  V30 8911 C 863.917 1.66815 4.25467 0
M  V30 8912 C 864.914 2.62224 4.48926 0
M  V30 8913 C 862.599 1.9452 4.63106 0
M  V30 8914 C 864.593 3.83538 5.09095 0
M  V30 8915 C 862.28 3.16103 5.22994 0
M  V30 8916 C 863.278 4.10431 5.45926 0
M  V30 8917 O 862.966 5.29871 6.04559 0
M  V30 8918 H 862.698 0.147956 0.65961 0
M  V30 8919 H 865.252 1.05895 1.75998 0
M  V30 8920 H 863.482 -0.418147 3.84433 0
M  V30 8921 H 865.171 -0.0582199 4.05858 0
M  V30 8922 H 865.937 2.42104 4.20251 0
M  V30 8923 H 861.816 1.21921 4.44585 0
M  V30 8924 H 865.36 4.57178 5.2691 0
M  V30 8925 H 861.257 3.36104 5.51094 0
M  V30 8926 H 862.025 5.30825 6.23031 0
M  V30 8927 N 864.689 -1.48329 0.532571 0
M  V30 8928 C 865.619 -2.32485 -0.217511 0
M  V30 8929 C 866.6 -1.42255 -0.932598 0
M  V30 8930 O 867.785 -1.7114 -0.917873 0
M  V30 8931 C 864.915 -3.23509 -1.26329 0
M  V30 8932 C 863.869 -4.22784 -0.666191 0
M  V30 8933 C 863.195 -5.0296 -1.81482 0
M  V30 8934 C 864.495 -5.21031 0.363813 0
M  V30 8935 H 866.189 -2.95445 0.485014 0
M  V30 8936 H 863.735 -1.42075 0.234694 0
M  V30 8937 H 865.688 -3.81211 -1.79601 0
M  V30 8938 H 864.412 -2.58554 -1.99543 0
M  V30 8939 H 863.071 -3.66272 -0.15498 0
M  V30 8940 H 862.719 -4.34427 -2.5354 0
M  V30 8941 H 862.419 -5.70154 -1.4212 0
M  V30 8942 H 863.943 -5.63514 -2.35126 0
M  V30 8943 H 865.357 -5.73241 -0.0819079 0
M  V30 8944 H 863.754 -5.96292 0.674956 0
M  V30 8945 H 864.824 -4.6801 1.26865 0
M  V30 8946 N 866.167 -0.267825 -1.55308 0
M  V30 8947 C 867.413 0.351556 -1.9973 0
M  V30 8948 C 867.746 1.56049 -1.15596 0
M  V30 8949 O 867.021 1.93203 -0.224274 0
M  V30 8950 C 867.304 0.74091 -3.52395 0
M  V30 8951 C 867.157 -0.474861 -4.47286 0
M  V30 8952 C 868.476 1.5801 -4.10756 0
M  V30 8953 H 865.595 0.126308 -0.726096 0
M  V30 8954 H 868.237 -0.373316 -1.86296 0
M  V30 8955 H 866.387 1.35851 -3.63973 0
M  V30 8956 H 868.059 -1.1134 -4.47662 0
M  V30 8957 H 866.302 -1.11425 -4.19246 0
M  V30 8958 H 866.973 -0.158782 -5.51772 0
M  V30 8959 H 869.449 1.05857 -4.0241 0
M  V30 8960 H 868.325 1.82135 -5.17801 0
M  V30 8961 H 868.586 2.55878 -3.60526 0
M  V30 8962 N 867.645 1.57599 0.00500368 0
M  V30 8963 C 868.873 1.94626 0.702016 0
M  V30 8964 C 869.288 0.86953 1.67585 0
M  V30 8965 O 868.645 -0.15199 1.81866 0
M  V30 8966 C 868.696 3.31658 1.43824 0
M  V30 8967 O 868.417 4.35197 0.503467 0
M  V30 8968 C 869.918 3.83114 2.23021 0
M  V30 8969 H 867.138 0.641785 0.195841 0
M  V30 8970 H 869.682 2.04451 -0.0446287 0
M  V30 8971 H 867.837 3.23156 2.13655 0
M  V30 8972 H 868.251 5.1444 1.02235 0
M  V30 8973 H 869.725 4.81438 2.7004 0
M  V30 8974 H 870.202 3.15559 3.05482 0
M  V30 8975 H 870.808 3.94775 1.58216 0
M  V30 8976 N 869.123 -0.277682 1.55134 0
M  V30 8977 C 870.369 -1.0114 1.7578 0
M  V30 8978 C 870.702 -1.86109 0.554719 0
M  V30 8979 O 869.977 -1.89275 -0.447813 0
M  V30 8980 C 870.26 -1.89789 3.06027 0
M  V30 8981 C 870.113 -1.07844 4.3668 0
M  V30 8982 C 871.432 -2.88577 3.32282 0
M  V30 8983 H 868.551 -0.366277 0.639539 0
M  V30 8984 H 871.193 -0.284155 1.87863 0
M  V30 8985 H 869.343 -2.51796 2.95856 0
M  V30 8986 H 871.015 -0.479432 4.58802 0
M  V30 8987 H 869.258 -0.381764 4.32117 0
M  V30 8988 H 869.929 -1.73179 5.24131 0
M  V30 8989 H 872.405 -2.36702 3.42215 0
M  V30 8990 H 871.281 -3.47749 4.2469 0
M  V30 8991 H 871.542 -3.63458 2.51696 0
M  V30 8992 N 870.601 -1.47988 -0.541979 0
M  V30 8993 C 871.847 -1.55623 -1.30036 0
M  V30 8994 C 872.18 -0.224254 -1.92901 0
M  V30 8995 O 871.455 0.768629 -1.78668 0
M  V30 8996 C 871.738 -2.68562 -2.39888 0
M  V30 8997 C 871.591 -4.11426 -1.81792 0
M  V30 8998 C 872.91 -2.77325 -3.41729 0
M  V30 8999 H 870.029 -0.566498 -0.471433 0
M  V30 9000 H 872.671 -1.8011 -0.604998 0
M  V30 9001 H 870.821 -2.47814 -2.992 0
M  V30 9002 H 872.493 -4.43581 -1.26624 0
M  V30 9003 H 870.736 -4.18989 -1.12386 0
M  V30 9004 H 871.407 -4.8625 -2.61276 0
M  V30 9005 H 873.883 -2.96085 -2.92357 0
M  V30 9006 H 872.759 -3.58097 -4.16002 0
M  V30 9007 H 873.02 -1.84995 -4.01534 0
M  V30 9008 N 872.079 0.78992 -1.36375 0
M  V30 9009 C 873.026 1.90254 -1.3066 0
M  V30 9010 C 873.996 1.65171 -0.17539 0
M  V30 9011 O 875.181 1.87338 -0.361824 0
M  V30 9012 C 872.321 3.27057 -1.10125 0
M  V30 9013 C 871.434 3.64215 -2.32317 0
M  V30 9014 C 870.569 4.90134 -2.04798 0
M  V30 9015 C 869.608 5.19969 -3.22953 0
M  V30 9016 N 868.745 6.37071 -2.95102 0
M  V30 9017 H 873.585 1.94474 -2.25796 0
M  V30 9018 H 871.122 0.951022 -1.12223 0
M  V30 9019 H 873.08 4.05947 -0.962453 0
M  V30 9020 H 871.71 3.22261 -0.186444 0
M  V30 9021 H 870.762 2.80454 -2.57002 0
M  V30 9022 H 872.074 3.82212 -3.20492 0
M  V30 9023 H 871.228 5.76888 -1.87845 0
M  V30 9024 H 869.967 4.74205 -1.13932 0
M  V30 9025 H 868.972 4.31699 -3.40465 0
M  V30 9026 H 870.197 5.37817 -4.14644 0
M  V30 9027 H 868.143 6.22535 -2.06848 0
M  V30 9028 H 868.06 6.55398 -3.76815 0
M  V30 9029 H 869.328 7.26808 -2.81727 0
M  V30 9030 N 873.557 1.20646 1.01402 0
M  V30 9031 C 874.52 0.959314 2.08158 0
M  V30 9032 C 875.52 -0.0661558 1.60664 0
M  V30 9033 O 876.71 0.170177 1.73367 0
M  V30 9034 C 873.842 0.444785 3.37986 0
M  V30 9035 H 875.035 1.90631 2.31517 0
M  V30 9036 H 872.588 1.02219 1.18241 0
M  V30 9037 H 873.323 -0.507553 3.20304 0
M  V30 9038 H 873.108 1.18435 3.73785 0
M  V30 9039 H 874.598 0.291443 4.16582 0
M  V30 9040 N 875.035 -1.20752 1.01276 0
M  V30 9041 C 875.945 -2.27079 0.589277 0
M  V30 9042 C 876.961 -1.6999 -0.371389 0
M  V30 9043 O 878.137 -2.00044 -0.233294 0
M  V30 9044 C 875.202 -3.4663 -0.0696715 0
M  V30 9045 C 874.263 -4.18962 0.936454 0
M  V30 9046 C 873.496 -5.32806 0.308856 0
M  V30 9047 O 873.719 -5.63376 -0.8924 0
M  V30 9048 O 872.653 -5.93131 1.02367 0
M  V30 9049 H 876.479 -2.6551 1.47438 0
M  V30 9050 H 874.064 -1.27297 0.782045 0
M  V30 9051 H 875.946 -4.19119 -0.437873 0
M  V30 9052 H 874.621 -3.10082 -0.929029 0
M  V30 9053 H 873.528 -3.48661 1.35595 0
M  V30 9054 H 874.861 -4.59441 1.76565 0
M  V30 9055 N 876.513 -0.788492 -1.36457 0
M  V30 9056 C 877.79 -0.284484 -1.9352 0
M  V30 9057 C 878.17 1.2232 -1.7205 0
M  V30 9058 O 877.518 2.01424 -1.07892 0
M  V30 9059 C 877.728 -0.676106 -3.42388 0
M  V30 9060 C 879.076 -0.655327 -4.19512 0
M  V30 9061 O 880.1 -0.616523 -3.50824 0
M  V30 9062 O 878.959 -0.697391 -5.42032 0
M  V30 9063 H 876.053 -0.0701769 -0.824017 0
M  V30 9064 H 878.599 -0.870974 -1.45644 0
M  V30 9065 H 877.371 -1.71596 -3.51668 0
M  V30 9066 H 876.994 -0.0634517 -3.97549 0
M  V30 9067 N 877.991 1.48044 -0.54043 0
M  V30 9068 C 879.221 2.06595 -0.0144943 0
M  V30 9069 C 879.629 1.39593 1.27713 0
M  V30 9070 O 878.972 0.480794 1.77297 0
M  V30 9071 C 879.034 3.5849 0.269316 0
M  V30 9072 C 878.698 4.47429 -0.930372 0
M  V30 9073 C 879.695 4.8657 -1.83155 0
M  V30 9074 C 877.38 4.89185 -1.14032 0
M  V30 9075 C 879.374 5.66246 -2.92649 0
M  V30 9076 C 877.061 5.6863 -2.23838 0
M  V30 9077 C 878.059 6.07069 -3.12979 0
M  V30 9078 O 877.747 6.84917 -4.20884 0
M  V30 9079 H 877.479 0.675086 -0.0351467 0
M  V30 9080 H 880.033 1.91275 -0.74853 0
M  V30 9081 H 878.263 3.71961 1.05745 0
M  V30 9082 H 879.952 3.99124 0.738595 0
M  V30 9083 H 880.718 4.54924 -1.68134 0
M  V30 9084 H 876.597 4.58742 -0.455717 0
M  V30 9085 H 880.141 5.96169 -3.62254 0
M  V30 9086 H 876.038 5.99688 -2.38839 0
M  V30 9087 H 876.806 7.03287 -4.18723 0
M  V30 9088 N 879.47 0.276058 1.55163 0
M  V30 9089 C 880.747 -0.392292 1.91626 0
M  V30 9090 C 881.127 -1.73646 1.20043 0
M  V30 9091 O 880.475 -2.26139 0.327606 0
M  V30 9092 C 880.685 -0.531641 3.44927 0
M  V30 9093 C 882.033 -0.8141 4.16722 0
M  V30 9094 O 883.057 -0.616413 3.50826 0
M  V30 9095 O 881.916 -1.19224 5.33337 0
M  V30 9096 H 879.01 -0.214945 0.798579 0
M  V30 9097 H 881.556 0.32228 1.66612 0
M  V30 9098 H 880.328 0.414282 3.89101 0
M  V30 9099 H 879.951 -1.29564 3.75897 0
M  V30 9100 N 880.948 -1.576 0.00335426 0
M  V30 9101 C 881.858 -2.12067 -1.00322 0
M  V30 9102 C 882.874 -1.06672 -1.37467 0
M  V30 9103 O 884.05 -1.38592 -1.46131 0
M  V30 9104 C 881.115 -2.61593 -2.27531 0
M  V30 9105 C 880.176 -3.81602 -1.96668 0
M  V30 9106 C 879.409 -4.28756 -3.17811 0
M  V30 9107 O 879.632 -3.75222 -4.2961 0
M  V30 9108 O 878.566 -5.20877 -3.01613 0
M  V30 9109 H 882.392 -2.98299 -0.570199 0
M  V30 9110 H 879.977 -1.47835 -0.215682 0
M  V30 9111 H 881.859 -2.93631 -3.02256 0
M  V30 9112 H 880.534 -1.78457 -2.70065 0
M  V30 9113 H 879.441 -3.54531 -1.19408 0
M  V30 9114 H 880.774 -4.65822 -1.58968 0
M  V30 9115 N 882.426 0.269451 -1.5528 0
M  V30 9116 C 883.674 0.998604 -1.75705 0
M  V30 9117 C 883.995 1.86691 -0.563175 0
M  V30 9118 O 883.265 1.91305 0.421811 0
M  V30 9119 H 881.845 0.371698 -0.647958 0
M  V30 9120 H 884.507 0.292826 -1.92688 0
M  V30 9121 H 883.603 1.63348 -2.6594 0
M  V30 9122 N 883.904 1.48273 0.534124 0
M  V30 9123 C 884.814 1.65162 1.66609 0
M  V30 9124 C 885.83 0.534177 1.65598 0
M  V30 9125 O 887.006 0.804715 1.84625 0
M  V30 9126 C 884.071 1.68354 3.03081 0
M  V30 9127 C 883.132 2.91696 3.1498 0
M  V30 9128 C 882.365 2.94725 4.44941 0
M  V30 9129 O 882.588 2.06285 5.31792 0
M  V30 9130 O 881.522 3.8685 4.61119 0
M  V30 9131 H 885.348 2.60991 1.55298 0
M  V30 9132 H 882.933 1.31626 0.706749 0
M  V30 9133 H 884.815 1.72998 3.84252 0
M  V30 9134 H 883.49 0.756978 3.14725 0
M  V30 9135 H 882.397 2.92586 2.33119 0
M  V30 9136 H 883.73 3.83722 3.0825 0
M  V30 9137 N 885.382 -0.782676 1.36792 0
M  V30 9138 C 886.33 -1.91698 1.31737 0
M  V30 9139 C 887.324 -1.68118 0.207994 0
M  V30 9140 O 888.53 -1.76042 0.375393 0
M  V30 9141 H 884.905 -0.630215 0.410284 0
M  V30 9142 H 886.876 -1.93078 2.27516 0
M  V30 9143 C 885.625 -3.28816 1.13029 0
M  V30 9144 H 884.948 -3.4753 1.97643 0
M  V30 9145 H 886.388 -4.08515 1.13541 0
M  V30 9146 C 884.847 -3.36497 -0.1647 0
M  V30 9147 O 885.377 -3.84822 -1.15216 0
M  V30 9148 N 883.583 -2.89828 -0.211678 0
M  V30 9149 H 883.13 -2.50693 0.59252 0
M  V30 9150 H 883.088 -2.95349 -1.07779 0
M  V30 9151 N 886.86 -1.21182 -1.00761 0
M  V30 9152 C 888.108 -1.02543 -1.74153 0
M  V30 9153 C 888.429 0.442372 -1.89916 0
M  V30 9154 O 887.699 1.31927 -1.44818 0
M  V30 9155 H 886.279 -0.37644 -0.645214 0
M  V30 9156 H 888.941 -1.52446 -1.21434 0
M  V30 9157 H 888.037 -1.49122 -2.7417 0
M  V30 9158 N 888.338 1.20213 -1.01915 0
M  V30 9159 C 889.754 1.41696 -0.734459 0
M  V30 9160 C 889.954 1.89504 0.684867 0
M  V30 9161 O 889.01 2.06556 1.45227 0
M  V30 9162 C 890.323 2.43644 -1.76233 0
M  V30 9163 C 891.871 2.57406 -1.78076 0
M  V30 9164 C 892.346 3.626 -2.79796 0
M  V30 9165 N 893.837 3.70086 -2.78551 0
M  V30 9166 C 894.572 4.51145 -3.53915 0
M  V30 9167 N 894.068 5.35988 -4.38963 0
M  V30 9168 N 895.861 4.45702 -3.425 0
M  V30 9169 H 888.012 0.874976 -1.93541 0
M  V30 9170 H 890.275 0.446647 -0.836188 0
M  V30 9171 H 889.981 2.15519 -2.77929 0
M  V30 9172 H 889.855 3.42672 -1.57657 0
M  V30 9173 H 892.242 2.8486 -0.770634 0
M  V30 9174 H 892.323 1.58565 -2.00725 0
M  V30 9175 H 891.967 3.35889 -3.80973 0
M  V30 9176 H 891.897 4.61069 -2.54407 0
M  V30 9177 H 894.388 3.09484 -2.1686 0
M  V30 9178 H 894.701 5.94932 -4.9323 0
M  V30 9179 H 893.046 5.35482 -4.4304 0
M  V30 9180 H 896.237 3.78456 -2.75478 0
M  V30 9181 H 896.41 5.08637 -4.01487 0
M  V30 9182 N 889.816 0.795718 1.36037 0
M  V30 9183 C 891.062 0.371574 1.99367 0
M  V30 9184 C 891.395 -1.0557 1.62999 0
M  V30 9185 O 890.67 -1.73051 0.887895 0
M  V30 9186 C 890.953 0.542622 3.55988 0
M  V30 9187 C 890.806 2.01404 4.0219 0
M  V30 9188 C 892.125 -0.0384527 4.40083 0
M  V30 9189 H 889.244 0.136483 0.724252 0
M  V30 9190 H 891.886 1.00323 1.61355 0
M  V30 9191 H 890.036 0.0049053 3.885 0
M  V30 9192 H 891.708 2.6133 3.80137 0
M  V30 9193 H 889.951 2.51439 3.53498 0
M  V30 9194 H 890.622 2.08466 5.11122 0
M  V30 9195 H 893.098 0.420634 4.13968 0
M  V30 9196 H 891.974 0.111214 5.48787 0
M  V30 9197 H 892.235 -1.13116 4.27384 0
M  V30 9198 N 891.294 -1.47756 0.548274 0
M  V30 9199 C 892.522 -2.06884 0.0254873 0
M  V30 9200 C 892.937 -1.40225 -1.26422 0
M  V30 9201 O 892.294 -0.495776 -1.75637 0
M  V30 9202 C 892.345 -3.61036 -0.183134 0
M  V30 9203 O 892.066 -4.25195 1.05549 0
M  V30 9204 C 893.567 -4.37008 -0.744222 0
M  V30 9205 H 890.787 -0.669697 0.041789 0
M  V30 9206 H 893.331 -1.89888 0.759138 0
M  V30 9207 H 891.486 -3.77576 -0.866886 0
M  V30 9208 H 891.9 -5.17606 0.847629 0
M  V30 9209 H 893.374 -5.45579 -0.839529 0
M  V30 9210 H 893.851 -4.0268 -1.75344 0
M  V30 9211 H 894.457 -4.25191 -0.0964542 0
M  V30 9212 N 892.772 -0.284283 -1.55015 0
M  V30 9213 C 894.002 0.332465 -2.03907 0
M  V30 9214 C 894.41 1.49331 -1.16177 0
M  V30 9215 O 893.753 1.82851 -0.176395 0
M  V30 9216 C 893.815 0.867193 -3.48884 0
M  V30 9217 C 893.479 -0.166198 -4.56698 0
M  V30 9218 C 894.476 -0.988898 -5.10408 0
M  V30 9219 C 892.161 -0.303081 -5.01385 0
M  V30 9220 C 894.155 -1.93458 -6.07333 0
M  V30 9221 C 891.842 -1.25223 -5.98133 0
M  V30 9222 C 892.84 -2.06647 -6.50988 0
M  V30 9223 O 892.528 -2.99955 -7.45843 0
M  V30 9224 H 892.26 0.0786597 -0.671408 0
M  V30 9225 H 894.814 -0.416871 -2.01125 0
M  V30 9226 H 893.044 1.66676 -3.48935 0
M  V30 9227 H 894.733 1.39802 -3.81065 0
M  V30 9228 H 895.499 -0.89393 -4.76691 0
M  V30 9229 H 891.378 0.320711 -4.59883 0
M  V30 9230 H 894.922 -2.57053 -6.48513 0
M  V30 9231 H 890.819 -1.34798 -6.31268 0
M  V30 9232 H 891.587 -2.94742 -7.6359 0
M  V30 9233 N 894.251 1.57596 -0.0117121 0
M  V30 9234 C 895.528 1.82323 0.708356 0
M  V30 9235 C 895.908 0.891947 1.91331 0
M  V30 9236 O 895.256 -0.0565984 2.2843 0
M  V30 9237 C 895.466 3.31111 1.10303 0
M  V30 9238 C 896.814 3.97147 1.50199 0
M  V30 9239 O 897.838 3.35503 1.1965 0
M  V30 9240 O 896.697 5.0576 2.07049 0
M  V30 9241 H 893.791 0.751173 0.345931 0
M  V30 9242 H 896.337 1.69657 -0.0380632 0
M  V30 9243 H 895.109 3.90534 0.24467 0
M  V30 9244 H 894.732 3.48818 1.90818 0
M  V30 9245 N 895.729 -0.261212 1.5542 0
M  V30 9246 C 896.662 -1.34906 1.84054 0
M  V30 9247 C 897.64 -1.47024 0.694466 0
M  V30 9248 O 898.824 -1.63463 0.938719 0
M  V30 9249 C 895.951 -2.7242 2.01259 0
M  V30 9250 C 894.997 -2.77526 3.23855 0
M  V30 9251 S 895.83 -2.35578 4.80898 0
M  V30 9252 C 896.986 -3.75045 5.01091 0
M  V30 9253 H 897.219 -1.10416 2.76035 0
M  V30 9254 H 894.752 -0.461461 1.47343 0
M  V30 9255 H 896.71 -3.51606 2.11857 0
M  V30 9256 H 895.371 -2.94155 1.10145 0
M  V30 9257 H 894.564 -3.78483 3.32816 0
M  V30 9258 H 894.166 -2.0637 3.11909 0
M  V30 9259 H 896.458 -4.7042 4.87556 0
M  V30 9260 H 897.401 -3.71027 6.03112 0
M  V30 9261 H 897.809 -3.66894 4.29009 0
M  V30 9262 N 897.207 -1.48554 -0.526253 0
M  V30 9263 C 898.435 -1.60429 -1.30652 0
M  V30 9264 C 898.85 -0.265963 -1.86917 0
M  V30 9265 O 898.207 0.745262 -1.6659 0
M  V30 9266 C 898.258 -2.65377 -2.45473 0
M  V30 9267 O 897.979 -3.94017 -1.91527 0
M  V30 9268 C 899.48 -2.87726 -3.37237 0
M  V30 9269 H 896.7 -0.540817 -0.397187 0
M  V30 9270 H 899.244 -1.94409 -0.634461 0
M  V30 9271 H 897.399 -2.34246 -3.08557 0
M  V30 9272 H 897.813 -4.51623 -2.66715 0
M  V30 9273 H 899.287 -3.64951 -4.14144 0
M  V30 9274 H 899.764 -1.96688 -3.92696 0
M  V30 9275 H 900.37 -3.20176 -2.79942 0
M  V30 9276 N 898.685 0.775411 -1.37205 0
M  V30 9277 C 899.595 1.91967 -1.34855 0
M  V30 9278 C 900.611 1.72214 -0.248656 0
M  V30 9279 O 901.787 1.95512 -0.483421 0
M  V30 9280 C 898.852 3.27038 -1.15096 0
M  V30 9281 C 897.913 3.5947 -2.34691 0
M  V30 9282 C 897.146 4.88097 -2.15865 0
M  V30 9283 O 897.369 5.58871 -1.14102 0
M  V30 9284 O 896.303 5.19507 -3.03967 0
M  V30 9285 H 900.129 1.969 -2.31223 0
M  V30 9286 H 897.714 0.917647 -1.17897 0
M  V30 9287 H 899.596 4.07837 -1.0605 0
M  V30 9288 H 898.271 3.22965 -0.217999 0
M  V30 9289 H 897.178 2.7892 -2.49308 0
M  V30 9290 H 898.511 3.68282 -3.26541 0
M  V30 9291 N 900.163 1.21714 1.00117 0
M  V30 9292 C 901.411 1.03465 1.73607 0
M  V30 9293 C 901.732 -0.432295 1.90148 0
M  V30 9294 O 901.002 -1.31157 1.45515 0
M  V30 9295 H 899.582 0.379857 0.643209 0
M  V30 9296 H 902.244 1.53088 1.20624 0
M  V30 9297 H 901.34 1.50574 2.73375 0
M  V30 9298 N 901.641 -1.19671 1.02551 0
M  V30 9299 C 902.918 -1.85014 0.634771 0
M  V30 9300 C 903.298 -1.91574 -0.886706 0
M  V30 9301 O 902.646 -1.43022 -1.78205 0
M  V30 9302 C 902.856 -3.24167 1.29292 0
M  V30 9303 C 904.204 -4.00363 1.41402 0
M  V30 9304 O 905.228 -3.33553 1.24983 0
M  V30 9305 O 904.087 -5.2003 1.6802 0
M  V30 9306 H 901.181 -0.797147 0.220196 0
M  V30 9307 H 903.727 -1.27188 1.12345 0
M  V30 9308 H 902.499 -3.14208 2.33215 0
M  V30 9309 H 902.122 -3.89634 0.791895 0
M  V30 9310 N 903.119 -0.802921 -1.35613 0
M  V30 9311 C 904.535 -0.486214 -1.52014 0
M  V30 9312 C 904.735 0.993219 -1.75321 0
M  V30 9313 O 903.791 1.77835 -1.79251 0
M  V30 9314 C 905.104 -1.32839 -2.69767 0
M  V30 9315 C 906.652 -1.32346 -2.83643 0
M  V30 9316 C 907.127 -2.14967 -4.04417 0
M  V30 9317 N 908.618 -2.12484 -4.11588 0
M  V30 9318 C 909.353 -2.73173 -5.04147 0
M  V30 9319 N 908.849 -3.42774 -6.02061 0
M  V30 9320 N 910.642 -2.62834 -4.96865 0
M  V30 9321 H 902.793 -1.76109 -1.18741 0
M  V30 9322 H 905.056 -0.74936 -0.580658 0
M  V30 9323 H 904.762 -2.37813 -2.5911 0
M  V30 9324 H 904.636 -0.979058 -3.64272 0
M  V30 9325 H 907.023 -0.281586 -2.93753 0
M  V30 9326 H 907.104 -1.71264 -1.90006 0
M  V30 9327 H 906.748 -3.19193 -3.95068 0
M  V30 9328 H 906.678 -1.73411 -4.97228 0
M  V30 9329 H 909.169 -1.61839 -3.41492 0
M  V30 9330 H 909.482 -3.86378 -6.69277 0
M  V30 9331 H 907.827 -3.46878 -6.02246 0
M  V30 9332 H 911.018 -2.08049 -4.19325 0
M  V30 9333 H 911.191 -3.10421 -5.68808 0
M  V30 9334 N 904.597 1.47463 -0.556102 0
M  V30 9335 C 905.845 2.02075 -0.0315712 0
M  V30 9336 C 906.166 1.43292 1.32259 0
M  V30 9337 O 905.436 0.60771 1.86236 0
M  V30 9338 H 904.016 0.74695 -0.0086816 0
M  V30 9339 H 906.678 1.80879 -0.725859 0
M  V30 9340 H 905.774 3.12047 0.0573538 0
M  V30 9341 N 906.075 0.2925 1.54862 0
M  V30 9342 C 907.322 -0.319263 1.99967 0
M  V30 9343 C 907.65 -1.54547 1.18092 0
M  V30 9344 O 906.905 -1.94186 0.242969 0
M  V30 9345 C 907.204 -0.728674 3.49893 0
M  V30 9346 C 906.87 0.394836 4.49168 0
M  V30 9347 C 905.532 0.703289 4.76033 0
M  V30 9348 C 907.884 1.15103 5.08331 0
M  V30 9349 C 905.212 1.77121 5.59325 0
M  V30 9350 C 907.564 2.20881 5.92785 0
M  V30 9351 C 906.228 2.52342 6.17964 0
M  V30 9352 H 905.498 -0.116827 0.731733 0
M  V30 9353 H 908.145 0.40983 1.87063 0
M  V30 9354 H 906.45 -1.53772 3.60363 0
M  V30 9355 H 908.147 -1.21305 3.82212 0
M  V30 9356 H 904.737 0.144319 4.28357 0
M  V30 9357 H 908.921 0.92599 4.87585 0
M  V30 9358 H 904.177 2.01978 5.77074 0
M  V30 9359 H 908.351 2.79939 6.37657 0
M  V30 9360 H 905.978 3.35225 6.82296 0
M  V30 9361 N 907.553 -1.57587 0.0200696 0
M  V30 9362 C 908.8 -1.91424 -0.660525 0
M  V30 9363 C 909.128 -0.895626 -1.72652 0
M  V30 9364 O 908.383 0.096771 -1.95461 0
M  V30 9365 C 908.682 -3.32002 -1.32323 0
M  V30 9366 C 908.348 -4.49223 -0.388487 0
M  V30 9367 C 907.01 -4.81021 -0.131184 0
M  V30 9368 C 909.362 -5.20581 0.253906 0
M  V30 9369 C 906.69 -5.81539 0.776471 0
M  V30 9370 C 909.042 -6.22067 1.14956 0
M  V30 9371 C 907.706 -6.52311 1.41584 0
M  V30 9372 H 906.976 -0.700472 -0.241703 0
M  V30 9373 H 909.623 -1.91333 0.0798991 0
M  V30 9374 H 907.928 -3.28312 -2.13819 0
M  V30 9375 H 909.625 -3.5545 -1.85623 0
M  V30 9376 H 906.215 -4.24391 -0.599207 0
M  V30 9377 H 910.399 -4.96253 0.068164 0
M  V30 9378 H 905.655 -6.03322 0.990575 0
M  V30 9379 H 909.829 -6.76484 1.65357 0
M  V30 9380 H 907.456 -7.30017 2.12083 0
M  V30 9381 N 909.032 0.252966 -1.55557 0
M  V30 9382 C 909.942 1.33472 -1.92931 0
M  V30 9383 C 910.958 1.52983 -0.828985 0
M  V30 9384 O 912.134 1.66723 -1.12984 0
M  V30 9385 C 909.199 2.6704 -2.21112 0
M  V30 9386 C 908.26 2.56103 -3.44542 0
M  V30 9387 C 907.493 3.83302 -3.71369 0
M  V30 9388 O 907.716 4.84907 -3.00368 0
M  V30 9389 O 906.65 3.823 -4.64898 0
M  V30 9390 H 910.476 1.04768 -2.85057 0
M  V30 9391 H 908.061 0.453208 -1.4236 0
M  V30 9392 H 909.943 3.45981 -2.40572 0
M  V30 9393 H 908.618 2.95489 -1.32166 0
M  V30 9394 H 907.525 1.7547 -3.30396 0
M  V30 9395 H 908.858 2.32601 -4.33772 0
M  V30 9396 N 910.51 1.48831 0.518367 0
M  V30 9397 C 911.759 1.5669 1.27008 0
M  V30 9398 C 912.072 0.250934 1.93984 0
M  V30 9399 O 913.278 0.207884 2.70703 0
M  V30 9400 C 911.734 2.76387 2.30517 0
M  V30 9401 C 911.342 4.14673 1.69559 0
M  V30 9402 C 913.086 2.93566 3.06625 0
M  V30 9403 C 910.993 5.25616 2.71076 0
M  V30 9404 H 909.923 0.583362 0.477708 0
M  V30 9405 H 912.574 1.75187 0.546052 0
M  V30 9406 H 910.956 2.51348 3.06006 0
M  V30 9407 H 912.13 4.49779 1.00179 0
M  V30 9408 H 910.445 4.02708 1.05902 0
M  V30 9409 H 913.042 3.7362 3.82508 0
M  V30 9410 H 913.385 2.03462 3.63193 0
M  V30 9411 H 913.918 3.18562 2.38251 0
M  V30 9412 H 910.657 6.17723 2.19313 0
M  V30 9413 H 910.177 4.94985 3.38748 0
M  V30 9414 H 911.856 5.5422 3.3384 0
M  V30 9415 N 911.988 -0.768124 1.37614 0
M  V30 9416 C 913.265 -1.51637 1.23554 0
M  V30 9417 C 913.645 -2.1042 -0.169331 0
M  V30 9418 O 912.993 -1.95834 -1.17735 0
M  V30 9419 C 913.203 -2.59436 2.33439 0
M  V30 9420 C 914.551 -3.2674 2.71157 0
M  V30 9421 O 915.575 -2.69733 2.32642 0
M  V30 9422 O 914.434 -4.29814 3.37524 0
M  V30 9423 H 911.528 -0.671778 0.482332 0
M  V30 9424 H 914.074 -0.804779 1.49403 0
M  V30 9425 H 912.846 -2.14146 3.27502 0
M  V30 9426 H 912.469 -3.38192 2.09073 0
M  V30 9427 N 913.466 -1.22244 -0.994698 0
M  V30 9428 C 914.398 -0.948706 -2.08644 0
M  V30 9429 C 915.411 0.0720049 -1.62641 0
M  V30 9430 O 916.6 -0.161778 -1.77765 0
M  V30 9431 C 913.7 -0.404885 -3.36473 0
M  V30 9432 C 912.873 -1.48239 -4.11514 0
M  V30 9433 C 911.932 -0.94597 -5.17627 0
M  V30 9434 O 910.958 -1.63177 -5.45309 0
M  V30 9435 N 912.16 0.23355 -5.8003 0
M  V30 9436 H 914.925 -1.88858 -2.32707 0
M  V30 9437 H 912.486 -1.12908 -1.16032 0
M  V30 9438 H 914.478 -0.0313903 -4.04688 0
M  V30 9439 H 913.048 0.440061 -3.09487 0
M  V30 9440 H 912.268 -2.02928 -3.37955 0
M  V30 9441 H 913.556 -2.20741 -4.58422 0
M  V30 9442 H 912.954 0.80756 -5.59906 0
M  V30 9443 H 911.511 0.54845 -6.49488 0
M  V30 9444 N 914.944 1.19125 -1.03184 0
M  V30 9445 C 916.19 1.89163 -0.731111 0
M  V30 9446 C 916.523 1.79604 0.738662 0
M  V30 9447 O 915.798 1.19037 1.53819 0
M  V30 9448 C 916.081 3.39986 -1.18666 0
M  V30 9449 C 915.934 3.58401 -2.71788 0
M  V30 9450 C 917.253 4.33316 -0.769772 0
M  V30 9451 H 914.372 0.686908 -0.267069 0
M  V30 9452 H 917.014 1.40205 -1.28229 0
M  V30 9453 H 915.164 3.81813 -0.717736 0
M  V30 9454 H 916.836 3.25727 -3.26649 0
M  V30 9455 H 915.079 3.01355 -3.12038 0
M  V30 9456 H 915.75 4.64189 -2.98719 0
M  V30 9457 H 918.226 3.9922 -1.17314 0
M  V30 9458 H 917.102 5.37427 -1.11637 0
M  V30 9459 H 917.363 4.40884 0.327681 0
M  V30 9460 N 916.422 0.810101 1.35185 0
M  V30 9461 C 917.37 0.211071 2.3164 0
M  V30 9462 C 918.364 -0.641109 1.568 0
M  V30 9463 O 919.57 -0.533881 1.719 0
M  V30 9464 H 915.945 0.0494978 0.750369 0
M  V30 9465 H 917.916 1.03964 2.79703 0
M  V30 9466 C 916.665 -0.622933 3.42074 0
M  V30 9467 H 915.988 0.0234648 3.99793 0
M  V30 9468 H 917.428 -1.0084 4.11834 0
M  V30 9469 C 915.887 -1.78994 2.85417 0
M  V30 9470 O 916.417 -2.88758 2.79252 0
M  V30 9471 N 914.623 -1.60259 2.42416 0
M  V30 9472 H 914.17 -0.70974 2.4763 0
M  V30 9473 H 914.128 -2.38498 2.04857 0
M  V30 9474 N 917.9 -1.47166 0.563914 0
M  V30 9475 C 919.148 -2.02056 0.0422873 0
M  V30 9476 C 919.469 -1.43992 -1.31497 0
M  V30 9477 O 918.739 -0.617578 -1.85911 0
M  V30 9478 H 917.319 -0.746893 0.0126427 0
M  V30 9479 H 919.981 -1.80492 0.735441 0
M  V30 9480 H 919.077 -3.12073 -0.0408044 0
M  V30 9481 N 919.378 -0.300708 -1.54705 0
M  V30 9482 C 920.288 0.584996 -2.27189 0
M  V30 9483 C 921.304 1.14866 -1.30697 0
M  V30 9484 O 922.48 1.17351 -1.63679 0
M  V30 9485 C 919.545 1.74076 -2.99831 0
M  V30 9486 C 918.606 1.2112 -4.1186 0
M  V30 9487 C 917.839 2.31188 -4.81028 0
M  V30 9488 O 918.062 3.5108 -4.49554 0
M  V30 9489 O 916.996 1.97897 -5.68437 0
M  V30 9490 H 920.822 -0.00298177 -3.037 0
M  V30 9491 H 918.407 -0.0671802 -1.49249 0
M  V30 9492 H 920.289 2.41413 -3.45395 0
M  V30 9493 H 918.964 2.31535 -2.26215 0
M  V30 9494 H 917.871 0.50357 -3.70695 0
M  V30 9495 H 919.204 0.682046 -4.87452 0
M  V30 9496 N 920.856 1.57574 -0.0284266 0
M  V30 9497 C 922.102 1.92056 0.651327 0
M  V30 9498 C 922.435 0.905092 1.71819 0
M  V30 9499 O 921.71 -0.0722703 1.94366 0
M  V30 9500 C 921.993 3.37021 1.26841 0
M  V30 9501 C 921.846 4.49304 0.211157 0
M  V30 9502 C 923.165 3.81936 2.18662 0
M  V30 9503 H 920.284 0.698428 0.235304 0
M  V30 9504 H 922.926 1.89807 -0.0855435 0
M  V30 9505 H 921.076 3.39068 1.89644 0
M  V30 9506 H 922.748 4.5939 -0.419379 0
M  V30 9507 H 920.991 4.31317 -0.463445 0
M  V30 9508 H 921.662 5.47764 0.682518 0
M  V30 9509 H 924.138 3.8162 1.65847 0
M  V30 9510 H 923.014 4.84064 2.58792 0
M  V30 9511 H 923.275 3.174 3.07749 0
M  V30 9512 N 922.334 -0.244713 1.55689 0
M  V30 9513 C 923.75 -0.593331 1.48161 0
M  V30 9514 C 923.95 -1.88234 0.719047 0
M  V30 9515 O 923.006 -2.51266 0.249292 0
M  V30 9516 C 924.319 -0.694032 2.92581 0
M  V30 9517 C 925.867 -0.786213 3.02965 0
M  V30 9518 C 926.342 -0.918457 4.48696 0
M  V30 9519 N 927.833 -0.983272 4.52643 0
M  V30 9520 C 928.568 -1.1049 5.62654 0
M  V30 9521 N 928.064 -1.19193 6.8247 0
M  V30 9522 N 929.857 -1.13823 5.50455 0
M  V30 9523 H 922.008 0.601446 2.03707 0
M  V30 9524 H 924.271 0.207894 0.924924 0
M  V30 9525 H 923.977 0.183133 3.51223 0
M  V30 9526 H 923.851 -1.56525 3.4319 0
M  V30 9527 H 926.238 -1.65383 2.44402 0
M  V30 9528 H 926.319 0.110202 2.55563 0
M  V30 9529 H 925.963 -0.0553881 5.0787 0
M  V30 9530 H 925.893 -1.82994 4.93782 0
M  V30 9531 H 928.384 -0.927269 3.66347 0
M  V30 9532 H 928.697 -1.28387 7.62061 0
M  V30 9533 H 927.042 -1.16147 6.85226 0
M  V30 9534 H 930.233 -1.06673 4.55783 0
M  V30 9535 H 930.406 -1.22957 6.36228 0
M  V30 9536 N 923.813 -1.49104 -0.510467 0
M  V30 9537 C 925.041 -1.61806 -1.28944 0
M  V30 9538 C 925.456 -0.285774 -1.86625 0
M  V30 9539 O 924.813 0.727551 -1.67371 0
M  V30 9540 C 924.864 -2.67966 -2.42645 0
M  V30 9541 O 924.585 -3.96026 -1.87337 0
M  V30 9542 C 926.086 -2.91286 -3.34166 0
M  V30 9543 H 923.306 -0.544999 -0.391429 0
M  V30 9544 H 925.85 -1.95071 -0.613805 0
M  V30 9545 H 924.005 -2.37505 -3.06056 0
M  V30 9546 H 924.419 -4.54427 -2.61909 0
M  V30 9547 H 925.893 -3.69323 -4.1025 0
M  V30 9548 H 926.37 -2.00842 -3.90588 0
M  V30 9549 H 926.976 -3.23127 -2.76531 0
M  V30 9550 N 925.291 0.760815 -1.38019 0
M  V30 9551 C 926.519 1.55001 -1.37048 0
M  V30 9552 C 926.934 1.88754 0.0415261 0
M  V30 9553 O 926.291 1.52254 1.00624 0
M  V30 9554 C 926.342 2.8536 -2.21928 0
M  V30 9555 O 926.063 2.53049 -3.57628 0
M  V30 9556 C 927.564 3.79536 -2.29057 0
M  V30 9557 H 924.784 0.479844 -0.469032 0
M  V30 9558 H 927.328 0.942148 -1.81504 0
M  V30 9559 H 925.483 3.42542 -1.80953 0
M  V30 9560 H 925.897 3.36604 -4.02241 0
M  V30 9561 H 927.371 4.67977 -2.92749 0
M  V30 9562 H 927.848 4.19453 -1.30213 0
M  V30 9563 H 928.454 3.28281 -2.70392 0
M  V30 9564 N 926.769 1.22769 0.988202 0
M  V30 9565 C 928.185 0.988665 1.2529 0
M  V30 9566 C 928.385 -0.314938 1.99024 0
M  V30 9567 O 927.441 -1.03637 2.30251 0
M  V30 9568 C 928.754 2.19046 2.06009 0
M  V30 9569 C 930.302 2.23452 2.19176 0
M  V30 9570 C 930.777 3.43196 3.03283 0
M  V30 9571 N 932.268 3.43387 3.10869 0
M  V30 9572 C 933.003 4.32693 3.7625 0
M  V30 9573 N 932.499 5.32224 4.43519 0
M  V30 9574 N 934.292 4.20457 3.73058 0
M  V30 9575 H 926.443 2.06575 0.494014 0
M  V30 9576 H 928.706 0.905452 0.28082 0
M  V30 9577 H 928.412 3.13607 1.59197 0
M  V30 9578 H 928.286 2.19492 3.06763 0
M  V30 9579 H 930.673 1.29436 2.65199 0
M  V30 9580 H 930.754 2.27042 1.17836 0
M  V30 9581 H 930.398 4.37515 2.57959 0
M  V30 9582 H 930.328 3.36847 4.04774 0
M  V30 9583 H 932.819 2.71368 2.62998 0
M  V30 9584 H 933.132 5.9664 4.91163 0
M  V30 9585 H 931.477 5.36133 4.42252 0
M  V30 9586 H 934.668 3.41949 3.19669 0
M  V30 9587 H 934.841 4.90261 4.23731 0
M  V30 9588 N 928.247 -1.18576 1.03814 0
M  V30 9589 C 929.475 -1.92437 0.759966 0
M  V30 9590 C 929.89 -1.76031 -0.682526 0
M  V30 9591 O 929.247 -1.08829 -1.46501 0
M  V30 9592 C 929.298 -3.43923 1.11351 0
M  V30 9593 O 929.019 -3.5981 2.49937 0
M  V30 9594 C 930.52 -4.34888 0.859472 0
M  V30 9595 H 927.74 -0.610998 0.277349 0
M  V30 9596 H 930.284 -1.50448 1.38512 0
M  V30 9597 H 928.439 -3.83711 0.533362 0
M  V30 9598 H 928.853 -4.53569 2.63393 0
M  V30 9599 H 930.327 -5.39744 1.15672 0
M  V30 9600 H 930.804 -4.38717 -0.205839 0
M  V30 9601 H 931.41 -4.00795 1.42279 0
M  V30 9602 N 929.725 -0.817259 -1.34754 0
M  V30 9603 C 930.972 -0.402648 -1.98457 0
M  V30 9604 C 931.3 1.03287 -1.64809 0
M  V30 9605 O 930.555 1.73316 -0.908851 0
M  V30 9606 C 930.854 -0.5453 -3.53216 0
M  V30 9607 C 930.52 -1.9457 -4.06759 0
M  V30 9608 C 929.182 -2.32881 -4.21094 0
M  V30 9609 C 931.534 -2.86141 -4.35629 0
M  V30 9610 C 928.862 -3.62108 -4.61622 0
M  V30 9611 C 931.214 -4.14826 -4.776 0
M  V30 9612 C 929.878 -4.53121 -4.9014 0
M  V30 9613 H 929.148 -0.147339 -0.726204 0
M  V30 9614 H 931.795 -1.04011 -1.60791 0
M  V30 9615 H 930.1 0.175576 -3.91406 0
M  V30 9616 H 931.797 -0.205112 -4.00475 0
M  V30 9617 H 928.387 -1.6381 -3.96061 0
M  V30 9618 H 932.571 -2.57788 -4.24098 0
M  V30 9619 H 927.827 -3.91613 -4.69521 0
M  V30 9620 H 932.001 -4.85874 -4.98899 0
M  V30 9621 H 929.628 -5.53307 -5.21302 0
M  V30 9622 N 931.203 1.46865 -0.571711 0
M  V30 9623 C 932.451 2.0203 -0.0530022 0
M  V30 9624 C 932.772 1.44687 1.30731 0
M  V30 9625 O 932.042 0.627429 1.85581 0
M  V30 9626 H 930.622 0.746815 -0.0166035 0
M  V30 9627 H 933.284 1.80099 -0.745003 0
M  V30 9628 H 932.38 3.12091 0.0242538 0
M  V30 9629 N 932.681 0.308908 1.54543 0
M  V30 9630 C 933.591 -0.572939 2.27496 0
M  V30 9631 C 934.607 -1.14171 1.31305 0
M  V30 9632 O 935.783 -1.16481 1.64299 0
M  V30 9633 C 932.848 -1.72483 3.0075 0
M  V30 9634 C 931.909 -1.18934 4.12496 0
M  V30 9635 C 931.142 -2.28634 4.82247 0
M  V30 9636 O 931.365 -3.48691 4.5141 0
M  V30 9637 O 930.299 -1.94879 5.69478 0
M  V30 9638 H 934.125 0.0190877 3.03694 0
M  V30 9639 H 931.71 0.0750943 1.49211 0
M  V30 9640 H 933.592 -2.39578 3.46671 0
M  V30 9641 H 932.267 -2.30332 2.2744 0
M  V30 9642 H 931.174 -0.483904 3.70957 0
M  V30 9643 H 932.507 -0.656185 4.87806 0
M  V30 9644 N 934.159 -1.57557 0.0367827 0
M  V30 9645 C 935.384 -1.96828 -0.653707 0
M  V30 9646 C 935.809 -0.913559 -1.64425 0
M  V30 9647 O 935.167 0.124749 -1.8087 0
M  V30 9648 C 935.215 -3.35189 -1.32969 0
M  V30 9649 O 934.319 -3.32095 -2.44513 0
M  V30 9650 H 933.66 -0.64157 -0.171124 0
M  V30 9651 H 936.19 -2.04351 0.100912 0
M  V30 9652 H 936.2 -3.71593 -1.68472 0
M  V30 9653 H 934.875 -4.11496 -0.603654 0
M  V30 9654 H 933.452 -3.07418 -2.11065 0
M  V30 9655 N 935.637 0.236453 -1.55816 0
M  V30 9656 C 936.862 0.98449 -1.82545 0
M  V30 9657 C 937.287 1.77755 -0.615206 0
M  V30 9658 O 936.645 1.75982 0.435895 0
M  V30 9659 C 936.693 1.88973 -3.07118 0
M  V30 9660 O 935.797 2.98298 -2.84766 0
M  V30 9661 H 935.138 0.279577 -0.602273 0
M  V30 9662 H 937.668 0.254277 -2.03014 0
M  V30 9663 H 937.678 2.3024 -3.36829 0
M  V30 9664 H 936.353 1.30671 -3.94839 0
M  V30 9665 H 934.93 2.61085 -2.6625 0
M  V30 9666 N 937.115 1.49373 0.502552 0
M  V30 9667 C 938.062 1.65927 1.60427 0
M  V30 9668 C 939.032 0.500768 1.58371 0
M  V30 9669 O 940.217 0.727606 1.76382 0
M  V30 9670 C 937.357 1.73043 2.9858 0
M  V30 9671 C 936.47 3.00187 3.10663 0
M  V30 9672 C 935.605 2.98292 4.3954 0
M  V30 9673 C 934.644 4.20022 4.4525 0
M  V30 9674 N 933.781 4.16046 5.65553 0
M  V30 9675 H 938.621 2.59998 1.45619 0
M  V30 9676 H 936.158 1.28912 0.708519 0
M  V30 9677 H 938.116 1.7515 3.78653 0
M  V30 9678 H 936.746 0.824397 3.12095 0
M  V30 9679 H 935.798 3.07699 2.23663 0
M  V30 9680 H 937.11 3.9018 3.10742 0
M  V30 9681 H 936.264 2.98953 5.27932 0
M  V30 9682 H 935.003 2.06075 4.42023 0
M  V30 9683 H 934.008 4.19607 3.5526 0
M  V30 9684 H 935.233 5.13431 4.44484 0
M  V30 9685 H 933.179 3.26665 5.68881 0
M  V30 9686 H 933.096 4.99773 5.67242 0
M  V30 9687 H 934.364 4.20807 6.56156 0
M  V30 9688 N 938.594 -0.753485 1.38421 0
M  V30 9689 C 939.819 -1.54783 1.38047 0
M  V30 9690 C 940.244 -1.8808 -0.0276371 0
M  V30 9691 O 939.602 -1.5058 -1.00973 0
M  V30 9692 C 939.65 -2.82353 2.24297 0
M  V30 9693 O 938.754 -3.77509 1.66014 0
M  V30 9694 H 938.095 -0.468151 0.470883 0
M  V30 9695 H 940.625 -0.931144 1.82184 0
M  V30 9696 H 940.635 -3.31277 2.38159 0
M  V30 9697 H 939.31 -2.57449 3.26639 0
M  V30 9698 H 937.887 -3.36212 1.61294 0
M  V30 9699 N 940.072 -1.23292 -0.981677 0
M  V30 9700 C 941.297 -1.09176 -1.76339 0
M  V30 9701 C 941.722 0.352726 -1.84763 0
M  V30 9702 O 941.08 1.25509 -1.30832 0
M  V30 9703 C 941.128 -1.72046 -3.16911 0
M  V30 9704 O 940.232 -0.98174 -4.00544 0
M  V30 9705 H 939.573 -0.382755 -0.542581 0
M  V30 9706 H 942.103 -1.63319 -1.23239 0
M  V30 9707 H 942.113 -1.77232 -3.67495 0
M  V30 9708 H 940.788 -2.77154 -3.10095 0
M  V30 9709 H 939.365 -1.00672 -3.59054 0
M  V30 9710 N 941.55 1.18024 -1.04442 0
M  V30 9711 C 942.78 1.91753 -0.769044 0
M  V30 9712 C 943.188 1.76629 0.678141 0
M  V30 9713 O 942.531 1.09589 1.47431 0
M  V30 9714 C 942.593 3.43505 -1.0604 0
M  V30 9715 C 942.257 3.82409 -2.50225 0
M  V30 9716 C 943.254 3.8588 -3.48414 0
M  V30 9717 C 940.939 4.13594 -2.85036 0
M  V30 9718 C 942.933 4.19993 -4.79463 0
M  V30 9719 C 940.62 4.47377 -4.1629 0
M  V30 9720 C 941.618 4.50553 -5.13314 0
M  V30 9721 O 941.306 4.83546 -6.42214 0
M  V30 9722 H 941.038 0.615466 -0.279603 0
M  V30 9723 H 943.592 1.5065 -1.3962 0
M  V30 9724 H 941.822 3.84866 -0.376125 0
M  V30 9725 H 943.511 3.98486 -0.772235 0
M  V30 9726 H 944.277 3.6192 -3.2286 0
M  V30 9727 H 940.156 4.10297 -2.10185 0
M  V30 9728 H 943.7 4.22387 -5.55189 0
M  V30 9729 H 939.597 4.70798 -4.4161 0
M  V30 9730 H 940.365 5.01433 -6.46921 0
M  V30 9731 N 943.028 0.824394 1.34319 0
M  V30 9732 C 943.938 0.24932 2.33271 0
M  V30 9733 C 944.954 -0.617066 1.62691 0
M  V30 9734 O 946.13 -0.524616 1.94447 0
M  V30 9735 C 943.195 -0.578094 3.41846 0
M  V30 9736 C 942.256 0.310866 4.28173 0
M  V30 9737 C 941.489 -0.477153 5.31563 0
M  V30 9738 O 941.712 -1.71028 5.44156 0
M  V30 9739 O 940.646 0.141287 6.01734 0
M  V30 9740 H 944.472 1.06837 2.84288 0
M  V30 9741 H 942.057 0.58657 1.37403 0
M  V30 9742 H 943.939 -1.04878 4.0814 0
M  V30 9743 H 942.614 -1.37444 2.93071 0
M  V30 9744 H 941.521 0.829081 3.64797 0
M  V30 9745 H 942.854 1.07161 4.80393 0
M  V30 9746 N 944.506 -1.46559 0.579492 0
M  V30 9747 C 945.436 -2.33059 -0.143437 0
M  V30 9748 C 946.417 -1.4515 -0.886868 0
M  V30 9749 O 947.602 -1.73973 -0.862961 0
M  V30 9750 C 944.732 -3.27364 -1.15973 0
M  V30 9751 C 943.686 -4.24689 -0.531348 0
M  V30 9752 C 943.012 -5.08479 -1.65388 0
M  V30 9753 C 944.312 -5.1961 0.529391 0
M  V30 9754 H 946.006 -2.93753 0.578762 0
M  V30 9755 H 943.552 -1.41256 0.279775 0
M  V30 9756 H 945.505 -3.86732 -1.67382 0
M  V30 9757 H 944.229 -2.64771 -1.91217 0
M  V30 9758 H 942.888 -3.6658 -0.0383749 0
M  V30 9759 H 942.536 -4.42273 -2.3959 0
M  V30 9760 H 942.236 -5.74387 -1.23909 0
M  V30 9761 H 943.76 -5.70709 -2.17079 0
M  V30 9762 H 945.174 -5.73212 0.100506 0
M  V30 9763 H 943.571 -5.93843 0.86432 0
M  V30 9764 H 944.641 -4.63737 1.4169 0
M  V30 9765 N 945.984 -0.3171 -1.54377 0
M  V30 9766 C 947.233 0.288271 -1.99629 0
M  V30 9767 C 947.546 1.53754 -1.2091 0
M  V30 9768 O 948.752 2.2185 -1.56508 0
M  V30 9769 C 947.208 0.564188 -3.5545 0
M  V30 9770 C 946.816 -0.667659 -4.42997 0
M  V30 9771 C 948.56 1.12987 -4.09187 0
M  V30 9772 C 946.467 -0.364003 -5.90279 0
M  V30 9773 H 945.397 0.111492 -0.745711 0
M  V30 9774 H 948.048 -0.428317 -1.78431 0
M  V30 9775 H 946.43 1.34079 -3.72611 0
M  V30 9776 H 947.604 -1.44335 -4.37612 0
M  V30 9777 H 945.919 -1.1531 -4.00116 0
M  V30 9778 H 948.516 1.37157 -5.1681 0
M  V30 9779 H 948.859 2.07722 -3.60773 0
M  V30 9780 H 949.392 0.414595 -3.95634 0
M  V30 9781 H 946.131 -1.28035 -6.42874 0
M  V30 9782 H 945.651 0.374102 -5.98632 0
M  V30 9783 H 947.33 0.0285433 -6.46994 0
M  V30 9784 N 947.462 1.57535 -0.0451378 0
M  V30 9785 C 948.708 1.92736 0.630921 0
M  V30 9786 C 949.041 0.923265 1.70849 0
M  V30 9787 O 948.316 -0.0516512 1.94431 0
M  V30 9788 C 948.599 3.38348 1.23259 0
M  V30 9789 C 948.452 4.49503 0.16349 0
M  V30 9790 C 949.771 3.84233 2.14599 0
M  V30 9791 H 946.89 0.700884 0.227883 0
M  V30 9792 H 949.532 1.89706 -0.10567 0
M  V30 9793 H 947.682 3.41061 1.86037 0
M  V30 9794 H 949.354 4.58919 -0.46808 0
M  V30 9795 H 947.597 4.30802 -0.509166 0
M  V30 9796 H 948.268 5.48457 0.624382 0
M  V30 9797 H 950.744 3.83358 1.6179 0
M  V30 9798 H 949.62 4.86781 2.53644 0
M  V30 9799 H 949.881 3.20646 3.04366 0
M  V30 9800 N 948.94 -0.228186 1.55939 0
M  V30 9801 C 950.186 -0.954964 1.78909 0
M  V30 9802 C 950.519 -1.8425 0.613648 0
M  V30 9803 O 949.794 -1.90604 -0.38737 0
M  V30 9804 C 950.077 -1.79957 3.1191 0
M  V30 9805 C 949.93 -0.938968 4.3989 0
M  V30 9806 C 951.249 -2.77859 3.41295 0
M  V30 9807 H 948.368 -0.345745 0.650868 0
M  V30 9808 H 951.01 -0.224244 1.88672 0
M  V30 9809 H 949.16 -2.42256 3.03717 0
M  V30 9810 H 950.832 -0.333225 4.60095 0
M  V30 9811 H 949.075 -0.244096 4.33113 0
M  V30 9812 H 949.746 -1.56416 5.29375 0
M  V30 9813 H 952.222 -2.25695 3.49572 0
M  V30 9814 H 951.098 -3.34062 4.35538 0
M  V30 9815 H 951.359 -3.55266 2.63132 0
M  V30 9816 N 950.418 -1.49637 -0.494624 0
M  V30 9817 C 951.381 -1.66252 -1.57775 0
M  V30 9818 C 952.381 -0.534054 -1.51672 0
M  V30 9819 O 953.571 -0.800637 -1.54711 0
M  V30 9820 C 950.703 -1.66584 -2.97426 0
M  V30 9821 H 951.896 -2.62864 -1.4437 0
M  V30 9822 H 949.449 -1.38764 -0.719323 0
M  V30 9823 H 950.184 -0.715798 -3.16302 0
M  V30 9824 H 949.969 -2.48543 -3.03264 0
M  V30 9825 H 951.459 -1.81474 -3.76108 0
M  V30 9826 N 951.896 0.746133 -1.38819 0
M  V30 9827 C 952.846 1.85085 -1.33145 0
M  V30 9828 C 953.83 1.59466 -0.214339 0
M  V30 9829 O 955.022 1.71159 -0.450943 0
M  V30 9830 C 952.151 3.22884 -1.16623 0
M  V30 9831 C 951.237 3.54369 -2.32988 0
M  V30 9832 N 951.628 3.56863 -3.58445 0
M  V30 9833 C 949.926 3.84674 -2.25703 0
M  V30 9834 C 950.627 3.85827 -4.3533 0
M  V30 9835 N 949.603 4.03037 -3.64777 0
M  V30 9836 H 953.405 1.85301 -2.28124 0
M  V30 9837 H 950.919 0.943847 -1.32156 0
M  V30 9838 H 952.916 4.0195 -1.10642 0
M  V30 9839 H 951.576 3.23914 -0.225841 0
M  V30 9840 H 952.587 3.38443 -3.92017 0
M  V30 9841 H 949.264 3.93375 -1.39864 0
M  V30 9842 H 950.654 3.94317 -5.44025 0
M  V30 9843 N 953.375 1.23811 0.975125 0
M  V30 9844 C 954.652 0.9815 1.69192 0
M  V30 9845 C 955.032 -0.498373 2.05133 0
M  V30 9846 O 954.38 -1.47087 1.74864 0
M  V30 9847 C 954.59 1.89701 2.92941 0
M  V30 9848 C 955.938 2.16357 3.65342 0
M  V30 9849 O 956.962 1.87293 3.02985 0
M  V30 9850 O 955.821 2.65675 4.77576 0
M  V30 9851 H 952.915 0.370599 0.739314 0
M  V30 9852 H 955.461 1.34876 1.02988 0
M  V30 9853 H 954.233 2.89719 2.63018 0
M  V30 9854 H 953.856 1.53244 3.66881 0
M  V30 9855 N 954.853 -1.17469 1.05066 0
M  V30 9856 C 955.803 -2.19388 0.620713 0
M  V30 9857 C 956.787 -1.5722 -0.34214 0
M  V30 9858 O 957.979 -1.76279 -0.159574 0
M  V30 9859 C 955.108 -3.433 -0.00438518 0
M  V30 9860 C 954.194 -4.12569 0.982218 0
M  V30 9861 N 954.585 -4.57683 2.15313 0
M  V30 9862 C 952.883 -4.38575 0.810416 0
M  V30 9863 C 953.584 -5.11124 2.77719 0
M  V30 9864 N 952.56 -5.0325 2.05525 0
M  V30 9865 H 956.362 -2.51971 1.51287 0
M  V30 9866 H 953.876 -1.33784 0.920625 0
M  V30 9867 H 955.873 -4.15591 -0.330161 0
M  V30 9868 H 954.533 -3.12209 -0.89195 0
M  V30 9869 H 955.544 -4.51812 2.53154 0
M  V30 9870 H 952.221 -4.17492 -0.0262078 0
M  V30 9871 H 953.611 -5.56161 3.77008 0
M  V30 9872 N 956.331 -0.831506 -1.3388 0
M  V30 9873 C 957.579 -0.422837 -1.97627 0
M  V30 9874 C 957.9 1.01961 -1.6622 0
M  V30 9875 O 957.17 1.70916 -0.957323 0
M  V30 9876 H 955.75 -0.153365 -0.731087 0
M  V30 9877 H 958.412 -1.06284 -1.6337 0
M  V30 9878 H 957.508 -0.548858 -3.07236 0
M  V30 9879 N 957.809 1.4625 -0.587256 0
M  V30 9880 C 958.756 2.30354 0.143384 0
M  V30 9881 C 959.726 1.40891 0.879716 0
M  V30 9882 O 960.911 1.69837 0.869486 0
M  V30 9883 C 958.051 3.25441 1.14815 0
M  V30 9884 C 957.164 4.30004 0.414792 0
M  V30 9885 C 956.299 5.12214 1.40748 0
M  V30 9886 C 955.338 6.08523 0.660786 0
M  V30 9887 N 954.475 6.83585 1.60176 0
M  V30 9888 H 959.315 2.92304 -0.579866 0
M  V30 9889 H 956.852 1.44055 -0.29777 0
M  V30 9890 H 958.81 3.79018 1.7436 0
M  V30 9891 H 957.44 2.6529 1.83906 0
M  V30 9892 H 956.492 3.79248 -0.295787 0
M  V30 9893 H 957.804 4.98515 -0.168738 0
M  V30 9894 H 956.958 5.70091 2.0756 0
M  V30 9895 H 955.697 4.43675 2.02494 0
M  V30 9896 H 954.702 5.49796 -0.0210864 0
M  V30 9897 H 955.927 6.79083 0.0486551 0
M  V30 9898 H 953.873 6.17752 2.20724 0
M  V30 9899 H 953.79 7.48373 1.07115 0
M  V30 9900 H 955.058 7.46016 2.26009 0
M  V30 9901 N 959.287 0.325282 1.54207 0
M  V30 9902 C 960.515 -0.27869 2.05014 0
M  V30 9903 C 960.93 -1.45649 1.20133 0
M  V30 9904 O 960.287 -1.81014 0.232398 0
M  V30 9905 C 960.338 -0.711486 3.54429 0
M  V30 9906 O 960.059 0.419458 4.36087 0
M  V30 9907 C 961.56 -1.37809 4.21336 0
M  V30 9908 H 958.78 -0.0570388 0.668571 0
M  V30 9909 H 961.324 0.47197 1.98979 0
M  V30 9910 H 959.479 -1.41212 3.60746 0
M  V30 9911 H 959.893 0.0781037 5.24442 0
M  V30 9912 H 961.367 -1.63184 5.27328 0
M  V30 9913 H 961.844 -2.32593 3.72555 0
M  V30 9914 H 962.45 -0.719987 4.19161 0
M  V30 9915 N 960.765 -1.57509 0.0534917 0
M  V30 9916 C 961.99 -1.97511 -0.632794 0
M  V30 9917 C 962.415 -0.930947 -1.63447 0
M  V30 9918 O 961.773 0.105558 -1.80992 0
M  V30 9919 C 961.821 -3.3658 -1.29407 0
M  V30 9920 O 960.925 -3.3467 -2.40977 0
M  V30 9921 H 960.266 -0.643349 -0.16431 0
M  V30 9922 H 962.796 -2.04232 0.12258 0
M  V30 9923 H 962.806 -3.73359 -1.64521 0
M  V30 9924 H 961.481 -4.12113 -0.559976 0
M  V30 9925 H 960.058 -3.09639 -2.07793 0
M  V30 9926 N 962.243 0.219913 -1.56058 0
M  V30 9927 C 963.173 1.27572 -1.9557 0
M  V30 9928 C 964.154 1.48801 -0.824148 0
M  V30 9929 O 965.339 1.60957 -1.08658 0
M  V30 9930 C 962.469 2.62517 -2.27381 0
M  V30 9931 C 961.423 2.55941 -3.43042 0
M  V30 9932 C 960.749 3.94931 -3.60463 0
M  V30 9933 C 962.049 2.10584 -4.77966 0
M  V30 9934 H 963.743 0.947482 -2.84013 0
M  V30 9935 H 961.289 0.454337 -1.36645 0
M  V30 9936 H 963.242 3.36538 -2.53615 0
M  V30 9937 H 961.966 2.97031 -1.35794 0
M  V30 9938 H 960.625 1.84377 -3.1686 0
M  V30 9939 H 960.273 4.26756 -2.66249 0
M  V30 9940 H 959.973 3.91413 -4.38258 0
M  V30 9941 H 961.497 4.70611 -3.89046 0
M  V30 9942 H 962.911 2.74349 -5.03394 0
M  V30 9943 H 961.308 2.18122 -5.59055 0
M  V30 9944 H 962.378 1.05818 -4.73213 0
M  V30 9945 N 963.721 1.49897 0.486681 0
M  V30 9946 C 964.946 1.64106 1.26823 0
M  V30 9947 C 965.371 0.317967 1.85393 0
M  V30 9948 O 964.729 -0.71626 1.66551 0
M  V30 9949 C 964.777 2.72301 2.36399 0
M  V30 9950 O 963.881 2.32469 3.40634 0
M  V30 9951 H 963.222 0.548794 0.373793 0
M  V30 9952 H 965.752 1.96177 0.581017 0
M  V30 9953 H 965.762 2.94906 2.81948 0
M  V30 9954 H 964.437 3.68335 1.93137 0
M  V30 9955 H 963.014 2.20251 3.00905 0
M  V30 9956 N 965.199 -0.738761 1.39212 0
M  V30 9957 C 966.162 -1.83441 1.37412 0
M  V30 9958 C 967.162 -1.58484 0.271908 0
M  V30 9959 O 968.352 -1.65954 0.529609 0
M  V30 9960 C 965.484 -3.21167 1.143 0
M  V30 9961 H 966.677 -1.86441 2.34904 0
M  V30 9962 H 964.23 -0.942023 1.24722 0
M  V30 9963 H 964.965 -3.23829 0.174756 0
M  V30 9964 H 964.75 -3.40678 1.94116 0
M  V30 9965 H 966.24 -4.01231 1.15773 0
M  V30 9966 N 966.677 -1.24326 -0.968545 0
M  V30 9967 C 967.902 -1.1104 -1.75171 0
M  V30 9968 C 968.327 0.333109 -1.85127 0
M  V30 9969 O 967.685 1.24115 -1.32156 0
M  V30 9970 C 967.733 -1.75397 -3.15068 0
M  V30 9971 O 966.837 -1.02417 -3.9948 0
M  V30 9972 H 966.178 -0.388488 -0.538491 0
M  V30 9973 H 968.708 -1.64617 -1.215 0
M  V30 9974 H 968.718 -1.8112 -3.65595 0
M  V30 9975 H 967.393 -2.80427 -3.07138 0
M  V30 9976 H 965.97 -1.04475 -3.57966 0
M  V30 9977 N 968.156 1.1691 -1.05688 0
M  V30 9978 C 969.119 2.19297 -0.666433 0
M  V30 9979 C 970.119 1.5826 0.284674 0
M  V30 9980 O 971.309 1.74068 0.0678757 0
M  V30 9981 C 968.441 3.40894 0.0203656 0
M  V30 9982 H 969.634 2.55354 -1.57272 0
M  V30 9983 H 967.187 1.31078 -0.851359 0
M  V30 9984 H 967.922 3.10388 0.939686 0
M  V30 9985 H 967.707 3.86446 -0.663464 0
M  V30 9986 H 969.197 4.16664 0.279475 0
M  V30 9987 N 969.634 0.838594 1.33437 0
M  V30 9988 C 970.564 0.286672 2.31734 0
M  V30 9989 C 971.545 -0.605451 1.5896 0
M  V30 9990 O 972.73 -0.529059 1.86854 0
M  V30 9991 C 969.86 -0.539311 3.43087 0
M  V30 9992 C 968.814 0.256997 4.27228 0
M  V30 9993 C 968.14 -0.692718 5.30194 0
M  V30 9994 C 969.44 1.47391 5.01072 0
M  V30 9995 H 971.134 1.10798 2.78144 0
M  V30 9996 H 968.68 0.534235 1.33723 0
M  V30 9997 H 970.633 -0.935724 4.1088 0
M  V30 9998 H 969.357 -1.39383 2.95364 0
M  V30 9999 H 968.016 0.634967 3.61059 0
M  V30 10000 H 967.664 -1.54363 4.78729 0
M  V30 10001 H 967.364 -0.164023 5.87371 0
M  V30 10002 H 968.888 -1.08665 6.00853 0
M  V30 10003 H 970.302 1.15067 5.61634 0
M  V30 10004 H 968.699 1.93937 5.67898 0
M  V30 10005 H 969.769 2.24382 4.29861 0
M  V30 10006 N 971.112 -1.45937 0.595003 0
M  V30 10007 C 972.358 -2.0262 0.0854317 0
M  V30 10008 C 972.691 -1.46402 -1.27594 0
M  V30 10009 O 971.966 -0.633823 -1.83883 0
M  V30 10010 C 972.249 -3.60085 0.0329075 0
M  V30 10011 C 972.102 -4.26663 1.42405 0
M  V30 10012 C 973.421 -4.35101 -0.661426 0
M  V30 10013 H 970.54 -0.736282 0.0325196 0
M  V30 10014 H 973.182 -1.73938 0.764563 0
M  V30 10015 H 971.332 -3.84652 -0.545439 0
M  V30 10016 H 973.004 -4.13321 2.04851 0
M  V30 10017 H 971.247 -3.85549 1.98833 0
M  V30 10018 H 971.918 -5.35497 1.33965 0
M  V30 10019 H 974.394 -4.15753 -0.169977 0
M  V30 10020 H 973.27 -5.44829 -0.667243 0
M  V30 10021 H 973.531 -4.07053 -1.72513 0
M  V30 10022 N 972.59 -0.333456 -1.54032 0
M  V30 10023 C 973.52 0.52051 -2.27625 0
M  V30 10024 C 974.501 1.1111 -1.28797 0
M  V30 10025 O 975.686 1.13438 -1.57625 0
M  V30 10026 C 972.816 1.67663 -3.04149 0
M  V30 10027 C 971.77 1.21487 -4.10396 0
M  V30 10028 C 971.096 2.45872 -4.74817 0
M  V30 10029 C 972.396 0.322603 -5.21303 0
M  V30 10030 H 974.09 -0.0933823 -2.99254 0
M  V30 10031 H 971.636 -0.0463526 -1.43925 0
M  V30 10032 H 973.589 2.28041 -3.54366 0
M  V30 10033 H 972.313 2.31727 -2.30153 0
M  V30 10034 H 970.972 0.633966 -3.61077 0
M  V30 10035 H 970.62 3.0832 -3.97426 0
M  V30 10036 H 970.32 2.15662 -5.46593 0
M  V30 10037 H 971.844 3.06994 -5.27814 0
M  V30 10038 H 973.258 0.832942 -5.67217 0
M  V30 10039 H 971.655 0.112843 -5.99994 0
M  V30 10040 H 972.725 -0.643954 -4.80605 0
M  V30 10041 N 974.068 1.57479 -0.061844 0
M  V30 10042 C 975.317 1.92285 0.609055 0
M  V30 10043 C 975.63 0.942983 1.71369 0
M  V30 10044 O 976.836 1.18349 2.44348 0
M  V30 10045 C 975.292 3.41545 1.13468 0
M  V30 10046 C 974.9 4.47958 0.0615926 0
M  V30 10047 C 976.644 3.85368 1.78022 0
M  V30 10048 C 974.551 5.88341 0.600705 0
M  V30 10049 H 973.481 0.717656 0.23127 0
M  V30 10050 H 976.132 1.83021 -0.132466 0
M  V30 10051 H 974.514 3.45848 1.92886 0
M  V30 10052 H 975.688 4.55258 -0.712527 0
M  V30 10053 H 974.003 4.13541 -0.487116 0
M  V30 10054 H 976.6 4.87627 2.19371 0
M  V30 10055 H 976.943 3.22193 2.63623 0
M  V30 10056 H 977.476 3.83626 1.05242 0
M  V30 10057 H 974.215 6.55138 -0.217922 0
M  V30 10058 H 973.735 5.84581 1.34257 0
M  V30 10059 H 975.414 6.37918 1.08025 0
M  V30 10060 N 975.546 -0.211634 1.56173 0
M  V30 10061 C 976.776 -0.949805 1.83473 0
M  V30 10062 C 977.184 -1.78045 0.640053 0
M  V30 10063 O 976.527 -1.79277 -0.400702 0
M  V30 10064 C 976.589 -1.90868 3.04647 0
M  V30 10065 C 976.253 -1.26159 4.39241 0
M  V30 10066 C 977.25 -0.646597 5.15863 0
M  V30 10067 C 974.935 -1.27039 4.85969 0
M  V30 10068 C 976.929 -0.0490313 6.37381 0
M  V30 10069 C 974.616 -0.668987 6.07427 0
M  V30 10070 C 975.614 -0.0593687 6.82974 0
M  V30 10071 O 975.302 0.532656 8.02133 0
M  V30 10072 H 975.034 -0.283458 0.6137 0
M  V30 10073 H 977.588 -0.22894 2.0412 0
M  V30 10074 H 975.818 -2.6688 2.79843 0
M  V30 10075 H 977.507 -2.51323 3.18734 0
M  V30 10076 H 978.273 -0.632056 4.80864 0
M  V30 10077 H 974.152 -1.73429 4.27134 0
M  V30 10078 H 977.696 0.427414 6.96289 0
M  V30 10079 H 973.593 -0.680975 6.41898 0
M  V30 10080 H 974.361 0.427942 8.17381 0
M  V30 10081 N 977.024 -1.50153 -0.478725 0
M  V30 10082 C 977.954 -1.71384 -1.58587 0
M  V30 10083 C 978.935 -0.562705 -1.60523 0
M  V30 10084 O 980.12 -0.80101 -1.76911 0
M  V30 10085 C 977.25 -1.80094 -2.96957 0
M  V30 10086 C 976.204 -2.95218 -3.09888 0
M  V30 10087 C 975.53 -2.89063 -4.49829 0
M  V30 10088 C 976.83 -4.35841 -2.8782 0
M  V30 10089 H 978.524 -2.64081 -1.41073 0
M  V30 10090 H 976.07 -1.27081 -0.677239 0
M  V30 10091 H 978.023 -1.93531 -3.74331 0
M  V30 10092 H 976.747 -0.840131 -3.1561 0
M  V30 10093 H 975.406 -2.81419 -2.34944 0
M  V30 10094 H 975.054 -1.90844 -4.6539 0
M  V30 10095 H 974.754 -3.66345 -4.59418 0
M  V30 10096 H 976.278 -3.04539 -5.29234 0
M  V30 10097 H 977.692 -4.50205 -3.54948 0
M  V30 10098 H 976.089 -5.14515 -3.0886 0
M  V30 10099 H 977.159 -4.48739 -1.83742 0
M  V30 10100 N 978.502 0.731368 -1.39602 0
M  V30 10101 C 979.727 1.52567 -1.40492 0
M  V30 10102 C 980.152 1.881 -0.00228828 0
M  V30 10103 O 979.51 1.52167 0.985643 0
M  V30 10104 C 979.558 2.78749 -2.2876 0
M  V30 10105 O 978.662 3.7482 -1.71999 0
M  V30 10106 H 978.003 0.460601 -0.478271 0
M  V30 10107 H 980.533 0.902042 -1.83642 0
M  V30 10108 H 980.543 3.27446 -2.43399 0
M  V30 10109 H 979.218 2.5222 -3.30693 0
M  V30 10110 H 977.795 3.33604 -1.66622 0
M  V30 10111 N 979.98 1.24838 0.961938 0
M  V30 10112 C 981.391 1.08369 1.5203 0
M  V30 10113 C 981.742 -0.343005 1.93178 0
M  V30 10114 O 980.867 -1.2321 1.779 0
M  V30 10115 C 981.462 1.96102 2.76278 0
M  V30 10116 C 980.021 1.8384 3.28451 0
M  V30 10117 C 979.168 1.9069 2.01327 0
M  V30 10118 H 982.119 1.38231 0.779613 0
M  V30 10119 H 982.14 1.4967 3.49827 0
M  V30 10120 H 981.652 2.99931 2.46298 0
M  V30 10121 H 979.753 0.828653 3.63269 0
M  V30 10122 H 979.866 2.68251 3.96961 0
M  V30 10123 H 978.23 1.34488 2.16299 0
M  V30 10124 H 979.013 2.96111 1.73705 0
M  V30 10125 N 981.458 -1.16348 1.06306 0
M  V30 10126 C 982.421 -2.18941 0.678053 0
M  V30 10127 C 983.421 -1.58409 -0.276277 0
M  V30 10128 O 984.611 -1.74101 -0.0586435 0
M  V30 10129 C 981.743 -3.409 -0.00228684 0
M  V30 10130 H 982.936 -2.54516 1.58624 0
M  V30 10131 H 980.489 -1.30625 0.858298 0
M  V30 10132 H 981.224 -3.10881 -0.923212 0
M  V30 10133 H 981.009 -3.86089 0.683949 0
M  V30 10134 H 982.499 -4.16806 -0.257374 0
M  V30 10135 N 982.937 -0.845659 -1.3299 0
M  V30 10136 C 983.867 -0.298957 -2.31578 0
M  V30 10137 C 984.848 0.597012 -1.59279 0
M  V30 10138 O 986.033 0.519142 -1.87132 0
M  V30 10139 C 983.163 0.521109 -3.43368 0
M  V30 10140 C 982.117 -0.279651 -4.27085 0
M  V30 10141 C 981.443 0.664591 -5.30554 0
M  V30 10142 C 982.743 -1.50046 -5.00283 0
M  V30 10143 H 984.437 -1.12272 -2.77552 0
M  V30 10144 H 981.983 -0.54132 -1.33438 0
M  V30 10145 H 983.936 0.913921 -4.1137 0
M  V30 10146 H 982.66 1.37815 -2.96099 0
M  V30 10147 H 981.319 -0.654106 -3.60717 0
M  V30 10148 H 980.967 1.51822 -4.79541 0
M  V30 10149 H 980.667 0.132871 -5.8745 0
M  V30 10150 H 982.191 1.05477 -6.01421 0
M  V30 10151 H 983.605 -1.18044 -5.61016 0
M  V30 10152 H 982.002 -1.96946 -5.66862 0
M  V30 10153 H 983.072 -2.26659 -4.28665 0
M  V30 10154 N 984.415 1.45619 -0.602734 0
M  V30 10155 C 985.692 1.9558 -0.0282472 0
M  V30 10156 C 986.072 1.54523 1.43826 0
M  V30 10157 O 985.42 0.805456 2.13833 0
M  V30 10158 C 985.63 3.48298 -0.221263 0
M  V30 10159 C 986.978 4.24483 -0.0995249 0
M  V30 10160 O 988.002 3.55879 -0.151132 0
M  V30 10161 O 986.861 5.46497 0.0194454 0
M  V30 10162 H 983.955 0.826104 0.0384897 0
M  V30 10163 H 986.501 1.55808 -0.672456 0
M  V30 10164 H 985.273 3.71134 -1.23997 0
M  V30 10165 H 984.896 3.94948 0.458437 0
M  V30 10166 N 985.893 0.34162 1.53853 0
M  V30 10167 C 986.856 -0.503541 2.236 0
M  V30 10168 C 987.856 -1.02912 1.23554 0
M  V30 10169 O 989.046 -0.918678 1.48007 0
M  V30 10170 C 986.178 -1.70126 2.95415 0
M  V30 10171 H 987.371 0.106437 2.99711 0
M  V30 10172 H 984.924 0.0929408 1.56023 0
M  V30 10173 H 985.659 -2.34999 2.23486 0
M  V30 10174 H 985.444 -1.33161 3.68796 0
M  V30 10175 H 986.934 -2.30077 3.48503 0
M  V30 10176 N 987.371 -1.57444 0.0701946 0
M  V30 10177 C 988.303 -2.09611 -0.927142 0
M  V30 10178 C 989.316 -1.02791 -1.26245 0
M  V30 10179 O 990.505 -1.30309 -1.21992 0
M  V30 10180 C 987.605 -2.54015 -2.24342 0
M  V30 10181 C 986.778 -3.84389 -2.08719 0
M  V30 10182 C 985.837 -4.14904 -3.23638 0
M  V30 10183 O 984.863 -4.84528 -2.98699 0
M  V30 10184 N 986.065 -3.68322 -4.48686 0
M  V30 10185 H 988.83 -2.95803 -0.481753 0
M  V30 10186 H 986.391 -1.61487 -0.115572 0
M  V30 10187 H 988.383 -2.71492 -3.00124 0
M  V30 10188 H 986.953 -1.72969 -2.60385 0
M  V30 10189 H 986.173 -3.76308 -1.17415 0
M  V30 10190 H 987.461 -4.69729 -1.9553 0
M  V30 10191 H 986.859 -3.12073 -4.71834 0
M  V30 10192 H 985.416 -3.91002 -5.21499 0
M  V30 10193 N 988.849 0.203349 -1.56283 0
M  V30 10194 C 989.759 1.27266 -1.9708 0
M  V30 10195 C 990.775 1.50268 -0.877236 0
M  V30 10196 O 991.951 1.63044 -1.18231 0
M  V30 10197 C 989.016 2.59871 -2.29495 0
M  V30 10198 C 988.077 2.45012 -3.52516 0
M  V30 10199 C 987.31 3.71293 -3.83376 0
M  V30 10200 O 987.533 4.75106 -3.15643 0
M  V30 10201 O 986.467 3.67316 -4.76826 0
M  V30 10202 H 990.293 0.956461 -2.88246 0
M  V30 10203 H 987.878 0.407688 -1.4373 0
M  V30 10204 H 989.76 3.38152 -2.51458 0
M  V30 10205 H 988.435 2.91135 -1.415 0
M  V30 10206 H 987.342 1.6487 -3.35811 0
M  V30 10207 H 988.675 2.18683 -4.40952 0
M  V30 10208 N 990.327 1.50405 0.470755 0
M  V30 10209 C 991.552 1.65442 1.25075 0
M  V30 10210 C 991.977 0.337612 1.85045 0
M  V30 10211 O 991.335 -0.698555 1.67302 0
M  V30 10212 C 991.383 2.74793 2.33498 0
M  V30 10213 O 990.487 2.36069 3.3815 0
M  V30 10214 H 989.828 0.552728 0.367951 0
M  V30 10215 H 992.358 1.96782 0.560177 0
M  V30 10216 H 992.368 2.97879 2.78804 0
M  V30 10217 H 991.043 3.70363 1.8922 0
M  V30 10218 H 989.62 2.2343 2.98552 0
M  V30 10219 N 991.805 -0.723954 1.39988 0
M  V30 10220 C 992.738 -1.84725 1.33985 0
M  V30 10221 C 993.716 -1.61217 0.211623 0
M  V30 10222 O 994.9 -1.84338 0.393905 0
M  V30 10223 C 992.027 -3.20913 1.08317 0
M  V30 10224 C 991.073 -3.63262 2.23478 0
M  V30 10225 S 991.906 -3.71346 3.85827 0
M  V30 10226 C 993.062 -5.10307 3.62405 0
M  V30 10227 H 993.295 -1.89535 2.2905 0
M  V30 10228 H 990.828 -0.889911 1.26174 0
M  V30 10229 H 992.786 -3.99547 0.941921 0
M  V30 10230 H 991.447 -3.13745 0.149203 0
M  V30 10231 H 990.64 -4.62124 2.01139 0
M  V30 10232 H 990.242 -2.91863 2.33863 0
M  V30 10233 H 992.534 -5.96975 3.20354 0
M  V30 10234 H 993.477 -5.37679 4.60768 0
M  V30 10235 H 993.885 -4.80505 2.96269 0
M  V30 10236 N 993.283 -1.25346 -0.955304 0
M  V30 10237 C 994.531 -1.09837 -1.69647 0
M  V30 10238 C 994.852 0.361425 -1.91621 0
M  V30 10239 O 994.122 1.25666 -1.50283 0
M  V30 10240 H 992.702 -0.403467 -0.628668 0
M  V30 10241 H 995.364 -1.57459 -1.14859 0
M  V30 10242 H 994.46 -1.60616 -2.67598 0
M  V30 10243 N 994.761 1.15782 -1.06922 0
M  V30 10244 C 995.986 1.90896 -0.810771 0
M  V30 10245 C 996.411 1.77246 0.629714 0
M  V30 10246 O 995.769 1.10215 1.43953 0
M  V30 10247 C 995.817 3.39397 -1.21829 0
M  V30 10248 O 994.921 4.10818 -0.360934 0
M  V30 10249 H 994.262 0.594497 -0.295752 0
M  V30 10250 H 996.792 1.46652 -1.42669 0
M  V30 10251 H 996.802 3.90181 -1.19259 0
M  V30 10252 H 995.477 3.4865 -2.2675 0
M  V30 10253 H 994.054 3.7019 -0.448748 0
M  V30 10254 N 996.239 0.8527 1.3254 0
M  V30 10255 C 997.485 0.455798 1.97612 0
M  V30 10256 C 997.818 -0.985616 1.6733 0
M  V30 10257 O 997.093 -1.69129 0.960493 0
M  V30 10258 C 997.376 0.69312 3.53366 0
M  V30 10259 C 997.229 2.18281 3.93285 0
M  V30 10260 C 998.548 0.148236 4.3985 0
M  V30 10261 H 995.667 0.167078 0.717812 0
M  V30 10262 H 998.309 1.07076 1.56954 0
M  V30 10263 H 996.459 0.169677 3.88129 0
M  V30 10264 H 998.131 2.77218 3.68711 0
M  V30 10265 H 996.374 2.66206 3.42515 0
M  V30 10266 H 997.045 2.29957 5.01821 0
M  V30 10267 H 999.521 0.595834 4.11812 0
M  V30 10268 H 998.397 0.343873 5.47822 0
M  V30 10269 H 998.658 -0.948872 4.31797 0
M  V30 10270 N 997.718 -1.45297 0.610449 0
M  V30 10271 C 998.666 -2.32295 -0.119167 0
M  V30 10272 C 999.66 -1.46138 -0.856746 0
M  V30 10273 O 1000.87 -1.62605 -0.771988 0
M  V30 10274 H 997.241 -0.749815 -0.0572881 0
M  V30 10275 H 999.212 -2.91609 0.63297 0
M  V30 10276 C 997.961 -3.29802 -1.10119 0
M  V30 10277 H 997.284 -3.96095 -0.543063 0
M  V30 10278 H 998.724 -3.93398 -1.58158 0
M  V30 10279 C 997.183 -2.57185 -2.17617 0
M  V30 10280 O 997.713 -2.35535 -3.25401 0
M  V30 10281 N 995.919 -2.17272 -1.9298 0
M  V30 10282 H 995.466 -2.3508 -1.05334 0
M  V30 10283 H 995.424 -1.69009 -2.6511 0
M  V30 10284 N 999.196 -0.349774 -1.5367 0
M  V30 10285 C 1000.13 0.496338 -2.28164 0
M  V30 10286 C 1001.11 1.09737 -1.29968 0
M  V30 10287 O 1002.29 1.11759 -1.58819 0
M  V30 10288 C 999.422 1.64428 -3.0591 0
M  V30 10289 C 998.376 1.17127 -4.11661 0
M  V30 10290 C 997.702 2.40822 -4.77398 0
M  V30 10291 C 999.002 0.267293 -5.21616 0
M  V30 10292 H 1000.7 -0.125117 -2.99138 0
M  V30 10293 H 998.242 -0.0616152 -1.43868 0
M  V30 10294 H 1000.19 2.2427 -3.56765 0
M  V30 10295 H 998.919 2.29272 -2.32598 0
M  V30 10296 H 997.578 0.595634 -3.61729 0
M  V30 10297 H 997.226 3.04088 -4.00674 0
M  V30 10298 H 996.926 2.09852 -5.48849 0
M  V30 10299 H 998.45 3.01378 -5.3104 0
M  V30 10300 H 999.864 0.772734 -5.68068 0
M  V30 10301 H 998.261 0.0491991 -6.0008 0
M  V30 10302 H 999.331 -0.694892 -4.79895 0
M  V30 10303 N 1000.67 1.57404 -0.0785433 0
M  V30 10304 C 1001.9 1.98492 0.601292 0
M  V30 10305 C 1002.32 0.956832 1.61945 0
M  V30 10306 O 1001.68 -0.0767502 1.81137 0
M  V30 10307 C 1001.73 3.38596 1.24036 0
M  V30 10308 O 1000.83 3.38461 2.35622 0
M  V30 10309 H 1000.17 0.645882 0.154054 0
M  V30 10310 H 1002.7 2.04012 -0.155056 0
M  V30 10311 H 1002.71 3.75929 1.5856 0
M  V30 10312 H 1001.39 4.12952 0.494341 0
M  V30 10313 H 999.967 3.12906 2.02841 0
M  V30 10314 N 1002.15 -0.195058 1.56388 0
M  V30 10315 C 1003.08 -1.24444 1.97575 0
M  V30 10316 C 1004.06 -1.47471 0.847717 0
M  V30 10317 O 1005.25 -1.59208 1.11205 0
M  V30 10318 C 1002.38 -2.58866 2.31529 0
M  V30 10319 C 1001.33 -2.50451 3.47071 0
M  V30 10320 C 1000.66 -3.89146 3.667 0
M  V30 10321 C 1001.96 -2.02953 4.81256 0
M  V30 10322 H 1003.65 -0.902178 2.85484 0
M  V30 10323 H 1001.2 -0.43254 1.3735 0
M  V30 10324 H 1003.15 -3.3246 2.58936 0
M  V30 10325 H 1001.87 -2.94833 1.40502 0
M  V30 10326 H 1000.53 -1.79313 3.19754 0
M  V30 10327 H 1000.18 -4.22466 2.73004 0
M  V30 10328 H 999.882 -3.84391 4.44429 0
M  V30 10329 H 1001.41 -4.64363 3.96484 0
M  V30 10330 H 1002.82 -2.66306 5.07695 0
M  V30 10331 H 1001.22 -2.092 5.62455 0
M  V30 10332 H 1002.29 -0.982757 4.74837 0
M  V30 10333 N 1003.63 -1.50653 -0.462772 0
M  V30 10334 C 1004.88 -1.61296 -1.21105 0
M  V30 10335 C 1005.19 -0.322757 -1.92919 0
M  V30 10336 O 1006.4 -0.308211 -2.69745 0
M  V30 10337 C 1004.85 -2.84752 -2.201 0
M  V30 10338 C 1004.46 -4.20681 -1.54051 0
M  V30 10339 C 1006.21 -3.04744 -2.95518 0
M  V30 10340 C 1004.11 -5.35314 -2.51381 0
M  V30 10341 H 1003.04 -0.60069 -0.455728 0
M  V30 10342 H 1005.69 -1.77093 -0.480656 0
M  V30 10343 H 1004.08 -2.62532 -2.96467 0
M  V30 10344 H 1005.25 -4.53187 -0.834168 0
M  V30 10345 H 1003.56 -4.06361 -0.908828 0
M  V30 10346 H 1006.16 -3.87559 -3.68378 0
M  V30 10347 H 1006.5 -2.16802 -3.55391 0
M  V30 10348 H 1007.04 -3.27185 -2.26263 0
M  V30 10349 H 1003.78 -6.25437 -1.96235 0
M  V30 10350 H 1003.3 -5.07216 -3.20144 0
M  V30 10351 H 1004.98 -5.66229 -3.1304 0
M  V30 10352 N 1005.11 0.71652 -1.4037 0
M  V30 10353 C 1006.36 1.47638 -1.38597 0
M  V30 10354 C 1006.68 1.94496 0.0120141 0
M  V30 10355 O 1005.94 1.68437 0.996373 0
M  V30 10356 C 1006.24 2.71777 -2.32103 0
M  V30 10357 C 1005.9 2.43689 -3.79376 0
M  V30 10358 C 1004.57 2.35739 -4.195 0
M  V30 10359 C 1006.92 2.20099 -4.72447 0
M  V30 10360 C 1004.25 2.02265 -5.50732 0
M  V30 10361 C 1006.6 1.88138 -6.03976 0
M  V30 10362 C 1005.26 1.78669 -6.43143 0
M  V30 10363 H 1004.53 0.540246 -0.507163 0
M  V30 10364 H 1007.18 0.820822 -1.73017 0
M  V30 10365 H 1005.48 3.42166 -1.90865 0
M  V30 10366 H 1007.18 3.29864 -2.28015 0
M  V30 10367 H 1003.77 2.50763 -3.47585 0
M  V30 10368 H 1007.95 2.25198 -4.42266 0
M  V30 10369 H 1003.21 1.93471 -5.79982 0
M  V30 10370 H 1007.38 1.68898 -6.75608 0
M  V30 10371 H 1005.01 1.52498 -7.44747 0
M  V30 10372 N 1006.59 1.25851 0.948643 0
M  V30 10373 C 1007.84 1.10347 1.68838 0
M  V30 10374 C 1008.15 -0.354262 1.92365 0
M  V30 10375 O 1009.35 -0.629847 2.64093 0
M  V30 10376 C 1007.81 1.92659 3.03991 0
M  V30 10377 C 1007.42 3.42962 2.88238 0
M  V30 10378 C 1009.16 1.85743 3.81707 0
M  V30 10379 C 1007.07 4.17547 4.18818 0
M  V30 10380 H 1006 0.409342 0.63321 0
M  V30 10381 H 1008.65 1.50098 1.05559 0
M  V30 10382 H 1007.03 1.45736 3.68208 0
M  V30 10383 H 1008.21 3.97601 2.32917 0
M  V30 10384 H 1006.52 3.51035 2.23972 0
M  V30 10385 H 1009.12 2.38758 4.78434 0
M  V30 10386 H 1009.46 0.826568 4.08012 0
M  V30 10387 H 1009.99 2.30449 3.2425 0
M  V30 10388 H 1006.73 5.21072 3.97699 0
M  V30 10389 H 1006.25 3.6769 4.73882 0
M  V30 10390 H 1007.93 4.25589 4.87322 0
M  V30 10391 N 1008.06 -1.15214 1.07534 0
M  V30 10392 C 1009.31 -1.85388 0.794617 0
M  V30 10393 C 1009.63 -1.83331 -0.681838 0
M  V30 10394 O 1010.83 -2.49207 -1.0774 0
M  V30 10395 C 1009.29 -3.32747 1.37141 0
M  V30 10396 C 1008.9 -3.43244 2.87902 0
M  V30 10397 C 1010.64 -4.08093 1.16879 0
M  V30 10398 C 1008.55 -4.84762 3.38763 0
M  V30 10399 H 1007.48 -0.694499 0.293577 0
M  V30 10400 H 1010.13 -1.29944 1.29564 0
M  V30 10401 H 1008.51 -3.87874 0.798121 0
M  V30 10402 H 1009.68 -2.98214 3.51291 0
M  V30 10403 H 1008 -2.81345 3.06975 0
M  V30 10404 H 1010.6 -5.12535 1.52353 0
M  V30 10405 H 1010.94 -4.1616 0.107958 0
M  V30 10406 H 1011.47 -3.59241 1.70854 0
M  V30 10407 H 1008.21 -4.81879 4.4438 0
M  V30 10408 H 1007.73 -5.30366 2.80128 0
M  V30 10409 H 1009.41 -5.53624 3.34827 0
M  V30 10410 N 1009.54 -0.859717 -1.32086 0
M  V30 10411 C 1010.51 -0.313005 -2.27053 0
M  V30 10412 C 1011.51 0.530191 -1.51808 0
M  V30 10413 O 1012.7 0.340972 -1.7083 0
M  V30 10414 C 1009.83 0.5566 -3.36325 0
M  V30 10415 H 1011.02 -1.15125 -2.76923 0
M  V30 10416 H 1008.57 -0.634463 -1.42843 0
M  V30 10417 H 1009.31 1.41645 -2.91731 0
M  V30 10418 H 1009.09 -0.0470197 -3.92072 0
M  V30 10419 H 1010.58 0.931725 -4.07073 0
M  V30 10420 N 1011.02 1.44971 -0.618145 0
M  V30 10421 C 1011.95 2.33357 0.0815955 0
M  V30 10422 C 1012.93 1.47451 0.848072 0
M  V30 10423 O 1014.12 1.762 0.816532 0
M  V30 10424 C 1011.25 3.30324 1.07253 0
M  V30 10425 C 1010.2 4.25948 0.418563 0
M  V30 10426 C 1009.53 5.12685 1.51849 0
M  V30 10427 C 1010.83 5.18024 -0.66697 0
M  V30 10428 H 1012.52 2.92115 -0.656442 0
M  V30 10429 H 1010.07 1.40465 -0.317129 0
M  V30 10430 H 1012.02 3.91033 1.57069 0
M  V30 10431 H 1010.74 2.69748 1.8413 0
M  V30 10432 H 1009.4 3.66553 -0.0588308 0
M  V30 10433 H 1009.05 4.4847 2.2778 0
M  V30 10434 H 1008.75 5.7747 1.08637 0
M  V30 10435 H 1010.27 5.76264 2.01871 0
M  V30 10436 H 1011.69 5.72744 -0.252448 0
M  V30 10437 H 1010.09 5.91343 -1.02146 0
M  V30 10438 H 1011.16 4.59817 -1.53936 0
M  V30 10439 N 1012.5 0.357919 1.53482 0
M  V30 10440 C 1013.75 -0.2337 2.00744 0
M  V30 10441 C 1014.07 -1.49908 1.2471 0
M  V30 10442 O 1013.34 -1.92597 0.358235 0
M  V30 10443 H 1011.92 -0.0893474 0.741637 0
M  V30 10444 H 1014.58 0.482388 1.88836 0
M  V30 10445 H 1013.68 -0.466073 3.086 0
M  V30 10446 N 1013.98 -1.5736 0.0868897 0
M  V30 10447 C 1015.2 -1.98809 -0.590757 0
M  V30 10448 C 1015.63 -0.965407 -1.61436 0
M  V30 10449 O 1014.98 0.067143 -1.81176 0
M  V30 10450 C 1015.03 -3.39249 -1.22238 0
M  V30 10451 O 1014.14 -3.39706 -2.33824 0
M  V30 10452 H 1013.48 -0.64669 -0.150626 0
M  V30 10453 H 1016.01 -2.03927 0.165873 0
M  V30 10454 H 1016.02 -3.76765 -1.56564 0
M  V30 10455 H 1014.69 -4.13208 -0.472434 0
M  V30 10456 H 1013.27 -3.13977 -2.01178 0
M  V30 10457 N 1015.45 0.186762 -1.56489 0
M  V30 10458 C 1016.7 0.904077 -1.80303 0
M  V30 10459 C 1017.02 1.84073 -0.661538 0
M  V30 10460 O 1018.22 2.59928 -0.784197 0
M  V30 10461 C 1016.68 1.65806 -3.19432 0
M  V30 10462 C 1016.29 0.765807 -4.41406 0
M  V30 10463 C 1018.03 2.36451 -3.52549 0
M  V30 10464 C 1015.94 1.51913 -5.71556 0
M  V30 10465 H 1014.87 0.34133 -0.672317 0
M  V30 10466 H 1017.52 0.157218 -1.82825 0
M  V30 10467 H 1015.9 2.44911 -3.11183 0
M  V30 10468 H 1017.07 0.0128225 -4.60798 0
M  V30 10469 H 1015.39 0.169772 -4.16054 0
M  V30 10470 H 1017.99 2.93378 -4.47027 0
M  V30 10471 H 1018.33 3.11044 -2.7669 0
M  V30 10472 H 1018.86 1.64305 -3.62283 0
M  V30 10473 H 1015.6 0.815829 -6.50403 0
M  V30 10474 H 1015.12 2.24583 -5.56168 0
M  V30 10475 H 1016.8 2.07073 -6.12968 0
M  V30 10476 N 1016.93 1.50896 0.454776 0
M  V30 10477 C 1017.9 1.70377 1.53312 0
M  V30 10478 C 1018.9 0.57408 1.50203 0
M  V30 10479 O 1020.09 0.841374 1.52534 0
M  V30 10480 C 1017.22 1.74411 2.92905 0
M  V30 10481 H 1018.41 2.66599 1.37349 0
M  V30 10482 H 1015.96 1.40622 0.68228 0
M  V30 10483 H 1016.7 0.799408 3.14293 0
M  V30 10484 H 1016.48 2.56496 2.96568 0
M  V30 10485 H 1017.97 1.91382 3.71164 0
M  V30 10486 N 1018.41 -0.709066 1.40748 0
M  V30 10487 C 1019.66 -1.46611 1.39103 0
M  V30 10488 C 1019.98 -1.95 -0.00365366 0
M  V30 10489 O 1019.25 -1.70791 -0.959541 0
M  V30 10490 H 1017.83 -0.543954 0.511979 0
M  V30 10491 H 1020.49 -0.840141 1.75863 0
M  V30 10492 H 1019.59 -2.33581 2.06994 0
M  V30 10493 N 1019.89 -1.26353 -0.941956 0
M  V30 10494 C 1021.14 -1.11241 -1.68251 0
M  V30 10495 C 1021.45 0.344055 -1.9255 0
M  V30 10496 O 1022.66 0.615832 -2.64423 0
M  V30 10497 C 1021.11 -1.94269 -3.02965 0
M  V30 10498 C 1020.72 -3.44485 -2.86415 0
M  V30 10499 C 1022.47 -1.87764 -3.80716 0
M  V30 10500 C 1020.37 -4.19763 -4.16597 0
M  V30 10501 H 1019.3 -0.412694 -0.63103 0
M  V30 10502 H 1021.95 -1.50656 -1.04762 0
M  V30 10503 H 1020.34 -1.47687 -3.6743 0
M  V30 10504 H 1021.51 -3.9883 -2.30805 0
M  V30 10505 H 1019.82 -3.52218 -2.22107 0
M  V30 10506 H 1022.42 -2.41292 -4.77161 0
M  V30 10507 H 1022.76 -0.848195 -4.07568 0
M  V30 10508 H 1023.3 -2.32165 -3.23024 0
M  V30 10509 H 1020.04 -5.23173 -3.9493 0
M  V30 10510 H 1019.56 -3.70198 -4.71925 0
M  V30 10511 H 1021.24 -4.28168 -4.85058 0
M  V30 10512 N 1021.37 1.14642 -1.08144 0
M  V30 10513 C 1022.3 2.21775 -0.730609 0
M  V30 10514 C 1023.28 1.67683 0.285702 0
M  V30 10515 O 1024.46 1.93567 0.156667 0
M  V30 10516 C 1021.59 3.47033 -0.136242 0
M  V30 10517 C 1020.55 4.14134 -1.0806 0
M  V30 10518 C 1019.87 5.33563 -0.348585 0
M  V30 10519 C 1021.17 4.62978 -2.41761 0
M  V30 10520 H 1022.87 2.51378 -1.62633 0
M  V30 10521 H 1020.41 1.20825 -0.783411 0
M  V30 10522 H 1022.37 4.21226 0.121182 0
M  V30 10523 H 1021.09 3.16786 0.7946 0
M  V30 10524 H 1019.75 3.41892 -1.32308 0
M  V30 10525 H 1019.4 4.99575 0.585974 0
M  V30 10526 H 1019.1 5.79402 -0.978122 0
M  V30 10527 H 1020.62 6.10519 -0.0991508 0
M  V30 10528 H 1022.04 5.28659 -2.21795 0
M  V30 10529 H 1020.43 5.1951 -3.00383 0
M  V30 10530 H 1021.5 3.78189 -3.03482 0
M  V30 10531 N 1022.85 0.866709 1.31628 0
M  V30 10532 C 1024.09 0.476026 1.96825 0
M  V30 10533 C 1024.42 -0.970994 1.68529 0
M  V30 10534 O 1023.68 -1.69823 0.97255 0
M  V30 10535 C 1023.97 0.676018 3.50948 0
M  V30 10536 C 1023.64 2.09533 3.99258 0
M  V30 10537 C 1022.3 2.48349 4.1216 0
M  V30 10538 C 1024.65 3.02112 4.24709 0
M  V30 10539 C 1021.98 3.78991 4.47864 0
M  V30 10540 C 1024.33 4.32266 4.61875 0
M  V30 10541 C 1023 4.71 4.72985 0
M  V30 10542 H 1022.27 0.17419 0.720235 0
M  V30 10543 H 1024.92 1.09907 1.5682 0
M  V30 10544 H 1023.22 -0.0301867 3.91788 0
M  V30 10545 H 1024.92 0.353604 3.99438 0
M  V30 10546 H 1021.51 1.78396 3.89709 0
M  V30 10547 H 1025.69 2.73351 4.14238 0
M  V30 10548 H 1020.95 4.08769 4.54663 0
M  V30 10549 H 1025.12 5.04055 4.80522 0
M  V30 10550 H 1022.75 5.72273 5.00407 0
M  V30 10551 N 1024.32 -1.44642 0.625825 0
M  V30 10552 C 1025.57 -2.02393 0.128391 0
M  V30 10553 C 1025.9 -1.49075 -1.2446 0
M  V30 10554 O 1025.18 -0.672684 -1.82497 0
M  V30 10555 C 1025.46 -3.59934 0.109279 0
M  V30 10556 C 1025.31 -4.23546 1.51423 0
M  V30 10557 C 1026.63 -4.36406 -0.568985 0
M  V30 10558 H 1023.75 -0.735427 0.0481299 0
M  V30 10559 H 1026.39 -1.72277 0.801286 0
M  V30 10560 H 1024.54 -3.85722 -0.463726 0
M  V30 10561 H 1026.22 -4.08882 2.13572 0
M  V30 10562 H 1024.46 -3.81245 2.06966 0
M  V30 10563 H 1025.13 -5.32535 1.45294 0
M  V30 10564 H 1027.61 -4.1602 -0.0817516 0
M  V30 10565 H 1026.48 -5.46122 -0.551527 0
M  V30 10566 H 1026.74 -4.1062 -1.6384 0
M  V30 10567 N 1025.8 -0.366053 -1.5329 0
M  V30 10568 C 1027.03 0.224236 -2.05681 0
M  V30 10569 C 1027.44 1.42412 -1.23952 0
M  V30 10570 O 1026.8 1.80334 -0.280309 0
M  V30 10571 C 1026.85 0.617266 -3.56191 0
M  V30 10572 O 1026.57 -0.534931 -4.34822 0
M  V30 10573 C 1028.07 1.26589 -4.24841 0
M  V30 10574 H 1025.29 0.0392928 -0.669849 0
M  V30 10575 H 1027.84 -0.52456 -1.97658 0
M  V30 10576 H 1025.99 1.31598 -3.64364 0
M  V30 10577 H 1026.41 -0.217123 -5.2405 0
M  V30 10578 H 1027.88 1.49146 -5.31469 0
M  V30 10579 H 1028.36 2.22633 -3.78591 0
M  V30 10580 H 1028.96 0.6086 -4.20923 0
M  V30 10581 N 1027.28 1.57312 -0.0952337 0
M  V30 10582 C 1028.21 2.09691 0.900274 0
M  V30 10583 C 1029.19 1.0075 1.27625 0
M  V30 10584 O 1030.37 1.28249 1.38147 0
M  V30 10585 C 1027.5 2.574 2.20142 0
M  V30 10586 C 1026.55 3.78 1.9753 0
M  V30 10587 S 1027.38 5.21577 1.21318 0
M  V30 10588 C 1028.54 5.72636 2.52663 0
M  V30 10589 H 1028.77 2.93803 0.45467 0
M  V30 10590 H 1026.3 1.53948 0.118056 0
M  V30 10591 H 1028.26 2.85546 2.94914 0
M  V30 10592 H 1026.92 1.73514 2.61824 0
M  V30 10593 H 1026.11 4.09451 2.93881 0
M  V30 10594 H 1025.72 3.50349 1.30888 0
M  V30 10595 H 1028.01 5.80911 3.48638 0
M  V30 10596 H 1028.95 6.71136 2.25791 0
M  V30 10597 H 1029.36 5.00569 2.60943 0
M  V30 10598 N 1028.76 -0.17846 1.56586 0
M  V30 10599 C 1030.01 -0.894502 1.8078 0
M  V30 10600 C 1030.32 -1.8372 0.67129 0
M  V30 10601 O 1031.53 -2.59509 0.797971 0
M  V30 10602 C 1029.98 -1.64109 3.20306 0
M  V30 10603 C 1029.59 -0.742387 4.41806 0
M  V30 10604 C 1031.33 -2.34578 3.53798 0
M  V30 10605 C 1029.24 -1.4888 5.72354 0
M  V30 10606 H 1028.17 -0.33776 0.674117 0
M  V30 10607 H 1030.82 -0.14752 1.82906 0
M  V30 10608 H 1029.2 -2.43257 3.12477 0
M  V30 10609 H 1030.38 0.011615 4.60799 0
M  V30 10610 H 1028.69 -0.147705 4.16138 0
M  V30 10611 H 1031.29 -2.91004 4.48577 0
M  V30 10612 H 1031.63 -3.09572 2.78336 0
M  V30 10613 H 1032.17 -1.62381 3.63149 0
M  V30 10614 H 1028.9 -0.781325 6.50827 0
M  V30 10615 H 1028.42 -2.21631 5.57351 0
M  V30 10616 H 1030.1 -2.03819 6.14058 0
M  V30 10617 N 1030.24 -1.51135 -0.446768 0
M  V30 10618 C 1031.48 -1.63336 -1.19698 0
M  V30 10619 C 1031.81 -0.345099 -1.91414 0
M  V30 10620 O 1031.07 0.670365 -1.8386 0
M  V30 10621 C 1031.36 -2.78034 -2.2457 0
M  V30 10622 C 1031.03 -4.17652 -1.69934 0
M  V30 10623 C 1029.69 -4.55636 -1.54756 0
M  V30 10624 C 1032.04 -5.04813 -1.29665 0
M  V30 10625 C 1029.37 -5.78496 -0.977689 0
M  V30 10626 C 1031.72 -6.28244 -0.741112 0
M  V30 10627 C 1030.39 -6.65009 -0.576156 0
M  V30 10628 H 1029.66 -0.597689 -0.438006 0
M  V30 10629 H 1032.31 -1.85141 -0.48939 0
M  V30 10630 H 1030.61 -2.50413 -3.01331 0
M  V30 10631 H 1032.31 -2.84675 -2.8242 0
M  V30 10632 H 1028.9 -3.87699 -1.82722 0
M  V30 10633 H 1033.08 -4.76081 -1.40216 0
M  V30 10634 H 1028.34 -6.05636 -0.837563 0
M  V30 10635 H 1032.51 -6.95129 -0.42053 0
M  V30 10636 H 1030.14 -7.60085 -0.132443 0
M  V30 10637 N 1031.71 0.701592 -1.41122 0
M  V30 10638 C 1032.96 1.46376 -1.40363 0
M  V30 10639 C 1033.29 1.94197 -0.0105442 0
M  V30 10640 O 1032.57 1.69121 0.960637 0
M  V30 10641 C 1032.85 2.67994 -2.40523 0
M  V30 10642 C 1032.7 2.25977 -3.88914 0
M  V30 10643 C 1034.02 3.70181 -2.38022 0
M  V30 10644 H 1031.14 0.530929 -0.511159 0
M  V30 10645 H 1033.78 0.799588 -1.72356 0
M  V30 10646 H 1031.93 3.24661 -2.13372 0
M  V30 10647 H 1033.61 1.74684 -4.26946 0
M  V30 10648 H 1031.85 1.57826 -4.04071 0
M  V30 10649 H 1032.52 3.13215 -4.54533 0
M  V30 10650 H 1035 3.23174 -2.62103 0
M  V30 10651 H 1033.87 4.52894 -3.10127 0
M  V30 10652 H 1034.13 4.19458 -1.3967 0
M  V30 10653 N 1033.19 1.2685 0.935242 0
M  V30 10654 C 1034.15 1.08975 2.01636 0
M  V30 10655 C 1035.15 0.0361543 1.60759 0
M  V30 10656 O 1036.34 0.280087 1.71934 0
M  V30 10657 C 1033.48 0.658831 3.34473 0
M  V30 10658 H 1034.67 2.04968 2.18925 0
M  V30 10659 H 1032.22 1.09531 1.11501 0
M  V30 10660 H 1032.96 -0.302824 3.22883 0
M  V30 10661 H 1032.74 1.41967 3.65497 0
M  V30 10662 H 1034.23 0.555783 4.13885 0
M  V30 10663 N 1034.67 -1.14067 1.0875 0
M  V30 10664 C 1035.92 -1.84535 0.814235 0
M  V30 10665 C 1036.23 -1.84044 -0.662355 0
M  V30 10666 O 1037.44 -2.50336 -1.05091 0
M  V30 10667 C 1035.89 -3.31273 1.40663 0
M  V30 10668 C 1035.5 -3.40171 2.91526 0
M  V30 10669 C 1037.25 -4.0683 1.21201 0
M  V30 10670 C 1035.15 -4.81141 3.43885 0
M  V30 10671 H 1034.08 -0.691346 0.300926 0
M  V30 10672 H 1036.73 -1.28562 1.30935 0
M  V30 10673 H 1035.12 -3.87005 0.839215 0
M  V30 10674 H 1036.29 -2.94471 3.54434 0
M  V30 10675 H 1034.61 -2.78073 3.09942 0
M  V30 10676 H 1037.2 -5.10891 1.57781 0
M  V30 10677 H 1037.55 -4.16022 0.152092 0
M  V30 10678 H 1038.08 -3.57408 1.74655 0
M  V30 10679 H 1034.82 -4.77138 4.49466 0
M  V30 10680 H 1034.34 -5.27365 2.85738 0
M  V30 10681 H 1036.02 -5.50042 3.40681 0
M  V30 10682 N 1036.15 -0.873678 -1.31166 0
M  V30 10683 C 1037.1 -0.330288 -2.28424 0
M  V30 10684 C 1038.07 0.573299 -1.55893 0
M  V30 10685 O 1039.25 0.504143 -1.84019 0
M  V30 10686 C 1036.39 0.459004 -3.42034 0
M  V30 10687 C 1035.5 -0.472519 -4.29408 0
M  V30 10688 C 1034.64 0.331261 -5.30166 0
M  V30 10689 C 1033.68 -0.596453 -6.09187 0
M  V30 10690 N 1032.81 0.171305 -7.01891 0
M  V30 10691 H 1037.65 -1.16485 -2.7429 0
M  V30 10692 H 1035.19 -0.585813 -1.34932 0
M  V30 10693 H 1037.15 0.932432 -4.06647 0
M  V30 10694 H 1035.78 1.25824 -2.97268 0
M  V30 10695 H 1034.83 -1.06441 -3.65205 0
M  V30 10696 H 1036.14 -1.18372 -4.84551 0
M  V30 10697 H 1035.3 0.867038 -6.00473 0
M  V30 10698 H 1034.04 1.07573 -4.75688 0
M  V30 10699 H 1033.04 -1.14395 -5.37767 0
M  V30 10700 H 1034.27 -1.33983 -6.65752 0
M  V30 10701 H 1032.21 0.89852 -6.49817 0
M  V30 10702 H 1032.13 -0.480481 -7.54472 0
M  V30 10703 H 1033.4 0.688192 -7.76456 0
M  V30 10704 N 1037.63 1.44308 -0.633487 0
M  V30 10705 C 1038.87 2.03904 -0.14226 0
M  V30 10706 C 1039.23 1.48768 1.21376 0
M  V30 10707 O 1040.43 1.99882 1.79724 0
M  V30 10708 C 1038.7 3.5716 -0.130975 0
M  V30 10709 S 1040.26 4.37805 0.295287 0
M  V30 10710 H 1037.08 0.70827 -0.0622429 0
M  V30 10711 H 1039.68 1.76657 -0.837405 0
M  V30 10712 H 1038.39 3.94794 -1.12096 0
M  V30 10713 H 1037.92 3.89021 0.585342 0
M  V30 10714 H 1039.93 4.71732 1.53894 0
M  V30 10715 N 1039.1 0.374177 1.53094 0
M  V30 10716 C 1040.05 -0.468226 2.26001 0
M  V30 10717 C 1041.02 -1.07041 1.27009 0
M  V30 10718 O 1042.21 -1.10129 1.55809 0
M  V30 10719 C 1039.35 -1.59754 3.05896 0
M  V30 10720 C 1038.46 -1.01969 4.19793 0
M  V30 10721 C 1037.59 -2.11882 4.87113 0
M  V30 10722 C 1036.63 -1.51607 5.93028 0
M  V30 10723 N 1035.77 -2.55388 6.54004 0
M  V30 10724 H 1040.61 0.159983 2.9757 0
M  V30 10725 H 1038.15 0.0907196 1.4682 0
M  V30 10726 H 1040.11 -2.26288 3.50499 0
M  V30 10727 H 1038.74 -2.19628 2.36565 0
M  V30 10728 H 1037.79 -0.244386 3.79614 0
M  V30 10729 H 1039.1 -0.539089 4.95878 0
M  V30 10730 H 1038.25 -2.86218 5.34943 0
M  V30 10731 H 1036.99 -2.63297 4.10519 0
M  V30 10732 H 1036 -0.757891 5.44551 0
M  V30 10733 H 1037.22 -1.01006 6.71546 0
M  V30 10734 H 1035.17 -3.06 5.80258 0
M  V30 10735 H 1035.09 -2.12039 7.25655 0
M  V30 10736 H 1036.35 -3.294 7.06481 0
M  V30 10737 N 1040.58 -1.57259 0.103575 0
M  V30 10738 C 1042 -1.57581 -0.253062 0
M  V30 10739 C 1042.2 -1.11531 -1.67819 0
M  V30 10740 O 1041.25 -0.795632 -2.39637 0
M  V30 10741 C 1042.57 -3.00681 -0.0337753 0
M  V30 10742 C 1044.12 -3.12837 -0.10087 0
M  V30 10743 C 1044.59 -4.57911 0.0905295 0
M  V30 10744 N 1046.08 -4.63186 0.0359789 0
M  V30 10745 C 1046.82 -5.73179 0.159199 0
M  V30 10746 N 1046.31 -6.91976 0.337728 0
M  V30 10747 N 1048.11 -5.62011 0.0998662 0
M  V30 10748 H 1040.26 -1.85499 1.0346 0
M  V30 10749 H 1042.52 -0.856584 0.406163 0
M  V30 10750 H 1042.23 -3.38602 0.950858 0
M  V30 10751 H 1042.1 -3.69207 -0.772406 0
M  V30 10752 H 1044.49 -2.74783 -1.07601 0
M  V30 10753 H 1044.57 -2.46886 0.66939 0
M  V30 10754 H 1044.21 -4.9666 1.06258 0
M  V30 10755 H 1044.14 -5.21933 -0.699528 0
M  V30 10756 H 1046.63 -3.7777 -0.099121 0
M  V30 10757 H 1046.95 -7.71641 0.423032 0
M  V30 10758 H 1045.29 -6.93996 0.373504 0
M  V30 10759 H 1048.48 -4.68084 -0.0385356 0
M  V30 10760 H 1048.65 -6.47693 0.199342 0
M  V30 10761 N 1042.06 0.170153 -1.56679 0
M  V30 10762 C 1043.34 0.913938 -1.72935 0
M  V30 10763 C 1043.72 2.00342 -0.665293 0
M  V30 10764 O 1043.07 2.26252 0.319715 0
M  V30 10765 C 1043.28 1.47761 -3.16177 0
M  V30 10766 C 1044.62 1.95007 -3.7717 0
M  V30 10767 O 1045.65 1.57552 -3.19462 0
M  V30 10768 O 1044.51 2.64007 -4.78501 0
M  V30 10769 H 1041.6 0.43027 -0.706256 0
M  V30 10770 H 1044.15 0.157891 -1.68964 0
M  V30 10771 H 1042.92 0.69352 -3.85105 0
M  V30 10772 H 1042.54 2.2978 -3.24479 0
M  V30 10773 N 1043.54 1.5137 0.438746 0
M  V30 10774 C 1044.49 1.73154 1.55308 0
M  V30 10775 C 1045.48 0.597825 1.58501 0
M  V30 10776 O 1046.69 0.77917 1.62262 0
M  V30 10777 H 1043.06 0.547083 0.51595 0
M  V30 10778 H 1045.03 2.66566 1.34108 0
M  V30 10779 C 1043.78 1.87242 2.92977 0
M  V30 10780 H 1043.1 2.73884 2.91252 0
M  V30 10781 H 1044.54 2.06497 3.70317 0
M  V30 10782 C 1043 0.631887 3.30921 0
M  V30 10783 O 1043.53 -0.214099 4.01129 0
M  V30 10784 N 1041.74 0.47639 2.86669 0
M  V30 10785 H 1041.29 1.16589 2.29706 0
M  V30 10786 H 1041.24 -0.352403 3.12419 0
M  V30 10787 N 1045.02 -0.694098 1.41492 0
M  V30 10788 C 1045.96 -1.80801 1.43456 0
M  V30 10789 C 1046.93 -1.63571 0.288757 0
M  V30 10790 O 1048.12 -1.844 0.490017 0
M  V30 10791 C 1045.26 -3.18694 1.32394 0
M  V30 10792 C 1044.37 -3.47346 2.56855 0
M  V30 10793 C 1043.51 -4.74862 2.38075 0
M  V30 10794 C 1042.55 -4.96486 3.58005 0
M  V30 10795 N 1041.68 -6.15229 3.38287 0
M  V30 10796 H 1046.52 -1.78457 2.38657 0
M  V30 10797 H 1044.06 -0.871455 1.18508 0
M  V30 10798 H 1046.02 -3.98352 1.23982 0
M  V30 10799 H 1044.65 -3.20211 0.407999 0
M  V30 10800 H 1043.7 -2.62083 2.75711 0
M  V30 10801 H 1045.01 -3.59226 3.4606 0
M  V30 10802 H 1044.17 -5.62577 2.27139 0
M  V30 10803 H 1042.9 -4.6523 1.46329 0
M  V30 10804 H 1041.91 -4.07219 3.69395 0
M  V30 10805 H 1043.13 -5.07976 4.50708 0
M  V30 10806 H 1041.08 -6.06807 2.49242 0
M  V30 10807 H 1041 -6.27883 4.21069 0
M  V30 10808 H 1042.27 -7.05674 3.31126 0
M  V30 10809 N 1046.49 -1.27344 -0.928501 0
M  V30 10810 C 1047.4 -1.11812 -2.06241 0
M  V30 10811 C 1048.42 -0.048347 -1.73933 0
M  V30 10812 O 1049.6 -0.25467 -1.99783 0
M  V30 10813 C 1046.66 -0.766036 -3.38131 0
M  V30 10814 C 1045.72 -1.91659 -3.84142 0
M  V30 10815 C 1044.96 -1.58121 -5.09738 0
M  V30 10816 O 1045.18 -0.488742 -5.68302 0
M  V30 10817 O 1044.11 -2.42013 -5.51102 0
M  V30 10818 H 1047.94 -2.06967 -2.22258 0
M  V30 10819 H 1045.52 -1.06524 -1.04752 0
M  V30 10820 H 1047.41 -0.582982 -4.17348 0
M  V30 10821 H 1046.08 0.155998 -3.23324 0
M  V30 10822 H 1044.99 -2.1547 -3.05816 0
M  V30 10823 H 1046.32 -2.8188 -4.0349 0
M  V30 10824 N 1047.97 1.13488 -1.09353 0
M  V30 10825 C 1049.22 1.841 -0.82401 0
M  V30 10826 C 1049.53 1.84393 0.652586 0
M  V30 10827 O 1050.74 2.5089 1.03762 0
M  V30 10828 C 1049.2 3.30523 -1.42418 0
M  V30 10829 C 1048.8 3.38621 -2.93326 0
M  V30 10830 C 1050.55 4.06182 -1.23356 0
M  V30 10831 C 1048.46 4.79311 -3.46432 0
M  V30 10832 H 1047.39 0.68974 -0.304589 0
M  V30 10833 H 1050.04 1.27866 -1.31615 0
M  V30 10834 H 1048.42 3.86555 -0.859727 0
M  V30 10835 H 1049.59 2.92587 -3.5599 0
M  V30 10836 H 1047.91 2.76426 -3.11412 0
M  V30 10837 H 1050.5 5.10047 -1.60488 0
M  V30 10838 H 1050.85 4.15936 -0.174152 0
M  V30 10839 H 1051.38 3.56477 -1.76547 0
M  V30 10840 H 1048.12 4.74748 -4.5199 0
M  V30 10841 H 1047.64 5.25842 -2.8853 0
M  V30 10842 H 1049.32 5.48227 -3.43593 0
M  V30 10843 N 1049.45 0.880621 1.30701 0
M  V30 10844 C 1050.87 0.574015 1.4892 0
M  V30 10845 C 1051.07 -0.889312 1.80813 0
M  V30 10846 O 1050.12 -1.67082 1.89314 0
M  V30 10847 C 1051.44 1.48341 2.61563 0
M  V30 10848 C 1052.98 1.48658 2.75445 0
M  V30 10849 C 1053.46 2.3818 3.91196 0
M  V30 10850 N 1054.95 2.36119 3.985 0
M  V30 10851 C 1055.69 3.02101 4.87363 0
M  V30 10852 N 1055.18 3.77293 5.81052 0
M  V30 10853 N 1056.97 2.91356 4.80696 0
M  V30 10854 H 1049.13 1.82732 1.08271 0
M  V30 10855 H 1051.39 0.781939 0.535981 0
M  V30 10856 H 1051.09 2.52515 2.44804 0
M  V30 10857 H 1050.97 1.18977 3.57944 0
M  V30 10858 H 1053.36 0.452374 2.91612 0
M  V30 10859 H 1053.44 1.8205 1.79698 0
M  V30 10860 H 1053.08 3.41683 3.75786 0
M  V30 10861 H 1053.01 2.02106 4.86272 0
M  V30 10862 H 1055.5 1.81474 3.31475 0
M  V30 10863 H 1055.81 4.24742 6.45612 0
M  V30 10864 H 1054.16 3.81401 5.80998 0
M  V30 10865 H 1057.35 2.32143 4.06481 0
M  V30 10866 H 1057.52 3.43056 5.49742 0
M  V30 10867 N 1050.93 -1.4397 0.641131 0
M  V30 10868 C 1052.16 -2.06303 0.157006 0
M  V30 10869 C 1052.57 -1.47981 -1.17248 0
M  V30 10870 O 1051.93 -0.606471 -1.72128 0
M  V30 10871 C 1051.98 -3.6147 0.0468425 0
M  V30 10872 O 1051.7 -4.17622 1.32376 0
M  V30 10873 C 1053.2 -4.40857 -0.464795 0
M  V30 10874 H 1050.42 -0.665684 0.0842946 0
M  V30 10875 H 1052.97 -1.84675 0.878363 0
M  V30 10876 H 1051.12 -3.82325 -0.625006 0
M  V30 10877 H 1051.54 -5.11167 1.17509 0
M  V30 10878 H 1053.01 -5.49813 -0.490862 0
M  V30 10879 H 1053.49 -4.13016 -1.4938 0
M  V30 10880 H 1054.09 -4.24943 0.174146 0
M  V30 10881 N 1052.41 -0.382291 -1.52893 0
M  V30 10882 C 1053.64 0.202114 -2.05609 0
M  V30 10883 C 1054.05 1.4164 -1.25438 0
M  V30 10884 O 1053.39 1.81359 -0.292324 0
M  V30 10885 C 1053.45 0.64356 -3.53693 0
M  V30 10886 C 1053.11 -0.456305 -4.54716 0
M  V30 10887 C 1054.11 -1.3115 -5.03086 0
M  V30 10888 C 1051.8 -0.621329 -4.98442 0
M  V30 10889 C 1053.79 -2.3169 -5.938 0
M  V30 10890 C 1051.48 -1.63008 -5.88958 0
M  V30 10891 C 1052.48 -2.47629 -6.36529 0
M  V30 10892 O 1052.16 -3.46781 -7.25257 0
M  V30 10893 H 1051.9 0.0358014 -0.675051 0
M  V30 10894 H 1054.45 -0.543935 -1.98067 0
M  V30 10895 H 1052.68 1.44148 -3.58829 0
M  V30 10896 H 1054.37 1.15284 -3.89184 0
M  V30 10897 H 1055.13 -1.19528 -4.70041 0
M  V30 10898 H 1051.01 0.027593 -4.60992 0
M  V30 10899 H 1054.56 -2.97776 -6.30853 0
M  V30 10900 H 1050.45 -1.74671 -6.21418 0
M  V30 10901 H 1051.22 -3.42707 -7.433 0
M  V30 10902 N 1053.89 1.57202 -0.111913 0
M  V30 10903 C 1054.83 2.16186 0.858286 0
M  V30 10904 C 1055.83 1.10917 1.28039 0
M  V30 10905 O 1057.03 1.29233 1.25295 0
M  V30 10906 H 1053.41 0.691777 0.29487 0
M  V30 10907 H 1055.38 2.96499 0.336265 0
M  V30 10908 C 1054.13 2.77024 2.10127 0
M  V30 10909 H 1053.45 3.5772 1.78539 0
M  V30 10910 H 1054.89 3.21841 2.76033 0
M  V30 10911 C 1053.35 1.73752 2.88638 0
M  V30 10912 O 1053.88 1.18659 3.83774 0
M  V30 10913 N 1052.09 1.43855 2.52496 0
M  V30 10914 H 1051.63 1.88846 1.75199 0
M  V30 10915 H 1051.59 0.749985 3.05324 0
M  V30 10916 N 1055.36 -0.161842 1.56767 0
M  V30 10917 C 1056.6 -0.88331 1.84329 0
M  V30 10918 C 1056.97 -1.79012 0.694165 0
M  V30 10919 O 1058.17 -2.54991 0.850461 0
M  V30 10920 C 1056.44 -1.65 3.17033 0
M  V30 10921 S 1058 -2.41893 3.66106 0
M  V30 10922 H 1054.82 -0.295667 0.646608 0
M  V30 10923 H 1057.42 -0.14429 1.94967 0
M  V30 10924 H 1056.12 -0.975025 3.9865 0
M  V30 10925 H 1055.65 -2.43021 3.09361 0
M  V30 10926 H 1057.67 -3.66788 3.34187 0
M  V30 10927 N 1056.84 -1.516 -0.430713 0
M  V30 10928 C 1058.07 -1.687 -1.20644 0
M  V30 10929 C 1058.49 -0.386555 -1.84085 0
M  V30 10930 O 1057.85 0.653952 -1.69095 0
M  V30 10931 C 1057.9 -2.80887 -2.2613 0
M  V30 10932 O 1057 -2.44952 -3.31772 0
M  V30 10933 H 1056.34 -0.562289 -0.353167 0
M  V30 10934 H 1058.87 -1.98198 -0.507807 0
M  V30 10935 H 1058.88 -3.05167 -2.70809 0
M  V30 10936 H 1057.56 -3.75249 -1.79334 0
M  V30 10937 H 1056.13 -2.31267 -2.92523 0
M  V30 10938 N 1058.32 0.686584 -1.41858 0
M  V30 10939 C 1059.27 1.82167 -1.4463 0
M  V30 10940 C 1060.26 1.66286 -0.323313 0
M  V30 10941 O 1061.47 1.73038 -0.495773 0
M  V30 10942 H 1057.84 0.600454 -0.452724 0
M  V30 10943 H 1059.81 1.76947 -2.40276 0
M  V30 10944 C 1058.56 3.20248 -1.35412 0
M  V30 10945 H 1057.89 3.33089 -2.21115 0
M  V30 10946 H 1059.33 3.99723 -1.41413 0
M  V30 10947 C 1057.78 3.36832 -0.0674972 0
M  V30 10948 O 1058.31 3.91845 0.884325 0
M  V30 10949 N 1056.52 2.90598 0.011519 0
M  V30 10950 H 1056.07 2.46016 -0.76381 0
M  V30 10951 H 1056.03 3.02072 0.871774 0
M  V30 10952 N 1059.8 1.27835 0.921735 0
M  V30 10953 C 1061.04 1.15766 1.68457 0
M  V30 10954 C 1061.4 -0.290542 1.89789 0
M  V30 10955 O 1062.6 -0.53378 2.63447 0
M  V30 10956 C 1060.87 1.92591 3.0107 0
M  V30 10957 S 1062.43 1.96804 3.92191 0
M  V30 10958 H 1059.25 0.413169 0.578629 0
M  V30 10959 H 1061.85 1.61826 1.09693 0
M  V30 10960 H 1060.56 2.96991 2.8324 0
M  V30 10961 H 1060.09 1.47049 3.64884 0
M  V30 10962 H 1062.1 1.06877 4.84553 0
M  V30 10963 N 1061.28 -1.12907 1.09954 0
M  V30 10964 C 1062.21 -2.20585 0.765799 0
M  V30 10965 C 1063.19 -1.68117 -0.258989 0
M  V30 10966 O 1064.37 -1.93792 -0.125853 0
M  V30 10967 C 1061.5 -3.46772 0.191435 0
M  V30 10968 C 1060.46 -4.12363 1.14635 0
M  V30 10969 C 1059.78 -5.3294 0.433426 0
M  V30 10970 C 1061.08 -4.59073 2.49096 0
M  V30 10971 H 1062.78 -2.48759 1.66612 0
M  V30 10972 H 1060.32 -1.19563 0.802534 0
M  V30 10973 H 1062.27 -4.21365 -0.0541535 0
M  V30 10974 H 1061 -3.18011 -0.744101 0
M  V30 10975 H 1059.66 -3.39744 1.37731 0
M  V30 10976 H 1059.31 -5.00444 -0.506422 0
M  V30 10977 H 1059.01 -5.77772 1.07018 0
M  V30 10978 H 1060.53 -6.10284 0.196267 0
M  V30 10979 H 1061.94 -5.25063 2.30177 0
M  V30 10980 H 1060.34 -5.14665 3.0861 0
M  V30 10981 H 1061.41 -3.73313 3.0946 0
M  V30 10982 N 1062.75 -0.88754 -1.30232 0
M  V30 10983 C 1063.98 -0.522306 -2.00199 0
M  V30 10984 C 1064.4 0.889866 -1.66514 0
M  V30 10985 O 1063.75 1.58558 -0.903639 0
M  V30 10986 C 1063.8 -0.690551 -3.54843 0
M  V30 10987 O 1063.53 -2.04713 -3.8733 0
M  V30 10988 C 1065.03 -0.328649 -4.4208 0
M  V30 10989 H 1062.25 -0.201628 -0.63999 0
M  V30 10990 H 1064.79 -1.19355 -1.66056 0
M  V30 10991 H 1062.95 -0.0666493 -3.87343 0
M  V30 10992 H 1063.36 -2.06762 -4.82027 0
M  V30 10993 H 1064.83 -0.497257 -5.49756 0
M  V30 10994 H 1065.31 0.733502 -4.33032 0
M  V30 10995 H 1065.92 -0.928982 -4.1503 0
M  V30 10996 N 1064.23 1.43628 -0.648757 0
M  V30 10997 C 1065.48 2.01083 -0.157692 0
M  V30 10998 C 1065.79 1.51756 1.23408 0
M  V30 10999 O 1067 2.01455 1.82012 0
M  V30 11000 C 1065.46 3.59157 -0.231118 0
M  V30 11001 C 1065.06 4.17478 -1.6253 0
M  V30 11002 C 1066.81 4.24016 0.202573 0
M  V30 11003 C 1064.72 5.67832 -1.6529 0
M  V30 11004 H 1063.65 0.751977 -0.0551897 0
M  V30 11005 H 1066.3 1.64648 -0.810139 0
M  V30 11006 H 1064.68 3.92972 0.488755 0
M  V30 11007 H 1065.85 3.9517 -2.37017 0
M  V30 11008 H 1064.17 3.64973 -2.00459 0
M  V30 11009 H 1066.76 5.34319 0.20174 0
M  V30 11010 H 1067.11 3.97616 1.23319 0
M  V30 11011 H 1067.64 3.95068 -0.465398 0
M  V30 11012 H 1064.38 5.98994 -2.66246 0
M  V30 11013 H 1063.9 5.92209 -0.951217 0
M  V30 11014 H 1065.58 6.3179 -1.39465 0
M  V30 11015 N 1065.71 0.390394 1.52688 0
M  V30 11016 C 1066.94 -0.191485 2.06012 0
M  V30 11017 C 1067.35 -1.40422 1.26202 0
M  V30 11018 O 1066.71 -1.79866 0.308963 0
M  V30 11019 C 1066.76 -0.560521 3.57128 0
M  V30 11020 O 1066.48 0.60404 4.33916 0
M  V30 11021 C 1067.98 -1.19814 4.26801 0
M  V30 11022 H 1065.2 -0.0286311 0.670389 0
M  V30 11023 H 1067.75 0.555939 1.96798 0
M  V30 11024 H 1065.9 -1.25784 3.66411 0
M  V30 11025 H 1066.32 0.300467 5.23639 0
M  V30 11026 H 1067.79 -1.40672 5.33775 0
M  V30 11027 H 1068.27 -2.16582 3.82085 0
M  V30 11028 H 1068.87 -0.541558 4.21838 0
M  V30 11029 N 1067.19 -1.57141 0.120249 0
M  V30 11030 C 1068.43 -1.97124 -0.540521 0
M  V30 11031 C 1068.79 -1.0022 -1.63768 0
M  V30 11032 O 1069.99 -1.29146 -2.35743 0
M  V30 11033 C 1068.26 -3.41371 -1.05833 0
M  V30 11034 S 1069.82 -4.03367 -1.72745 0
M  V30 11035 H 1066.64 -0.688962 -0.175646 0
M  V30 11036 H 1069.24 -1.94416 0.205625 0
M  V30 11037 H 1067.95 -4.09646 -0.248656 0
M  V30 11038 H 1067.48 -3.47732 -1.83972 0
M  V30 11039 H 1069.49 -3.94227 -3.0133 0
M  V30 11040 N 1068.67 0.153526 -1.5685 0
M  V30 11041 C 1069.6 1.19162 -2.00805 0
M  V30 11042 C 1070.58 1.45172 -0.886518 0
M  V30 11043 O 1071.76 1.56203 -1.15387 0
M  V30 11044 C 1068.89 2.52637 -2.38311 0
M  V30 11045 C 1067.85 2.41161 -3.53589 0
M  V30 11046 C 1067.17 3.79287 -3.76889 0
M  V30 11047 C 1068.47 1.90122 -4.86468 0
M  V30 11048 H 1070.17 0.82617 -2.87776 0
M  V30 11049 H 1067.71 0.395972 -1.38449 0
M  V30 11050 H 1069.67 3.25478 -2.6766 0
M  V30 11051 H 1068.39 2.91005 -1.4827 0
M  V30 11052 H 1067.05 1.70772 -3.24395 0
M  V30 11053 H 1066.7 4.15079 -2.84109 0
M  V30 11054 H 1066.4 3.72472 -4.54465 0
M  V30 11055 H 1067.92 4.53687 -4.08657 0
M  V30 11056 H 1069.33 2.52752 -5.14577 0
M  V30 11057 H 1067.73 1.94214 -5.67804 0
M  V30 11058 H 1068.8 0.856517 -4.77275 0
M  V30 11059 N 1070.14 1.51827 0.422667 0
M  V30 11060 C 1071.07 1.77152 1.52117 0
M  V30 11061 C 1072.06 0.621895 1.58324 0
M  V30 11062 O 1073.24 0.866118 1.73816 0
M  V30 11063 C 1070.37 1.90991 2.90068 0
M  V30 11064 C 1069.32 3.06516 2.98717 0
M  V30 11065 C 1068.65 3.05559 4.38791 0
M  V30 11066 C 1069.95 4.46223 2.71445 0
M  V30 11067 H 1071.64 2.69135 1.31175 0
M  V30 11068 H 1069.19 1.29507 0.629607 0
M  V30 11069 H 1071.14 2.07291 3.6689 0
M  V30 11070 H 1069.87 0.956688 3.12274 0
M  V30 11071 H 1068.53 2.89945 2.24338 0
M  V30 11072 H 1068.17 2.07985 4.57986 0
M  V30 11073 H 1067.87 3.83144 4.45505 0
M  V30 11074 H 1069.4 3.23971 5.17566 0
M  V30 11075 H 1070.81 4.63069 3.37994 0
M  V30 11076 H 1069.21 5.25623 2.89552 0
M  V30 11077 H 1070.28 4.5525 1.6696 0
M  V30 11078 N 1071.62 -0.679052 1.4222 0
M  V30 11079 C 1072.87 -1.43627 1.42182 0
M  V30 11080 C 1073.19 -1.94964 0.0377095 0
M  V30 11081 O 1072.46 -1.72788 -0.923098 0
M  V30 11082 H 1071.04 -0.532972 0.523402 0
M  V30 11083 H 1073.7 -0.802649 1.77605 0
M  V30 11084 H 1072.8 -2.29137 2.11902 0
M  V30 11085 N 1073.1 -1.28322 -0.914942 0
M  V30 11086 C 1074.34 -1.16657 -1.6784 0
M  V30 11087 C 1074.7 0.280473 -1.8994 0
M  V30 11088 O 1075.91 0.519801 -2.63726 0
M  V30 11089 C 1074.18 -1.94185 -3.00045 0
M  V30 11090 S 1075.74 -1.98881 -3.91141 0
M  V30 11091 H 1072.55 -0.416232 -0.57643 0
M  V30 11092 H 1075.16 -1.62405 -1.08834 0
M  V30 11093 H 1073.86 -2.98488 -2.81661 0
M  V30 11094 H 1073.39 -1.48982 -3.64099 0
M  V30 11095 H 1075.41 -1.09445 -4.8398 0
M  V30 11096 N 1074.58 1.12322 -1.10551 0
M  V30 11097 C 1075.83 1.83858 -0.848674 0
M  V30 11098 C 1076.15 1.84159 0.62575 0
M  V30 11099 O 1075.41 1.28341 1.4774 0
M  V30 11100 C 1075.71 3.31177 -1.34375 0
M  V30 11101 C 1075.37 3.51046 -2.8298 0
M  V30 11102 C 1074.04 3.56177 -3.23561 0
M  V30 11103 C 1076.39 3.58061 -3.78737 0
M  V30 11104 C 1073.72 3.65868 -4.58647 0
M  V30 11105 C 1076.07 3.69283 -5.13627 0
M  V30 11106 C 1074.73 3.7267 -5.53781 0
M  V30 11107 H 1074 0.672784 -0.310552 0
M  V30 11108 H 1076.65 1.3253 -1.38232 0
M  V30 11109 H 1074.95 3.84937 -0.730144 0
M  V30 11110 H 1076.65 3.84998 -1.12148 0
M  V30 11111 H 1073.24 3.47716 -2.50582 0
M  V30 11112 H 1077.42 3.53366 -3.48491 0
M  V30 11113 H 1072.68 3.66763 -4.89178 0
M  V30 11114 H 1076.85 3.73654 -5.8767 0
M  V30 11115 H 1074.48 3.79932 -6.58449 0
M  V30 11116 N 1076.06 0.894434 1.2976 0
M  V30 11117 C 1077.31 0.513673 1.95049 0
M  V30 11118 C 1077.62 -0.943744 1.71327 0
M  V30 11119 O 1078.82 -1.43179 2.30678 0
M  V30 11120 C 1077.28 0.867751 3.49282 0
M  V30 11121 C 1076.89 2.34358 3.81812 0
M  V30 11122 C 1078.63 0.556645 4.20835 0
M  V30 11123 C 1076.54 2.63879 5.29265 0
M  V30 11124 H 1075.47 0.188375 0.73009 0
M  V30 11125 H 1078.12 1.09071 1.47566 0
M  V30 11126 H 1076.5 0.2197 3.9539 0
M  V30 11127 H 1077.68 3.03674 3.46581 0
M  V30 11128 H 1075.99 2.62318 3.23386 0
M  V30 11129 H 1078.59 0.754123 5.29355 0
M  V30 11130 H 1078.93 -0.504526 4.13231 0
M  V30 11131 H 1079.46 1.1623 3.80441 0
M  V30 11132 H 1076.2 3.68774 5.41928 0
M  V30 11133 H 1075.72 1.99182 5.65762 0
M  V30 11134 H 1077.4 2.49871 5.96803 0
M  V30 11135 N 1077.53 -1.43282 0.656365 0
M  V30 11136 C 1078.48 -2.30776 -0.0333155 0
M  V30 11137 C 1079.45 -1.44928 -0.811493 0
M  V30 11138 O 1080.64 -1.73792 -0.787465 0
M  V30 11139 C 1077.78 -3.30548 -0.991566 0
M  V30 11140 C 1076.89 -4.31493 -0.209159 0
M  V30 11141 C 1076.02 -5.18346 -1.16149 0
M  V30 11142 C 1075.06 -6.10983 -0.369699 0
M  V30 11143 N 1074.2 -6.90449 -1.27378 0
M  V30 11144 H 1079.04 -2.89204 0.718668 0
M  V30 11145 H 1076.58 -1.4247 0.366161 0
M  V30 11146 H 1078.54 -3.86905 -1.56078 0
M  V30 11147 H 1077.17 -2.73762 -1.71039 0
M  V30 11148 H 1076.22 -3.77405 0.476394 0
M  V30 11149 H 1077.53 -4.97142 0.406394 0
M  V30 11150 H 1076.68 -5.79345 -1.80124 0
M  V30 11151 H 1075.42 -4.52831 -1.81095 0
M  V30 11152 H 1074.43 -5.49069 0.283377 0
M  V30 11153 H 1075.65 -6.78541 0.275399 0
M  V30 11154 H 1073.6 -6.27579 -1.90999 0
M  V30 11155 H 1073.52 -7.52631 -0.71287 0
M  V30 11156 H 1074.78 -7.5595 -1.90158 0
M  V30 11157 N 1079.01 -0.398486 -1.52479 0
M  V30 11158 C 1080.26 0.180394 -2.01293 0
M  V30 11159 C 1080.58 1.46548 -1.28641 0
M  V30 11160 O 1079.85 1.91579 -0.409173 0
M  V30 11161 H 1078.43 0.0696528 -0.743746 0
M  V30 11162 H 1081.09 -0.532285 -1.87491 0
M  V30 11163 H 1080.19 0.38409 -3.09728 0
M  V30 11164 N 1080.49 1.57075 -0.12858 0
M  V30 11165 C 1081.42 2.12907 0.848708 0
M  V30 11166 C 1082.44 1.07406 1.22343 0
M  V30 11167 O 1083.63 1.34746 1.17071 0
M  V30 11168 C 1080.73 2.62167 2.1476 0
M  V30 11169 C 1079.9 3.91871 1.94309 0
M  V30 11170 C 1078.96 4.26629 3.08016 0
M  V30 11171 O 1077.98 4.9528 2.80511 0
M  V30 11172 N 1079.19 3.84721 4.34706 0
M  V30 11173 H 1081.95 2.97387 0.371636 0
M  V30 11174 H 1079.51 1.61805 0.0555574 0
M  V30 11175 H 1081.5 2.82444 2.89841 0
M  V30 11176 H 1080.07 1.82514 2.53786 0
M  V30 11177 H 1079.29 3.80406 1.03367 0
M  V30 11178 H 1080.58 4.76662 1.77962 0
M  V30 11179 H 1079.98 3.2937 4.59926 0
M  V30 11180 H 1078.54 4.10087 5.06628 0
M  V30 11181 N 1081.97 -0.145205 1.5693 0
M  V30 11182 C 1082.92 -1.19841 1.99351 0
M  V30 11183 C 1083.91 -1.44371 0.886197 0
M  V30 11184 O 1085.12 -1.44642 1.07138 0
M  V30 11185 H 1081.49 -0.403437 0.63462 0
M  V30 11186 H 1083.46 -0.813932 2.87085 0
M  V30 11187 C 1082.21 -2.52377 2.39167 0
M  V30 11188 H 1081.54 -2.34332 3.23927 0
M  V30 11189 H 1082.98 -3.24694 2.72671 0
M  V30 11190 C 1081.43 -3.1305 1.24503 0
M  V30 11191 O 1081.96 -3.97962 0.546739 0
M  V30 11192 N 1080.17 -2.72528 1.00882 0
M  V30 11193 H 1079.72 -2.03576 1.57843 0
M  V30 11194 H 1079.68 -3.13456 0.24351 0
M  V30 11195 N 1083.45 -1.52049 -0.414609 0
M  V30 11196 C 1084.67 -1.6997 -1.18848 0
M  V30 11197 C 1085.1 -0.406058 -1.83665 0
M  V30 11198 O 1084.46 0.635981 -1.69779 0
M  V30 11199 C 1084.5 -2.8327 -2.23138 0
M  V30 11200 O 1083.61 -2.48457 -3.29155 0
M  V30 11201 H 1082.95 -0.566003 -0.347183 0
M  V30 11202 H 1085.48 -1.98726 -0.486757 0
M  V30 11203 H 1085.49 -3.08022 -2.67557 0
M  V30 11204 H 1084.16 -3.7713 -1.75344 0
M  V30 11205 H 1082.74 -2.34357 -2.90054 0
M  V30 11206 N 1084.93 0.6715 -1.42579 0
M  V30 11207 C 1085.87 1.78496 -1.46314 0
M  V30 11208 C 1086.84 1.63091 -0.314743 0
M  V30 11209 O 1088.03 1.83597 -0.519292 0
M  V30 11210 C 1085.17 3.16548 -1.37447 0
M  V30 11211 C 1084.28 3.43216 -2.62348 0
M  V30 11212 C 1083.42 4.71014 -2.456 0
M  V30 11213 C 1082.45 4.90728 -3.65859 0
M  V30 11214 N 1081.59 6.09769 -3.48032 0
M  V30 11215 H 1086.43 1.74638 -2.41466 0
M  V30 11216 H 1083.97 0.852491 -1.19879 0
M  V30 11217 H 1085.93 3.96329 -1.30303 0
M  V30 11218 H 1084.56 3.19522 -0.458891 0
M  V30 11219 H 1083.61 2.57664 -2.79846 0
M  V30 11220 H 1084.92 3.53675 -3.51732 0
M  V30 11221 H 1084.07 5.58892 -2.3606 0
M  V30 11222 H 1082.81 4.62843 -1.53712 0
M  V30 11223 H 1081.82 4.01291 -3.75827 0
M  V30 11224 H 1083.04 5.00741 -4.58732 0
M  V30 11225 H 1080.99 6.02765 -2.58864 0
M  V30 11226 H 1080.91 6.21104 -4.31005 0
M  V30 11227 H 1082.17 7.00317 -3.42311 0
M  V30 11228 N 1086.4 1.28806 0.908124 0
M  V30 11229 C 1087.64 1.17546 1.67219 0
M  V30 11230 C 1088.01 -0.270396 1.90086 0
M  V30 11231 O 1089.21 -0.505808 2.63998 0
M  V30 11232 C 1087.48 1.95774 2.99011 0
M  V30 11233 S 1089.04 2.00953 3.90081 0
M  V30 11234 H 1085.86 0.419283 0.574215 0
M  V30 11235 H 1088.46 1.6298 1.07971 0
M  V30 11236 H 1087.16 2.99978 2.80074 0
M  V30 11237 H 1086.69 1.50911 3.63303 0
M  V30 11238 H 1088.71 1.1201 4.83392 0
M  V30 11239 N 1087.88 -1.11734 1.11145 0
M  V30 11240 C 1088.81 -2.1976 0.789152 0
M  V30 11241 C 1089.79 -1.68382 -0.241143 0
M  V30 11242 O 1090.98 -1.93914 -0.105292 0
M  V30 11243 C 1088.11 -3.46549 0.228204 0
M  V30 11244 C 1087.06 -4.11123 1.19002 0
M  V30 11245 C 1086.39 -5.32451 0.489928 0
M  V30 11246 C 1087.69 -4.56406 2.53951 0
M  V30 11247 H 1089.38 -2.46978 1.69241 0
M  V30 11248 H 1086.93 -1.18705 0.81517 0
M  V30 11249 H 1088.88 -4.21399 -0.00945908 0
M  V30 11250 H 1087.6 -3.18782 -0.71033 0
M  V30 11251 H 1086.26 -3.38264 1.41326 0
M  V30 11252 H 1085.91 -5.00953 -0.453315 0
M  V30 11253 H 1085.61 -5.76605 1.1314 0
M  V30 11254 H 1087.14 -6.10042 0.260984 0
M  V30 11255 H 1088.55 -5.22592 2.35733 0
M  V30 11256 H 1086.95 -5.11363 3.14051 0
M  V30 11257 H 1088.02 -3.7001 3.13402 0
M  V30 11258 N 1089.36 -0.901303 -1.29284 0
M  V30 11259 C 1090.31 -0.351562 -2.25273 0
M  V30 11260 C 1091.29 0.529276 -1.51946 0
M  V30 11261 O 1092.49 0.371031 -1.73068 0
M  V30 11262 C 1089.61 0.41843 -3.4074 0
M  V30 11263 C 1088.7 -0.47742 -4.21404 0
M  V30 11264 N 1089.09 -1.58537 -4.80312 0
M  V30 11265 C 1087.39 -0.275504 -4.45148 0
M  V30 11266 C 1088.09 -2.14041 -5.40889 0
M  V30 11267 N 1087.07 -1.43324 -5.24365 0
M  V30 11268 H 1090.87 -1.1979 -2.68379 0
M  V30 11269 H 1088.38 -0.752538 -1.43912 0
M  V30 11270 H 1090.38 0.829022 -4.08574 0
M  V30 11271 H 1089.04 1.26201 -2.99171 0
M  V30 11272 H 1090.05 -1.96809 -4.79047 0
M  V30 11273 H 1086.73 0.529581 -4.14128 0
M  V30 11274 H 1088.12 -3.07173 -5.97574 0
M  V30 11275 N 1090.84 1.42931 -0.663954 0
M  V30 11276 C 1092.08 2.03557 -0.185479 0
M  V30 11277 C 1092.44 1.51309 1.18193 0
M  V30 11278 O 1093.64 2.03649 1.75444 0
M  V30 11279 C 1091.91 3.56802 -0.206705 0
M  V30 11280 S 1093.47 4.38333 0.202356 0
M  V30 11281 H 1090.29 0.706791 -0.0772523 0
M  V30 11282 H 1092.89 1.74841 -0.874688 0
M  V30 11283 H 1091.6 3.92328 -1.20445 0
M  V30 11284 H 1091.13 3.90175 0.502693 0
M  V30 11285 H 1093.14 4.7489 1.43853 0
M  V30 11286 N 1092.32 0.406567 1.52266 0
M  V30 11287 C 1093.56 -0.171391 2.00971 0
M  V30 11288 C 1093.88 -1.46443 1.29668 0
M  V30 11289 O 1095.08 -2.12348 1.69176 0
M  V30 11290 C 1093.54 -0.35599 3.58135 0
M  V30 11291 C 1093.15 0.924803 4.38351 0
M  V30 11292 C 1094.89 -0.889378 4.15079 0
M  V30 11293 C 1092.8 0.707534 5.87152 0
M  V30 11294 H 1091.73 -0.0678253 0.750943 0
M  V30 11295 H 1094.38 0.531619 1.7563 0
M  V30 11296 H 1092.76 -1.12127 3.79794 0
M  V30 11297 H 1093.94 1.69603 4.28452 0
M  V30 11298 H 1092.25 1.38442 3.92712 0
M  V30 11299 H 1094.85 -1.06792 5.23927 0
M  V30 11300 H 1095.19 -1.86334 3.7227 0
M  V30 11301 H 1095.72 -0.183224 3.97378 0
M  V30 11302 H 1092.46 1.65299 6.34316 0
M  V30 11303 H 1091.98 -0.024446 5.99795 0
M  V30 11304 H 1093.66 0.348721 6.4606 0
M  V30 11305 N 1093.79 -1.57004 0.136909 0
M  V30 11306 C 1095.02 -2.00587 -0.527209 0
M  V30 11307 C 1095.44 -1.01628 -1.58283 0
M  V30 11308 O 1094.8 0.00946934 -1.81298 0
M  V30 11309 C 1094.85 -3.42967 -1.11384 0
M  V30 11310 O 1093.95 -3.46973 -2.22898 0
M  V30 11311 H 1093.3 -0.651155 -0.129976 0
M  V30 11312 H 1095.83 -2.03296 0.230667 0
M  V30 11313 H 1095.84 -3.81555 -1.44499 0
M  V30 11314 H 1094.51 -4.14502 -0.340736 0
M  V30 11315 H 1093.09 -3.20219 -1.91087 0
M  V30 11316 N 1095.27 0.136881 -1.57004 0
M  V30 11317 C 1096.52 0.849031 -1.84172 0
M  V30 11318 C 1096.85 1.80359 -0.720027 0
M  V30 11319 O 1096.13 1.92538 0.275584 0
M  V30 11320 C 1096.41 1.61465 -3.21871 0
M  V30 11321 C 1096.26 0.680902 -4.44616 0
M  V30 11322 C 1097.58 2.57488 -3.56914 0
M  V30 11323 H 1094.7 0.307209 -0.669919 0
M  V30 11324 H 1097.34 0.113862 -1.89659 0
M  V30 11325 H 1095.49 2.24137 -3.17325 0
M  V30 11326 H 1097.16 0.0644094 -4.61255 0
M  V30 11327 H 1095.41 -0.00883629 -4.33799 0
M  V30 11328 H 1096.08 1.25286 -5.37594 0
M  V30 11329 H 1098.55 2.0493 -3.62136 0
M  V30 11330 H 1097.43 3.08101 -4.54274 0
M  V30 11331 H 1097.69 3.39321 -2.83397 0
M  V30 11332 N 1096.75 1.52266 0.40654 0
M  V30 11333 C 1097.98 1.70598 1.17945 0
M  V30 11334 C 1098.4 0.415793 1.83447 0
M  V30 11335 O 1097.76 -0.626968 1.70114 0
M  V30 11336 C 1097.81 2.84449 2.21633 0
M  V30 11337 O 1096.91 2.50199 3.27833 0
M  V30 11338 H 1096.25 0.567837 0.344177 0
M  V30 11339 H 1098.78 1.98981 0.476211 0
M  V30 11340 H 1098.79 3.09436 2.65919 0
M  V30 11341 H 1097.47 3.78055 1.73341 0
M  V30 11342 H 1096.04 2.35892 2.88807 0
M  V30 11343 N 1098.23 -0.663929 1.42933 0
M  V30 11344 C 1099.64 -1.24484 1.39143 0
M  V30 11345 C 1099.99 -1.95993 0.0901142 0
M  V30 11346 O 1099.12 -2.00636 -0.810812 0
M  V30 11347 C 1099.71 -2.26402 2.52047 0
M  V30 11348 C 1098.27 -2.79995 2.51555 0
M  V30 11349 C 1097.42 -1.54475 2.30289 0
M  V30 11350 H 1100.37 -0.456619 1.51989 0
M  V30 11351 H 1100.39 -3.08361 2.22921 0
M  V30 11352 H 1099.9 -1.74328 3.46744 0
M  V30 11353 H 1098 -3.36161 1.60707 0
M  V30 11354 H 1098.11 -3.2827 3.48964 0
M  V30 11355 H 1096.48 -1.81437 1.78753 0
M  V30 11356 H 1097.26 -1.04351 3.27056 0
M  V30 11357 N 1099.71 -1.29285 -0.901281 0
M  V30 11358 C 1100.96 -1.16538 -1.64626 0
M  V30 11359 C 1101.27 0.282623 -1.93547 0
M  V30 11360 O 1102.47 0.531396 -2.66249 0
M  V30 11361 C 1100.93 -2.03809 -2.96631 0
M  V30 11362 C 1100.54 -3.53423 -2.75311 0
M  V30 11363 C 1102.28 -1.99782 -3.7455 0
M  V30 11364 C 1100.19 -4.32804 -4.03032 0
M  V30 11365 H 1099.12 -0.432561 -0.617581 0
M  V30 11366 H 1101.77 -1.53912 -0.999159 0
M  V30 11367 H 1100.15 -1.59302 -3.62545 0
M  V30 11368 H 1101.33 -4.05971 -2.18 0
M  V30 11369 H 1099.64 -3.59106 -2.10789 0
M  V30 11370 H 1102.24 -2.5635 -4.69243 0
M  V30 11371 H 1102.58 -0.97743 -4.04663 0
M  V30 11372 H 1103.11 -2.42324 -3.15474 0
M  V30 11373 H 1099.85 -5.35473 -3.78086 0
M  V30 11374 H 1099.37 -3.85025 -4.59909 0
M  V30 11375 H 1101.05 -4.43383 -4.71191 0
M  V30 11376 N 1101.18 1.11143 -1.11736 0
M  V30 11377 C 1102.41 1.87285 -0.891007 0
M  V30 11378 C 1102.83 1.79758 0.553971 0
M  V30 11379 O 1102.19 1.16221 1.39149 0
M  V30 11380 C 1102.24 3.33924 -1.36114 0
M  V30 11381 O 1101.34 4.08917 -0.534851 0
M  V30 11382 H 1100.69 0.581418 -0.320701 0
M  V30 11383 H 1103.22 1.40469 -1.4876 0
M  V30 11384 H 1103.23 3.84772 -1.35701 0
M  V30 11385 H 1101.9 3.38719 -2.41334 0
M  V30 11386 H 1100.48 3.67954 -0.605355 0
M  V30 11387 N 1102.66 0.908147 1.28804 0
M  V30 11388 C 1103.57 0.397167 2.31214 0
M  V30 11389 C 1104.59 -0.512352 1.66286 0
M  V30 11390 O 1105.76 -0.399893 1.9739 0
M  V30 11391 C 1102.83 -0.359522 3.44831 0
M  V30 11392 C 1101.89 0.582539 4.25329 0
M  V30 11393 C 1101.12 -0.138133 5.33521 0
M  V30 11394 O 1101.35 -1.36076 5.53931 0
M  V30 11395 O 1100.28 0.523682 5.99618 0
M  V30 11396 H 1104.11 1.247 2.76918 0
M  V30 11397 H 1101.69 0.672766 1.33395 0
M  V30 11398 H 1103.57 -0.787098 4.13984 0
M  V30 11399 H 1102.25 -1.18528 3.01219 0
M  V30 11400 H 1101.16 1.0594 3.58786 0
M  V30 11401 H 1102.49 1.37495 4.72605 0
M  V30 11402 N 1104.14 -1.42577 0.671525 0
M  V30 11403 C 1105.05 -2.34598 -0.00898225 0
M  V30 11404 C 1106.07 -1.54909 -0.792407 0
M  V30 11405 O 1107.24 -1.87491 -0.735477 0
M  V30 11406 C 1104.31 -3.33405 -0.950888 0
M  V30 11407 C 1103.37 -4.28993 -0.16236 0
M  V30 11408 C 1102.6 -5.2308 -1.0594 0
M  V30 11409 O 1102.82 -5.22022 -2.2989 0
M  V30 11410 O 1101.76 -5.99632 -0.521966 0
M  V30 11411 H 1105.58 -2.94321 0.748927 0
M  V30 11412 H 1103.17 -1.43025 0.43175 0
M  V30 11413 H 1105.05 -3.94115 -1.49169 0
M  V30 11414 H 1103.73 -2.7616 -1.68871 0
M  V30 11415 H 1102.63 -3.71707 0.42247 0
M  V30 11416 H 1103.97 -4.8927 0.536274 0
M  V30 11417 N 1105.62 -0.414636 -1.52048 0
M  V30 11418 C 1106.55 0.443601 -2.24866 0
M  V30 11419 C 1107.56 1.00556 -1.28032 0
M  V30 11420 O 1108.75 0.903566 -1.53941 0
M  V30 11421 C 1105.85 1.63004 -2.97124 0
M  V30 11422 C 1105.03 1.191 -4.20873 0
M  V30 11423 C 1104.08 2.24497 -4.75907 0
M  V30 11424 O 1103.11 1.84861 -5.38345 0
M  V30 11425 N 1104.31 3.56727 -4.57959 0
M  V30 11426 H 1107.08 -0.180393 -2.99157 0
M  V30 11427 H 1104.64 -0.242305 -1.60077 0
M  V30 11428 H 1106.63 2.33089 -3.30835 0
M  V30 11429 H 1105.2 2.15984 -2.25986 0
M  V30 11430 H 1104.42 0.318059 -3.92915 0
M  V30 11431 H 1105.71 0.874699 -5.01225 0
M  V30 11432 H 1105.11 3.91675 -4.08175 0
M  V30 11433 H 1103.66 4.22772 -4.96092 0
M  V30 11434 N 1107.1 1.56929 -0.145233 0
M  V30 11435 C 1108.37 1.8767 0.551288 0
M  V30 11436 C 1108.75 1.05089 1.83083 0
M  V30 11437 O 1108.1 0.137201 2.28088 0
M  V30 11438 C 1108.31 3.39268 0.818445 0
M  V30 11439 C 1109.66 4.08447 1.16 0
M  V30 11440 O 1110.68 3.44436 0.907857 0
M  V30 11441 O 1109.54 5.21488 1.63441 0
M  V30 11442 H 1106.64 0.777788 0.281024 0
M  V30 11443 H 1109.18 1.68724 -0.181712 0
M  V30 11444 H 1107.95 3.91203 -0.0871897 0
M  V30 11445 H 1107.58 3.63735 1.60569 0
M  V30 11446 N 1108.58 -0.128553 1.57075 0
M  V30 11447 C 1109.52 -1.15812 1.9964 0
M  V30 11448 C 1110.49 -1.41679 0.86696 0
M  V30 11449 O 1111.68 -1.53705 1.13046 0
M  V30 11450 C 1108.82 -2.48198 2.39774 0
M  V30 11451 C 1107.93 -2.29348 3.66092 0
M  V30 11452 C 1107.07 -3.54898 3.95248 0
M  V30 11453 C 1106.1 -3.31164 5.14779 0
M  V30 11454 N 1105.24 -4.48891 5.39853 0
M  V30 11455 H 1110.08 -0.788136 2.87389 0
M  V30 11456 H 1107.62 -0.377682 1.42169 0
M  V30 11457 H 1109.58 -3.25414 2.61077 0
M  V30 11458 H 1108.21 -2.83108 1.5508 0
M  V30 11459 H 1107.26 -1.43095 3.5246 0
M  V30 11460 H 1108.57 -2.07781 4.53463 0
M  V30 11461 H 1107.72 -4.40536 4.17148 0
M  V30 11462 H 1106.46 -3.79487 3.06335 0
M  V30 11463 H 1105.47 -2.43915 4.92733 0
M  V30 11464 H 1106.69 -3.07954 6.05261 0
M  V30 11465 H 1104.64 -4.73619 4.53895 0
M  V30 11466 H 1104.56 -4.30394 6.21528 0
M  V30 11467 H 1105.82 -5.35691 5.66265 0
M  V30 11468 N 1110.05 -1.5248 -0.398459 0
M  V30 11469 C 1111 -1.76585 -1.48615 0
M  V30 11470 C 1111.97 -0.608677 -1.54546 0
M  V30 11471 O 1113.16 -0.847383 -1.7095 0
M  V30 11472 C 1110.3 -1.93201 -2.8595 0
M  V30 11473 C 1109.41 -3.20875 -2.89246 0
M  V30 11474 C 1108.54 -3.27862 -4.17947 0
M  V30 11475 C 1107.58 -4.49697 -4.15258 0
M  V30 11476 N 1106.72 -4.54017 -5.35549 0
M  V30 11477 H 1111.56 -2.69412 -1.27362 0
M  V30 11478 H 1109.1 -1.33487 -0.618031 0
M  V30 11479 H 1111.05 -2.00819 -3.65688 0
M  V30 11480 H 1109.68 -1.03743 -3.05675 0
M  V30 11481 H 1108.74 -3.22376 -2.01935 0
M  V30 11482 H 1110.05 -4.1066 -2.83125 0
M  V30 11483 H 1109.2 -3.34611 -5.06083 0
M  V30 11484 H 1107.94 -2.36035 -4.26777 0
M  V30 11485 H 1106.95 -4.43083 -3.25511 0
M  V30 11486 H 1108.17 -5.42831 -4.08059 0
M  V30 11487 H 1106.12 -3.65078 -5.45027 0
M  V30 11488 H 1106.03 -5.37661 -5.31466 0
M  V30 11489 H 1107.3 -4.65009 -6.25609 0
M  V30 11490 N 1111.53 0.65634 -1.43283 0
M  V30 11491 C 1112.76 1.44408 -1.48168 0
M  V30 11492 C 1113.17 1.88542 -0.0986016 0
M  V30 11493 O 1112.53 1.59298 0.890527 0
M  V30 11494 C 1112.58 2.68111 -2.42484 0
M  V30 11495 O 1112.3 2.25824 -3.75413 0
M  V30 11496 C 1113.8 3.61499 -2.56579 0
M  V30 11497 H 1111.02 0.443731 -0.503333 0
M  V30 11498 H 1113.57 0.804917 -1.87993 0
M  V30 11499 H 1111.72 3.28175 -2.05863 0
M  V30 11500 H 1112.14 3.05839 -4.26102 0
M  V30 11501 H 1113.61 4.44972 -3.26655 0
M  V30 11502 H 1114.09 4.08639 -1.60969 0
M  V30 11503 H 1114.69 3.07319 -2.93998 0
M  V30 11504 N 1113.01 1.29761 0.894412 0
M  V30 11505 C 1113.92 1.1724 2.03204 0
M  V30 11506 C 1114.94 0.0944452 1.73743 0
M  V30 11507 O 1116.11 0.307549 1.99038 0
M  V30 11508 C 1113.18 0.855416 3.35981 0
M  V30 11509 C 1112.24 2.01777 3.78926 0
M  V30 11510 C 1111.47 1.71581 5.05367 0
M  V30 11511 O 1111.69 0.639245 5.66807 0
M  V30 11512 O 1110.63 2.56539 5.44492 0
M  V30 11513 H 1114.45 2.12787 2.16692 0
M  V30 11514 H 1112.04 1.09264 1.0189 0
M  V30 11515 H 1113.92 0.693429 4.15656 0
M  V30 11516 H 1112.6 -0.0702195 3.23624 0
M  V30 11517 H 1111.5 2.23502 2.99996 0
M  V30 11518 H 1112.84 2.92479 3.95875 0
M  V30 11519 N 1114.49 -1.10549 1.12324 0
M  V30 11520 C 1115.4 -2.20428 0.803032 0
M  V30 11521 C 1116.41 -1.72756 -0.207674 0
M  V30 11522 O 1117.59 -2.01357 -0.0415623 0
M  V30 11523 C 1114.65 -3.45716 0.261032 0
M  V30 11524 C 1113.72 -4.08129 1.33152 0
M  V30 11525 C 1112.95 -5.27436 0.815288 0
M  V30 11526 O 1113.17 -5.69317 -0.351361 0
M  V30 11527 O 1112.11 -5.80674 1.58434 0
M  V30 11528 H 1115.93 -2.50249 1.72073 0
M  V30 11529 H 1113.52 -1.19263 0.899815 0
M  V30 11530 H 1115.4 -4.21384 -0.0364007 0
M  V30 11531 H 1114.07 -3.17525 -0.629249 0
M  V30 11532 H 1112.98 -3.3415 1.6821 0
M  V30 11533 H 1114.31 -4.4052 2.19552 0
M  V30 11534 N 1115.97 -0.914965 -1.28321 0
M  V30 11535 C 1116.91 -0.402792 -2.27258 0
M  V30 11536 C 1117.88 0.523412 -1.57638 0
M  V30 11537 O 1119.07 0.445344 -1.8553 0
M  V30 11538 C 1116.21 0.349956 -3.43321 0
M  V30 11539 C 1115.32 -0.608892 -4.27687 0
M  V30 11540 C 1114.46 0.162425 -5.30952 0
M  V30 11541 C 1113.49 -0.789959 -6.06981 0
M  V30 11542 N 1112.63 -0.0520826 -7.02081 0
M  V30 11543 H 1117.47 -1.25153 -2.70446 0
M  V30 11544 H 1115.01 -0.628444 -1.33 0
M  V30 11545 H 1116.97 0.802589 -4.09407 0
M  V30 11546 H 1115.6 1.16303 -3.01121 0
M  V30 11547 H 1114.65 -1.18005 -3.61634 0
M  V30 11548 H 1115.96 -1.33727 -4.8054 0
M  V30 11549 H 1115.11 0.675563 -6.02927 0
M  V30 11550 H 1113.85 0.923851 -4.7887 0
M  V30 11551 H 1112.86 -1.31446 -5.33856 0
M  V30 11552 H 1114.08 -1.55096 -6.61152 0
M  V30 11553 H 1112.03 0.691331 -6.52347 0
M  V30 11554 H 1111.95 -0.720267 -7.52561 0
M  V30 11555 H 1113.21 0.44082 -7.78253 0
M  V30 11556 N 1117.44 1.42219 -0.679077 0
M  V30 11557 C 1118.69 2.01777 -0.20342 0
M  V30 11558 C 1119.02 1.53592 1.18841 0
M  V30 11559 O 1118.3 0.739954 1.79875 0
M  V30 11560 C 1118.58 3.59281 -0.242791 0
M  V30 11561 C 1118.43 4.17634 -1.67038 0
M  V30 11562 C 1119.75 4.38218 0.406624 0
M  V30 11563 H 1116.87 0.733134 -0.0753916 0
M  V30 11564 H 1119.51 1.69185 -0.864673 0
M  V30 11565 H 1117.66 3.87178 0.320248 0
M  V30 11566 H 1119.34 4.00674 -2.286 0
M  V30 11567 H 1117.58 3.73301 -2.20973 0
M  V30 11568 H 1118.25 5.26776 -1.64958 0
M  V30 11569 H 1120.73 4.16036 -0.0727077 0
M  V30 11570 H 1119.6 5.47793 0.348457 0
M  V30 11571 H 1119.86 4.16418 1.48487 0
M  V30 11572 N 1118.92 0.422693 1.51826 0
M  V30 11573 C 1120.15 -0.15017 2.06856 0
M  V30 11574 C 1120.57 -1.36946 1.28948 0
M  V30 11575 O 1119.93 -1.78393 0.32338 0
M  V30 11576 C 1119.98 -0.465563 3.57582 0
M  V30 11577 O 1119.08 -1.55442 3.81984 0
M  V30 11578 H 1118.42 -0.00827931 0.663948 0
M  V30 11579 H 1120.95 0.599806 1.95611 0
M  V30 11580 H 1120.96 -0.720279 4.01592 0
M  V30 11581 H 1119.64 0.425679 4.13716 0
M  V30 11582 H 1118.21 -1.29081 3.49846 0
M  V30 11583 N 1120.4 -1.5685 0.153553 0
M  V30 11584 C 1121.33 -2.20101 -0.779601 0
M  V30 11585 C 1122.31 -1.15121 -1.25225 0
M  V30 11586 O 1123.5 -1.43487 -1.30862 0
M  V30 11587 C 1120.63 -2.82778 -2.01628 0
M  V30 11588 C 1119.58 -3.93643 -1.68015 0
M  V30 11589 C 1118.91 -4.43286 -2.99001 0
M  V30 11590 C 1120.21 -5.14102 -0.921774 0
M  V30 11591 H 1121.9 -2.98334 -0.252432 0
M  V30 11592 H 1119.45 -1.43499 -0.119975 0
M  V30 11593 H 1121.4 -3.25696 -2.67395 0
M  V30 11594 H 1120.12 -2.01887 -2.56728 0
M  V30 11595 H 1118.78 -3.51354 -1.04624 0
M  V30 11596 H 1118.43 -3.59208 -3.52106 0
M  V30 11597 H 1118.13 -5.18068 -2.77272 0
M  V30 11598 H 1119.65 -4.88878 -3.65828 0
M  V30 11599 H 1121.07 -5.53823 -1.48167 0
M  V30 11600 H 1119.46 -5.94687 -0.804185 0
M  V30 11601 H 1120.53 -4.84825 0.0852757 0
M  V30 11602 N 1121.88 0.120221 -1.57141 0
M  V30 11603 C 1123.29 0.473718 -1.52408 0
M  V30 11604 C 1123.49 1.81925 -0.866354 0
M  V30 11605 O 1122.55 2.48491 -0.448173 0
M  V30 11606 C 1123.86 0.459338 -2.97171 0
M  V30 11607 C 1125.41 0.542975 -3.08254 0
M  V30 11608 C 1125.89 0.558996 -4.54576 0
M  V30 11609 N 1127.38 0.620469 -4.59026 0
M  V30 11610 C 1128.11 0.654292 -5.69655 0
M  V30 11611 N 1127.61 0.645835 -6.89783 0
M  V30 11612 N 1129.4 0.697208 -5.57759 0
M  V30 11613 H 1121.55 -0.76142 -1.98283 0
M  V30 11614 H 1123.81 -0.280736 -0.905479 0
M  V30 11615 H 1123.52 -0.461654 -3.48657 0
M  V30 11616 H 1123.39 1.28759 -3.54543 0
M  V30 11617 H 1125.78 1.45439 -2.56772 0
M  V30 11618 H 1125.86 -0.312936 -2.53879 0
M  V30 11619 H 1125.51 -0.348367 -5.06704 0
M  V30 11620 H 1125.44 1.43177 -5.06762 0
M  V30 11621 H 1127.93 0.633218 -3.72557 0
M  V30 11622 H 1128.24 0.674233 -7.69853 0
M  V30 11623 H 1126.59 0.613279 -6.92289 0
M  V30 11624 H 1129.78 0.70117 -4.62819 0
M  V30 11625 H 1129.95 0.7201 -6.43986 0
M  V30 11626 N 1123.36 1.52689 0.390367 0
M  V30 11627 C 1124.6 1.67335 1.13329 0
M  V30 11628 C 1124.93 0.415068 1.90531 0
M  V30 11629 O 1124.2 -0.570504 1.87409 0
M  V30 11630 H 1122.78 0.616821 0.421356 0
M  V30 11631 H 1125.44 1.89799 0.443 0
M  V30 11632 H 1124.53 2.52314 1.83696 0
M  V30 11633 N 1124.83 -0.648732 1.43629 0
M  V30 11634 C 1125.78 -1.76145 1.49136 0
M  V30 11635 C 1126.75 -1.62569 0.340649 0
M  V30 11636 O 1127.94 -1.82748 0.548435 0
M  V30 11637 C 1125.08 -3.14321 1.42466 0
M  V30 11638 C 1124.19 -3.38999 2.67776 0
M  V30 11639 C 1123.32 -4.67047 2.53062 0
M  V30 11640 C 1122.36 -4.84845 3.7362 0
M  V30 11641 N 1121.5 -6.04155 3.57689 0
M  V30 11642 H 1126.34 -1.70774 2.44213 0
M  V30 11643 H 1123.88 -0.833311 1.2122 0
M  V30 11644 H 1125.84 -3.94206 1.36592 0
M  V30 11645 H 1124.47 -3.18751 0.509666 0
M  V30 11646 H 1123.52 -2.53179 2.83909 0
M  V30 11647 H 1124.83 -3.48035 3.57314 0
M  V30 11648 H 1123.98 -5.55066 2.44922 0
M  V30 11649 H 1122.72 -4.60339 1.61056 0
M  V30 11650 H 1121.73 -3.95261 3.82163 0
M  V30 11651 H 1122.95 -4.9338 4.6664 0
M  V30 11652 H 1120.9 -5.9857 2.6842 0
M  V30 11653 H 1120.82 -6.14169 4.40832 0
M  V30 11654 H 1122.08 -6.94782 3.53409 0
M  V30 11655 N 1126.31 -1.30234 -0.887518 0
M  V30 11656 C 1127.73 -1.0851 -1.17037 0
M  V30 11657 C 1127.93 0.155788 -2.00897 0
M  V30 11658 O 1126.98 0.850123 -2.37759 0
M  V30 11659 C 1128.3 -2.34723 -1.87951 0
M  V30 11660 C 1129.85 -2.40163 -2.00726 0
M  V30 11661 C 1130.32 -3.66211 -2.75051 0
M  V30 11662 N 1131.81 -3.67004 -2.82599 0
M  V30 11663 C 1132.55 -4.61224 -3.40676 0
M  V30 11664 N 1132.04 -5.65786 -3.99823 0
M  V30 11665 N 1133.84 -4.48772 -3.38467 0
M  V30 11666 H 1125.99 -2.09847 -0.328297 0
M  V30 11667 H 1128.25 -0.924904 -0.20798 0
M  V30 11668 H 1127.96 -3.25265 -1.33773 0
M  V30 11669 H 1127.83 -2.43175 -2.8835 0
M  V30 11670 H 1130.22 -1.50101 -2.54074 0
M  V30 11671 H 1130.3 -2.35688 -0.994218 0
M  V30 11672 H 1129.94 -4.56631 -2.22376 0
M  V30 11673 H 1129.87 -3.67947 -3.76726 0
M  V30 11674 H 1132.36 -2.91409 -2.40602 0
M  V30 11675 H 1132.68 -6.33783 -4.42197 0
M  V30 11676 H 1131.02 -5.69581 -3.9825 0
M  V30 11677 H 1134.21 -3.6627 -2.91485 0
M  V30 11678 H 1134.38 -5.22382 -3.83433 0
M  V30 11679 N 1127.79 1.09952 -1.12909 0
M  V30 11680 C 1129.04 1.81386 -0.882163 0
M  V30 11681 C 1129.35 1.86376 0.593592 0
M  V30 11682 O 1130.56 2.54064 0.957275 0
M  V30 11683 C 1129.01 3.25824 -1.52861 0
M  V30 11684 C 1128.62 3.29117 -3.0395 0
M  V30 11685 C 1130.37 4.02051 -1.36216 0
M  V30 11686 C 1128.27 4.68047 -3.61505 0
M  V30 11687 H 1127.2 0.679701 -0.326378 0
M  V30 11688 H 1129.85 1.23614 -1.35616 0
M  V30 11689 H 1128.24 3.83624 -0.982271 0
M  V30 11690 H 1129.41 2.81114 -3.65119 0
M  V30 11691 H 1127.73 2.66379 -3.20049 0
M  V30 11692 H 1130.32 5.04683 -1.76633 0
M  V30 11693 H 1130.67 4.15171 -0.306391 0
M  V30 11694 H 1131.2 3.5068 -1.87799 0
M  V30 11695 H 1127.94 4.60128 -4.66865 0
M  V30 11696 H 1127.46 5.16397 -3.05114 0
M  V30 11697 H 1129.14 5.37018 -3.6086 0
M  V30 11698 N 1129.27 0.921757 1.27833 0
M  V30 11699 C 1130.23 0.420978 2.25301 0
M  V30 11700 C 1131.23 -0.457158 1.54165 0
M  V30 11701 O 1132.42 -0.259079 1.72263 0
M  V30 11702 C 1129.55 -0.395501 3.38598 0
M  V30 11703 H 1130.75 1.28206 2.71115 0
M  V30 11704 H 1128.3 0.701893 1.39654 0
M  V30 11705 H 1129.03 -1.27565 2.98157 0
M  V30 11706 H 1128.82 0.234029 3.91401 0
M  V30 11707 H 1130.31 -0.736444 4.11055 0
M  V30 11708 N 1130.75 -1.41857 0.686609 0
M  V30 11709 C 1131.66 -2.34595 0.0159005 0
M  V30 11710 C 1132.67 -1.55741 -0.775933 0
M  V30 11711 O 1133.85 -1.8826 -0.71555 0
M  V30 11712 C 1130.91 -3.34395 -0.915473 0
M  V30 11713 C 1129.97 -4.29141 -0.116851 0
M  V30 11714 C 1129.21 -5.24174 -1.00386 0
M  V30 11715 O 1129.43 -5.24431 -2.2434 0
M  V30 11716 O 1128.36 -6.00152 -0.458337 0
M  V30 11717 H 1132.19 -2.9351 0.780101 0
M  V30 11718 H 1129.78 -1.42559 0.446896 0
M  V30 11719 H 1131.66 -3.95675 -1.44981 0
M  V30 11720 H 1130.33 -2.77936 -1.65932 0
M  V30 11721 H 1129.24 -3.71238 0.461871 0
M  V30 11722 H 1130.57 -4.88673 0.588138 0
M  V30 11723 N 1132.22 -0.430739 -1.51599 0
M  V30 11724 C 1133.45 0.136599 -2.06148 0
M  V30 11725 C 1133.86 1.37577 -1.29881 0
M  V30 11726 O 1133.21 1.80337 -0.349875 0
M  V30 11727 C 1133.27 0.53071 -3.55561 0
M  V30 11728 C 1132.93 -0.600738 -4.53034 0
M  V30 11729 C 1133.93 -1.47089 -4.98659 0
M  V30 11730 C 1131.61 -0.77959 -4.96213 0
M  V30 11731 C 1133.61 -2.50464 -5.86128 0
M  V30 11732 C 1131.29 -1.81663 -5.83474 0
M  V30 11733 C 1132.29 -2.67755 -6.28328 0
M  V30 11734 O 1131.98 -3.69679 -7.13858 0
M  V30 11735 H 1131.71 0.0143071 -0.675849 0
M  V30 11736 H 1134.27 -0.606673 -1.96236 0
M  V30 11737 H 1132.5 1.32659 -3.63233 0
M  V30 11738 H 1134.19 1.02844 -3.92655 0
M  V30 11739 H 1134.95 -1.34421 -4.66 0
M  V30 11740 H 1130.83 -0.119082 -4.60846 0
M  V30 11741 H 1134.37 -3.17695 -6.2106 0
M  V30 11742 H 1130.27 -1.94353 -6.15546 0
M  V30 11743 H 1131.04 -3.66181 -7.3202 0
M  V30 11744 N 1133.7 1.56767 -0.161869 0
M  V30 11745 C 1134.93 2.01401 0.49523 0
M  V30 11746 C 1135.35 1.04133 1.56646 0
M  V30 11747 O 1134.71 0.0193747 1.8129 0
M  V30 11748 C 1134.76 3.44695 1.05913 0
M  V30 11749 O 1133.86 3.50475 2.1735 0
M  V30 11750 H 1133.2 0.65314 0.1196 0
M  V30 11751 H 1135.73 2.02903 -0.26298 0
M  V30 11752 H 1135.74 3.83805 1.3841 0
M  V30 11753 H 1134.42 4.14991 0.274749 0
M  V30 11754 H 1133 3.23218 1.85969 0
M  V30 11755 N 1135.18 -0.111886 1.57202 0
M  V30 11756 C 1136.41 -0.8312 1.89142 0
M  V30 11757 C 1136.82 -1.73614 0.751987 0
M  V30 11758 O 1136.16 -1.81462 -0.285877 0
M  V30 11759 C 1136.22 -1.71107 3.16169 0
M  V30 11760 C 1135.89 -0.9797 4.46375 0
M  V30 11761 C 1136.88 -0.317219 5.18931 0
M  V30 11762 C 1134.57 -0.958764 4.93065 0
M  V30 11763 C 1136.56 0.356419 6.36403 0
M  V30 11764 C 1134.25 -0.281332 6.10452 0
M  V30 11765 C 1135.25 0.375098 6.81969 0
M  V30 11766 O 1134.94 1.0417 7.97122 0
M  V30 11767 H 1134.67 -0.243855 0.630484 0
M  V30 11768 H 1137.22 -0.0986634 2.05163 0
M  V30 11769 H 1135.45 -2.48543 2.96249 0
M  V30 11770 H 1137.14 -2.30544 3.34072 0
M  V30 11771 H 1137.91 -0.324965 4.8391 0
M  V30 11772 H 1133.79 -1.45913 4.37299 0
M  V30 11773 H 1137.33 0.869362 6.92162 0
M  V30 11774 H 1133.23 -0.271374 6.44929 0
M  V30 11775 H 1134 0.946899 8.13004 0
M  V30 11776 N 1136.66 -1.52894 -0.382264 0
M  V30 11777 C 1137.91 -1.67933 -1.1244 0
M  V30 11778 C 1138.23 -0.425166 -1.90309 0
M  V30 11779 O 1137.5 0.560557 -1.87709 0
M  V30 11780 H 1136.08 -0.619047 -0.418079 0
M  V30 11781 H 1138.74 -1.90031 -0.432928 0
M  V30 11782 H 1137.84 -2.53285 -1.82355 0
M  V30 11783 N 1138.14 0.641106 -1.43971 0
M  V30 11784 C 1139.09 1.74699 -1.46507 0
M  V30 11785 C 1140.07 1.57437 -0.332037 0
M  V30 11786 O 1141.26 1.67343 -0.576663 0
M  V30 11787 C 1138.39 3.13344 -1.40252 0
M  V30 11788 C 1137.48 3.3611 -2.58632 0
M  V30 11789 N 1137.87 3.29291 -3.83929 0
M  V30 11790 C 1136.17 3.66873 -2.53615 0
M  V30 11791 C 1136.87 3.52472 -4.62751 0
M  V30 11792 N 1135.84 3.74868 -3.93668 0
M  V30 11793 H 1139.65 1.67869 -2.41241 0
M  V30 11794 H 1137.16 0.843217 -1.38793 0
M  V30 11795 H 1139.16 3.92636 -1.40153 0
M  V30 11796 H 1137.82 3.21346 -0.46549 0
M  V30 11797 H 1138.83 3.08431 -4.16041 0
M  V30 11798 H 1135.51 3.81917 -1.68659 0
M  V30 11799 H 1136.9 3.52876 -5.71776 0
M  V30 11800 N 1139.62 1.30703 0.880598 0
M  V30 11801 C 1140.55 1.1327 1.99255 0
M  V30 11802 C 1141.56 0.0747186 1.62628 0
M  V30 11803 O 1142.75 0.321169 1.75587 0
M  V30 11804 C 1139.85 0.706179 3.31461 0
M  V30 11805 C 1139.02 1.84687 3.96497 0
M  V30 11806 C 1138.08 1.40817 5.07008 0
M  V30 11807 O 1137.11 2.1161 5.28403 0
M  V30 11808 N 1138.31 0.289619 5.79777 0
M  V30 11809 H 1141.07 2.09043 2.14759 0
M  V30 11810 H 1138.64 1.22896 1.05395 0
M  V30 11811 H 1140.63 0.395617 4.02762 0
M  V30 11812 H 1139.2 -0.159631 3.12192 0
M  V30 11813 H 1138.42 2.32531 3.18312 0
M  V30 11814 H 1139.71 2.61117 4.36687 0
M  V30 11815 H 1139.1 -0.300177 5.64903 0
M  V30 11816 H 1137.66 0.0385346 6.51789 0
M  V30 11817 N 1141.09 -1.09351 1.1349 0
M  V30 11818 C 1142.04 -2.16008 0.812981 0
M  V30 11819 C 1143.01 -1.64566 -0.225252 0
M  V30 11820 O 1144.2 -1.90552 -0.0973261 0
M  V30 11821 C 1141.34 -3.43913 0.285996 0
M  V30 11822 C 1140.45 -4.09251 1.38338 0
M  V30 11823 C 1139.58 -5.24916 0.814652 0
M  V30 11824 C 1138.62 -5.82178 1.89038 0
M  V30 11825 N 1137.76 -6.89203 1.33955 0
M  V30 11826 H 1142.6 -2.42887 1.72655 0
M  V30 11827 H 1140.14 -1.19209 0.861833 0
M  V30 11828 H 1142.09 -4.17183 -0.0376794 0
M  V30 11829 H 1140.72 -3.17349 -0.590707 0
M  V30 11830 H 1139.78 -3.33838 1.82363 0
M  V30 11831 H 1141.09 -4.4784 2.19638 0
M  V30 11832 H 1140.24 -6.05086 0.442306 0
M  V30 11833 H 1138.98 -4.87691 -0.029416 0
M  V30 11834 H 1137.99 -5.00669 2.27179 0
M  V30 11835 H 1139.21 -6.21464 2.73787 0
M  V30 11836 H 1137.16 -6.53956 0.517494 0
M  V30 11837 H 1137.07 -7.26565 2.08902 0
M  V30 11838 H 1138.34 -7.73126 0.994793 0
M  V30 11839 N 1142.57 -0.928524 -1.27343 0
M  V30 11840 C 1143.52 -0.426873 -2.26818 0
M  V30 11841 C 1144.49 0.506663 -1.58184 0
M  V30 11842 O 1145.67 0.425641 -1.85992 0
M  V30 11843 C 1142.81 0.313523 -3.43673 0
M  V30 11844 C 1141.93 -0.65422 -4.27018 0
M  V30 11845 C 1141.06 0.106102 -5.31094 0
M  V30 11846 C 1140.1 -0.854293 -6.06109 0
M  V30 11847 N 1139.24 -0.126545 -7.01986 0
M  V30 11848 H 1144.08 -1.28014 -2.69103 0
M  V30 11849 H 1141.61 -0.642515 -1.32326 0
M  V30 11850 H 1143.57 0.75912 -4.10236 0
M  V30 11851 H 1142.2 1.13102 -3.02337 0
M  V30 11852 H 1141.25 -1.21834 -3.60362 0
M  V30 11853 H 1142.57 -1.38817 -4.79094 0
M  V30 11854 H 1141.72 0.611577 -6.0361 0
M  V30 11855 H 1140.46 0.873009 -4.79823 0
M  V30 11856 H 1139.46 -1.37101 -5.32432 0
M  V30 11857 H 1140.69 -1.621 -6.5947 0
M  V30 11858 H 1138.64 0.622102 -6.53044 0
M  V30 11859 H 1138.55 -0.800046 -7.51755 0
M  V30 11860 H 1139.82 0.358251 -7.78676 0
M  V30 11861 N 1144.05 1.41491 -0.694123 0
M  V30 11862 C 1145.27 2.06099 -0.23197 0
M  V30 11863 C 1145.7 1.51888 1.10958 0
M  V30 11864 O 1145.06 0.645247 1.69429 0
M  V30 11865 C 1145.11 3.60053 -0.198522 0
M  V30 11866 O 1144.21 4.04021 0.827067 0
M  V30 11867 H 1143.55 0.654193 -0.113699 0
M  V30 11868 H 1146.08 1.81282 -0.948575 0
M  V30 11869 H 1146.09 4.0799 -0.0288904 0
M  V30 11870 H 1144.77 3.98879 -1.17764 0
M  V30 11871 H 1143.34 3.67593 0.626908 0
M  V30 11872 N 1145.53 0.438773 1.51369 0
M  V30 11873 C 1146.75 -0.128221 2.07003 0
M  V30 11874 C 1147.18 -1.3557 1.30393 0
M  V30 11875 O 1146.54 -1.7804 0.342283 0
M  V30 11876 C 1146.58 -0.42761 3.58056 0
M  V30 11877 O 1145.69 -1.51382 3.83611 0
M  V30 11878 H 1145.03 -0.00123679 0.663999 0
M  V30 11879 H 1147.56 0.62052 1.94963 0
M  V30 11880 H 1147.57 -0.677645 4.02333 0
M  V30 11881 H 1146.24 0.469535 4.13241 0
M  V30 11882 H 1144.82 -1.25363 3.51196 0
M  V30 11883 N 1147.01 -1.56678 0.170181 0
M  V30 11884 C 1147.95 -2.17909 -0.760556 0
M  V30 11885 C 1148.92 -1.11875 -1.22773 0
M  V30 11886 O 1150.11 -1.40021 -1.2961 0
M  V30 11887 C 1147.25 -2.82305 -1.9849 0
M  V30 11888 C 1146.36 -4.02796 -1.5614 0
M  V30 11889 C 1145.5 -4.55121 -2.73932 0
M  V30 11890 C 1144.53 -5.68025 -2.28067 0
M  V30 11891 N 1143.67 -6.14865 -3.38947 0
M  V30 11892 H 1148.51 -2.97098 -0.231629 0
M  V30 11893 H 1146.05 -1.46742 -0.102602 0
M  V30 11894 H 1148.01 -3.17797 -2.70298 0
M  V30 11895 H 1146.64 -2.05721 -2.48755 0
M  V30 11896 H 1145.69 -3.73131 -0.740097 0
M  V30 11897 H 1147 -4.84526 -1.18472 0
M  V30 11898 H 1146.15 -4.92789 -3.53898 0
M  V30 11899 H 1144.89 -3.72445 -3.14858 0
M  V30 11900 H 1143.9 -5.2991 -1.46546 0
M  V30 11901 H 1145.12 -6.52501 -1.88199 0
M  V30 11902 H 1143.07 -5.35119 -3.79452 0
M  V30 11903 H 1142.99 -6.91582 -3.05369 0
M  V30 11904 H 1144.25 -6.57183 -4.19203 0
M  V30 11905 N 1148.48 0.103547 -1.57259 0
M  V30 11906 C 1149.43 1.12621 -2.01458 0
M  V30 11907 C 1150.4 1.40282 -0.889391 0
M  V30 11908 O 1151.59 1.51887 -1.15477 0
M  V30 11909 C 1148.73 2.44352 -2.43692 0
M  V30 11910 C 1147.84 2.23495 -3.69695 0
M  V30 11911 C 1146.97 3.48565 -4.00844 0
M  V30 11912 C 1146.01 3.22932 -5.19982 0
M  V30 11913 N 1145.15 4.40246 -5.46926 0
M  V30 11914 H 1149.99 0.742315 -2.88606 0
M  V30 11915 H 1147.53 0.355016 -1.42752 0
M  V30 11916 H 1149.48 3.2122 -2.66221 0
M  V30 11917 H 1148.11 2.80605 -1.59565 0
M  V30 11918 H 1147.17 1.3747 -3.54692 0
M  V30 11919 H 1148.48 2.0054 -4.56711 0
M  V30 11920 H 1147.63 4.33844 -4.24104 0
M  V30 11921 H 1146.37 3.74565 -3.12333 0
M  V30 11922 H 1145.38 2.36045 -4.96551 0
M  V30 11923 H 1146.6 2.98286 -6.10084 0
M  V30 11924 H 1144.55 4.66338 -4.61373 0
M  V30 11925 H 1144.46 4.20452 -6.28296 0
M  V30 11926 H 1145.73 5.26614 -5.74716 0
M  V30 11927 N 1149.96 1.53094 0.37415 0
M  V30 11928 C 1150.91 1.78927 1.45787 0
M  V30 11929 C 1151.88 0.633187 1.53558 0
M  V30 11930 O 1153.06 0.874472 1.69581 0
M  V30 11931 C 1150.2 1.97726 2.8284 0
M  V30 11932 C 1149.32 3.25436 2.84104 0
M  V30 11933 C 1148.45 3.3447 4.12678 0
M  V30 11934 C 1147.49 4.56246 4.08051 0
M  V30 11935 N 1146.63 4.6248 5.28258 0
M  V30 11936 H 1151.47 2.71404 1.2306 0
M  V30 11937 H 1149 1.34453 0.596716 0
M  V30 11938 H 1150.96 2.06611 3.62447 0
M  V30 11939 H 1149.59 1.08593 3.03986 0
M  V30 11940 H 1148.64 3.25548 1.96781 0
M  V30 11941 H 1149.96 4.15112 2.76556 0
M  V30 11942 H 1149.11 3.4262 5.00696 0
M  V30 11943 H 1147.85 2.42795 4.22968 0
M  V30 11944 H 1146.85 4.48206 3.1842 0
M  V30 11945 H 1148.08 5.49254 3.99371 0
M  V30 11946 H 1146.03 3.73703 5.3915 0
M  V30 11947 H 1145.94 5.46049 5.22845 0
M  V30 11948 H 1147.21 4.74903 6.18132 0
M  V30 11949 N 1151.44 -0.633461 1.44309 0
M  V30 11950 C 1152.39 -1.74554 1.50995 0
M  V30 11951 C 1153.36 -1.62199 0.357873 0
M  V30 11952 O 1154.54 -1.82156 0.567787 0
M  V30 11953 C 1151.68 -3.12792 1.45791 0
M  V30 11954 C 1150.79 -3.3614 2.71356 0
M  V30 11955 C 1149.93 -4.64337 2.58002 0
M  V30 11956 C 1148.97 -4.80855 3.78741 0
M  V30 11957 N 1148.11 -6.00327 3.64077 0
M  V30 11958 H 1152.95 -1.68174 2.46011 0
M  V30 11959 H 1150.48 -0.820407 1.22097 0
M  V30 11960 H 1152.44 -3.92735 1.40765 0
M  V30 11961 H 1151.07 -3.18193 0.543445 0
M  V30 11962 H 1150.12 -2.50154 2.86579 0
M  V30 11963 H 1151.43 -3.44226 3.60985 0
M  V30 11964 H 1150.59 -5.52437 2.50795 0
M  V30 11965 H 1149.33 -4.58605 1.65929 0
M  V30 11966 H 1148.33 -3.91185 3.86334 0
M  V30 11967 H 1149.56 -4.88403 4.71847 0
M  V30 11968 H 1147.5 -5.9569 2.74754 0
M  V30 11969 H 1147.42 -6.09459 4.47321 0
M  V30 11970 H 1148.69 -6.90995 3.60758 0
M  V30 11971 N 1152.92 -1.31168 -0.873655 0
M  V30 11972 C 1154.17 -1.20003 -1.62118 0
M  V30 11973 C 1154.48 0.241505 -1.94103 0
M  V30 11974 O 1155.69 0.474801 -2.67316 0
M  V30 11975 C 1154.14 -2.10055 -2.92241 0
M  V30 11976 C 1153.75 -3.59183 -2.67752 0
M  V30 11977 C 1155.49 -2.07681 -3.70228 0
M  V30 11978 C 1153.4 -4.41255 -3.93761 0
M  V30 11979 H 1152.33 -0.445564 -0.608267 0
M  V30 11980 H 1154.98 -1.55997 -0.966287 0
M  V30 11981 H 1153.36 -1.66956 -3.59085 0
M  V30 11982 H 1154.54 -4.10504 -2.09339 0
M  V30 11983 H 1152.85 -3.63496 -2.03125 0
M  V30 11984 H 1155.45 -2.66246 -4.637 0
M  V30 11985 H 1155.79 -1.06304 -4.02499 0
M  V30 11986 H 1156.33 -2.48961 -3.10263 0
M  V30 11987 H 1153.07 -5.43372 -3.66643 0
M  V30 11988 H 1152.59 -3.94694 -4.51638 0
M  V30 11989 H 1154.26 -4.53278 -4.6168 0
M  V30 11990 N 1154.4 1.08748 -1.14068 0
M  V30 11991 C 1155.62 1.85353 -0.930532 0
M  V30 11992 C 1156.05 1.80892 0.515717 0
M  V30 11993 O 1155.4 1.19146 1.36652 0
M  V30 11994 C 1155.45 3.30962 -1.43167 0
M  V30 11995 O 1154.56 4.0769 -0.621468 0
M  V30 11996 H 1153.9 0.574485 -0.332962 0
M  V30 11997 H 1156.43 1.37282 -1.51707 0
M  V30 11998 H 1156.44 3.81807 -1.43832 0
M  V30 11999 H 1155.11 3.33524 -2.48464 0
M  V30 12000 H 1153.69 3.66587 -0.683267 0
M  V30 12001 N 1155.87 0.935264 1.26849 0
M  V30 12002 C 1156.82 0.438896 2.26588 0
M  V30 12003 C 1157.79 -0.498267 1.5845 0
M  V30 12004 O 1158.98 -0.415771 1.86215 0
M  V30 12005 C 1156.12 -0.295293 3.43834 0
M  V30 12006 C 1155.23 0.676857 4.26665 0
M  V30 12007 C 1154.36 -0.0779349 5.31143 0
M  V30 12008 C 1153.4 0.886425 6.05648 0
M  V30 12009 N 1152.54 0.163771 7.01909 0
M  V30 12010 H 1157.38 1.29439 2.6842 0
M  V30 12011 H 1154.92 0.649523 1.31983 0
M  V30 12012 H 1156.88 -0.737354 4.10632 0
M  V30 12013 H 1155.51 -1.11497 3.02933 0
M  V30 12014 H 1154.56 1.23744 3.5971 0
M  V30 12015 H 1155.87 1.41355 4.78351 0
M  V30 12016 H 1155.02 -0.579557 6.03926 0
M  V30 12017 H 1153.76 -0.84755 4.80279 0
M  V30 12018 H 1152.77 1.39923 5.31697 0
M  V30 12019 H 1153.99 1.65595 6.58601 0
M  V30 12020 H 1151.94 -0.58746 6.53364 0
M  V30 12021 H 1151.86 0.839902 7.5132 0
M  V30 12022 H 1153.12 -0.316951 7.78855 0
M  V30 12023 N 1157.35 -1.41121 0.701616 0
M  V30 12024 C 1158.3 -2.32582 0.0288052 0
M  V30 12025 C 1159.29 -1.5129 -0.762074 0
M  V30 12026 O 1160.5 -1.67185 -0.667014 0
M  V30 12027 H 1156.88 -0.75194 -0.00948675 0
M  V30 12028 H 1158.85 -2.86994 0.817141 0
M  V30 12029 C 1157.6 -3.36137 -0.889217 0
M  V30 12030 H 1156.92 -3.98746 -0.290062 0
M  V30 12031 H 1158.36 -4.0266 -1.32819 0
M  V30 12032 C 1156.82 -2.70504 -2.00821 0
M  V30 12033 O 1157.35 -2.55753 -3.09763 0
M  V30 12034 N 1155.55 -2.29105 -1.78772 0
M  V30 12035 H 1155.1 -2.41303 -0.901708 0
M  V30 12036 H 1155.06 -1.85527 -2.53825 0
M  V30 12037 N 1158.83 -0.446794 -1.51134 0
M  V30 12038 C 1160.11 0.176892 -1.94798 0
M  V30 12039 C 1160.49 1.59229 -1.38598 0
M  V30 12040 O 1159.84 2.21097 -0.576905 0
M  V30 12041 C 1160.05 0.145 -3.48699 0
M  V30 12042 C 1161.39 0.345917 -4.23189 0
M  V30 12043 O 1162.42 0.222691 -3.55503 0
M  V30 12044 O 1161.28 0.592112 -5.43283 0
M  V30 12045 H 1158.37 0.12486 -0.81752 0
M  V30 12046 H 1160.92 -0.505453 -1.61998 0
M  V30 12047 H 1159.69 -0.844156 -3.82086 0
M  V30 12048 H 1159.31 0.869851 -3.87968 0
M  V30 12049 N 1160.31 1.56586 -0.178487 0
M  V30 12050 C 1161.56 1.96273 0.464745 0
M  V30 12051 C 1161.87 1.0675 1.63902 0
M  V30 12052 O 1163.08 1.36148 2.34896 0
M  V30 12053 C 1161.53 3.49021 0.878207 0
M  V30 12054 C 1161.14 4.4718 -0.270861 0
M  V30 12055 C 1162.88 3.97512 1.48946 0
M  V30 12056 C 1160.79 5.91176 0.162632 0
M  V30 12057 H 1159.72 0.732834 0.177398 0
M  V30 12058 H 1162.37 1.81534 -0.267861 0
M  V30 12059 H 1160.75 3.59203 1.667 0
M  V30 12060 H 1161.93 4.48718 -1.04826 0
M  V30 12061 H 1160.24 4.08788 -0.792529 0
M  V30 12062 H 1162.84 5.02556 1.82595 0
M  V30 12063 H 1163.18 3.40861 2.38997 0
M  V30 12064 H 1163.72 3.90376 0.76496 0
M  V30 12065 H 1160.46 6.51716 -0.703286 0
M  V30 12066 H 1159.98 5.9293 0.905243 0
M  V30 12067 H 1161.65 6.44174 0.604084 0
M  V30 12068 N 1161.79 -0.095206 1.57312 0
M  V30 12069 C 1163.2 -0.449411 1.53142 0
M  V30 12070 C 1163.4 -1.80523 0.895187 0
M  V30 12071 O 1162.46 -2.47746 0.487649 0
M  V30 12072 C 1163.77 -0.412002 2.97864 0
M  V30 12073 C 1165.32 -0.493866 3.09079 0
M  V30 12074 C 1165.79 -0.486606 4.55408 0
M  V30 12075 N 1167.29 -0.547363 4.59955 0
M  V30 12076 C 1168.02 -0.563582 5.70624 0
M  V30 12077 N 1167.52 -0.536015 6.90723 0
M  V30 12078 N 1169.31 -0.608385 5.58798 0
M  V30 12079 H 1161.46 0.792869 1.97047 0
M  V30 12080 H 1163.72 0.295106 0.900898 0
M  V30 12081 H 1163.43 0.517064 3.47878 0
M  V30 12082 H 1163.3 -1.23102 3.56547 0
M  V30 12083 H 1165.69 -1.41335 2.59053 0
M  V30 12084 H 1165.77 0.353286 2.53349 0
M  V30 12085 H 1165.42 0.428935 5.06086 0
M  V30 12086 H 1165.35 -1.35097 5.08976 0
M  V30 12087 H 1167.84 -0.573867 3.73517 0
M  V30 12088 H 1168.15 -0.551671 7.70828 0
M  V30 12089 H 1166.49 -0.503064 6.93177 0
M  V30 12090 H 1169.69 -0.627451 4.63876 0
M  V30 12091 H 1169.86 -0.617556 6.45051 0
M  V30 12092 N 1163.26 -1.53291 -0.366026 0
M  V30 12093 C 1164.19 -1.82675 -1.45437 0
M  V30 12094 C 1165.18 -0.680227 -1.55907 0
M  V30 12095 O 1166.36 -0.930032 -1.70482 0
M  V30 12096 C 1163.49 -2.01626 -2.8278 0
M  V30 12097 C 1162.44 -3.17391 -2.87135 0
M  V30 12098 C 1161.77 -3.21634 -4.27148 0
M  V30 12099 C 1163.07 -4.5599 -2.54697 0
M  V30 12100 H 1164.76 -2.73818 -1.21096 0
M  V30 12101 H 1162.31 -1.31754 -0.581108 0
M  V30 12102 H 1164.26 -2.20765 -3.58944 0
M  V30 12103 H 1162.99 -1.07193 -3.08508 0
M  V30 12104 H 1161.65 -2.98071 -2.13422 0
M  V30 12105 H 1161.29 -2.2484 -4.49951 0
M  V30 12106 H 1160.99 -3.99414 -4.30978 0
M  V30 12107 H 1162.52 -3.42957 -5.05186 0
M  V30 12108 H 1163.93 -4.75294 -3.20575 0
M  V30 12109 H 1162.33 -5.36008 -2.69844 0
M  V30 12110 H 1163.4 -4.61133 -1.49949 0
M  V30 12111 N 1164.74 0.6258 -1.44643 0
M  V30 12112 C 1165.99 1.3873 -1.47925 0
M  V30 12113 C 1166.32 1.93868 -0.113469 0
M  V30 12114 O 1165.6 1.73976 0.869639 0
M  V30 12115 C 1165.88 2.54867 -2.54391 0
M  V30 12116 C 1165.73 2.05044 -4.00346 0
M  V30 12117 C 1167.05 3.57043 -2.57309 0
M  V30 12118 H 1164.17 0.503087 -0.538584 0
M  V30 12119 H 1166.81 0.707102 -1.76352 0
M  V30 12120 H 1164.96 3.12894 -2.30281 0
M  V30 12121 H 1166.63 1.51807 -4.35606 0
M  V30 12122 H 1164.88 1.36185 -4.11869 0
M  V30 12123 H 1165.55 2.88681 -4.70497 0
M  V30 12124 H 1168.02 3.08826 -2.78865 0
M  V30 12125 H 1166.9 4.35818 -3.33698 0
M  V30 12126 H 1167.16 4.11464 -1.61708 0
M  V30 12127 N 1166.22 1.31629 0.866686 0
M  V30 12128 C 1167.63 1.19347 1.43573 0
M  V30 12129 C 1167.98 -0.198765 1.95191 0
M  V30 12130 O 1167.11 -1.09674 1.86549 0
M  V30 12131 C 1167.7 2.16055 2.6097 0
M  V30 12132 C 1166.26 2.07697 3.13909 0
M  V30 12133 C 1165.41 2.05099 1.86627 0
M  V30 12134 H 1168.36 1.43633 0.674929 0
M  V30 12135 H 1168.38 1.75207 3.37761 0
M  V30 12136 H 1167.89 3.17375 2.23371 0
M  V30 12137 H 1165.99 1.09583 3.56121 0
M  V30 12138 H 1166.11 2.96958 3.75969 0
M  V30 12139 H 1164.47 1.50162 2.05727 0
M  V30 12140 H 1165.25 3.0818 1.51261 0
M  V30 12141 N 1167.7 -1.08142 1.14644 0
M  V30 12142 C 1169.12 -1.32656 0.887388 0
M  V30 12143 C 1169.32 -1.95942 -0.470012 0
M  V30 12144 O 1168.37 -2.21417 -1.21371 0
M  V30 12145 C 1169.68 -2.22549 2.02219 0
M  V30 12146 C 1171.23 -2.36021 2.0558 0
M  V30 12147 C 1171.71 -3.29257 3.18361 0
M  V30 12148 N 1173.2 -3.36835 3.17957 0
M  V30 12149 C 1173.93 -4.09017 4.01862 0
M  V30 12150 N 1173.43 -4.83882 4.95812 0
M  V30 12151 N 1175.22 -4.04875 3.89913 0
M  V30 12152 H 1167.37 -0.654457 2.02066 0
M  V30 12153 H 1169.64 -0.350947 0.880648 0
M  V30 12154 H 1169.34 -1.83296 3.00159 0
M  V30 12155 H 1169.22 -3.23027 1.94765 0
M  V30 12156 H 1171.6 -2.74531 1.08245 0
M  V30 12157 H 1171.68 -1.35275 2.17105 0
M  V30 12158 H 1171.33 -2.91468 4.15944 0
M  V30 12159 H 1171.26 -4.29938 3.04074 0
M  V30 12160 H 1173.75 -2.83465 2.49912 0
M  V30 12161 H 1174.06 -5.3643 5.56294 0
M  V30 12162 H 1172.41 -4.82926 4.99808 0
M  V30 12163 H 1175.6 -3.45496 3.15833 0
M  V30 12164 H 1175.77 -4.60866 4.55529 0
M  V30 12165 N 1169.18 -0.941978 -1.26351 0
M  V30 12166 C 1170.45 -0.507822 -1.88893 0
M  V30 12167 C 1170.83 1.0146 -1.85119 0
M  V30 12168 O 1170.18 1.87495 -1.30606 0
M  V30 12169 C 1170.39 -1.07007 -3.3219 0
M  V30 12170 C 1171.74 -1.13922 -4.09032 0
M  V30 12171 O 1172.76 -1.02072 -3.41262 0
M  V30 12172 O 1171.62 -1.32362 -5.30229 0
M  V30 12173 H 1168.72 -0.165621 -0.810246 0
M  V30 12174 H 1171.26 -1.03459 -1.34515 0
M  V30 12175 H 1170.04 -2.11366 -3.29302 0
M  V30 12176 H 1169.66 -0.525797 -3.94108 0
M  V30 12177 N 1170.66 1.40747 -0.709091 0
M  V30 12178 C 1171.9 2.013 -0.246174 0
M  V30 12179 C 1172.23 1.56078 1.15556 0
M  V30 12180 O 1171.51 0.777941 1.78265 0
M  V30 12181 C 1171.79 3.58685 -0.318945 0
M  V30 12182 C 1171.65 4.13997 -1.75859 0
M  V30 12183 C 1172.96 4.38981 0.31358 0
M  V30 12184 H 1170.08 0.73137 -0.0909255 0
M  V30 12185 H 1172.73 1.67312 -0.900365 0
M  V30 12186 H 1170.88 3.8777 0.23805 0
M  V30 12187 H 1172.55 3.95735 -2.37047 0
M  V30 12188 H 1170.79 3.6853 -2.28841 0
M  V30 12189 H 1171.46 5.23158 -1.76095 0
M  V30 12190 H 1173.94 4.15789 -0.160939 0
M  V30 12191 H 1172.81 5.48409 0.232184 0
M  V30 12192 H 1173.07 4.19474 1.39621 0
M  V30 12193 N 1172.13 0.454803 1.50895 0
M  V30 12194 C 1173.04 -0.353495 2.31921 0
M  V30 12195 C 1174.06 -1.01136 1.41589 0
M  V30 12196 O 1175.24 -1.00291 1.74653 0
M  V30 12197 C 1172.3 -1.43032 3.15821 0
M  V30 12198 C 1171.36 -0.790763 4.21954 0
M  V30 12199 C 1170.59 -1.81628 5.01843 0
M  V30 12200 O 1170.82 -3.04078 4.8259 0
M  V30 12201 O 1169.75 -1.39713 5.8546 0
M  V30 12202 H 1173.58 0.308463 3.02129 0
M  V30 12203 H 1171.16 0.216971 1.47816 0
M  V30 12204 H 1173.04 -2.05444 3.67927 0
M  V30 12205 H 1171.72 -2.07605 2.48358 0
M  V30 12206 H 1170.63 -0.128127 3.73881 0
M  V30 12207 H 1171.96 -0.188251 4.9184 0
M  V30 12208 N 1173.61 -1.56489 0.186789 0
M  V30 12209 C 1174.52 -2.22304 -0.749543 0
M  V30 12210 C 1175.54 -1.21949 -1.24115 0
M  V30 12211 O 1176.71 -1.5466 -1.29005 0
M  V30 12212 C 1173.78 -2.863 -1.95533 0
M  V30 12213 C 1172.84 -4.01901 -1.5091 0
M  V30 12214 C 1172.07 -4.62837 -2.6574 0
M  V30 12215 O 1172.3 -4.22681 -3.8301 0
M  V30 12216 O 1171.23 -5.52446 -2.38929 0
M  V30 12217 H 1175.06 -3.02909 -0.21908 0
M  V30 12218 H 1172.64 -1.49341 -0.0421249 0
M  V30 12219 H 1174.52 -3.2682 -2.6602 0
M  V30 12220 H 1173.2 -2.08681 -2.47455 0
M  V30 12221 H 1172.1 -3.66021 -0.773261 0
M  V30 12222 H 1173.44 -4.8116 -1.03663 0
M  V30 12223 N 1175.09 0.086862 -1.5736 0
M  V30 12224 C 1176.32 0.802167 -1.90717 0
M  V30 12225 C 1176.73 1.71875 -0.781304 0
M  V30 12226 O 1176.09 1.80831 0.246255 0
M  V30 12227 C 1176.14 1.60858 -3.23739 0
M  V30 12228 O 1175.86 0.728851 -4.31995 0
M  V30 12229 C 1177.36 2.42621 -3.71012 0
M  V30 12230 H 1174.58 0.228914 -0.630745 0
M  V30 12231 H 1177.13 0.061634 -2.04407 0
M  V30 12232 H 1175.28 2.30153 -3.11622 0
M  V30 12233 H 1175.7 1.2882 -5.08435 0
M  V30 12234 H 1177.17 2.94683 -4.66761 0
M  V30 12235 H 1177.65 3.21462 -2.99264 0
M  V30 12236 H 1178.25 1.78509 -3.86024 0
M  V30 12237 N 1176.57 1.53483 0.357892 0
M  V30 12238 C 1177.84 1.60649 1.11585 0
M  V30 12239 C 1178.22 0.418789 2.06904 0
M  V30 12240 O 1177.57 -0.590279 2.20744 0
M  V30 12241 C 1177.78 2.96046 1.84818 0
M  V30 12242 C 1179.13 3.50895 2.39076 0
M  V30 12243 O 1180.15 2.98126 1.94934 0
M  V30 12244 O 1179.01 4.43163 3.19794 0
M  V30 12245 H 1176.11 0.649202 0.512315 0
M  V30 12246 H 1178.65 1.65826 0.360537 0
M  V30 12247 H 1177.43 3.73929 1.15296 0
M  V30 12248 H 1177.05 2.94395 2.6724 0
M  V30 12249 N 1178.05 -0.61812 1.44973 0
M  V30 12250 C 1178.99 -1.72942 1.52838 0
M  V30 12251 C 1179.96 -1.6181 0.375056 0
M  V30 12252 O 1181.15 -1.81544 0.587075 0
M  V30 12253 C 1178.29 -3.11228 1.49101 0
M  V30 12254 C 1177.4 -3.33243 2.74906 0
M  V30 12255 C 1176.54 -4.61574 2.62912 0
M  V30 12256 C 1175.57 -4.76811 3.8382 0
M  V30 12257 N 1174.71 -5.96432 3.70424 0
M  V30 12258 H 1179.55 -1.65556 2.47781 0
M  V30 12259 H 1177.09 -0.807411 1.2296 0
M  V30 12260 H 1179.05 -3.9122 1.44923 0
M  V30 12261 H 1177.68 -3.17598 0.577163 0
M  V30 12262 H 1176.73 -2.471 2.89216 0
M  V30 12263 H 1178.04 -3.40377 3.64616 0
M  V30 12264 H 1177.19 -5.49746 2.56641 0
M  V30 12265 H 1175.93 -4.5682 1.70784 0
M  V30 12266 H 1174.94 -3.87066 3.90461 0
M  V30 12267 H 1176.16 -4.83371 4.77001 0
M  V30 12268 H 1174.11 -5.92742 2.81057 0
M  V30 12269 H 1174.03 -6.0468 4.5376 0
M  V30 12270 H 1175.29 -6.8713 3.68067 0
M  V30 12271 N 1179.52 -1.32087 -0.859693 0
M  V30 12272 C 1180.46 -1.14934 -1.97143 0
M  V30 12273 C 1181.43 -0.0501084 -1.62523 0
M  V30 12274 O 1182.62 -0.208472 -1.87344 0
M  V30 12275 C 1179.75 -0.758374 -3.30101 0
M  V30 12276 C 1178.79 -1.86212 -3.83702 0
M  V30 12277 S 1179.62 -3.46949 -4.07905 0
M  V30 12278 C 1180.78 -3.09813 -5.43844 0
M  V30 12279 H 1181.01 -2.09047 -2.11392 0
M  V30 12280 H 1178.55 -1.1669 -1.01108 0
M  V30 12281 H 1180.5 -0.539563 -4.06939 0
M  V30 12282 H 1179.17 0.163817 -3.13673 0
M  V30 12283 H 1178.36 -1.54144 -4.7985 0
M  V30 12284 H 1177.96 -2.03652 -3.13691 0
M  V30 12285 H 1180.25 -2.59345 -6.25897 0
M  V30 12286 H 1181.2 -4.04963 -5.8087 0
M  V30 12287 H 1181.6 -2.46971 -5.07607 0
M  V30 12288 N 1181 1.07532 -1.15215 0
M  V30 12289 C 1181.95 2.16785 -0.843022 0
M  V30 12290 C 1182.94 1.68411 0.182802 0
M  V30 12291 O 1184.15 1.7996 0.0380164 0
M  V30 12292 H 1180.52 0.707465 -0.254945 0
M  V30 12293 H 1182.5 2.40078 -1.77215 0
M  V30 12294 C 1181.24 3.45967 -0.346699 0
M  V30 12295 H 1180.57 3.83574 -1.12744 0
M  V30 12296 H 1182.01 4.23663 -0.169039 0
M  V30 12297 C 1180.47 3.23768 0.931437 0
M  V30 12298 O 1181 3.48179 2.00336 0
M  V30 12299 N 1179.2 2.77264 0.870217 0
M  V30 12300 H 1178.75 2.576 -0.00226223 0
M  V30 12301 H 1178.71 2.6279 1.72594 0
M  V30 12302 N 1182.48 0.948665 1.2585 0
M  V30 12303 C 1183.73 0.601125 1.93686 0
M  V30 12304 C 1184.06 -0.858779 1.7418 0
M  V30 12305 O 1183.33 -1.61539 1.0833 0
M  V30 12306 C 1183.62 0.95333 3.47252 0
M  V30 12307 C 1183.47 2.46853 3.7601 0
M  V30 12308 C 1184.79 0.474098 4.37539 0
M  V30 12309 H 1181.91 0.219864 0.703441 0
M  V30 12310 H 1184.55 1.18424 1.48579 0
M  V30 12311 H 1182.7 0.457114 3.85801 0
M  V30 12312 H 1184.37 3.03804 3.47132 0
M  V30 12313 H 1182.62 2.9088 3.21825 0
M  V30 12314 H 1183.29 2.66547 4.83381 0
M  V30 12315 H 1185.76 0.899664 4.06258 0
M  V30 12316 H 1184.64 0.749287 5.43762 0
M  V30 12317 H 1184.9 -0.625961 4.37646 0
M  V30 12318 N 1183.96 -1.40369 0.716545 0
M  V30 12319 C 1185.2 -2.01167 0.256846 0
M  V30 12320 C 1185.54 -1.56689 -1.14727 0
M  V30 12321 O 1184.81 -0.787384 -1.7785 0
M  V30 12322 C 1185.1 -3.58511 0.337963 0
M  V30 12323 C 1184.95 -4.13059 1.78052 0
M  V30 12324 C 1186.27 -4.39142 -0.290295 0
M  V30 12325 H 1183.39 -0.730877 0.0948028 0
M  V30 12326 H 1186.03 -1.66833 0.909225 0
M  V30 12327 H 1184.18 -3.87891 -0.217482 0
M  V30 12328 H 1185.85 -3.94472 2.39143 0
M  V30 12329 H 1184.09 -3.67311 2.30793 0
M  V30 12330 H 1184.76 -5.22217 1.78867 0
M  V30 12331 H 1187.24 -4.15697 0.182987 0
M  V30 12332 H 1186.12 -5.48524 -0.203097 0
M  V30 12333 H 1186.38 -4.20209 -1.37394 0
M  V30 12334 N 1185.44 -0.462799 -1.50652 0
M  V30 12335 C 1186.66 0.0952726 -2.07181 0
M  V30 12336 C 1187.09 1.33479 -1.32533 0
M  V30 12337 O 1186.44 1.77473 -0.370564 0
M  V30 12338 C 1186.49 0.370592 -3.58691 0
M  V30 12339 O 1185.6 1.4526 -3.85971 0
M  V30 12340 H 1184.94 -0.00932702 -0.663934 0
M  V30 12341 H 1187.47 -0.651458 -1.93951 0
M  V30 12342 H 1187.48 0.613551 -4.0336 0
M  V30 12343 H 1186.15 -0.535219 -4.12442 0
M  V30 12344 H 1184.73 1.1976 -3.53146 0
M  V30 12345 N 1186.91 1.56388 -0.195085 0
M  V30 12346 C 1188.15 1.99478 0.445855 0
M  V30 12347 C 1188.52 1.0792 1.588 0
M  V30 12348 O 1189.72 1.40246 2.29313 0
M  V30 12349 C 1187.99 3.46032 0.894248 0
M  V30 12350 S 1189.55 4.11149 1.53303 0
M  V30 12351 H 1186.37 0.696558 0.142575 0
M  V30 12352 H 1188.97 1.93213 -0.298149 0
M  V30 12353 H 1187.67 4.10366 0.0529258 0
M  V30 12354 H 1187.2 3.56114 1.67172 0
M  V30 12355 H 1189.22 4.08155 2.82177 0
M  V30 12356 N 1188.39 -0.0785156 1.57404 0
M  V30 12357 C 1189.62 -0.795871 1.91522 0
M  V30 12358 C 1190.04 -1.70665 0.790892 0
M  V30 12359 O 1189.4 -1.79474 -0.25666 0
M  V30 12360 C 1189.45 -1.57121 3.24569 0
M  V30 12361 O 1188.55 -2.6814 3.13328 0
M  V30 12362 H 1187.89 -0.217575 0.627341 0
M  V30 12363 H 1190.42 -0.0487724 2.04542 0
M  V30 12364 H 1190.43 -1.9519 3.5828 0
M  V30 12365 H 1189.11 -0.902909 4.05981 0
M  V30 12366 H 1187.69 -2.32978 2.91163 0
M  V30 12367 N 1189.87 -1.5367 -0.349747 0
M  V30 12368 C 1191.1 -1.74858 -1.11532 0
M  V30 12369 C 1191.52 -0.483591 -1.81777 0
M  V30 12370 O 1190.88 0.563399 -1.72324 0
M  V30 12371 C 1190.93 -2.92479 -2.10923 0
M  V30 12372 O 1190.03 -2.62194 -3.18321 0
M  V30 12373 H 1189.37 -0.580219 -0.322865 0
M  V30 12374 H 1191.9 -2.00611 -0.402033 0
M  V30 12375 H 1191.91 -3.19093 -2.54252 0
M  V30 12376 H 1190.59 -3.84228 -1.59191 0
M  V30 12377 H 1189.16 -2.46448 -2.79853 0
M  V30 12378 N 1191.35 0.610423 -1.45298 0
M  V30 12379 C 1192.28 1.73207 -1.56594 0
M  V30 12380 C 1193.26 1.64893 -0.417651 0
M  V30 12381 O 1194.44 1.83336 -0.64043 0
M  V30 12382 C 1191.57 3.11803 -1.52959 0
M  V30 12383 C 1190.53 3.34925 -2.66475 0
M  V30 12384 C 1189.85 4.73764 -2.47894 0
M  V30 12385 C 1191.15 3.25456 -4.08504 0
M  V30 12386 H 1192.85 1.6401 -2.50482 0
M  V30 12387 H 1190.39 0.787621 -1.20551 0
M  V30 12388 H 1192.35 3.90065 -1.59458 0
M  V30 12389 H 1191.07 3.21833 -0.55599 0
M  V30 12390 H 1189.73 2.59051 -2.59399 0
M  V30 12391 H 1189.38 4.80524 -1.4868 0
M  V30 12392 H 1189.08 4.90191 -3.24016 0
M  V30 12393 H 1190.6 5.54231 -2.56243 0
M  V30 12394 H 1192.02 3.93597 -4.16839 0
M  V30 12395 H 1190.41 3.53414 -4.84994 0
M  V30 12396 H 1191.48 2.22939 -4.30612 0
M  V30 12397 N 1192.83 1.32541 0.852676 0
M  V30 12398 C 1194.05 1.2622 1.6394 0
M  V30 12399 C 1194.47 -0.169455 1.88038 0
M  V30 12400 O 1193.83 -1.10719 1.45078 0
M  V30 12401 C 1193.88 2.02062 2.99755 0
M  V30 12402 O 1193.6 3.39641 2.76723 0
M  V30 12403 C 1195.1 2.02787 3.94198 0
M  V30 12404 H 1192.32 0.435405 0.510552 0
M  V30 12405 H 1194.86 1.74696 1.06309 0
M  V30 12406 H 1193.02 1.57303 3.54026 0
M  V30 12407 H 1193.43 3.78484 3.63111 0
M  V30 12408 H 1194.91 2.60333 4.86755 0
M  V30 12409 H 1195.38 1.01464 4.27319 0
M  V30 12410 H 1195.99 2.47504 3.45864 0
M  V30 12411 N 1194.3 -1.0692 1.15784 0
M  V30 12412 C 1195.53 -1.83849 0.959903 0
M  V30 12413 C 1195.95 -1.8169 -0.486873 0
M  V30 12414 O 1195.31 -1.21305 -1.34739 0
M  V30 12415 C 1195.36 -3.28642 1.48414 0
M  V30 12416 O 1194.46 -4.0665 0.686249 0
M  V30 12417 H 1193.81 -0.569115 0.342059 0
M  V30 12418 H 1196.34 -1.34851 1.53871 0
M  V30 12419 H 1196.35 -3.7947 1.49888 0
M  V30 12420 H 1195.02 -3.29529 2.53739 0
M  V30 12421 H 1193.6 -3.65453 0.741501 0
M  V30 12422 N 1195.78 -0.955326 -1.25345 0
M  V30 12423 C 1197.01 -0.627233 -1.97688 0
M  V30 12424 C 1197.43 0.793973 -1.70522 0
M  V30 12425 O 1196.79 1.537 -0.961556 0
M  V30 12426 C 1196.84 -0.892969 -3.49369 0
M  V30 12427 O 1195.94 0.0278871 -4.12391 0
M  V30 12428 H 1195.28 -0.238402 -0.619726 0
M  V30 12429 H 1197.81 -1.28211 -1.59446 0
M  V30 12430 H 1197.82 -0.819517 -3.99685 0
M  V30 12431 H 1196.5 -1.92879 -3.6847 0
M  V30 12432 H 1195.08 -0.0978295 -3.72772 0
M  V30 12433 N 1197.26 1.39987 -0.723979 0
M  V30 12434 C 1198.19 2.3332 -0.0917282 0
M  V30 12435 C 1199.17 1.53335 0.736361 0
M  V30 12436 O 1200.36 1.81771 0.683582 0
M  V30 12437 C 1197.49 3.3737 0.824549 0
M  V30 12438 C 1196.44 4.2788 0.101452 0
M  V30 12439 C 1195.77 5.22536 1.13401 0
M  V30 12440 C 1197.07 5.11649 -1.04939 0
M  V30 12441 H 1198.76 2.86441 -0.871318 0
M  V30 12442 H 1196.31 1.37725 -0.420448 0
M  V30 12443 H 1198.26 4.01607 1.27631 0
M  V30 12444 H 1196.98 2.82663 1.63613 0
M  V30 12445 H 1195.64 3.65107 -0.330569 0
M  V30 12446 H 1195.29 4.64131 1.93886 0
M  V30 12447 H 1194.99 5.83938 0.65502 0
M  V30 12448 H 1196.52 5.89651 1.58569 0
M  V30 12449 H 1197.93 5.69293 -0.6766 0
M  V30 12450 H 1196.33 5.82137 -1.45729 0
M  V30 12451 H 1197.4 4.47132 -1.8762 0
M  V30 12452 N 1198.74 0.470782 1.50404 0
M  V30 12453 C 1199.69 -0.337584 2.30137 0
M  V30 12454 C 1200.68 -0.990673 1.37412 0
M  V30 12455 O 1201.89 -0.921813 1.54605 0
M  V30 12456 H 1198.26 -0.127707 0.741077 0
M  V30 12457 H 1200.23 0.355297 2.96277 0
M  V30 12458 C 1198.98 -1.40714 3.17954 0
M  V30 12459 H 1198.31 -0.913982 3.89213 0
M  V30 12460 H 1199.75 -1.94533 3.7674 0
M  V30 12461 C 1198.2 -2.40889 2.35529 0
M  V30 12462 O 1198.73 -3.46153 2.03816 0
M  V30 12463 N 1196.94 -2.126 1.98115 0
M  V30 12464 H 1196.49 -1.27023 2.24105 0
M  V30 12465 H 1196.45 -2.7986 1.43269 0
M  V30 12466 N 1200.22 -1.56282 0.203376 0
M  V30 12467 C 1201.45 -2.01905 -0.437936 0
M  V30 12468 C 1201.86 -1.08263 -1.55164 0
M  V30 12469 O 1201.2 -0.0811746 -1.83521 0
M  V30 12470 C 1201.26 -3.43908 -1.04725 0
M  V30 12471 C 1200.92 -4.56944 -0.0712582 0
M  V30 12472 C 1201.92 -5.14856 0.72243 0
M  V30 12473 C 1199.61 -5.02282 0.0422267 0
M  V30 12474 C 1201.6 -6.16562 1.61649 0
M  V30 12475 C 1199.29 -6.0383 0.939835 0
M  V30 12476 C 1200.29 -6.60844 1.72552 0
M  V30 12477 O 1199.97 -7.60417 2.60808 0
M  V30 12478 H 1199.71 -0.666416 -0.11343 0
M  V30 12479 H 1202.26 -2.03019 0.311833 0
M  V30 12480 H 1200.49 -3.39806 -1.84577 0
M  V30 12481 H 1202.18 -3.73288 -1.59407 0
M  V30 12482 H 1202.94 -4.80691 0.645105 0
M  V30 12483 H 1198.82 -4.57596 -0.559165 0
M  V30 12484 H 1202.37 -6.6099 2.23019 0
M  V30 12485 H 1198.26 -6.37418 1.01824 0
M  V30 12486 H 1199.03 -7.77869 2.54679 0
M  V30 12487 N 1201.7 0.070167 -1.57444 0
M  V30 12488 C 1202.94 0.769014 -1.8733 0
M  V30 12489 C 1203.27 1.77496 -0.79533 0
M  V30 12490 O 1202.53 1.94586 0.208495 0
M  V30 12491 C 1202.82 1.5111 -3.23883 0
M  V30 12492 C 1202.49 0.644988 -4.46263 0
M  V30 12493 C 1201.15 0.406307 -4.79482 0
M  V30 12494 C 1203.5 0.0444938 -5.21181 0
M  V30 12495 C 1200.83 -0.442322 -5.8503 0
M  V30 12496 C 1203.18 -0.791599 -6.27628 0
M  V30 12497 C 1201.85 -1.04014 -6.59346 0
M  V30 12498 H 1201.12 0.281402 -0.685488 0
M  V30 12499 H 1203.77 0.029752 -1.91477 0
M  V30 12500 H 1202.07 2.32261 -3.15535 0
M  V30 12501 H 1203.77 2.05665 -3.44242 0
M  V30 12502 H 1200.36 0.841148 -4.20265 0
M  V30 12503 H 1204.54 0.216005 -4.9583 0
M  V30 12504 H 1199.8 -0.643607 -6.08003 0
M  V30 12505 H 1203.97 -1.26363 -6.8484 0
M  V30 12506 H 1201.6 -1.69949 -7.4096 0
M  V30 12507 N 1203.17 1.53854 0.341593 0
M  V30 12508 C 1204.45 1.61823 1.09875 0
M  V30 12509 C 1204.83 0.440711 2.06448 0
M  V30 12510 O 1204.18 -0.566833 2.21358 0
M  V30 12511 C 1204.39 2.9799 1.81668 0
M  V30 12512 C 1205.74 3.53411 2.35341 0
M  V30 12513 O 1206.76 3.00177 1.91761 0
M  V30 12514 O 1205.62 4.4653 3.15076 0
M  V30 12515 H 1202.71 0.654599 0.5054 0
M  V30 12516 H 1205.26 1.66199 0.342929 0
M  V30 12517 H 1204.03 3.7513 1.11323 0
M  V30 12518 H 1203.65 2.97213 2.64103 0
M  V30 12519 N 1204.65 -0.602709 1.4562 0
M  V30 12520 C 1205.88 -1.38608 1.53203 0
M  V30 12521 C 1206.29 -1.88478 0.165098 0
M  V30 12522 O 1205.63 -1.63142 -0.844421 0
M  V30 12523 C 1205.69 -2.62214 2.45935 0
M  V30 12524 C 1205.36 -2.3395 3.92577 0
M  V30 12525 C 1206.36 -1.94011 4.82344 0
M  V30 12526 C 1204.04 -2.46711 4.37537 0
M  V30 12527 C 1206.03 -1.67202 6.15079 0
M  V30 12528 C 1203.72 -2.19515 5.70313 0
M  V30 12529 C 1204.72 -1.79823 6.58903 0
M  V30 12530 O 1204.41 -1.52948 7.89216 0
M  V30 12531 H 1204.14 -0.43052 0.52118 0
M  V30 12532 H 1206.69 -0.741655 1.91543 0
M  V30 12533 H 1204.92 -3.29394 2.02575 0
M  V30 12534 H 1206.61 -3.24264 2.44147 0
M  V30 12535 H 1207.38 -1.83684 4.48871 0
M  V30 12536 H 1203.26 -2.76572 3.68821 0
M  V30 12537 H 1206.8 -1.36146 6.84186 0
M  V30 12538 H 1202.7 -2.2946 6.03339 0
M  V30 12539 H 1203.47 -1.6696 8.01291 0
M  V30 12540 N 1206.13 -1.32992 -0.845635 0
M  V30 12541 C 1207.08 -1.19256 -1.94325 0
M  V30 12542 C 1208.06 -0.0971701 -1.60606 0
M  V30 12543 O 1209.26 -0.324591 -1.73998 0
M  V30 12544 C 1206.38 -0.927027 -3.30547 0
M  V30 12545 C 1205.47 -2.06454 -3.70456 0
M  V30 12546 N 1205.86 -3.31393 -3.82116 0
M  V30 12547 C 1204.16 -1.96972 -4.00147 0
M  V30 12548 C 1204.86 -4.05955 -4.16624 0
M  V30 12549 N 1203.84 -3.34332 -4.28629 0
M  V30 12550 H 1207.64 -2.13965 -2.01485 0
M  V30 12551 H 1205.15 -1.24901 -1.03795 0
M  V30 12552 H 1207.15 -0.809565 -4.08964 0
M  V30 12553 H 1205.81 0.011597 -3.24698 0
M  V30 12554 H 1206.82 -3.66222 -3.662 0
M  V30 12555 H 1203.5 -1.10728 -4.02549 0
M  V30 12556 H 1204.89 -5.13738 -4.33039 0
M  V30 12557 N 1207.61 1.06304 -1.1635 0
M  V30 12558 C 1208.54 2.13732 -0.827721 0
M  V30 12559 C 1209.55 1.61962 0.164983 0
M  V30 12560 O 1210.74 1.784 -0.0597591 0
M  V30 12561 C 1207.84 3.38239 -0.211623 0
M  V30 12562 C 1207.01 4.19325 -1.2444 0
M  V30 12563 C 1206.07 5.22193 -0.648127 0
M  V30 12564 O 1205.1 5.53755 -1.31695 0
M  V30 12565 N 1206.3 5.77742 0.565179 0
M  V30 12566 H 1209.07 2.43136 -1.75228 0
M  V30 12567 H 1206.63 1.22304 -1.06081 0
M  V30 12568 H 1208.62 4.04204 0.200306 0
M  V30 12569 H 1207.19 3.06461 0.616491 0
M  V30 12570 H 1206.41 3.49017 -1.83251 0
M  V30 12571 H 1207.7 4.70306 -1.94138 0
M  V30 12572 H 1207.1 5.54366 1.12673 0
M  V30 12573 H 1205.65 6.45284 0.919321 0
M  V30 12574 N 1209.09 0.96196 1.24836 0
M  V30 12575 C 1210.02 0.445329 2.24832 0
M  V30 12576 C 1211.03 -0.442797 1.56663 0
M  V30 12577 O 1212.22 -0.249896 1.76742 0
M  V30 12578 C 1209.32 -0.376953 3.36797 0
M  V30 12579 C 1208.49 0.499908 4.34534 0
M  V30 12580 C 1207.55 -0.265402 5.2553 0
M  V30 12581 O 1206.58 0.338707 5.68191 0
M  V30 12582 N 1207.78 -1.55654 5.59243 0
M  V30 12583 H 1210.54 1.30505 2.69793 0
M  V30 12584 H 1208.11 0.833137 1.38818 0
M  V30 12585 H 1210.1 -0.896831 3.94638 0
M  V30 12586 H 1208.67 -1.13757 2.91167 0
M  V30 12587 H 1207.89 1.20082 3.75465 0
M  V30 12588 H 1209.18 1.09814 4.96808 0
M  V30 12589 H 1208.57 -2.06916 5.265 0
M  V30 12590 H 1207.13 -2.02223 6.19636 0
M  V30 12591 N 1210.56 -1.39601 0.731392 0
M  V30 12592 C 1211.79 -2.04887 0.28789 0
M  V30 12593 C 1212.21 -1.55138 -1.076 0
M  V30 12594 O 1211.56 -0.71471 -1.67923 0
M  V30 12595 C 1211.61 -3.6044 0.276629 0
M  V30 12596 O 1211.34 -4.08358 1.58668 0
M  V30 12597 C 1212.84 -4.4292 -0.183485 0
M  V30 12598 H 1210.06 -0.658976 0.126459 0
M  V30 12599 H 1212.6 -1.78716 0.994031 0
M  V30 12600 H 1210.76 -3.85526 -0.380597 0
M  V30 12601 H 1211.17 -5.02659 1.4978 0
M  V30 12602 H 1212.64 -5.51822 -0.140207 0
M  V30 12603 H 1213.12 -4.2168 -1.22811 0
M  V30 12604 H 1213.73 -4.22976 0.444042 0
M  V30 12605 N 1212.04 -0.478751 -1.50152 0
M  V30 12606 C 1212.97 0.301182 -2.31549 0
M  V30 12607 C 1213.95 0.983276 -1.38801 0
M  V30 12608 O 1215.14 0.978973 -1.67719 0
M  V30 12609 C 1212.27 1.3791 -3.18745 0
M  V30 12610 C 1211.22 0.818175 -4.20107 0
M  V30 12611 C 1210.55 1.99496 -4.9609 0
M  V30 12612 C 1211.85 -0.17574 -5.22004 0
M  V30 12613 H 1213.54 -0.378188 -2.97002 0
M  V30 12614 H 1211.09 -0.183323 -1.42828 0
M  V30 12615 H 1213.04 1.93227 -3.74488 0
M  V30 12616 H 1211.77 2.08735 -2.51192 0
M  V30 12617 H 1210.42 0.286924 -3.65475 0
M  V30 12618 H 1210.07 2.69036 -4.25004 0
M  V30 12619 H 1209.77 1.62582 -5.6466 0
M  V30 12620 H 1211.3 2.55288 -5.54671 0
M  V30 12621 H 1212.71 0.288513 -5.72574 0
M  V30 12622 H 1211.11 -0.459549 -5.98338 0
M  V30 12623 H 1212.18 -1.09911 -4.72279 0
M  V30 12624 N 1213.52 1.56172 -0.211661 0
M  V30 12625 C 1214.93 1.84307 0.297982 0
M  V30 12626 C 1215.28 1.1328 1.60194 0
M  V30 12627 O 1214.41 0.399137 2.12687 0
M  V30 12628 C 1215 3.34348 0.547428 0
M  V30 12629 C 1213.56 3.62835 1.0014 0
M  V30 12630 C 1212.71 2.77237 0.0590326 0
M  V30 12631 H 1215.66 1.5262 -0.435083 0
M  V30 12632 H 1215.68 3.54018 1.39469 0
M  V30 12633 H 1215.19 3.86015 -0.401778 0
M  V30 12634 H 1213.29 3.16616 1.96431 0
M  V30 12635 H 1213.41 4.70899 0.882653 0
M  V30 12636 H 1211.77 2.48377 0.564005 0
M  V30 12637 H 1212.55 3.31699 -0.884913 0
M  V30 12638 N 1215 -0.0618163 1.57479 0
M  V30 12639 C 1215.93 -1.07252 2.07411 0
M  V30 12640 C 1216.91 -1.39756 0.969649 0
M  V30 12641 O 1218.09 -1.4921 1.24298 0
M  V30 12642 C 1215.22 -2.38313 2.52635 0
M  V30 12643 C 1214.18 -2.20136 3.67048 0
M  V30 12644 C 1213.5 -3.56668 3.98361 0
M  V30 12645 C 1214.8 -1.61437 4.96725 0
M  V30 12646 H 1216.5 -0.656983 2.92103 0
M  V30 12647 H 1214.04 -0.314579 1.40522 0
M  V30 12648 H 1216 -3.09319 2.86181 0
M  V30 12649 H 1214.72 -2.81865 1.64984 0
M  V30 12650 H 1213.38 -1.51569 3.338 0
M  V30 12651 H 1213.03 -3.97809 3.07826 0
M  V30 12652 H 1212.73 -3.45342 4.75408 0
M  V30 12653 H 1214.25 -4.2909 4.34413 0
M  V30 12654 H 1215.67 -2.2232 5.28438 0
M  V30 12655 H 1214.06 -1.60779 5.78161 0
M  V30 12656 H 1215.13 -0.576795 4.81457 0
M  V30 12657 N 1216.48 -1.54033 -0.333429 0
M  V30 12658 C 1217.72 -1.71426 -1.0704 0
M  V30 12659 C 1218.05 -0.485496 -1.8886 0
M  V30 12660 O 1217.32 0.500555 -1.89397 0
M  V30 12661 H 1215.9 -0.632034 -0.398173 0
M  V30 12662 H 1218.56 -1.91312 -0.372252 0
M  V30 12663 H 1217.65 -2.58958 -1.74205 0
M  V30 12664 N 1217.95 0.594978 -1.45938 0
M  V30 12665 C 1219.19 1.36479 -1.52161 0
M  V30 12666 C 1219.56 1.91296 -0.164295 0
M  V30 12667 O 1220.76 2.68609 -0.101247 0
M  V30 12668 C 1219.03 2.47286 -2.5804 0
M  V30 12669 S 1220.59 3.34855 -2.8358 0
M  V30 12670 H 1217.41 0.465134 -0.537746 0
M  V30 12671 H 1220.01 0.685257 -1.83097 0
M  V30 12672 H 1218.71 2.05386 -3.5531 0
M  V30 12673 H 1218.24 3.20025 -2.28795 0
M  V30 12674 H 1220.26 4.45788 -2.17916 0
M  V30 12675 N 1219.43 1.33438 0.838571 0
M  V30 12676 C 1220.85 1.12779 1.12929 0
M  V30 12677 C 1221.05 -0.0811188 2.01337 0
M  V30 12678 O 1220.1 -0.761294 2.4075 0
M  V30 12679 C 1221.42 2.41537 1.7911 0
M  V30 12680 C 1222.97 2.47447 1.91674 0
M  V30 12681 C 1223.44 3.76167 2.6127 0
M  V30 12682 N 1224.93 3.7724 2.68783 0
M  V30 12683 C 1225.67 4.7355 3.23323 0
M  V30 12684 N 1225.16 5.80235 3.78549 0
M  V30 12685 N 1226.96 4.61025 3.21578 0
M  V30 12686 H 1219.11 2.10921 0.250187 0
M  V30 12687 H 1221.37 0.931986 0.17351 0
M  V30 12688 H 1221.08 3.30006 1.21609 0
M  V30 12689 H 1220.95 2.53709 2.79127 0
M  V30 12690 H 1223.34 1.59427 2.48328 0
M  V30 12691 H 1223.42 2.39216 0.906058 0
M  V30 12692 H 1223.06 4.64569 2.05275 0
M  V30 12693 H 1222.99 3.81675 3.62811 0
M  V30 12694 H 1225.48 3.00138 2.29621 0
M  V30 12695 H 1225.8 6.49759 4.1837 0
M  V30 12696 H 1224.14 5.83969 3.76836 0
M  V30 12697 H 1227.33 3.76836 2.77691 0
M  V30 12698 H 1227.5 5.36253 3.63781 0
M  V30 12699 N 1220.91 -1.05686 1.16912 0
M  V30 12700 C 1222.33 -1.30744 0.915327 0
M  V30 12701 C 1222.53 -1.96895 -0.428344 0
M  V30 12702 O 1221.58 -2.23941 -1.16647 0
M  V30 12703 C 1222.9 -2.18209 2.06894 0
M  V30 12704 C 1224.44 -2.31607 2.1054 0
M  V30 12705 C 1224.92 -3.2243 3.25273 0
M  V30 12706 N 1226.41 -3.30015 3.2503 0
M  V30 12707 C 1227.14 -4.00401 4.10447 0
M  V30 12708 N 1226.64 -4.73256 5.05965 0
M  V30 12709 N 1228.43 -3.96514 3.98413 0
M  V30 12710 H 1220.58 -0.611449 2.03409 0
M  V30 12711 H 1222.85 -0.332188 0.887894 0
M  V30 12712 H 1222.55 -1.76887 3.0398 0
M  V30 12713 H 1222.43 -3.18823 2.01573 0
M  V30 12714 H 1224.81 -2.72173 1.14044 0
M  V30 12715 H 1224.9 -1.30639 2.19925 0
M  V30 12716 H 1224.54 -2.82579 4.22032 0
M  V30 12717 H 1224.47 -4.23392 3.13125 0
M  V30 12718 H 1226.96 -2.781 2.55869 0
M  V30 12719 H 1227.27 -5.24509 5.67547 0
M  V30 12720 H 1225.62 -4.72215 5.09939 0
M  V30 12721 H 1228.81 -3.38719 3.2309 0
M  V30 12722 H 1228.98 -4.511 4.65202 0
M  V30 12723 N 1222.39 -0.968567 -1.24324 0
M  V30 12724 C 1223.61 -0.648166 -1.97012 0
M  V30 12725 C 1224.04 0.775842 -1.71354 0
M  V30 12726 O 1223.4 1.52672 -0.977804 0
M  V30 12727 C 1223.44 -0.929974 -3.48402 0
M  V30 12728 O 1222.55 -0.015854 -4.12397 0
M  V30 12729 H 1221.89 -0.244961 -0.617163 0
M  V30 12730 H 1224.42 -1.29895 -1.58077 0
M  V30 12731 H 1224.43 -0.861863 -3.98793 0
M  V30 12732 H 1223.1 -1.96776 -3.66404 0
M  V30 12733 H 1221.68 -0.137361 -3.72647 0
M  V30 12734 N 1223.87 1.39211 -0.738786 0
M  V30 12735 C 1224.78 2.34374 -0.102958 0
M  V30 12736 C 1225.79 1.58514 0.717596 0
M  V30 12737 O 1226.97 1.90786 0.645186 0
M  V30 12738 C 1224.03 3.37562 0.790733 0
M  V30 12739 C 1223.09 4.29279 -0.0425028 0
M  V30 12740 C 1222.33 5.27539 0.808628 0
M  V30 12741 O 1222.55 5.32396 2.04722 0
M  V30 12742 O 1221.48 6.0144 0.235279 0
M  V30 12743 H 1225.31 2.90412 -0.888498 0
M  V30 12744 H 1222.9 1.40803 -0.499498 0
M  V30 12745 H 1224.78 4.00783 1.30196 0
M  V30 12746 H 1223.45 2.83903 1.55502 0
M  V30 12747 H 1222.36 3.69268 -0.599335 0
M  V30 12748 H 1223.69 4.86154 -0.7691 0
M  V30 12749 N 1225.34 0.486708 1.49896 0
M  V30 12750 C 1226.57 -0.0622999 2.07306 0
M  V30 12751 C 1226.99 -1.31353 1.3464 0
M  V30 12752 O 1226.35 -1.76861 0.398752 0
M  V30 12753 C 1226.4 -0.313481 3.59235 0
M  V30 12754 O 1225.5 -1.39101 3.88233 0
M  V30 12755 H 1224.85 0.0198885 0.663702 0
M  V30 12756 H 1227.38 0.682232 1.92891 0
M  V30 12757 H 1227.39 -0.549302 4.04285 0
M  V30 12758 H 1226.06 0.600767 4.11538 0
M  V30 12759 H 1224.64 -1.14127 3.55006 0
M  V30 12760 N 1226.82 -1.56058 0.219941 0
M  V30 12761 C 1228.05 -2.02652 -0.417101 0
M  V30 12762 C 1228.47 -1.09977 -1.53461 0
M  V30 12763 O 1227.82 -0.109088 -1.82174 0
M  V30 12764 C 1227.87 -3.48787 -0.950244 0
M  V30 12765 O 1227.6 -4.37928 0.12271 0
M  V30 12766 C 1229.1 -4.11018 -1.66069 0
M  V30 12767 H 1226.32 -0.663163 -0.102254 0
M  V30 12768 H 1228.86 -2.01722 0.335923 0
M  V30 12769 H 1227.02 -3.50338 -1.65355 0
M  V30 12770 H 1227.43 -5.23764 -0.277785 0
M  V30 12771 H 1228.9 -5.15046 -1.98575 0
M  V30 12772 H 1229.38 -3.55921 -2.57326 0
M  V30 12773 H 1229.99 -4.13313 -1.00263 0
M  V30 12774 N 1228.3 0.053464 -1.57509 0
M  V30 12775 C 1229.55 0.749102 -1.88135 0
M  V30 12776 C 1229.88 1.76642 -0.814111 0
M  V30 12777 O 1229.13 1.94796 0.187845 0
M  V30 12778 C 1229.43 1.47666 -3.25468 0
M  V30 12779 C 1229.1 0.597619 -4.46922 0
M  V30 12780 C 1227.76 0.355429 -4.79886 0
M  V30 12781 C 1230.11 -0.0107869 -5.21199 0
M  V30 12782 C 1227.44 -0.504347 -5.84528 0
M  V30 12783 C 1229.79 -0.858123 -6.26753 0
M  V30 12784 C 1228.45 -1.11001 -6.58206 0
M  V30 12785 H 1227.72 0.274116 -0.688434 0
M  V30 12786 H 1230.37 0.00944162 -1.91498 0
M  V30 12787 H 1228.68 2.28901 -3.1798 0
M  V30 12788 H 1230.37 2.02002 -3.46404 0
M  V30 12789 H 1226.96 0.796526 -4.21134 0
M  V30 12790 H 1231.15 0.163404 -4.96031 0
M  V30 12791 H 1226.4 -0.708057 -6.07286 0
M  V30 12792 H 1230.58 -1.3362 -6.83461 0
M  V30 12793 H 1228.2 -1.77798 -7.39116 0
M  V30 12794 N 1229.78 1.54207 0.325255 0
M  V30 12795 C 1230.71 1.86467 1.40543 0
M  V30 12796 C 1231.69 0.721324 1.54048 0
M  V30 12797 O 1232.88 0.974905 1.67956 0
M  V30 12798 C 1230.01 2.09052 2.77335 0
M  V30 12799 C 1228.96 3.24893 2.78619 0
M  V30 12800 C 1228.29 3.32846 4.1847 0
M  V30 12801 C 1229.59 4.62582 2.42518 0
M  V30 12802 H 1231.28 2.76932 1.13794 0
M  V30 12803 H 1228.83 1.33248 0.545971 0
M  V30 12804 H 1230.78 2.30204 3.52964 0
M  V30 12805 H 1229.5 1.15335 3.05558 0
M  V30 12806 H 1228.16 3.03625 2.05444 0
M  V30 12807 H 1227.81 2.3669 4.43832 0
M  V30 12808 H 1227.51 4.10701 4.20237 0
M  V30 12809 H 1229.03 3.56231 4.95915 0
M  V30 12810 H 1230.45 4.83627 3.07861 0
M  V30 12811 H 1228.84 5.42974 2.55538 0
M  V30 12812 H 1229.91 4.64946 1.3767 0
M  V30 12813 N 1231.26 -0.58723 1.46251 0
M  V30 12814 C 1232.21 -1.71771 1.56836 0
M  V30 12815 C 1233.2 -1.63664 0.437096 0
M  V30 12816 O 1234.41 -1.69212 0.613797 0
M  V30 12817 H 1230.78 -0.567841 0.493012 0
M  V30 12818 H 1232.75 -1.59974 2.51895 0
M  V30 12819 C 1231.5 -3.10159 1.57152 0
M  V30 12820 H 1230.82 -3.17066 2.43535 0
M  V30 12821 H 1232.26 -3.89032 1.68613 0
M  V30 12822 C 1230.72 -3.35567 0.299374 0
M  V30 12823 O 1231.25 -3.97006 -0.612291 0
M  V30 12824 N 1229.46 -2.89987 0.188695 0
M  V30 12825 H 1229.01 -2.4017 0.93147 0
M  V30 12826 H 1228.96 -3.0736 -0.661612 0
M  V30 12827 N 1232.74 -1.33881 -0.831482 0
M  V30 12828 C 1233.98 -1.25942 -1.58955 0
M  V30 12829 C 1234.31 0.172542 -1.93432 0
M  V30 12830 O 1233.59 1.11577 -1.59314 0
M  V30 12831 C 1233.87 -2.14193 -2.89471 0
M  V30 12832 C 1233.73 -3.65883 -2.61628 0
M  V30 12833 C 1235.04 -2.02071 -3.90967 0
M  V30 12834 H 1232.16 -0.458841 -0.576744 0
M  V30 12835 H 1234.81 -1.64052 -0.958482 0
M  V30 12836 H 1232.96 -1.81821 -3.43327 0
M  V30 12837 H 1234.63 -4.08581 -2.14148 0
M  V30 12838 H 1232.87 -3.87397 -1.95208 0
M  V30 12839 H 1233.54 -4.22988 -3.54662 0
M  V30 12840 H 1236.02 -2.30476 -3.46439 0
M  V30 12841 H 1234.89 -2.66059 -4.80108 0
M  V30 12842 H 1235.15 -0.995121 -4.30755 0
M  V30 12843 N 1234.21 1.05064 -1.1747 0
M  V30 12844 C 1235.12 2.16346 -0.907286 0
M  V30 12845 C 1236.14 1.7355 0.125013 0
M  V30 12846 O 1237.32 2.01326 -0.0545551 0
M  V30 12847 C 1234.38 3.44077 -0.425681 0
M  V30 12848 C 1233.44 4.01311 -1.52473 0
M  V30 12849 C 1232.67 5.22946 -1.06601 0
M  V30 12850 O 1232.9 5.70345 0.0793329 0
M  V30 12851 O 1231.83 5.72454 -1.85958 0
M  V30 12852 H 1235.66 2.41754 -1.83817 0
M  V30 12853 H 1233.24 1.14834 -0.955693 0
M  V30 12854 H 1235.12 4.21078 -0.164689 0
M  V30 12855 H 1233.8 3.20166 0.477037 0
M  V30 12856 H 1232.71 3.25744 -1.83961 0
M  V30 12857 H 1234.04 4.29543 -2.4032 0
M  V30 12858 N 1235.69 0.975146 1.23809 0
M  V30 12859 C 1236.64 0.503396 2.27087 0
M  V30 12860 C 1237.63 -0.43689 1.63669 0
M  V30 12861 O 1238.84 -0.31136 1.77287 0
M  V30 12862 H 1235.21 0.144346 0.738017 0
M  V30 12863 H 1237.19 1.38627 2.64244 0
M  V30 12864 C 1235.93 -0.183682 3.47214 0
M  V30 12865 H 1235.26 0.530753 3.96261 0
M  V30 12866 H 1236.7 -0.477479 4.21303 0
M  V30 12867 C 1235.16 -1.41317 3.05829 0
M  V30 12868 O 1235.69 -2.50975 3.13647 0
M  V30 12869 N 1233.89 -1.28191 2.60798 0
M  V30 12870 H 1233.44 -0.38967 2.54636 0
M  V30 12871 H 1233.4 -2.10565 2.33473 0
M  V30 12872 N 1237.17 -1.38817 0.746158 0
M  V30 12873 C 1238.1 -2.29081 0.0737986 0
M  V30 12874 C 1239.11 -1.47377 -0.691656 0
M  V30 12875 O 1240.3 -1.70326 -0.533973 0
M  V30 12876 C 1237.4 -3.26185 -0.919607 0
M  V30 12877 C 1236.58 -4.36879 -0.213349 0
M  V30 12878 C 1235.64 -5.1422 -1.11644 0
M  V30 12879 O 1234.66 -5.66137 -0.589747 0
M  V30 12880 N 1235.86 -5.26488 -2.44521 0
M  V30 12881 H 1238.63 -2.87424 0.848966 0
M  V30 12882 H 1236.19 -1.50518 0.596314 0
M  V30 12883 H 1238.18 -3.74802 -1.52662 0
M  V30 12884 H 1236.75 -2.68793 -1.5959 0
M  V30 12885 H 1235.97 -3.89994 0.574285 0
M  V30 12886 H 1237.26 -5.08053 0.275655 0
M  V30 12887 H 1236.66 -4.85846 -2.89777 0
M  V30 12888 H 1235.21 -5.78505 -3.00291 0
M  V30 12889 N 1238.65 -0.49465 -1.49636 0
M  V30 12890 C 1239.6 0.300929 -2.30645 0
M  V30 12891 C 1240.59 0.968687 -1.38971 0
M  V30 12892 O 1241.8 0.897101 -1.56052 0
M  V30 12893 H 1238.17 0.1159 -0.743015 0
M  V30 12894 H 1240.14 -0.402387 -2.95674 0
M  V30 12895 C 1238.89 1.35638 -3.20153 0
M  V30 12896 H 1238.21 0.851946 -3.90617 0
M  V30 12897 H 1239.65 1.88515 -3.79787 0
M  V30 12898 C 1238.11 2.37112 -2.39331 0
M  V30 12899 O 1238.64 3.42867 -2.09298 0
M  V30 12900 N 1236.85 2.09421 -2.01473 0
M  V30 12901 H 1236.4 1.23441 -2.26097 0
M  V30 12902 H 1236.35 2.77545 -1.47703 0
M  V30 12903 N 1240.13 1.55939 -0.228214 0
M  V30 12904 C 1241.35 2.0287 0.406348 0
M  V30 12905 C 1241.77 1.1079 1.52876 0
M  V30 12906 O 1241.13 0.118747 1.82113 0
M  V30 12907 C 1241.18 3.49286 0.931734 0
M  V30 12908 O 1240.9 4.37857 -0.145933 0
M  V30 12909 C 1242.4 4.11893 1.63887 0
M  V30 12910 H 1239.62 0.663696 0.0987358 0
M  V30 12911 H 1242.16 2.01541 -0.346616 0
M  V30 12912 H 1240.32 3.5121 1.63494 0
M  V30 12913 H 1240.73 5.23904 0.250005 0
M  V30 12914 H 1242.21 5.16091 1.95841 0
M  V30 12915 H 1242.68 3.57281 2.55435 0
M  V30 12916 H 1243.29 4.13839 0.980697 0
M  V30 12917 N 1241.6 -0.0451101 1.57535 0
M  V30 12918 C 1243.02 -0.400463 1.54494 0
M  V30 12919 C 1243.22 -1.77584 0.952166 0
M  V30 12920 O 1242.28 -2.46069 0.566221 0
M  V30 12921 C 1243.59 -0.31703 2.99024 0
M  V30 12922 C 1245.14 -0.395284 3.10494 0
M  V30 12923 C 1245.61 -0.341475 4.56725 0
M  V30 12924 N 1247.1 -0.400755 4.61463 0
M  V30 12925 C 1247.84 -0.381757 5.72128 0
M  V30 12926 N 1247.33 -0.315995 6.92079 0
M  V30 12927 N 1249.13 -0.4303 5.60451 0
M  V30 12928 H 1241.28 0.855156 1.94424 0
M  V30 12929 H 1243.54 0.323618 0.891053 0
M  V30 12930 H 1243.25 0.627477 3.46057 0
M  V30 12931 H 1243.12 -1.11696 3.60283 0
M  V30 12932 H 1245.51 -1.33022 2.63418 0
M  V30 12933 H 1245.59 0.433709 2.52096 0
M  V30 12934 H 1245.23 0.589725 5.04465 0
M  V30 12935 H 1245.16 -1.18836 5.13016 0
M  V30 12936 H 1247.65 -0.454745 3.75154 0
M  V30 12937 H 1247.97 -0.306158 7.72193 0
M  V30 12938 H 1246.31 -0.282281 6.94427 0
M  V30 12939 H 1249.5 -0.479555 4.65637 0
M  V30 12940 H 1249.68 -0.412025 6.46689 0
M  V30 12941 N 1243.08 -1.54377 -0.317073 0
M  V30 12942 C 1244.03 -1.84948 -1.41057 0
M  V30 12943 C 1245.02 -0.721887 -1.53249 0
M  V30 12944 O 1246.23 -0.905648 -1.55557 0
M  V30 12945 H 1242.61 -0.586353 -0.470844 0
M  V30 12946 H 1244.58 -2.7638 -1.12501 0
M  V30 12947 C 1243.33 -2.09932 -2.77171 0
M  V30 12948 H 1242.65 -2.96162 -2.68566 0
M  V30 12949 H 1244.09 -2.35272 -3.52737 0
M  V30 12950 C 1242.55 -0.892855 -3.24853 0
M  V30 12951 O 1243.08 -0.105336 -4.01562 0
M  V30 12952 N 1241.28 -0.702685 -2.81976 0
M  V30 12953 H 1240.83 -1.34474 -2.19715 0
M  V30 12954 H 1240.79 0.103024 -3.14231 0
M  V30 12955 N 1244.56 0.579466 -1.4656 0
M  V30 12956 C 1245.79 1.36351 -1.55615 0
M  V30 12957 C 1246.2 1.87755 -0.198405 0
M  V30 12958 O 1245.56 1.63795 0.804834 0
M  V30 12959 C 1245.61 2.54881 -2.56355 0
M  V30 12960 O 1245.33 2.05607 -3.86856 0
M  V30 12961 C 1246.83 3.47391 -2.75381 0
M  V30 12962 H 1244.05 0.416426 -0.526147 0
M  V30 12963 H 1246.6 0.704134 -1.91995 0
M  V30 12964 H 1244.75 3.16802 -2.2297 0
M  V30 12965 H 1245.17 2.82823 -4.41714 0
M  V30 12966 H 1246.64 4.27031 -3.49783 0
M  V30 12967 H 1247.12 3.99532 -1.82403 0
M  V30 12968 H 1247.72 2.91303 -3.09875 0
M  V30 12969 N 1246.04 1.3432 0.824371 0
M  V30 12970 C 1247.26 1.2982 1.61745 0
M  V30 12971 C 1247.69 -0.125298 1.87682 0
M  V30 12972 O 1247.05 -1.08658 1.45131 0
M  V30 12973 C 1247.09 2.09327 2.93623 0
M  V30 12974 O 1246.2 1.4618 3.85623 0
M  V30 12975 H 1245.54 0.445929 0.491979 0
M  V30 12976 H 1248.07 1.77101 1.02452 0
M  V30 12977 H 1248.08 2.20629 3.43201 0
M  V30 12978 H 1246.75 3.12825 2.74069 0
M  V30 12979 H 1245.33 1.43611 3.44137 0
M  V30 12980 N 1247.52 -1.0444 1.18026 0
M  V30 12981 C 1248.48 -2.10532 0.906028 0
M  V30 12982 C 1249.48 -1.60443 -0.107022 0
M  V30 12983 O 1250.67 -1.73744 0.126001 0
M  V30 12984 C 1247.8 -3.39008 0.358625 0
M  V30 12985 H 1248.99 -2.36293 1.84677 0
M  V30 12986 H 1246.55 -1.20805 0.991763 0
M  V30 12987 H 1247.28 -3.18908 -0.588904 0
M  V30 12988 H 1247.07 -3.76678 1.08884 0
M  V30 12989 H 1248.56 -4.17189 0.185331 0
M  V30 12990 N 1248.99 -0.981699 -1.2329 0
M  V30 12991 C 1249.94 -0.515432 -2.26817 0
M  V30 12992 C 1250.94 0.428204 -1.63899 0
M  V30 12993 O 1252.14 0.301954 -1.77449 0
M  V30 12994 H 1248.52 -0.148257 -0.737241 0
M  V30 12995 H 1250.49 -1.40027 -2.63505 0
M  V30 12996 C 1249.24 0.165266 -3.47307 0
M  V30 12997 H 1248.56 -0.55176 -3.95974 0
M  V30 12998 H 1250 0.45513 -4.2155 0
M  V30 12999 C 1248.46 1.39693 -3.06574 0
M  V30 13000 O 1248.99 2.49308 -3.14974 0
M  V30 13001 N 1247.2 1.26806 -2.61474 0
M  V30 13002 H 1246.74 0.376161 -2.54839 0
M  V30 13003 H 1246.7 2.09324 -2.34587 0
M  V30 13004 N 1250.47 1.3842 -0.753509 0
M  V30 13005 C 1251.42 2.27774 -0.101443 0
M  V30 13006 C 1252.41 1.45196 0.693322 0
M  V30 13007 O 1253.6 1.67931 0.55929 0
M  V30 13008 C 1250.73 3.34064 0.790977 0
M  V30 13009 C 1249.81 4.24099 -0.010633 0
M  V30 13010 N 1250.2 4.94845 -1.047 0
M  V30 13011 C 1248.5 4.45476 0.216193 0
M  V30 13012 C 1249.2 5.61164 -1.53199 0
M  V30 13013 N 1248.18 5.36956 -0.847304 0
M  V30 13014 H 1251.98 2.79935 -0.895188 0
M  V30 13015 H 1249.5 1.51321 -0.589545 0
M  V30 13016 H 1251.49 3.96965 1.27375 0
M  V30 13017 H 1250.15 2.83461 1.58367 0
M  V30 13018 H 1251.16 4.97801 -1.42879 0
M  V30 13019 H 1247.84 4.05781 0.982238 0
M  V30 13020 H 1249.23 6.27756 -2.39525 0
M  V30 13021 N 1251.95 0.502579 1.49372 0
M  V30 13022 C 1253.2 -0.0432341 2.01654 0
M  V30 13023 C 1253.51 -1.379 1.38719 0
M  V30 13024 O 1254.72 -2.01159 1.82338 0
M  V30 13025 C 1253.17 -0.127509 3.59674 0
M  V30 13026 C 1252.78 1.20171 4.31582 0
M  V30 13027 C 1254.53 -0.623603 4.19895 0
M  V30 13028 C 1252.43 1.07951 5.81464 0
M  V30 13029 H 1251.36 -0.0199308 0.753737 0
M  V30 13030 H 1254.01 0.642237 1.71894 0
M  V30 13031 H 1252.4 -0.877465 3.86156 0
M  V30 13032 H 1253.57 1.96508 4.16799 0
M  V30 13033 H 1251.89 1.63136 3.83113 0
M  V30 13034 H 1254.48 -0.732562 5.29658 0
M  V30 13035 H 1254.83 -1.62282 3.83367 0
M  V30 13036 H 1255.36 0.0698641 3.97739 0
M  V30 13037 H 1252.1 2.05304 6.22519 0
M  V30 13038 H 1251.62 0.357051 5.98736 0
M  V30 13039 H 1253.3 0.758885 6.42534 0
M  V30 13040 N 1253.43 -1.55816 0.23648 0
M  V30 13041 C 1254.66 -2.02789 -0.39501 0
M  V30 13042 C 1255.07 -1.1153 -1.52832 0
M  V30 13043 O 1254.41 -0.120084 -1.83307 0
M  V30 13044 C 1254.47 -3.46052 -0.974066 0
M  V30 13045 C 1254.14 -4.56993 0.0256825 0
M  V30 13046 C 1255.13 -5.13208 0.831477 0
M  V30 13047 C 1252.82 -5.0208 0.148759 0
M  V30 13048 C 1254.81 -6.12994 1.74691 0
M  V30 13049 C 1252.5 -6.017 1.0677 0
M  V30 13050 C 1253.5 -6.57035 1.86531 0
M  V30 13051 O 1253.18 -7.54714 2.76878 0
M  V30 13052 H 1252.92 -0.668672 -0.0992687 0
M  V30 13053 H 1255.47 -2.02312 0.354826 0
M  V30 13054 H 1253.7 -3.43645 -1.77327 0
M  V30 13055 H 1255.39 -3.76586 -1.51453 0
M  V30 13056 H 1256.16 -4.79214 0.746922 0
M  V30 13057 H 1252.03 -4.58679 -0.461976 0
M  V30 13058 H 1255.58 -6.56111 2.36989 0
M  V30 13059 H 1251.48 -6.35115 1.15322 0
M  V30 13060 H 1252.24 -7.72292 2.71122 0
M  V30 13061 N 1254.91 0.036755 -1.57557 0
M  V30 13062 C 1255.86 1.04744 -2.02516 0
M  V30 13063 C 1256.84 1.3248 -0.913116 0
M  V30 13064 O 1258.03 1.32194 -1.17702 0
M  V30 13065 C 1255.16 2.3509 -2.50175 0
M  V30 13066 C 1254.25 2.10478 -3.68185 0
M  V30 13067 N 1254.64 1.55899 -4.81175 0
M  V30 13068 C 1252.94 2.40797 -3.7541 0
M  V30 13069 C 1253.64 1.46913 -5.62842 0
M  V30 13070 N 1252.61 1.94202 -5.07727 0
M  V30 13071 H 1256.42 0.619342 -2.873 0
M  V30 13072 H 1253.93 0.243208 -1.60569 0
M  V30 13073 H 1255.93 3.08297 -2.8064 0
M  V30 13074 H 1254.59 2.78586 -1.66793 0
M  V30 13075 H 1255.6 1.24275 -5.02769 0
M  V30 13076 H 1252.27 2.8742 -3.02813 0
M  V30 13077 H 1253.66 1.0527 -6.63602 0
M  V30 13078 N 1256.39 1.54543 0.308881 0
M  V30 13079 C 1257.34 1.81332 1.38212 0
M  V30 13080 C 1258.32 0.670056 1.46284 0
M  V30 13081 O 1259.51 0.930476 1.50569 0
M  V30 13082 C 1256.64 2.05713 2.7484 0
M  V30 13083 C 1255.73 3.26202 2.71023 0
M  V30 13084 N 1256.12 4.46933 2.36822 0
M  V30 13085 C 1254.42 3.28071 3.02135 0
M  V30 13086 C 1255.12 5.28923 2.42106 0
M  V30 13087 N 1254.09 4.66455 2.79143 0
M  V30 13088 H 1257.89 2.72246 1.10722 0
M  V30 13089 H 1255.41 1.53936 0.51743 0
M  V30 13090 H 1257.41 2.23049 3.52214 0
M  V30 13091 H 1256.07 1.16062 3.03249 0
M  V30 13092 H 1257.08 4.73674 2.09413 0
M  V30 13093 H 1253.75 2.48501 3.3549 0
M  V30 13094 H 1255.14 6.35369 2.1853 0
M  V30 13095 N 1257.86 -0.571685 1.46866 0
M  V30 13096 C 1259.09 -1.36008 1.56578 0
M  V30 13097 C 1259.51 -1.86909 0.211326 0
M  V30 13098 O 1258.87 -1.62179 -0.810421 0
M  V30 13099 C 1258.92 -2.51598 2.58323 0
M  V30 13100 O 1258.02 -3.53383 2.1259 0
M  V30 13101 H 1257.36 -0.404593 0.526498 0
M  V30 13102 H 1259.89 -0.692357 1.92529 0
M  V30 13103 H 1259.9 -2.98366 2.78283 0
M  V30 13104 H 1258.58 -2.13904 3.56676 0
M  V30 13105 H 1257.16 -3.13019 2.02666 0
M  V30 13106 N 1259.34 -1.34755 -0.817236 0
M  V30 13107 C 1260.59 -1.27432 -1.57377 0
M  V30 13108 C 1260.92 0.15419 -1.93888 0
M  V30 13109 O 1260.17 1.11686 -1.60701 0
M  V30 13110 C 1260.47 -2.11611 -2.8802 0
M  V30 13111 C 1260.14 -3.60543 -2.70776 0
M  V30 13112 C 1258.8 -4.01141 -2.6578 0
M  V30 13113 C 1261.15 -4.55089 -2.54053 0
M  V30 13114 C 1258.48 -5.34469 -2.41991 0
M  V30 13115 C 1260.83 -5.88603 -2.31795 0
M  V30 13116 C 1259.49 -6.28358 -2.25215 0
M  V30 13117 H 1258.76 -0.466305 -0.575882 0
M  V30 13118 H 1261.41 -1.66552 -0.945128 0
M  V30 13119 H 1259.72 -1.65336 -3.55206 0
M  V30 13120 H 1261.41 -2.03287 -3.45652 0
M  V30 13121 H 1258 -3.2832 -2.75506 0
M  V30 13122 H 1262.19 -4.24617 -2.56932 0
M  V30 13123 H 1257.44 -5.64284 -2.35359 0
M  V30 13124 H 1261.62 -6.61451 -2.17844 0
M  V30 13125 H 1259.24 -7.31604 -2.06543 0
M  V30 13126 N 1260.82 1.03812 -1.18578 0
M  V30 13127 C 1261.77 2.13994 -0.911563 0
M  V30 13128 C 1262.76 1.68907 0.129131 0
M  V30 13129 O 1263.97 1.7999 -0.0192557 0
M  V30 13130 H 1260.34 0.698996 -0.277324 0
M  V30 13131 H 1262.31 2.34318 -1.84763 0
M  V30 13132 C 1261.06 3.44689 -0.456591 0
M  V30 13133 H 1260.39 3.79793 -1.2489 0
M  V30 13134 H 1261.83 4.22911 -0.303738 0
M  V30 13135 C 1260.28 3.26568 0.827961 0
M  V30 13136 O 1260.81 3.54376 1.89158 0
M  V30 13137 N 1259.02 2.79893 0.781567 0
M  V30 13138 H 1258.57 2.57462 -0.0842145 0
M  V30 13139 H 1258.53 2.68148 1.64146 0
M  V30 13140 N 1262.3 0.988223 1.22768 0
M  V30 13141 C 1263.52 0.679426 1.95955 0
M  V30 13142 C 1263.95 -0.748483 1.72567 0
M  V30 13143 O 1263.31 -1.51097 1.00197 0
M  V30 13144 C 1263.35 0.985284 3.46878 0
M  V30 13145 O 1262.46 0.0814607 4.1232 0
M  V30 13146 H 1261.8 0.254749 0.613188 0
M  V30 13147 H 1264.33 1.32393 1.55991 0
M  V30 13148 H 1264.34 0.925198 3.97371 0
M  V30 13149 H 1263.01 2.02581 3.63227 0
M  V30 13150 H 1261.59 0.196629 3.72381 0
M  V30 13151 N 1263.78 -1.38018 0.760839 0
M  V30 13152 C 1264.71 -2.2899 0.0980916 0
M  V30 13153 C 1265.72 -1.48102 -0.675985 0
M  V30 13154 O 1266.91 -1.70883 -0.515878 0
M  V30 13155 C 1264.01 -3.27142 -0.884959 0
M  V30 13156 C 1263.18 -4.37081 -0.167 0
M  V30 13157 C 1262.24 -5.15375 -1.06184 0
M  V30 13158 O 1261.27 -5.6673 -0.529667 0
M  V30 13159 N 1262.47 -5.29052 -2.38924 0
M  V30 13160 H 1265.23 -2.86508 0.879403 0
M  V30 13161 H 1262.8 -1.49877 0.612245 0
M  V30 13162 H 1264.79 -3.764 -1.48678 0
M  V30 13163 H 1263.36 -2.70471 -1.5673 0
M  V30 13164 H 1262.58 -3.89363 0.615617 0
M  V30 13165 H 1263.87 -5.07732 0.329525 0
M  V30 13166 H 1263.26 -4.88892 -2.84607 0
M  V30 13167 H 1261.82 -5.81658 -2.94139 0
M  V30 13168 N 1265.25 -0.510493 -1.49103 0
M  V30 13169 C 1266.5 0.0305831 -2.02077 0
M  V30 13170 C 1266.82 1.36602 -1.39157 0
M  V30 13171 O 1266.09 1.88016 -0.550154 0
M  V30 13172 H 1264.67 0.0142916 -0.746863 0
M  V30 13173 H 1267.33 -0.669895 -1.83026 0
M  V30 13174 H 1266.43 0.153283 -3.11723 0
M  V30 13175 N 1266.73 1.55688 -0.24474 0
M  V30 13176 C 1268.14 1.84897 0.25882 0
M  V30 13177 C 1268.49 1.16653 1.57755 0
M  V30 13178 O 1267.62 0.444162 2.11793 0
M  V30 13179 C 1268.21 3.35434 0.476385 0
M  V30 13180 C 1266.77 3.64877 0.924213 0
M  V30 13181 C 1265.92 2.773 0.00021322 0
M  V30 13182 H 1268.87 1.51662 -0.467358 0
M  V30 13183 H 1268.89 3.56896 1.31929 0
M  V30 13184 H 1268.4 3.85076 -0.483567 0
M  V30 13185 H 1266.5 3.20711 1.89671 0
M  V30 13186 H 1266.62 4.72665 0.78257 0
M  V30 13187 H 1264.98 2.49517 0.511194 0
M  V30 13188 H 1265.76 3.29747 -0.955072 0
M  V30 13189 N 1268.21 -0.0283989 1.57574 0
M  V30 13190 C 1269.14 -1.05641 2.03403 0
M  V30 13191 C 1270.15 -1.32426 0.946953 0
M  V30 13192 O 1271.34 -1.29902 1.22425 0
M  V30 13193 C 1268.44 -2.39788 2.39489 0
M  V30 13194 C 1267.62 -2.32348 3.70585 0
M  V30 13195 C 1266.68 -3.4895 3.93853 0
M  V30 13196 O 1265.7 -3.28414 4.64901 0
M  V30 13197 N 1266.9 -4.7084 3.39543 0
M  V30 13198 H 1269.67 -0.665788 2.92211 0
M  V30 13199 H 1267.23 -0.21633 1.60448 0
M  V30 13200 H 1269.22 -3.16514 2.52193 0
M  V30 13201 H 1267.79 -2.70692 1.56348 0
M  V30 13202 H 1267.01 -1.40717 3.68229 0
M  V30 13203 H 1268.3 -2.24521 4.56582 0
M  V30 13204 H 1267.7 -4.90425 2.81956 0
M  V30 13205 H 1266.25 -5.44929 3.57625 0
M  V30 13206 N 1269.69 -1.54705 -0.300681 0
M  V30 13207 C 1270.62 -1.8205 -1.39249 0
M  V30 13208 C 1271.63 -0.703476 -1.46816 0
M  V30 13209 O 1272.82 -0.980957 -1.49129 0
M  V30 13210 C 1269.92 -1.94376 -2.77617 0
M  V30 13211 C 1269.09 -3.2478 -2.92979 0
M  V30 13212 C 1268.15 -3.27518 -4.11848 0
M  V30 13213 O 1267.18 -4.01047 -4.03918 0
M  V30 13214 N 1268.38 -2.52932 -5.22499 0
M  V30 13215 H 1271.15 -2.76279 -1.16146 0
M  V30 13216 H 1268.71 -1.54283 -0.49075 0
M  V30 13217 H 1270.7 -1.93609 -3.55384 0
M  V30 13218 H 1269.27 -1.07141 -2.93666 0
M  V30 13219 H 1268.49 -3.38319 -2.02322 0
M  V30 13220 H 1269.78 -4.10835 -3.00153 0
M  V30 13221 H 1269.18 -1.92825 -5.31822 0
M  V30 13222 H 1267.73 -2.57919 -5.98599 0
M  V30 13223 N 1271.17 0.563888 -1.47167 0
M  V30 13224 C 1272.58 1.14603 -1.47388 0
M  V30 13225 C 1272.93 1.94907 -0.224916 0
M  V30 13226 O 1272.05 2.05745 0.670672 0
M  V30 13227 C 1272.65 2.08501 -2.67044 0
M  V30 13228 C 1271.21 2.62 -2.70246 0
M  V30 13229 C 1270.35 1.38244 -2.40383 0
M  V30 13230 H 1273.31 0.350833 -1.54774 0
M  V30 13231 H 1273.33 2.92272 -2.43634 0
M  V30 13232 H 1272.84 1.50027 -3.57929 0
M  V30 13233 H 1270.94 3.24292 -1.83482 0
M  V30 13234 H 1271.05 3.0345 -3.70749 0
M  V30 13235 H 1269.42 1.68692 -1.90827 0
M  V30 13236 H 1270.2 0.815726 -3.33468 0
M  V30 13237 N 1272.64 1.35187 0.810078 0
M  V30 13238 C 1273.92 1.18832 1.55365 0
M  V30 13239 C 1274.3 -0.233956 2.098 0
M  V30 13240 O 1273.65 -1.23701 1.92121 0
M  V30 13241 C 1273.86 2.25351 2.66492 0
M  V30 13242 C 1275.21 2.60981 3.34924 0
M  V30 13243 O 1276.23 2.24238 2.7676 0
M  V30 13244 O 1275.09 3.24147 4.3999 0
M  V30 13245 H 1272.18 0.461446 0.686292 0
M  V30 13246 H 1274.73 1.46858 0.850341 0
M  V30 13247 H 1273.5 3.20762 2.24115 0
M  V30 13248 H 1273.13 1.98575 3.44462 0
M  V30 13249 N 1274.12 -1.03182 1.19127 0
M  V30 13250 C 1275.05 -2.13301 0.94999 0
M  V30 13251 C 1276.03 -1.69707 -0.115577 0
M  V30 13252 O 1277.22 -1.94161 0.0388395 0
M  V30 13253 C 1274.35 -3.43902 0.484637 0
M  V30 13254 C 1273.3 -4.01164 1.4917 0
M  V30 13255 C 1272.63 -5.2735 0.883537 0
M  V30 13256 C 1273.93 -4.36311 2.87107 0
M  V30 13257 H 1275.62 -2.33743 1.87095 0
M  V30 13258 H 1273.17 -1.12332 0.900977 0
M  V30 13259 H 1275.12 -4.20308 0.30315 0
M  V30 13260 H 1273.85 -3.23173 -0.471909 0
M  V30 13261 H 1272.5 -3.26849 1.66028 0
M  V30 13262 H 1272.15 -5.02936 -0.0804712 0
M  V30 13263 H 1271.85 -5.66624 1.55599 0
M  V30 13264 H 1273.38 -6.06425 0.71278 0
M  V30 13265 H 1274.79 -5.03666 2.73848 0
M  V30 13266 H 1273.19 -4.86659 3.51117 0
M  V30 13267 H 1274.26 -3.45743 3.39985 0
M  V30 13268 N 1275.6 -0.99472 -1.22242 0
M  V30 13269 C 1276.85 -0.667045 -1.90351 0
M  V30 13270 C 1277.16 0.804615 -1.78284 0
M  V30 13271 O 1278.37 1.24395 -2.41326 0
M  V30 13272 C 1276.82 -1.14256 -3.41282 0
M  V30 13273 C 1276.43 -2.63958 -3.61981 0
M  V30 13274 C 1278.18 -0.889302 -4.1508 0
M  V30 13275 C 1276.08 -3.05103 -5.06622 0
M  V30 13276 H 1275.01 -0.245795 -0.712812 0
M  V30 13277 H 1277.66 -1.20452 -1.38432 0
M  V30 13278 H 1276.05 -0.533203 -3.92394 0
M  V30 13279 H 1277.22 -3.30255 -3.21354 0
M  V30 13280 H 1275.54 -2.87186 -3.01518 0
M  V30 13281 H 1278.13 -1.17239 -5.21689 0
M  V30 13282 H 1278.48 0.174556 -4.15934 0
M  V30 13283 H 1279.01 -1.46095 -3.70002 0
M  V30 13284 H 1275.75 -4.10672 -5.1091 0
M  V30 13285 H 1275.27 -2.4351 -5.48145 0
M  V30 13286 H 1276.95 -2.96506 -5.75059 0
M  V30 13287 N 1277.08 1.37613 -0.768148 0
M  V30 13288 C 1278.33 1.99023 -0.327543 0
M  V30 13289 C 1278.64 1.61669 1.10103 0
M  V30 13290 O 1279.85 2.16155 1.64284 0
M  V30 13291 C 1278.3 3.55906 -0.534674 0
M  V30 13292 C 1277.91 4.02201 -1.97327 0
M  V30 13293 C 1279.65 4.24208 -0.157512 0
M  V30 13294 C 1277.56 5.51781 -2.12819 0
M  V30 13295 H 1276.49 0.744595 -0.118722 0
M  V30 13296 H 1279.14 1.5719 -0.946764 0
M  V30 13297 H 1277.52 3.95701 0.153951 0
M  V30 13298 H 1278.7 3.73661 -2.69655 0
M  V30 13299 H 1277.01 3.46671 -2.30669 0
M  V30 13300 H 1279.61 5.34107 -0.251824 0
M  V30 13301 H 1279.95 4.06636 0.89177 0
M  V30 13302 H 1280.49 3.89703 -0.798546 0
M  V30 13303 H 1277.23 5.74274 -3.16053 0
M  V30 13304 H 1276.75 5.82017 -1.4497 0
M  V30 13305 H 1278.42 6.17697 -1.92508 0
M  V30 13306 N 1278.56 0.518393 1.4883 0
M  V30 13307 C 1279.5 -0.264197 2.31095 0
M  V30 13308 C 1280.5 -0.946455 1.40494 0
M  V30 13309 O 1281.7 -0.872161 1.57459 0
M  V30 13310 H 1278.08 -0.104065 0.744765 0
M  V30 13311 H 1280.05 0.449375 2.94997 0
M  V30 13312 C 1278.8 -1.30527 3.2227 0
M  V30 13313 H 1278.12 -0.789695 3.91923 0
M  V30 13314 H 1279.56 -1.82449 3.82738 0
M  V30 13315 C 1278.02 -2.33274 2.43073 0
M  V30 13316 O 1278.55 -3.39493 2.14726 0
M  V30 13317 N 1276.76 -2.06189 2.04779 0
M  V30 13318 H 1276.3 -1.19829 2.28033 0
M  V30 13319 H 1276.26 -2.7516 1.521 0
M  V30 13320 N 1280.03 -1.55556 0.252993 0
M  V30 13321 C 1281.28 -1.98697 -0.369319 0
M  V30 13322 C 1281.6 -1.14256 -1.58021 0
M  V30 13323 O 1280.87 -0.226779 -1.94583 0
M  V30 13324 H 1279.45 -0.733869 -0.139444 0
M  V30 13325 H 1282.12 -1.91673 0.353197 0
M  V30 13326 H 1281.21 -3.04728 -0.674312 0
M  V30 13327 N 1281.51 0.0200419 -1.57587 0
M  V30 13328 C 1282.76 0.710078 -1.89962 0
M  V30 13329 C 1283.09 1.74521 -0.851829 0
M  V30 13330 O 1282.37 1.94052 0.132005 0
M  V30 13331 C 1282.65 1.37145 -3.32961 0
M  V30 13332 C 1282.5 0.349221 -4.48442 0
M  V30 13333 C 1283.82 2.30304 -3.75031 0
M  V30 13334 H 1280.94 0.25667 -0.690862 0
M  V30 13335 H 1283.58 -0.0271362 -1.89981 0
M  V30 13336 H 1281.73 1.99981 -3.33076 0
M  V30 13337 H 1283.4 -0.277916 -4.60462 0
M  V30 13338 H 1281.65 -0.330594 -4.32538 0
M  V30 13339 H 1282.32 0.850636 -5.45406 0
M  V30 13340 H 1284.79 1.77503 -3.7634 0
M  V30 13341 H 1283.67 2.73555 -4.75877 0
M  V30 13342 H 1283.93 3.17364 -3.07786 0
M  V30 13343 N 1282.99 1.54862 0.292472 0
M  V30 13344 C 1284.4 1.65459 0.864891 0
M  V30 13345 C 1284.75 0.568808 1.87774 0
M  V30 13346 O 1283.88 -0.293107 2.14406 0
M  V30 13347 C 1284.47 2.99939 1.5755 0
M  V30 13348 C 1283.03 3.12628 2.09621 0
M  V30 13349 C 1282.18 2.61179 0.931713 0
M  V30 13350 H 1285.13 1.58549 0.0692679 0
M  V30 13351 H 1285.15 2.91839 2.44152 0
M  V30 13352 H 1284.66 3.78943 0.838088 0
M  V30 13353 H 1282.76 2.3836 2.86383 0
M  V30 13354 H 1282.88 4.18911 2.32488 0
M  V30 13355 H 1281.24 2.17846 1.31967 0
M  V30 13356 H 1282.02 3.42669 0.208121 0
M  V30 13357 N 1284.47 -0.556076 1.47464 0
M  V30 13358 C 1285.4 -1.67275 1.62915 0
M  V30 13359 C 1286.38 -1.63229 0.478562 0
M  V30 13360 O 1287.56 -1.80833 0.708032 0
M  V30 13361 C 1284.69 -3.05911 1.64426 0
M  V30 13362 C 1283.65 -3.24804 2.78722 0
M  V30 13363 C 1282.97 -4.64238 2.65307 0
M  V30 13364 C 1284.27 -3.10071 4.20302 0
M  V30 13365 H 1285.97 -1.54601 2.56396 0
M  V30 13366 H 1283.51 -0.742337 1.23391 0
M  V30 13367 H 1285.47 -3.83878 1.73826 0
M  V30 13368 H 1284.19 -3.19547 0.675053 0
M  V30 13369 H 1282.85 -2.49246 2.68835 0
M  V30 13370 H 1282.5 -4.74675 1.66412 0
M  V30 13371 H 1282.2 -4.77828 3.41986 0
M  V30 13372 H 1283.72 -5.44339 2.76637 0
M  V30 13373 H 1285.14 -3.77855 4.3116 0
M  V30 13374 H 1283.53 -3.3517 4.97776 0
M  V30 13375 H 1284.6 -2.06803 4.38589 0
M  V30 13376 N 1285.95 -1.35615 -0.802897 0
M  V30 13377 C 1287.36 -1.26062 -1.37715 0
M  V30 13378 C 1287.71 0.105411 -1.95917 0
M  V30 13379 O 1286.83 1.00648 -1.91569 0
M  V30 13380 C 1287.43 -2.28261 -2.50365 0
M  V30 13381 C 1285.99 -2.22437 -3.03642 0
M  V30 13382 C 1285.14 -2.1377 -1.76629 0
M  V30 13383 H 1288.09 -1.46689 -0.605631 0
M  V30 13384 H 1288.11 -1.91122 -3.29017 0
M  V30 13385 H 1287.62 -3.27671 -2.07975 0
M  V30 13386 H 1285.72 -1.2645 -3.50487 0
M  V30 13387 H 1285.83 -3.14558 -3.61373 0
M  V30 13388 H 1284.2 -1.59806 -1.98328 0
M  V30 13389 H 1284.98 -3.15046 -1.36385 0
M  V30 13390 N 1287.43 1.02549 -1.19673 0
M  V30 13391 C 1288.34 2.14373 -0.952972 0
M  V30 13392 C 1289.35 1.73776 0.0881727 0
M  V30 13393 O 1290.53 2.01165 -0.0972471 0
M  V30 13394 C 1287.59 3.43096 -0.498569 0
M  V30 13395 C 1286.65 3.97987 -1.60951 0
M  V30 13396 C 1285.89 5.20567 -1.17669 0
M  V30 13397 O 1286.11 5.70385 -0.0416636 0
M  V30 13398 O 1285.04 5.6838 -1.98059 0
M  V30 13399 H 1288.87 2.378 -1.88904 0
M  V30 13400 H 1286.45 1.12781 -0.979836 0
M  V30 13401 H 1288.34 4.20634 -0.253968 0
M  V30 13402 H 1287.01 3.21105 0.409018 0
M  V30 13403 H 1285.92 3.21768 -1.90829 0
M  V30 13404 H 1287.25 4.24349 -2.49377 0
M  V30 13405 N 1288.9 1.00119 1.21713 0
M  V30 13406 C 1290.13 0.700431 1.94683 0
M  V30 13407 C 1290.55 -0.736333 1.73849 0
M  V30 13408 O 1289.9 -1.49778 1.04272 0
M  V30 13409 C 1289.95 1.00722 3.47185 0
M  V30 13410 O 1289.68 2.38754 3.67326 0
M  V30 13411 C 1291.18 0.725335 4.37326 0
M  V30 13412 H 1288.4 0.25843 0.619238 0
M  V30 13413 H 1290.94 1.3382 1.54636 0
M  V30 13414 H 1289.1 0.415117 3.85169 0
M  V30 13415 H 1289.51 2.49321 4.61454 0
M  V30 13416 H 1290.98 0.990202 5.43046 0
M  V30 13417 H 1291.46 -0.340649 4.37877 0
M  V30 13418 H 1292.07 1.29888 4.04981 0
M  V30 13419 N 1290.38 -1.37203 0.775435 0
M  V30 13420 C 1291.29 -2.34019 0.165062 0
M  V30 13421 C 1292.31 -1.6036 -0.675316 0
M  V30 13422 O 1293.48 -1.9243 -0.594375 0
M  V30 13423 C 1290.55 -3.3954 -0.700957 0
M  V30 13424 C 1289.61 -4.29015 0.156304 0
M  V30 13425 C 1288.84 -5.29497 -0.668476 0
M  V30 13426 O 1289.07 -5.37636 -1.90535 0
M  V30 13427 O 1288 -6.01852 -0.0757351 0
M  V30 13428 H 1291.83 -2.87955 0.965184 0
M  V30 13429 H 1289.41 -1.39429 0.536654 0
M  V30 13430 H 1291.29 -4.04094 -1.19524 0
M  V30 13431 H 1289.97 -2.87926 -1.4792 0
M  V30 13432 H 1288.87 -3.67549 0.69703 0
M  V30 13433 H 1290.21 -4.83944 0.897725 0
M  V30 13434 N 1291.86 -0.526279 -1.48553 0
M  V30 13435 C 1292.81 0.251938 -2.31232 0
M  V30 13436 C 1293.8 0.938991 -1.40994 0
M  V30 13437 O 1295.01 0.863798 -1.57919 0
M  V30 13438 H 1291.38 0.100114 -0.745306 0
M  V30 13439 H 1293.35 -0.465013 -2.94754 0
M  V30 13440 C 1292.1 1.28816 -3.22958 0
M  V30 13441 H 1291.43 0.768899 -3.92337 0
M  V30 13442 H 1292.87 1.80417 -3.837 0
M  V30 13443 C 1291.32 2.31982 -2.44307 0
M  V30 13444 O 1291.85 3.3835 -2.16523 0
M  V30 13445 N 1290.06 2.051 -2.05869 0
M  V30 13446 H 1289.61 1.18618 -2.28665 0
M  V30 13447 H 1289.57 2.74349 -1.53557 0
M  V30 13448 N 1293.34 1.5542 -0.261239 0
M  V30 13449 C 1294.57 2.03391 0.362698 0
M  V30 13450 C 1294.98 1.13947 1.51039 0
M  V30 13451 O 1294.32 0.149231 1.83093 0
M  V30 13452 C 1294.38 3.47558 0.918889 0
M  V30 13453 C 1294.04 4.56894 -0.0983829 0
M  V30 13454 C 1295.04 5.1182 -0.913018 0
M  V30 13455 C 1292.73 5.01779 -0.228616 0
M  V30 13456 C 1294.72 6.10138 -1.84421 0
M  V30 13457 C 1292.41 5.99926 -1.16329 0
M  V30 13458 C 1293.41 6.53984 -1.9696 0
M  V30 13459 O 1293.09 7.50214 -2.8885 0
M  V30 13460 H 1292.83 0.670166 0.0886182 0
M  V30 13461 H 1295.38 2.01722 -0.386967 0
M  V30 13462 H 1293.61 3.46423 1.71838 0
M  V30 13463 H 1295.3 3.78947 1.45443 0
M  V30 13464 H 1296.06 4.77965 -0.823066 0
M  V30 13465 H 1291.94 4.59356 0.388945 0
M  V30 13466 H 1295.49 6.52258 -2.47397 0
M  V30 13467 H 1291.38 6.332 -1.25412 0
M  V30 13468 H 1292.15 7.67881 -2.83374 0
M  V30 13469 N 1294.82 -0.0116844 1.57596 0
M  V30 13470 C 1296.04 -0.713924 1.94725 0
M  V30 13471 C 1296.47 -1.67157 0.862565 0
M  V30 13472 O 1295.82 -1.80401 -0.180308 0
M  V30 13473 C 1295.87 -1.43214 3.30941 0
M  V30 13474 O 1294.98 -2.5461 3.24419 0
M  V30 13475 H 1294.32 -0.190772 0.636005 0
M  V30 13476 H 1296.85 0.0380247 2.04565 0
M  V30 13477 H 1296.86 -1.79819 3.66237 0
M  V30 13478 H 1295.53 -0.729906 4.09445 0
M  V30 13479 H 1294.11 -2.20419 3.00782 0
M  V30 13480 N 1296.29 -1.55015 -0.284256 0
M  V30 13481 C 1297.54 -1.7509 -1.01733 0
M  V30 13482 C 1297.87 -0.545803 -1.86685 0
M  V30 13483 O 1297.12 0.471951 -1.89924 0
M  V30 13484 C 1297.42 -3.00246 -1.93874 0
M  V30 13485 C 1297.09 -4.33295 -1.24764 0
M  V30 13486 C 1295.75 -4.69459 -1.0565 0
M  V30 13487 C 1298.1 -5.15704 -0.754939 0
M  V30 13488 C 1295.43 -5.85596 -0.35976 0
M  V30 13489 C 1297.78 -6.32559 -0.0718473 0
M  V30 13490 C 1296.45 -6.67371 0.131104 0
M  V30 13491 H 1295.72 -0.6407 -0.372269 0
M  V30 13492 H 1298.36 -1.89282 -0.290638 0
M  V30 13493 H 1296.67 -2.80907 -2.73127 0
M  V30 13494 H 1298.37 -3.12974 -2.50696 0
M  V30 13495 H 1294.96 -4.04865 -1.4065 0
M  V30 13496 H 1299.14 -4.8825 -0.89027 0
M  V30 13497 H 1294.4 -6.11099 -0.19169 0
M  V30 13498 H 1298.57 -6.95675 0.317743 0
M  V30 13499 H 1296.2 -7.57215 0.672977 0
M  V30 13500 N 1297.77 0.548248 -1.47757 0
M  V30 13501 C 1299.05 1.3092 -1.45325 0
M  V30 13502 C 1299.43 2.1053 -0.155008 0
M  V30 13503 O 1298.78 2.11558 0.863455 0
M  V30 13504 C 1298.99 2.20614 -2.70426 0
M  V30 13505 C 1300.33 2.81345 -3.18009 0
M  V30 13506 O 1301.36 2.30911 -2.71216 0
M  V30 13507 O 1300.22 3.73036 -3.99383 0
M  V30 13508 H 1297.31 0.58996 -0.579548 0
M  V30 13509 H 1299.86 0.56641 -1.59968 0
M  V30 13510 H 1298.63 1.61449 -3.56441 0
M  V30 13511 H 1298.25 3.02173 -2.58413 0
M  V30 13512 N 1299.25 1.36039 0.795694 0
M  V30 13513 C 1300.47 1.33222 1.58955 0
M  V30 13514 C 1300.9 -0.0854596 1.87906 0
M  V30 13515 O 1300.26 -1.05555 1.47403 0
M  V30 13516 C 1300.31 2.15508 2.89117 0
M  V30 13517 O 1299.41 1.54327 3.82436 0
M  V30 13518 H 1298.75 0.456264 0.48241 0
M  V30 13519 H 1301.28 1.79234 0.986726 0
M  V30 13520 H 1301.29 2.2786 3.38444 0
M  V30 13521 H 1299.97 3.18568 2.67371 0
M  V30 13522 H 1298.54 1.50879 3.41013 0
M  V30 13523 N 1300.73 -1.01913 1.20215 0
M  V30 13524 C 1301.68 -2.12516 0.945493 0
M  V30 13525 C 1302.67 -1.69091 -0.102243 0
M  V30 13526 O 1303.88 -1.79936 0.047888 0
M  V30 13527 H 1300.25 -0.694496 0.288409 0
M  V30 13528 H 1302.22 -2.31349 1.88468 0
M  V30 13529 C 1300.97 -3.43919 0.51137 0
M  V30 13530 H 1300.29 -3.77758 1.30916 0
M  V30 13531 H 1301.73 -4.22374 0.370981 0
M  V30 13532 C 1300.19 -3.27844 -0.775902 0
M  V30 13533 O 1300.72 -3.5734 -1.83496 0
M  V30 13534 N 1298.93 -2.81101 -0.73694 0
M  V30 13535 H 1298.48 -2.57296 0.125164 0
M  V30 13536 H 1298.43 -2.70726 -1.59859 0
M  V30 13537 N 1302.21 -1.00763 -1.2118 0
M  V30 13538 C 1303.44 -0.709715 -1.94027 0
M  V30 13539 C 1303.84 0.732135 -1.7446 0
M  V30 13540 O 1303.19 1.50731 -1.05004 0
M  V30 13541 C 1303.25 -0.95427 -3.46603 0
M  V30 13542 C 1302.91 -2.38347 -3.89923 0
M  V30 13543 C 1303.91 -3.36383 -3.96412 0
M  V30 13544 C 1301.6 -2.72183 -4.22163 0
M  V30 13545 C 1303.59 -4.66321 -4.34538 0
M  V30 13546 C 1301.28 -4.02336 -4.59966 0
M  V30 13547 C 1302.27 -4.99216 -4.66125 0
M  V30 13548 O 1301.96 -6.27041 -5.03065 0
M  V30 13549 H 1301.69 -0.260545 -0.623773 0
M  V30 13550 H 1304.25 -1.34922 -1.54872 0
M  V30 13551 H 1302.48 -0.257599 -3.85841 0
M  V30 13552 H 1304.17 -0.649333 -4.00673 0
M  V30 13553 H 1304.93 -3.11578 -3.71677 0
M  V30 13554 H 1300.81 -1.97468 -4.16566 0
M  V30 13555 H 1304.36 -5.41938 -4.3926 0
M  V30 13556 H 1300.25 -4.26924 -4.84155 0
M  V30 13557 H 1301.02 -6.31196 -5.21089 0
M  V30 13558 N 1303.68 1.3679 -0.7827 0
M  V30 13559 C 1304.93 1.99712 -0.352533 0
M  V30 13560 C 1305.26 1.61984 1.0712 0
M  V30 13561 O 1304.54 0.871342 1.7389 0
M  V30 13562 C 1304.82 3.5649 -0.508628 0
M  V30 13563 C 1304.67 4.04093 -1.97557 0
M  V30 13564 C 1305.99 4.40026 0.0804447 0
M  V30 13565 H 1303.11 0.725522 -0.129566 0
M  V30 13566 H 1305.75 1.62305 -0.987788 0
M  V30 13567 H 1303.9 3.88487 0.0321664 0
M  V30 13568 H 1305.58 3.82613 -2.57691 0
M  V30 13569 H 1303.82 3.55881 -2.48055 0
M  V30 13570 H 1304.49 5.13088 -2.03579 0
M  V30 13571 H 1306.97 4.14351 -0.381113 0
M  V30 13572 H 1305.84 5.48868 -0.0588424 0
M  V30 13573 H 1306.1 4.26285 1.17189 0
M  V30 13574 N 1305.16 0.53415 1.48272 0
M  V30 13575 C 1306.11 -0.239672 2.31362 0
M  V30 13576 C 1307.1 -0.931501 1.4149 0
M  V30 13577 O 1308.31 -0.855411 1.58375 0
M  V30 13578 H 1304.69 -0.09616 0.745827 0
M  V30 13579 H 1306.66 0.480638 2.94504 0
M  V30 13580 C 1305.41 -1.27102 3.23636 0
M  V30 13581 H 1304.73 -0.748082 3.92739 0
M  V30 13582 H 1306.17 -1.78379 3.84652 0
M  V30 13583 C 1304.63 -2.30683 2.45534 0
M  V30 13584 O 1305.16 -3.37197 2.18314 0
M  V30 13585 N 1303.36 -2.04006 2.06954 0
M  V30 13586 H 1302.91 -1.17403 2.29291 0
M  V30 13587 H 1302.87 -2.73531 1.5501 0
M  V30 13588 N 1306.64 -1.55279 0.269478 0
M  V30 13589 C 1307.87 -2.04334 -0.355313 0
M  V30 13590 C 1308.29 -1.14677 -1.491 0
M  V30 13591 O 1307.65 -0.144215 -1.80726 0
M  V30 13592 C 1307.7 -3.51172 -0.819162 0
M  V30 13593 O 1306.8 -3.64615 -1.9269 0
M  V30 13594 H 1306.14 -0.659827 -0.0743229 0
M  V30 13595 H 1308.67 -2.00609 0.402131 0
M  V30 13596 H 1308.68 -3.92428 -1.11642 0
M  V30 13597 H 1307.36 -4.15898 0.0117821 0
M  V30 13598 H 1305.93 -3.35261 -1.63261 0
M  V30 13599 N 1308.12 0.00332656 -1.576 0
M  V30 13600 C 1309.53 0.359361 -1.55502 0
M  V30 13601 C 1309.73 1.74997 -0.998914 0
M  V30 13602 O 1308.79 2.44482 -0.631263 0
M  V30 13603 C 1310.1 0.237638 -2.9976 0
M  V30 13604 C 1311.65 0.312824 -3.11433 0
M  V30 13605 C 1312.13 0.220262 -4.5747 0
M  V30 13606 N 1313.62 0.278265 -4.62363 0
M  V30 13607 C 1314.35 0.229933 -5.72939 0
M  V30 13608 N 1313.85 0.132391 -6.92673 0
M  V30 13609 N 1315.64 0.281555 -5.61394 0
M  V30 13610 H 1307.79 -0.906404 -1.92089 0
M  V30 13611 H 1310.06 -0.347129 -0.88216 0
M  V30 13612 H 1309.76 -0.719007 -3.44272 0
M  V30 13613 H 1309.64 1.02105 -3.63118 0
M  V30 13614 H 1312.02 1.25991 -2.66852 0
M  V30 13615 H 1312.1 -0.500395 -2.50858 0
M  V30 13616 H 1311.75 -0.723267 -5.02724 0
M  V30 13617 H 1311.68 1.05192 -5.15987 0
M  V30 13618 H 1314.17 0.35512 -3.76228 0
M  V30 13619 H 1314.48 0.101317 -7.72734 0
M  V30 13620 H 1312.83 0.0980665 -6.94931 0
M  V30 13621 H 1316.02 0.355931 -4.66745 0
M  V30 13622 H 1316.19 0.240423 -6.47554 0
M  V30 13623 N 1309.6 1.55164 0.276031 0
M  V30 13624 C 1310.56 1.87065 1.32436 0
M  V30 13625 C 1311.56 0.745024 1.42499 0
M  V30 13626 O 1312.75 1.01321 1.41702 0
M  V30 13627 C 1309.88 2.07322 2.70611 0
M  V30 13628 H 1311.07 2.80775 1.05382 0
M  V30 13629 H 1308.63 1.47609 0.513947 0
M  V30 13630 H 1309.36 1.15983 3.0285 0
M  V30 13631 H 1309.15 2.89275 2.64693 0
M  V30 13632 H 1310.64 2.33287 3.46362 0
M  V30 13633 N 1311.07 -0.540404 1.48045 0
M  V30 13634 C 1312.02 -1.64191 1.58194 0
M  V30 13635 C 1313.01 -1.54775 0.439703 0
M  V30 13636 O 1314.2 -1.62973 0.690572 0
M  V30 13637 C 1311.33 -3.02937 1.61505 0
M  V30 13638 C 1310.42 -3.17495 2.81172 0
M  V30 13639 N 1310.81 -3.02061 4.05701 0
M  V30 13640 C 1309.1 -3.4853 2.78286 0
M  V30 13641 C 1309.81 -3.19757 4.85932 0
M  V30 13642 N 1308.78 -3.46859 4.18557 0
M  V30 13643 H 1312.58 -1.50852 2.52232 0
M  V30 13644 H 1310.1 -0.745602 1.44272 0
M  V30 13645 H 1312.09 -3.82048 1.66868 0
M  V30 13646 H 1310.75 -3.17376 0.685753 0
M  V30 13647 H 1311.77 -2.79038 4.363 0
M  V30 13648 H 1308.44 -3.69391 1.94567 0
M  V30 13649 H 1309.83 -3.1265 5.94727 0
M  V30 13650 N 1312.55 -1.36459 -0.788468 0
M  V30 13651 C 1313.48 -1.33545 -1.91541 0
M  V30 13652 C 1314.46 -0.206762 -1.68839 0
M  V30 13653 O 1315.65 -0.404553 -1.89939 0
M  V30 13654 C 1312.78 -1.12492 -3.28577 0
M  V30 13655 C 1311.73 -2.22196 -3.65805 0
M  V30 13656 C 1311.06 -1.86285 -5.01201 0
M  V30 13657 C 1312.36 -3.64286 -3.7429 0
M  V30 13658 H 1314.05 -2.27844 -1.94236 0
M  V30 13659 H 1311.6 -1.09677 -0.933105 0
M  V30 13660 H 1313.55 -1.09089 -4.07035 0
M  V30 13661 H 1312.28 -0.146446 -3.26272 0
M  V30 13662 H 1310.93 -2.24727 -2.89644 0
M  V30 13663 H 1310.58 -0.87009 -4.95417 0
M  V30 13664 H 1310.28 -2.59734 -5.27079 0
M  V30 13665 H 1311.81 -1.84439 -5.82078 0
M  V30 13666 H 1313.22 -3.63977 -4.42937 0
M  V30 13667 H 1311.62 -4.36648 -4.11653 0
M  V30 13668 H 1312.69 -3.99123 -2.75371 0
M  V30 13669 N 1314.03 1.01274 -1.20754 0
M  V30 13670 C 1315.28 1.74342 -1.01428 0
M  V30 13671 C 1315.59 1.90265 0.453708 0
M  V30 13672 O 1316.8 2.60465 0.76618 0
M  V30 13673 C 1315.25 3.13588 -1.76609 0
M  V30 13674 C 1314.86 3.05664 -3.27526 0
M  V30 13675 C 1316.61 3.9084 -1.65664 0
M  V30 13676 C 1314.51 4.39942 -3.95228 0
M  V30 13677 H 1313.44 0.653619 -0.375897 0
M  V30 13678 H 1316.09 1.13214 -1.44412 0
M  V30 13679 H 1314.48 3.75281 -1.26413 0
M  V30 13680 H 1315.65 2.53256 -3.84965 0
M  V30 13681 H 1313.97 2.41904 -3.38927 0
M  V30 13682 H 1316.56 4.9019 -2.13583 0
M  V30 13683 H 1316.91 4.11754 -0.61351 0
M  V30 13684 H 1317.44 3.35783 -2.13294 0
M  V30 13685 H 1314.18 4.24229 -4.9971 0
M  V30 13686 H 1313.7 4.92342 -3.42578 0
M  V30 13687 H 1315.38 5.08771 -3.99701 0
M  V30 13688 N 1315.51 1.01404 1.20644 0
M  V30 13689 C 1316.46 0.582109 2.23339 0
M  V30 13690 C 1317.43 -0.39649 1.61298 0
M  V30 13691 O 1318.61 -0.296504 1.88482 0
M  V30 13692 C 1315.75 -0.076029 3.45016 0
M  V30 13693 C 1314.86 0.946829 4.21496 0
M  V30 13694 C 1314 0.26001 5.30563 0
M  V30 13695 C 1313.04 1.2698 5.98784 0
M  V30 13696 N 1312.18 0.609827 6.99447 0
M  V30 13697 H 1317.02 1.46248 2.59645 0
M  V30 13698 H 1314.55 0.732145 1.27585 0
M  V30 13699 H 1316.51 -0.474714 4.1449 0
M  V30 13700 H 1315.14 -0.920062 3.0941 0
M  V30 13701 H 1314.19 1.4637 3.51113 0
M  V30 13702 H 1315.5 1.71491 4.68393 0
M  V30 13703 H 1314.66 -0.19431 6.06389 0
M  V30 13704 H 1313.4 -0.540395 4.84697 0
M  V30 13705 H 1312.4 1.73453 5.21722 0
M  V30 13706 H 1313.63 2.07144 6.46737 0
M  V30 13707 H 1311.57 -0.170756 6.55778 0
M  V30 13708 H 1311.49 1.31601 7.44458 0
M  V30 13709 H 1312.76 0.179014 7.79294 0
M  V30 13710 N 1316.99 -1.36373 0.789944 0
M  V30 13711 C 1318.21 -2.04011 0.373396 0
M  V30 13712 C 1318.64 -1.59171 -1.00231 0
M  V30 13713 O 1318 -0.760431 -1.64582 0
M  V30 13714 C 1318.04 -3.5783 0.446083 0
M  V30 13715 O 1317.15 -4.08759 -0.54678 0
M  V30 13716 H 1316.49 -0.644807 0.158495 0
M  V30 13717 H 1319.02 -1.74317 1.0712 0
M  V30 13718 H 1319.03 -4.06822 0.309877 0
M  V30 13719 H 1317.7 -3.89819 1.44962 0
M  V30 13720 H 1316.28 -3.71038 -0.372192 0
M  V30 13721 N 1318.47 -0.542005 -1.47987 0
M  V30 13722 C 1319.69 -0.0146835 -2.07395 0
M  V30 13723 C 1320.12 1.26266 -1.39422 0
M  V30 13724 O 1319.47 1.75259 -0.464118 0
M  V30 13725 C 1319.52 0.179937 -3.60151 0
M  V30 13726 O 1318.63 1.24596 -3.93128 0
M  V30 13727 H 1317.97 -0.0445076 -0.662507 0
M  V30 13728 H 1320.5 -0.753352 -1.90226 0
M  V30 13729 H 1320.51 0.398876 -4.06046 0
M  V30 13730 H 1319.18 -0.753093 -4.09025 0
M  V30 13731 H 1317.76 1.00872 -3.58997 0
M  V30 13732 N 1319.94 1.55134 -0.277709 0
M  V30 13733 C 1321.17 2.04519 0.344472 0
M  V30 13734 C 1321.59 1.15466 1.4849 0
M  V30 13735 O 1320.95 0.153798 1.80646 0
M  V30 13736 C 1321 3.51602 0.800527 0
M  V30 13737 O 1320.1 3.65632 1.90754 0
M  V30 13738 H 1319.44 0.660212 0.0708226 0
M  V30 13739 H 1321.97 2.00393 -0.412764 0
M  V30 13740 H 1321.98 3.93015 1.09559 0
M  V30 13741 H 1320.66 4.15886 -0.033838 0
M  V30 13742 H 1319.24 3.36122 1.61481 0
M  V30 13743 N 1321.42 0.00503138 1.57599 0
M  V30 13744 C 1322.65 -0.689609 1.95069 0
M  V30 13745 C 1323.06 -1.67028 0.880183 0
M  V30 13746 O 1322.42 -1.81959 -0.140406 0
M  V30 13747 C 1322.47 -1.41709 3.32567 0
M  V30 13748 O 1322.19 -0.475746 4.35509 0
M  V30 13749 C 1323.69 -2.20578 3.84526 0
M  V30 13750 H 1320.91 -0.19175 0.643019 0
M  V30 13751 H 1323.46 0.057646 2.04419 0
M  V30 13752 H 1321.61 -2.11593 3.2451 0
M  V30 13753 H 1322.03 -0.989573 5.1508 0
M  V30 13754 H 1323.5 -2.66969 4.83148 0
M  V30 13755 H 1323.98 -3.03467 3.17497 0
M  V30 13756 H 1324.58 -1.557 3.95775 0
M  V30 13757 N 1322.9 -1.55308 -0.267798 0
M  V30 13758 C 1324.15 -1.76159 -0.998707 0
M  V30 13759 C 1324.47 -0.565573 -1.86095 0
M  V30 13760 O 1323.73 0.45178 -1.90414 0
M  V30 13761 C 1324.03 -3.02286 -1.90678 0
M  V30 13762 C 1323.69 -4.34594 -1.20161 0
M  V30 13763 C 1322.36 -4.70553 -1.00664 0
M  V30 13764 C 1324.71 -5.16475 -0.7002 0
M  V30 13765 C 1322.04 -5.85945 -0.297629 0
M  V30 13766 C 1324.39 -6.326 -0.00475187 0
M  V30 13767 C 1323.05 -6.67195 0.20188 0
M  V30 13768 H 1322.32 -0.644613 -0.365453 0
M  V30 13769 H 1324.97 -1.89579 -0.270545 0
M  V30 13770 H 1323.27 -2.83788 -2.70133 0
M  V30 13771 H 1324.97 -3.15615 -2.47362 0
M  V30 13772 H 1321.56 -4.06334 -1.36348 0
M  V30 13773 H 1325.75 -4.89167 -0.838435 0
M  V30 13774 H 1321 -6.11268 -0.126864 0
M  V30 13775 H 1325.18 -6.95299 0.39151 0
M  V30 13776 H 1322.8 -7.56459 0.753252 0
M  V30 13777 N 1324.38 0.532545 -1.4833 0
M  V30 13778 C 1325.32 1.63737 -1.62661 0
M  V30 13779 C 1326.29 1.59348 -0.468758 0
M  V30 13780 O 1327.48 1.77812 -0.691921 0
M  V30 13781 C 1324.62 3.02006 -1.66993 0
M  V30 13782 C 1323.73 3.16648 -2.93867 0
M  V30 13783 C 1322.87 4.4546 -2.89376 0
M  V30 13784 C 1321.91 4.53622 -4.10966 0
M  V30 13785 N 1321.04 5.7382 -4.04567 0
M  V30 13786 H 1325.88 1.50828 -2.57012 0
M  V30 13787 H 1323.42 0.734348 -1.27459 0
M  V30 13788 H 1325.38 3.82105 -1.67486 0
M  V30 13789 H 1324.01 3.13693 -0.76135 0
M  V30 13790 H 1323.06 2.29817 -3.0313 0
M  V30 13791 H 1324.37 3.1854 -3.8384 0
M  V30 13792 H 1323.53 5.33848 -2.88256 0
M  V30 13793 H 1322.27 4.46085 -1.97127 0
M  V30 13794 H 1321.27 3.63642 -4.12364 0
M  V30 13795 H 1322.5 4.54738 -5.04371 0
M  V30 13796 H 1320.44 5.75347 -3.15137 0
M  V30 13797 H 1320.36 5.77196 -4.88243 0
M  V30 13798 H 1321.63 6.64502 -4.07502 0
M  V30 13799 N 1325.86 1.36875 0.78122 0
M  V30 13800 C 1327.13 1.22101 1.52809 0
M  V30 13801 C 1327.51 -0.189402 2.10249 0
M  V30 13802 O 1326.86 -1.19598 1.94701 0
M  V30 13803 C 1327.07 2.30953 2.61652 0
M  V30 13804 C 1328.42 2.68027 3.29313 0
M  V30 13805 O 1329.44 2.30058 2.71941 0
M  V30 13806 O 1328.3 3.33407 4.33015 0
M  V30 13807 H 1325.4 0.4759 0.676349 0
M  V30 13808 H 1327.94 1.48629 0.818998 0
M  V30 13809 H 1326.71 3.25443 2.17261 0
M  V30 13810 H 1326.34 2.05837 3.40172 0
M  V30 13811 N 1327.33 -1.00632 1.21289 0
M  V30 13812 C 1328.26 -2.11238 0.995021 0
M  V30 13813 C 1329.24 -1.69914 -0.0795537 0
M  V30 13814 O 1330.43 -1.94035 0.0800152 0
M  V30 13815 C 1327.56 -3.42797 0.557475 0
M  V30 13816 C 1326.51 -3.97909 1.57646 0
M  V30 13817 C 1325.84 -5.25357 0.995197 0
M  V30 13818 C 1327.14 -4.30123 2.96297 0
M  V30 13819 H 1328.83 -2.29722 1.9201 0
M  V30 13820 H 1326.38 -1.10395 0.924602 0
M  V30 13821 H 1328.33 -4.19571 0.392236 0
M  V30 13822 H 1327.06 -3.24101 -0.403253 0
M  V30 13823 H 1325.72 -3.23254 1.72924 0
M  V30 13824 H 1325.36 -5.02993 0.026227 0
M  V30 13825 H 1325.06 -5.63196 1.67583 0
M  V30 13826 H 1326.59 -6.04777 0.841251 0
M  V30 13827 H 1328 -4.97744 2.8447 0
M  V30 13828 H 1326.4 -4.79101 3.61361 0
M  V30 13829 H 1327.47 -3.38454 3.47242 0
M  V30 13830 N 1328.81 -1.02043 -1.20104 0
M  V30 13831 C 1329.72 -0.603724 -2.26699 0
M  V30 13832 C 1330.74 0.360558 -1.70223 0
M  V30 13833 O 1331.91 0.220552 -2.00189 0
M  V30 13834 C 1328.98 0.0475988 -3.46667 0
M  V30 13835 C 1328.04 -0.963111 -4.18357 0
M  V30 13836 C 1327.27 -0.342775 -5.32598 0
M  V30 13837 O 1327.5 0.856509 -5.63933 0
M  V30 13838 O 1326.43 -1.06141 -5.92467 0
M  V30 13839 H 1330.26 -1.49125 -2.64566 0
M  V30 13840 H 1327.84 -0.790134 -1.26796 0
M  V30 13841 H 1329.72 0.411177 -4.19389 0
M  V30 13842 H 1328.4 0.909266 -3.10667 0
M  V30 13843 H 1327.3 -1.37813 -3.47791 0
M  V30 13844 H 1328.64 -1.79487 -4.58307 0
M  V30 13845 N 1330.29 1.35952 -0.797165 0
M  V30 13846 C 1331.54 1.98639 -0.372405 0
M  V30 13847 C 1331.86 1.63571 1.06158 0
M  V30 13848 O 1331.13 0.913516 1.73297 0
M  V30 13849 H 1329.71 0.734753 -0.13471 0
M  V30 13850 H 1332.37 1.66022 -1.02092 0
M  V30 13851 H 1331.47 3.08533 -0.47049 0
M  V30 13852 N 1331.77 0.549846 1.47697 0
M  V30 13853 C 1332.72 -0.215119 2.31603 0
M  V30 13854 C 1333.71 -0.916441 1.4247 0
M  V30 13855 O 1334.92 -0.838565 1.59274 0
M  V30 13856 H 1331.29 -0.0882441 0.746805 0
M  V30 13857 H 1333.26 0.511847 2.93977 0
M  V30 13858 C 1332.01 -1.23662 3.24966 0
M  V30 13859 H 1331.33 -0.706384 3.9351 0
M  V30 13860 H 1332.77 -1.7429 3.86522 0
M  V30 13861 C 1331.23 -2.28066 2.47967 0
M  V30 13862 O 1331.76 -3.34862 2.21879 0
M  V30 13863 N 1329.97 -2.01799 2.09106 0
M  V30 13864 H 1329.52 -1.14965 2.30523 0
M  V30 13865 H 1329.47 -2.71872 1.57902 0
M  V30 13866 N 1333.25 -1.54984 0.285932 0
M  V30 13867 C 1334.47 -2.04699 -0.333621 0
M  V30 13868 C 1334.9 -1.16252 -1.47875 0
M  V30 13869 O 1334.25 -0.163376 -1.80562 0
M  V30 13870 C 1334.3 -3.52022 -0.78187 0
M  V30 13871 O 1333.41 -3.66639 -1.88812 0
M  V30 13872 H 1332.75 -0.660579 -0.0673203 0
M  V30 13873 H 1335.28 -2.00171 0.423386 0
M  V30 13874 H 1335.29 -3.93591 -1.07473 0
M  V30 13875 H 1333.96 -4.15862 0.055893 0
M  V30 13876 H 1332.54 -3.36974 -1.59696 0
M  V30 13877 N 1334.72 -0.0133892 -1.57594 0
M  V30 13878 C 1335.65 0.972341 -2.12292 0
M  V30 13879 C 1336.64 1.34971 -1.03522 0
M  V30 13880 O 1337.82 1.4311 -1.31275 0
M  V30 13881 C 1334.95 2.25988 -2.63717 0
M  V30 13882 C 1333.9 2.02373 -3.77133 0
M  V30 13883 C 1333.23 3.37256 -4.14925 0
M  V30 13884 C 1334.53 1.37553 -5.03861 0
M  V30 13885 H 1336.22 0.516869 -2.94905 0
M  V30 13886 H 1333.77 0.247176 -1.41863 0
M  V30 13887 H 1335.72 2.95313 -3.00613 0
M  V30 13888 H 1334.45 2.73672 -1.78244 0
M  V30 13889 H 1333.11 1.3547 -3.40651 0
M  V30 13890 H 1332.75 3.82669 -3.26456 0
M  V30 13891 H 1332.45 3.22267 -4.91343 0
M  V30 13892 H 1333.98 4.07875 -4.5439 0
M  V30 13893 H 1335.39 1.96855 -5.38443 0
M  V30 13894 H 1333.79 1.33011 -5.85174 0
M  V30 13895 H 1334.86 0.346429 -4.83661 0
M  V30 13896 N 1336.2 1.55448 0.259558 0
M  V30 13897 C 1337.15 1.89248 1.32113 0
M  V30 13898 C 1338.12 0.745348 1.48438 0
M  V30 13899 O 1339.3 0.997854 1.62627 0
M  V30 13900 C 1336.44 2.18161 2.67394 0
M  V30 13901 C 1335.56 3.45614 2.59182 0
M  V30 13902 C 1334.69 3.6416 3.86731 0
M  V30 13903 C 1333.73 4.85258 3.73084 0
M  V30 13904 N 1332.87 5.00391 4.92497 0
M  V30 13905 H 1337.71 2.79785 1.02589 0
M  V30 13906 H 1335.25 1.38509 0.495338 0
M  V30 13907 H 1337.2 2.32927 3.46122 0
M  V30 13908 H 1335.83 1.30843 2.95093 0
M  V30 13909 H 1334.89 3.39248 1.72091 0
M  V30 13910 H 1336.2 4.34483 2.45002 0
M  V30 13911 H 1335.35 3.78817 4.73902 0
M  V30 13912 H 1334.09 2.73501 4.03793 0
M  V30 13913 H 1333.1 4.70591 2.84296 0
M  V30 13914 H 1334.32 5.77365 3.57528 0
M  V30 13915 H 1332.27 4.12666 5.09944 0
M  V30 13916 H 1332.18 5.83328 4.809 0
M  V30 13917 H 1333.45 5.19446 5.81202 0
M  V30 13918 N 1337.68 -0.524672 1.4861 0
M  V30 13919 C 1338.96 -1.28592 1.47389 0
M  V30 13920 C 1339.34 -2.10257 0.188482 0
M  V30 13921 O 1338.69 -2.12905 -0.829689 0
M  V30 13922 C 1338.9 -2.16284 2.73902 0
M  V30 13923 C 1340.24 -2.7625 3.22445 0
M  V30 13924 O 1341.27 -2.26567 2.74856 0
M  V30 13925 O 1340.13 -3.66635 4.05267 0
M  V30 13926 H 1337.22 -0.580666 0.58886 0
M  V30 13927 H 1339.77 -0.540888 1.60849 0
M  V30 13928 H 1338.54 -1.55757 3.58964 0
M  V30 13929 H 1338.16 -2.98024 2.63188 0
M  V30 13930 N 1339.16 -1.37287 -0.77395 0
M  V30 13931 C 1340.38 -1.35734 -1.56815 0
M  V30 13932 C 1340.81 0.0555546 -1.88018 0
M  V30 13933 O 1340.17 1.03197 -1.49064 0
M  V30 13934 C 1340.21 -2.2008 -2.85652 0
M  V30 13935 O 1339.32 -1.60391 -3.79932 0
M  V30 13936 H 1338.66 -0.463881 -0.47509 0
M  V30 13937 H 1341.19 -1.80781 -0.958087 0
M  V30 13938 H 1341.2 -2.33215 -3.34776 0
M  V30 13939 H 1339.87 -3.22781 -2.6227 0
M  V30 13940 H 1338.45 -1.56285 -3.3857 0
M  V30 13941 N 1340.64 0.999871 -1.21821 0
M  V30 13942 C 1341.88 1.73497 -1.0365 0
M  V30 13943 C 1342.21 1.90194 0.430271 0
M  V30 13944 O 1341.48 1.45655 1.31002 0
M  V30 13945 H 1340.06 0.642804 -0.380541 0
M  V30 13946 H 1342.72 1.20461 -1.53216 0
M  V30 13947 H 1341.81 2.73215 -1.50864 0
M  V30 13948 N 1342.11 1.02678 1.19562 0
M  V30 13949 C 1343.06 0.576385 2.20594 0
M  V30 13950 C 1344.05 -0.373747 1.56499 0
M  V30 13951 O 1345.24 -0.195058 1.75922 0
M  V30 13952 C 1342.37 -0.0735507 3.43221 0
M  V30 13953 C 1341.46 0.898896 4.14464 0
M  V30 13954 N 1341.85 2.06048 4.61928 0
M  V30 13955 C 1340.14 0.721889 4.40119 0
M  V30 13956 C 1340.85 2.67364 5.16615 0
M  V30 13957 N 1339.82 1.95344 5.07289 0
M  V30 13958 H 1343.62 1.46179 2.54968 0
M  V30 13959 H 1341.14 0.893484 1.35612 0
M  V30 13960 H 1343.13 -0.413825 4.14841 0
M  V30 13961 H 1341.79 -0.954671 3.10348 0
M  V30 13962 H 1342.81 2.43999 4.5682 0
M  V30 13963 H 1339.48 -0.110317 4.17354 0
M  V30 13964 H 1340.87 3.65726 5.63644 0
M  V30 13965 N 1343.59 -1.35528 0.804364 0
M  V30 13966 C 1344.5 -2.33616 0.214663 0
M  V30 13967 C 1345.52 -1.61757 -0.64115 0
M  V30 13968 O 1346.69 -1.93647 -0.553424 0
M  V30 13969 C 1343.76 -3.40951 -0.628778 0
M  V30 13970 C 1342.82 -4.28587 0.247269 0
M  V30 13971 C 1342.05 -5.30796 -0.556012 0
M  V30 13972 O 1342.28 -5.41557 -1.79088 0
M  V30 13973 O 1341.21 -6.01878 0.0519437 0
M  V30 13974 H 1345.04 -2.85843 1.02605 0
M  V30 13975 H 1342.62 -1.38259 0.566108 0
M  V30 13976 H 1344.5 -4.06538 -1.10926 0
M  V30 13977 H 1343.18 -2.90999 -1.4178 0
M  V30 13978 H 1342.09 -3.65988 0.774835 0
M  V30 13979 H 1343.42 -4.81931 1.00017 0
M  V30 13980 N 1345.07 -0.557671 -1.47404 0
M  V30 13981 C 1345.98 0.19289 -2.33806 0
M  V30 13982 C 1347 0.911424 -1.4822 0
M  V30 13983 O 1348.17 0.880214 -1.81147 0
M  V30 13984 C 1345.24 1.20937 -3.24923 0
M  V30 13985 C 1344.3 0.498209 -4.26399 0
M  V30 13986 C 1343.53 1.46626 -5.13163 0
M  V30 13987 O 1343.76 2.70111 -5.0239 0
M  V30 13988 O 1342.69 0.990497 -5.93694 0
M  V30 13989 H 1346.52 -0.515861 -2.99287 0
M  V30 13990 H 1344.1 -0.318283 -1.4597 0
M  V30 13991 H 1345.98 1.7961 -3.81206 0
M  V30 13992 H 1344.66 1.90003 -2.6207 0
M  V30 13993 H 1343.56 -0.129736 -3.73875 0
M  V30 13994 H 1344.9 -0.151015 -4.91968 0
M  V30 13995 N 1346.55 1.54831 -0.294147 0
M  V30 13996 C 1347.77 2.04873 0.32276 0
M  V30 13997 C 1348.2 1.17034 1.47257 0
M  V30 13998 O 1347.56 0.172949 1.80473 0
M  V30 13999 C 1347.61 3.52431 0.76319 0
M  V30 14000 O 1346.71 3.67635 1.86865 0
M  V30 14001 H 1346.05 0.660926 0.0638162 0
M  V30 14002 H 1348.58 1.99944 -0.433995 0
M  V30 14003 H 1348.59 3.94155 1.05385 0
M  V30 14004 H 1347.27 4.15827 -0.0779464 0
M  V30 14005 H 1345.84 3.37816 1.57907 0
M  V30 14006 N 1348.03 0.0217466 1.57585 0
M  V30 14007 C 1349.3 -0.696733 1.8277 0
M  V30 14008 C 1349.68 -1.90759 0.904112 0
M  V30 14009 O 1349.03 -2.28461 -0.0420522 0
M  V30 14010 C 1349.24 -1.08193 3.31806 0
M  V30 14011 C 1350.59 -1.47667 3.98095 0
M  V30 14012 O 1351.61 -1.17511 3.36258 0
M  V30 14013 O 1350.47 -2.03825 5.07068 0
M  V30 14014 H 1347.57 -0.341141 0.75336 0
M  V30 14015 H 1350.11 0.0488652 1.6963 0
M  V30 14016 H 1348.89 -0.219799 3.90682 0
M  V30 14017 H 1348.51 -1.88593 3.50026 0
M  V30 14018 N 1349.51 -1.55583 -0.251311 0
M  V30 14019 C 1350.44 -1.86388 -1.33387 0
M  V30 14020 C 1351.45 -0.749829 -1.44504 0
M  V30 14021 O 1352.64 -1.0279 -1.45933 0
M  V30 14022 C 1349.74 -2.0311 -2.71293 0
M  V30 14023 C 1348.91 -3.33937 -2.82498 0
M  V30 14024 C 1347.97 -3.40455 -4.01219 0
M  V30 14025 O 1347 -4.13695 -3.90954 0
M  V30 14026 N 1348.2 -2.69427 -5.14188 0
M  V30 14027 H 1350.96 -2.79834 -1.07298 0
M  V30 14028 H 1348.53 -1.55766 -0.441418 0
M  V30 14029 H 1350.52 -2.04817 -3.49045 0
M  V30 14030 H 1349.09 -1.16429 -2.90109 0
M  V30 14031 H 1348.31 -3.44584 -1.91456 0
M  V30 14032 H 1349.6 -4.20176 -2.86931 0
M  V30 14033 H 1348.99 -2.09647 -5.25419 0
M  V30 14034 H 1347.55 -2.76832 -5.90091 0
M  V30 14035 N 1350.98 0.516783 -1.48886 0
M  V30 14036 C 1352.21 1.29628 -1.61258 0
M  V30 14037 C 1352.63 1.86744 -0.27786 0
M  V30 14038 O 1351.98 1.67061 0.734639 0
M  V30 14039 C 1352.03 2.43779 -2.66935 0
M  V30 14040 O 1351.76 1.89014 -3.95228 0
M  V30 14041 C 1353.26 3.35398 -2.89867 0
M  V30 14042 H 1350.48 0.393736 -0.543335 0
M  V30 14043 H 1353.02 0.622069 -1.94809 0
M  V30 14044 H 1351.18 3.0706 -2.36206 0
M  V30 14045 H 1351.59 2.63833 -4.53312 0
M  V30 14046 H 1353.06 4.11812 -3.6758 0
M  V30 14047 H 1353.54 3.91436 -1.99185 0
M  V30 14048 H 1354.15 2.77898 -3.21952 0
M  V30 14049 N 1352.46 1.37696 0.766659 0
M  V30 14050 C 1353.74 1.23715 1.51506 0
M  V30 14051 C 1354.12 -0.167091 2.10438 0
M  V30 14052 O 1353.47 -1.17526 1.95959 0
M  V30 14053 C 1353.68 2.33715 2.59188 0
M  V30 14054 C 1355.02 2.71504 3.26451 0
M  V30 14055 O 1356.05 2.32929 2.69486 0
M  V30 14056 O 1354.91 3.37981 4.29454 0
M  V30 14057 H 1352 0.483046 0.671264 0
M  V30 14058 H 1354.55 1.49489 0.803188 0
M  V30 14059 H 1353.32 3.27729 2.13797 0
M  V30 14060 H 1352.94 2.09433 3.3797 0
M  V30 14061 N 1353.94 -0.993397 1.22349 0
M  V30 14062 C 1355.16 -1.77373 1.07488 0
M  V30 14063 C 1355.59 -1.84418 -0.37034 0
M  V30 14064 O 1354.95 -1.29629 -1.26752 0
M  V30 14065 C 1355 -3.18538 1.69014 0
M  V30 14066 O 1354.1 -4.01463 0.943474 0
M  V30 14067 H 1353.44 -0.546209 0.37756 0
M  V30 14068 H 1355.97 -1.24792 1.62136 0
M  V30 14069 H 1355.98 -3.6917 1.73717 0
M  V30 14070 H 1354.66 -3.12725 2.74182 0
M  V30 14071 H 1353.23 -3.59998 0.972415 0
M  V30 14072 N 1355.42 -1.03311 -1.19015 0
M  V30 14073 C 1356.33 -0.627735 -2.26046 0
M  V30 14074 C 1357.34 0.342483 -1.70596 0
M  V30 14075 O 1358.52 0.199307 -2.00411 0
M  V30 14076 C 1355.58 0.0108274 -3.46698 0
M  V30 14077 C 1354.65 -1.00743 -4.17312 0
M  V30 14078 C 1353.88 -0.399245 -5.32205 0
M  V30 14079 O 1354.1 0.796649 -5.64809 0
M  V30 14080 O 1353.04 -1.12419 -5.91308 0
M  V30 14081 H 1356.86 -1.51923 -2.6297 0
M  V30 14082 H 1354.45 -0.803538 -1.25951 0
M  V30 14083 H 1356.33 0.366672 -4.19802 0
M  V30 14084 H 1355 0.876265 -3.11614 0
M  V30 14085 H 1353.91 -1.41494 -3.4631 0
M  V30 14086 H 1355.24 -1.84338 -4.56377 0
M  V30 14087 N 1356.9 1.35099 -0.81154 0
M  V30 14088 C 1357.85 2.27139 -0.197958 0
M  V30 14089 C 1358.83 1.48006 0.631116 0
M  V30 14090 O 1360.02 1.70152 0.487562 0
M  V30 14091 C 1357.15 3.37118 0.648577 0
M  V30 14092 C 1356.24 4.23672 -0.190498 0
M  V30 14093 N 1356.63 4.89959 -1.25594 0
M  V30 14094 C 1354.93 4.45992 0.0270572 0
M  V30 14095 C 1355.63 5.54161 -1.76862 0
M  V30 14096 N 1354.6 5.32879 -1.07428 0
M  V30 14097 H 1358.4 2.75886 -1.01311 0
M  V30 14098 H 1355.92 1.48685 -0.653195 0
M  V30 14099 H 1357.92 4.0201 1.10423 0
M  V30 14100 H 1356.58 2.89922 1.46202 0
M  V30 14101 H 1357.59 4.91293 -1.63864 0
M  V30 14102 H 1354.26 4.09582 0.809248 0
M  V30 14103 H 1355.65 6.17032 -2.65935 0
M  V30 14104 N 1358.37 0.56548 1.47106 0
M  V30 14105 C 1359.65 -0.0215358 1.95588 0
M  V30 14106 C 1360.03 -1.47712 1.50813 0
M  V30 14107 O 1359.38 -2.15814 0.750776 0
M  V30 14108 C 1359.59 0.132552 3.48748 0
M  V30 14109 C 1360.94 -0.00853591 4.24599 0
M  V30 14110 O 1361.96 0.0605142 3.56149 0
M  V30 14111 O 1360.82 -0.158519 5.4627 0
M  V30 14112 H 1357.91 -0.0595011 0.824857 0
M  V30 14113 H 1360.46 0.632586 1.57469 0
M  V30 14114 H 1359.23 1.14511 3.7417 0
M  V30 14115 H 1358.85 -0.558801 3.93654 0
M  V30 14116 N 1359.85 -1.54672 0.302354 0
M  V30 14117 C 1361.1 -2.00463 -0.306978 0
M  V30 14118 C 1361.43 -1.19043 -1.53435 0
M  V30 14119 O 1360.71 -0.267255 -1.92655 0
M  V30 14120 C 1360.99 -3.53958 -0.662229 0
M  V30 14121 C 1360.84 -4.46118 0.574378 0
M  V30 14122 C 1362.16 -4.14174 -1.48821 0
M  V30 14123 H 1359.28 -0.728729 -0.110102 0
M  V30 14124 H 1361.92 -1.85419 0.414722 0
M  V30 14125 H 1360.07 -3.66909 -1.2771 0
M  V30 14126 H 1361.74 -4.45071 1.21284 0
M  V30 14127 H 1359.99 -4.1666 1.20736 0
M  V30 14128 H 1360.66 -5.51281 0.281651 0
M  V30 14129 H 1363.13 -4.04668 -0.968674 0
M  V30 14130 H 1362.01 -5.2173 -1.70556 0
M  V30 14131 H 1362.27 -3.66136 -2.47784 0
M  V30 14132 N 1361.33 -0.0301034 -1.57571 0
M  V30 14133 C 1362.26 0.980187 -2.07183 0
M  V30 14134 C 1363.28 1.2882 -0.995449 0
M  V30 14135 O 1364.46 1.25268 -1.27162 0
M  V30 14136 C 1361.56 2.30734 -2.48224 0
M  V30 14137 C 1360.74 2.18434 -3.78953 0
M  V30 14138 C 1359.8 3.34092 -4.06533 0
M  V30 14139 O 1358.82 3.10934 -4.76769 0
M  V30 14140 N 1360.02 4.57914 -3.56784 0
M  V30 14141 H 1362.79 0.556877 -2.94481 0
M  V30 14142 H 1360.35 0.156632 -1.61141 0
M  V30 14143 H 1362.34 3.06936 -2.63766 0
M  V30 14144 H 1360.91 2.64703 -1.66287 0
M  V30 14145 H 1360.13 1.26953 -3.73198 0
M  V30 14146 H 1361.42 2.07421 -4.64601 0
M  V30 14147 H 1360.82 4.79623 -2.99964 0
M  V30 14148 H 1359.38 5.31281 -3.77603 0
M  V30 14149 N 1362.81 1.55714 0.243056 0
M  V30 14150 C 1364.22 1.48224 0.591754 0
M  V30 14151 C 1364.42 0.72105 1.88157 0
M  V30 14152 O 1363.48 0.251966 2.5124 0
M  V30 14153 C 1364.79 2.92655 0.690918 0
M  V30 14154 C 1366.34 3.03048 0.782988 0
M  V30 14155 C 1366.82 4.48794 0.913682 0
M  V30 14156 N 1368.31 4.52748 0.978454 0
M  V30 14157 C 1369.04 5.62771 1.09891 0
M  V30 14158 N 1368.54 6.82596 1.18467 0
M  V30 14159 N 1370.33 5.50576 1.13237 0
M  V30 14160 H 1362.48 2.03642 -0.603614 0
M  V30 14161 H 1364.75 0.924702 -0.208878 0
M  V30 14162 H 1364.45 3.51203 -0.186871 0
M  V30 14163 H 1364.33 3.43357 1.5616 0
M  V30 14164 H 1366.71 2.44578 1.65123 0
M  V30 14165 H 1366.79 2.55551 -0.112921 0
M  V30 14166 H 1366.44 5.07875 0.0499835 0
M  V30 14167 H 1366.37 4.93976 1.82469 0
M  V30 14168 H 1368.86 3.66445 0.92337 0
M  V30 14169 H 1369.17 7.62197 1.27576 0
M  V30 14170 H 1367.52 6.85349 1.15418 0
M  V30 14171 H 1370.71 4.55897 1.06188 0
M  V30 14172 H 1370.88 6.36358 1.2228 0
M  V30 14173 N 1364.29 -0.50888 1.49158 0
M  V30 14174 C 1365.51 -1.29245 1.62205 0
M  V30 14175 C 1365.94 -1.85845 0.29041 0
M  V30 14176 O 1365.29 -1.6547 -0.740906 0
M  V30 14177 C 1365.34 -2.40415 2.68762 0
M  V30 14178 O 1364.45 -3.44048 2.27387 0
M  V30 14179 H 1363.79 -0.381898 0.543185 0
M  V30 14180 H 1366.32 -0.610076 1.95293 0
M  V30 14181 H 1366.33 -2.86295 2.90688 0
M  V30 14182 H 1365 -1.98584 3.65427 0
M  V30 14183 H 1363.58 -3.04141 2.1576 0
M  V30 14184 N 1365.76 -1.381 -0.759346 0
M  V30 14185 C 1366.69 -1.37578 -1.88665 0
M  V30 14186 C 1367.68 -0.242529 -1.68362 0
M  V30 14187 O 1368.86 -0.444751 -1.89039 0
M  V30 14188 C 1365.99 -1.19437 -3.26117 0
M  V30 14189 C 1364.94 -2.29905 -3.61009 0
M  V30 14190 C 1364.27 -1.96874 -4.97136 0
M  V30 14191 C 1365.57 -3.72143 -3.66479 0
M  V30 14192 H 1367.26 -2.31912 -1.89359 0
M  V30 14193 H 1364.81 -1.11632 -0.909631 0
M  V30 14194 H 1366.76 -1.17698 -4.0463 0
M  V30 14195 H 1365.49 -0.21562 -3.25887 0
M  V30 14196 H 1364.15 -2.3082 -2.84812 0
M  V30 14197 H 1363.79 -0.974979 -4.9346 0
M  V30 14198 H 1363.49 -2.70855 -5.21451 0
M  V30 14199 H 1365.02 -1.96744 -5.78035 0
M  V30 14200 H 1366.43 -3.73291 -4.35117 0
M  V30 14201 H 1364.83 -4.45282 -4.02299 0
M  V30 14202 H 1365.9 -4.04874 -2.66843 0
M  V30 14203 N 1367.24 0.986894 -1.22875 0
M  V30 14204 C 1368.47 1.7601 -1.08185 0
M  V30 14205 C 1368.88 1.85545 0.370088 0
M  V30 14206 O 1368.22 1.32915 1.26804 0
M  V30 14207 C 1368.29 3.20661 -1.62532 0
M  V30 14208 C 1367.95 3.34655 -3.11216 0
M  V30 14209 C 1368.95 3.21493 -4.08581 0
M  V30 14210 C 1366.63 3.59512 -3.50794 0
M  V30 14211 C 1368.63 3.32983 -5.43508 0
M  V30 14212 C 1366.31 3.70642 -4.85868 0
M  V30 14213 C 1367.31 3.57387 -5.82034 0
M  V30 14214 O 1367 3.68135 -7.14655 0
M  V30 14215 H 1366.73 0.559402 -0.379533 0
M  V30 14216 H 1369.28 1.24905 -1.63058 0
M  V30 14217 H 1367.51 3.72985 -1.02073 0
M  V30 14218 H 1369.2 3.7972 -1.43415 0
M  V30 14219 H 1369.97 3.02193 -3.79347 0
M  V30 14220 H 1365.85 3.68904 -2.76461 0
M  V30 14221 H 1369.39 3.22553 -6.18551 0
M  V30 14222 H 1365.29 3.89451 -5.1478 0
M  V30 14223 H 1366.06 3.84971 -7.22316 0
M  V30 14224 N 1368.72 1.0394 1.18466 0
M  V30 14225 C 1369.96 0.750905 1.90107 0
M  V30 14226 C 1370.32 -0.708278 1.78458 0
M  V30 14227 O 1371.53 -1.11033 2.44796 0
M  V30 14228 C 1369.8 1.20259 3.3656 0
M  V30 14229 S 1371.36 1.03954 4.26308 0
M  V30 14230 H 1368.17 0.273061 0.656475 0
M  V30 14231 H 1370.78 1.33143 1.43154 0
M  V30 14232 H 1369.48 2.26 3.42567 0
M  V30 14233 H 1369.01 0.615804 3.8855 0
M  V30 14234 H 1371.03 -0.0437629 4.96181 0
M  V30 14235 N 1370.2 -1.34667 0.818693 0
M  V30 14236 C 1371.48 -1.92838 0.327521 0
M  V30 14237 C 1371.86 -1.74732 -1.18457 0
M  V30 14238 O 1371.2 -1.12352 -1.98971 0
M  V30 14239 C 1371.41 -3.40797 0.752207 0
M  V30 14240 C 1372.76 -4.17948 0.748613 0
M  V30 14241 O 1373.79 -3.49364 0.694517 0
M  V30 14242 O 1372.64 -5.40344 0.817958 0
M  V30 14243 H 1369.74 -0.822249 0.0885148 0
M  V30 14244 H 1372.28 -1.43668 0.9032 0
M  V30 14245 H 1371.06 -3.47759 1.79387 0
M  V30 14246 H 1370.68 -3.97309 0.151992 0
M  V30 14247 N 1371.68 -0.573274 -1.46804 0
M  V30 14248 C 1372.9 -0.0605984 -2.06811 0
M  V30 14249 C 1373.32 1.24024 -1.4235 0
M  V30 14250 O 1372.68 1.7477 -0.525515 0
M  V30 14251 C 1372.73 0.121828 -3.61295 0
M  V30 14252 O 1372.45 -1.12751 -4.23342 0
M  V30 14253 C 1373.95 0.669941 -4.38208 0
M  V30 14254 H 1371.17 -0.0531498 -0.668892 0
M  V30 14255 H 1373.71 -0.791259 -1.88572 0
M  V30 14256 H 1371.87 0.802674 -3.78993 0
M  V30 14257 H 1372.28 -0.935361 -5.16092 0
M  V30 14258 H 1373.76 0.746806 -5.46925 0
M  V30 14259 H 1374.23 1.68483 -4.05598 0
M  V30 14260 H 1374.84 0.0242721 -4.25293 0
M  V30 14261 N 1373.15 1.5451 -0.310553 0
M  V30 14262 C 1374.12 2.2254 0.548489 0
M  V30 14263 C 1375.12 1.21456 1.05381 0
M  V30 14264 O 1376.31 1.46126 0.948311 0
M  V30 14265 C 1373.44 2.91927 1.76043 0
M  V30 14266 H 1374.63 2.99865 -0.0460306 0
M  V30 14267 H 1372.19 1.56179 -0.061487 0
M  V30 14268 H 1372.92 2.18706 2.39454 0
M  V30 14269 H 1372.71 3.66038 1.40564 0
M  V30 14270 H 1374.2 3.43797 2.37051 0
M  V30 14271 N 1374.63 0.0384594 1.57553 0
M  V30 14272 C 1375.88 -0.639085 1.92467 0
M  V30 14273 C 1376.21 -1.71239 0.916014 0
M  V30 14274 O 1375.49 -1.94408 -0.0598928 0
M  V30 14275 C 1375.77 -1.24693 3.37822 0
M  V30 14276 C 1375.62 -0.182544 4.49429 0
M  V30 14277 C 1376.94 -2.16226 3.8332 0
M  V30 14278 H 1374.06 -0.230852 0.699912 0
M  V30 14279 H 1376.7 0.0976276 1.89749 0
M  V30 14280 H 1374.85 -1.87481 3.40269 0
M  V30 14281 H 1376.53 0.448622 4.59113 0
M  V30 14282 H 1374.77 0.4909 4.31013 0
M  V30 14283 H 1375.44 -0.647626 5.48188 0
M  V30 14284 H 1377.92 -1.63413 3.82669 0
M  V30 14285 H 1376.79 -2.55705 4.85702 0
M  V30 14286 H 1377.05 -3.05722 3.19353 0
M  V30 14287 N 1376.11 -1.55841 -0.234795 0
M  V30 14288 C 1377.06 -1.92165 -1.31055 0
M  V30 14289 C 1378.05 -0.802106 -1.49207 0
M  V30 14290 O 1379.26 -0.986832 -1.50538 0
M  V30 14291 H 1375.63 -0.610487 -0.439101 0
M  V30 14292 H 1377.61 -2.81955 -0.976926 0
M  V30 14293 C 1376.35 -2.24329 -2.65654 0
M  V30 14294 H 1375.68 -3.09982 -2.5249 0
M  V30 14295 H 1377.12 -2.53639 -3.3977 0
M  V30 14296 C 1375.58 -1.0638 -3.19664 0
M  V30 14297 O 1376.11 -0.318047 -4.00439 0
M  V30 14298 N 1374.31 -0.851167 -2.77855 0
M  V30 14299 H 1373.86 -1.45932 -2.12277 0
M  V30 14300 H 1373.82 -0.0636875 -3.14335 0
M  V30 14301 N 1377.59 0.500963 -1.49426 0
M  V30 14302 C 1378.87 1.26231 -1.49416 0
M  V30 14303 C 1379.25 2.0993 -0.221908 0
M  V30 14304 O 1378.59 2.14198 0.795712 0
M  V30 14305 C 1378.8 2.11899 -2.77308 0
M  V30 14306 C 1380.15 2.71086 -3.26799 0
M  V30 14307 O 1381.18 2.22166 -2.78425 0
M  V30 14308 O 1380.04 3.60141 -4.11049 0
M  V30 14309 H 1377.13 0.571224 -0.598024 0
M  V30 14310 H 1379.68 0.51523 -1.61689 0
M  V30 14311 H 1378.45 1.50027 -3.61397 0
M  V30 14312 H 1378.07 2.93799 -2.67896 0
M  V30 14313 N 1379.07 1.38501 0.752011 0
M  V30 14314 C 1380.31 1.34995 1.51341 0
M  V30 14315 C 1380.65 -0.0594724 1.94109 0
M  V30 14316 O 1379.92 -1.02098 1.65548 0
M  V30 14317 C 1380.2 2.30705 2.76491 0
M  V30 14318 C 1380.06 3.80515 2.39851 0
M  V30 14319 C 1381.38 2.24521 3.78521 0
M  V30 14320 H 1378.5 0.491687 0.549011 0
M  V30 14321 H 1381.14 1.69361 0.861205 0
M  V30 14322 H 1379.29 2.01529 3.32142 0
M  V30 14323 H 1380.96 4.20371 1.89962 0
M  V30 14324 H 1379.2 3.98119 1.7229 0
M  V30 14325 H 1379.87 4.42946 3.29397 0
M  V30 14326 H 1382.35 2.50282 3.32413 0
M  V30 14327 H 1381.23 2.93598 4.63779 0
M  V30 14328 H 1381.49 1.24457 4.2422 0
M  V30 14329 N 1380.55 -0.980364 1.23396 0
M  V30 14330 C 1381.48 -2.0908 1.0396 0
M  V30 14331 C 1382.46 -1.70044 -0.0434946 0
M  V30 14332 O 1383.64 -1.93822 0.121155 0
M  V30 14333 C 1380.77 -3.41537 0.630061 0
M  V30 14334 C 1379.73 -3.94476 1.66051 0
M  V30 14335 C 1379.05 -5.23128 1.10641 0
M  V30 14336 C 1380.35 -4.23741 3.05354 0
M  V30 14337 H 1382.05 -2.25598 1.9684 0
M  V30 14338 H 1379.59 -1.08409 0.94781 0
M  V30 14339 H 1381.54 -4.18644 0.481145 0
M  V30 14340 H 1380.27 -3.24883 -0.334416 0
M  V30 14341 H 1378.93 -3.19513 1.79742 0
M  V30 14342 H 1378.58 -5.02824 0.132913 0
M  V30 14343 H 1378.28 -5.59515 1.79492 0
M  V30 14344 H 1379.8 -6.02857 0.969344 0
M  V30 14345 H 1381.21 -4.91598 2.94964 0
M  V30 14346 H 1379.61 -4.71329 3.71442 0
M  V30 14347 H 1380.68 -3.31012 3.54343 0
M  V30 14348 N 1382.02 -1.04567 -1.17913 0
M  V30 14349 C 1382.97 -0.634939 -2.23766 0
M  V30 14350 C 1383.97 0.340723 -1.65938 0
M  V30 14351 O 1385.17 0.207467 -1.788 0
M  V30 14352 H 1381.55 -0.187129 -0.728345 0
M  V30 14353 H 1383.52 -1.53798 -2.55712 0
M  V30 14354 C 1382.27 -0.0190662 -3.47695 0
M  V30 14355 H 1381.59 -0.760881 -3.92493 0
M  V30 14356 H 1383.03 0.231035 -4.2337 0
M  V30 14357 C 1381.49 1.23246 -3.13548 0
M  V30 14358 O 1382.02 2.32262 -3.27746 0
M  V30 14359 N 1380.22 1.12768 -2.67828 0
M  V30 14360 H 1379.77 0.240547 -2.56474 0
M  V30 14361 H 1379.73 1.96594 -2.45353 0
M  V30 14362 N 1383.5 1.34231 -0.825823 0
M  V30 14363 C 1384.73 2.02417 -0.428348 0
M  V30 14364 C 1385.14 1.62181 0.966573 0
M  V30 14365 O 1384.5 0.828691 1.62601 0
M  V30 14366 C 1384.55 3.57678 -0.524271 0
M  V30 14367 O 1384.27 3.96458 -1.86422 0
M  V30 14368 C 1385.77 4.43132 -0.122069 0
M  V30 14369 H 1382.99 0.648699 -0.171554 0
M  V30 14370 H 1385.54 1.71443 -1.11478 0
M  V30 14371 H 1383.69 3.87232 0.114112 0
M  V30 14372 H 1384.11 4.91147 -1.84051 0
M  V30 14373 H 1385.58 5.51477 -0.240264 0
M  V30 14374 H 1386.06 4.29139 0.934705 0
M  V30 14375 H 1386.66 4.18912 -0.734366 0
M  V30 14376 N 1384.98 0.581051 1.46498 0
M  V30 14377 C 1386.2 0.0696654 2.07283 0
M  V30 14378 C 1386.63 -1.22525 1.42721 0
M  V30 14379 O 1385.99 -1.73967 0.510421 0
M  V30 14380 C 1386.04 -0.0843864 3.60501 0
M  V30 14381 O 1385.14 -1.14129 3.96293 0
M  V30 14382 H 1384.48 0.0620572 0.661094 0
M  V30 14383 H 1387.01 0.803522 1.88161 0
M  V30 14384 H 1387.02 -0.29108 4.0696 0
M  V30 14385 H 1385.7 0.861274 4.06884 0
M  V30 14386 H 1384.27 -0.913186 3.61546 0
M  V30 14387 N 1386.46 -1.54343 0.318742 0
M  V30 14388 C 1387.7 -2.00777 -0.285699 0
M  V30 14389 C 1388.04 -1.20664 -1.52164 0
M  V30 14390 O 1387.31 -0.287674 -1.92361 0
M  V30 14391 C 1387.59 -3.54641 -0.624649 0
M  V30 14392 C 1387.45 -4.45483 0.621663 0
M  V30 14393 C 1388.77 -4.15729 -1.4442 0
M  V30 14394 H 1385.89 -0.729856 -0.102367 0
M  V30 14395 H 1388.53 -1.84968 0.434364 0
M  V30 14396 H 1386.68 -3.68243 -1.23811 0
M  V30 14397 H 1388.35 -4.43759 1.25998 0
M  V30 14398 H 1386.59 -4.15356 1.25148 0
M  V30 14399 H 1387.26 -5.50951 0.340106 0
M  V30 14400 H 1389.74 -4.05672 -0.925699 0
M  V30 14401 H 1388.62 -5.23509 -1.65013 0
M  V30 14402 H 1388.88 -3.68743 -2.43887 0
M  V30 14403 N 1387.94 -0.0468143 -1.5753 0
M  V30 14404 C 1389.16 0.637648 -1.96829 0
M  V30 14405 C 1389.58 1.64635 -0.924158 0
M  V30 14406 O 1388.94 1.82267 0.0921139 0
M  V30 14407 C 1388.99 1.32842 -3.36207 0
M  V30 14408 O 1388.71 0.360111 -4.36617 0
M  V30 14409 C 1390.21 2.10305 -3.90239 0
M  V30 14410 H 1387.43 0.174634 -0.647876 0
M  V30 14411 H 1389.97 -0.111824 -2.04194 0
M  V30 14412 H 1388.13 2.02915 -3.30006 0
M  V30 14413 H 1388.54 0.852661 -5.17523 0
M  V30 14414 H 1390.02 2.54065 -4.90056 0
M  V30 14415 H 1390.49 2.94942 -3.25432 0
M  V30 14416 H 1391.1 1.45152 -3.99764 0
M  V30 14417 N 1389.41 1.55964 0.226527 0
M  V30 14418 C 1390.64 1.83168 0.972846 0
M  V30 14419 C 1391.06 0.626512 1.7736 0
M  V30 14420 O 1390.42 -0.42468 1.76256 0
M  V30 14421 C 1390.47 3.08315 1.87014 0
M  V30 14422 O 1389.57 2.8666 2.96479 0
M  V30 14423 H 1388.92 0.604041 0.275736 0
M  V30 14424 H 1391.45 2.03172 0.241345 0
M  V30 14425 H 1391.46 3.38288 2.28091 0
M  V30 14426 H 1390.13 3.95663 1.28154 0
M  V30 14427 H 1388.71 2.67907 2.59384 0
M  V30 14428 N 1390.89 -0.493031 1.4969 0
M  V30 14429 C 1391.83 -1.61165 1.61558 0
M  V30 14430 C 1392.8 -1.55828 0.464363 0
M  V30 14431 O 1393.99 -1.7577 0.680973 0
M  V30 14432 C 1391.11 -2.997 1.5779 0
M  V30 14433 C 1390.16 -3.2327 2.78207 0
M  V30 14434 S 1390.99 -3.05531 4.39785 0
M  V30 14435 C 1392.15 -4.46447 4.38675 0
M  V30 14436 H 1392.38 -1.50854 2.56185 0
M  V30 14437 H 1389.92 -0.678777 1.38679 0
M  V30 14438 H 1391.87 -3.79579 1.56302 0
M  V30 14439 H 1390.53 -3.07419 0.644379 0
M  V30 14440 H 1389.73 -4.24422 2.71812 0
M  V30 14441 H 1389.33 -2.51126 2.77149 0
M  V30 14442 H 1391.62 -5.38683 4.10886 0
M  V30 14443 H 1392.56 -4.5789 5.40132 0
M  V30 14444 H 1392.97 -4.27499 3.68652 0
M  V30 14445 N 1392.37 -1.38898 -0.744656 0
M  V30 14446 C 1393.62 -1.35327 -1.50104 0
M  V30 14447 C 1393.94 0.0532788 -1.94927 0
M  V30 14448 O 1393.21 1.0027 -1.68294 0
M  V30 14449 H 1391.79 -0.49797 -0.556808 0
M  V30 14450 H 1394.45 -1.73667 -0.884625 0
M  V30 14451 H 1393.55 -2.00983 -2.38773 0
M  V30 14452 N 1393.85 0.973806 -1.23914 0
M  V30 14453 C 1395.07 1.7564 -1.10296 0
M  V30 14454 C 1395.5 1.84984 0.340954 0
M  V30 14455 O 1394.86 1.31629 1.24674 0
M  V30 14456 C 1394.9 3.15809 -1.7406 0
M  V30 14457 O 1394.01 3.99911 -1.00722 0
M  V30 14458 H 1393.35 0.540133 -0.386202 0
M  V30 14459 H 1395.88 1.22197 -1.64101 0
M  V30 14460 H 1395.89 3.66359 -1.79568 0
M  V30 14461 H 1394.56 3.08324 -2.79122 0
M  V30 14462 H 1393.14 3.58405 -1.02956 0
M  V30 14463 N 1395.33 1.05191 1.17357 0
M  V30 14464 C 1396.26 0.610878 2.20909 0
M  V30 14465 C 1397.27 -0.325369 1.59515 0
M  V30 14466 O 1398.46 -0.118104 1.78109 0
M  V30 14467 C 1395.56 -0.126086 3.38665 0
M  V30 14468 C 1394.73 0.820857 4.29629 0
M  V30 14469 C 1393.79 0.125154 5.26051 0
M  V30 14470 O 1392.82 0.759245 5.64114 0
M  V30 14471 N 1394.02 -1.13742 5.69248 0
M  V30 14472 H 1396.79 1.50158 2.5937 0
M  V30 14473 H 1394.35 0.933814 1.32256 0
M  V30 14474 H 1396.34 -0.601627 4.00203 0
M  V30 14475 H 1394.91 -0.918459 2.98803 0
M  V30 14476 H 1394.13 1.47602 3.65523 0
M  V30 14477 H 1395.42 1.46363 4.87294 0
M  V30 14478 H 1394.81 -1.67291 5.40398 0
M  V30 14479 H 1393.37 -1.55703 6.3293 0
M  V30 14480 N 1396.8 -1.33791 0.83293 0
M  V30 14481 C 1397.74 -2.27259 0.207019 0
M  V30 14482 C 1398.72 -1.49372 -0.642403 0
M  V30 14483 O 1399.9 -1.78562 -0.603963 0
M  V30 14484 C 1397.03 -3.31177 -0.709885 0
M  V30 14485 C 1396.07 -4.26453 0.0633036 0
M  V30 14486 S 1396.91 -5.16406 1.41721 0
M  V30 14487 C 1398.06 -6.23856 0.505446 0
M  V30 14488 H 1398.29 -2.79998 0.999422 0
M  V30 14489 H 1395.83 -1.40991 0.629361 0
M  V30 14490 H 1397.79 -3.91535 -1.23332 0
M  V30 14491 H 1396.45 -2.77265 -1.4759 0
M  V30 14492 H 1395.64 -4.99995 -0.634145 0
M  V30 14493 H 1395.24 -3.70401 0.517607 0
M  V30 14494 H 1397.53 -6.7684 -0.299066 0
M  V30 14495 H 1398.48 -6.97671 1.21084 0
M  V30 14496 H 1398.88 -5.64429 0.0894308 0
M  V30 14497 N 1398.28 -0.588812 -1.46187 0
M  V30 14498 C 1399.69 -0.163897 -1.85979 0
M  V30 14499 C 1400.04 1.27458 -1.49161 0
M  V30 14500 O 1399.17 1.96365 -0.909372 0
M  V30 14501 C 1399.76 -0.29067 -3.37551 0
M  V30 14502 C 1398.32 0.0794165 -3.76316 0
M  V30 14503 C 1397.47 -0.623807 -2.70192 0
M  V30 14504 H 1400.42 -0.79666 -1.37255 0
M  V30 14505 H 1400.44 0.482316 -3.77431 0
M  V30 14506 H 1399.95 -1.33771 -3.64317 0
M  V30 14507 H 1398.06 1.12636 -3.55168 0
M  V30 14508 H 1398.17 -0.301153 -4.78153 0
M  V30 14509 H 1396.53 -0.0634124 -2.54621 0
M  V30 14510 H 1397.32 -1.67261 -2.99797 0
M  V30 14511 N 1399.76 1.54172 -0.326923 0
M  V30 14512 C 1401.04 1.92812 0.329078 0
M  V30 14513 C 1401.42 1.25687 1.69605 0
M  V30 14514 O 1400.77 0.401779 2.2494 0
M  V30 14515 C 1400.98 3.46488 0.417949 0
M  V30 14516 C 1402.32 4.19174 0.67665 0
M  V30 14517 O 1403.35 3.52663 0.500735 0
M  V30 14518 O 1402.21 5.36968 1.01625 0
M  V30 14519 H 1399.3 0.805214 0.188573 0
M  V30 14520 H 1401.85 1.65462 -0.376884 0
M  V30 14521 H 1400.62 3.87528 -0.541986 0
M  V30 14522 H 1400.24 3.79954 1.17136 0
M  V30 14523 N 1401.24 0.0551678 1.57503 0
M  V30 14524 C 1402.19 -0.927586 2.08278 0
M  V30 14525 C 1403.17 -1.26931 0.988802 0
M  V30 14526 O 1404.36 -1.25107 1.25209 0
M  V30 14527 C 1401.49 -2.20105 2.63456 0
M  V30 14528 C 1400.58 -1.88654 3.7983 0
M  V30 14529 N 1400.97 -1.2758 4.89446 0
M  V30 14530 C 1399.27 -2.185 3.8881 0
M  V30 14531 C 1399.97 -1.13848 5.7045 0
M  V30 14532 N 1398.95 -1.6427 5.18186 0
M  V30 14533 H 1402.75 -0.450784 2.90422 0
M  V30 14534 H 1400.26 -0.149178 1.61713 0
M  V30 14535 H 1402.26 -2.9141 2.98137 0
M  V30 14536 H 1400.92 -2.68388 1.82752 0
M  V30 14537 H 1401.93 -0.947506 5.09159 0
M  V30 14538 H 1398.61 -2.69276 3.19056 0
M  V30 14539 H 1400 -0.664014 6.68611 0
M  V30 14540 N 1402.72 -1.56081 -0.218252 0
M  V30 14541 C 1403.99 -1.70043 -0.966684 0
M  V30 14542 C 1404.37 -0.603372 -2.02293 0
M  V30 14543 O 1403.72 0.389138 -2.25162 0
M  V30 14544 C 1403.93 -3.11484 -1.57413 0
M  V30 14545 C 1405.28 -3.70995 -2.06513 0
M  V30 14546 O 1406.3 -3.14466 -1.67301 0
M  V30 14547 O 1405.16 -4.70156 -2.78596 0
M  V30 14548 H 1402.26 -0.692691 -0.451784 0
M  V30 14549 H 1404.8 -1.68398 -0.209774 0
M  V30 14550 H 1403.57 -3.8279 -0.811614 0
M  V30 14551 H 1403.2 -3.1726 -2.3965 0
M  V30 14552 N 1404.2 0.485086 -1.49949 0
M  V30 14553 C 1405.13 1.60191 -1.63926 0
M  V30 14554 C 1406.14 1.5423 -0.521256 0
M  V30 14555 O 1407.33 1.59872 -0.79392 0
M  V30 14556 C 1404.43 2.99035 -1.59472 0
M  V30 14557 C 1403.6 3.30014 -2.87071 0
M  V30 14558 C 1402.66 4.48345 -2.75451 0
M  V30 14559 O 1401.69 4.49342 -3.494 0
M  V30 14560 N 1402.89 5.49192 -1.88064 0
M  V30 14561 H 1405.65 1.48622 -2.60253 0
M  V30 14562 H 1403.22 0.673258 -1.47237 0
M  V30 14563 H 1405.21 3.76142 -1.4933 0
M  V30 14564 H 1403.78 3.04445 -0.709373 0
M  V30 14565 H 1403 2.41652 -3.11445 0
M  V30 14566 H 1404.29 3.47515 -3.71632 0
M  V30 14567 H 1403.68 5.51198 -1.2727 0
M  V30 14568 H 1402.24 6.25338 -1.83835 0
M  V30 14569 N 1405.67 1.39291 0.737279 0
M  V30 14570 C 1406.62 1.37969 1.87263 0
M  V30 14571 C 1407.62 0.263156 1.67344 0
M  V30 14572 O 1408.82 0.433069 1.74713 0
M  V30 14573 H 1405.2 0.430782 0.616385 0
M  V30 14574 H 1407.17 2.33741 1.85494 0
M  V30 14575 C 1405.92 1.23779 3.24922 0
M  V30 14576 H 1405.24 2.08963 3.40844 0
M  V30 14577 H 1406.68 1.26911 4.04561 0
M  V30 14578 C 1405.14 -0.0539778 3.36857 0
M  V30 14579 O 1405.67 -1.02501 3.88402 0
M  V30 14580 N 1403.87 -0.116275 2.90367 0
M  V30 14581 H 1403.42 0.674622 2.48609 0
M  V30 14582 H 1403.38 -0.980107 2.98733 0
M  V30 14583 N 1407.15 -0.967221 1.24429 0
M  V30 14584 C 1408.06 -2.09582 1.05417 0
M  V30 14585 C 1409.08 -1.73999 -0.00516127 0
M  V30 14586 O 1410.25 -2.00472 0.193115 0
M  V30 14587 C 1407.32 -3.40327 0.661697 0
M  V30 14588 C 1406.38 -3.89854 1.79756 0
M  V30 14589 C 1405.61 -5.1436 1.42372 0
M  V30 14590 O 1405.84 -5.69536 0.313754 0
M  V30 14591 O 1404.77 -5.58283 2.24952 0
M  V30 14592 H 1408.6 -2.28517 2.00034 0
M  V30 14593 H 1406.18 -1.07978 1.03253 0
M  V30 14594 H 1408.06 -4.18943 0.454369 0
M  V30 14595 H 1406.74 -3.22691 -0.255348 0
M  V30 14596 H 1405.64 -3.12297 2.05964 0
M  V30 14597 H 1406.98 -4.11967 2.69339 0
M  V30 14598 N 1408.63 -1.05812 -1.16797 0
M  V30 14599 C 1409.88 -0.770398 -1.8684 0
M  V30 14600 C 1410.2 0.704986 -1.8181 0
M  V30 14601 O 1409.47 1.50977 -1.24832 0
M  V30 14602 H 1408.05 -0.281989 -0.691731 0
M  V30 14603 H 1410.71 -1.33859 -1.41661 0
M  V30 14604 H 1409.81 -1.09094 -2.92412 0
M  V30 14605 N 1410.11 1.33347 -0.840014 0
M  V30 14606 C 1411.35 1.97745 -0.436274 0
M  V30 14607 C 1411.68 1.66538 1.00475 0
M  V30 14608 O 1410.94 0.938137 1.71748 0
M  V30 14609 C 1411.24 3.52239 -0.605173 0
M  V30 14610 C 1410.9 4.03398 -2.01446 0
M  V30 14611 C 1409.56 4.1708 -2.39994 0
M  V30 14612 C 1411.92 4.3071 -2.93494 0
M  V30 14613 C 1409.24 4.55409 -3.69891 0
M  V30 14614 C 1411.6 4.70491 -4.22873 0
M  V30 14615 C 1410.26 4.82379 -4.61375 0
M  V30 14616 H 1409.53 0.723599 -0.159644 0
M  V30 14617 H 1412.18 1.59003 -1.06725 0
M  V30 14618 H 1410.48 3.91648 0.109116 0
M  V30 14619 H 1412.18 4.00069 -0.273056 0
M  V30 14620 H 1408.77 3.93224 -1.70508 0
M  V30 14621 H 1412.95 4.19661 -2.64949 0
M  V30 14622 H 1408.21 4.62806 -3.99525 0
M  V30 14623 H 1412.38 4.9058 -4.94271 0
M  V30 14624 H 1410.01 5.11835 -5.62075 0
M  V30 14625 N 1411.59 0.596556 1.45873 0
M  V30 14626 C 1412.54 -0.14991 2.27507 0
M  V30 14627 C 1413.52 -0.848942 1.36681 0
M  V30 14628 O 1414.71 -0.740752 1.60754 0
M  V30 14629 C 1411.84 -1.15391 3.23326 0
M  V30 14630 C 1410.93 -0.456283 4.21638 0
M  V30 14631 N 1411.32 0.495911 5.03363 0
M  V30 14632 C 1409.62 -0.705263 4.40389 0
M  V30 14633 C 1410.32 0.904941 5.74618 0
M  V30 14634 N 1409.29 0.251069 5.4302 0
M  V30 14635 H 1413.09 0.581593 2.88088 0
M  V30 14636 H 1410.61 0.419386 1.56891 0
M  V30 14637 H 1412.61 -1.70299 3.80531 0
M  V30 14638 H 1411.27 -1.88609 2.64305 0
M  V30 14639 H 1412.28 0.872126 5.10504 0
M  V30 14640 H 1408.95 -1.42296 3.92502 0
M  V30 14641 H 1410.34 1.68965 6.50308 0
M  V30 14642 N 1413.06 -1.53996 0.335095 0
M  V30 14643 C 1414.3 -2.02682 -0.264447 0
M  V30 14644 C 1414.67 -1.21779 -1.48438 0
M  V30 14645 O 1415.87 -1.60322 -2.15755 0
M  V30 14646 C 1414.14 -3.52678 -0.579072 0
M  V30 14647 S 1415.7 -4.23282 -1.15663 0
M  V30 14648 H 1412.52 -0.706566 -0.0792826 0
M  V30 14649 H 1415.12 -1.89744 0.470895 0
M  V30 14650 H 1413.82 -4.09176 0.316756 0
M  V30 14651 H 1413.35 -3.69719 -1.34431 0
M  V30 14652 H 1415.37 -4.31903 -2.44284 0
M  V30 14653 N 1414.54 -0.0635198 -1.57472 0
M  V30 14654 C 1415.96 0.293084 -1.56886 0
M  V30 14655 C 1416.16 1.70603 -1.07224 0
M  V30 14656 O 1415.21 2.41584 -0.734388 0
M  V30 14657 C 1416.53 0.110286 -3.00498 0
M  V30 14658 C 1418.07 0.180453 -3.12479 0
M  V30 14659 C 1418.55 0.0260354 -4.57993 0
M  V30 14660 N 1420.04 0.0819109 -4.63128 0
M  V30 14661 C 1420.78 -0.0132764 -5.73398 0
M  V30 14662 N 1420.27 -0.161514 -6.92612 0
M  V30 14663 N 1422.06 0.0431948 -5.62083 0
M  V30 14664 H 1414.22 -0.98706 -1.88072 0
M  V30 14665 H 1416.48 -0.384232 -0.866643 0
M  V30 14666 H 1416.18 -0.864378 -3.40913 0
M  V30 14667 H 1416.06 0.866117 -3.67122 0
M  V30 14668 H 1418.45 1.1456 -2.71956 0
M  V30 14669 H 1418.53 -0.606342 -2.4851 0
M  V30 14670 H 1418.17 -0.935839 -4.99204 0
M  V30 14671 H 1418.1 0.832131 -5.19984 0
M  V30 14672 H 1420.59 0.195229 -3.77395 0
M  V30 14673 H 1420.9 -0.226517 -7.72468 0
M  V30 14674 H 1419.25 -0.196766 -6.94721 0
M  V30 14675 H 1422.44 0.157648 -4.67834 0
M  V30 14676 H 1422.61 -0.0344435 -6.47991 0
M  V30 14677 N 1416.02 1.56195 0.209972 0
M  V30 14678 C 1416.93 1.96539 1.28101 0
M  V30 14679 C 1417.95 0.870858 1.50639 0
M  V30 14680 O 1419.12 1.17539 1.63544 0
M  V30 14681 C 1416.19 2.28392 2.60841 0
M  V30 14682 C 1415.25 3.51474 2.46505 0
M  V30 14683 C 1414.48 3.81798 3.72915 0
M  V30 14684 O 1414.7 3.13627 4.76439 0
M  V30 14685 O 1413.64 4.75264 3.69334 0
M  V30 14686 H 1417.46 2.87838 0.968671 0
M  V30 14687 H 1415.05 1.43556 0.413777 0
M  V30 14688 H 1416.93 2.50022 3.39215 0
M  V30 14689 H 1415.61 1.40264 2.91732 0
M  V30 14690 H 1414.51 3.35109 1.66292 0
M  V30 14691 H 1415.85 4.40021 2.2055 0
M  V30 14692 N 1417.5 -0.477127 1.50204 0
M  V30 14693 C 1418.41 -1.60182 1.71403 0
M  V30 14694 C 1419.42 -1.63437 0.597009 0
M  V30 14695 O 1420.6 -1.81418 0.874614 0
M  V30 14696 C 1417.66 -2.96432 1.79802 0
M  V30 14697 C 1416.73 -3.03614 3.03508 0
M  V30 14698 C 1415.96 -4.33365 3.11497 0
M  V30 14699 O 1416.18 -5.23529 2.26438 0
M  V30 14700 O 1415.12 -4.46013 4.04173 0
M  V30 14701 H 1418.94 -1.45221 2.66729 0
M  V30 14702 H 1416.53 -0.655982 1.34228 0
M  V30 14703 H 1418.41 -3.77367 1.87542 0
M  V30 14704 H 1417.08 -3.11605 0.876581 0
M  V30 14705 H 1415.99 -2.21779 3.01272 0
M  V30 14706 H 1417.32 -2.93376 3.95211 0
M  V30 14707 N 1418.98 -1.3968 -0.729882 0
M  V30 14708 C 1420.22 -1.3862 -1.50213 0
M  V30 14709 C 1420.58 0.0167409 -1.91993 0
M  V30 14710 O 1421.78 0.15238 -2.68368 0
M  V30 14711 C 1420.05 -2.33583 -2.70507 0
M  V30 14712 S 1421.61 -2.50756 -3.60093 0
M  V30 14713 H 1418.43 -0.491511 -0.513749 0
M  V30 14714 H 1421.03 -1.75823 -0.854783 0
M  V30 14715 H 1419.74 -3.34369 -2.37961 0
M  V30 14716 H 1419.27 -1.97613 -3.40166 0
M  V30 14717 H 1421.28 -1.74929 -4.64343 0
M  V30 14718 N 1420.45 0.960609 -1.2494 0
M  V30 14719 C 1421.87 1.23057 -1.01633 0
M  V30 14720 C 1422.07 1.99676 0.270527 0
M  V30 14721 O 1421.13 2.32503 0.984823 0
M  V30 14722 C 1422.44 2.01078 -2.2358 0
M  V30 14723 C 1423.99 2.14144 -2.28279 0
M  V30 14724 C 1424.46 2.95563 -3.49867 0
M  V30 14725 N 1425.95 3.03143 -3.50227 0
M  V30 14726 C 1426.69 3.66518 -4.40967 0
M  V30 14727 N 1426.18 4.31553 -5.41972 0
M  V30 14728 N 1427.98 3.636 -4.28663 0
M  V30 14729 H 1420.13 0.447876 -2.07624 0
M  V30 14730 H 1422.39 0.260581 -0.911483 0
M  V30 14731 H 1422.1 1.52172 -3.17075 0
M  V30 14732 H 1421.97 3.01797 -2.2627 0
M  V30 14733 H 1424.36 2.6225 -1.35311 0
M  V30 14734 H 1424.44 1.1275 -2.29611 0
M  V30 14735 H 1424.08 2.48149 -4.43153 0
M  V30 14736 H 1424.01 3.9717 -3.45779 0
M  V30 14737 H 1426.5 2.56888 -2.77159 0
M  V30 14738 H 1426.82 4.7775 -6.07433 0
M  V30 14739 H 1425.16 4.302 -5.45851 0
M  V30 14740 H 1428.35 3.11973 -3.48985 0
M  V30 14741 H 1428.53 4.12706 -4.99578 0
M  V30 14742 N 1421.93 1.0643 1.16234 0
M  V30 14743 C 1423.18 0.77689 1.86138 0
M  V30 14744 C 1423.49 -0.699301 1.82672 0
M  V30 14745 O 1424.7 -1.10113 2.48168 0
M  V30 14746 C 1423.16 1.3396 3.3404 0
M  V30 14747 C 1422.76 2.84613 3.45976 0
M  V30 14748 C 1424.51 1.12979 4.09189 0
M  V30 14749 C 1422.42 3.34122 4.87972 0
M  V30 14750 H 1421.35 0.286936 0.697269 0
M  V30 14751 H 1424 1.28318 1.31174 0
M  V30 14752 H 1422.38 0.761073 3.88618 0
M  V30 14753 H 1423.55 3.48429 3.01552 0
M  V30 14754 H 1421.87 3.04277 2.84262 0
M  V30 14755 H 1424.46 1.47456 5.13966 0
M  V30 14756 H 1424.81 0.0682424 4.16244 0
M  V30 14757 H 1425.34 1.67418 3.60855 0
M  V30 14758 H 1422.08 4.39761 4.86097 0
M  V30 14759 H 1421.6 2.75055 5.33015 0
M  V30 14760 H 1423.28 3.29529 5.56794 0
M  V30 14761 N 1423.41 -1.329 0.847073 0
M  V30 14762 C 1424.34 -2.31546 0.301422 0
M  V30 14763 C 1425.32 -1.59342 -0.595317 0
M  V30 14764 O 1426.51 -1.87188 -0.517151 0
M  V30 14765 C 1423.64 -3.43423 -0.517454 0
M  V30 14766 C 1422.59 -4.27055 0.284195 0
M  V30 14767 C 1421.92 -5.30624 -0.658944 0
M  V30 14768 C 1423.22 -5.00123 1.50578 0
M  V30 14769 H 1424.91 -2.77433 1.12567 0
M  V30 14770 H 1422.46 -1.3338 0.542739 0
M  V30 14771 H 1424.41 -4.11467 -0.909543 0
M  V30 14772 H 1423.13 -2.96246 -1.37499 0
M  V30 14773 H 1421.79 -3.60648 0.657944 0
M  V30 14774 H 1421.44 -4.79702 -1.51311 0
M  V30 14775 H 1421.14 -5.87464 -0.12662 0
M  V30 14776 H 1422.66 -6.01533 -1.04837 0
M  V30 14777 H 1424.08 -5.6089 1.18641 0
M  V30 14778 H 1422.48 -5.66652 1.97549 0
M  V30 14779 H 1423.55 -4.28424 2.27115 0
M  V30 14780 N 1424.89 -0.604284 -1.45555 0
M  V30 14781 C 1426.14 -0.0979922 -2.01862 0
M  V30 14782 C 1426.46 1.27476 -1.47563 0
M  V30 14783 O 1425.73 1.84137 -0.668612 0
M  V30 14784 H 1424.31 -0.033235 -0.74626 0
M  V30 14785 H 1426.97 -0.784936 -1.78395 0
M  V30 14786 H 1426.07 -0.0452716 -3.12067 0
M  V30 14787 N 1426.37 1.53816 -0.343257 0
M  V30 14788 C 1427.32 2.21763 0.529635 0
M  V30 14789 C 1428.3 1.20494 1.06631 0
M  V30 14790 O 1429.49 1.46041 1.00006 0
M  V30 14791 C 1426.62 2.99372 1.68022 0
M  V30 14792 C 1425.71 4.07999 1.1575 0
M  V30 14793 N 1426.1 5.04546 0.355979 0
M  V30 14794 C 1424.4 4.22304 1.43442 0
M  V30 14795 C 1425.1 5.81655 0.0723481 0
M  V30 14796 N 1424.07 5.39531 0.66391 0
M  V30 14797 H 1427.88 2.93763 -0.0898087 0
M  V30 14798 H 1425.39 1.61705 -0.150107 0
M  V30 14799 H 1427.39 3.4655 2.31752 0
M  V30 14800 H 1426.05 2.28899 2.30294 0
M  V30 14801 H 1427.06 5.179 -0.00291228 0
M  V30 14802 H 1423.73 3.63051 2.06155 0
M  V30 14803 H 1425.12 6.69442 -0.574192 0
M  V30 14804 N 1427.84 0.0718701 1.57436 0
M  V30 14805 C 1429.07 -0.609701 1.98236 0
M  V30 14806 C 1429.49 -1.6235 0.949959 0
M  V30 14807 O 1428.85 -1.81103 -0.0844281 0
M  V30 14808 C 1428.9 -1.2547 3.38068 0
M  V30 14809 O 1428 -2.37055 3.37459 0
M  V30 14810 H 1427.35 -0.15679 0.645223 0
M  V30 14811 H 1429.88 0.146407 2.04076 0
M  V30 14812 H 1429.89 -1.60152 3.75254 0
M  V30 14813 H 1428.56 -0.511842 4.12738 0
M  V30 14814 H 1427.14 -2.04165 3.12043 0
M  V30 14815 N 1429.32 -1.56304 -0.201686 0
M  V30 14816 C 1430.6 -1.71059 -0.948595 0
M  V30 14817 C 1430.98 -0.624794 -2.01642 0
M  V30 14818 O 1430.33 0.365235 -2.25562 0
M  V30 14819 C 1430.54 -3.13136 -1.54101 0
M  V30 14820 C 1431.89 -3.73165 -2.02567 0
M  V30 14821 O 1432.91 -3.16223 -1.63956 0
M  V30 14822 O 1431.77 -4.73084 -2.73594 0
M  V30 14823 H 1428.86 -0.697443 -0.444412 0
M  V30 14824 H 1431.41 -1.68611 -0.191901 0
M  V30 14825 H 1430.18 -3.8363 -0.770968 0
M  V30 14826 H 1429.8 -3.19784 -2.36271 0
M  V30 14827 N 1430.8 0.469154 -1.50455 0
M  V30 14828 C 1432.22 0.803067 -1.37924 0
M  V30 14829 C 1432.42 1.96708 -0.436837 0
M  V30 14830 O 1431.47 2.52216 0.119823 0
M  V30 14831 C 1432.79 1.11332 -2.79331 0
M  V30 14832 C 1434.33 1.21965 -2.88259 0
M  V30 14833 C 1434.81 1.56302 -4.30504 0
M  V30 14834 N 1436.3 1.6329 -4.33464 0
M  V30 14835 C 1437.03 1.91367 -5.40524 0
M  V30 14836 N 1436.53 2.17451 -6.57789 0
M  V30 14837 N 1438.32 1.92885 -5.2797 0
M  V30 14838 H 1430.47 -0.297928 -2.103 0
M  V30 14839 H 1432.74 -0.0707794 -0.945354 0
M  V30 14840 H 1432.44 0.331052 -3.50138 0
M  V30 14841 H 1432.32 2.04903 -3.16693 0
M  V30 14842 H 1434.7 1.99259 -2.17669 0
M  V30 14843 H 1434.79 0.263692 -2.54437 0
M  V30 14844 H 1434.43 0.795479 -5.01632 0
M  V30 14845 H 1434.36 2.53052 -4.61814 0
M  V30 14846 H 1436.85 1.45164 -3.48907 0
M  V30 14847 H 1437.16 2.38154 -7.35189 0
M  V30 14848 H 1435.51 2.14839 -6.60961 0
M  V30 14849 H 1438.7 1.72005 -4.35353 0
M  V30 14850 H 1438.87 2.1443 -6.11493 0
M  V30 14851 N 1432.28 1.40065 0.722464 0
M  V30 14852 C 1433.52 1.39414 1.49476 0
M  V30 14853 C 1433.88 -0.00655879 1.91999 0
M  V30 14854 O 1435.08 -0.138145 2.68445 0
M  V30 14855 C 1433.35 2.35014 2.69264 0
M  V30 14856 S 1434.91 2.52662 3.58758 0
M  V30 14857 H 1431.73 0.494229 0.511135 0
M  V30 14858 H 1434.33 1.76274 0.845447 0
M  V30 14859 H 1433.04 3.35627 2.36184 0
M  V30 14860 H 1432.57 1.99414 3.39113 0
M  V30 14861 H 1434.58 1.77389 4.63409 0
M  V30 14862 N 1433.76 -0.95397 1.25448 0
M  V30 14863 C 1435 -1.70177 1.11407 0
M  V30 14864 C 1435.36 -1.89348 -0.341348 0
M  V30 14865 O 1434.65 -1.45382 -1.24798 0
M  V30 14866 C 1434.85 -3.08613 1.80258 0
M  V30 14867 C 1434.67 -3.02947 3.32345 0
M  V30 14868 C 1433.44 -3.06667 4.01601 0
M  V30 14869 C 1435.64 -2.84063 4.28734 0
M  V30 14870 N 1433.62 -2.91166 5.40459 0
M  V30 14871 C 1435 -2.77 5.54681 0
M  V30 14872 C 1437.05 -2.68748 4.19141 0
M  V30 14873 C 1435.75 -2.56186 6.72132 0
M  V30 14874 C 1437.78 -2.49306 5.36284 0
M  V30 14875 C 1437.14 -2.42963 6.61172 0
M  V30 14876 H 1433.24 -0.630659 0.462378 0
M  V30 14877 H 1435.82 -1.12994 1.58558 0
M  V30 14878 H 1434 -3.6396 1.35601 0
M  V30 14879 H 1435.73 -3.72177 1.58953 0
M  V30 14880 H 1432.48 -3.15885 3.52865 0
M  V30 14881 H 1432.91 -2.86618 6.13334 0
M  V30 14882 H 1437.55 -2.72426 3.23333 0
M  V30 14883 H 1435.27 -2.51251 7.68049 0
M  V30 14884 H 1438.85 -2.3838 5.30722 0
M  V30 14885 H 1437.73 -2.28115 7.50289 0
M  V30 14886 N 1435.24 -1.07045 -1.15668 0
M  V30 14887 C 1436.17 -0.632171 -2.19269 0
M  V30 14888 C 1437.15 0.348973 -1.58811 0
M  V30 14889 O 1438.33 0.256137 -1.86752 0
M  V30 14890 C 1435.46 0.0721491 -3.38623 0
M  V30 14891 C 1434.5 -0.866947 -4.17596 0
M  V30 14892 S 1435.34 -2.36628 -4.80382 0
M  V30 14893 C 1436.49 -1.67367 -6.03108 0
M  V30 14894 H 1436.73 -1.50986 -2.56106 0
M  V30 14895 H 1434.26 -0.884123 -1.2658 0
M  V30 14896 H 1436.22 0.472272 -4.07774 0
M  V30 14897 H 1434.88 0.926138 -3.00136 0
M  V30 14898 H 1434.07 -0.320814 -5.02978 0
M  V30 14899 H 1433.67 -1.20731 -3.53977 0
M  V30 14900 H 1435.96 -0.983606 -6.70322 0
M  V30 14901 H 1436.91 -2.50569 -6.62284 0
M  V30 14902 H 1437.32 -1.15299 -5.526 0
M  V30 14903 N 1436.71 1.32449 -0.85411 0
M  V30 14904 C 1438.12 1.79545 -0.511923 0
M  V30 14905 C 1438.48 1.70534 0.970188 0
M  V30 14906 O 1437.6 1.2636 1.75676 0
M  V30 14907 C 1438.2 3.26 -0.922456 0
M  V30 14908 C 1436.75 3.71053 -0.632176 0
M  V30 14909 C 1435.9 2.53565 -1.12249 0
M  V30 14910 H 1438.85 1.19755 -1.04137 0
M  V30 14911 H 1438.87 3.79751 -0.238618 0
M  V30 14912 H 1438.39 3.32526 -2.00119 0
M  V30 14913 H 1436.49 3.70042 0.435862 0
M  V30 14914 H 1436.6 4.63878 -1.19809 0
M  V30 14915 H 1434.96 2.48849 -0.542781 0
M  V30 14916 H 1435.75 2.62846 -2.20832 0
M  V30 14917 N 1438.19 0.611994 1.45232 0
M  V30 14918 C 1439.61 0.276005 1.57195 0
M  V30 14919 C 1439.81 -1.22136 1.60266 0
M  V30 14920 O 1438.86 -2.00459 1.53533 0
M  V30 14921 C 1440.18 0.951064 2.85263 0
M  V30 14922 C 1441.72 0.927398 2.98945 0
M  V30 14923 C 1442.2 1.58255 4.2979 0
M  V30 14924 N 1443.69 1.54825 4.36559 0
M  V30 14925 C 1444.43 2.02428 5.3648 0
M  V30 14926 N 1443.92 2.58137 6.42913 0
M  V30 14927 N 1445.71 1.9317 5.27865 0
M  V30 14928 H 1437.87 1.58418 1.41483 0
M  V30 14929 H 1440.13 0.663879 0.676734 0
M  V30 14930 H 1439.83 2.00557 2.88912 0
M  V30 14931 H 1439.71 0.477044 3.74171 0
M  V30 14932 H 1442.1 -0.118571 2.94862 0
M  V30 14933 H 1442.18 1.43973 2.11437 0
M  V30 14934 H 1441.82 2.62787 4.34632 0
M  V30 14935 H 1441.75 1.04521 5.16123 0
M  V30 14936 H 1444.24 1.14133 3.60253 0
M  V30 14937 H 1444.55 2.92243 7.15412 0
M  V30 14938 H 1442.9 2.62179 6.43652 0
M  V30 14939 H 1446.09 1.49384 4.43624 0
M  V30 14940 H 1446.26 2.30582 6.05587 0
M  V30 14941 N 1439.67 -1.53632 0.351409 0
M  V30 14942 C 1440.62 -2.26782 -0.516983 0
M  V30 14943 C 1441.61 -1.29222 -1.09536 0
M  V30 14944 O 1442.82 -1.46901 -1.04019 0
M  V30 14945 H 1439.19 -0.728783 -0.185417 0
M  V30 14946 H 1441.16 -2.98151 0.121909 0
M  V30 14947 C 1439.91 -3.05943 -1.6521 0
M  V30 14948 H 1439.24 -3.80848 -1.21633 0
M  V30 14949 H 1440.68 -3.60328 -2.23472 0
M  V30 14950 C 1439.13 -2.15917 -2.58614 0
M  V30 14951 O 1439.66 -1.76049 -3.61067 0
M  V30 14952 N 1437.87 -1.80837 -2.27478 0
M  V30 14953 H 1437.42 -2.13456 -1.44202 0
M  V30 14954 H 1437.38 -1.20886 -2.90231 0
M  V30 14955 N 1441.15 -0.0802183 -1.57396 0
M  V30 14956 C 1442.56 0.451183 -1.81166 0
M  V30 14957 C 1442.91 1.69112 -0.994764 0
M  V30 14958 O 1442.03 2.15281 -0.219739 0
M  V30 14959 C 1442.63 0.825324 -3.28594 0
M  V30 14960 C 1441.19 1.30154 -3.53181 0
M  V30 14961 C 1440.34 0.290846 -2.75771 0
M  V30 14962 H 1443.29 -0.305829 -1.55725 0
M  V30 14963 H 1443.31 1.68608 -3.41104 0
M  V30 14964 H 1442.82 -0.0773119 -3.88023 0
M  V30 14965 H 1440.92 2.22239 -2.99066 0
M  V30 14966 H 1441.03 1.27365 -4.6186 0
M  V30 14967 H 1439.4 0.769894 -2.42785 0
M  V30 14968 H 1440.18 -0.604209 -3.37941 0
M  V30 14969 N 1442.63 1.56409 0.193394 0
M  V30 14970 C 1443.56 1.89745 1.26776 0
M  V30 14971 C 1444.54 0.75773 1.43865 0
M  V30 14972 O 1445.72 1.0089 1.59228 0
M  V30 14973 C 1442.85 2.12913 2.63412 0
M  V30 14974 C 1441.89 3.35614 2.63183 0
M  V30 14975 S 1442.73 4.90686 2.14448 0
M  V30 14976 C 1443.88 5.16923 3.52904 0
M  V30 14977 H 1444.12 2.80575 0.983105 0
M  V30 14978 H 1441.65 1.4921 0.396965 0
M  V30 14979 H 1443.61 2.26943 3.42063 0
M  V30 14980 H 1442.27 1.2283 2.89088 0
M  V30 14981 H 1441.46 3.48957 3.63655 0
M  V30 14982 H 1441.06 3.20586 1.92615 0
M  V30 14983 H 1443.35 5.07548 4.48778 0
M  V30 14984 H 1444.3 6.18673 3.44455 0
M  V30 14985 H 1444.71 4.44555 3.47895 0
M  V30 14986 N 1444.1 -0.461169 1.50702 0
M  V30 14987 C 1445.51 -1.04177 1.54932 0
M  V30 14988 C 1445.87 -1.92894 0.358648 0
M  V30 14989 O 1444.99 -2.09876 -0.527346 0
M  V30 14990 C 1445.59 -1.8961 2.80773 0
M  V30 14991 C 1444.14 -2.42761 2.87652 0
M  V30 14992 C 1443.29 -1.21356 2.49335 0
M  V30 14993 H 1446.24 -0.243379 1.56823 0
M  V30 14994 H 1446.26 -2.74794 2.63189 0
M  V30 14995 H 1445.78 -1.25014 3.67414 0
M  V30 14996 H 1443.88 -3.10881 2.05386 0
M  V30 14997 H 1443.99 -2.77189 3.90772 0
M  V30 14998 H 1442.35 -1.55146 2.01995 0
M  V30 14999 H 1443.14 -0.584069 3.38295 0
M  V30 15000 N 1445.58 -1.40446 -0.715026 0
M  V30 15001 C 1446.83 -1.38059 -1.47046 0
M  V30 15002 C 1447.14 0.0139125 -1.95595 0
M  V30 15003 O 1448.35 0.160398 -2.71026 0
M  V30 15004 C 1446.81 -2.42646 -2.65802 0
M  V30 15005 C 1446.41 -3.8791 -2.2412 0
M  V30 15006 C 1448.16 -2.49367 -3.43535 0
M  V30 15007 C 1446.06 -4.84092 -3.39719 0
M  V30 15008 H 1444.99 -0.513341 -0.552265 0
M  V30 15009 H 1447.65 -1.66185 -0.778126 0
M  V30 15010 H 1446.03 -2.07621 -3.37208 0
M  V30 15011 H 1447.2 -4.32082 -1.6013 0
M  V30 15012 H 1445.52 -3.8467 -1.5943 0
M  V30 15013 H 1448.11 -3.18414 -4.29554 0
M  V30 15014 H 1448.46 -1.52436 -3.87388 0
M  V30 15015 H 1448.99 -2.83386 -2.79173 0
M  V30 15016 H 1445.73 -5.82358 -3.00898 0
M  V30 15017 H 1445.25 -4.44584 -4.02623 0
M  V30 15018 H 1446.93 -5.03939 -4.05776 0
M  V30 15019 N 1447.06 0.947303 -1.25952 0
M  V30 15020 C 1448.48 1.21972 -1.02932 0
M  V30 15021 C 1448.68 1.99951 0.249333 0
M  V30 15022 O 1447.73 2.33534 0.960108 0
M  V30 15023 C 1449.04 1.98695 -2.257 0
M  V30 15024 C 1450.59 2.11711 -2.30538 0
M  V30 15025 C 1451.07 2.91835 -3.52982 0
M  V30 15026 N 1452.56 2.99411 -3.53422 0
M  V30 15027 C 1453.29 3.6182 -4.4483 0
M  V30 15028 N 1452.79 4.25781 -5.46519 0
M  V30 15029 N 1454.58 3.59033 -4.32495 0
M  V30 15030 H 1446.73 0.42583 -2.08088 0
M  V30 15031 H 1449 0.250899 -0.914196 0
M  V30 15032 H 1448.7 1.48801 -3.18671 0
M  V30 15033 H 1448.58 2.9938 -2.29459 0
M  V30 15034 H 1450.96 2.608 -1.38085 0
M  V30 15035 H 1451.04 1.10308 -2.30794 0
M  V30 15036 H 1450.69 2.43435 -4.4576 0
M  V30 15037 H 1450.62 3.9348 -3.49973 0
M  V30 15038 H 1453.11 2.53934 -2.79868 0
M  V30 15039 H 1453.42 4.71281 -6.12466 0
M  V30 15040 H 1451.77 4.24386 -5.50383 0
M  V30 15041 H 1454.96 3.08254 -3.52274 0
M  V30 15042 H 1455.13 4.07384 -5.03927 0
M  V30 15043 N 1448.54 1.07657 1.15099 0
M  V30 15044 C 1449.76 0.82291 1.90376 0
M  V30 15045 C 1450.19 -0.618415 1.77644 0
M  V30 15046 O 1449.55 -1.43248 1.11129 0
M  V30 15047 C 1449.59 1.23988 3.38614 0
M  V30 15048 O 1448.7 0.387085 4.10579 0
M  V30 15049 H 1448.04 0.299532 0.592602 0
M  V30 15050 H 1450.57 1.436 1.4574 0
M  V30 15051 H 1450.58 1.21741 3.89414 0
M  V30 15052 H 1449.25 2.28966 3.472 0
M  V30 15053 H 1447.83 0.472311 3.69897 0
M  V30 15054 N 1450.02 -1.31994 0.861122 0
M  V30 15055 C 1450.96 -2.28729 0.308476 0
M  V30 15056 C 1451.93 -1.55338 -0.588148 0
M  V30 15057 O 1453.12 -1.8353 -0.52168 0
M  V30 15058 C 1450.26 -3.4158 -0.491621 0
M  V30 15059 C 1449.37 -4.29839 0.431522 0
M  V30 15060 C 1448.51 -5.29826 -0.381836 0
M  V30 15061 C 1447.55 -6.09728 0.538296 0
M  V30 15062 N 1446.68 -7.01696 -0.238274 0
M  V30 15063 H 1451.52 -2.75389 1.13863 0
M  V30 15064 H 1449.06 -1.35485 0.572911 0
M  V30 15065 H 1451.02 -4.05738 -0.971193 0
M  V30 15066 H 1449.65 -2.96054 -1.28654 0
M  V30 15067 H 1448.7 -3.66204 1.02951 0
M  V30 15068 H 1450.01 -4.85658 1.13742 0
M  V30 15069 H 1449.17 -5.99618 -0.924297 0
M  V30 15070 H 1447.9 -4.7464 -1.12107 0
M  V30 15071 H 1446.91 -5.38834 1.09259 0
M  V30 15072 H 1448.13 -6.67 1.27625 0
M  V30 15073 H 1446.08 -6.4893 -0.960486 0
M  V30 15074 H 1446 -7.54896 0.408466 0
M  V30 15075 H 1447.27 -7.75764 -0.762252 0
M  V30 15076 N 1451.49 -0.619688 -1.44906 0
M  V30 15077 C 1452.72 -0.124598 -2.07025 0
M  V30 15078 C 1453.14 1.18698 -1.45919 0
M  V30 15079 O 1452.5 1.72552 -0.556366 0
M  V30 15080 C 1452.55 -0.0112238 -3.60598 0
M  V30 15081 O 1451.65 1.03582 -3.9918 0
M  V30 15082 H 1451 -0.0795631 -0.659216 0
M  V30 15083 H 1453.53 -0.853127 -1.85965 0
M  V30 15084 H 1453.54 0.183079 -4.07589 0
M  V30 15085 H 1452.21 -0.968849 -4.04458 0
M  V30 15086 H 1450.79 0.817008 -3.6384 0
M  V30 15087 N 1452.97 1.53444 -0.359552 0
M  V30 15088 C 1454.38 1.86308 0.120955 0
M  V30 15089 C 1454.73 1.28033 1.48667 0
M  V30 15090 O 1453.86 0.600041 2.07915 0
M  V30 15091 C 1454.45 3.38044 0.226255 0
M  V30 15092 C 1453.01 3.70727 0.65101 0
M  V30 15093 C 1452.16 2.76538 -0.205482 0
M  V30 15094 H 1455.11 1.47778 -0.578569 0
M  V30 15095 H 1455.13 3.65699 1.05092 0
M  V30 15096 H 1454.64 3.80428 -0.767874 0
M  V30 15097 H 1452.75 3.33897 1.65359 0
M  V30 15098 H 1452.86 4.77168 0.429802 0
M  V30 15099 H 1451.22 2.52622 0.3247 0
M  V30 15100 H 1452.01 3.21754 -1.19704 0
M  V30 15101 N 1454.45 0.0885642 1.57351 0
M  V30 15102 C 1455.36 -0.887092 2.17182 0
M  V30 15103 C 1456.38 -1.31498 1.13949 0
M  V30 15104 O 1457.55 -1.38424 1.4629 0
M  V30 15105 C 1454.62 -2.13053 2.73513 0
M  V30 15106 C 1453.68 -1.75747 3.91678 0
M  V30 15107 C 1452.91 -2.94163 4.45313 0
M  V30 15108 O 1453.13 -4.08693 3.97903 0
M  V30 15109 O 1452.07 -2.73008 5.36424 0
M  V30 15110 H 1455.89 -0.408073 3.00946 0
M  V30 15111 H 1453.48 -0.135431 1.48785 0
M  V30 15112 H 1455.36 -2.85937 3.09545 0
M  V30 15113 H 1454.04 -2.6002 1.92798 0
M  V30 15114 H 1452.94 -1.00064 3.60469 0
M  V30 15115 H 1454.28 -1.33549 4.73736 0
M  V30 15116 N 1455.93 -1.56509 -0.185096 0
M  V30 15117 C 1456.88 -1.91742 -1.23366 0
M  V30 15118 C 1457.86 -0.784182 -1.40497 0
M  V30 15119 O 1459.05 -1.04718 -1.42699 0
M  V30 15120 C 1456.18 -2.26903 -2.57624 0
M  V30 15121 C 1455.27 -3.46707 -2.44244 0
M  V30 15122 N 1455.66 -4.64338 -2.00558 0
M  V30 15123 C 1453.96 -3.51042 -2.7511 0
M  V30 15124 C 1454.66 -5.46489 -1.9931 0
M  V30 15125 N 1453.64 -4.87162 -2.41193 0
M  V30 15126 H 1457.44 -2.80184 -0.887378 0
M  V30 15127 H 1454.95 -1.57561 -0.393468 0
M  V30 15128 H 1456.95 -2.50332 -3.33376 0
M  V30 15129 H 1455.61 -1.39792 -2.93067 0
M  V30 15130 H 1456.62 -4.88817 -1.7111 0
M  V30 15131 H 1453.3 -2.74375 -3.14682 0
M  V30 15132 H 1454.69 -6.50726 -1.67349 0
M  V30 15133 N 1457.41 0.45317 -1.50944 0
M  V30 15134 C 1458.65 1.20568 -1.63068 0
M  V30 15135 C 1458.99 1.91229 -0.338375 0
M  V30 15136 O 1458.26 1.82916 0.661207 0
M  V30 15137 C 1458.54 2.23522 -2.8233 0
M  V30 15138 C 1458.4 1.57047 -4.21493 0
M  V30 15139 C 1459.72 3.24663 -2.97123 0
M  V30 15140 H 1456.83 0.436971 -0.593486 0
M  V30 15141 H 1459.48 0.497008 -1.83384 0
M  V30 15142 H 1457.63 2.83961 -2.65139 0
M  V30 15143 H 1459.3 1.00067 -4.50316 0
M  V30 15144 H 1457.54 0.873143 -4.24922 0
M  V30 15145 H 1458.21 2.31949 -5.00903 0
M  V30 15146 H 1460.69 2.74264 -3.12919 0
M  V30 15147 H 1459.56 3.9401 -3.82161 0
M  V30 15148 H 1459.83 3.89843 -2.08506 0
M  V30 15149 N 1458.88 1.40823 0.707568 0
M  V30 15150 C 1460.3 1.23029 1.01666 0
M  V30 15151 C 1460.5 0.111152 2.01193 0
M  V30 15152 O 1459.56 -0.52836 2.4691 0
M  V30 15153 C 1460.87 2.57509 1.55272 0
M  V30 15154 C 1462.42 2.6459 1.67216 0
M  V30 15155 C 1462.89 3.99357 2.24227 0
M  V30 15156 N 1464.38 4.01141 2.31603 0
M  V30 15157 C 1465.12 5.02211 2.76715 0
M  V30 15158 N 1464.61 6.13674 3.21521 0
M  V30 15159 N 1466.41 4.89577 2.76172 0
M  V30 15160 H 1458.56 2.12346 0.0480107 0
M  V30 15161 H 1460.82 0.944281 0.0838885 0
M  V30 15162 H 1460.53 3.40095 0.896012 0
M  V30 15163 H 1460.4 2.79158 2.53674 0
M  V30 15164 H 1462.79 1.8237 2.32002 0
M  V30 15165 H 1462.87 2.46763 0.673927 0
M  V30 15166 H 1462.51 4.8202 1.6006 0
M  V30 15167 H 1462.44 4.14518 3.2478 0
M  V30 15168 H 1464.93 3.20657 1.99968 0
M  V30 15169 H 1465.25 6.86677 3.54534 0
M  V30 15170 H 1463.59 6.17228 3.1946 0
M  V30 15171 H 1466.78 4.01588 2.40509 0
M  V30 15172 H 1466.96 5.68485 3.11012 0
M  V30 15173 N 1460.36 -0.94061 1.26453 0
M  V30 15174 C 1461.31 -2.06073 1.07873 0
M  V30 15175 C 1462.3 -1.69399 0.0055001 0
M  V30 15176 O 1463.51 -1.79267 0.162224 0
M  V30 15177 H 1459.89 -0.674748 0.331993 0
M  V30 15178 H 1461.86 -2.18895 2.02799 0
M  V30 15179 C 1460.61 -3.39971 0.729054 0
M  V30 15180 H 1459.93 -3.68667 1.54675 0
M  V30 15181 H 1461.37 -4.1916 0.638844 0
M  V30 15182 C 1459.83 -3.32114 -0.565835 0
M  V30 15183 O 1460.36 -3.68287 -1.60399 0
M  V30 15184 N 1458.56 -2.85218 -0.556679 0
M  V30 15185 H 1458.11 -2.55979 0.288541 0
M  V30 15186 H 1458.07 -2.80344 -1.42318 0
M  V30 15187 N 1461.84 -1.08266 -1.14527 0
M  V30 15188 C 1463.09 -0.806405 -1.84878 0
M  V30 15189 C 1463.4 0.670151 -1.83762 0
M  V30 15190 O 1464.61 1.06151 -2.49888 0
M  V30 15191 C 1463.06 -1.39257 -3.31867 0
M  V30 15192 C 1462.67 -2.90081 -3.41404 0
M  V30 15193 C 1464.42 -1.19475 -4.0734 0
M  V30 15194 C 1462.32 -3.41842 -4.82595 0
M  V30 15195 H 1461.25 -0.297993 -0.692615 0
M  V30 15196 H 1463.9 -1.30389 -1.29116 0
M  V30 15197 H 1462.29 -0.822802 -3.87358 0
M  V30 15198 H 1463.46 -3.53182 -2.95971 0
M  V30 15199 H 1461.78 -3.08761 -2.79385 0
M  V30 15200 H 1464.37 -1.55614 -5.11555 0
M  V30 15201 H 1464.72 -0.134455 -4.16083 0
M  V30 15202 H 1465.25 -1.73138 -3.58145 0
M  V30 15203 H 1461.99 -4.47439 -4.79039 0
M  V30 15204 H 1461.51 -2.835 -5.28572 0
M  V30 15205 H 1463.19 -3.38346 -5.51481 0
M  V30 15206 N 1463.32 1.31536 -0.86811 0
M  V30 15207 C 1464.57 1.96045 -0.474271 0
M  V30 15208 C 1464.88 1.6939 0.978071 0
M  V30 15209 O 1466.09 2.27746 1.47797 0
M  V30 15210 C 1464.54 3.5096 -0.797203 0
M  V30 15211 C 1464.15 3.86456 -2.26618 0
M  V30 15212 C 1465.9 4.21871 -0.471745 0
M  V30 15213 C 1463.8 5.34474 -2.53162 0
M  V30 15214 H 1462.73 0.733737 -0.173627 0
M  V30 15215 H 1465.38 1.49734 -1.06076 0
M  V30 15216 H 1463.77 3.95752 -0.139994 0
M  V30 15217 H 1464.94 3.52629 -2.9663 0
M  V30 15218 H 1463.25 3.28605 -2.55749 0
M  V30 15219 H 1465.85 5.30767 -0.647317 0
M  V30 15220 H 1466.19 4.12131 0.58768 0
M  V30 15221 H 1466.73 3.82706 -1.08542 0
M  V30 15222 H 1463.47 5.49248 -3.57781 0
M  V30 15223 H 1462.99 5.6966 -1.87743 0
M  V30 15224 H 1464.67 6.01716 -2.37797 0
M  V30 15225 N 1464.8 0.627364 1.44575 0
M  V30 15226 C 1465.76 -0.0700881 2.29093 0
M  V30 15227 C 1466.76 -0.775969 1.40838 0
M  V30 15228 O 1467.95 -0.621129 1.6275 0
M  V30 15229 C 1465.08 -1.10977 3.2233 0
M  V30 15230 H 1466.28 0.673234 2.92246 0
M  V30 15231 H 1463.83 0.387322 1.51425 0
M  V30 15232 H 1464.56 -1.8832 2.64019 0
M  V30 15233 H 1464.35 -0.607587 3.87364 0
M  V30 15234 H 1465.84 -1.59764 3.8583 0
M  V30 15235 N 1466.28 -1.53251 0.367684 0
M  V30 15236 C 1467.21 -2.28728 -0.469676 0
M  V30 15237 C 1468.19 -1.3124 -1.08213 0
M  V30 15238 O 1469.37 -1.60112 -1.09898 0
M  V30 15239 C 1466.5 -3.07808 -1.60846 0
M  V30 15240 C 1465.46 -4.13 -1.12315 0
M  V30 15241 C 1464.78 -4.80176 -2.35234 0
M  V30 15242 C 1466.08 -5.21892 -0.2064 0
M  V30 15243 H 1467.78 -2.98972 0.160019 0
M  V30 15244 H 1465.32 -1.43786 0.0784011 0
M  V30 15245 H 1467.27 -3.59358 -2.20091 0
M  V30 15246 H 1466 -2.35258 -2.26542 0
M  V30 15247 H 1464.66 -3.62399 -0.553378 0
M  V30 15248 H 1464.31 -4.04196 -2.99391 0
M  V30 15249 H 1464.01 -5.51261 -2.03433 0
M  V30 15250 H 1465.53 -5.34521 -2.9516 0
M  V30 15251 H 1466.94 -5.68932 -0.706386 0
M  V30 15252 H 1465.34 -6.00096 0.0208362 0
M  V30 15253 H 1466.41 -4.79051 0.750851 0
M  V30 15254 N 1467.75 -0.0969077 -1.57302 0
M  V30 15255 C 1468.98 0.578086 -1.99181 0
M  V30 15256 C 1469.4 1.60818 -0.975667 0
M  V30 15257 O 1468.76 1.81215 0.0556054 0
M  V30 15258 C 1468.81 1.20076 -3.40021 0
M  V30 15259 O 1467.91 2.31656 -3.41188 0
M  V30 15260 H 1467.25 0.146506 -0.647636 0
M  V30 15261 H 1469.78 -0.178855 -2.03817 0
M  V30 15262 H 1469.79 1.54162 -3.77754 0
M  V30 15263 H 1468.47 0.446114 -4.135 0
M  V30 15264 H 1467.05 1.99175 -3.15252 0
M  V30 15265 N 1469.23 1.56605 0.176793 0
M  V30 15266 C 1470.48 1.80875 0.892578 0
M  V30 15267 C 1470.79 0.673245 1.83648 0
M  V30 15268 O 1472 0.800732 2.59423 0
M  V30 15269 C 1470.46 3.20481 1.63768 0
M  V30 15270 C 1470.06 4.41885 0.737685 0
M  V30 15271 C 1471.81 3.54048 2.34202 0
M  V30 15272 C 1469.71 5.72512 1.48271 0
M  V30 15273 H 1468.64 0.674476 0.337042 0
M  V30 15274 H 1471.3 1.82922 0.145574 0
M  V30 15275 H 1469.68 3.12736 2.42924 0
M  V30 15276 H 1470.85 4.60797 -0.0165186 0
M  V30 15277 H 1469.17 4.16153 0.143277 0
M  V30 15278 H 1471.76 4.48886 2.90526 0
M  V30 15279 H 1472.11 2.78665 3.09276 0
M  V30 15280 H 1472.64 3.63322 1.61995 0
M  V30 15281 H 1469.38 6.5091 0.774399 0
M  V30 15282 H 1468.9 5.57586 2.21038 0
M  V30 15283 H 1470.58 6.14274 2.03165 0
M  V30 15284 N 1470.71 -0.445159 1.51182 0
M  V30 15285 C 1471.62 -1.5651 1.74762 0
M  V30 15286 C 1472.64 -1.62134 0.631542 0
M  V30 15287 O 1473.81 -1.79522 0.912898 0
M  V30 15288 C 1470.88 -2.92552 1.86049 0
M  V30 15289 C 1469.94 -2.97108 3.0988 0
M  V30 15290 C 1469.17 -4.2666 3.2062 0
M  V30 15291 O 1469.39 -5.18608 2.37491 0
M  V30 15292 O 1468.33 -4.3734 4.13542 0
M  V30 15293 H 1472.15 -1.3953 2.6975 0
M  V30 15294 H 1469.74 -0.627363 1.3559 0
M  V30 15295 H 1471.62 -3.73304 1.95504 0
M  V30 15296 H 1470.3 -3.09676 0.94248 0
M  V30 15297 H 1469.2 -2.15338 3.05909 0
M  V30 15298 H 1470.54 -2.84927 4.01345 0
M  V30 15299 N 1472.19 -1.41197 -0.700089 0
M  V30 15300 C 1473.15 -1.42419 -1.79582 0
M  V30 15301 C 1474.15 -0.31551 -1.57674 0
M  V30 15302 O 1475.34 -0.575173 -1.64431 0
M  V30 15303 C 1472.47 -1.23114 -3.17893 0
M  V30 15304 H 1473.67 -2.39956 -1.79892 0
M  V30 15305 H 1471.22 -1.27273 -0.907271 0
M  V30 15306 H 1471.95 -0.263992 -3.23224 0
M  V30 15307 H 1471.74 -2.03437 -3.35195 0
M  V30 15308 H 1473.23 -1.26793 -3.97886 0
M  V30 15309 N 1473.67 0.933891 -1.2695 0
M  V30 15310 C 1474.89 1.71512 -1.15721 0
M  V30 15311 C 1475.31 1.8661 0.286712 0
M  V30 15312 O 1474.67 1.3787 1.19574 0
M  V30 15313 C 1474.72 3.11804 -1.82922 0
M  V30 15314 O 1474.44 2.97421 -3.21672 0
M  V30 15315 C 1475.94 4.06108 -1.7774 0
M  V30 15316 H 1473.16 0.53678 -0.402626 0
M  V30 15317 H 1475.7 1.17025 -1.67706 0
M  V30 15318 H 1473.86 3.6317 -1.34856 0
M  V30 15319 H 1474.27 3.86069 -3.55037 0
M  V30 15320 H 1475.75 5.02082 -2.29385 0
M  V30 15321 H 1476.22 4.32828 -0.74543 0
M  V30 15322 H 1476.83 3.60665 -2.25391 0
M  V30 15323 N 1475.14 1.08871 1.13951 0
M  V30 15324 C 1476.11 0.726655 2.17376 0
M  V30 15325 C 1477.11 -0.240922 1.58985 0
M  V30 15326 O 1478.3 -0.0198472 1.74189 0
M  V30 15327 C 1475.43 0.0736505 3.4082 0
M  V30 15328 H 1476.62 1.64254 2.5092 0
M  V30 15329 H 1474.17 0.887183 1.28681 0
M  V30 15330 H 1474.91 -0.853733 3.12861 0
M  V30 15331 H 1474.69 0.769782 3.84469 0
M  V30 15332 H 1476.18 -0.164465 4.17276 0
M  V30 15333 N 1476.62 -1.31073 0.875073 0
M  V30 15334 C 1477.58 -2.26672 0.339481 0
M  V30 15335 C 1478.58 -1.52416 -0.512439 0
M  V30 15336 O 1479.77 -1.71217 -0.321012 0
M  V30 15337 C 1476.91 -3.36952 -0.517311 0
M  V30 15338 H 1478.1 -2.7556 1.18349 0
M  V30 15339 H 1475.65 -1.42093 0.65109 0
M  V30 15340 H 1476.39 -2.93364 -1.38231 0
M  V30 15341 H 1476.17 -3.9199 0.092773 0
M  V30 15342 H 1477.66 -4.08133 -0.884154 0
M  V30 15343 N 1478.1 -0.635022 -1.4424 0
M  V30 15344 C 1479.38 -0.0718064 -1.95468 0
M  V30 15345 C 1479.76 1.40348 -1.57689 0
M  V30 15346 O 1479.11 2.11986 -0.852888 0
M  V30 15347 C 1479.32 -0.298793 -3.47719 0
M  V30 15348 C 1480.66 -0.194056 -4.24156 0
M  V30 15349 O 1481.69 -0.230368 -3.55454 0
M  V30 15350 O 1480.55 -0.102294 -5.46404 0
M  V30 15351 H 1477.64 0.0200784 -0.826756 0
M  V30 15352 H 1480.19 -0.706996 -1.54271 0
M  V30 15353 H 1478.96 -1.32233 -3.6828 0
M  V30 15354 H 1478.58 0.370347 -3.95871 0
M  V30 15355 N 1479.58 1.53054 -0.375806 0
M  V30 15356 C 1480.82 2.017 0.210985 0
M  V30 15357 C 1481.16 1.26228 1.47581 0
M  V30 15358 O 1480.43 0.358869 1.91161 0
M  V30 15359 C 1480.72 3.56715 0.492596 0
M  V30 15360 C 1480.57 4.42869 -0.786573 0
M  V30 15361 C 1481.89 4.20803 1.28891 0
M  V30 15362 H 1479.01 0.733153 0.0752084 0
M  V30 15363 H 1481.65 1.83229 -0.502715 0
M  V30 15364 H 1479.8 3.72585 1.10059 0
M  V30 15365 H 1481.47 4.38777 -1.42381 0
M  V30 15366 H 1479.71 4.10425 -1.40478 0
M  V30 15367 H 1480.38 5.49309 -0.544354 0
M  V30 15368 H 1482.86 4.08828 0.774498 0
M  V30 15369 H 1481.74 5.29273 1.45469 0
M  V30 15370 H 1482 3.77541 2.30033 0
M  V30 15371 N 1481.06 0.105248 1.57248 0
M  V30 15372 C 1481.97 -0.864007 2.1811 0
M  V30 15373 C 1482.98 -1.30282 1.15337 0
M  V30 15374 O 1484.16 -1.36864 1.4775 0
M  V30 15375 C 1481.22 -2.1014 2.75757 0
M  V30 15376 C 1480.28 -1.71583 3.9352 0
M  V30 15377 C 1479.52 -2.89424 4.48408 0
M  V30 15378 O 1479.74 -4.04449 4.02215 0
M  V30 15379 O 1478.67 -2.67303 5.39289 0
M  V30 15380 H 1482.5 -0.376131 3.01362 0
M  V30 15381 H 1480.09 -0.119643 1.4892 0
M  V30 15382 H 1481.97 -2.82638 3.1256 0
M  V30 15383 H 1480.64 -2.57961 1.95545 0
M  V30 15384 H 1479.55 -0.962347 3.6151 0
M  V30 15385 H 1480.88 -1.28517 4.75126 0
M  V30 15386 N 1482.53 -1.56697 -0.168486 0
M  V30 15387 C 1483.5 -1.95744 -1.19235 0
M  V30 15388 C 1484.5 -0.841419 -1.37028 0
M  V30 15389 O 1485.69 -1.10842 -1.34386 0
M  V30 15390 C 1482.82 -2.25471 -2.55686 0
M  V30 15391 H 1484.01 -2.87368 -0.857892 0
M  V30 15392 H 1481.57 -1.50798 -0.411041 0
M  V30 15393 H 1482.3 -1.36571 -2.94141 0
M  V30 15394 H 1482.09 -3.06822 -2.44137 0
M  V30 15395 H 1483.58 -2.56593 -3.29469 0
M  V30 15396 N 1484.01 0.437135 -1.51416 0
M  V30 15397 C 1485.24 1.20723 -1.67659 0
M  V30 15398 C 1485.65 1.85476 -0.373547 0
M  V30 15399 O 1484.99 1.71516 0.657876 0
M  V30 15400 C 1485.06 2.33257 -2.73553 0
M  V30 15401 C 1484.72 1.8887 -4.16146 0
M  V30 15402 C 1485.72 1.39203 -5.00918 0
M  V30 15403 C 1483.4 1.96555 -4.62246 0
M  V30 15404 C 1485.4 0.978071 -6.29851 0
M  V30 15405 C 1483.08 1.54771 -5.91176 0
M  V30 15406 C 1484.08 1.05479 -6.74806 0
M  V30 15407 O 1483.77 0.64288 -8.01325 0
M  V30 15408 H 1483.5 0.36993 -0.565798 0
M  V30 15409 H 1486.05 0.524183 -1.98599 0
M  V30 15410 H 1484.28 3.04839 -2.37929 0
M  V30 15411 H 1485.97 2.95121 -2.78673 0
M  V30 15412 H 1486.74 1.3266 -4.66505 0
M  V30 15413 H 1482.62 2.33868 -3.97274 0
M  V30 15414 H 1486.16 0.592633 -6.95078 0
M  V30 15415 H 1482.06 1.60985 -6.25103 0
M  V30 15416 H 1482.83 0.768711 -8.14882 0
M  V30 15417 N 1485.49 1.41566 0.692592 0
M  V30 15418 C 1486.77 1.31572 1.44735 0
M  V30 15419 C 1487.15 -0.0553081 2.11028 0
M  V30 15420 O 1486.5 -1.06974 2.01913 0
M  V30 15421 C 1486.71 2.47125 2.46435 0
M  V30 15422 C 1488.05 2.88427 3.11601 0
M  V30 15423 O 1489.08 2.46886 2.5676 0
M  V30 15424 O 1487.94 3.6027 4.10935 0
M  V30 15425 H 1485.03 0.517949 0.644715 0
M  V30 15426 H 1487.58 1.53536 0.722818 0
M  V30 15427 H 1486.35 3.38601 1.96124 0
M  V30 15428 H 1485.97 2.27054 3.26393 0
M  V30 15429 N 1486.97 -0.927146 1.27443 0
M  V30 15430 C 1488.25 -1.65322 1.04538 0
M  V30 15431 C 1488.63 -2.06886 -0.419694 0
M  V30 15432 O 1487.97 -1.80352 -1.40304 0
M  V30 15433 C 1488.18 -2.85486 2.00746 0
M  V30 15434 C 1489.53 -3.56816 2.30147 0
M  V30 15435 O 1490.56 -2.95613 1.98724 0
M  V30 15436 O 1489.41 -4.67085 2.83714 0
M  V30 15437 H 1486.51 -0.724627 0.398554 0
M  V30 15438 H 1489.05 -0.977633 1.3871 0
M  V30 15439 H 1487.83 -2.51766 2.99549 0
M  V30 15440 H 1487.45 -3.60763 1.67139 0
M  V30 15441 N 1488.45 -1.09474 -1.13372 0
M  V30 15442 C 1489.69 -0.840753 -1.86308 0
M  V30 15443 C 1490.05 0.622327 -1.81635 0
M  V30 15444 O 1491.25 0.992265 -2.49815 0
M  V30 15445 C 1489.52 -1.3618 -3.30439 0
M  V30 15446 S 1491.08 -1.24176 -4.20863 0
M  V30 15447 H 1487.9 -0.304071 -0.642699 0
M  V30 15448 H 1490.5 -1.39822 -1.36639 0
M  V30 15449 H 1489.21 -2.42087 -3.31394 0
M  V30 15450 H 1488.74 -0.800485 -3.8517 0
M  V30 15451 H 1490.75 -0.193021 -4.95824 0
M  V30 15452 N 1489.92 1.30607 -0.882012 0
M  V30 15453 C 1491.17 1.95869 -0.497978 0
M  V30 15454 C 1491.49 1.69991 0.955405 0
M  V30 15455 O 1490.76 1.02188 1.67136 0
M  V30 15456 H 1489.34 0.724699 -0.181165 0
M  V30 15457 H 1492.01 1.59193 -1.12444 0
M  V30 15458 H 1491.1 3.04917 -0.665754 0
M  V30 15459 N 1491.4 0.642663 1.43901 0
M  V30 15460 C 1492.81 0.232809 1.85243 0
M  V30 15461 C 1493.16 -1.21834 1.53789 0
M  V30 15462 O 1492.29 -1.92855 0.981625 0
M  V30 15463 C 1492.88 0.415749 3.36239 0
M  V30 15464 C 1491.44 0.0603055 3.76352 0
M  V30 15465 C 1490.59 0.723658 2.67691 0
M  V30 15466 H 1493.54 0.847052 1.34204 0
M  V30 15467 H 1493.56 -0.341903 3.78961 0
M  V30 15468 H 1493.07 1.472 3.59101 0
M  V30 15469 H 1491.18 -0.993761 3.59103 0
M  V30 15470 H 1491.29 0.478408 4.76705 0
M  V30 15471 H 1489.65 0.15787 2.5421 0
M  V30 15472 H 1490.44 1.78273 2.93383 0
M  V30 15473 N 1492.88 -1.52852 0.383918 0
M  V30 15474 C 1494.11 -2.05929 -0.200216 0
M  V30 15475 C 1494.52 -1.25606 -1.40956 0
M  V30 15476 O 1493.88 -0.301336 -1.79995 0
M  V30 15477 C 1493.93 -3.56887 -0.575655 0
M  V30 15478 O 1493.65 -4.34168 0.58564 0
M  V30 15479 C 1495.15 -4.2629 -1.21623 0
M  V30 15480 H 1492.37 -0.670261 -0.0314727 0
M  V30 15481 H 1494.92 -1.97032 0.547591 0
M  V30 15482 H 1493.07 -3.65875 -1.27336 0
M  V30 15483 H 1493.49 -5.23761 0.278267 0
M  V30 15484 H 1494.96 -5.33174 -1.42933 0
M  V30 15485 H 1495.44 -3.81163 -2.182 0
M  V30 15486 H 1496.04 -4.21605 -0.559435 0
M  V30 15487 N 1494.36 -0.113586 -1.5719 0
M  V30 15488 C 1495.31 0.83862 -2.15025 0
M  V30 15489 C 1496.28 1.26726 -1.07376 0
M  V30 15490 O 1497.46 1.34574 -1.35257 0
M  V30 15491 C 1494.6 2.08538 -2.74965 0
M  V30 15492 C 1493.71 1.70559 -3.96905 0
M  V30 15493 C 1492.85 2.90161 -4.44949 0
M  V30 15494 C 1491.89 2.48396 -5.59433 0
M  V30 15495 N 1491.03 3.60894 -6.02246 0
M  V30 15496 H 1495.87 0.338585 -2.9607 0
M  V30 15497 H 1493.4 0.155437 -1.46276 0
M  V30 15498 H 1495.36 2.81579 -3.07846 0
M  V30 15499 H 1493.99 2.56009 -1.96619 0
M  V30 15500 H 1493.04 0.874133 -3.7022 0
M  V30 15501 H 1494.35 1.35863 -4.7994 0
M  V30 15502 H 1493.51 3.71434 -4.7971 0
M  V30 15503 H 1492.25 3.28081 -3.60852 0
M  V30 15504 H 1491.25 1.65555 -5.24282 0
M  V30 15505 H 1492.48 2.116 -6.45292 0
M  V30 15506 H 1490.42 3.98497 -5.21091 0
M  V30 15507 H 1490.34 3.30103 -6.80124 0
M  V30 15508 H 1491.61 4.42622 -6.41643 0
M  V30 15509 N 1495.84 1.56784 0.160173 0
M  V30 15510 C 1497.25 1.51153 0.512352 0
M  V30 15511 C 1497.45 0.819774 1.84071 0
M  V30 15512 O 1496.51 0.384789 2.49551 0
M  V30 15513 C 1497.82 2.95906 0.534817 0
M  V30 15514 C 1499.37 3.06773 0.621248 0
M  V30 15515 C 1499.85 4.53006 0.674501 0
M  V30 15516 N 1501.34 4.57298 0.737087 0
M  V30 15517 C 1502.07 5.67805 0.799054 0
M  V30 15518 N 1501.57 6.87916 0.821171 0
M  V30 15519 N 1503.36 5.55804 0.838928 0
M  V30 15520 H 1495.51 2.00157 -0.710712 0
M  V30 15521 H 1497.77 0.91233 -0.257601 0
M  V30 15522 H 1497.48 3.49719 -0.372773 0
M  V30 15523 H 1497.35 3.51152 1.3774 0
M  V30 15524 H 1499.74 2.52987 1.51926 0
M  V30 15525 H 1499.82 2.54593 -0.248224 0
M  V30 15526 H 1499.47 5.07426 -0.219301 0
M  V30 15527 H 1499.4 5.02954 1.56028 0
M  V30 15528 H 1501.89 3.70825 0.727827 0
M  V30 15529 H 1502.2 7.67888 0.869938 0
M  V30 15530 H 1500.55 6.90504 0.789264 0
M  V30 15531 H 1503.74 4.60884 0.818728 0
M  V30 15532 H 1503.91 6.41945 0.883757 0
M  V30 15533 N 1497.32 -0.429099 1.51646 0
M  V30 15534 C 1498.54 -1.20006 1.68541 0
M  V30 15535 C 1498.96 -1.84806 0.386264 0
M  V30 15536 O 1498.32 -1.7106 -0.635988 0
M  V30 15537 C 1498.37 -2.27801 2.80694 0
M  V30 15538 O 1498.09 -1.65649 4.05576 0
M  V30 15539 C 1499.59 -3.17927 3.08929 0
M  V30 15540 H 1496.81 -0.361388 0.565367 0
M  V30 15541 H 1499.35 -0.507432 1.98104 0
M  V30 15542 H 1497.51 -2.92766 2.53706 0
M  V30 15543 H 1497.92 -2.36955 4.67924 0
M  V30 15544 H 1499.4 -3.8968 3.90965 0
M  V30 15545 H 1499.87 -3.79157 2.21668 0
M  V30 15546 H 1500.48 -2.58654 3.37606 0
M  V30 15547 N 1498.79 -1.41931 -0.685074 0
M  V30 15548 C 1500.04 -1.41852 -1.44514 0
M  V30 15549 C 1500.37 -0.0313137 -1.94475 0
M  V30 15550 O 1499.62 0.958606 -1.70614 0
M  V30 15551 C 1499.92 -2.38099 -2.6654 0
M  V30 15552 C 1499.59 -3.8471 -2.35178 0
M  V30 15553 C 1498.25 -4.24647 -2.26336 0
M  V30 15554 C 1500.6 -4.77232 -2.0952 0
M  V30 15555 C 1497.93 -5.55101 -1.89947 0
M  V30 15556 C 1500.28 -6.08017 -1.74638 0
M  V30 15557 C 1498.95 -6.46964 -1.64299 0
M  V30 15558 H 1498.22 -0.519072 -0.528815 0
M  V30 15559 H 1500.86 -1.74802 -0.782078 0
M  V30 15560 H 1499.17 -1.9844 -3.3783 0
M  V30 15561 H 1500.87 -2.35306 -3.24703 0
M  V30 15562 H 1497.46 -3.53085 -2.42959 0
M  V30 15563 H 1501.64 -4.47173 -2.1529 0
M  V30 15564 H 1496.9 -5.84148 -1.80503 0
M  V30 15565 H 1501.07 -6.79203 -1.53807 0
M  V30 15566 H 1498.7 -7.47959 -1.35871 0
M  V30 15567 N 1500.27 0.920374 -1.27933 0
M  V30 15568 C 1501.23 2.0035 -1.11321 0
M  V30 15569 C 1502.23 1.60706 -0.0549132 0
M  V30 15570 O 1503.42 1.71595 -0.300134 0
M  V30 15571 C 1500.56 3.33681 -0.69782 0
M  V30 15572 H 1501.75 2.16518 -2.07509 0
M  V30 15573 H 1499.3 1.10216 -1.10825 0
M  V30 15574 H 1500.04 3.23214 0.265122 0
M  V30 15575 H 1499.82 3.63815 -1.46223 0
M  V30 15576 H 1501.31 4.13208 -0.604048 0
M  V30 15577 N 1501.75 1.10074 1.1279 0
M  V30 15578 C 1502.98 0.862906 1.88047 0
M  V30 15579 C 1503.39 -0.586346 1.79464 0
M  V30 15580 O 1502.75 -1.40402 1.16591 0
M  V30 15581 C 1502.8 1.29784 3.37399 0
M  V30 15582 O 1502.52 2.69026 3.4577 0
M  V30 15583 C 1504.02 1.09336 4.29605 0
M  V30 15584 H 1501.24 0.309981 0.595108 0
M  V30 15585 H 1503.79 1.46444 1.42738 0
M  V30 15586 H 1501.94 0.740056 3.80266 0
M  V30 15587 H 1502.36 2.87532 4.38663 0
M  V30 15588 H 1503.83 1.44687 5.327 0
M  V30 15589 H 1504.31 0.031679 4.39189 0
M  V30 15590 H 1504.91 1.63743 3.92516 0
M  V30 15591 N 1503.23 -1.30138 0.888926 0
M  V30 15592 C 1504.47 -1.95989 0.509365 0
M  V30 15593 C 1504.8 -1.70153 -0.942249 0
M  V30 15594 O 1504.06 -1.00123 -1.68148 0
M  V30 15595 C 1504.36 -3.4975 0.735488 0
M  V30 15596 C 1504.02 -3.95644 2.1628 0
M  V30 15597 C 1502.68 -4.07886 2.55309 0
M  V30 15598 C 1505.04 -4.1952 3.09277 0
M  V30 15599 C 1502.36 -4.41367 3.86539 0
M  V30 15600 C 1504.72 -4.54472 4.40043 0
M  V30 15601 C 1503.38 -4.64923 4.7896 0
M  V30 15602 H 1502.65 -0.717175 0.18639 0
M  V30 15603 H 1505.3 -1.54932 1.12553 0
M  V30 15604 H 1503.6 -3.91783 0.0363165 0
M  V30 15605 H 1505.3 -3.9878 0.421351 0
M  V30 15606 H 1501.89 -3.86624 1.84985 0
M  V30 15607 H 1506.07 -4.09539 2.80342 0
M  V30 15608 H 1501.33 -4.47659 4.16427 0
M  V30 15609 H 1505.5 -4.71897 5.12138 0
M  V30 15610 H 1503.13 -4.90622 5.80685 0
M  V30 15611 N 1504.71 -0.650285 -1.43559 0
M  V30 15612 C 1505.95 -0.162164 -2.01448 0
M  V30 15613 C 1506.27 1.22717 -1.51544 0
M  V30 15614 O 1505.54 1.81917 -0.726855 0
M  V30 15615 H 1504.12 -0.0569599 -0.744825 0
M  V30 15616 H 1506.79 -0.841294 -1.75807 0
M  V30 15617 H 1505.88 -0.144531 -3.11765 0
M  V30 15618 N 1506.18 1.52647 -0.392018 0
M  V30 15619 C 1507.13 2.26532 0.441819 0
M  V30 15620 C 1508.1 1.2825 1.05552 0
M  V30 15621 O 1509.29 1.57083 1.08303 0
M  V30 15622 C 1506.43 3.0774 1.56174 0
M  V30 15623 C 1505.54 4.20955 0.970632 0
M  V30 15624 C 1504.67 4.89553 2.06183 0
M  V30 15625 C 1503.71 5.94756 1.44676 0
M  V30 15626 N 1502.85 6.5694 2.47738 0
M  V30 15627 H 1507.69 2.97363 -0.194699 0
M  V30 15628 H 1505.23 1.46704 -0.107848 0
M  V30 15629 H 1507.18 3.53116 2.22183 0
M  V30 15630 H 1505.81 2.39112 2.16853 0
M  V30 15631 H 1504.87 3.79874 0.200067 0
M  V30 15632 H 1506.18 4.96474 0.481181 0
M  V30 15633 H 1505.33 5.38247 2.79956 0
M  V30 15634 H 1504.07 4.13564 2.58488 0
M  V30 15635 H 1503.08 5.45399 0.694288 0
M  V30 15636 H 1504.3 6.72679 0.931617 0
M  V30 15637 H 1502.25 5.8379 2.99208 0
M  V30 15638 H 1502.16 7.2808 2.03556 0
M  V30 15639 H 1503.43 7.10277 3.21133 0
M  V30 15640 N 1507.66 0.121921 1.57128 0
M  V30 15641 C 1508.94 -0.579087 1.86831 0
M  V30 15642 C 1509.32 -1.84623 1.0236 0
M  V30 15643 O 1508.67 -2.28266 0.103326 0
M  V30 15644 C 1508.88 -0.86872 3.38015 0
M  V30 15645 C 1510.23 -1.22051 4.0668 0
M  V30 15646 O 1511.25 -0.958889 3.43051 0
M  V30 15647 O 1510.11 -1.71164 5.19004 0
M  V30 15648 H 1507.2 -0.292539 0.773531 0
M  V30 15649 H 1509.75 0.156644 1.68975 0
M  V30 15650 H 1508.52 0.0291056 3.91289 0
M  V30 15651 H 1508.14 -1.65951 3.61312 0
M  V30 15652 N 1509.14 -1.56867 -0.151857 0
M  V30 15653 C 1510.39 -1.83353 -0.866566 0
M  V30 15654 C 1510.72 -0.702784 -1.81038 0
M  V30 15655 O 1509.99 0.293944 -1.92266 0
M  V30 15656 C 1510.28 -3.20316 -1.64529 0
M  V30 15657 C 1510.13 -4.43946 -0.723297 0
M  V30 15658 C 1511.45 -3.54441 -2.60882 0
M  V30 15659 H 1508.57 -0.666957 -0.313588 0
M  V30 15660 H 1511.21 -1.89541 -0.131954 0
M  V30 15661 H 1509.36 -3.15172 -2.27154 0
M  V30 15662 H 1511.03 -4.61173 -0.10842 0
M  V30 15663 H 1509.28 -4.33788 -0.0325582 0
M  V30 15664 H 1509.95 -5.36374 -1.3041 0
M  V30 15665 H 1512.42 -3.60164 -2.08377 0
M  V30 15666 H 1511.3 -4.51314 -3.12422 0
M  V30 15667 H 1511.56 -2.80146 -3.42009 0
M  V30 15668 N 1510.62 0.421051 -1.51871 0
M  V30 15669 C 1511.84 1.19568 -1.69465 0
M  V30 15670 C 1512.27 1.83835 -0.398269 0
M  V30 15671 O 1511.63 1.69508 0.643172 0
M  V30 15672 C 1511.67 2.24337 -2.82321 0
M  V30 15673 O 1510.78 3.30205 -2.47059 0
M  V30 15674 H 1510.12 0.349579 -0.564527 0
M  V30 15675 H 1512.65 0.495177 -1.98517 0
M  V30 15676 H 1512.66 2.6886 -3.06885 0
M  V30 15677 H 1511.33 1.76941 -3.76384 0
M  V30 15678 H 1509.91 2.91045 -2.33125 0
M  V30 15679 N 1512.1 1.42293 0.677538 0
M  V30 15680 C 1513.37 1.331 1.43331 0
M  V30 15681 C 1513.75 -0.0329227 2.11074 0
M  V30 15682 O 1513.1 -1.04826 2.03036 0
M  V30 15683 C 1513.31 2.49725 2.438 0
M  V30 15684 C 1514.66 2.91716 3.08524 0
M  V30 15685 O 1515.68 2.49596 2.54127 0
M  V30 15686 O 1514.54 3.64609 4.07091 0
M  V30 15687 H 1511.64 0.524758 0.639185 0
M  V30 15688 H 1514.18 1.54294 0.706493 0
M  V30 15689 H 1512.95 3.40663 1.92522 0
M  V30 15690 H 1512.58 2.30503 3.23966 0
M  V30 15691 N 1513.57 -0.913576 1.28419 0
M  V30 15692 C 1514.52 -2.00257 1.09001 0
M  V30 15693 C 1515.51 -1.60894 0.0136118 0
M  V30 15694 O 1516.7 -1.75449 0.233769 0
M  V30 15695 C 1513.83 -3.34916 0.754073 0
M  V30 15696 C 1512.92 -3.8068 1.86932 0
M  V30 15697 N 1513.31 -3.98814 3.11096 0
M  V30 15698 C 1511.6 -4.09839 1.75921 0
M  V30 15699 C 1512.31 -4.37149 3.83765 0
M  V30 15700 N 1511.28 -4.45417 3.11616 0
M  V30 15701 H 1515.08 -2.12327 2.0321 0
M  V30 15702 H 1512.6 -1.10143 1.19341 0
M  V30 15703 H 1514.59 -4.12617 0.596035 0
M  V30 15704 H 1513.25 -3.24199 -0.180246 0
M  V30 15705 H 1514.27 -3.84729 3.46705 0
M  V30 15706 H 1510.94 -4.07757 0.896679 0
M  V30 15707 H 1512.33 -4.5914 4.9055 0
M  V30 15708 N 1515.05 -1.1067 -1.12204 0
M  V30 15709 C 1516.46 -0.867959 -1.65298 0
M  V30 15710 C 1516.81 0.601297 -1.86759 0
M  V30 15711 O 1515.94 1.46153 -1.59588 0
M  V30 15712 C 1516.53 -1.56906 -3.00276 0
M  V30 15713 C 1515.09 -1.37696 -3.5031 0
M  V30 15714 C 1514.24 -1.61688 -2.25282 0
M  V30 15715 H 1517.19 -1.26408 -0.959521 0
M  V30 15716 H 1517.21 -1.00947 -3.66865 0
M  V30 15717 H 1516.72 -2.63838 -2.84625 0
M  V30 15718 H 1514.83 -0.329381 -3.71141 0
M  V30 15719 H 1514.94 -2.12058 -4.29614 0
M  V30 15720 H 1513.3 -1.03977 -2.3251 0
M  V30 15721 H 1514.09 -2.69877 -2.12182 0
M  V30 15722 N 1516.53 1.29665 -0.895815 0
M  V30 15723 C 1517.49 2.26103 -0.3755 0
M  V30 15724 C 1518.49 1.53212 0.488126 0
M  V30 15725 O 1519.68 1.71706 0.293733 0
M  V30 15726 C 1516.82 3.37732 0.46364 0
M  V30 15727 H 1518.01 2.73643 -1.22718 0
M  V30 15728 H 1515.56 1.4104 -0.673613 0
M  V30 15729 H 1516.3 2.95526 1.33546 0
M  V30 15730 H 1516.08 3.91793 -0.155123 0
M  V30 15731 H 1517.57 4.09488 0.819112 0
M  V30 15732 N 1518.01 0.657889 1.43212 0
M  V30 15733 C 1518.92 -0.0313677 2.34579 0
M  V30 15734 C 1519.93 -0.807153 1.54146 0
M  V30 15735 O 1521.11 -0.753335 1.8678 0
M  V30 15736 C 1518.18 -0.982659 3.32483 0
M  V30 15737 C 1517.24 -0.203288 4.28818 0
M  V30 15738 C 1516.47 -1.10927 5.22045 0
M  V30 15739 O 1516.69 -2.34861 5.19804 0
M  V30 15740 O 1515.63 -0.57916 5.99107 0
M  V30 15741 H 1519.45 0.720808 2.95022 0
M  V30 15742 H 1517.04 0.418083 1.43431 0
M  V30 15743 H 1518.92 -1.52923 3.92673 0
M  V30 15744 H 1517.59 -1.71498 2.74536 0
M  V30 15745 H 1516.5 0.386982 3.72093 0
M  V30 15746 H 1517.83 0.489562 4.89759 0
M  V30 15747 N 1519.49 -1.52437 0.400108 0
M  V30 15748 C 1520.4 -2.30496 -0.436875 0
M  V30 15749 C 1521.41 -1.37851 -1.06175 0
M  V30 15750 O 1522.59 -1.70924 -1.06522 0
M  V30 15751 C 1519.65 -3.10459 -1.54325 0
M  V30 15752 C 1518.71 -4.18829 -0.942367 0
M  V30 15753 C 1517.95 -4.94969 -1.99602 0
M  V30 15754 O 1518.17 -4.71314 -3.21278 0
M  V30 15755 O 1517.1 -5.80043 -1.60728 0
M  V30 15756 H 1520.93 -3.03045 0.199343 0
M  V30 15757 H 1518.52 -1.48502 0.163541 0
M  V30 15758 H 1520.4 -3.60282 -2.18575 0
M  V30 15759 H 1519.07 -2.40713 -2.16423 0
M  V30 15760 H 1517.98 -3.73176 -0.262831 0
M  V30 15761 H 1519.31 -4.90841 -0.365441 0
M  V30 15762 N 1520.96 -0.130252 -1.57061 0
M  V30 15763 C 1522.38 0.226279 -1.57988 0
M  V30 15764 C 1522.58 1.65902 -1.14363 0
M  V30 15765 O 1521.64 2.38252 -0.836191 0
M  V30 15766 C 1522.95 -0.0172647 -3.00695 0
M  V30 15767 C 1524.5 0.0477572 -3.12964 0
M  V30 15768 C 1524.97 -0.168238 -4.57691 0
M  V30 15769 N 1526.46 -0.114591 -4.63058 0
M  V30 15770 C 1527.2 -0.256462 -5.72826 0
M  V30 15771 N 1526.69 -0.455129 -6.91303 0
M  V30 15772 N 1528.49 -0.195243 -5.61761 0
M  V30 15773 H 1520.64 -1.06594 -1.83716 0
M  V30 15774 H 1522.9 -0.420643 -0.849567 0
M  V30 15775 H 1522.61 -1.00819 -3.3694 0
M  V30 15776 H 1522.48 0.709629 -3.70465 0
M  V30 15777 H 1524.87 1.02922 -2.7657 0
M  V30 15778 H 1524.95 -0.711198 -2.45714 0
M  V30 15779 H 1524.59 -1.14673 -4.94785 0
M  V30 15780 H 1524.52 0.610839 -5.23045 0
M  V30 15781 H 1527.01 0.0349873 -3.77884 0
M  V30 15782 H 1527.33 -0.553943 -7.70812 0
M  V30 15783 H 1525.67 -0.491244 -6.93262 0
M  V30 15784 H 1528.86 -0.0409186 -4.68082 0
M  V30 15785 H 1529.04 -0.309248 -6.47262 0
M  V30 15786 N 1522.44 1.56945 0.143535 0
M  V30 15787 C 1523.85 1.72949 0.703249 0
M  V30 15788 C 1524.21 0.745193 1.81497 0
M  V30 15789 O 1523.33 -0.0874144 2.16223 0
M  V30 15790 C 1523.93 3.1359 1.28244 0
M  V30 15791 C 1522.48 3.31184 1.78869 0
M  V30 15792 C 1521.63 2.6887 0.678531 0
M  V30 15793 H 1524.58 1.58487 -0.0821664 0
M  V30 15794 H 1524.6 3.13782 2.15224 0
M  V30 15795 H 1524.12 3.85206 0.473087 0
M  V30 15796 H 1522.22 2.64571 2.6236 0
M  V30 15797 H 1522.33 4.39163 1.91502 0
M  V30 15798 H 1520.69 2.29432 1.10603 0
M  V30 15799 H 1521.48 3.43092 -0.119437 0
M  V30 15800 N 1523.92 -0.412991 1.52093 0
M  V30 15801 C 1525.15 -1.18212 1.69805 0
M  V30 15802 C 1525.56 -1.84386 0.405844 0
M  V30 15803 O 1524.92 -1.71725 -0.617809 0
M  V30 15804 C 1524.97 -2.24811 2.83094 0
M  V30 15805 O 1524.69 -1.61338 4.0731 0
M  V30 15806 C 1526.19 -3.14633 3.12283 0
M  V30 15807 H 1523.41 -0.355371 0.569168 0
M  V30 15808 H 1525.96 -0.486392 1.98632 0
M  V30 15809 H 1524.11 -2.90058 2.56797 0
M  V30 15810 H 1524.53 -2.31979 4.7041 0
M  V30 15811 H 1526 -3.85511 3.95076 0
M  V30 15812 H 1526.48 -3.76785 2.25677 0
M  V30 15813 H 1527.08 -2.55059 3.40331 0
M  V30 15814 N 1525.4 -1.4265 -0.669982 0
M  V30 15815 C 1526.33 -1.49298 -1.79534 0
M  V30 15816 C 1527.31 -0.34911 -1.66479 0
M  V30 15817 O 1528.5 -0.564072 -1.85828 0
M  V30 15818 C 1525.63 -1.39935 -3.17861 0
M  V30 15819 C 1524.58 -2.52398 -3.45657 0
M  V30 15820 C 1523.91 -2.28092 -4.8361 0
M  V30 15821 C 1525.21 -3.94697 -3.4207 0
M  V30 15822 H 1526.9 -2.43486 -1.74227 0
M  V30 15823 H 1524.45 -1.17191 -0.836796 0
M  V30 15824 H 1526.4 -1.43193 -3.96325 0
M  V30 15825 H 1525.12 -0.422436 -3.23857 0
M  V30 15826 H 1523.78 -2.48465 -2.69556 0
M  V30 15827 H 1523.43 -1.28683 -4.86261 0
M  V30 15828 H 1523.13 -3.03469 -5.0317 0
M  V30 15829 H 1524.65 -2.33107 -5.64352 0
M  V30 15830 H 1526.07 -4.00207 -4.10496 0
M  V30 15831 H 1524.46 -4.69965 -3.73166 0
M  V30 15832 H 1525.53 -4.21025 -2.40554 0
M  V30 15833 N 1526.88 0.906753 -1.28902 0
M  V30 15834 C 1527.82 2.01004 -1.13429 0
M  V30 15835 C 1528.79 1.66074 -0.0295031 0
M  V30 15836 O 1529.98 1.89793 -0.195727 0
M  V30 15837 C 1527.12 3.35473 -0.809457 0
M  V30 15838 C 1526.23 3.83229 -1.99398 0
M  V30 15839 C 1525.37 5.06241 -1.60915 0
M  V30 15840 C 1524.41 5.46348 -2.7599 0
M  V30 15841 N 1523.54 6.60548 -2.37952 0
M  V30 15842 H 1528.38 2.13571 -2.07825 0
M  V30 15843 H 1525.92 1.046 -1.03428 0
M  V30 15844 H 1527.88 4.12836 -0.601845 0
M  V30 15845 H 1526.51 3.22652 0.0975896 0
M  V30 15846 H 1525.56 3.01962 -2.31351 0
M  V30 15847 H 1526.87 4.08908 -2.85649 0
M  V30 15848 H 1526.03 5.91168 -1.36401 0
M  V30 15849 H 1524.77 4.82385 -0.718021 0
M  V30 15850 H 1523.77 4.59959 -3.01195 0
M  V30 15851 H 1525 5.72188 -3.65757 0
M  V30 15852 H 1522.94 6.38309 -1.51318 0
M  V30 15853 H 1522.86 6.85987 -3.17738 0
M  V30 15854 H 1524.13 7.48762 -2.1674 0
M  V30 15855 N 1528.36 1.11264 1.11616 0
M  V30 15856 C 1529.6 0.858664 1.82952 0
M  V30 15857 C 1529.92 -0.617439 1.84967 0
M  V30 15858 O 1529.19 -1.44849 1.31893 0
M  V30 15859 H 1527.77 0.314671 0.677489 0
M  V30 15860 H 1530.44 1.40466 1.35113 0
M  V30 15861 H 1529.53 1.22921 2.86874 0
M  V30 15862 N 1529.83 -1.29188 0.902679 0
M  V30 15863 C 1530.78 -2.27632 0.381088 0
M  V30 15864 C 1531.75 -1.57131 -0.538431 0
M  V30 15865 O 1532.94 -1.85096 -0.463027 0
M  V30 15866 C 1530.08 -3.42971 -0.382701 0
M  V30 15867 C 1529.19 -4.28249 0.568054 0
M  V30 15868 C 1528.32 -5.30772 -0.213082 0
M  V30 15869 C 1527.36 -6.07707 0.732004 0
M  V30 15870 N 1526.5 -7.02098 -0.0149139 0
M  V30 15871 H 1531.34 -2.71628 1.22566 0
M  V30 15872 H 1528.88 -1.33594 0.615724 0
M  V30 15873 H 1530.83 -4.08623 -0.841619 0
M  V30 15874 H 1529.46 -2.99997 -1.19171 0
M  V30 15875 H 1528.52 -3.62743 1.14549 0
M  V30 15876 H 1529.83 -4.81794 1.29136 0
M  V30 15877 H 1528.98 -6.02255 -0.733065 0
M  V30 15878 H 1527.72 -4.77966 -0.969504 0
M  V30 15879 H 1526.73 -5.35086 1.26346 0
M  V30 15880 H 1527.95 -6.62602 1.4878 0
M  V30 15881 H 1525.9 -6.51658 -0.753548 0
M  V30 15882 H 1525.81 -7.53214 0.648423 0
M  V30 15883 H 1527.08 -7.77796 -0.515062 0
M  V30 15884 N 1531.31 -0.665475 -1.42861 0
M  V30 15885 C 1532.73 -0.334157 -1.56063 0
M  V30 15886 C 1532.93 1.16104 -1.64688 0
M  V30 15887 O 1531.98 1.94622 -1.60867 0
M  V30 15888 C 1533.3 -1.05628 -2.81537 0
M  V30 15889 C 1534.84 -1.03771 -2.95297 0
M  V30 15890 C 1535.32 -1.74098 -4.2362 0
M  V30 15891 N 1536.81 -1.7092 -4.30512 0
M  V30 15892 C 1537.55 -2.222 -5.28597 0
M  V30 15893 N 1537.04 -2.81821 -6.32889 0
M  V30 15894 N 1538.83 -2.12628 -5.20332 0
M  V30 15895 H 1530.99 -1.6356 -1.35506 0
M  V30 15896 H 1533.25 -0.688538 -0.651628 0
M  V30 15897 H 1532.95 -2.11141 -2.81269 0
M  V30 15898 H 1532.83 -0.615586 -3.72143 0
M  V30 15899 H 1535.22 0.00905324 -2.95099 0
M  V30 15900 H 1535.3 -1.51721 -2.05948 0
M  V30 15901 H 1534.94 -2.78737 -4.2458 0
M  V30 15902 H 1534.87 -1.23604 -5.11888 0
M  V30 15903 H 1537.36 -1.27425 -3.55769 0
M  V30 15904 H 1537.67 -3.18594 -7.04072 0
M  V30 15905 H 1536.02 -2.85887 -6.33478 0
M  V30 15906 H 1539.21 -1.65746 -4.37774 0
M  V30 15907 H 1539.38 -2.52899 -5.96612 0
M  V30 15908 N 1532.79 1.52222 -0.408187 0
M  V30 15909 C 1534.02 2.06221 0.16743 0
M  V30 15910 C 1534.43 1.27832 1.3894 0
M  V30 15911 O 1533.79 0.329933 1.79493 0
M  V30 15912 C 1533.84 3.57758 0.518804 0
M  V30 15913 O 1533.56 4.33181 -0.654639 0
M  V30 15914 C 1535.06 4.28171 1.14825 0
M  V30 15915 H 1532.28 0.670677 0.0208054 0
M  V30 15916 H 1534.83 1.96136 -0.578868 0
M  V30 15917 H 1532.98 3.67854 1.215 0
M  V30 15918 H 1533.4 5.23252 -0.361558 0
M  V30 15919 H 1534.87 5.3538 1.34433 0
M  V30 15920 H 1535.35 3.84586 2.12108 0
M  V30 15921 H 1535.95 4.22441 0.492291 0
M  V30 15922 N 1534.27 0.138579 1.5699 0
M  V30 15923 C 1535.51 -0.51539 1.96142 0
M  V30 15924 C 1535.85 -1.65067 1.02306 0
M  V30 15925 O 1535.12 -1.94395 0.0638645 0
M  V30 15926 C 1535.4 -1.02956 3.45068 0
M  V30 15927 C 1535.26 0.103646 4.49681 0
M  V30 15928 C 1536.58 -1.91411 3.96295 0
M  V30 15929 H 1533.7 -0.185873 0.713176 0
M  V30 15930 H 1536.34 0.218103 1.88744 0
M  V30 15931 H 1534.49 -1.65462 3.51503 0
M  V30 15932 H 1536.16 0.739693 4.55331 0
M  V30 15933 H 1534.4 0.764014 4.27019 0
M  V30 15934 H 1535.07 -0.297688 5.51197 0
M  V30 15935 H 1537.55 -1.38746 3.92286 0
M  V30 15936 H 1536.43 -2.24298 5.0098 0
M  V30 15937 H 1536.69 -2.84793 3.38149 0
M  V30 15938 N 1535.75 -1.57019 -0.13521 0
M  V30 15939 C 1537.02 -1.74928 -0.875189 0
M  V30 15940 C 1537.4 -0.709755 -1.98811 0
M  V30 15941 O 1536.75 0.269237 -2.26908 0
M  V30 15942 C 1536.96 -3.1939 -1.40681 0
M  V30 15943 C 1538.31 -3.8142 -1.86557 0
M  V30 15944 O 1539.33 -3.22892 -1.50397 0
M  V30 15945 O 1538.19 -4.84263 -2.53282 0
M  V30 15946 H 1535.29 -0.715665 -0.414431 0
M  V30 15947 H 1537.83 -1.69274 -0.120215 0
M  V30 15948 H 1536.6 -3.86554 -0.607564 0
M  V30 15949 H 1536.23 -3.29517 -2.22496 0
M  V30 15950 N 1537.22 0.404919 -1.52309 0
M  V30 15951 C 1538.47 1.15319 -1.66822 0
M  V30 15952 C 1538.8 1.90056 -0.399041 0
M  V30 15953 O 1538.08 1.84927 0.602679 0
M  V30 15954 C 1538.36 2.14426 -2.89298 0
M  V30 15955 C 1538.21 1.43558 -4.26276 0
M  V30 15956 C 1539.53 3.15046 -3.07301 0
M  V30 15957 H 1536.65 0.417869 -0.607087 0
M  V30 15958 H 1539.29 0.438414 -1.84873 0
M  V30 15959 H 1537.44 2.75382 -2.74039 0
M  V30 15960 H 1539.12 0.856899 -4.53271 0
M  V30 15961 H 1537.36 0.737515 -4.27485 0
M  V30 15962 H 1538.03 2.15895 -5.08029 0
M  V30 15963 H 1540.51 2.6417 -3.21486 0
M  V30 15964 H 1539.38 3.81652 -3.94503 0
M  V30 15965 H 1539.64 3.83012 -2.20803 0
M  V30 15966 N 1538.7 1.43003 0.662408 0
M  V30 15967 C 1539.93 1.47555 1.45035 0
M  V30 15968 C 1540.35 0.0906083 1.88582 0
M  V30 15969 O 1539.7 -0.897271 1.58919 0
M  V30 15970 C 1539.75 2.41345 2.69137 0
M  V30 15971 O 1539.47 3.74453 2.27413 0
M  V30 15972 C 1540.98 2.55045 3.62584 0
M  V30 15973 H 1538.2 0.501448 0.44586 0
M  V30 15974 H 1540.74 1.8765 0.812879 0
M  V30 15975 H 1538.89 2.0447 3.29045 0
M  V30 15976 H 1539.31 4.24801 3.07643 0
M  V30 15977 H 1540.78 3.24766 4.46353 0
M  V30 15978 H 1541.26 1.59235 4.09318 0
M  V30 15979 H 1541.87 2.92693 3.08563 0
M  V30 15980 N 1540.18 -0.899904 1.29381 0
M  V30 15981 C 1541.43 -1.64502 1.16713 0
M  V30 15982 C 1541.74 -1.93577 -0.280563 0
M  V30 15983 O 1542.95 -2.66305 -0.528563 0
M  V30 15984 C 1541.4 -2.96414 2.04125 0
M  V30 15985 C 1541.01 -2.74935 3.53716 0
M  V30 15986 C 1542.76 -3.74337 2.0018 0
M  V30 15987 C 1540.66 -4.02571 4.33232 0
M  V30 15988 H 1539.59 -0.617121 0.433218 0
M  V30 15989 H 1542.24 -0.997521 1.54019 0
M  V30 15990 H 1540.63 -3.62375 1.59687 0
M  V30 15991 H 1541.8 -2.17567 4.06203 0
M  V30 15992 H 1540.12 -2.10407 3.5933 0
M  V30 15993 H 1542.71 -4.6897 2.56849 0
M  V30 15994 H 1543.06 -4.04559 0.981735 0
M  V30 15995 H 1543.59 -3.15216 2.4266 0
M  V30 15996 H 1540.33 -3.77516 5.35875 0
M  V30 15997 H 1539.85 -4.59499 3.85514 0
M  V30 15998 H 1541.53 -4.70719 4.43884 0
M  V30 15999 N 1541.66 -1.11854 -1.11024 0
M  V30 16000 C 1542.9 -0.880082 -1.84483 0
M  V30 16001 C 1543.26 0.583659 -1.82914 0
M  V30 16002 O 1544.46 0.939053 -2.51864 0
M  V30 16003 C 1542.73 -1.43158 -3.27476 0
M  V30 16004 S 1544.29 -1.33075 -4.18135 0
M  V30 16005 H 1541.11 -0.317635 -0.636105 0
M  V30 16006 H 1543.71 -1.42688 -1.33642 0
M  V30 16007 H 1542.42 -2.49061 -3.26185 0
M  V30 16008 H 1541.95 -0.882005 -3.83385 0
M  V30 16009 H 1543.96 -0.298149 -4.95303 0
M  V30 16010 N 1543.14 1.28707 -0.909517 0
M  V30 16011 C 1544.36 1.99821 -0.555557 0
M  V30 16012 C 1544.79 1.67549 0.854931 0
M  V30 16013 O 1544.14 0.905521 1.57067 0
M  V30 16014 C 1544.19 3.52361 -0.766438 0
M  V30 16015 O 1543.3 4.12022 0.17654 0
M  V30 16016 H 1542.64 0.627918 -0.215905 0
M  V30 16017 H 1545.17 1.63965 -1.2238 0
M  V30 16018 H 1545.18 4.02379 -0.674894 0
M  V30 16019 H 1543.85 3.75184 -1.7947 0
M  V30 16020 H 1542.43 3.72882 0.0366216 0
M  V30 16021 N 1544.61 0.673042 1.42506 0
M  V30 16022 C 1546.03 0.272049 1.84707 0
M  V30 16023 C 1546.38 -1.18545 1.56338 0
M  V30 16024 O 1545.5 -1.9073 1.02231 0
M  V30 16025 C 1546.1 0.486977 3.35282 0
M  V30 16026 C 1544.66 0.140122 3.76139 0
M  V30 16027 C 1543.8 0.780276 2.66096 0
M  V30 16028 H 1546.75 0.875329 1.32377 0
M  V30 16029 H 1546.77 -0.261443 3.79601 0
M  V30 16030 H 1546.29 1.54784 3.55898 0
M  V30 16031 H 1544.39 -0.917366 3.6113 0
M  V30 16032 H 1544.5 0.579417 4.75583 0
M  V30 16033 H 1542.86 0.211756 2.53818 0
M  V30 16034 H 1543.65 1.84456 2.89536 0
M  V30 16035 N 1546.09 -1.52004 0.416254 0
M  V30 16036 C 1547.04 -2.27206 -0.405723 0
M  V30 16037 C 1548.01 -1.29913 -1.03498 0
M  V30 16038 O 1549.19 -1.58786 -1.0579 0
M  V30 16039 C 1546.33 -3.10186 -1.51258 0
M  V30 16040 C 1545.45 -4.22445 -0.903539 0
M  V30 16041 C 1544.58 -4.92771 -1.98368 0
M  V30 16042 C 1543.62 -5.96983 -1.35196 0
M  V30 16043 N 1542.76 -6.60798 -2.37255 0
M  V30 16044 H 1547.6 -2.97016 0.241983 0
M  V30 16045 H 1545.14 -1.46514 0.131174 0
M  V30 16046 H 1547.09 -3.56606 -2.16537 0
M  V30 16047 H 1545.72 -2.42532 -2.13021 0
M  V30 16048 H 1544.78 -3.80144 -0.139607 0
M  V30 16049 H 1546.09 -4.97176 -0.402136 0
M  V30 16050 H 1545.24 -5.42633 -2.71357 0
M  V30 16051 H 1543.98 -4.17624 -2.51876 0
M  V30 16052 H 1542.99 -5.46434 -0.607431 0
M  V30 16053 H 1544.21 -6.74076 -0.824482 0
M  V30 16054 H 1542.16 -5.88476 -2.89882 0
M  V30 16055 H 1542.07 -7.31227 -1.91947 0
M  V30 16056 H 1543.34 -7.15296 -3.09792 0
M  V30 16057 N 1547.57 -0.146903 -1.56914 0
M  V30 16058 C 1548.82 0.504981 -1.96412 0
M  V30 16059 C 1549.15 1.64522 -1.0318 0
M  V30 16060 O 1548.42 1.94359 -0.0741728 0
M  V30 16061 C 1548.71 1.01125 -3.45609 0
M  V30 16062 C 1548.56 -0.127493 -4.49619 0
M  V30 16063 C 1549.88 1.89306 -3.97305 0
M  V30 16064 H 1547 0.182088 -0.714152 0
M  V30 16065 H 1549.64 -0.22811 -1.88626 0
M  V30 16066 H 1547.79 1.63595 -3.52376 0
M  V30 16067 H 1549.46 -0.763829 -4.54932 0
M  V30 16068 H 1547.71 -0.786649 -4.26608 0
M  V30 16069 H 1548.38 0.268453 -5.51347 0
M  V30 16070 H 1550.85 1.36664 -3.93017 0
M  V30 16071 H 1549.73 2.21638 -5.02163 0
M  V30 16072 H 1549.99 2.82996 -3.39655 0
M  V30 16073 N 1549.05 1.57088 0.126881 0
M  V30 16074 C 1550 2.00736 1.17506 0
M  V30 16075 C 1550.99 0.902986 1.43327 0
M  V30 16076 O 1552.2 1.08819 1.43382 0
M  V30 16077 H 1548.57 0.639285 0.396003 0
M  V30 16078 H 1550.54 2.88015 0.780373 0
M  V30 16079 C 1549.29 2.42096 2.49569 0
M  V30 16080 H 1548.61 3.26639 2.30536 0
M  V30 16081 H 1550.05 2.76442 3.2149 0
M  V30 16082 C 1548.51 1.28148 3.11576 0
M  V30 16083 O 1549.04 0.593145 3.97297 0
M  V30 16084 N 1547.25 1.04055 2.71332 0
M  V30 16085 H 1546.8 1.60208 2.0172 0
M  V30 16086 H 1546.75 0.280075 3.1315 0
M  V30 16087 N 1550.53 -0.396836 1.52522 0
M  V30 16088 C 1551.75 -1.16857 1.71345 0
M  V30 16089 C 1552.18 -1.83178 0.427465 0
M  V30 16090 O 1551.53 -1.7051 -0.616123 0
M  V30 16091 C 1551.58 -2.19817 2.85855 0
M  V30 16092 O 1550.69 -3.26233 2.52281 0
M  V30 16093 H 1550.03 -0.340554 0.570017 0
M  V30 16094 H 1552.56 -0.463532 1.9928 0
M  V30 16095 H 1552.57 -2.63944 3.11123 0
M  V30 16096 H 1551.24 -1.70931 3.79151 0
M  V30 16097 H 1549.82 -2.87299 2.37726 0
M  V30 16098 N 1552.01 -1.43353 -0.654814 0
M  V30 16099 C 1553.25 -1.451 -1.41682 0
M  V30 16100 C 1553.58 -0.0743864 -1.94057 0
M  V30 16101 O 1552.86 0.904515 -1.72188 0
M  V30 16102 C 1553.14 -2.49204 -2.59941 0
M  V30 16103 C 1553 -3.96134 -2.13069 0
M  V30 16104 C 1554.31 -2.50064 -3.62155 0
M  V30 16105 H 1551.43 -0.528339 -0.513836 0
M  V30 16106 H 1554.08 -1.74892 -0.742489 0
M  V30 16107 H 1552.23 -2.2393 -3.1747 0
M  V30 16108 H 1553.9 -4.32459 -1.60552 0
M  V30 16109 H 1552.14 -4.09042 -1.44455 0
M  V30 16110 H 1552.81 -4.64585 -2.98101 0
M  V30 16111 H 1555.29 -2.72587 -3.14382 0
M  V30 16112 H 1554.16 -3.24849 -4.42452 0
M  V30 16113 H 1554.42 -1.53385 -4.14639 0
M  V30 16114 N 1553.48 0.89303 -1.29857 0
M  V30 16115 C 1554.73 1.63881 -1.17583 0
M  V30 16116 C 1555.05 1.93723 0.270293 0
M  V30 16117 O 1556.25 2.66582 0.514432 0
M  V30 16118 C 1554.71 2.95327 -2.05694 0
M  V30 16119 C 1554.32 2.73055 -3.55169 0
M  V30 16120 C 1556.06 3.7327 -2.02162 0
M  V30 16121 C 1553.97 4.00268 -4.35361 0
M  V30 16122 H 1552.9 0.614815 -0.436485 0
M  V30 16123 H 1555.55 0.989339 -1.54546 0
M  V30 16124 H 1553.93 3.61523 -1.61607 0
M  V30 16125 H 1555.1 2.1541 -4.07351 0
M  V30 16126 H 1553.42 2.08498 -3.6044 0
M  V30 16127 H 1556.02 4.67601 -2.59333 0
M  V30 16128 H 1556.36 4.04032 -1.00318 0
M  V30 16129 H 1556.89 3.13925 -2.44328 0
M  V30 16130 H 1553.63 3.74669 -5.37869 0
M  V30 16131 H 1553.15 4.57448 -3.87945 0
M  V30 16132 H 1554.83 4.68358 -4.46374 0
M  V30 16133 N 1554.96 1.12442 1.10429 0
M  V30 16134 C 1556.38 0.860481 1.34417 0
M  V30 16135 C 1556.58 -0.509394 1.94955 0
M  V30 16136 O 1555.63 -1.25807 2.18927 0
M  V30 16137 C 1556.95 1.97694 2.26578 0
M  V30 16138 C 1558.49 2.00783 2.40115 0
M  V30 16139 C 1558.97 3.11663 3.35604 0
M  V30 16140 N 1560.46 3.11106 3.43173 0
M  V30 16141 C 1561.2 3.9354 4.1703 0
M  V30 16142 N 1560.69 4.85963 4.93773 0
M  V30 16143 N 1562.48 3.81677 4.12649 0
M  V30 16144 H 1554.64 2.00706 0.695036 0
M  V30 16145 H 1556.9 0.873398 0.368619 0
M  V30 16146 H 1556.6 2.96405 1.89306 0
M  V30 16147 H 1556.48 1.88217 3.26886 0
M  V30 16148 H 1558.87 1.02692 2.76656 0
M  V30 16149 H 1558.95 2.14335 1.39621 0
M  V30 16150 H 1558.59 4.09987 2.99789 0
M  V30 16151 H 1558.52 2.9535 4.35977 0
M  V30 16152 H 1561.01 2.4415 2.88442 0
M  V30 16153 H 1561.32 5.45373 5.47529 0
M  V30 16154 H 1559.67 4.89976 4.92898 0
M  V30 16155 H 1562.86 3.08808 3.51789 0
M  V30 16156 H 1563.03 4.46151 4.6995 0
M  V30 16157 N 1556.44 -1.28223 0.91633 0
M  V30 16158 C 1557.35 -2.30956 0.411882 0
M  V30 16159 C 1558.37 -1.66609 -0.501753 0
M  V30 16160 O 1559.54 -1.97641 -0.387317 0
M  V30 16161 C 1556.61 -3.45053 -0.337558 0
M  V30 16162 C 1555.67 -4.2495 0.609609 0
M  V30 16163 C 1554.9 -5.33598 -0.104159 0
M  V30 16164 O 1555.12 -5.54786 -1.32546 0
M  V30 16165 O 1554.06 -5.99272 0.561851 0
M  V30 16166 H 1557.88 -2.76118 1.26461 0
M  V30 16167 H 1555.47 -1.32964 0.681246 0
M  V30 16168 H 1557.35 -4.14477 -0.760722 0
M  V30 16169 H 1556.03 -3.01968 -1.16607 0
M  V30 16170 H 1554.93 -3.58104 1.08222 0
M  V30 16171 H 1556.27 -4.7172 1.40502 0
M  V30 16172 N 1557.92 -0.68059 -1.42147 0
M  V30 16173 C 1558.88 -0.0149865 -2.29195 0
M  V30 16174 C 1559.88 0.723163 -1.43621 0
M  V30 16175 O 1561.07 0.560297 -1.64943 0
M  V30 16176 C 1558.2 0.989375 -3.26227 0
M  V30 16177 H 1559.4 -0.781236 -2.89546 0
M  V30 16178 H 1556.95 -0.443256 -1.49883 0
M  V30 16179 H 1557.68 1.78391 -2.70827 0
M  V30 16180 H 1557.47 0.463401 -3.89352 0
M  V30 16181 H 1558.96 1.45334 -3.91494 0
M  V30 16182 N 1559.4 1.51781 -0.424309 0
M  V30 16183 C 1560.64 2.0157 0.146203 0
M  V30 16184 C 1560.96 1.3111 1.44344 0
M  V30 16185 O 1560.23 0.441631 1.90857 0
M  V30 16186 H 1558.81 0.744821 0.057019 0
M  V30 16187 H 1561.48 1.8656 -0.564031 0
M  V30 16188 H 1560.57 3.10335 0.331464 0
M  V30 16189 N 1560.87 0.155222 1.56834 0
M  V30 16190 C 1561.82 -0.798342 2.1847 0
M  V30 16191 C 1562.82 -1.24931 1.14405 0
M  V30 16192 O 1564.02 -1.21684 1.32639 0
M  V30 16193 H 1560.4 -0.275681 0.699646 0
M  V30 16194 H 1562.37 -0.254371 2.97314 0
M  V30 16195 C 1561.12 -2.02407 2.82713 0
M  V30 16196 H 1560.44 -1.68606 3.62508 0
M  V30 16197 H 1561.88 -2.67053 3.29331 0
M  V30 16198 C 1560.34 -2.83737 1.81645 0
M  V30 16199 O 1560.87 -3.80356 1.29198 0
M  V30 16200 N 1559.07 -2.48433 1.50764 0
M  V30 16201 H 1558.62 -1.69925 1.93606 0
M  V30 16202 H 1558.58 -3.03139 0.833899 0
M  V30 16203 N 1562.35 -1.57153 -0.118549 0
M  V30 16204 C 1563.6 -1.84511 -0.824623 0
M  V30 16205 C 1563.92 -0.740473 -1.80394 0
M  V30 16206 O 1563.19 0.235481 -1.9448 0
M  V30 16207 H 1561.77 -0.680764 -0.307522 0
M  V30 16208 H 1564.43 -1.94613 -0.105764 0
M  V30 16209 H 1563.53 -2.80444 -1.36958 0
M  V30 16210 N 1563.83 0.388742 -1.5273 0
M  V30 16211 C 1565.07 1.14269 -1.69475 0
M  V30 16212 C 1565.43 1.87222 -0.425669 0
M  V30 16213 O 1566.63 2.64668 -0.469486 0
M  V30 16214 C 1564.91 2.09472 -2.8958 0
M  V30 16215 S 1566.46 2.927 -3.26913 0
M  V30 16216 H 1563.28 0.386807 -0.596574 0
M  V30 16217 H 1565.88 0.427089 -1.90778 0
M  V30 16218 H 1564.59 1.54599 -3.80167 0
M  V30 16219 H 1564.12 2.8554 -2.70611 0
M  V30 16220 H 1566.13 4.11605 -2.77121 0
M  V30 16221 N 1565.31 1.43698 0.647203 0
M  V30 16222 C 1566.22 1.51781 1.78884 0
M  V30 16223 C 1567.23 0.404498 1.69233 0
M  V30 16224 O 1568.41 0.659509 1.90296 0
M  V30 16225 C 1565.47 1.44408 3.15194 0
M  V30 16226 C 1564.54 2.6646 3.36597 0
M  V30 16227 C 1563.77 2.59429 4.66403 0
M  V30 16228 O 1563.99 1.64537 5.46154 0
M  V30 16229 O 1562.93 3.50027 4.89658 0
M  V30 16230 H 1566.75 2.48198 1.75019 0
M  V30 16231 H 1564.34 1.25766 0.806436 0
M  V30 16232 H 1566.22 1.42761 3.96481 0
M  V30 16233 H 1564.89 0.511292 3.19637 0
M  V30 16234 H 1563.8 2.73679 2.5505 0
M  V30 16235 H 1565.13 3.58732 3.37005 0
M  V30 16236 N 1566.79 -0.886131 1.30328 0
M  V30 16237 C 1567.75 -1.97328 1.16594 0
M  V30 16238 C 1568.75 -1.60504 0.0975023 0
M  V30 16239 O 1569.94 -1.70739 0.345524 0
M  V30 16240 C 1567.07 -3.31714 0.786045 0
M  V30 16241 H 1568.26 -2.1094 2.13177 0
M  V30 16242 H 1565.82 -1.07238 1.13708 0
M  V30 16243 H 1566.55 -3.23804 -0.179334 0
M  V30 16244 H 1566.34 -3.5981 1.55817 0
M  V30 16245 H 1567.83 -4.11461 0.71339 0
M  V30 16246 N 1568.26 -1.13026 -1.09832 0
M  V30 16247 C 1569.51 -0.884093 -1.81292 0
M  V30 16248 C 1569.83 0.591608 -1.86439 0
M  V30 16249 O 1571.03 0.954571 -2.54166 0
M  V30 16250 C 1569.49 -1.53207 -3.25662 0
M  V30 16251 C 1569.1 -3.043 -3.28794 0
M  V30 16252 C 1570.84 -1.36644 -4.01906 0
M  V30 16253 C 1568.75 -3.62003 -4.67662 0
M  V30 16254 H 1567.68 -0.327101 -0.679353 0
M  V30 16255 H 1570.33 -1.35748 -1.2347 0
M  V30 16256 H 1568.71 -0.986353 -3.83519 0
M  V30 16257 H 1569.88 -3.65418 -2.80725 0
M  V30 16258 H 1568.2 -3.20332 -2.66038 0
M  V30 16259 H 1570.8 -1.7717 -5.04495 0
M  V30 16260 H 1571.14 -0.310809 -4.15138 0
M  V30 16261 H 1571.67 -1.88172 -3.5048 0
M  V30 16262 H 1568.41 -4.67354 -4.59631 0
M  V30 16263 H 1567.93 -3.05663 -5.16072 0
M  V30 16264 H 1569.61 -3.61432 -5.36634 0
M  V30 16265 N 1569.74 1.27735 -0.923117 0
M  V30 16266 C 1570.97 1.9922 -0.57672 0
M  V30 16267 C 1571.39 1.68446 0.837113 0
M  V30 16268 O 1570.75 0.922129 1.56098 0
M  V30 16269 C 1570.8 3.51528 -0.803768 0
M  V30 16270 O 1569.9 4.12186 0.132829 0
M  V30 16271 H 1569.24 0.625593 -0.222553 0
M  V30 16272 H 1571.77 1.62657 -1.24112 0
M  V30 16273 H 1571.78 4.01641 -0.717534 0
M  V30 16274 H 1570.46 3.7326 -1.83439 0
M  V30 16275 H 1569.04 3.729 -0.00292957 0
M  V30 16276 N 1571.22 0.688118 1.41784 0
M  V30 16277 C 1572.63 0.291625 1.84408 0
M  V30 16278 C 1572.98 -1.1688 1.57587 0
M  V30 16279 O 1572.11 -1.89634 1.04248 0
M  V30 16280 C 1572.7 0.522511 3.34747 0
M  V30 16281 C 1571.26 0.180008 3.75969 0
M  V30 16282 C 1570.41 0.808455 2.65253 0
M  V30 16283 H 1573.36 0.88932 1.31441 0
M  V30 16284 H 1573.38 -0.221167 3.79857 0
M  V30 16285 H 1572.89 1.5855 3.54236 0
M  V30 16286 H 1570.99 -0.879012 3.62083 0
M  V30 16287 H 1571.11 0.629826 4.74942 0
M  V30 16288 H 1569.47 0.238665 2.53579 0
M  V30 16289 H 1570.25 1.87516 2.87563 0
M  V30 16290 N 1572.7 -1.51554 0.432352 0
M  V30 16291 C 1573.94 -2.02344 -0.13598 0
M  V30 16292 C 1574.28 -1.31619 -1.42794 0
M  V30 16293 O 1573.55 -0.42957 -1.89697 0
M  V30 16294 C 1573.84 -3.58297 -0.359865 0
M  V30 16295 C 1573.69 -4.39645 0.950399 0
M  V30 16296 C 1575.01 -4.25297 -1.13184 0
M  V30 16297 H 1572.13 -0.735439 -0.0479461 0
M  V30 16298 H 1574.77 -1.81237 0.570373 0
M  V30 16299 H 1572.92 -3.76413 -0.961547 0
M  V30 16300 H 1574.59 -4.3319 1.58568 0
M  V30 16301 H 1572.83 -4.04928 1.55614 0
M  V30 16302 H 1573.5 -5.46911 0.747852 0
M  V30 16303 H 1575.98 -4.11421 -0.622231 0
M  V30 16304 H 1574.86 -5.34307 -1.25726 0
M  V30 16305 H 1575.12 -3.85818 -2.15862 0
M  V30 16306 N 1574.18 -0.163538 -1.56749 0
M  V30 16307 C 1575.4 0.489888 -2.01017 0
M  V30 16308 C 1575.82 1.57327 -1.04373 0
M  V30 16309 O 1575.18 1.82449 -0.0433414 0
M  V30 16310 C 1575.23 1.07537 -3.45135 0
M  V30 16311 O 1574.95 0.0352465 -4.38086 0
M  V30 16312 C 1576.45 1.80779 -4.04764 0
M  V30 16313 H 1573.67 0.126095 -0.659046 0
M  V30 16314 H 1576.21 -0.262982 -2.02802 0
M  V30 16315 H 1574.37 1.77877 -3.44149 0
M  V30 16316 H 1574.78 0.466426 -5.22422 0
M  V30 16317 H 1576.26 2.17014 -5.07552 0
M  V30 16318 H 1576.73 2.6999 -3.46413 0
M  V30 16319 H 1577.34 1.15098 -4.09429 0
M  V30 16320 N 1575.65 1.57214 0.110213 0
M  V30 16321 C 1576.88 1.8988 0.834297 0
M  V30 16322 C 1577.3 0.756347 1.72224 0
M  V30 16323 O 1576.66 -0.292768 1.78921 0
M  V30 16324 C 1576.71 3.21338 1.63629 0
M  V30 16325 O 1575.81 3.07862 2.74399 0
M  V30 16326 H 1575.16 0.62283 0.23017 0
M  V30 16327 H 1577.69 2.04402 0.0899726 0
M  V30 16328 H 1577.7 3.54275 2.02369 0
M  V30 16329 H 1576.37 4.04079 0.984521 0
M  V30 16330 H 1574.95 2.8641 2.38797 0
M  V30 16331 N 1577.13 -0.380637 1.52934 0
M  V30 16332 C 1578.54 -0.958182 1.60237 0
M  V30 16333 C 1578.89 -1.90722 0.460393 0
M  V30 16334 O 1578.02 -2.12376 -0.415354 0
M  V30 16335 C 1578.61 -1.7446 2.90429 0
M  V30 16336 C 1577.17 -2.27172 3.00116 0
M  V30 16337 C 1576.32 -1.07969 2.55417 0
M  V30 16338 H 1579.27 -0.159908 1.57892 0
M  V30 16339 H 1579.29 -2.60456 2.77385 0
M  V30 16340 H 1578.8 -1.05362 3.73524 0
M  V30 16341 H 1576.91 -2.99557 2.21577 0
M  V30 16342 H 1577.02 -2.56086 4.04916 0
M  V30 16343 H 1575.38 -1.4422 2.09935 0
M  V30 16344 H 1576.17 -0.403925 3.40915 0
M  V30 16345 N 1578.61 -1.44039 -0.639573 0
M  V30 16346 C 1579.54 -1.53073 -1.76327 0
M  V30 16347 C 1580.52 -0.384344 -1.65701 0
M  V30 16348 O 1581.71 -0.603362 -1.84589 0
M  V30 16349 C 1578.84 -1.46646 -3.14821 0
M  V30 16350 C 1577.79 -2.59673 -3.40226 0
M  V30 16351 C 1577.12 -2.38298 -4.78663 0
M  V30 16352 C 1578.42 -4.01864 -3.33621 0
M  V30 16353 H 1580.11 -2.47126 -1.69023 0
M  V30 16354 H 1577.66 -1.1894 -0.811749 0
M  V30 16355 H 1579.61 -1.51567 -3.93199 0
M  V30 16356 H 1578.33 -0.491035 -3.22888 0
M  V30 16357 H 1576.99 -2.54127 -2.64225 0
M  V30 16358 H 1576.64 -1.38968 -4.83422 0
M  V30 16359 H 1576.34 -3.14074 -4.9662 0
M  V30 16360 H 1577.86 -2.45025 -5.59281 0
M  V30 16361 H 1579.28 -4.08824 -4.01915 0
M  V30 16362 H 1577.68 -4.77775 -3.63113 0
M  V30 16363 H 1578.75 -4.26033 -2.31569 0
M  V30 16364 N 1580.09 0.879207 -1.30796 0
M  V30 16365 C 1581.04 1.97297 -1.14272 0
M  V30 16366 C 1582.02 1.60802 -0.0562653 0
M  V30 16367 O 1583.21 1.74768 -0.280204 0
M  V30 16368 C 1580.34 3.32799 -0.842604 0
M  V30 16369 C 1579.43 3.7559 -1.96959 0
M  V30 16370 N 1579.82 3.90426 -3.21561 0
M  V30 16371 C 1578.12 4.05031 -1.86725 0
M  V30 16372 C 1578.82 4.2682 -3.9522 0
M  V30 16373 N 1577.8 4.36999 -3.23316 0
M  V30 16374 H 1581.6 2.06865 -2.08768 0
M  V30 16375 H 1579.11 1.0694 -1.2222 0
M  V30 16376 H 1581.11 4.10892 -0.705224 0
M  V30 16377 H 1579.77 3.24563 0.0942269 0
M  V30 16378 H 1580.78 3.75401 -3.56783 0
M  V30 16379 H 1577.46 4.05236 -1.00447 0
M  V30 16380 H 1578.85 4.45973 -5.02551 0
M  V30 16381 N 1581.57 1.13606 1.09231 0
M  V30 16382 C 1582.5 0.837908 2.17948 0
M  V30 16383 C 1583.48 -0.203575 1.68877 0
M  V30 16384 O 1584.66 -0.0620702 1.94101 0
M  V30 16385 C 1581.79 0.305342 3.45955 0
M  V30 16386 C 1580.75 1.2813 4.08371 0
M  V30 16387 C 1580.07 0.608412 5.31227 0
M  V30 16388 C 1581.37 2.64055 4.50636 0
M  V30 16389 H 1583.07 1.747 2.43147 0
M  V30 16390 H 1580.61 0.84141 1.1686 0
M  V30 16391 H 1582.57 0.0844116 4.21315 0
M  V30 16392 H 1581.29 -0.639144 3.20285 0
M  V30 16393 H 1579.95 1.48826 3.35032 0
M  V30 16394 H 1579.6 -0.341613 5.01839 0
M  V30 16395 H 1579.3 1.25956 5.73942 0
M  V30 16396 H 1580.82 0.396809 6.09309 0
M  V30 16397 H 1582.24 2.47316 5.17212 0
M  V30 16398 H 1580.63 3.25364 5.0424 0
M  V30 16399 H 1581.7 3.21566 3.62937 0
M  V30 16400 N 1583.05 -1.27244 0.929878 0
M  V30 16401 C 1583.99 -2.26773 0.429287 0
M  V30 16402 C 1584.96 -1.58238 -0.50498 0
M  V30 16403 O 1586.15 -1.86037 -0.423661 0
M  V30 16404 C 1583.29 -3.43706 -0.309865 0
M  V30 16405 C 1582.4 -4.26948 0.658764 0
M  V30 16406 C 1581.54 -5.31105 -0.10045 0
M  V30 16407 C 1580.57 -6.06018 0.860743 0
M  V30 16408 N 1579.71 -7.01972 0.134015 0
M  V30 16409 H 1584.55 -2.68967 1.283 0
M  V30 16410 H 1582.09 -1.32257 0.643923 0
M  V30 16411 H 1584.05 -4.10316 -0.754754 0
M  V30 16412 H 1582.68 -3.02457 -1.1278 0
M  V30 16413 H 1581.73 -3.60232 1.22218 0
M  V30 16414 H 1583.04 -4.78946 1.39326 0
M  V30 16415 H 1582.19 -6.03674 -0.605153 0
M  V30 16416 H 1580.93 -4.79915 -0.867902 0
M  V30 16417 H 1579.94 -5.32285 1.37668 0
M  V30 16418 H 1581.16 -6.59297 1.62801 0
M  V30 16419 H 1579.11 -6.53109 -0.615152 0
M  V30 16420 H 1579.03 -7.51669 0.808045 0
M  V30 16421 H 1580.29 -7.78714 -0.349964 0
M  V30 16422 N 1584.52 -0.695628 -1.41417 0
M  V30 16423 C 1585.75 -0.234163 -2.06074 0
M  V30 16424 C 1586.17 1.10796 -1.52006 0
M  V30 16425 O 1585.53 1.6936 -0.64705 0
M  V30 16426 C 1585.58 -0.202353 -3.60032 0
M  V30 16427 O 1584.68 0.822767 -4.04109 0
M  V30 16428 H 1584.02 -0.114395 -0.654072 0
M  V30 16429 H 1586.55 -0.950503 -1.81181 0
M  V30 16430 H 1586.56 -0.0332321 -4.07986 0
M  V30 16431 H 1585.24 -1.18188 -3.98754 0
M  V30 16432 H 1583.82 0.622995 -3.67659 0
M  V30 16433 N 1586 1.51322 -0.440383 0
M  V30 16434 C 1587.23 2.07017 0.126018 0
M  V30 16435 C 1587.65 1.30537 1.35431 0
M  V30 16436 O 1587.01 0.344178 1.78003 0
M  V30 16437 C 1587.06 3.58101 0.4238 0
M  V30 16438 O 1586.16 3.83772 1.50973 0
M  V30 16439 H 1585.5 0.664 0.000530178 0
M  V30 16440 H 1588.03 1.94897 -0.622594 0
M  V30 16441 H 1588.04 4.02405 0.673363 0
M  V30 16442 H 1586.72 4.13191 -0.473932 0
M  V30 16443 H 1585.29 3.51329 1.24989 0
M  V30 16444 N 1587.48 0.171848 1.5666 0
M  V30 16445 C 1588.41 -0.753861 2.20996 0
M  V30 16446 C 1589.39 -1.23873 1.16574 0
M  V30 16447 O 1590.58 -1.29179 1.45005 0
M  V30 16448 C 1587.71 -1.98314 2.85112 0
M  V30 16449 C 1586.66 -1.6341 3.95577 0
M  V30 16450 C 1585.99 -2.93807 4.46745 0
M  V30 16451 C 1587.29 -0.861713 5.15142 0
M  V30 16452 H 1588.98 -0.217598 2.98608 0
M  V30 16453 H 1586.53 -0.10322 1.4363 0
M  V30 16454 H 1588.48 -2.63576 3.28794 0
M  V30 16455 H 1587.2 -2.54354 2.04869 0
M  V30 16456 H 1585.86 -1.00516 3.52551 0
M  V30 16457 H 1585.51 -3.47889 3.63293 0
M  V30 16458 H 1585.21 -2.71207 5.21268 0
M  V30 16459 H 1586.73 -3.60098 4.93114 0
M  V30 16460 H 1588.15 -1.41693 5.55514 0
M  V30 16461 H 1586.54 -0.734727 5.95585 0
M  V30 16462 H 1587.61 0.141851 4.84692 0
M  V30 16463 N 1588.96 -1.5727 -0.101874 0
M  V30 16464 C 1590.37 -1.74753 -0.657147 0
M  V30 16465 C 1590.72 -0.793052 -1.79458 0
M  V30 16466 O 1589.84 0.0300559 -2.16379 0
M  V30 16467 C 1590.44 -3.1688 -1.19885 0
M  V30 16468 C 1589 -3.3581 -1.70025 0
M  V30 16469 C 1588.15 -2.70575 -0.607007 0
M  V30 16470 H 1591.1 -1.58214 0.124158 0
M  V30 16471 H 1591.12 -3.19378 -2.06829 0
M  V30 16472 H 1590.63 -3.86325 -0.37079 0
M  V30 16473 H 1588.73 -2.71434 -2.55253 0
M  V30 16474 H 1588.84 -4.44086 -1.79791 0
M  V30 16475 H 1587.21 -2.32284 -1.04481 0
M  V30 16476 H 1587.99 -3.42655 0.21036 0
M  V30 16477 N 1590.44 0.372521 -1.53134 0
M  V30 16478 C 1591.66 1.13668 -1.72879 0
M  V30 16479 C 1592.08 1.83246 -0.454588 0
M  V30 16480 O 1591.44 1.73302 0.572062 0
M  V30 16481 C 1591.49 2.17226 -2.88955 0
M  V30 16482 O 1591.21 1.50483 -4.11445 0
M  V30 16483 C 1592.71 3.06243 -3.20516 0
M  V30 16484 H 1589.93 0.340156 -0.57839 0
M  V30 16485 H 1592.47 0.433557 -1.99851 0
M  V30 16486 H 1590.63 2.83148 -2.64397 0
M  V30 16487 H 1591.04 2.19425 -4.76396 0
M  V30 16488 H 1592.52 3.74901 -4.05158 0
M  V30 16489 H 1592.99 3.70669 -2.35587 0
M  V30 16490 H 1593.6 2.45946 -3.46973 0
M  V30 16491 N 1591.91 1.44376 0.631925 0
M  V30 16492 C 1592.86 1.51181 1.74393 0
M  V30 16493 C 1593.83 0.359599 1.62161 0
M  V30 16494 O 1595.02 0.569725 1.82096 0
M  V30 16495 C 1592.16 1.46124 3.12637 0
M  V30 16496 C 1591.27 2.71714 3.35851 0
M  V30 16497 C 1590.4 2.58496 4.64062 0
M  V30 16498 C 1589.44 3.79252 4.80452 0
M  V30 16499 N 1588.58 3.64715 5.99939 0
M  V30 16500 H 1593.42 2.4619 1.67912 0
M  V30 16501 H 1590.96 1.22184 0.819108 0
M  V30 16502 H 1592.91 1.41183 3.92585 0
M  V30 16503 H 1591.54 0.546831 3.18135 0
M  V30 16504 H 1590.6 2.86845 2.49848 0
M  V30 16505 H 1591.91 3.61351 3.43841 0
M  V30 16506 H 1591.06 2.51383 5.5217 0
M  V30 16507 H 1589.8 1.66417 4.58428 0
M  V30 16508 H 1588.81 3.8675 3.90774 0
M  V30 16509 H 1590.03 4.72367 4.879 0
M  V30 16510 H 1587.98 2.75388 5.95397 0
M  V30 16511 H 1587.89 4.47969 6.08982 0
M  V30 16512 H 1589.16 3.61493 6.90611 0
M  V30 16513 N 1593.39 -0.872258 1.31261 0
M  V30 16514 C 1594.8 -1.44077 1.18738 0
M  V30 16515 C 1595.15 -1.95105 -0.207037 0
M  V30 16516 O 1594.28 -1.86083 -1.10464 0
M  V30 16517 C 1594.87 -2.61884 2.14947 0
M  V30 16518 C 1593.43 -3.14787 2.06364 0
M  V30 16519 C 1592.58 -1.87495 2.04306 0
M  V30 16520 H 1595.53 -0.681011 1.43345 0
M  V30 16521 H 1595.55 -3.38501 1.73773 0
M  V30 16522 H 1595.06 -2.24715 3.16425 0
M  V30 16523 H 1593.16 -3.56582 1.08073 0
M  V30 16524 H 1593.28 -3.77225 2.95361 0
M  V30 16525 H 1591.64 -2.06361 1.49288 0
M  V30 16526 H 1592.42 -1.52566 3.07536 0
M  V30 16527 N 1594.87 -1.14184 -1.08627 0
M  V30 16528 C 1596.09 -0.932504 -1.85254 0
M  V30 16529 C 1596.52 0.513792 -1.80947 0
M  V30 16530 O 1595.88 1.36525 -1.19292 0
M  V30 16531 C 1595.93 -1.43519 -3.30809 0
M  V30 16532 O 1595.03 -0.625806 -4.07624 0
M  V30 16533 H 1594.37 -0.333573 -0.57413 0
M  V30 16534 H 1596.9 -1.51853 -1.3712 0
M  V30 16535 H 1596.91 -1.44238 -3.81654 0
M  V30 16536 H 1595.59 -2.48819 -3.3326 0
M  V30 16537 H 1594.16 -0.687168 -3.66514 0
M  V30 16538 N 1596.35 1.26749 -0.936613 0
M  V30 16539 C 1597.59 1.94251 -0.582616 0
M  V30 16540 C 1597.93 1.73352 0.875361 0
M  V30 16541 O 1597.2 1.06784 1.62565 0
M  V30 16542 C 1597.49 3.48145 -0.920151 0
M  V30 16543 C 1597.34 3.78349 -2.43253 0
M  V30 16544 C 1598.66 4.37971 -0.432326 0
M  V30 16545 H 1595.78 0.705507 -0.213141 0
M  V30 16546 H 1598.42 1.49703 -1.17001 0
M  V30 16547 H 1596.57 3.8622 -0.420279 0
M  V30 16548 H 1598.24 3.50015 -3.00478 0
M  V30 16549 H 1596.48 3.24586 -2.87795 0
M  V30 16550 H 1597.15 4.85902 -2.61922 0
M  V30 16551 H 1599.63 4.07098 -0.860857 0
M  V30 16552 H 1598.51 5.44452 -0.697366 0
M  V30 16553 H 1598.77 4.37029 0.667694 0
M  V30 16554 N 1597.83 0.703118 1.41046 0
M  V30 16555 C 1599.05 0.245088 2.05947 0
M  V30 16556 C 1599.48 -1.09988 1.52592 0
M  V30 16557 O 1598.83 -1.69015 0.656023 0
M  V30 16558 C 1598.88 0.221444 3.59919 0
M  V30 16559 O 1597.99 -0.801324 4.0454 0
M  V30 16560 H 1597.33 0.117862 0.653456 0
M  V30 16561 H 1599.86 0.960099 1.80674 0
M  V30 16562 H 1599.87 0.0548681 4.07963 0
M  V30 16563 H 1598.54 1.20301 3.98121 0
M  V30 16564 H 1597.12 -0.603489 3.67984 0
M  V30 16565 N 1599.3 -1.51086 0.448402 0
M  V30 16566 C 1600.53 -2.06293 -0.112531 0
M  V30 16567 C 1600.94 -1.31478 -1.36052 0
M  V30 16568 O 1600.29 -0.370897 -1.79917 0
M  V30 16569 C 1600.35 -3.56156 -0.489178 0
M  V30 16570 C 1600.01 -4.52302 0.653568 0
M  V30 16571 C 1601.01 -4.96909 1.52898 0
M  V30 16572 C 1598.69 -4.9527 0.837448 0
M  V30 16573 C 1600.69 -5.83165 2.57288 0
M  V30 16574 C 1598.37 -5.81314 1.8846 0
M  V30 16575 C 1599.37 -6.25161 2.75069 0
M  V30 16576 O 1599.06 -7.09495 3.77985 0
M  V30 16577 H 1598.79 -0.67597 -0.00641865 0
M  V30 16578 H 1601.35 -1.95515 0.629533 0
M  V30 16579 H 1599.58 -3.64757 -1.28411 0
M  V30 16580 H 1601.27 -3.93828 -0.982548 0
M  V30 16581 H 1602.03 -4.64399 1.3985 0
M  V30 16582 H 1597.91 -4.60676 0.172857 0
M  V30 16583 H 1601.45 -6.1731 3.24921 0
M  V30 16584 H 1597.35 -6.13236 2.01523 0
M  V30 16585 H 1598.12 -7.27697 3.74699 0
M  V30 16586 N 1600.78 -0.180154 -1.56567 0
M  V30 16587 C 1602.01 0.46854 -2.01525 0
M  V30 16588 C 1602.43 1.56211 -1.06036 0
M  V30 16589 O 1601.78 1.82392 -0.06269 0
M  V30 16590 C 1601.83 1.0387 -3.46256 0
M  V30 16591 O 1601.55 -0.0112203 -4.38099 0
M  V30 16592 C 1603.06 1.76475 -4.06659 0
M  V30 16593 H 1600.28 0.119098 -0.660346 0
M  V30 16594 H 1602.82 -0.284477 -2.02512 0
M  V30 16595 H 1600.97 1.74217 -3.46016 0
M  V30 16596 H 1601.39 0.41099 -5.22887 0
M  V30 16597 H 1602.86 2.11618 -5.09825 0
M  V30 16598 H 1603.34 2.66301 -3.49257 0
M  V30 16599 H 1603.95 1.10749 -4.10627 0
M  V30 16600 N 1602.26 1.57322 0.0935319 0
M  V30 16601 C 1603.51 1.85353 0.795445 0
M  V30 16602 C 1603.82 0.769647 1.79822 0
M  V30 16603 O 1605.03 0.937121 2.54814 0
M  V30 16604 C 1603.48 3.28711 1.4655 0
M  V30 16605 C 1603.09 4.45174 0.502415 0
M  V30 16606 C 1604.84 3.65965 2.15105 0
M  V30 16607 C 1602.74 5.79566 1.17715 0
M  V30 16608 H 1601.67 0.691394 0.300816 0
M  V30 16609 H 1604.32 1.83436 0.0484063 0
M  V30 16610 H 1602.71 3.25173 2.26005 0
M  V30 16611 H 1603.88 4.60062 -0.260754 0
M  V30 16612 H 1602.2 4.16328 -0.0775186 0
M  V30 16613 H 1604.79 4.63655 2.66323 0
M  V30 16614 H 1605.14 2.94667 2.94069 0
M  V30 16615 H 1605.67 3.71398 1.42508 0
M  V30 16616 H 1602.41 6.54099 0.428277 0
M  V30 16617 H 1601.93 5.68519 1.9117 0
M  V30 16618 H 1603.61 6.2418 1.70318 0
M  V30 16619 N 1603.74 -0.364395 1.53329 0
M  V30 16620 C 1604.7 -1.42927 1.79178 0
M  V30 16621 C 1605.7 -1.4653 0.662235 0
M  V30 16622 O 1606.89 -1.4727 0.930442 0
M  V30 16623 C 1604.02 -2.82035 1.91492 0
M  V30 16624 H 1605.22 -1.21281 2.74283 0
M  V30 16625 H 1602.77 -0.597596 1.44425 0
M  V30 16626 H 1603.5 -3.08993 0.984579 0
M  V30 16627 H 1603.29 -2.80818 2.73649 0
M  V30 16628 H 1604.78 -3.59148 2.13078 0
M  V30 16629 N 1605.22 -1.44709 -0.62426 0
M  V30 16630 C 1606.15 -1.54934 -1.74693 0
M  V30 16631 C 1607.13 -0.401897 -1.65284 0
M  V30 16632 O 1608.31 -0.622906 -1.83939 0
M  V30 16633 C 1605.44 -1.49976 -3.13248 0
M  V30 16634 C 1604.4 -2.63267 -3.37453 0
M  V30 16635 C 1603.72 -2.43362 -4.76108 0
M  V30 16636 C 1605.02 -4.0538 -3.2934 0
M  V30 16637 H 1606.72 -2.48905 -1.66393 0
M  V30 16638 H 1604.26 -1.19794 -0.799088 0
M  V30 16639 H 1606.22 -1.55729 -3.91569 0
M  V30 16640 H 1604.94 -0.525254 -3.22349 0
M  V30 16641 H 1603.6 -2.56915 -2.61515 0
M  V30 16642 H 1603.25 -1.44088 -4.81921 0
M  V30 16643 H 1602.95 -3.19324 -4.93261 0
M  V30 16644 H 1604.47 -2.50943 -5.56651 0
M  V30 16645 H 1605.88 -4.13064 -3.97556 0
M  V30 16646 H 1604.28 -4.81599 -3.58025 0
M  V30 16647 H 1605.35 -4.28465 -2.27038 0
M  V30 16648 N 1606.69 0.865285 -1.31722 0
M  V30 16649 C 1607.66 1.95449 -1.19718 0
M  V30 16650 C 1608.66 1.60329 -0.123025 0
M  V30 16651 O 1609.85 1.70168 -0.372643 0
M  V30 16652 C 1606.98 3.30421 -0.838718 0
M  V30 16653 H 1608.17 2.07522 -2.16506 0
M  V30 16654 H 1605.73 1.05416 -1.154 0
M  V30 16655 H 1606.46 3.24048 0.127797 0
M  V30 16656 H 1606.25 3.57286 -1.61522 0
M  V30 16657 H 1607.74 4.10274 -0.77876 0
M  V30 16658 N 1608.17 1.14759 1.0802 0
M  V30 16659 C 1609.58 0.928711 1.61963 0
M  V30 16660 C 1609.93 -0.531568 1.88862 0
M  V30 16661 O 1609.06 -1.40129 1.64902 0
M  V30 16662 C 1609.65 1.67943 2.94246 0
M  V30 16663 C 1608.21 1.50602 3.44958 0
M  V30 16664 C 1607.36 1.69938 2.19126 0
M  V30 16665 H 1610.31 1.29882 0.911945 0
M  V30 16666 H 1610.33 1.14493 3.62866 0
M  V30 16667 H 1609.84 2.7422 2.74636 0
M  V30 16668 H 1607.95 0.466901 3.69663 0
M  V30 16669 H 1608.06 2.27857 4.21447 0
M  V30 16670 H 1606.42 1.12534 2.28491 0
M  V30 16671 H 1607.21 2.77566 2.0202 0
M  V30 16672 N 1609.65 -1.26251 0.943322 0
M  V30 16673 C 1611.06 -1.75591 0.634391 0
M  V30 16674 C 1611.41 -1.76812 -0.850406 0
M  V30 16675 O 1610.54 -1.38162 -1.66554 0
M  V30 16676 C 1611.13 -3.18871 1.14484 0
M  V30 16677 C 1609.69 -3.65817 0.886285 0
M  V30 16678 C 1608.84 -2.4523 1.2945 0
M  V30 16679 H 1611.79 -1.12297 1.12139 0
M  V30 16680 H 1611.81 -3.77205 0.499654 0
M  V30 16681 H 1611.32 -3.17951 2.22551 0
M  V30 16682 H 1609.42 -3.72165 -0.179913 0
M  V30 16683 H 1609.54 -4.54523 1.5148 0
M  V30 16684 H 1607.9 -2.44519 0.712919 0
M  V30 16685 H 1608.68 -2.47009 2.38415 0
M  V30 16686 N 1611.13 -0.710588 -1.40671 0
M  V30 16687 C 1612.09 -0.0635988 -2.29112 0
M  V30 16688 C 1613.09 0.692537 -1.45123 0
M  V30 16689 O 1614.28 0.525184 -1.66095 0
M  V30 16690 C 1611.41 0.919955 -3.28252 0
M  V30 16691 H 1612.61 -0.842477 -2.87823 0
M  V30 16692 H 1610.16 -0.474948 -1.48909 0
M  V30 16693 H 1610.9 1.72607 -2.7455 0
M  V30 16694 H 1610.68 0.38071 -3.90247 0
M  V30 16695 H 1612.17 1.36997 -3.94489 0
M  V30 16696 N 1612.61 1.50847 -0.456408 0
M  V30 16697 C 1614.02 1.59222 -0.109731 0
M  V30 16698 C 1614.22 1.46582 1.3826 0
M  V30 16699 O 1613.28 1.31678 2.15446 0
M  V30 16700 C 1614.59 2.9366 -0.646846 0
M  V30 16701 C 1616.14 3.07019 -0.60897 0
M  V30 16702 C 1616.62 4.44009 -1.12338 0
M  V30 16703 N 1618.11 4.50381 -1.08217 0
M  V30 16704 C 1618.84 5.54741 -1.45086 0
M  V30 16705 N 1618.34 6.66427 -1.89333 0
M  V30 16706 N 1620.13 5.45204 -1.36782 0
M  V30 16707 H 1612.28 1.57307 -1.42717 0
M  V30 16708 H 1614.54 0.742587 -0.589295 0
M  V30 16709 H 1614.25 3.0834 -1.69172 0
M  V30 16710 H 1614.12 3.7711 -0.0822535 0
M  V30 16711 H 1616.51 2.91995 0.426958 0
M  V30 16712 H 1616.59 2.25362 -1.21019 0
M  V30 16713 H 1616.24 4.59781 -2.15787 0
M  V30 16714 H 1616.17 5.24235 -0.498512 0
M  V30 16715 H 1618.66 3.70231 -0.757467 0
M  V30 16716 H 1618.97 7.42101 -2.15652 0
M  V30 16717 H 1617.32 6.67585 -1.93275 0
M  V30 16718 H 1620.51 4.56837 -1.02066 0
M  V30 16719 H 1620.68 6.26419 -1.65842 0
M  V30 16720 N 1614.09 0.188454 1.56469 0
M  V30 16721 C 1615.36 -0.499324 1.89119 0
M  V30 16722 C 1615.74 -1.80116 1.10098 0
M  V30 16723 O 1615.09 -2.27623 0.200048 0
M  V30 16724 C 1615.3 -0.724574 3.41396 0
M  V30 16725 C 1616.65 -1.04692 4.11491 0
M  V30 16726 O 1617.67 -0.812526 3.46809 0
M  V30 16727 O 1616.53 -1.48998 5.25797 0
M  V30 16728 H 1613.63 -0.259468 0.785242 0
M  V30 16729 H 1616.17 0.228172 1.68159 0
M  V30 16730 H 1614.94 0.195039 3.90814 0
M  V30 16731 H 1614.57 -1.50477 3.68025 0
M  V30 16732 N 1615.56 -1.5737 -0.0851874 0
M  V30 16733 C 1616.49 -2.05796 -1.10319 0
M  V30 16734 C 1617.47 -0.948796 -1.4118 0
M  V30 16735 O 1618.66 -1.22069 -1.51039 0
M  V30 16736 C 1615.79 -2.49069 -2.42037 0
M  V30 16737 C 1614.74 -3.6374 -2.25561 0
M  V30 16738 C 1614.07 -3.93023 -3.62543 0
M  V30 16739 C 1615.37 -4.94274 -1.68793 0
M  V30 16740 H 1617.06 -2.91095 -0.700274 0
M  V30 16741 H 1614.61 -1.40039 -0.335405 0
M  V30 16742 H 1616.56 -2.81558 -3.13534 0
M  V30 16743 H 1615.29 -1.60781 -2.84283 0
M  V30 16744 H 1613.95 -3.31513 -1.56507 0
M  V30 16745 H 1613.59 -3.01887 -4.02335 0
M  V30 16746 H 1613.29 -4.70229 -3.52362 0
M  V30 16747 H 1614.82 -4.27995 -4.35491 0
M  V30 16748 H 1616.23 -5.25079 -2.30141 0
M  V30 16749 H 1614.63 -5.75711 -1.69344 0
M  V30 16750 H 1615.7 -4.80548 -0.648204 0
M  V30 16751 N 1617.04 0.356258 -1.53521 0
M  V30 16752 C 1617.95 1.46055 -1.83589 0
M  V30 16753 C 1618.97 1.58176 -0.724997 0
M  V30 16754 O 1620.14 1.73894 -1.01601 0
M  V30 16755 C 1617.21 2.81207 -2.0279 0
M  V30 16756 C 1616.27 2.78535 -3.26675 0
M  V30 16757 C 1615.5 4.07241 -3.4495 0
M  V30 16758 O 1615.73 5.03879 -2.67324 0
M  V30 16759 O 1614.66 4.12485 -4.38337 0
M  V30 16760 H 1618.49 1.23566 -2.77426 0
M  V30 16761 H 1616.07 0.547243 -1.39017 0
M  V30 16762 H 1617.95 3.61271 -2.16936 0
M  V30 16763 H 1616.63 3.03654 -1.12143 0
M  V30 16764 H 1615.53 1.97137 -3.17943 0
M  V30 16765 H 1616.87 2.61042 -4.17274 0
M  V30 16766 N 1618.52 1.45038 0.616577 0
M  V30 16767 C 1619.45 1.49023 1.7414 0
M  V30 16768 C 1620.46 0.381965 1.58256 0
M  V30 16769 O 1621.65 0.648527 1.66302 0
M  V30 16770 C 1618.75 1.32233 3.12038 0
M  V30 16771 C 1617.93 2.5657 3.54246 0
M  V30 16772 C 1616.99 2.34468 4.71075 0
M  V30 16773 O 1616.01 3.08035 4.78647 0
M  V30 16774 N 1617.21 1.38454 5.63747 0
M  V30 16775 H 1619.98 2.45997 1.71189 0
M  V30 16776 H 1617.54 1.40663 0.80159 0
M  V30 16777 H 1619.53 1.15271 3.87936 0
M  V30 16778 H 1618.1 0.435685 3.09549 0
M  V30 16779 H 1617.32 2.88709 2.68404 0
M  V30 16780 H 1618.61 3.39239 3.79203 0
M  V30 16781 H 1618.01 0.777236 5.60335 0
M  V30 16782 H 1616.56 1.27467 6.39215 0
M  V30 16783 N 1620 -0.858287 1.32179 0
M  V30 16784 C 1621.23 -1.64235 1.25341 0
M  V30 16785 C 1621.64 -1.88327 -0.181568 0
M  V30 16786 O 1620.98 -1.44996 -1.12791 0
M  V30 16787 C 1621.04 -3.02686 1.93963 0
M  V30 16788 C 1620.7 -3.01651 3.43301 0
M  V30 16789 C 1621.7 -2.78762 4.38848 0
M  V30 16790 C 1619.39 -3.22402 3.85178 0
M  V30 16791 C 1621.38 -2.76621 5.74247 0
M  V30 16792 C 1619.07 -3.19888 5.20687 0
M  V30 16793 C 1620.07 -2.97026 6.15032 0
M  V30 16794 O 1619.75 -2.94379 7.48061 0
M  V30 16795 H 1619.49 -0.518387 0.433879 0
M  V30 16796 H 1622.04 -1.07869 1.74795 0
M  V30 16797 H 1620.27 -3.60826 1.39074 0
M  V30 16798 H 1621.96 -3.63367 1.80884 0
M  V30 16799 H 1622.72 -2.62501 4.07821 0
M  V30 16800 H 1618.6 -3.39223 3.12167 0
M  V30 16801 H 1622.15 -2.58696 6.4786 0
M  V30 16802 H 1618.04 -3.35693 5.51344 0
M  V30 16803 H 1618.81 -3.10359 7.57377 0
M  V30 16804 N 1621.48 -1.1533 -1.07409 0
M  V30 16805 C 1622.72 -0.929181 -1.80261 0
M  V30 16806 C 1623.05 0.542387 -1.86472 0
M  V30 16807 O 1622.33 1.40209 -1.34802 0
M  V30 16808 C 1622.61 -1.54339 -3.25348 0
M  V30 16809 C 1622.47 -3.08551 -3.27286 0
M  V30 16810 C 1623.78 -1.22868 -4.22601 0
M  V30 16811 H 1620.9 -0.338985 -0.654414 0
M  V30 16812 H 1623.55 -1.42485 -1.2569 0
M  V30 16813 H 1621.7 -1.12187 -3.71949 0
M  V30 16814 H 1623.37 -3.59605 -2.88932 0
M  V30 16815 H 1621.61 -3.42471 -2.66263 0
M  V30 16816 H 1622.28 -3.4664 -4.29587 0
M  V30 16817 H 1624.76 -1.59328 -3.84388 0
M  V30 16818 H 1623.63 -1.68462 -5.2241 0
M  V30 16819 H 1623.89 -0.145612 -4.4186 0
M  V30 16820 N 1622.95 1.25748 -0.950004 0
M  V30 16821 C 1623.9 2.28056 -0.457542 0
M  V30 16822 C 1624.9 1.62756 0.469776 0
M  V30 16823 O 1626.1 1.76623 0.347016 0
M  V30 16824 H 1622.48 0.740775 -0.129447 0
M  V30 16825 H 1624.45 2.66984 -1.33275 0
M  V30 16826 C 1623.2 3.46774 0.2536 0
M  V30 16827 H 1622.52 3.9725 -0.450808 0
M  V30 16828 H 1623.96 4.20255 0.562264 0
M  V30 16829 C 1622.42 3.02919 1.4745 0
M  V30 16830 O 1622.95 3.08527 2.57243 0
M  V30 16831 N 1621.15 2.58162 1.33419 0
M  V30 16832 H 1620.7 2.53799 0.440894 0
M  V30 16833 H 1620.66 2.29184 2.15226 0
M  V30 16834 N 1624.43 0.718038 1.40292 0
M  V30 16835 C 1625.38 0.0559466 2.32533 0
M  V30 16836 C 1626.37 -0.744365 1.5217 0
M  V30 16837 O 1627.58 -0.647458 1.67952 0
M  V30 16838 H 1623.95 -0.000710627 0.752 0
M  V30 16839 H 1625.93 0.850579 2.8602 0
M  V30 16840 C 1624.67 -0.849927 3.37152 0
M  V30 16841 H 1624 -0.243507 3.99058 0
M  V30 16842 H 1625.44 -1.28111 4.04183 0
M  V30 16843 C 1623.9 -1.9765 2.7283 0
M  V30 16844 O 1624.43 -3.06757 2.59351 0
M  V30 16845 N 1622.63 -1.76086 2.31176 0
M  V30 16846 H 1622.18 -0.873485 2.42339 0
M  V30 16847 H 1622.14 -2.51643 1.88477 0
M  V30 16848 N 1625.91 -1.50602 0.464402 0
M  V30 16849 C 1627.16 -2.02587 -0.0930295 0
M  V30 16850 C 1627.49 -1.34618 -1.3997 0
M  V30 16851 O 1626.76 -0.469711 -1.88743 0
M  V30 16852 C 1627.05 -3.5898 -0.283783 0
M  V30 16853 C 1626.9 -4.3753 1.04344 0
M  V30 16854 C 1628.22 -4.27602 -1.04138 0
M  V30 16855 H 1625.34 -0.73629 -0.0323356 0
M  V30 16856 H 1627.98 -1.79986 0.608687 0
M  V30 16857 H 1626.13 -3.78368 -0.881488 0
M  V30 16858 H 1627.8 -4.29729 1.67721 0
M  V30 16859 H 1626.05 -4.01536 1.64168 0
M  V30 16860 H 1626.72 -5.45201 0.863691 0
M  V30 16861 H 1629.19 -4.12649 -0.534822 0
M  V30 16862 H 1628.07 -5.36854 -1.14364 0
M  V30 16863 H 1628.33 -3.9031 -2.0763 0
M  V30 16864 N 1627.39 -0.19675 -1.56367 0
M  V30 16865 C 1628.34 0.740138 -2.2051 0
M  V30 16866 C 1629.33 1.21854 -1.17677 0
M  V30 16867 O 1630.54 1.18124 -1.35819 0
M  V30 16868 H 1626.91 0.257034 -0.706709 0
M  V30 16869 H 1628.88 0.175454 -2.97884 0
M  V30 16870 C 1627.63 1.94841 -2.8798 0
M  V30 16871 H 1626.95 1.58936 -3.66851 0
M  V30 16872 H 1628.39 2.58227 -3.36296 0
M  V30 16873 C 1626.85 2.78821 -1.89104 0
M  V30 16874 O 1627.38 3.76797 -1.39237 0
M  V30 16875 N 1625.59 2.44348 -1.57297 0
M  V30 16876 H 1625.14 1.64732 -1.98043 0
M  V30 16877 H 1625.09 3.00822 -0.913978 0
M  V30 16878 N 1628.87 1.57413 0.0768405 0
M  V30 16879 C 1629.81 2.04373 1.1106 0
M  V30 16880 C 1630.81 0.948127 1.40381 0
M  V30 16881 O 1632.01 1.13325 1.39848 0
M  V30 16882 H 1628.39 0.65156 0.375464 0
M  V30 16883 H 1630.36 2.90352 0.688348 0
M  V30 16884 C 1629.11 2.49914 2.41741 0
M  V30 16885 H 1628.43 3.33808 2.20027 0
M  V30 16886 H 1629.87 2.8653 3.12532 0
M  V30 16887 C 1628.33 1.37996 3.07341 0
M  V30 16888 O 1628.86 0.719242 3.95209 0
M  V30 16889 N 1627.07 1.12635 2.67884 0
M  V30 16890 H 1626.61 1.66545 1.96521 0
M  V30 16891 H 1626.57 0.37956 3.121 0
M  V30 16892 N 1630.34 -0.348112 1.53707 0
M  V30 16893 C 1631.59 -1.08671 1.70396 0
M  V30 16894 C 1631.91 -1.89314 0.467453 0
M  V30 16895 O 1631.18 -1.88911 -0.518605 0
M  V30 16896 H 1629.76 -0.404186 0.628206 0
M  V30 16897 H 1632.43 -0.390491 1.90948 0
M  V30 16898 H 1631.52 -1.76668 2.57284 0
M  V30 16899 N 1631.82 -1.45363 -0.608876 0
M  V30 16900 C 1633.23 -1.43794 -1.19081 0
M  V30 16901 C 1633.58 -0.164874 -1.95506 0
M  V30 16902 O 1632.71 0.733623 -2.03585 0
M  V30 16903 C 1633.3 -2.60506 -2.16615 0
M  V30 16904 C 1631.86 -2.62061 -2.70187 0
M  V30 16905 C 1631.01 -2.36018 -1.4557 0
M  V30 16906 H 1633.96 -1.53622 -0.39826 0
M  V30 16907 H 1633.98 -2.34531 -2.99625 0
M  V30 16908 H 1633.49 -3.53147 -1.60963 0
M  V30 16909 H 1631.6 -1.73423 -3.2978 0
M  V30 16910 H 1631.71 -3.61242 -3.14708 0
M  V30 16911 H 1630.07 -1.8555 -1.74481 0
M  V30 16912 H 1630.86 -3.30802 -0.917884 0
M  V30 16913 N 1633.3 0.851265 -1.32632 0
M  V30 16914 C 1634.53 1.63805 -1.26394 0
M  V30 16915 C 1634.94 1.88056 0.167454 0
M  V30 16916 O 1634.3 1.45196 1.10564 0
M  V30 16917 C 1634.35 2.9954 -2.02381 0
M  V30 16918 O 1634.07 2.76361 -3.39935 0
M  V30 16919 C 1635.57 3.93982 -2.03207 0
M  V30 16920 H 1632.79 0.510088 -0.435948 0
M  V30 16921 H 1635.34 1.06123 -1.74809 0
M  V30 16922 H 1633.49 3.53859 -1.5768 0
M  V30 16923 H 1633.91 3.62708 -3.78871 0
M  V30 16924 H 1635.38 4.86478 -2.60851 0
M  V30 16925 H 1635.86 4.27211 -1.01918 0
M  V30 16926 H 1636.46 3.45601 -2.47871 0
M  V30 16927 N 1634.78 1.15898 1.06796 0
M  V30 16928 C 1636.19 0.902809 1.31611 0
M  V30 16929 C 1636.39 -0.447112 1.96477 0
M  V30 16930 O 1635.45 -1.18778 2.22818 0
M  V30 16931 C 1636.76 2.04803 2.20173 0
M  V30 16932 C 1638.31 2.08321 2.33605 0
M  V30 16933 C 1638.79 3.22182 3.25519 0
M  V30 16934 N 1640.28 3.21866 3.33101 0
M  V30 16935 C 1641.01 4.06608 4.04299 0
M  V30 16936 N 1640.51 5.01426 4.78063 0
M  V30 16937 N 1642.3 3.94612 4.00297 0
M  V30 16938 H 1634.45 2.02816 0.630831 0
M  V30 16939 H 1636.72 0.884683 0.340646 0
M  V30 16940 H 1636.42 3.02278 1.7978 0
M  V30 16941 H 1636.3 1.98521 3.20732 0
M  V30 16942 H 1638.68 1.11441 2.73249 0
M  V30 16943 H 1638.76 2.18668 1.32732 0
M  V30 16944 H 1638.41 4.19317 2.86594 0
M  V30 16945 H 1638.34 3.0907 4.2636 0
M  V30 16946 H 1640.83 2.53203 2.80529 0
M  V30 16947 H 1641.14 5.62517 5.29901 0
M  V30 16948 H 1639.49 5.0541 4.7706 0
M  V30 16949 H 1642.68 3.19843 3.41786 0
M  V30 16950 H 1642.85 4.60877 4.55518 0
M  V30 16951 N 1636.26 -1.25243 0.956659 0
M  V30 16952 C 1637.67 -1.74909 0.652979 0
M  V30 16953 C 1638.02 -1.77704 -0.831605 0
M  V30 16954 O 1637.14 -1.39921 -1.65079 0
M  V30 16955 C 1637.74 -3.17639 1.1786 0
M  V30 16956 C 1636.3 -3.64856 0.925034 0
M  V30 16957 C 1635.44 -2.43844 1.32044 0
M  V30 16958 H 1638.4 -1.11101 1.13324 0
M  V30 16959 H 1638.42 -3.76654 0.539633 0
M  V30 16960 H 1637.93 -3.15572 2.25911 0
M  V30 16961 H 1636.03 -3.72335 -0.14043 0
M  V30 16962 H 1636.14 -4.5289 1.56292 0
M  V30 16963 H 1634.51 -2.43749 0.738813 0
M  V30 16964 H 1635.29 -2.44466 2.41021 0
M  V30 16965 N 1637.73 -0.725468 -1.3991 0
M  V30 16966 C 1638.96 -0.277821 -2.05531 0
M  V30 16967 C 1639.38 1.07547 -1.54322 0
M  V30 16968 O 1638.74 1.6795 -0.682828 0
M  V30 16969 C 1638.79 -0.278676 -3.59522 0
M  V30 16970 O 1637.89 0.736864 -4.05764 0
M  V30 16971 H 1637.24 -0.128243 -0.651498 0
M  V30 16972 H 1639.77 -0.988721 -1.79124 0
M  V30 16973 H 1639.78 -0.119765 -4.07824 0
M  V30 16974 H 1638.45 -1.2662 -3.96157 0
M  V30 16975 H 1637.03 0.544869 -3.68898 0
M  V30 16976 N 1639.21 1.50354 -0.472382 0
M  V30 16977 C 1640.12 2.32318 0.326405 0
M  V30 16978 C 1641.14 1.4276 0.994771 0
M  V30 16979 O 1642.31 1.75811 0.98246 0
M  V30 16980 C 1639.38 3.17468 1.39337 0
M  V30 16981 C 1638.44 4.22848 0.741465 0
M  V30 16982 C 1637.67 5.03929 1.75759 0
M  V30 16983 O 1637.9 4.86105 2.98425 0
M  V30 16984 O 1636.83 5.87051 1.32871 0
M  V30 16985 H 1640.66 3.01749 -0.343702 0
M  V30 16986 H 1638.24 1.47553 -0.234207 0
M  V30 16987 H 1640.12 3.703 2.01136 0
M  V30 16988 H 1638.8 2.50764 2.04692 0
M  V30 16989 H 1637.71 3.74005 0.0844848 0
M  V30 16990 H 1639.04 4.92026 0.130838 0
M  V30 16991 N 1640.69 0.205039 1.56261 0
M  V30 16992 C 1641.65 -0.698166 2.18308 0
M  V30 16993 C 1642.65 -1.13376 1.14029 0
M  V30 16994 O 1643.84 -1.04524 1.39357 0
M  V30 16995 C 1640.98 -1.95438 2.79315 0
M  V30 16996 H 1642.17 -0.157462 2.99486 0
M  V30 16997 H 1639.72 -0.0445849 1.56236 0
M  V30 16998 H 1640.46 -2.53736 2.01962 0
M  V30 16999 H 1640.24 -1.65068 3.55662 0
M  V30 17000 H 1641.73 -2.59824 3.26927 0
M  V30 17001 N 1642.17 -1.57451 -0.0684915 0
M  V30 17002 C 1643.08 -2.07274 -1.09885 0
M  V30 17003 C 1644.1 -1.00295 -1.42186 0
M  V30 17004 O 1645.27 -1.31786 -1.52297 0
M  V30 17005 C 1642.34 -2.50949 -2.39219 0
M  V30 17006 C 1641.4 -3.7224 -2.13859 0
M  V30 17007 C 1640.63 -4.13823 -3.37026 0
M  V30 17008 O 1640.85 -3.55248 -4.46268 0
M  V30 17009 O 1639.79 -5.06587 -3.25044 0
M  V30 17010 H 1643.61 -2.9539 -0.705587 0
M  V30 17011 H 1641.2 -1.46698 -0.282849 0
M  V30 17012 H 1643.08 -2.79547 -3.15327 0
M  V30 17013 H 1641.76 -1.6596 -2.77919 0
M  V30 17014 H 1640.66 -3.4872 -1.35445 0
M  V30 17015 H 1642 -4.58091 -1.80038 0
M  V30 17016 N 1643.65 0.339955 -1.5389 0
M  V30 17017 C 1645.06 0.915362 -1.62721 0
M  V30 17018 C 1645.41 1.89434 -0.510798 0
M  V30 17019 O 1644.53 2.13403 0.3589 0
M  V30 17020 C 1645.13 1.66699 -2.94953 0
M  V30 17021 C 1643.69 2.19135 -3.06034 0
M  V30 17022 C 1642.84 1.01159 -2.5819 0
M  V30 17023 H 1645.79 0.11799 -1.58261 0
M  V30 17024 H 1645.81 2.53011 -2.84193 0
M  V30 17025 H 1645.32 0.954219 -3.76186 0
M  V30 17026 H 1643.42 2.93577 -2.29441 0
M  V30 17027 H 1643.53 2.4526 -4.11563 0
M  V30 17028 H 1641.9 1.38604 -2.13685 0
M  V30 17029 H 1642.68 0.313396 -3.41867 0
M  V30 17030 N 1645.13 1.45684 0.601159 0
M  V30 17031 C 1646.54 1.30232 0.922598 0
M  V30 17032 C 1646.74 0.260086 1.99814 0
M  V30 17033 O 1645.8 -0.343753 2.50149 0
M  V30 17034 C 1647.11 2.68318 1.35743 0
M  V30 17035 C 1648.66 2.76264 1.47129 0
M  V30 17036 C 1649.13 4.1489 1.93986 0
M  V30 17037 N 1650.62 4.17216 2.01209 0
M  V30 17038 C 1651.36 5.21354 2.387 0
M  V30 17039 N 1650.86 6.35833 2.75114 0
M  V30 17040 N 1652.65 5.08714 2.39095 0
M  V30 17041 H 1644.8 2.12117 -0.109634 0
M  V30 17042 H 1647.06 0.947902 0.0136129 0
M  V30 17043 H 1646.77 3.45804 0.64127 0
M  V30 17044 H 1646.64 2.97206 2.32268 0
M  V30 17045 H 1649.03 1.99077 2.17835 0
M  V30 17046 H 1649.11 2.51082 0.489028 0
M  V30 17047 H 1648.75 4.92565 1.23864 0
M  V30 17048 H 1648.68 4.37468 2.93137 0
M  V30 17049 H 1651.18 3.34607 1.75632 0
M  V30 17050 H 1651.49 7.11084 3.02622 0
M  V30 17051 H 1649.83 6.39224 2.72795 0
M  V30 17052 H 1653.02 4.18322 2.10057 0
M  V30 17053 H 1653.2 5.89989 2.67987 0
M  V30 17054 N 1646.6 -0.84422 1.33082 0
M  V30 17055 C 1647.85 -1.59596 1.2399 0
M  V30 17056 C 1648.17 -1.94016 -0.19566 0
M  V30 17057 O 1647.44 -1.60512 -1.12306 0
M  V30 17058 H 1646.02 -0.591727 0.455926 0
M  V30 17059 H 1648.68 -1.00924 1.66735 0
M  V30 17060 H 1647.78 -2.52829 1.82986 0
M  V30 17061 N 1648.08 -1.16463 -1.0618 0
M  V30 17062 C 1649.04 -0.874674 -2.11854 0
M  V30 17063 C 1650.04 0.130829 -1.60267 0
M  V30 17064 O 1651.23 -0.100195 -1.73912 0
M  V30 17065 C 1648.37 -0.30826 -3.39503 0
M  V30 17066 H 1649.56 -1.81149 -2.39009 0
M  V30 17067 H 1647.11 -0.973721 -1.22264 0
M  V30 17068 H 1647.85 0.636181 -3.17999 0
M  V30 17069 H 1647.63 -1.03281 -3.78253 0
M  V30 17070 H 1649.12 -0.123378 -4.17418 0
M  V30 17071 N 1649.56 1.24734 -0.963288 0
M  V30 17072 C 1650.84 1.88004 -0.539809 0
M  V30 17073 C 1651.22 1.86814 0.983035 0
M  V30 17074 O 1650.56 1.33769 1.85251 0
M  V30 17075 C 1650.77 3.30326 -1.1263 0
M  V30 17076 C 1652.12 4.07039 -1.20848 0
M  V30 17077 O 1653.15 3.3948 -1.07849 0
M  V30 17078 O 1652.01 5.27906 -1.41342 0
M  V30 17079 H 1649.1 0.807318 -0.17935 0
M  V30 17080 H 1651.65 1.3274 -1.05727 0
M  V30 17081 H 1650.42 3.25668 -2.16925 0
M  V30 17082 H 1650.04 3.93159 -0.592614 0
M  V30 17083 N 1651.04 0.732878 1.39523 0
M  V30 17084 C 1652.26 0.288717 2.05381 0
M  V30 17085 C 1652.69 -1.06727 1.5489 0
M  V30 17086 O 1652.05 -1.67585 0.691726 0
M  V30 17087 C 1652.09 0.297738 3.59369 0
M  V30 17088 O 1651.2 -0.715335 4.06149 0
M  V30 17089 H 1650.54 0.131696 0.650809 0
M  V30 17090 H 1653.07 0.998206 1.78597 0
M  V30 17091 H 1653.08 0.141391 4.07755 0
M  V30 17092 H 1651.75 1.28719 3.9548 0
M  V30 17093 H 1650.33 -0.525298 3.69182 0
M  V30 17094 N 1652.52 -1.50101 0.480349 0
M  V30 17095 C 1653.43 -2.32488 -0.31408 0
M  V30 17096 C 1654.44 -1.43285 -0.987186 0
M  V30 17097 O 1655.62 -1.7633 -0.973123 0
M  V30 17098 C 1652.68 -3.18203 -1.37651 0
M  V30 17099 C 1651.74 -4.23236 -0.71903 0
M  V30 17100 C 1650.98 -5.04854 -1.73084 0
M  V30 17101 O 1651.2 -4.87681 -2.95843 0
M  V30 17102 O 1650.13 -5.87748 -1.29755 0
M  V30 17103 H 1653.96 -3.01562 0.3597 0
M  V30 17104 H 1651.54 -1.47427 0.242029 0
M  V30 17105 H 1653.43 -3.71362 -1.9917 0
M  V30 17106 H 1652.1 -2.51846 -2.0336 0
M  V30 17107 H 1651.01 -3.74044 -0.0646492 0
M  V30 17108 H 1652.34 -4.92089 -0.104743 0
M  V30 17109 N 1653.99 -0.213323 -1.5615 0
M  V30 17110 C 1654.94 0.700175 -2.19923 0
M  V30 17111 C 1655.91 1.19641 -1.15218 0
M  V30 17112 O 1657.1 1.257 -1.43542 0
M  V30 17113 C 1654.24 1.90629 -2.87671 0
M  V30 17114 C 1653.35 1.44973 -4.06948 0
M  V30 17115 C 1652.48 2.61277 -4.62502 0
M  V30 17116 C 1651.52 2.12316 -5.74098 0
M  V30 17117 N 1650.66 3.21862 -6.23978 0
M  V30 17118 H 1655.5 0.14961 -2.97624 0
M  V30 17119 H 1653.04 0.0620957 -1.46969 0
M  V30 17120 H 1654.99 2.61431 -3.2513 0
M  V30 17121 H 1653.62 2.42987 -2.12502 0
M  V30 17122 H 1652.68 0.636917 -3.7503 0
M  V30 17123 H 1653.99 1.05065 -4.87609 0
M  V30 17124 H 1653.14 3.40174 -5.02361 0
M  V30 17125 H 1651.88 3.04468 -3.80987 0
M  V30 17126 H 1650.89 1.31877 -5.33749 0
M  V30 17127 H 1652.11 1.70134 -6.57443 0
M  V30 17128 H 1650.06 3.64551 -5.45379 0
M  V30 17129 H 1649.97 2.86181 -6.9974 0
M  V30 17130 H 1651.24 4.0092 -6.68493 0
M  V30 17131 N 1655.47 1.57485 0.0601405 0
M  V30 17132 C 1656.72 1.88094 0.758192 0
M  V30 17133 C 1657.05 0.807138 1.76632 0
M  V30 17134 O 1656.33 -0.181347 1.93653 0
M  V30 17135 C 1656.61 3.29363 1.45574 0
M  V30 17136 C 1656.46 4.47408 0.463233 0
M  V30 17137 C 1657.78 3.69048 2.39773 0
M  V30 17138 H 1654.9 0.684106 0.274169 0
M  V30 17139 H 1657.54 1.89988 0.0212215 0
M  V30 17140 H 1655.69 3.27879 2.08393 0
M  V30 17141 H 1657.36 4.6102 -0.160641 0
M  V30 17142 H 1655.61 4.3324 -0.220408 0
M  V30 17143 H 1656.28 5.43065 0.989164 0
M  V30 17144 H 1658.75 3.71701 1.87024 0
M  V30 17145 H 1657.63 4.68761 2.85577 0
M  V30 17146 H 1657.89 2.9961 3.25094 0
M  V30 17147 N 1656.95 -0.331789 1.54068 0
M  V30 17148 C 1657.88 -1.43156 1.77713 0
M  V30 17149 C 1658.86 -1.50036 0.626723 0
M  V30 17150 O 1660.05 -1.67573 0.863228 0
M  V30 17151 C 1657.17 -2.81311 1.88632 0
M  V30 17152 C 1656.22 -2.92 3.10867 0
M  V30 17153 S 1657.05 -2.57255 4.69659 0
M  V30 17154 C 1658.21 -3.97497 4.83474 0
M  V30 17155 H 1658.44 -1.22884 2.70715 0
M  V30 17156 H 1655.97 -0.528148 1.45086 0
M  V30 17157 H 1657.93 -3.60898 1.95608 0
M  V30 17158 H 1656.59 -2.9887 0.966212 0
M  V30 17159 H 1655.79 -3.93261 3.15217 0
M  V30 17160 H 1655.39 -2.20374 3.02177 0
M  V30 17161 H 1657.68 -4.92156 4.65605 0
M  V30 17162 H 1658.62 -3.98135 5.85572 0
M  V30 17163 H 1659.03 -3.86069 4.11838 0
M  V30 17164 N 1658.43 -1.46001 -0.593424 0
M  V30 17165 C 1659.38 -1.52172 -1.69787 0
M  V30 17166 C 1660.36 -0.383619 -1.5626 0
M  V30 17167 O 1661.55 -0.63137 -1.65356 0
M  V30 17168 C 1658.68 -1.50479 -3.08563 0
M  V30 17169 C 1657.77 -2.69543 -3.27425 0
M  V30 17170 N 1658.16 -3.94547 -3.1649 0
M  V30 17171 C 1656.46 -2.6554 -3.58336 0
M  V30 17172 C 1657.16 -4.74089 -3.37068 0
M  V30 17173 N 1656.14 -4.0578 -3.61723 0
M  V30 17174 H 1659.94 -2.4663 -1.59847 0
M  V30 17175 H 1657.45 -1.41491 -0.797129 0
M  V30 17176 H 1659.45 -1.52986 -3.87816 0
M  V30 17177 H 1658.11 -0.57089 -3.19642 0
M  V30 17178 H 1659.12 -4.25957 -2.94586 0
M  V30 17179 H 1655.8 -1.81124 -3.76165 0
M  V30 17180 H 1657.19 -5.83069 -3.33887 0
M  V30 17181 N 1659.91 0.83715 -1.33527 0
M  V30 17182 C 1660.82 1.97915 -1.25964 0
M  V30 17183 C 1661.83 1.73169 -0.169894 0
M  V30 17184 O 1663.01 1.97513 -0.393793 0
M  V30 17185 C 1660.07 3.31945 -1.00068 0
M  V30 17186 C 1659.13 3.69795 -2.1806 0
M  V30 17187 C 1658.37 4.97429 -1.9339 0
M  V30 17188 O 1658.59 5.63492 -0.885069 0
M  V30 17189 O 1657.52 5.32823 -2.79969 0
M  V30 17190 H 1661.35 2.07236 -2.22007 0
M  V30 17191 H 1658.94 0.970437 -1.13591 0
M  V30 17192 H 1660.82 4.12248 -0.873487 0
M  V30 17193 H 1659.49 3.23623 -0.0705475 0
M  V30 17194 H 1658.4 2.89995 -2.36334 0
M  V30 17195 H 1659.73 3.82784 -3.09414 0
M  V30 17196 N 1661.38 1.17024 1.05561 0
M  V30 17197 C 1662.63 0.957742 1.7876 0
M  V30 17198 C 1662.96 -0.512652 1.87311 0
M  V30 17199 O 1662.24 -1.38047 1.37016 0
M  V30 17200 C 1662.52 1.59495 3.22852 0
M  V30 17201 C 1662.37 3.13719 3.22336 0
M  V30 17202 C 1663.69 1.29576 4.20593 0
M  V30 17203 H 1660.81 0.349354 0.648938 0
M  V30 17204 H 1663.45 1.44467 1.23408 0
M  V30 17205 H 1661.6 1.18091 3.70117 0
M  V30 17206 H 1663.28 3.64156 2.83175 0
M  V30 17207 H 1661.52 3.46664 2.60781 0
M  V30 17208 H 1662.19 3.5343 4.24018 0
M  V30 17209 H 1664.67 1.65423 3.81804 0
M  V30 17210 H 1663.54 1.76751 5.19663 0
M  V30 17211 H 1663.8 0.21589 4.41573 0
M  V30 17212 N 1662.86 -1.24221 0.969889 0
M  V30 17213 C 1664.09 -1.96943 0.650262 0
M  V30 17214 C 1664.51 -1.71437 -0.774018 0
M  V30 17215 O 1663.87 -0.979428 -1.52568 0
M  V30 17216 C 1663.92 -3.48303 0.933682 0
M  V30 17217 O 1663.02 -4.12395 0.0202425 0
M  V30 17218 H 1662.36 -0.616902 0.245618 0
M  V30 17219 H 1664.89 -1.57939 1.30063 0
M  V30 17220 H 1664.9 -3.98701 0.866106 0
M  V30 17221 H 1663.58 -3.66194 1.97166 0
M  V30 17222 H 1662.16 -3.72632 0.141327 0
M  V30 17223 N 1664.34 -0.740267 -1.39132 0
M  V30 17224 C 1665.75 -0.359866 -1.83199 0
M  V30 17225 C 1666.1 1.1095 -1.61816 0
M  V30 17226 O 1665.23 1.85635 -1.11215 0
M  V30 17227 C 1665.82 -0.64639 -3.32577 0
M  V30 17228 C 1664.38 -0.319423 -3.75042 0
M  V30 17229 C 1663.53 -0.906345 -2.6207 0
M  V30 17230 H 1666.48 -0.93749 -1.2805 0
M  V30 17231 H 1666.5 0.080033 -3.80416 0
M  V30 17232 H 1666.01 -1.71588 -3.48108 0
M  V30 17233 H 1664.11 0.744022 -3.65096 0
M  V30 17234 H 1664.23 -0.805664 -4.72277 0
M  V30 17235 H 1662.59 -0.332615 -2.52519 0
M  V30 17236 H 1663.37 -1.9806 -2.80405 0
M  V30 17237 N 1665.82 1.49844 -0.488302 0
M  V30 17238 C 1667.07 2.01603 0.0624744 0
M  V30 17239 C 1667.38 1.37397 1.39217 0
M  V30 17240 O 1668.59 1.8041 2.0289 0
M  V30 17241 C 1667.04 3.59536 0.161824 0
M  V30 17242 C 1666.65 4.32709 -1.16047 0
M  V30 17243 C 1668.39 4.1928 0.663642 0
M  V30 17244 C 1666.3 5.82468 -1.02397 0
M  V30 17245 H 1665.23 0.753512 0.0271222 0
M  V30 17246 H 1667.88 1.72499 -0.625805 0
M  V30 17247 H 1666.26 3.85301 0.914273 0
M  V30 17248 H 1667.44 4.18655 -1.92522 0
M  V30 17249 H 1665.75 3.84652 -1.59473 0
M  V30 17250 H 1668.35 5.28935 0.783069 0
M  V30 17251 H 1668.69 3.81801 1.65933 0
M  V30 17252 H 1669.23 3.97787 -0.0319078 0
M  V30 17253 H 1665.97 6.2445 -1.99355 0
M  V30 17254 H 1665.49 5.9905 -0.299902 0
M  V30 17255 H 1667.16 6.43229 -0.697538 0
M  V30 17256 N 1667.3 0.221601 1.56034 0
M  V30 17257 C 1668.23 -0.683171 2.23282 0
M  V30 17258 C 1669.21 -1.20101 1.20456 0
M  V30 17259 O 1670.39 -1.245 1.49041 0
M  V30 17260 C 1667.52 -1.89143 2.91277 0
M  V30 17261 C 1666.48 -1.50742 4.00576 0
M  V30 17262 C 1665.8 -2.79446 4.55867 0
M  V30 17263 C 1667.1 -0.697388 5.17623 0
M  V30 17264 H 1668.8 -0.122488 2.99149 0
M  V30 17265 H 1666.34 -0.0574732 1.43885 0
M  V30 17266 H 1668.3 -2.52982 3.37013 0
M  V30 17267 H 1667.02 -2.47708 2.12858 0
M  V30 17268 H 1665.68 -0.892492 3.5557 0
M  V30 17269 H 1665.33 -3.36155 3.74177 0
M  V30 17270 H 1665.03 -2.54486 5.29633 0
M  V30 17271 H 1666.55 -3.44228 5.04321 0
M  V30 17272 H 1667.96 -1.23948 5.59741 0
M  V30 17273 H 1666.36 -0.544875 5.97621 0
M  V30 17274 H 1667.43 0.295981 4.83996 0
M  V30 17275 N 1668.77 -1.57515 -0.0517878 0
M  V30 17276 C 1669.72 -2.05051 -1.05937 0
M  V30 17277 C 1670.69 -0.935032 -1.37282 0
M  V30 17278 O 1671.88 -1.20408 -1.48009 0
M  V30 17279 C 1669.02 -2.51594 -2.36208 0
M  V30 17280 C 1668.13 -3.76843 -2.11219 0
M  V30 17281 C 1667.26 -4.12088 -3.35197 0
M  V30 17282 C 1666.3 -5.30318 -3.05662 0
M  V30 17283 N 1665.44 -5.61104 -4.22026 0
M  V30 17284 H 1670.28 -2.90891 -0.647027 0
M  V30 17285 H 1667.82 -1.43842 -0.307891 0
M  V30 17286 H 1669.78 -2.76638 -3.12293 0
M  V30 17287 H 1668.41 -1.68704 -2.75207 0
M  V30 17288 H 1667.46 -3.5902 -1.25734 0
M  V30 17289 H 1668.77 -4.63057 -1.85416 0
M  V30 17290 H 1667.92 -4.38139 -4.19666 0
M  V30 17291 H 1666.66 -3.24479 -3.64094 0
M  V30 17292 H 1665.67 -5.04043 -2.19592 0
M  V30 17293 H 1666.89 -6.19561 -2.78067 0
M  V30 17294 H 1664.84 -4.76456 -4.50917 0
M  V30 17295 H 1664.76 -6.4178 -3.99568 0
M  V30 17296 H 1666.02 -5.91719 -5.07434 0
M  V30 17297 N 1670.25 0.323614 -1.54242 0
M  V30 17298 C 1671.16 1.42128 -1.86646 0
M  V30 17299 C 1672.18 1.56603 -0.758385 0
M  V30 17300 O 1673.36 1.717 -1.05267 0
M  V30 17301 C 1670.42 2.76842 -2.08709 0
M  V30 17302 C 1669.48 2.71543 -3.3251 0
M  V30 17303 C 1668.71 3.99833 -3.5351 0
M  V30 17304 O 1668.94 4.98095 -2.77952 0
M  V30 17305 O 1667.87 4.03095 -4.46988 0
M  V30 17306 H 1671.7 1.17653 -2.79985 0
M  V30 17307 H 1669.28 0.517632 -1.40146 0
M  V30 17308 H 1671.16 3.56588 -2.24551 0
M  V30 17309 H 1669.84 3.01207 -1.18558 0
M  V30 17310 H 1668.75 1.90348 -3.22053 0
M  V30 17311 H 1670.08 2.52133 -4.22717 0
M  V30 17312 N 1671.73 1.46313 0.585673 0
M  V30 17313 C 1672.98 1.51171 1.34134 0
M  V30 17314 C 1673.3 0.163691 1.94312 0
M  V30 17315 O 1672.57 -0.809444 1.78395 0
M  V30 17316 H 1671.15 0.556768 0.498014 0
M  V30 17317 H 1673.81 1.82423 0.686133 0
M  V30 17318 H 1672.91 2.26274 2.14957 0
M  V30 17319 N 1673.21 -0.830057 1.33969 0
M  V30 17320 C 1674.63 -1.12209 1.13496 0
M  V30 17321 C 1674.83 -2.01384 -0.0682972 0
M  V30 17322 O 1673.88 -2.4123 -0.745949 0
M  V30 17323 C 1675.19 -1.77568 2.42673 0
M  V30 17324 C 1676.74 -1.90095 2.48662 0
M  V30 17325 C 1677.22 -2.5887 3.77823 0
M  V30 17326 N 1678.71 -2.66375 3.78944 0
M  V30 17327 C 1679.44 -3.20301 4.75599 0
M  V30 17328 N 1678.94 -3.74846 5.82634 0
M  V30 17329 N 1680.73 -3.18636 4.63063 0
M  V30 17330 H 1672.88 -0.236752 2.11076 0
M  V30 17331 H 1675.15 -0.167572 0.933072 0
M  V30 17332 H 1674.85 -1.19505 3.30774 0
M  V30 17333 H 1674.73 -2.77505 2.55481 0
M  V30 17334 H 1677.11 -2.47308 1.61005 0
M  V30 17335 H 1677.19 -0.890808 2.39788 0
M  V30 17336 H 1676.84 -2.02313 4.65867 0
M  V30 17337 H 1676.77 -3.60373 3.83978 0
M  V30 17338 H 1679.26 -2.27705 3.01594 0
M  V30 17339 H 1679.57 -4.14224 6.52409 0
M  V30 17340 H 1677.92 -3.7311 5.86357 0
M  V30 17341 H 1681.11 -2.75286 3.78597 0
M  V30 17342 H 1681.28 -3.60359 5.38559 0
M  V30 17343 N 1674.69 -1.17582 -1.04939 0
M  V30 17344 C 1675.64 -0.891102 -2.14854 0
M  V30 17345 C 1676.63 0.145242 -1.68776 0
M  V30 17346 O 1677.84 -0.00207978 -1.8 0
M  V30 17347 H 1674.21 -0.270641 -0.701611 0
M  V30 17348 H 1676.18 -1.82519 -2.36071 0
M  V30 17349 C 1674.93 -0.423679 -3.45109 0
M  V30 17350 H 1674.25 -1.2126 -3.80967 0
M  V30 17351 H 1675.69 -0.263369 -4.23181 0
M  V30 17352 C 1674.15 0.859085 -3.25763 0
M  V30 17353 O 1674.68 1.9253 -3.52555 0
M  V30 17354 N 1672.89 0.80824 -2.79134 0
M  V30 17355 H 1672.44 -0.0596431 -2.57531 0
M  V30 17356 H 1672.39 1.66697 -2.6657 0
M  V30 17357 N 1676.17 1.23705 -0.976463 0
M  V30 17358 C 1677.11 2.25023 -0.513156 0
M  V30 17359 C 1678.08 1.60003 0.445903 0
M  V30 17360 O 1679.27 1.87481 0.354323 0
M  V30 17361 C 1676.41 3.44619 0.182088 0
M  V30 17362 C 1675.52 4.24209 -0.816769 0
M  V30 17363 C 1674.66 5.31112 -0.0967355 0
M  V30 17364 C 1673.69 6.02406 -1.08507 0
M  V30 17365 N 1672.83 7.00991 -0.394455 0
M  V30 17366 H 1677.67 2.64019 -1.38194 0
M  V30 17367 H 1675.21 1.29777 -0.692566 0
M  V30 17368 H 1677.17 4.12835 0.601948 0
M  V30 17369 H 1675.8 3.06435 1.01477 0
M  V30 17370 H 1674.85 3.55448 -1.35503 0
M  V30 17371 H 1676.16 4.73445 -1.57006 0
M  V30 17372 H 1675.31 6.05504 0.380686 0
M  V30 17373 H 1674.05 4.82806 0.689187 0
M  V30 17374 H 1673.06 5.26809 -1.57328 0
M  V30 17375 H 1674.28 6.528 -1.87159 0
M  V30 17376 H 1672.23 6.54943 0.372331 0
M  V30 17377 H 1672.15 7.48152 -1.08647 0
M  V30 17378 H 1673.41 7.79476 0.0607087 0
M  V30 17379 N 1677.64 0.747635 1.38738 0
M  V30 17380 C 1678.55 0.117879 2.34304 0
M  V30 17381 C 1679.57 -0.707488 1.58967 0
M  V30 17382 O 1680.75 -0.633025 1.91193 0
M  V30 17383 C 1677.81 -0.769223 3.38059 0
M  V30 17384 C 1676.87 0.0698358 4.29243 0
M  V30 17385 C 1676.1 -0.775021 5.28043 0
M  V30 17386 O 1676.33 -2.01328 5.33688 0
M  V30 17387 O 1675.26 -0.196978 6.01578 0
M  V30 17388 H 1679.09 0.906972 2.89841 0
M  V30 17389 H 1676.67 0.508453 1.40482 0
M  V30 17390 H 1678.55 -1.27641 4.01604 0
M  V30 17391 H 1677.23 -1.53691 2.84887 0
M  V30 17392 H 1676.14 0.622836 3.68879 0
M  V30 17393 H 1677.47 0.80004 4.85654 0
M  V30 17394 N 1679.12 -1.49583 0.496242 0
M  V30 17395 C 1680.35 -2.07342 -0.0490986 0
M  V30 17396 C 1680.77 -1.35474 -1.30493 0
M  V30 17397 O 1680.13 -0.410005 -1.76603 0
M  V30 17398 C 1680.18 -3.59427 -0.290601 0
M  V30 17399 O 1679.28 -3.89111 -1.36626 0
M  V30 17400 H 1678.62 -0.663562 0.0241141 0
M  V30 17401 H 1681.15 -1.92452 0.6945 0
M  V30 17402 H 1681.16 -4.04627 -0.523549 0
M  V30 17403 H 1679.84 -4.11147 0.626959 0
M  V30 17404 H 1678.41 -3.55726 -1.11864 0
M  V30 17405 N 1680.6 -0.229873 -1.55915 0
M  V30 17406 C 1682.01 0.276452 -1.84642 0
M  V30 17407 C 1682.36 1.58861 -1.15142 0
M  V30 17408 O 1681.49 2.12207 -0.423932 0
M  V30 17409 C 1682.08 0.508371 -3.34964 0
M  V30 17410 C 1680.64 0.958989 -3.63979 0
M  V30 17411 C 1679.79 0.0266738 -2.77287 0
M  V30 17412 H 1682.74 -0.452864 -1.52101 0
M  V30 17413 H 1682.76 1.35328 -3.55621 0
M  V30 17414 H 1682.27 -0.4468 -3.8552 0
M  V30 17415 H 1680.37 1.92722 -3.18887 0
M  V30 17416 H 1680.49 0.827637 -4.71897 0
M  V30 17417 H 1678.85 0.53498 -2.49018 0
M  V30 17418 H 1679.63 -0.923563 -3.30644 0
M  V30 17419 N 1682.08 1.5754 0.0434337 0
M  V30 17420 C 1683.33 1.88235 0.735652 0
M  V30 17421 C 1683.65 0.825698 1.76656 0
M  V30 17422 O 1682.92 -0.142424 1.95382 0
M  V30 17423 H 1681.5 0.694661 0.274692 0
M  V30 17424 H 1684.16 1.94896 0.0127911 0
M  V30 17425 H 1683.25 2.86659 1.23421 0
M  V30 17426 N 1683.56 -0.31543 1.54411 0
M  V30 17427 C 1684.8 -1.05396 1.73261 0
M  V30 17428 C 1685.13 -1.87406 0.509171 0
M  V30 17429 O 1684.41 -1.88126 -0.493836 0
M  V30 17430 C 1684.69 -1.97195 3.01308 0
M  V30 17431 C 1684.55 -1.18461 4.33921 0
M  V30 17432 C 1685.86 -2.96594 3.25146 0
M  V30 17433 H 1682.98 -0.381763 0.630417 0
M  V30 17434 H 1685.63 -0.329882 1.87114 0
M  V30 17435 H 1683.78 -2.58936 2.89628 0
M  V30 17436 H 1685.45 -0.591171 4.57496 0
M  V30 17437 H 1683.69 -0.487025 4.31057 0
M  V30 17438 H 1684.36 -1.85909 5.19752 0
M  V30 17439 H 1686.84 -2.44977 3.36341 0
M  V30 17440 H 1685.71 -3.58002 4.16084 0
M  V30 17441 H 1685.97 -3.69487 2.42758 0
M  V30 17442 N 1685.03 -1.46622 -0.577906 0
M  V30 17443 C 1685.98 -1.57549 -1.68662 0
M  V30 17444 C 1686.95 -0.419536 -1.60714 0
M  V30 17445 O 1688.14 -0.636916 -1.79856 0
M  V30 17446 C 1685.28 -1.57627 -3.06998 0
M  V30 17447 C 1684.39 -2.83991 -3.25535 0
M  V30 17448 C 1683.52 -2.75541 -4.54148 0
M  V30 17449 C 1682.56 -3.96823 -4.66045 0
M  V30 17450 N 1681.7 -3.86731 -5.8599 0
M  V30 17451 H 1686.54 -2.52252 -1.58659 0
M  V30 17452 H 1684.08 -1.2514 -0.773195 0
M  V30 17453 H 1686.04 -1.55657 -3.87075 0
M  V30 17454 H 1684.67 -0.664527 -3.15886 0
M  V30 17455 H 1683.72 -2.9592 -2.3903 0
M  V30 17456 H 1685.03 -3.73864 -3.30193 0
M  V30 17457 H 1684.18 -2.71703 -5.42459 0
M  V30 17458 H 1682.92 -1.83317 -4.51936 0
M  V30 17459 H 1681.93 -4.00987 -3.76151 0
M  V30 17460 H 1683.15 -4.90149 -4.70033 0
M  V30 17461 H 1681.1 -2.97296 -5.84766 0
M  V30 17462 H 1681.02 -4.70263 -5.91937 0
M  V30 17463 H 1682.28 -3.86876 -6.76718 0
M  V30 17464 N 1686.51 0.822941 -1.34408 0
M  V30 17465 C 1687.93 1.11606 -1.14089 0
M  V30 17466 C 1688.13 2.01418 0.0576164 0
M  V30 17467 O 1687.18 2.41622 0.733146 0
M  V30 17468 C 1688.5 1.76279 -2.43611 0
M  V30 17469 C 1690.05 1.88773 -2.49667 0
M  V30 17470 C 1690.52 2.56862 -3.79191 0
M  V30 17471 N 1692.01 2.64362 -3.80351 0
M  V30 17472 C 1692.75 3.17775 -4.77291 0
M  V30 17473 N 1692.24 3.71751 -5.84613 0
M  V30 17474 N 1694.04 3.16175 -4.64747 0
M  V30 17475 H 1686.19 0.225555 -2.11199 0
M  V30 17476 H 1688.45 0.162621 -0.933948 0
M  V30 17477 H 1688.16 1.17749 -3.31403 0
M  V30 17478 H 1688.03 2.76147 -2.56949 0
M  V30 17479 H 1690.42 2.46451 -1.62314 0
M  V30 17480 H 1690.5 0.878079 -2.40257 0
M  V30 17481 H 1690.14 1.99839 -4.66933 0
M  V30 17482 H 1690.07 3.58332 -3.85883 0
M  V30 17483 H 1692.56 2.26102 -3.02797 0
M  V30 17484 H 1692.88 4.10759 -6.54597 0
M  V30 17485 H 1691.22 3.69995 -5.88327 0
M  V30 17486 H 1694.41 2.73274 -3.80051 0
M  V30 17487 H 1694.58 3.57498 -5.40462 0
M  V30 17488 N 1687.99 1.18137 1.04314 0
M  V30 17489 C 1688.92 0.929593 2.14198 0
M  V30 17490 C 1689.9 -0.131766 1.69589 0
M  V30 17491 O 1691.09 0.0203104 1.94189 0
M  V30 17492 C 1688.22 0.451799 3.44349 0
M  V30 17493 C 1687.17 1.45336 4.02569 0
M  V30 17494 C 1686.5 0.833176 5.28169 0
M  V30 17495 C 1687.8 2.8293 4.39031 0
M  V30 17496 H 1689.49 1.84856 2.35518 0
M  V30 17497 H 1687.04 0.890217 1.13186 0
M  V30 17498 H 1688.99 0.26303 4.20578 0
M  V30 17499 H 1687.71 -0.502725 3.22708 0
M  V30 17500 H 1686.37 1.62902 3.28418 0
M  V30 17501 H 1686.02 -0.128459 5.02836 0
M  V30 17502 H 1685.72 1.50185 5.68083 0
M  V30 17503 H 1687.24 0.654881 6.07078 0
M  V30 17504 H 1688.66 2.6903 5.06257 0
M  V30 17505 H 1687.06 3.46458 4.89987 0
M  V30 17506 H 1688.13 3.3667 3.48972 0
M  V30 17507 N 1689.47 -1.23186 0.98301 0
M  V30 17508 C 1690.42 -2.24748 0.525082 0
M  V30 17509 C 1691.39 -1.60237 -0.437411 0
M  V30 17510 O 1692.57 -1.87666 -0.344376 0
M  V30 17511 C 1689.71 -3.44711 -0.163809 0
M  V30 17512 C 1688.82 -4.23769 0.839254 0
M  V30 17513 C 1687.96 -5.31053 0.1249 0
M  V30 17514 C 1687 -6.01822 1.117 0
M  V30 17515 N 1686.13 -7.00772 0.431625 0
M  V30 17516 H 1690.97 -2.63283 1.39593 0
M  V30 17517 H 1688.51 -1.29407 0.699438 0
M  V30 17518 H 1690.47 -4.13148 -0.580046 0
M  V30 17519 H 1689.1 -3.06969 -0.998507 0
M  V30 17520 H 1688.15 -3.54724 1.37386 0
M  V30 17521 H 1689.46 -4.72606 1.59515 0
M  V30 17522 H 1688.62 -6.05698 -0.348569 0
M  V30 17523 H 1687.36 -4.83165 -0.663573 0
M  V30 17524 H 1686.36 -5.25967 1.6012 0
M  V30 17525 H 1687.59 -6.51799 1.90618 0
M  V30 17526 H 1685.53 -6.55131 -0.337592 0
M  V30 17527 H 1685.45 -7.47566 1.12613 0
M  V30 17528 H 1686.72 -7.79498 -0.0193703 0
M  V30 17529 N 1690.95 -0.754982 -1.38339 0
M  V30 17530 C 1692.22 -0.237208 -1.94156 0
M  V30 17531 C 1692.6 1.26479 -1.69016 0
M  V30 17532 O 1691.95 2.03995 -1.02948 0
M  V30 17533 C 1692.16 -0.592412 -3.43935 0
M  V30 17534 C 1693.51 -0.552832 -4.20986 0
M  V30 17535 O 1694.53 -0.530789 -3.52223 0
M  V30 17536 O 1693.39 -0.565006 -5.43571 0
M  V30 17537 H 1690.49 -0.0500619 -0.825483 0
M  V30 17538 H 1693.03 -0.835199 -1.47724 0
M  V30 17539 H 1691.8 -1.62969 -3.55748 0
M  V30 17540 H 1691.43 0.0335119 -3.97586 0
M  V30 17541 N 1692.42 1.49318 -0.504168 0
M  V30 17542 C 1693.67 2.01658 0.0410881 0
M  V30 17543 C 1693.99 1.38866 1.37752 0
M  V30 17544 O 1695.19 1.82552 2.00965 0
M  V30 17545 C 1693.65 3.59687 0.123682 0
M  V30 17546 C 1693.26 4.31454 -1.2063 0
M  V30 17547 C 1695 4.19961 0.619134 0
M  V30 17548 C 1692.91 5.81349 -1.0857 0
M  V30 17549 H 1691.84 0.753757 0.0191287 0
M  V30 17550 H 1694.49 1.71826 -0.644066 0
M  V30 17551 H 1692.87 3.86249 0.873355 0
M  V30 17552 H 1694.04 4.1659 -1.96951 0
M  V30 17553 H 1692.36 3.82939 -1.63544 0
M  V30 17554 H 1694.96 5.29736 0.726925 0
M  V30 17555 H 1695.3 3.83539 1.61874 0
M  V30 17556 H 1695.83 3.97731 -0.0740966 0
M  V30 17557 H 1692.57 6.22301 -2.05967 0
M  V30 17558 H 1692.09 5.98698 -0.363422 0
M  V30 17559 H 1693.77 6.42453 -0.765722 0
M  V30 17560 N 1693.9 0.238138 1.5579 0
M  V30 17561 C 1695.15 -0.389608 1.99022 0
M  V30 17562 C 1695.48 -1.58226 1.12597 0
M  V30 17563 O 1694.76 -1.93595 0.187363 0
M  V30 17564 C 1695.04 -0.808025 3.50917 0
M  V30 17565 C 1694.89 0.389417 4.48111 0
M  V30 17566 C 1696.21 -1.6582 4.07666 0
M  V30 17567 H 1693.33 -0.140141 0.723553 0
M  V30 17568 H 1695.97 0.337696 1.86975 0
M  V30 17569 H 1694.12 -1.42772 3.61315 0
M  V30 17570 H 1695.79 1.02777 4.49705 0
M  V30 17571 H 1694.04 1.03404 4.21296 0
M  V30 17572 H 1694.71 0.0534549 5.51974 0
M  V30 17573 H 1697.18 -1.13518 4.00316 0
M  V30 17574 H 1696.06 -1.91984 5.14231 0
M  V30 17575 H 1696.32 -2.62712 3.55577 0
M  V30 17576 N 1695.38 -1.57561 -0.0350783 0
M  V30 17577 C 1696.31 -2.09201 -1.03716 0
M  V30 17578 C 1697.29 -0.993231 -1.3809 0
M  V30 17579 O 1698.48 -1.26812 -1.47079 0
M  V30 17580 C 1695.61 -2.56643 -2.3399 0
M  V30 17581 C 1694.56 -3.70731 -2.13874 0
M  V30 17582 C 1693.89 -4.04358 -3.49855 0
M  V30 17583 C 1695.19 -4.99393 -1.52982 0
M  V30 17584 H 1696.88 -2.93176 -0.60731 0
M  V30 17585 H 1694.43 -1.41036 -0.290683 0
M  V30 17586 H 1696.38 -2.9139 -3.04417 0
M  V30 17587 H 1695.1 -1.69744 -2.79024 0
M  V30 17588 H 1693.76 -3.36325 -1.45881 0
M  V30 17589 H 1693.41 -3.14534 -3.92527 0
M  V30 17590 H 1693.11 -4.81201 -3.37223 0
M  V30 17591 H 1694.63 -4.41633 -4.21654 0
M  V30 17592 H 1696.05 -5.32135 -2.13319 0
M  V30 17593 H 1694.45 -5.80807 -1.50943 0
M  V30 17594 H 1695.52 -4.82367 -0.494993 0
M  V30 17595 O 1696.9 0.178036 -1.60516 0
M  V30 17596 H 1697.59 0.815329 -1.75705 0
M  V30 END ATOM
M  V30 BEGIN BOND
M  V30 END BOND
M  V30 END CTAB
M  END
$$$$
