drugbank_target|Q8TAE7 Potassium voltage-gated channel subfamily G member 3 (DB00228; DB01069; DB01110)
 OpenBabel12092121213D

  0  0  0     0  0            999 V3000
M  V30 BEGIN CTAB
M  V30 COUNTS 6978 7056 0 0 0
M  V30 BEGIN ATOM
M  V30 1 H -0.908 1.98254 -0.117106 0
M  V30 2 N 0 1.576 0 0
M  V30 3 C 0.933 2.03868 1.02534 0
M  V30 4 C 1.911 0.928543 1.3348 0
M  V30 5 O 3.095 1.19667 1.45644 0
M  V30 6 C 0.222 2.43627 2.35294 0
M  V30 7 C -0.732 3.65373 2.2001 0
M  V30 8 S 0.101 5.13292 1.52614 0
M  V30 9 C 1.257 5.56322 2.86805 0
M  V30 10 H 1.49 2.90518 0.631377 0
M  V30 11 H -0.977 1.52953 0.210867 0
M  V30 12 H 0.981 2.67203 3.11629 0
M  V30 13 H -0.358 1.57376 2.7183 0
M  V30 14 H -1.165 3.90944 3.18086 0
M  V30 15 H -1.563 3.418 1.51819 0
M  V30 16 H 0.729 5.58782 3.83104 0
M  V30 17 H 1.672 6.56266 2.65933 0
M  V30 18 H 2.08 4.83886 2.90714 0
M  V30 19 N 1.4781 -0.272755 1.55222 0
M  V30 20 C 2.7061 -1.02255 1.79865 0
M  V30 21 C 3.1211 -1.79924 0.572088 0
M  V30 22 O 2.4781 -1.76638 -0.458842 0
M  V30 23 C 2.5291 -1.98094 3.02392 0
M  V30 24 O 2.2501 -1.23572 4.20311 0
M  V30 25 C 3.7511 -2.84884 3.39641 0
M  V30 26 H 0.9711 -0.302057 0.599168 0
M  V30 27 H 3.5151 -0.303465 2.02236 0
M  V30 28 H 1.6701 -2.65465 2.82147 0
M  V30 29 H 2.0841 -1.88172 4.89583 0
M  V30 30 H 3.5581 -3.47927 4.28545 0
M  V30 31 H 4.0351 -3.54665 2.59055 0
M  V30 32 H 4.6411 -2.23003 3.62146 0
M  V30 33 N 2.9562 -1.48159 -0.537278 0
M  V30 34 C 4.2032 -1.55804 -1.29349 0
M  V30 35 C 4.5312 -0.228802 -1.9315 0
M  V30 36 O 3.7862 0.780242 -1.79473 0
M  V30 37 C 4.0852 -2.63956 -2.40961 0
M  V30 38 C 3.7512 -4.0662 -1.94861 0
M  V30 39 C 2.4132 -4.45452 -1.82006 0
M  V30 40 C 4.7652 -4.96055 -1.59933 0
M  V30 41 C 2.0932 -5.71531 -1.32547 0
M  V30 42 C 4.4452 -6.22617 -1.11939 0
M  V30 43 C 3.1092 -6.60312 -0.976951 0
M  V30 44 H 2.3792 -0.570129 -0.473322 0
M  V30 45 H 5.0262 -1.81845 -0.600372 0
M  V30 46 H 3.3312 -2.31747 -3.15912 0
M  V30 47 H 5.0282 -2.67089 -2.99107 0
M  V30 48 H 1.6182 -3.75949 -2.05815 0
M  V30 49 H 5.8022 -4.66738 -1.68728 0
M  V30 50 H 1.0582 -5.99468 -1.202 0
M  V30 51 H 5.2322 -6.91318 -0.839811 0
M  V30 52 H 2.8592 -7.57895 -0.591501 0
M  V30 53 N 4.4343 0.785586 -1.36625 0
M  V30 54 C 5.6823 1.54057 -1.30808 0
M  V30 55 C 6.0033 1.94683 0.111157 0
M  V30 56 O 5.2733 1.65241 1.05224 0
M  V30 57 H 3.8533 0.571354 -0.481211 0
M  V30 58 H 6.5153 0.935821 -1.70963 0
M  V30 59 H 5.6113 2.44637 -1.93801 0
M  V30 60 N 5.9124 1.20967 1.01018 0
M  V30 61 C 7.3284 0.965905 1.27053 0
M  V30 62 C 7.5284 -0.350785 1.98423 0
M  V30 63 O 6.5844 -1.07773 2.28344 0
M  V30 64 C 7.8974 2.15294 2.09926 0
M  V30 65 C 9.4454 2.19463 2.23171 0
M  V30 66 C 9.9204 3.3767 3.09424 0
M  V30 67 N 11.4114 3.37724 3.17012 0
M  V30 68 C 12.1464 4.25837 3.83993 0
M  V30 69 N 11.6424 5.24138 4.53047 0
M  V30 70 N 13.4354 4.1366 3.80581 0
M  V30 71 H 5.5864 2.0565 0.531194 0
M  V30 72 H 7.8494 0.90024 0.297106 0
M  V30 73 H 7.5554 3.10684 1.64828 0
M  V30 74 H 7.4294 2.13923 3.10672 0
M  V30 75 H 9.8164 1.24632 2.6749 0
M  V30 76 H 9.8974 2.2488 1.21912 0
M  V30 77 H 9.5414 4.32791 2.65808 0
M  V30 78 H 9.4714 3.29491 4.10784 0
M  V30 79 H 11.9624 2.6658 2.6785 0
M  V30 80 H 12.2754 5.87684 5.01844 0
M  V30 81 H 10.6204 5.28068 4.5185 0
M  V30 82 H 13.8114 3.36127 3.25785 0
M  V30 83 H 13.9844 4.82538 4.32505 0
M  V30 84 N 7.3905 -1.2043 1.01659 0
M  V30 85 C 8.6155 -1.94318 0.724942 0
M  V30 86 C 9.0405 -1.74266 -0.708034 0
M  V30 87 O 8.3985 -1.03694 -1.48719 0
M  V30 88 C 8.4465 -3.44486 1.06591 0
M  V30 89 O 7.5505 -4.12017 0.177599 0
M  V30 90 H 6.8915 -0.60708 0.26898 0
M  V30 91 H 9.4215 -1.52861 1.35995 0
M  V30 92 H 9.4315 -3.95106 1.01762 0
M  V30 93 H 8.1065 -3.58404 2.10997 0
M  V30 94 H 6.6835 -3.71821 0.283421 0
M  V30 95 N 8.8686 -0.792821 -1.36206 0
M  V30 96 C 10.1166 -0.366062 -1.98757 0
M  V30 97 C 10.4376 1.0668 -1.63231 0
M  V30 98 O 9.7076 1.73587 -0.907978 0
M  V30 99 H 8.2876 -0.132364 -0.735179 0
M  V30 100 H 10.9496 -1.01562 -1.66347 0
M  V30 101 H 10.0456 -0.460638 -3.08682 0
M  V30 102 N 10.3467 1.47872 -0.545128 0
M  V30 103 C 11.3097 2.28337 0.198717 0
M  V30 104 C 12.3097 1.36255 0.853888 0
M  V30 105 O 13.4997 1.59003 0.711606 0
M  V30 106 C 10.6317 3.15585 1.28915 0
M  V30 107 H 11.8247 2.95567 -0.507941 0
M  V30 108 H 9.3777 1.53362 -0.301616 0
M  V30 109 H 10.1127 2.53019 2.02859 0
M  V30 110 H 9.8977 3.83337 0.824309 0
M  V30 111 H 11.3877 3.76243 1.81194 0
M  V30 112 N 11.8248 0.280983 1.55075 0
M  V30 113 C 12.7878 -0.590896 2.21452 0
M  V30 114 C 13.7878 -1.07682 1.19421 0
M  V30 115 O 14.9778 -0.97605 1.44288 0
M  V30 116 C 12.1098 -1.81587 2.88511 0
M  V30 117 H 13.3028 -0.0112554 2.99898 0
M  V30 118 H 10.8558 0.0316438 1.56268 0
M  V30 119 H 11.5908 -2.43587 2.14093 0
M  V30 120 H 11.3758 -1.4753 3.63287 0
M  V30 121 H 12.8658 -2.43575 3.39206 0
M  V30 122 N 13.3029 -1.57598 0.00835791 0
M  V30 123 C 14.5279 -1.95617 -0.689103 0
M  V30 124 C 14.9529 -0.883753 -1.66046 0
M  V30 125 O 14.3109 0.157352 -1.80616 0
M  V30 126 C 14.3589 -3.32736 -1.38994 0
M  V30 127 O 13.4629 -3.27631 -2.50463 0
M  V30 128 H 12.8039 -0.638379 -0.182668 0
M  V30 129 H 15.3339 -2.045 0.064036 0
M  V30 130 H 15.3439 -3.68494 -1.75147 0
M  V30 131 H 14.0189 -4.1034 -0.677778 0
M  V30 132 H 12.5959 -3.03561 -2.16576 0
M  V30 133 N 14.781 0.264519 -1.55364 0
M  V30 134 C 16.027 0.99646 -1.76631 0
M  V30 135 C 16.36 1.85632 -0.570478 0
M  V30 136 O 15.635 1.89647 0.43175 0
M  V30 137 C 15.918 1.87187 -3.07625 0
M  V30 138 C 15.771 1.04138 -4.37579 0
M  V30 139 C 17.09 2.85749 -3.34717 0
M  V30 140 H 14.209 0.360841 -0.642622 0
M  V30 141 H 16.851 0.268218 -1.88097 0
M  V30 142 H 15.001 2.49279 -2.9798 0
M  V30 143 H 16.673 0.440517 -4.59192 0
M  V30 144 H 14.916 0.345115 -4.32425 0
M  V30 145 H 15.587 1.68729 -5.2558 0
M  V30 146 H 18.063 2.33793 -3.4421 0
M  V30 147 H 16.939 3.44136 -4.27623 0
M  V30 148 H 17.2 3.61311 -2.54768 0
M  V30 149 N 16.2591 1.48442 0.529413 0
M  V30 150 C 17.5051 1.5672 1.28711 0
M  V30 151 C 17.8381 0.2406 1.92704 0
M  V30 152 O 17.1131 -0.753454 1.79313 0
M  V30 153 C 17.3961 2.70587 2.37603 0
M  V30 154 C 17.2491 4.12953 1.78297 0
M  V30 155 C 18.5681 2.80212 3.39366 0
M  V30 156 H 15.6871 0.570474 0.466613 0
M  V30 157 H 18.3291 1.80617 0.589706 0
M  V30 158 H 16.4791 2.50342 2.97088 0
M  V30 159 H 18.1511 4.44639 1.22858 0
M  V30 160 H 16.3941 4.19927 1.0883 0
M  V30 161 H 17.0651 4.88448 2.57144 0
M  V30 162 H 19.5411 2.98553 2.89836 0
M  V30 163 H 18.4171 3.61611 4.12951 0
M  V30 164 H 18.6781 1.88393 3.99951 0
M  V30 165 N 17.7372 -0.778329 1.37039 0
M  V30 166 C 18.6672 -1.90546 1.34962 0
M  V30 167 C 19.6482 -1.68681 0.219274 0
M  V30 168 O 20.8332 -1.89634 0.418624 0
M  V30 169 C 17.9632 -3.27734 1.14925 0
M  V30 170 C 16.9172 -3.64147 2.24902 0
M  V30 171 C 16.2432 -4.99806 1.89996 0
M  V30 172 C 17.5432 -3.71579 3.67051 0
M  V30 173 H 19.2372 -1.92541 2.29277 0
M  V30 174 H 16.7832 -0.924948 1.10366 0
M  V30 175 H 18.7362 -4.06215 1.12104 0
M  V30 176 H 17.4602 -3.26154 0.170631 0
M  V30 177 H 16.1192 -2.8797 2.26868 0
M  V30 178 H 15.7672 -4.94759 0.906796 0
M  V30 179 H 15.4672 -5.25139 2.63634 0
M  V30 180 H 16.9912 -5.80694 1.88749 0
M  V30 181 H 18.4052 -4.40227 3.67251 0
M  V30 182 H 16.8022 -4.08405 4.39688 0
M  V30 183 H 17.8722 -2.72404 4.01154 0
M  V30 184 N 19.2153 -1.21501 -1.00376 0
M  V30 185 C 20.1633 -0.972442 -2.11297 0
M  V30 186 C 21.1573 0.080731 -1.69208 0
M  V30 187 O 22.3633 -0.0707666 -1.79861 0
M  V30 188 H 18.7383 -0.297218 -0.690772 0
M  V30 189 H 20.7093 -1.91394 -2.28934 0
M  V30 190 C 19.4583 -0.555065 -3.43241 0
M  V30 191 H 18.7813 -1.35709 -3.76062 0
M  V30 192 H 20.2213 -0.424664 -4.21868 0
M  V30 193 C 18.6803 0.734147 -3.28804 0
M  V30 194 O 19.2103 1.78937 -3.59645 0
M  V30 195 N 17.4163 0.701133 -2.82015 0
M  V30 196 H 16.9633 -0.157874 -2.57116 0
M  V30 197 H 16.9213 1.56403 -2.72737 0
M  V30 198 N 20.6934 1.19889 -1.02296 0
M  V30 199 C 21.9394 1.89701 -0.717033 0
M  V30 200 C 22.2724 1.7905 0.751989 0
M  V30 201 O 21.5474 1.17891 1.547 0
M  V30 202 C 21.8304 3.40858 -1.16136 0
M  V30 203 C 21.6834 3.60411 -2.69117 0
M  V30 204 C 23.0024 4.33876 -0.737549 0
M  V30 205 H 20.1214 0.688874 -0.261957 0
M  V30 206 H 22.7634 1.41154 -1.27183 0
M  V30 207 H 20.9134 3.82335 -0.689342 0
M  V30 208 H 22.5854 3.28145 -3.2422 0
M  V30 209 H 20.8284 3.03665 -3.0979 0
M  V30 210 H 21.4994 4.66396 -2.95261 0
M  V30 211 H 23.9754 4.00081 -1.14344 0
M  V30 212 H 22.8514 5.38242 -1.0764 0
M  V30 213 H 23.1124 4.40628 0.360436 0
M  V30 214 N 22.1715 0.800033 1.35784 0
M  V30 215 C 23.4195 0.376597 1.9856 0
M  V30 216 C 23.7405 -1.05812 1.63795 0
M  V30 217 O 23.0105 -1.73103 0.917171 0
M  V30 218 H 21.5905 0.136261 0.734467 0
M  V30 219 H 24.2525 1.02442 1.65806 0
M  V30 220 H 23.3485 0.477002 3.08433 0
M  V30 221 N 23.6496 -1.47581 0.552962 0
M  V30 222 C 24.8976 -2.02082 0.0272703 0
M  V30 223 C 25.2186 -1.4301 -1.32563 0
M  V30 224 O 24.4886 -0.603745 -1.86365 0
M  V30 225 H 23.0686 -0.746966 0.00709182 0
M  V30 226 H 25.7306 -1.81033 0.722008 0
M  V30 227 H 24.8266 -3.12034 -0.0639951 0
M  V30 228 N 25.1277 -0.289203 -1.54924 0
M  V30 229 C 26.0907 0.579144 -2.21762 0
M  V30 230 C 27.0907 1.07047 -1.1999 0
M  V30 231 O 28.2807 0.968384 -1.44803 0
M  V30 232 C 25.4127 1.80055 -2.8947 0
M  V30 233 H 26.6057 -0.00464908 -2.999 0
M  V30 234 H 24.1587 -0.0399306 -1.56249 0
M  V30 235 H 24.8937 2.42449 -2.15381 0
M  V30 236 H 24.6787 1.45602 -3.64064 0
M  V30 237 H 26.1687 2.41773 -3.40493 0
M  V30 238 N 26.6058 1.57591 -0.0167156 0
M  V30 239 C 28.0218 1.55946 0.339557 0
M  V30 240 C 28.2218 1.02109 1.73713 0
M  V30 241 O 27.2778 0.662303 2.43659 0
M  V30 242 C 28.5908 3.00037 0.199499 0
M  V30 243 C 30.1388 3.11805 0.273193 0
M  V30 244 C 30.6138 4.57713 0.162068 0
M  V30 245 N 32.1048 4.6268 0.219444 0
M  V30 246 C 32.8398 5.73185 0.157054 0
M  V30 247 N 32.3358 6.92786 0.0442936 0
M  V30 248 N 34.1288 5.61707 0.21014 0
M  V30 249 H 26.2798 1.90921 -0.930758 0
M  V30 250 H 28.5428 0.877674 -0.358319 0
M  V30 251 H 28.2488 3.4333 -0.76273 0
M  V30 252 H 28.1228 3.64387 0.974786 0
M  V30 253 H 30.5098 2.68433 1.22587 0
M  V30 254 H 30.5908 2.50201 -0.532256 0
M  V30 255 H 30.2348 5.01763 -0.78714 0
M  V30 256 H 30.1648 5.17283 0.986222 0
M  V30 257 H 32.6558 3.76649 0.307246 0
M  V30 258 H 32.9688 7.728 0.00304069 0
M  V30 259 H 31.3138 6.94999 0.00968457 0
M  V30 260 H 34.5048 4.6716 0.296546 0
M  V30 261 H 34.6778 6.47807 0.158054 0
M  V30 262 N 28.0839 -0.256276 1.55502 0
M  V30 263 C 29.3139 -1.00196 1.80677 0
M  V30 264 C 29.7219 -1.79805 0.588797 0
M  V30 265 O 29.0649 -1.78055 -0.451883 0
M  V30 266 C 29.1269 -1.99515 2.99055 0
M  V30 267 C 28.7909 -1.38688 4.35448 0
M  V30 268 C 29.7879 -0.794079 5.138 0
M  V30 269 C 27.4729 -1.40906 4.82132 0
M  V30 270 C 29.4669 -0.231562 6.36979 0
M  V30 271 C 27.1539 -0.842684 6.05262 0
M  V30 272 C 28.1519 -0.254953 6.82524 0
M  V30 273 O 27.8399 0.3027 8.0333 0
M  V30 274 H 27.5719 -0.300919 0.60533 0
M  V30 275 H 30.1259 -0.287307 2.03381 0
M  V30 276 H 28.3559 -2.74785 2.72084 0
M  V30 277 H 30.0449 -2.60349 3.11405 0
M  V30 278 H 30.8109 -0.769519 4.78856 0
M  V30 279 H 26.6899 -1.85591 4.21992 0
M  V30 280 H 30.2339 0.227816 6.97228 0
M  V30 281 H 26.1309 -0.86454 6.39684 0
M  V30 282 H 26.8989 0.193662 8.18271 0
M  V30 283 N 29.562 -1.4872 -0.521534 0
M  V30 284 C 30.787 -1.61101 -1.30618 0
M  V30 285 C 31.212 -0.274611 -1.86085 0
M  V30 286 O 30.57 0.754937 -1.64834 0
M  V30 287 C 30.618 -2.66709 -2.4269 0
M  V30 288 O 29.722 -2.24456 -3.45967 0
M  V30 289 H 29.063 -0.539921 -0.386499 0
M  V30 290 H 31.593 -1.94767 -0.626645 0
M  V30 291 H 31.603 -2.88245 -2.88754 0
M  V30 292 H 30.278 -3.63727 -2.01682 0
M  V30 293 H 28.855 -2.13168 -3.05964 0
M  V30 294 N 31.0401 0.771051 -1.3745 0
M  V30 295 C 31.9701 1.89827 -1.3597 0
M  V30 296 C 32.9511 1.68562 -0.228216 0
M  V30 297 O 34.1361 1.8941 -0.428675 0
M  V30 298 C 31.2661 3.2712 -1.16662 0
M  V30 299 C 30.2201 3.6295 -2.2683 0
M  V30 300 C 29.5461 4.98791 -1.92644 0
M  V30 301 C 30.8461 3.69627 -3.69017 0
M  V30 302 H 32.5401 1.91323 -2.30295 0
M  V30 303 H 30.0861 0.919082 -1.10855 0
M  V30 304 H 32.0391 4.05615 -1.14256 0
M  V30 305 H 30.7631 3.26059 -0.187926 0
M  V30 306 H 29.4221 2.86763 -2.28392 0
M  V30 307 H 29.0701 4.94271 -0.933021 0
M  V30 308 H 28.7701 5.23733 -2.66416 0
M  V30 309 H 30.2941 5.79685 -1.91826 0
M  V30 310 H 31.7081 4.38273 -3.69581 0
M  V30 311 H 30.1051 4.06067 -4.41848 0
M  V30 312 H 31.1751 2.70273 -4.02592 0
M  V30 313 N 32.5182 1.22032 0.997298 0
M  V30 314 C 33.7432 1.06921 1.77715 0
M  V30 315 C 34.1682 -0.376226 1.84299 0
M  V30 316 O 33.5262 -1.27165 1.29223 0
M  V30 317 C 33.5742 1.67996 3.19076 0
M  V30 318 O 32.6782 0.930653 4.01762 0
M  V30 319 H 32.0192 0.375814 0.547412 0
M  V30 320 H 34.5492 1.61737 1.25309 0
M  V30 321 H 34.5592 1.72538 3.69723 0
M  V30 322 H 33.2342 2.73182 3.13599 0
M  V30 323 H 31.8112 0.960917 3.60307 0
M  V30 324 N 33.9963 -1.19345 1.0293 0
M  V30 325 C 35.4123 -1.41069 0.746446 0
M  V30 326 C 35.6123 -1.90078 -0.668776 0
M  V30 327 O 34.6683 -2.0778 -1.4347 0
M  V30 328 C 35.9813 -2.42141 1.78292 0
M  V30 329 C 37.5293 -2.55887 1.80252 0
M  V30 330 C 38.0043 -3.60214 2.8286 0
M  V30 331 N 39.4953 -3.67711 2.81679 0
M  V30 332 C 40.2303 -4.48128 3.57727 0
M  V30 333 N 39.7263 -5.32248 4.43491 0
M  V30 334 N 41.5193 -4.42782 3.46267 0
M  V30 335 H 33.6703 -0.858536 1.94275 0
M  V30 336 H 35.9333 -0.439541 0.839945 0
M  V30 337 H 35.6393 -2.13155 2.79746 0
M  V30 338 H 35.5133 -3.41323 1.60557 0
M  V30 339 H 37.9003 -2.84196 0.794757 0
M  V30 340 H 37.9813 -1.56858 2.02062 0
M  V30 341 H 37.6253 -3.32647 3.83807 0
M  V30 342 H 37.5553 -4.58895 2.58307 0
M  V30 343 H 40.0463 -3.07634 2.19476 0
M  V30 344 H 40.3593 -5.90729 4.98256 0
M  V30 345 H 38.7043 -5.31707 4.47564 0
M  V30 346 H 41.8953 -3.76107 2.78677 0
M  V30 347 H 42.0683 -5.05215 4.05785 0
M  V30 348 N 35.4744 -0.807222 -1.35358 0
M  V30 349 C 36.3844 -0.219594 -2.3357 0
M  V30 350 C 37.4004 0.637734 -1.61892 0
M  V30 351 O 38.5764 0.549336 -1.93763 0
M  V30 352 C 35.6414 0.62158 -3.41083 0
M  V30 353 C 34.7024 -0.256315 -4.28534 0
M  V30 354 C 33.9354 0.544807 -5.30912 0
M  V30 355 O 34.1584 1.77944 -5.41934 0
M  V30 356 O 33.0924 -0.0646478 -6.01865 0
M  V30 357 H 36.9184 -1.03208 -2.85625 0
M  V30 358 H 34.5034 -0.569025 -1.38139 0
M  V30 359 H 36.3854 1.10067 -4.06772 0
M  V30 360 H 35.0604 1.41165 -2.91297 0
M  V30 361 H 33.9674 -0.782559 -3.65823 0
M  V30 362 H 35.3004 -1.01034 -4.81719 0
M  V30 363 N 36.9525 1.47285 -0.560781 0
M  V30 364 C 37.8825 2.32857 0.173105 0
M  V30 365 C 38.8635 1.44009 0.905281 0
M  V30 366 O 40.0485 1.7286 0.885046 0
M  V30 367 C 37.1785 3.25861 1.20133 0
M  V30 368 C 36.1325 4.23978 0.585388 0
M  V30 369 C 35.4585 5.06332 1.7185 0
M  V30 370 C 36.7585 5.20242 -0.463178 0
M  V30 371 H 38.4525 2.94466 -0.541307 0
M  V30 372 H 35.9985 1.41601 -0.261764 0
M  V30 373 H 37.9515 3.84569 1.72293 0
M  V30 374 H 36.6755 2.62315 1.94573 0
M  V30 375 H 35.3345 3.66501 0.085054 0
M  V30 376 H 34.9825 4.39186 2.45203 0
M  V30 377 H 34.6825 5.72762 1.31213 0
M  V30 378 H 36.2065 5.67899 2.24329 0
M  V30 379 H 37.6205 5.73293 -0.027502 0
M  V30 380 H 36.0175 5.94896 -0.788627 0
M  V30 381 H 37.0875 4.65504 -1.35773 0
M  V30 382 N 38.4306 0.297415 1.54768 0
M  V30 383 C 39.3606 -0.573494 2.26348 0
M  V30 384 C 40.3416 -1.14085 1.26169 0
M  V30 385 O 41.5266 -1.17086 1.54934 0
M  V30 386 C 38.6566 -1.74716 3.00153 0
M  V30 387 C 37.6106 -1.31032 4.07449 0
M  V30 388 C 36.9366 -2.56887 4.68949 0
M  V30 389 C 38.2366 -0.444183 5.20408 0
M  V30 390 H 39.9306 0.0235131 2.99391 0
M  V30 391 H 37.4766 0.0127488 1.43994 0
M  V30 392 H 39.4296 -2.3625 3.48947 0
M  V30 393 H 38.1536 -2.37035 2.24682 0
M  V30 394 H 36.8126 -0.718066 3.59499 0
M  V30 395 H 36.4606 -3.17512 3.90122 0
M  V30 396 H 36.1606 -2.2836 5.41411 0
M  V30 397 H 37.6846 -3.19229 5.20505 0
M  V30 398 H 39.0986 -0.9651 5.65118 0
M  V30 399 H 37.4956 -0.252846 5.99567 0
M  V30 400 H 38.5656 0.531609 4.81977 0
M  V30 401 N 39.9087 -1.5758 0.0250728 0
M  V30 402 C 40.8557 -2.09973 -0.958129 0
M  V30 403 C 41.8257 -1.00085 -1.3256 0
M  V30 404 O 43.0107 -1.27481 -1.41962 0
M  V30 405 C 40.1507 -2.62812 -2.2366 0
M  V30 406 C 39.2637 -3.86693 -1.92594 0
M  V30 407 C 38.3987 -4.27941 -3.14707 0
M  V30 408 C 37.4377 -5.44591 -2.79442 0
M  V30 409 N 36.5747 -5.81014 -3.94167 0
M  V30 410 H 41.4147 -2.937 -0.504428 0
M  V30 411 H 38.9517 -1.45172 -0.237392 0
M  V30 412 H 40.9097 -2.91536 -2.98434 0
M  V30 413 H 39.5397 -1.81922 -2.66654 0
M  V30 414 H 38.5917 -3.64723 -1.0808 0
M  V30 415 H 39.9037 -4.71547 -1.62619 0
M  V30 416 H 39.0577 -4.58079 -3.97804 0
M  V30 417 H 37.7967 -3.41845 -3.4784 0
M  V30 418 H 36.8017 -5.1415 -1.94755 0
M  V30 419 H 38.0267 -6.32382 -2.47528 0
M  V30 420 H 35.9727 -4.97874 -4.2715 0
M  V30 421 H 35.8897 -6.60498 -3.67801 0
M  V30 422 H 37.1577 -6.15756 -4.7798 0
M  V30 423 N 41.3868 0.248026 -1.55636 0
M  V30 424 C 42.6638 0.998988 -1.68165 0
M  V30 425 C 43.0438 2.03409 -0.564621 0
M  V30 426 O 42.3918 2.24378 0.432076 0
M  V30 427 C 42.6018 1.63334 -3.0842 0
M  V30 428 C 43.9498 2.13562 -3.66983 0
M  V30 429 O 44.9738 1.73277 -3.11213 0
M  V30 430 O 43.8328 2.87526 -4.64749 0
M  V30 431 H 40.9268 0.464933 -0.683935 0
M  V30 432 H 43.4728 0.241902 -1.67967 0
M  V30 433 H 42.2448 0.884583 -3.8117 0
M  V30 434 H 41.8678 2.45666 -3.12624 0
M  V30 435 N 42.8649 1.48995 0.513639 0
M  V30 436 C 44.1119 1.57843 1.26854 0
M  V30 437 C 44.4399 0.259501 1.92761 0
M  V30 438 O 43.6949 -0.75159 1.80692 0
M  V30 439 C 43.9939 2.67756 2.36731 0
M  V30 440 C 43.6599 4.09669 1.88368 0
M  V30 441 C 42.3219 4.48291 1.74896 0
M  V30 442 C 44.6739 4.98537 1.52021 0
M  V30 443 C 42.0019 5.73568 1.23438 0
M  V30 444 C 44.3539 6.24319 1.0202 0
M  V30 445 C 43.0179 6.61783 0.871778 0
M  V30 446 H 42.2879 0.577587 0.464192 0
M  V30 447 H 44.9349 1.82778 0.571366 0
M  V30 448 H 43.2399 2.36743 3.12185 0
M  V30 449 H 44.9369 2.71813 2.9482 0
M  V30 450 H 41.5269 3.79176 1.99808 0
M  V30 451 H 45.7109 4.69363 1.61281 0
M  V30 452 H 40.9669 6.01304 1.10648 0
M  V30 453 H 45.1409 6.92566 0.729722 0
M  V30 454 H 42.7679 7.5874 0.470852 0
M  V30 455 N 44.343 -0.763751 1.37857 0
M  V30 456 C 45.754 -1.3405 1.29952 0
M  V30 457 C 46.105 -1.96138 -0.0492898 0
M  V30 458 O 45.23 -1.94372 -0.951239 0
M  V30 459 C 45.825 -2.43729 2.35333 0
M  V30 460 C 44.384 -2.97151 2.31037 0
M  V30 461 C 43.531 -1.70438 2.18738 0
M  V30 462 H 46.482 -0.563396 1.48363 0
M  V30 463 H 46.503 -3.23412 2.00462 0
M  V30 464 H 46.015 -1.9851 3.33489 0
M  V30 465 H 44.116 -3.46724 1.3643 0
M  V30 466 H 44.229 -3.52221 3.24772 0
M  V30 467 H 42.593 -1.93673 1.65418 0
M  V30 468 H 43.376 -1.27312 3.18821 0
M  V30 469 N 45.8211 -1.22559 -0.990812 0
M  V30 470 C 46.7511 -1.0218 -2.09956 0
M  V30 471 C 47.7321 0.0579394 -1.70001 0
M  V30 472 O 48.9171 -0.104684 -1.93918 0
M  V30 473 C 46.0471 -0.601023 -3.4206 0
M  V30 474 C 45.0011 -1.62694 -3.95872 0
M  V30 475 C 44.3271 -1.06193 -5.24049 0
M  V30 476 C 45.6271 -3.01743 -4.2632 0
M  V30 477 H 47.3211 -1.94916 -2.27262 0
M  V30 478 H 44.8671 -0.938566 -1.09211 0
M  V30 479 H 46.8201 -0.445561 -4.19038 0
M  V30 480 H 45.5441 0.362005 -3.24588 0
M  V30 481 H 44.2031 -1.77021 -3.21028 0
M  V30 482 H 43.8511 -0.0901903 -5.02919 0
M  V30 483 H 43.5511 -1.74732 -5.61019 0
M  V30 484 H 45.0751 -0.918092 -6.03658 0
M  V30 485 H 46.4891 -2.90777 -4.94087 0
M  V30 486 H 44.8861 -3.67425 -4.74467 0
M  V30 487 H 45.9561 -3.51518 -3.34011 0
M  V30 488 N 47.2992 1.18797 -1.03562 0
M  V30 489 C 48.7152 1.40671 -0.753917 0
M  V30 490 C 48.9152 1.9043 0.658686 0
M  V30 491 O 47.9712 2.08538 1.42366 0
M  V30 492 C 49.2842 2.41192 -1.79574 0
M  V30 493 C 50.8322 2.54928 -1.81606 0
M  V30 494 C 51.3072 3.58709 -2.84766 0
M  V30 495 N 52.7982 3.66212 -2.83625 0
M  V30 496 C 53.5332 4.46225 -3.60098 0
M  V30 497 N 53.0292 5.29888 -4.46308 0
M  V30 498 N 54.8222 4.40939 -3.4861 0
M  V30 499 H 46.9732 0.848221 -1.94728 0
M  V30 500 H 49.2362 0.435081 -0.842264 0
M  V30 501 H 48.9422 2.11669 -2.80872 0
M  V30 502 H 48.8162 3.40467 -1.62365 0
M  V30 503 H 51.2032 2.83771 -0.809817 0
M  V30 504 H 51.2842 1.55784 -2.02891 0
M  V30 505 H 50.9282 3.30607 -3.85566 0
M  V30 506 H 50.8582 4.57519 -2.60737 0
M  V30 507 H 53.3492 3.06466 -2.21105 0
M  V30 508 H 53.6622 5.88078 -5.01382 0
M  V30 509 H 52.0072 5.29326 -4.50377 0
M  V30 510 H 55.1982 3.74624 -2.80668 0
M  V30 511 H 55.3712 5.03056 -4.08459 0
M  V30 512 N 48.7773 0.814389 1.34928 0
M  V30 513 C 50.1933 0.499084 1.51596 0
M  V30 514 C 50.3933 -0.978319 1.76157 0
M  V30 515 O 49.4493 -1.76309 1.80752 0
M  V30 516 C 50.7623 1.35121 2.68631 0
M  V30 517 C 52.3103 1.34746 2.82511 0
M  V30 518 C 52.7853 2.18388 4.0258 0
M  V30 519 N 54.2763 2.15966 4.09772 0
M  V30 520 C 55.0113 2.77437 5.01813 0
M  V30 521 N 54.5073 3.47866 5.99134 0
M  V30 522 N 56.3003 2.67037 4.94619 0
M  V30 523 H 48.4513 1.7711 1.17243 0
M  V30 524 H 50.7143 0.754256 0.574284 0
M  V30 525 H 50.4203 2.40001 2.57085 0
M  V30 526 H 50.2943 1.00991 3.63429 0
M  V30 527 H 52.6813 0.30648 2.93504 0
M  V30 528 H 52.7623 1.72869 1.88547 0
M  V30 529 H 52.4063 3.2253 3.92347 0
M  V30 530 H 52.3363 1.77621 4.9574 0
M  V30 531 H 54.8273 1.64729 3.40107 0
M  V30 532 H 55.1403 3.92038 6.65977 0
M  V30 533 H 53.4853 3.51972 5.99284 0
M  V30 534 H 56.6763 2.11597 4.17546 0
M  V30 535 H 56.8493 3.15232 5.66156 0
M  V30 536 N 50.2554 -1.46986 0.568584 0
M  V30 537 C 51.5014 -2.02741 0.0488709 0
M  V30 538 C 51.8344 -1.44077 -1.30214 0
M  V30 539 O 51.1094 -0.600552 -1.84996 0
M  V30 540 C 51.3924 -3.60086 -0.032047 0
M  V30 541 C 51.2454 -4.29162 1.34686 0
M  V30 542 C 52.5644 -4.33838 -0.739798 0
M  V30 543 H 49.6834 -0.736749 0.0192338 0
M  V30 544 H 52.3254 -1.75289 0.733065 0
M  V30 545 H 50.4754 -3.83606 -0.61473 0
M  V30 546 H 52.1474 -4.16948 1.97362 0
M  V30 547 H 50.3904 -3.89073 1.91846 0
M  V30 548 H 51.0614 -5.37826 1.24285 0
M  V30 549 H 53.5374 -4.15378 -0.244939 0
M  V30 550 H 52.4134 -5.43537 -0.765406 0
M  V30 551 H 52.6744 -4.03875 -1.79827 0
M  V30 552 N 51.7335 -0.305618 -1.54608 0
M  V30 553 C 52.9585 0.307562 -2.05107 0
M  V30 554 C 53.3835 1.46385 -1.18123 0
M  V30 555 O 52.7415 1.8034 -0.186324 0
M  V30 556 C 52.7895 0.73704 -3.52987 0
M  V30 557 O 51.8935 1.84134 -3.6901 0
M  V30 558 H 51.2345 0.0589143 -0.661381 0
M  V30 559 H 53.7645 -0.448807 -1.99617 0
M  V30 560 H 53.7745 1.02459 -3.94925 0
M  V30 561 H 52.4495 -0.108773 -4.15758 0
M  V30 562 H 51.0265 1.55398 -3.38978 0
M  V30 563 N 53.2116 1.57565 -0.0334293 0
M  V30 564 C 54.6276 1.56297 0.322997 0
M  V30 565 C 54.8276 1.03945 1.7262 0
M  V30 566 O 53.8836 0.688109 2.42943 0
M  V30 567 C 55.1966 3.00232 0.167664 0
M  V30 568 C 56.7446 3.12078 0.240107 0
M  V30 569 C 57.2196 4.57859 0.113513 0
M  V30 570 N 58.7106 4.62887 0.170359 0
M  V30 571 C 59.4456 5.73319 0.0962517 0
M  V30 572 N 58.9416 6.92794 -0.0291881 0
M  V30 573 N 60.7346 5.61898 0.150551 0
M  V30 574 H 52.8856 1.89923 -0.950956 0
M  V30 575 H 55.1486 0.873824 -0.367608 0
M  V30 576 H 54.8546 3.42501 -0.799102 0
M  V30 577 H 54.7286 3.654 0.936083 0
M  V30 578 H 57.1156 2.69718 1.19733 0
M  V30 579 H 57.1966 2.49623 -0.558763 0
M  V30 580 H 56.8406 5.009 -0.840314 0
M  V30 581 H 56.7706 5.18299 0.931302 0
M  V30 582 H 59.2616 3.76954 0.26728 0
M  V30 583 H 59.5746 7.7276 -0.0789252 0
M  V30 584 H 57.9196 6.94971 -0.0640299 0
M  V30 585 H 61.1106 4.67448 0.246981 0
M  V30 586 H 61.2836 6.47938 0.0893365 0
M  V30 587 N 54.6897 -0.239769 1.55765 0
M  V30 588 C 55.6197 -1.30052 1.9393 0
M  V30 589 C 56.6007 -1.49839 0.805132 0
M  V30 590 O 57.7857 -1.62328 1.06599 0
M  V30 591 C 54.9157 -2.65391 2.2402 0
M  V30 592 C 53.8697 -2.60289 3.39755 0
M  V30 593 C 53.1957 -3.99489 3.55405 0
M  V30 594 C 54.4957 -2.16654 4.75246 0
M  V30 595 H 56.1897 -0.983573 2.82783 0
M  V30 596 H 53.7357 -0.471701 1.36055 0
M  V30 597 H 55.6887 -3.3974 2.49308 0
M  V30 598 H 54.4127 -2.98736 1.32 0
M  V30 599 H 53.0717 -1.88398 3.14487 0
M  V30 600 H 52.7197 -4.30112 2.60793 0
M  V30 601 H 52.4197 -3.96962 4.33238 0
M  V30 602 H 53.9437 -4.75528 3.83022 0
M  V30 603 H 55.3577 -2.80737 4.99859 0
M  V30 604 H 53.7547 -2.25223 5.56232 0
M  V30 605 H 54.8247 -1.11835 4.71827 0
M  V30 606 N 56.1678 -1.49265 -0.50573 0
M  V30 607 C 57.1178 -1.6198 -1.60457 0
M  V30 608 C 58.1018 -0.47568 -1.53708 0
M  V30 609 O 59.2938 -0.728392 -1.61318 0
M  V30 610 C 56.4228 -1.68526 -2.99089 0
M  V30 611 C 55.5088 -2.885 -3.10852 0
M  V30 612 N 55.8998 -4.12635 -2.92517 0
M  V30 613 C 54.1978 -2.86338 -3.41945 0
M  V30 614 C 54.8988 -4.93258 -3.08337 0
M  V30 615 N 53.8748 -4.26533 -3.37003 0
M  V30 616 H 57.6768 -2.55681 -1.44928 0
M  V30 617 H 55.1908 -1.45972 -0.711752 0
M  V30 618 H 57.1878 -1.75732 -3.78053 0
M  V30 619 H 55.8478 -0.759584 -3.1569 0
M  V30 620 H 56.8588 -4.42689 -2.68787 0
M  V30 621 H 53.5358 -2.03129 -3.64753 0
M  V30 622 H 54.9258 -6.01856 -2.98695 0
M  V30 623 N 57.6459 0.756429 -1.3826 0
M  V30 624 C 58.8939 1.51248 -1.34047 0
M  V30 625 C 59.2149 1.94875 0.0698372 0
M  V30 626 O 58.4849 1.67436 1.01696 0
M  V30 627 H 57.0649 0.561018 -0.493222 0
M  V30 628 H 59.7269 0.899347 -1.7291 0
M  V30 629 H 58.8229 2.40472 -1.98947 0
M  V30 630 N 59.124 1.23083 0.984299 0
M  V30 631 C 60.364 1.07226 1.74017 0
M  V30 632 C 60.728 -0.384766 1.88105 0
M  V30 633 O 61.929 -0.664411 2.60459 0
M  V30 634 C 60.2 1.77348 3.10294 0
M  V30 635 S 61.759 1.77014 4.01512 0
M  V30 636 H 58.577 0.383819 0.598502 0
M  V30 637 H 61.179 1.56158 1.17622 0
M  V30 638 H 59.883 2.82506 2.97689 0
M  V30 639 H 59.414 1.28682 3.71759 0
M  V30 640 H 61.429 0.825956 4.89277 0
M  V30 641 N 60.6021 -1.18246 1.0419 0
M  V30 642 C 62.0181 -1.40269 0.761366 0
M  V30 643 C 62.2181 -1.90777 -0.648578 0
M  V30 644 O 61.2741 -2.0929 -1.41258 0
M  V30 645 C 62.5871 -2.40237 1.8085 0
M  V30 646 C 64.1351 -2.53961 1.82955 0
M  V30 647 C 64.6101 -3.57194 2.86664 0
M  V30 648 N 66.1011 -3.64702 2.85563 0
M  V30 649 C 66.8361 -4.44309 3.6246 0
M  V30 650 N 66.3321 -5.27514 4.49111 0
M  V30 651 N 68.1251 -4.39084 3.50944 0
M  V30 652 H 60.2761 -0.837882 1.95175 0
M  V30 653 H 62.5391 -0.430608 0.84456 0
M  V30 654 H 62.2451 -2.10176 2.81991 0
M  V30 655 H 62.1191 -3.39601 1.64168 0
M  V30 656 H 64.5061 -2.83338 0.824855 0
M  V30 657 H 64.5871 -1.54706 2.03715 0
M  V30 658 H 64.2311 -3.28558 3.87314 0
M  V30 659 H 64.1611 -4.5613 2.6316 0
M  V30 660 H 66.6521 -3.05289 2.22727 0
M  V30 661 H 66.9651 -5.85411 5.04493 0
M  V30 662 H 65.3101 -5.2693 4.53178 0
M  V30 663 H 68.5011 -3.7313 2.82651 0
M  V30 664 H 68.6741 -5.00883 4.11121 0
M  V30 665 N 62.0802 -0.821533 -1.34494 0
M  V30 666 C 63.3052 -0.420873 -2.03085 0
M  V30 667 C 63.7302 0.964915 -1.61465 0
M  V30 668 O 63.0882 1.62763 -0.798607 0
M  V30 669 C 63.1362 -0.529414 -3.56693 0
M  V30 670 O 62.2402 0.451302 -4.09923 0
M  V30 671 H 61.5812 -0.173489 -0.640935 0
M  V30 672 H 64.1112 -1.11157 -1.71771 0
M  V30 673 H 64.1212 -0.404671 -4.05988 0
M  V30 674 H 62.7962 -1.54014 -3.86332 0
M  V30 675 H 61.3732 0.285558 -3.71805 0
M  V30 676 N 63.5583 1.46682 -0.576371 0
M  V30 677 C 64.4683 2.34032 0.163141 0
M  V30 678 C 65.4843 1.49367 0.892501 0
M  V30 679 O 66.6603 1.82252 0.857106 0
M  V30 680 C 63.7253 3.26435 1.16795 0
M  V30 681 C 62.7863 4.26998 0.443944 0
M  V30 682 C 62.0193 5.14986 1.40088 0
M  V30 683 O 62.2423 5.05785 2.637 0
M  V30 684 O 61.1763 5.94906 0.914917 0
M  V30 685 H 65.0023 2.98607 -0.55388 0
M  V30 686 H 62.5873 1.45554 -0.336821 0
M  V30 687 H 64.4693 3.83459 1.74748 0
M  V30 688 H 63.1443 2.64465 1.86655 0
M  V30 689 H 62.0513 3.7368 -0.177271 0
M  V30 690 H 63.3843 4.91736 -0.213566 0
M  V30 691 N 65.0364 0.313813 1.54444 0
M  V30 692 C 66.4524 -0.0391619 1.59552 0
M  V30 693 C 66.6524 -1.51322 1.33056 0
M  V30 694 O 65.7084 -2.26782 1.11022 0
M  V30 695 C 67.0214 0.370302 2.98411 0
M  V30 696 C 68.5694 0.320139 3.11358 0
M  V30 697 C 69.0444 0.704617 4.52547 0
M  V30 698 N 70.5354 0.657645 4.58508 0
M  V30 699 C 71.2704 0.927453 5.6585 0
M  V30 700 N 70.7664 1.26389 6.81174 0
M  V30 701 N 72.5594 0.853662 5.5558 0
M  V30 702 H 64.7104 1.27433 1.69925 0
M  V30 703 H 66.9734 0.517511 0.794284 0
M  V30 704 H 66.6794 1.39694 3.22767 0
M  V30 705 H 66.5534 -0.269619 3.76235 0
M  V30 706 H 68.9404 -0.697275 2.86744 0
M  V30 707 H 69.0214 0.99486 2.35661 0
M  V30 708 H 68.6654 1.7199 4.77893 0
M  V30 709 H 68.5954 0.00768843 5.26599 0
M  V30 710 H 71.0864 0.409067 3.75679 0
M  V30 711 H 71.3994 1.4554 7.58972 0
M  V30 712 H 69.7444 1.30206 6.82694 0
M  V30 713 H 72.9354 0.590383 4.64362 0
M  V30 714 H 73.1084 1.0673 6.3915 0
M  V30 715 N 66.5145 -1.57545 0.0417849 0
M  V30 716 C 67.7915 -1.83642 -0.673433 0
M  V30 717 C 68.1715 -0.928298 -1.89594 0
M  V30 718 O 67.5195 0.0129955 -2.28496 0
M  V30 719 C 67.7295 -3.33155 -1.03964 0
M  V30 720 C 69.0775 -3.99941 -1.42592 0
M  V30 721 O 70.1015 -3.37725 -1.13226 0
M  V30 722 O 68.9605 -5.09619 -1.9736 0
M  V30 723 H 66.0545 -0.757638 -0.331533 0
M  V30 724 H 68.6005 -1.69554 0.070433 0
M  V30 725 H 67.3725 -3.9093 -0.170098 0
M  V30 726 H 66.9955 -3.52396 -1.84126 0
M  V30 727 N 67.9926 0.231505 -1.5589 0
M  V30 728 C 69.2386 0.95877 -1.78705 0
M  V30 729 C 69.5716 1.8438 -0.609725 0
M  V30 730 O 68.8466 1.90521 0.391426 0
M  V30 731 C 69.1296 1.8062 -3.11526 0
M  V30 732 C 68.9826 0.948328 -4.39689 0
M  V30 733 C 70.3016 2.78585 -3.40703 0
M  V30 734 H 67.4206 0.347129 -0.650131 0
M  V30 735 H 70.0626 0.228259 -1.88624 0
M  V30 736 H 68.2126 2.42902 -3.03201 0
M  V30 737 H 69.8846 0.343016 -4.60023 0
M  V30 738 H 68.1276 0.253314 -4.3306 0
M  V30 739 H 68.7986 1.57543 -5.29041 0
M  V30 740 H 71.2746 2.26439 -3.49091 0
M  V30 741 H 70.1506 3.34988 -4.34826 0
M  V30 742 H 70.4116 3.55825 -2.62375 0
M  V30 743 N 69.4707 1.49531 0.497807 0
M  V30 744 C 70.4007 1.6935 1.60757 0
M  V30 745 C 71.3817 0.542218 1.61227 0
M  V30 746 O 72.5667 0.778417 1.77917 0
M  V30 747 C 69.6967 1.76298 2.99226 0
M  V30 748 C 68.6507 2.91248 3.13622 0
M  V30 749 C 67.9767 2.83312 4.53474 0
M  V30 750 C 69.2767 4.3214 2.93346 0
M  V30 751 H 70.9707 2.62263 1.44425 0
M  V30 752 H 68.5167 1.26208 0.693367 0
M  V30 753 H 70.4697 1.88749 3.76765 0
M  V30 754 H 69.1937 0.799871 3.16654 0
M  V30 755 H 67.8527 2.78404 2.38509 0
M  V30 756 H 67.5007 1.84902 4.67782 0
M  V30 757 H 67.2007 3.60465 4.64046 0
M  V30 758 H 68.7247 2.97775 5.33069 0
M  V30 759 H 70.1387 4.45649 3.60652 0
M  V30 760 H 68.5357 5.1054 3.15387 0
M  V30 761 H 69.6057 4.46363 1.89441 0
M  V30 762 N 70.9488 -0.749086 1.3866 0
M  V30 763 C 71.8588 -1.89358 1.38494 0
M  V30 764 C 72.8748 -1.71708 0.281476 0
M  V30 765 O 74.0508 -1.94554 0.520643 0
M  V30 766 C 71.1158 -3.24782 1.21316 0
M  V30 767 C 70.1768 -3.54926 2.41508 0
M  V30 768 C 69.4098 -4.83888 2.2514 0
M  V30 769 O 69.6328 -5.56592 1.24746 0
M  V30 770 O 68.5668 -5.13612 3.13826 0
M  V30 771 H 72.3928 -1.92452 2.34938 0
M  V30 772 H 69.9778 -0.894981 1.19626 0
M  V30 773 H 71.8598 -4.05739 1.13814 0
M  V30 774 H 70.5348 -3.2249 0.279592 0
M  V30 775 H 69.4418 -2.74112 2.54585 0
M  V30 776 H 70.7748 -3.61983 3.3351 0
M  V30 777 N 72.4269 -1.23603 -0.977757 0
M  V30 778 C 73.6729 -1.07129 -1.72195 0
M  V30 779 C 74.0059 0.390501 -1.90233 0
M  V30 780 O 73.2809 1.28902 -1.45653 0
M  V30 781 C 73.5639 -1.80031 -3.11867 0
M  V30 782 C 73.4169 -3.33899 -3.01383 0
M  V30 783 C 74.7359 -1.56492 -4.11337 0
M  V30 784 H 71.8549 -0.390571 -0.624999 0
M  V30 785 H 74.4969 -1.52142 -1.13811 0
M  V30 786 H 72.6469 -1.41768 -3.6171 0
M  V30 787 H 74.3189 -3.81699 -2.59043 0
M  V30 788 H 72.5619 -3.62796 -2.37827 0
M  V30 789 H 73.2329 -3.801 -4.00285 0
M  V30 790 H 75.7089 -1.89757 -3.70313 0
M  V30 791 H 74.5849 -2.09973 -5.07151 0
M  V30 792 H 74.8459 -0.500874 -4.39254 0
M  V30 793 N 73.905 1.17692 -1.04816 0
M  V30 794 C 75.145 1.89545 -0.764979 0
M  V30 795 C 75.509 1.78979 0.695028 0
M  V30 796 O 76.71 2.45613 1.09215 0
M  V30 797 C 74.981 3.35659 -1.22751 0
M  V30 798 S 76.54 4.25526 -1.07112 0
M  V30 799 H 73.358 0.654432 -0.27792 0
M  V30 800 H 75.96 1.42163 -1.34201 0
M  V30 801 H 74.664 3.40882 -2.28533 0
M  V30 802 H 74.195 3.88083 -0.644594 0
M  V30 803 H 76.21 4.962 0.00697508 0
M  V30 804 N 75.3831 0.828654 1.34056 0
M  V30 805 C 76.6601 0.341809 1.9259 0
M  V30 806 C 77.0401 -1.17158 1.75605 0
M  V30 807 O 76.3881 -1.98132 1.13824 0
M  V30 808 C 76.5981 0.777453 3.4023 0
M  V30 809 C 77.9461 0.779579 4.17382 0
M  V30 810 O 78.9701 0.7204 3.48839 0
M  V30 811 O 77.8291 0.857996 5.39723 0
M  V30 812 H 74.9231 0.0946085 0.821571 0
M  V30 813 H 77.4691 0.913827 1.42994 0
M  V30 814 H 76.2411 1.8196 3.46419 0
M  V30 815 H 75.8641 0.181444 3.97186 0
M  V30 816 N 76.8612 -1.46375 0.584142 0
M  V30 817 C 78.1382 -1.956 0.0033388 0
M  V30 818 C 78.5182 -1.52679 -1.45782 0
M  V30 819 O 77.8662 -0.77816 -2.14842 0
M  V30 820 C 78.0762 -3.48551 0.176891 0
M  V30 821 C 79.4242 -4.24576 0.0454609 0
M  V30 822 O 80.4482 -3.56043 0.105801 0
M  V30 823 O 79.3072 -5.46427 -0.0890376 0
M  V30 824 H 76.4012 -0.825547 -0.0490066 0
M  V30 825 H 78.9472 -1.56652 0.65256 0
M  V30 826 H 77.7192 -3.72683 1.1926 0
M  V30 827 H 77.3422 -3.94332 -0.508695 0
M  V30 828 N 78.3393 -0.321999 -1.54275 0
M  V30 829 C 79.5693 0.282642 -2.04658 0
M  V30 830 C 79.9773 1.46453 -1.19784 0
M  V30 831 O 79.3203 1.82367 -0.220932 0
M  V30 832 C 79.3823 0.781857 -3.50895 0
M  V30 833 C 79.0463 -0.277517 -4.56157 0
M  V30 834 C 80.0433 -1.11307 -5.07845 0
M  V30 835 C 77.7283 -0.425256 -5.00497 0
M  V30 836 C 79.7223 -2.08211 -6.02434 0
M  V30 837 C 77.4093 -1.39771 -5.94901 0
M  V30 838 C 78.4073 -2.2246 -6.45756 0
M  V30 839 O 78.0953 -3.18054 -7.38307 0
M  V30 840 H 77.8273 0.0622636 -0.673126 0
M  V30 841 H 80.3813 -0.465792 -2.00049 0
M  V30 842 H 78.6113 1.58118 -3.52896 0
M  V30 843 H 80.3003 1.30467 -3.84361 0
M  V30 844 H 81.0663 -1.00991 -4.74369 0
M  V30 845 H 76.9453 0.20847 -4.60528 0
M  V30 846 H 80.4893 -2.72791 -6.42052 0
M  V30 847 H 76.3863 -1.50152 -6.27794 0
M  V30 848 H 77.1543 -3.13275 -7.56175 0
M  V30 849 N 79.8174 1.5752 -0.0501392 0
M  V30 850 C 81.0944 1.83996 0.663685 0
M  V30 851 C 81.4744 0.938339 1.89099 0
M  V30 852 O 80.8224 -0.00087759 2.285 0
M  V30 853 C 81.0324 3.33702 1.02196 0
M  V30 854 C 82.3804 4.00691 1.40469 0
M  V30 855 O 83.4044 3.38321 1.11433 0
M  V30 856 O 82.2634 5.10658 1.94654 0
M  V30 857 H 79.3574 0.759385 0.32751 0
M  V30 858 H 81.9034 1.69514 -0.0794238 0
M  V30 859 H 80.6754 3.91015 0.149364 0
M  V30 860 H 80.2984 3.53368 1.82255 0
M  V30 861 N 81.2955 -0.223234 1.56011 0
M  V30 862 C 82.7115 -0.572856 1.48965 0
M  V30 863 C 82.9115 -1.87225 0.74492 0
M  V30 864 O 81.9675 -2.50899 0.283896 0
M  V30 865 C 83.2805 -0.653646 2.9351 0
M  V30 866 C 84.8285 -0.744386 3.0402 0
M  V30 867 C 85.3035 -0.856535 4.49919 0
M  V30 868 N 86.7945 -0.9208 4.53955 0
M  V30 869 C 87.5295 -1.02726 5.64123 0
M  V30 870 N 87.0255 -1.09777 6.84047 0
M  V30 871 N 88.8185 -1.06226 5.51971 0
M  V30 872 H 80.9695 0.629462 2.02858 0
M  V30 873 H 83.2325 0.220621 0.921971 0
M  V30 874 H 82.9385 0.231518 3.50937 0
M  V30 875 H 82.8125 -1.51781 3.45315 0
M  V30 876 H 85.1995 -1.61999 2.46658 0
M  V30 877 H 85.2805 0.14541 2.55386 0
M  V30 878 H 84.9245 0.0146069 5.07898 0
M  V30 879 H 84.8545 -1.76172 4.96257 0
M  V30 880 H 87.3455 -0.876694 3.6759 0
M  V30 881 H 87.6585 -1.17872 7.63758 0
M  V30 882 H 86.0035 -1.06693 6.86762 0
M  V30 883 H 89.1945 -1.00382 4.5721 0
M  V30 884 H 89.3675 -1.14177 6.37862 0
M  V30 885 N 82.7736 -1.49793 -0.48987 0
M  V30 886 C 83.6836 -1.70036 -1.61632 0
M  V30 887 C 84.6996 -0.583102 -1.63939 0
M  V30 888 O 85.8756 -0.859169 -1.82154 0
M  V30 889 C 82.9406 -1.77277 -2.97949 0
M  V30 890 C 82.0016 -3.00918 -3.06181 0
M  V30 891 C 81.2346 -3.07804 -4.35996 0
M  V30 892 O 81.4576 -2.21982 -5.25433 0
M  V30 893 O 80.3916 -4.00369 -4.49431 0
M  V30 894 H 84.2176 -2.65486 -1.47482 0
M  V30 895 H 81.8026 -1.33666 -0.667362 0
M  V30 896 H 83.6846 -1.84329 -3.78947 0
M  V30 897 H 82.3596 -0.850076 -3.12339 0
M  V30 898 H 81.2666 -2.99377 -2.2433 0
M  V30 899 H 82.5996 -3.92704 -2.96723 0
M  V30 900 N 84.2517 0.741722 -1.39055 0
M  V30 901 C 85.6677 1.04638 -1.20512 0
M  V30 902 C 85.8677 2.01405 -0.0620218 0
M  V30 903 O 84.9237 2.45547 0.588457 0
M  V30 904 C 86.2367 1.6151 -2.53643 0
M  V30 905 C 87.7847 1.73623 -2.6043 0
M  V30 906 C 88.2597 2.33906 -3.93767 0
M  V30 907 N 89.7507 2.41323 -3.9537 0
M  V30 908 C 90.4857 2.88888 -4.95309 0
M  V30 909 N 89.9817 3.36401 -6.05645 0
M  V30 910 N 91.7747 2.88037 -4.82692 0
M  V30 911 H 83.9257 0.0998155 -2.12165 0
M  V30 912 H 86.1887 0.106907 -0.941953 0
M  V30 913 H 85.8947 0.978739 -3.37807 0
M  V30 914 H 85.7687 2.60411 -2.72885 0
M  V30 915 H 88.1557 2.36384 -1.76655 0
M  V30 916 H 88.2367 0.733945 -2.45045 0
M  V30 917 H 87.8807 1.71776 -4.7797 0
M  V30 918 H 87.8107 3.34799 -4.06469 0
M  V30 919 H 90.3017 2.07734 -3.15682 0
M  V30 920 H 90.6147 3.71186 -6.77821 0
M  V30 921 H 88.9597 3.34427 -6.09248 0
M  V30 922 H 92.1507 2.50237 -3.95599 0
M  V30 923 H 92.3237 3.24792 -5.60726 0
M  V30 924 N 85.7298 1.2412 0.971189 0
M  V30 925 C 86.6778 1.02812 2.08644 0
M  V30 926 C 87.6718 -0.0358403 1.69362 0
M  V30 927 O 88.8778 0.118429 1.7961 0
M  V30 928 H 85.2528 0.315428 0.682649 0
M  V30 929 H 87.2238 1.97397 2.23779 0
M  V30 930 C 85.9728 0.645874 3.41649 0
M  V30 931 H 85.2958 1.45632 3.72332 0
M  V30 932 H 86.7358 0.536366 4.20594 0
M  V30 933 C 85.1948 -0.646713 3.30635 0
M  V30 934 O 85.7248 -1.69338 3.64263 0
M  V30 935 N 83.9308 -0.626115 2.83775 0
M  V30 936 H 83.4778 0.225988 2.56607 0
M  V30 937 H 83.4358 -1.49117 2.76788 0
M  V30 938 N 87.2079 -1.17134 1.05439 0
M  V30 939 C 88.1179 -2.24878 0.668365 0
M  V30 940 C 89.1339 -1.71186 -0.311687 0
M  V30 941 O 90.3099 -2.00738 -0.163161 0
M  V30 942 C 87.3749 -3.46662 0.051648 0
M  V30 943 C 86.4359 -4.15429 1.08246 0
M  V30 944 C 85.6689 -5.31399 0.495082 0
M  V30 945 O 85.8919 -5.66153 -0.694743 0
M  V30 946 O 84.8259 -5.89187 1.23056 0
M  V30 947 H 88.6519 -2.60189 1.56637 0
M  V30 948 H 86.2369 -1.24482 0.826104 0
M  V30 949 H 88.1189 -4.20394 -0.290966 0
M  V30 950 H 86.7939 -3.13142 -0.819971 0
M  V30 951 H 85.7009 -3.43704 1.47711 0
M  V30 952 H 87.0339 -4.52982 1.92532 0
M  V30 953 N 88.686 -0.835752 -1.33615 0
M  V30 954 C 89.916 -0.442701 -2.01801 0
M  V30 955 C 90.324 0.959807 -1.63047 0
M  V30 956 O 89.667 1.63468 -0.838088 0
M  V30 957 C 89.729 -0.480125 -3.56279 0
M  V30 958 C 89.393 -1.8382 -4.18401 0
M  V30 959 C 90.39 -2.80097 -4.37998 0
M  V30 960 C 88.075 -2.13019 -4.54894 0
M  V30 961 C 90.069 -4.03736 -4.9323 0
M  V30 962 C 87.756 -3.36916 -5.09834 0
M  V30 963 C 88.754 -4.32091 -5.28948 0
M  V30 964 O 88.442 -5.53797 -5.82721 0
M  V30 965 H 88.174 -0.17441 -0.653114 0
M  V30 966 H 90.728 -1.129 -1.71589 0
M  V30 967 H 88.958 0.262931 -3.85805 0
M  V30 968 H 90.647 -0.105335 -4.05763 0
M  V30 969 H 91.413 -2.58838 -4.10156 0
M  V30 970 H 87.292 -1.39733 -4.39313 0
M  V30 971 H 90.836 -4.78034 -5.08064 0
M  V30 972 H 86.733 -3.58033 -5.37106 0
M  V30 973 H 87.501 -5.55494 -6.0114 0
M  V30 974 N 90.1641 1.46063 -0.591896 0
M  V30 975 C 91.4111 2.02338 -0.0809991 0
M  V30 976 C 91.7391 1.46228 1.28249 0
M  V30 977 O 90.9941 0.620818 1.85592 0
M  V30 978 C 91.2931 3.57391 0.0249813 0
M  V30 979 C 90.9591 4.32583 -1.27211 0
M  V30 980 C 89.6211 4.52844 -1.62745 0
M  V30 981 C 91.9731 4.75687 -2.13005 0
M  V30 982 C 89.3011 5.13462 -2.83855 0
M  V30 983 C 91.6531 5.37644 -3.3335 0
M  V30 984 C 90.3171 5.5613 -3.69155 0
M  V30 985 H 89.5871 0.740407 -0.0296397 0
M  V30 986 H 92.2341 1.75321 -0.770374 0
M  V30 987 H 90.5391 3.83597 0.797537 0
M  V30 988 H 92.2361 3.98621 0.436184 0
M  V30 989 H 88.8261 4.17116 -0.985499 0
M  V30 990 H 93.0101 4.59782 -1.86855 0
M  V30 991 H 88.2661 5.25965 -3.11722 0
M  V30 992 H 92.4401 5.7 -4.00092 0
M  V30 993 H 90.0671 6.0287 -4.63089 0
M  V30 994 N 91.6422 0.330177 1.54103 0
M  V30 995 C 92.8892 -0.270405 2.00686 0
M  V30 996 C 93.2172 -1.51621 1.21825 0
M  V30 997 O 92.4722 -1.93536 0.29025 0
M  V30 998 C 92.7712 -0.643134 3.51566 0
M  V30 999 C 92.4372 0.504251 4.48072 0
M  V30 1000 C 91.0992 0.819163 4.74176 0
M  V30 1001 C 93.4512 1.27465 5.05373 0
M  V30 1002 C 90.7792 1.90708 5.5484 0
M  V30 1003 C 93.1312 2.35271 5.87223 0
M  V30 1004 C 91.7952 2.67336 6.11627 0
M  V30 1005 H 91.0652 -0.0989482 0.734364 0
M  V30 1006 H 93.7122 0.455324 1.86008 0
M  V30 1007 H 92.0172 -1.44938 3.64006 0
M  V30 1008 H 93.7142 -1.11949 3.85056 0
M  V30 1009 H 90.3042 0.248733 4.27878 0
M  V30 1010 H 94.4882 1.04462 4.85182 0
M  V30 1011 H 89.7442 2.15991 5.71977 0
M  V30 1012 H 93.9182 2.95405 6.30641 0
M  V30 1013 H 91.5452 3.51763 6.73919 0
M  V30 1014 N 93.1203 -1.57491 0.0584922 0
M  V30 1015 C 94.3973 -1.84346 -0.653918 0
M  V30 1016 C 94.7773 -0.948355 -1.88599 0
M  V30 1017 O 94.1253 -0.0112403 -2.28497 0
M  V30 1018 C 94.3353 -3.34239 -1.00425 0
M  V30 1019 C 95.6833 -4.01431 -1.38342 0
M  V30 1020 O 96.7073 -3.38907 -1.09637 0
M  V30 1021 O 95.5663 -5.11683 -1.91943 0
M  V30 1022 H 92.6603 -0.761112 -0.323478 0
M  V30 1023 H 95.2063 -1.6947 0.0884125 0
M  V30 1024 H 93.9783 -3.91089 -0.128625 0
M  V30 1025 H 93.6013 -3.54329 -1.80378 0
M  V30 1026 N 94.5984 0.214957 -1.56127 0
M  V30 1027 C 96.0144 0.564948 -1.49267 0
M  V30 1028 C 96.2144 1.86827 -0.754838 0
M  V30 1029 O 95.2704 2.50745 -0.297198 0
M  V30 1030 C 96.5834 0.638071 -2.93852 0
M  V30 1031 C 98.1314 0.728253 -3.0441 0
M  V30 1032 C 98.6064 0.832663 -4.50367 0
M  V30 1033 N 100.097 0.896712 -4.54437 0
M  V30 1034 C 100.832 0.997324 -5.6466 0
M  V30 1035 N 100.328 1.06147 -6.8462 0
M  V30 1036 N 102.121 1.03297 -5.52527 0
M  V30 1037 H 94.2724 -0.640211 -2.02522 0
M  V30 1038 H 96.5354 -0.225507 -0.920788 0
M  V30 1039 H 96.2414 -0.250126 -3.50809 0
M  V30 1040 H 96.1154 1.49947 -3.46115 0
M  V30 1041 H 98.5024 1.60689 -2.47514 0
M  V30 1042 H 98.5834 -0.158952 -2.55306 0
M  V30 1043 H 98.2274 -0.0415417 -5.07883 0
M  V30 1044 H 98.1574 1.73538 -4.97184 0
M  V30 1045 H 100.648 0.857188 -3.6805 0
M  V30 1046 H 100.961 1.1382 -7.64372 0
M  V30 1047 H 99.3064 1.03049 -6.87318 0
M  V30 1048 H 102.497 0.979558 -4.57736 0
M  V30 1049 H 102.67 1.10793 -6.38458 0
M  V30 1050 N 96.0765 1.50051 0.48192 0
M  V30 1051 C 97.0265 1.64512 1.5786 0
M  V30 1052 C 98.0105 0.500073 1.52932 0
M  V30 1053 O 99.2025 0.753964 1.60139 0
M  V30 1054 C 96.3315 1.73263 2.9637 0
M  V30 1055 C 95.4175 2.93409 3.06222 0
M  V30 1056 N 95.8085 4.17236 2.85915 0
M  V30 1057 C 94.1065 2.91742 3.37346 0
M  V30 1058 C 94.8075 4.981 3.00451 0
M  V30 1059 N 93.7835 4.3184 3.30174 0
M  V30 1060 H 97.5855 2.57955 1.40842 0
M  V30 1061 H 95.0995 1.47086 0.688439 0
M  V30 1062 H 97.0965 1.81724 3.75209 0
M  V30 1063 H 95.7565 0.809711 3.14442 0
M  V30 1064 H 96.7675 4.46909 2.6171 0
M  V30 1065 H 93.4445 2.08907 3.61475 0
M  V30 1066 H 94.8345 6.06532 2.89082 0
M  V30 1067 N 97.5546 -0.734337 1.39446 0
M  V30 1068 C 98.7796 -1.52866 1.40167 0
M  V30 1069 C 99.2046 -1.881 -0.00171513 0
M  V30 1070 O 98.5626 -1.51957 -0.988879 0
M  V30 1071 C 98.6106 -2.79235 2.28167 0
M  V30 1072 O 97.7146 -3.75185 1.71201 0
M  V30 1073 H 97.0556 -0.461618 0.477289 0
M  V30 1074 H 99.5856 -0.905949 1.8345 0
M  V30 1075 H 99.5956 -3.27963 2.42702 0
M  V30 1076 H 98.2706 -2.52923 3.30156 0
M  V30 1077 H 96.8476 -3.33958 1.65912 0
M  V30 1078 N 99.0327 -1.24633 -0.964593 0
M  V30 1079 C 99.9427 -1.05859 -2.09359 0
M  V30 1080 C 100.959 0.00148855 -1.74 0
M  V30 1081 O 102.135 -0.197346 -2.00431 0
M  V30 1082 C 99.1997 -0.668879 -3.40187 0
M  V30 1083 C 98.2607 -1.80578 -3.89474 0
M  V30 1084 C 97.4937 -1.43457 -5.14058 0
M  V30 1085 O 97.7167 -0.325775 -5.69469 0
M  V30 1086 O 96.6507 -2.2613 -5.57807 0
M  V30 1087 H 100.477 -2.00516 -2.28094 0
M  V30 1088 H 98.0617 -1.03481 -1.0776 0
M  V30 1089 H 99.9437 -0.463211 -4.18846 0
M  V30 1090 H 98.6187 0.248536 -3.22744 0
M  V30 1091 H 97.5257 -2.06623 -3.11862 0
M  V30 1092 H 98.8587 -2.70208 -4.11398 0
M  V30 1093 N 100.511 1.16574 -1.06058 0
M  V30 1094 C 101.474 2.19085 -0.673392 0
M  V30 1095 C 102.474 1.5835 0.279648 0
M  V30 1096 O 103.664 1.74088 0.0623488 0
M  V30 1097 C 100.796 3.40899 0.00954234 0
M  V30 1098 H 101.989 2.54853 -1.58081 0
M  V30 1099 H 99.5418 1.30808 -0.855516 0
M  V30 1100 H 100.277 3.10684 0.929826 0
M  V30 1101 H 100.062 3.86233 -0.67573 0
M  V30 1102 H 101.552 4.1675 0.266245 0
M  V30 1103 N 101.989 0.842826 1.3317 0
M  V30 1104 C 103.236 0.440447 1.97652 0
M  V30 1105 C 103.564 -1.00123 1.6675 0
M  V30 1106 O 102.819 -1.7155 0.941761 0
M  V30 1107 C 103.118 0.612607 3.52111 0
M  V30 1108 C 102.784 2.02297 4.02972 0
M  V30 1109 C 101.446 2.40874 4.16573 0
M  V30 1110 C 103.798 2.94402 4.30089 0
M  V30 1111 C 101.126 3.70852 4.54627 0
M  V30 1112 C 103.478 4.23865 4.69597 0
M  V30 1113 C 102.142 4.62392 4.81404 0
M  V30 1114 H 101.412 0.161171 0.72326 0
M  V30 1115 H 104.059 1.07061 1.58777 0
M  V30 1116 H 102.364 -0.100849 3.9167 0
M  V30 1117 H 104.061 0.2815 4.00011 0
M  V30 1118 H 100.651 1.71338 3.92863 0
M  V30 1119 H 104.835 2.65835 4.19101 0
M  V30 1120 H 100.091 4.00501 4.61962 0
M  V30 1121 H 104.265 4.95306 4.89536 0
M  V30 1122 H 101.892 5.63154 5.10648 0
M  V30 1123 N 103.467 -1.45747 0.599634 0
M  V30 1124 C 104.715 -2.01893 0.0915472 0
M  V30 1125 C 105.036 -1.47155 -1.27946 0
M  V30 1126 O 104.306 -0.66273 -1.84349 0
M  V30 1127 H 102.886 -0.746363 0.0308524 0
M  V30 1128 H 105.548 -1.78645 0.779237 0
M  V30 1129 H 104.644 -3.1208 0.0353086 0
M  V30 1130 N 104.945 -0.338344 -1.53925 0
M  V30 1131 C 106.192 0.259758 -2.00827 0
M  V30 1132 C 106.52 1.50973 -1.22628 0
M  V30 1133 O 105.775 1.93379 -0.300509 0
M  V30 1134 C 106.074 0.62448 -3.51902 0
M  V30 1135 C 105.74 -0.528006 -4.47798 0
M  V30 1136 C 104.402 -0.844298 -4.73735 0
M  V30 1137 C 106.754 -1.30143 -5.0469 0
M  V30 1138 C 104.082 -1.93648 -5.53821 0
M  V30 1139 C 106.434 -2.38382 -5.85967 0
M  V30 1140 C 105.098 -2.70576 -6.10201 0
M  V30 1141 H 104.368 0.0950523 -0.734878 0
M  V30 1142 H 107.015 -0.465182 -1.85764 0
M  V30 1143 H 105.32 1.43006 -3.64769 0
M  V30 1144 H 107.017 1.09905 -3.85645 0
M  V30 1145 H 103.607 -0.271421 -4.2774 0
M  V30 1146 H 107.791 -1.07033 -4.84621 0
M  V30 1147 H 103.047 -2.19021 -5.70824 0
M  V30 1148 H 107.221 -2.98746 -6.29066 0
M  V30 1149 H 104.848 -3.55333 -6.72044 0
M  V30 1150 N 106.423 1.57458 -0.0668435 0
M  V30 1151 C 107.672 1.92477 0.602947 0
M  V30 1152 C 107.985 0.948419 1.71068 0
M  V30 1153 O 109.191 1.19124 2.43971 0
M  V30 1154 C 107.647 3.41903 1.12383 0
M  V30 1155 C 107.255 4.47975 0.04737 0
M  V30 1156 C 108.999 3.85931 1.76797 0
M  V30 1157 C 106.906 5.88529 0.582022 0
M  V30 1158 H 105.836 0.718387 0.22899 0
M  V30 1159 H 108.487 1.82978 -0.138276 0
M  V30 1160 H 106.869 3.46459 1.91787 0
M  V30 1161 H 108.043 4.55029 -0.726978 0
M  V30 1162 H 106.358 4.13384 -0.500243 0
M  V30 1163 H 108.955 4.88322 2.17821 0
M  V30 1164 H 109.298 3.23029 2.62599 0
M  V30 1165 H 109.831 3.83958 1.04024 0
M  V30 1166 H 106.57 6.55065 -0.238721 0
M  V30 1167 H 106.09 5.85004 1.324 0
M  V30 1168 H 107.769 6.38258 1.05999 0
M  V30 1169 N 107.901 -0.206675 1.56239 0
M  V30 1170 C 108.831 -1.25909 1.96645 0
M  V30 1171 C 109.812 -1.48097 0.836734 0
M  V30 1172 O 110.997 -1.6003 1.10019 0
M  V30 1173 C 108.127 -2.6058 2.29599 0
M  V30 1174 C 107.081 -2.53024 3.452 0
M  V30 1175 C 106.407 -3.91861 3.63798 0
M  V30 1176 C 107.707 -2.06524 4.79734 0
M  V30 1177 H 109.401 -0.923369 2.84806 0
M  V30 1178 H 106.947 -0.442735 1.37025 0
M  V30 1179 H 108.9 -3.34375 2.56459 0
M  V30 1180 H 107.624 -2.95869 1.38307 0
M  V30 1181 H 106.283 -1.81684 3.18412 0
M  V30 1182 H 105.931 -4.24483 2.69857 0
M  V30 1183 H 105.631 -3.87683 4.4156 0
M  V30 1184 H 107.155 -4.67296 3.93022 0
M  V30 1185 H 108.569 -2.70072 5.05702 0
M  V30 1186 H 106.966 -2.13374 5.60885 0
M  V30 1187 H 108.036 -1.01802 4.74093 0
M  V30 1188 N 109.379 -1.50304 -0.473955 0
M  V30 1189 C 110.309 -1.71886 -1.58042 0
M  V30 1190 C 111.29 -0.567799 -1.60344 0
M  V30 1191 O 112.475 -0.806623 -1.76656 0
M  V30 1192 C 109.605 -1.81036 -2.96384 0
M  V30 1193 C 108.559 -2.962 -3.08949 0
M  V30 1194 C 107.885 -2.9049 -4.48909 0
M  V30 1195 C 109.185 -4.36752 -2.86434 0
M  V30 1196 H 110.879 -2.64527 -1.40234 0
M  V30 1197 H 108.425 -1.27295 -0.673201 0
M  V30 1198 H 110.378 -1.94719 -3.73714 0
M  V30 1199 H 109.102 -0.850147 -3.15341 0
M  V30 1200 H 107.761 -2.82164 -2.3405 0
M  V30 1201 H 107.409 -1.92321 -4.64781 0
M  V30 1202 H 107.109 -3.67802 -4.58253 0
M  V30 1203 H 108.633 -3.06218 -5.28264 0
M  V30 1204 H 110.047 -4.5133 -3.53517 0
M  V30 1205 H 108.444 -5.15493 -3.07225 0
M  V30 1206 H 109.514 -4.49321 -1.82316 0
M  V30 1207 N 110.857 0.726932 -1.39834 0
M  V30 1208 C 112.087 1.51393 -1.40583 0
M  V30 1209 C 112.495 1.892 -0.000740625 0
M  V30 1210 O 111.838 1.55189 0.982951 0
M  V30 1211 C 111.9 2.82588 -2.22226 0
M  V30 1212 C 111.564 2.67169 -3.70769 0
M  V30 1213 C 112.561 2.3518 -4.63666 0
M  V30 1214 C 110.246 2.83788 -4.14451 0
M  V30 1215 C 112.24 2.20002 -5.98229 0
M  V30 1216 C 109.927 2.68229 -5.49087 0
M  V30 1217 C 110.925 2.36382 -6.4079 0
M  V30 1218 O 110.613 2.2093 -7.72946 0
M  V30 1219 H 110.345 0.474168 -0.48181 0
M  V30 1220 H 112.899 0.905247 -1.84376 0
M  V30 1221 H 111.129 3.45746 -1.73195 0
M  V30 1222 H 112.818 3.44247 -2.15055 0
M  V30 1223 H 113.584 2.21984 -4.31217 0
M  V30 1224 H 109.463 3.07566 -3.43401 0
M  V30 1225 H 113.007 1.95067 -6.69772 0
M  V30 1226 H 108.904 2.81006 -5.81125 0
M  V30 1227 H 109.672 2.35937 -7.83757 0
M  V30 1228 N 112.336 1.25143 0.95797 0
M  V30 1229 C 113.582 1.09855 1.70469 0
M  V30 1230 C 113.915 -0.360187 1.90831 0
M  V30 1231 O 113.19 -1.26568 1.47685 0
M  V30 1232 C 113.473 1.8497 3.08963 0
M  V30 1233 C 113.326 3.38652 2.96032 0
M  V30 1234 C 114.645 1.63016 4.08795 0
M  V30 1235 H 111.764 0.400465 0.618706 0
M  V30 1236 H 114.406 1.53933 1.11376 0
M  V30 1237 H 112.556 1.47505 3.59409 0
M  V30 1238 H 114.228 3.85772 2.52938 0
M  V30 1239 H 112.471 3.66534 2.32025 0
M  V30 1240 H 113.142 3.8642 3.94187 0
M  V30 1241 H 115.618 1.95625 3.67247 0
M  V30 1242 H 114.494 2.18015 5.03747 0
M  V30 1243 H 114.755 0.570692 4.38401 0
M  V30 1244 N 113.814 -1.1601 1.06675 0
M  V30 1245 C 115.23 -1.38622 0.790948 0
M  V30 1246 C 115.43 -1.92109 -0.607965 0
M  V30 1247 O 114.486 -2.12239 -1.36787 0
M  V30 1248 C 115.799 -2.36347 1.85905 0
M  V30 1249 C 117.347 -2.50023 1.88301 0
M  V30 1250 C 117.822 -3.51033 2.94176 0
M  V30 1251 N 119.313 -3.58563 2.93235 0
M  V30 1252 C 120.048 -4.36521 3.71803 0
M  V30 1253 N 119.544 -5.17869 4.602 0
M  V30 1254 N 121.337 -4.31541 3.60178 0
M  V30 1255 H 113.488 -0.796294 1.96908 0
M  V30 1256 H 115.751 -0.412597 0.853503 0
M  V30 1257 H 115.457 -2.04147 2.86386 0
M  V30 1258 H 115.331 -3.36042 1.71334 0
M  V30 1259 H 117.718 -2.81524 0.884769 0
M  V30 1260 H 117.799 -1.5035 2.06951 0
M  V30 1261 H 117.443 -3.20268 3.94196 0
M  V30 1262 H 117.373 -4.50445 2.72776 0
M  V30 1263 H 119.864 -3.00496 2.29152 0
M  V30 1264 H 120.177 -5.74578 5.16797 0
M  V30 1265 H 118.522 -5.17199 4.64253 0
M  V30 1266 H 121.713 -3.67051 2.90502 0
M  V30 1267 H 121.886 -4.9205 4.21653 0
M  V30 1268 N 115.292 -0.849877 -1.32721 0
M  V30 1269 C 116.54 -0.450032 -1.97026 0
M  V30 1270 C 116.861 0.996604 -1.67609 0
M  V30 1271 O 116.131 1.6958 -0.980786 0
M  V30 1272 H 114.711 -0.163426 -0.728904 0
M  V30 1273 H 117.373 -1.08526 -1.6189 0
M  V30 1274 H 116.469 -0.591146 -3.0645 0
M  V30 1275 N 116.77 1.45427 -0.607355 0
M  V30 1276 C 117.72 2.27612 0.133038 0
M  V30 1277 C 118.704 1.37307 0.838785 0
M  V30 1278 O 119.896 1.61299 0.728813 0
M  V30 1279 C 117.025 3.24173 1.12991 0
M  V30 1280 C 116.111 4.21965 0.425011 0
M  V30 1281 N 116.502 5.02982 -0.533217 0
M  V30 1282 C 114.8 4.40899 0.672593 0
M  V30 1283 C 115.501 5.73931 -0.947518 0
M  V30 1284 N 114.477 5.42819 -0.291321 0
M  V30 1285 H 118.279 2.87649 -0.602935 0
M  V30 1286 H 115.793 1.56576 -0.431006 0
M  V30 1287 H 117.79 3.81783 1.67473 0
M  V30 1288 H 116.45 2.65696 1.86644 0
M  V30 1289 H 117.461 5.09843 -0.90995 0
M  V30 1290 H 114.138 3.93547 1.39382 0
M  V30 1291 H 115.528 6.49037 -1.73782 0
M  V30 1292 N 118.248 0.346503 1.53744 0
M  V30 1293 C 119.496 -0.248612 2.00565 0
M  V30 1294 C 119.817 -1.5083 1.23593 0
M  V30 1295 O 119.087 -1.92858 0.343912 0
M  V30 1296 H 117.667 -0.0948564 0.740953 0
M  V30 1297 H 120.329 0.468341 1.89189 0
M  V30 1298 H 119.425 -0.488994 3.08245 0
M  V30 1299 N 119.726 -1.57421 0.075193 0
M  V30 1300 C 120.673 -2.12915 -0.890843 0
M  V30 1301 C 121.643 -1.04252 -1.29309 0
M  V30 1302 O 122.828 -1.31933 -1.37834 0
M  V30 1303 C 119.968 -2.69795 -2.15186 0
M  V30 1304 C 119.081 -3.92624 -1.80194 0
M  V30 1305 C 118.216 -4.37736 -3.00933 0
M  V30 1306 C 117.255 -5.53205 -2.61974 0
M  V30 1307 N 116.392 -5.9326 -3.75483 0
M  V30 1308 H 121.232 -2.95156 -0.410735 0
M  V30 1309 H 118.769 -1.45854 -0.191086 0
M  V30 1310 H 120.727 -3.00883 -2.89008 0
M  V30 1311 H 119.357 -1.90313 -2.60731 0
M  V30 1312 H 118.409 -3.67977 -0.964218 0
M  V30 1313 H 119.721 -4.76482 -1.47534 0
M  V30 1314 H 118.875 -4.70503 -3.8303 0
M  V30 1315 H 117.614 -3.52739 -3.36789 0
M  V30 1316 H 116.619 -5.20086 -1.783 0
M  V30 1317 H 117.844 -6.39936 -2.27284 0
M  V30 1318 H 115.79 -5.11212 -4.11094 0
M  V30 1319 H 115.707 -6.71865 -3.46602 0
M  V30 1320 H 116.975 -6.30651 -4.58148 0
M  V30 1321 N 121.204 0.198386 -1.56346 0
M  V30 1322 C 122.134 1.24865 -1.9731 0
M  V30 1323 C 123.115 1.47651 -0.844576 0
M  V30 1324 O 124.3 1.59444 -1.10866 0
M  V30 1325 C 121.43 2.59358 -2.30977 0
M  V30 1326 C 120.384 2.5119 -3.46537 0
M  V30 1327 C 119.71 3.89926 -3.65871 0
M  V30 1328 C 121.01 2.03977 -4.80823 0
M  V30 1329 H 122.704 0.908252 -2.85291 0
M  V30 1330 H 120.25 0.435462 -1.37258 0
M  V30 1331 H 122.203 3.33011 -2.58228 0
M  V30 1332 H 120.927 2.95132 -1.39874 0
M  V30 1333 H 119.586 1.79993 -3.19371 0
M  V30 1334 H 119.234 4.23046 -2.72105 0
M  V30 1335 H 118.934 3.85336 -4.4361 0
M  V30 1336 H 120.458 4.65205 -3.95495 0
M  V30 1337 H 121.872 2.67386 -5.07127 0
M  V30 1338 H 120.269 2.10397 -5.62008 0
M  V30 1339 H 121.339 0.992861 -4.74626 0
M  V30 1340 N 122.682 1.50554 0.465978 0
M  V30 1341 C 124.098 1.38093 0.800154 0
M  V30 1342 C 124.298 0.440988 1.96615 0
M  V30 1343 O 123.354 -0.114499 2.5224 0
M  V30 1344 C 124.667 2.79565 1.10742 0
M  V30 1345 C 126.215 2.88516 1.21357 0
M  V30 1346 C 126.69 4.30833 1.55393 0
M  V30 1347 N 128.181 4.33807 1.62375 0
M  V30 1348 C 128.916 5.40927 1.90225 0
M  V30 1349 N 128.412 6.58247 2.16062 0
M  V30 1350 N 130.205 5.28376 1.9177 0
M  V30 1351 H 122.356 2.10237 -0.302366 0
M  V30 1352 H 124.619 0.945203 -0.0727746 0
M  V30 1353 H 124.325 3.50208 0.323661 0
M  V30 1354 H 124.199 3.17125 2.04234 0
M  V30 1355 H 126.586 2.1809 1.98799 0
M  V30 1356 H 126.667 2.54492 0.258321 0
M  V30 1357 H 126.311 5.01799 0.784889 0
M  V30 1358 H 126.241 4.62347 2.52076 0
M  V30 1359 H 128.732 3.49212 1.44427 0
M  V30 1360 H 129.045 7.3569 2.36601 0
M  V30 1361 H 127.39 6.61413 2.13444 0
M  V30 1362 H 130.581 4.35715 1.71085 0
M  V30 1363 H 130.754 6.11944 2.13139 0
M  V30 1364 N 124.16 -0.719506 1.40217 0
M  V30 1365 C 125.407 -1.47933 1.38283 0
M  V30 1366 C 125.735 -1.94493 -0.0161536 0
M  V30 1367 O 124.99 -1.68224 -0.999956 0
M  V30 1368 C 125.289 -2.72271 2.31524 0
M  V30 1369 C 124.955 -2.44496 3.78857 0
M  V30 1370 C 123.617 -2.36631 4.18998 0
M  V30 1371 C 125.969 -2.21104 4.71977 0
M  V30 1372 C 123.297 -2.03437 5.503 0
M  V30 1373 C 125.649 -1.89423 6.03574 0
M  V30 1374 C 124.313 -1.80038 6.42762 0
M  V30 1375 H 123.583 -0.541325 0.506012 0
M  V30 1376 H 126.23 -0.824502 1.72842 0
M  V30 1377 H 124.535 -3.42572 1.90137 0
M  V30 1378 H 126.232 -3.30348 2.27313 0
M  V30 1379 H 122.822 -2.51503 3.47051 0
M  V30 1380 H 127.006 -2.26139 4.41786 0
M  V30 1381 H 122.262 -1.94705 5.79569 0
M  V30 1382 H 126.436 -1.70336 6.75247 0
M  V30 1383 H 124.063 -1.54083 7.44421 0
M  V30 1384 N 125.638 -1.25649 -0.95132 0
M  V30 1385 C 126.601 -1.06399 -2.03007 0
M  V30 1386 C 127.601 -0.0156794 -1.60792 0
M  V30 1387 O 128.791 -0.25817 -1.72276 0
M  V30 1388 C 125.923 -0.616184 -3.35285 0
M  V30 1389 H 127.116 -2.02164 -2.21517 0
M  V30 1390 H 124.669 -1.08103 -1.12887 0
M  V30 1391 H 125.404 0.343917 -3.22471 0
M  V30 1392 H 125.189 -1.37301 -3.67275 0
M  V30 1393 H 126.679 -0.503032 -4.14559 0
M  V30 1394 N 127.117 1.15442 -1.07289 0
M  V30 1395 C 128.528 1.67803 -0.818475 0
M  V30 1396 C 128.879 1.8489 0.656507 0
M  V30 1397 O 128.004 1.55176 1.50829 0
M  V30 1398 C 128.599 3.04805 -1.47917 0
M  V30 1399 C 127.158 3.54245 -1.27229 0
M  V30 1400 C 126.305 2.29986 -1.54925 0
M  V30 1401 H 129.256 0.996646 -1.23502 0
M  V30 1402 H 129.277 3.69702 -0.90005 0
M  V30 1403 H 128.789 2.92336 -2.55267 0
M  V30 1404 H 126.89 3.71956 -0.21899 0
M  V30 1405 H 127.003 4.35723 -1.99203 0
M  V30 1406 H 125.367 2.35496 -0.970242 0
M  V30 1407 H 126.15 2.20105 -2.63455 0
M  V30 1408 N 128.595 0.856903 1.32268 0
M  V30 1409 C 130.011 0.547061 1.49931 0
M  V30 1410 C 130.211 -0.921781 1.7918 0
M  V30 1411 O 129.267 -1.70469 1.8627 0
M  V30 1412 C 130.58 1.43599 2.64196 0
M  V30 1413 C 132.128 1.43665 2.78081 0
M  V30 1414 C 132.603 2.31085 3.95428 0
M  V30 1415 N 134.094 2.28893 4.02694 0
M  V30 1416 C 134.829 2.93262 4.92732 0
M  V30 1417 N 134.325 3.66751 5.87763 0
M  V30 1418 N 136.118 2.82638 4.85873 0
M  V30 1419 H 128.269 1.8075 1.11549 0
M  V30 1420 H 130.532 0.772144 0.549997 0
M  V30 1421 H 130.238 2.48058 2.49319 0
M  V30 1422 H 130.112 1.12502 3.60032 0
M  V30 1423 H 132.499 0.399701 2.92381 0
M  V30 1424 H 132.58 1.7878 1.82952 0
M  V30 1425 H 132.224 3.34849 3.81888 0
M  V30 1426 H 132.154 1.93302 4.89839 0
M  V30 1427 H 134.645 1.75466 3.34694 0
M  V30 1428 H 134.958 4.13027 6.53168 0
M  V30 1429 H 133.303 3.70859 5.87783 0
M  V30 1430 H 136.494 2.24774 4.10602 0
M  V30 1431 H 136.667 3.33084 5.55841 0
M  V30 1432 N 130.073 -1.45103 0.615059 0
M  V30 1433 C 131.006 -2.27717 -0.148408 0
M  V30 1434 C 131.984 -1.37584 -0.866572 0
M  V30 1435 O 133.168 -1.67017 -0.87393 0
M  V30 1436 C 130.295 -3.16136 -1.21557 0
M  V30 1437 C 129.341 -4.22263 -0.599712 0
M  V30 1438 S 130.174 -5.3215 0.598081 0
M  V30 1439 C 131.33 -6.24137 -0.469484 0
M  V30 1440 H 131.563 -2.92121 0.552483 0
M  V30 1441 H 129.096 -1.49054 0.402778 0
M  V30 1442 H 131.054 -3.67633 -1.82638 0
M  V30 1443 H 129.715 -2.50982 -1.88857 0
M  V30 1444 H 128.908 -4.84081 -1.4029 0
M  V30 1445 H 128.51 -3.73945 -0.063876 0
M  V30 1446 H 130.802 -6.63984 -1.34652 0
M  V30 1447 H 131.745 -7.0801 0.112725 0
M  V30 1448 H 132.153 -5.58971 -0.788168 0
M  V30 1449 N 131.551 -0.354651 -1.53558 0
M  V30 1450 C 132.791 0.238651 -2.03002 0
M  V30 1451 C 133.155 1.46878 -1.23656 0
M  V30 1452 O 134.356 2.13699 -1.63053 0
M  V30 1453 C 132.627 0.534175 -3.53386 0
M  V30 1454 S 134.186 1.10271 -4.24719 0
M  V30 1455 H 131.004 0.0702908 -0.707517 0
M  V30 1456 H 133.606 -0.494987 -1.8913 0
M  V30 1457 H 132.31 -0.368765 -4.0874 0
M  V30 1458 H 131.841 1.29718 -3.71398 0
M  V30 1459 H 133.856 2.38772 -4.34974 0
M  V30 1460 N 133.029 1.57378 -0.0835403 0
M  V30 1461 C 133.939 2.16897 0.894021 0
M  V30 1462 C 134.955 1.13528 1.31861 0
M  V30 1463 O 136.131 1.45848 1.3889 0
M  V30 1464 C 133.196 2.72831 2.13925 0
M  V30 1465 C 132.257 3.91115 1.76997 0
M  V30 1466 C 131.49 4.44371 2.95584 0
M  V30 1467 O 131.713 3.96596 4.09961 0
M  V30 1468 O 130.647 5.35549 2.74719 0
M  V30 1469 H 134.473 3.00814 0.417679 0
M  V30 1470 H 132.058 1.48741 0.140181 0
M  V30 1471 H 133.94 3.0863 2.86924 0
M  V30 1472 H 132.615 1.91967 2.60635 0
M  V30 1473 H 131.522 3.60148 1.01214 0
M  V30 1474 H 132.855 4.73307 1.3506 0
M  V30 1475 N 134.507 -0.190092 1.56449 0
M  V30 1476 C 135.437 -1.23816 1.97969 0
M  V30 1477 C 136.418 -1.47201 0.852395 0
M  V30 1478 O 137.603 -1.58854 1.1171 0
M  V30 1479 C 134.733 -2.5813 2.3235 0
M  V30 1480 C 133.687 -2.49348 3.47864 0
M  V30 1481 C 133.013 -3.8798 3.67934 0
M  V30 1482 C 134.313 -2.01424 4.81898 0
M  V30 1483 H 136.007 -0.89311 2.85769 0
M  V30 1484 H 133.553 -0.428177 1.37487 0
M  V30 1485 H 135.506 -3.31637 2.59991 0
M  V30 1486 H 134.23 -2.94386 1.41438 0
M  V30 1487 H 132.889 -1.78297 3.20321 0
M  V30 1488 H 132.537 -4.21597 2.74344 0
M  V30 1489 H 132.237 -3.82978 4.45648 0
M  V30 1490 H 133.761 -4.63101 3.97957 0
M  V30 1491 H 135.175 -2.64693 5.08538 0
M  V30 1492 H 133.572 -2.07413 5.63116 0
M  V30 1493 H 134.642 -0.967677 4.75146 0
M  V30 1494 N 135.985 -1.50799 -0.457987 0
M  V30 1495 C 137.21 -1.66496 -1.23668 0
M  V30 1496 C 137.635 -0.353288 -1.84752 0
M  V30 1497 O 136.993 0.684346 -1.67888 0
M  V30 1498 C 137.041 -2.76763 -2.3116 0
M  V30 1499 O 136.145 -2.38928 -3.36136 0
M  V30 1500 H 135.486 -0.555828 -0.363252 0
M  V30 1501 H 138.016 -1.9725 -0.543474 0
M  V30 1502 H 138.026 -3.00232 -2.76269 0
M  V30 1503 H 136.701 -3.71954 -1.86073 0
M  V30 1504 H 135.278 -2.25953 -2.96647 0
M  V30 1505 N 137.463 0.71206 -1.40597 0
M  V30 1506 C 138.71 1.47197 -1.39065 0
M  V30 1507 C 139.038 1.94499 0.00583891 0
M  V30 1508 O 138.293 1.68752 0.99102 0
M  V30 1509 C 138.592 2.71039 -2.32965 0
M  V30 1510 C 138.258 2.42484 -3.80148 0
M  V30 1511 C 136.92 2.34406 -4.20247 0
M  V30 1512 C 139.272 2.18598 -4.73143 0
M  V30 1513 C 136.6 2.00516 -5.51371 0
M  V30 1514 C 138.952 1.8622 -6.0457 0
M  V30 1515 C 137.616 1.76626 -6.43708 0
M  V30 1516 H 136.886 0.538634 -0.508876 0
M  V30 1517 H 139.533 0.815325 -1.73276 0
M  V30 1518 H 137.838 3.41558 -1.91951 0
M  V30 1519 H 139.535 3.29138 -2.29061 0
M  V30 1520 H 136.125 2.49659 -3.4838 0
M  V30 1521 H 140.309 2.23793 -4.42979 0
M  V30 1522 H 135.565 1.91628 -5.80593 0
M  V30 1523 H 139.739 1.66752 -6.76141 0
M  V30 1524 H 137.366 1.50133 -7.45228 0
M  V30 1525 N 138.941 1.26152 0.944643 0
M  V30 1526 C 140.171 1.14094 1.72239 0
M  V30 1527 C 140.579 -0.306931 1.86694 0
M  V30 1528 O 139.922 -1.22222 1.3714 0
M  V30 1529 C 139.984 1.73316 3.14963 0
M  V30 1530 C 139.648 3.2239 3.23904 0
M  V30 1531 C 140.645 4.19252 3.07447 0
M  V30 1532 C 138.33 3.62788 3.47405 0
M  V30 1533 C 140.324 5.54491 3.14353 0
M  V30 1534 C 138.011 4.98162 3.53947 0
M  V30 1535 C 139.009 5.93823 3.37436 0
M  V30 1536 O 138.697 7.26732 3.43679 0
M  V30 1537 H 138.429 0.398292 0.546205 0
M  V30 1538 H 140.983 1.67201 1.19301 0
M  V30 1539 H 139.213 1.14667 3.69308 0
M  V30 1540 H 140.902 1.56214 3.74636 0
M  V30 1541 H 141.668 3.8938 2.8915 0
M  V30 1542 H 137.547 2.88816 3.59313 0
M  V30 1543 H 141.091 6.29137 3.01384 0
M  V30 1544 H 136.988 5.27695 3.71763 0
M  V30 1545 H 137.756 7.3496 3.60245 0
M  V30 1546 N 140.419 -1.14872 1.07899 0
M  V30 1547 C 141.367 -2.21857 0.698727 0
M  V30 1548 C 142.361 -1.66845 -0.293086 0
M  V30 1549 O 143.567 -1.79321 -0.156204 0
M  V30 1550 H 139.942 -0.722691 0.207899 0
M  V30 1551 H 141.913 -2.51205 1.61054 0
M  V30 1552 C 140.662 -3.47498 0.11858 0
M  V30 1553 H 139.985 -3.90154 0.872914 0
M  V30 1554 H 141.425 -4.23858 -0.109759 0
M  V30 1555 C 139.884 -3.16947 -1.1422 0
M  V30 1556 O 140.414 -3.3426 -2.22785 0
M  V30 1557 N 138.62 -2.70946 -1.05055 0
M  V30 1558 H 138.167 -2.57058 -0.167038 0
M  V30 1559 H 138.125 -2.50879 -1.89491 0
M  V30 1560 N 141.898 -0.863906 -1.31812 0
M  V30 1561 C 142.808 -0.318461 -2.32428 0
M  V30 1562 C 143.824 0.568496 -1.64451 0
M  V30 1563 O 145 0.46666 -1.95919 0
M  V30 1564 C 142.065 0.476355 -3.43412 0
M  V30 1565 C 141.126 -0.43784 -4.27061 0
M  V30 1566 C 140.359 0.319138 -5.32745 0
M  V30 1567 O 140.582 1.54799 -5.48993 0
M  V30 1568 O 139.516 -0.319861 -6.01049 0
M  V30 1569 H 143.342 -1.15229 -2.80991 0
M  V30 1570 H 140.927 -0.627103 -1.35602 0
M  V30 1571 H 142.809 0.927156 -4.11074 0
M  V30 1572 H 141.484 1.28683 -2.97022 0
M  V30 1573 H 140.391 -0.937013 -3.62175 0
M  V30 1574 H 141.724 -1.21375 -4.77 0
M  V30 1575 N 143.376 1.44774 -0.622745 0
M  V30 1576 C 144.309 2.27792 0.136329 0
M  V30 1577 C 145.287 1.38041 0.859264 0
M  V30 1578 O 146.471 1.67478 0.86506 0
M  V30 1579 C 143.598 3.16776 1.19878 0
M  V30 1580 C 142.644 4.22575 0.57731 0
M  V30 1581 S 143.477 5.31825 -0.626294 0
M  V30 1582 C 144.633 6.24377 0.436378 0
M  V30 1583 H 144.866 2.91824 -0.567967 0
M  V30 1584 H 142.399 1.48838 -0.410677 0
M  V30 1585 H 144.357 3.68596 1.80686 0
M  V30 1586 H 143.018 2.5198 1.87523 0
M  V30 1587 H 142.211 4.84818 1.37721 0
M  V30 1588 H 141.813 3.73974 0.0440439 0
M  V30 1589 H 144.105 6.64689 1.31128 0
M  V30 1590 H 145.048 7.07941 -0.150271 0
M  V30 1591 H 145.456 5.59381 0.758513 0
M  V30 1592 N 144.854 0.36279 1.53368 0
M  V30 1593 C 146.103 -0.22888 2.00397 0
M  V30 1594 C 146.416 -1.50096 1.25421 0
M  V30 1595 O 147.622 -2.17106 1.63025 0
M  V30 1596 C 146.078 -0.458417 3.56969 0
M  V30 1597 C 145.686 0.798877 4.4082 0
M  V30 1598 C 147.43 -1.00789 4.12361 0
M  V30 1599 C 145.337 0.539078 5.88938 0
M  V30 1600 H 144.267 -0.089305 0.748693 0
M  V30 1601 H 146.918 0.481099 1.77081 0
M  V30 1602 H 145.3 -1.22959 3.76427 0
M  V30 1603 H 146.474 1.57262 4.33134 0
M  V30 1604 H 144.789 1.27137 3.96516 0
M  V30 1605 H 147.386 -1.21754 5.20653 0
M  V30 1606 H 147.729 -1.9692 3.66781 0
M  V30 1607 H 148.262 -0.296961 3.9669 0
M  V30 1608 H 145.001 1.47064 6.3879 0
M  V30 1609 H 144.521 -0.196222 5.99479 0
M  V30 1610 H 146.2 0.163542 6.46793 0
M  V30 1611 N 146.332 -1.57332 0.0918853 0
M  V30 1612 C 147.562 -1.98286 -0.580205 0
M  V30 1613 C 147.97 -0.969713 -1.6246 0
M  V30 1614 O 147.313 0.0493501 -1.83634 0
M  V30 1615 C 147.375 -3.35603 -1.28882 0
M  V30 1616 C 147.039 -4.55285 -0.395559 0
M  V30 1617 C 148.036 -5.18687 0.355002 0
M  V30 1618 C 145.721 -5.01314 -0.314556 0
M  V30 1619 C 147.715 -6.26484 1.17458 0
M  V30 1620 C 145.402 -6.08979 0.508677 0
M  V30 1621 C 146.4 -6.71429 1.2519 0
M  V30 1622 O 146.088 -7.77018 2.06151 0
M  V30 1623 H 145.82 -0.656678 -0.160466 0
M  V30 1624 H 148.374 -2.04721 0.16688 0
M  V30 1625 H 146.604 -3.25842 -2.08241 0
M  V30 1626 H 148.293 -3.61026 -1.85512 0
M  V30 1627 H 149.059 -4.84058 0.302134 0
M  V30 1628 H 144.938 -4.5247 -0.882697 0
M  V30 1629 H 148.482 -6.75159 1.75518 0
M  V30 1630 H 144.379 -6.4304 0.563037 0
M  V30 1631 H 145.147 -7.93991 1.98799 0
M  V30 1632 N 147.81 0.181792 -1.56548 0
M  V30 1633 C 149.056 0.896803 -1.82562 0
M  V30 1634 C 149.411 1.80324 -0.670908 0
M  V30 1635 O 148.704 1.8868 0.333235 0
M  V30 1636 C 148.898 1.73728 -3.12335 0
M  V30 1637 C 148.727 0.913714 -4.4032 0
M  V30 1638 C 147.497 0.592903 -5.01809 0
M  V30 1639 C 149.695 0.260164 -5.13642 0
M  V30 1640 N 147.677 -0.247901 -6.13399 0
M  V30 1641 C 149.048 -0.442256 -6.18421 0
M  V30 1642 C 151.103 0.177253 -4.97584 0
M  V30 1643 C 149.806 -1.21971 -7.08883 0
M  V30 1644 C 151.832 -0.586839 -5.88481 0
M  V30 1645 C 151.194 -1.27766 -6.92716 0
M  V30 1646 H 147.293 0.307122 -0.719166 0
M  V30 1647 H 149.877 0.164535 -1.94004 0
M  V30 1648 H 148.048 2.44105 -3.02105 0
M  V30 1649 H 149.78 2.39279 -3.26386 0
M  V30 1650 H 146.535 0.920502 -4.64568 0
M  V30 1651 H 146.959 -0.658304 -6.73792 0
M  V30 1652 H 151.601 0.696993 -4.17015 0
M  V30 1653 H 149.319 -1.75083 -7.88905 0
M  V30 1654 H 152.905 -0.652522 -5.78129 0
M  V30 1655 H 151.785 -1.85943 -7.61836 0
M  V30 1656 N 149.288 1.51039 0.449983 0
M  V30 1657 C 150.536 1.62759 1.19808 0
M  V30 1658 C 150.857 0.339981 1.92013 0
M  V30 1659 O 150.127 -0.643606 1.85026 0
M  V30 1660 H 148.707 0.599811 0.445237 0
M  V30 1661 H 151.369 1.87914 0.517138 0
M  V30 1662 H 150.465 2.44911 1.93455 0
M  V30 1663 N 150.766 -0.704594 1.40972 0
M  V30 1664 C 151.696 -1.83124 1.44872 0
M  V30 1665 C 152.677 -1.67281 0.30838 0
M  V30 1666 O 153.862 -1.87149 0.518556 0
M  V30 1667 C 150.992 -3.21181 1.32136 0
M  V30 1668 C 149.946 -3.51714 2.43888 0
M  V30 1669 C 149.272 -4.89032 2.16222 0
M  V30 1670 C 150.572 -3.516 3.86232 0
M  V30 1671 H 152.266 -1.80117 2.39161 0
M  V30 1672 H 149.812 -0.865145 1.15114 0
M  V30 1673 H 151.765 -3.99702 1.33479 0
M  V30 1674 H 150.489 -3.24791 0.343279 0
M  V30 1675 H 149.148 -2.75539 2.41813 0
M  V30 1676 H 148.796 -4.89256 1.16778 0
M  V30 1677 H 148.496 -5.10426 2.911 0
M  V30 1678 H 150.02 -5.69873 2.19265 0
M  V30 1679 H 151.434 -4.2014 3.9007 0
M  V30 1680 H 149.831 -3.84523 4.60719 0
M  V30 1681 H 150.901 -2.50757 4.15029 0
M  V30 1682 N 152.244 -1.26651 -0.937939 0
M  V30 1683 C 153.154 -1.10276 -2.07066 0
M  V30 1684 C 154.17 -0.0354197 -1.73964 0
M  V30 1685 O 155.346 -0.239816 -1.99967 0
M  V30 1686 C 152.411 -0.740887 -3.38691 0
M  V30 1687 C 151.472 -1.88799 -3.85556 0
M  V30 1688 C 150.705 -1.54329 -5.10899 0
M  V30 1689 O 150.928 -0.446494 -5.6865 0
M  V30 1690 O 149.862 -2.37911 -5.52885 0
M  V30 1691 H 153.688 -2.05309 -2.23789 0
M  V30 1692 H 151.273 -1.05743 -1.0554 0
M  V30 1693 H 153.155 -0.55195 -4.1777 0
M  V30 1694 H 151.83 0.180022 -3.23199 0
M  V30 1695 H 150.737 -2.13191 -3.07409 0
M  V30 1696 H 152.07 -2.78874 -4.05574 0
M  V30 1697 N 153.722 1.14298 -1.08507 0
M  V30 1698 C 154.97 1.84993 -0.813763 0
M  V30 1699 C 155.291 1.83405 0.662393 0
M  V30 1700 O 154.561 1.28319 1.48024 0
M  V30 1701 H 153.141 0.684966 -0.298045 0
M  V30 1702 H 155.803 1.385 -1.37126 0
M  V30 1703 H 154.899 2.89788 -1.15884 0
M  V30 1704 N 155.201 0.870884 1.31352 0
M  V30 1705 C 156.164 0.332243 2.26779 0
M  V30 1706 C 157.164 -0.517302 1.52252 0
M  V30 1707 O 158.354 -0.326477 1.71113 0
M  V30 1708 C 155.486 -0.528066 3.36785 0
M  V30 1709 H 156.679 1.17469 2.75937 0
M  V30 1710 H 154.232 0.64655 1.423 0
M  V30 1711 H 154.967 -1.39167 2.92922 0
M  V30 1712 H 154.752 0.0802582 3.92018 0
M  V30 1713 H 156.242 -0.897179 4.07849 0
M  V30 1714 N 156.679 -1.44442 0.630414 0
M  V30 1715 C 157.629 -2.27794 -0.0968103 0
M  V30 1716 C 158.613 -1.38624 -0.816834 0
M  V30 1717 O 159.805 -1.62438 -0.70306 0
M  V30 1718 C 156.934 -3.25929 -1.07819 0
M  V30 1719 C 156.02 -4.22588 -0.357826 0
M  V30 1720 N 156.411 -5.0207 0.613169 0
M  V30 1721 C 154.709 -4.41914 -0.602365 0
M  V30 1722 C 155.41 -5.72351 1.03871 0
M  V30 1723 N 154.386 -5.42287 0.377642 0
M  V30 1724 H 158.188 -2.86653 0.648621 0
M  V30 1725 H 155.702 -1.55871 0.455862 0
M  V30 1726 H 157.699 -3.84399 -1.61378 0
M  V30 1727 H 156.359 -2.68631 -1.82393 0
M  V30 1728 H 157.37 -5.08331 0.990947 0
M  V30 1729 H 154.047 -3.95714 -1.33103 0
M  V30 1730 H 155.437 -6.4619 1.84086 0
M  V30 1731 N 158.157 -0.370918 -1.53173 0
M  V30 1732 C 159.087 0.464847 -2.28826 0
M  V30 1733 C 160.068 1.07936 -1.31468 0
M  V30 1734 O 161.253 1.0956 -1.60344 0
M  V30 1735 C 158.383 1.60196 -3.08147 0
M  V30 1736 C 157.337 1.11443 -4.13237 0
M  V30 1737 C 156.663 2.3422 -4.80672 0
M  V30 1738 C 157.963 0.195384 -5.21934 0
M  V30 1739 H 159.657 -0.166329 -2.98938 0
M  V30 1740 H 157.203 -0.0814359 -1.4377 0
M  V30 1741 H 159.156 2.19332 -3.59822 0
M  V30 1742 H 157.88 2.26045 -2.35735 0
M  V30 1743 H 156.539 0.545727 -3.62515 0
M  V30 1744 H 156.187 2.98537 -4.04827 0
M  V30 1745 H 155.887 2.02269 -5.51689 0
M  V30 1746 H 157.411 2.94032 -5.35143 0
M  V30 1747 H 158.825 0.694375 -5.69079 0
M  V30 1748 H 157.222 -0.0335027 -6.00091 0
M  V30 1749 H 158.292 -0.760961 -4.78892 0
M  V30 1750 N 159.635 1.57281 -0.100228 0
M  V30 1751 C 160.545 2.17833 0.870965 0
M  V30 1752 C 161.561 1.14921 1.30649 0
M  V30 1753 O 162.737 1.47313 1.37335 0
M  V30 1754 C 159.802 2.75085 2.1102 0
M  V30 1755 C 158.863 3.9297 1.72838 0
M  V30 1756 C 158.096 4.47482 2.90854 0
M  V30 1757 O 158.319 4.00922 4.05731 0
M  V30 1758 O 157.253 5.38433 2.69023 0
M  V30 1759 H 161.079 3.0124 0.38575 0
M  V30 1760 H 158.664 1.48881 0.124397 0
M  V30 1761 H 160.546 3.11656 2.83634 0
M  V30 1762 H 159.221 1.94721 2.58584 0
M  V30 1763 H 158.128 3.61201 0.973883 0
M  V30 1764 H 159.461 4.74713 1.30033 0
M  V30 1765 N 161.113 -0.173488 1.56642 0
M  V30 1766 C 162.343 -0.904781 1.85734 0
M  V30 1767 C 162.751 -1.76431 0.68328 0
M  V30 1768 O 162.094 -1.802 -0.356865 0
M  V30 1769 C 162.156 -1.83382 3.09211 0
M  V30 1770 C 161.82 -1.15411 4.42187 0
M  V30 1771 C 162.817 -0.520609 5.17287 0
M  V30 1772 C 160.502 -1.15151 4.88923 0
M  V30 1773 C 162.496 0.106412 6.37311 0
M  V30 1774 C 160.183 -0.520664 6.08878 0
M  V30 1775 C 161.181 0.107196 6.82916 0
M  V30 1776 O 160.869 0.728102 8.00596 0
M  V30 1777 H 160.601 -0.268408 0.62043 0
M  V30 1778 H 163.155 -0.179096 2.04618 0
M  V30 1779 H 161.385 -2.59976 2.86268 0
M  V30 1780 H 163.074 -2.43476 3.24768 0
M  V30 1781 H 163.84 -0.514606 4.82262 0
M  V30 1782 H 159.719 -1.62961 4.31236 0
M  V30 1783 H 163.263 0.597081 6.9504 0
M  V30 1784 H 159.16 -0.524242 6.43368 0
M  V30 1785 H 159.928 0.627138 8.16094 0
M  V30 1786 N 162.591 -1.51276 -0.441967 0
M  V30 1787 C 163.831 -1.65372 -1.20132 0
M  V30 1788 C 164.195 -0.359871 -1.88597 0
M  V30 1789 O 165.396 -0.376551 -2.66149 0
M  V30 1790 C 163.667 -2.8207 -2.1948 0
M  V30 1791 S 165.226 -3.16467 -3.03964 0
M  V30 1792 H 162.044 -0.582669 -0.407453 0
M  V30 1793 H 164.646 -1.89166 -0.493609 0
M  V30 1794 H 163.35 -3.74523 -1.67812 0
M  V30 1795 H 162.881 -2.6045 -2.94838 0
M  V30 1796 H 164.896 -2.62543 -4.21053 0
M  V30 1797 N 164.069 0.697108 -1.41344 0
M  V30 1798 C 165.309 1.46939 -1.42085 0
M  V30 1799 C 165.673 1.9198 -0.0280397 0
M  V30 1800 O 166.874 2.6865 0.0897504 0
M  V30 1801 C 165.145 2.64985 -2.39828 0
M  V30 1802 S 166.704 3.54147 -2.59085 0
M  V30 1803 H 163.522 0.502146 -0.503359 0
M  V30 1804 H 166.124 0.813546 -1.77769 0
M  V30 1805 H 164.828 2.30098 -3.39828 0
M  V30 1806 H 164.359 3.35464 -2.05493 0
M  V30 1807 H 166.374 4.60137 -1.85711 0
M  V30 1808 N 165.547 1.27147 0.931209 0
M  V30 1809 C 166.479 1.05364 2.03546 0
M  V30 1810 C 167.492 0.0108438 1.62796 0
M  V30 1811 O 168.681 0.25202 1.76712 0
M  V30 1812 C 165.781 0.575566 3.33977 0
M  V30 1813 C 164.954 1.68985 4.03439 0
M  V30 1814 C 164.013 1.20813 5.12143 0
M  V30 1815 O 163.039 1.90712 5.363 0
M  V30 1816 N 164.241 0.0618851 5.80467 0
M  V30 1817 H 167.006 2.00454 2.22796 0
M  V30 1818 H 164.567 1.18666 1.10136 0
M  V30 1819 H 166.559 0.237264 4.04004 0
M  V30 1820 H 165.129 -0.282016 3.11325 0
M  V30 1821 H 164.349 2.19861 3.27192 0
M  V30 1822 H 165.637 2.4378 4.46597 0
M  V30 1823 H 165.035 -0.521621 5.6329 0
M  V30 1824 H 163.592 -0.217264 6.51438 0
M  V30 1825 N 167.025 -1.13721 1.09112 0
M  V30 1826 C 168.441 -1.36914 0.820174 0
M  V30 1827 C 168.641 -1.93356 -0.567079 0
M  V30 1828 O 167.697 -2.15093 -1.32255 0
M  V30 1829 C 169.01 -2.3235 1.90877 0
M  V30 1830 C 170.558 -2.45973 1.93562 0
M  V30 1831 C 171.033 -3.44714 3.01556 0
M  V30 1832 N 172.524 -3.52263 3.00775 0
M  V30 1833 C 173.259 -4.28536 3.80978 0
M  V30 1834 N 172.755 -5.07991 4.71081 0
M  V30 1835 N 174.548 -4.23804 3.69251 0
M  V30 1836 H 166.699 -0.754348 1.98553 0
M  V30 1837 H 168.962 -0.3944 0.862063 0
M  V30 1838 H 168.668 -1.98027 2.90651 0
M  V30 1839 H 168.542 -3.32332 1.78424 0
M  V30 1840 H 170.929 -2.79584 0.944286 0
M  V30 1841 H 171.01 -1.45926 2.10093 0
M  V30 1842 H 170.654 -3.11835 4.00901 0
M  V30 1843 H 170.584 -4.44558 2.82269 0
M  V30 1844 H 173.075 -2.95567 2.35475 0
M  V30 1845 H 173.388 -5.63487 5.28869 0
M  V30 1846 H 171.733 -5.07235 4.75119 0
M  V30 1847 H 174.924 -3.60806 2.98222 0
M  V30 1848 H 175.097 -4.82995 4.31995 0
M  V30 1849 N 168.503 -0.877838 -1.30888 0
M  V30 1850 C 169.919 -0.570844 -1.49042 0
M  V30 1851 C 170.119 0.893159 -1.80624 0
M  V30 1852 O 169.175 1.67485 -1.88958 0
M  V30 1853 C 170.488 -1.47784 -2.61878 0
M  V30 1854 C 172.036 -1.48071 -2.75761 0
M  V30 1855 C 172.511 -2.37347 -3.91702 0
M  V30 1856 N 174.002 -2.35271 -3.99001 0
M  V30 1857 C 174.737 -3.01063 -4.88004 0
M  V30 1858 N 174.233 -3.76055 -5.81854 0
M  V30 1859 N 176.026 -2.90332 -4.81315 0
M  V30 1860 H 168.177 -1.82502 -1.0866 0
M  V30 1861 H 170.44 -0.780797 -0.537644 0
M  V30 1862 H 170.146 -2.51993 -2.45341 0
M  V30 1863 H 170.02 -1.18215 -3.58197 0
M  V30 1864 H 172.407 -0.446166 -2.91708 0
M  V30 1865 H 172.488 -1.81668 -1.80085 0
M  V30 1866 H 172.132 -3.40883 -3.76512 0
M  V30 1867 H 172.062 -2.01071 -4.86701 0
M  V30 1868 H 174.553 -1.80768 -3.3186 0
M  V30 1869 H 174.866 -4.23366 -6.46514 0
M  V30 1870 H 173.211 -3.80163 -5.81808 0
M  V30 1871 H 176.402 -2.31278 -4.06974 0
M  V30 1872 H 176.575 -3.41885 -5.50471 0
M  V30 1873 N 169.982 1.44106 -0.638065 0
M  V30 1874 C 170.912 2.33448 0.0494287 0
M  V30 1875 C 171.893 1.48606 0.827672 0
M  V30 1876 O 173.078 1.77308 0.792173 0
M  V30 1877 C 170.208 3.31771 1.02691 0
M  V30 1878 C 169.162 4.26485 0.359823 0
M  V30 1879 C 168.488 5.14729 1.44769 0
M  V30 1880 C 169.788 5.17056 -0.738296 0
M  V30 1881 H 171.482 2.91183 -0.696636 0
M  V30 1882 H 169.028 1.40014 -0.336456 0
M  V30 1883 H 170.981 3.93161 1.51666 0
M  V30 1884 H 169.705 2.7226 1.80395 0
M  V30 1885 H 168.364 3.66437 -0.10934 0
M  V30 1886 H 168.012 4.51566 2.21578 0
M  V30 1887 H 167.712 5.78913 1.00668 0
M  V30 1888 H 169.236 5.78991 1.93911 0
M  V30 1889 H 170.65 5.72342 -0.331354 0
M  V30 1890 H 169.047 5.89879 -1.10286 0
M  V30 1891 H 170.117 4.57652 -1.60258 0
M  V30 1892 N 171.46 0.379036 1.52974 0
M  V30 1893 C 172.737 -0.263479 1.93817 0
M  V30 1894 C 173.117 -1.65244 1.31368 0
M  V30 1895 O 172.465 -2.23448 0.477856 0
M  V30 1896 C 172.675 -0.300166 3.47707 0
M  V30 1897 C 174.023 -0.534061 4.21228 0
M  V30 1898 O 175.047 -0.38081 3.54159 0
M  V30 1899 O 173.906 -0.833501 5.40106 0
M  V30 1900 H 171 -0.161149 0.811147 0
M  V30 1901 H 173.546 0.432798 1.64088 0
M  V30 1902 H 172.318 0.673138 3.85467 0
M  V30 1903 H 171.941 -1.04179 3.83709 0
M  V30 1904 N 172.938 -1.57226 0.108567 0
M  V30 1905 C 174.215 -1.86333 -0.594939 0
M  V30 1906 C 174.595 -1.00788 -1.85486 0
M  V30 1907 O 173.943 -0.0839293 -2.28346 0
M  V30 1908 C 174.153 -3.37265 -0.897405 0
M  V30 1909 C 175.501 -4.05629 -1.25501 0
M  V30 1910 O 176.525 -3.42224 -0.987998 0
M  V30 1911 O 175.384 -5.17531 -1.75567 0
M  V30 1912 H 172.478 -0.771018 -0.2991 0
M  V30 1913 H 175.024 -1.69102 0.142283 0
M  V30 1914 H 173.796 -3.913 -0.00413806 0
M  V30 1915 H 173.419 -3.59889 -1.69014 0
M  V30 1916 N 174.416 0.165178 -1.56732 0
M  V30 1917 C 175.832 0.517174 -1.50988 0
M  V30 1918 C 176.032 1.84331 -0.813894 0
M  V30 1919 O 175.088 2.49672 -0.37682 0
M  V30 1920 C 176.401 0.544261 -2.95733 0
M  V30 1921 C 177.949 0.631039 -3.06573 0
M  V30 1922 C 178.424 0.68896 -4.52788 0
M  V30 1923 N 179.915 0.751683 -4.5706 0
M  V30 1924 C 180.65 0.817177 -5.67547 0
M  V30 1925 N 180.146 0.843129 -6.8765 0
M  V30 1926 N 181.939 0.856668 -5.55534 0
M  V30 1927 H 174.09 -0.704318 -2.00382 0
M  V30 1928 H 176.353 -0.254687 -0.913148 0
M  V30 1929 H 176.059 -0.361607 -3.49836 0
M  V30 1930 H 175.933 1.3886 -3.5071 0
M  V30 1931 H 178.32 1.52733 -2.52501 0
M  V30 1932 H 178.401 -0.240095 -2.54671 0
M  V30 1933 H 178.045 -0.2031 -5.07494 0
M  V30 1934 H 177.975 1.57633 -5.02454 0
M  V30 1935 H 180.466 0.739661 -3.70591 0
M  V30 1936 H 180.779 0.894448 -7.67606 0
M  V30 1937 H 179.124 0.811304 -6.90248 0
M  V30 1938 H 182.315 0.833437 -4.60621 0
M  V30 1939 H 182.488 0.904247 -6.4166 0
M  V30 1940 N 175.894 1.51508 0.433938 0
M  V30 1941 C 176.827 1.67756 1.54704 0
M  V30 1942 C 177.805 0.525127 1.53887 0
M  V30 1943 O 178.989 0.749393 1.72963 0
M  V30 1944 C 176.116 1.69424 2.9328 0
M  V30 1945 C 175.162 2.90673 3.12108 0
M  V30 1946 S 175.995 4.51431 2.88046 0
M  V30 1947 C 177.151 4.55849 4.28897 0
M  V30 1948 H 177.384 2.61904 1.40689 0
M  V30 1949 H 174.917 1.41235 0.62386 0
M  V30 1950 H 176.875 1.7107 3.73156 0
M  V30 1951 H 175.536 0.764464 3.04655 0
M  V30 1952 H 174.729 2.88251 4.13434 0
M  V30 1953 H 174.331 2.86786 2.40062 0
M  V30 1954 H 176.623 4.31699 5.22152 0
M  V30 1955 H 177.566 5.57676 4.36351 0
M  V30 1956 H 177.974 3.85137 4.12711 0
M  V30 1957 N 177.372 -0.689602 1.41712 0
M  V30 1958 C 178.597 -1.48329 1.44959 0
M  V30 1959 C 179.022 -1.8801 0.0581283 0
M  V30 1960 O 178.38 -1.55026 -0.940035 0
M  V30 1961 C 178.428 -2.71835 2.36935 0
M  V30 1962 O 177.532 -3.69549 1.8305 0
M  V30 1963 H 176.873 -0.446199 0.491734 0
M  V30 1964 H 179.403 -0.847127 1.86239 0
M  V30 1965 H 179.413 -3.20076 2.53013 0
M  V30 1966 H 178.088 -2.42291 3.38035 0
M  V30 1967 H 176.665 -3.2851 1.76452 0
M  V30 1968 N 178.85 -1.27639 -0.924453 0
M  V30 1969 C 180.127 -1.04887 -1.651 0
M  V30 1970 C 180.507 0.415327 -2.06974 0
M  V30 1971 O 179.855 1.39923 -1.80648 0
M  V30 1972 C 180.065 -2.01348 -2.85061 0
M  V30 1973 C 181.413 -2.30899 -3.56329 0
M  V30 1974 O 182.437 -1.99348 -2.95193 0
M  V30 1975 O 181.296 -2.84699 -4.66485 0
M  V30 1976 H 178.39 -0.400083 -0.723784 0
M  V30 1977 H 180.936 -1.38916 -0.974703 0
M  V30 1978 H 179.708 -3.0008 -2.51133 0
M  V30 1979 H 179.331 -1.679 -3.6041 0
M  V30 1980 N 180.328 1.1314 -1.09713 0
M  V30 1981 C 181.556 1.88321 -0.856898 0
M  V30 1982 C 181.971 1.79276 0.592073 0
M  V30 1983 O 181.328 1.16142 1.40774 0
M  V30 1984 C 181.379 3.37812 -1.28706 0
M  V30 1985 O 181.1 3.46627 -2.67921 0
M  V30 1986 C 182.601 4.29952 -1.07964 0
M  V30 1987 H 179.821 0.596094 -0.308079 0
M  V30 1988 H 182.365 1.43205 -1.45988 0
M  V30 1989 H 180.52 3.805 -0.727912 0
M  V30 1990 H 180.934 4.39579 -2.8613 0
M  V30 1991 H 182.408 5.33159 -1.42986 0
M  V30 1992 H 182.885 4.39196 -0.0176577 0
M  V30 1993 H 183.491 3.93036 -1.62489 0
M  V30 1994 N 181.806 0.884767 1.30421 0
M  V30 1995 C 183.036 0.517293 2.00019 0
M  V30 1996 C 183.444 -0.898632 1.66497 0
M  V30 1997 O 182.787 -1.60245 0.898181 0
M  V30 1998 C 182.849 0.612025 3.54252 0
M  V30 1999 C 182.513 1.99222 4.1129 0
M  V30 2000 C 183.51 2.9616 4.273 0
M  V30 2001 C 181.195 2.29755 4.46674 0
M  V30 2002 C 183.189 4.21764 4.77906 0
M  V30 2003 C 180.876 3.55606 4.96979 0
M  V30 2004 C 181.874 4.51425 5.12547 0
M  V30 2005 O 181.562 5.75043 5.61766 0
M  V30 2006 H 181.294 0.198529 0.64619 0
M  V30 2007 H 183.848 1.1919 1.67281 0
M  V30 2008 H 182.078 -0.119561 3.86515 0
M  V30 2009 H 183.767 0.255859 4.05093 0
M  V30 2010 H 184.533 2.73882 4.00267 0
M  V30 2011 H 180.412 1.55942 4.33824 0
M  V30 2012 H 183.956 4.96561 4.89972 0
M  V30 2013 H 179.853 3.7772 5.23448 0
M  V30 2014 H 180.621 5.77422 5.80109 0
M  V30 2015 N 183.284 -1.43765 0.645699 0
M  V30 2016 C 184.512 -2.06253 0.163556 0
M  V30 2017 C 184.927 -1.48352 -1.16778 0
M  V30 2018 O 184.284 -0.611932 -1.71935 0
M  V30 2019 C 184.335 -3.61453 0.0583186 0
M  V30 2020 O 184.056 -4.172 1.33702 0
M  V30 2021 C 185.557 -4.41002 -0.450795 0
M  V30 2022 H 182.777 -0.665413 0.0864077 0
M  V30 2023 H 185.321 -1.84396 0.884222 0
M  V30 2024 H 183.476 -3.82522 -0.612865 0
M  V30 2025 H 183.89 -5.10791 1.19131 0
M  V30 2026 H 185.364 -5.49966 -0.473403 0
M  V30 2027 H 185.841 -4.13488 -1.48068 0
M  V30 2028 H 186.447 -4.24886 0.187637 0
M  V30 2029 N 184.763 -0.387143 -1.52771 0
M  V30 2030 C 186.01 0.195735 -2.01552 0
M  V30 2031 C 186.338 1.46995 -1.27369 0
M  V30 2032 O 185.593 1.92325 -0.361879 0
M  V30 2033 C 185.892 0.512209 -3.53711 0
M  V30 2034 C 185.558 -0.670202 -4.45891 0
M  V30 2035 C 184.22 -0.994586 -4.70809 0
M  V30 2036 C 186.572 -1.46134 -5.00294 0
M  V30 2037 C 183.9 -2.11169 -5.4738 0
M  V30 2038 C 186.252 -2.56903 -5.78086 0
M  V30 2039 C 184.916 -2.89852 -6.01284 0
M  V30 2040 H 184.186 0.0716246 -0.73753 0
M  V30 2041 H 186.833 -0.524046 -1.8419 0
M  V30 2042 H 185.138 1.31329 -3.69134 0
M  V30 2043 H 186.835 0.975804 -3.88946 0
M  V30 2044 H 183.425 -0.407366 -4.2666 0
M  V30 2045 H 187.609 -1.22397 -4.80971 0
M  V30 2046 H 182.865 -2.3707 -5.63567 0
M  V30 2047 H 187.039 -3.18608 -6.19243 0
M  V30 2048 H 184.666 -3.76533 -6.60399 0
M  V30 2049 N 186.241 1.57166 -0.116904 0
M  V30 2050 C 187.471 1.99184 0.548586 0
M  V30 2051 C 187.879 0.995436 1.60897 0
M  V30 2052 O 187.222 -0.0201293 1.83689 0
M  V30 2053 C 187.284 3.37611 1.23526 0
M  V30 2054 C 186.948 4.55857 0.323077 0
M  V30 2055 C 187.945 5.18056 -0.437476 0
M  V30 2056 C 185.63 5.01751 0.234761 0
M  V30 2057 C 187.624 6.24536 -1.2741 0
M  V30 2058 C 185.311 6.08093 -0.605496 0
M  V30 2059 C 186.309 6.69352 -1.35856 0
M  V30 2060 O 185.997 7.7364 -2.18487 0
M  V30 2061 H 185.729 0.659148 0.149999 0
M  V30 2062 H 188.283 2.0443 -0.199428 0
M  V30 2063 H 186.513 3.29113 2.0303 0
M  V30 2064 H 188.202 3.63932 1.79745 0
M  V30 2065 H 188.968 4.83516 -0.379105 0
M  V30 2066 H 184.847 4.53817 0.810601 0
M  V30 2067 H 188.391 6.72281 -1.86237 0
M  V30 2068 H 184.288 6.42063 -0.665268 0
M  V30 2069 H 185.056 7.90727 -2.11406 0
M  V30 2070 N 187.719 -0.156864 1.56817 0
M  V30 2071 C 188.944 -0.890331 1.87318 0
M  V30 2072 C 189.369 -1.74394 0.704855 0
M  V30 2073 O 188.727 -1.77972 -0.345786 0
M  V30 2074 C 188.775 -1.73102 3.16336 0
M  V30 2075 O 187.879 -2.83422 2.99576 0
M  V30 2076 H 187.22 -0.24857 0.615718 0
M  V30 2077 H 189.75 -0.150649 2.04045 0
M  V30 2078 H 189.76 -2.12803 3.48107 0
M  V30 2079 H 188.435 -1.10412 4.00976 0
M  V30 2080 H 187.012 -2.47199 2.7919 0
M  V30 2081 N 189.197 -1.51736 -0.425897 0
M  V30 2082 C 190.16 -1.73271 -1.50032 0
M  V30 2083 C 191.16 -0.602639 -1.4908 0
M  V30 2084 O 192.35 -0.87033 -1.509 0
M  V30 2085 C 189.482 -1.79969 -2.89523 0
M  V30 2086 H 190.675 -2.69172 -1.32237 0
M  V30 2087 H 188.228 -1.41899 -0.65532 0
M  V30 2088 H 188.963 -0.859241 -3.1271 0
M  V30 2089 H 188.748 -2.62109 -2.91619 0
M  V30 2090 H 190.238 -1.9843 -3.67444 0
M  V30 2091 N 190.675 0.682077 -1.42076 0
M  V30 2092 C 191.952 1.43755 -1.32642 0
M  V30 2093 C 192.332 2.11063 0.0396611 0
M  V30 2094 O 191.68 2.02701 1.05474 0
M  V30 2095 C 191.89 2.44596 -2.48946 0
M  V30 2096 C 193.238 3.09454 -2.9073 0
M  V30 2097 O 194.262 2.54922 -2.48783 0
M  V30 2098 O 193.121 4.08253 -3.63307 0
M  V30 2099 H 190.215 0.640857 -0.522715 0
M  V30 2100 H 192.761 0.711415 -1.54068 0
M  V30 2101 H 191.533 1.93609 -3.40046 0
M  V30 2102 H 191.156 3.24701 -2.29467 0
M  V30 2103 N 192.153 1.28127 0.917671 0
M  V30 2104 C 193.063 1.13556 2.05286 0
M  V30 2105 C 194.079 0.0630914 1.73886 0
M  V30 2106 O 195.255 0.271598 1.9956 0
M  V30 2107 C 192.32 0.794676 3.3747 0
M  V30 2108 C 191.381 1.94909 3.82504 0
M  V30 2109 C 190.614 1.62437 5.0838 0
M  V30 2110 O 190.837 0.536905 5.67867 0
M  V30 2111 O 189.771 2.46677 5.4903 0
M  V30 2112 H 193.597 2.08844 2.20495 0
M  V30 2113 H 191.182 1.07409 1.03845 0
M  V30 2114 H 193.064 0.618344 4.16839 0
M  V30 2115 H 191.739 -0.128581 3.23445 0
M  V30 2116 H 190.646 2.18055 3.03978 0
M  V30 2117 H 191.979 2.85291 4.01086 0
M  V30 2118 N 193.631 -1.12557 1.10312 0
M  V30 2119 C 195.042 -1.65574 0.862678 0
M  V30 2120 C 195.393 -1.86566 -0.607256 0
M  V30 2121 O 194.518 -1.59121 -1.46662 0
M  V30 2122 C 195.113 -3.00776 1.55947 0
M  V30 2123 C 193.672 -3.50748 1.36576 0
M  V30 2124 C 192.819 -2.25797 1.60968 0
M  V30 2125 H 195.77 -0.963552 1.26101 0
M  V30 2126 H 195.791 -3.67185 0.997753 0
M  V30 2127 H 195.303 -2.85465 2.62928 0
M  V30 2128 H 193.404 -3.71245 0.317531 0
M  V30 2129 H 193.517 -4.30289 2.10686 0
M  V30 2130 H 191.881 -2.32841 1.03234 0
M  V30 2131 H 192.664 -2.13043 2.69198 0
M  V30 2132 N 195.109 -0.891671 -1.2995 0
M  V30 2133 C 196.357 -0.512486 -1.95494 0
M  V30 2134 C 196.678 0.942776 -1.70695 0
M  V30 2135 O 195.948 1.66374 -1.03424 0
M  V30 2136 H 194.528 -0.186533 -0.723336 0
M  V30 2137 H 197.19 -1.13621 -1.58355 0
M  V30 2138 H 196.286 -0.688342 -3.04415 0
M  V30 2139 N 196.587 1.43421 -0.653314 0
M  V30 2140 C 197.833 2.02111 -0.166992 0
M  V30 2141 C 198.166 1.51423 1.21592 0
M  V30 2142 O 197.441 0.707389 1.8118 0
M  V30 2143 C 197.724 3.5966 -0.177948 0
M  V30 2144 C 197.577 4.20579 -1.59478 0
M  V30 2145 C 198.896 4.37413 0.4856 0
M  V30 2146 H 196.015 0.734374 -0.0621557 0
M  V30 2147 H 198.657 1.70717 -0.834016 0
M  V30 2148 H 196.807 3.86537 0.390032 0
M  V30 2149 H 198.479 4.04732 -2.21336 0
M  V30 2150 H 196.722 3.77226 -2.14204 0
M  V30 2151 H 197.393 5.29665 -1.5543 0
M  V30 2152 H 199.869 4.161 0.00234528 0
M  V30 2153 H 198.745 5.47075 0.447207 0
M  V30 2154 H 199.006 4.13672 1.55974 0
M  V30 2155 N 198.065 0.39524 1.52563 0
M  V30 2156 C 198.995 -0.428384 2.29537 0
M  V30 2157 C 199.976 -1.05831 1.33169 0
M  V30 2158 O 201.161 -1.06995 1.62067 0
M  V30 2159 C 198.291 -1.55274 3.10656 0
M  V30 2160 C 197.245 -1.04855 4.14957 0
M  V30 2161 C 196.571 -2.26543 4.84337 0
M  V30 2162 C 197.871 -0.112324 5.22179 0
M  V30 2163 H 199.565 0.213867 2.98635 0
M  V30 2164 H 197.111 0.104298 1.43622 0
M  V30 2165 H 199.064 -2.1358 3.63265 0
M  V30 2166 H 197.788 -2.22266 2.39302 0
M  V30 2167 H 196.447 -0.487985 3.63338 0
M  V30 2168 H 196.095 -2.92059 4.09525 0
M  V30 2169 H 195.795 -1.93466 5.54837 0
M  V30 2170 H 197.319 -2.85481 5.39753 0
M  V30 2171 H 198.733 -0.603752 5.70112 0
M  V30 2172 H 197.13 0.128968 5.99961 0
M  V30 2173 H 198.2 0.837052 4.77621 0
M  V30 2174 N 199.544 -1.57102 0.125237 0
M  V30 2175 C 200.792 -1.95021 -0.530198 0
M  V30 2176 C 201.113 -1.00982 -1.66816 0
M  V30 2177 O 200.383 -0.0672693 -1.95784 0
M  V30 2178 H 198.963 -0.720046 -0.198853 0
M  V30 2179 H 201.625 -1.93916 0.19564 0
M  V30 2180 H 200.721 -2.98211 -0.920681 0
M  V30 2181 N 201.022 0.148545 -1.56898 0
M  V30 2182 C 202.438 0.501131 -1.51528 0
M  V30 2183 C 202.638 1.83458 -0.833399 0
M  V30 2184 O 201.694 2.49259 -0.40328 0
M  V30 2185 C 203.007 0.512864 -2.96294 0
M  V30 2186 C 204.555 0.598487 -3.07225 0
M  V30 2187 C 205.03 0.640897 -4.53494 0
M  V30 2188 N 206.521 0.703163 -4.57832 0
M  V30 2189 C 207.256 0.756935 -5.68382 0
M  V30 2190 N 206.752 0.770147 -6.88506 0
M  V30 2191 N 208.545 0.797698 -5.56411 0
M  V30 2192 H 200.696 -0.725532 -1.99624 0
M  V30 2193 H 202.959 -0.264358 -0.910395 0
M  V30 2194 H 202.665 -0.398691 -3.49433 0
M  V30 2195 H 202.539 1.35133 -3.52163 0
M  V30 2196 H 204.926 1.50046 -2.54106 0
M  V30 2197 H 205.007 -0.267093 -2.54402 0
M  V30 2198 H 204.651 -0.256915 -5.0725 0
M  V30 2199 H 204.581 1.52295 -5.04097 0
M  V30 2200 H 207.072 0.700314 -3.71354 0
M  V30 2201 H 207.385 0.812983 -7.68512 0
M  V30 2202 H 205.73 0.738049 -6.9107 0
M  V30 2203 H 208.921 0.784535 -4.61479 0
M  V30 2204 H 209.094 0.83614 -6.42583 0
M  V30 2205 N 202.5 1.5196 0.417844 0
M  V30 2206 C 203.777 1.56146 1.17803 0
M  V30 2207 C 204.157 0.337275 2.08388 0
M  V30 2208 O 203.505 -0.676447 2.18258 0
M  V30 2209 C 203.715 2.88566 1.96293 0
M  V30 2210 C 205.063 3.41244 2.52662 0
M  V30 2211 O 206.087 2.90247 2.06483 0
M  V30 2212 O 204.946 4.30273 3.36938 0
M  V30 2213 H 202.04 0.628598 0.537395 0
M  V30 2214 H 204.586 1.64283 0.425331 0
M  V30 2215 H 203.358 3.69116 1.2988 0
M  V30 2216 H 202.981 2.83681 2.78587 0
M  V30 2217 N 203.978 -0.674533 1.42435 0
M  V30 2218 C 204.888 -1.81751 1.48337 0
M  V30 2219 C 205.904 -1.69975 0.372099 0
M  V30 2220 O 207.08 -1.91521 0.62304 0
M  V30 2221 C 204.145 -3.17895 1.38361 0
M  V30 2222 C 203.206 -3.41625 2.59982 0
M  V30 2223 C 202.439 -4.71274 2.50473 0
M  V30 2224 O 202.662 -5.49197 1.54075 0
M  V30 2225 O 201.596 -4.96254 3.4061 0
M  V30 2226 H 205.422 -1.79728 2.44809 0
M  V30 2227 H 203.007 -0.830312 1.24202 0
M  V30 2228 H 204.889 -3.99136 1.35161 0
M  V30 2229 H 203.564 -3.20555 0.450144 0
M  V30 2230 H 202.471 -2.60231 2.68757 0
M  V30 2231 H 203.804 -3.43796 3.52229 0
M  V30 2232 N 205.456 -1.28612 -0.910864 0
M  V30 2233 C 206.419 -1.12803 -1.9952 0
M  V30 2234 C 207.419 -0.0668264 -1.60661 0
M  V30 2235 O 208.609 -0.312847 -1.71368 0
M  V30 2236 C 205.741 -0.72254 -3.33155 0
M  V30 2237 H 206.934 -2.09109 -2.14973 0
M  V30 2238 H 204.487 -1.11639 -1.09391 0
M  V30 2239 H 205.222 0.241152 -3.23402 0
M  V30 2240 H 205.007 -1.48916 -3.62721 0
M  V30 2241 H 206.497 -0.634666 -4.12749 0
M  V30 2242 N 206.934 1.1197 -1.10907 0
M  V30 2243 C 208.35 1.35591 -0.841852 0
M  V30 2244 C 208.55 1.94233 0.536246 0
M  V30 2245 O 207.606 2.1717 1.28816 0
M  V30 2246 C 208.919 2.29284 -1.94549 0
M  V30 2247 C 210.467 2.42862 -1.97451 0
M  V30 2248 C 210.942 3.39873 -3.07002 0
M  V30 2249 N 212.433 3.47433 -3.06341 0
M  V30 2250 C 213.168 4.22421 -3.87748 0
M  V30 2251 N 212.664 5.00432 -4.79103 0
M  V30 2252 N 214.457 4.17876 -3.75946 0
M  V30 2253 H 206.608 0.722664 -1.99728 0
M  V30 2254 H 208.871 0.380635 -0.868229 0
M  V30 2255 H 208.577 1.93378 -2.93765 0
M  V30 2256 H 208.451 3.29452 -1.83688 0
M  V30 2257 H 210.838 2.78046 -0.988645 0
M  V30 2258 H 210.919 1.42566 -2.12388 0
M  V30 2259 H 210.563 3.05417 -4.05811 0
M  V30 2260 H 210.493 4.40011 -2.89306 0
M  V30 2261 H 212.984 2.91784 -2.40147 0
M  V30 2262 H 213.297 5.55002 -5.37766 0
M  V30 2263 H 211.642 4.99612 -4.83128 0
M  V30 2264 H 214.833 3.56016 -3.03924 0
M  V30 2265 H 215.006 4.76061 -4.39624 0
M  V30 2266 N 208.412 0.89855 1.29475 0
M  V30 2267 C 209.823 0.572537 1.77705 0
M  V30 2268 C 210.174 -0.911778 1.73727 0
M  V30 2269 O 209.299 -1.71288 1.32247 0
M  V30 2270 C 209.894 1.03252 3.22683 0
M  V30 2271 C 208.453 0.757687 3.68695 0
M  V30 2272 C 207.6 1.20787 2.49612 0
M  V30 2273 H 210.551 1.08139 1.16153 0
M  V30 2274 H 210.572 0.367307 3.78723 0
M  V30 2275 H 210.084 2.11285 3.25546 0
M  V30 2276 H 208.185 -0.310079 3.71308 0
M  V30 2277 H 208.298 1.35476 4.59547 0
M  V30 2278 H 206.662 0.626888 2.46865 0
M  V30 2279 H 207.445 2.29622 2.55203 0
M  V30 2280 N 209.89 -1.43072 0.660911 0
M  V30 2281 C 211.138 -2.01323 0.177094 0
M  V30 2282 C 211.459 -1.5245 -1.2159 0
M  V30 2283 O 210.729 -0.740322 -1.81373 0
M  V30 2284 H 209.309 -0.744382 0.0624804 0
M  V30 2285 H 211.971 -1.75179 0.854305 0
M  V30 2286 H 211.067 -3.11649 0.167641 0
M  V30 2287 N 211.368 -0.403325 -1.52352 0
M  V30 2288 C 212.616 0.174003 -2.0135 0
M  V30 2289 C 212.937 1.46139 -1.29106 0
M  V30 2290 O 212.207 1.91448 -0.415253 0
M  V30 2291 H 210.787 0.0672911 -0.743963 0
M  V30 2292 H 213.449 -0.538235 -1.87321 0
M  V30 2293 H 212.545 0.374254 -3.09848 0
M  V30 2294 N 212.846 1.57033 -0.133567 0
M  V30 2295 C 213.809 2.14897 0.796995 0
M  V30 2296 C 214.809 1.0874 1.18458 0
M  V30 2297 O 215.999 1.34446 1.1077 0
M  V30 2298 C 213.131 2.70112 2.07973 0
M  V30 2299 H 214.324 2.98457 0.293873 0
M  V30 2300 H 211.877 1.55871 0.115787 0
M  V30 2301 H 212.612 1.9018 2.62682 0
M  V30 2302 H 212.397 3.47764 1.81115 0
M  V30 2303 H 213.887 3.14738 2.74462 0
M  V30 2304 N 214.325 -0.140222 1.56975 0
M  V30 2305 C 215.235 -1.19223 2.02047 0
M  V30 2306 C 216.251 -1.46612 0.937062 0
M  V30 2307 O 217.427 -1.58148 1.24704 0
M  V30 2308 C 214.492 -2.50414 2.39778 0
M  V30 2309 C 213.553 -2.30612 3.621 0
M  V30 2310 C 212.786 -3.55547 3.98023 0
M  V30 2311 O 213.009 -4.62004 3.34528 0
M  V30 2312 O 211.943 -3.47808 4.91237 0
M  V30 2313 H 215.769 -0.839559 2.91865 0
M  V30 2314 H 213.354 -0.349453 1.45256 0
M  V30 2315 H 215.236 -3.27747 2.64877 0
M  V30 2316 H 213.911 -2.85198 1.53114 0
M  V30 2317 H 212.818 -1.51207 3.4218 0
M  V30 2318 H 214.151 -2.00741 4.49404 0
M  V30 2319 N 215.803 -1.52179 -0.40978 0
M  V30 2320 C 216.766 -1.74853 -1.48186 0
M  V30 2321 C 217.766 -0.618417 -1.48433 0
M  V30 2322 O 218.956 -0.886286 -1.49969 0
M  V30 2323 C 216.088 -1.8303 -2.87598 0
M  V30 2324 H 217.281 -2.70559 -1.29374 0
M  V30 2325 H 214.834 -1.42586 -0.640233 0
M  V30 2326 H 215.569 -0.89236 -3.11781 0
M  V30 2327 H 215.354 -2.65187 -2.88822 0
M  V30 2328 H 216.844 -2.02316 -3.65319 0
M  V30 2329 N 217.281 0.66697 -1.42791 0
M  V30 2330 C 218.244 1.76211 -1.46568 0
M  V30 2331 C 219.244 1.56896 -0.352196 0
M  V30 2332 O 220.434 1.63044 -0.613364 0
M  V30 2333 C 217.566 3.14935 -1.30494 0
M  V30 2334 H 218.759 1.74247 -2.44086 0
M  V30 2335 H 216.312 0.877342 -1.29354 0
M  V30 2336 H 217.047 3.2252 -0.339301 0
M  V30 2337 H 216.832 3.30359 -2.11199 0
M  V30 2338 H 218.322 3.94821 -1.36038 0
M  V30 2339 N 218.759 1.29093 0.90403 0
M  V30 2340 C 220.17 1.15186 1.46932 0
M  V30 2341 C 220.521 -0.254587 1.94541 0
M  V30 2342 O 219.646 -1.14972 1.83332 0
M  V30 2343 C 220.241 2.08492 2.67051 0
M  V30 2344 C 218.8 1.98621 3.19729 0
M  V30 2345 C 217.947 1.9967 1.92425 0
M  V30 2346 H 220.898 1.41641 0.715789 0
M  V30 2347 H 220.919 1.65461 3.42641 0
M  V30 2348 H 220.431 3.10847 2.3237 0
M  V30 2349 H 218.532 0.993389 3.59114 0
M  V30 2350 H 218.645 2.86068 3.8432 0
M  V30 2351 H 217.009 1.44208 2.09943 0
M  V30 2352 H 217.792 3.03721 1.60026 0
M  V30 2353 N 220.237 -1.11381 1.11499 0
M  V30 2354 C 221.462 -1.87475 0.887019 0
M  V30 2355 C 221.887 -1.79639 -0.557796 0
M  V30 2356 O 221.245 -1.15924 -1.39396 0
M  V30 2357 C 221.293 -3.34213 1.35403 0
M  V30 2358 O 220.397 -4.0903 0.526146 0
M  V30 2359 H 219.738 -0.582099 0.319463 0
M  V30 2360 H 222.268 -1.40785 1.48461 0
M  V30 2361 H 222.278 -3.8506 1.34881 0
M  V30 2362 H 220.953 -3.39232 2.40612 0
M  V30 2363 H 219.53 -3.68082 0.597522 0
M  V30 2364 N 221.715 -0.905404 -1.28997 0
M  V30 2365 C 223.131 -0.60233 -1.47798 0
M  V30 2366 C 223.331 0.854645 -1.82478 0
M  V30 2367 O 222.387 1.63439 -1.92468 0
M  V30 2368 C 223.7 -1.53306 -2.58685 0
M  V30 2369 C 225.248 -1.53887 -2.72558 0
M  V30 2370 C 225.723 -2.45602 -3.86579 0
M  V30 2371 N 227.214 -2.43681 -3.93921 0
M  V30 2372 C 227.949 -3.11347 -4.81509 0
M  V30 2373 N 227.445 -3.88313 -5.73746 0
M  V30 2374 N 229.238 -3.00476 -4.75048 0
M  V30 2375 H 221.389 -1.84765 -1.04764 0
M  V30 2376 H 223.652 -0.792025 -0.520961 0
M  V30 2377 H 223.358 -2.57141 -2.39941 0
M  V30 2378 H 223.232 -1.25787 -3.55609 0
M  V30 2379 H 225.619 -0.507941 -2.90696 0
M  V30 2380 H 225.7 -1.85447 -1.76191 0
M  V30 2381 H 225.344 -3.48792 -3.69197 0
M  V30 2382 H 225.274 -2.11349 -4.82327 0
M  V30 2383 H 227.765 -1.87767 -3.27951 0
M  V30 2384 H 228.078 -4.36985 -6.37389 0
M  V30 2385 H 226.423 -3.92419 -5.73614 0
M  V30 2386 H 229.614 -2.39858 -4.01977 0
M  V30 2387 H 229.787 -3.53485 -5.43095 0
M  V30 2388 N 223.193 1.4272 -0.668489 0
M  V30 2389 C 224.609 1.55992 -0.33745 0
M  V30 2390 C 224.809 1.64933 1.15756 0
M  V30 2391 O 223.865 1.61278 1.94282 0
M  V30 2392 C 225.178 2.81314 -1.06222 0
M  V30 2393 C 226.726 2.95078 -1.04394 0
M  V30 2394 C 227.201 4.23252 -1.74991 0
M  V30 2395 N 228.692 4.3015 -1.71829 0
M  V30 2396 C 229.427 5.28127 -2.23315 0
M  V30 2397 N 228.923 6.32293 -2.83156 0
M  V30 2398 N 230.716 5.19882 -2.13726 0
M  V30 2399 H 222.867 1.3516 -1.63846 0
M  V30 2400 H 225.13 0.650174 -0.689912 0
M  V30 2401 H 224.836 2.80823 -2.11734 0
M  V30 2402 H 224.71 3.72012 -0.62344 0
M  V30 2403 H 227.097 2.951 0.0028244 0
M  V30 2404 H 227.178 2.05627 -1.52155 0
M  V30 2405 H 226.822 4.2399 -2.79633 0
M  V30 2406 H 226.752 5.11626 -1.24685 0
M  V30 2407 H 229.243 3.55499 -1.28175 0
M  V30 2408 H 229.556 7.03398 -3.20079 0
M  V30 2409 H 227.901 6.32873 -2.87223 0
M  V30 2410 H 231.092 4.37423 -1.66669 0
M  V30 2411 H 231.265 5.96077 -2.54158 0
M  V30 2412 N 224.671 0.411399 1.52136 0
M  V30 2413 C 225.917 -0.156262 2.02799 0
M  V30 2414 C 226.272 -1.42613 1.29149 0
M  V30 2415 O 225.565 -1.87592 0.389839 0
M  V30 2416 C 225.759 -0.455872 3.54481 0
M  V30 2417 C 225.588 0.783404 4.42824 0
M  V30 2418 C 224.358 1.30928 4.88043 0
M  V30 2419 C 226.556 1.66217 4.86699 0
M  V30 2420 N 224.538 2.5038 5.6052 0
M  V30 2421 C 225.909 2.70292 5.5798 0
M  V30 2422 C 227.964 1.67966 4.68713 0
M  V30 2423 C 226.667 3.7603 6.13184 0
M  V30 2424 C 228.693 2.72624 5.24815 0
M  V30 2425 C 228.055 3.7542 5.9602 0
M  V30 2426 H 224.154 -0.0186886 0.781777 0
M  V30 2427 H 226.738 0.566255 1.86284 0
M  V30 2428 H 224.909 -1.14743 3.71064 0
M  V30 2429 H 226.641 -1.01261 3.91827 0
M  V30 2430 H 223.396 0.866977 4.65597 0
M  V30 2431 H 223.82 3.10881 6.014 0
M  V30 2432 H 228.462 0.898312 4.13147 0
M  V30 2433 H 226.18 4.55019 6.6782 0
M  V30 2434 H 229.766 2.74887 5.12765 0
M  V30 2435 H 228.646 4.55073 6.38654 0
M  V30 2436 N 226.149 -1.5696 0.141893 0
M  V30 2437 C 227.079 -2.19516 -0.795936 0
M  V30 2438 C 228.06 -1.14187 -1.26077 0
M  V30 2439 O 229.245 -1.42511 -1.31925 0
M  V30 2440 C 226.375 -2.81272 -2.03723 0
M  V30 2441 C 225.329 -3.92384 -1.70936 0
M  V30 2442 C 224.655 -4.41052 -3.02287 0
M  V30 2443 C 225.955 -5.13403 -0.959954 0
M  V30 2444 H 227.649 -2.98138 -0.274596 0
M  V30 2445 H 225.195 -1.43406 -0.130636 0
M  V30 2446 H 227.148 -3.237 -2.69808 0
M  V30 2447 H 225.872 -1.99973 -2.58221 0
M  V30 2448 H 224.531 -3.50566 -1.07232 0
M  V30 2449 H 224.179 -3.56582 -3.54765 0
M  V30 2450 H 223.879 -5.15993 -2.81114 0
M  V30 2451 H 225.403 -4.86146 -3.69451 0
M  V30 2452 H 226.817 -5.52706 -1.52279 0
M  V30 2453 H 225.214 -5.94073 -0.848357 0
M  V30 2454 H 226.284 -4.84875 0.0492434 0
M  V30 2455 N 227.627 0.131896 -1.57047 0
M  V30 2456 C 228.537 1.1815 -2.02676 0
M  V30 2457 C 229.553 1.46113 -0.944824 0
M  V30 2458 O 230.729 1.57485 -1.25541 0
M  V30 2459 C 227.794 2.49139 -2.41103 0
M  V30 2460 C 226.855 2.28688 -3.63318 0
M  V30 2461 C 226.088 3.53431 -3.99903 0
M  V30 2462 O 226.311 4.60223 -3.36973 0
M  V30 2463 O 225.245 3.45198 -4.93074 0
M  V30 2464 H 229.071 0.824069 -2.92306 0
M  V30 2465 H 226.656 0.341745 -1.45439 0
M  V30 2466 H 228.538 3.26338 -2.66611 0
M  V30 2467 H 227.213 2.84382 -1.54624 0
M  V30 2468 H 226.12 1.4939 -3.42977 0
M  V30 2469 H 227.453 1.98355 -4.50462 0
M  V30 2470 N 229.106 1.52395 0.401703 0
M  V30 2471 C 230.522 1.41363 0.740864 0
M  V30 2472 C 230.722 0.523982 1.94568 0
M  V30 2473 O 229.778 -0.00741204 2.52499 0
M  V30 2474 C 231.091 2.84011 0.987847 0
M  V30 2475 C 232.639 2.93404 1.09011 0
M  V30 2476 C 233.114 4.37036 1.3698 0
M  V30 2477 N 234.605 4.40304 1.43829 0
M  V30 2478 C 235.34 5.48508 1.67112 0
M  V30 2479 N 234.836 6.66819 1.87949 0
M  V30 2480 N 236.629 5.36034 1.69187 0
M  V30 2481 H 228.78 2.08765 -0.391262 0
M  V30 2482 H 231.043 0.941265 -0.112798 0
M  V30 2483 H 230.749 3.51265 0.174835 0
M  V30 2484 H 230.623 3.25502 1.906 0
M  V30 2485 H 233.01 2.26325 1.8937 0
M  V30 2486 H 233.091 2.55359 0.15015 0
M  V30 2487 H 232.735 5.04676 0.571353 0
M  V30 2488 H 232.665 4.72623 2.3224 0
M  V30 2489 H 235.156 3.55024 1.29486 0
M  V30 2490 H 235.469 7.45063 2.05185 0
M  V30 2491 H 233.814 6.6987 1.85199 0
M  V30 2492 H 237.005 4.42579 1.52451 0
M  V30 2493 H 237.178 6.20434 1.86993 0
M  V30 2494 N 230.584 -0.659388 1.43143 0
M  V30 2495 C 231.517 -1.78425 1.42267 0
M  V30 2496 C 232.495 -1.60085 0.284894 0
M  V30 2497 O 233.679 -1.82351 0.477527 0
M  V30 2498 C 230.806 -3.15642 1.22833 0
M  V30 2499 C 229.852 -3.52698 2.39806 0
M  V30 2500 S 230.685 -3.53372 4.02353 0
M  V30 2501 C 231.841 -4.93256 3.85291 0
M  V30 2502 H 232.074 -1.78897 2.37452 0
M  V30 2503 H 229.607 -0.831469 1.301 0
M  V30 2504 H 231.565 -3.94838 1.12308 0
M  V30 2505 H 230.226 -3.12739 0.29207 0
M  V30 2506 H 229.419 -4.52475 2.21996 0
M  V30 2507 H 229.021 -2.80899 2.46925 0
M  V30 2508 H 231.313 -5.81751 3.47235 0
M  V30 2509 H 232.256 -5.16115 4.84799 0
M  V30 2510 H 232.664 -4.665 3.17865 0
M  V30 2511 N 232.062 -1.29571 -0.897171 0
M  V30 2512 C 233.478 -1.07637 -1.17841 0
M  V30 2513 C 233.678 0.170713 -2.00776 0
M  V30 2514 O 232.734 0.867768 -2.3712 0
M  V30 2515 C 234.047 -2.3332 -1.8969 0
M  V30 2516 C 235.595 -2.38664 -2.02505 0
M  V30 2517 C 236.07 -3.64157 -2.77765 0
M  V30 2518 N 237.561 -3.64894 -2.85318 0
M  V30 2519 C 238.296 -4.58679 -3.44094 0
M  V30 2520 N 237.792 -5.62799 -4.04017 0
M  V30 2521 N 239.585 -4.46245 -3.41793 0
M  V30 2522 H 231.736 -2.09598 -0.343883 0
M  V30 2523 H 233.999 -0.923333 -0.214848 0
M  V30 2524 H 233.705 -3.24262 -1.36187 0
M  V30 2525 H 233.579 -2.41025 -2.9015 0
M  V30 2526 H 235.966 -1.48208 -2.55183 0
M  V30 2527 H 236.047 -2.34943 -1.01171 0
M  V30 2528 H 235.691 -4.54965 -2.25763 0
M  V30 2529 H 235.621 -3.65137 -3.7945 0
M  V30 2530 H 238.112 -2.89613 -2.42761 0
M  V30 2531 H 238.425 -6.3048 -4.46895 0
M  V30 2532 H 236.77 -5.66605 -4.02472 0
M  V30 2533 H 239.961 -3.64094 -2.94199 0
M  V30 2534 H 240.134 -5.19518 -3.87304 0
M  V30 2535 N 233.54 1.10788 -1.12088 0
M  V30 2536 C 234.956 1.34691 -0.856186 0
M  V30 2537 C 235.156 1.94791 0.515615 0
M  V30 2538 O 234.212 2.18524 1.26505 0
M  V30 2539 C 235.525 2.27208 -1.9697 0
M  V30 2540 C 237.073 2.40755 -2.00016 0
M  V30 2541 C 237.548 3.36598 -3.1059 0
M  V30 2542 N 239.039 3.44164 -3.10008 0
M  V30 2543 C 239.774 4.18284 -3.92206 0
M  V30 2544 N 239.27 4.95322 -4.84384 0
M  V30 2545 N 241.063 4.13865 -3.80357 0
M  V30 2546 H 233.214 0.70144 -2.00483 0
M  V30 2547 H 235.477 0.371405 -0.872217 0
M  V30 2548 H 235.183 1.90251 -2.958 0
M  V30 2549 H 235.057 3.27485 -1.87172 0
M  V30 2550 H 237.444 2.76982 -1.01808 0
M  V30 2551 H 237.525 1.40305 -2.13888 0
M  V30 2552 H 237.169 3.01096 -4.09028 0
M  V30 2553 H 237.099 4.36918 -2.93956 0
M  V30 2554 H 239.59 2.8922 -2.43228 0
M  V30 2555 H 239.903 5.49267 -5.43623 0
M  V30 2556 H 238.248 4.94459 -4.884 0
M  V30 2557 H 241.439 3.52773 -3.07683 0
M  V30 2558 H 241.612 4.71372 -4.44649 0
M  V30 2559 N 235.018 0.912232 1.28515 0
M  V30 2560 C 236.246 0.560416 1.99166 0
M  V30 2561 C 236.661 -0.857927 1.68182 0
M  V30 2562 O 236.018 -1.56805 0.933733 0
M  V30 2563 C 236.069 0.758142 3.53461 0
M  V30 2564 O 235.79 2.12067 3.83352 0
M  V30 2565 C 237.291 0.412954 4.41372 0
M  V30 2566 H 234.511 0.213805 0.636026 0
M  V30 2567 H 237.055 1.22502 1.63749 0
M  V30 2568 H 235.21 0.140556 3.87145 0
M  V30 2569 H 235.624 2.15923 4.77993 0
M  V30 2570 H 237.098 0.60208 5.48707 0
M  V30 2571 H 237.575 -0.65073 4.34353 0
M  V30 2572 H 238.181 1.00802 4.13182 0
M  V30 2573 N 236.496 -1.42363 0.676048 0
M  V30 2574 C 237.743 -2.01522 0.19883 0
M  V30 2575 C 238.071 -1.53456 -1.19505 0
M  V30 2576 O 237.326 -0.727967 -1.81657 0
M  V30 2577 C 237.625 -3.56929 0.183431 0
M  V30 2578 C 237.291 -4.24431 1.52215 0
M  V30 2579 C 235.953 -4.42585 1.8887 0
M  V30 2580 C 238.305 -4.62459 2.40377 0
M  V30 2581 C 235.633 -4.96039 3.13309 0
M  V30 2582 C 237.985 -5.17294 3.64129 0
M  V30 2583 C 236.649 -5.33661 4.00951 0
M  V30 2584 H 235.919 -0.737419 0.0727571 0
M  V30 2585 H 238.566 -1.70531 0.871281 0
M  V30 2586 H 236.871 -3.87594 -0.572532 0
M  V30 2587 H 238.568 -4.00486 -0.203035 0
M  V30 2588 H 235.158 -4.10661 1.22701 0
M  V30 2589 H 239.342 -4.48105 2.13343 0
M  V30 2590 H 234.598 -5.06896 3.41857 0
M  V30 2591 H 238.772 -5.45704 4.32644 0
M  V30 2592 H 236.399 -5.74845 4.9745 0
M  V30 2593 N 237.974 -0.419461 -1.51915 0
M  V30 2594 C 238.884 0.407528 -2.31033 0
M  V30 2595 C 239.9 1.04413 -1.3919 0
M  V30 2596 O 241.076 1.0434 -1.72265 0
M  V30 2597 C 238.141 1.50365 -3.12396 0
M  V30 2598 C 237.202 0.889029 -4.19994 0
M  V30 2599 C 236.435 1.93291 -4.97468 0
M  V30 2600 O 236.658 3.15259 -4.75361 0
M  V30 2601 O 235.592 1.53339 -5.8204 0
M  V30 2602 H 239.418 -0.237865 -3.02767 0
M  V30 2603 H 237.003 -0.182413 -1.48282 0
M  V30 2604 H 238.885 2.13975 -3.63032 0
M  V30 2605 H 237.56 2.13345 -2.43445 0
M  V30 2606 H 236.467 0.215353 -3.7348 0
M  V30 2607 H 237.8 0.302991 -4.91267 0
M  V30 2608 N 239.452 1.56882 -0.150215 0
M  V30 2609 C 240.362 2.20494 0.801222 0
M  V30 2610 C 241.378 1.19019 1.26927 0
M  V30 2611 O 242.554 1.51607 1.32579 0
M  V30 2612 C 239.619 2.81659 2.02161 0
M  V30 2613 C 238.68 3.9827 1.60249 0
M  V30 2614 C 237.913 4.56508 2.7647 0
M  V30 2615 O 238.136 4.13627 3.92771 0
M  V30 2616 O 237.07 5.46719 2.51757 0
M  V30 2617 H 240.896 3.02315 0.289717 0
M  V30 2618 H 238.481 1.49202 0.0769684 0
M  V30 2619 H 240.363 3.20522 2.73576 0
M  V30 2620 H 239.038 2.02849 2.52258 0
M  V30 2621 H 237.945 3.64117 0.858477 0
M  V30 2622 H 239.278 4.78609 1.14864 0
M  V30 2623 N 240.93 -0.123565 1.57115 0
M  V30 2624 C 242.341 -0.681198 1.73829 0
M  V30 2625 C 242.692 -1.80535 0.768214 0
M  V30 2626 O 241.817 -2.16317 -0.0599103 0
M  V30 2627 C 242.412 -1.24246 3.15196 0
M  V30 2628 C 240.971 -1.74643 3.33432 0
M  V30 2629 C 240.118 -0.644284 2.69711 0
M  V30 2630 H 243.069 0.102315 1.5837 0
M  V30 2631 H 243.09 -2.11216 3.16493 0
M  V30 2632 H 242.602 -0.424062 3.85776 0
M  V30 2633 H 240.703 -2.58974 2.67886 0
M  V30 2634 H 240.816 -1.85902 4.41562 0
M  V30 2635 H 239.18 -1.07676 2.3082 0
M  V30 2636 H 239.963 0.163058 3.42913 0
M  V30 2637 N 242.408 -1.52605 -0.393616 0
M  V30 2638 C 243.636 -1.71294 -1.16043 0
M  V30 2639 C 244.051 -0.429259 -1.83855 0
M  V30 2640 O 243.408 0.595921 -1.72496 0
M  V30 2641 C 243.459 -2.8593 -2.21193 0
M  V30 2642 O 243.18 -4.09329 -1.56146 0
M  V30 2643 C 244.681 -3.16259 -3.10636 0
M  V30 2644 H 241.901 -0.573641 -0.348104 0
M  V30 2645 H 244.445 -1.99234 -0.461092 0
M  V30 2646 H 242.6 -2.60465 -2.86769 0
M  V30 2647 H 243.014 -4.73323 -2.25978 0
M  V30 2648 H 244.488 -3.99946 -3.80456 0
M  V30 2649 H 244.965 -2.3045 -3.73884 0
M  V30 2650 H 245.571 -3.43547 -2.50711 0
M  V30 2651 N 243.887 0.651787 -1.4349 0
M  V30 2652 C 245.112 1.44434 -1.48841 0
M  V30 2653 C 245.537 1.8779 -0.107955 0
M  V30 2654 O 244.895 1.57464 0.898602 0
M  V30 2655 C 244.943 2.65458 -2.44059 0
M  V30 2656 O 244.047 3.64566 -1.92784 0
M  V30 2657 H 243.388 0.433005 -0.503391 0
M  V30 2658 H 245.918 0.797451 -1.88419 0
M  V30 2659 H 245.928 3.13255 -2.6141 0
M  V30 2660 H 244.603 2.33244 -3.4434 0
M  V30 2661 H 243.18 3.23716 -1.851 0
M  V30 2662 N 245.365 1.30045 0.890287 0
M  V30 2663 C 246.59 1.21598 1.68014 0
M  V30 2664 C 247.015 -0.218678 1.86825 0
M  V30 2665 O 246.373 -1.15756 1.39536 0
M  V30 2666 C 246.421 1.94434 3.03691 0
M  V30 2667 O 245.525 1.2678 3.92429 0
M  V30 2668 H 244.866 0.420856 0.513592 0
M  V30 2669 H 247.396 1.71775 1.11151 0
M  V30 2670 H 247.406 2.03251 3.5377 0
M  V30 2671 H 246.081 2.98777 2.89318 0
M  V30 2672 H 244.658 1.26282 3.50866 0
M  V30 2673 N 246.843 -1.10192 1.12674 0
M  V30 2674 C 247.773 -2.18652 0.819362 0
M  V30 2675 C 248.754 -1.68698 -0.217915 0
M  V30 2676 O 249.939 -1.94041 -0.0785581 0
M  V30 2677 C 247.069 -3.46202 0.27594 0
M  V30 2678 C 246.023 -4.09444 1.24656 0
M  V30 2679 C 245.349 -5.31725 0.563258 0
M  V30 2680 C 246.649 -4.52863 2.60217 0
M  V30 2681 H 248.343 -2.44622 1.72628 0
M  V30 2682 H 245.889 -1.17571 0.831451 0
M  V30 2683 H 247.842 -4.21372 0.0486149 0
M  V30 2684 H 246.566 -3.1973 -0.666331 0
M  V30 2685 H 245.225 -3.36284 1.45974 0
M  V30 2686 H 244.873 -5.0153 -0.384235 0
M  V30 2687 H 244.573 -5.74991 1.21075 0
M  V30 2688 H 246.097 -6.09624 0.34503 0
M  V30 2689 H 247.511 -5.19294 2.42913 0
M  V30 2690 H 245.908 -5.06986 3.21068 0
M  V30 2691 H 246.978 -3.65656 3.18471 0
M  V30 2692 N 248.321 -0.919034 -1.28029 0
M  V30 2693 C 249.284 -0.416182 -2.2539 0
M  V30 2694 C 250.284 0.460438 -1.54067 0
M  V30 2695 O 251.474 0.262744 -1.72207 0
M  V30 2696 C 248.606 0.402707 -3.38513 0
M  V30 2697 H 249.799 -1.27629 -2.71387 0
M  V30 2698 H 247.352 -0.698919 -1.39803 0
M  V30 2699 H 248.087 1.282 -2.97885 0
M  V30 2700 H 247.872 -0.225698 -3.9145 0
M  V30 2701 H 249.362 0.745191 -4.10897 0
M  V30 2702 N 249.799 1.42003 -0.683588 0
M  V30 2703 C 250.762 2.29191 -0.0198243 0
M  V30 2704 C 251.762 1.43773 0.72013 0
M  V30 2705 O 252.952 1.65061 0.556815 0
M  V30 2706 C 250.084 3.26435 0.982487 0
M  V30 2707 H 251.277 2.8938 -0.787345 0
M  V30 2708 H 248.83 1.49789 -0.446418 0
M  V30 2709 H 249.565 2.71203 1.77819 0
M  V30 2710 H 249.35 3.89449 0.455182 0
M  V30 2711 H 250.84 3.918 1.44508 0
M  V30 2712 N 251.277 0.427512 1.51691 0
M  V30 2713 C 252.209 -0.424521 2.25234 0
M  V30 2714 C 253.222 -0.994671 1.2888 0
M  V30 2715 O 254.411 -0.890483 1.54702 0
M  V30 2716 C 251.511 -1.60479 2.98496 0
M  V30 2717 C 250.684 -1.15527 4.21868 0
M  V30 2718 C 249.743 -2.20454 4.77793 0
M  V30 2719 O 248.769 -1.8029 5.39893 0
M  V30 2720 N 249.971 -3.52831 4.60967 0
M  V30 2721 H 252.736 0.205749 2.98993 0
M  V30 2722 H 250.297 0.255867 1.59865 0
M  V30 2723 H 252.289 -2.30276 3.32799 0
M  V30 2724 H 250.859 -2.14061 2.27809 0
M  V30 2725 H 250.079 -0.284736 3.9317 0
M  V30 2726 H 251.367 -0.832173 5.01949 0
M  V30 2727 H 250.765 -3.88201 4.11481 0
M  V30 2728 H 249.322 -4.18551 4.99658 0
M  V30 2729 N 252.755 -1.56801 0.158532 0
M  V30 2730 C 254.004 -1.95665 -0.489702 0
M  V30 2731 C 254.317 -1.04654 -1.65248 0
M  V30 2732 O 255.523 -1.33146 -2.3661 0
M  V30 2733 C 253.979 -3.47874 -0.922582 0
M  V30 2734 C 253.587 -4.47489 0.213893 0
M  V30 2735 C 255.331 -3.95583 -1.53996 0
M  V30 2736 C 253.238 -5.90921 -0.237903 0
M  V30 2737 H 252.168 -0.730516 -0.186716 0
M  V30 2738 H 254.819 -1.81861 0.244722 0
M  V30 2739 H 253.201 -3.57051 -1.71261 0
M  V30 2740 H 254.375 -4.50017 0.991036 0
M  V30 2741 H 252.69 -4.09764 0.740407 0
M  V30 2742 H 255.287 -5.0019 -1.8898 0
M  V30 2743 H 255.63 -3.37789 -2.43319 0
M  V30 2744 H 256.163 -3.8937 -0.814611 0
M  V30 2745 H 252.902 -6.52559 0.620236 0
M  V30 2746 H 252.422 -5.91729 -0.980676 0
M  V30 2747 H 254.101 -6.43352 -0.686067 0
M  V30 2748 N 254.233 0.115231 -1.57178 0
M  V30 2749 C 255.163 1.1423 -2.03651 0
M  V30 2750 C 256.144 1.42967 -0.921655 0
M  V30 2751 O 257.329 1.53343 -1.19162 0
M  V30 2752 C 254.459 2.4675 -2.44401 0
M  V30 2753 C 253.413 2.32467 -3.59365 0
M  V30 2754 C 252.739 3.69984 -3.86026 0
M  V30 2755 C 254.039 1.78203 -4.90959 0
M  V30 2756 H 255.733 0.755749 -2.89705 0
M  V30 2757 H 253.279 0.362093 -1.39373 0
M  V30 2758 H 255.232 3.18854 -2.75517 0
M  V30 2759 H 253.956 2.87302 -1.55322 0
M  V30 2760 H 252.615 1.62811 -3.28463 0
M  V30 2761 H 252.263 4.08028 -2.94147 0
M  V30 2762 H 251.963 3.61279 -4.63412 0
M  V30 2763 H 253.487 4.43587 -4.19599 0
M  V30 2764 H 254.901 2.40128 -5.20587 0
M  V30 2765 H 253.298 1.8031 -5.72371 0
M  V30 2766 H 254.368 0.739876 -4.79222 0
M  V30 2767 N 255.711 1.52812 0.385517 0
M  V30 2768 C 256.674 1.77188 1.45386 0
M  V30 2769 C 257.674 0.641953 1.4743 0
M  V30 2770 O 258.864 0.910033 1.4854 0
M  V30 2771 C 255.996 1.87582 2.8465 0
M  V30 2772 H 257.189 2.72583 1.25054 0
M  V30 2773 H 254.742 1.43586 0.617467 0
M  V30 2774 H 255.477 0.941849 3.10322 0
M  V30 2775 H 255.262 2.69748 2.84567 0
M  V30 2776 H 256.752 2.08102 3.62054 0
M  V30 2777 N 257.189 -0.644168 1.43834 0
M  V30 2778 C 258.414 -1.43642 1.49605 0
M  V30 2779 C 258.839 -1.8773 0.117913 0
M  V30 2780 O 258.197 -1.57938 -0.890239 0
M  V30 2781 C 258.245 -2.6416 2.45463 0
M  V30 2782 O 257.349 -3.63538 1.94714 0
M  V30 2783 H 256.69 -0.430329 0.50568 0
M  V30 2784 H 259.22 -0.787448 1.8884 0
M  V30 2785 H 259.23 -3.11864 2.63068 0
M  V30 2786 H 257.905 -2.31414 3.45572 0
M  V30 2787 H 256.482 -3.2273 1.86814 0
M  V30 2788 N 258.668 -1.30515 -0.883378 0
M  V30 2789 C 259.914 -1.19607 -1.63774 0
M  V30 2790 C 260.247 0.248314 -1.92606 0
M  V30 2791 O 259.522 1.17742 -1.54813 0
M  V30 2792 C 259.805 -2.02669 -2.97653 0
M  V30 2793 C 259.658 -3.55335 -2.75784 0
M  V30 2794 C 260.977 -1.86573 -3.98596 0
M  V30 2795 H 258.096 -0.435856 -0.594305 0
M  V30 2796 H 260.738 -1.60165 -1.02212 0
M  V30 2797 H 258.888 -1.68208 -3.50197 0
M  V30 2798 H 260.56 -3.99863 -2.30016 0
M  V30 2799 H 258.803 -3.79438 -2.1026 0
M  V30 2800 H 259.474 -4.08745 -3.70988 0
M  V30 2801 H 261.95 -2.16703 -3.55217 0
M  V30 2802 H 260.826 -2.47014 -4.90179 0
M  V30 2803 H 261.087 -0.825321 -4.34328 0
M  V30 2804 N 260.146 1.09593 -1.13257 0
M  V30 2805 C 261.371 1.8604 -0.916732 0
M  V30 2806 C 261.796 1.80504 0.529146 0
M  V30 2807 O 261.154 1.18127 1.37534 0
M  V30 2808 C 261.202 3.32017 -1.40703 0
M  V30 2809 O 260.306 4.08141 -0.591153 0
M  V30 2810 H 259.647 0.576943 -0.328683 0
M  V30 2811 H 262.177 1.38405 -1.50682 0
M  V30 2812 H 262.187 3.82865 -1.4099 0
M  V30 2813 H 260.862 3.35361 -2.45979 0
M  V30 2814 H 259.439 3.67084 -0.656005 0
M  V30 2815 N 261.624 0.925811 1.2754 0
M  V30 2816 C 262.87 0.566092 1.94739 0
M  V30 2817 C 263.203 -0.890057 1.72603 0
M  V30 2818 O 262.478 -1.63467 1.05399 0
M  V30 2819 C 262.761 0.89054 3.48915 0
M  V30 2820 C 262.614 2.4003 3.80402 0
M  V30 2821 C 263.933 0.395101 4.38323 0
M  V30 2822 H 261.052 0.20714 0.707292 0
M  V30 2823 H 263.694 1.15725 1.50691 0
M  V30 2824 H 261.844 0.387452 3.86563 0
M  V30 2825 H 263.516 2.97494 3.52555 0
M  V30 2826 H 261.759 2.85028 3.2702 0
M  V30 2827 H 262.43 2.57785 4.8811 0
M  V30 2828 H 264.906 0.826241 4.07814 0
M  V30 2829 H 263.782 0.651086 5.45025 0
M  V30 2830 H 264.043 -0.704798 4.36446 0
M  V30 2831 N 263.102 -1.41638 0.69111 0
M  V30 2832 C 264.348 -2.01598 0.220519 0
M  V30 2833 C 264.681 -1.54594 -1.17535 0
M  V30 2834 O 263.956 -0.755177 -1.79241 0
M  V30 2835 C 264.239 -3.59062 0.273243 0
M  V30 2836 C 264.092 -4.16203 1.70573 0
M  V30 2837 C 265.411 -4.38546 -0.369457 0
M  V30 2838 H 262.53 -0.732468 0.0816045 0
M  V30 2839 H 265.172 -1.68445 0.878986 0
M  V30 2840 H 263.322 -3.87435 -0.287411 0
M  V30 2841 H 264.994 -3.98722 2.31989 0
M  V30 2842 H 263.237 -3.71414 2.2413 0
M  V30 2843 H 263.908 -5.25358 1.69419 0
M  V30 2844 H 266.384 -4.1596 0.107977 0
M  V30 2845 H 265.26 -5.48069 -0.302002 0
M  V30 2846 H 265.521 -4.17662 -1.44951 0
M  V30 2847 N 264.58 -0.43555 -1.51462 0
M  V30 2848 C 265.827 0.131514 -2.02072 0
M  V30 2849 C 266.155 1.42868 -1.31981 0
M  V30 2850 O 265.41 1.91076 -0.422883 0
M  V30 2851 C 265.709 0.39942 -3.55161 0
M  V30 2852 C 265.375 -0.81172 -4.43533 0
M  V30 2853 C 264.037 -1.14387 -4.67407 0
M  V30 2854 C 266.389 -1.61976 -4.95392 0
M  V30 2855 C 263.717 -2.28477 -5.40384 0
M  V30 2856 C 266.069 -2.75164 -5.6962 0
M  V30 2857 C 264.733 -3.08835 -5.91758 0
M  V30 2858 H 264.003 0.0481244 -0.739436 0
M  V30 2859 H 266.65 -0.58238 -1.8243 0
M  V30 2860 H 264.955 1.19519 -3.73125 0
M  V30 2861 H 266.652 0.85157 -3.91854 0
M  V30 2862 H 263.242 -0.542898 -4.25148 0
M  V30 2863 H 267.426 -1.37637 -4.76833 0
M  V30 2864 H 262.682 -2.5488 -5.55739 0
M  V30 2865 H 266.856 -3.38147 -6.08793 0
M  V30 2866 H 264.483 -3.97353 -6.48086 0
M  V30 2867 N 266.058 1.56714 -0.166846 0
M  V30 2868 C 267.304 1.97039 0.479962 0
M  V30 2869 C 267.637 1.05264 1.63197 0
M  V30 2870 O 266.912 0.0988833 1.94248 0
M  V30 2871 C 267.195 3.46867 0.967212 0
M  V30 2872 C 267.048 4.49421 -0.18466 0
M  V30 2873 C 268.367 3.9968 1.84238 0
M  V30 2874 H 265.486 0.71641 0.172992 0
M  V30 2875 H 268.128 1.8832 -0.252079 0
M  V30 2876 H 266.278 3.54428 1.59101 0
M  V30 2877 H 267.95 4.53924 -0.821621 0
M  V30 2878 H 266.193 4.25573 -0.840837 0
M  V30 2879 H 266.864 5.51644 0.198317 0
M  V30 2880 H 269.34 3.94723 1.31655 0
M  V30 2881 H 268.216 5.04941 2.15234 0
M  V30 2882 H 268.477 3.43226 2.78654 0
M  V30 2883 N 267.536 -0.106894 1.57237 0
M  V30 2884 C 268.785 -0.811163 1.8467 0
M  V30 2885 C 269.098 -1.80469 0.754342 0
M  V30 2886 O 270.304 -2.55601 0.915439 0
M  V30 2887 C 268.76 -1.49337 3.27454 0
M  V30 2888 C 268.368 -0.540217 4.44731 0
M  V30 2889 C 270.112 -2.18206 3.64124 0
M  V30 2890 C 268.019 -1.22634 5.78545 0
M  V30 2891 H 266.949 -0.306679 0.688813 0
M  V30 2892 H 269.6 -0.0639887 1.83388 0
M  V30 2893 H 267.982 -2.2876 3.23241 0
M  V30 2894 H 269.156 0.221659 4.60267 0
M  V30 2895 H 267.471 0.042146 4.16379 0
M  V30 2896 H 270.068 -2.70253 4.61376 0
M  V30 2897 H 270.411 -2.96562 2.92158 0
M  V30 2898 H 270.944 -1.45658 3.70174 0
M  V30 2899 H 267.683 -0.483832 6.53712 0
M  V30 2900 H 267.203 -1.95993 5.66874 0
M  V30 2901 H 268.882 -1.75615 6.2271 0
M  V30 2902 N 269.014 -1.53014 -0.377408 0
M  V30 2903 C 270.26 -1.68872 -1.12294 0
M  V30 2904 C 270.593 -0.433224 -1.89306 0
M  V30 2905 O 269.868 0.569258 -1.85983 0
M  V30 2906 C 270.151 -2.93115 -2.09179 0
M  V30 2907 C 270.004 -4.28794 -1.35853 0
M  V30 2908 C 271.323 -3.12928 -3.09458 0
M  V30 2909 H 268.442 -0.614518 -0.406862 0
M  V30 2910 H 271.084 -1.85633 -0.40503 0
M  V30 2911 H 269.234 -2.78956 -2.70399 0
M  V30 2912 H 270.906 -4.54742 -0.775082 0
M  V30 2913 H 269.149 -4.28744 -0.660364 0
M  V30 2914 H 269.82 -5.11837 -2.06706 0
M  V30 2915 H 272.296 -3.26194 -2.58334 0
M  V30 2916 H 271.172 -4.01316 -3.74482 0
M  V30 2917 H 271.433 -2.27669 -3.78971 0
M  V30 2918 N 270.492 0.636531 -1.44174 0
M  V30 2919 C 271.717 1.42847 -1.50364 0
M  V30 2920 C 272.142 1.87665 -0.127867 0
M  V30 2921 O 271.5 1.58408 0.88185 0
M  V30 2922 C 271.548 2.62854 -2.4686 0
M  V30 2923 O 270.652 3.62501 -1.9664 0
M  V30 2924 H 269.993 0.427642 -0.507955 0
M  V30 2925 H 272.523 0.777422 -1.89255 0
M  V30 2926 H 272.533 3.10465 -2.64718 0
M  V30 2927 H 271.208 2.29578 -3.46795 0
M  V30 2928 H 269.785 3.21735 -1.88523 0
M  V30 2929 N 271.97 1.30982 0.876444 0
M  V30 2930 C 272.903 1.12414 1.98591 0
M  V30 2931 C 273.881 0.0294078 1.62573 0
M  V30 2932 O 275.065 0.184598 1.87594 0
M  V30 2933 C 272.192 0.716276 3.3104 0
M  V30 2934 C 271.238 1.81311 3.86042 0
M  V30 2935 S 272.071 3.41727 4.1229 0
M  V30 2936 C 273.227 3.02863 5.47745 0
M  V30 2937 H 273.46 2.06338 2.14037 0
M  V30 2938 H 270.993 1.15393 1.02586 0
M  V30 2939 H 272.951 0.487697 4.07593 0
M  V30 2940 H 271.612 -0.203749 3.13438 0
M  V30 2941 H 270.805 1.48021 4.81774 0
M  V30 2942 H 270.407 1.99641 3.16259 0
M  V30 2943 H 272.699 2.51353 6.29148 0
M  V30 2944 H 273.642 3.97533 5.8598 0
M  V30 2945 H 274.05 2.40487 5.10711 0
M  V30 2946 N 273.449 -1.08991 1.13837 0
M  V30 2947 C 274.695 -1.81526 0.90422 0
M  V30 2948 C 275.028 -1.85706 -0.568066 0
M  V30 2949 O 274.303 -1.32855 -1.42056 0
M  V30 2950 C 274.586 -3.27447 1.49835 0
M  V30 2951 C 274.439 -3.31512 3.04006 0
M  V30 2952 C 275.758 -4.24256 1.17025 0
M  V30 2953 H 272.877 -0.659029 0.329923 0
M  V30 2954 H 275.519 -1.27644 1.40737 0
M  V30 2955 H 273.669 -3.73462 1.07044 0
M  V30 2956 H 275.341 -2.93867 3.55584 0
M  V30 2957 H 273.584 -2.70963 3.38765 0
M  V30 2958 H 274.255 -4.34329 3.40679 0
M  V30 2959 H 276.731 -3.86549 1.54009 0
M  V30 2960 H 275.607 -5.24684 1.61237 0
M  V30 2961 H 275.868 -4.42019 0.0846274 0
M  V30 2962 N 274.927 -0.932562 -1.27047 0
M  V30 2963 C 276.173 -0.576412 -1.94436 0
M  V30 2964 C 276.506 0.880891 -1.73072 0
M  V30 2965 O 275.781 1.62905 -1.06264 0
M  V30 2966 C 276.064 -0.909031 -3.48437 0
M  V30 2967 C 275.917 -2.42044 -3.79123 0
M  V30 2968 C 277.236 -0.418341 -4.38107 0
M  V30 2969 H 274.355 -0.210888 -0.706184 0
M  V30 2970 H 276.997 -1.16522 -1.50075 0
M  V30 2971 H 275.147 -0.407947 -3.86352 0
M  V30 2972 H 276.819 -2.99359 -3.50973 0
M  V30 2973 H 275.062 -2.86758 -3.25503 0
M  V30 2974 H 275.733 -2.6037 -4.86736 0
M  V30 2975 H 278.209 -0.847856 -4.0737 0
M  V30 2976 H 277.085 -0.679981 -5.44672 0
M  V30 2977 H 277.346 0.681642 -4.36814 0
M  V30 2978 N 276.405 1.4127 -0.698611 0
M  V30 2979 C 277.335 2.33447 -0.049629 0
M  V30 2980 C 278.316 1.51982 0.763898 0
M  V30 2981 O 279.501 1.80509 0.716257 0
M  V30 2982 C 276.631 3.35828 0.885267 0
M  V30 2983 C 275.585 4.27627 0.178613 0
M  V30 2984 C 274.911 5.20406 1.22807 0
M  V30 2985 C 276.211 5.13459 -0.956933 0
M  V30 2986 H 277.905 2.87966 -0.81951 0
M  V30 2987 H 275.451 1.38461 -0.395538 0
M  V30 2988 H 277.404 3.9924 1.34854 0
M  V30 2989 H 276.128 2.79666 1.68685 0
M  V30 2990 H 274.787 3.65643 -0.26466 0
M  V30 2991 H 274.435 4.60558 2.02226 0
M  V30 2992 H 274.135 5.82661 0.760239 0
M  V30 2993 H 275.659 5.86695 1.69179 0
M  V30 2994 H 277.073 5.70421 -0.573805 0
M  V30 2995 H 275.47 5.8467 -1.35205 0
M  V30 2996 H 276.54 4.50443 -1.79524 0
M  V30 2997 N 277.883 0.443576 1.51229 0
M  V30 2998 C 279.123 -0.119889 2.04048 0
M  V30 2999 C 279.487 -1.39418 1.32009 0
M  V30 3000 O 280.688 -2.03829 1.75235 0
M  V30 3001 C 278.959 -0.327233 3.55899 0
M  V30 3002 S 280.518 -0.853208 4.30425 0
M  V30 3003 H 277.336 -0.028921 0.710412 0
M  V30 3004 H 279.938 0.604413 1.85922 0
M  V30 3005 H 278.642 0.606445 4.05895 0
M  V30 3006 H 278.173 -1.07844 3.7833 0
M  V30 3007 H 280.188 -2.13005 4.48155 0
M  V30 3008 N 279.361 -1.56624 0.175154 0
M  V30 3009 C 280.324 -2.16934 -0.739738 0
M  V30 3010 C 281.324 -1.11842 -1.15533 0
M  V30 3011 O 282.514 -1.37335 -1.07167 0
M  V30 3012 C 279.646 -2.75531 -2.00738 0
M  V30 3013 H 280.839 -2.99131 -0.214639 0
M  V30 3014 H 278.392 -1.56123 -0.0744197 0
M  V30 3015 H 279.127 -1.97078 -2.57548 0
M  V30 3016 H 278.912 -3.52444 -1.71831 0
M  V30 3017 H 280.402 -3.21904 -2.66021 0
M  V30 3018 N 280.839 0.0985539 -1.57292 0
M  V30 3019 C 282.064 0.820196 -1.90493 0
M  V30 3020 C 282.489 1.71658 -0.769094 0
M  V30 3021 O 281.847 1.79133 0.279495 0
M  V30 3022 C 281.895 1.61242 -3.22542 0
M  V30 3023 O 280.999 2.72108 -3.09888 0
M  V30 3024 H 280.34 0.225547 -0.62452 0
M  V30 3025 H 282.87 0.0748159 -2.04463 0
M  V30 3026 H 282.88 1.99737 -3.55766 0
M  V30 3027 H 281.555 0.954535 -4.04798 0
M  V30 3028 H 280.132 2.36667 -2.88172 0
M  V30 3029 N 282.317 1.53212 0.369288 0
M  V30 3030 C 283.545 1.73119 1.13303 0
M  V30 3031 C 283.96 0.458455 1.83149 0
M  V30 3032 O 283.317 -0.568403 1.73423 0
M  V30 3033 C 283.368 2.89413 2.16616 0
M  V30 3034 O 283.089 4.11761 1.49614 0
M  V30 3035 C 284.59 3.21161 3.05566 0
M  V30 3036 H 281.81 0.579107 0.338934 0
M  V30 3037 H 284.354 1.99942 0.429338 0
M  V30 3038 H 282.509 2.64994 2.82589 0
M  V30 3039 H 282.923 4.76858 2.18419 0
M  V30 3040 H 284.397 4.05949 3.74045 0
M  V30 3041 H 284.874 2.36369 3.70171 0
M  V30 3042 H 285.48 3.47492 2.45213 0
M  V30 3043 N 283.795 -0.628877 1.44509 0
M  V30 3044 C 284.725 -1.75187 1.54376 0
M  V30 3045 C 285.706 -1.65411 0.396618 0
M  V30 3046 O 286.891 -1.84137 0.617031 0
M  V30 3047 C 284.021 -3.13725 1.48976 0
M  V30 3048 C 282.975 -3.38291 2.62189 0
M  V30 3049 C 282.301 -4.76883 2.41841 0
M  V30 3050 C 283.601 -3.30632 4.04326 0
M  V30 3051 H 285.295 -1.67187 2.48373 0
M  V30 3052 H 282.841 -0.802909 1.19538 0
M  V30 3053 H 284.794 -3.92064 1.54478 0
M  V30 3054 H 283.518 -3.22515 0.514961 0
M  V30 3055 H 282.177 -2.62334 2.56079 0
M  V30 3056 H 281.825 -4.82378 1.42548 0
M  V30 3057 H 281.525 -4.94278 3.17747 0
M  V30 3058 H 283.049 -5.57449 2.49165 0
M  V30 3059 H 284.463 -3.98873 4.11793 0
M  V30 3060 H 282.86 -3.59561 4.80454 0
M  V30 3061 H 283.93 -2.28404 4.27738 0
M  V30 3062 N 285.273 -1.31445 -0.869486 0
M  V30 3063 C 286.684 -1.19042 -1.43826 0
M  V30 3064 C 287.035 0.202919 -1.95148 0
M  V30 3065 O 286.16 1.10071 -1.86315 0
M  V30 3066 C 286.755 -2.15499 -2.6143 0
M  V30 3067 C 285.314 -2.07028 -3.14351 0
M  V30 3068 C 284.461 -2.04701 -1.87063 0
M  V30 3069 H 287.412 -1.43489 -0.677984 0
M  V30 3070 H 287.433 -1.74488 -3.38134 0
M  V30 3071 H 286.945 -3.16899 -2.24046 0
M  V30 3072 H 285.046 -1.08825 -3.56354 0
M  V30 3073 H 285.159 -2.96157 -3.766 0
M  V30 3074 H 283.523 -1.49724 -2.06046 0
M  V30 3075 H 284.306 -3.07857 -1.51917 0
M  V30 3076 N 286.751 1.08385 -1.14413 0
M  V30 3077 C 288.028 1.77429 -0.823297 0
M  V30 3078 C 288.408 1.9974 0.683163 0
M  V30 3079 O 287.756 1.60739 1.62405 0
M  V30 3080 C 287.966 3.09004 -1.62227 0
M  V30 3081 C 289.314 3.83532 -1.82177 0
M  V30 3082 O 290.338 3.18786 -1.58915 0
M  V30 3083 O 289.197 4.99792 -2.21067 0
M  V30 3084 H 286.291 0.769999 -0.301712 0
M  V30 3085 H 288.837 1.14846 -1.24934 0
M  V30 3086 H 287.609 2.88316 -2.64555 0
M  V30 3087 H 287.232 3.79316 -1.19187 0
M  V30 3088 N 288.23 0.939286 1.26551 0
M  V30 3089 C 289.476 0.596234 1.94465 0
M  V30 3090 C 289.831 -0.855013 1.72358 0
M  V30 3091 O 289.124 -1.6034 1.04889 0
M  V30 3092 C 289.318 0.872106 3.46596 0
M  V30 3093 C 289.147 2.34862 3.83497 0
M  V30 3094 C 287.917 3.00344 4.06352 0
M  V30 3095 C 290.115 3.32697 3.92195 0
M  V30 3096 N 288.097 4.38027 4.30123 0
M  V30 3097 C 289.468 4.55631 4.20476 0
M  V30 3098 C 291.523 3.27747 3.74815 0
M  V30 3099 C 290.226 5.74233 4.33185 0
M  V30 3100 C 292.252 4.45672 3.88755 0
M  V30 3101 C 291.614 5.67388 4.17433 0
M  V30 3102 H 287.713 0.268515 0.734455 0
M  V30 3103 H 290.297 1.2083 1.5267 0
M  V30 3104 H 288.468 0.289102 3.87323 0
M  V30 3105 H 290.2 0.490513 4.01716 0
M  V30 3106 H 286.955 2.50969 4.01636 0
M  V30 3107 H 287.379 5.09288 4.46044 0
M  V30 3108 H 292.021 2.34703 3.51673 0
M  V30 3109 H 289.739 6.67731 4.55149 0
M  V30 3110 H 293.325 4.43372 3.76713 0
M  V30 3111 H 292.205 6.57115 4.27983 0
M  V30 3112 N 289.708 -1.40897 0.706093 0
M  V30 3113 C 291.124 -1.55042 0.37869 0
M  V30 3114 C 291.324 -1.67944 -1.11342 0
M  V30 3115 O 290.38 -1.66372 -1.89938 0
M  V30 3116 C 291.693 -2.78398 1.13643 0
M  V30 3117 C 293.241 -2.92206 1.12181 0
M  V30 3118 C 293.716 -4.18463 1.86152 0
M  V30 3119 N 295.207 -4.25443 1.83173 0
M  V30 3120 C 295.942 -5.2202 2.37239 0
M  V30 3121 N 295.438 -6.24563 2.99821 0
M  V30 3122 N 297.231 -5.14033 2.27435 0
M  V30 3123 H 289.382 -1.30769 1.67372 0
M  V30 3124 H 291.645 -0.631653 0.706907 0
M  V30 3125 H 291.351 -2.7511 2.19106 0
M  V30 3126 H 291.225 -3.70228 0.721853 0
M  V30 3127 H 293.612 -2.95004 0.0754171 0
M  V30 3128 H 293.693 -2.01521 1.57554 0
M  V30 3129 H 293.337 -4.16427 2.90776 0
M  V30 3130 H 293.267 -5.08141 1.38206 0
M  V30 3131 H 295.758 -3.51976 1.37556 0
M  V30 3132 H 296.071 -6.94665 3.38616 0
M  V30 3133 H 294.416 -6.25035 3.03902 0
M  V30 3134 H 297.607 -4.3285 1.78208 0
M  V30 3135 H 297.78 -5.89129 2.69873 0
M  V30 3136 N 291.186 -0.45159 -1.50991 0
M  V30 3137 C 292.134 0.366864 -2.29689 0
M  V30 3138 C 293.128 1.00809 -1.36139 0
M  V30 3139 O 294.334 0.941427 -1.53418 0
M  V30 3140 H 290.709 0.137133 -0.739391 0
M  V30 3141 H 292.68 -0.317538 -2.96706 0
M  V30 3142 C 291.429 1.44751 -3.16137 0
M  V30 3143 H 290.752 0.963473 -3.88017 0
M  V30 3144 H 292.192 1.99315 -3.74232 0
M  V30 3145 C 290.651 2.43869 -2.32442 0
M  V30 3146 O 291.181 3.4872 -1.99392 0
M  V30 3147 N 289.387 2.15105 -1.95392 0
M  V30 3148 H 288.934 1.29866 -2.22469 0
M  V30 3149 H 288.892 2.81661 -1.39693 0
M  V30 3150 N 292.664 1.56529 -0.183458 0
M  V30 3151 C 293.627 2.17324 0.728223 0
M  V30 3152 C 294.627 1.12453 1.14939 0
M  V30 3153 O 295.817 1.37902 1.06437 0
M  V30 3154 C 292.949 2.76591 1.99274 0
M  V30 3155 H 294.142 2.99241 0.198772 0
M  V30 3156 H 291.695 1.5616 0.0661391 0
M  V30 3157 H 292.43 1.98441 2.56499 0
M  V30 3158 H 292.215 3.5335 1.69959 0
M  V30 3159 H 293.705 3.23311 2.6431 0
M  V30 3160 N 294.142 -0.090211 1.57342 0
M  V30 3161 C 295.105 -1.09335 2.01441 0
M  V30 3162 C 296.105 -1.32666 0.908641 0
M  V30 3163 O 297.295 -1.28697 1.174 0
M  V30 3164 C 294.427 -2.44136 2.3793 0
M  V30 3165 H 295.62 -0.713662 2.91285 0
M  V30 3166 H 293.173 -0.335404 1.52659 0
M  V30 3167 H 293.908 -2.86972 1.51055 0
M  V30 3168 H 293.693 -2.28548 3.18603 0
M  V30 3169 H 295.183 -3.16277 2.72688 0
M  V30 3170 N 295.62 -1.53406 -0.361157 0
M  V30 3171 C 296.583 -1.79479 -1.42548 0
M  V30 3172 C 297.583 -0.665327 -1.4639 0
M  V30 3173 O 298.773 -0.933549 -1.47073 0
M  V30 3174 C 295.905 -1.92087 -2.8163 0
M  V30 3175 H 297.098 -2.74538 -1.20701 0
M  V30 3176 H 294.651 -1.4455 -0.594546 0
M  V30 3177 H 295.386 -0.991099 -3.08784 0
M  V30 3178 H 295.171 -2.74241 -2.80239 0
M  V30 3179 H 296.661 -2.13836 -3.58697 0
M  V30 3180 N 297.098 0.621204 -1.44841 0
M  V30 3181 C 298.375 1.38 -1.38619 0
M  V30 3182 C 298.755 2.11041 -0.0498935 0
M  V30 3183 O 298.103 2.06992 0.967816 0
M  V30 3184 C 298.313 2.33817 -2.59096 0
M  V30 3185 C 299.661 2.96844 -3.03593 0
M  V30 3186 O 300.685 2.44141 -2.59371 0
M  V30 3187 O 299.544 3.92476 -3.80296 0
M  V30 3188 H 296.638 0.61811 -0.549426 0
M  V30 3189 H 299.184 0.645429 -1.56947 0
M  V30 3190 H 297.956 1.79012 -3.47952 0
M  V30 3191 H 297.579 3.14676 -2.43032 0
M  V30 3192 N 298.576 1.31904 0.862503 0
M  V30 3193 C 299.524 1.20125 1.9918 0
M  V30 3194 C 300.518 0.107824 1.69056 0
M  V30 3195 O 301.724 0.270223 1.7796 0
M  V30 3196 H 298.099 0.372148 0.65346 0
M  V30 3197 H 300.07 2.15652 2.06244 0
M  V30 3198 C 298.819 0.933099 3.34946 0
M  V30 3199 H 298.142 1.76664 3.5865 0
M  V30 3200 H 299.582 0.890892 4.14535 0
M  V30 3201 C 298.041 -0.364172 3.34926 0
M  V30 3202 O 298.571 -1.37858 3.77304 0
M  V30 3203 N 296.777 -0.383362 2.8806 0
M  V30 3204 H 296.324 0.442651 2.53768 0
M  V30 3205 H 296.282 -1.25123 2.8843 0
M  V30 3206 N 300.054 -1.07777 1.14986 0
M  V30 3207 C 301.47 -1.32373 0.891596 0
M  V30 3208 C 301.67 -1.9609 -0.463788 0
M  V30 3209 O 300.726 -2.21801 -1.20667 0
M  V30 3210 C 302.039 -2.21905 2.02925 0
M  V30 3211 C 303.587 -2.35367 2.06329 0
M  V30 3212 C 304.062 -3.28245 3.19405 0
M  V30 3213 N 305.553 -3.35824 3.19024 0
M  V30 3214 C 306.288 -4.07739 4.03158 0
M  V30 3215 N 305.784 -4.82306 4.97346 0
M  V30 3216 N 307.577 -4.03635 3.91197 0
M  V30 3217 H 299.728 -0.648039 2.02273 0
M  V30 3218 H 301.991 -0.348149 0.881757 0
M  V30 3219 H 301.697 -1.82342 3.0074 0
M  V30 3220 H 301.571 -3.22407 1.95789 0
M  V30 3221 H 303.958 -2.74186 1.09116 0
M  V30 3222 H 304.039 -1.34585 2.17533 0
M  V30 3223 H 303.683 -2.90146 4.16867 0
M  V30 3224 H 303.613 -4.28971 3.05437 0
M  V30 3225 H 306.104 -2.8267 2.50811 0
M  V30 3226 H 306.417 -5.34661 5.57994 0
M  V30 3227 H 304.762 -4.81337 5.01338 0
M  V30 3228 H 307.953 -3.44491 3.16928 0
M  V30 3229 H 308.126 -4.59417 4.5699 0
M  V30 3230 N 301.532 -0.945985 -1.26051 0
M  V30 3231 C 302.757 -0.612525 -1.98149 0
M  V30 3232 C 303.182 0.806623 -1.69927 0
M  V30 3233 O 302.54 1.54411 -0.950108 0
M  V30 3234 C 302.588 -0.866981 -3.50023 0
M  V30 3235 O 301.692 0.0585333 -4.12358 0
M  V30 3236 H 301.033 -0.23379 -0.621481 0
M  V30 3237 H 303.563 -1.27023 -1.60395 0
M  V30 3238 H 303.573 -0.789792 -4.00283 0
M  V30 3239 H 302.248 -1.90135 -3.69894 0
M  V30 3240 H 300.825 -0.0701241 -3.72834 0
M  V30 3241 N 303.011 1.40521 -0.713556 0
M  V30 3242 C 303.941 2.33381 -0.0743864 0
M  V30 3243 C 304.922 1.52784 0.747735 0
M  V30 3244 O 306.107 1.81258 0.697071 0
M  V30 3245 C 303.237 3.36748 0.849598 0
M  V30 3246 C 302.191 4.27793 0.133247 0
M  V30 3247 C 301.517 5.21679 1.17281 0
M  V30 3248 C 302.817 5.12415 -1.01134 0
M  V30 3249 H 304.511 2.87081 -0.850007 0
M  V30 3250 H 302.057 1.38034 -0.410201 0
M  V30 3251 H 304.01 4.00648 1.30612 0
M  V30 3252 H 302.734 2.81439 1.65709 0
M  V30 3253 H 301.393 3.65342 -0.303426 0
M  V30 3254 H 301.041 4.62677 1.9733 0
M  V30 3255 H 300.741 5.83435 0.698397 0
M  V30 3256 H 302.265 5.88456 1.62947 0
M  V30 3257 H 303.679 5.69781 -0.634274 0
M  V30 3258 H 302.076 5.83203 -1.41399 0
M  V30 3259 H 303.146 4.48514 -1.84292 0
M  V30 3260 N 304.489 0.459591 1.5075 0
M  V30 3261 C 305.766 -0.160371 1.94941 0
M  V30 3262 C 306.146 -1.58048 1.39943 0
M  V30 3263 O 305.494 -2.206 0.595629 0
M  V30 3264 C 305.704 -0.115432 3.48809 0
M  V30 3265 C 307.052 -0.310026 4.23467 0
M  V30 3266 O 308.076 -0.192543 3.55679 0
M  V30 3267 O 306.935 -0.546031 5.43765 0
M  V30 3268 H 304.029 -0.117925 0.818549 0
M  V30 3269 H 306.575 0.519169 1.61563 0
M  V30 3270 H 305.347 0.87652 3.81357 0
M  V30 3271 H 304.97 -0.836928 3.88692 0
M  V30 3272 N 305.967 -1.56429 0.191757 0
M  V30 3273 C 307.244 -1.89224 -0.495332 0
M  V30 3274 C 307.624 -1.10478 -1.79883 0
M  V30 3275 O 306.972 -0.204852 -2.2758 0
M  V30 3276 C 307.182 -3.41548 -0.717367 0
M  V30 3277 C 308.53 -4.11711 -1.03823 0
M  V30 3278 O 309.554 -3.4698 -0.805204 0
M  V30 3279 O 308.413 -5.2611 -1.47887 0
M  V30 3280 H 305.507 -0.785788 -0.25781 0
M  V30 3281 H 308.053 -1.68111 0.231721 0
M  V30 3282 H 306.825 -3.90772 0.203287 0
M  V30 3283 H 306.448 -3.68342 -1.497 0
M  V30 3284 N 307.445 0.0818655 -1.57387 0
M  V30 3285 C 308.861 0.436412 -1.53517 0
M  V30 3286 C 309.061 1.79758 -0.910459 0
M  V30 3287 O 308.117 2.47324 -0.508636 0
M  V30 3288 C 309.43 0.386734 -2.98203 0
M  V30 3289 C 310.978 0.467644 -3.09487 0
M  V30 3290 C 311.453 0.447978 -4.55804 0
M  V30 3291 N 312.944 0.508348 -4.60402 0
M  V30 3292 C 313.679 0.515184 -5.71081 0
M  V30 3293 N 313.175 0.477435 -6.91153 0
M  V30 3294 N 314.968 0.560988 -5.59294 0
M  V30 3295 H 307.119 -0.809546 -1.96367 0
M  V30 3296 H 309.382 -0.302733 -0.898363 0
M  V30 3297 H 309.088 -0.546539 -3.47427 0
M  V30 3298 H 308.962 1.20075 -3.57578 0
M  V30 3299 H 311.349 1.39134 -2.60242 0
M  V30 3300 H 311.43 -0.374753 -2.5304 0
M  V30 3301 H 311.074 -0.471826 -5.05704 0
M  V30 3302 H 311.004 1.30777 -5.10103 0
M  V30 3303 H 313.495 0.54218 -3.7399 0
M  V30 3304 H 313.808 0.486299 -7.71268 0
M  V30 3305 H 312.153 0.444278 -6.93579 0
M  V30 3306 H 315.344 0.5881 -4.64391 0
M  V30 3307 H 315.517 0.562846 -6.45551 0
M  V30 3308 N 308.923 1.53595 0.353017 0
M  V30 3309 C 310.148 1.7462 1.11904 0
M  V30 3310 C 310.573 0.479721 1.8188 0
M  V30 3311 O 309.931 -0.567066 1.72204 0
M  V30 3312 C 309.979 2.92029 2.11545 0
M  V30 3313 O 309.083 2.61516 3.18878 0
M  V30 3314 H 308.424 0.579531 0.324099 0
M  V30 3315 H 310.954 2.00525 0.406301 0
M  V30 3316 H 310.964 3.18551 2.5493 0
M  V30 3317 H 309.639 3.83888 1.60008 0
M  V30 3318 H 308.216 2.45852 2.80377 0
M  V30 3319 N 310.401 -0.613514 1.45168 0
M  V30 3320 C 311.817 -0.933629 1.29443 0
M  V30 3321 C 312.017 -2.00028 0.243101 0
M  V30 3322 O 311.073 -2.49848 -0.364992 0
M  V30 3323 C 312.386 -1.38018 2.67155 0
M  V30 3324 C 313.934 -1.49471 2.75004 0
M  V30 3325 C 314.409 -1.97503 4.13227 0
M  V30 3326 N 315.9 -2.04746 4.15491 0
M  V30 3327 C 316.635 -2.43121 5.19307 0
M  V30 3328 N 316.131 -2.80506 6.33473 0
M  V30 3329 N 317.924 -2.43408 5.06664 0
M  V30 3330 H 310.075 0.0916097 2.12202 0
M  V30 3331 H 312.338 -0.0216655 0.947752 0
M  V30 3332 H 312.044 -0.670625 3.45247 0
M  V30 3333 H 311.918 -2.34784 2.95222 0
M  V30 3334 H 314.305 -2.19519 1.9722 0
M  V30 3335 H 314.386 -0.510342 2.50657 0
M  V30 3336 H 314.03 -1.28045 4.91495 0
M  V30 3337 H 313.96 -2.96843 4.34962 0
M  V30 3338 H 316.451 -1.78468 3.33103 0
M  V30 3339 H 316.764 -3.08652 7.08487 0
M  V30 3340 H 315.109 -2.78216 6.36884 0
M  V30 3341 H 318.3 -2.13604 4.16523 0
M  V30 3342 H 318.473 -2.72989 5.87691 0
M  V30 3343 N 311.879 -1.3236 -0.855495 0
M  V30 3344 C 313.109 -1.25688 -1.6397 0
M  V30 3345 C 313.517 0.177592 -1.88365 0
M  V30 3346 O 312.86 1.12485 -1.45234 0
M  V30 3347 C 312.922 -1.94602 -3.02275 0
M  V30 3348 C 312.586 -3.43937 -3.00926 0
M  V30 3349 C 313.583 -4.39435 -2.77835 0
M  V30 3350 C 311.268 -3.85858 -3.21588 0
M  V30 3351 C 313.262 -5.74829 -2.75409 0
M  V30 3352 C 310.949 -5.21361 -3.18789 0
M  V30 3353 C 311.947 -6.15658 -2.95727 0
M  V30 3354 O 311.635 -7.48681 -2.928 0
M  V30 3355 H 311.367 -0.434972 -0.51747 0
M  V30 3356 H 313.921 -1.75023 -1.075 0
M  V30 3357 H 312.151 -1.39836 -3.60531 0
M  V30 3358 H 313.84 -1.81651 -3.62985 0
M  V30 3359 H 314.606 -4.08374 -2.6164 0
M  V30 3360 H 310.485 -3.12883 -3.38564 0
M  V30 3361 H 314.029 -6.48404 -2.57328 0
M  V30 3362 H 309.926 -5.52052 -3.34528 0
M  V30 3363 H 310.694 -7.5803 -3.0876 0
M  V30 3364 N 313.357 1.07166 -1.15556 0
M  V30 3365 C 314.582 1.84053 -0.955988 0
M  V30 3366 C 315.007 1.81586 0.490739 0
M  V30 3367 O 314.365 1.21018 1.34997 0
M  V30 3368 C 314.413 3.28957 -1.47714 0
M  V30 3369 O 313.517 4.06795 -0.677593 0
M  V30 3370 H 312.858 0.569842 -0.340847 0
M  V30 3371 H 315.388 1.35178 -1.53584 0
M  V30 3372 H 315.398 3.79788 -1.4908 0
M  V30 3373 H 314.073 3.30068 -2.53037 0
M  V30 3374 H 312.65 3.6561 -0.733721 0
M  V30 3375 N 314.835 0.952656 1.25548 0
M  V30 3376 C 315.798 0.475794 2.24207 0
M  V30 3377 C 316.798 -0.419428 1.55234 0
M  V30 3378 O 317.988 -0.216994 1.72843 0
M  V30 3379 C 315.12 -0.312814 3.39462 0
M  V30 3380 H 316.313 1.34779 2.67908 0
M  V30 3381 H 313.866 0.735739 1.37901 0
M  V30 3382 H 314.601 -1.20257 3.01179 0
M  V30 3383 H 314.386 0.329404 3.90714 0
M  V30 3384 H 315.876 -0.635986 4.12729 0
M  V30 3385 N 316.313 -1.40141 0.720998 0
M  V30 3386 C 317.561 -2.0039 0.262323 0
M  V30 3387 C 317.882 -1.57469 -1.15015 0
M  V30 3388 O 317.152 -0.816582 -1.78069 0
M  V30 3389 H 315.732 -0.741063 0.093996 0
M  V30 3390 H 318.394 -1.71398 0.927835 0
M  V30 3391 H 317.49 -3.10658 0.299671 0
M  V30 3392 N 317.792 -0.46758 -1.50504 0
M  V30 3393 C 319.203 -0.0116166 -1.86696 0
M  V30 3394 C 319.554 1.39202 -1.38265 0
M  V30 3395 O 318.679 2.0313 -0.746132 0
M  V30 3396 C 319.274 -0.0143044 -3.38797 0
M  V30 3397 C 317.833 0.386175 -3.74414 0
M  V30 3398 C 316.98 -0.401287 -2.74381 0
M  V30 3399 H 319.931 -0.682022 -1.43297 0
M  V30 3400 H 319.952 0.788641 -3.72237 0
M  V30 3401 H 319.464 -1.03602 -3.74016 0
M  V30 3402 H 317.565 1.41237 -3.44794 0
M  V30 3403 H 317.678 0.0899596 -4.79016 0
M  V30 3404 H 316.042 0.144536 -2.5429 0
M  V30 3405 H 316.825 -1.42244 -3.12444 0
M  V30 3406 N 319.27 1.56325 -0.20005 0
M  V30 3407 C 320.518 1.97329 0.436547 0
M  V30 3408 C 320.839 1.08826 1.61808 0
M  V30 3409 O 320.109 0.160604 1.95241 0
M  V30 3410 H 318.689 0.728714 0.164272 0
M  V30 3411 H 321.351 1.92761 -0.287937 0
M  V30 3412 H 320.447 3.02264 0.777353 0
M  V30 3413 N 320.748 -0.0735177 1.57428 0
M  V30 3414 C 322.164 -0.428264 1.53747 0
M  V30 3415 C 322.364 -1.79272 0.91998 0
M  V30 3416 O 321.42 -2.47051 0.521745 0
M  V30 3417 C 322.733 -0.370914 2.98404 0
M  V30 3418 C 324.281 -0.451224 3.0973 0
M  V30 3419 C 324.756 -0.4238 4.56035 0
M  V30 3420 N 326.247 -0.483925 4.60665 0
M  V30 3421 C 326.982 -0.484891 5.71346 0
M  V30 3422 N 326.478 -0.440775 6.91396 0
M  V30 3423 N 328.271 -0.531319 5.59583 0
M  V30 3424 H 320.422 0.819949 1.95935 0
M  V30 3425 H 322.685 0.307493 0.896745 0
M  V30 3426 H 322.391 0.564956 3.47133 0
M  V30 3427 H 322.265 -1.18176 3.5821 0
M  V30 3428 H 324.652 -1.37752 2.60976 0
M  V30 3429 H 324.733 0.388167 2.52838 0
M  V30 3430 H 324.377 0.498638 5.05446 0
M  V30 3431 H 324.307 -1.2807 5.10789 0
M  V30 3432 H 326.798 -0.522338 3.74273 0
M  V30 3433 H 327.111 -0.44539 7.71515 0
M  V30 3434 H 325.456 -0.40749 6.93804 0
M  V30 3435 H 328.647 -0.563464 4.64696 0
M  V30 3436 H 328.82 -0.528603 6.4584 0
M  V30 3437 N 322.226 -1.5378 -0.344866 0
M  V30 3438 C 323.136 -1.84667 -1.4469 0
M  V30 3439 C 324.152 -0.736704 -1.57635 0
M  V30 3440 O 325.328 -1.02888 -1.73136 0
M  V30 3441 C 322.393 -2.04869 -2.79696 0
M  V30 3442 C 321.454 -3.28731 -2.76106 0
M  V30 3443 C 320.687 -3.4796 -4.04673 0
M  V30 3444 O 320.91 -2.71052 -5.01883 0
M  V30 3445 O 319.844 -4.41383 -4.09224 0
M  V30 3446 H 323.67 -2.78334 -1.21506 0
M  V30 3447 H 321.255 -1.39418 -0.536921 0
M  V30 3448 H 323.137 -2.19609 -3.59652 0
M  V30 3449 H 321.812 -1.14391 -3.02814 0
M  V30 3450 H 320.719 -3.19396 -1.94774 0
M  V30 3451 H 322.052 -4.19198 -2.57941 0
M  V30 3452 N 323.704 0.605807 -1.45491 0
M  V30 3453 C 325.115 1.18777 -1.44045 0
M  V30 3454 C 325.466 1.95471 -0.169001 0
M  V30 3455 O 324.591 2.0374 0.729324 0
M  V30 3456 C 325.186 2.16064 -2.60963 0
M  V30 3457 C 323.745 2.69633 -2.62631 0
M  V30 3458 C 322.892 1.45072 -2.36325 0
M  V30 3459 H 325.843 0.395017 -1.53705 0
M  V30 3460 H 325.864 2.9913 -2.35163 0
M  V30 3461 H 325.376 1.60217 -3.53486 0
M  V30 3462 H 323.477 3.29414 -1.74119 0
M  V30 3463 H 323.59 3.13944 -3.61906 0
M  V30 3464 H 321.954 1.74089 -1.85917 0
M  V30 3465 H 322.737 0.910899 -3.30995 0
M  V30 3466 N 325.182 1.32811 0.848464 0
M  V30 3467 C 326.407 1.26882 1.6406 0
M  V30 3468 C 326.832 -0.15913 1.87426 0
M  V30 3469 O 326.19 -1.11258 1.43148 0
M  V30 3470 C 326.238 2.03997 2.97351 0
M  V30 3471 O 325.342 1.39201 3.88197 0
M  V30 3472 H 324.683 0.436982 0.499943 0
M  V30 3473 H 327.213 1.75224 1.0563 0
M  V30 3474 H 327.223 2.14403 3.47124 0
M  V30 3475 H 325.898 3.0783 2.79666 0
M  V30 3476 H 324.475 1.37381 3.46671 0
M  V30 3477 N 326.66 -1.06551 1.16123 0
M  V30 3478 C 327.908 -1.78947 0.939267 0
M  V30 3479 C 328.229 -1.87532 -0.534476 0
M  V30 3480 O 327.499 -1.38211 -1.38833 0
M  V30 3481 H 326.079 -0.662807 0.344523 0
M  V30 3482 H 328.741 -1.28725 1.46342 0
M  V30 3483 H 327.837 -2.81117 1.35572 0
M  V30 3484 N 328.138 -0.959301 -1.25041 0
M  V30 3485 C 329.387 -0.612254 -1.92183 0
M  V30 3486 C 329.7 0.855347 -1.75907 0
M  V30 3487 O 330.906 1.31256 -2.37664 0
M  V30 3488 C 329.362 -1.04435 -3.44414 0
M  V30 3489 C 328.97 -2.53482 -3.69393 0
M  V30 3490 C 330.714 -0.770055 -4.17457 0
M  V30 3491 C 328.621 -2.90468 -5.15153 0
M  V30 3492 H 327.551 -0.225279 -0.719559 0
M  V30 3493 H 330.202 -1.16438 -1.41825 0
M  V30 3494 H 328.584 -0.4206 -3.9376 0
M  V30 3495 H 329.758 -3.20916 -3.30681 0
M  V30 3496 H 328.073 -2.78432 -3.0962 0
M  V30 3497 H 330.67 -1.02249 -5.24832 0
M  V30 3498 H 331.013 0.293611 -4.15263 0
M  V30 3499 H 331.546 -1.35437 -3.74034 0
M  V30 3500 H 328.285 -3.95871 -5.22462 0
M  V30 3501 H 327.805 -2.27711 -5.54894 0
M  V30 3502 H 329.484 -2.79914 -5.83315 0
M  V30 3503 N 329.616 1.39756 -0.72842 0
M  V30 3504 C 330.865 1.99879 -0.270407 0
M  V30 3505 C 331.178 1.58449 1.14688 0
M  V30 3506 O 332.384 2.11362 1.70407 0
M  V30 3507 C 330.84 3.57292 -0.43252 0
M  V30 3508 C 330.448 4.07688 -1.85727 0
M  V30 3509 C 332.192 4.24485 -0.0359507 0
M  V30 3510 C 330.099 5.5765 -1.96928 0
M  V30 3511 H 329.029 0.747689 -0.0973472 0
M  V30 3512 H 331.68 1.59837 -0.901355 0
M  V30 3513 H 330.062 3.95097 0.267219 0
M  V30 3514 H 331.236 3.81231 -2.58843 0
M  V30 3515 H 329.551 3.53135 -2.20646 0
M  V30 3516 H 332.148 5.34609 -0.0987484 0
M  V30 3517 H 332.491 4.03915 1.00787 0
M  V30 3518 H 333.024 3.9183 -0.686604 0
M  V30 3519 H 329.763 5.8309 -2.99476 0
M  V30 3520 H 329.283 5.8593 -1.28241 0
M  V30 3521 H 330.962 6.22957 -1.74737 0
M  V30 3522 N 331.094 0.475555 1.50254 0
M  V30 3523 C 332.004 -0.321501 2.32387 0
M  V30 3524 C 333.02 -0.991755 1.42969 0
M  V30 3525 O 334.196 -0.978747 1.76018 0
M  V30 3526 C 331.261 -1.38667 3.17762 0
M  V30 3527 C 330.322 -0.732538 4.23004 0
M  V30 3528 C 329.555 -1.74695 5.04299 0
M  V30 3529 O 329.778 -2.97399 4.86734 0
M  V30 3530 O 328.712 -1.31631 5.8733 0
M  V30 3531 H 332.538 0.350071 3.01676 0
M  V30 3532 H 330.123 0.237321 1.47503 0
M  V30 3533 H 332.005 -2.00354 3.70724 0
M  V30 3534 H 330.68 -2.04163 2.51196 0
M  V30 3535 H 329.587 -0.0765902 3.74022 0
M  V30 3536 H 330.92 -0.120452 4.92053 0
M  V30 3537 N 332.573 -1.56217 0.208337 0
M  V30 3538 C 333.536 -2.18455 -0.693557 0
M  V30 3539 C 334.536 -1.14268 -1.13135 0
M  V30 3540 O 335.726 -1.39577 -1.0423 0
M  V30 3541 C 332.858 -2.79727 -1.94848 0
M  V30 3542 H 334.051 -2.99519 -0.15114 0
M  V30 3543 H 331.604 -1.56245 -0.041287 0
M  V30 3544 H 332.339 -2.02497 -2.53309 0
M  V30 3545 H 332.124 -3.56009 -1.64316 0
M  V30 3546 H 333.614 -3.27475 -2.59133 0
M  V30 3547 N 334.051 0.0651679 -1.57465 0
M  V30 3548 C 335.3 0.761916 -1.86756 0
M  V30 3549 C 335.613 1.78406 -0.801925 0
M  V30 3550 O 336.819 2.53084 -0.982885 0
M  V30 3551 C 335.275 1.40603 -3.31299 0
M  V30 3552 C 334.883 0.422115 -4.46007 0
M  V30 3553 C 336.627 2.08476 -3.69781 0
M  V30 3554 C 334.534 1.07252 -5.81593 0
M  V30 3555 H 333.464 0.288308 -0.696702 0
M  V30 3556 H 336.115 0.015344 -1.83494 0
M  V30 3557 H 334.497 2.20109 -3.29193 0
M  V30 3558 H 335.671 -0.343613 -4.59517 0
M  V30 3559 H 333.986 -0.152527 -4.16121 0
M  V30 3560 H 336.583 2.57925 -4.68379 0
M  V30 3561 H 336.926 2.88712 -2.99919 0
M  V30 3562 H 337.459 1.35792 -3.73905 0
M  V30 3563 H 334.198 0.310342 -6.54765 0
M  V30 3564 H 333.718 1.80895 -5.71872 0
M  V30 3565 H 335.397 1.59043 -6.27148 0
M  V30 3566 N 335.529 1.53961 0.336706 0
M  V30 3567 C 336.769 1.73254 1.08454 0
M  V30 3568 C 337.133 0.488937 1.8567 0
M  V30 3569 O 338.334 0.559001 2.62923 0
M  V30 3570 C 336.605 2.96519 1.99528 0
M  V30 3571 S 338.164 3.36655 2.81441 0
M  V30 3572 H 334.982 0.609353 0.366347 0
M  V30 3573 H 337.584 1.92117 0.362124 0
M  V30 3574 H 336.288 3.85193 1.41614 0
M  V30 3575 H 335.819 2.80142 2.76196 0
M  V30 3576 H 337.834 2.90925 4.01967 0
M  V30 3577 N 337.007 -0.598083 1.45811 0
M  V30 3578 C 338.256 -1.35295 1.49594 0
M  V30 3579 C 338.569 -1.95057 0.145679 0
M  V30 3580 O 339.775 -2.71431 0.0612099 0
M  V30 3581 C 338.231 -2.45124 2.63519 0
M  V30 3582 C 337.839 -1.91732 4.04899 0
M  V30 3583 C 339.583 -3.2205 2.76558 0
M  V30 3584 C 337.49 -2.991 5.1019 0
M  V30 3585 H 336.42 -0.508552 0.556679 0
M  V30 3586 H 339.071 -0.639977 1.71978 0
M  V30 3587 H 337.453 -3.19149 2.34435 0
M  V30 3588 H 338.627 -1.24352 4.43704 0
M  V30 3589 H 336.942 -1.27522 3.96393 0
M  V30 3590 H 339.539 -4.0215 3.52391 0
M  V30 3591 H 339.882 -3.73663 1.83526 0
M  V30 3592 H 340.415 -2.55127 3.05213 0
M  V30 3593 H 337.154 -2.52393 6.04961 0
M  V30 3594 H 336.674 -3.65017 4.75944 0
M  V30 3595 H 338.353 -3.63318 5.35359 0
M  V30 3596 N 338.485 -1.33259 -0.841409 0
M  V30 3597 C 339.733 -1.24326 -1.59334 0
M  V30 3598 C 340.054 0.191564 -1.94057 0
M  V30 3599 O 339.324 1.11967 -1.60749 0
M  V30 3600 H 337.904 -0.457174 -0.590763 0
M  V30 3601 H 340.566 -1.66947 -1.00571 0
M  V30 3602 H 339.662 -1.8352 -2.52442 0
M  V30 3603 N 339.963 1.05934 -1.16686 0
M  V30 3604 C 341.209 1.79211 -0.962023 0
M  V30 3605 C 341.564 1.85667 0.504545 0
M  V30 3606 O 340.857 1.33991 1.36956 0
M  V30 3607 C 341.051 3.23105 -1.52767 0
M  V30 3608 C 340.88 3.30673 -3.04771 0
M  V30 3609 C 339.65 3.40395 -3.73442 0
M  V30 3610 C 341.848 3.20234 -4.02436 0
M  V30 3611 N 339.83 3.37015 -5.13122 0
M  V30 3612 C 341.201 3.24138 -5.28521 0
M  V30 3613 C 343.256 3.04143 -3.9421 0
M  V30 3614 C 341.959 3.13607 -6.47336 0
M  V30 3615 C 343.985 2.94951 -5.12599 0
M  V30 3616 C 343.347 2.99481 -6.37566 0
M  V30 3617 H 339.446 0.668442 -0.405844 0
M  V30 3618 H 342.03 1.26341 -1.48142 0
M  V30 3619 H 340.201 3.74364 -1.03471 0
M  V30 3620 H 341.933 3.84579 -1.26021 0
M  V30 3621 H 338.688 3.45344 -3.2409 0
M  V30 3622 H 339.112 3.38815 -5.86117 0
M  V30 3623 H 343.754 2.99484 -2.98445 0
M  V30 3624 H 341.472 3.17022 -7.43319 0
M  V30 3625 H 345.058 2.83583 -5.08008 0
M  V30 3626 H 343.938 2.92431 -7.27636 0
M  V30 3627 N 341.441 0.965919 1.2453 0
M  V30 3628 C 342.688 0.626831 1.92554 0
M  V30 3629 C 343.016 -0.837739 1.75534 0
M  V30 3630 O 342.271 -1.61793 1.10098 0
M  V30 3631 C 342.57 0.945428 3.44669 0
M  V30 3632 C 342.236 2.39785 3.81856 0
M  V30 3633 C 340.898 2.79483 3.91718 0
M  V30 3634 C 343.25 3.34055 4.00071 0
M  V30 3635 C 340.578 4.12496 4.1721 0
M  V30 3636 C 342.93 4.66694 4.27059 0
M  V30 3637 C 341.594 5.06172 4.3514 0
M  V30 3638 H 340.864 0.229374 0.704605 0
M  V30 3639 H 343.511 1.21707 1.4785 0
M  V30 3640 H 341.816 0.272926 3.90848 0
M  V30 3641 H 343.513 0.661484 3.95507 0
M  V30 3642 H 340.103 2.08003 3.74743 0
M  V30 3643 H 344.287 3.04571 3.91855 0
M  V30 3644 H 339.543 4.42709 4.21685 0
M  V30 3645 H 343.717 5.3971 4.40097 0
M  V30 3646 H 341.344 6.09262 4.54646 0
M  V30 3647 N 342.919 -1.39368 0.735821 0
M  V30 3648 C 344.147 -2.04795 0.294393 0
M  V30 3649 C 344.562 -1.55478 -1.07107 0
M  V30 3650 O 343.919 -0.720038 -1.67695 0
M  V30 3651 C 343.97 -3.6035 0.288071 0
M  V30 3652 O 343.691 -4.07852 1.59963 0
M  V30 3653 C 345.192 -4.42976 -0.169422 0
M  V30 3654 H 342.412 -0.658571 0.128551 0
M  V30 3655 H 344.956 -1.78399 0.999701 0
M  V30 3656 H 343.111 -3.85645 -0.368355 0
M  V30 3657 H 343.525 -5.02181 1.51375 0
M  V30 3658 H 344.999 -5.51864 -0.122687 0
M  V30 3659 H 345.476 -4.22068 -1.21472 0
M  V30 3660 H 346.082 -4.22832 0.457469 0
M  V30 3661 N 344.397 -0.483516 -1.5 0
M  V30 3662 C 345.36 0.292965 -2.2732 0
M  V30 3663 C 346.36 0.909499 -1.32608 0
M  V30 3664 O 347.55 0.776745 -1.55924 0
M  V30 3665 C 344.682 1.41854 -3.09984 0
M  V30 3666 H 345.875 -0.385289 -2.97415 0
M  V30 3667 H 343.428 -0.237942 -1.54478 0
M  V30 3668 H 344.163 2.13148 -2.44414 0
M  V30 3669 H 343.948 0.982114 -3.79601 0
M  V30 3670 H 345.438 1.96597 -3.68429 0
M  V30 3671 N 345.875 1.56104 -0.216619 0
M  V30 3672 C 346.785 2.23694 0.706982 0
M  V30 3673 C 347.801 1.24295 1.21765 0
M  V30 3674 O 348.977 1.57094 1.2603 0
M  V30 3675 C 346.042 2.8998 1.90033 0
M  V30 3676 C 345.103 4.04708 1.43213 0
M  V30 3677 C 344.336 4.67824 2.56859 0
M  V30 3678 O 344.559 4.29913 3.74874 0
M  V30 3679 O 343.493 5.56905 2.28343 0
M  V30 3680 H 347.319 3.03272 0.161235 0
M  V30 3681 H 344.904 1.49394 0.0136177 0
M  V30 3682 H 346.786 3.31837 2.59735 0
M  V30 3683 H 345.461 2.13365 2.43428 0
M  V30 3684 H 344.368 3.6743 0.70327 0
M  V30 3685 H 345.701 4.83051 0.944615 0
M  V30 3686 N 347.353 -0.0568162 1.57498 0
M  V30 3687 C 348.593 -0.758273 1.89815 0
M  V30 3688 C 348.957 -1.73978 0.812132 0
M  V30 3689 O 350.158 -2.48744 1.01881 0
M  V30 3690 C 348.429 -1.43465 3.27342 0
M  V30 3691 S 349.988 -2.1691 3.81439 0
M  V30 3692 H 346.806 -0.251836 0.664906 0
M  V30 3693 H 349.408 -0.0137997 1.95495 0
M  V30 3694 H 348.112 -0.706693 4.0427 0
M  V30 3695 H 347.643 -2.21825 3.24896 0
M  V30 3696 H 349.658 -3.43658 3.5793 0
M  V30 3697 N 348.832 -1.54138 -0.328536 0
M  V30 3698 C 350.081 -1.71318 -1.06456 0
M  V30 3699 C 350.394 -0.491109 -1.89334 0
M  V30 3700 O 351.6 -0.54416 -2.65991 0
M  V30 3701 C 350.056 -3.03 -1.94214 0
M  V30 3702 C 349.664 -4.32595 -1.16471 0
M  V30 3703 C 351.408 -3.29544 -2.67583 0
M  V30 3704 C 349.315 -5.55341 -2.03347 0
M  V30 3705 H 348.245 -0.638429 -0.401155 0
M  V30 3706 H 350.896 -1.80633 -0.323106 0
M  V30 3707 H 349.278 -2.87579 -2.72239 0
M  V30 3708 H 350.452 -4.58766 -0.432525 0
M  V30 3709 H 348.767 -4.12777 -0.548063 0
M  V30 3710 H 351.364 -4.18444 -3.3288 0
M  V30 3711 H 351.707 -2.47206 -3.34955 0
M  V30 3712 H 352.24 -3.45809 -1.96623 0
M  V30 3713 H 348.979 -6.40268 -1.40491 0
M  V30 3714 H 348.499 -5.33397 -2.74313 0
M  V30 3715 H 350.178 -5.91557 -2.62049 0
M  V30 3716 N 350.31 0.590341 -1.46126 0
M  V30 3717 C 351.556 1.35082 -1.51264 0
M  V30 3718 C 351.889 1.93534 -0.160711 0
M  V30 3719 O 351.164 1.76045 0.826956 0
M  V30 3720 C 351.447 2.48588 -2.6053 0
M  V30 3721 C 351.3 1.95221 -4.05227 0
M  V30 3722 C 352.619 3.50662 -2.6594 0
M  V30 3723 H 349.738 0.489803 -0.550692 0
M  V30 3724 H 352.38 0.663887 -1.78024 0
M  V30 3725 H 350.53 3.07186 -2.37843 0
M  V30 3726 H 352.202 1.41139 -4.39178 0
M  V30 3727 H 350.445 1.26101 -4.15068 0
M  V30 3728 H 351.116 2.77121 -4.77397 0
M  V30 3729 H 353.592 3.01934 -2.86313 0
M  V30 3730 H 352.468 4.27551 -3.44226 0
M  V30 3731 H 352.729 4.07399 -1.71694 0
M  V30 3732 N 351.788 1.33704 0.83433 0
M  V30 3733 C 353.204 1.13137 1.12571 0
M  V30 3734 C 353.404 -0.0747261 2.01361 0
M  V30 3735 O 352.46 -0.753647 2.4099 0
M  V30 3736 C 353.773 2.42105 1.78342 0
M  V30 3737 C 355.321 2.48054 1.90888 0
M  V30 3738 C 355.796 3.76995 2.60075 0
M  V30 3739 N 357.287 3.78092 2.67584 0
M  V30 3740 C 358.022 4.74574 3.21818 0
M  V30 3741 N 357.518 5.81434 3.76705 0
M  V30 3742 N 359.311 4.62044 3.20112 0
M  V30 3743 H 351.462 2.11 0.243489 0
M  V30 3744 H 353.725 0.932532 0.17055 0
M  V30 3745 H 353.431 3.30391 1.20561 0
M  V30 3746 H 353.305 2.54594 2.7832 0
M  V30 3747 H 355.692 1.60215 2.47821 0
M  V30 3748 H 355.773 2.39502 0.898459 0
M  V30 3749 H 355.417 4.65219 2.03799 0
M  V30 3750 H 355.347 3.82825 3.61597 0
M  V30 3751 H 357.838 3.00865 2.28667 0
M  V30 3752 H 358.151 6.51084 4.16305 0
M  V30 3753 H 356.496 5.85163 3.7498 0
M  V30 3754 H 359.687 3.77716 2.76493 0
M  V30 3755 H 359.86 5.37406 3.62076 0
M  V30 3756 N 353.266 -1.05314 1.17247 0
M  V30 3757 C 354.513 -1.78293 0.960091 0
M  V30 3758 C 354.841 -1.87658 -0.51136 0
M  V30 3759 O 354.096 -1.3718 -1.39571 0
M  V30 3760 C 354.395 -3.2229 1.54479 0
M  V30 3761 C 354.061 -3.32987 3.04024 0
M  V30 3762 C 352.723 -3.35613 3.44844 0
M  V30 3763 C 355.075 -3.34102 4.00031 0
M  V30 3764 C 352.403 -3.36982 4.8027 0
M  V30 3765 C 354.755 -3.3701 5.35357 0
M  V30 3766 C 353.419 -3.37923 5.75642 0
M  V30 3767 H 352.689 -0.652422 0.351322 0
M  V30 3768 H 355.336 -1.23782 1.46117 0
M  V30 3769 H 353.641 -3.7972 0.965391 0
M  V30 3770 H 355.338 -3.77376 1.35603 0
M  V30 3771 H 351.928 -3.31655 2.71483 0
M  V30 3772 H 356.112 -3.31276 3.69554 0
M  V30 3773 H 351.368 -3.35999 5.10798 0
M  V30 3774 H 355.542 -3.36822 6.09528 0
M  V30 3775 H 353.169 -3.38738 6.80559 0
M  V30 3776 N 354.744 -0.972509 -1.24016 0
M  V30 3777 C 355.993 -0.632603 -1.91523 0
M  V30 3778 C 356.306 0.836641 -1.76804 0
M  V30 3779 O 357.512 1.28728 -2.39043 0
M  V30 3780 C 355.968 -1.08082 -3.43287 0
M  V30 3781 C 355.576 -2.57386 -3.66683 0
M  V30 3782 C 357.32 -0.814288 -4.16617 0
M  V30 3783 C 355.227 -2.95915 -5.12043 0
M  V30 3784 H 354.157 -0.232898 -0.717129 0
M  V30 3785 H 356.808 -1.17936 -1.40582 0
M  V30 3786 H 355.19 -0.462339 -3.93292 0
M  V30 3787 H 356.364 -3.24405 -3.27258 0
M  V30 3788 H 354.679 -2.81701 -3.06649 0
M  V30 3789 H 357.276 -1.0781 -5.23718 0
M  V30 3790 H 357.619 0.24955 -4.15551 0
M  V30 3791 H 358.152 -1.39397 -3.72577 0
M  V30 3792 H 354.891 -4.0139 -5.18234 0
M  V30 3793 H 354.411 -2.33584 -5.52448 0
M  V30 3794 H 356.09 -2.86086 -5.80314 0
M  V30 3795 N 356.222 1.38976 -0.743202 0
M  V30 3796 C 357.468 2.0064 -0.295189 0
M  V30 3797 C 357.801 1.5885 1.11716 0
M  V30 3798 O 357.076 0.821181 1.76315 0
M  V30 3799 C 357.359 3.578 -0.406318 0
M  V30 3800 C 357.212 4.09586 -1.85903 0
M  V30 3801 C 358.531 4.39616 0.206439 0
M  V30 3802 H 355.65 0.728935 -0.108733 0
M  V30 3803 H 358.292 1.65067 -0.940897 0
M  V30 3804 H 356.442 3.88235 0.143419 0
M  V30 3805 H 358.114 3.89837 -2.46627 0
M  V30 3806 H 356.357 3.6284 -2.3776 0
M  V30 3807 H 357.028 5.18708 -1.888 0
M  V30 3808 H 359.504 4.15273 -0.262283 0
M  V30 3809 H 358.38 5.48812 0.0983819 0
M  V30 3810 H 358.641 4.22754 1.2935 0
M  V30 3811 N 357.7 0.491464 1.49741 0
M  V30 3812 C 358.925 -0.0557177 2.07325 0
M  V30 3813 C 359.35 -1.30925 1.35056 0
M  V30 3814 O 358.708 -1.76733 0.404365 0
M  V30 3815 C 358.756 -0.302074 3.59333 0
M  V30 3816 O 357.86 -1.37868 3.88672 0
M  V30 3817 H 357.201 0.0219956 0.663636 0
M  V30 3818 H 359.731 0.688352 1.92673 0
M  V30 3819 H 359.741 -0.536464 4.04458 0
M  V30 3820 H 358.416 0.61383 4.11345 0
M  V30 3821 H 356.993 -1.12999 3.55367 0
M  V30 3822 N 359.178 -1.55987 0.224894 0
M  V30 3823 C 360.125 -2.20436 -0.68385 0
M  V30 3824 C 361.095 -1.16102 -1.18783 0
M  V30 3825 O 362.28 -1.4447 -1.24632 0
M  V30 3826 C 359.42 -2.89076 -1.88491 0
M  V30 3827 C 358.533 -4.08012 -1.41951 0
M  V30 3828 C 357.668 -4.64426 -2.5784 0
M  V30 3829 C 356.707 -5.75656 -2.08053 0
M  V30 3830 N 355.844 -6.26347 -3.17227 0
M  V30 3831 H 360.684 -2.97727 -0.12754 0
M  V30 3832 H 358.221 -1.47011 -0.0511978 0
M  V30 3833 H 360.179 -3.27059 -2.59014 0
M  V30 3834 H 358.809 -2.14298 -2.41405 0
M  V30 3835 H 357.861 -3.75492 -0.609095 0
M  V30 3836 H 359.173 -4.88375 -1.01447 0
M  V30 3837 H 358.327 -5.04869 -3.3644 0
M  V30 3838 H 357.066 -3.83233 -3.01635 0
M  V30 3839 H 356.071 -5.34712 -1.27916 0
M  V30 3840 H 357.296 -6.58686 -1.65255 0
M  V30 3841 H 355.242 -5.48067 -3.60497 0
M  V30 3842 H 355.159 -7.01843 -2.80986 0
M  V30 3843 H 356.427 -6.71447 -3.95953 0
M  V30 3844 N 360.656 0.0484629 -1.57525 0
M  V30 3845 C 361.604 1.07359 -2.06341 0
M  V30 3846 C 362.598 1.3865 -0.973269 0
M  V30 3847 O 363.804 1.37783 -1.15827 0
M  V30 3848 H 360.179 0.363662 -0.65822 0
M  V30 3849 H 362.15 0.635916 -2.91545 0
M  V30 3850 C 360.899 2.37198 -2.54229 0
M  V30 3851 H 360.222 2.13977 -3.37719 0
M  V30 3852 H 361.662 3.07319 -2.92115 0
M  V30 3853 C 360.121 3.04805 -1.43511 0
M  V30 3854 O 360.651 3.93848 -0.79034 0
M  V30 3855 N 358.857 2.65811 -1.17444 0
M  V30 3856 H 358.404 1.93488 -1.70059 0
M  V30 3857 H 358.362 3.11366 -0.435737 0
M  V30 3858 N 362.134 1.5431 0.320358 0
M  V30 3859 C 363.081 1.83918 1.39438 0
M  V30 3860 C 364.051 0.686525 1.51248 0
M  V30 3861 O 365.236 0.933269 1.66417 0
M  V30 3862 C 362.376 2.075 2.75749 0
M  V30 3863 C 361.489 3.35177 2.72544 0
M  V30 3864 C 360.624 3.48704 4.00723 0
M  V30 3865 C 359.663 4.70244 3.91838 0
M  V30 3866 N 358.8 4.80679 5.11754 0
M  V30 3867 H 363.64 2.75544 1.13489 0
M  V30 3868 H 361.177 1.36459 0.549309 0
M  V30 3869 H 363.135 2.19166 3.54996 0
M  V30 3870 H 361.765 1.19163 3 0
M  V30 3871 H 360.817 3.32233 1.85271 0
M  V30 3872 H 362.129 4.24534 2.61863 0
M  V30 3873 H 361.283 3.59928 4.88402 0
M  V30 3874 H 360.022 2.57445 4.14214 0
M  V30 3875 H 359.027 4.59072 3.02544 0
M  V30 3876 H 360.252 5.6289 3.7991 0
M  V30 3877 H 358.198 3.92337 5.25745 0
M  V30 3878 H 358.115 5.64007 5.0342 0
M  V30 3879 H 359.383 4.96239 6.01138 0
M  V30 3880 N 363.613 -0.582584 1.46437 0
M  V30 3881 C 364.853 -1.35184 1.53312 0
M  V30 3882 C 365.217 -1.9115 0.180508 0
M  V30 3883 O 366.418 -2.68514 0.124017 0
M  V30 3884 C 364.689 -2.45089 2.60127 0
M  V30 3885 S 366.248 -3.32439 2.86408 0
M  V30 3886 H 363.066 -0.460559 0.54167 0
M  V30 3887 H 365.668 -0.669709 1.83671 0
M  V30 3888 H 364.372 -2.02366 3.57038 0
M  V30 3889 H 363.903 -3.18074 2.315 0
M  V30 3890 H 365.918 -4.43924 2.21688 0
M  V30 3891 N 365.091 -1.34144 -0.827227 0
M  V30 3892 C 366.001 -1.27428 -1.96975 0
M  V30 3893 C 367.017 -0.182728 -1.73038 0
M  V30 3894 O 368.193 -0.408426 -1.97215 0
M  V30 3895 C 365.258 -1.02526 -3.31194 0
M  V30 3896 C 364.319 -2.20796 -3.68168 0
M  V30 3897 C 363.552 -1.97073 -4.95982 0
M  V30 3898 O 363.775 -0.926822 -5.6282 0
M  V30 3899 O 362.709 -2.83912 -5.30733 0
M  V30 3900 H 366.535 -2.23537 -2.05584 0
M  V30 3901 H 364.12 -1.14307 -0.961989 0
M  V30 3902 H 366.002 -0.904026 -4.11589 0
M  V30 3903 H 364.677 -0.0945389 -3.23562 0
M  V30 3904 H 363.584 -2.38477 -2.88235 0
M  V30 3905 H 364.917 -3.12243 -3.8048 0
M  V30 3906 N 366.569 1.04691 -1.17803 0
M  V30 3907 C 367.816 1.77782 -0.969532 0
M  V30 3908 C 368.144 1.87926 0.501401 0
M  V30 3909 O 367.399 1.37918 1.38842 0
M  V30 3910 C 367.698 3.21467 -1.56186 0
M  V30 3911 C 367.364 3.3137 -3.05786 0
M  V30 3912 C 366.026 3.3378 -3.46619 0
M  V30 3913 C 368.378 3.31976 -4.01797 0
M  V30 3914 C 365.706 3.34431 -4.82051 0
M  V30 3915 C 368.058 3.34167 -5.37136 0
M  V30 3916 C 366.722 3.34866 -5.77426 0
M  V30 3917 H 365.992 0.650549 -0.354777 0
M  V30 3918 H 368.639 1.23006 -1.46772 0
M  V30 3919 H 366.944 3.79203 -0.985515 0
M  V30 3920 H 368.641 3.76652 -1.37602 0
M  V30 3921 H 365.231 3.3021 -2.73238 0
M  V30 3922 H 369.415 3.29311 -3.71306 0
M  V30 3923 H 364.671 3.33285 -5.12573 0
M  V30 3924 H 368.845 3.33585 -6.11305 0
M  V30 3925 H 366.472 3.35124 -6.82346 0
M  V30 3926 N 368.047 0.979072 1.23499 0
M  V30 3927 C 369.293 0.648178 1.92163 0
M  V30 3928 C 369.626 -0.816049 1.76222 0
M  V30 3929 O 368.901 -1.58849 1.12237 0
M  V30 3930 C 369.184 1.03773 3.44824 0
M  V30 3931 C 369.037 2.55948 3.69879 0
M  V30 3932 C 370.356 0.580653 4.36253 0
M  V30 3933 H 367.475 0.236952 0.69787 0
M  V30 3934 H 370.117 1.22012 1.45647 0
M  V30 3935 H 368.267 0.551058 3.84572 0
M  V30 3936 H 369.939 3.12179 3.3962 0
M  V30 3937 H 368.182 2.98641 3.14636 0
M  V30 3938 H 368.853 2.78255 4.76737 0
M  V30 3939 H 371.329 0.998465 4.03943 0
M  V30 3940 H 370.205 0.881663 5.41773 0
M  V30 3941 H 370.466 -0.519052 4.39042 0
M  V30 3942 N 369.525 -1.3858 0.750561 0
M  V30 3943 C 370.472 -2.30483 0.120835 0
M  V30 3944 C 371.442 -1.50022 -0.712923 0
M  V30 3945 O 372.627 -1.78662 -0.669676 0
M  V30 3946 C 369.767 -3.36431 -0.768666 0
M  V30 3947 C 368.88 -4.31927 0.0793922 0
M  V30 3948 C 368.015 -5.24944 -0.81283 0
M  V30 3949 C 367.054 -6.12088 0.0390447 0
M  V30 3950 N 366.191 -6.97412 -0.809969 0
M  V30 3951 H 371.031 -2.83761 0.91015 0
M  V30 3952 H 368.568 -1.39707 0.460463 0
M  V30 3953 H 370.526 -3.96462 -1.29898 0
M  V30 3954 H 369.156 -2.8457 -1.5238 0
M  V30 3955 H 368.208 -3.73382 0.727303 0
M  V30 3956 H 369.52 -4.93319 0.737401 0
M  V30 3957 H 368.674 -5.90078 -1.41042 0
M  V30 3958 H 367.413 -4.63911 -1.50458 0
M  V30 3959 H 366.418 -5.45952 0.649328 0
M  V30 3960 H 367.643 -6.75189 0.727809 0
M  V30 3961 H 365.589 -6.38931 -1.48672 0
M  V30 3962 H 365.506 -7.55712 -0.208789 0
M  V30 3963 H 366.774 -7.66959 -1.39263 0
M  V30 3964 N 371.003 -0.499398 -1.49478 0
M  V30 3965 C 372.419 -0.155261 -1.58843 0
M  V30 3966 C 372.619 1.34008 -1.50479 0
M  V30 3967 O 371.675 2.11589 -1.37791 0
M  V30 3968 C 372.988 -0.730636 -2.91689 0
M  V30 3969 C 374.536 -0.696599 -3.0515 0
M  V30 3970 C 375.011 -1.25001 -4.40612 0
M  V30 3971 N 376.502 -1.21064 -4.47099 0
M  V30 3972 C 377.237 -1.60905 -5.50361 0
M  V30 3973 N 376.733 -2.08331 -6.60735 0
M  V30 3974 N 378.526 -1.52331 -5.41065 0
M  V30 3975 H 370.677 -1.47162 -1.53158 0
M  V30 3976 H 372.94 -0.610309 -0.725415 0
M  V30 3977 H 372.646 -1.77928 -3.03372 0
M  V30 3978 H 372.52 -0.190161 -3.7672 0
M  V30 3979 H 374.907 0.343204 -2.93097 0
M  V30 3980 H 374.988 -1.2742 -2.21806 0
M  V30 3981 H 374.632 -2.28859 -4.53416 0
M  V30 3982 H 374.562 -0.64836 -5.22593 0
M  V30 3983 H 377.053 -0.863128 -3.67911 0
M  V30 3984 H 377.366 -2.36805 -7.35624 0
M  V30 3985 H 375.711 -2.12304 -6.6178 0
M  V30 3986 H 378.902 -1.151 -4.53729 0
M  V30 3987 H 379.075 -1.83704 -6.21415 0
M  V30 3988 N 372.481 1.55866 -0.233164 0
M  V30 3989 C 373.892 1.847 0.272554 0
M  V30 3990 C 374.243 1.15477 1.58617 0
M  V30 3991 O 373.368 0.42841 2.12117 0
M  V30 3992 C 373.963 3.35071 0.501299 0
M  V30 3993 C 372.522 3.6418 0.951304 0
M  V30 3994 C 371.669 2.77292 0.0208209 0
M  V30 3995 H 374.62 1.52005 -0.456074 0
M  V30 3996 H 374.641 3.55906 1.34577 0
M  V30 3997 H 374.153 3.85424 -0.454936 0
M  V30 3998 H 372.254 3.19293 1.92049 0
M  V30 3999 H 372.367 4.72071 0.817675 0
M  V30 4000 H 370.731 2.49131 0.529723 0
M  V30 4001 H 371.514 3.30448 -0.93054 0
M  V30 4002 N 373.959 -0.0401083 1.57549 0
M  V30 4003 C 374.889 -1.04384 2.08869 0
M  V30 4004 C 375.87 -1.38407 0.988817 0
M  V30 4005 O 377.055 -1.47483 1.26342 0
M  V30 4006 C 374.185 -2.34808 2.55895 0
M  V30 4007 C 373.139 -2.15057 3.70047 0
M  V30 4008 C 372.465 -3.51145 4.03239 0
M  V30 4009 C 373.765 -1.54576 4.98902 0
M  V30 4010 H 375.459 -0.616666 2.92981 0
M  V30 4011 H 373.005 -0.295184 1.40942 0
M  V30 4012 H 374.958 -3.05346 2.90417 0
M  V30 4013 H 373.682 -2.79565 1.68853 0
M  V30 4014 H 372.341 -1.46954 3.35857 0
M  V30 4015 H 371.989 -3.93529 3.13279 0
M  V30 4016 H 371.689 -3.38758 4.80122 0
M  V30 4017 H 373.213 -4.23062 4.40285 0
M  V30 4018 H 374.627 -2.15017 5.31451 0
M  V30 4019 H 373.024 -1.52796 5.80322 0
M  V30 4020 H 374.094 -0.51039 4.82206 0
M  V30 4021 N 375.437 -1.54477 -0.31217 0
M  V30 4022 C 376.385 -1.85395 -1.40469 0
M  V30 4023 C 377.379 -0.726749 -1.53019 0
M  V30 4024 O 378.585 -0.910582 -1.55269 0
M  V30 4025 H 374.96 -0.587845 -0.46898 0
M  V30 4026 H 376.931 -2.76736 -1.11623 0
M  V30 4027 C 375.68 -2.10811 -2.76503 0
M  V30 4028 H 375.003 -2.97014 -2.67625 0
M  V30 4029 H 376.443 -2.3639 -3.51988 0
M  V30 4030 C 374.902 -0.903165 -3.24568 0
M  V30 4031 O 375.432 -0.118085 -4.01526 0
M  V30 4032 N 373.638 -0.711634 -2.81752 0
M  V30 4033 H 373.185 -1.35171 -2.19286 0
M  V30 4034 H 373.143 0.0930473 -3.14262 0
M  V30 4035 N 376.915 0.57481 -1.46744 0
M  V30 4036 C 378.164 1.32898 -1.51727 0
M  V30 4037 C 378.477 1.948 -0.176692 0
M  V30 4038 O 379.683 2.71299 -0.104385 0
M  V30 4039 C 378.139 2.40901 -2.67385 0
M  V30 4040 C 377.747 1.85266 -4.07898 0
M  V30 4041 C 379.491 3.17609 -2.81646 0
M  V30 4042 C 377.398 2.90945 -5.14883 0
M  V30 4043 H 376.328 0.499631 -0.564699 0
M  V30 4044 H 378.979 0.612536 -1.72975 0
M  V30 4045 H 377.361 3.15379 -2.39483 0
M  V30 4046 H 378.535 1.17278 -4.45626 0
M  V30 4047 H 376.85 1.21199 -3.98371 0
M  V30 4048 H 379.447 3.96493 -3.58744 0
M  V30 4049 H 379.79 3.70696 -1.89448 0
M  V30 4050 H 380.323 2.50239 -3.09233 0
M  V30 4051 H 377.062 2.42736 -6.089 0
M  V30 4052 H 376.582 3.57398 -4.81691 0
M  V30 4053 H 378.261 3.54755 -5.41071 0
M  V30 4054 N 378.394 1.34581 0.820102 0
M  V30 4055 C 379.643 1.26437 1.57151 0
M  V30 4056 C 379.956 -0.163111 1.94919 0
M  V30 4057 O 381.162 -0.366722 2.69012 0
M  V30 4058 C 379.618 2.21658 2.83541 0
M  V30 4059 C 379.226 3.69679 2.53065 0
M  V30 4060 C 380.97 2.22428 3.61561 0
M  V30 4061 C 378.877 4.56761 3.75664 0
M  V30 4062 H 377.807 0.469707 0.589823 0
M  V30 4063 H 380.458 1.59763 0.902656 0
M  V30 4064 H 378.84 1.81287 3.52067 0
M  V30 4065 H 380.014 4.18605 1.92631 0
M  V30 4066 H 378.329 3.71384 1.88316 0
M  V30 4067 H 380.926 2.8471 4.52597 0
M  V30 4068 H 381.269 1.22434 3.97889 0
M  V30 4069 H 381.802 2.61259 2.99981 0
M  V30 4070 H 378.541 5.57702 3.44454 0
M  V30 4071 H 378.061 4.12568 4.35371 0
M  V30 4072 H 379.74 4.71509 4.43044 0
M  V30 4073 N 379.872 -1.04064 1.18357 0
M  V30 4074 C 381.149 -1.74252 0.888581 0
M  V30 4075 C 381.529 -2.02138 -0.60856 0
M  V30 4076 O 380.877 -1.66656 -1.56327 0
M  V30 4077 C 381.087 -3.0277 1.73584 0
M  V30 4078 C 382.435 -3.76506 1.96286 0
M  V30 4079 O 383.459 -3.12668 1.70637 0
M  V30 4080 O 382.318 -4.91243 2.39464 0
M  V30 4081 H 379.412 -0.758271 0.330082 0
M  V30 4082 H 381.958 -1.1013 1.2911 0
M  V30 4083 H 380.73 -2.78299 2.75073 0
M  V30 4084 H 380.353 -3.74631 1.33183 0
M  V30 4085 N 381.35 -0.985608 -1.22978 0
M  V30 4086 C 382.28 -0.549649 -2.26939 0
M  V30 4087 C 383.261 0.419803 -1.64838 0
M  V30 4088 O 384.446 0.31203 -1.91677 0
M  V30 4089 C 381.576 0.143652 -3.47003 0
M  V30 4090 C 380.53 -0.743606 -4.21491 0
M  V30 4091 C 379.856 0.0822027 -5.34637 0
M  V30 4092 C 381.156 -2.03694 -4.80943 0
M  V30 4093 H 382.85 -1.41862 -2.63658 0
M  V30 4094 H 380.396 -0.683571 -1.26741 0
M  V30 4095 H 382.349 0.459985 -4.18882 0
M  V30 4096 H 381.073 1.04711 -3.09359 0
M  V30 4097 H 379.732 -1.04347 -3.51436 0
M  V30 4098 H 379.38 0.986359 -4.93234 0
M  V30 4099 H 379.08 -0.508377 -5.85397 0
M  V30 4100 H 380.604 0.392797 -6.09335 0
M  V30 4101 H 382.018 -1.78504 -5.44802 0
M  V30 4102 H 380.415 -2.57573 -5.42011 0
M  V30 4103 H 381.485 -2.72042 -4.01399 0
M  V30 4104 N 382.828 1.3818 -0.7579 0
M  V30 4105 C 383.758 2.33027 -0.148597 0
M  V30 4106 C 384.739 1.55085 0.69875 0
M  V30 4107 O 385.924 1.83384 0.639053 0
M  V30 4108 C 383.054 3.3928 0.742034 0
M  V30 4109 C 382.008 4.28 -0.00291946 0
M  V30 4110 C 381.334 5.25146 1.00625 0
M  V30 4111 C 382.634 5.08938 -1.17385 0
M  V30 4112 H 384.328 2.84231 -0.940909 0
M  V30 4113 H 381.874 1.36659 -0.453908 0
M  V30 4114 H 383.827 4.046 1.17799 0
M  V30 4115 H 382.551 2.86569 1.56671 0
M  V30 4116 H 381.21 3.64192 -0.419504 0
M  V30 4117 H 380.858 4.68721 1.8251 0
M  V30 4118 H 380.558 5.85361 0.512428 0
M  V30 4119 H 382.082 5.93342 1.44143 0
M  V30 4120 H 383.496 5.67474 -0.815224 0
M  V30 4121 H 381.893 5.7841 -1.59882 0
M  V30 4122 H 382.963 4.42424 -1.98468 0
M  V30 4123 N 384.306 0.507319 1.49211 0
M  V30 4124 C 385.269 -0.256763 2.27757 0
M  V30 4125 C 386.269 -0.888287 1.34038 0
M  V30 4126 O 387.459 -0.751841 1.5714 0
M  V30 4127 C 384.591 -1.36905 3.12202 0
M  V30 4128 H 385.784 0.432557 2.96764 0
M  V30 4129 H 383.337 0.262488 1.5408 0
M  V30 4130 H 384.072 -2.09233 2.47775 0
M  V30 4131 H 383.857 -0.921599 3.81115 0
M  V30 4132 H 385.347 -1.9071 3.7151 0
M  V30 4133 N 385.784 -1.5574 0.241426 0
M  V30 4134 C 387.033 -1.97986 -0.385295 0
M  V30 4135 C 387.346 -1.13267 -1.59468 0
M  V30 4136 O 388.552 -1.45501 -2.2922 0
M  V30 4137 C 387.008 -3.52275 -0.736884 0
M  V30 4138 C 386.616 -4.45726 0.450796 0
M  V30 4139 C 388.36 -4.03189 -1.3281 0
M  V30 4140 C 386.267 -5.91352 0.0756662 0
M  V30 4141 H 385.197 -0.739386 -0.147731 0
M  V30 4142 H 387.848 -1.80308 0.340779 0
M  V30 4143 H 386.23 -3.65628 -1.52094 0
M  V30 4144 H 387.404 -4.44131 1.22819 0
M  V30 4145 H 385.719 -4.05264 0.956573 0
M  V30 4146 H 388.316 -5.09505 -1.62201 0
M  V30 4147 H 388.659 -3.50212 -2.25071 0
M  V30 4148 H 389.192 -3.93141 -0.607069 0
M  V30 4149 H 385.931 -6.48354 0.965272 0
M  V30 4150 H 385.451 -5.96095 -0.665635 0
M  V30 4151 H 387.13 -6.46084 -0.344075 0
M  V30 4152 N 387.262 0.0317525 -1.57568 0
M  V30 4153 C 388.49 0.734949 -1.93407 0
M  V30 4154 C 388.905 1.69036 -0.84096 0
M  V30 4155 O 388.262 1.81582 0.182836 0
M  V30 4156 C 388.313 1.49432 -3.29169 0
M  V30 4157 O 388.034 0.577261 -4.3428 0
M  V30 4158 C 389.535 2.29492 -3.79273 0
M  V30 4159 H 386.755 0.206706 -0.638368 0
M  V30 4160 H 389.299 -0.00992046 -2.04498 0
M  V30 4161 H 387.454 2.1911 -3.19483 0
M  V30 4162 H 387.868 1.10952 -5.1263 0
M  V30 4163 H 389.342 2.78172 -4.76785 0
M  V30 4164 H 389.819 3.10794 -3.10328 0
M  V30 4165 H 390.425 1.64894 -3.92033 0
M  V30 4166 N 388.74 1.54641 0.303973 0
M  V30 4167 C 390.151 1.64811 0.877163 0
M  V30 4168 C 390.502 0.554838 1.88191 0
M  V30 4169 O 389.627 -0.309033 2.14182 0
M  V30 4170 C 390.222 2.9876 1.59775 0
M  V30 4171 C 388.781 3.11061 2.11938 0
M  V30 4172 C 387.928 2.60479 0.951097 0
M  V30 4173 H 390.879 1.58493 0.0810486 0
M  V30 4174 H 390.9 2.90017 2.46314 0
M  V30 4175 H 390.412 3.7831 0.866226 0
M  V30 4176 H 388.513 2.36225 2.88146 0
M  V30 4177 H 388.626 4.17171 2.35595 0
M  V30 4178 H 386.99 2.16859 1.33583 0
M  V30 4179 H 387.773 3.42504 0.233581 0
M  V30 4180 N 390.218 -0.567019 1.47046 0
M  V30 4181 C 391.448 -1.34831 1.56538 0
M  V30 4182 C 391.856 -1.8802 0.21101 0
M  V30 4183 O 391.199 -1.65152 -0.804387 0
M  V30 4184 C 391.261 -2.56139 2.52256 0
M  V30 4185 C 390.925 -2.24307 3.98165 0
M  V30 4186 C 391.922 -1.82192 4.86931 0
M  V30 4187 C 389.607 -2.35968 4.43423 0
M  V30 4188 C 391.601 -1.52153 6.18973 0
M  V30 4189 C 389.288 -2.05542 5.75496 0
M  V30 4190 C 390.286 -1.63701 6.63092 0
M  V30 4191 O 389.974 -1.33657 7.92711 0
M  V30 4192 H 389.706 -0.417683 0.531523 0
M  V30 4193 H 392.26 -0.694726 1.93294 0
M  V30 4194 H 390.49 -3.24356 2.10548 0
M  V30 4195 H 392.179 -3.18214 2.51982 0
M  V30 4196 H 392.945 -1.72684 4.53217 0
M  V30 4197 H 388.824 -2.67495 3.75456 0
M  V30 4198 H 392.368 -1.19421 6.87302 0
M  V30 4199 H 388.265 -2.14679 6.08755 0
M  V30 4200 H 389.033 -1.4737 8.05124 0
M  V30 4201 N 391.696 -1.35014 -0.812953 0
M  V30 4202 C 392.926 -1.30841 -1.59888 0
M  V30 4203 C 393.334 0.117576 -1.88834 0
M  V30 4204 O 392.677 1.07807 -1.48739 0
M  V30 4205 C 392.739 -2.0412 -2.95931 0
M  V30 4206 C 392.403 -3.53336 -2.89832 0
M  V30 4207 C 393.4 -4.48052 -2.63714 0
M  V30 4208 C 391.085 -3.95894 -3.0915 0
M  V30 4209 C 393.079 -5.833 -2.56982 0
M  V30 4210 C 390.766 -5.31239 -3.0204 0
M  V30 4211 C 391.764 -6.24754 -2.75991 0
M  V30 4212 O 391.452 -7.57617 -2.68833 0
M  V30 4213 H 391.184 -0.451215 -0.50337 0
M  V30 4214 H 393.738 -1.78354 -1.01877 0
M  V30 4215 H 391.968 -1.51235 -3.559 0
M  V30 4216 H 393.657 -1.93107 -3.57022 0
M  V30 4217 H 394.423 -4.16492 -2.48515 0
M  V30 4218 H 390.302 -3.23495 -3.28438 0
M  V30 4219 H 393.846 -6.56263 -2.36569 0
M  V30 4220 H 389.743 -5.62415 -3.16796 0
M  V30 4221 H 390.511 -7.67469 -2.84487 0
M  V30 4222 N 393.175 1.03435 -1.18907 0
M  V30 4223 C 394.424 1.76143 -0.982669 0
M  V30 4224 C 394.737 1.89416 0.487953 0
M  V30 4225 O 395.943 2.59041 0.813036 0
M  V30 4226 C 394.399 3.16722 -1.70924 0
M  V30 4227 C 394.007 3.11522 -3.21959 0
M  V30 4228 C 395.751 3.93764 -1.58588 0
M  V30 4229 C 393.658 4.46999 -3.87228 0
M  V30 4230 H 392.588 0.660292 -0.364047 0
M  V30 4231 H 395.239 1.158 -1.42347 0
M  V30 4232 H 393.621 3.775 -1.19623 0
M  V30 4233 H 394.795 2.60158 -3.80335 0
M  V30 4234 H 393.11 2.47978 -3.34508 0
M  V30 4235 H 395.707 4.93963 -2.04707 0
M  V30 4236 H 396.05 4.12794 -0.539142 0
M  V30 4237 H 396.583 3.39576 -2.07203 0
M  V30 4238 H 393.322 4.33174 -4.91976 0
M  V30 4239 H 392.842 4.98441 -3.33642 0
M  V30 4240 H 394.521 5.15898 -3.90459 0
M  V30 4241 N 394.653 0.992116 1.22453 0
M  V30 4242 C 395.878 0.685644 1.95739 0
M  V30 4243 C 396.303 -0.743 1.72804 0
M  V30 4244 O 395.661 -1.50778 1.00676 0
M  V30 4245 C 395.709 0.996293 3.46564 0
M  V30 4246 O 394.813 0.0945512 4.12292 0
M  V30 4247 H 394.154 0.256694 0.612376 0
M  V30 4248 H 396.684 1.32888 1.5557 0
M  V30 4249 H 396.694 0.93781 3.97076 0
M  V30 4250 H 395.369 2.03733 3.62582 0
M  V30 4251 H 393.946 0.208451 3.72317 0
M  V30 4252 N 396.131 -1.37776 0.765217 0
M  V30 4253 C 397.377 -2.00145 0.327072 0
M  V30 4254 C 397.71 -1.60607 -1.09175 0
M  V30 4255 O 396.985 -0.849127 -1.74986 0
M  V30 4256 C 397.268 -3.57109 0.46319 0
M  V30 4257 C 397.121 -4.06576 1.92395 0
M  V30 4258 C 398.44 -4.39888 -0.136473 0
M  V30 4259 H 395.559 -0.727113 0.120316 0
M  V30 4260 H 398.201 -1.63549 0.967039 0
M  V30 4261 H 396.351 -3.88414 -0.0816358 0
M  V30 4262 H 398.023 -3.85864 2.52798 0
M  V30 4263 H 396.266 -3.59011 2.43503 0
M  V30 4264 H 396.937 -5.15639 1.97028 0
M  V30 4265 H 399.413 -4.14803 0.328317 0
M  V30 4266 H 398.289 -5.48899 -0.0110582 0
M  V30 4267 H 398.55 -4.24758 -1.22608 0
M  V30 4268 N 397.609 -0.515225 -1.4894 0
M  V30 4269 C 398.539 0.244628 -2.32215 0
M  V30 4270 C 399.52 0.949136 -1.41157 0
M  V30 4271 O 400.705 0.937783 -1.70057 0
M  V30 4272 C 397.835 1.30096 -3.22013 0
M  V30 4273 C 396.789 0.715486 -4.21977 0
M  V30 4274 C 396.115 1.87339 -5.00808 0
M  V30 4275 C 397.415 -0.302982 -5.2142 0
M  V30 4276 H 399.109 -0.450501 -2.95991 0
M  V30 4277 H 396.655 -0.218098 -1.42339 0
M  V30 4278 H 398.608 1.84037 -3.79089 0
M  V30 4279 H 397.332 2.02547 -2.56207 0
M  V30 4280 H 395.991 0.197715 -3.66066 0
M  V30 4281 H 395.639 2.58592 -4.31438 0
M  V30 4282 H 395.339 1.48764 -5.68457 0
M  V30 4283 H 396.863 2.41686 -5.60732 0
M  V30 4284 H 398.277 0.148802 -5.73107 0
M  V30 4285 H 396.674 -0.60532 -5.97039 0
M  V30 4286 H 397.744 -1.21395 -4.69459 0
M  V30 4287 N 399.087 1.5561 -0.249682 0
M  V30 4288 C 400.02 2.17537 0.689408 0
M  V30 4289 C 400.998 1.12829 1.17083 0
M  V30 4290 O 402.182 1.41229 1.24846 0
M  V30 4291 C 399.309 2.77828 1.93725 0
M  V30 4292 C 398.355 3.95615 1.59346 0
M  V30 4293 S 399.188 5.30988 0.69367 0
M  V30 4294 C 400.344 5.94734 1.95046 0
M  V30 4295 H 400.577 2.96852 0.163142 0
M  V30 4296 H 398.11 1.54362 -0.0341166 0
M  V30 4297 H 400.068 3.13199 2.65361 0
M  V30 4298 H 398.729 1.98454 2.43465 0
M  V30 4299 H 397.922 4.364 2.52132 0
M  V30 4300 H 397.524 3.61535 0.957512 0
M  V30 4301 H 399.816 6.12419 2.89739 0
M  V30 4302 H 400.759 6.90109 1.58604 0
M  V30 4303 H 401.167 5.23832 2.10381 0
M  V30 4304 N 400.565 -0.0233959 1.57583 0
M  V30 4305 C 401.793 -0.724682 1.93794 0
M  V30 4306 C 402.208 -1.68588 0.849912 0
M  V30 4307 O 401.565 -1.81676 -0.173204 0
M  V30 4308 C 401.616 -1.47684 3.29957 0
M  V30 4309 O 401.337 -0.554222 4.3458 0
M  V30 4310 C 402.838 -2.27477 3.80485 0
M  V30 4311 H 400.058 -0.203317 0.639455 0
M  V30 4312 H 402.602 0.0207653 2.04489 0
M  V30 4313 H 400.757 -2.17412 3.20641 0
M  V30 4314 H 401.171 -1.08232 5.13212 0
M  V30 4315 H 402.645 -2.7564 4.78254 0
M  V30 4316 H 403.122 -3.09144 3.11972 0
M  V30 4317 H 403.728 -1.62813 3.92902 0
M  V30 4318 N 402.043 -1.548 -0.295768 0
M  V30 4319 C 403.289 -1.74588 -1.03184 0
M  V30 4320 C 403.622 -0.532962 -1.86744 0
M  V30 4321 O 402.897 0.469872 -1.88739 0
M  V30 4322 C 403.18 -3.03791 -1.93347 0
M  V30 4323 C 403.033 -4.35392 -1.12933 0
M  V30 4324 C 404.352 -3.28892 -2.92435 0
M  V30 4325 H 401.471 -0.635221 -0.373715 0
M  V30 4326 H 404.113 -1.87519 -0.30606 0
M  V30 4327 H 402.263 -2.92898 -2.55232 0
M  V30 4328 H 403.935 -4.58211 -0.532943 0
M  V30 4329 H 402.178 -4.31642 -0.432168 0
M  V30 4330 H 402.849 -5.22074 -1.79284 0
M  V30 4331 H 405.325 -3.39429 -2.4068 0
M  V30 4332 H 404.201 -4.20603 -3.52682 0
M  V30 4333 H 404.462 -2.47437 -3.6637 0
M  V30 4334 N 403.521 0.559213 -1.47345 0
M  V30 4335 C 404.768 1.31648 -1.53867 0
M  V30 4336 C 405.096 1.93468 -0.200104 0
M  V30 4337 O 404.351 1.78295 0.806799 0
M  V30 4338 C 404.65 2.44853 -2.6035 0
M  V30 4339 C 404.316 2.00876 -4.03683 0
M  V30 4340 C 402.978 1.88599 -4.42701 0
M  V30 4341 C 405.33 1.67279 -4.93626 0
M  V30 4342 C 402.658 1.41017 -5.69501 0
M  V30 4343 C 405.01 1.21169 -6.20887 0
M  V30 4344 C 403.674 1.07487 -6.58789 0
M  V30 4345 H 402.944 0.481734 -0.56304 0
M  V30 4346 H 405.591 0.627301 -1.80934 0
M  V30 4347 H 403.896 3.19318 -2.27032 0
M  V30 4348 H 405.593 3.03039 -2.62619 0
M  V30 4349 H 402.183 2.11374 -3.72853 0
M  V30 4350 H 406.367 1.75638 -4.64182 0
M  V30 4351 H 401.623 1.29086 -5.97618 0
M  V30 4352 H 405.797 0.942345 -6.89995 0
M  V30 4353 H 403.424 0.703946 -7.56934 0
M  V30 4354 N 404.999 1.35443 0.805782 0
M  V30 4355 C 406.227 1.31878 1.59423 0
M  V30 4356 C 406.642 -0.103562 1.88516 0
M  V30 4357 O 405.999 -1.05575 1.48863 0
M  V30 4358 C 406.05 2.12426 2.92502 0
M  V30 4359 O 405.771 3.49115 2.6467 0
M  V30 4360 C 407.272 2.16455 3.86862 0
M  V30 4361 H 404.492 0.453002 0.495005 0
M  V30 4362 H 407.036 1.78309 1.00131 0
M  V30 4363 H 405.191 1.69593 3.48306 0
M  V30 4364 H 405.605 3.90957 3.49647 0
M  V30 4365 H 407.079 2.77204 4.77349 0
M  V30 4366 H 407.556 1.16352 4.23508 0
M  V30 4367 H 408.162 2.59453 3.36993 0
M  V30 4368 N 406.477 -1.02803 1.19454 0
M  V30 4369 C 407.725 -1.75869 0.995722 0
M  V30 4370 C 408.046 -1.89138 -0.474543 0
M  V30 4371 O 407.316 -1.42558 -1.34366 0
M  V30 4372 H 405.896 -0.651511 0.365435 0
M  V30 4373 H 408.558 -1.24004 1.50363 0
M  V30 4374 H 407.654 -2.76661 1.44447 0
M  V30 4375 N 407.956 -0.998596 -1.21925 0
M  V30 4376 C 408.866 -0.562736 -2.27751 0
M  V30 4377 C 409.882 0.391203 -1.69545 0
M  V30 4378 O 411.058 0.256625 -1.99758 0
M  V30 4379 C 408.123 0.11012 -3.46525 0
M  V30 4380 C 407.184 -0.887495 -4.20026 0
M  V30 4381 C 406.417 -0.246654 -5.3313 0
M  V30 4382 O 406.64 0.958088 -5.62296 0
M  V30 4383 O 405.574 -0.954374 -5.94286 0
M  V30 4384 H 409.4 -1.44329 -2.67213 0
M  V30 4385 H 406.985 -0.767135 -1.28201 0
M  V30 4386 H 408.867 0.486756 -4.18579 0
M  V30 4387 H 407.542 0.965154 -3.08976 0
M  V30 4388 H 406.449 -1.31517 -3.5022 0
M  V30 4389 H 407.782 -1.71191 -4.6147 0
M  V30 4390 N 409.434 1.37368 -0.772513 0
M  V30 4391 C 410.382 2.32134 -0.147111 0
M  V30 4392 C 411.376 1.54972 0.684106 0
M  V30 4393 O 412.582 1.70363 0.581083 0
M  V30 4394 H 408.957 0.751449 -0.028786 0
M  V30 4395 H 410.928 2.82464 -0.962112 0
M  V30 4396 C 409.677 3.40226 0.71703 0
M  V30 4397 H 409 3.99706 0.0867951 0
M  V30 4398 H 410.44 4.08897 1.12159 0
M  V30 4399 C 408.899 2.80372 1.86797 0
M  V30 4400 O 409.429 2.71183 2.96349 0
M  V30 4401 N 407.635 2.37904 1.66883 0
M  V30 4402 H 407.182 2.45578 0.777759 0
M  V30 4403 H 407.14 1.98202 2.44056 0
M  V30 4404 N 410.912 0.523116 1.48665 0
M  V30 4405 C 412.137 -0.0117284 2.07397 0
M  V30 4406 C 412.562 -1.28031 1.37803 0
M  V30 4407 O 411.92 -1.75836 0.441762 0
M  V30 4408 C 411.968 -0.225786 3.59892 0
M  V30 4409 O 411.072 -1.29592 3.91509 0
M  V30 4410 H 410.413 0.0360673 0.66302 0
M  V30 4411 H 412.943 0.729066 1.9117 0
M  V30 4412 H 412.953 -0.450552 4.05505 0
M  V30 4413 H 411.628 0.700944 4.09951 0
M  V30 4414 H 410.205 -1.05436 3.57684 0
M  V30 4415 N 412.39 -1.55475 0.257931 0
M  V30 4416 C 413.322 -2.19192 -0.669881 0
M  V30 4417 C 414.335 -1.17148 -1.1305 0
M  V30 4418 O 415.524 -1.43959 -1.05537 0
M  V30 4419 C 412.624 -2.79016 -1.92363 0
M  V30 4420 C 411.797 -4.06586 -1.61265 0
M  V30 4421 C 410.856 -4.50622 -2.7171 0
M  V30 4422 O 409.882 -5.16765 -2.38627 0
M  V30 4423 N 411.084 -4.19325 -4.01431 0
M  V30 4424 H 413.849 -2.99441 -0.124635 0
M  V30 4425 H 411.41 -1.6171 0.0783311 0
M  V30 4426 H 413.402 -3.05427 -2.65511 0
M  V30 4427 H 411.972 -2.0286 -2.37837 0
M  V30 4428 H 411.192 -3.87646 -0.715811 0
M  V30 4429 H 412.48 -4.89737 -1.37967 0
M  V30 4430 H 411.878 -3.66247 -4.31138 0
M  V30 4431 H 410.435 -4.50547 -4.7101 0
M  V30 4432 N 413.868 0.0150385 -1.57593 0
M  V30 4433 C 414.798 1.01047 -2.10503 0
M  V30 4434 C 415.779 1.36816 -1.01071 0
M  V30 4435 O 416.964 1.45455 -1.28672 0
M  V30 4436 C 414.094 2.30708 -2.59598 0
M  V30 4437 C 413.048 2.09142 -3.73421 0
M  V30 4438 C 412.374 3.44685 -4.08774 0
M  V30 4439 C 413.674 1.46619 -5.01298 0
M  V30 4440 H 415.368 0.569978 -2.93925 0
M  V30 4441 H 412.914 0.272724 -1.41394 0
M  V30 4442 H 414.867 3.00687 -2.95238 0
M  V30 4443 H 413.591 2.76843 -1.73279 0
M  V30 4444 H 412.25 1.41592 -3.38153 0
M  V30 4445 H 411.898 3.88495 -3.195 0
M  V30 4446 H 411.598 3.31077 -4.8545 0
M  V30 4447 H 413.122 4.16004 -4.4696 0
M  V30 4448 H 414.536 2.06535 -5.34805 0
M  V30 4449 H 412.933 1.43544 -5.82679 0
M  V30 4450 H 414.003 0.433611 -4.82957 0
M  V30 4451 N 415.346 1.54954 0.287554 0
M  V30 4452 C 416.278 1.83224 1.37701 0
M  V30 4453 C 417.291 0.715898 1.46215 0
M  V30 4454 O 418.48 0.993565 1.48292 0
M  V30 4455 C 415.58 1.96723 2.75959 0
M  V30 4456 C 414.753 3.27253 2.90215 0
M  V30 4457 C 413.812 3.30998 4.09056 0
M  V30 4458 O 412.838 4.04457 4.00503 0
M  V30 4459 N 414.04 2.57353 5.20336 0
M  V30 4460 H 416.805 2.77254 1.138 0
M  V30 4461 H 414.366 1.54694 0.477652 0
M  V30 4462 H 416.358 1.96615 3.5373 0
M  V30 4463 H 414.928 1.09626 2.92747 0
M  V30 4464 H 414.148 3.40022 1.99447 0
M  V30 4465 H 415.436 4.13365 2.96659 0
M  V30 4466 H 414.834 1.97327 5.30169 0
M  V30 4467 H 413.391 2.62984 5.96391 0
M  V30 4468 N 416.824 -0.551391 1.4764 0
M  V30 4469 C 418.24 -0.877887 1.33287 0
M  V30 4470 C 418.44 -1.98817 0.327721 0
M  V30 4471 O 417.496 -2.51171 -0.258695 0
M  V30 4472 C 418.809 -1.26563 2.72768 0
M  V30 4473 C 420.357 -1.37673 2.81097 0
M  V30 4474 C 420.832 -1.79799 4.21232 0
M  V30 4475 N 422.323 -1.8694 4.23802 0
M  V30 4476 C 423.058 -2.20876 5.29151 0
M  V30 4477 N 422.554 -2.53386 6.448 0
M  V30 4478 N 424.347 -2.217 5.16532 0
M  V30 4479 H 416.498 0.18153 2.11623 0
M  V30 4480 H 418.761 0.0185514 0.947818 0
M  V30 4481 H 418.467 -0.523591 3.47781 0
M  V30 4482 H 418.341 -2.22052 3.04915 0
M  V30 4483 H 420.728 -2.10956 2.06353 0
M  V30 4484 H 420.809 -0.40357 2.52596 0
M  V30 4485 H 420.453 -1.07083 4.96483 0
M  V30 4486 H 420.383 -2.78128 4.4716 0
M  V30 4487 H 422.874 -1.64179 3.40373 0
M  V30 4488 H 423.187 -2.78325 7.20941 0
M  V30 4489 H 421.532 -2.50953 6.48111 0
M  V30 4490 H 424.723 -1.95745 4.25207 0
M  V30 4491 H 424.896 -2.47818 5.98741 0
M  V30 4492 N 418.302 -1.35869 -0.798587 0
M  V30 4493 C 419.265 -1.29307 -1.89242 0
M  V30 4494 C 420.265 -0.202747 -1.59517 0
M  V30 4495 O 421.455 -0.456957 -1.681 0
M  V30 4496 C 418.587 -1.00229 -3.25833 0
M  V30 4497 H 419.78 -2.26576 -1.96478 0
M  V30 4498 H 417.333 -1.20509 -0.995358 0
M  V30 4499 H 418.068 -0.033801 -3.24282 0
M  V30 4500 H 417.853 -1.79121 -3.48795 0
M  V30 4501 H 419.343 -0.98219 -4.05885 0
M  V30 4502 N 419.78 1.02168 -1.19998 0
M  V30 4503 C 421.028 1.75338 -1.00504 0
M  V30 4504 C 421.349 1.89387 0.464506 0
M  V30 4505 O 420.619 1.43268 1.33608 0
M  V30 4506 H 419.199 0.649564 -0.368885 0
M  V30 4507 H 421.861 1.23205 -1.51018 0
M  V30 4508 H 420.957 2.75892 -1.45912 0
M  V30 4509 N 421.258 1.00505 1.21394 0
M  V30 4510 C 422.504 0.688793 1.90745 0
M  V30 4511 C 422.837 -0.778486 1.77914 0
M  V30 4512 O 422.112 -1.56433 1.15581 0
M  V30 4513 C 422.395 1.11063 3.42545 0
M  V30 4514 C 422.248 2.63737 3.64367 0
M  V30 4515 C 423.567 0.673059 4.34923 0
M  V30 4516 H 420.686 0.251702 0.692687 0
M  V30 4517 H 423.328 1.25074 1.43026 0
M  V30 4518 H 421.478 0.632508 3.83317 0
M  V30 4519 H 423.15 3.19313 3.32922 0
M  V30 4520 H 421.393 3.05248 3.08231 0
M  V30 4521 H 422.064 2.88305 4.70727 0
M  V30 4522 H 424.54 1.08392 4.01734 0
M  V30 4523 H 423.416 0.996383 5.39781 0
M  V30 4524 H 423.677 -0.425808 4.40045 0
M  V30 4525 N 422.737 -1.36956 0.779787 0
M  V30 4526 C 423.965 -2.03755 0.359398 0
M  V30 4527 C 424.38 -1.58807 -1.02106 0
M  V30 4528 O 423.737 -0.773024 -1.6532 0
M  V30 4529 C 423.788 -3.59251 0.402568 0
M  V30 4530 O 423.509 -4.02557 1.72858 0
M  V30 4531 C 425.01 -4.43291 -0.0284068 0
M  V30 4532 H 422.23 -0.654148 0.149437 0
M  V30 4533 H 424.774 -1.75128 1.05595 0
M  V30 4534 H 422.929 -3.86621 -0.245478 0
M  V30 4535 H 423.343 -4.97111 1.67275 0
M  V30 4536 H 424.817 -5.51975 0.0529466 0
M  V30 4537 H 425.294 -4.25719 -1.07982 0
M  V30 4538 H 425.9 -4.21163 0.591758 0
M  V30 4539 N 424.215 -0.530993 -1.48385 0
M  V30 4540 C 425.145 0.219985 -2.32461 0
M  V30 4541 C 426.126 0.934111 -1.42156 0
M  V30 4542 O 427.311 0.919694 -1.71042 0
M  V30 4543 C 424.441 1.26674 -3.23375 0
M  V30 4544 C 423.395 0.67069 -4.22712 0
M  V30 4545 C 422.721 1.82017 -5.02766 0
M  V30 4546 C 424.021 -0.358268 -5.2107 0
M  V30 4547 H 425.715 -0.48187 -2.95497 0
M  V30 4548 H 423.261 -0.233182 -1.42099 0
M  V30 4549 H 425.214 1.80006 -3.81019 0
M  V30 4550 H 423.938 1.99818 -2.58341 0
M  V30 4551 H 422.597 0.158878 -3.66256 0
M  V30 4552 H 422.245 2.54002 -4.34157 0
M  V30 4553 H 421.945 1.42727 -5.70003 0
M  V30 4554 H 423.469 2.35725 -5.63264 0
M  V30 4555 H 424.883 0.0880081 -5.73232 0
M  V30 4556 H 423.28 -0.66861 -5.96364 0
M  V30 4557 H 424.35 -1.26367 -4.68145 0
M  V30 4558 N 425.693 1.55336 -0.266172 0
M  V30 4559 C 427.109 1.59356 0.0882065 0
M  V30 4560 C 427.309 1.2834 1.55342 0
M  V30 4561 O 426.365 1.03996 2.30089 0
M  V30 4562 C 427.678 2.99409 -0.278364 0
M  V30 4563 C 429.226 3.12196 -0.224243 0
M  V30 4564 C 429.701 4.545 -0.565123 0
M  V30 4565 N 431.192 4.60313 -0.51634 0
M  V30 4566 C 431.927 5.68434 -0.753013 0
M  V30 4567 N 431.423 6.84738 -1.05383 0
M  V30 4568 N 433.216 5.57942 -0.682414 0
M  V30 4569 H 425.367 1.73764 -1.22147 0
M  V30 4570 H 427.63 0.809822 -0.492841 0
M  V30 4571 H 427.336 3.2691 -1.29703 0
M  V30 4572 H 427.21 3.75228 0.385186 0
M  V30 4573 H 429.597 2.84464 0.78512 0
M  V30 4574 H 429.678 2.38609 -0.921922 0
M  V30 4575 H 429.322 4.82956 -1.57213 0
M  V30 4576 H 429.252 5.26374 0.154248 0
M  V30 4577 H 431.743 3.7676 -0.29335 0
M  V30 4578 H 432.056 7.63088 -1.22133 0
M  V30 4579 H 430.401 6.86375 -1.09151 0
M  V30 4580 H 433.592 4.65958 -0.44731 0
M  V30 4581 H 433.765 6.4213 -0.870248 0
M  V30 4582 N 427.171 -0.0066808 1.57599 0
M  V30 4583 C 428.417 -0.693947 1.90558 0
M  V30 4584 C 428.75 -1.73792 0.866594 0
M  V30 4585 O 428.025 -1.94156 -0.115548 0
M  V30 4586 C 428.308 -1.34317 3.34112 0
M  V30 4587 C 428.161 -0.311189 4.48722 0
M  V30 4588 C 429.48 -2.27116 3.7697 0
M  V30 4589 H 426.599 -0.250803 0.693013 0
M  V30 4590 H 429.241 0.043242 1.89951 0
M  V30 4591 H 427.391 -1.9715 3.3476 0
M  V30 4592 H 429.063 0.316944 4.6021 0
M  V30 4593 H 427.306 0.367253 4.32243 0
M  V30 4594 H 427.977 -0.804366 5.46108 0
M  V30 4595 H 430.453 -1.74306 3.77831 0
M  V30 4596 H 429.329 -2.69511 4.78179 0
M  V30 4597 H 429.59 -3.14743 3.10466 0
M  V30 4598 N 428.649 -1.55105 -0.279332 0
M  V30 4599 C 429.579 -1.90557 -1.34945 0
M  V30 4600 C 430.56 -0.766738 -1.51839 0
M  V30 4601 O 431.745 -1.02434 -1.64988 0
M  V30 4602 C 428.875 -2.17193 -2.71006 0
M  V30 4603 C 427.829 -3.33021 -2.68851 0
M  V30 4604 C 427.155 -3.45123 -4.08405 0
M  V30 4605 C 428.455 -4.69578 -2.28678 0
M  V30 4606 H 430.149 -2.80188 -1.05522 0
M  V30 4607 H 427.695 -1.34811 -0.506173 0
M  V30 4608 H 429.648 -2.40581 -3.45975 0
M  V30 4609 H 428.372 -1.24355 -3.01999 0
M  V30 4610 H 427.031 -3.0959 -1.9634 0
M  V30 4611 H 426.679 -2.49762 -4.3661 0
M  V30 4612 H 426.379 -4.22995 -4.07859 0
M  V30 4613 H 427.903 -3.70796 -4.85121 0
M  V30 4614 H 429.317 -4.92553 -2.93368 0
M  V30 4615 H 427.714 -5.5032 -2.39306 0
M  V30 4616 H 428.784 -4.68828 -1.23807 0
M  V30 4617 N 430.127 0.543554 -1.4793 0
M  V30 4618 C 431.543 0.870806 -1.3375 0
M  V30 4619 C 431.743 1.9864 -0.338261 0
M  V30 4620 O 430.799 2.51305 0.245371 0
M  V30 4621 C 432.112 1.25114 -2.73435 0
M  V30 4622 C 433.66 1.3618 -2.81823 0
M  V30 4623 C 434.135 1.77563 -4.22179 0
M  V30 4624 N 435.626 1.8469 -4.24787 0
M  V30 4625 C 436.361 2.18067 -5.30315 0
M  V30 4626 N 435.857 2.49963 -6.46135 0
M  V30 4627 N 437.65 2.18958 -5.17701 0
M  V30 4628 H 429.801 -0.19275 -2.11524 0
M  V30 4629 H 432.064 -0.0235777 -0.947707 0
M  V30 4630 H 431.77 0.50514 -3.48053 0
M  V30 4631 H 431.644 2.20431 -3.06088 0
M  V30 4632 H 434.031 2.09859 -2.07468 0
M  V30 4633 H 434.112 0.390169 -2.52807 0
M  V30 4634 H 433.756 1.04449 -4.97044 0
M  V30 4635 H 433.686 2.75753 -4.48629 0
M  V30 4636 H 436.177 1.62372 -3.41239 0
M  V30 4637 H 436.49 2.74497 -7.22406 0
M  V30 4638 H 434.835 2.47513 -6.49432 0
M  V30 4639 H 438.026 1.93488 -4.2624 0
M  V30 4640 H 438.199 2.44639 -6.00047 0
M  V30 4641 N 431.605 1.3629 0.791371 0
M  V30 4642 C 432.538 1.24816 1.9104 0
M  V30 4643 C 433.516 0.132739 1.62057 0
M  V30 4644 O 434.7 0.303527 1.8604 0
M  V30 4645 C 431.827 0.925355 3.25814 0
M  V30 4646 C 430.873 2.05495 3.7373 0
M  V30 4647 S 431.706 3.67255 3.89723 0
M  V30 4648 C 432.862 3.37084 5.27376 0
M  V30 4649 H 433.095 2.19533 2.00481 0
M  V30 4650 H 430.628 1.21684 0.950393 0
M  V30 4651 H 432.586 0.745924 4.03666 0
M  V30 4652 H 431.247 -0.00400098 3.141 0
M  V30 4653 H 430.44 1.7836 4.71385 0
M  V30 4654 H 430.042 2.1935 3.02922 0
M  V30 4655 H 432.334 2.90856 6.1189 0
M  V30 4656 H 433.277 4.33995 5.59512 0
M  V30 4657 H 433.685 2.7248 4.94383 0
M  V30 4658 N 433.083 -1.0153 1.20538 0
M  V30 4659 C 434.016 -2.09759 0.898695 0
M  V30 4660 C 434.994 -1.61909 -0.149733 0
M  V30 4661 O 436.178 -1.88486 -0.0230293 0
M  V30 4662 C 433.305 -3.36913 0.347512 0
M  V30 4663 C 432.351 -4.03655 1.37713 0
M  V30 4664 S 433.184 -4.47402 2.94265 0
M  V30 4665 C 434.34 -5.77756 2.40726 0
M  V30 4666 H 434.573 -2.3545 1.81523 0
M  V30 4667 H 432.106 -1.14665 1.03399 0
M  V30 4668 H 434.064 -4.10484 0.0360518 0
M  V30 4669 H 432.725 -3.09291 -0.547546 0
M  V30 4670 H 431.918 -4.9514 0.940872 0
M  V30 4671 H 431.52 -3.36313 1.63614 0
M  V30 4672 H 433.812 -6.52994 1.80569 0
M  V30 4673 H 434.755 -6.2618 3.30612 0
M  V30 4674 H 435.163 -5.34081 1.82806 0
M  V30 4675 N 434.561 -1.01147 -1.20859 0
M  V30 4676 C 435.977 -0.725422 -1.42161 0
M  V30 4677 C 436.177 0.696919 -1.89064 0
M  V30 4678 O 435.233 1.46539 -2.05627 0
M  V30 4679 C 436.546 -1.74678 -2.44761 0
M  V30 4680 C 438.094 -1.76433 -2.58535 0
M  V30 4681 C 438.569 -2.77481 -3.64374 0
M  V30 4682 N 440.06 -2.76189 -3.71852 0
M  V30 4683 C 440.795 -3.51035 -4.53389 0
M  V30 4684 N 440.291 -4.35541 -5.38773 0
M  V30 4685 N 442.084 -3.39655 -4.47873 0
M  V30 4686 H 434.235 -1.92979 -0.887282 0
M  V30 4687 H 436.498 -0.833327 -0.451962 0
M  V30 4688 H 436.204 -2.76551 -2.17285 0
M  V30 4689 H 436.078 -1.55472 -3.43669 0
M  V30 4690 H 438.465 -0.75248 -2.85345 0
M  V30 4691 H 438.546 -1.99712 -1.5984 0
M  V30 4692 H 438.19 -3.78827 -3.38308 0
M  V30 4693 H 438.12 -2.51466 -4.6268 0
M  V30 4694 H 440.611 -2.14885 -3.10858 0
M  V30 4695 H 440.924 -4.89432 -5.98061 0
M  V30 4696 H 439.269 -4.39621 -5.38292 0
M  V30 4697 H 442.46 -2.73063 -3.80203 0
M  V30 4698 H 442.633 -3.9824 -5.11184 0
M  V30 4699 N 436.039 1.36541 -0.78704 0
M  V30 4700 C 437.288 1.98552 -0.35494 0
M  V30 4701 C 437.601 1.63171 1.07864 0
M  V30 4702 O 438.807 2.18399 1.61289 0
M  V30 4703 C 437.263 3.55136 -0.583671 0
M  V30 4704 C 436.871 3.99444 -2.02851 0
M  V30 4705 C 438.615 4.2395 -0.215957 0
M  V30 4706 C 436.522 5.48796 -2.20403 0
M  V30 4707 H 435.452 0.742888 -0.128972 0
M  V30 4708 H 438.103 1.5587 -0.968337 0
M  V30 4709 H 436.485 3.95875 0.0994046 0
M  V30 4710 H 437.659 3.6991 -2.74779 0
M  V30 4711 H 435.974 3.43459 -2.35425 0
M  V30 4712 H 438.571 5.33709 -0.325405 0
M  V30 4713 H 438.914 4.07827 0.835646 0
M  V30 4714 H 439.447 3.88565 -0.852175 0
M  V30 4715 H 436.186 5.69864 -3.23937 0
M  V30 4716 H 435.706 5.79964 -1.52977 0
M  V30 4717 H 437.385 6.14986 -2.01002 0
M  V30 4718 N 437.518 0.538854 1.48102 0
M  V30 4719 C 438.765 0.0080018 2.02498 0
M  V30 4720 C 439.093 -1.33437 1.41509 0
M  V30 4721 O 438.348 -1.87709 0.553507 0
M  V30 4722 C 438.647 -0.153808 3.57069 0
M  V30 4723 C 438.313 1.11533 4.36888 0
M  V30 4724 C 436.975 1.46314 4.58417 0
M  V30 4725 C 439.327 1.95718 4.83057 0
M  V30 4726 C 436.655 2.6516 5.23361 0
M  V30 4727 C 439.007 3.13751 5.49312 0
M  V30 4728 C 437.671 3.48866 5.69077 0
M  V30 4729 H 436.941 0.00292807 0.740994 0
M  V30 4730 H 439.588 0.706668 1.77984 0
M  V30 4731 H 437.893 -0.935309 3.80472 0
M  V30 4732 H 439.59 -0.579607 3.96789 0
M  V30 4733 H 436.18 0.834484 4.20398 0
M  V30 4734 H 440.364 1.70158 4.66219 0
M  V30 4735 H 435.62 2.92558 5.36861 0
M  V30 4736 H 439.794 3.79282 5.84053 0
M  V30 4737 H 437.421 4.41054 6.19173 0
M  V30 4738 N 438.996 -1.55193 0.274407 0
M  V30 4739 C 440.242 -2.00604 -0.33608 0
M  V30 4740 C 440.597 -1.15948 -1.53538 0
M  V30 4741 O 439.89 -0.221385 -1.90317 0
M  V30 4742 C 440.084 -3.49019 -0.769458 0
M  V30 4743 C 439.913 -4.48038 0.386301 0
M  V30 4744 C 438.683 -4.97757 0.869854 0
M  V30 4745 C 440.881 -4.99558 1.22254 0
M  V30 4746 N 438.863 -5.80575 1.99515 0
M  V30 4747 C 440.234 -5.79816 2.19575 0
M  V30 4748 C 442.289 -4.81799 1.25597 0
M  V30 4749 C 440.992 -6.44208 3.19981 0
M  V30 4750 C 443.018 -5.46989 2.24848 0
M  V30 4751 C 442.38 -6.27058 3.20901 0
M  V30 4752 H 438.479 -0.777013 -0.088172 0
M  V30 4753 H 441.063 -1.90583 0.398266 0
M  V30 4754 H 439.234 -3.59383 -1.47303 0
M  V30 4755 H 440.966 -3.81263 -1.35722 0
M  V30 4756 H 437.721 -4.71464 0.449281 0
M  V30 4757 H 438.145 -6.26675 2.5614 0
M  V30 4758 H 442.787 -4.19501 0.527158 0
M  V30 4759 H 440.505 -7.05656 3.93796 0
M  V30 4760 H 444.091 -5.35189 2.28174 0
M  V30 4761 H 442.971 -6.7661 3.96445 0
M  V30 4762 N 440.474 -0.00167713 -1.576 0
M  V30 4763 C 441.72 0.683832 -1.90923 0
M  V30 4764 C 442.053 1.7333 -0.875799 0
M  V30 4765 O 441.328 1.94215 0.10525 0
M  V30 4766 C 441.611 1.32543 -3.3482 0
M  V30 4767 C 441.464 0.287387 -4.48881 0
M  V30 4768 C 442.783 2.25114 -3.78169 0
M  V30 4769 H 439.902 0.247125 -0.694333 0
M  V30 4770 H 442.544 -0.0533149 -1.89925 0
M  V30 4771 H 440.694 1.95372 -3.35801 0
M  V30 4772 H 442.366 -0.341346 -4.60035 0
M  V30 4773 H 440.609 -0.39017 -4.32042 0
M  V30 4774 H 441.28 0.775393 -5.46527 0
M  V30 4775 H 443.756 1.723 -3.7875 0
M  V30 4776 H 442.632 2.66971 -4.79602 0
M  V30 4777 H 442.893 3.13092 -3.12131 0
M  V30 4778 N 441.952 1.55251 0.271103 0
M  V30 4779 C 443.201 1.75151 1.00025 0
M  V30 4780 C 443.514 0.561041 1.87381 0
M  V30 4781 O 444.72 0.642506 2.63788 0
M  V30 4782 C 443.176 3.09999 1.82835 0
M  V30 4783 C 442.784 4.3662 1.00336 0
M  V30 4784 C 444.528 3.39249 2.55168 0
M  V30 4785 C 442.435 5.62506 1.82595 0
M  V30 4786 H 441.365 0.652877 0.377183 0
M  V30 4787 H 444.016 1.81708 0.255843 0
M  V30 4788 H 442.398 2.97485 2.61378 0
M  V30 4789 H 443.572 4.60055 0.261959 0
M  V30 4790 H 441.887 4.14527 0.394486 0
M  V30 4791 H 444.484 4.3051 3.1712 0
M  V30 4792 H 444.827 2.59467 3.2555 0
M  V30 4793 H 445.36 3.52869 1.83653 0
M  V30 4794 H 442.099 6.45041 1.16631 0
M  V30 4795 H 441.619 5.43211 2.54327 0
M  V30 4796 H 443.298 6.00875 2.39913 0
M  V30 4797 N 443.43 -0.535701 1.48216 0
M  V30 4798 C 444.377 -1.64083 1.62312 0
M  V30 4799 C 445.347 -1.59448 0.465365 0
M  V30 4800 O 446.532 -1.77959 0.688135 0
M  V30 4801 C 443.672 -3.0236 1.66349 0
M  V30 4802 C 442.785 -3.17273 2.93193 0
M  V30 4803 C 441.92 -4.46075 2.88427 0
M  V30 4804 C 440.959 -4.54496 4.1 0
M  V30 4805 N 440.096 -5.7468 4.03345 0
M  V30 4806 H 444.936 -1.51374 2.5669 0
M  V30 4807 H 442.473 -0.737059 1.27302 0
M  V30 4808 H 444.431 -3.82461 1.66672 0
M  V30 4809 H 443.061 -3.13854 0.754672 0
M  V30 4810 H 442.113 -2.30462 3.02641 0
M  V30 4811 H 443.425 -3.19357 3.83162 0
M  V30 4812 H 442.579 -5.3446 2.87119 0
M  V30 4813 H 441.318 -4.46504 1.96177 0
M  V30 4814 H 440.323 -3.64519 4.11589 0
M  V30 4815 H 441.548 -4.5581 5.03402 0
M  V30 4816 H 439.494 -5.76017 3.13912 0
M  V30 4817 H 439.411 -5.78234 4.87013 0
M  V30 4818 H 440.679 -6.65367 4.06087 0
M  V30 4819 N 444.908 -1.36708 -0.784132 0
M  V30 4820 C 445.838 -1.34153 -1.91116 0
M  V30 4821 C 446.819 -0.212121 -1.68772 0
M  V30 4822 O 448.004 -0.410581 -1.8981 0
M  V30 4823 C 445.134 -1.13535 -3.28218 0
M  V30 4824 C 444.088 -2.23356 -3.65097 0
M  V30 4825 C 443.414 -1.87875 -5.00607 0
M  V30 4826 C 444.714 -3.65473 -3.73131 0
M  V30 4827 H 446.408 -2.28459 -1.93512 0
M  V30 4828 H 443.954 -1.09973 -0.929618 0
M  V30 4829 H 445.907 -1.10381 -4.06687 0
M  V30 4830 H 444.631 -0.156804 -3.26223 0
M  V30 4831 H 443.29 -2.25645 -2.88929 0
M  V30 4832 H 442.938 -0.885814 -4.95139 0
M  V30 4833 H 442.638 -2.61406 -5.26252 0
M  V30 4834 H 444.162 -1.86286 -5.81489 0
M  V30 4835 H 445.576 -3.65382 -4.41779 0
M  V30 4836 H 443.973 -4.37953 -4.10265 0
M  V30 4837 H 445.043 -3.99995 -2.74102 0
M  V30 4838 N 446.386 1.0089 -1.21074 0
M  V30 4839 C 447.349 2.0775 -0.968129 0
M  V30 4840 C 448.349 1.6069 0.0593445 0
M  V30 4841 O 449.539 1.73293 -0.177525 0
M  V30 4842 C 446.671 3.37794 -0.459108 0
M  V30 4843 H 447.864 2.30707 -1.9161 0
M  V30 4844 H 445.417 1.17807 -1.02719 0
M  V30 4845 H 446.152 3.20516 0.49397 0
M  V30 4846 H 445.937 3.7328 -1.20019 0
M  V30 4847 H 447.427 4.16454 -0.309099 0
M  V30 4848 N 447.864 1.01787 1.20321 0
M  V30 4849 C 449.28 0.732951 1.41774 0
M  V30 4850 C 449.48 -0.686883 1.89431 0
M  V30 4851 O 448.536 -1.45446 2.06402 0
M  V30 4852 C 449.849 1.75973 2.43832 0
M  V30 4853 C 451.397 1.77802 2.57596 0
M  V30 4854 C 451.872 2.7941 3.62897 0
M  V30 4855 N 453.363 2.78157 3.70382 0
M  V30 4856 C 454.098 3.53434 4.51521 0
M  V30 4857 N 453.594 4.38392 5.36455 0
M  V30 4858 N 455.387 3.42026 4.46066 0
M  V30 4859 H 447.538 1.93447 0.877035 0
M  V30 4860 H 449.801 0.835712 0.447536 0
M  V30 4861 H 449.507 2.77699 2.15815 0
M  V30 4862 H 449.381 1.57292 3.4284 0
M  V30 4863 H 451.768 0.767602 2.84942 0
M  V30 4864 H 451.849 2.00557 1.58779 0
M  V30 4865 H 451.493 3.80616 3.36295 0
M  V30 4866 H 451.423 2.53916 4.61339 0
M  V30 4867 H 453.914 2.16531 3.09714 0
M  V30 4868 H 454.227 4.92596 5.95457 0
M  V30 4869 H 452.572 4.4247 5.35953 0
M  V30 4870 H 455.763 2.75075 3.78749 0
M  V30 4871 H 455.936 4.00946 5.09064 0
M  V30 4872 N 449.342 -1.36122 0.79427 0
M  V30 4873 C 450.292 -2.27373 0.169017 0
M  V30 4874 C 451.276 -1.4719 -0.649913 0
M  V30 4875 O 452.468 -1.69518 -0.50919 0
M  V30 4876 C 449.597 -3.36264 -0.691455 0
M  V30 4877 C 448.683 -4.2388 0.13653 0
M  V30 4878 N 449.074 -4.91519 1.19345 0
M  V30 4879 C 447.372 -4.45921 -0.0838499 0
M  V30 4880 C 448.073 -5.56369 1.6979 0
M  V30 4881 N 447.049 -5.34204 1.00634 0
M  V30 4882 H 450.851 -2.77154 0.977897 0
M  V30 4883 H 448.365 -1.49504 0.634208 0
M  V30 4884 H 450.362 -4.00572 -1.15534 0
M  V30 4885 H 449.022 -2.88037 -1.49883 0
M  V30 4886 H 450.033 -4.9334 1.57594 0
M  V30 4887 H 446.71 -4.08518 -0.861341 0
M  V30 4888 H 448.1 -6.20368 2.58055 0
M  V30 4889 N 450.82 -0.546701 -1.47814 0
M  V30 4890 C 452.067 -0.0187407 -2.02491 0
M  V30 4891 C 452.395 1.32685 -1.42215 0
M  V30 4892 O 451.65 1.87413 -0.563454 0
M  V30 4893 C 451.949 0.134869 -3.57145 0
M  V30 4894 C 451.615 -1.13849 -4.3629 0
M  V30 4895 C 450.277 -1.48743 -4.57634 0
M  V30 4896 C 452.629 -1.98277 -4.82012 0
M  V30 4897 C 449.957 -2.67932 -5.21948 0
M  V30 4898 C 452.309 -3.16659 -5.4764 0
M  V30 4899 C 450.973 -3.51879 -5.67219 0
M  V30 4900 H 450.243 -0.0068577 -0.740968 0
M  V30 4901 H 452.89 -0.716097 -1.77607 0
M  V30 4902 H 451.195 0.915118 -3.80963 0
M  V30 4903 H 452.892 0.558556 -3.97091 0
M  V30 4904 H 449.482 -0.856767 -4.19949 0
M  V30 4905 H 453.666 -1.72628 -4.6531 0
M  V30 4906 H 448.922 -2.95401 -5.35302 0
M  V30 4907 H 453.096 -3.82374 -5.82033 0
M  V30 4908 H 450.723 -4.44331 -6.16825 0
M  V30 4909 N 452.299 1.55045 -0.282633 0
M  V30 4910 C 453.548 1.98938 0.332667 0
M  V30 4911 C 453.861 1.17455 1.56409 0
M  V30 4912 O 455.067 1.51527 2.25282 0
M  V30 4913 C 453.523 3.54105 0.643226 0
M  V30 4914 C 453.131 4.44374 -0.568814 0
M  V30 4915 C 454.875 4.06569 1.22074 0
M  V30 4916 C 452.782 5.90943 -0.232426 0
M  V30 4917 H 451.712 0.743043 0.128075 0
M  V30 4918 H 454.363 1.79341 -0.388464 0
M  V30 4919 H 452.745 3.69532 1.42346 0
M  V30 4920 H 453.919 4.40718 -1.34551 0
M  V30 4921 H 452.234 4.02585 -1.06369 0
M  V30 4922 H 454.831 5.13626 1.48635 0
M  V30 4923 H 455.174 3.56057 2.15707 0
M  V30 4924 H 455.707 3.94612 0.502621 0
M  V30 4925 H 452.446 6.45567 -1.13683 0
M  V30 4926 H 451.966 5.9765 0.507357 0
M  V30 4927 H 453.645 6.4677 0.172657 0
M  V30 4928 N 453.777 0.010035 1.57597 0
M  V30 4929 C 455.025 -0.671371 1.90623 0
M  V30 4930 C 455.346 -1.73753 0.885151 0
M  V30 4931 O 454.616 -1.95752 -0.0760611 0
M  V30 4932 H 453.196 -0.250968 0.703579 0
M  V30 4933 H 455.858 0.0533325 1.94827 0
M  V30 4934 H 454.954 -1.13626 2.90681 0
M  V30 4935 N 455.255 -1.55392 -0.262866 0
M  V30 4936 C 456.185 -1.91978 -1.32917 0
M  V30 4937 C 457.166 -0.7828 -1.51017 0
M  V30 4938 O 458.351 -1.04178 -1.63892 0
M  V30 4939 C 455.481 -2.20055 -2.68687 0
M  V30 4940 C 454.435 -3.35854 -2.65304 0
M  V30 4941 C 453.761 -3.49435 -4.04721 0
M  V30 4942 C 455.061 -4.71977 -2.23685 0
M  V30 4943 H 456.755 -2.81292 -1.02544 0
M  V30 4944 H 454.301 -1.3534 -0.491846 0
M  V30 4945 H 456.254 -2.44237 -3.43404 0
M  V30 4946 H 454.978 -1.27551 -3.00663 0
M  V30 4947 H 453.637 -3.11655 -1.93045 0
M  V30 4948 H 453.285 -2.54379 -4.33936 0
M  V30 4949 H 452.985 -4.27297 -4.0335 0
M  V30 4950 H 454.509 -3.7592 -4.81161 0
M  V30 4951 H 455.923 -4.95637 -2.88127 0
M  V30 4952 H 454.32 -5.52828 -2.33456 0
M  V30 4953 H 455.39 -4.70115 -1.18827 0
M  V30 4954 N 456.733 0.527833 -1.48498 0
M  V30 4955 C 457.665 1.6482 -1.5927 0
M  V30 4956 C 458.678 1.55659 -0.476869 0
M  V30 4957 O 459.867 1.62081 -0.747806 0
M  V30 4958 C 456.967 3.0348 -1.50842 0
M  V30 4959 C 456.14 3.381 -2.77502 0
M  V30 4960 C 455.199 4.5605 -2.62497 0
M  V30 4961 O 454.225 4.59165 -3.36387 0
M  V30 4962 N 455.427 5.54353 -1.72257 0
M  V30 4963 H 458.192 1.56015 -2.55889 0
M  V30 4964 H 455.753 0.715152 -1.45249 0
M  V30 4965 H 457.745 3.80264 -1.38496 0
M  V30 4966 H 456.315 3.06352 -0.621887 0
M  V30 4967 H 455.535 2.50473 -3.04396 0
M  V30 4968 H 456.823 3.58017 -3.61527 0
M  V30 4969 H 456.221 5.54617 -1.11431 0
M  V30 4970 H 454.778 6.30347 -1.65849 0
M  V30 4971 N 458.211 1.37122 0.776871 0
M  V30 4972 C 459.439 1.3523 1.5659 0
M  V30 4973 C 459.854 -0.0635518 1.88693 0
M  V30 4974 O 459.211 -1.02394 1.51069 0
M  V30 4975 C 459.262 2.18583 2.8793 0
M  V30 4976 O 458.983 3.5465 2.57206 0
M  V30 4977 C 460.484 2.24612 3.82183 0
M  V30 4978 H 457.704 0.4634 0.485285 0
M  V30 4979 H 460.248 1.80392 0.963266 0
M  V30 4980 H 458.403 1.76943 3.4463 0
M  V30 4981 H 458.817 3.98286 3.41275 0
M  V30 4982 H 460.291 2.87267 4.71361 0
M  V30 4983 H 460.768 1.25309 4.20944 0
M  V30 4984 H 461.374 2.66543 3.31414 0
M  V30 4985 N 459.689 -1.00246 1.21608 0
M  V30 4986 C 460.619 -2.10921 1.00172 0
M  V30 4987 C 461.6 -1.69938 -0.0741587 0
M  V30 4988 O 462.785 -1.94009 0.0861753 0
M  V30 4989 C 459.915 -3.42618 0.568355 0
M  V30 4990 C 458.869 -3.97407 1.58909 0
M  V30 4991 C 458.195 -5.25038 1.01187 0
M  V30 4992 C 459.495 -4.2918 2.97661 0
M  V30 4993 H 461.189 -2.29112 1.92739 0
M  V30 4994 H 458.735 -1.10101 0.928102 0
M  V30 4995 H 460.688 -4.19444 0.405555 0
M  V30 4996 H 459.412 -3.24227 -0.392961 0
M  V30 4997 H 458.071 -3.22703 1.73949 0
M  V30 4998 H 457.719 -5.02982 0.0421965 0
M  V30 4999 H 457.419 -5.62661 1.6937 0
M  V30 5000 H 458.943 -6.04507 0.860448 0
M  V30 5001 H 460.357 -4.96839 2.86049 0
M  V30 5002 H 458.754 -4.77952 3.6288 0
M  V30 5003 H 459.824 -3.3735 3.48315 0
M  V30 5004 N 461.167 -1.02423 -1.1978 0
M  V30 5005 C 462.415 -0.716569 -1.8897 0
M  V30 5006 C 462.736 0.756769 -1.79716 0
M  V30 5007 O 462.006 1.5449 -1.20456 0
M  V30 5008 H 460.586 -0.262062 -0.699523 0
M  V30 5009 H 463.248 -1.29747 -1.45436 0
M  V30 5010 H 462.344 -1.00675 -2.95417 0
M  V30 5011 N 462.645 1.35699 -0.801477 0
M  V30 5012 C 463.575 2.32436 -0.222658 0
M  V30 5013 C 464.556 1.5723 0.649057 0
M  V30 5014 O 465.741 1.85324 0.580387 0
M  V30 5015 C 462.871 3.41469 0.633719 0
M  V30 5016 C 461.825 4.27774 -0.139083 0
M  V30 5017 C 461.151 5.28082 0.838666 0
M  V30 5018 C 462.451 5.04946 -1.33517 0
M  V30 5019 H 464.145 2.81094 -1.03086 0
M  V30 5020 H 461.691 1.35146 -0.497155 0
M  V30 5021 H 463.644 4.08143 1.04868 0
M  V30 5022 H 462.368 2.91408 1.47475 0
M  V30 5023 H 461.027 3.62673 -0.535156 0
M  V30 5024 H 460.675 4.7429 1.67506 0
M  V30 5025 H 460.375 5.86695 0.32594 0
M  V30 5026 H 461.899 5.97628 1.25194 0
M  V30 5027 H 463.313 5.64593 -0.995349 0
M  V30 5028 H 461.71 5.7303 -1.78202 0
M  V30 5029 H 462.78 4.35886 -2.12442 0
M  V30 5030 N 464.123 0.554532 1.47522 0
M  V30 5031 C 465.351 0.034257 2.06872 0
M  V30 5032 C 465.766 -1.25826 1.40759 0
M  V30 5033 O 465.123 -1.75425 0.503217 0
M  V30 5034 C 465.174 -0.167827 3.6111 0
M  V30 5035 O 464.895 1.07351 4.24744 0
M  V30 5036 C 466.396 -0.72569 4.3732 0
M  V30 5037 H 463.616 0.0446275 0.669514 0
M  V30 5038 H 466.16 0.767181 1.89564 0
M  V30 5039 H 464.315 -0.850872 3.7794 0
M  V30 5040 H 464.729 0.869563 5.17242 0
M  V30 5041 H 466.203 -0.816394 5.45929 0
M  V30 5042 H 466.68 -1.73635 4.0342 0
M  V30 5043 H 467.286 -0.0784292 4.25228 0
M  V30 5044 N 465.601 -1.54893 0.290851 0
M  V30 5045 C 466.531 -2.26103 -0.583084 0
M  V30 5046 C 467.512 -1.25684 -1.14619 0
M  V30 5047 O 468.697 -1.54436 -1.17741 0
M  V30 5048 C 465.827 -2.99409 -1.75987 0
M  V30 5049 C 464.781 -4.0689 -1.32758 0
M  V30 5050 C 464.107 -4.67856 -2.58872 0
M  V30 5051 C 465.407 -5.20215 -0.46624 0
M  V30 5052 H 467.101 -2.99398 0.0108214 0
M  V30 5053 H 464.647 -1.43998 0.00664468 0
M  V30 5054 H 466.6 -3.47943 -2.37727 0
M  V30 5055 H 465.324 -2.23675 -2.37985 0
M  V30 5056 H 463.983 -3.59191 -0.733299 0
M  V30 5057 H 463.631 -3.88772 -3.19163 0
M  V30 5058 H 463.331 -5.40438 -2.30653 0
M  V30 5059 H 464.855 -5.19147 -3.21433 0
M  V30 5060 H 466.269 -5.64704 -0.989047 0
M  V30 5061 H 464.666 -5.99455 -0.27826 0
M  V30 5062 H 465.736 -4.82198 0.511173 0
M  V30 5063 N 467.08 -0.0183926 -1.57589 0
M  V30 5064 C 468.027 0.967022 -2.09565 0
M  V30 5065 C 468.997 1.32983 -0.995225 0
M  V30 5066 O 470.182 1.42501 -1.26878 0
M  V30 5067 C 467.322 2.24772 -2.61861 0
M  V30 5068 C 466.435 1.94232 -3.85873 0
M  V30 5069 C 465.57 3.16518 -4.26603 0
M  V30 5070 C 464.609 2.81748 -5.43401 0
M  V30 5071 N 463.746 3.96626 -5.79338 0
M  V30 5072 H 468.586 0.516874 -2.93483 0
M  V30 5073 H 466.123 0.243544 -1.4507 0
M  V30 5074 H 468.081 2.99667 -2.90268 0
M  V30 5075 H 466.711 2.67423 -1.8079 0
M  V30 5076 H 465.763 1.09625 -3.64262 0
M  V30 5077 H 467.075 1.64616 -4.70853 0
M  V30 5078 H 466.229 3.99743 -4.56389 0
M  V30 5079 H 464.968 3.49286 -3.40368 0
M  V30 5080 H 463.973 1.96933 -5.1332 0
M  V30 5081 H 465.198 2.50207 -6.31327 0
M  V30 5082 H 463.144 4.29257 -4.96059 0
M  V30 5083 H 463.061 3.70598 -6.58933 0
M  V30 5084 H 464.329 4.80586 -6.13724 0
M  V30 5085 N 468.558 1.5553 0.254621 0
M  V30 5086 C 469.974 1.4778 0.602753 0
M  V30 5087 C 470.174 0.707047 1.88688 0
M  V30 5088 O 469.23 0.233288 2.5142 0
M  V30 5089 C 470.543 2.92133 0.712648 0
M  V30 5090 C 472.091 3.02458 0.805488 0
M  V30 5091 C 472.566 4.48102 0.947009 0
M  V30 5092 N 474.057 4.52008 1.01207 0
M  V30 5093 C 474.792 5.61939 1.1407 0
M  V30 5094 N 474.288 6.81697 1.23536 0
M  V30 5095 N 476.081 5.49719 1.17325 0
M  V30 5096 H 468.232 2.04085 -0.588463 0
M  V30 5097 H 470.495 0.926229 -0.202001 0
M  V30 5098 H 470.201 3.51332 -0.160766 0
M  V30 5099 H 470.075 3.42187 1.58707 0
M  V30 5100 H 472.462 2.43344 1.66936 0
M  V30 5101 H 472.543 2.55627 -0.0939266 0
M  V30 5102 H 472.187 5.07824 0.087725 0
M  V30 5103 H 472.117 4.92607 1.86135 0
M  V30 5104 H 474.608 3.65749 0.950577 0
M  V30 5105 H 474.921 7.61228 1.33236 0
M  V30 5106 H 473.266 6.84473 1.20508 0
M  V30 5107 H 476.457 4.55095 1.09573 0
M  V30 5108 H 476.63 6.35432 1.27005 0
M  V30 5109 N 470.036 -0.519951 1.48776 0
M  V30 5110 C 471.276 -1.2856 1.58908 0
M  V30 5111 C 471.64 -1.90212 0.261418 0
M  V30 5112 O 472.841 -2.67746 0.237791 0
M  V30 5113 C 471.112 -2.33836 2.70288 0
M  V30 5114 S 472.671 -3.19992 3.0025 0
M  V30 5115 H 469.489 -0.43717 0.560717 0
M  V30 5116 H 472.091 -0.591205 1.86346 0
M  V30 5117 H 470.795 -1.87041 3.653 0
M  V30 5118 H 470.326 -3.07969 2.44783 0
M  V30 5119 H 472.341 -4.34122 2.40317 0
M  V30 5120 N 471.514 -1.37532 -0.769588 0
M  V30 5121 C 472.744 -1.35861 -1.55645 0
M  V30 5122 C 473.152 0.0574398 -1.89113 0
M  V30 5123 O 472.495 1.03021 -1.52093 0
M  V30 5124 C 472.557 -2.13431 -2.89288 0
M  V30 5125 C 472.221 -3.62378 -2.78444 0
M  V30 5126 C 473.218 -4.56215 -2.49326 0
M  V30 5127 C 470.903 -4.05529 -2.96398 0
M  V30 5128 C 472.897 -5.91181 -2.38294 0
M  V30 5129 C 470.584 -5.40579 -2.84987 0
M  V30 5130 C 471.582 -6.33218 -2.55975 0
M  V30 5131 O 471.27 -7.65787 -2.44594 0
M  V30 5132 H 471.002 -0.467001 -0.48876 0
M  V30 5133 H 473.556 -1.81505 -0.961515 0
M  V30 5134 H 471.786 -1.62481 -3.50909 0
M  V30 5135 H 473.475 -2.04368 -3.50697 0
M  V30 5136 H 474.241 -4.24187 -2.35139 0
M  V30 5137 H 470.12 -3.33781 -3.1798 0
M  V30 5138 H 473.664 -6.63457 -2.15571 0
M  V30 5139 H 469.561 -5.72209 -2.98743 0
M  V30 5140 H 470.329 -7.76132 -2.59927 0
M  V30 5141 N 472.992 0.995999 -1.22138 0
M  V30 5142 C 474.408 1.25917 -0.980667 0
M  V30 5143 C 474.608 1.98819 0.327604 0
M  V30 5144 O 473.664 2.29587 1.05101 0
M  V30 5145 C 474.977 2.07399 -2.17729 0
M  V30 5146 C 476.525 2.20594 -2.22052 0
M  V30 5147 C 477 3.05462 -3.41258 0
M  V30 5148 N 478.491 3.13049 -3.41401 0
M  V30 5149 C 479.226 3.78997 -4.30289 0
M  V30 5150 N 478.722 4.46899 -5.2939 0
M  V30 5151 N 480.515 3.75728 -4.18073 0
M  V30 5152 H 472.666 0.507158 -2.06256 0
M  V30 5153 H 474.929 0.28658 -0.903646 0
M  V30 5154 H 474.635 1.61191 -3.12586 0
M  V30 5155 H 474.509 3.08154 -2.17534 0
M  V30 5156 H 476.896 2.66017 -1.27745 0
M  V30 5157 H 476.977 1.1928 -2.26287 0
M  V30 5158 H 476.621 2.60739 -4.35864 0
M  V30 5159 H 476.551 4.06911 -3.34262 0
M  V30 5160 H 479.042 2.64721 -2.69688 0
M  V30 5161 H 479.355 4.94952 -5.935 0
M  V30 5162 H 477.7 4.45657 -5.33306 0
M  V30 5163 H 480.891 3.2184 -3.39907 0
M  V30 5164 H 481.064 4.26845 -4.87553 0
M  V30 5165 N 474.47 1.03057 1.19235 0
M  V30 5166 C 475.38 0.622922 2.26179 0
M  V30 5167 C 476.396 -0.346113 1.70523 0
M  V30 5168 O 477.572 -0.203572 2.00369 0
M  V30 5169 C 474.637 -0.0182063 3.46695 0
M  V30 5170 C 473.698 0.998546 4.17526 0
M  V30 5171 C 472.931 0.387917 5.32288 0
M  V30 5172 O 473.154 -0.808668 5.64639 0
M  V30 5173 O 472.088 1.1116 5.91546 0
M  V30 5174 H 475.914 1.51363 2.63292 0
M  V30 5175 H 473.499 0.800856 1.26122 0
M  V30 5176 H 475.381 -0.375606 4.19723 0
M  V30 5177 H 474.056 -0.882895 3.11427 0
M  V30 5178 H 472.963 1.40756 3.4661 0
M  V30 5179 H 474.296 1.83366 4.56769 0
M  V30 5180 N 475.948 -1.35272 0.808662 0
M  V30 5181 C 476.881 -2.27595 0.165994 0
M  V30 5182 C 477.859 -1.48189 -0.669241 0
M  V30 5183 O 479.043 -1.77444 -0.636073 0
M  V30 5184 C 476.17 -3.29843 -0.769505 0
M  V30 5185 C 475.216 -4.26498 -0.0136267 0
M  V30 5186 S 476.049 -5.18878 1.32384 0
M  V30 5187 C 477.205 -6.24666 0.392838 0
M  V30 5188 H 477.438 -2.81755 0.948756 0
M  V30 5189 H 474.971 -1.42103 0.603828 0
M  V30 5190 H 476.929 -3.89247 -1.30374 0
M  V30 5191 H 475.59 -2.74558 -1.52567 0
M  V30 5192 H 474.783 -4.98769 -0.724227 0
M  V30 5193 H 474.385 -3.71274 0.450713 0
M  V30 5194 H 476.677 -6.7619 -0.4211 0
M  V30 5195 H 477.62 -6.99741 1.0848 0
M  V30 5196 H 478.028 -5.64499 -0.0123908 0
M  V30 5197 N 477.426 -0.562348 -1.47226 0
M  V30 5198 C 478.672 -0.0402761 -2.0276 0
M  V30 5199 C 479.005 1.30823 -1.43523 0
M  V30 5200 O 478.28 1.85249 -0.592705 0
M  V30 5201 C 478.563 0.047311 -3.60069 0
M  V30 5202 C 478.416 -1.32865 -4.29729 0
M  V30 5203 C 479.735 0.758182 -4.3352 0
M  V30 5204 H 476.854 -0.0161105 -0.736824 0
M  V30 5205 H 479.496 -0.725628 -1.75598 0
M  V30 5206 H 477.646 0.630986 -3.83342 0
M  V30 5207 H 479.318 -1.95593 -4.17781 0
M  V30 5208 H 477.561 -1.90195 -3.89882 0
M  V30 5209 H 478.232 -1.22004 -5.38349 0
M  V30 5210 H 480.708 0.262546 -4.15271 0
M  V30 5211 H 479.584 0.78844 -5.43208 0
M  V30 5212 H 479.845 1.81537 -4.03109 0
M  V30 5213 N 478.904 1.54736 -0.299062 0
M  V30 5214 C 479.837 2.1962 0.619851 0
M  V30 5215 C 480.815 1.16496 1.13434 0
M  V30 5216 O 481.999 1.4513 1.2029 0
M  V30 5217 C 479.126 2.8385 1.84788 0
M  V30 5218 C 478.172 4.00484 1.46679 0
M  V30 5219 S 479.005 5.32926 0.524389 0
M  V30 5220 C 480.161 6.00638 1.76026 0
M  V30 5221 H 480.394 2.97221 0.0686177 0
M  V30 5222 H 477.927 1.54176 -0.0832085 0
M  V30 5223 H 479.885 3.21483 2.55263 0
M  V30 5224 H 478.546 2.06099 2.37028 0
M  V30 5225 H 477.739 4.44201 2.38121 0
M  V30 5226 H 477.341 3.64398 0.842008 0
M  V30 5227 H 479.633 6.21327 2.70109 0
M  V30 5228 H 480.576 6.94805 1.36569 0
M  V30 5229 H 480.984 5.3026 1.93609 0
M  V30 5230 N 480.382 0.0267497 1.57577 0
M  V30 5231 C 481.312 -0.954308 2.13108 0
M  V30 5232 C 482.293 -1.34088 1.04663 0
M  V30 5233 O 483.478 -1.41992 1.32484 0
M  V30 5234 C 480.608 -2.23744 2.65624 0
M  V30 5235 C 479.562 -1.99168 3.78835 0
M  V30 5236 C 478.888 -3.33726 4.17769 0
M  V30 5237 C 480.188 -1.33277 5.0501 0
M  V30 5238 H 481.882 -0.491848 2.95332 0
M  V30 5239 H 479.428 -0.23514 1.42067 0
M  V30 5240 H 481.381 -2.92754 3.03106 0
M  V30 5241 H 480.105 -2.72151 1.80558 0
M  V30 5242 H 478.764 -1.32577 3.41788 0
M  V30 5243 H 478.412 -3.79888 3.29688 0
M  V30 5244 H 478.112 -3.18089 4.94058 0
M  V30 5245 H 479.636 -4.04008 4.57832 0
M  V30 5246 H 481.05 -1.92283 5.40093 0
M  V30 5247 H 479.447 -1.28045 5.8628 0
M  V30 5248 H 480.517 -0.305411 4.83937 0
M  V30 5249 N 481.861 -1.55662 -0.24637 0
M  V30 5250 C 482.791 -1.93377 -1.30873 0
M  V30 5251 C 483.772 -0.798773 -1.50179 0
M  V30 5252 O 484.957 -1.0591 -1.62778 0
M  V30 5253 C 482.087 -2.22893 -2.66338 0
M  V30 5254 C 481.041 -3.38649 -2.61727 0
M  V30 5255 C 480.367 -3.53708 -4.00992 0
M  V30 5256 C 481.667 -4.74323 -2.18666 0
M  V30 5257 H 483.361 -2.82363 -0.995552 0
M  V30 5258 H 480.907 -1.35854 -0.477464 0
M  V30 5259 H 482.86 -2.47866 -3.40794 0
M  V30 5260 H 481.584 -1.30733 -2.99293 0
M  V30 5261 H 480.243 -3.13685 -1.89729 0
M  V30 5262 H 479.891 -2.58967 -4.31214 0
M  V30 5263 H 479.591 -4.31551 -3.98795 0
M  V30 5264 H 481.115 -3.81003 -4.77147 0
M  V30 5265 H 482.529 -4.98665 -2.82854 0
M  V30 5266 H 480.926 -5.55273 -2.27579 0
M  V30 5267 H 481.996 -4.71349 -1.13834 0
M  V30 5268 N 483.339 0.512053 -1.4905 0
M  V30 5269 C 484.585 1.26874 -1.58212 0
M  V30 5270 C 484.918 1.9241 -0.263073 0
M  V30 5271 O 484.193 1.80181 0.732476 0
M  V30 5272 C 484.476 2.34428 -2.73341 0
M  V30 5273 C 484.329 1.73466 -4.15006 0
M  V30 5274 C 485.648 3.36073 -2.84154 0
M  V30 5275 H 482.767 0.459924 -0.575881 0
M  V30 5276 H 485.409 0.568587 -1.81293 0
M  V30 5277 H 483.559 2.94146 -2.53792 0
M  V30 5278 H 485.231 1.17661 -4.46042 0
M  V30 5279 H 483.474 1.03921 -4.21168 0
M  V30 5280 H 484.145 2.51426 -4.91415 0
M  V30 5281 H 486.621 2.86332 -3.01916 0
M  V30 5282 H 485.497 4.08703 -3.66406 0
M  V30 5283 H 485.758 3.97725 -1.93048 0
M  V30 5284 N 484.817 1.37938 0.762283 0
M  V30 5285 C 486.064 1.33668 1.52115 0
M  V30 5286 C 486.392 -0.0759538 1.94352 0
M  V30 5287 O 485.647 -1.05121 1.6507 0
M  V30 5288 C 485.946 2.23042 2.79261 0
M  V30 5289 C 485.612 3.71159 2.56031 0
M  V30 5290 C 484.274 4.11523 2.49404 0
M  V30 5291 C 486.626 4.64955 2.35513 0
M  V30 5292 C 483.954 5.43784 2.20263 0
M  V30 5293 C 486.306 5.97464 2.07894 0
M  V30 5294 C 484.97 6.36922 1.99718 0
M  V30 5295 H 484.24 0.489127 0.556629 0
M  V30 5296 H 486.887 1.70224 0.877262 0
M  V30 5297 H 485.192 1.79512 3.48256 0
M  V30 5298 H 486.889 2.17047 3.37182 0
M  V30 5299 H 483.479 3.39153 2.62056 0
M  V30 5300 H 487.663 4.34623 2.39617 0
M  V30 5301 H 482.919 5.73307 2.12435 0
M  V30 5302 H 487.093 6.6969 1.91019 0
M  V30 5303 H 484.72 7.39331 1.76902 0
M  V30 5304 N 486.295 -0.989507 1.22664 0
M  V30 5305 C 487.544 -1.72375 1.04737 0
M  V30 5306 C 487.857 -1.91096 -0.417316 0
M  V30 5307 O 489.063 -2.6188 -0.716334 0
M  V30 5308 C 487.519 -3.10161 1.82561 0
M  V30 5309 C 487.127 -2.99358 3.333 0
M  V30 5310 C 488.871 -3.87607 1.73093 0
M  V30 5311 C 486.778 -4.32319 4.03552 0
M  V30 5312 H 485.708 -0.646326 0.388302 0
M  V30 5313 H 488.359 -1.10437 1.46546 0
M  V30 5314 H 486.741 -3.728 1.33552 0
M  V30 5315 H 487.915 -2.45863 3.89728 0
M  V30 5316 H 486.23 -2.35392 3.43481 0
M  V30 5317 H 488.827 -4.86025 2.22899 0
M  V30 5318 H 489.17 -4.10509 0.691976 0
M  V30 5319 H 489.703 -3.31652 2.19663 0
M  V30 5320 H 486.442 -4.14616 5.07714 0
M  V30 5321 H 485.962 -4.85714 3.51911 0
M  V30 5322 H 487.641 -5.01051 4.09337 0
M  V30 5323 N 487.773 -1.03688 -1.18687 0
M  V30 5324 C 489.013 -0.746858 -1.90267 0
M  V30 5325 C 489.377 0.712075 -1.78307 0
M  V30 5326 O 490.578 1.11553 -2.44559 0
M  V30 5327 C 488.849 -1.19543 -3.36815 0
M  V30 5328 S 490.408 -1.03047 -4.26529 0
M  V30 5329 H 487.226 -0.271663 -0.657054 0
M  V30 5330 H 489.828 -1.32838 -1.43437 0
M  V30 5331 H 488.532 -2.2527 -3.43047 0
M  V30 5332 H 488.063 -0.607533 -3.88681 0
M  V30 5333 H 490.078 0.0543232 -4.9617 0
M  V30 5334 N 489.251 1.34841 -0.815825 0
M  V30 5335 C 490.497 1.98793 -0.401129 0
M  V30 5336 C 490.83 1.64548 1.03139 0
M  V30 5337 O 490.105 0.913487 1.71714 0
M  V30 5338 C 490.388 3.55143 -0.595409 0
M  V30 5339 C 490.241 3.99155 -2.07352 0
M  V30 5340 C 491.56 4.40092 -0.0268823 0
M  V30 5341 H 488.679 0.722146 -0.14722 0
M  V30 5342 H 491.321 1.59847 -1.02707 0
M  V30 5343 H 489.471 3.8845 -0.0625779 0
M  V30 5344 H 491.143 3.76216 -2.66945 0
M  V30 5345 H 489.386 3.49726 -2.56659 0
M  V30 5346 H 490.057 5.07971 -2.1603 0
M  V30 5347 H 492.533 4.13298 -0.482042 0
M  V30 5348 H 491.409 5.48562 -0.19267 0
M  V30 5349 H 491.67 4.29016 1.06759 0
M  V30 5350 N 490.729 0.570148 1.46925 0
M  V30 5351 C 491.692 -0.159933 2.28641 0
M  V30 5352 C 492.692 -0.830638 1.37685 0
M  V30 5353 O 493.882 -0.684516 1.60187 0
M  V30 5354 C 491.014 -1.2354 3.17727 0
M  V30 5355 H 492.207 0.558035 2.94662 0
M  V30 5356 H 489.76 0.327603 1.52828 0
M  V30 5357 H 490.495 -1.98535 2.56426 0
M  V30 5358 H 490.28 -0.759125 3.84681 0
M  V30 5359 H 491.77 -1.74782 3.79264 0
M  V30 5360 N 492.207 -1.54576 0.307264 0
M  V30 5361 C 493.14 -2.19946 -0.608195 0
M  V30 5362 C 494.118 -1.17096 -1.12815 0
M  V30 5363 O 495.302 -1.45766 -1.19518 0
M  V30 5364 C 492.429 -2.84826 -1.8328 0
M  V30 5365 C 491.475 -4.01256 -1.44554 0
M  V30 5366 S 492.308 -5.33197 -0.49612 0
M  V30 5367 C 493.464 -6.01563 -1.72838 0
M  V30 5368 H 493.697 -2.97253 -0.0528544 0
M  V30 5369 H 491.23 -1.54129 0.0913837 0
M  V30 5370 H 493.188 -3.22832 -2.53554 0
M  V30 5371 H 491.849 -2.07353 -2.35931 0
M  V30 5372 H 491.042 -4.45457 -2.35762 0
M  V30 5373 H 490.644 -3.6484 -0.822671 0
M  V30 5374 H 492.936 -6.22751 -2.6681 0
M  V30 5375 H 493.879 -6.9552 -1.32882 0
M  V30 5376 H 494.287 -5.31279 -1.90795 0
M  V30 5377 N 493.685 -0.035106 -1.57561 0
M  V30 5378 C 494.648 0.929819 -2.09492 0
M  V30 5379 C 495.648 1.25026 -1.01119 0
M  V30 5380 O 496.838 1.18961 -1.27255 0
M  V30 5381 C 493.97 2.24457 -2.56577 0
M  V30 5382 H 495.163 0.479935 -2.96035 0
M  V30 5383 H 492.716 0.213033 -1.54841 0
M  V30 5384 H 493.451 2.74061 -1.73382 0
M  V30 5385 H 493.236 2.02508 -3.35757 0
M  V30 5386 H 494.726 2.93607 -2.96959 0
M  V30 5387 N 495.163 1.55791 0.238111 0
M  V30 5388 C 496.412 1.77234 0.962868 0
M  V30 5389 C 496.725 0.600661 1.86149 0
M  V30 5390 O 497.931 0.698315 2.62366 0
M  V30 5391 C 496.387 3.13808 1.76218 0
M  V30 5392 C 495.995 4.3865 0.910518 0
M  V30 5393 C 497.739 3.44585 2.47914 0
M  V30 5394 C 495.646 5.66252 1.70623 0
M  V30 5395 H 494.576 0.660731 0.36325 0
M  V30 5396 H 497.227 1.8221 0.217242 0
M  V30 5397 H 495.609 3.02963 2.55009 0
M  V30 5398 H 496.783 4.60507 0.164316 0
M  V30 5399 H 495.098 4.15271 0.30647 0
M  V30 5400 H 497.695 4.3714 3.07917 0
M  V30 5401 H 498.038 2.66314 3.19973 0
M  V30 5402 H 498.571 3.56685 1.76127 0
M  V30 5403 H 495.31 6.47369 1.02923 0
M  V30 5404 H 494.83 5.48483 2.42748 0
M  V30 5405 H 496.509 6.05829 2.27114 0
M  V30 5406 N 496.642 -0.504142 1.49319 0
M  V30 5407 C 497.889 -1.25846 1.58647 0
M  V30 5408 C 498.217 -1.92592 0.27177 0
M  V30 5409 O 497.472 -1.81167 -0.74007 0
M  V30 5410 C 497.771 -2.35021 2.69258 0
M  V30 5411 C 497.437 -1.85755 4.1086 0
M  V30 5412 C 496.099 -1.72038 4.49395 0
M  V30 5413 C 498.451 -1.48844 4.99495 0
M  V30 5414 C 495.779 -1.19783 5.74342 0
M  V30 5415 C 498.131 -0.980422 6.24956 0
M  V30 5416 C 496.795 -0.829622 6.62324 0
M  V30 5417 H 496.065 -0.460505 0.580531 0
M  V30 5418 H 498.712 -0.559716 1.83138 0
M  V30 5419 H 497.017 -3.10672 2.38726 0
M  V30 5420 H 498.714 -2.93083 2.73685 0
M  V30 5421 H 495.304 -1.9739 3.80441 0
M  V30 5422 H 499.488 -1.5829 4.70381 0
M  V30 5423 H 494.744 -1.06817 6.01997 0
M  V30 5424 H 498.918 -0.685608 6.93017 0
M  V30 5425 H 496.545 -0.42253 7.59025 0
M  V30 5426 N 498.12 -1.38341 -0.754957 0
M  V30 5427 C 499.345 -1.37882 -1.5493 0
M  V30 5428 C 499.77 0.0296385 -1.88077 0
M  V30 5429 O 499.128 1.01133 -1.50472 0
M  V30 5430 C 499.176 -2.23996 -2.82592 0
M  V30 5431 O 498.28 -1.65612 -3.77686 0
M  V30 5432 H 497.621 -0.470384 -0.468652 0
M  V30 5433 H 500.151 -1.82084 -0.933082 0
M  V30 5434 H 500.161 -2.37806 -3.3153 0
M  V30 5435 H 498.836 -3.26365 -2.57796 0
M  V30 5436 H 497.413 -1.60936 -3.36384 0
M  V30 5437 N 499.598 0.982988 -1.23187 0
M  V30 5438 C 500.561 2.05649 -1.01198 0
M  V30 5439 C 501.561 1.6078 0.0252464 0
M  V30 5440 O 502.751 1.72878 -0.214243 0
M  V30 5441 C 499.883 3.36744 -0.530656 0
M  V30 5442 H 501.076 2.2659 -1.96461 0
M  V30 5443 H 498.629 1.15602 -1.05195 0
M  V30 5444 H 499.364 3.21492 0.425873 0
M  V30 5445 H 499.149 3.7065 -1.2791 0
M  V30 5446 H 500.639 4.15705 -0.397366 0
M  V30 5447 N 501.076 1.04316 1.18135 0
M  V30 5448 C 502.006 0.657299 2.24058 0
M  V30 5449 C 502.987 -0.340678 1.66654 0
M  V30 5450 O 504.172 -0.220223 1.92947 0
M  V30 5451 C 501.302 0.0220715 3.47293 0
M  V30 5452 C 500.256 0.943857 4.17463 0
M  V30 5453 C 499.582 0.172973 5.3442 0
M  V30 5454 C 500.882 2.26409 4.70677 0
M  V30 5455 H 502.576 1.5428 2.56589 0
M  V30 5456 H 500.122 0.743263 1.23335 0
M  V30 5457 H 502.075 -0.259607 4.206 0
M  V30 5458 H 500.799 -0.898323 3.14003 0
M  V30 5459 H 499.458 1.20996 3.46057 0
M  V30 5460 H 499.106 -0.749907 4.97379 0
M  V30 5461 H 498.806 0.787098 5.82304 0
M  V30 5462 H 500.33 -0.101628 6.10515 0
M  V30 5463 H 501.744 2.04294 5.35665 0
M  V30 5464 H 500.141 2.8314 5.29105 0
M  V30 5465 H 501.211 2.90883 3.87962 0
M  V30 5466 N 502.554 -1.34406 0.822964 0
M  V30 5467 C 503.779 -2.0304 0.423034 0
M  V30 5468 C 504.204 -1.61568 -0.963196 0
M  V30 5469 O 503.562 -0.800339 -1.62678 0
M  V30 5470 C 503.61 -3.56636 0.53321 0
M  V30 5471 O 502.714 -4.09971 -0.446939 0
M  V30 5472 H 502.055 -0.64075 0.174171 0
M  V30 5473 H 504.585 -1.71653 1.11339 0
M  V30 5474 H 504.595 -4.05945 0.408991 0
M  V30 5475 H 503.27 -3.86168 1.54425 0
M  V30 5476 H 501.847 -3.71835 -0.281601 0
M  V30 5477 N 504.032 -0.577932 -1.46621 0
M  V30 5478 C 504.964 0.195801 -2.28362 0
M  V30 5479 C 505.977 0.859983 -1.38232 0
M  V30 5480 O 507.166 0.730349 -1.62875 0
M  V30 5481 C 504.266 1.29639 -3.13124 0
M  V30 5482 C 503.439 0.725049 -4.31349 0
M  V30 5483 C 502.498 1.71274 -4.97546 0
M  V30 5484 O 501.524 1.25067 -5.5529 0
M  V30 5485 N 502.726 3.04672 -4.94121 0
M  V30 5486 H 505.491 -0.505468 -2.95407 0
M  V30 5487 H 503.052 -0.415381 -1.56481 0
M  V30 5488 H 505.044 1.95631 -3.54275 0
M  V30 5489 H 503.614 1.90059 -2.48186 0
M  V30 5490 H 502.834 -0.112205 -3.9404 0
M  V30 5491 H 504.122 0.323034 -5.07774 0
M  V30 5492 H 503.52 3.4484 -4.48444 0
M  V30 5493 H 502.077 3.66166 -5.39227 0
M  V30 5494 N 505.51 1.54411 -0.315457 0
M  V30 5495 C 506.44 2.27002 0.547039 0
M  V30 5496 C 507.421 1.27492 1.12605 0
M  V30 5497 O 508.606 1.5629 1.15269 0
M  V30 5498 C 505.736 3.02171 1.71201 0
M  V30 5499 C 504.69 4.0895 1.26268 0
M  V30 5500 C 504.016 4.71915 2.51396 0
M  V30 5501 C 505.316 5.20891 0.383419 0
M  V30 5502 H 507.01 2.99343 -0.0584517 0
M  V30 5503 H 504.556 1.4397 -0.0295527 0
M  V30 5504 H 506.509 3.51681 2.32161 0
M  V30 5505 H 505.233 2.27433 2.34397 0
M  V30 5506 H 503.892 3.60312 0.676062 0
M  V30 5507 H 503.54 3.93801 3.12937 0
M  V30 5508 H 503.24 5.44039 2.22026 0
M  V30 5509 H 504.764 5.24195 3.13133 0
M  V30 5510 H 506.178 5.66206 0.899082 0
M  V30 5511 H 504.575 5.99821 0.182857 0
M  V30 5512 H 505.645 4.81324 -0.587821 0
M  V30 5513 N 506.988 0.0434614 1.5754 0
M  V30 5514 C 507.918 -0.931651 2.14109 0
M  V30 5515 C 508.899 -1.32971 1.06079 0
M  V30 5516 O 510.084 -1.40579 1.33982 0
M  V30 5517 C 507.214 -2.20914 2.67982 0
M  V30 5518 C 506.168 -1.95139 3.80926 0
M  V30 5519 C 505.494 -3.29276 4.21285 0
M  V30 5520 C 506.794 -1.27913 5.06395 0
M  V30 5521 H 508.488 -0.460497 2.95837 0
M  V30 5522 H 506.034 -0.220058 1.42309 0
M  V30 5523 H 507.987 -2.89522 3.06194 0
M  V30 5524 H 506.711 -2.70221 1.83434 0
M  V30 5525 H 505.37 -1.28945 3.43175 0
M  V30 5526 H 505.018 -3.76369 3.33699 0
M  V30 5527 H 504.718 -3.12831 4.97404 0
M  V30 5528 H 506.242 -3.99129 4.62091 0
M  V30 5529 H 507.656 -1.86544 5.42102 0
M  V30 5530 H 506.053 -1.2182 5.87605 0
M  V30 5531 H 507.123 -0.254066 4.84234 0
M  V30 5532 N 508.466 -1.55915 -0.229846 0
M  V30 5533 C 509.376 -1.94891 -1.30593 0
M  V30 5534 C 510.392 -0.851604 -1.51736 0
M  V30 5535 O 511.568 -1.15447 -1.65027 0
M  V30 5536 C 508.633 -2.25052 -2.63728 0
M  V30 5537 C 507.694 -3.48306 -2.5096 0
M  V30 5538 C 506.927 -3.77019 -3.77747 0
M  V30 5539 O 507.15 -3.07534 -4.80395 0
M  V30 5540 O 506.084 -4.70523 -3.75356 0
M  V30 5541 H 509.91 -2.86581 -1.00525 0
M  V30 5542 H 507.495 -1.43017 -0.432025 0
M  V30 5543 H 509.377 -2.45682 -3.42372 0
M  V30 5544 H 508.052 -1.36538 -2.93495 0
M  V30 5545 H 506.959 -3.32964 -1.70546 0
M  V30 5546 H 508.292 -4.37177 -2.26136 0
M  V30 5547 N 509.944 0.496216 -1.49584 0
M  V30 5548 C 510.894 1.59422 -1.62999 0
M  V30 5549 C 511.878 1.53402 -0.485457 0
M  V30 5550 O 513.07 1.60851 -0.738649 0
M  V30 5551 C 510.199 2.98009 -1.70427 0
M  V30 5552 C 509.285 3.09008 -2.90473 0
M  V30 5553 N 509.676 2.89884 -4.14489 0
M  V30 5554 C 507.974 3.40115 -2.8851 0
M  V30 5555 C 508.675 3.0519 -4.95211 0
M  V30 5556 N 507.651 3.3428 -4.2867 0
M  V30 5557 H 511.453 1.43297 -2.56599 0
M  V30 5558 H 508.967 0.702443 -1.46422 0
M  V30 5559 H 510.964 3.76926 -1.78136 0
M  V30 5560 H 509.624 3.152 -0.77967 0
M  V30 5561 H 510.635 2.65963 -4.44392 0
M  V30 5562 H 507.312 3.63452 -2.05448 0
M  V30 5563 H 508.702 2.94856 -6.03746 0
M  V30 5564 N 511.423 1.38739 0.74761 0
M  V30 5565 C 512.671 1.35007 1.50391 0
M  V30 5566 C 512.992 -0.0574274 1.94915 0
M  V30 5567 O 512.262 -1.00628 1.6808 0
M  V30 5568 H 510.842 0.496784 0.557866 0
M  V30 5569 H 513.504 1.73479 0.888319 0
M  V30 5570 H 512.6 2.00474 2.392 0
M  V30 5571 N 512.901 -0.976442 1.23707 0
M  V30 5572 C 513.831 -2.08749 1.04624 0
M  V30 5573 C 514.812 -1.70057 -0.0380956 0
M  V30 5574 O 515.997 -1.93782 0.127308 0
M  V30 5575 C 513.127 -3.41335 0.640902 0
M  V30 5576 C 512.081 -3.93947 1.67302 0
M  V30 5577 C 511.407 -5.22774 1.12301 0
M  V30 5578 C 512.707 -4.22769 3.06697 0
M  V30 5579 H 514.401 -2.24972 1.97555 0
M  V30 5580 H 511.947 -1.08108 0.951247 0
M  V30 5581 H 513.9 -4.18489 0.494434 0
M  V30 5582 H 512.624 -3.24988 -0.324099 0
M  V30 5583 H 511.283 -3.18941 1.80755 0
M  V30 5584 H 510.931 -5.0278 0.148877 0
M  V30 5585 H 510.631 -5.58942 1.81267 0
M  V30 5586 H 512.155 -6.02546 0.988479 0
M  V30 5587 H 513.569 -4.90659 2.96524 0
M  V30 5588 H 511.966 -4.70147 3.72937 0
M  V30 5589 H 513.036 -3.29885 3.55392 0
M  V30 5590 N 514.379 -1.04941 -1.1758 0
M  V30 5591 C 515.656 -0.671918 -1.83697 0
M  V30 5592 C 516.036 0.847929 -1.93322 0
M  V30 5593 O 515.384 1.75287 -1.46583 0
M  V30 5594 C 515.594 -1.35797 -3.21497 0
M  V30 5595 C 516.942 -1.4944 -3.97433 0
M  V30 5596 O 517.966 -1.31678 -3.30967 0
M  V30 5597 O 516.825 -1.78463 -5.1654 0
M  V30 5598 H 513.919 -0.236212 -0.792548 0
M  V30 5599 H 516.465 -1.14884 -1.24899 0
M  V30 5600 H 515.237 -2.39498 -3.09446 0
M  V30 5601 H 514.86 -0.870236 -3.8796 0
M  V30 5602 N 515.857 1.33968 -0.830081 0
M  V30 5603 C 516.787 2.31911 -0.271911 0
M  V30 5604 C 517.768 1.58571 0.61556 0
M  V30 5605 O 518.953 1.86514 0.540946 0
M  V30 5606 C 516.083 3.42737 0.561146 0
M  V30 5607 C 515.037 4.27383 -0.229789 0
M  V30 5608 C 514.363 5.29742 0.726463 0
M  V30 5609 C 515.663 5.02 -1.44197 0
M  V30 5610 H 517.357 2.78844 -1.09025 0
M  V30 5611 H 514.903 1.34061 -0.52571 0
M  V30 5612 H 516.856 4.10276 0.961867 0
M  V30 5613 H 515.58 2.94471 1.41261 0
M  V30 5614 H 514.239 3.61456 -0.611964 0
M  V30 5615 H 513.887 4.77736 1.57408 0
M  V30 5616 H 513.587 5.87255 0.20142 0
M  V30 5617 H 515.111 6.00149 1.12489 0
M  V30 5618 H 516.525 5.62355 -1.11488 0
M  V30 5619 H 514.922 5.69122 -1.90317 0
M  V30 5620 H 515.992 4.31281 -2.2164 0
M  V30 5621 N 517.335 0.585699 1.46312 0
M  V30 5622 C 518.245 -0.148236 2.34131 0
M  V30 5623 C 519.261 -0.882972 1.49932 0
M  V30 5624 O 520.437 -0.845484 1.82794 0
M  V30 5625 C 517.502 -1.14714 3.27172 0
M  V30 5626 C 516.563 -0.416746 4.27272 0
M  V30 5627 C 515.796 -1.36806 5.15868 0
M  V30 5628 O 516.019 -2.60475 5.07454 0
M  V30 5629 O 514.953 -0.877018 5.95476 0
M  V30 5630 H 518.779 0.572882 2.98248 0
M  V30 5631 H 516.364 0.346082 1.45336 0
M  V30 5632 H 518.246 -1.72303 3.84564 0
M  V30 5633 H 516.921 -1.84967 2.65648 0
M  V30 5634 H 515.828 0.201061 3.73559 0
M  V30 5635 H 517.161 0.244872 4.9159 0
M  V30 5636 N 518.813 -1.54241 0.323641 0
M  V30 5637 C 520.041 -2.04985 -0.280871 0
M  V30 5638 C 520.456 -1.19978 -1.45777 0
M  V30 5639 O 519.813 -0.230471 -1.81039 0
M  V30 5640 C 519.864 -3.54353 -0.715258 0
M  V30 5641 O 519.585 -4.36132 0.414817 0
M  V30 5642 C 521.086 -4.21189 -1.38257 0
M  V30 5643 H 518.306 -0.66851 -0.0577502 0
M  V30 5644 H 520.85 -1.99029 0.469852 0
M  V30 5645 H 519.005 -3.60596 -1.41596 0
M  V30 5646 H 519.419 -5.2445 0.0725227 0
M  V30 5647 H 520.893 -5.27154 -1.63745 0
M  V30 5648 H 521.37 -3.72307 -2.32989 0
M  V30 5649 H 521.976 -4.19085 -0.724447 0
M  V30 5650 N 520.291 -0.0518155 -1.57515 0
M  V30 5651 C 521.516 0.634896 -1.97443 0
M  V30 5652 C 521.941 1.63546 -0.929207 0
M  V30 5653 O 521.299 1.80981 0.107484 0
M  V30 5654 C 521.347 1.29765 -3.36442 0
M  V30 5655 O 520.451 2.41333 -3.34413 0
M  V30 5656 H 519.792 0.164994 -0.643174 0
M  V30 5657 H 522.322 -0.120407 -2.04245 0
M  V30 5658 H 522.332 1.64918 -3.73184 0
M  V30 5659 H 521.007 0.564361 -4.12053 0
M  V30 5660 H 519.584 2.08122 -3.09418 0
M  V30 5661 N 521.769 1.56035 0.221574 0
M  V30 5662 C 522.717 1.93269 1.29421 0
M  V30 5663 C 523.711 0.814727 1.48521 0
M  V30 5664 O 524.917 0.999559 1.49696 0
M  V30 5665 H 521.292 0.614188 0.43391 0
M  V30 5666 H 523.263 2.82773 0.952987 0
M  V30 5667 C 522.012 2.26573 2.63742 0
M  V30 5668 H 521.335 3.12112 2.49853 0
M  V30 5669 H 522.775 2.5651 3.37607 0
M  V30 5670 C 521.234 1.09086 3.1875 0
M  V30 5671 O 521.764 0.351985 4.00155 0
M  V30 5672 N 519.97 0.874693 2.77124 0
M  V30 5673 H 519.517 1.47726 2.11033 0
M  V30 5674 H 519.475 0.0903349 3.1427 0
M  V30 5675 N 523.247 -0.488276 1.49845 0
M  V30 5676 C 524.194 -1.58836 1.67451 0
M  V30 5677 C 525.164 -1.57886 0.515857 0
M  V30 5678 O 526.349 -1.75679 0.744403 0
M  V30 5679 C 523.489 -2.96915 1.75885 0
M  V30 5680 C 522.602 -3.07784 3.03138 0
M  V30 5681 C 521.737 -4.36673 3.02473 0
M  V30 5682 C 520.776 -4.41222 4.24252 0
M  V30 5683 N 519.913 -5.61557 4.21424 0
M  V30 5684 H 524.753 -1.43131 2.61376 0
M  V30 5685 H 522.29 -0.696186 1.29583 0
M  V30 5686 H 524.248 -3.76965 1.78755 0
M  V30 5687 H 522.878 -3.11295 0.85414 0
M  V30 5688 H 521.93 -2.20717 3.09819 0
M  V30 5689 H 523.242 -3.07005 3.93128 0
M  V30 5690 H 522.396 -5.25055 3.03977 0
M  V30 5691 H 521.135 -4.40037 2.10283 0
M  V30 5692 H 520.14 -3.5124 4.22978 0
M  V30 5693 H 521.365 -4.39564 5.17649 0
M  V30 5694 H 519.311 -5.65738 3.32078 0
M  V30 5695 H 519.228 -5.62447 5.05163 0
M  V30 5696 H 520.496 -6.52111 4.2705 0
M  V30 5697 N 524.725 -1.39134 -0.740242 0
M  V30 5698 C 526.002 -1.26584 -1.49117 0
M  V30 5699 C 526.382 0.126902 -2.10718 0
M  V30 5700 O 525.73 1.13765 -1.98166 0
M  V30 5701 C 525.94 -2.38619 -2.54681 0
M  V30 5702 C 527.288 -2.77685 -3.21211 0
M  V30 5703 O 528.312 -2.38029 -2.64991 0
M  V30 5704 O 527.171 -3.46115 -4.22926 0
M  V30 5705 H 524.265 -0.495769 -0.661923 0
M  V30 5706 H 526.811 -1.50995 -0.774514 0
M  V30 5707 H 525.583 -3.3175 -2.07504 0
M  V30 5708 H 525.206 -2.15845 -3.33911 0
M  V30 5709 N 526.204 0.969867 -1.24223 0
M  V30 5710 C 527.451 1.71256 -1.08063 0
M  V30 5711 C 527.779 1.90734 0.380872 0
M  V30 5712 O 527.034 1.46469 1.29789 0
M  V30 5713 C 527.333 3.10883 -1.76314 0
M  V30 5714 C 526.999 3.11252 -3.26241 0
M  V30 5715 C 525.661 3.1106 -3.67144 0
M  V30 5716 C 528.013 3.05751 -4.22097 0
M  V30 5717 C 525.341 3.03097 -5.02344 0
M  V30 5718 C 527.693 2.9933 -5.57301 0
M  V30 5719 C 526.357 2.97466 -5.97554 0
M  V30 5720 H 525.627 0.62667 -0.395431 0
M  V30 5721 H 528.274 1.13422 -1.54297 0
M  V30 5722 H 526.579 3.72168 -1.22468 0
M  V30 5723 H 528.276 3.67138 -1.61277 0
M  V30 5724 H 524.866 3.12165 -2.93685 0
M  V30 5725 H 529.05 3.05031 -3.91497 0
M  V30 5726 H 524.306 3.00013 -5.32731 0
M  V30 5727 H 528.48 2.94033 -6.31283 0
M  V30 5728 H 526.107 2.91051 -7.02277 0
M  V30 5729 N 527.682 1.05563 1.17022 0
M  V30 5730 C 528.91 0.78845 1.91288 0
M  V30 5731 C 529.325 -0.656318 1.77025 0
M  V30 5732 O 528.682 -1.44869 1.10992 0
M  V30 5733 C 528.733 1.16444 3.42232 0
M  V30 5734 O 528.454 2.5525 3.5606 0
M  V30 5735 C 529.955 0.923937 4.33565 0
M  V30 5736 H 527.175 0.286389 0.606813 0
M  V30 5737 H 529.719 1.4073 1.48375 0
M  V30 5738 H 527.874 0.590266 3.82877 0
M  V30 5739 H 528.288 2.70097 4.49609 0
M  V30 5740 H 529.762 1.23672 5.37968 0
M  V30 5741 H 530.239 -0.140688 4.38975 0
M  V30 5742 H 530.845 1.48214 3.98639 0
M  V30 5743 N 529.16 -1.33526 0.837174 0
M  V30 5744 C 530.385 -2.0258 0.444545 0
M  V30 5745 C 530.81 -1.6258 -0.946006 0
M  V30 5746 O 530.168 -0.817548 -1.6182 0
M  V30 5747 C 530.216 -3.5605 0.571006 0
M  V30 5748 O 529.32 -4.10422 -0.403431 0
M  V30 5749 H 528.661 -0.638866 0.180958 0
M  V30 5750 H 531.191 -1.70462 1.13154 0
M  V30 5751 H 531.201 -4.05488 0.452024 0
M  V30 5752 H 529.876 -3.84509 1.58512 0
M  V30 5753 H 528.453 -3.72113 -0.242147 0
M  V30 5754 N 530.638 -0.59345 -1.46 0
M  V30 5755 C 531.887 -0.0808084 -2.01538 0
M  V30 5756 C 532.2 1.29112 -1.46934 0
M  V30 5757 O 533.406 1.8957 -1.94359 0
M  V30 5758 C 531.862 -0.0938311 -3.59778 0
M  V30 5759 C 531.47 -1.46474 -4.23379 0
M  V30 5760 C 533.214 0.364306 -4.22934 0
M  V30 5761 C 531.121 -1.4349 -5.73729 0
M  V30 5762 H 530.051 -0.0264407 -0.753536 0
M  V30 5763 H 532.702 -0.746689 -1.67621 0
M  V30 5764 H 531.084 0.638427 -3.9082 0
M  V30 5765 H 532.258 -2.21758 -4.03931 0
M  V30 5766 H 530.573 -1.86379 -3.7236 0
M  V30 5767 H 533.17 0.405584 -5.3316 0
M  V30 5768 H 533.513 1.38409 -3.92618 0
M  V30 5769 H 534.046 -0.31423 -3.96557 0
M  V30 5770 H 530.785 -2.43184 -6.08722 0
M  V30 5771 H 530.305 -0.724431 -5.95409 0
M  V30 5772 H 531.984 -1.15243 -6.36654 0
M  V30 5773 N 532.116 1.54067 -0.331816 0
M  V30 5774 C 533.527 1.86059 0.15454 0
M  V30 5775 C 533.878 1.25331 1.50952 0
M  V30 5776 O 533.003 0.562441 2.08963 0
M  V30 5777 C 533.598 3.37581 0.287192 0
M  V30 5778 C 532.157 3.69493 0.717773 0
M  V30 5779 C 531.304 2.76863 -0.155569 0
M  V30 5780 H 534.255 1.48797 -0.55182 0
M  V30 5781 H 534.276 3.63744 1.11671 0
M  V30 5782 H 533.788 3.81751 -0.699131 0
M  V30 5783 H 531.889 3.3086 1.71354 0
M  V30 5784 H 532.002 4.76315 0.5158 0
M  V30 5785 H 530.366 2.51995 0.370213 0
M  V30 5786 H 531.149 3.23861 -1.13881 0
M  V30 5787 N 533.594 0.0601682 1.57485 0
M  V30 5788 C 534.557 -0.896373 2.10945 0
M  V30 5789 C 535.557 -1.23402 1.03095 0
M  V30 5790 O 536.747 -1.16921 1.29132 0
M  V30 5791 C 533.879 -2.20346 2.60116 0
M  V30 5792 H 535.072 -0.432778 2.96761 0
M  V30 5793 H 532.625 -0.188372 1.55161 0
M  V30 5794 H 533.36 -2.71268 1.7772 0
M  V30 5795 H 533.145 -1.9714 3.38937 0
M  V30 5796 H 534.635 -2.88846 3.01592 0
M  V30 5797 N 535.072 -1.5615 -0.213296 0
M  V30 5798 C 536.035 -1.92249 -1.24792 0
M  V30 5799 C 537.035 -0.801828 -1.39382 0
M  V30 5800 O 538.225 -1.06948 -1.37506 0
M  V30 5801 C 535.357 -2.18056 -2.62039 0
M  V30 5802 H 536.55 -2.84793 -0.939845 0
M  V30 5803 H 534.103 -1.49559 -0.454062 0
M  V30 5804 H 534.838 -1.2809 -2.97932 0
M  V30 5805 H 534.623 -2.99703 -2.52825 0
M  V30 5806 H 536.113 -2.47051 -3.36683 0
M  V30 5807 N 536.55 0.480323 -1.50102 0
M  V30 5808 C 537.79 1.24301 -1.62261 0
M  V30 5809 C 538.154 1.89452 -0.311758 0
M  V30 5810 O 539.355 2.67022 -0.308696 0
M  V30 5811 C 537.626 2.26588 -2.76392 0
M  V30 5812 S 539.185 3.11919 -3.08629 0
M  V30 5813 H 536.003 0.42215 -0.57211 0
M  V30 5814 H 538.605 0.541591 -1.87848 0
M  V30 5815 H 537.309 1.7729 -3.70131 0
M  V30 5816 H 536.84 3.01371 -2.52862 0
M  V30 5817 H 538.855 4.27598 -2.51742 0
M  V30 5818 N 538.028 1.39524 0.732853 0
M  V30 5819 C 539.274 1.38072 1.49358 0
M  V30 5820 C 539.629 -0.0227943 1.92386 0
M  V30 5821 O 538.922 -0.98976 1.64056 0
M  V30 5822 C 539.116 2.28916 2.74468 0
M  V30 5823 C 538.945 3.7796 2.43673 0
M  V30 5824 C 537.715 4.46874 2.35863 0
M  V30 5825 C 539.913 4.69886 2.09074 0
M  V30 5826 N 537.895 5.81242 1.97561 0
M  V30 5827 C 539.266 5.9292 1.81234 0
M  V30 5828 C 541.321 4.57887 1.95561 0
M  V30 5829 C 540.024 7.05297 1.41242 0
M  V30 5830 C 542.05 5.70187 1.56972 0
M  V30 5831 C 541.412 6.92297 1.30018 0
M  V30 5832 H 537.511 0.56051 0.5453 0
M  V30 5833 H 540.095 1.75093 0.85151 0
M  V30 5834 H 538.266 1.9405 3.36451 0
M  V30 5835 H 539.998 2.18441 3.40684 0
M  V30 5836 H 536.753 4.00341 2.5303 0
M  V30 5837 H 537.177 6.52356 1.80997 0
M  V30 5838 H 541.819 3.64014 2.15067 0
M  V30 5839 H 539.537 7.99069 1.20476 0
M  V30 5840 H 543.123 5.62892 1.47119 0
M  V30 5841 H 542.003 7.7772 1.00605 0
M  V30 5842 N 539.506 -0.963266 1.24736 0
M  V30 5843 C 540.752 -1.71 1.10139 0
M  V30 5844 C 541.107 -1.89089 -0.35541 0
M  V30 5845 O 540.4 -1.44451 -1.25875 0
M  V30 5846 C 540.594 -3.09944 1.7796 0
M  V30 5847 C 540.423 -3.05408 3.30085 0
M  V30 5848 C 539.193 -3.09643 3.99311 0
M  V30 5849 C 541.391 -2.87241 4.26611 0
M  V30 5850 N 539.373 -2.95174 5.3828 0
M  V30 5851 C 540.744 -2.81114 5.52607 0
M  V30 5852 C 542.799 -2.71856 4.17132 0
M  V30 5853 C 541.502 -2.61174 6.70209 0
M  V30 5854 C 543.528 -2.53284 5.34417 0
M  V30 5855 C 542.89 -2.4787 6.59348 0
M  V30 5856 H 538.989 -0.634078 0.457678 0
M  V30 5857 H 541.573 -1.14169 1.57713 0
M  V30 5858 H 539.744 -3.64958 1.32893 0
M  V30 5859 H 541.476 -3.73348 1.56183 0
M  V30 5860 H 538.231 -3.18498 3.50508 0
M  V30 5861 H 538.655 -2.91168 6.11188 0
M  V30 5862 H 543.297 -2.74821 3.21299 0
M  V30 5863 H 541.015 -2.56952 7.6616 0
M  V30 5864 H 544.601 -2.42317 5.28936 0
M  V30 5865 H 543.481 -2.33685 7.48573 0
M  V30 5866 N 540.985 -1.06182 -1.16461 0
M  V30 5867 C 542.231 -0.779015 -1.87241 0
M  V30 5868 C 542.564 0.692715 -1.81425 0
M  V30 5869 O 541.839 1.5074 -1.22913 0
M  V30 5870 C 542.122 -1.2728 -3.36856 0
M  V30 5871 C 541.975 -2.80821 -3.51368 0
M  V30 5872 C 543.294 -0.879799 -4.31216 0
M  V30 5873 H 540.413 -0.284464 -0.679889 0
M  V30 5874 H 543.055 -1.31755 -1.36896 0
M  V30 5875 H 541.205 -0.814673 -3.79862 0
M  V30 5876 H 542.877 -3.34833 -3.17308 0
M  V30 5877 H 541.12 -3.19606 -2.93316 0
M  V30 5878 H 541.791 -3.10435 -4.56436 0
M  V30 5879 H 544.267 -1.27436 -3.96105 0
M  V30 5880 H 543.143 -1.25278 -5.34412 0
M  V30 5881 H 543.404 0.215372 -4.41575 0
M  V30 5882 N 542.463 1.3308 -0.844243 0
M  V30 5883 C 543.712 1.96868 -0.438833 0
M  V30 5884 C 544.025 1.67599 1.00846 0
M  V30 5885 O 545.231 2.25043 1.51881 0
M  V30 5886 C 543.687 3.5234 -0.73377 0
M  V30 5887 C 543.295 3.90481 -2.1961 0
M  V30 5888 C 545.039 4.22653 -0.395574 0
M  V30 5889 C 542.946 5.38954 -2.43481 0
M  V30 5890 H 541.876 0.736749 -0.160364 0
M  V30 5891 H 544.527 1.51623 -1.03358 0
M  V30 5892 H 542.909 3.95941 -0.068589 0
M  V30 5893 H 544.083 3.57922 -2.90221 0
M  V30 5894 H 542.398 3.33165 -2.4978 0
M  V30 5895 H 544.995 5.31848 -0.551477 0
M  V30 5896 H 545.338 4.11004 0.661921 0
M  V30 5897 H 545.871 3.84601 -1.01621 0
M  V30 5898 H 542.61 5.55612 -3.47816 0
M  V30 5899 H 542.13 5.72954 -1.77437 0
M  V30 5900 H 543.809 6.05907 -2.26905 0
M  V30 5901 N 543.941 0.601185 1.45683 0
M  V30 5902 C 545.19 0.0914953 2.01492 0
M  V30 5903 C 545.503 -1.28331 1.47616 0
M  V30 5904 O 546.709 -1.88537 1.95362 0
M  V30 5905 C 545.165 0.11291 3.59723 0
M  V30 5906 C 544.773 1.48717 4.22596 0
M  V30 5907 C 546.517 -0.341871 4.23121 0
M  V30 5908 C 544.424 1.46531 5.7296 0
M  V30 5909 H 543.354 0.0304365 0.753385 0
M  V30 5910 H 546.005 0.755568 1.67223 0
M  V30 5911 H 544.387 -0.617692 3.91153 0
M  V30 5912 H 545.561 2.23897 4.02749 0
M  V30 5913 H 543.876 1.88351 3.71366 0
M  V30 5914 H 546.473 -0.377304 5.33367 0
M  V30 5915 H 546.816 -1.36325 3.93346 0
M  V30 5916 H 547.349 0.335256 3.96385 0
M  V30 5917 H 544.088 2.46408 6.07423 0
M  V30 5918 H 543.608 0.755997 5.95017 0
M  V30 5919 H 545.287 1.18618 6.36034 0
M  V30 5920 N 545.419 -1.53889 0.339982 0
M  V30 5921 C 546.644 -2.05741 -0.261798 0
M  V30 5922 C 547.069 -1.21354 -1.43718 0
M  V30 5923 O 546.427 -0.22645 -1.7988 0
M  V30 5924 C 546.475 -3.54542 -0.658228 0
M  V30 5925 O 545.579 -3.7302 -1.75869 0
M  V30 5926 H 544.92 -0.662529 -0.0441672 0
M  V30 5927 H 547.45 -1.98568 0.493161 0
M  V30 5928 H 547.46 -3.9711 -0.936368 0
M  V30 5929 H 546.135 -4.15412 0.201358 0
M  V30 5930 H 544.712 -3.42355 -1.47809 0
M  V30 5931 N 546.897 -0.0685191 -1.57451 0
M  V30 5932 C 547.83 0.935736 -2.08133 0
M  V30 5933 C 548.808 1.29317 -0.985698 0
M  V30 5934 O 549.992 1.40304 -1.25886 0
M  V30 5935 C 547.119 2.2448 -2.53627 0
M  V30 5936 C 546.165 2.03917 -3.74593 0
M  V30 5937 S 546.998 1.30154 -5.19442 0
M  V30 5938 C 548.154 2.62346 -5.68265 0
M  V30 5939 H 548.387 0.504473 -2.92989 0
M  V30 5940 H 545.92 0.144169 -1.53725 0
M  V30 5941 H 547.878 2.99718 -2.80499 0
M  V30 5942 H 546.539 2.64731 -1.69045 0
M  V30 5943 H 545.732 3.00788 -4.04404 0
M  V30 5944 H 545.334 1.36815 -3.48077 0
M  V30 5945 H 547.626 3.58448 -5.7491 0
M  V30 5946 H 548.569 2.3715 -6.67207 0
M  V30 5947 H 548.977 2.69401 -4.96068 0
M  V30 5948 N 548.375 1.56261 0.205012 0
M  V30 5949 C 549.603 1.84141 0.943386 0
M  V30 5950 C 550.018 0.649772 1.77266 0
M  V30 5951 O 549.375 -0.381612 1.78466 0
M  V30 5952 C 549.426 3.10719 1.84759 0
M  V30 5953 O 549.147 4.25286 1.05181 0
M  V30 5954 C 550.648 3.51706 2.69848 0
M  V30 5955 H 547.868 0.611734 0.275721 0
M  V30 5956 H 550.412 2.03364 0.215253 0
M  V30 5957 H 548.567 2.93422 2.52947 0
M  V30 5958 H 548.981 4.97301 1.66709 0
M  V30 5959 H 550.455 4.43266 3.28967 0
M  V30 5960 H 550.932 2.7423 3.43067 0
M  V30 5961 H 551.538 3.71499 2.07047 0
M  V30 5962 N 549.853 -0.472356 1.50355 0
M  V30 5963 C 551.081 -1.24784 1.65035 0
M  V30 5964 C 551.496 -1.85837 0.333176 0
M  V30 5965 O 550.853 -1.69168 -0.68472 0
M  V30 5966 C 550.904 -2.35747 2.74054 0
M  V30 5967 O 550.625 -1.77197 4.00665 0
M  V30 5968 C 552.126 -3.26645 2.99696 0
M  V30 5969 H 549.346 -0.377432 0.554785 0
M  V30 5970 H 551.89 -0.563962 1.9657 0
M  V30 5971 H 550.045 -2.99912 2.45217 0
M  V30 5972 H 550.459 -2.5026 4.60945 0
M  V30 5973 H 551.933 -4.00718 3.79644 0
M  V30 5974 H 552.41 -3.8535 2.10718 0
M  V30 5975 H 553.016 -2.68218 3.3006 0
M  V30 5976 N 551.331 -1.39911 -0.725443 0
M  V30 5977 C 552.577 -1.37858 -1.48738 0
M  V30 5978 C 552.91 0.0224187 -1.94187 0
M  V30 5979 O 552.185 0.989204 -1.67466 0
M  V30 5980 C 552.468 -2.3594 -2.72038 0
M  V30 5981 C 552.321 -3.85023 -2.32546 0
M  V30 5982 C 553.64 -2.31704 -3.74167 0
M  V30 5983 H 550.759 -0.502074 -0.539528 0
M  V30 5984 H 553.401 -1.70974 -0.828728 0
M  V30 5985 H 551.551 -2.0783 -3.28236 0
M  V30 5986 H 553.223 -4.2392 -1.81905 0
M  V30 5987 H 551.466 -4.01334 -1.64661 0
M  V30 5988 H 552.137 -4.49152 -3.20884 0
M  V30 5989 H 554.613 -2.5658 -3.27576 0
M  V30 5990 H 553.489 -3.02395 -4.58092 0
M  V30 5991 H 553.75 -1.3253 -4.21768 0
M  V30 5992 N 552.809 0.956637 -1.25245 0
M  V30 5993 C 554.057 1.69764 -1.09657 0
M  V30 5994 C 554.378 1.91583 0.363464 0
M  V30 5995 O 553.648 1.50149 1.25825 0
M  V30 5996 H 552.228 0.629097 -0.402798 0
M  V30 5997 H 554.89 1.15026 -1.57337 0
M  V30 5998 H 553.986 2.67769 -1.60331 0
M  V30 5999 N 554.287 1.06798 1.15896 0
M  V30 6000 C 555.517 0.807522 1.90165 0
M  V30 6001 C 555.925 -0.642417 1.7796 0
M  V30 6002 O 555.268 -1.45193 1.12537 0
M  V30 6003 C 555.33 1.12939 3.41299 0
M  V30 6004 C 554.994 2.57879 3.7729 0
M  V30 6005 C 555.991 3.56118 3.78782 0
M  V30 6006 C 553.676 2.93311 4.07767 0
M  V30 6007 C 555.67 4.87827 4.10248 0
M  V30 6008 C 553.357 4.25219 4.38899 0
M  V30 6009 C 554.355 5.22287 4.4012 0
M  V30 6010 O 554.043 6.51826 4.70508 0
M  V30 6011 H 553.775 0.291946 0.609708 0
M  V30 6012 H 556.329 1.42627 1.47806 0
M  V30 6013 H 554.559 0.45359 3.84031 0
M  V30 6014 H 556.248 0.852363 3.9685 0
M  V30 6015 H 557.014 3.30086 3.55342 0
M  V30 6016 H 552.893 2.18409 4.05979 0
M  V30 6017 H 556.437 5.63586 4.11116 0
M  V30 6018 H 552.334 4.51006 4.61805 0
M  V30 6019 H 553.102 6.56893 4.88298 0
M  V30 6020 N 555.766 -1.3263 0.851289 0
M  V30 6021 C 557.014 -1.96978 0.452128 0
M  V30 6022 C 557.335 -1.67715 -0.99482 0
M  V30 6023 O 556.605 -0.98259 -1.69476 0
M  V30 6024 H 555.185 -0.72873 0.164202 0
M  V30 6025 H 557.847 -1.61774 1.08698 0
M  V30 6026 H 556.943 -3.06387 0.594407 0
M  V30 6027 N 557.244 -0.608902 -1.45362 0
M  V30 6028 C 558.521 -0.0365378 -1.95566 0
M  V30 6029 C 558.901 1.43169 -1.55131 0
M  V30 6030 O 558.249 2.1349 -0.814513 0
M  V30 6031 C 558.459 -0.236026 -3.48201 0
M  V30 6032 C 559.807 -0.117518 -4.24437 0
M  V30 6033 O 560.831 -0.166217 -3.55812 0
M  V30 6034 O 559.69 -0.00372127 -5.465 0
M  V30 6035 H 556.784 0.0349874 -0.82626 0
M  V30 6036 H 559.33 -0.679055 -1.55521 0
M  V30 6037 H 558.102 -1.25569 -3.70605 0
M  V30 6038 H 557.725 0.441691 -3.95139 0
M  V30 6039 N 558.722 1.53707 -0.348139 0
M  V30 6040 C 559.655 2.21481 0.549667 0
M  V30 6041 C 560.633 1.20046 1.09671 0
M  V30 6042 O 561.817 1.48883 1.15612 0
M  V30 6043 C 558.944 2.89585 1.75664 0
M  V30 6044 C 557.99 4.04948 1.33864 0
M  V30 6045 S 558.823 5.34325 0.354577 0
M  V30 6046 C 559.979 6.05934 1.56828 0
M  V30 6047 H 560.212 2.97289 -0.0259755 0
M  V30 6048 H 557.745 1.53833 -0.132216 0
M  V30 6049 H 559.703 3.29441 2.44906 0
M  V30 6050 H 558.364 2.13535 2.30351 0
M  V30 6051 H 557.557 4.51552 2.23868 0
M  V30 6052 H 557.159 3.66893 0.725651 0
M  V30 6053 H 559.451 6.29606 2.50205 0
M  V30 6054 H 560.394 6.98799 1.14395 0
M  V30 6055 H 560.802 5.36151 1.76642 0
M  V30 6056 N 560.2 0.0768682 1.57412 0
M  V30 6057 C 561.43 -0.5991 1.97723 0
M  V30 6058 C 561.838 -1.63378 0.954166 0
M  V30 6059 O 561.181 -1.83578 -0.0668706 0
M  V30 6060 C 561.243 -1.32078 3.34358 0
M  V30 6061 C 560.907 -0.438985 4.54887 0
M  V30 6062 C 561.904 0.305492 5.19002 0
M  V30 6063 C 559.589 -0.362378 5.00991 0
M  V30 6064 C 561.583 1.11475 6.27576 0
M  V30 6065 C 559.27 0.450543 6.09437 0
M  V30 6066 C 560.268 1.18777 6.72593 0
M  V30 6067 O 559.956 1.98727 7.7895 0
M  V30 6068 H 559.688 -0.166725 0.655117 0
M  V30 6069 H 562.242 0.147337 2.04871 0
M  V30 6070 H 560.472 -2.1134 3.2384 0
M  V30 6071 H 562.161 -1.88949 3.5924 0
M  V30 6072 H 562.927 0.25593 4.84324 0
M  V30 6073 H 558.806 -0.925832 4.51608 0
M  V30 6074 H 562.35 1.69068 6.76803 0
M  V30 6075 H 558.247 0.501651 6.43548 0
M  V30 6076 H 559.015 1.91214 7.95851 0
M  V30 6077 N 561.678 -1.56367 -0.196722 0
M  V30 6078 C 563.089 -1.70462 -0.761545 0
M  V30 6079 C 563.44 -0.683161 -1.83922 0
M  V30 6080 O 562.565 0.160753 -2.15802 0
M  V30 6081 C 563.16 -3.09057 -1.38814 0
M  V30 6082 C 561.719 -3.24922 -1.90007 0
M  V30 6083 C 560.866 -2.66412 -0.769399 0
M  V30 6084 H 563.817 -1.58675 0.0283263 0
M  V30 6085 H 563.838 -3.06296 -2.2575 0
M  V30 6086 H 563.35 -3.83378 -0.603559 0
M  V30 6087 H 561.451 -2.55514 -2.71189 0
M  V30 6088 H 561.564 -4.3241 -2.06297 0
M  V30 6089 H 559.928 -2.25546 -1.18326 0
M  V30 6090 H 560.711 -3.433 0.00291773 0
M  V30 6091 N 563.156 0.464375 -1.50603 0
M  V30 6092 C 564.405 1.21277 -1.61167 0
M  V30 6093 C 564.718 1.92953 -0.320704 0
M  V30 6094 O 565.924 2.69778 -0.30534 0
M  V30 6095 C 564.38 2.20403 -2.84518 0
M  V30 6096 C 563.988 1.54499 -4.20516 0
M  V30 6097 C 565.732 2.95843 -3.0443 0
M  V30 6098 C 563.639 2.51951 -5.35047 0
M  V30 6099 H 562.569 0.456367 -0.600204 0
M  V30 6100 H 565.22 0.48254 -1.77042 0
M  V30 6101 H 563.602 2.96746 -2.62217 0
M  V30 6102 H 564.776 0.83899 -4.53098 0
M  V30 6103 H 563.091 0.913152 -4.06264 0
M  V30 6104 H 565.688 3.6879 -3.87167 0
M  V30 6105 H 566.031 3.55622 -2.16423 0
M  V30 6106 H 566.564 2.26611 -3.26944 0
M  V30 6107 H 563.303 1.96901 -6.25228 0
M  V30 6108 H 562.823 3.20683 -5.06875 0
M  V30 6109 H 564.502 3.13643 -5.65895 0
M  V30 6110 N 564.634 1.40294 0.718013 0
M  V30 6111 C 565.862 1.4175 1.50714 0
M  V30 6112 C 566.277 0.0165366 1.88793 0
M  V30 6113 O 565.634 -0.958942 1.55276 0
M  V30 6114 C 565.685 2.30598 2.784 0
M  V30 6115 O 565.406 3.6524 2.41932 0
M  V30 6116 C 566.907 2.4062 3.72313 0
M  V30 6117 H 564.127 0.483565 0.465194 0
M  V30 6118 H 566.671 1.84316 0.885889 0
M  V30 6119 H 564.826 1.91401 3.36815 0
M  V30 6120 H 565.24 4.12402 3.24076 0
M  V30 6121 H 566.714 3.07001 4.58753 0
M  V30 6122 H 567.191 1.4305 4.15251 0
M  V30 6123 H 567.797 2.80359 3.19811 0
M  V30 6124 N 566.112 -0.949982 1.2575 0
M  V30 6125 C 567.358 -1.69766 1.10938 0
M  V30 6126 C 567.691 -1.91056 -0.348028 0
M  V30 6127 O 566.966 -1.48488 -1.25625 0
M  V30 6128 C 567.249 -3.07779 1.86933 0
M  V30 6129 C 567.102 -2.9387 3.4053 0
M  V30 6130 C 568.421 -4.07749 1.65616 0
M  V30 6131 H 565.54 -0.616144 0.404396 0
M  V30 6132 H 568.182 -1.10394 1.54639 0
M  V30 6133 H 566.332 -3.58462 1.4979 0
M  V30 6134 H 568.004 -2.50476 3.87375 0
M  V30 6135 H 566.247 -2.29686 3.68004 0
M  V30 6136 H 566.918 -3.91719 3.88922 0
M  V30 6137 H 569.394 -3.65994 1.97959 0
M  V30 6138 H 568.27 -5.02348 2.21218 0
M  V30 6139 H 568.531 -4.38029 0.598595 0
M  V30 6140 N 567.59 -1.07411 -1.15328 0
M  V30 6141 C 569.001 -0.820261 -1.67716 0
M  V30 6142 C 569.352 0.654539 -1.8496 0
M  V30 6143 O 568.477 1.50664 -1.55337 0
M  V30 6144 C 569.072 -1.48242 -3.04647 0
M  V30 6145 C 567.631 -1.27606 -3.5411 0
M  V30 6146 C 566.778 -1.5517 -2.29821 0
M  V30 6147 H 569.729 -1.23608 -0.995332 0
M  V30 6148 H 569.75 -0.903984 -3.69606 0
M  V30 6149 H 569.262 -2.55578 -2.92064 0
M  V30 6150 H 567.363 -0.222948 -3.71932 0
M  V30 6151 H 567.476 -1.99667 -4.35511 0
M  V30 6152 H 565.84 -0.972747 -2.35393 0
M  V30 6153 H 566.623 -2.63689 -2.19824 0
M  V30 6154 N 569.068 1.32177 -0.85831 0
M  V30 6155 C 570.316 1.96735 -0.462568 0
M  V30 6156 C 570.637 1.6824 0.985911 0
M  V30 6157 O 569.907 0.991564 1.68952 0
M  V30 6158 H 568.487 0.727849 -0.168064 0
M  V30 6159 H 571.149 1.61195 -1.09554 0
M  V30 6160 H 570.245 3.06068 -0.610647 0
M  V30 6161 N 570.547 0.616602 1.45037 0
M  V30 6162 C 571.963 0.280994 1.57107 0
M  V30 6163 C 572.163 -1.21627 1.60653 0
M  V30 6164 O 571.219 -1.9997 1.54169 0
M  V30 6165 C 572.532 0.960116 2.8496 0
M  V30 6166 C 574.08 0.936884 2.98649 0
M  V30 6167 C 574.555 1.59619 4.29285 0
M  V30 6168 N 576.046 1.5621 4.36065 0
M  V30 6169 C 576.781 2.04131 5.35834 0
M  V30 6170 N 576.277 2.60177 6.4209 0
M  V30 6171 N 578.07 1.94845 5.27249 0
M  V30 6172 H 570.221 1.58867 1.40979 0
M  V30 6173 H 572.484 0.666024 0.674623 0
M  V30 6174 H 572.19 2.01473 2.88273 0
M  V30 6175 H 572.064 0.488921 3.74018 0
M  V30 6176 H 574.451 -0.109209 2.94898 0
M  V30 6177 H 574.532 1.44643 2.10979 0
M  V30 6178 H 574.176 2.64166 4.33796 0
M  V30 6179 H 574.106 1.06159 5.15789 0
M  V30 6180 H 576.597 1.15276 3.59889 0
M  V30 6181 H 576.91 2.94513 7.1448 0
M  V30 6182 H 575.255 2.64221 6.42816 0
M  V30 6183 H 578.446 1.50792 4.43147 0
M  V30 6184 H 578.619 2.32504 6.04852 0
M  V30 6185 N 572.025 -1.5352 0.356285 0
M  V30 6186 C 573.274 -2.00298 -0.237373 0
M  V30 6187 C 573.587 -1.24784 -1.50627 0
M  V30 6188 O 574.793 -1.62103 -2.17795 0
M  V30 6189 C 573.249 -3.56771 -0.473545 0
M  V30 6190 C 572.857 -4.41154 0.780183 0
M  V30 6191 C 574.601 -4.1193 -1.02537 0
M  V30 6192 C 572.508 -5.89161 0.514108 0
M  V30 6193 H 571.438 -0.748307 -0.092478 0
M  V30 6194 H 574.089 -1.77283 0.473588 0
M  V30 6195 H 572.471 -3.75902 -1.24553 0
M  V30 6196 H 573.645 -4.33797 1.55425 0
M  V30 6197 H 571.96 -3.97052 1.25455 0
M  V30 6198 H 574.557 -5.20133 -1.2396 0
M  V30 6199 H 574.9 -3.65943 -1.98473 0
M  V30 6200 H 575.433 -3.96561 -0.313775 0
M  V30 6201 H 572.172 -6.39408 1.44355 0
M  V30 6202 H 571.692 -5.9939 -0.221632 0
M  V30 6203 H 573.371 -6.46857 0.136122 0
M  V30 6204 N 573.503 -0.0852151 -1.57369 0
M  V30 6205 C 574.433 0.874556 -2.16503 0
M  V30 6206 C 575.414 1.30111 -1.09568 0
M  V30 6207 O 576.599 1.36977 -1.37662 0
M  V30 6208 C 573.729 2.13731 -2.73745 0
M  V30 6209 C 572.683 1.84971 -3.85966 0
M  V30 6210 C 572.009 3.17991 -4.29867 0
M  V30 6211 C 573.309 1.14442 -5.09608 0
M  V30 6212 H 575.003 0.381899 -2.96954 0
M  V30 6213 H 572.549 0.18225 -1.42842 0
M  V30 6214 H 574.502 2.81302 -3.13763 0
M  V30 6215 H 573.226 2.65263 -1.90534 0
M  V30 6216 H 571.885 1.19801 -3.46473 0
M  V30 6217 H 571.533 3.6739 -3.4356 0
M  V30 6218 H 571.233 2.99534 -5.05523 0
M  V30 6219 H 572.757 3.86737 -4.72511 0
M  V30 6220 H 574.171 1.72105 -5.46857 0
M  V30 6221 H 572.568 1.06197 -5.90629 0
M  V30 6222 H 573.638 0.12559 -4.84737 0
M  V30 6223 N 574.981 1.5647 0.188427 0
M  V30 6224 C 576.229 1.80655 0.905986 0
M  V30 6225 C 576.55 0.659391 1.83513 0
M  V30 6226 O 575.82 -0.321868 1.93238 0
M  V30 6227 H 574.4 0.666391 0.337538 0
M  V30 6228 H 577.062 1.93949 0.192339 0
M  V30 6229 H 576.158 2.74066 1.49313 0
M  V30 6230 N 576.459 -0.456382 1.50847 0
M  V30 6231 C 577.707 -1.20497 1.62249 0
M  V30 6232 C 578.028 -1.92156 0.331839 0
M  V30 6233 O 577.298 -1.84751 -0.651443 0
M  V30 6234 H 575.878 -0.447775 0.597918 0
M  V30 6235 H 578.54 -0.525099 1.87693 0
M  V30 6236 H 577.636 -1.94492 2.44089 0
M  V30 6237 N 577.937 -1.40673 -0.710563 0
M  V30 6238 C 579.183 -1.39428 -1.47267 0
M  V30 6239 C 579.516 0.00182129 -1.942 0
M  V30 6240 O 578.791 0.971387 -1.68506 0
M  V30 6241 C 579.074 -2.38812 -2.6952 0
M  V30 6242 C 578.927 -3.87467 -2.28449 0
M  V30 6243 C 580.246 -2.3566 -3.71689 0
M  V30 6244 H 577.365 -0.507768 -0.534173 0
M  V30 6245 H 580.007 -1.71843 -0.810547 0
M  V30 6246 H 578.157 -2.113 -3.26013 0
M  V30 6247 H 579.829 -4.25825 -1.77399 0
M  V30 6248 H 578.072 -4.03058 -1.60395 0
M  V30 6249 H 578.743 -4.5253 -3.16103 0
M  V30 6250 H 581.219 -2.6004 -3.24836 0
M  V30 6251 H 580.095 -3.07237 -4.54859 0
M  V30 6252 H 580.356 -1.36996 -4.20339 0
M  V30 6253 N 579.415 0.9433 -1.26252 0
M  V30 6254 C 580.655 1.70397 -1.1289 0
M  V30 6255 C 581.019 1.89268 0.322713 0
M  V30 6256 O 582.22 2.62503 0.578418 0
M  V30 6257 C 580.491 3.04296 -1.87453 0
M  V30 6258 S 582.05 3.95475 -1.90119 0
M  V30 6259 H 578.868 0.585559 -0.403289 0
M  V30 6260 H 581.47 1.12424 -1.59941 0
M  V30 6261 H 580.174 2.8824 -2.9214 0
M  V30 6262 H 579.705 3.67327 -1.40835 0
M  V30 6263 H 581.72 4.86297 -0.986373 0
M  V30 6264 N 580.893 1.08022 1.14757 0
M  V30 6265 C 582.139 0.808705 1.85978 0
M  V30 6266 C 582.472 -0.663764 1.82504 0
M  V30 6267 O 581.747 -1.48765 1.25296 0
M  V30 6268 C 582.03 1.32623 3.34788 0
M  V30 6269 C 581.883 2.86375 3.46856 0
M  V30 6270 C 583.202 0.948291 4.29762 0
M  V30 6271 H 580.321 0.295244 0.675278 0
M  V30 6272 H 582.963 1.33917 1.34783 0
M  V30 6273 H 581.113 0.875002 3.78518 0
M  V30 6274 H 582.785 3.39839 3.11941 0
M  V30 6275 H 581.028 3.24232 2.88194 0
M  V30 6276 H 581.699 3.17658 4.51439 0
M  V30 6277 H 584.175 1.33722 3.94028 0
M  V30 6278 H 583.051 1.33765 5.32352 0
M  V30 6279 H 583.312 -0.145094 4.41862 0
M  V30 6280 N 582.371 -1.3172 0.865308 0
M  V30 6281 C 583.617 -1.97168 0.474633 0
M  V30 6282 C 583.95 -1.68263 -0.969604 0
M  V30 6283 O 583.225 -0.976588 -1.68205 0
M  V30 6284 C 583.508 -3.52689 0.726808 0
M  V30 6285 C 583.361 -3.91185 2.22024 0
M  V30 6286 C 584.68 -4.39689 0.190201 0
M  V30 6287 H 581.799 -0.716185 0.17392 0
M  V30 6288 H 584.441 -1.55925 1.08569 0
M  V30 6289 H 582.591 -3.8795 0.206705 0
M  V30 6290 H 584.263 -3.66049 2.80724 0
M  V30 6291 H 582.506 -3.3996 2.69462 0
M  V30 6292 H 583.177 -4.99604 2.34735 0
M  V30 6293 H 585.653 -4.11225 0.635103 0
M  V30 6294 H 584.529 -5.47469 0.396132 0
M  V30 6295 H 584.79 -4.32683 -0.907625 0
M  V30 6296 N 583.85 -0.624285 -1.44708 0
M  V30 6297 C 585.075 -0.131171 -2.06985 0
M  V30 6298 C 585.5 1.18234 -1.46295 0
M  V30 6299 O 584.858 1.72375 -0.561842 0
M  V30 6300 C 584.906 -0.0226724 -3.60593 0
M  V30 6301 O 584.01 1.02314 -3.99507 0
M  V30 6302 H 583.351 -0.0816556 -0.65896 0
M  V30 6303 H 585.88 -0.859027 -1.85693 0
M  V30 6304 H 585.891 0.170138 -4.07645 0
M  V30 6305 H 584.566 -0.981685 -4.04148 0
M  V30 6306 H 583.143 0.805452 -3.64097 0
M  V30 6307 N 585.328 1.53329 -0.364422 0
M  V30 6308 C 586.576 2.00842 0.225189 0
M  V30 6309 C 586.897 1.25345 1.49378 0
M  V30 6310 O 586.167 0.366396 1.92443 0
M  V30 6311 H 584.747 0.742009 0.0862027 0
M  V30 6312 H 587.409 1.8863 -0.490389 0
M  V30 6313 H 586.505 3.08795 0.452987 0
M  V30 6314 N 586.806 0.0935595 1.57322 0
M  V30 6315 C 588.055 -0.570191 1.93473 0
M  V30 6316 C 588.368 -1.69434 0.977318 0
M  V30 6317 O 589.574 -2.41914 1.23248 0
M  V30 6318 C 588.03 -1.06564 3.43762 0
M  V30 6319 C 587.638 0.0286723 4.47991 0
M  V30 6320 C 589.382 -1.70221 3.88877 0
M  V30 6321 C 587.289 -0.482046 5.89432 0
M  V30 6322 H 586.219 -0.216764 0.72217 0
M  V30 6323 H 588.87 0.169313 1.82717 0
M  V30 6324 H 587.252 -1.85878 3.49664 0
M  V30 6325 H 588.426 0.804106 4.5373 0
M  V30 6326 H 586.741 0.570336 4.12476 0
M  V30 6327 H 589.338 -2.09502 4.91948 0
M  V30 6328 H 589.681 -2.57078 3.27439 0
M  V30 6329 H 590.214 -0.974919 3.85668 0
M  V30 6330 H 586.953 0.349871 6.54566 0
M  V30 6331 H 586.473 -1.22452 5.87167 0
M  V30 6332 H 588.152 -0.951508 6.39965 0
M  V30 6333 N 588.284 -1.56567 -0.180126 0
M  V30 6334 C 589.53 -1.81761 -0.899497 0
M  V30 6335 C 589.863 -0.670015 -1.82276 0
M  V30 6336 O 589.138 0.328575 -1.91705 0
M  V30 6337 C 589.421 -3.17296 -1.7028 0
M  V30 6338 C 589.274 -4.4257 -0.803255 0
M  V30 6339 C 590.593 -3.49678 -2.67233 0
M  V30 6340 H 587.712 -0.661192 -0.325567 0
M  V30 6341 H 590.354 -1.89272 -0.16612 0
M  V30 6342 H 588.504 -3.11023 -2.32802 0
M  V30 6343 H 590.176 -4.60902 -0.191585 0
M  V30 6344 H 588.419 -4.33658 -0.110796 0
M  V30 6345 H 589.09 -5.33935 -1.40064 0
M  V30 6346 H 591.566 -3.56347 -2.14839 0
M  V30 6347 H 590.442 -4.45605 -3.20511 0
M  V30 6348 H 590.703 -2.73932 -3.47007 0
M  V30 6349 N 589.762 0.448376 -1.51087 0
M  V30 6350 C 590.692 1.55102 -1.74544 0
M  V30 6351 C 591.673 1.59357 -0.594932 0
M  V30 6352 O 592.858 1.75261 -0.836491 0
M  V30 6353 C 589.988 2.93268 -1.86041 0
M  V30 6354 C 588.942 3.03877 -3.01402 0
M  V30 6355 C 588.268 4.43914 -2.98068 0
M  V30 6356 C 589.568 2.7898 -4.41551 0
M  V30 6357 H 591.262 1.35724 -2.66869 0
M  V30 6358 H 588.808 0.651498 -1.28419 0
M  V30 6359 H 590.761 3.70356 -2.01034 0
M  V30 6360 H 589.485 3.13853 -0.903548 0
M  V30 6361 H 588.144 2.29227 -2.86096 0
M  V30 6362 H 587.792 4.6145 -2.00182 0
M  V30 6363 H 587.492 4.51944 -3.75527 0
M  V30 6364 H 589.016 5.22991 -3.1514 0
M  V30 6365 H 590.43 3.45805 -4.57265 0
M  V30 6366 H 588.827 2.98431 -5.20633 0
M  V30 6367 H 589.897 1.74663 -4.5235 0
M  V30 6368 N 591.24 1.41047 0.703093 0
M  V30 6369 C 592.17 1.45067 1.82969 0
M  V30 6370 C 593.151 0.31016 1.67248 0
M  V30 6371 O 594.336 0.520548 1.87093 0
M  V30 6372 C 591.466 1.32478 3.2104 0
M  V30 6373 C 590.42 2.44262 3.51454 0
M  V30 6374 C 589.746 2.16742 4.88801 0
M  V30 6375 C 591.046 3.86606 3.51189 0
M  V30 6376 H 592.74 2.39353 1.79863 0
M  V30 6377 H 590.286 1.15206 0.863919 0
M  V30 6378 H 592.239 1.33904 3.99559 0
M  V30 6379 H 590.963 0.346735 3.24754 0
M  V30 6380 H 589.622 2.42107 2.75282 0
M  V30 6381 H 589.27 1.17299 4.89132 0
M  V30 6382 H 588.97 2.91643 5.10116 0
M  V30 6383 H 590.494 2.19872 5.69639 0
M  V30 6384 H 591.908 3.90517 4.19725 0
M  V30 6385 H 590.305 4.61128 3.84033 0
M  V30 6386 H 591.375 4.15296 2.50315 0
M  V30 6387 N 592.718 -0.936591 1.26751 0
M  V30 6388 C 593.681 -2.01752 1.08761 0
M  V30 6389 C 594.681 -1.60763 0.0344435 0
M  V30 6390 O 595.871 -1.71963 0.278258 0
M  V30 6391 C 593.003 -3.34543 0.655271 0
M  V30 6392 H 594.196 -2.19143 2.04735 0
M  V30 6393 H 591.749 -1.11618 1.09413 0
M  V30 6394 H 592.484 -3.22851 -0.30626 0
M  V30 6395 H 592.269 -3.65647 1.41578 0
M  V30 6396 H 593.759 -4.13944 0.551378 0
M  V30 6397 N 594.196 -1.08629 -1.14182 0
M  V30 6398 C 595.126 -0.740003 -2.21464 0
M  V30 6399 C 596.107 0.278591 -1.67803 0
M  V30 6400 O 597.292 0.148461 -1.93632 0
M  V30 6401 C 594.422 -0.150952 -3.46972 0
M  V30 6402 C 593.376 -1.09815 -4.13672 0
M  V30 6403 C 592.702 -0.3712 -5.3341 0
M  V30 6404 C 594.002 -2.43722 -4.61949 0
M  V30 6405 H 595.696 -1.63697 -2.50686 0
M  V30 6406 H 593.242 -0.788526 -1.20492 0
M  V30 6407 H 595.195 0.103325 -4.21273 0
M  V30 6408 H 593.919 0.781164 -3.1712 0
M  V30 6409 H 592.578 -1.33756 -3.41328 0
M  V30 6410 H 592.226 0.564792 -4.99819 0
M  V30 6411 H 591.926 -1.00267 -5.78982 0
M  V30 6412 H 593.45 -0.12503 -6.10472 0
M  V30 6413 H 594.864 -2.24034 -5.27714 0
M  V30 6414 H 593.261 -3.02582 -5.18232 0
M  V30 6415 H 594.331 -3.05082 -3.76899 0
M  V30 6416 N 595.674 1.31259 -0.872281 0
M  V30 6417 C 597.085 1.78822 -0.536617 0
M  V30 6418 C 597.436 1.71855 0.946594 0
M  V30 6419 O 596.561 1.28769 1.73918 0
M  V30 6420 C 597.156 3.24698 -0.967294 0
M  V30 6421 C 595.715 3.70147 -0.683251 0
M  V30 6422 C 594.862 2.51994 -1.15733 0
M  V30 6423 H 597.813 1.18308 -1.05777 0
M  V30 6424 H 597.834 3.79386 -0.290929 0
M  V30 6425 H 597.346 3.29737 -2.04683 0
M  V30 6426 H 595.447 3.70607 0.384825 0
M  V30 6427 H 595.56 4.62183 -1.2619 0
M  V30 6428 H 593.924 2.48078 -0.577024 0
M  V30 6429 H 594.707 2.59778 -2.24434 0
M  V30 6430 N 597.152 0.631951 1.44375 0
M  V30 6431 C 598.401 0.134214 2.01253 0
M  V30 6432 C 598.714 -1.25171 1.50305 0
M  V30 6433 O 599.92 -1.8435 1.99317 0
M  V30 6434 C 598.376 0.189187 3.59402 0
M  V30 6435 C 597.984 1.57647 4.19346 0
M  V30 6436 C 599.728 -0.252044 4.23751 0
M  V30 6437 C 597.635 1.58651 5.69722 0
M  V30 6438 H 596.565 0.0464101 0.75257 0
M  V30 6439 H 599.216 0.790868 1.65582 0
M  V30 6440 H 597.598 -0.534584 3.92375 0
M  V30 6441 H 598.772 2.32389 3.97909 0
M  V30 6442 H 597.087 1.96186 3.67288 0
M  V30 6443 H 599.684 -0.264084 5.34047 0
M  V30 6444 H 600.027 -1.27951 3.96149 0
M  V30 6445 H 600.56 0.41926 3.95584 0
M  V30 6446 H 597.299 2.59237 6.0206 0
M  V30 6447 H 596.819 0.882039 5.93279 0
M  V30 6448 H 598.498 1.32082 6.33375 0
M  V30 6449 N 598.631 -1.53133 0.372548 0
M  V30 6450 C 599.859 -2.05774 -0.215515 0
M  V30 6451 C 600.274 -1.24555 -1.41886 0
M  V30 6452 O 599.631 -0.287951 -1.80214 0
M  V30 6453 C 599.682 -3.5645 -0.602161 0
M  V30 6454 O 599.403 -4.34591 0.553359 0
M  V30 6455 C 600.904 -4.25374 -1.24787 0
M  V30 6456 H 598.124 -0.670009 -0.0364529 0
M  V30 6457 H 600.668 -1.97434 0.532934 0
M  V30 6458 H 598.823 -3.64918 -1.30052 0
M  V30 6459 H 599.237 -5.23954 0.239336 0
M  V30 6460 H 600.711 -5.32097 -1.46891 0
M  V30 6461 H 601.188 -3.79531 -2.21026 0
M  V30 6462 H 601.794 -4.21177 -0.590752 0
M  V30 6463 N 600.109 -0.101901 -1.5727 0
M  V30 6464 C 601.356 0.560197 -1.94597 0
M  V30 6465 C 601.684 1.67767 -0.984101 0
M  V30 6466 O 600.939 1.95699 -0.00489193 0
M  V30 6467 C 601.238 1.14898 -3.38427 0
M  V30 6468 C 600.904 0.154613 -4.50635 0
M  V30 6469 C 599.566 -0.118861 -4.81053 0
M  V30 6470 C 601.918 -0.523979 -5.18559 0
M  V30 6471 C 599.246 -1.0775 -5.76721 0
M  V30 6472 C 601.598 -1.47114 -6.15256 0
M  V30 6473 C 600.262 -1.75278 -6.44076 0
M  V30 6474 H 599.532 0.204991 -0.712081 0
M  V30 6475 H 602.179 -0.17918 -1.9066 0
M  V30 6476 H 600.484 1.96476 -3.38976 0
M  V30 6477 H 602.181 1.66909 -3.64613 0
M  V30 6478 H 598.771 0.377948 -4.2693 0
M  V30 6479 H 602.955 -0.325851 -4.95229 0
M  V30 6480 H 598.211 -1.30263 -5.97362 0
M  V30 6481 H 602.385 -2.00274 -6.66981 0
M  V30 6482 H 600.012 -2.49717 -7.18015 0
M  V30 6483 N 601.587 1.56661 0.17182 0
M  V30 6484 C 602.836 1.81158 0.886831 0
M  V30 6485 C 603.149 0.679072 1.83434 0
M  V30 6486 O 604.355 0.808964 2.59168 0
M  V30 6487 C 602.811 3.20999 1.6275 0
M  V30 6488 C 602.419 4.42117 0.723652 0
M  V30 6489 C 604.163 3.5479 2.33076 0
M  V30 6490 C 602.07 5.7298 1.46452 0
M  V30 6491 H 601 0.675543 0.334899 0
M  V30 6492 H 603.651 1.82967 0.139765 0
M  V30 6493 H 602.033 3.13506 2.4193 0
M  V30 6494 H 603.207 4.60789 -0.0311485 0
M  V30 6495 H 601.522 4.16197 0.130063 0
M  V30 6496 H 604.119 4.49806 2.89099 0
M  V30 6497 H 604.462 2.79646 3.08389 0
M  V30 6498 H 604.995 3.63834 1.6084 0
M  V30 6499 H 601.734 6.51152 0.753729 0
M  V30 6500 H 601.254 5.58285 2.19266 0
M  V30 6501 H 602.933 6.14916 2.01214 0
M  V30 6502 N 603.065 -0.440357 1.51323 0
M  V30 6503 C 604.295 -1.21079 1.67402 0
M  V30 6504 C 604.703 -1.85555 0.369599 0
M  V30 6505 O 604.046 -1.71375 -0.661525 0
M  V30 6506 C 604.108 -2.33839 2.73056 0
M  V30 6507 C 603.772 -1.89755 4.15743 0
M  V30 6508 C 604.769 -1.40268 5.0062 0
M  V30 6509 C 602.454 -1.97539 4.61826 0
M  V30 6510 C 604.448 -0.991474 6.29642 0
M  V30 6511 C 602.135 -1.56029 5.90845 0
M  V30 6512 C 603.133 -1.06915 6.7458 0
M  V30 6513 O 602.821 -0.659933 8.01187 0
M  V30 6514 H 602.553 -0.371133 0.56501 0
M  V30 6515 H 605.107 -0.528409 1.98487 0
M  V30 6516 H 603.337 -3.05345 2.37279 0
M  V30 6517 H 605.026 -2.95713 2.78044 0
M  V30 6518 H 605.792 -1.33652 4.66221 0
M  V30 6519 H 601.671 -2.34713 3.96776 0
M  V30 6520 H 605.215 -0.607425 6.9495 0
M  V30 6521 H 601.112 -1.62315 6.24759 0
M  V30 6522 H 601.88 -0.786052 8.14717 0
M  V30 6523 N 604.543 -1.41418 -0.695603 0
M  V30 6524 C 605.493 -1.39731 -1.80165 0
M  V30 6525 C 606.477 -0.271689 -1.5859 0
M  V30 6526 O 607.669 -0.512354 -1.69422 0
M  V30 6527 C 604.798 -1.28187 -3.1847 0
M  V30 6528 C 603.884 -2.45612 -3.45739 0
M  V30 6529 N 604.275 -3.71077 -3.43708 0
M  V30 6530 C 602.573 -2.39424 -3.76288 0
M  V30 6531 C 603.274 -4.48957 -3.69882 0
M  V30 6532 N 602.25 -3.7907 -3.89624 0
M  V30 6533 H 606.052 -2.34656 -1.76957 0
M  V30 6534 H 603.566 -1.35473 -0.89559 0
M  V30 6535 H 605.563 -1.2506 -3.977 0
M  V30 6536 H 604.223 -0.342468 -3.22889 0
M  V30 6537 H 605.234 -4.03963 -3.2409 0
M  V30 6538 H 601.911 -1.53955 -3.88077 0
M  V30 6539 H 603.301 -5.57887 -3.74448 0
M  V30 6540 N 606.021 0.929856 -1.27246 0
M  V30 6541 C 607.246 1.71674 -1.16374 0
M  V30 6542 C 607.671 1.86064 0.276024 0
M  V30 6543 O 607.029 1.3591 1.19992 0
M  V30 6544 C 607.077 3.09526 -1.85003 0
M  V30 6545 O 606.181 3.96142 -1.14653 0
M  V30 6546 H 605.522 0.52629 -0.404863 0
M  V30 6547 H 608.052 1.16381 -1.68276 0
M  V30 6548 H 608.062 3.59852 -1.92276 0
M  V30 6549 H 606.737 2.98369 -2.89739 0
M  V30 6550 H 605.314 3.54584 -1.15433 0
M  V30 6551 N 607.499 1.09233 1.13605 0
M  V30 6552 C 608.746 0.827159 1.84836 0
M  V30 6553 C 609.074 -0.647199 1.83416 0
M  V30 6554 O 608.329 -1.49228 1.26608 0
M  V30 6555 C 608.628 1.305 3.32723 0
M  V30 6556 C 608.294 2.78864 3.54325 0
M  V30 6557 C 606.956 3.19382 3.59928 0
M  V30 6558 C 609.308 3.74532 3.62457 0
M  V30 6559 C 606.636 4.54346 3.71196 0
M  V30 6560 C 608.988 5.09283 3.75252 0
M  V30 6561 C 607.652 5.49394 3.79108 0
M  V30 6562 H 606.922 0.302679 0.676363 0
M  V30 6563 H 609.569 1.36676 1.34134 0
M  V30 6564 H 607.874 0.68517 3.85762 0
M  V30 6565 H 609.571 1.07648 3.86281 0
M  V30 6566 H 606.161 2.46507 3.50617 0
M  V30 6567 H 610.345 3.44343 3.57409 0
M  V30 6568 H 605.601 4.84864 3.72447 0
M  V30 6569 H 609.775 5.83269 3.80487 0
M  V30 6570 H 607.402 6.5397 3.87591 0
M  V30 6571 N 608.977 -1.30795 0.87923 0
M  V30 6572 C 610.223 -1.96653 0.495519 0
M  V30 6573 C 610.556 -1.69282 -0.951703 0
M  V30 6574 O 609.831 -0.994374 -1.6716 0
M  V30 6575 C 610.114 -3.51898 0.764174 0
M  V30 6576 C 609.967 -3.88808 2.2616 0
M  V30 6577 C 611.286 -4.39462 0.236825 0
M  V30 6578 H 608.405 -0.7143 0.181507 0
M  V30 6579 H 611.047 -1.54765 1.10217 0
M  V30 6580 H 609.197 -3.87709 0.247841 0
M  V30 6581 H 610.869 -3.63051 2.8459 0
M  V30 6582 H 609.112 -3.37082 2.73053 0
M  V30 6583 H 609.783 -4.97086 2.4002 0
M  V30 6584 H 612.259 -4.10528 0.678683 0
M  V30 6585 H 611.135 -5.47018 0.454176 0
M  V30 6586 H 611.396 -4.33621 -0.861683 0
M  V30 6587 N 610.455 -0.639598 -1.44038 0
M  V30 6588 C 611.387 0.0987684 -2.28987 0
M  V30 6589 C 612.4 0.80058 -1.41755 0
M  V30 6590 O 613.589 0.660611 -1.65826 0
M  V30 6591 C 610.689 1.16242 -3.18341 0
M  V30 6592 C 609.862 0.541447 -4.34036 0
M  V30 6593 C 608.921 1.50017 -5.04362 0
M  V30 6594 O 607.947 1.01403 -5.60095 0
M  V30 6595 N 609.149 2.83441 -5.06598 0
M  V30 6596 H 611.914 -0.630305 -2.92997 0
M  V30 6597 H 609.475 -0.481376 -1.54578 0
M  V30 6598 H 611.467 1.80429 -3.62253 0
M  V30 6599 H 610.037 1.79362 -2.56024 0
M  V30 6600 H 609.257 -0.27923 -3.9321 0
M  V30 6601 H 610.545 0.107379 -5.08687 0
M  V30 6602 H 609.943 3.2551 -4.62666 0
M  V30 6603 H 608.5 3.42966 -5.54272 0
M  V30 6604 N 611.933 1.52934 -0.380664 0
M  V30 6605 C 613.173 2.03378 0.204161 0
M  V30 6606 C 613.537 1.26132 1.44758 0
M  V30 6607 O 614.738 1.66657 2.109 0
M  V30 6608 C 613.009 3.54241 0.474118 0
M  V30 6609 S 614.568 4.26529 1.03046 0
M  V30 6610 H 611.386 0.708608 0.0582719 0
M  V30 6611 H 613.988 1.88263 -0.527017 0
M  V30 6612 H 612.692 4.08055 -0.438088 0
M  V30 6613 H 612.223 3.73547 1.23396 0
M  V30 6614 H 614.238 4.38964 2.31354 0
M  V30 6615 N 613.412 0.11024 1.57214 0
M  V30 6616 C 614.642 -0.557025 1.98949 0
M  V30 6617 C 615.05 -1.61317 0.988606 0
M  V30 6618 O 614.393 -1.83679 -0.0279159 0
M  V30 6619 C 614.455 -1.24956 3.37085 0
M  V30 6620 C 614.119 -0.342398 4.55716 0
M  V30 6621 C 615.116 0.415511 5.18237 0
M  V30 6622 C 612.801 -0.256029 5.01647 0
M  V30 6623 C 614.795 1.24761 6.25071 0
M  V30 6624 C 612.482 0.579713 6.08344 0
M  V30 6625 C 613.48 1.33017 6.69922 0
M  V30 6626 O 613.168 2.15205 7.74559 0
M  V30 6627 H 612.9 -0.152792 0.658506 0
M  V30 6628 H 615.454 0.19076 2.04512 0
M  V30 6629 H 613.684 -2.04424 3.2825 0
M  V30 6630 H 615.373 -1.81286 3.63167 0
M  V30 6631 H 616.139 0.358605 4.83672 0
M  V30 6632 H 612.018 -0.829831 4.5347 0
M  V30 6633 H 615.562 1.83386 6.73064 0
M  V30 6634 H 611.459 0.638044 6.42339 0
M  V30 6635 H 612.227 2.08052 7.91617 0
M  V30 6636 N 614.89 -1.56749 -0.16351 0
M  V30 6637 C 615.84 -1.93424 -1.20712 0
M  V30 6638 C 616.824 -0.803469 -1.39403 0
M  V30 6639 O 618.016 -1.06675 -1.41243 0
M  V30 6640 C 615.145 -2.30431 -2.54473 0
M  V30 6641 C 614.231 -3.5004 -2.39443 0
M  V30 6642 N 614.622 -4.67058 -1.9414 0
M  V30 6643 C 612.92 -3.548 -2.70246 0
M  V30 6644 C 613.621 -5.49184 -1.9176 0
M  V30 6645 N 612.597 -4.9044 -2.34457 0
M  V30 6646 H 616.399 -2.8138 -0.848681 0
M  V30 6647 H 613.913 -1.58089 -0.371717 0
M  V30 6648 H 615.91 -2.54903 -3.29894 0
M  V30 6649 H 614.57 -1.43818 -2.91112 0
M  V30 6650 H 615.581 -4.91128 -1.64357 0
M  V30 6651 H 612.258 -2.78685 -3.10871 0
M  V30 6652 H 613.648 -6.5297 -1.58366 0
M  V30 6653 N 616.368 0.432326 -1.51554 0
M  V30 6654 C 617.278 1.55023 -1.76082 0
M  V30 6655 C 618.294 1.61593 -0.645265 0
M  V30 6656 O 619.47 1.78742 -0.928086 0
M  V30 6657 C 616.535 2.90964 -1.88523 0
M  V30 6658 C 615.596 2.9447 -3.12388 0
M  V30 6659 C 614.829 4.23926 -3.24225 0
M  V30 6660 O 615.052 5.16576 -2.4188 0
M  V30 6661 O 613.986 4.33818 -4.17235 0
M  V30 6662 H 617.812 1.37238 -2.70923 0
M  V30 6663 H 615.397 0.615845 -1.36117 0
M  V30 6664 H 617.279 3.71633 -1.98662 0
M  V30 6665 H 615.954 3.08865 -0.9687 0
M  V30 6666 H 614.861 2.12737 -3.07723 0
M  V30 6667 H 616.194 2.81514 -4.03746 0
M  V30 6668 N 617.846 1.41785 0.688094 0
M  V30 6669 C 618.776 1.47 1.8142 0
M  V30 6670 C 619.757 0.327881 1.6691 0
M  V30 6671 O 620.942 0.540362 1.86531 0
M  V30 6672 C 618.072 1.35876 3.19617 0
M  V30 6673 C 617.026 2.47976 3.48844 0
M  V30 6674 C 616.352 2.21915 4.86475 0
M  V30 6675 C 617.652 3.90309 3.47068 0
M  V30 6676 H 619.346 2.41247 1.77314 0
M  V30 6677 H 616.892 1.16116 0.851651 0
M  V30 6678 H 618.845 1.38134 3.98117 0
M  V30 6679 H 617.569 0.38116 3.24368 0
M  V30 6680 H 616.228 2.45013 2.72698 0
M  V30 6681 H 615.876 1.2248 4.8786 0
M  V30 6682 H 615.576 2.97037 5.06994 0
M  V30 6683 H 617.1 2.25901 5.67275 0
M  V30 6684 H 618.514 3.94947 4.1556 0
M  V30 6685 H 616.911 4.65175 3.7912 0
M  V30 6686 H 617.981 4.17927 2.45896 0
M  V30 6687 N 619.324 -0.923095 1.27737 0
M  V30 6688 C 620.271 -2.02432 1.1086 0
M  V30 6689 C 621.241 -1.66098 0.00835195 0
M  V30 6690 O 622.426 -1.90027 0.171542 0
M  V30 6691 C 619.566 -3.36476 0.766671 0
M  V30 6692 C 618.679 -3.85737 1.94501 0
M  V30 6693 C 617.814 -5.08249 1.54455 0
M  V30 6694 C 616.853 -5.49818 2.6901 0
M  V30 6695 N 615.99 -6.63524 2.29521 0
M  V30 6696 H 620.83 -2.16201 2.05089 0
M  V30 6697 H 618.367 -1.05909 1.02087 0
M  V30 6698 H 620.325 -4.13569 0.549223 0
M  V30 6699 H 618.955 -3.22502 -0.13867 0
M  V30 6700 H 618.007 -3.04883 2.27487 0
M  V30 6701 H 619.319 -4.12513 2.80419 0
M  V30 6702 H 618.473 -5.92857 1.28862 0
M  V30 6703 H 617.212 -4.83261 0.656534 0
M  V30 6704 H 616.217 -4.63757 2.95313 0
M  V30 6705 H 617.442 -5.76799 3.5844 0
M  V30 6706 H 615.388 -6.40185 1.43177 0
M  V30 6707 H 615.305 -6.89978 3.08977 0
M  V30 6708 H 616.573 -7.51461 2.07187 0
M  V30 6709 N 620.802 -1.09834 -1.13024 0
M  V30 6710 C 622.049 -0.83695 -1.84395 0
M  V30 6711 C 622.377 0.637463 -1.83757 0
M  V30 6712 O 621.632 1.48554 -1.27398 0
M  V30 6713 C 621.931 -1.32263 -3.32026 0
M  V30 6714 C 621.597 -2.80739 -3.52841 0
M  V30 6715 C 620.259 -3.21286 -3.5823 0
M  V30 6716 C 622.611 -3.76449 -3.60466 0
M  V30 6717 C 619.939 -4.56308 -3.68781 0
M  V30 6718 C 622.291 -5.11266 -3.72546 0
M  V30 6719 C 620.955 -5.51397 -3.76189 0
M  V30 6720 H 620.225 -0.306262 -0.674748 0
M  V30 6721 H 622.872 -1.37385 -1.33408 0
M  V30 6722 H 621.177 -0.705618 -3.85394 0
M  V30 6723 H 622.874 -1.09695 -3.85705 0
M  V30 6724 H 619.464 -2.48363 -3.49305 0
M  V30 6725 H 623.648 -3.46234 -3.55578 0
M  V30 6726 H 618.904 -4.86832 -3.69871 0
M  V30 6727 H 623.078 -5.85279 -3.77388 0
M  V30 6728 H 620.705 -6.56017 -3.84117 0
M  V30 6729 N 622.28 1.30327 -0.886154 0
M  V30 6730 C 623.696 1.48676 -0.580323 0
M  V30 6731 C 623.896 1.81189 0.881639 0
M  V30 6732 O 622.952 1.90021 1.66278 0
M  V30 6733 C 624.265 2.60932 -1.49449 0
M  V30 6734 C 625.813 2.74812 -1.49824 0
M  V30 6735 C 626.288 3.90183 -2.39836 0
M  V30 6736 N 627.779 3.97495 -2.37806 0
M  V30 6737 C 628.514 4.86078 -3.04165 0
M  V30 6738 N 628.01 5.79448 -3.79753 0
M  V30 6739 N 629.803 4.79456 -2.93391 0
M  V30 6740 H 621.954 1.07495 -1.8319 0
M  V30 6741 H 624.217 0.532661 -0.784204 0
M  V30 6742 H 623.923 2.43731 -2.5355 0
M  V30 6743 H 623.797 3.57437 -1.20494 0
M  V30 6744 H 626.184 2.91418 -0.464731 0
M  V30 6745 H 626.265 1.78924 -1.82811 0
M  V30 6746 H 625.909 3.74334 -3.43273 0
M  V30 6747 H 625.839 4.85411 -2.04166 0
M  V30 6748 H 628.33 3.30703 -1.82877 0
M  V30 6749 H 628.643 6.43805 -4.27475 0
M  V30 6750 H 626.988 5.79376 -3.8386 0
M  V30 6751 H 630.179 4.05494 -2.33864 0
M  V30 6752 H 630.352 5.48283 -3.45383 0
M  V30 6753 N 623.758 0.647228 1.43697 0
M  V30 6754 C 624.983 0.164083 2.0675 0
M  V30 6755 C 625.408 -1.15892 1.48158 0
M  V30 6756 O 624.766 -1.71459 0.589194 0
M  V30 6757 C 624.814 0.0800368 3.60511 0
M  V30 6758 O 623.918 -0.959453 4.01084 0
M  V30 6759 H 623.259 0.0921288 0.657578 0
M  V30 6760 H 625.789 0.88846 1.84303 0
M  V30 6761 H 625.799 -0.105263 4.07864 0
M  V30 6762 H 624.474 1.04586 4.02535 0
M  V30 6763 H 623.051 -0.747425 3.65333 0
M  V30 6764 N 625.236 -1.5273 0.388769 0
M  V30 6765 C 626.199 -2.25043 -0.434544 0
M  V30 6766 C 627.199 -1.26661 -0.990644 0
M  V30 6767 O 628.389 -1.50762 -0.872731 0
M  V30 6768 C 625.521 -3.00507 -1.60961 0
M  V30 6769 H 626.714 -2.99242 0.198549 0
M  V30 6770 H 624.267 -1.55664 0.140875 0
M  V30 6771 H 625.002 -2.30607 -2.28015 0
M  V30 6772 H 624.787 -3.72716 -1.21757 0
M  V30 6773 H 626.277 -3.55413 -2.19251 0
M  V30 6774 N 626.714 -0.118576 -1.57153 0
M  V30 6775 C 628.13 0.238014 -1.57815 0
M  V30 6776 C 628.33 1.66747 -1.13127 0
M  V30 6777 O 627.386 2.38867 -0.818462 0
M  V30 6778 C 628.699 0.00508207 -3.007 0
M  V30 6779 C 630.247 0.0710139 -3.12919 0
M  V30 6780 C 630.722 -0.13422 -4.57803 0
M  V30 6781 N 632.213 -0.0801755 -4.63131 0
M  V30 6782 C 632.948 -0.213885 -5.73001 0
M  V30 6783 N 632.444 -0.403742 -6.91623 0
M  V30 6784 N 634.237 -0.15349 -5.6189 0
M  V30 6785 H 626.388 -1.05226 -1.84503 0
M  V30 6786 H 628.651 -0.414318 -0.852669 0
M  V30 6787 H 628.357 -0.983125 -3.3768 0
M  V30 6788 H 628.231 0.73714 -3.69927 0
M  V30 6789 H 630.618 1.04975 -2.75798 0
M  V30 6790 H 630.699 -0.692918 -2.46236 0
M  V30 6791 H 630.343 -1.10992 -4.95624 0
M  V30 6792 H 630.273 0.649692 -5.22577 0
M  V30 6793 H 632.764 0.0630689 -3.77847 0
M  V30 6794 H 633.077 -0.496645 -7.71202 0
M  V30 6795 H 631.422 -0.43971 -6.93608 0
M  V30 6796 H 634.613 -0.00613174 -4.681 0
M  V30 6797 H 634.786 -0.261138 -6.47474 0
M  V30 6798 N 628.193 1.56834 0.155195 0
M  V30 6799 C 629.423 1.86778 0.883044 0
M  V30 6800 C 629.831 0.703824 1.75622 0
M  V30 6801 O 629.174 -0.33581 1.80605 0
M  V30 6802 C 629.236 3.1133 1.79761 0
M  V30 6803 C 628.9 4.43504 1.10242 0
M  V30 6804 C 629.897 5.17859 0.460204 0
M  V30 6805 C 627.582 4.90233 1.09437 0
M  V30 6806 C 629.576 6.37144 -0.180782 0
M  V30 6807 C 627.263 6.09444 0.449569 0
M  V30 6808 C 628.261 6.82744 -0.186888 0
M  V30 6809 O 627.949 7.99692 -0.821486 0
M  V30 6810 H 627.681 0.62352 0.261149 0
M  V30 6811 H 630.235 2.04813 0.155204 0
M  V30 6812 H 628.465 2.89282 2.56618 0
M  V30 6813 H 630.154 3.27587 2.39669 0
M  V30 6814 H 630.92 4.8283 0.458289 0
M  V30 6815 H 626.799 4.33109 1.57917 0
M  V30 6816 H 630.343 6.94296 -0.678154 0
M  V30 6817 H 626.24 6.43936 0.449123 0
M  V30 6818 H 627.008 8.15306 -0.722337 0
M  V30 6819 N 629.671 -0.424282 1.51781 0
M  V30 6820 C 630.896 -1.19928 1.6921 0
M  V30 6821 C 631.321 -1.8392 0.394355 0
M  V30 6822 O 630.679 -1.69371 -0.646778 0
M  V30 6823 C 630.727 -2.24937 2.81843 0
M  V30 6824 O 629.831 -3.3073 2.46356 0
M  V30 6825 H 629.172 -0.35078 0.563781 0
M  V30 6826 H 631.702 -0.499401 1.98412 0
M  V30 6827 H 631.712 -2.69512 3.06312 0
M  V30 6828 H 630.387 -1.77742 3.76006 0
M  V30 6829 H 628.964 -2.9154 2.32505 0
M  V30 6830 N 631.149 -1.42148 -0.680565 0
M  V30 6831 C 632.565 -1.24947 -0.992995 0
M  V30 6832 C 632.765 -0.149527 -2.00944 0
M  V30 6833 O 631.821 0.481145 -2.47873 0
M  V30 6834 C 633.134 -2.60426 -1.5033 0
M  V30 6835 C 634.682 -2.67733 -1.62137 0
M  V30 6836 C 635.157 -4.03564 -2.16565 0
M  V30 6837 N 636.648 -4.05488 -2.23905 0
M  V30 6838 C 637.383 -5.07401 -2.67081 0
M  V30 6839 N 636.879 -6.19698 -3.09751 0
M  V30 6840 N 638.672 -4.94758 -2.66778 0
M  V30 6841 H 630.823 -2.12399 -0.0074788 0
M  V30 6842 H 633.086 -0.94571 -0.0658529 0
M  V30 6843 H 632.792 -3.41743 -0.830947 0
M  V30 6844 H 632.666 -2.83949 -2.483 0
M  V30 6845 H 635.053 -1.86765 -2.2848 0
M  V30 6846 H 635.134 -2.48004 -0.626713 0
M  V30 6847 H 634.778 -4.84987 -1.50833 0
M  V30 6848 H 634.708 -4.20641 -3.1681 0
M  V30 6849 H 637.199 -3.24415 -1.93812 0
M  V30 6850 H 637.512 -6.93318 -3.41365 0
M  V30 6851 H 635.857 -6.23212 -3.07623 0
M  V30 6852 H 639.048 -4.06105 -2.32801 0
M  V30 6853 H 639.221 -5.74317 -3.00107 0
M  V30 6854 N 632.627 0.916307 -1.28225 0
M  V30 6855 C 633.852 1.7043 -1.18188 0
M  V30 6856 C 634.277 1.86346 0.256274 0
M  V30 6857 O 633.635 1.37175 1.18544 0
M  V30 6858 C 633.683 3.07546 -1.88275 0
M  V30 6859 O 632.787 3.94904 -1.18848 0
M  V30 6860 H 632.128 0.521967 -0.410423 0
M  V30 6861 H 634.658 1.14589 -1.69501 0
M  V30 6862 H 634.668 3.57793 -1.96082 0
M  V30 6863 H 633.343 2.95279 -2.92887 0
M  V30 6864 H 631.92 3.53339 -1.19187 0
M  V30 6865 N 634.105 1.10431 1.1244 0
M  V30 6866 C 635.035 0.775143 2.20258 0
M  V30 6867 C 636.016 -0.25186 1.68225 0
M  V30 6868 O 637.201 -0.117637 1.93843 0
M  V30 6869 C 634.331 0.206133 3.46688 0
M  V30 6870 C 633.285 1.16382 4.11873 0
M  V30 6871 C 632.611 0.456014 5.32752 0
M  V30 6872 C 633.911 2.5104 4.58013 0
M  V30 6873 H 635.605 1.67665 2.4805 0
M  V30 6874 H 633.151 0.807595 1.19222 0
M  V30 6875 H 635.104 -0.036291 4.21384 0
M  V30 6876 H 633.828 -0.730614 3.18323 0
M  V30 6877 H 632.487 1.39169 3.39157 0
M  V30 6878 H 632.135 -0.485203 5.00654 0
M  V30 6879 H 631.835 1.09466 5.77314 0
M  V30 6880 H 633.359 0.222135 6.10196 0
M  V30 6881 H 634.773 2.32401 5.24083 0
M  V30 6882 H 633.17 3.10789 5.13352 0
M  V30 6883 H 634.24 3.11039 3.71998 0
M  V30 6884 N 635.583 -1.29855 0.893053 0
M  V30 6885 C 636.808 -2.00512 0.530066 0
M  V30 6886 C 637.233 -1.66446 -0.876199 0
M  V30 6887 O 636.591 -0.885446 -1.58207 0
M  V30 6888 C 636.639 -3.53308 0.721505 0
M  V30 6889 O 635.743 -4.11764 -0.228994 0
M  V30 6890 H 635.084 -0.630617 0.207891 0
M  V30 6891 H 637.614 -1.6551 1.20282 0
M  V30 6892 H 637.624 -4.03206 0.623599 0
M  V30 6893 H 636.299 -3.77439 1.74678 0
M  V30 6894 H 634.876 -3.72805 -0.0841034 0
M  V30 6895 N 637.061 -0.65484 -1.43351 0
M  V30 6896 C 638.289 -0.176685 -2.06144 0
M  V30 6897 C 638.704 1.15831 -1.49093 0
M  V30 6898 O 638.061 1.71542 -0.622868 0
M  V30 6899 C 638.112 -0.0813326 -3.61408 0
M  V30 6900 O 637.833 -1.36355 -4.1634 0
M  V30 6901 C 639.334 0.422706 -4.4128 0
M  V30 6902 H 636.554 -0.0906429 -0.66485 0
M  V30 6903 H 639.098 -0.895945 -1.83829 0
M  V30 6904 H 637.253 0.588496 -3.82904 0
M  V30 6905 H 637.667 -1.22381 -5.10023 0
M  V30 6906 H 639.141 0.438375 -5.50257 0
M  V30 6907 H 639.618 1.45432 -4.14423 0
M  V30 6908 H 640.224 -0.214687 -4.24758 0
M  V30 6909 N 638.539 1.52521 -0.396863 0
M  V30 6910 C 639.449 2.30403 0.44178 0
M  V30 6911 C 640.465 1.37625 1.06468 0
M  V30 6912 O 641.641 1.70697 1.06886 0
M  V30 6913 C 638.706 3.1013 1.54986 0
M  V30 6914 C 637.767 4.18628 0.951279 0
M  V30 6915 C 637 4.94543 2.00655 0
M  V30 6916 O 637.223 4.70629 3.22281 0
M  V30 6917 O 636.157 5.797 1.61962 0
M  V30 6918 H 639.983 3.03087 -0.192892 0
M  V30 6919 H 637.568 1.48537 -0.16038 0
M  V30 6920 H 639.45 3.59816 2.19341 0
M  V30 6921 H 638.125 2.40251 2.16935 0
M  V30 6922 H 637.032 3.73119 0.270773 0
M  V30 6923 H 638.365 4.90763 0.375887 0
M  V30 6924 N 640.017 0.126909 1.57088 0
M  V30 6925 C 641.264 -0.529168 1.95464 0
M  V30 6926 C 641.592 -1.6618 1.01067 0
M  V30 6927 O 640.847 -1.95667 0.0360254 0
M  V30 6928 C 641.146 -1.095 3.40212 0
M  V30 6929 C 640.812 -0.0829015 4.50824 0
M  V30 6930 C 639.474 0.195377 4.80803 0
M  V30 6931 C 641.826 0.606411 5.1766 0
M  V30 6932 C 639.154 1.16912 5.74933 0
M  V30 6933 C 641.506 1.56884 6.12838 0
M  V30 6934 C 640.17 1.85502 6.41206 0
M  V30 6935 H 639.44 -0.193636 0.715252 0
M  V30 6936 H 642.087 0.209489 1.90351 0
M  V30 6937 H 640.392 -1.91058 3.42059 0
M  V30 6938 H 642.089 -1.61087 3.67222 0
M  V30 6939 H 638.679 -0.309979 4.27478 0
M  V30 6940 H 642.863 0.404597 4.94648 0
M  V30 6941 H 638.119 1.3975 5.95214 0
M  V30 6942 H 642.293 2.10859 6.6371 0
M  V30 6943 H 639.92 2.61109 7.13951 0
M  V30 6944 N 641.495 -1.56914 -0.146875 0
M  V30 6945 C 642.425 -2.01308 -1.1831 0
M  V30 6946 C 643.406 -0.892664 -1.44795 0
M  V30 6947 O 644.591 -1.16048 -1.55713 0
M  V30 6948 C 641.721 -2.3938 -2.51624 0
M  V30 6949 C 640.675 -3.54608 -2.3966 0
M  V30 6950 C 640.001 -3.78493 -3.77686 0
M  V30 6951 C 641.301 -4.87269 -1.88058 0
M  V30 6952 H 642.995 -2.88123 -0.813964 0
M  V30 6953 H 640.541 -1.38615 -0.3901 0
M  V30 6954 H 642.494 -2.69037 -3.24341 0
M  V30 6955 H 641.218 -1.49502 -2.90373 0
M  V30 6956 H 639.877 -3.25116 -1.69396 0
M  V30 6957 H 639.525 -2.85866 -4.13871 0
M  V30 6958 H 639.225 -4.56039 -3.70543 0
M  V30 6959 H 640.749 -4.10576 -4.51951 0
M  V30 6960 H 642.163 -5.15644 -2.50568 0
M  V30 6961 H 640.56 -5.68622 -1.91805 0
M  V30 6962 H 641.63 -4.77634 -0.836277 0
M  V30 6963 N 642.974 0.416227 -1.52004 0
M  V30 6964 C 643.922 1.5272 -1.7544 0
M  V30 6965 C 644.916 1.57596 -0.621289 0
M  V30 6966 O 646.122 1.61087 -0.803172 0
M  V30 6967 H 642.497 0.507772 -0.554682 0
M  V30 6968 H 644.468 1.30136 -2.68528 0
M  V30 6969 C 643.217 2.90165 -1.91571 0
M  V30 6970 H 642.54 2.87154 -2.78178 0
M  V30 6971 H 643.98 3.67211 -2.11972 0
M  V30 6972 C 642.439 3.29947 -0.680942 0
M  V30 6973 O 642.969 4.01403 0.154527 0
M  V30 6974 N 641.175 2.8593 -0.518894 0
M  V30 6975 H 640.722 2.2795 -1.19986 0
M  V30 6976 H 640.68 3.12907 0.305985 0
M  V30 6977 O 644.491 1.51403 0.562082 0
M  V30 6978 H 645.182 1.50679 1.21719 0
M  V30 END ATOM
M  V30 BEGIN BOND
M  V30 END BOND
M  V30 END CTAB
M  END
$$$$
