drugbank_target|Q8TCT9 Minor histocompatibility antigen H13 (DB00277)
 OpenBabel12092121063D

  0  0  0     0  0            999 V3000
M  V30 BEGIN CTAB
M  V30 COUNTS 5890 5965 0 0 0
M  V30 BEGIN ATOM
M  V30 1 H -0.908 1.98254 -0.117106 0
M  V30 2 N 0 1.576 0 0
M  V30 3 C 0.933 2.03868 1.02534 0
M  V30 4 C 1.911 0.928543 1.3348 0
M  V30 5 O 3.095 1.19667 1.45644 0
M  V30 6 C 0.222 2.43627 2.35294 0
M  V30 7 C -0.732 3.65373 2.2001 0
M  V30 8 S 0.101 5.13292 1.52614 0
M  V30 9 C 1.257 5.56322 2.86805 0
M  V30 10 H 1.49 2.90518 0.631377 0
M  V30 11 H -0.977 1.52953 0.210867 0
M  V30 12 H 0.981 2.67203 3.11629 0
M  V30 13 H -0.358 1.57376 2.7183 0
M  V30 14 H -1.165 3.90944 3.18086 0
M  V30 15 H -1.563 3.418 1.51819 0
M  V30 16 H 0.729 5.58782 3.83104 0
M  V30 17 H 1.672 6.56266 2.65933 0
M  V30 18 H 2.08 4.83886 2.90714 0
M  V30 19 N 1.4781 -0.272755 1.55222 0
M  V30 20 C 2.7551 -1.02562 1.66555 0
M  V30 21 C 3.1351 -2.04282 0.532189 0
M  V30 22 O 2.4831 -2.23662 -0.467717 0
M  V30 23 C 2.6931 -1.6822 3.05782 0
M  V30 24 C 4.0411 -2.19373 3.63539 0
M  V30 25 O 5.0651 -1.78206 3.08417 0
M  V30 26 O 3.9241 -2.94883 4.60115 0
M  V30 27 H 1.0181 -0.475755 0.676451 0
M  V30 28 H 3.5641 -0.268593 1.67561 0
M  V30 29 H 2.3361 -0.945112 3.79715 0
M  V30 30 H 1.9591 -2.50609 3.08676 0
M  V30 31 N 2.9562 -1.48159 -0.537278 0
M  V30 32 C 4.1812 -1.59707 -1.32319 0
M  V30 33 C 4.6062 -0.254859 -1.86365 0
M  V30 34 O 3.9642 0.772378 -1.64024 0
M  V30 35 C 4.0122 -2.6412 -2.45505 0
M  V30 36 O 3.1162 -2.20774 -3.48328 0
M  V30 37 H 2.4572 -0.535791 -0.392204 0
M  V30 38 H 4.9872 -1.94092 -0.647268 0
M  V30 39 H 4.9972 -2.85166 -2.91795 0
M  V30 40 H 3.6722 -3.61567 -2.05528 0
M  V30 41 H 2.2492 -2.09911 -3.08207 0
M  V30 42 N 4.4343 0.785586 -1.36625 0
M  V30 43 C 5.3973 1.87999 -1.31107 0
M  V30 44 C 6.3973 1.59316 -0.217959 0
M  V30 45 O 7.5873 1.67656 -0.472977 0
M  V30 46 C 4.7193 3.24861 -1.03334 0
M  V30 47 H 5.9123 1.94307 -2.2844 0
M  V30 48 H 3.4653 0.983813 -1.21453 0
M  V30 49 H 4.2003 3.24235 -0.0647432 0
M  V30 50 H 3.9853 3.4707 -1.82441 0
M  V30 51 H 5.4753 4.04929 -1.02088 0
M  V30 52 N 5.9124 1.20967 1.01018 0
M  V30 53 C 6.8424 0.988272 2.11555 0
M  V30 54 C 7.8234 -0.0849778 1.69888 0
M  V30 55 O 9.0084 0.0738202 1.9406 0
M  V30 56 C 6.1384 0.546528 3.42973 0
M  V30 57 C 5.0924 1.56375 3.9841 0
M  V30 58 C 4.4184 0.97842 5.25672 0
M  V30 59 C 5.7184 2.94922 4.31066 0
M  V30 60 H 7.4124 1.91276 2.30334 0
M  V30 61 H 4.9584 0.921073 1.1069 0
M  V30 62 H 6.9114 0.378839 4.19694 0
M  V30 63 H 5.6354 -0.413598 3.23971 0
M  V30 64 H 4.2944 1.71891 3.23804 0
M  V30 65 H 3.9424 0.0101688 5.02999 0
M  V30 66 H 3.6424 1.65784 5.63728 0
M  V30 67 H 5.1664 0.821939 6.05043 0
M  V30 68 H 6.5804 2.8288 4.9865 0
M  V30 69 H 4.9774 3.5983 4.80253 0
M  V30 70 H 6.0474 3.4616 3.39561 0
M  V30 71 N 7.3905 -1.2043 1.01659 0
M  V30 72 C 8.6155 -1.94318 0.724942 0
M  V30 73 C 9.0405 -1.74266 -0.708034 0
M  V30 74 O 8.3985 -1.03694 -1.48719 0
M  V30 75 C 8.4465 -3.44486 1.06591 0
M  V30 76 O 7.5505 -4.12017 0.177599 0
M  V30 77 H 6.8915 -0.60708 0.26898 0
M  V30 78 H 9.4215 -1.52861 1.35995 0
M  V30 79 H 9.4315 -3.95106 1.01762 0
M  V30 80 H 8.1065 -3.58404 2.10997 0
M  V30 81 H 6.6835 -3.71821 0.283421 0
M  V30 82 N 8.8686 -0.792821 -1.36206 0
M  V30 83 C 10.1456 -0.290627 -1.93429 0
M  V30 84 C 10.5256 1.21773 -1.72437 0
M  V30 85 O 9.8736 2.0108 -1.08531 0
M  V30 86 C 10.0836 -0.686973 -3.42172 0
M  V30 87 C 11.4316 -0.668643 -4.19302 0
M  V30 88 O 12.4556 -0.627658 -3.50626 0
M  V30 89 O 11.3146 -0.714597 -5.41808 0
M  V30 90 H 8.4086 -0.0727927 -0.82379 0
M  V30 91 H 10.9546 -0.875593 -1.45367 0
M  V30 92 H 9.7266 -1.72711 -3.51122 0
M  V30 93 H 9.3496 -0.0760733 -3.97527 0
M  V30 94 N 10.3467 1.47872 -0.545128 0
M  V30 95 C 11.7577 1.86384 -0.108581 0
M  V30 96 C 12.1087 1.45309 1.31832 0
M  V30 97 O 11.2337 0.850641 1.9898 0
M  V30 98 C 11.8287 3.38265 -0.190274 0
M  V30 99 C 10.3877 3.75914 0.191164 0
M  V30 100 C 9.5347 2.71926 -0.543273 0
M  V30 101 H 12.4857 1.39561 -0.755537 0
M  V30 102 H 12.5067 3.75831 0.594217 0
M  V30 103 H 12.0187 3.6813 -1.2289 0
M  V30 104 H 10.1197 3.51665 1.23136 0
M  V30 105 H 10.2327 4.78836 -0.158987 0
M  V30 106 H 8.5967 2.54697 0.0122495 0
M  V30 107 H 9.3797 3.04634 -1.58282 0
M  V30 108 N 11.8248 0.280983 1.55075 0
M  V30 109 C 12.7748 -0.618585 2.19448 0
M  V30 110 C 13.7588 -1.11401 1.16098 0
M  V30 111 O 14.9508 -1.0581 1.41891 0
M  V30 112 C 12.0798 -1.79951 2.92357 0
M  V30 113 C 11.1658 -1.321 4.03002 0
M  V30 114 N 11.5568 -0.559044 5.02701 0
M  V30 115 C 9.8548 -1.60346 4.16179 0
M  V30 116 C 10.5558 -0.306722 5.80891 0
M  V30 117 N 9.5318 -0.880825 5.36416 0
M  V30 118 H 13.3338 -0.0286638 2.93886 0
M  V30 119 H 10.8478 0.0848104 1.62178 0
M  V30 120 H 12.8448 -2.45531 3.36927 0
M  V30 121 H 11.5048 -2.39333 2.19431 0
M  V30 122 H 12.5158 -0.205827 5.17491 0
M  V30 123 H 9.1928 -2.20621 3.54447 0
M  V30 124 H 10.5828 0.30391 6.71212 0
M  V30 125 N 13.3029 -1.57598 0.00835791 0
M  V30 126 C 14.2509 -2.10078 -0.998508 0
M  V30 127 C 15.2449 -1.02262 -1.35051 0
M  V30 128 O 16.4509 -1.20719 -1.33518 0
M  V30 129 H 12.8259 -0.670903 -0.339696 0
M  V30 130 H 14.7969 -2.93648 -0.530398 0
M  V30 131 C 13.5459 -2.62615 -2.27879 0
M  V30 132 H 12.8689 -3.45213 -2.01662 0
M  V30 133 H 14.3089 -3.03004 -2.96588 0
M  V30 134 C 12.7679 -1.54407 -2.99433 0
M  V30 135 O 13.2979 -0.931812 -3.90743 0
M  V30 136 N 11.5039 -1.2695 -2.61404 0
M  V30 137 H 11.0509 -1.76924 -1.87232 0
M  V30 138 H 11.0089 -0.547704 -3.09593 0
M  V30 139 N 14.781 0.264519 -1.55364 0
M  V30 140 C 16.029 0.993021 -1.76021 0
M  V30 141 C 16.35 1.86511 -0.569099 0
M  V30 142 O 15.62 1.91438 0.415735 0
M  V30 143 H 14.2 0.369639 -0.649135 0
M  V30 144 H 16.862 0.286707 -1.9278 0
M  V30 145 H 15.958 1.62502 -2.66457 0
M  V30 146 N 16.2591 1.48442 0.529413 0
M  V30 147 C 17.4841 1.60406 1.31471 0
M  V30 148 C 17.9091 0.264738 1.86228 0
M  V30 149 O 17.2671 -0.763668 1.64432 0
M  V30 150 C 17.3151 2.65419 2.44101 0
M  V30 151 O 16.4191 2.22618 3.47153 0
M  V30 152 H 15.7601 0.537863 0.389357 0
M  V30 153 H 18.2901 1.94432 0.636965 0
M  V30 154 H 18.3001 2.86709 2.90279 0
M  V30 155 H 16.9751 3.62652 2.03608 0
M  V30 156 H 15.5521 2.11543 3.0709 0
M  V30 157 N 17.7372 -0.778329 1.37039 0
M  V30 158 C 18.7002 -1.87301 1.32102 0
M  V30 159 C 19.7002 -1.59198 0.226405 0
M  V30 160 O 20.8902 -1.67403 0.481861 0
M  V30 161 C 18.0222 -3.24309 1.05055 0
M  V30 162 H 19.2152 -1.93093 2.29467 0
M  V30 163 H 16.7682 -0.977358 1.21973 0
M  V30 164 H 17.5032 -3.24196 0.0819373 0
M  V30 165 H 17.2882 -3.46098 1.84279 0
M  V30 166 H 18.7782 -4.04382 1.04234 0
M  V30 167 N 19.2153 -1.21501 -1.00376 0
M  V30 168 C 20.1253 -0.991447 -2.12621 0
M  V30 169 C 21.1413 0.0568446 -1.73907 0
M  V30 170 O 22.3173 -0.13348 -2.00957 0
M  V30 171 C 19.3823 -0.560312 -3.42142 0
M  V30 172 C 18.4433 -1.68096 -3.95022 0
M  V30 173 C 17.6763 -1.2703 -5.18362 0
M  V30 174 O 17.8993 -0.144438 -5.70217 0
M  V30 175 O 16.8333 -2.08269 -5.64719 0
M  V30 176 H 20.6593 -1.93158 -2.34358 0
M  V30 177 H 18.2443 -0.999999 -1.10997 0
M  V30 178 H 20.1263 -0.329724 -4.20108 0
M  V30 179 H 18.8013 0.351089 -3.2179 0
M  V30 180 H 17.7083 -1.96597 -3.18278 0
M  V30 181 H 19.0413 -2.56983 -4.19786 0
M  V30 182 N 20.6934 1.19889 -1.02296 0
M  V30 183 C 21.6564 2.21116 -0.603351 0
M  V30 184 C 22.6564 1.5738 0.329884 0
M  V30 185 O 23.8464 1.73802 0.117702 0
M  V30 186 C 20.9784 3.40696 0.117992 0
M  V30 187 H 22.1714 2.59754 -1.49893 0
M  V30 188 H 19.7244 1.33463 -0.813468 0
M  V30 189 H 20.4594 3.07569 1.0282 0
M  V30 190 H 20.2444 3.88188 -0.552511 0
M  V30 191 H 21.7344 4.15692 0.398696 0
M  V30 192 N 22.1715 0.800033 1.35784 0
M  V30 193 C 23.4195 0.376597 1.9856 0
M  V30 194 C 23.7405 -1.05812 1.63795 0
M  V30 195 O 23.0105 -1.73103 0.917171 0
M  V30 196 H 21.5905 0.136261 0.734467 0
M  V30 197 H 24.2525 1.02442 1.65806 0
M  V30 198 H 23.3485 0.477002 3.08433 0
M  V30 199 N 23.6496 -1.47581 0.552962 0
M  V30 200 C 24.8976 -2.02082 0.0272703 0
M  V30 201 C 25.2186 -1.4301 -1.32563 0
M  V30 202 O 24.4886 -0.603745 -1.86365 0
M  V30 203 H 23.0686 -0.746966 0.00709182 0
M  V30 204 H 25.7306 -1.81033 0.722008 0
M  V30 205 H 24.8266 -3.12034 -0.0639951 0
M  V30 206 N 25.1277 -0.289203 -1.54924 0
M  V30 207 C 26.5387 0.205791 -1.85562 0
M  V30 208 C 26.8897 1.54351 -1.2112 0
M  V30 209 O 26.0147 2.10435 -0.504601 0
M  V30 210 C 26.6097 0.380177 -3.3666 0
M  V30 211 C 25.1687 0.819395 -3.67373 0
M  V30 212 C 24.3157 -0.079159 -2.77187 0
M  V30 213 H 27.2667 -0.510577 -1.50262 0
M  V30 214 H 27.2877 1.21659 -3.60526 0
M  V30 215 H 26.7997 -0.593589 -3.83534 0
M  V30 216 H 24.9007 1.80413 -3.26009 0
M  V30 217 H 25.0137 0.646957 -4.74712 0
M  V30 218 H 23.3777 0.439565 -2.50878 0
M  V30 219 H 24.1607 -1.04906 -3.26878 0
M  V30 220 N 26.6058 1.57591 -0.0167156 0
M  V30 221 C 27.8338 1.95575 0.675128 0
M  V30 222 C 28.2488 0.892542 1.6637 0
M  V30 223 O 27.6058 -0.126912 1.82058 0
M  V30 224 C 27.6568 3.33608 1.39239 0
M  V30 225 O 27.3778 4.3585 0.443444 0
M  V30 226 C 28.8788 3.86151 2.17721 0
M  V30 227 H 26.0988 0.644423 0.186978 0
M  V30 228 H 28.6428 2.0437 -0.0728 0
M  V30 229 H 26.7978 3.2607 2.09182 0
M  V30 230 H 27.2118 5.158 0.951358 0
M  V30 231 H 28.6858 4.85114 2.63379 0
M  V30 232 H 29.1628 3.19738 3.01105 0
M  V30 233 H 29.7688 3.96918 1.52761 0
M  V30 234 N 28.0839 -0.256276 1.55502 0
M  V30 235 C 29.0319 -1.33694 1.90338 0
M  V30 236 C 30.0259 -1.50299 0.781441 0
M  V30 237 O 31.2319 -1.51885 0.965966 0
M  V30 238 H 27.6069 -0.447483 0.60437 0
M  V30 239 H 29.5779 -1.01574 2.8058 0
M  V30 240 C 28.3269 -2.68724 2.20642 0
M  V30 241 H 27.6499 -2.56743 3.06469 0
M  V30 242 H 29.0899 -3.43237 2.48926 0
M  V30 243 C 27.5489 -3.21101 1.01959 0
M  V30 244 O 28.0789 -4.0084 0.262762 0
M  V30 245 N 26.2849 -2.79003 0.812746 0
M  V30 246 H 25.8319 -2.14271 1.42989 0
M  V30 247 H 25.7899 -3.14393 0.0203076 0
M  V30 248 N 29.562 -1.4872 -0.521534 0
M  V30 249 C 30.787 -1.61101 -1.30618 0
M  V30 250 C 31.212 -0.274611 -1.86085 0
M  V30 251 O 30.57 0.754937 -1.64834 0
M  V30 252 C 30.618 -2.66709 -2.4269 0
M  V30 253 O 29.722 -2.24456 -3.45967 0
M  V30 254 H 29.063 -0.539921 -0.386499 0
M  V30 255 H 31.593 -1.94767 -0.626645 0
M  V30 256 H 31.603 -2.88245 -2.88754 0
M  V30 257 H 30.278 -3.63727 -2.01682 0
M  V30 258 H 28.855 -2.13168 -3.05964 0
M  V30 259 N 31.0401 0.771051 -1.3745 0
M  V30 260 C 32.2681 1.56015 -1.35893 0
M  V30 261 C 32.6831 1.88718 0.0555523 0
M  V30 262 O 32.0401 1.51502 1.01752 0
M  V30 263 C 32.0911 2.87001 -2.19801 0
M  V30 264 O 31.8121 2.557 -3.55738 0
M  V30 265 C 33.3131 3.81228 -2.26231 0
M  V30 266 H 30.5331 0.483317 -0.465453 0
M  V30 267 H 33.0771 0.955611 -1.80799 0
M  V30 268 H 31.2321 3.43877 -1.78402 0
M  V30 269 H 31.6461 3.39584 -3.99729 0
M  V30 270 H 33.1201 4.70139 -2.89263 0
M  V30 271 H 33.5971 4.20409 -1.27093 0
M  V30 272 H 34.2031 3.30281 -2.67945 0
M  V30 273 N 32.5182 1.22032 0.997298 0
M  V30 274 C 33.7462 1.06841 1.7718 0
M  V30 275 C 34.1612 -0.381325 1.84909 0
M  V30 276 O 33.5182 -1.26437 1.31605 0
M  V30 277 C 33.5692 1.66814 3.20711 0
M  V30 278 O 33.2902 3.06116 3.13408 0
M  V30 279 C 34.7912 1.56838 4.14628 0
M  V30 280 H 32.0112 0.374782 0.556578 0
M  V30 281 H 34.5552 1.61532 1.2541 0
M  V30 282 H 32.7102 1.16196 3.69564 0
M  V30 283 H 33.1242 3.34926 4.0364 0
M  V30 284 H 34.5982 2.03532 5.13107 0
M  V30 285 H 35.0752 0.524155 4.36061 0
M  V30 286 H 35.6812 2.06741 3.7167 0
M  V30 287 N 33.9963 -1.19345 1.0293 0
M  V30 288 C 35.4123 -1.41069 0.746446 0
M  V30 289 C 35.6123 -1.90078 -0.668776 0
M  V30 290 O 34.6683 -2.0778 -1.4347 0
M  V30 291 C 35.9813 -2.42141 1.78292 0
M  V30 292 C 37.5293 -2.55887 1.80252 0
M  V30 293 C 38.0043 -3.60214 2.8286 0
M  V30 294 N 39.4953 -3.67711 2.81679 0
M  V30 295 C 40.2303 -4.48128 3.57727 0
M  V30 296 N 39.7263 -5.32248 4.43491 0
M  V30 297 N 41.5193 -4.42782 3.46267 0
M  V30 298 H 33.6703 -0.858536 1.94275 0
M  V30 299 H 35.9333 -0.439541 0.839945 0
M  V30 300 H 35.6393 -2.13155 2.79746 0
M  V30 301 H 35.5133 -3.41323 1.60557 0
M  V30 302 H 37.9003 -2.84196 0.794757 0
M  V30 303 H 37.9813 -1.56858 2.02062 0
M  V30 304 H 37.6253 -3.32647 3.83807 0
M  V30 305 H 37.5553 -4.58895 2.58307 0
M  V30 306 H 40.0463 -3.07634 2.19476 0
M  V30 307 H 40.3593 -5.90729 4.98256 0
M  V30 308 H 38.7043 -5.31707 4.47564 0
M  V30 309 H 41.8953 -3.76107 2.78677 0
M  V30 310 H 42.0683 -5.05215 4.05785 0
M  V30 311 N 35.4744 -0.807222 -1.35358 0
M  V30 312 C 36.8854 -0.44876 -1.81226 0
M  V30 313 C 37.2364 1.02929 -1.67033 0
M  V30 314 O 36.3614 1.79991 -1.20133 0
M  V30 315 C 36.9564 -0.807774 -3.2903 0
M  V30 316 C 35.5154 -0.501901 -3.73039 0
M  V30 317 C 34.6624 -1.03304 -2.57339 0
M  V30 318 H 37.6134 -0.998808 -1.23327 0
M  V30 319 H 37.6344 -0.10554 -3.80354 0
M  V30 320 H 37.1464 -1.88357 -3.39328 0
M  V30 321 H 35.2474 0.565128 -3.68289 0
M  V30 322 H 35.3604 -1.03497 -4.67787 0
M  V30 323 H 33.7244 -0.455339 -2.50597 0
M  V30 324 H 34.5074 -2.11496 -2.70415 0
M  V30 325 N 36.9525 1.47285 -0.560781 0
M  V30 326 C 38.3635 1.86258 -0.128343 0
M  V30 327 C 38.7145 1.46699 1.30284 0
M  V30 328 O 37.8395 0.871698 1.98067 0
M  V30 329 C 38.4345 3.38044 -0.22614 0
M  V30 330 C 36.9935 3.76096 0.151283 0
M  V30 331 C 36.1405 2.71335 -0.572084 0
M  V30 332 H 39.0915 1.38752 -0.770297 0
M  V30 333 H 39.1125 3.76441 0.554322 0
M  V30 334 H 38.6245 3.66806 -1.26788 0
M  V30 335 H 36.7255 3.52951 1.19399 0
M  V30 336 H 36.8385 4.78641 -0.209765 0
M  V30 337 H 35.2025 2.54696 -0.0147653 0
M  V30 338 H 35.9855 3.02938 -1.61504 0
M  V30 339 N 38.4306 0.297415 1.54768 0
M  V30 340 C 39.6556 -0.318435 2.04941 0
M  V30 341 C 40.0806 -1.4701 1.17345 0
M  V30 342 O 39.4386 -1.80436 0.176758 0
M  V30 343 C 39.4866 -0.755749 3.52592 0
M  V30 344 O 38.5906 -1.86088 3.68028 0
M  V30 345 H 37.9316 -0.062421 0.661059 0
M  V30 346 H 40.4616 0.438215 1.99852 0
M  V30 347 H 40.4716 -1.04552 3.94376 0
M  V30 348 H 39.1466 0.0867233 4.1581 0
M  V30 349 H 37.7236 -1.57193 3.38149 0
M  V30 350 N 39.9087 -1.5758 0.0250728 0
M  V30 351 C 41.1367 -1.9593 -0.664747 0
M  V30 352 C 41.5517 -0.901352 -1.65895 0
M  V30 353 O 40.9087 0.117255 -1.82123 0
M  V30 354 C 40.9597 -3.34342 -1.37468 0
M  V30 355 O 40.6807 -4.36079 -0.420324 0
M  V30 356 C 42.1817 -3.873 -2.1567 0
M  V30 357 H 39.4017 -0.645405 -0.183557 0
M  V30 358 H 41.9457 -2.04329 0.0836372 0
M  V30 359 H 40.1007 -3.27175 -2.0745 0
M  V30 360 H 40.5147 -5.16297 -0.923991 0
M  V30 361 H 41.9887 -4.86504 -2.60803 0
M  V30 362 H 42.4657 -3.21331 -2.99405 0
M  V30 363 H 43.0717 -3.97723 -1.50654 0
M  V30 364 N 41.3868 0.248026 -1.55636 0
M  V30 365 C 42.7978 0.817177 -1.67866 0
M  V30 366 C 43.1488 1.86069 -0.622322 0
M  V30 367 O 42.2738 2.15157 0.231618 0
M  V30 368 C 42.8688 1.489 -3.04326 0
M  V30 369 C 41.4278 2.00587 -3.185 0
M  V30 370 C 40.5748 0.856573 -2.63739 0
M  V30 371 H 43.5258 0.0238579 -1.58682 0
M  V30 372 H 43.5468 2.35698 -2.98708 0
M  V30 373 H 43.0588 0.729279 -3.81186 0
M  V30 374 H 41.1598 2.79443 -2.4646 0
M  V30 375 H 41.2728 2.20402 -4.25393 0
M  V30 376 H 39.6368 1.25678 -2.21534 0
M  V30 377 H 40.4198 0.109953 -3.43124 0
M  V30 378 N 42.8649 1.48995 0.513639 0
M  V30 379 C 43.7749 1.67443 1.64317 0
M  V30 380 C 44.7909 0.556947 1.64846 0
M  V30 381 O 45.9669 0.830082 1.83498 0
M  V30 382 C 43.0319 1.72515 3.00732 0
M  V30 383 C 42.0929 2.96009 3.1093 0
M  V30 384 C 41.3259 3.00829 4.40837 0
M  V30 385 O 41.5489 2.13594 5.28898 0
M  V30 386 O 40.4829 3.93168 4.55744 0
M  V30 387 H 44.3089 2.63106 1.51687 0
M  V30 388 H 41.8939 1.32588 0.688543 0
M  V30 389 H 43.7759 1.78277 3.81831 0
M  V30 390 H 42.4509 0.800278 3.13651 0
M  V30 391 H 41.3579 2.9577 2.29065 0
M  V30 392 H 42.6909 3.87934 3.02933 0
M  V30 393 N 44.343 -0.763751 1.37857 0
M  V30 394 C 45.591 -1.51957 1.33243 0
M  V30 395 C 45.912 -1.94835 -0.0801709 0
M  V30 396 O 45.182 -1.66894 -1.02582 0
M  V30 397 H 43.762 -0.563626 0.49024 0
M  V30 398 H 46.424 -0.908504 1.7243 0
M  V30 399 H 45.52 -2.41523 1.97669 0
M  V30 400 N 45.8211 -1.22559 -0.990812 0
M  V30 401 C 47.0701 -1.04553 -1.72486 0
M  V30 402 C 47.3831 0.419349 -1.91052 0
M  V30 403 O 48.5891 0.719121 -2.61803 0
M  V30 404 C 47.0451 -1.82231 -3.10355 0
M  V30 405 C 46.6531 -3.32981 -2.99713 0
M  V30 406 C 48.3971 -1.7268 -3.87791 0
M  V30 407 C 46.3041 -4.03091 -4.32748 0
M  V30 408 H 45.2341 -0.387614 -0.646739 0
M  V30 409 H 47.8851 -1.46429 -1.10593 0
M  V30 410 H 46.2671 -1.33155 -3.72942 0
M  V30 411 H 47.4411 -3.89466 -2.46278 0
M  V30 412 H 45.7561 -3.43231 -2.35758 0
M  V30 413 H 48.3531 -2.22381 -4.86262 0
M  V30 414 H 48.6961 -0.687607 -4.10582 0
M  V30 415 H 49.2291 -2.1931 -3.31885 0
M  V30 416 H 45.9681 -5.07273 -4.15156 0
M  V30 417 H 45.4881 -3.51394 -4.86089 0
M  V30 418 H 47.1671 -4.08804 -5.01486 0
M  V30 419 N 47.2992 1.18797 -1.03562 0
M  V30 420 C 48.2622 2.20464 -0.626769 0
M  V30 421 C 49.2622 1.57721 0.313173 0
M  V30 422 O 50.4522 1.73917 0.0992615 0
M  V30 423 C 47.5842 3.40802 0.0818498 0
M  V30 424 H 48.7772 2.58149 -1.5264 0
M  V30 425 H 46.3302 1.32593 -0.827578 0
M  V30 426 H 47.0652 3.08642 0.995518 0
M  V30 427 H 46.8502 3.8758 -0.593652 0
M  V30 428 H 48.3402 4.16092 0.354584 0
M  V30 429 N 48.7773 0.814389 1.34928 0
M  V30 430 C 49.7073 0.244827 2.32213 0
M  V30 431 C 50.6883 -0.634024 1.57842 0
M  V30 432 O 51.8733 -0.562676 1.8587 0
M  V30 433 C 49.0033 -0.601106 3.42058 0
M  V30 434 C 47.9573 0.179896 4.27622 0
M  V30 435 C 47.2833 -0.788237 5.28858 0
M  V30 436 C 48.5833 1.38329 5.03649 0
M  V30 437 H 50.2773 1.05763 2.80097 0
M  V30 438 H 47.8233 0.510029 1.34665 0
M  V30 439 H 49.7763 -1.00968 4.09125 0
M  V30 440 H 48.5003 -1.44688 2.92802 0
M  V30 441 H 47.1593 0.569739 3.62146 0
M  V30 442 H 46.8073 -1.62973 4.75866 0
M  V30 443 H 46.5073 -0.269942 5.8698 0
M  V30 444 H 48.0313 -1.19485 5.98795 0
M  V30 445 H 49.4453 1.04918 5.63618 0
M  V30 446 H 47.8423 1.83662 5.71304 0
M  V30 447 H 48.9123 2.16592 4.33839 0
M  V30 448 N 50.2554 -1.46986 0.568584 0
M  V30 449 C 51.2184 -2.28624 -0.162366 0
M  V30 450 C 52.2184 -1.37596 -0.832103 0
M  V30 451 O 53.4084 -1.60115 -0.68622 0
M  V30 452 C 50.5404 -3.17596 -1.23878 0
M  V30 453 H 51.7334 -2.94722 0.554899 0
M  V30 454 H 49.2864 -1.52863 0.325976 0
M  V30 455 H 50.0214 -2.56214 -1.98808 0
M  V30 456 H 49.8064 -3.846 -0.763219 0
M  V30 457 H 51.2964 -3.79078 -1.75185 0
M  V30 458 N 51.7335 -0.305618 -1.54608 0
M  V30 459 C 52.9635 0.304333 -2.04346 0
M  V30 460 C 53.3715 1.47715 -1.18224 0
M  V30 461 O 52.7145 1.82591 -0.201577 0
M  V30 462 C 52.7765 0.819031 -3.50046 0
M  V30 463 C 52.4405 -0.22912 -4.56425 0
M  V30 464 C 53.4375 -1.05914 -5.08997 0
M  V30 465 C 51.1225 -0.372148 -5.0092 0
M  V30 466 C 53.1165 -2.01809 -6.04609 0
M  V30 467 C 50.8035 -1.33454 -5.9635 0
M  V30 468 C 51.8015 -2.15599 -6.48079 0
M  V30 469 O 51.4895 -3.10205 -7.41639 0
M  V30 470 H 51.2215 0.0693996 -0.672428 0
M  V30 471 H 53.7755 -0.444548 -2.00532 0
M  V30 472 H 52.0055 1.61852 -3.51199 0
M  V30 473 H 53.6945 1.34537 -3.82955 0
M  V30 474 H 54.4605 -0.959538 -4.75413 0
M  V30 475 H 50.3395 0.257304 -4.60281 0
M  V30 476 H 53.8835 -2.65966 -6.44909 0
M  V30 477 H 49.7805 -1.43485 -6.29351 0
M  V30 478 H 50.5485 -3.05237 -7.59455 0
M  V30 479 N 53.2116 1.57565 -0.0334293 0
M  V30 480 C 54.4596 1.91598 0.642999 0
M  V30 481 C 54.7806 0.910847 1.7242 0
M  V30 482 O 54.0506 -0.0469931 1.95844 0
M  V30 483 H 52.6306 0.707228 0.240496 0
M  V30 484 H 55.2926 1.94726 -0.0822488 0
M  V30 485 H 54.3886 2.92336 1.09298 0
M  V30 486 N 54.6897 -0.239769 1.55765 0
M  V30 487 C 55.9147 -0.988373 1.82335 0
M  V30 488 C 56.3397 -1.77886 0.611421 0
M  V30 489 O 55.6977 -1.75889 -0.439639 0
M  V30 490 C 55.7457 -1.89627 3.06715 0
M  V30 491 O 54.8497 -2.98904 2.84131 0
M  V30 492 H 54.1907 -0.280858 0.601677 0
M  V30 493 H 56.7207 -0.258597 2.02959 0
M  V30 494 H 56.7307 -2.30957 3.36338 0
M  V30 495 H 55.4057 -1.31511 3.9456 0
M  V30 496 H 53.9827 -2.61651 2.65694 0
M  V30 497 N 56.1678 -1.49265 -0.50573 0
M  V30 498 C 57.0978 -1.68495 -1.61653 0
M  V30 499 C 58.0788 -0.53366 -1.61512 0
M  V30 500 O 59.2638 -0.76897 -1.78327 0
M  V30 501 C 56.3938 -1.74709 -3.00157 0
M  V30 502 C 55.3478 -2.89581 -3.15162 0
M  V30 503 C 54.6738 -2.80903 -4.5497 0
M  V30 504 C 55.9738 -4.30578 -2.95634 0
M  V30 505 H 57.6678 -2.61493 -1.45814 0
M  V30 506 H 55.2138 -1.25838 -0.70005 0
M  V30 507 H 57.1668 -1.86748 -3.77761 0
M  V30 508 H 55.8908 -0.783067 -3.17074 0
M  V30 509 H 54.5498 -2.77136 -2.39982 0
M  V30 510 H 54.1978 -1.82419 -4.68756 0
M  V30 511 H 53.8978 -3.57999 -4.65951 0
M  V30 512 H 55.4218 -2.94944 -5.34641 0
M  V30 513 H 56.8358 -4.4373 -3.63011 0
M  V30 514 H 55.2328 -5.0886 -3.18091 0
M  V30 515 H 56.3028 -4.45352 -1.91806 0
M  V30 516 N 57.6459 0.756429 -1.3826 0
M  V30 517 C 58.5759 1.88374 -1.37976 0
M  V30 518 C 59.5569 1.68311 -0.246082 0
M  V30 519 O 60.7419 1.88944 -0.44874 0
M  V30 520 C 57.8719 3.25864 -1.20125 0
M  V30 521 C 56.8259 3.60523 -2.30666 0
M  V30 522 C 56.1519 4.9672 -1.97923 0
M  V30 523 C 57.4519 3.65692 -3.72916 0
M  V30 524 H 59.1459 1.88869 -2.32312 0
M  V30 525 H 56.6919 0.907272 -1.11824 0
M  V30 526 H 58.6449 4.0438 -1.18552 0
M  V30 527 H 57.3689 3.25841 -0.222498 0
M  V30 528 H 56.0279 2.84324 -2.3142 0
M  V30 529 H 55.6759 4.93253 -0.985393 0
M  V30 530 H 55.3759 5.20878 -2.71955 0
M  V30 531 H 56.8999 5.77618 -1.97964 0
M  V30 532 H 58.3139 4.34328 -3.74208 0
M  V30 533 H 56.7109 4.01358 -4.4613 0
M  V30 534 H 57.7809 2.65987 -4.05436 0
M  V30 535 N 59.124 1.23083 0.984299 0
M  V30 536 C 60.054 1.03292 2.09411 0
M  V30 537 C 61.035 -0.048923 1.7003 0
M  V30 538 O 62.22 0.114967 1.93859 0
M  V30 539 C 59.35 0.619155 3.41736 0
M  V30 540 C 58.304 1.64791 3.95004 0
M  V30 541 C 57.63 1.0897 5.23478 0
M  V30 542 C 58.93 3.03999 4.24714 0
M  V30 543 H 60.624 1.96119 2.26225 0
M  V30 544 H 58.17 0.944344 1.08711 0
M  V30 545 H 60.123 0.467777 4.18796 0
M  V30 546 H 58.847 -0.344786 3.24775 0
M  V30 547 H 57.506 1.78721 3.20085 0
M  V30 548 H 57.154 0.11686 5.02864 0
M  V30 549 H 56.854 1.77704 5.60085 0
M  V30 550 H 58.378 0.950093 6.03163 0
M  V30 551 H 59.792 2.93393 4.92538 0
M  V30 552 H 58.189 3.69936 4.72512 0
M  V30 553 H 59.259 3.53285 3.32142 0
M  V30 554 N 60.6021 -1.18246 1.0419 0
M  V30 555 C 61.5351 -2.20746 0.578474 0
M  V30 556 C 62.5131 -1.57912 -0.387624 0
M  V30 557 O 63.6971 -1.86071 -0.301634 0
M  V30 558 C 60.8241 -3.38346 -0.154762 0
M  V30 559 C 59.8701 -4.19587 0.764782 0
M  V30 560 S 60.7031 -4.86014 2.24835 0
M  V30 561 C 61.8591 -6.07012 1.526 0
M  V30 562 H 62.0921 -2.59715 1.44691 0
M  V30 563 H 59.6251 -1.287 0.85297 0
M  V30 564 H 61.5831 -4.065 -0.571641 0
M  V30 565 H 60.2441 -2.97786 -0.999105 0
M  V30 566 H 59.4371 -5.03611 0.197976 0
M  V30 567 H 59.0391 -3.56818 1.12057 0
M  V30 568 H 61.3311 -6.72523 0.819733 0
M  V30 569 H 62.2741 -6.68202 2.34333 0
M  V30 570 H 62.6821 -5.55249 1.01779 0
M  V30 571 N 62.0802 -0.821533 -1.34494 0
M  V30 572 C 63.0432 -0.247847 -2.27856 0
M  V30 573 C 64.0432 0.573453 -1.50227 0
M  V30 574 O 65.2332 0.389759 -1.69784 0
M  V30 575 C 62.3652 0.652698 -3.34593 0
M  V30 576 H 63.5582 -1.07146 -2.80107 0
M  V30 577 H 61.1112 -0.593291 -1.44602 0
M  V30 578 H 61.8462 1.49943 -2.87555 0
M  V30 579 H 61.6312 0.065292 -3.92046 0
M  V30 580 H 63.1212 1.04793 -4.04238 0
M  V30 581 N 63.5583 1.46682 -0.576371 0
M  V30 582 C 64.4883 2.33028 0.148397 0
M  V30 583 C 65.4693 1.44961 0.889956 0
M  V30 584 O 66.6543 1.73789 0.866662 0
M  V30 585 C 63.7843 3.27117 1.1667 0
M  V30 586 C 62.7383 4.24575 0.540386 0
M  V30 587 C 62.0643 5.08126 1.6647 0
M  V30 588 C 63.3643 5.19722 -0.518331 0
M  V30 589 H 65.0583 2.93875 -0.572509 0
M  V30 590 H 62.6043 1.41315 -0.276768 0
M  V30 591 H 64.5573 3.86374 1.68204 0
M  V30 592 H 63.2813 2.64364 1.9178 0
M  V30 593 H 61.9403 3.66571 0.0461769 0
M  V30 594 H 61.5883 4.41762 2.40531 0
M  V30 595 H 61.2883 5.74122 1.25131 0
M  V30 596 H 62.8123 5.70246 2.18293 0
M  V30 597 H 64.2263 5.73232 -0.0883058 0
M  V30 598 H 62.6233 5.94026 -0.851679 0
M  V30 599 H 63.6933 4.64037 -1.40703 0
M  V30 600 N 65.0364 0.313813 1.54444 0
M  V30 601 C 65.9664 -0.549454 2.26943 0
M  V30 602 C 66.9474 -1.12741 1.27372 0
M  V30 603 O 68.1324 -1.15436 1.56167 0
M  V30 604 C 65.2624 -1.71523 3.01989 0
M  V30 605 C 64.2164 -1.26703 4.08816 0
M  V30 606 C 63.5424 -2.51898 4.71647 0
M  V30 607 C 64.8424 -0.388962 5.2085 0
M  V30 608 H 66.5364 0.0552661 2.99349 0
M  V30 609 H 64.0824 0.0280207 1.43973 0
M  V30 610 H 66.0354 -2.32535 3.51433 0
M  V30 611 H 64.7594 -2.34639 2.27183 0
M  V30 612 H 63.4184 -0.679896 3.6024 0
M  V30 613 H 63.0664 -3.13356 3.93468 0
M  V30 614 H 62.7664 -2.22605 5.43802 0
M  V30 615 H 64.2904 -3.1369 5.23861 0
M  V30 616 H 65.7044 -0.905107 5.6611 0
M  V30 617 H 64.1014 -0.18924 5.99802 0
M  V30 618 H 65.1714 0.582699 4.81386 0
M  V30 619 N 66.5145 -1.57545 0.0417849 0
M  V30 620 C 67.9255 -1.80011 -0.495259 0
M  V30 621 C 68.2765 -0.953199 -1.71489 0
M  V30 622 O 67.4015 -0.167138 -2.15754 0
M  V30 623 C 67.9965 -3.26482 -0.905265 0
M  V30 624 C 66.5555 -3.499 -1.38734 0
M  V30 625 C 65.7025 -2.74979 -0.358056 0
M  V30 626 H 68.6535 -1.56425 0.267736 0
M  V30 627 H 68.6745 -3.36887 -1.76882 0
M  V30 628 H 68.1865 -3.88096 -0.017401 0
M  V30 629 H 66.2875 -2.93553 -2.29471 0
M  V30 630 H 66.4005 -4.58615 -1.38598 0
M  V30 631 H 64.7645 -2.40834 -0.828912 0
M  V30 632 H 65.5475 -3.39315 0.521561 0
M  V30 633 N 67.9926 0.231505 -1.5589 0
M  V30 634 C 69.2416 0.955346 -1.7764 0
M  V30 635 C 69.5546 1.85893 -0.608546 0
M  V30 636 O 70.7606 2.62067 -0.70943 0
M  V30 637 C 69.2166 1.74886 -3.14552 0
M  V30 638 C 68.8246 0.891915 -4.39032 0
M  V30 639 C 70.5686 2.46452 -3.45633 0
M  V30 640 C 68.4756 1.68221 -5.66971 0
M  V30 641 H 67.4056 0.360446 -0.662265 0
M  V30 642 H 70.0566 0.209516 -1.823 0
M  V30 643 H 68.4386 2.53723 -3.04041 0
M  V30 644 H 69.6126 0.144793 -4.60572 0
M  V30 645 H 67.9276 0.288863 -4.15397 0
M  V30 646 H 70.5246 3.06061 -4.38441 0
M  V30 647 H 70.8676 3.18841 -2.67668 0
M  V30 648 H 71.4006 1.74613 -3.57428 0
M  V30 649 H 68.1396 1.00178 -6.478 0
M  V30 650 H 67.6596 2.4042 -5.49507 0
M  V30 651 H 69.3386 2.24544 -6.06786 0
M  V30 652 N 69.4707 1.49531 0.497807 0
M  V30 653 C 70.7177 1.59179 1.25173 0
M  V30 654 C 71.0457 0.279932 1.92475 0
M  V30 655 O 70.3007 -0.732383 1.81479 0
M  V30 656 C 70.5997 2.70252 2.33878 0
M  V30 657 C 70.2657 4.11644 1.84012 0
M  V30 658 C 68.9277 4.50121 1.70132 0
M  V30 659 C 71.2797 5.00121 1.46725 0
M  V30 660 C 68.6077 5.74845 1.17348 0
M  V30 661 C 70.9597 6.25366 0.95392 0
M  V30 662 C 69.6237 6.6267 0.801538 0
M  V30 663 H 68.8937 0.582478 0.45804 0
M  V30 664 H 71.5407 1.83373 0.551948 0
M  V30 665 H 69.8457 2.40041 3.09657 0
M  V30 666 H 71.5427 2.74925 2.9192 0
M  V30 667 H 68.1327 3.81274 1.95775 0
M  V30 668 H 72.3167 4.71048 1.56294 0
M  V30 669 H 67.5727 6.02444 1.04264 0
M  V30 670 H 71.7467 6.93301 0.656225 0
M  V30 671 H 69.3737 7.59197 0.390351 0
M  V30 672 N 70.9488 -0.749086 1.3866 0
M  V30 673 C 72.1958 -1.50833 1.35114 0
M  V30 674 C 72.5238 -1.94415 -0.0574049 0
M  V30 675 O 71.7788 -1.66065 -1.03541 0
M  V30 676 C 72.0778 -2.7712 2.25697 0
M  V30 677 C 71.7438 -2.52477 3.73585 0
M  V30 678 C 70.4058 -2.45466 4.13884 0
M  V30 679 C 72.7578 -2.31066 4.67181 0
M  V30 680 C 70.0858 -2.15064 5.45861 0
M  V30 681 C 72.4378 -2.02183 5.9942 0
M  V30 682 C 71.1018 -1.93631 6.38798 0
M  V30 683 H 70.3718 -0.551936 0.494416 0
M  V30 684 H 73.0188 -0.860979 1.71054 0
M  V30 685 H 71.3238 -3.46528 1.82827 0
M  V30 686 H 73.0208 -3.35096 2.20254 0
M  V30 687 H 69.6108 -2.58807 3.41638 0
M  V30 688 H 73.7948 -2.35459 4.3689 0
M  V30 689 H 69.0508 -2.06954 5.75308 0
M  V30 690 H 73.2248 -1.8462 6.71482 0
M  V30 691 H 70.8518 -1.69839 7.40985 0
M  V30 692 N 72.4269 -1.23603 -0.977757 0
M  V30 693 C 73.6749 -1.06759 -1.71601 0
M  V30 694 C 73.9959 0.395929 -1.90938 0
M  V30 695 O 73.2659 1.28356 -1.47992 0
M  V30 696 H 71.8459 -0.392062 -0.635843 0
M  V30 697 H 74.5079 -1.55362 -1.1768 0
M  V30 698 H 73.6039 -1.55763 -2.70452 0
M  V30 699 N 73.905 1.17692 -1.04816 0
M  V30 700 C 74.868 2.19787 -0.650117 0
M  V30 701 C 75.868 1.58044 0.296427 0
M  V30 702 O 77.058 1.74012 0.0808097 0
M  V30 703 C 74.19 3.40869 0.0456987 0
M  V30 704 H 75.383 2.56516 -1.5537 0
M  V30 705 H 72.936 1.31708 -0.841594 0
M  V30 706 H 73.671 3.09681 0.962726 0
M  V30 707 H 73.456 3.86928 -0.634727 0
M  V30 708 H 74.946 4.16445 0.310432 0
M  V30 709 N 75.3831 0.828654 1.34056 0
M  V30 710 C 76.3131 0.269443 2.3194 0
M  V30 711 C 77.2941 -0.617247 1.58506 0
M  V30 712 O 78.4791 -0.542931 1.86456 0
M  V30 713 C 75.6091 -0.564793 3.42677 0
M  V30 714 C 74.5631 0.225241 4.27407 0
M  V30 715 C 73.8891 -0.7321 5.29664 0
M  V30 716 C 75.1891 1.43663 5.02154 0
M  V30 717 H 76.8831 1.08728 2.7896 0
M  V30 718 H 74.4291 0.524283 1.34117 0
M  V30 719 H 76.3821 -0.966233 4.10173 0
M  V30 720 H 75.1061 -1.41574 2.9432 0
M  V30 721 H 73.7651 0.608117 3.61521 0
M  V30 722 H 73.4131 -1.57916 4.77568 0
M  V30 723 H 73.1131 -0.20767 5.87233 0
M  V30 724 H 74.6371 -1.13128 6.00029 0
M  V30 725 H 76.0511 1.1089 5.62473 0
M  V30 726 H 74.4481 1.89711 5.69324 0
M  V30 727 H 75.5181 2.21181 4.31517 0
M  V30 728 N 76.8612 -1.46375 0.584142 0
M  V30 729 C 78.2772 -1.57694 0.245929 0
M  V30 730 C 78.4772 -1.57903 -1.25175 0
M  V30 731 O 77.5332 -1.49676 -2.03355 0
M  V30 732 C 78.8462 -2.87028 0.896402 0
M  V30 733 C 80.3942 -3.00662 0.870127 0
M  V30 734 C 80.8692 -4.32734 1.50017 0
M  V30 735 N 82.3602 -4.39436 1.46458 0
M  V30 736 C 83.0952 -5.40248 1.92144 0
M  V30 737 N 82.5912 -6.47726 2.4581 0
M  V30 738 N 84.3842 -5.31459 1.83052 0
M  V30 739 H 76.5352 -1.44483 1.55687 0
M  V30 740 H 78.7982 -0.689291 0.650831 0
M  V30 741 H 78.5042 -2.9269 1.95002 0
M  V30 742 H 78.3782 -3.75014 0.405486 0
M  V30 743 H 80.7652 -2.94581 -0.174871 0
M  V30 744 H 80.8462 -2.14148 1.39908 0
M  V30 745 H 80.4902 -4.39573 2.54437 0
M  V30 746 H 80.4202 -5.18025 0.946432 0
M  V30 747 H 82.9112 -3.62367 1.07231 0
M  V30 748 H 83.2242 -7.20863 2.78525 0
M  V30 749 H 81.5692 -6.48542 2.49836 0
M  V30 750 H 84.7602 -4.46396 1.40883 0
M  V30 751 H 84.9332 -6.09881 2.18973 0
M  V30 752 N 78.3393 -0.321999 -1.54275 0
M  V30 753 C 79.5643 0.285791 -2.05422 0
M  V30 754 C 79.9893 1.45124 -1.19669 0
M  V30 755 O 79.3473 1.80132 -0.205441 0
M  V30 756 C 79.3953 0.69956 -3.53749 0
M  V30 757 O 78.4993 1.8021 -3.70942 0
M  V30 758 H 77.8403 0.0518962 -0.661969 0
M  V30 759 H 80.3703 -0.469954 -1.9913 0
M  V30 760 H 80.3803 0.982649 -3.9599 0
M  V30 761 H 79.0553 -0.152864 -4.15619 0
M  V30 762 H 77.6323 1.51794 -3.40607 0
M  V30 763 N 79.8174 1.5752 -0.0501392 0
M  V30 764 C 81.0634 1.92936 0.624798 0
M  V30 765 C 81.3964 0.928685 1.70555 0
M  V30 766 O 80.6714 -0.0454779 1.94447 0
M  V30 767 C 80.9544 3.38737 1.22185 0
M  V30 768 C 80.8074 4.49552 0.149218 0
M  V30 769 C 82.1264 3.84913 2.13378 0
M  V30 770 H 79.2454 0.701604 0.225657 0
M  V30 771 H 81.8874 1.89671 -0.111693 0
M  V30 772 H 80.0374 3.4165 1.84953 0
M  V30 773 H 81.7094 4.58768 -0.482648 0
M  V30 774 H 79.9524 4.30638 -0.522841 0
M  V30 775 H 80.6234 5.48653 0.606966 0
M  V30 776 H 83.0994 3.8387 1.60572 0
M  V30 777 H 81.9754 4.87584 2.52097 0
M  V30 778 H 82.2364 3.21611 3.03346 0
M  V30 779 N 81.2955 -0.223234 1.56011 0
M  V30 780 C 82.7115 -0.572856 1.48965 0
M  V30 781 C 82.9115 -1.87225 0.74492 0
M  V30 782 O 81.9675 -2.50899 0.283896 0
M  V30 783 C 83.2805 -0.653646 2.9351 0
M  V30 784 C 84.8285 -0.744386 3.0402 0
M  V30 785 C 85.3035 -0.856535 4.49919 0
M  V30 786 N 86.7945 -0.9208 4.53955 0
M  V30 787 C 87.5295 -1.02726 5.64123 0
M  V30 788 N 87.0255 -1.09777 6.84047 0
M  V30 789 N 88.8185 -1.06226 5.51971 0
M  V30 790 H 80.9695 0.629462 2.02858 0
M  V30 791 H 83.2325 0.220621 0.921971 0
M  V30 792 H 82.9385 0.231518 3.50937 0
M  V30 793 H 82.8125 -1.51781 3.45315 0
M  V30 794 H 85.1995 -1.61999 2.46658 0
M  V30 795 H 85.2805 0.14541 2.55386 0
M  V30 796 H 84.9245 0.0146069 5.07898 0
M  V30 797 H 84.8545 -1.76172 4.96257 0
M  V30 798 H 87.3455 -0.876694 3.6759 0
M  V30 799 H 87.6585 -1.17872 7.63758 0
M  V30 800 H 86.0035 -1.06693 6.86762 0
M  V30 801 H 89.1945 -1.00382 4.5721 0
M  V30 802 H 89.3675 -1.14177 6.37862 0
M  V30 803 N 82.7736 -1.49793 -0.48987 0
M  V30 804 C 84.0136 -1.61466 -1.25332 0
M  V30 805 C 84.3776 -0.299688 -1.89647 0
M  V30 806 O 85.5786 -0.291687 -2.67213 0
M  V30 807 C 83.8496 -2.74944 -2.28343 0
M  V30 808 S 85.4086 -3.06637 -3.13878 0
M  V30 809 H 82.2266 -0.569411 -0.425784 0
M  V30 810 H 84.8286 -1.875 -0.553541 0
M  V30 811 H 83.5326 -3.68994 -1.79643 0
M  V30 812 H 83.0636 -2.50938 -3.02975 0
M  V30 813 H 85.0786 -2.49015 -4.29192 0
M  V30 814 N 84.2517 0.741722 -1.39055 0
M  V30 815 C 85.2147 1.83733 -1.37021 0
M  V30 816 C 86.2147 1.58542 -0.268534 0
M  V30 817 O 87.4047 1.66067 -0.526076 0
M  V30 818 C 84.5367 3.2141 -1.13617 0
M  V30 819 H 85.7297 1.86941 -2.34506 0
M  V30 820 H 83.2827 0.944676 -1.24521 0
M  V30 821 H 84.0177 3.23865 -0.167863 0
M  V30 822 H 83.8027 3.4109 -1.93391 0
M  V30 823 H 85.2927 4.01477 -1.14918 0
M  V30 824 N 85.7298 1.2412 0.971189 0
M  V30 825 C 87.1458 1.00584 1.23916 0
M  V30 826 C 87.3458 -0.287481 1.99439 0
M  V30 827 O 86.4018 -1.00454 2.31658 0
M  V30 828 C 87.7148 2.21864 2.0297 0
M  V30 829 C 89.2628 2.26452 2.16076 0
M  V30 830 C 89.7378 3.47343 2.98524 0
M  V30 831 N 91.2288 3.47639 3.06107 0
M  V30 832 C 91.9638 4.37837 3.70251 0
M  V30 833 N 91.4598 5.38286 4.36142 0
M  V30 834 N 93.2528 4.25558 3.67228 0
M  V30 835 H 85.4038 2.07236 0.465499 0
M  V30 836 H 87.6668 0.909236 0.268315 0
M  V30 837 H 87.3728 3.15771 1.54861 0
M  V30 838 H 87.2468 2.23698 3.03709 0
M  V30 839 H 89.6338 1.33078 2.6339 0
M  V30 840 H 89.7148 2.28645 1.14696 0
M  V30 841 H 89.3588 4.41029 2.51905 0
M  V30 842 H 89.2888 3.42393 4.00093 0
M  V30 843 H 91.7798 2.74966 2.59233 0
M  V30 844 H 92.0928 6.03352 4.82894 0
M  V30 845 H 90.4378 5.42176 4.34822 0
M  V30 846 H 93.6288 3.46322 3.14927 0
M  V30 847 H 93.8018 4.96054 4.16935 0
M  V30 848 N 87.2079 -1.17134 1.05439 0
M  V30 849 C 88.4559 -1.87085 0.764429 0
M  V30 850 C 88.7769 -1.81584 -0.710787 0
M  V30 851 O 88.0469 -1.24349 -1.51374 0
M  V30 852 H 86.6269 -0.692627 0.279779 0
M  V30 853 H 89.2889 -1.42087 1.33406 0
M  V30 854 H 88.3849 -2.92759 1.0816 0
M  V30 855 N 88.686 -0.835752 -1.33615 0
M  V30 856 C 89.633 -0.26473 -2.29277 0
M  V30 857 C 90.603 0.617712 -1.54187 0
M  V30 858 O 91.788 0.556641 -1.825 0
M  V30 859 C 88.928 0.556777 -3.40579 0
M  V30 860 C 88.041 -0.349339 -4.30585 0
M  V30 861 C 87.176 0.482969 -5.29 0
M  V30 862 C 86.215 -0.421732 -6.10645 0
M  V30 863 N 85.352 0.372262 -7.01112 0
M  V30 864 H 90.192 -1.08582 -2.77514 0
M  V30 865 H 87.729 -0.546927 -1.36554 0
M  V30 866 H 89.687 1.04852 -4.03809 0
M  V30 867 H 88.317 1.34286 -2.93542 0
M  V30 868 H 87.369 -0.959372 -3.68104 0
M  V30 869 H 88.681 -1.04445 -4.87742 0
M  V30 870 H 87.835 1.03866 -5.97743 0
M  V30 871 H 86.574 1.21153 -4.72412 0
M  V30 872 H 85.579 -0.989464 -5.40823 0
M  V30 873 H 86.804 -1.14861 -6.69316 0
M  V30 874 H 84.75 1.08426 -6.46977 0
M  V30 875 H 84.667 -0.264198 -7.55538 0
M  V30 876 H 85.935 0.910293 -7.74167 0
M  V30 877 N 90.1641 1.46063 -0.591896 0
M  V30 878 C 91.1121 2.32124 0.148739 0
M  V30 879 C 92.1061 1.45035 0.875286 0
M  V30 880 O 93.3121 1.61609 0.792632 0
M  V30 881 H 89.6871 0.749024 0.066832 0
M  V30 882 H 91.6581 2.92392 -0.595783 0
M  V30 883 C 90.4071 3.28373 1.1431 0
M  V30 884 H 89.7301 3.95371 0.59346 0
M  V30 885 H 91.1701 3.91352 1.63155 0
M  V30 886 C 89.6291 2.54393 2.20875 0
M  V30 887 O 90.1591 2.31373 3.28374 0
M  V30 888 N 88.3651 2.14797 1.95731 0
M  V30 889 H 87.9121 2.33719 1.08319 0
M  V30 890 H 87.8701 1.65619 2.67241 0
M  V30 891 N 91.6422 0.330177 1.54103 0
M  V30 892 C 92.6052 -0.520144 2.2322 0
M  V30 893 C 93.6052 -1.03828 1.22786 0
M  V30 894 O 94.7952 -0.929652 1.4732 0
M  V30 895 C 91.9272 -1.72317 2.94142 0
M  V30 896 H 93.1202 0.0841605 2.99782 0
M  V30 897 H 90.6732 0.0813433 1.56088 0
M  V30 898 H 91.4082 -2.36653 2.21734 0
M  V30 899 H 91.1932 -1.35898 3.67796 0
M  V30 900 H 92.6832 -2.3266 3.46784 0
M  V30 901 N 93.1203 -1.57491 0.0584922 0
M  V30 902 C 94.3453 -1.97711 -0.62652 0
M  V30 903 C 94.7703 -0.936132 -1.63151 0
M  V30 904 O 94.1283 0.099811 -1.81025 0
M  V30 905 C 94.1763 -3.36989 -1.28338 0
M  V30 906 O 93.2803 -3.35433 -2.39913 0
M  V30 907 H 92.6213 -0.643868 -0.162266 0
M  V30 908 H 95.1513 -2.04193 0.129064 0
M  V30 909 H 95.1613 -3.73879 -1.63335 0
M  V30 910 H 93.8363 -4.12289 -0.546889 0
M  V30 911 H 92.4133 -3.10298 -2.06809 0
M  V30 912 N 94.5984 0.214957 -1.56127 0
M  V30 913 C 95.8754 0.963093 -1.70247 0
M  V30 914 C 96.2554 2.02166 -0.60764 0
M  V30 915 O 95.6034 2.25244 0.384385 0
M  V30 916 C 95.8134 1.56756 -3.11815 0
M  V30 917 C 97.1614 2.0573 -3.7143 0
M  V30 918 O 98.1854 1.66637 -3.14818 0
M  V30 919 O 97.0444 2.77603 -4.70743 0
M  V30 920 H 94.1384 0.450321 -0.693643 0
M  V30 921 H 96.6844 0.206219 -1.68442 0
M  V30 922 H 95.4564 0.803533 -3.82961 0
M  V30 923 H 95.0794 2.3898 -3.17765 0
M  V30 924 N 96.0765 1.50051 0.48192 0
M  V30 925 C 97.0095 1.62749 1.59963 0
M  V30 926 C 97.9875 0.475903 1.5548 0
M  V30 927 O 99.1715 0.693986 1.7526 0
M  V30 928 C 96.2985 1.60008 2.98522 0
M  V30 929 C 95.3445 2.80596 3.21198 0
M  V30 930 S 96.1775 4.42038 3.02262 0
M  V30 931 C 97.3335 4.41973 4.43182 0
M  V30 932 H 97.5665 2.57296 1.4895 0
M  V30 933 H 95.0995 1.39179 0.668477 0
M  V30 934 H 97.0575 1.59112 3.78409 0
M  V30 935 H 95.7185 0.667153 3.06933 0
M  V30 936 H 94.9115 2.74952 4.22395 0
M  V30 937 H 94.5135 2.79003 2.49065 0
M  V30 938 H 96.8055 4.14868 5.35622 0
M  V30 939 H 97.7485 5.43512 4.53873 0
M  V30 940 H 98.1565 3.71812 4.24755 0
M  V30 941 N 97.5546 -0.734337 1.39446 0
M  V30 942 C 98.9656 -1.31264 1.32766 0
M  V30 943 C 99.3166 -1.96198 -0.00767497 0
M  V30 944 O 98.4416 -1.96346 -0.909796 0
M  V30 945 C 99.0366 -2.38682 2.4045 0
M  V30 946 C 97.5956 -2.92184 2.37288 0
M  V30 947 C 96.7426 -1.6576 2.22304 0
M  V30 948 H 99.6936 -0.531799 1.49525 0
M  V30 949 H 99.7146 -3.19087 2.07276 0
M  V30 950 H 99.2266 -1.91392 3.37625 0
M  V30 951 H 97.3276 -3.43752 1.43754 0
M  V30 952 H 97.4406 -3.45253 3.3217 0
M  V30 953 H 95.8046 -1.9012 1.69489 0
M  V30 954 H 96.5876 -1.20521 3.21449 0
M  V30 955 N 99.0327 -1.24633 -0.964593 0
M  V30 956 C 99.9427 -1.05859 -2.09359 0
M  V30 957 C 100.959 0.00148855 -1.74 0
M  V30 958 O 102.135 -0.197346 -2.00431 0
M  V30 959 C 99.1997 -0.668879 -3.40187 0
M  V30 960 C 98.2607 -1.80578 -3.89474 0
M  V30 961 C 97.4937 -1.43457 -5.14058 0
M  V30 962 O 97.7167 -0.325775 -5.69469 0
M  V30 963 O 96.6507 -2.2613 -5.57807 0
M  V30 964 H 100.477 -2.00516 -2.28094 0
M  V30 965 H 98.0617 -1.03481 -1.0776 0
M  V30 966 H 99.9437 -0.463211 -4.18846 0
M  V30 967 H 98.6187 0.248536 -3.22744 0
M  V30 968 H 97.5257 -2.06623 -3.11862 0
M  V30 969 H 98.8587 -2.70208 -4.11398 0
M  V30 970 N 100.511 1.16574 -1.06058 0
M  V30 971 C 101.739 1.90952 -0.796552 0
M  V30 972 C 102.154 1.77302 0.648808 0
M  V30 973 O 101.511 1.11605 1.44397 0
M  V30 974 C 101.562 3.41736 -1.17894 0
M  V30 975 O 101.283 3.54975 -2.56758 0
M  V30 976 C 102.784 4.33169 -0.942308 0
M  V30 977 H 100.004 0.605594 -0.288959 0
M  V30 978 H 102.548 1.47777 -1.41358 0
M  V30 979 H 100.703 3.82623 -0.606491 0
M  V30 980 H 101.117 4.4846 -2.72 0
M  V30 981 H 102.591 5.37439 -1.25952 0
M  V30 982 H 103.068 4.3903 0.122078 0
M  V30 983 H 103.674 3.98007 -1.49902 0
M  V30 984 N 101.989 0.842826 1.3317 0
M  V30 985 C 103.238 0.436738 1.96915 0
M  V30 986 C 103.551 -1.01025 1.67491 0
M  V30 987 O 104.757 -1.5212 2.24881 0
M  V30 988 C 103.213 0.730021 3.52418 0
M  V30 989 C 102.821 2.19195 3.90714 0
M  V30 990 C 104.565 0.391076 4.22695 0
M  V30 991 C 102.472 2.42907 5.39212 0
M  V30 992 H 101.402 0.15958 0.736919 0
M  V30 993 H 104.053 1.03196 1.51733 0
M  V30 994 H 102.435 0.0643755 3.95948 0
M  V30 995 H 103.609 2.8984 3.58231 0
M  V30 996 H 101.924 2.49425 3.33431 0
M  V30 997 H 104.521 0.545817 5.31907 0
M  V30 998 H 104.864 -0.666294 4.10933 0
M  V30 999 H 105.397 1.01212 3.84709 0
M  V30 1000 H 102.136 3.47224 5.55982 0
M  V30 1001 H 101.656 1.76827 5.73142 0
M  V30 1002 H 103.335 2.2626 6.06148 0
M  V30 1003 N 103.467 -1.45747 0.599634 0
M  V30 1004 C 104.695 -2.06668 0.0978551 0
M  V30 1005 C 105.11 -1.44562 -1.21439 0
M  V30 1006 O 104.467 -0.556923 -1.73795 0
M  V30 1007 C 104.518 -3.61456 -0.0567044 0
M  V30 1008 O 104.239 -4.21242 1.20361 0
M  V30 1009 C 105.74 -4.39345 -0.590869 0
M  V30 1010 H 102.96 -0.667825 0.0651943 0
M  V30 1011 H 105.504 -1.87115 0.82511 0
M  V30 1012 H 103.659 -3.80378 -0.734251 0
M  V30 1013 H 104.073 -5.14323 1.02821 0
M  V30 1014 H 105.547 -5.48182 -0.648131 0
M  V30 1015 H 106.024 -4.08568 -1.61147 0
M  V30 1016 H 106.63 -4.25268 0.0523679 0
M  V30 1017 N 104.945 -0.338344 -1.53925 0
M  V30 1018 C 106.17 0.263987 -2.05713 0
M  V30 1019 C 106.595 1.43847 -1.21201 0
M  V30 1020 O 105.953 1.79904 -0.224535 0
M  V30 1021 C 106.001 0.662 -3.54471 0
M  V30 1022 O 105.105 1.76265 -3.72833 0
M  V30 1023 H 104.446 0.0448722 -0.662482 0
M  V30 1024 H 106.976 -0.491048 -1.9862 0
M  V30 1025 H 106.986 0.940594 -3.9701 0
M  V30 1026 H 105.661 -0.196937 -4.15433 0
M  V30 1027 H 104.238 1.48173 -3.42198 0
M  V30 1028 N 106.423 1.57458 -0.0668435 0
M  V30 1029 C 107.839 1.56947 0.289772 0
M  V30 1030 C 108.039 1.07584 1.70376 0
M  V30 1031 O 107.095 0.739486 2.41429 0
M  V30 1032 C 108.408 3.0052 0.103943 0
M  V30 1033 C 109.956 3.12517 0.173857 0
M  V30 1034 C 110.431 4.57997 0.0163682 0
M  V30 1035 N 111.922 4.63144 0.0721352 0
M  V30 1036 C 112.657 5.73394 -0.0253794 0
M  V30 1037 N 112.153 6.92576 -0.176133 0
M  V30 1038 N 113.946 5.62091 0.0313305 0
M  V30 1039 H 106.097 1.87863 -0.991027 0
M  V30 1040 H 108.36 0.86583 -0.38606 0
M  V30 1041 H 108.066 3.40729 -0.871572 0
M  V30 1042 H 107.94 3.67304 0.858366 0
M  V30 1043 H 110.327 2.72197 1.13985 0
M  V30 1044 H 110.408 2.48381 -0.611586 0
M  V30 1045 H 110.052 4.99005 -0.946374 0
M  V30 1046 H 109.982 5.20158 0.821153 0
M  V30 1047 H 112.473 3.77436 0.187263 0
M  V30 1048 H 112.786 7.72418 -0.242821 0
M  V30 1049 H 111.131 6.94678 -0.211429 0
M  V30 1050 H 114.322 4.67867 0.147773 0
M  V30 1051 H 114.495 6.47982 -0.048121 0
M  V30 1052 N 107.901 -0.206675 1.56239 0
M  V30 1053 C 109.178 -0.954051 1.70755 0
M  V30 1054 C 109.558 -2.01841 0.618353 0
M  V30 1055 O 108.906 -2.25444 -0.372434 0
M  V30 1056 C 109.116 -1.551 3.12642 0
M  V30 1057 C 110.464 -2.03757 3.72516 0
M  V30 1058 O 111.488 -1.64965 3.15698 0
M  V30 1059 O 110.347 -2.75103 4.72208 0
M  V30 1060 H 107.441 -0.446636 0.696021 0
M  V30 1061 H 109.987 -0.197283 1.68549 0
M  V30 1062 H 108.759 -0.783212 3.83382 0
M  V30 1063 H 108.382 -2.37291 3.19028 0
M  V30 1064 N 109.379 -1.50304 -0.473955 0
M  V30 1065 C 110.342 -1.6841 -1.55469 0
M  V30 1066 C 111.342 -0.554905 -1.50922 0
M  V30 1067 O 112.532 -0.821882 -1.53593 0
M  V30 1068 C 109.664 -1.70667 -2.95102 0
M  V30 1069 H 110.857 -2.64828 -1.40733 0
M  V30 1070 H 108.41 -1.39742 -0.700132 0
M  V30 1071 H 109.145 -0.75932 -3.15285 0
M  V30 1072 H 108.93 -2.52698 -2.9981 0
M  V30 1073 H 110.42 -1.8664 -3.73571 0
M  V30 1074 N 110.857 0.726932 -1.39834 0
M  V30 1075 C 111.82 1.82269 -1.38962 0
M  V30 1076 C 112.82 1.58248 -0.285334 0
M  V30 1077 O 114.01 1.65499 -0.54366 0
M  V30 1078 C 111.142 3.20186 -1.17019 0
M  V30 1079 H 112.335 1.84443 -2.36476 0
M  V30 1080 H 109.888 0.931416 -1.25516 0
M  V30 1081 H 110.623 3.23669 -0.202204 0
M  V30 1082 H 110.408 3.3902 -1.96998 0
M  V30 1083 H 111.898 4.00235 -1.1917 0
M  V30 1084 N 112.336 1.25143 0.95797 0
M  V30 1085 C 113.752 1.01892 1.22842 0
M  V30 1086 C 113.952 -0.266311 1.99732 0
M  V30 1087 O 113.008 -0.979913 2.3271 0
M  V30 1088 C 114.321 2.24004 2.00606 0
M  V30 1089 C 115.869 2.28731 2.13662 0
M  V30 1090 C 116.344 3.5049 2.94823 0
M  V30 1091 N 117.835 3.50866 3.02403 0
M  V30 1092 C 118.57 4.4174 3.65586 0
M  V30 1093 N 118.066 5.42882 4.30408 0
M  V30 1094 N 119.859 4.29429 3.62694 0
M  V30 1095 H 112.01 2.07718 0.443493 0
M  V30 1096 H 114.273 0.912031 0.258657 0
M  V30 1097 H 113.979 3.17395 1.51503 0
M  V30 1098 H 113.853 2.26907 3.01319 0
M  V30 1099 H 116.24 1.35865 2.61963 0
M  V30 1100 H 116.321 2.29848 1.12265 0
M  V30 1101 H 115.965 4.43676 2.47213 0
M  V30 1102 H 115.895 3.46617 3.96439 0
M  V30 1103 H 118.386 2.777 2.56302 0
M  V30 1104 H 118.699 6.0844 4.76467 0
M  V30 1105 H 117.044 5.46758 4.29047 0
M  V30 1106 H 120.235 3.49643 3.11236 0
M  V30 1107 H 120.408 5.00448 4.1165 0
M  V30 1108 N 113.814 -1.1601 1.06675 0
M  V30 1109 C 115.061 -1.86633 0.785781 0
M  V30 1110 C 115.389 -1.81929 -0.687896 0
M  V30 1111 O 114.644 -1.23253 -1.52011 0
M  V30 1112 C 114.943 -3.35547 1.23057 0
M  V30 1113 C 114.609 -3.60448 2.70902 0
M  V30 1114 C 113.271 -3.66954 3.11285 0
M  V30 1115 C 115.623 -3.7071 3.66365 0
M  V30 1116 C 112.951 -3.81225 4.45965 0
M  V30 1117 C 115.303 -3.86503 5.00797 0
M  V30 1118 C 113.967 -3.91252 5.40813 0
M  V30 1119 H 113.237 -0.682937 0.287538 0
M  V30 1120 H 115.884 -1.37146 1.33654 0
M  V30 1121 H 114.189 -3.87193 0.59907 0
M  V30 1122 H 115.886 -3.88583 0.990163 0
M  V30 1123 H 112.476 -3.56021 2.38636 0
M  V30 1124 H 116.66 -3.64991 3.36296 0
M  V30 1125 H 111.916 -3.83155 4.76447 0
M  V30 1126 H 116.09 -3.93385 5.74649 0
M  V30 1127 H 113.717 -4.02062 6.45174 0
M  V30 1128 N 115.292 -0.849877 -1.32721 0
M  V30 1129 C 116.703 -0.506188 -1.79707 0
M  V30 1130 C 117.054 0.975627 -1.70223 0
M  V30 1131 O 116.179 1.76078 -1.25799 0
M  V30 1132 C 116.774 -0.912044 -3.26293 0
M  V30 1133 C 115.333 -0.620326 -3.71253 0
M  V30 1134 C 114.48 -1.11439 -2.53922 0
M  V30 1135 H 117.431 -1.03754 -1.20087 0
M  V30 1136 H 117.452 -0.226493 -3.79825 0
M  V30 1137 H 116.964 -1.99057 -3.33164 0
M  V30 1138 H 115.065 0.447674 -3.69901 0
M  V30 1139 H 115.178 -1.18327 -4.64258 0
M  V30 1140 H 113.542 -0.534834 -2.49021 0
M  V30 1141 H 114.325 -2.19992 -2.6355 0
M  V30 1142 N 116.77 1.45427 -0.607355 0
M  V30 1143 C 118.019 2.01452 -0.100036 0
M  V30 1144 C 118.332 1.48159 1.27704 0
M  V30 1145 O 119.538 1.96159 1.87707 0
M  V30 1146 C 117.994 3.59672 -0.128158 0
M  V30 1147 C 117.602 4.21962 -1.50507 0
M  V30 1148 C 119.346 4.23262 0.323932 0
M  V30 1149 C 117.253 5.72333 -1.48959 0
M  V30 1150 H 116.183 0.75325 -0.0336299 0
M  V30 1151 H 118.834 1.66901 -0.76265 0
M  V30 1152 H 117.216 3.91411 0.601105 0
M  V30 1153 H 118.39 4.01796 -2.25602 0
M  V30 1154 H 116.705 3.70565 -1.89923 0
M  V30 1155 H 119.302 5.33522 0.354691 0
M  V30 1156 H 119.645 3.93921 1.34656 0
M  V30 1157 H 120.178 3.96239 -0.352056 0
M  V30 1158 H 116.917 6.06373 -2.48981 0
M  V30 1159 H 116.437 5.94691 -0.781214 0
M  V30 1160 H 118.116 6.35525 -1.21313 0
M  V30 1161 N 118.248 0.346503 1.53744 0
M  V30 1162 C 119.497 -0.250122 2.00143 0
M  V30 1163 C 119.81 -1.51418 1.23822 0
M  V30 1164 O 121.016 -2.18823 1.60713 0
M  V30 1165 C 119.472 -0.496252 3.56462 0
M  V30 1166 C 119.08 0.752077 4.41642 0
M  V30 1167 C 120.824 -1.05157 4.11269 0
M  V30 1168 C 118.731 0.476583 5.89477 0
M  V30 1169 H 117.661 -0.0972409 0.747703 0
M  V30 1170 H 120.312 0.46229 1.77581 0
M  V30 1171 H 118.694 -1.26944 3.75102 0
M  V30 1172 H 119.868 1.5266 4.34778 0
M  V30 1173 H 118.183 1.22925 3.97842 0
M  V30 1174 H 120.78 -1.27269 5.19333 0
M  V30 1175 H 121.123 -2.00799 3.64672 0
M  V30 1176 H 121.656 -0.339019 3.96353 0
M  V30 1177 H 118.395 1.4028 6.40314 0
M  V30 1178 H 117.915 -0.259794 5.99237 0
M  V30 1179 H 119.594 0.0949315 6.4693 0
M  V30 1180 N 119.726 -1.57421 0.075193 0
M  V30 1181 C 120.689 -2.11791 -0.876203 0
M  V30 1182 C 121.689 -1.04268 -1.22412 0
M  V30 1183 O 122.879 -1.30242 -1.15684 0
M  V30 1184 C 120.011 -2.62207 -2.17854 0
M  V30 1185 H 121.204 -2.9716 -0.40444 0
M  V30 1186 H 118.757 -1.55333 -0.173557 0
M  V30 1187 H 119.492 -1.803 -2.6956 0
M  V30 1188 H 119.277 -3.40802 -1.93897 0
M  V30 1189 H 120.767 -3.04335 -2.85955 0
M  V30 1190 N 121.204 0.198386 -1.56346 0
M  V30 1191 C 122.429 0.939682 -1.84891 0
M  V30 1192 C 122.854 1.76202 -0.658369 0
M  V30 1193 O 122.212 1.76993 0.392851 0
M  V30 1194 C 122.26 1.81428 -3.11635 0
M  V30 1195 O 121.364 2.91265 -2.91956 0
M  V30 1196 H 120.705 0.264807 -0.608912 0
M  V30 1197 H 123.235 0.204695 -2.03573 0
M  V30 1198 H 123.245 2.21958 -3.42343 0
M  V30 1199 H 121.92 1.21004 -3.97908 0
M  V30 1200 H 120.497 2.54514 -2.72538 0
M  V30 1201 N 122.682 1.50554 0.465978 0
M  V30 1202 C 123.922 1.63439 1.22747 0
M  V30 1203 C 124.286 0.329822 1.89146 0
M  V30 1204 O 125.487 0.334161 2.66715 0
M  V30 1205 C 123.758 2.78542 2.2394 0
M  V30 1206 S 125.317 3.11591 3.0896 0
M  V30 1207 H 122.135 0.576113 0.416672 0
M  V30 1208 H 124.737 1.88357 0.523641 0
M  V30 1209 H 123.441 3.71805 1.7375 0
M  V30 1210 H 122.972 2.55726 2.98944 0
M  V30 1211 H 124.987 2.55811 4.25176 0
M  V30 1212 N 124.16 -0.719506 1.40217 0
M  V30 1213 C 125.388 -1.50864 1.41589 0
M  V30 1214 C 125.803 -1.88794 0.0145275 0
M  V30 1215 O 125.16 -1.55174 -0.960594 0
M  V30 1216 C 125.211 -2.78646 2.30302 0
M  V30 1217 O 124.932 -2.42321 3.64983 0
M  V30 1218 C 126.433 -3.72569 2.40224 0
M  V30 1219 H 123.653 -0.465709 0.48307 0
M  V30 1220 H 126.197 -0.88785 1.84221 0
M  V30 1221 H 124.352 -3.37019 1.91042 0
M  V30 1222 H 124.766 -3.24514 4.12057 0
M  V30 1223 H 126.24 -4.5908 3.06512 0
M  V30 1224 H 126.717 -4.15403 1.42608 0
M  V30 1225 H 127.323 -3.20109 2.80019 0
M  V30 1226 N 125.638 -1.25649 -0.95132 0
M  V30 1227 C 126.568 -1.08808 -2.06599 0
M  V30 1228 C 127.549 0.00382547 -1.701 0
M  V30 1229 O 128.734 -0.166325 -1.93486 0
M  V30 1230 C 125.864 -0.709542 -3.39975 0
M  V30 1231 C 124.818 -1.75206 -3.90496 0
M  V30 1232 C 124.144 -1.22811 -5.20405 0
M  V30 1233 C 125.444 -3.15153 -4.16504 0
M  V30 1234 H 127.138 -2.02048 -2.20946 0
M  V30 1235 H 124.684 -0.972835 -1.06169 0
M  V30 1236 H 126.637 -0.578649 -4.17408 0
M  V30 1237 H 125.361 0.258556 -3.25575 0
M  V30 1238 H 124.02 -1.87145 -3.15234 0
M  V30 1239 H 123.668 -0.250145 -5.02378 0
M  V30 1240 H 123.368 -1.92492 -5.55176 0
M  V30 1241 H 124.892 -1.10968 -6.00432 0
M  V30 1242 H 126.306 -3.06349 -4.84586 0
M  V30 1243 H 124.703 -3.82333 -4.62538 0
M  V30 1244 H 125.773 -3.61966 -3.22658 0
M  V30 1245 N 127.117 1.15442 -1.07289 0
M  V30 1246 C 128.047 2.22312 -0.714107 0
M  V30 1247 C 129.028 1.67467 0.298155 0
M  V30 1248 O 130.213 1.93445 0.171048 0
M  V30 1249 C 127.343 3.47124 -0.110448 0
M  V30 1250 C 126.297 4.14926 -1.04979 0
M  V30 1251 C 125.623 5.33807 -0.308924 0
M  V30 1252 C 126.923 4.64762 -2.38314 0
M  V30 1253 H 128.617 2.5258 -1.6076 0
M  V30 1254 H 126.163 1.21404 -0.77441 0
M  V30 1255 H 128.116 4.21124 0.152482 0
M  V30 1256 H 126.84 3.16187 0.81812 0
M  V30 1257 H 125.499 3.42866 -1.29764 0
M  V30 1258 H 125.147 4.99126 0.623084 0
M  V30 1259 H 124.847 5.80113 -0.935036 0
M  V30 1260 H 126.371 6.10576 -0.0537771 0
M  V30 1261 H 127.785 5.30292 -2.1786 0
M  V30 1262 H 126.182 5.21728 -2.96514 0
M  V30 1263 H 127.252 3.80434 -3.00663 0
M  V30 1264 N 128.595 0.856903 1.32268 0
M  V30 1265 C 129.843 0.460474 1.96784 0
M  V30 1266 C 130.164 -0.987701 1.68135 0
M  V30 1267 O 129.434 -1.69058 0.989765 0
M  V30 1268 H 128.014 0.167289 0.728027 0
M  V30 1269 H 130.676 1.09383 1.61312 0
M  V30 1270 H 129.772 0.60739 3.06133 0
M  V30 1271 N 130.073 -1.45103 0.615059 0
M  V30 1272 C 131.003 -2.33339 -0.0865619 0
M  V30 1273 C 131.984 -1.4727 -0.851209 0
M  V30 1274 O 133.169 -1.76026 -0.820281 0
M  V30 1275 C 130.299 -3.30095 -1.07956 0
M  V30 1276 C 129.253 -4.25858 -0.427628 0
M  V30 1277 C 128.579 -5.12361 -1.5294 0
M  V30 1278 C 129.879 -5.18165 0.655944 0
M  V30 1279 H 131.573 -2.92254 0.650224 0
M  V30 1280 H 129.119 -1.40532 0.314138 0
M  V30 1281 H 131.072 -3.90698 -1.57901 0
M  V30 1282 H 129.796 -2.69355 -1.84703 0
M  V30 1283 H 128.455 -3.66564 0.0510292 0
M  V30 1284 H 128.103 -4.47984 -2.28734 0
M  V30 1285 H 127.803 -5.77238 -1.09865 0
M  V30 1286 H 129.327 -5.75833 -2.03098 0
M  V30 1287 H 130.741 -5.72796 0.240257 0
M  V30 1288 H 129.138 -5.91559 1.00888 0
M  V30 1289 H 130.208 -4.60144 1.52957 0
M  V30 1290 N 131.551 -0.354651 -1.53558 0
M  V30 1291 C 132.781 0.239167 -2.05211 0
M  V30 1292 C 133.189 1.43879 -1.22863 0
M  V30 1293 O 132.532 1.81857 -0.259565 0
M  V30 1294 C 132.594 0.707251 -3.52474 0
M  V30 1295 C 132.258 -0.374212 -4.55465 0
M  V30 1296 C 133.255 -1.22054 -5.0537 0
M  V30 1297 C 130.94 -0.531323 -4.99482 0
M  V30 1298 C 132.934 -2.20942 -5.97882 0
M  V30 1299 C 130.621 -1.52358 -5.91802 0
M  V30 1300 C 131.619 -2.36108 -6.40892 0
M  V30 1301 O 131.307 -3.33643 -7.31394 0
M  V30 1302 H 131.039 0.0479716 -0.674296 0
M  V30 1303 H 133.593 -0.508121 -1.99016 0
M  V30 1304 H 131.823 1.50596 -3.56171 0
M  V30 1305 H 133.512 1.22285 -3.87042 0
M  V30 1306 H 134.278 -1.1103 -4.7212 0
M  V30 1307 H 130.157 0.110738 -4.60867 0
M  V30 1308 H 133.701 -2.86348 -6.36121 0
M  V30 1309 H 129.598 -1.63434 -6.24467 0
M  V30 1310 H 130.366 -3.29244 -7.4936 0
M  V30 1311 N 133.029 1.57378 -0.0835403 0
M  V30 1312 C 133.959 2.1641 0.87686 0
M  V30 1313 C 134.94 1.09429 1.30228 0
M  V30 1314 O 136.125 1.37516 1.37124 0
M  V30 1315 C 133.255 2.73517 2.14022 0
M  V30 1316 C 132.209 3.85769 1.85381 0
M  V30 1317 C 131.535 4.29529 3.18448 0
M  V30 1318 C 132.835 5.09486 1.14984 0
M  V30 1319 H 134.529 2.96914 0.385059 0
M  V30 1320 H 132.075 1.42823 0.18377 0
M  V30 1321 H 134.028 3.13463 2.81636 0
M  V30 1322 H 132.752 1.90252 2.65465 0
M  V30 1323 H 131.411 3.46345 1.20169 0
M  V30 1324 H 131.059 3.43169 3.67755 0
M  V30 1325 H 130.759 5.05204 3.00071 0
M  V30 1326 H 132.283 4.72099 3.8724 0
M  V30 1327 H 133.697 5.46674 1.72687 0
M  V30 1328 H 132.094 5.90515 1.06826 0
M  V30 1329 H 133.164 4.84724 0.130749 0
M  V30 1330 N 134.507 -0.190092 1.56449 0
M  V30 1331 C 135.754 -0.909705 1.80916 0
M  V30 1332 C 136.082 -1.83047 0.657583 0
M  V30 1333 O 135.337 -1.92428 -0.356356 0
M  V30 1334 C 135.636 -1.75382 3.1141 0
M  V30 1335 C 135.302 -0.983606 4.40041 0
M  V30 1336 C 133.964 -0.770967 4.74984 0
M  V30 1337 C 136.316 -0.442024 5.19322 0
M  V30 1338 C 133.644 -0.0053448 5.867 0
M  V30 1339 C 135.996 0.310412 6.31838 0
M  V30 1340 C 134.66 0.534023 6.6536 0
M  V30 1341 H 133.93 -0.332885 0.662019 0
M  V30 1342 H 136.577 -0.175762 1.90692 0
M  V30 1343 H 134.882 -2.55659 2.96893 0
M  V30 1344 H 136.579 -2.31331 3.27547 0
M  V30 1345 H 133.169 -1.15936 4.12622 0
M  V30 1346 H 137.353 -0.593693 4.92736 0
M  V30 1347 H 132.609 0.177825 6.11141 0
M  V30 1348 H 136.783 0.737419 6.92485 0
M  V30 1349 H 134.41 1.12918 7.51767 0
M  V30 1350 N 135.985 -1.50799 -0.457987 0
M  V30 1351 C 137.232 -1.62442 -1.20908 0
M  V30 1352 C 137.56 -0.330865 -1.91665 0
M  V30 1353 O 136.815 0.68401 -1.83357 0
M  V30 1354 C 137.114 -2.76358 -2.2663 0
M  V30 1355 C 136.78 -4.16378 -1.73033 0
M  V30 1356 C 135.442 -4.54473 -1.58138 0
M  V30 1357 C 137.794 -5.03836 -1.33413 0
M  V30 1358 C 135.122 -5.77754 -1.02065 0
M  V30 1359 C 137.474 -6.27676 -0.78778 0
M  V30 1360 C 136.138 -6.64562 -0.625561 0
M  V30 1361 H 135.408 -0.594417 -0.442435 0
M  V30 1362 H 138.055 -1.84772 -0.503136 0
M  V30 1363 H 136.36 -2.48167 -3.03184 0
M  V30 1364 H 138.057 -2.82568 -2.84528 0
M  V30 1365 H 134.647 -3.86331 -1.85598 0
M  V30 1366 H 138.831 -4.75026 -1.4375 0
M  V30 1367 H 134.087 -6.04997 -0.882547 0
M  V30 1368 H 138.261 -6.94797 -0.472177 0
M  V30 1369 H 135.888 -7.59965 -0.188926 0
M  V30 1370 N 137.463 0.71206 -1.40597 0
M  V30 1371 C 138.41 1.82613 -1.41142 0
M  V30 1372 C 139.38 1.63925 -0.267903 0
M  V30 1373 O 140.565 1.85009 -0.466495 0
M  V30 1374 C 137.705 3.20354 -1.28324 0
M  V30 1375 C 136.818 3.50589 -2.52411 0
M  V30 1376 C 135.953 4.77855 -2.32009 0
M  V30 1377 C 134.992 5.01005 -3.51654 0
M  V30 1378 N 134.129 6.19487 -3.30425 0
M  V30 1379 H 138.969 1.81482 -2.36365 0
M  V30 1380 H 136.506 0.886475 -1.17388 0
M  V30 1381 H 138.464 3.99899 -1.18899 0
M  V30 1382 H 137.094 3.20705 -0.367189 0
M  V30 1383 H 136.146 2.65573 -2.72351 0
M  V30 1384 H 137.458 3.63604 -3.41458 0
M  V30 1385 H 136.612 5.65424 -2.19956 0
M  V30 1386 H 135.351 4.67056 -1.40392 0
M  V30 1387 H 134.356 4.1189 -3.64179 0
M  V30 1388 H 135.581 5.13674 -4.44202 0
M  V30 1389 H 133.527 6.09932 -2.41494 0
M  V30 1390 H 133.444 6.33194 -4.13039 0
M  V30 1391 H 134.712 7.09834 -3.22113 0
M  V30 1392 N 138.941 1.26152 0.944643 0
M  V30 1393 C 140.19 1.10883 1.68487 0
M  V30 1394 C 140.503 -0.348153 1.92477 0
M  V30 1395 O 141.709 -0.621459 2.64292 0
M  V30 1396 C 140.165 1.93624 3.03377 0
M  V30 1397 C 139.773 3.43875 2.87148 0
M  V30 1398 C 141.517 1.86954 3.81115 0
M  V30 1399 C 139.424 4.18875 4.1749 0
M  V30 1400 H 138.354 0.41135 0.631907 0
M  V30 1401 H 141.005 1.50433 1.05082 0
M  V30 1402 H 139.387 1.46904 3.67743 0
M  V30 1403 H 140.561 3.98338 2.31653 0
M  V30 1404 H 138.876 3.51744 2.22856 0
M  V30 1405 H 141.473 2.40275 4.77673 0
M  V30 1406 H 141.816 0.839518 4.07747 0
M  V30 1407 H 142.349 2.31477 3.23517 0
M  V30 1408 H 139.088 5.22332 3.96043 0
M  V30 1409 H 138.608 3.69193 4.72712 0
M  V30 1410 H 140.287 4.27134 4.85968 0
M  V30 1411 N 140.419 -1.14872 1.07899 0
M  V30 1412 C 141.666 -1.85789 0.805532 0
M  V30 1413 C 141.994 -1.82649 -0.668561 0
M  V30 1414 O 141.249 -1.24858 -1.50695 0
M  V30 1415 C 141.548 -3.34223 1.26609 0
M  V30 1416 C 141.214 -3.57555 2.74709 0
M  V30 1417 C 139.876 -3.63631 3.1516 0
M  V30 1418 C 142.228 -3.66803 3.70277 0
M  V30 1419 C 139.556 -3.76473 4.49983 0
M  V30 1420 C 141.908 -3.8117 5.04869 0
M  V30 1421 C 140.572 -3.85494 5.44932 0
M  V30 1422 H 139.842 -0.679849 0.294765 0
M  V30 1423 H 142.489 -1.3572 1.35101 0
M  V30 1424 H 140.794 -3.86536 0.640103 0
M  V30 1425 H 142.491 -3.87511 1.03132 0
M  V30 1426 H 139.081 -3.5347 2.42398 0
M  V30 1427 H 143.265 -3.61404 3.40149 0
M  V30 1428 H 138.521 -3.7808 4.80484 0
M  V30 1429 H 142.695 -3.87268 5.78789 0
M  V30 1430 H 140.322 -3.95197 6.49403 0
M  V30 1431 N 141.898 -0.863906 -1.31812 0
M  V30 1432 C 143.123 -0.48527 -2.01643 0
M  V30 1433 C 143.548 0.913058 -1.64453 0
M  V30 1434 O 142.906 1.6014 -0.849985 0
M  V30 1435 C 142.954 -0.642625 -3.54828 0
M  V30 1436 O 142.058 0.320659 -4.11151 0
M  V30 1437 H 141.399 -0.193793 -0.635091 0
M  V30 1438 H 143.929 -1.16565 -1.68148 0
M  V30 1439 H 143.939 -0.533628 -4.04495 0
M  V30 1440 H 142.614 -1.66227 -3.81237 0
M  V30 1441 H 141.191 0.167126 -3.72525 0
M  V30 1442 N 143.376 1.44774 -0.622745 0
M  V30 1443 C 144.308 2.28856 0.125485 0
M  V30 1444 C 145.321 1.40811 0.817069 0
M  V30 1445 O 146.51 1.65044 0.679918 0
M  V30 1446 C 143.61 3.16963 1.19949 0
M  V30 1447 C 142.783 4.33374 0.592064 0
M  V30 1448 C 141.842 5.02577 1.55893 0
M  V30 1449 O 140.868 5.58873 1.07933 0
M  V30 1450 N 142.07 5.03256 2.89334 0
M  V30 1451 H 144.835 2.93713 -0.596068 0
M  V30 1452 H 142.396 1.55129 -0.463303 0
M  V30 1453 H 144.388 3.60123 1.84644 0
M  V30 1454 H 142.958 2.53913 1.82337 0
M  V30 1455 H 142.178 3.93509 -0.233322 0
M  V30 1456 H 143.466 5.08527 0.166738 0
M  V30 1457 H 142.864 4.58836 3.30887 0
M  V30 1458 H 141.421 5.50232 3.49412 0
M  V30 1459 N 144.854 0.36279 1.53368 0
M  V30 1460 C 145.764 -0.492994 2.29362 0
M  V30 1461 C 146.78 -1.09507 1.35219 0
M  V30 1462 O 147.956 -1.10662 1.68273 0
M  V30 1463 C 145.021 -1.61855 3.066 0
M  V30 1464 C 144.082 -1.04429 4.16405 0
M  V30 1465 C 143.315 -2.11621 4.89951 0
M  V30 1466 O 143.538 -3.32684 4.63333 0
M  V30 1467 O 142.472 -1.74835 5.75948 0
M  V30 1468 H 146.298 0.125331 3.03441 0
M  V30 1469 H 143.883 0.127253 1.48857 0
M  V30 1470 H 145.765 -2.27302 3.54841 0
M  V30 1471 H 144.44 -2.22233 2.3536 0
M  V30 1472 H 143.347 -0.353819 3.72423 0
M  V30 1473 H 144.68 -0.485113 4.89804 0
M  V30 1474 N 146.332 -1.57332 0.0918853 0
M  V30 1475 C 147.562 -1.98286 -0.580205 0
M  V30 1476 C 147.97 -0.969713 -1.6246 0
M  V30 1477 O 147.313 0.0493501 -1.83634 0
M  V30 1478 C 147.375 -3.35603 -1.28882 0
M  V30 1479 C 147.039 -4.55285 -0.395559 0
M  V30 1480 C 148.036 -5.18687 0.355002 0
M  V30 1481 C 145.721 -5.01314 -0.314556 0
M  V30 1482 C 147.715 -6.26484 1.17458 0
M  V30 1483 C 145.402 -6.08979 0.508677 0
M  V30 1484 C 146.4 -6.71429 1.2519 0
M  V30 1485 O 146.088 -7.77018 2.06151 0
M  V30 1486 H 145.82 -0.656678 -0.160466 0
M  V30 1487 H 148.374 -2.04721 0.16688 0
M  V30 1488 H 146.604 -3.25842 -2.08241 0
M  V30 1489 H 148.293 -3.61026 -1.85512 0
M  V30 1490 H 149.059 -4.84058 0.302134 0
M  V30 1491 H 144.938 -4.5247 -0.882697 0
M  V30 1492 H 148.482 -6.75159 1.75518 0
M  V30 1493 H 144.379 -6.4304 0.563037 0
M  V30 1494 H 145.147 -7.93991 1.98799 0
M  V30 1495 N 147.81 0.181792 -1.56548 0
M  V30 1496 C 149.059 0.898348 -1.8059 0
M  V30 1497 C 149.372 1.83862 -0.667379 0
M  V30 1498 O 150.578 2.59678 -0.792446 0
M  V30 1499 C 149.034 1.64791 -3.19956 0
M  V30 1500 C 148.642 0.751789 -4.41647 0
M  V30 1501 C 150.386 2.35331 -3.53298 0
M  V30 1502 C 148.293 1.50098 -5.72035 0
M  V30 1503 H 147.223 0.339194 -0.673397 0
M  V30 1504 H 149.874 0.151413 -1.82874 0
M  V30 1505 H 148.256 2.43921 -3.11959 0
M  V30 1506 H 149.43 -0.0018076 -4.608 0
M  V30 1507 H 147.745 0.156562 -4.16106 0
M  V30 1508 H 150.342 2.91958 -4.47956 0
M  V30 1509 H 150.685 3.10164 -2.77676 0
M  V30 1510 H 151.218 1.63154 -3.62803 0
M  V30 1511 H 147.957 0.795175 -6.50659 0
M  V30 1512 H 147.477 2.22817 -5.56878 0
M  V30 1513 H 149.156 2.05125 -6.13622 0
M  V30 1514 N 149.288 1.51039 0.449983 0
M  V30 1515 C 150.236 1.71995 1.5659 0
M  V30 1516 C 151.23 0.586029 1.5894 0
M  V30 1517 O 152.436 0.76709 1.62837 0
M  V30 1518 H 148.811 0.543233 0.520001 0
M  V30 1519 H 150.782 2.65562 1.36085 0
M  V30 1520 C 149.531 1.8506 2.9436 0
M  V30 1521 H 148.854 2.71712 2.93279 0
M  V30 1522 H 150.294 2.0374 3.71842 0
M  V30 1523 C 148.753 0.607277 3.31382 0
M  V30 1524 O 149.283 -0.243903 4.00959 0
M  V30 1525 N 147.489 0.455073 2.87015 0
M  V30 1526 H 147.036 1.14879 2.30566 0
M  V30 1527 H 146.994 -0.375611 3.12148 0
M  V30 1528 N 150.766 -0.704594 1.40972 0
M  V30 1529 C 151.696 -1.83124 1.44872 0
M  V30 1530 C 152.677 -1.67281 0.30838 0
M  V30 1531 O 153.862 -1.87149 0.518556 0
M  V30 1532 C 150.992 -3.21181 1.32136 0
M  V30 1533 C 149.946 -3.51714 2.43888 0
M  V30 1534 C 149.272 -4.89032 2.16222 0
M  V30 1535 C 150.572 -3.516 3.86232 0
M  V30 1536 H 152.266 -1.80117 2.39161 0
M  V30 1537 H 149.812 -0.865145 1.15114 0
M  V30 1538 H 151.765 -3.99702 1.33479 0
M  V30 1539 H 150.489 -3.24791 0.343279 0
M  V30 1540 H 149.148 -2.75539 2.41813 0
M  V30 1541 H 148.796 -4.89256 1.16778 0
M  V30 1542 H 148.496 -5.10426 2.911 0
M  V30 1543 H 150.02 -5.69873 2.19265 0
M  V30 1544 H 151.434 -4.2014 3.9007 0
M  V30 1545 H 149.831 -3.84523 4.60719 0
M  V30 1546 H 150.901 -2.50757 4.15029 0
M  V30 1547 N 152.244 -1.26651 -0.937939 0
M  V30 1548 C 153.174 -1.10993 -2.05433 0
M  V30 1549 C 154.155 -0.0142161 -1.70094 0
M  V30 1550 O 155.34 -0.186837 -1.93299 0
M  V30 1551 C 152.47 -0.745561 -3.39203 0
M  V30 1552 C 151.424 -1.79337 -3.88616 0
M  V30 1553 C 150.75 -1.28324 -5.19073 0
M  V30 1554 C 152.05 -3.19553 -4.13138 0
M  V30 1555 H 153.744 -2.0438 -2.1879 0
M  V30 1556 H 151.29 -0.984041 -1.05131 0
M  V30 1557 H 153.243 -0.622888 -4.16771 0
M  V30 1558 H 151.967 0.22401 -3.25831 0
M  V30 1559 H 150.626 -1.90477 -3.13231 0
M  V30 1560 H 150.274 -0.303414 -5.02084 0
M  V30 1561 H 149.974 -1.98369 -5.53103 0
M  V30 1562 H 151.498 -1.1733 -5.99221 0
M  V30 1563 H 152.912 -3.11471 -4.81309 0
M  V30 1564 H 151.309 -3.87218 -4.58457 0
M  V30 1565 H 152.379 -3.65368 -3.18801 0
M  V30 1566 N 153.722 1.14298 -1.08507 0
M  V30 1567 C 154.652 2.21542 -0.737646 0
M  V30 1568 C 155.633 1.67773 0.280377 0
M  V30 1569 O 156.818 1.93616 0.150521 0
M  V30 1570 C 153.948 3.46988 -0.147259 0
M  V30 1571 C 152.902 4.13789 -1.09374 0
M  V30 1572 C 152.228 5.33449 -0.365524 0
M  V30 1573 C 153.528 4.62208 -2.4323 0
M  V30 1574 H 155.222 2.5086 -1.6343 0
M  V30 1575 H 152.768 1.20576 -0.787243 0
M  V30 1576 H 154.721 4.21262 0.107808 0
M  V30 1577 H 153.445 3.17037 0.784538 0
M  V30 1578 H 152.104 3.4147 -1.33393 0
M  V30 1579 H 151.752 4.99759 0.57011 0
M  V30 1580 H 151.452 5.79088 -0.996512 0
M  V30 1581 H 152.976 6.10485 -0.118534 0
M  V30 1582 H 154.39 5.27952 -2.23472 0
M  V30 1583 H 152.787 5.18553 -3.02031 0
M  V30 1584 H 153.857 3.77224 -3.04681 0
M  V30 1585 N 155.201 0.870884 1.31352 0
M  V30 1586 C 156.426 0.495957 2.01383 0
M  V30 1587 C 156.851 -0.904324 1.64935 0
M  V30 1588 O 156.209 -1.59687 0.858466 0
M  V30 1589 C 156.257 0.661433 3.54482 0
M  V30 1590 O 155.361 -0.298851 4.11316 0
M  V30 1591 H 154.702 0.197158 0.634054 0
M  V30 1592 H 157.232 1.17455 1.67527 0
M  V30 1593 H 157.242 0.555072 4.04207 0
M  V30 1594 H 155.917 1.68246 3.8035 0
M  V30 1595 H 154.494 -0.147368 3.72609 0
M  V30 1596 N 156.679 -1.44442 0.630414 0
M  V30 1597 C 157.612 -2.27862 -0.124247 0
M  V30 1598 C 158.59 -1.38495 -0.851931 0
M  V30 1599 O 159.774 -1.67935 -0.856166 0
M  V30 1600 C 156.901 -3.17407 -1.18197 0
M  V30 1601 C 155.947 -4.22875 -0.554892 0
M  V30 1602 S 156.78 -5.31485 0.654489 0
M  V30 1603 C 157.936 -6.246 -0.40326 0
M  V30 1604 H 158.169 -2.91519 0.583435 0
M  V30 1605 H 155.702 -1.48618 0.418565 0
M  V30 1606 H 157.66 -3.69549 -1.78728 0
M  V30 1607 H 156.321 -2.52971 -1.86184 0
M  V30 1608 H 155.514 -4.85542 -1.35148 0
M  V30 1609 H 155.116 -3.73992 -0.0242105 0
M  V30 1610 H 157.408 -6.65375 -1.27602 0
M  V30 1611 H 158.351 -7.07851 0.187813 0
M  V30 1612 H 158.759 -5.59775 -0.728837 0
M  V30 1613 N 158.157 -0.370918 -1.53173 0
M  V30 1614 C 159.387 0.217389 -2.05453 0
M  V30 1615 C 159.795 1.42568 -1.24382 0
M  V30 1616 O 159.138 1.81571 -0.278839 0
M  V30 1617 C 159.2 0.669827 -3.53205 0
M  V30 1618 C 158.864 -0.4225 -4.55043 0
M  V30 1619 C 159.861 -1.27407 -5.04047 0
M  V30 1620 C 157.546 -0.58427 -4.9889 0
M  V30 1621 C 159.54 -2.27271 -5.95505 0
M  V30 1622 C 157.227 -1.58627 -5.90153 0
M  V30 1623 C 158.225 -2.42892 -6.38351 0
M  V30 1624 O 157.913 -3.41382 -7.27814 0
M  V30 1625 H 157.645 0.0408171 -0.674767 0
M  V30 1626 H 160.199 -0.5292 -1.98466 0
M  V30 1627 H 158.429 1.4681 -3.57748 0
M  V30 1628 H 160.118 1.18173 -3.88317 0
M  V30 1629 H 160.884 -1.16031 -4.70916 0
M  V30 1630 H 156.763 0.061851 -4.60959 0
M  V30 1631 H 160.307 -2.93079 -6.33049 0
M  V30 1632 H 156.204 -1.70048 -6.22699 0
M  V30 1633 H 156.972 -3.37173 -7.45826 0
M  V30 1634 N 159.635 1.57281 -0.100228 0
M  V30 1635 C 160.882 1.94537 0.562268 0
M  V30 1636 C 161.21 0.982315 1.67871 0
M  V30 1637 O 160.465 0.00280936 1.957 0
M  V30 1638 C 160.764 3.38305 1.15259 0
M  V30 1639 C 160.43 4.50618 0.159409 0
M  V30 1640 C 159.092 4.81066 -0.113741 0
M  V30 1641 C 161.444 5.18615 -0.518461 0
M  V30 1642 C 158.772 5.76835 -1.07137 0
M  V30 1643 C 161.124 6.15412 -1.46459 0
M  V30 1644 C 159.788 6.44262 -1.74592 0
M  V30 1645 H 159.058 0.711863 0.205748 0
M  V30 1646 H 161.705 1.90679 -0.17715 0
M  V30 1647 H 160.01 3.38766 1.96836 0
M  V30 1648 H 161.707 3.64435 1.67297 0
M  V30 1649 H 158.297 4.2689 0.382491 0
M  V30 1650 H 162.481 4.95264 -0.320581 0
M  V30 1651 H 157.737 5.975 -1.29628 0
M  V30 1652 H 161.911 6.67194 -1.99564 0
M  V30 1653 H 159.538 7.1828 -2.48953 0
M  V30 1654 N 161.113 -0.173488 1.56642 0
M  V30 1655 C 162.36 -0.890465 1.81871 0
M  V30 1656 C 162.688 -1.82339 0.67696 0
M  V30 1657 O 161.943 -1.92795 -0.335926 0
M  V30 1658 C 162.242 -1.72069 3.13252 0
M  V30 1659 C 161.908 -0.936878 4.41059 0
M  V30 1660 C 160.57 -0.720545 4.75775 0
M  V30 1661 C 162.922 -0.386919 5.19762 0
M  V30 1662 C 160.25 0.0568829 5.86672 0
M  V30 1663 C 162.602 0.37741 6.31473 0
M  V30 1664 C 161.266 0.604563 6.64757 0
M  V30 1665 H 160.536 -0.325844 0.665512 0
M  V30 1666 H 163.183 -0.155527 1.90867 0
M  V30 1667 H 161.488 -2.52496 2.99588 0
M  V30 1668 H 163.185 -2.27844 3.29982 0
M  V30 1669 H 159.775 -1.11553 4.13828 0
M  V30 1670 H 163.959 -0.541398 4.93338 0
M  V30 1671 H 159.215 0.242635 6.10918 0
M  V30 1672 H 163.389 0.810825 6.91664 0
M  V30 1673 H 161.016 1.20885 7.50527 0
M  V30 1674 N 162.591 -1.51276 -0.441967 0
M  V30 1675 C 163.837 -1.63958 -1.19355 0
M  V30 1676 C 164.17 -0.352543 -1.90973 0
M  V30 1677 O 163.445 0.647627 -1.83401 0
M  V30 1678 C 163.728 -2.83979 -2.21422 0
M  V30 1679 C 163.581 -4.22646 -1.53918 0
M  V30 1680 C 164.9 -2.99521 -3.22451 0
M  V30 1681 H 162.019 -0.596709 -0.432559 0
M  V30 1682 H 164.661 -1.83748 -0.483398 0
M  V30 1683 H 162.811 -2.67237 -2.81987 0
M  V30 1684 H 164.483 -4.51045 -0.967256 0
M  V30 1685 H 162.726 -4.25558 -0.841615 0
M  V30 1686 H 163.397 -5.02609 -2.28229 0
M  V30 1687 H 165.873 -3.14944 -2.71937 0
M  V30 1688 H 164.749 -3.85072 -3.91166 0
M  V30 1689 H 165.01 -2.11391 -3.88287 0
M  V30 1690 N 164.069 0.697108 -1.41344 0
M  V30 1691 C 164.999 1.82353 -1.45841 0
M  V30 1692 C 165.98 1.67115 -0.317247 0
M  V30 1693 O 167.165 1.86871 -0.528474 0
M  V30 1694 C 164.295 3.20476 -1.33838 0
M  V30 1695 C 163.249 3.50415 -2.4575 0
M  V30 1696 C 162.575 4.87878 -2.18813 0
M  V30 1697 C 163.875 3.49546 -3.88091 0
M  V30 1698 H 165.569 1.78846 -2.40113 0
M  V30 1699 H 163.115 0.859028 -1.15571 0
M  V30 1700 H 165.068 3.98988 -1.35596 0
M  V30 1701 H 163.792 3.24604 -0.360498 0
M  V30 1702 H 162.451 2.74253 -2.43271 0
M  V30 1703 H 162.099 4.8863 -1.19371 0
M  V30 1704 H 161.799 5.08875 -2.93803 0
M  V30 1705 H 163.323 5.68702 -2.22284 0
M  V30 1706 H 164.737 4.18066 -3.92293 0
M  V30 1707 H 163.134 3.82075 -4.62751 0
M  V30 1708 H 164.204 2.48552 -4.16353 0
M  V30 1709 N 165.547 1.27147 0.931209 0
M  V30 1710 C 166.795 1.13055 1.6752 0
M  V30 1711 C 167.116 -0.324791 1.92276 0
M  V30 1712 O 166.386 -1.22775 1.52654 0
M  V30 1713 H 164.966 0.415391 0.620854 0
M  V30 1714 H 167.628 1.59623 1.11833 0
M  V30 1715 H 166.724 1.65694 2.64485 0
M  V30 1716 N 167.025 -1.13721 1.09112 0
M  V30 1717 C 168.274 -1.84275 0.82009 0
M  V30 1718 C 168.587 -1.84253 -0.656509 0
M  V30 1719 O 169.793 -2.50668 -1.04296 0
M  V30 1720 C 168.249 -3.30825 1.41714 0
M  V30 1721 C 167.857 -3.39244 2.92605 0
M  V30 1722 C 169.601 -4.06443 1.22492 0
M  V30 1723 C 167.508 -4.80047 3.45411 0
M  V30 1724 H 166.438 -0.690387 0.30312 0
M  V30 1725 H 169.089 -1.28146 1.31343 0
M  V30 1726 H 167.471 -3.86737 0.851498 0
M  V30 1727 H 168.645 -2.93344 3.55367 0
M  V30 1728 H 166.96 -2.77088 3.10823 0
M  V30 1729 H 169.557 -5.10387 1.59402 0
M  V30 1730 H 169.9 -4.15972 0.165299 0
M  V30 1731 H 170.433 -3.56852 1.75788 0
M  V30 1732 H 167.172 -4.75709 4.50978 0
M  V30 1733 H 166.692 -5.26455 2.87411 0
M  V30 1734 H 168.371 -5.48957 3.42425 0
M  V30 1735 N 168.503 -0.877838 -1.30888 0
M  V30 1736 C 169.433 -0.35534 -2.3078 0
M  V30 1737 C 170.414 0.557994 -1.60687 0
M  V30 1738 O 171.599 0.473355 -1.88343 0
M  V30 1739 C 168.729 0.437221 -3.44537 0
M  V30 1740 C 167.683 -0.383715 -4.26276 0
M  V30 1741 C 167.009 0.535014 -5.32017 0
M  V30 1742 C 168.309 -1.62201 -4.96476 0
M  V30 1743 H 170.003 -1.19007 -2.74732 0
M  V30 1744 H 167.549 -0.573698 -1.32078 0
M  V30 1745 H 169.502 0.813334 -4.13477 0
M  V30 1746 H 168.226 1.30553 -2.99372 0
M  V30 1747 H 166.885 -0.741874 -3.59015 0
M  V30 1748 H 166.533 1.40083 -4.831 0
M  V30 1749 H 166.233 -0.0104211 -5.87599 0
M  V30 1750 H 167.757 0.907799 -6.03814 0
M  V30 1751 H 169.171 -1.31689 -5.5797 0
M  V30 1752 H 167.568 -2.10711 -5.61891 0
M  V30 1753 H 168.638 -2.37044 -4.23011 0
M  V30 1754 N 169.982 1.44106 -0.638065 0
M  V30 1755 C 170.945 2.29138 0.0531013 0
M  V30 1756 C 171.945 1.41409 0.765506 0
M  V30 1757 O 173.135 1.63206 0.609046 0
M  V30 1758 C 170.267 3.23144 1.08584 0
M  V30 1759 H 171.46 2.91739 -0.694883 0
M  V30 1760 H 169.013 1.51134 -0.398538 0
M  V30 1761 H 169.748 2.65408 1.86357 0
M  V30 1762 H 169.533 3.87804 0.578852 0
M  V30 1763 H 171.023 3.87004 1.56899 0
M  V30 1764 N 171.46 0.379036 1.52974 0
M  V30 1765 C 172.39 -0.452706 2.29069 0
M  V30 1766 C 173.371 -1.07237 1.32039 0
M  V30 1767 O 174.556 -1.08708 1.60923 0
M  V30 1768 C 171.686 -1.5856 3.08992 0
M  V30 1769 C 170.64 -1.0925 4.13822 0
M  V30 1770 C 169.966 -2.31668 4.81907 0
M  V30 1771 C 171.266 -0.167702 5.22031 0
M  V30 1772 H 172.96 0.182181 2.98845 0
M  V30 1773 H 170.506 0.0890592 1.43724 0
M  V30 1774 H 172.459 -2.1742 3.6098 0
M  V30 1775 H 171.183 -2.24792 2.36931 0
M  V30 1776 H 169.842 -0.526494 3.628 0
M  V30 1777 H 169.49 -2.96386 4.06404 0
M  V30 1778 H 169.19 -1.9934 5.52754 0
M  V30 1779 H 170.714 -2.91189 5.36695 0
M  V30 1780 H 172.128 -0.664186 5.6944 0
M  V30 1781 H 170.525 0.0653265 6.00064 0
M  V30 1782 H 171.595 0.786347 4.78482 0
M  V30 1783 N 172.938 -1.57226 0.108567 0
M  V30 1784 C 174.163 -1.99604 -0.563303 0
M  V30 1785 C 174.588 -0.987563 -1.6009 0
M  V30 1786 O 173.946 0.0421687 -1.81251 0
M  V30 1787 C 173.994 -3.40902 -1.17552 0
M  V30 1788 O 173.098 -3.42896 -2.2912 0
M  V30 1789 H 172.439 -0.648704 -0.1417 0
M  V30 1790 H 174.969 -2.03679 0.193961 0
M  V30 1791 H 174.979 -3.78886 -1.51357 0
M  V30 1792 H 173.654 -4.1382 -0.415445 0
M  V30 1793 H 172.231 -3.1672 -1.96832 0
M  V30 1794 N 174.416 0.165178 -1.56732 0
M  V30 1795 C 175.366 1.20917 -1.93295 0
M  V30 1796 C 176.35 1.39488 -0.801985 0
M  V30 1797 O 177.542 1.41356 -1.06525 0
M  V30 1798 C 174.671 2.54718 -2.3016 0
M  V30 1799 C 173.757 2.39815 -3.49785 0
M  V30 1800 N 174.148 1.94637 -4.66851 0
M  V30 1801 C 172.446 2.70623 -3.54513 0
M  V30 1802 C 173.147 1.92344 -5.4898 0
M  V30 1803 N 172.123 2.34978 -4.9019 0
M  V30 1804 H 175.925 0.851675 -2.81289 0
M  V30 1805 H 173.439 0.373399 -1.58049 0
M  V30 1806 H 175.436 3.30165 -2.54552 0
M  V30 1807 H 174.096 2.91265 -1.43508 0
M  V30 1808 H 175.107 1.6488 -4.90953 0
M  V30 1809 H 171.784 3.11167 -2.78354 0
M  V30 1810 H 173.174 1.5906 -6.52801 0
M  V30 1811 N 175.894 1.51508 0.433938 0
M  V30 1812 C 177.122 1.68157 1.20543 0
M  V30 1813 C 177.537 0.380362 1.84929 0
M  V30 1814 O 176.894 -0.641446 1.70856 0
M  V30 1815 C 176.945 2.79965 2.28696 0
M  V30 1816 O 176.666 4.05045 1.66943 0
M  V30 1817 C 178.167 3.07912 3.18912 0
M  V30 1818 H 175.387 0.56421 0.363191 0
M  V30 1819 H 177.931 1.97941 0.513754 0
M  V30 1820 H 176.086 2.5277 2.93574 0
M  V30 1821 H 176.5 4.67165 2.38448 0
M  V30 1822 H 177.974 3.89719 3.90926 0
M  V30 1823 H 178.451 2.20456 3.79863 0
M  V30 1824 H 179.057 3.36779 2.59731 0
M  V30 1825 N 177.372 -0.689602 1.41712 0
M  V30 1826 C 178.621 -1.44534 1.40686 0
M  V30 1827 C 178.934 -1.95588 0.0213352 0
M  V30 1828 O 180.14 -2.71271 -0.111534 0
M  V30 1829 C 178.596 -2.61387 2.47396 0
M  V30 1830 C 178.204 -2.17094 3.91885 0
M  V30 1831 C 179.948 -3.38986 2.55517 0
M  V30 1832 C 177.855 -3.3094 4.90135 0
M  V30 1833 H 176.785 -0.542925 0.52321 0
M  V30 1834 H 179.436 -0.748054 1.6756 0
M  V30 1835 H 177.818 -3.33412 2.13664 0
M  V30 1836 H 178.992 -1.52318 4.34897 0
M  V30 1837 H 177.307 -1.52473 3.8748 0
M  V30 1838 H 179.904 -4.23747 3.26102 0
M  V30 1839 H 180.247 -3.84578 1.59391 0
M  V30 1840 H 180.78 -2.74021 2.8837 0
M  V30 1841 H 177.519 -2.90355 5.87685 0
M  V30 1842 H 177.039 -3.94546 4.51767 0
M  V30 1843 H 178.718 -3.9663 5.11169 0
M  V30 1844 N 178.85 -1.27639 -0.924453 0
M  V30 1845 C 180.075 -1.17101 -1.71179 0
M  V30 1846 C 180.5 0.268134 -1.86179 0
M  V30 1847 O 179.858 1.19415 -1.36418 0
M  V30 1848 C 179.906 -1.86313 -3.08739 0
M  V30 1849 O 179.01 -1.16331 -3.95652 0
M  V30 1850 H 178.351 -0.407091 -0.524569 0
M  V30 1851 H 180.881 -1.68767 -1.15666 0
M  V30 1852 H 180.891 -1.938 -3.59034 0
M  V30 1853 H 179.566 -2.91001 -2.97138 0
M  V30 1854 H 178.143 -1.16935 -3.54091 0
M  V30 1855 N 180.328 1.1314 -1.09713 0
M  V30 1856 C 181.739 1.66029 -0.853885 0
M  V30 1857 C 182.09 1.86241 0.617142 0
M  V30 1858 O 181.215 1.5834 1.47503 0
M  V30 1859 C 181.81 3.01599 -1.5435 0
M  V30 1860 C 180.369 3.51467 -1.34714 0
M  V30 1861 C 179.516 2.26648 -1.59769 0
M  V30 1862 H 182.467 0.970226 -1.25588 0
M  V30 1863 H 182.488 3.67709 -0.978267 0
M  V30 1864 H 182 2.86856 -2.6141 0
M  V30 1865 H 180.101 3.71408 -0.297838 0
M  V30 1866 H 180.214 4.314 -2.08401 0
M  V30 1867 H 178.578 2.33385 -1.01998 0
M  V30 1868 H 179.361 2.14467 -2.68065 0
M  V30 1869 N 181.806 0.884767 1.30421 0
M  V30 1870 C 183.053 0.503105 1.96151 0
M  V30 1871 C 183.381 -0.947676 1.69851 0
M  V30 1872 O 182.636 -1.68467 0.995861 0
M  V30 1873 C 182.935 0.724318 3.49983 0
M  V30 1874 C 182.601 2.15015 3.96332 0
M  V30 1875 C 181.263 2.54005 4.08699 0
M  V30 1876 C 183.615 3.07936 4.20505 0
M  V30 1877 C 180.943 3.85128 4.42599 0
M  V30 1878 C 183.295 4.3859 4.55874 0
M  V30 1879 C 181.959 4.77474 4.66449 0
M  V30 1880 H 181.229 0.184099 0.717766 0
M  V30 1881 H 183.876 1.12058 1.55291 0
M  V30 1882 H 182.181 0.0238086 3.91793 0
M  V30 1883 H 183.878 0.408617 3.98913 0
M  V30 1884 H 180.468 1.8375 3.87213 0
M  V30 1885 H 184.652 2.79033 4.10431 0
M  V30 1886 H 179.908 4.14996 4.48986 0
M  V30 1887 H 184.082 5.10629 4.7353 0
M  V30 1888 H 181.709 5.79115 4.92473 0
M  V30 1889 N 183.284 -1.43765 0.645699 0
M  V30 1890 C 184.217 -2.2798 -0.100072 0
M  V30 1891 C 185.195 -1.39391 -0.837194 0
M  V30 1892 O 186.379 -1.68833 -0.838306 0
M  V30 1893 C 183.506 -3.18643 -1.14823 0
M  V30 1894 C 182.552 -4.2344 -0.510009 0
M  V30 1895 S 183.385 -5.30761 0.710824 0
M  V30 1896 C 184.541 -6.24992 -0.33699 0
M  V30 1897 H 184.774 -2.90884 0.614322 0
M  V30 1898 H 182.307 -1.48166 0.434304 0
M  V30 1899 H 184.265 -3.71424 -1.74799 0
M  V30 1900 H 182.926 -2.54932 -1.8349 0
M  V30 1901 H 182.119 -4.86948 -1.29991 0
M  V30 1902 H 181.721 -3.73997 0.0154577 0
M  V30 1903 H 184.013 -6.66691 -1.20537 0
M  V30 1904 H 184.956 -7.07612 0.262879 0
M  V30 1905 H 185.364 -5.60517 -0.669425 0
M  V30 1906 N 184.763 -0.387143 -1.52771 0
M  V30 1907 C 185.711 0.463953 -2.27926 0
M  V30 1908 C 186.705 1.06493 -1.31741 0
M  V30 1909 O 187.911 1.00565 -1.49287 0
M  V30 1910 H 184.286 0.16837 -0.732909 0
M  V30 1911 H 186.257 -0.19141 -2.97785 0
M  V30 1912 C 185.006 1.5803 -3.09713 0
M  V30 1913 H 184.329 1.12718 -3.83581 0
M  V30 1914 H 185.769 2.15008 -3.65442 0
M  V30 1915 C 184.228 2.53509 -2.2189 0
M  V30 1916 O 184.758 3.56863 -1.84422 0
M  V30 1917 N 182.964 2.23199 -1.86093 0
M  V30 1918 H 182.511 1.39185 -2.16761 0
M  V30 1919 H 182.469 2.87333 -1.27621 0
M  V30 1920 N 186.241 1.57166 -0.116904 0
M  V30 1921 C 187.188 2.15202 0.83408 0
M  V30 1922 C 188.158 1.07644 1.26499 0
M  V30 1923 O 189.343 1.35541 1.34288 0
M  V30 1924 C 186.483 2.75405 2.07957 0
M  V30 1925 C 185.596 3.97264 1.69721 0
M  V30 1926 C 184.731 4.45561 2.89221 0
M  V30 1927 C 183.77 5.59956 2.47215 0
M  V30 1928 N 182.907 6.03006 3.59622 0
M  V30 1929 H 187.747 2.96141 0.332335 0
M  V30 1930 H 185.284 1.46309 0.152349 0
M  V30 1931 H 187.242 3.08439 2.80929 0
M  V30 1932 H 185.872 1.97159 2.55594 0
M  V30 1933 H 184.924 3.70404 0.866316 0
M  V30 1934 H 186.236 4.80226 1.34849 0
M  V30 1935 H 185.39 4.80493 3.7042 0
M  V30 1936 H 184.129 3.61544 3.27318 0
M  V30 1937 H 183.134 5.2463 1.64448 0
M  V30 1938 H 184.359 6.45738 2.10238 0
M  V30 1939 H 182.305 5.21931 3.97396 0
M  V30 1940 H 182.222 6.80819 3.28667 0
M  V30 1941 H 183.49 6.42576 4.41267 0
M  V30 1942 N 187.719 -0.156864 1.56817 0
M  V30 1943 C 188.966 -0.871125 1.82805 0
M  V30 1944 C 189.294 -1.81611 0.696262 0
M  V30 1945 O 188.549 -1.93141 -0.315459 0
M  V30 1946 C 188.848 -1.68737 3.1506 0
M  V30 1947 C 188.514 -0.890045 4.42028 0
M  V30 1948 C 187.176 -0.670042 4.76512 0
M  V30 1949 C 189.528 -0.331769 5.20143 0
M  V30 1950 C 186.856 0.119104 5.86579 0
M  V30 1951 C 189.208 0.444365 6.31037 0
M  V30 1952 C 187.872 0.675035 6.64078 0
M  V30 1953 H 187.142 -0.318767 0.668931 0
M  V30 1954 H 189.789 -0.135274 1.91022 0
M  V30 1955 H 188.094 -2.49304 3.0225 0
M  V30 1956 H 189.791 -2.24331 3.3238 0
M  V30 1957 H 186.381 -1.07157 4.14988 0
M  V30 1958 H 190.565 -0.489043 4.93885 0
M  V30 1959 H 185.821 0.307417 6.10627 0
M  V30 1960 H 189.995 0.884139 6.90765 0
M  V30 1961 H 187.622 1.28839 7.49203 0
M  V30 1962 N 189.197 -1.51736 -0.425897 0
M  V30 1963 C 190.444 -1.6497 -1.17436 0
M  V30 1964 C 190.772 -0.371445 -1.9092 0
M  V30 1965 O 190.027 0.644963 -1.84767 0
M  V30 1966 C 190.326 -2.81103 -2.20717 0
M  V30 1967 C 189.992 -4.19954 -1.64162 0
M  V30 1968 C 188.654 -4.57725 -1.48462 0
M  V30 1969 C 191.006 -5.06552 -1.22696 0
M  V30 1970 C 188.334 -5.79789 -0.897873 0
M  V30 1971 C 190.686 -6.29205 -0.654464 0
M  V30 1972 C 189.35 -6.6574 -0.484456 0
M  V30 1973 H 188.62 -0.603668 -0.429727 0
M  V30 1974 H 191.267 -1.85798 -0.463829 0
M  V30 1975 H 189.572 -2.54542 -2.97852 0
M  V30 1976 H 191.269 -2.8854 -2.78471 0
M  V30 1977 H 187.859 -3.90181 -1.77361 0
M  V30 1978 H 192.043 -4.77968 -1.33642 0
M  V30 1979 H 187.299 -6.06733 -0.75402 0
M  V30 1980 H 191.473 -6.95643 -0.324694 0
M  V30 1981 H 189.1 -7.60195 -0.0276833 0
M  V30 1982 N 190.675 0.682077 -1.42076 0
M  V30 1983 C 192.086 1.26246 -1.37546 0
M  V30 1984 C 192.437 1.96092 -0.0651481 0
M  V30 1985 O 191.562 1.99587 0.836297 0
M  V30 1986 C 192.157 2.29594 -2.49143 0
M  V30 1987 C 190.716 2.83175 -2.47969 0
M  V30 1988 C 189.863 1.57395 -2.28303 0
M  V30 1989 H 192.814 0.475937 -1.51395 0
M  V30 1990 H 192.835 3.11175 -2.18976 0
M  V30 1991 H 192.347 1.78729 -3.44496 0
M  V30 1992 H 190.448 3.3818 -1.56413 0
M  V30 1993 H 190.561 3.32687 -3.44755 0
M  V30 1994 H 188.925 1.83699 -1.76428 0
M  V30 1995 H 189.708 1.08507 -3.25701 0
M  V30 1996 N 192.153 1.28127 0.917671 0
M  V30 1997 C 193.116 1.11744 2.00115 0
M  V30 1998 C 194.116 0.0583052 1.60694 0
M  V30 1999 O 195.306 0.303755 1.71531 0
M  V30 2000 C 192.438 0.704862 3.33533 0
M  V30 2001 H 193.631 2.07966 2.16079 0
M  V30 2002 H 191.184 1.11058 1.09981 0
M  V30 2003 H 191.919 -0.258299 3.2327 0
M  V30 2004 H 191.704 1.4699 3.63505 0
M  V30 2005 H 193.194 0.612768 4.1308 0
M  V30 2006 N 193.631 -1.12557 1.10312 0
M  V30 2007 C 194.856 -1.88405 0.867085 0
M  V30 2008 C 195.281 -1.79038 -0.576817 0
M  V30 2009 O 194.639 -1.14439 -1.40618 0
M  V30 2010 C 194.687 -3.3563 1.31851 0
M  V30 2011 O 193.791 -4.09565 0.482734 0
M  V30 2012 H 193.132 -0.585455 0.313271 0
M  V30 2013 H 195.662 -1.42352 1.4696 0
M  V30 2014 H 195.672 -3.86469 1.3079 0
M  V30 2015 H 194.347 -3.41765 2.37001 0
M  V30 2016 H 192.924 -3.68695 0.558448 0
M  V30 2017 N 195.109 -0.891671 -1.2995 0
M  V30 2018 C 196.356 -0.513501 -1.95881 0
M  V30 2019 C 196.684 0.938655 -1.70351 0
M  V30 2020 O 195.939 1.67936 -1.00478 0
M  V30 2021 C 196.238 -0.742868 -3.49594 0
M  V30 2022 C 195.904 -2.17114 -3.95186 0
M  V30 2023 C 194.566 -2.56169 -4.07346 0
M  V30 2024 C 196.918 -3.10162 -4.18866 0
M  V30 2025 C 194.246 -3.87469 -4.4055 0
M  V30 2026 C 196.598 -4.41001 -4.53542 0
M  V30 2027 C 195.262 -4.79941 -4.63911 0
M  V30 2028 H 194.532 -0.187903 -0.71678 0
M  V30 2029 H 197.179 -1.1288 -1.54694 0
M  V30 2030 H 195.484 -0.044586 -3.91775 0
M  V30 2031 H 197.181 -0.429767 -3.9869 0
M  V30 2032 H 193.771 -1.85801 -3.86233 0
M  V30 2033 H 197.955 -2.81206 -4.08946 0
M  V30 2034 H 193.211 -4.17371 -4.46779 0
M  V30 2035 H 197.385 -5.13133 -4.70815 0
M  V30 2036 H 195.012 -5.81719 -4.89395 0
M  V30 2037 N 196.587 1.43421 -0.653314 0
M  V30 2038 C 197.998 1.85065 -0.246537 0
M  V30 2039 C 198.349 1.54688 1.2069 0
M  V30 2040 O 197.474 0.995896 1.92122 0
M  V30 2041 C 198.069 3.35922 -0.440666 0
M  V30 2042 C 196.628 3.76297 -0.0882064 0
M  V30 2043 C 195.775 2.67147 -0.743484 0
M  V30 2044 H 198.726 1.33572 -0.856979 0
M  V30 2045 H 198.747 3.79204 0.313798 0
M  V30 2046 H 198.259 3.58 -1.49858 0
M  V30 2047 H 196.36 3.5983 0.96711 0
M  V30 2048 H 196.473 4.76338 -0.513738 0
M  V30 2049 H 194.837 2.54086 -0.176712 0
M  V30 2050 H 195.62 2.92053 -1.80443 0
M  V30 2051 N 198.065 0.39524 1.52563 0
M  V30 2052 C 199.013 -0.451859 2.28169 0
M  V30 2053 C 200.007 -1.05792 1.32304 0
M  V30 2054 O 201.213 -0.997718 1.49818 0
M  V30 2055 H 197.588 -0.164481 0.733792 0
M  V30 2056 H 199.559 0.207199 2.9768 0
M  V30 2057 C 198.308 -1.56385 3.10546 0
M  V30 2058 H 197.631 -1.10682 3.84174 0
M  V30 2059 H 199.071 -2.13067 3.66577 0
M  V30 2060 C 197.53 -2.52328 2.23231 0
M  V30 2061 O 198.06 -3.5588 1.86312 0
M  V30 2062 N 196.266 -2.22209 1.87274 0
M  V30 2063 H 195.813 -1.38033 2.17496 0
M  V30 2064 H 195.771 -2.86652 1.29143 0
M  V30 2065 N 199.544 -1.57102 0.125237 0
M  V30 2066 C 200.96 -1.57915 -0.231322 0
M  V30 2067 C 201.16 -1.13833 -1.66266 0
M  V30 2068 O 200.216 -0.828581 -2.38518 0
M  V30 2069 C 201.529 -3.00699 0.00766489 0
M  V30 2070 C 203.077 -3.12947 -0.0577483 0
M  V30 2071 C 203.552 -4.57742 0.153626 0
M  V30 2072 N 205.043 -4.63092 0.0998073 0
M  V30 2073 C 205.778 -5.72905 0.238174 0
M  V30 2074 N 205.274 -6.91445 0.433057 0
M  V30 2075 N 207.067 -5.6182 0.177308 0
M  V30 2076 H 199.218 -1.84055 1.06007 0
M  V30 2077 H 201.481 -0.850905 0.417929 0
M  V30 2078 H 201.187 -3.3726 0.997431 0
M  V30 2079 H 201.061 -3.70236 -0.721452 0
M  V30 2080 H 203.448 -2.7624 -1.03804 0
M  V30 2081 H 203.529 -2.4594 0.70335 0
M  V30 2082 H 203.173 -4.95149 1.13092 0
M  V30 2083 H 203.103 -5.22848 -0.627534 0
M  V30 2084 H 205.594 -3.77871 -0.047051 0
M  V30 2085 H 205.907 -7.70985 0.529332 0
M  V30 2086 H 204.252 -6.93415 0.469109 0
M  V30 2087 H 207.443 -4.68093 0.0259748 0
M  V30 2088 H 207.616 -6.47357 0.288582 0
M  V30 2089 N 201.022 0.148545 -1.56898 0
M  V30 2090 C 201.954 1.20852 -1.9475 0
M  V30 2091 C 202.967 1.39265 -0.843152 0
M  V30 2092 O 204.156 1.38864 -1.12156 0
M  V30 2093 C 201.256 2.57362 -2.20495 0
M  V30 2094 C 200.429 2.59947 -3.51776 0
M  V30 2095 C 199.488 3.77984 -3.6608 0
M  V30 2096 O 198.514 3.62929 -4.38487 0
M  V30 2097 N 199.716 4.95375 -3.02629 0
M  V30 2098 H 202.481 0.886804 -2.86279 0
M  V30 2099 H 200.042 0.338121 -1.5833 0
M  V30 2100 H 202.034 3.34833 -2.27307 0
M  V30 2101 H 200.604 2.81832 -1.35238 0
M  V30 2102 H 199.824 1.68403 -3.56419 0
M  V30 2103 H 201.112 2.58704 -4.38121 0
M  V30 2104 H 200.51 5.10509 -2.43715 0
M  V30 2105 H 199.067 5.70627 -3.15004 0
M  V30 2106 N 202.5 1.5196 0.417844 0
M  V30 2107 C 203.73 1.69181 1.18581 0
M  V30 2108 C 204.138 0.397104 1.84986 0
M  V30 2109 O 203.481 -0.636011 1.72339 0
M  V30 2110 C 203.543 2.76497 2.29759 0
M  V30 2111 C 203.207 4.18514 1.83563 0
M  V30 2112 C 204.204 5.02648 1.32821 0
M  V30 2113 C 201.889 4.64708 1.90661 0
M  V30 2114 C 203.883 6.31044 0.897894 0
M  V30 2115 C 201.57 5.93096 1.47241 0
M  V30 2116 C 202.568 6.76093 0.968891 0
M  V30 2117 O 202.256 8.02078 0.540924 0
M  V30 2118 H 201.988 0.570457 0.362705 0
M  V30 2119 H 204.542 1.99249 0.498885 0
M  V30 2120 H 202.772 2.41786 3.01789 0
M  V30 2121 H 204.461 2.82403 2.91553 0
M  V30 2122 H 205.227 4.68154 1.26716 0
M  V30 2123 H 201.106 4.00216 2.28797 0
M  V30 2124 H 204.65 6.95776 0.504192 0
M  V30 2125 H 200.547 6.271 1.53022 0
M  V30 2126 H 201.315 8.15794 0.66502 0
M  V30 2127 N 203.978 -0.674533 1.42435 0
M  V30 2128 C 204.91 -1.80005 1.41883 0
M  V30 2129 C 205.923 -1.59667 0.31787 0
M  V30 2130 O 207.112 -1.68781 0.580973 0
M  V30 2131 C 204.212 -3.17114 1.19549 0
M  V30 2132 C 203.385 -3.64299 2.42084 0
M  V30 2133 C 202.444 -4.80142 2.15291 0
M  V30 2134 O 201.47 -4.90673 2.88493 0
M  V30 2135 N 202.672 -5.68869 1.1562 0
M  V30 2136 H 205.437 -1.80964 2.38898 0
M  V30 2137 H 202.998 -0.857633 1.37318 0
M  V30 2138 H 204.99 -3.92267 0.995417 0
M  V30 2139 H 203.56 -3.11053 0.310569 0
M  V30 2140 H 202.78 -2.79822 2.77657 0
M  V30 2141 H 204.068 -3.92567 3.23679 0
M  V30 2142 H 203.466 -5.63012 0.550765 0
M  V30 2143 H 202.023 -6.43833 1.016 0
M  V30 2144 N 205.456 -1.28612 -0.910864 0
M  V30 2145 C 206.386 -1.15326 -2.03032 0
M  V30 2146 C 207.367 -0.0502924 -1.70026 0
M  V30 2147 O 208.552 -0.227797 -1.92859 0
M  V30 2148 C 205.682 -0.817343 -3.37545 0
M  V30 2149 C 204.636 -1.8754 -3.84724 0
M  V30 2150 C 203.962 -1.39305 -5.16235 0
M  V30 2151 C 205.262 -3.28244 -4.06267 0
M  V30 2152 H 206.956 -2.08975 -2.14406 0
M  V30 2153 H 204.502 -1.00612 -1.03021 0
M  V30 2154 H 206.455 -0.711151 -4.15356 0
M  V30 2155 H 205.179 0.154846 -3.26233 0
M  V30 2156 H 203.838 -1.97079 -3.09121 0
M  V30 2157 H 203.486 -0.409846 -5.01328 0
M  V30 2158 H 203.186 -2.10057 -5.48771 0
M  V30 2159 H 204.71 -1.30014 -5.96598 0
M  V30 2160 H 206.124 -3.21611 -4.74594 0
M  V30 2161 H 204.521 -3.96855 -4.5014 0
M  V30 2162 H 205.591 -3.72048 -3.10979 0
M  V30 2163 N 206.934 1.1197 -1.10907 0
M  V30 2164 C 207.864 2.19928 -0.784473 0
M  V30 2165 C 208.845 1.6833 0.244726 0
M  V30 2166 O 210.03 1.93892 0.109418 0
M  V30 2167 C 207.16 3.46597 -0.220827 0
M  V30 2168 C 206.114 4.11376 -1.18127 0
M  V30 2169 C 205.44 5.32554 -0.478594 0
M  V30 2170 C 206.74 4.56945 -2.52979 0
M  V30 2171 H 208.434 2.47337 -1.68715 0
M  V30 2172 H 205.98 1.18879 -0.812642 0
M  V30 2173 H 207.933 4.21396 0.0184278 0
M  V30 2174 H 206.657 3.1863 0.717113 0
M  V30 2175 H 205.316 3.38564 -1.40606 0
M  V30 2176 H 204.964 5.00856 0.463976 0
M  V30 2177 H 204.664 5.76844 -1.11912 0
M  V30 2178 H 206.188 6.10096 -0.248 0
M  V30 2179 H 207.602 5.23093 -2.3462 0
M  V30 2180 H 205.999 5.1203 -3.12962 0
M  V30 2181 H 207.069 3.70676 -3.12614 0
M  V30 2182 N 208.412 0.89855 1.29475 0
M  V30 2183 C 209.659 0.523882 1.95606 0
M  V30 2184 C 209.987 -0.929608 1.70847 0
M  V30 2185 O 209.242 -1.67401 1.01367 0
M  V30 2186 C 209.541 0.761398 3.49195 0
M  V30 2187 C 209.207 2.19207 3.94029 0
M  V30 2188 C 207.869 2.58326 4.05982 0
M  V30 2189 C 210.221 3.12379 4.17216 0
M  V30 2190 C 207.549 3.898 4.38489 0
M  V30 2191 C 209.901 4.43401 4.51197 0
M  V30 2192 C 208.565 4.82394 4.61359 0
M  V30 2193 H 207.835 0.191702 0.715773 0
M  V30 2194 H 210.482 1.13699 1.54094 0
M  V30 2195 H 208.787 0.0653622 3.91745 0
M  V30 2196 H 210.484 0.450904 3.98457 0
M  V30 2197 H 207.074 1.87846 3.85242 0
M  V30 2198 H 211.258 2.83371 4.07449 0
M  V30 2199 H 206.514 4.19734 4.44559 0
M  V30 2200 H 210.688 5.15623 4.68087 0
M  V30 2201 H 208.315 5.84306 4.86303 0
M  V30 2202 N 209.89 -1.43072 0.660911 0
M  V30 2203 C 211.118 -2.06067 0.185422 0
M  V30 2204 C 211.533 -1.49582 -1.15198 0
M  V30 2205 O 210.89 -0.630134 -1.71276 0
M  V30 2206 C 210.941 -3.61371 0.0966523 0
M  V30 2207 O 210.662 -4.15758 1.38119 0
M  V30 2208 C 212.163 -4.41455 -0.403996 0
M  V30 2209 H 209.383 -0.664459 0.0934604 0
M  V30 2210 H 211.927 -1.83447 0.90373 0
M  V30 2211 H 210.082 -3.8315 -0.572259 0
M  V30 2212 H 210.496 -5.09499 1.24542 0
M  V30 2213 H 211.97 -5.50437 -0.415045 0
M  V30 2214 H 212.447 -4.15036 -1.43674 0
M  V30 2215 H 213.053 -4.24663 0.232691 0
M  V30 2216 N 211.368 -0.403325 -1.52352 0
M  V30 2217 C 212.3 0.4603 -2.2453 0
M  V30 2218 C 213.313 1.01505 -1.27282 0
M  V30 2219 O 214.502 0.914982 -1.53266 0
M  V30 2220 C 211.602 1.65208 -2.95905 0
M  V30 2221 C 210.775 1.22224 -4.19976 0
M  V30 2222 C 209.834 2.28028 -4.74226 0
M  V30 2223 O 208.86 1.88857 -5.36956 0
M  V30 2224 N 210.062 3.6012 -4.55295 0
M  V30 2225 H 212.827 -0.158156 -2.99282 0
M  V30 2226 H 210.388 -0.230402 -1.60252 0
M  V30 2227 H 212.38 2.35541 -3.29093 0
M  V30 2228 H 210.95 2.17658 -2.24374 0
M  V30 2229 H 210.17 0.34725 -3.92668 0
M  V30 2230 H 211.458 0.911924 -5.00561 0
M  V30 2231 H 210.856 3.94698 -4.05253 0
M  V30 2232 H 209.413 4.26447 -4.92936 0
M  V30 2233 N 212.846 1.57033 -0.133567 0
M  V30 2234 C 214.094 1.953 0.519848 0
M  V30 2235 C 214.415 1.01866 1.66278 0
M  V30 2236 O 213.685 0.0776513 1.95746 0
M  V30 2237 H 212.265 0.721091 0.195032 0
M  V30 2238 H 214.927 1.93809 -0.205921 0
M  V30 2239 H 214.023 2.98695 0.904854 0
M  V30 2240 N 214.325 -0.140222 1.56975 0
M  V30 2241 C 215.55 -0.870414 1.88251 0
M  V30 2242 C 215.975 -1.73637 0.723312 0
M  V30 2243 O 215.333 -1.78329 -0.32689 0
M  V30 2244 C 215.381 -1.69737 3.18154 0
M  V30 2245 O 214.485 -2.80229 3.02565 0
M  V30 2246 H 213.826 -0.242025 0.61832 0
M  V30 2247 H 216.356 -0.128999 2.04193 0
M  V30 2248 H 216.366 -2.09099 3.50345 0
M  V30 2249 H 215.041 -1.06152 4.02125 0
M  V30 2250 H 213.618 -2.44224 2.81796 0
M  V30 2251 N 215.803 -1.52179 -0.40978 0
M  V30 2252 C 217.051 -1.65878 -1.15451 0
M  V30 2253 C 217.372 -0.390771 -1.91044 0
M  V30 2254 O 216.642 0.594323 -1.86667 0
M  V30 2255 H 215.222 -0.611405 -0.429177 0
M  V30 2256 H 217.884 -1.89219 -0.467134 0
M  V30 2257 H 216.98 -2.49954 -1.86894 0
M  V30 2258 N 217.281 0.66697 -1.42791 0
M  V30 2259 C 218.191 1.80962 -1.49299 0
M  V30 2260 C 219.207 1.69775 -0.381108 0
M  V30 2261 O 220.383 1.91188 -0.633188 0
M  V30 2262 C 217.448 3.17156 -1.40045 0
M  V30 2263 C 216.509 3.40242 -2.6179 0
M  V30 2264 C 215.742 4.69939 -2.52969 0
M  V30 2265 O 215.965 5.48372 -1.56985 0
M  V30 2266 O 214.899 4.94441 -3.43237 0
M  V30 2267 H 218.725 1.78427 -2.45759 0
M  V30 2268 H 216.31 0.823713 -1.24641 0
M  V30 2269 H 218.192 3.98413 -1.37276 0
M  V30 2270 H 216.867 3.20312 -0.467138 0
M  V30 2271 H 215.774 2.58802 -2.70134 0
M  V30 2272 H 217.107 3.41923 -3.54047 0
M  V30 2273 N 218.759 1.29093 0.90403 0
M  V30 2274 C 219.707 1.13727 2.02901 0
M  V30 2275 C 220.701 0.0539853 1.69314 0
M  V30 2276 O 221.907 0.213469 1.7873 0
M  V30 2277 H 218.282 0.35117 0.664969 0
M  V30 2278 H 220.253 2.08982 2.13001 0
M  V30 2279 C 219.002 0.826066 3.37745 0
M  V30 2280 H 218.325 1.65164 3.64089 0
M  V30 2281 H 219.765 0.758559 4.17159 0
M  V30 2282 C 218.224 -0.470541 3.33598 0
M  V30 2283 O 218.754 -1.49792 3.72727 0
M  V30 2284 N 216.96 -0.474812 2.86695 0
M  V30 2285 H 216.507 0.361692 2.55048 0
M  V30 2286 H 216.465 -1.34236 2.84303 0
M  V30 2287 N 220.237 -1.11381 1.11499 0
M  V30 2288 C 221.184 -2.17439 0.773887 0
M  V30 2289 C 222.154 -1.64132 -0.254899 0
M  V30 2290 O 223.339 -1.90345 -0.13168 0
M  V30 2291 C 220.479 -3.44373 0.223917 0
M  V30 2292 C 219.592 -4.1168 1.30934 0
M  V30 2293 C 218.727 -5.263 0.71984 0
M  V30 2294 C 217.766 -5.85493 1.78507 0
M  V30 2295 N 216.903 -6.91507 1.21502 0
M  V30 2296 H 221.743 -2.45962 1.68246 0
M  V30 2297 H 219.28 -1.20744 0.840191 0
M  V30 2298 H 221.238 -4.17047 -0.112921 0
M  V30 2299 H 219.868 -3.16232 -0.647851 0
M  V30 2300 H 218.92 -3.37073 1.76312 0
M  V30 2301 H 220.232 -4.51729 2.11524 0
M  V30 2302 H 219.386 -6.05785 0.333094 0
M  V30 2303 H 218.125 -4.87559 -0.117377 0
M  V30 2304 H 217.13 -5.04686 2.18111 0
M  V30 2305 H 218.355 -6.26301 2.62533 0
M  V30 2306 H 216.301 -6.54783 0.399455 0
M  V30 2307 H 216.218 -7.30214 1.95763 0
M  V30 2308 H 217.486 -7.74795 0.855181 0
M  V30 2309 N 221.715 -0.905404 -1.28997 0
M  V30 2310 C 222.625 -0.392246 -2.31298 0
M  V30 2311 C 223.641 0.515889 -1.66176 0
M  V30 2312 O 224.817 0.404093 -1.97304 0
M  V30 2313 C 221.882 0.36686 -3.44754 0
M  V30 2314 C 220.943 -0.573485 -4.25452 0
M  V30 2315 C 220.176 0.149488 -5.33491 0
M  V30 2316 O 220.399 1.37255 -5.5364 0
M  V30 2317 O 219.333 -0.510919 -5.99728 0
M  V30 2318 H 223.159 -1.2411 -2.77183 0
M  V30 2319 H 220.744 -0.669926 -1.33538 0
M  V30 2320 H 222.626 0.795907 -4.13816 0
M  V30 2321 H 221.301 1.19169 -3.00966 0
M  V30 2322 H 220.208 -1.05176 -3.59011 0
M  V30 2323 H 221.541 -1.36489 -4.72897 0
M  V30 2324 N 223.193 1.4272 -0.668489 0
M  V30 2325 C 224.103 2.34596 0.0139753 0
M  V30 2326 C 225.119 1.5474 0.795703 0
M  V30 2327 O 226.295 1.87334 0.739466 0
M  V30 2328 C 223.36 3.33202 0.957982 0
M  V30 2329 C 222.421 4.28957 0.17149 0
M  V30 2330 C 221.654 5.22853 1.07053 0
M  V30 2331 O 221.877 5.21531 2.31001 0
M  V30 2332 O 220.811 5.9952 0.534727 0
M  V30 2333 H 224.637 2.9448 -0.742661 0
M  V30 2334 H 222.222 1.43117 -0.428705 0
M  V30 2335 H 224.104 3.93796 1.50008 0
M  V30 2336 H 222.779 2.758 1.69458 0
M  V30 2337 H 221.686 3.71796 -0.414558 0
M  V30 2338 H 223.019 4.89383 -0.52586 0
M  V30 2339 N 224.671 0.411399 1.52136 0
M  V30 2340 C 225.92 -0.165009 2.01024 0
M  V30 2341 C 226.233 -1.4603 1.30133 0
M  V30 2342 O 227.439 -2.1181 1.69849 0
M  V30 2343 C 225.895 -0.344618 3.58246 0
M  V30 2344 C 225.503 0.938716 4.38055 0
M  V30 2345 C 227.247 -0.876195 4.15359 0
M  V30 2346 C 225.154 0.726172 5.86925 0
M  V30 2347 H 224.084 -0.0654407 0.751155 0
M  V30 2348 H 226.735 0.537192 1.75461 0
M  V30 2349 H 225.117 -1.10921 3.80148 0
M  V30 2350 H 226.291 1.70963 4.27912 0
M  V30 2351 H 224.606 1.39688 3.92271 0
M  V30 2352 H 227.203 -1.05128 5.24263 0
M  V30 2353 H 227.546 -1.85152 3.7286 0
M  V30 2354 H 228.079 -0.170607 3.97434 0
M  V30 2355 H 224.818 1.67312 6.33788 0
M  V30 2356 H 224.338 -0.00540283 5.998 0
M  V30 2357 H 226.017 0.369231 6.45946 0
M  V30 2358 N 226.149 -1.5696 0.141893 0
M  V30 2359 C 227.398 -1.95135 -0.510427 0
M  V30 2360 C 227.711 -1.02896 -1.66348 0
M  V30 2361 O 228.917 -1.30629 -2.38009 0
M  V30 2362 C 227.373 -3.46876 -0.959427 0
M  V30 2363 C 226.981 -4.47691 0.166419 0
M  V30 2364 C 228.725 -3.93927 -1.58183 0
M  V30 2365 C 226.632 -5.90636 -0.300565 0
M  V30 2366 H 225.562 -0.728494 -0.194454 0
M  V30 2367 H 228.213 -1.8211 0.22542 0
M  V30 2368 H 226.595 -3.55215 -1.75038 0
M  V30 2369 H 227.769 -4.51043 0.94325 0
M  V30 2370 H 226.084 -4.10527 0.696905 0
M  V30 2371 H 228.681 -4.98158 -1.94275 0
M  V30 2372 H 229.024 -3.3519 -2.46888 0
M  V30 2373 H 229.557 -3.88484 -0.855863 0
M  V30 2374 H 226.296 -6.5318 0.550989 0
M  V30 2375 H 225.816 -5.90655 -1.04338 0
M  V30 2376 H 227.495 -6.42588 -0.754265 0
M  V30 2377 N 227.627 0.131896 -1.57047 0
M  V30 2378 C 228.575 1.18146 -2.0036 0
M  V30 2379 C 229.569 1.43614 -0.898406 0
M  V30 2380 O 230.775 1.43729 -1.08361 0
M  V30 2381 H 227.15 0.398042 -0.638018 0
M  V30 2382 H 229.121 0.789564 -2.87765 0
M  V30 2383 C 227.87 2.50341 -2.41298 0
M  V30 2384 H 227.193 2.31578 -3.25902 0
M  V30 2385 H 228.633 3.22371 -2.75414 0
M  V30 2386 C 227.092 3.11984 -1.27153 0
M  V30 2387 O 227.622 3.97484 -0.580459 0
M  V30 2388 N 225.828 2.71662 -1.03189 0
M  V30 2389 H 225.375 2.02231 -1.59564 0
M  V30 2390 H 225.333 3.13238 -0.270077 0
M  V30 2391 N 229.106 1.52395 0.401703 0
M  V30 2392 C 230.336 1.70429 1.1678 0
M  V30 2393 C 230.744 0.416702 1.84554 0
M  V30 2394 O 230.087 -0.617697 1.73003 0
M  V30 2395 C 230.149 2.78919 2.26814 0
M  V30 2396 C 229.813 4.20437 1.79113 0
M  V30 2397 C 230.81 5.04028 1.27482 0
M  V30 2398 C 228.495 4.66704 1.85722 0
M  V30 2399 C 230.489 6.31961 0.830913 0
M  V30 2400 C 228.176 5.94625 1.40942 0
M  V30 2401 C 229.174 6.77082 0.897128 0
M  V30 2402 O 228.862 8.02607 0.455822 0
M  V30 2403 H 228.594 0.574272 0.356634 0
M  V30 2404 H 231.148 1.99767 0.477724 0
M  V30 2405 H 229.378 2.44973 2.99207 0
M  V30 2406 H 231.067 2.8548 2.88541 0
M  V30 2407 H 231.833 4.69471 1.21744 0
M  V30 2408 H 227.712 4.0262 2.24539 0
M  V30 2409 H 231.256 6.96271 0.430368 0
M  V30 2410 H 227.153 6.28688 1.46362 0
M  V30 2411 H 227.921 8.16453 0.578457 0
M  V30 2412 N 230.584 -0.659388 1.43143 0
M  V30 2413 C 231.494 -1.80167 1.50256 0
M  V30 2414 C 232.51 -1.69571 0.390106 0
M  V30 2415 O 233.686 -1.90849 0.643319 0
M  V30 2416 C 230.751 -3.16409 1.41725 0
M  V30 2417 C 229.812 -3.38848 2.63591 0
M  V30 2418 C 229.045 -4.68591 2.55458 0
M  V30 2419 O 229.268 -5.47532 1.59891 0
M  V30 2420 O 228.202 -4.92614 3.45854 0
M  V30 2421 H 232.028 -1.77121 2.46702 0
M  V30 2422 H 229.613 -0.817092 1.25076 0
M  V30 2423 H 231.495 -3.9768 1.39387 0
M  V30 2424 H 230.17 -3.20059 0.484118 0
M  V30 2425 H 229.077 -2.57366 2.71502 0
M  V30 2426 H 230.41 -3.4004 3.55856 0
M  V30 2427 N 232.062 -1.29571 -0.897171 0
M  V30 2428 C 233.309 -1.17689 -1.6479 0
M  V30 2429 C 233.637 0.27107 -1.92602 0
M  V30 2430 O 232.892 1.21193 -1.53658 0
M  V30 2431 C 233.191 -1.9382 -3.00281 0
M  V30 2432 C 232.857 -3.43522 -2.92068 0
M  V30 2433 C 231.519 -3.84348 -2.89535 0
M  V30 2434 C 233.871 -4.38906 -2.81089 0
M  V30 2435 C 231.199 -5.18869 -2.73846 0
M  V30 2436 C 233.551 -5.73521 -2.66939 0
M  V30 2437 C 232.215 -6.13601 -2.62774 0
M  V30 2438 H 231.485 -0.430654 -0.603008 0
M  V30 2439 H 234.132 -1.60536 -1.04404 0
M  V30 2440 H 232.437 -1.4357 -3.64547 0
M  V30 2441 H 234.134 -1.82028 -3.57305 0
M  V30 2442 H 230.724 -3.11072 -2.94842 0
M  V30 2443 H 234.908 -4.08315 -2.82121 0
M  V30 2444 H 230.164 -5.4903 -2.69027 0
M  V30 2445 H 234.338 -6.47078 -2.57416 0
M  V30 2446 H 231.965 -7.17786 -2.50375 0
M  V30 2447 N 233.54 1.10788 -1.12088 0
M  V30 2448 C 234.817 1.79136 -0.785476 0
M  V30 2449 C 235.197 1.98246 0.725377 0
M  V30 2450 O 234.545 1.57258 1.65778 0
M  V30 2451 C 234.755 3.12375 -1.55636 0
M  V30 2452 C 236.103 3.8731 -1.74001 0
M  V30 2453 O 237.127 3.22085 -1.52117 0
M  V30 2454 O 235.986 5.04369 -2.10415 0
M  V30 2455 H 233.08 0.776226 -0.285311 0
M  V30 2456 H 235.626 1.1747 -1.2247 0
M  V30 2457 H 234.398 2.93863 -2.5838 0
M  V30 2458 H 234.021 3.81758 -1.11114 0
M  V30 2459 N 235.018 0.912232 1.28515 0
M  V30 2460 C 236.246 0.560416 1.99166 0
M  V30 2461 C 236.661 -0.857927 1.68182 0
M  V30 2462 O 236.018 -1.56805 0.933733 0
M  V30 2463 C 236.069 0.758142 3.53461 0
M  V30 2464 O 235.79 2.12067 3.83352 0
M  V30 2465 C 237.291 0.412954 4.41372 0
M  V30 2466 H 234.511 0.213805 0.636026 0
M  V30 2467 H 237.055 1.22502 1.63749 0
M  V30 2468 H 235.21 0.140556 3.87145 0
M  V30 2469 H 235.624 2.15923 4.77993 0
M  V30 2470 H 237.098 0.60208 5.48707 0
M  V30 2471 H 237.575 -0.65073 4.34353 0
M  V30 2472 H 238.181 1.00802 4.13182 0
M  V30 2473 N 236.496 -1.42363 0.676048 0
M  V30 2474 C 237.443 -2.308 -0.00150904 0
M  V30 2475 C 238.413 -1.46032 -0.791444 0
M  V30 2476 O 239.598 -1.74861 -0.76344 0
M  V30 2477 C 236.738 -3.31883 -0.945919 0
M  V30 2478 C 235.851 -4.31741 -0.149675 0
M  V30 2479 C 234.986 -5.19898 -1.08995 0
M  V30 2480 C 234.025 -6.11434 -0.285465 0
M  V30 2481 N 233.162 -6.92138 -1.17851 0
M  V30 2482 H 238.002 -2.88187 0.758455 0
M  V30 2483 H 235.539 -1.41952 0.38576 0
M  V30 2484 H 237.497 -3.89019 -1.50731 0
M  V30 2485 H 236.127 -2.76093 -1.6725 0
M  V30 2486 H 235.179 -3.76713 0.528359 0
M  V30 2487 H 236.491 -4.96534 0.474866 0
M  V30 2488 H 235.645 -5.81772 -1.72123 0
M  V30 2489 H 234.384 -4.55284 -1.74837 0
M  V30 2490 H 233.389 -5.48627 0.359018 0
M  V30 2491 H 234.614 -6.78097 0.368883 0
M  V30 2492 H 232.56 -6.30152 -1.82332 0
M  V30 2493 H 232.477 -7.53542 -0.609082 0
M  V30 2494 H 233.745 -7.58499 -1.79722 0
M  V30 2495 N 237.974 -0.419461 -1.51915 0
M  V30 2496 C 239.251 0.211999 -1.94448 0
M  V30 2497 C 239.631 1.61703 -1.35703 0
M  V30 2498 O 238.979 2.22102 -0.536931 0
M  V30 2499 C 239.189 0.207872 -3.4838 0
M  V30 2500 C 240.537 0.422192 -4.22496 0
M  V30 2501 O 241.561 0.286778 -3.55044 0
M  V30 2502 O 240.42 0.690009 -5.42126 0
M  V30 2503 H 237.514 0.139586 -0.815135 0
M  V30 2504 H 240.06 -0.476151 -1.62883 0
M  V30 2505 H 238.832 -0.775102 -3.83546 0
M  V30 2506 H 238.455 0.939688 -3.86336 0
M  V30 2507 N 239.452 1.56882 -0.150215 0
M  V30 2508 C 240.382 2.19935 0.784284 0
M  V30 2509 C 241.363 1.14854 1.25469 0
M  V30 2510 O 242.548 1.43209 1.31168 0
M  V30 2511 C 239.678 2.82349 2.02229 0
M  V30 2512 C 238.632 3.93285 1.68853 0
M  V30 2513 C 237.958 4.42649 2.99944 0
M  V30 2514 C 239.258 5.13904 0.932714 0
M  V30 2515 H 240.952 2.9828 0.258781 0
M  V30 2516 H 238.498 1.43473 0.123029 0
M  V30 2517 H 240.451 3.25126 2.68088 0
M  V30 2518 H 239.175 2.0134 2.57157 0
M  V30 2519 H 237.834 3.5113 1.05371 0
M  V30 2520 H 237.482 3.58458 3.52869 0
M  V30 2521 H 237.182 5.17476 2.78374 0
M  V30 2522 H 238.706 4.88099 3.66868 0
M  V30 2523 H 240.12 5.53506 1.49345 0
M  V30 2524 H 238.517 5.94515 0.81684 0
M  V30 2525 H 239.587 4.84842 -0.0749568 0
M  V30 2526 N 240.93 -0.123565 1.57115 0
M  V30 2527 C 242.176 -0.833386 1.84885 0
M  V30 2528 C 242.509 -1.79742 0.735292 0
M  V30 2529 O 241.784 -1.92764 -0.25925 0
M  V30 2530 C 242.067 -1.5873 3.23228 0
M  V30 2531 C 241.92 -0.643183 4.45178 0
M  V30 2532 C 243.239 -2.54453 3.59085 0
M  V30 2533 H 240.358 -0.301518 0.6725 0
M  V30 2534 H 243 -0.097778 1.89748 0
M  V30 2535 H 241.15 -2.21438 3.19214 0
M  V30 2536 H 242.822 -0.0253015 4.61293 0
M  V30 2537 H 241.065 0.0456139 4.33776 0
M  V30 2538 H 241.736 -1.20724 5.38637 0
M  V30 2539 H 244.212 -2.01853 3.63861 0
M  V30 2540 H 243.088 -3.04238 4.5687 0
M  V30 2541 H 243.349 -3.36906 2.86264 0
M  V30 2542 N 242.408 -1.52605 -0.393616 0
M  V30 2543 C 243.648 -1.6911 -1.1481 0
M  V30 2544 C 244.012 -0.41969 -1.87357 0
M  V30 2545 O 245.213 -0.461034 -2.64817 0
M  V30 2546 C 243.484 -2.88909 -2.10395 0
M  V30 2547 S 245.043 -3.25977 -2.93742 0
M  V30 2548 H 241.861 -0.595337 -0.38871 0
M  V30 2549 H 244.463 -1.90641 -0.433178 0
M  V30 2550 H 243.167 -3.79672 -1.55812 0
M  V30 2551 H 242.698 -2.69698 -2.86403 0
M  V30 2552 H 244.713 -2.75806 -4.12487 0
M  V30 2553 N 243.887 0.651787 -1.4349 0
M  V30 2554 C 244.817 1.77621 -1.51569 0
M  V30 2555 C 245.798 1.66022 -0.370253 0
M  V30 2556 O 246.983 1.85095 -0.587658 0
M  V30 2557 C 244.113 3.16056 -1.43966 0
M  V30 2558 C 243.067 3.4242 -2.56774 0
M  V30 2559 C 242.393 4.8067 -2.34223 0
M  V30 2560 C 243.693 3.37023 -3.99015 0
M  V30 2561 H 245.387 1.71117 -2.45681 0
M  V30 2562 H 242.933 0.821825 -1.18246 0
M  V30 2563 H 244.886 3.94472 -1.48221 0
M  V30 2564 H 243.61 3.23293 -0.463586 0
M  V30 2565 H 242.269 2.66375 -2.51873 0
M  V30 2566 H 241.917 4.84585 -1.34856 0
M  V30 2567 H 241.617 4.9927 -3.09844 0
M  V30 2568 H 243.141 5.61342 -2.40265 0
M  V30 2569 H 244.555 4.05374 -4.05395 0
M  V30 2570 H 242.952 3.67159 -4.74673 0
M  V30 2571 H 244.022 2.3518 -4.2405 0
M  V30 2572 N 245.365 1.30045 0.890287 0
M  V30 2573 C 246.613 1.18327 1.63839 0
M  V30 2574 C 246.934 -0.263455 1.93212 0
M  V30 2575 O 246.204 -1.17856 1.56482 0
M  V30 2576 H 244.784 0.434933 0.607324 0
M  V30 2577 H 247.446 1.631 1.06698 0
M  V30 2578 H 246.542 1.74024 2.59079 0
M  V30 2579 N 246.843 -1.10192 1.12674 0
M  V30 2580 C 247.773 -2.18652 0.819362 0
M  V30 2581 C 248.754 -1.68698 -0.217915 0
M  V30 2582 O 249.939 -1.94041 -0.0785581 0
M  V30 2583 C 247.069 -3.46202 0.27594 0
M  V30 2584 C 246.023 -4.09444 1.24656 0
M  V30 2585 C 245.349 -5.31725 0.563258 0
M  V30 2586 C 246.649 -4.52863 2.60217 0
M  V30 2587 H 248.343 -2.44622 1.72628 0
M  V30 2588 H 245.889 -1.17571 0.831451 0
M  V30 2589 H 247.842 -4.21372 0.0486149 0
M  V30 2590 H 246.566 -3.1973 -0.666331 0
M  V30 2591 H 245.225 -3.36284 1.45974 0
M  V30 2592 H 244.873 -5.0153 -0.384235 0
M  V30 2593 H 244.573 -5.74991 1.21075 0
M  V30 2594 H 246.097 -6.09624 0.34503 0
M  V30 2595 H 247.511 -5.19294 2.42913 0
M  V30 2596 H 245.908 -5.06986 3.21068 0
M  V30 2597 H 246.978 -3.65656 3.18471 0
M  V30 2598 N 248.321 -0.919034 -1.28029 0
M  V30 2599 C 249.546 -0.570357 -1.99403 0
M  V30 2600 C 249.971 0.842486 -1.68178 0
M  V30 2601 O 249.329 1.56391 -0.917141 0
M  V30 2602 C 249.377 -0.792541 -3.51783 0
M  V30 2603 O 248.481 0.145988 -4.12142 0
M  V30 2604 H 247.822 -0.220555 -0.6263 0
M  V30 2605 H 250.352 -1.23592 -1.63053 0
M  V30 2606 H 250.362 -0.704708 -4.01868 0
M  V30 2607 H 249.037 -1.82247 -3.73844 0
M  V30 2608 H 247.614 0.00897528 -3.72899 0
M  V30 2609 N 249.799 1.42003 -0.683588 0
M  V30 2610 C 251.024 2.06265 -0.216647 0
M  V30 2611 C 251.449 1.51059 1.12083 0
M  V30 2612 O 250.807 0.632638 1.69904 0
M  V30 2613 C 250.855 3.60191 -0.171759 0
M  V30 2614 O 249.959 4.03396 0.857069 0
M  V30 2615 H 249.3 0.65502 -0.108834 0
M  V30 2616 H 251.83 1.81982 -0.935077 0
M  V30 2617 H 251.84 4.08 0.0014303 0
M  V30 2618 H 250.515 3.99743 -1.14796 0
M  V30 2619 H 249.092 3.67117 0.654208 0
M  V30 2620 N 251.277 0.427512 1.51691 0
M  V30 2621 C 252.526 -0.143679 2.01188 0
M  V30 2622 C 252.839 -1.44642 1.31674 0
M  V30 2623 O 254.045 -2.09997 1.72086 0
M  V30 2624 C 252.501 -0.306602 3.58592 0
M  V30 2625 C 252.109 0.985125 4.37035 0
M  V30 2626 C 253.853 -0.832091 4.16265 0
M  V30 2627 C 251.76 0.788382 5.86122 0
M  V30 2628 H 250.69 -0.0574701 0.751807 0
M  V30 2629 H 253.341 0.555772 1.74881 0
M  V30 2630 H 251.723 -1.06882 3.81303 0
M  V30 2631 H 252.897 1.75492 4.26074 0
M  V30 2632 H 251.212 1.4384 3.90767 0
M  V30 2633 H 253.809 -0.995617 5.25349 0
M  V30 2634 H 254.152 -1.81186 3.74803 0
M  V30 2635 H 254.685 -0.128444 3.97593 0
M  V30 2636 H 251.424 1.74025 6.31978 0
M  V30 2637 H 250.944 0.0582143 5.99772 0
M  V30 2638 H 252.623 0.437722 6.45518 0
M  V30 2639 N 252.755 -1.56801 0.158532 0
M  V30 2640 C 254.001 -1.96781 -0.490405 0
M  V30 2641 C 254.334 -1.04397 -1.63753 0
M  V30 2642 O 253.609 -0.0885805 -1.94298 0
M  V30 2643 C 253.892 -3.4635 -0.985594 0
M  V30 2644 C 253.745 -4.49512 0.160824 0
M  V30 2645 C 255.064 -3.98697 -1.86355 0
M  V30 2646 H 252.183 -0.715482 -0.176788 0
M  V30 2647 H 254.825 -1.88451 0.242088 0
M  V30 2648 H 252.975 -3.53579 -1.60978 0
M  V30 2649 H 254.647 -4.54353 0.797537 0
M  V30 2650 H 252.89 -4.26013 0.818256 0
M  V30 2651 H 253.561 -5.51531 -0.227569 0
M  V30 2652 H 256.037 -3.94019 -1.33746 0
M  V30 2653 H 254.913 -5.03792 -2.17909 0
M  V30 2654 H 255.174 -3.41744 -2.8047 0
M  V30 2655 N 254.233 0.115231 -1.57178 0
M  V30 2656 C 255.481 0.820727 -1.84685 0
M  V30 2657 C 255.802 1.80237 -0.744279 0
M  V30 2658 O 255.072 1.94529 0.231375 0
M  V30 2659 H 253.652 0.306084 -0.681411 0
M  V30 2660 H 256.314 0.101656 -1.94635 0
M  V30 2661 H 255.41 1.36366 -2.80733 0
M  V30 2662 N 255.711 1.52812 0.385517 0
M  V30 2663 C 256.957 1.68275 1.13188 0
M  V30 2664 C 257.29 0.423179 1.89533 0
M  V30 2665 O 256.565 -0.579113 1.85679 0
M  V30 2666 C 256.848 2.92001 2.1073 0
M  V30 2667 C 256.701 4.28067 1.38125 0
M  V30 2668 C 258.02 3.11283 3.11113 0
M  V30 2669 H 255.139 0.612352 0.410115 0
M  V30 2670 H 257.781 1.85415 0.414869 0
M  V30 2671 H 255.931 2.77519 2.71874 0
M  V30 2672 H 257.603 4.54324 0.799187 0
M  V30 2673 H 255.846 4.28388 0.683092 0
M  V30 2674 H 256.517 5.10733 2.09417 0
M  V30 2675 H 258.993 3.2482 2.6006 0
M  V30 2676 H 257.869 3.99325 3.76605 0
M  V30 2677 H 258.13 2.25656 3.80173 0
M  V30 2678 N 257.189 -0.644168 1.43834 0
M  V30 2679 C 258.435 -1.40431 1.47141 0
M  V30 2680 C 258.79 -1.92153 0.0975577 0
M  V30 2681 O 258.083 -1.69924 -0.885232 0
M  V30 2682 C 258.277 -2.59615 2.45631 0
M  V30 2683 C 258.106 -2.1956 3.92458 0
M  V30 2684 C 256.876 -2.07456 4.60749 0
M  V30 2685 C 259.074 -1.79281 4.8204 0
M  V30 2686 N 257.056 -1.60827 5.92459 0
M  V30 2687 C 258.427 -1.43801 6.03093 0
M  V30 2688 C 260.482 -1.66545 4.6922 0
M  V30 2689 C 259.185 -0.968599 7.12749 0
M  V30 2690 C 261.211 -1.21008 5.78888 0
M  V30 2691 C 260.573 -0.864711 6.99072 0
M  V30 2692 H 256.672 -0.509182 0.593513 0
M  V30 2693 H 259.256 -0.740351 1.80075 0
M  V30 2694 H 257.427 -3.23658 2.1471 0
M  V30 2695 H 259.159 -3.26357 2.39318 0
M  V30 2696 H 255.914 -2.275 4.1538 0
M  V30 2697 H 256.338 -1.39848 6.62398 0
M  V30 2698 H 260.98 -1.91883 3.7675 0
M  V30 2699 H 258.698 -0.702715 8.05039 0
M  V30 2700 H 262.284 -1.11631 5.7099 0
M  V30 2701 H 261.164 -0.517736 7.82489 0
M  V30 2702 N 258.668 -1.30515 -0.883378 0
M  V30 2703 C 259.898 -1.22182 -1.66599 0
M  V30 2704 C 260.306 0.217507 -1.87946 0
M  V30 2705 O 259.649 1.1554 -1.42815 0
M  V30 2706 C 259.711 -1.88146 -3.06335 0
M  V30 2707 C 259.375 -3.37476 -3.08154 0
M  V30 2708 C 260.372 -4.33443 -2.87094 0
M  V30 2709 C 258.057 -3.7895 -3.29701 0
M  V30 2710 C 260.051 -5.68858 -2.8754 0
M  V30 2711 C 257.738 -5.14482 -3.29776 0
M  V30 2712 C 258.736 -6.09246 -3.0872 0
M  V30 2713 O 258.424 -7.42302 -3.08615 0
M  V30 2714 H 258.156 -0.423898 -0.52658 0
M  V30 2715 H 260.71 -1.72703 -1.11188 0
M  V30 2716 H 258.94 -1.32157 -3.63416 0
M  V30 2717 H 260.629 -1.7391 -3.66756 0
M  V30 2718 H 261.395 -4.02733 -2.70243 0
M  V30 2719 H 257.274 -3.05631 -3.45124 0
M  V30 2720 H 260.818 -6.428 -2.71024 0
M  V30 2721 H 256.715 -5.44832 -3.46163 0
M  V30 2722 H 257.483 -7.5131 -3.24769 0
M  V30 2723 N 260.146 1.09593 -1.13257 0
M  V30 2724 C 261.076 2.18214 -0.830946 0
M  V30 2725 C 262.057 1.68812 0.208966 0
M  V30 2726 O 263.242 1.9408 0.0682666 0
M  V30 2727 C 260.372 3.46051 -0.294296 0
M  V30 2728 C 259.326 4.08778 -1.26826 0
M  V30 2729 C 258.652 5.31419 -0.591449 0
M  V30 2730 C 259.952 4.51476 -2.62615 0
M  V30 2731 H 261.646 2.43703 -1.73923 0
M  V30 2732 H 259.192 1.17128 -0.837675 0
M  V30 2733 H 261.145 4.2134 -0.0709606 0
M  V30 2734 H 259.869 3.20079 0.649366 0
M  V30 2735 H 258.528 3.35505 -1.47756 0
M  V30 2736 H 258.176 5.01727 0.357633 0
M  V30 2737 H 257.876 5.74341 -1.24123 0
M  V30 2738 H 259.4 6.09433 -0.377355 0
M  V30 2739 H 260.814 5.17999 -2.45663 0
M  V30 2740 H 259.211 5.05277 -3.23752 0
M  V30 2741 H 260.281 3.63962 -3.20406 0
M  V30 2742 N 261.624 0.925811 1.2754 0
M  V30 2743 C 262.554 0.440748 2.29303 0
M  V30 2744 C 263.535 -0.497971 1.62648 0
M  V30 2745 O 264.72 -0.403126 1.8997 0
M  V30 2746 C 261.85 -0.309048 3.45922 0
M  V30 2747 C 260.804 0.54166 4.24559 0
M  V30 2748 C 260.13 -0.337191 5.33636 0
M  V30 2749 C 261.43 1.80516 4.90114 0
M  V30 2750 H 263.124 1.29121 2.70126 0
M  V30 2751 H 260.67 0.622323 1.29858 0
M  V30 2752 H 262.623 -0.659315 4.1621 0
M  V30 2753 H 261.347 -1.19352 3.04011 0
M  V30 2754 H 260.006 0.874609 3.56014 0
M  V30 2755 H 259.654 -1.22056 4.87966 0
M  V30 2756 H 259.354 0.228497 5.87156 0
M  V30 2757 H 260.878 -0.683072 6.06767 0
M  V30 2758 H 262.292 1.52307 5.52698 0
M  V30 2759 H 260.689 2.3142 5.53683 0
M  V30 2760 H 261.759 2.52581 4.13921 0
M  V30 2761 N 263.102 -1.41638 0.69111 0
M  V30 2762 C 264.518 -1.55435 0.362224 0
M  V30 2763 C 264.718 -1.66754 -1.13117 0
M  V30 2764 O 263.774 -1.64348 -1.91692 0
M  V30 2765 C 265.087 -2.79588 1.10684 0
M  V30 2766 C 266.635 -2.9338 1.09075 0
M  V30 2767 C 267.11 -4.20414 1.81703 0
M  V30 2768 N 268.601 -4.27362 1.7865 0
M  V30 2769 C 269.336 -5.24507 2.31689 0
M  V30 2770 N 268.832 -6.27708 2.93179 0
M  V30 2771 N 270.625 -5.16416 2.2197 0
M  V30 2772 H 262.776 -1.32536 1.65976 0
M  V30 2773 H 265.039 -0.639115 0.700168 0
M  V30 2774 H 264.745 -2.77419 2.16175 0
M  V30 2775 H 264.619 -3.70973 0.682545 0
M  V30 2776 H 267.006 -2.95067 0.0441238 0
M  V30 2777 H 267.087 -2.0318 1.55407 0
M  V30 2778 H 266.731 -4.19488 2.86343 0
M  V30 2779 H 266.661 -5.09578 1.32808 0
M  V30 2780 H 269.152 -3.53415 1.33815 0
M  V30 2781 H 269.465 -6.98217 3.31229 0
M  V30 2782 H 267.81 -6.28223 2.97255 0
M  V30 2783 H 271.001 -4.34716 1.73607 0
M  V30 2784 H 271.174 -5.91958 2.63609 0
M  V30 2785 N 264.58 -0.43555 -1.51462 0
M  V30 2786 C 265.527 0.376797 -2.27703 0
M  V30 2787 C 266.497 1.01838 -1.31219 0
M  V30 2788 O 267.682 1.03762 -1.60119 0
M  V30 2789 C 264.822 1.47301 -3.12084 0
M  V30 2790 C 263.935 0.849744 -4.2356 0
M  V30 2791 C 263.07 1.92086 -4.95254 0
M  V30 2792 C 262.109 1.27593 -5.98654 0
M  V30 2793 N 261.246 2.28833 -6.63762 0
M  V30 2794 H 266.086 -0.279734 -2.96684 0
M  V30 2795 H 263.623 -0.149795 -1.46335 0
M  V30 2796 H 265.581 2.11984 -3.59331 0
M  V30 2797 H 264.211 2.0992 -2.45221 0
M  V30 2798 H 263.263 0.0912529 -3.80291 0
M  V30 2799 H 264.575 0.338878 -4.97648 0
M  V30 2800 H 263.729 2.64435 -5.46039 0
M  V30 2801 H 262.468 2.46545 -4.20793 0
M  V30 2802 H 261.473 0.537893 -5.47162 0
M  V30 2803 H 262.698 0.738693 -6.7507 0
M  V30 2804 H 260.644 2.82375 -5.92115 0
M  V30 2805 H 260.561 1.82632 -7.33608 0
M  V30 2806 H 261.829 3.00671 -7.19178 0
M  V30 2807 N 266.058 1.56714 -0.166846 0
M  V30 2808 C 267.008 2.14338 0.777382 0
M  V30 2809 C 267.992 1.07642 1.19591 0
M  V30 2810 O 269.184 1.33775 1.15902 0
M  V30 2811 C 266.313 2.78417 2.00846 0
M  V30 2812 C 265.399 3.92264 1.61212 0
M  V30 2813 N 265.79 4.97268 0.925104 0
M  V30 2814 C 264.088 4.03342 1.90346 0
M  V30 2815 C 264.789 5.77093 0.730627 0
M  V30 2816 N 263.765 5.2854 1.27067 0
M  V30 2817 H 267.567 2.9289 0.243466 0
M  V30 2818 H 265.081 1.62364 0.0339954 0
M  V30 2819 H 267.078 3.18073 2.69509 0
M  V30 2820 H 265.738 2.01344 2.54736 0
M  V30 2821 H 266.749 5.14601 0.583646 0
M  V30 2822 H 263.426 3.37368 2.45946 0
M  V30 2823 H 264.816 6.71638 0.187668 0
M  V30 2824 N 267.536 -0.106894 1.57237 0
M  V30 2825 C 268.782 -0.808678 1.86633 0
M  V30 2826 C 269.137 -1.76917 0.756178 0
M  V30 2827 O 268.43 -1.90055 -0.242834 0
M  V30 2828 C 268.624 -1.58628 3.20268 0
M  V30 2829 C 268.453 -0.702592 4.44178 0
M  V30 2830 C 267.223 -0.352808 5.04067 0
M  V30 2831 C 269.421 -0.0148031 5.14298 0
M  V30 2832 N 267.403 0.540279 6.11518 0
M  V30 2833 C 268.774 0.736809 6.15606 0
M  V30 2834 C 270.829 0.0603524 4.97863 0
M  V30 2835 C 269.532 1.55654 7.02257 0
M  V30 2836 C 271.558 0.866942 5.85011 0
M  V30 2837 C 270.92 1.60671 6.85831 0
M  V30 2838 H 267.019 -0.27246 0.733001 0
M  V30 2839 H 269.603 -0.0717858 1.94568 0
M  V30 2840 H 267.774 -2.29413 3.13408 0
M  V30 2841 H 269.506 -2.23434 3.3743 0
M  V30 2842 H 266.261 -0.697802 4.68431 0
M  V30 2843 H 266.685 0.979029 6.69884 0
M  V30 2844 H 271.327 -0.497236 4.19866 0
M  V30 2845 H 269.045 2.12524 7.79653 0
M  V30 2846 H 272.631 0.927612 5.74358 0
M  V30 2847 H 271.511 2.2208 7.52097 0
M  V30 2848 N 269.014 -1.53014 -0.377408 0
M  V30 2849 C 270.263 -1.67845 -1.11853 0
M  V30 2850 C 270.576 -0.430625 -1.90801 0
M  V30 2851 O 271.782 -0.459261 -2.67587 0
M  V30 2852 C 270.238 -2.96668 -2.03756 0
M  V30 2853 C 269.846 -4.28671 -1.30175 0
M  V30 2854 C 271.59 -3.20865 -2.77932 0
M  V30 2855 C 269.497 -5.48591 -2.20911 0
M  V30 2856 H 268.427 -0.625343 -0.421263 0
M  V30 2857 H 271.078 -1.79514 -0.380409 0
M  V30 2858 H 269.46 -2.78773 -2.8125 0
M  V30 2859 H 270.634 -4.57157 -0.578259 0
M  V30 2860 H 268.949 -4.10825 -0.679108 0
M  V30 2861 H 271.546 -4.07642 -3.46024 0
M  V30 2862 H 271.889 -2.36424 -3.4265 0
M  V30 2863 H 272.422 -3.39379 -2.07525 0
M  V30 2864 H 269.161 -6.35474 -1.6079 0
M  V30 2865 H 268.681 -5.244 -2.91144 0
M  V30 2866 H 270.36 -5.8292 -2.80736 0
M  V30 2867 N 270.492 0.636531 -1.44174 0
M  V30 2868 C 271.455 1.73063 -1.50273 0
M  V30 2869 C 272.455 1.56113 -0.385397 0
M  V30 2870 O 273.645 1.61707 -0.64781 0
M  V30 2871 C 270.777 3.12096 -1.37145 0
M  V30 2872 H 271.97 1.69031 -2.47727 0
M  V30 2873 H 269.523 0.849706 -1.31186 0
M  V30 2874 H 270.258 3.21728 -0.407636 0
M  V30 2875 H 270.043 3.25805 -2.18159 0
M  V30 2876 H 271.533 3.91846 -1.44382 0
M  V30 2877 N 271.97 1.30982 0.876444 0
M  V30 2878 C 272.918 1.18006 2.00443 0
M  V30 2879 C 273.912 0.0898871 1.69161 0
M  V30 2880 O 275.118 0.251333 1.78237 0
M  V30 2881 H 271.493 0.365196 0.65737 0
M  V30 2882 H 273.464 2.13453 2.0852 0
M  V30 2883 C 272.213 0.897521 3.35916 0
M  V30 2884 H 271.536 1.7285 3.60504 0
M  V30 2885 H 272.976 0.846874 4.15456 0
M  V30 2886 C 271.435 -0.399674 3.34521 0
M  V30 2887 O 271.965 -1.41852 3.7582 0
M  V30 2888 N 270.171 -0.413893 2.87637 0
M  V30 2889 H 269.718 0.41571 2.54224 0
M  V30 2890 H 269.676 -1.28175 2.87086 0
M  V30 2891 N 273.449 -1.08991 1.13837 0
M  V30 2892 C 274.397 -2.17841 0.815347 0
M  V30 2893 C 275.391 -1.68164 -0.204233 0
M  V30 2894 O 276.597 -1.79897 -0.0609304 0
M  V30 2895 H 272.972 -0.710654 0.245915 0
M  V30 2896 H 274.943 -2.42315 1.74143 0
M  V30 2897 C 273.692 -3.46381 0.302614 0
M  V30 2898 H 273.015 -3.84979 1.0785 0
M  V30 2899 H 274.455 -4.23844 0.115074 0
M  V30 2900 C 272.914 -3.22556 -0.972591 0
M  V30 2901 O 273.444 -3.45599 -2.04754 0
M  V30 2902 N 271.65 -2.76134 -0.905455 0
M  V30 2903 H 271.197 -2.57582 -0.0305421 0
M  V30 2904 H 271.155 -2.60571 -1.75926 0
M  V30 2905 N 274.927 -0.932562 -1.27047 0
M  V30 2906 C 275.857 -0.452902 -2.29066 0
M  V30 2907 C 276.838 0.489338 -1.62909 0
M  V30 2908 O 278.023 0.393046 -1.90181 0
M  V30 2909 C 275.153 0.290698 -3.46081 0
M  V30 2910 C 274.107 -0.564168 -4.24265 0
M  V30 2911 C 273.433 0.308886 -5.33807 0
M  V30 2912 C 274.733 -1.83112 -4.89149 0
M  V30 2913 H 276.427 -1.30552 -2.69437 0
M  V30 2914 H 273.973 -0.629201 -1.29526 0
M  V30 2915 H 275.926 0.637233 -4.16554 0
M  V30 2916 H 274.65 1.17738 -3.0464 0
M  V30 2917 H 273.309 -0.893477 -3.55545 0
M  V30 2918 H 272.957 1.19467 -4.88607 0
M  V30 2919 H 272.657 -0.259633 -5.87026 0
M  V30 2920 H 274.181 0.650884 -6.07121 0
M  V30 2921 H 275.595 -1.55236 -5.51883 0
M  V30 2922 H 273.992 -2.34353 -5.52448 0
M  V30 2923 H 275.062 -2.54772 -4.12576 0
M  V30 2924 N 276.405 1.4127 -0.698611 0
M  V30 2925 C 277.652 2.0118 -0.230865 0
M  V30 2926 C 277.98 1.55338 1.17049 0
M  V30 2927 O 277.235 0.756775 1.80475 0
M  V30 2928 C 277.534 3.56592 -0.240192 0
M  V30 2929 C 277.2 4.21955 -1.58948 0
M  V30 2930 C 275.862 4.39524 -1.95887 0
M  V30 2931 C 278.214 4.58576 -2.47704 0
M  V30 2932 C 275.542 4.90992 -3.2116 0
M  V30 2933 C 277.894 5.11435 -3.72313 0
M  V30 2934 C 276.558 5.27215 -4.0939 0
M  V30 2935 H 275.828 0.736169 -0.0844796 0
M  V30 2936 H 278.475 1.69124 -0.8983 0
M  V30 2937 H 276.78 3.88456 0.510797 0
M  V30 2938 H 278.477 4.00758 0.139296 0
M  V30 2939 H 275.067 4.08657 -1.29219 0
M  V30 2940 H 279.251 4.44654 -2.20445 0
M  V30 2941 H 274.507 5.01393 -3.49878 0
M  V30 2942 H 278.681 5.38752 -4.4127 0
M  V30 2943 H 276.308 5.66859 -5.06533 0
M  V30 2944 N 277.883 0.443576 1.51229 0
M  V30 2945 C 279.131 -0.120557 2.0174 0
M  V30 2946 C 279.452 -1.42665 1.32935 0
M  V30 2947 O 278.722 -1.9028 0.465866 0
M  V30 2948 H 277.302 -0.0475426 0.745486 0
M  V30 2949 H 279.964 0.587711 1.85828 0
M  V30 2950 H 279.06 -0.291972 3.10731 0
M  V30 2951 N 279.361 -1.56624 0.175154 0
M  V30 2952 C 280.291 -2.21155 -0.749195 0
M  V30 2953 C 281.272 -1.16836 -1.23626 0
M  V30 2954 O 282.457 -1.45277 -1.28873 0
M  V30 2955 C 279.587 -2.8553 -1.97711 0
M  V30 2956 C 278.541 -3.95921 -1.62575 0
M  V30 2957 C 277.867 -4.47365 -2.92864 0
M  V30 2958 C 279.167 -5.15323 -0.850838 0
M  V30 2959 H 280.861 -2.98653 -0.211295 0
M  V30 2960 H 278.407 -1.43651 -0.100188 0
M  V30 2961 H 280.36 -3.2935 -2.62881 0
M  V30 2962 H 279.084 -2.05406 -2.53921 0
M  V30 2963 H 277.743 -3.52762 -0.997719 0
M  V30 2964 H 277.391 -3.64027 -3.47122 0
M  V30 2965 H 277.091 -5.21839 -2.70106 0
M  V30 2966 H 278.615 -4.93873 -3.59056 0
M  V30 2967 H 280.029 -5.55812 -1.40521 0
M  V30 2968 H 278.426 -5.95739 -0.722154 0
M  V30 2969 H 279.496 -4.84661 0.152082 0
M  V30 2970 N 280.839 0.0985539 -1.57292 0
M  V30 2971 C 281.802 1.10402 -2.00858 0
M  V30 2972 C 282.802 1.33146 -0.901593 0
M  V30 2973 O 283.992 1.29318 -1.16716 0
M  V30 2974 C 281.124 2.45394 -2.36632 0
M  V30 2975 H 282.317 0.729099 -2.90902 0
M  V30 2976 H 279.87 0.343495 -1.52479 0
M  V30 2977 H 280.605 2.87769 -1.49531 0
M  V30 2978 H 280.39 2.30235 -3.17387 0
M  V30 2979 H 281.88 3.17718 -2.71007 0
M  V30 2980 N 282.317 1.53212 0.369288 0
M  V30 2981 C 283.564 1.69215 1.11232 0
M  V30 2982 C 283.892 0.442048 1.8941 0
M  V30 2983 O 283.147 -0.575944 1.87033 0
M  V30 2984 C 283.446 2.89101 2.10132 0
M  V30 2985 C 283.112 4.25758 1.48463 0
M  V30 2986 C 281.774 4.6292 1.31372 0
M  V30 2987 C 284.126 5.10757 1.03811 0
M  V30 2988 C 281.454 5.82722 0.68207 0
M  V30 2989 C 283.806 6.31201 0.420487 0
M  V30 2990 C 282.47 6.67079 0.237038 0
M  V30 2991 H 281.74 0.619201 0.407027 0
M  V30 2992 H 284.387 1.87391 0.394552 0
M  V30 2993 H 282.692 2.65421 2.88199 0
M  V30 2994 H 284.389 2.98676 2.6757 0
M  V30 2995 H 280.979 3.96494 1.62758 0
M  V30 2996 H 285.163 4.82599 1.1581 0
M  V30 2997 H 280.419 6.09113 0.528316 0
M  V30 2998 H 284.593 6.96368 0.0662874 0
M  V30 2999 H 282.22 7.59774 -0.254477 0
M  V30 3000 N 283.795 -0.628877 1.44509 0
M  V30 3001 C 285.02 -1.42048 1.5112 0
M  V30 3002 C 285.445 -1.87594 0.137818 0
M  V30 3003 O 284.803 -1.58873 -0.873437 0
M  V30 3004 C 284.851 -2.61541 2.48251 0
M  V30 3005 O 283.955 -3.61453 1.98559 0
M  V30 3006 H 283.296 -0.424942 0.510216 0
M  V30 3007 H 285.826 -0.767374 1.89664 0
M  V30 3008 H 285.836 -3.09057 2.66361 0
M  V30 3009 H 284.511 -2.27736 3.48007 0
M  V30 3010 H 283.088 -3.20731 1.90227 0
M  V30 3011 N 285.273 -1.31445 -0.869486 0
M  V30 3012 C 286.203 -1.21727 -1.99261 0
M  V30 3013 C 287.184 -0.104359 -1.6978 0
M  V30 3014 O 288.369 -0.289038 -1.92037 0
M  V30 3015 C 285.499 -0.924317 -3.34774 0
M  V30 3016 C 284.453 -1.99685 -3.78563 0
M  V30 3017 C 283.779 -1.55658 -5.11541 0
M  V30 3018 C 285.079 -3.41003 -3.95619 0
M  V30 3019 H 286.773 -2.1569 -2.07649 0
M  V30 3020 H 284.319 -1.03839 -0.997675 0
M  V30 3021 H 286.272 -0.842934 -4.12883 0
M  V30 3022 H 284.996 0.0509793 -3.2656 0
M  V30 3023 H 283.655 -2.06813 -3.02694 0
M  V30 3024 H 283.303 -0.569132 -4.9977 0
M  V30 3025 H 283.003 -2.27409 -5.41811 0
M  V30 3026 H 284.527 -1.48928 -5.92159 0
M  V30 3027 H 285.941 -3.36547 -4.64122 0
M  V30 3028 H 284.338 -4.10975 -4.37286 0
M  V30 3029 H 285.408 -3.81754 -2.98985 0
M  V30 3030 N 286.751 1.08385 -1.14413 0
M  V30 3031 C 287.699 2.17406 -0.826888 0
M  V30 3032 C 288.693 1.6827 0.195312 0
M  V30 3033 O 289.899 1.79927 0.0513892 0
M  V30 3034 H 286.274 0.70934 -0.249681 0
M  V30 3035 H 288.245 2.41388 -1.75426 0
M  V30 3036 C 286.994 3.46215 -0.320979 0
M  V30 3037 H 286.317 3.84401 -1.0989 0
M  V30 3038 H 287.757 4.23777 -0.137549 0
M  V30 3039 C 286.216 3.23067 0.955472 0
M  V30 3040 O 286.746 3.4668 2.02918 0
M  V30 3041 N 284.952 2.7661 0.890798 0
M  V30 3042 H 284.499 2.57594 0.0168815 0
M  V30 3043 H 284.457 2.61501 1.74542 0
M  V30 3044 N 288.23 0.939286 1.26551 0
M  V30 3045 C 289.478 0.58469 1.93457 0
M  V30 3046 C 289.799 -0.878774 1.74076 0
M  V30 3047 O 289.069 -1.62421 1.09528 0
M  V30 3048 H 287.649 0.21325 0.715914 0
M  V30 3049 H 290.311 1.1942 1.54029 0
M  V30 3050 H 289.407 0.800849 3.0165 0
M  V30 3051 N 289.708 -1.40897 0.706093 0
M  V30 3052 C 290.954 -2.01352 0.241889 0
M  V30 3053 C 291.287 -1.55832 -1.15888 0
M  V30 3054 O 290.562 -0.774145 -1.7843 0
M  V30 3055 C 290.845 -3.58752 0.311311 0
M  V30 3056 C 290.698 -4.1437 1.74978 0
M  V30 3057 C 292.017 -4.38914 -0.322922 0
M  V30 3058 H 289.136 -0.731562 0.0893687 0
M  V30 3059 H 291.778 -1.67504 0.896802 0
M  V30 3060 H 289.928 -3.87718 -0.246302 0
M  V30 3061 H 291.6 -3.96239 2.36205 0
M  V30 3062 H 289.843 -3.69016 2.28057 0
M  V30 3063 H 290.514 -5.23532 1.74981 0
M  V30 3064 H 292.99 -4.15822 0.152089 0
M  V30 3065 H 291.866 -5.48358 -0.243855 0
M  V30 3066 H 292.127 -4.19176 -1.40513 0
M  V30 3067 N 291.186 -0.45159 -1.50991 0
M  V30 3068 C 292.096 0.358431 -2.31846 0
M  V30 3069 C 293.112 1.01438 -1.41373 0
M  V30 3070 O 294.288 1.00663 -1.74439 0
M  V30 3071 C 291.353 1.43704 -3.15515 0
M  V30 3072 C 290.414 0.799742 -4.21785 0
M  V30 3073 C 289.647 1.82696 -5.01456 0
M  V30 3074 O 289.87 3.05105 -4.81941 0
M  V30 3075 O 288.804 1.40958 -5.85162 0
M  V30 3076 H 292.63 -0.302032 -3.02194 0
M  V30 3077 H 290.215 -0.213825 -1.47862 0
M  V30 3078 H 292.097 2.06227 -3.67489 0
M  V30 3079 H 290.772 2.08133 -2.47916 0
M  V30 3080 H 289.679 0.136084 -3.73852 0
M  V30 3081 H 291.012 0.198718 -4.91799 0
M  V30 3082 N 292.664 1.56529 -0.183458 0
M  V30 3083 C 293.594 2.21549 0.737456 0
M  V30 3084 C 294.575 1.17489 1.23005 0
M  V30 3085 O 295.76 1.45959 1.281 0
M  V30 3086 C 292.89 2.86575 1.96194 0
M  V30 3087 C 291.844 3.96778 1.60473 0
M  V30 3088 C 291.17 4.48911 2.90487 0
M  V30 3089 C 292.47 5.15767 0.823497 0
M  V30 3090 H 294.164 2.98761 0.195453 0
M  V30 3091 H 291.71 1.43702 0.0925686 0
M  V30 3092 H 293.663 3.30739 2.61131 0
M  V30 3093 H 292.387 2.06749 2.52828 0
M  V30 3094 H 291.046 3.53286 0.978997 0
M  V30 3095 H 290.694 3.65862 3.45186 0
M  V30 3096 H 290.394 5.23265 2.67335 0
M  V30 3097 H 291.918 4.95771 3.56432 0
M  V30 3098 H 293.332 5.56549 1.37571 0
M  V30 3099 H 291.729 5.96114 0.690551 0
M  V30 3100 H 292.799 4.84574 -0.177782 0
M  V30 3101 N 294.142 -0.090211 1.57342 0
M  V30 3102 C 295.072 -1.10976 2.05443 0
M  V30 3103 C 296.053 -1.41482 0.944284 0
M  V30 3104 O 297.238 -1.51428 1.21586 0
M  V30 3105 C 294.368 -2.42831 2.48295 0
M  V30 3106 C 293.322 -2.26721 3.63018 0
M  V30 3107 C 292.648 -3.63796 3.91863 0
M  V30 3108 C 293.948 -1.7037 4.93732 0
M  V30 3109 H 295.642 -0.709564 2.9087 0
M  V30 3110 H 293.188 -0.339874 1.39932 0
M  V30 3111 H 295.141 -3.14431 2.80555 0
M  V30 3112 H 293.865 -2.84795 1.59873 0
M  V30 3113 H 292.524 -1.57565 3.31012 0
M  V30 3114 H 292.172 -4.03297 3.00601 0
M  V30 3115 H 291.872 -3.53861 4.69101 0
M  V30 3116 H 293.396 -4.36855 4.26603 0
M  V30 3117 H 294.81 -2.31816 5.24342 0
M  V30 3118 H 293.207 -1.71181 5.75167 0
M  V30 3119 H 294.277 -0.663542 4.80339 0
M  V30 3120 N 295.62 -1.53406 -0.361157 0
M  V30 3121 C 296.57 -1.76536 -1.44287 0
M  V30 3122 C 297.554 -0.620019 -1.48474 0
M  V30 3123 O 298.746 -0.878834 -1.53641 0
M  V30 3124 C 295.875 -1.96266 -2.81664 0
M  V30 3125 C 294.961 -3.16815 -2.81938 0
M  V30 3126 N 295.352 -4.38637 -2.51855 0
M  V30 3127 C 293.65 -3.17627 -3.13096 0
M  V30 3128 C 294.351 -5.20401 -2.59919 0
M  V30 3129 N 293.327 -4.56712 -2.94814 0
M  V30 3130 H 297.129 -2.68331 -1.19899 0
M  V30 3131 H 294.643 -1.52091 -0.56938 0
M  V30 3132 H 296.64 -2.10966 -3.59582 0
M  V30 3133 H 295.3 -1.05702 -3.07013 0
M  V30 3134 H 296.311 -4.66293 -2.25369 0
M  V30 3135 H 292.988 -2.36971 -3.43731 0
M  V30 3136 H 294.378 -6.27586 -2.39969 0
M  V30 3137 N 297.098 0.621204 -1.44841 0
M  V30 3138 C 298.028 1.74366 -1.55303 0
M  V30 3139 C 299.009 1.65199 -0.405385 0
M  V30 3140 O 300.194 1.83807 -0.626787 0
M  V30 3141 C 297.324 3.12931 -1.50637 0
M  V30 3142 C 296.278 3.36896 -2.63979 0
M  V30 3143 C 295.604 4.75594 -2.44366 0
M  V30 3144 C 296.904 3.28483 -4.06074 0
M  V30 3145 H 298.598 1.65867 -2.49256 0
M  V30 3146 H 296.144 0.796558 -1.19962 0
M  V30 3147 H 298.097 3.9124 -1.56555 0
M  V30 3148 H 296.821 3.22237 -0.532057 0
M  V30 3149 H 295.48 2.60972 -2.57467 0
M  V30 3150 H 295.128 4.81616 -1.45105 0
M  V30 3151 H 294.828 4.92586 -3.20364 0
M  V30 3152 H 296.352 5.5612 -2.52117 0
M  V30 3153 H 297.766 3.96684 -4.13902 0
M  V30 3154 H 296.163 3.57008 -4.82354 0
M  V30 3155 H 297.233 2.26133 -4.28943 0
M  V30 3156 N 298.576 1.31904 0.862503 0
M  V30 3157 C 299.524 1.20125 1.9918 0
M  V30 3158 C 300.518 0.107824 1.69056 0
M  V30 3159 O 301.724 0.270223 1.7796 0
M  V30 3160 H 298.099 0.372148 0.65346 0
M  V30 3161 H 300.07 2.15652 2.06244 0
M  V30 3162 C 298.819 0.933099 3.34946 0
M  V30 3163 H 298.142 1.76664 3.5865 0
M  V30 3164 H 299.582 0.890892 4.14535 0
M  V30 3165 C 298.041 -0.364172 3.34926 0
M  V30 3166 O 298.571 -1.37858 3.77304 0
M  V30 3167 N 296.777 -0.383362 2.8806 0
M  V30 3168 H 296.324 0.442651 2.53768 0
M  V30 3169 H 296.282 -1.25123 2.8843 0
M  V30 3170 N 300.054 -1.07777 1.14986 0
M  V30 3171 C 301.002 -2.16964 0.838406 0
M  V30 3172 C 301.996 -1.68372 -0.186386 0
M  V30 3173 O 303.202 -1.79951 -0.0418465 0
M  V30 3174 H 299.577 -0.708006 0.253439 0
M  V30 3175 H 301.548 -2.40454 1.76704 0
M  V30 3176 C 300.297 -3.4604 0.339335 0
M  V30 3177 H 299.62 -3.83813 1.11927 0
M  V30 3178 H 301.06 -4.23698 0.160021 0
M  V30 3179 C 299.519 -3.23569 -0.938325 0
M  V30 3180 O 300.049 -3.47752 -2.01077 0
M  V30 3181 N 298.255 -2.77079 -0.876117 0
M  V30 3182 H 297.802 -2.576 -0.00322037 0
M  V30 3183 H 297.76 -2.62422 -1.73153 0
M  V30 3184 N 301.532 -0.945985 -1.26051 0
M  V30 3185 C 302.778 -0.597002 -1.93814 0
M  V30 3186 C 303.111 0.862484 -1.73997 0
M  V30 3187 O 302.386 1.61769 -1.07986 0
M  V30 3188 C 302.669 -0.945937 -3.47454 0
M  V30 3189 C 302.522 -2.46052 -3.76535 0
M  V30 3190 C 303.841 -0.464785 -4.37639 0
M  V30 3191 H 300.96 -0.218366 -0.703907 0
M  V30 3192 H 303.602 -1.18107 -1.48831 0
M  V30 3193 H 301.752 -0.448902 -3.85898 0
M  V30 3194 H 303.424 -3.03065 -3.47778 0
M  V30 3195 H 301.667 -2.90194 -3.22444 0
M  V30 3196 H 302.338 -2.65517 -4.83947 0
M  V30 3197 H 304.814 -0.891016 -4.06448 0
M  V30 3198 H 303.69 -0.737712 -5.4392 0
M  V30 3199 H 303.951 0.635274 -4.37512 0
M  V30 3200 N 303.011 1.40521 -0.713556 0
M  V30 3201 C 304.236 2.05759 -0.26035 0
M  V30 3202 C 304.661 1.53403 1.08854 0
M  V30 3203 O 304.019 0.668535 1.68524 0
M  V30 3204 C 304.067 3.59745 -0.248122 0
M  V30 3205 O 303.171 4.05123 0.77131 0
M  V30 3206 H 302.512 0.652564 -0.122703 0
M  V30 3207 H 305.042 1.79958 -0.973467 0
M  V30 3208 H 305.052 4.07911 -0.0851129 0
M  V30 3209 H 303.727 3.97218 -1.2325 0
M  V30 3210 H 302.304 3.68422 0.57619 0
M  V30 3211 N 304.489 0.459591 1.5075 0
M  V30 3212 C 305.717 -0.0973749 2.06671 0
M  V30 3213 C 306.132 -1.34524 1.32472 0
M  V30 3214 O 305.489 -1.7827 0.390634 0
M  V30 3215 C 305.54 -0.39714 3.59312 0
M  V30 3216 O 305.261 0.801214 4.30711 0
M  V30 3217 C 306.762 -1.00234 4.31819 0
M  V30 3218 H 303.982 0.00195854 0.670997 0
M  V30 3219 H 306.526 0.645072 1.94059 0
M  V30 3220 H 304.681 -1.08951 3.71764 0
M  V30 3221 H 305.095 0.538857 5.21725 0
M  V30 3222 H 306.569 -1.16193 5.39632 0
M  V30 3223 H 307.046 -1.98939 3.91561 0
M  V30 3224 H 307.652 -0.348699 4.23868 0
M  V30 3225 N 305.967 -1.56429 0.191757 0
M  V30 3226 C 307.215 -1.97095 -0.447006 0
M  V30 3227 C 307.536 -1.07967 -1.62383 0
M  V30 3228 O 306.806 -0.150248 -1.95323 0
M  V30 3229 H 305.386 -0.727832 -0.168135 0
M  V30 3230 H 308.048 -1.92911 0.27771 0
M  V30 3231 H 307.144 -3.01848 -0.793371 0
M  V30 3232 N 307.445 0.0818655 -1.57387 0
M  V30 3233 C 308.685 0.788375 -1.88584 0
M  V30 3234 C 309.049 1.75248 -0.784351 0
M  V30 3235 O 310.25 2.50334 -0.979105 0
M  V30 3236 C 308.521 1.48654 -3.25018 0
M  V30 3237 S 310.08 2.22951 -3.7794 0
M  V30 3238 H 306.898 0.262383 -0.660815 0
M  V30 3239 H 309.5 0.0448995 -1.95448 0
M  V30 3240 H 308.204 0.770919 -4.03094 0
M  V30 3241 H 307.735 2.26965 -3.21326 0
M  V30 3242 H 309.75 3.49309 -3.52417 0
M  V30 3243 N 308.923 1.53595 0.353017 0
M  V30 3244 C 310.172 1.69603 1.09168 0
M  V30 3245 C 310.485 0.460925 1.90092 0
M  V30 3246 O 311.691 0.501774 2.66823 0
M  V30 3247 C 310.147 2.99872 1.9901 0
M  V30 3248 C 309.755 4.30687 1.23339 0
M  V30 3249 C 311.499 3.25246 2.72792 0
M  V30 3250 C 309.406 5.52036 2.12156 0
M  V30 3251 H 308.336 0.631966 0.411261 0
M  V30 3252 H 310.987 1.80096 0.351802 0
M  V30 3253 H 309.369 2.83212 2.7678 0
M  V30 3254 H 310.543 4.58019 0.505456 0
M  V30 3255 H 308.858 4.11853 0.613663 0
M  V30 3256 H 311.455 4.13095 3.39495 0
M  V30 3257 H 311.798 2.41846 3.38846 0
M  V30 3258 H 312.331 3.42638 2.021 0
M  V30 3259 H 309.07 6.37951 1.50659 0
M  V30 3260 H 308.59 5.28966 2.82764 0
M  V30 3261 H 310.269 5.87313 2.71427 0
M  V30 3262 N 310.401 -0.613514 1.45168 0
M  V30 3263 C 311.331 -1.7354 1.56225 0
M  V30 3264 C 312.312 -1.64981 0.41414 0
M  V30 3265 O 313.497 -1.83472 0.636526 0
M  V30 3266 C 310.627 -3.12128 1.52295 0
M  V30 3267 C 309.581 -3.35491 2.65762 0
M  V30 3268 C 308.907 -4.74291 2.46885 0
M  V30 3269 C 310.207 -3.26325 4.0781 0
M  V30 3270 H 311.901 -1.64543 2.50132 0
M  V30 3271 H 309.447 -0.790185 1.20383 0
M  V30 3272 H 311.4 -3.90404 1.58628 0
M  V30 3273 H 310.124 -3.2195 0.549139 0
M  V30 3274 H 308.783 -2.59603 2.58847 0
M  V30 3275 H 308.431 -4.80839 1.47657 0
M  V30 3276 H 308.131 -4.9088 3.22972 0
M  V30 3277 H 309.655 -5.54775 2.55063 0
M  V30 3278 H 311.069 -3.94483 4.16 0
M  V30 3279 H 309.466 -3.54445 4.8424 0
M  V30 3280 H 310.536 -2.23855 4.30136 0
M  V30 3281 N 311.879 -1.3236 -0.855495 0
M  V30 3282 C 312.809 -1.23833 -1.97958 0
M  V30 3283 C 313.79 -0.122361 -1.69659 0
M  V30 3284 O 314.975 -0.30939 -1.9172 0
M  V30 3285 C 312.105 -0.959772 -3.33775 0
M  V30 3286 C 311.059 -2.03689 -3.76424 0
M  V30 3287 C 310.385 -1.61075 -5.09862 0
M  V30 3288 C 311.685 -3.4518 -3.9198 0
M  V30 3289 H 313.379 -2.1788 -2.0535 0
M  V30 3290 H 310.925 -1.04891 -0.986605 0
M  V30 3291 H 312.878 -0.886678 -4.11966 0
M  V30 3292 H 311.602 0.0163404 -3.26596 0
M  V30 3293 H 310.261 -2.10012 -3.00484 0
M  V30 3294 H 309.909 -0.622107 -4.99138 0
M  V30 3295 H 309.609 -2.33143 -5.39368 0
M  V30 3296 H 311.133 -1.55201 -5.90546 0
M  V30 3297 H 312.547 -3.4145 -4.60526 0
M  V30 3298 H 310.944 -4.1559 -4.32903 0
M  V30 3299 H 312.014 -3.84903 -2.94919 0
M  V30 3300 N 313.357 1.07166 -1.15556 0
M  V30 3301 C 314.605 1.79443 -0.929764 0
M  V30 3302 C 314.926 1.87246 0.544414 0
M  V30 3303 O 314.196 1.37473 1.39564 0
M  V30 3304 H 312.776 0.664625 -0.341003 0
M  V30 3305 H 315.438 1.29499 -1.45657 0
M  V30 3306 H 314.534 2.81832 -1.34079 0
M  V30 3307 N 314.835 0.952656 1.25548 0
M  V30 3308 C 316.083 0.605176 1.92826 0
M  V30 3309 C 316.404 -0.860261 1.74999 0
M  V30 3310 O 315.674 -1.6125 1.11244 0
M  V30 3311 H 314.254 0.220832 0.713612 0
M  V30 3312 H 316.916 1.21047 1.52754 0
M  V30 3313 H 316.012 0.832798 3.00784 0
M  V30 3314 N 316.313 -1.40141 0.720998 0
M  V30 3315 C 317.243 -2.33339 0.0867621 0
M  V30 3316 C 318.224 -1.53178 -0.739622 0
M  V30 3317 O 319.409 -1.81625 -0.687449 0
M  V30 3318 C 316.539 -3.37194 -0.831728 0
M  V30 3319 C 315.493 -4.27857 -0.110558 0
M  V30 3320 C 314.819 -5.22294 -1.14513 0
M  V30 3321 C 316.119 -5.11872 1.0385 0
M  V30 3322 H 317.813 -2.86626 0.865219 0
M  V30 3323 H 315.359 -1.37814 0.417516 0
M  V30 3324 H 317.312 -4.01335 -1.28485 0
M  V30 3325 H 316.036 -2.82314 -1.64214 0
M  V30 3326 H 314.695 -3.65176 0.322797 0
M  V30 3327 H 314.343 -4.63717 -1.94874 0
M  V30 3328 H 314.043 -5.83797 -0.667446 0
M  V30 3329 H 315.567 -5.89312 -1.59824 0
M  V30 3330 H 316.981 -5.69436 0.664482 0
M  V30 3331 H 315.378 -5.82445 1.4449 0
M  V30 3332 H 316.448 -4.4753 1.86668 0
M  V30 3333 N 317.792 -0.46758 -1.50504 0
M  V30 3334 C 319.039 0.0886219 -2.02306 0
M  V30 3335 C 319.367 1.40037 -1.34981 0
M  V30 3336 O 318.622 1.90136 -0.463318 0
M  V30 3337 C 318.921 0.323995 -3.55928 0
M  V30 3338 C 318.587 -0.905618 -4.41712 0
M  V30 3339 C 317.249 -1.24275 -4.64875 0
M  V30 3340 C 319.601 -1.72448 -4.91845 0
M  V30 3341 C 316.929 -2.39888 -5.35417 0
M  V30 3342 C 319.281 -2.87185 -5.63656 0
M  V30 3343 C 317.945 -3.21317 -5.85074 0
M  V30 3344 H 317.215 0.0324291 -0.74029 0
M  V30 3345 H 319.862 -0.620945 -1.81153 0
M  V30 3346 H 318.167 1.11577 -3.75577 0
M  V30 3347 H 319.864 0.76826 -3.93572 0
M  V30 3348 H 316.454 -0.632956 -4.239 0
M  V30 3349 H 320.638 -1.4772 -4.73806 0
M  V30 3350 H 315.894 -2.66611 -5.50208 0
M  V30 3351 H 320.068 -3.50985 -6.01484 0
M  V30 3352 H 317.695 -4.1101 -6.39511 0
M  V30 3353 N 319.27 1.56325 -0.20005 0
M  V30 3354 C 320.519 1.96895 0.437652 0
M  V30 3355 C 320.832 1.08999 1.62415 0
M  V30 3356 O 322.038 1.39372 2.32997 0
M  V30 3357 C 320.494 3.50198 0.830025 0
M  V30 3358 C 320.102 4.46765 -0.332461 0
M  V30 3359 C 321.846 3.99526 1.43453 0
M  V30 3360 C 319.753 5.91344 0.0811468 0
M  V30 3361 H 318.683 0.735209 0.167282 0
M  V30 3362 H 321.334 1.81148 -0.292853 0
M  V30 3363 H 319.716 3.61467 1.61734 0
M  V30 3364 H 320.89 4.47231 -1.11 0
M  V30 3365 H 319.205 4.07657 -0.848789 0
M  V30 3366 H 321.802 5.05025 1.75652 0
M  V30 3367 H 322.145 3.44122 2.34277 0
M  V30 3368 H 322.678 3.91393 0.71109 0
M  V30 3369 H 319.417 6.50685 -0.793033 0
M  V30 3370 H 318.937 5.94121 0.823445 0
M  V30 3371 H 320.616 6.44945 0.515252 0
M  V30 3372 N 320.748 -0.0735177 1.57428 0
M  V30 3373 C 321.978 -0.78483 1.91112 0
M  V30 3374 C 322.386 -1.71729 0.7941 0
M  V30 3375 O 321.729 -1.82105 -0.241542 0
M  V30 3376 C 321.791 -1.63346 3.20247 0
M  V30 3377 C 321.455 -0.870557 4.48632 0
M  V30 3378 C 322.452 -0.19058 5.19551 0
M  V30 3379 C 320.137 -0.838242 4.95256 0
M  V30 3380 C 322.131 0.511503 6.35344 0
M  V30 3381 C 319.818 -0.132386 6.10957 0
M  V30 3382 C 320.816 0.541288 6.80852 0
M  V30 3383 O 320.504 1.23578 7.94345 0
M  V30 3384 H 320.236 -0.228408 0.636244 0
M  V30 3385 H 322.79 -0.0486039 2.05342 0
M  V30 3386 H 321.02 -2.41245 3.02222 0
M  V30 3387 H 322.709 -2.22329 3.39595 0
M  V30 3388 H 323.475 -0.206864 4.84559 0
M  V30 3389 H 319.354 -1.35206 4.40727 0
M  V30 3390 H 322.898 1.03789 6.89836 0
M  V30 3391 H 318.795 -0.114023 6.45399 0
M  V30 3392 H 319.563 1.14487 8.10454 0
M  V30 3393 N 322.226 -1.5378 -0.344866 0
M  V30 3394 C 323.503 -1.61589 -1.10219 0
M  V30 3395 C 323.883 -0.436316 -2.06542 0
M  V30 3396 O 323.231 0.571543 -2.21237 0
M  V30 3397 C 323.441 -2.97602 -1.82301 0
M  V30 3398 C 324.789 -3.5291 -2.36093 0
M  V30 3399 O 325.813 -2.99768 -1.924 0
M  V30 3400 O 324.672 -4.45859 -3.16026 0
M  V30 3401 H 321.766 -0.653522 -0.506792 0
M  V30 3402 H 324.312 -1.66126 -0.346465 0
M  V30 3403 H 323.084 -3.74893 -1.12121 0
M  V30 3404 H 322.707 -2.9665 -2.64735 0
M  V30 3405 N 323.704 0.605807 -1.45491 0
M  V30 3406 C 324.95 1.36679 -1.49823 0
M  V30 3407 C 325.283 1.93693 -0.140175 0
M  V30 3408 O 324.558 1.75158 0.845581 0
M  V30 3409 C 324.841 2.51337 -2.57879 0
M  V30 3410 C 324.694 1.99508 -4.03134 0
M  V30 3411 C 326.013 3.53463 -2.62205 0
M  V30 3412 H 323.132 0.495617 -0.545466 0
M  V30 3413 H 325.774 0.682732 -1.7731 0
M  V30 3414 H 323.924 3.09691 -2.34571 0
M  V30 3415 H 325.596 1.45789 -4.37656 0
M  V30 3416 H 323.839 1.30496 -4.13707 0
M  V30 3417 H 324.51 2.82169 -4.74431 0
M  V30 3418 H 326.986 3.04953 -2.83095 0
M  V30 3419 H 325.862 4.31178 -3.39672 0
M  V30 3420 H 326.123 4.09197 -1.67363 0
M  V30 3421 N 325.182 1.32811 0.848464 0
M  V30 3422 C 326.429 1.23724 1.60308 0
M  V30 3423 C 326.757 -0.1994 1.93475 0
M  V30 3424 O 326.012 -1.15406 1.5805 0
M  V30 3425 C 326.311 2.04831 2.92881 0
M  V30 3426 C 325.977 3.54125 2.79117 0
M  V30 3427 C 324.639 3.94829 2.7507 0
M  V30 3428 C 326.991 4.49036 2.64606 0
M  V30 3429 C 324.319 5.28675 2.544 0
M  V30 3430 C 326.671 5.83033 2.4547 0
M  V30 3431 C 325.335 6.22931 2.39819 0
M  V30 3432 H 324.605 0.452737 0.586609 0
M  V30 3433 H 327.252 1.64301 0.983743 0
M  V30 3434 H 325.557 1.57001 3.58968 0
M  V30 3435 H 327.254 1.95164 3.50303 0
M  V30 3436 H 323.844 3.21801 2.83094 0
M  V30 3437 H 328.028 4.18505 2.66772 0
M  V30 3438 H 323.284 5.58637 2.48465 0
M  V30 3439 H 327.458 6.56186 2.33222 0
M  V30 3440 H 325.085 7.26584 2.23562 0
M  V30 3441 N 326.66 -1.06551 1.16123 0
M  V30 3442 C 327.906 -1.79719 0.952505 0
M  V30 3443 C 328.261 -1.85396 -0.514385 0
M  V30 3444 O 327.554 -1.33263 -1.37665 0
M  V30 3445 C 327.748 -3.23911 1.51052 0
M  V30 3446 C 327.577 -3.32284 3.03013 0
M  V30 3447 C 326.347 -3.42371 3.71632 0
M  V30 3448 C 328.545 -3.22363 4.00732 0
M  V30 3449 N 326.527 -3.39732 5.11327 0
M  V30 3450 C 327.898 -3.26937 5.26794 0
M  V30 3451 C 329.953 -3.0623 3.92591 0
M  V30 3452 C 328.656 -3.17035 6.45663 0
M  V30 3453 C 330.682 -2.97665 5.11028 0
M  V30 3454 C 330.044 -3.02858 6.35969 0
M  V30 3455 H 326.143 -0.670585 0.402293 0
M  V30 3456 H 328.727 -1.27125 1.4747 0
M  V30 3457 H 326.898 -3.74907 1.01484 0
M  V30 3458 H 328.63 -3.85242 1.2398 0
M  V30 3459 H 325.385 -3.47058 3.22254 0
M  V30 3460 H 325.809 -3.41919 5.84312 0
M  V30 3461 H 330.451 -3.01063 2.96852 0
M  V30 3462 H 328.169 -3.2096 7.41627 0
M  V30 3463 H 331.755 -2.86273 5.06497 0
M  V30 3464 H 330.635 -2.96286 7.26075 0
M  V30 3465 N 328.138 -0.959301 -1.25041 0
M  V30 3466 C 329.384 -0.617525 -1.9317 0
M  V30 3467 C 329.717 0.843981 -1.74902 0
M  V30 3468 O 328.992 1.60615 -1.09696 0
M  V30 3469 C 329.275 -0.982736 -3.46431 0
M  V30 3470 C 329.128 -2.50032 -3.73904 0
M  V30 3471 C 330.447 -0.511176 -4.37121 0
M  V30 3472 H 327.566 -0.22582 -0.701552 0
M  V30 3473 H 330.208 -1.19679 -1.4757 0
M  V30 3474 H 328.358 -0.489806 -3.854 0
M  V30 3475 H 330.03 -3.06737 -3.44544 0
M  V30 3476 H 328.273 -2.93598 -3.19348 0
M  V30 3477 H 328.944 -2.70635 -4.81103 0
M  V30 3478 H 331.42 -0.934075 -4.0548 0
M  V30 3479 H 330.296 -0.795361 -5.43107 0
M  V30 3480 H 330.557 0.588834 -4.38161 0
M  V30 3481 N 329.616 1.39756 -0.72842 0
M  V30 3482 C 330.863 2.00645 -0.273487 0
M  V30 3483 C 331.191 1.57786 1.13727 0
M  V30 3484 O 330.446 0.794886 1.7883 0
M  V30 3485 C 330.745 3.56002 -0.315776 0
M  V30 3486 C 330.411 4.18489 -1.67863 0
M  V30 3487 C 329.073 4.3527 -2.05166 0
M  V30 3488 C 331.425 4.53219 -2.57375 0
M  V30 3489 C 328.753 4.84069 -3.31503 0
M  V30 3490 C 331.105 5.03423 -3.83077 0
M  V30 3491 C 329.769 5.18413 -4.20481 0
M  V30 3492 H 329.039 0.734211 -0.100076 0
M  V30 3493 H 331.686 1.6718 -0.933972 0
M  V30 3494 H 329.991 3.89452 0.428285 0
M  V30 3495 H 331.688 4.00963 0.0542575 0
M  V30 3496 H 328.278 4.05824 -1.37858 0
M  V30 3497 H 332.462 4.39878 -2.29827 0
M  V30 3498 H 327.718 4.93859 -3.60435 0
M  V30 3499 H 331.892 5.2927 -4.52599 0
M  V30 3500 H 329.519 5.55987 -5.18443 0
M  V30 3501 N 331.094 0.475555 1.50254 0
M  V30 3502 C 332.342 -0.077738 2.0195 0
M  V30 3503 C 332.663 -1.39813 1.35931 0
M  V30 3504 O 331.933 -1.89249 0.506123 0
M  V30 3505 H 330.513 -0.031719 0.746326 0
M  V30 3506 H 333.175 0.626995 1.84539 0
M  V30 3507 H 332.271 -0.225995 3.11281 0
M  V30 3508 N 332.573 -1.56217 0.208337 0
M  V30 3509 C 333.801 -2.02337 -0.43215 0
M  V30 3510 C 334.216 -1.08834 -1.54275 0
M  V30 3511 O 333.573 -0.0955462 -1.8225 0
M  V30 3512 C 333.624 -3.48072 -0.976138 0
M  V30 3513 O 333.345 -4.38007 0.0901621 0
M  V30 3514 C 334.846 -4.09773 -1.69119 0
M  V30 3515 H 332.066 -0.662385 -0.10718 0
M  V30 3516 H 334.61 -2.01966 0.320923 0
M  V30 3517 H 332.765 -3.49099 -1.67954 0
M  V30 3518 H 333.179 -5.23543 -0.316701 0
M  V30 3519 H 334.653 -5.13556 -2.02397 0
M  V30 3520 H 335.13 -3.53999 -2.59964 0
M  V30 3521 H 335.736 -4.12556 -1.03332 0
M  V30 3522 N 334.051 0.0651679 -1.57465 0
M  V30 3523 C 334.999 1.09542 -2.05191 0
M  V30 3524 C 335.993 1.39675 -0.958509 0
M  V30 3525 O 337.199 1.39003 -1.14359 0
M  V30 3526 H 333.574 0.370623 -0.654326 0
M  V30 3527 H 335.545 0.666802 -2.90854 0
M  V30 3528 C 334.294 2.39881 -2.51699 0
M  V30 3529 H 333.617 2.17547 -3.3543 0
M  V30 3530 H 335.057 3.104 -2.88839 0
M  V30 3531 C 333.516 3.0631 -1.40271 0
M  V30 3532 O 334.046 3.94664 -0.748523 0
M  V30 3533 N 332.252 2.67041 -1.14618 0
M  V30 3534 H 331.799 1.95281 -1.67997 0
M  V30 3535 H 331.757 3.1181 -0.402688 0
M  V30 3536 N 335.529 1.53961 0.336706 0
M  V30 3537 C 336.775 1.7179 1.07777 0
M  V30 3538 C 337.108 0.483263 1.88091 0
M  V30 3539 O 336.383 -0.519747 1.87427 0
M  V30 3540 C 336.666 2.98558 2.01334 0
M  V30 3541 C 336.519 4.32245 1.24437 0
M  V30 3542 C 337.838 3.21023 3.01052 0
M  V30 3543 H 334.957 0.625089 0.390426 0
M  V30 3544 H 337.599 1.86641 0.35567 0
M  V30 3545 H 335.749 2.86028 2.62908 0
M  V30 3546 H 337.421 4.56637 0.654243 0
M  V30 3547 H 335.664 4.30344 0.546458 0
M  V30 3548 H 336.335 5.17137 1.93063 0
M  V30 3549 H 338.811 3.32929 2.49595 0
M  V30 3550 H 337.687 4.11104 3.6371 0
M  V30 3551 H 337.948 2.37637 3.72802 0
M  V30 3552 N 337.007 -0.598083 1.45811 0
M  V30 3553 C 337.94 -1.7223 1.49706 0
M  V30 3554 C 338.918 -1.58732 0.352535 0
M  V30 3555 O 340.102 -1.80162 0.554438 0
M  V30 3556 C 337.229 -3.10148 1.3611 0
M  V30 3557 C 336.275 -3.42209 2.54549 0
M  V30 3558 S 337.108 -3.35989 4.16979 0
M  V30 3559 C 338.264 -4.76471 4.05865 0
M  V30 3560 H 338.497 -1.68665 2.44826 0
M  V30 3561 H 336.03 -0.775541 1.33509 0
M  V30 3562 H 337.988 -3.8972 1.28953 0
M  V30 3563 H 336.649 -3.11219 0.424451 0
M  V30 3564 H 335.842 -4.42652 2.40988 0
M  V30 3565 H 335.444 -2.70173 2.58617 0
M  V30 3566 H 337.736 -5.665 3.71596 0
M  V30 3567 H 338.679 -4.95089 5.06253 0
M  V30 3568 H 339.087 -4.52599 3.37364 0
M  V30 3569 N 338.485 -1.33259 -0.841409 0
M  V30 3570 C 339.731 -1.24757 -1.59886 0
M  V30 3571 C 340.064 0.186913 -1.93298 0
M  V30 3572 O 339.339 1.12757 -1.5848 0
M  V30 3573 C 339.622 -2.12036 -2.91055 0
M  V30 3574 C 339.475 -3.63929 -2.6434 0
M  V30 3575 C 340.794 -1.9916 -3.92458 0
M  V30 3576 H 337.913 -0.454542 -0.580138 0
M  V30 3577 H 340.555 -1.63335 -0.970647 0
M  V30 3578 H 338.705 -1.79265 -3.44669 0
M  V30 3579 H 340.377 -4.06978 -2.17178 0
M  V30 3580 H 338.62 -3.85935 -1.98082 0
M  V30 3581 H 339.291 -4.20341 -3.57796 0
M  V30 3582 H 341.767 -2.27895 -3.48143 0
M  V30 3583 H 340.643 -2.62484 -4.82072 0
M  V30 3584 H 340.904 -0.963082 -4.31482 0
M  V30 3585 N 339.963 1.05934 -1.16686 0
M  V30 3586 C 341.191 1.8249 -0.974929 0
M  V30 3587 C 341.606 1.82679 0.476861 0
M  V30 3588 O 340.963 1.2486 1.33103 0
M  V30 3589 C 341.014 3.28943 -1.49929 0
M  V30 3590 O 340.735 3.28886 -2.89423 0
M  V30 3591 C 342.236 4.22215 -1.35089 0
M  V30 3592 H 339.456 0.575295 -0.345365 0
M  V30 3593 H 342 1.33631 -1.548 0
M  V30 3594 H 340.155 3.751 -0.968423 0
M  V30 3595 H 340.569 4.20493 -3.13506 0
M  V30 3596 H 342.043 5.22987 -1.76603 0
M  V30 3597 H 342.52 4.38195 -0.296935 0
M  V30 3598 H 343.126 3.81907 -1.87155 0
M  V30 3599 N 341.441 0.965919 1.2453 0
M  V30 3600 C 342.687 0.62776 1.92839 0
M  V30 3601 C 343.02 -0.834694 1.75347 0
M  V30 3602 O 342.295 -1.60031 1.10546 0
M  V30 3603 C 342.578 1.00109 3.45905 0
M  V30 3604 C 342.431 2.52011 3.72573 0
M  V30 3605 C 343.75 0.53435 4.36844 0
M  V30 3606 H 340.869 0.229537 0.700344 0
M  V30 3607 H 343.511 1.2046 1.46933 0
M  V30 3608 H 341.661 0.510238 3.85135 0
M  V30 3609 H 343.333 3.08559 3.42912 0
M  V30 3610 H 341.576 2.95287 3.17786 0
M  V30 3611 H 342.247 2.73183 4.79661 0
M  V30 3612 H 344.723 0.955565 4.04979 0
M  V30 3613 H 343.599 0.824152 5.42678 0
M  V30 3614 H 343.86 -0.565589 4.38467 0
M  V30 3615 N 342.919 -1.39368 0.735821 0
M  V30 3616 C 343.882 -2.2896 0.104874 0
M  V30 3617 C 344.882 -1.46347 -0.666274 0
M  V30 3618 O 346.072 -1.67014 -0.49517 0
M  V30 3619 C 343.204 -3.29857 -0.860656 0
M  V30 3620 H 344.397 -2.86259 0.894205 0
M  V30 3621 H 341.95 -1.48029 0.501704 0
M  V30 3622 H 342.685 -2.77615 -1.67631 0
M  V30 3623 H 342.47 -3.9087 -0.310327 0
M  V30 3624 H 343.96 -3.96893 -1.29867 0
M  V30 3625 N 344.397 -0.483516 -1.5 0
M  V30 3626 C 345.344 0.304164 -2.28787 0
M  V30 3627 C 346.314 0.976114 -1.34392 0
M  V30 3628 O 347.499 0.986156 -1.63339 0
M  V30 3629 C 344.639 1.37298 -3.16612 0
M  V30 3630 C 343.752 0.714561 -4.26049 0
M  V30 3631 C 342.887 1.76232 -5.01114 0
M  V30 3632 C 341.926 1.08483 -6.0241 0
M  V30 3633 N 341.063 2.076 -6.70706 0
M  V30 3634 H 345.903 -0.373981 -2.95644 0
M  V30 3635 H 343.44 -0.196275 -1.45785 0
M  V30 3636 H 345.398 2.00445 -3.65893 0
M  V30 3637 H 344.028 2.02012 -2.51776 0
M  V30 3638 H 343.08 -0.0297798 -3.80388 0
M  V30 3639 H 344.392 0.180383 -4.98474 0
M  V30 3640 H 343.546 2.46929 -5.54176 0
M  V30 3641 H 342.285 2.33033 -4.28424 0
M  V30 3642 H 341.29 0.363545 -5.48597 0
M  V30 3643 H 342.515 0.523551 -6.77079 0
M  V30 3644 H 340.461 2.63394 -6.00799 0
M  V30 3645 H 340.378 1.59201 -7.39047 0
M  V30 3646 H 341.646 2.77639 -7.2838 0
M  V30 3647 N 345.875 1.56104 -0.216619 0
M  V30 3648 C 347.1 2.0301 0.424462 0
M  V30 3649 C 347.525 1.0955 1.52907 0
M  V30 3650 O 346.883 0.0827914 1.81111 0
M  V30 3651 C 346.931 3.4819 0.937883 0
M  V30 3652 O 346.035 3.57865 2.04955 0
M  V30 3653 H 345.376 0.656925 0.0966755 0
M  V30 3654 H 347.906 2.01859 -0.33381 0
M  V30 3655 H 347.916 3.88413 1.24897 0
M  V30 3656 H 346.591 4.15699 0.129387 0
M  V30 3657 H 345.168 3.29527 1.74546 0
M  V30 3658 N 347.353 -0.0568162 1.57498 0
M  V30 3659 C 348.6 -0.753104 1.87975 0
M  V30 3660 C 348.928 -1.76815 0.81035 0
M  V30 3661 O 348.183 -1.94756 -0.19199 0
M  V30 3662 C 348.482 -1.48359 3.25153 0
M  V30 3663 C 348.148 -0.60713 4.46794 0
M  V30 3664 C 346.81 -0.365642 4.79809 0
M  V30 3665 C 349.162 -0.000305978 5.212 0
M  V30 3666 C 346.49 0.491905 5.84634 0
M  V30 3667 C 348.842 0.844781 6.26934 0
M  V30 3668 C 347.506 1.096 6.58441 0
M  V30 3669 H 346.776 -0.27558 0.687849 0
M  V30 3670 H 349.423 -0.0135173 1.91495 0
M  V30 3671 H 347.728 -2.29577 3.17492 0
M  V30 3672 H 349.425 -2.02739 3.45974 0
M  V30 3673 H 346.015 -0.805487 4.20963 0
M  V30 3674 H 350.199 -0.173961 4.95995 0
M  V30 3675 H 345.455 0.695131 6.07436 0
M  V30 3676 H 349.629 1.32165 6.83744 0
M  V30 3677 H 347.256 1.76224 7.39492 0
M  V30 3678 N 348.832 -1.54138 -0.328536 0
M  V30 3679 C 349.742 -1.86192 -1.42723 0
M  V30 3680 C 350.758 -0.753382 -1.56844 0
M  V30 3681 O 351.934 -1.04718 -1.72035 0
M  V30 3682 C 348.999 -2.07824 -2.77507 0
M  V30 3683 C 348.06 -3.31641 -2.72603 0
M  V30 3684 C 347.293 -3.52232 -4.00959 0
M  V30 3685 O 347.516 -2.7636 -4.9898 0
M  V30 3686 O 346.45 -4.45699 -4.0452 0
M  V30 3687 H 350.276 -2.79608 -1.18547 0
M  V30 3688 H 347.861 -1.3998 -0.522104 0
M  V30 3689 H 349.743 -2.23411 -3.57303 0
M  V30 3690 H 348.418 -1.17596 -3.01584 0
M  V30 3691 H 347.325 -3.21444 -1.91376 0
M  V30 3692 H 348.658 -4.2191 -2.53481 0
M  V30 3693 N 350.31 0.590341 -1.46126 0
M  V30 3694 C 351.273 1.68194 -1.55703 0
M  V30 3695 C 352.273 1.54808 -0.434868 0
M  V30 3696 O 353.463 1.59564 -0.698928 0
M  V30 3697 C 350.595 3.07575 -1.47005 0
M  V30 3698 H 351.788 1.61064 -2.52979 0
M  V30 3699 H 349.341 0.807541 -1.33823 0
M  V30 3700 H 350.076 3.20268 -0.509785 0
M  V30 3701 H 349.861 3.187 -2.28414 0
M  V30 3702 H 351.351 3.87055 -1.56776 0
M  V30 3703 N 351.788 1.33704 0.83433 0
M  V30 3704 C 353.199 1.22813 1.4062 0
M  V30 3705 C 353.55 -0.151107 1.95617 0
M  V30 3706 O 352.675 -1.05092 1.89168 0
M  V30 3707 C 353.27 2.22355 2.55624 0
M  V30 3708 C 351.829 2.1529 3.08751 0
M  V30 3709 C 350.976 2.09589 1.8157 0
M  V30 3710 H 353.927 1.45236 0.639702 0
M  V30 3711 H 353.948 1.83391 3.33389 0
M  V30 3712 H 353.46 3.22728 2.15566 0
M  V30 3713 H 351.561 1.18235 3.53343 0
M  V30 3714 H 351.674 3.06038 3.68616 0
M  V30 3715 H 350.038 1.55134 2.02004 0
M  V30 3716 H 350.821 3.11777 1.43701 0
M  V30 3717 N 353.266 -1.05314 1.17247 0
M  V30 3718 C 354.515 -1.77685 0.954521 0
M  V30 3719 C 354.828 -1.88616 -0.518025 0
M  V30 3720 O 356.034 -2.57714 -0.854144 0
M  V30 3721 C 354.49 -3.19402 1.65863 0
M  V30 3722 C 354.098 -3.16605 3.16963 0
M  V30 3723 C 355.842 -3.96237 1.52303 0
M  V30 3724 C 353.749 -4.53103 3.80068 0
M  V30 3725 H 352.679 -0.666 0.353496 0
M  V30 3726 H 355.33 -1.1805 1.40486 0
M  V30 3727 H 353.712 -3.79355 1.13602 0
M  V30 3728 H 354.886 -2.66176 3.76148 0
M  V30 3729 H 353.201 -2.53268 3.30521 0
M  V30 3730 H 355.798 -4.97157 1.96822 0
M  V30 3731 H 356.141 -4.136 0.473401 0
M  V30 3732 H 356.674 -3.42829 2.01775 0
M  V30 3733 H 353.413 -4.40946 4.85023 0
M  V30 3734 H 352.933 -5.03686 3.2567 0
M  V30 3735 H 354.612 -5.22045 3.82202 0
M  V30 3736 N 354.744 -0.972509 -1.24016 0
M  V30 3737 C 355.691 -0.505969 -2.25186 0
M  V30 3738 C 356.661 0.451009 -1.5986 0
M  V30 3739 O 357.846 0.360307 -1.87367 0
M  V30 3740 C 354.986 0.193089 -3.44559 0
M  V30 3741 C 354.099 -0.803222 -4.24467 0
M  V30 3742 C 353.234 -0.0797793 -5.3114 0
M  V30 3743 C 352.273 -1.06583 -6.02749 0
M  V30 3744 N 351.41 -0.372074 -7.01113 0
M  V30 3745 H 356.25 -1.37351 -2.64459 0
M  V30 3746 H 353.787 -0.688419 -1.29997 0
M  V30 3747 H 355.745 0.615125 -4.1264 0
M  V30 3748 H 354.375 1.02455 -3.06109 0
M  V30 3749 H 353.427 -1.34368 -3.55878 0
M  V30 3750 H 354.739 -1.55494 -4.73944 0
M  V30 3751 H 353.893 0.400015 -6.0538 0
M  V30 3752 H 352.632 0.704597 -4.82583 0
M  V30 3753 H 351.637 -1.55645 -5.27309 0
M  V30 3754 H 352.862 -1.85074 -6.53395 0
M  V30 3755 H 350.808 0.393238 -6.5482 0
M  V30 3756 H 350.725 -1.06258 -7.48495 0
M  V30 3757 H 351.993 0.0855932 -7.79453 0
M  V30 3758 N 356.222 1.38976 -0.743202 0
M  V30 3759 C 357.152 2.33171 -0.123873 0
M  V30 3760 C 358.133 1.54336 0.71516 0
M  V30 3761 O 359.318 1.82696 0.658467 0
M  V30 3762 C 356.448 3.38474 0.777978 0
M  V30 3763 C 355.402 4.27979 0.0424758 0
M  V30 3764 C 354.728 5.2405 1.06189 0
M  V30 3765 C 356.028 5.10155 -1.1198 0
M  V30 3766 H 357.722 2.85213 -0.910709 0
M  V30 3767 H 355.268 1.37133 -0.439388 0
M  V30 3768 H 357.221 4.03328 1.22084 0
M  V30 3769 H 355.945 2.84891 1.59702 0
M  V30 3770 H 354.604 3.64616 -0.380853 0
M  V30 3771 H 354.252 4.66758 1.87472 0
M  V30 3772 H 353.952 5.84785 0.574485 0
M  V30 3773 H 355.476 5.9178 1.50428 0
M  V30 3774 H 356.89 5.68307 -0.75499 0
M  V30 3775 H 355.287 5.80073 -1.53738 0
M  V30 3776 H 356.357 4.44504 -1.93764 0
M  V30 3777 N 357.7 0.491464 1.49741 0
M  V30 3778 C 358.946 -0.0565092 2.02721 0
M  V30 3779 C 359.279 -1.37522 1.37118 0
M  V30 3780 O 358.554 -1.87866 0.503645 0
M  V30 3781 C 358.837 -0.219051 3.59433 0
M  V30 3782 C 358.69 1.12211 4.35579 0
M  V30 3783 C 360.009 -0.964157 4.29409 0
M  V30 3784 H 357.128 -0.0190627 0.736753 0
M  V30 3785 H 359.77 0.641021 1.7886 0
M  V30 3786 H 357.92 -0.813165 3.79895 0
M  V30 3787 H 359.592 1.75437 4.26637 0
M  V30 3788 H 357.835 1.71377 3.98513 0
M  V30 3789 H 358.506 0.961794 5.43556 0
M  V30 3790 H 360.982 -0.460378 4.13545 0
M  V30 3791 H 359.858 -1.04671 5.38828 0
M  V30 3792 H 360.119 -2.00563 3.93988 0
M  V30 3793 N 359.178 -1.55987 0.224894 0
M  V30 3794 C 360.425 -1.9839 -0.4059 0
M  V30 3795 C 360.753 -1.11261 -1.59535 0
M  V30 3796 O 360.008 -0.158314 -1.95059 0
M  V30 3797 C 360.307 -3.46394 -0.880106 0
M  V30 3798 C 359.973 -4.5046 0.19918 0
M  V30 3799 C 358.635 -4.7864 0.495661 0
M  V30 3800 C 360.987 -5.12855 0.928939 0
M  V30 3801 C 358.315 -5.66497 1.52636 0
M  V30 3802 C 360.667 -6.01828 1.949 0
M  V30 3803 C 359.331 -6.28351 2.25236 0
M  V30 3804 H 358.601 -0.725961 -0.148529 0
M  V30 3805 H 361.248 -1.88668 0.328113 0
M  V30 3806 H 359.553 -3.53337 -1.69294 0
M  V30 3807 H 361.25 -3.76577 -1.37808 0
M  V30 3808 H 357.84 -4.28579 -0.0420526 0
M  V30 3809 H 362.024 -4.9115 0.713129 0
M  V30 3810 H 357.28 -5.8531 1.76698 0
M  V30 3811 H 361.454 -6.49225 2.51951 0
M  V30 3812 H 359.081 -6.96226 3.05244 0
M  V30 3813 N 360.656 0.0484629 -1.57525 0
M  V30 3814 C 362.067 0.597486 -1.76881 0
M  V30 3815 C 362.418 1.76664 -0.853475 0
M  V30 3816 O 361.543 2.16357 -0.0433656 0
M  V30 3817 C 362.138 1.09066 -3.20765 0
M  V30 3818 C 360.697 1.58535 -3.41385 0
M  V30 3819 C 359.844 0.514868 -2.72478 0
M  V30 3820 H 362.795 -0.177758 -1.57701 0
M  V30 3821 H 362.816 1.95875 -3.2621 0
M  V30 3822 H 362.328 0.239521 -3.8736 0
M  V30 3823 H 360.429 2.45898 -2.79937 0
M  V30 3824 H 360.542 1.64622 -4.49929 0
M  V30 3825 H 358.906 0.965407 -2.35695 0
M  V30 3826 H 359.689 -0.32648 -3.41744 0
M  V30 3827 N 362.134 1.5431 0.320358 0
M  V30 3828 C 363.066 1.80262 1.41556 0
M  V30 3829 C 364.079 0.684723 1.477 0
M  V30 3830 O 365.268 0.961886 1.50366 0
M  V30 3831 C 362.368 1.90825 2.8007 0
M  V30 3832 C 361.541 3.21023 2.97091 0
M  V30 3833 C 360.6 3.22247 4.15985 0
M  V30 3834 O 359.626 3.95871 4.08992 0
M  V30 3835 N 360.828 2.46258 5.25678 0
M  V30 3836 H 363.593 2.74778 1.19655 0
M  V30 3837 H 361.154 1.53646 0.510358 0
M  V30 3838 H 363.146 1.89067 3.57821 0
M  V30 3839 H 361.716 1.03392 2.95006 0
M  V30 3840 H 360.936 3.35715 2.06614 0
M  V30 3841 H 362.224 4.0698 3.05361 0
M  V30 3842 H 361.622 1.86037 5.34235 0
M  V30 3843 H 360.179 2.50275 6.01835 0
M  V30 3844 N 363.613 -0.582584 1.46437 0
M  V30 3845 C 364.89 -1.34276 1.4223 0
M  V30 3846 C 365.27 -2.10835 0.10583 0
M  V30 3847 O 364.618 -2.09485 -0.912596 0
M  V30 3848 C 364.828 -2.26865 2.65204 0
M  V30 3849 C 366.176 -2.88691 3.11356 0
M  V30 3850 O 367.2 -2.37178 2.65753 0
M  V30 3851 O 366.059 -3.82255 3.90568 0
M  V30 3852 H 363.153 -0.603326 0.565621 0
M  V30 3853 H 365.699 -0.603591 1.58603 0
M  V30 3854 H 364.471 -1.69724 3.52576 0
M  V30 3855 H 364.094 -3.08122 2.5129 0
M  V30 3856 N 365.091 -1.34144 -0.827227 0
M  V30 3857 C 366.021 -1.28005 -1.95287 0
M  V30 3858 C 367.002 -0.158321 -1.69362 0
M  V30 3859 O 368.187 -0.349987 -1.9102 0
M  V30 3860 C 365.317 -1.03036 -3.31664 0
M  V30 3861 C 364.271 -2.11628 -3.72019 0
M  V30 3862 C 363.597 -1.71854 -5.0633 0
M  V30 3863 C 364.897 -3.53417 -3.8457 0
M  V30 3864 H 366.591 -2.22187 -2.00682 0
M  V30 3865 H 364.137 -1.0696 -0.964135 0
M  V30 3866 H 366.09 -0.973863 -4.09993 0
M  V30 3867 H 364.814 -0.0529391 -3.26557 0
M  V30 3868 H 363.473 -2.16339 -2.95961 0
M  V30 3869 H 363.121 -0.727841 -4.97706 0
M  V30 3870 H 362.821 -2.44531 -5.34302 0
M  V30 3871 H 364.345 -1.67692 -5.87122 0
M  V30 3872 H 365.759 -3.51142 -4.5318 0
M  V30 3873 H 364.156 -4.24679 -4.2399 0
M  V30 3874 H 365.226 -3.91072 -2.86689 0
M  V30 3875 N 366.569 1.04691 -1.17803 0
M  V30 3876 C 367.499 2.14494 -0.92275 0
M  V30 3877 C 368.48 1.69546 0.137179 0
M  V30 3878 O 369.665 1.94195 -0.0141108 0
M  V30 3879 C 366.795 3.44491 -0.440803 0
M  V30 3880 C 365.749 4.03031 -1.4405 0
M  V30 3881 C 365.075 5.28432 -0.81631 0
M  V30 3882 C 366.375 4.39932 -2.81527 0
M  V30 3883 H 368.069 2.36107 -1.84103 0
M  V30 3884 H 365.615 1.1347 -0.886599 0
M  V30 3885 H 367.568 4.2066 -0.249602 0
M  V30 3886 H 366.292 3.22546 0.513025 0
M  V30 3887 H 364.951 3.28937 -1.61853 0
M  V30 3888 H 364.599 5.02792 0.144511 0
M  V30 3889 H 364.299 5.68559 -1.48371 0
M  V30 3890 H 365.823 6.07284 -0.635496 0
M  V30 3891 H 367.237 5.07113 -2.67412 0
M  V30 3892 H 365.634 4.9109 -3.44892 0
M  V30 3893 H 366.704 3.50045 -3.35554 0
M  V30 3894 N 368.047 0.979072 1.23499 0
M  V30 3895 C 368.957 0.526431 2.28617 0
M  V30 3896 C 369.973 -0.418126 1.68901 0
M  V30 3897 O 371.149 -0.288372 1.99325 0
M  V30 3898 C 368.214 -0.165235 3.46306 0
M  V30 3899 C 367.275 0.82056 4.21385 0
M  V30 3900 C 366.508 0.161807 5.33455 0
M  V30 3901 O 366.731 -1.04742 5.60701 0
M  V30 3902 O 365.665 0.859708 5.95729 0
M  V30 3903 H 369.491 1.4006 2.69475 0
M  V30 3904 H 367.076 0.746643 1.29405 0
M  V30 3905 H 368.958 -0.553287 4.17752 0
M  V30 3906 H 367.633 -1.01419 3.07402 0
M  V30 3907 H 366.54 1.25929 3.52268 0
M  V30 3908 H 367.873 1.63828 4.64135 0
M  V30 3909 N 369.525 -1.3858 0.750561 0
M  V30 3910 C 370.472 -2.30483 0.120835 0
M  V30 3911 C 371.442 -1.50022 -0.712923 0
M  V30 3912 O 372.627 -1.78662 -0.669676 0
M  V30 3913 C 369.767 -3.36431 -0.768666 0
M  V30 3914 C 368.88 -4.31927 0.0793922 0
M  V30 3915 C 368.015 -5.24944 -0.81283 0
M  V30 3916 C 367.054 -6.12088 0.0390447 0
M  V30 3917 N 366.191 -6.97412 -0.809969 0
M  V30 3918 H 371.031 -2.83761 0.91015 0
M  V30 3919 H 368.568 -1.39707 0.460463 0
M  V30 3920 H 370.526 -3.96462 -1.29898 0
M  V30 3921 H 369.156 -2.8457 -1.5238 0
M  V30 3922 H 368.208 -3.73382 0.727303 0
M  V30 3923 H 369.52 -4.93319 0.737401 0
M  V30 3924 H 368.674 -5.90078 -1.41042 0
M  V30 3925 H 367.413 -4.63911 -1.50458 0
M  V30 3926 H 366.418 -5.45952 0.649328 0
M  V30 3927 H 367.643 -6.75189 0.727809 0
M  V30 3928 H 365.589 -6.38931 -1.48672 0
M  V30 3929 H 365.506 -7.55712 -0.208789 0
M  V30 3930 H 366.774 -7.66959 -1.39263 0
M  V30 3931 N 371.003 -0.499398 -1.49478 0
M  V30 3932 C 372.251 0.0455996 -2.02049 0
M  V30 3933 C 372.572 1.37633 -1.38138 0
M  V30 3934 O 371.842 1.8842 -0.536166 0
M  V30 3935 H 370.422 0.0198416 -0.746736 0
M  V30 3936 H 373.084 -0.656274 -1.83519 0
M  V30 3937 H 372.18 0.176445 -3.11601 0
M  V30 3938 N 372.481 1.55866 -0.233164 0
M  V30 3939 C 373.411 2.23783 0.666599 0
M  V30 3940 C 374.392 1.21343 1.19205 0
M  V30 3941 O 375.577 1.4996 1.23392 0
M  V30 3942 C 372.707 2.92671 1.86978 0
M  V30 3943 C 371.661 4.01682 1.47768 0
M  V30 3944 C 370.987 4.57926 2.76058 0
M  V30 3945 C 372.287 5.18126 0.658993 0
M  V30 3946 H 373.981 2.99232 0.100306 0
M  V30 3947 H 371.527 1.43924 0.046804 0
M  V30 3948 H 373.48 3.3888 2.50476 0
M  V30 3949 H 372.204 2.14688 2.46123 0
M  V30 3950 H 370.863 3.56222 0.866106 0
M  V30 3951 H 370.511 3.76659 3.33372 0
M  V30 3952 H 370.211 5.31505 2.50552 0
M  V30 3953 H 371.735 5.06859 3.40479 0
M  V30 3954 H 373.149 5.60644 1.19795 0
M  V30 3955 H 371.546 5.98009 0.500552 0
M  V30 3956 H 372.616 4.83763 -0.331856 0
M  V30 3957 N 373.959 -0.0401083 1.57549 0
M  V30 3958 C 374.869 -1.06133 2.0922 0
M  V30 3959 C 375.885 -1.40356 1.0284 0
M  V30 3960 O 377.061 -1.49897 1.34509 0
M  V30 3961 C 374.126 -2.34658 2.55218 0
M  V30 3962 C 373.187 -2.07117 3.76033 0
M  V30 3963 C 372.42 -3.29514 4.19829 0
M  V30 3964 O 372.643 -4.39794 3.63232 0
M  V30 3965 O 371.577 -3.15863 5.12362 0
M  V30 3966 H 375.403 -0.652244 2.96613 0
M  V30 3967 H 372.988 -0.256368 1.47184 0
M  V30 3968 H 374.87 -3.10239 2.85184 0
M  V30 3969 H 373.545 -2.74883 1.70941 0
M  V30 3970 H 372.452 -1.29139 3.51104 0
M  V30 3971 H 373.785 -1.71754 4.61261 0
M  V30 3972 N 375.437 -1.54477 -0.31217 0
M  V30 3973 C 376.4 -1.83923 -1.36766 0
M  V30 3974 C 377.4 -0.711563 -1.44199 0
M  V30 3975 O 378.59 -0.979866 -1.44029 0
M  V30 3976 C 375.722 -2.0095 -2.75376 0
M  V30 3977 H 376.915 -2.78239 -1.11906 0
M  V30 3978 H 374.468 -1.46369 -0.548257 0
M  V30 3979 H 375.203 -1.08883 -3.05475 0
M  V30 3980 H 374.988 -2.83018 -2.71373 0
M  V30 3981 H 376.478 -2.2514 -3.51713 0
M  V30 3982 N 376.915 0.57481 -1.46744 0
M  V30 3983 C 377.863 1.70435 -1.58286 0
M  V30 3984 C 378.857 1.63287 -0.450956 0
M  V30 3985 O 380.063 1.68685 -0.628121 0
M  V30 3986 H 376.438 0.56364 -0.497809 0
M  V30 3987 H 378.409 1.57833 -2.53242 0
M  V30 3988 C 377.158 3.08815 -1.59776 0
M  V30 3989 H 376.481 3.1499 -2.46214 0
M  V30 3990 H 377.921 3.87588 -1.71905 0
M  V30 3991 C 376.38 3.35301 -0.327812 0
M  V30 3992 O 376.91 3.97511 0.57861 0
M  V30 3993 N 375.116 2.89816 -0.213274 0
M  V30 3994 H 374.663 2.39371 -0.951798 0
M  V30 3995 H 374.621 3.0791 0.63553 0
M  V30 3996 N 378.394 1.34581 0.820102 0
M  V30 3997 C 379.342 1.26401 1.95258 0
M  V30 3998 C 380.336 0.161553 1.68628 0
M  V30 3999 O 381.542 0.326703 1.7701 0
M  V30 4000 H 377.917 0.392749 0.64129 0
M  V30 4001 H 379.888 2.22105 1.99279 0
M  V30 4002 C 378.637 1.03919 3.31807 0
M  V30 4003 H 377.96 1.87984 3.52848 0
M  V30 4004 H 379.4 1.02232 4.11491 0
M  V30 4005 C 377.859 -0.257433 3.35915 0
M  V30 4006 O 378.389 -1.25784 3.81499 0
M  V30 4007 N 376.595 -0.291524 2.89134 0
M  V30 4008 H 376.142 0.523161 2.52232 0
M  V30 4009 H 376.1 -1.15883 2.92264 0
M  V30 4010 N 379.872 -1.04064 1.18357 0
M  V30 4011 C 381.119 -1.77265 0.978947 0
M  V30 4012 C 381.447 -1.88189 -0.491428 0
M  V30 4013 O 380.702 -1.38653 -1.38108 0
M  V30 4014 C 381.001 -3.20634 1.57888 0
M  V30 4015 C 380.667 -3.29743 3.07539 0
M  V30 4016 C 379.329 -3.31937 3.48384 0
M  V30 4017 C 381.681 -3.29841 4.03552 0
M  V30 4018 C 379.009 -3.3187 4.83818 0
M  V30 4019 C 381.361 -3.31313 5.38901 0
M  V30 4020 C 380.025 -3.31799 5.79194 0
M  V30 4021 H 379.295 -0.648659 0.358222 0
M  V30 4022 H 381.942 -1.22225 1.47422 0
M  V30 4023 H 380.247 -3.78675 1.00561 0
M  V30 4024 H 381.944 -3.75917 1.39598 0
M  V30 4025 H 378.534 -3.28757 2.74986 0
M  V30 4026 H 382.718 -3.27337 3.73047 0
M  V30 4027 H 377.974 -3.30562 5.14333 0
M  V30 4028 H 382.148 -3.30338 6.13066 0
M  V30 4029 H 379.775 -3.315 6.84114 0
M  V30 4030 N 381.35 -0.985608 -1.22978 0
M  V30 4031 C 382.313 -0.535071 -2.22867 0
M  V30 4032 C 383.313 0.378123 -1.56291 0
M  V30 4033 O 384.503 0.171092 -1.73358 0
M  V30 4034 C 381.635 0.222702 -3.40172 0
M  V30 4035 H 382.828 -1.41835 -2.6424 0
M  V30 4036 H 380.381 -0.772042 -1.35901 0
M  V30 4037 H 381.116 1.12229 -3.04262 0
M  V30 4038 H 380.901 -0.43288 -3.89703 0
M  V30 4039 H 382.391 0.526335 -4.1427 0
M  V30 4040 N 382.828 1.3818 -0.7579 0
M  V30 4041 C 383.761 2.28055 -0.0814093 0
M  V30 4042 C 384.739 1.45603 0.723779 0
M  V30 4043 O 385.923 1.74961 0.701491 0
M  V30 4044 C 383.05 3.2676 0.891394 0
M  V30 4045 C 382.096 4.26153 0.171909 0
M  V30 4046 S 382.929 5.23434 -1.13035 0
M  V30 4047 C 384.085 6.25694 -0.160727 0
M  V30 4048 H 384.318 2.85082 -0.84353 0
M  V30 4049 H 381.851 1.44246 -0.550671 0
M  V30 4050 H 383.809 3.8414 1.44731 0
M  V30 4051 H 382.47 2.68706 1.62652 0
M  V30 4052 H 381.663 4.95738 0.908843 0
M  V30 4053 H 381.265 3.72691 -0.312606 0
M  V30 4054 H 383.557 6.74161 0.671773 0
M  V30 4055 H 384.5 7.03285 -0.824353 0
M  V30 4056 H 384.908 5.64064 0.221892 0
M  V30 4057 N 384.306 0.507319 1.49211 0
M  V30 4058 C 385.236 -0.256939 2.32082 0
M  V30 4059 C 386.217 -0.956609 1.40652 0
M  V30 4060 O 387.402 -0.946788 1.69557 0
M  V30 4061 C 384.532 -1.31802 3.21318 0
M  V30 4062 C 383.486 -0.737855 4.21592 0
M  V30 4063 C 382.812 -1.89992 4.99807 0
M  V30 4064 C 384.112 0.275325 5.21574 0
M  V30 4065 H 385.806 0.434798 2.96226 0
M  V30 4066 H 383.352 0.210546 1.42452 0
M  V30 4067 H 385.305 -1.86045 3.78107 0
M  V30 4068 H 384.029 -2.03903 2.5513 0
M  V30 4069 H 382.688 -0.217126 3.65956 0
M  V30 4070 H 382.336 -2.60877 4.30061 0
M  V30 4071 H 382.036 -1.51777 5.6766 0
M  V30 4072 H 383.56 -2.44657 5.59442 0
M  V30 4073 H 384.974 -0.179193 5.7302 0
M  V30 4074 H 383.371 0.573649 5.97352 0
M  V30 4075 H 384.441 1.18903 4.70096 0
M  V30 4076 N 385.784 -1.5574 0.241426 0
M  V30 4077 C 387.032 -1.98417 -0.384075 0
M  V30 4078 C 387.353 -1.13078 -1.58866 0
M  V30 4079 O 386.623 -0.212312 -1.94746 0
M  V30 4080 H 385.203 -0.732813 -0.144894 0
M  V30 4081 H 387.865 -1.9193 0.338943 0
M  V30 4082 H 386.961 -3.04219 -0.696939 0
M  V30 4083 N 387.262 0.0317525 -1.57568 0
M  V30 4084 C 388.192 1.03274 -2.0942 0
M  V30 4085 C 389.173 1.3788 -0.996143 0
M  V30 4086 O 390.358 1.46811 -1.27122 0
M  V30 4087 C 387.488 2.33448 -2.57137 0
M  V30 4088 C 386.442 2.13091 -3.71182 0
M  V30 4089 C 385.768 3.49001 -4.05095 0
M  V30 4090 C 387.068 1.51928 -4.99715 0
M  V30 4091 H 388.762 0.60112 -2.93303 0
M  V30 4092 H 386.308 0.287705 -1.41097 0
M  V30 4093 H 388.261 3.03802 -2.92032 0
M  V30 4094 H 386.985 2.78665 -1.70333 0
M  V30 4095 H 385.644 1.45171 -3.36632 0
M  V30 4096 H 385.292 3.91862 -3.15362 0
M  V30 4097 H 384.992 3.36207 -4.81911 0
M  V30 4098 H 386.516 4.20721 -4.42522 0
M  V30 4099 H 387.93 2.12196 -5.32584 0
M  V30 4100 H 386.327 1.49716 -5.81124 0
M  V30 4101 H 387.397 0.484811 -4.8247 0
M  V30 4102 N 388.74 1.54641 0.303973 0
M  V30 4103 C 389.988 1.73437 1.0375 0
M  V30 4104 C 390.309 0.521449 1.87899 0
M  V30 4105 O 389.579 -0.46432 1.90318 0
M  V30 4106 H 388.159 0.639518 0.386039 0
M  V30 4107 H 390.821 1.91988 0.335675 0
M  V30 4108 H 389.917 2.62235 1.69231 0
M  V30 4109 N 390.218 -0.567019 1.47046 0
M  V30 4110 C 391.495 -1.3276 1.43646 0
M  V30 4111 C 391.875 -2.1071 0.128186 0
M  V30 4112 O 391.223 -2.10441 -0.890326 0
M  V30 4113 C 391.433 -2.2404 2.67595 0
M  V30 4114 C 392.781 -2.85372 3.14401 0
M  V30 4115 O 393.805 -2.34346 2.68254 0
M  V30 4116 O 392.664 -3.78091 3.946 0
M  V30 4117 H 389.758 -0.597293 0.571988 0
M  V30 4118 H 392.304 -0.586735 1.59234 0
M  V30 4119 H 391.076 -1.65975 3.54356 0
M  V30 4120 H 390.699 -3.05439 2.54544 0
M  V30 4121 N 391.696 -1.35014 -0.812953 0
M  V30 4122 C 392.942 -1.2812 -1.57204 0
M  V30 4123 C 393.275 0.145869 -1.93651 0
M  V30 4124 O 392.55 1.0937 -1.60836 0
M  V30 4125 C 392.833 -2.18162 -2.86492 0
M  V30 4126 C 392.686 -3.69454 -2.56561 0
M  V30 4127 C 394.005 -2.07439 -3.88145 0
M  V30 4128 H 391.124 -0.466746 -0.570366 0
M  V30 4129 H 393.766 -1.65357 -0.935783 0
M  V30 4130 H 391.916 -1.86535 -3.40789 0
M  V30 4131 H 393.588 -4.11493 -2.08497 0
M  V30 4132 H 391.831 -3.9005 -1.89851 0
M  V30 4133 H 392.502 -4.27835 -3.48799 0
M  V30 4134 H 394.978 -2.35228 -3.4323 0
M  V30 4135 H 393.854 -2.7265 -4.76396 0
M  V30 4136 H 394.115 -1.05439 -4.29343 0
M  V30 4137 N 393.175 1.03435 -1.18907 0
M  V30 4138 C 394.421 1.77005 -0.989798 0
M  V30 4139 C 394.754 1.88205 0.478816 0
M  V30 4140 O 394.029 1.39481 1.35556 0
M  V30 4141 C 394.312 3.19925 -1.65287 0
M  V30 4142 C 394.165 3.1663 -3.19477 0
M  V30 4143 C 395.484 4.18189 -1.37134 0
M  V30 4144 H 392.603 0.642538 -0.360991 0
M  V30 4145 H 395.245 1.20784 -1.46667 0
M  V30 4146 H 393.395 3.67929 -1.24741 0
M  V30 4147 H 395.067 2.76567 -3.692 0
M  V30 4148 H 393.31 2.54491 -3.51307 0
M  V30 4149 H 393.981 4.1758 -3.61013 0
M  V30 4150 H 396.457 3.78761 -1.72276 0
M  V30 4151 H 395.333 5.16394 -1.86087 0
M  V30 4152 H 395.594 4.41112 -0.295424 0
M  V30 4153 N 394.653 0.992116 1.22453 0
M  V30 4154 C 395.902 0.662992 1.90492 0
M  V30 4155 C 396.215 -0.808407 1.78113 0
M  V30 4156 O 397.421 -1.24908 2.41061 0
M  V30 4157 C 395.877 1.1353 3.41524 0
M  V30 4158 C 395.485 2.63187 3.62542 0
M  V30 4159 C 397.229 0.880465 4.15269 0
M  V30 4160 C 395.136 3.04024 5.0727 0
M  V30 4161 H 394.066 0.244278 0.713333 0
M  V30 4162 H 396.717 1.20157 1.38688 0
M  V30 4163 H 395.099 0.52485 3.92506 0
M  V30 4164 H 396.273 3.2957 3.22056 0
M  V30 4165 H 394.588 2.86543 3.02129 0
M  V30 4166 H 397.185 1.16128 5.21937 0
M  V30 4167 H 397.528 -0.183408 4.15896 0
M  V30 4168 H 398.061 1.45307 3.70312 0
M  V30 4169 H 394.8 4.09584 5.11782 0
M  V30 4170 H 394.32 2.42343 5.48662 0
M  V30 4171 H 395.999 2.95282 5.75689 0
M  V30 4172 N 396.131 -1.37776 0.765217 0
M  V30 4173 C 397.542 -1.82521 0.392819 0
M  V30 4174 C 397.893 -1.63789 -1.08017 0
M  V30 4175 O 397.018 -1.14542 -1.83601 0
M  V30 4176 C 397.613 -3.31358 0.706214 0
M  V30 4177 C 396.172 -3.74406 0.386952 0
M  V30 4178 C 395.319 -2.60394 0.953422 0
M  V30 4179 H 398.27 -1.2634 0.960412 0
M  V30 4180 H 398.291 -3.80498 -0.0114706 0
M  V30 4181 H 397.803 -3.44959 1.77833 0
M  V30 4182 H 395.904 -3.66377 -0.678112 0
M  V30 4183 H 396.017 -4.70749 0.890636 0
M  V30 4184 H 394.381 -2.51878 0.378064 0
M  V30 4185 H 395.164 -2.76791 2.03081 0
M  V30 4186 N 397.609 -0.515225 -1.4894 0
M  V30 4187 C 398.857 0.0241671 -2.02086 0
M  V30 4188 C 399.178 1.3616 -1.3959 0
M  V30 4189 O 398.448 1.87841 -0.556121 0
M  V30 4190 H 397.028 0.0119203 -0.746905 0
M  V30 4191 H 399.69 -0.675702 -1.82812 0
M  V30 4192 H 398.786 0.143385 -3.1177 0
M  V30 4193 N 399.087 1.5561 -0.249682 0
M  V30 4194 C 400.336 1.98187 0.37479 0
M  V30 4195 C 400.649 1.14111 1.58865 0
M  V30 4196 O 401.855 1.46714 2.28445 0
M  V30 4197 C 400.311 3.52661 0.718192 0
M  V30 4198 C 399.919 4.45481 -0.474428 0
M  V30 4199 C 401.663 4.03888 1.3067 0
M  V30 4200 C 399.57 5.91303 -0.107026 0
M  V30 4201 H 398.5 0.740159 0.143808 0
M  V30 4202 H 401.151 1.80125 -0.350336 0
M  V30 4203 H 399.533 3.66429 1.50152 0
M  V30 4204 H 400.707 4.43473 -1.25172 0
M  V30 4205 H 399.022 4.04751 -0.978052 0
M  V30 4206 H 401.619 5.10358 1.59496 0
M  V30 4207 H 401.962 3.51401 2.23211 0
M  V30 4208 H 402.495 3.93457 0.586211 0
M  V30 4209 H 399.234 6.47833 -0.999642 0
M  V30 4210 H 398.754 5.9644 0.634013 0
M  V30 4211 H 400.433 6.46258 0.309807 0
M  V30 4212 N 400.565 -0.0233959 1.57583 0
M  V30 4213 C 401.812 -0.713063 1.8953 0
M  V30 4214 C 402.14 -1.75056 0.847673 0
M  V30 4215 O 401.395 -1.95119 -0.150636 0
M  V30 4216 C 401.694 -1.41428 3.28227 0
M  V30 4217 C 401.36 -0.512222 4.47981 0
M  V30 4218 C 400.022 -0.263785 4.80476 0
M  V30 4219 C 402.374 0.110248 5.21083 0
M  V30 4220 C 399.702 0.615804 5.83459 0
M  V30 4221 C 402.054 0.977573 6.25001 0
M  V30 4222 C 400.718 1.23542 6.55968 0
M  V30 4223 H 399.988 -0.260928 0.69354 0
M  V30 4224 H 402.635 0.0271047 1.91481 0
M  V30 4225 H 400.94 -2.22791 3.22291 0
M  V30 4226 H 402.637 -1.95355 3.50196 0
M  V30 4227 H 399.227 -0.716013 4.22577 0
M  V30 4228 H 403.411 -0.0687137 4.96252 0
M  V30 4229 H 398.667 0.82382 6.05824 0
M  V30 4230 H 402.841 1.46638 6.80786 0
M  V30 4231 H 400.468 1.91871 7.35588 0
M  V30 4232 N 402.043 -1.548 -0.295768 0
M  V30 4233 C 403.292 -1.73538 -1.02798 0
M  V30 4234 C 403.605 -0.531159 -1.8825 0
M  V30 4235 O 404.811 -0.600458 -2.64777 0
M  V30 4236 C 403.267 -3.07051 -1.87744 0
M  V30 4237 C 402.875 -4.34968 -1.07269 0
M  V30 4238 C 404.619 -3.35146 -2.60533 0
M  V30 4239 C 402.526 -5.5953 -1.91521 0
M  V30 4240 H 401.456 -0.646794 -0.387522 0
M  V30 4241 H 404.107 -1.81278 -0.284718 0
M  V30 4242 H 402.489 -2.93289 -2.66078 0
M  V30 4243 H 403.663 -4.5958 -0.335117 0
M  V30 4244 H 401.978 -4.13847 -0.460384 0
M  V30 4245 H 404.575 -4.2541 -3.23929 0
M  V30 4246 H 404.918 -2.54255 -3.29636 0
M  V30 4247 H 405.451 -3.49902 -1.89244 0
M  V30 4248 H 402.19 -6.43103 -1.26878 0
M  V30 4249 H 401.71 -5.39096 -2.62937 0
M  V30 4250 H 403.389 -5.96982 -2.49442 0
M  V30 4251 N 403.521 0.559213 -1.47345 0
M  V30 4252 C 404.484 1.64854 -1.59235 0
M  V30 4253 C 405.484 1.53851 -0.467607 0
M  V30 4254 O 406.674 1.58045 -0.732617 0
M  V30 4255 C 403.806 3.04388 -1.53496 0
M  V30 4256 H 404.999 1.55662 -2.56339 0
M  V30 4257 H 402.552 0.778973 -1.35505 0
M  V30 4258 H 403.287 3.19115 -0.577604 0
M  V30 4259 H 403.072 3.13783 -2.35123 0
M  V30 4260 H 404.562 3.83642 -1.6495 0
M  V30 4261 N 404.999 1.35443 0.805782 0
M  V30 4262 C 405.929 1.31095 1.93226 0
M  V30 4263 C 406.91 0.185244 1.69088 0
M  V30 4264 O 408.095 0.380332 1.90439 0
M  V30 4265 C 405.225 1.08299 3.29983 0
M  V30 4266 C 404.179 2.17519 3.68605 0
M  V30 4267 C 403.505 1.79887 5.03532 0
M  V30 4268 C 404.805 3.5949 3.78898 0
M  V30 4269 H 406.499 2.25352 1.97122 0
M  V30 4270 H 404.045 1.0848 0.946996 0
M  V30 4271 H 405.998 1.03897 4.08391 0
M  V30 4272 H 404.722 0.104885 3.26432 0
M  V30 4273 H 403.381 2.2102 2.92482 0
M  V30 4274 H 403.029 0.80693 4.96485 0
M  V30 4275 H 402.729 2.53001 5.30344 0
M  V30 4276 H 404.253 1.77011 5.84379 0
M  V30 4277 H 405.667 3.58307 4.47536 0
M  V30 4278 H 404.064 4.31371 4.1718 0
M  V30 4279 H 405.134 3.95584 2.80431 0
M  V30 4280 N 406.477 -1.02803 1.19454 0
M  V30 4281 C 407.407 -2.12999 0.956758 0
M  V30 4282 C 408.388 -1.69743 -0.110188 0
M  V30 4283 O 409.573 -1.94148 0.0450038 0
M  V30 4284 C 406.703 -3.43746 0.495553 0
M  V30 4285 C 405.657 -4.00688 1.50443 0
M  V30 4286 C 404.983 -5.27067 0.900275 0
M  V30 4287 C 406.283 -4.35397 2.8849 0
M  V30 4288 H 407.977 -2.33148 1.87836 0
M  V30 4289 H 405.523 -1.12045 0.904539 0
M  V30 4290 H 407.476 -4.2021 0.316493 0
M  V30 4291 H 406.2 -3.23321 -0.461646 0
M  V30 4292 H 404.859 -3.2632 1.67065 0
M  V30 4293 H 404.507 -5.02959 -0.064503 0
M  V30 4294 H 404.207 -5.66127 1.57397 0
M  V30 4295 H 405.731 -6.06196 0.73203 0
M  V30 4296 H 407.145 -5.02795 2.75446 0
M  V30 4297 H 405.542 -4.85541 3.52661 0
M  V30 4298 H 406.612 -3.44662 3.41081 0
M  V30 4299 N 407.956 -0.998596 -1.21925 0
M  V30 4300 C 408.886 -0.573688 -2.26343 0
M  V30 4301 C 409.867 0.402296 -1.65274 0
M  V30 4302 O 411.052 0.291683 -1.91997 0
M  V30 4303 C 408.182 0.106839 -3.47136 0
M  V30 4304 C 407.136 -0.788269 -4.20678 0
M  V30 4305 C 406.462 0.0254927 -5.34694 0
M  V30 4306 C 407.762 -2.08784 -4.78755 0
M  V30 4307 H 409.456 -1.44651 -2.62138 0
M  V30 4308 H 407.002 -0.696975 -1.26009 0
M  V30 4309 H 408.955 0.415531 -4.19346 0
M  V30 4310 H 407.679 1.01424 -3.10452 0
M  V30 4311 H 406.338 -1.08069 -3.50309 0
M  V30 4312 H 405.986 0.933989 -4.94253 0
M  V30 4313 H 405.686 -0.570437 -5.84825 0
M  V30 4314 H 407.21 0.328147 -6.09718 0
M  V30 4315 H 408.624 -1.84272 -5.42878 0
M  V30 4316 H 407.021 -2.63307 -5.39249 0
M  V30 4317 H 408.091 -2.76284 -3.98491 0
M  V30 4318 N 409.434 1.37368 -0.772513 0
M  V30 4319 C 410.85 1.53059 -0.452231 0
M  V30 4320 C 411.05 1.73065 1.03203 0
M  V30 4321 O 410.106 1.75245 1.81784 0
M  V30 4322 C 411.419 2.72659 -1.26797 0
M  V30 4323 C 412.967 2.86521 -1.25995 0
M  V30 4324 C 413.442 4.09105 -2.05905 0
M  V30 4325 N 414.933 4.16219 -2.03263 0
M  V30 4326 C 415.668 5.10107 -2.61875 0
M  V30 4327 N 415.164 6.09547 -3.29278 0
M  V30 4328 N 416.957 5.02596 -2.51701 0
M  V30 4329 H 409.108 1.22634 -1.7342 0
M  V30 4330 H 411.371 0.597206 -0.736239 0
M  V30 4331 H 411.077 2.64343 -2.31982 0
M  V30 4332 H 410.951 3.66363 -0.897672 0
M  V30 4333 H 413.338 2.94308 -0.216081 0
M  V30 4334 H 413.419 1.93774 -1.66989 0
M  V30 4335 H 413.063 4.0208 -3.10313 0
M  V30 4336 H 412.993 5.00968 -1.62292 0
M  V30 4337 H 415.484 3.45012 -1.54192 0
M  V30 4338 H 415.797 6.77718 -3.71374 0
M  V30 4339 H 414.142 6.09824 -3.33377 0
M  V30 4340 H 417.333 4.23855 -1.98657 0
M  V30 4341 H 417.506 5.75582 -2.97673 0
M  V30 4342 N 410.912 0.523116 1.48665 0
M  V30 4343 C 412.159 -0.0134763 2.02496 0
M  V30 4344 C 412.487 -1.3493 1.40086 0
M  V30 4345 O 411.742 -1.88286 0.533567 0
M  V30 4346 C 412.041 -0.191671 3.56886 0
M  V30 4347 C 411.707 1.06893 4.38046 0
M  V30 4348 C 410.369 1.41443 4.59943 0
M  V30 4349 C 412.721 1.90584 4.85106 0
M  V30 4350 C 410.049 2.59594 5.26144 0
M  V30 4351 C 412.401 3.07907 5.52609 0
M  V30 4352 C 411.065 3.42811 5.72745 0
M  V30 4353 H 410.335 -0.00493133 0.740984 0
M  V30 4354 H 412.982 0.687751 1.78724 0
M  V30 4355 H 411.287 -0.97561 3.79459 0
M  V30 4356 H 412.984 -0.621659 3.96152 0
M  V30 4357 H 409.574 0.789848 4.21259 0
M  V30 4358 H 413.758 1.65203 4.67997 0
M  V30 4359 H 409.014 2.86847 5.39934 0
M  V30 4360 H 413.188 3.73066 5.88043 0
M  V30 4361 H 410.815 4.34462 6.23816 0
M  V30 4362 N 412.39 -1.55475 0.257931 0
M  V30 4363 C 413.667 -1.91155 -0.414629 0
M  V30 4364 C 414.047 -1.18008 -1.75035 0
M  V30 4365 O 413.395 -0.301193 -2.26506 0
M  V30 4366 C 413.605 -3.44283 -0.571859 0
M  V30 4367 C 414.953 -4.15744 -0.862678 0
M  V30 4368 O 415.977 -3.50083 -0.657314 0
M  V30 4369 O 414.836 -5.31909 -1.2544 0
M  V30 4370 H 411.93 -0.796016 -0.22425 0
M  V30 4371 H 414.476 -1.66976 0.302814 0
M  V30 4372 H 413.248 -3.89558 0.368844 0
M  V30 4373 H 412.871 -3.7436 -1.33943 0
M  V30 4374 N 413.868 0.0150385 -1.57593 0
M  V30 4375 C 415.117 0.702115 -1.89085 0
M  V30 4376 C 415.43 1.75764 -0.858277 0
M  V30 4377 O 416.636 2.49829 -1.0629 0
M  V30 4378 C 415.092 1.29992 -3.35604 0
M  V30 4379 C 414.7 0.280007 -4.47124 0
M  V30 4380 C 416.444 1.96606 -3.76227 0
M  V30 4381 C 414.351 0.886949 -5.84711 0
M  V30 4382 H 413.281 0.265997 -0.705522 0
M  V30 4383 H 415.932 -0.0430408 -1.8345 0
M  V30 4384 H 414.314 2.09525 -3.36029 0
M  V30 4385 H 415.488 -0.489631 -4.58191 0
M  V30 4386 H 413.803 -0.284835 -4.15425 0
M  V30 4387 H 416.4 2.42893 -4.76347 0
M  V30 4388 H 416.743 2.79024 -3.08952 0
M  V30 4389 H 417.276 1.23828 -3.78036 0
M  V30 4390 H 414.015 0.101876 -6.55421 0
M  V30 4391 H 413.535 1.6261 -5.77337 0
M  V30 4392 H 415.214 1.39011 -6.3189 0
M  V30 4393 N 415.346 1.54954 0.287554 0
M  V30 4394 C 416.571 1.79209 1.04397 0
M  V30 4395 C 416.996 0.556431 1.79682 0
M  V30 4396 O 416.354 -0.493518 1.74454 0
M  V30 4397 C 416.402 3.00739 1.98969 0
M  V30 4398 O 415.506 2.74805 3.075 0
M  V30 4399 H 414.847 0.592755 0.299227 0
M  V30 4400 H 417.377 2.02068 0.320886 0
M  V30 4401 H 417.387 3.29077 2.4119 0
M  V30 4402 H 416.062 3.90329 1.43582 0
M  V30 4403 H 414.639 2.57523 2.69697 0
M  V30 4404 N 416.824 -0.551391 1.4764 0
M  V30 4405 C 417.754 -1.66757 1.63445 0
M  V30 4406 C 418.735 -1.63077 0.483742 0
M  V30 4407 O 419.92 -1.80607 0.71377 0
M  V30 4408 C 417.05 -3.05387 1.65396 0
M  V30 4409 C 416.004 -3.23918 2.79752 0
M  V30 4410 C 415.33 -4.63393 2.66779 0
M  V30 4411 C 416.63 -3.08735 4.21284 0
M  V30 4412 H 418.324 -1.53786 2.56886 0
M  V30 4413 H 415.87 -0.738415 1.23626 0
M  V30 4414 H 417.823 -3.83325 1.75043 0
M  V30 4415 H 416.547 -3.19332 0.685195 0
M  V30 4416 H 415.206 -2.48391 2.69625 0
M  V30 4417 H 414.854 -4.74144 1.67918 0
M  V30 4418 H 414.554 -4.7674 3.43501 0
M  V30 4419 H 416.078 -5.43458 2.78364 0
M  V30 4420 H 417.492 -3.76484 4.32357 0
M  V30 4421 H 415.889 -3.33588 4.98838 0
M  V30 4422 H 416.959 -2.0541 4.39243 0
M  V30 4423 N 418.302 -1.35869 -0.798587 0
M  V30 4424 C 419.249 -1.29446 -1.91082 0
M  V30 4425 C 420.219 -0.16487 -1.6528 0
M  V30 4426 O 421.404 -0.349888 -1.87564 0
M  V30 4427 C 418.544 -1.0804 -3.27752 0
M  V30 4428 C 417.657 -2.29993 -3.65687 0
M  V30 4429 C 416.792 -2.01673 -4.91428 0
M  V30 4430 C 415.831 -3.19636 -5.22015 0
M  V30 4431 N 414.968 -2.91039 -6.38937 0
M  V30 4432 H 419.808 -2.24553 -1.95907 0
M  V30 4433 H 417.345 -1.11615 -0.958148 0
M  V30 4434 H 419.303 -0.936586 -4.06551 0
M  V30 4435 H 417.933 -0.16592 -3.22373 0
M  V30 4436 H 416.985 -2.55211 -2.82085 0
M  V30 4437 H 418.297 -3.18052 -3.84245 0
M  V30 4438 H 417.451 -1.84168 -5.78072 0
M  V30 4439 H 416.19 -1.10911 -4.74921 0
M  V30 4440 H 415.195 -3.37709 -4.33858 0
M  V30 4441 H 416.42 -4.11211 -5.40447 0
M  V30 4442 H 414.366 -2.0288 -6.2384 0
M  V30 4443 H 414.283 -3.72635 -6.57784 0
M  V30 4444 H 415.551 -2.77093 -7.28587 0
M  V30 4445 N 419.78 1.02168 -1.19998 0
M  V30 4446 C 420.727 2.10601 -0.944228 0
M  V30 4447 C 421.697 1.65639 0.123664 0
M  V30 4448 O 422.882 1.9079 -0.0199941 0
M  V30 4449 C 420.022 3.41504 -0.496865 0
M  V30 4450 C 419.135 3.99973 -1.63234 0
M  V30 4451 C 418.27 5.18915 -1.13579 0
M  V30 4452 C 417.309 5.69456 -2.24468 0
M  V30 4453 N 416.446 6.79665 -1.76068 0
M  V30 4454 H 421.286 2.31814 -1.8726 0
M  V30 4455 H 418.823 1.13686 -0.933483 0
M  V30 4456 H 420.781 4.16626 -0.218843 0
M  V30 4457 H 419.411 3.2038 0.394508 0
M  V30 4458 H 418.463 3.21997 -2.0254 0
M  V30 4459 H 419.775 4.33492 -2.46752 0
M  V30 4460 H 418.929 6.01222 -0.813429 0
M  V30 4461 H 417.668 4.8695 -0.270434 0
M  V30 4462 H 416.673 4.85757 -2.57526 0
M  V30 4463 H 417.898 6.03459 -3.11472 0
M  V30 4464 H 415.844 6.49538 -0.918516 0
M  V30 4465 H 415.761 7.12349 -2.5317 0
M  V30 4466 H 417.029 7.65549 -1.46817 0
M  V30 4467 N 421.258 1.00505 1.21394 0
M  V30 4468 C 422.206 0.558623 2.25792 0
M  V30 4469 C 423.2 -0.396848 1.64686 0
M  V30 4470 O 424.406 -0.268035 1.77993 0
M  V30 4471 H 420.781 0.1623 0.734277 0
M  V30 4472 H 422.752 1.4503 2.60785 0
M  V30 4473 C 421.501 -0.0989574 3.47559 0
M  V30 4474 H 420.824 0.627225 3.94849 0
M  V30 4475 H 422.264 -0.3746 4.22342 0
M  V30 4476 C 420.723 -1.33817 3.09184 0
M  V30 4477 O 421.253 -2.43252 3.19674 0
M  V30 4478 N 419.459 -1.21793 2.63846 0
M  V30 4479 H 419.006 -0.32746 2.5551 0
M  V30 4480 H 418.964 -2.04809 2.38539 0
M  V30 4481 N 422.737 -1.36956 0.779787 0
M  V30 4482 C 423.965 -2.03755 0.359398 0
M  V30 4483 C 424.38 -1.58807 -1.02106 0
M  V30 4484 O 423.737 -0.773024 -1.6532 0
M  V30 4485 C 423.788 -3.59251 0.402568 0
M  V30 4486 O 423.509 -4.02557 1.72858 0
M  V30 4487 C 425.01 -4.43291 -0.0284068 0
M  V30 4488 H 422.23 -0.654148 0.149437 0
M  V30 4489 H 424.774 -1.75128 1.05595 0
M  V30 4490 H 422.929 -3.86621 -0.245478 0
M  V30 4491 H 423.343 -4.97111 1.67275 0
M  V30 4492 H 424.817 -5.51975 0.0529466 0
M  V30 4493 H 425.294 -4.25719 -1.07982 0
M  V30 4494 H 425.9 -4.21163 0.591758 0
M  V30 4495 N 424.215 -0.530993 -1.48385 0
M  V30 4496 C 425.165 0.251092 -2.26613 0
M  V30 4497 C 426.149 0.908977 -1.32765 0
M  V30 4498 O 427.341 0.811616 -1.57295 0
M  V30 4499 C 424.47 1.29677 -3.17866 0
M  V30 4500 C 423.556 0.643627 -4.19188 0
M  V30 4501 N 423.947 -0.271223 -5.05072 0
M  V30 4502 C 422.245 0.900711 -4.3681 0
M  V30 4503 C 422.946 -0.648109 -5.78078 0
M  V30 4504 N 421.922 -0.00895987 -5.43599 0
M  V30 4505 H 425.724 -0.452702 -2.90393 0
M  V30 4506 H 423.238 -0.349091 -1.58604 0
M  V30 4507 H 425.235 1.87079 -3.72568 0
M  V30 4508 H 423.895 2.00193 -2.55642 0
M  V30 4509 H 424.906 -0.643883 -5.13882 0
M  V30 4510 H 421.583 1.59636 -3.85775 0
M  V30 4511 H 422.973 -1.39833 -6.57188 0
M  V30 4512 N 425.693 1.55336 -0.266172 0
M  V30 4513 C 426.921 2.03801 0.356756 0
M  V30 4514 C 427.336 1.14485 1.50129 0
M  V30 4515 O 426.693 0.163121 1.8177 0
M  V30 4516 C 426.744 3.51455 0.846281 0
M  V30 4517 O 426.465 4.37371 -0.252663 0
M  V30 4518 C 427.966 4.15767 1.53794 0
M  V30 4519 H 425.186 0.665906 0.0825218 0
M  V30 4520 H 427.73 2.00636 -0.39566 0
M  V30 4521 H 425.885 3.55092 1.54881 0
M  V30 4522 H 426.299 5.24358 0.122173 0
M  V30 4523 H 427.773 5.20714 1.83198 0
M  V30 4524 H 428.25 3.63404 2.46646 0
M  V30 4525 H 428.856 4.16107 0.879488 0
M  V30 4526 N 427.171 -0.0066808 1.57599 0
M  V30 4527 C 428.401 -0.703066 1.94269 0
M  V30 4528 C 428.809 -1.68206 0.866222 0
M  V30 4529 O 428.152 -1.82966 -0.164087 0
M  V30 4530 C 428.214 -1.49616 3.26887 0
M  V30 4531 C 427.878 -0.679494 4.5192 0
M  V30 4532 C 428.875 0.0299508 5.19891 0
M  V30 4533 C 426.56 -0.627433 4.98366 0
M  V30 4534 C 428.554 0.780514 6.32603 0
M  V30 4535 C 426.241 0.126861 6.10968 0
M  V30 4536 C 427.239 0.829574 6.77943 0
M  V30 4537 O 426.927 1.57157 7.88389 0
M  V30 4538 H 426.659 -0.201217 0.645359 0
M  V30 4539 H 429.213 0.0385326 2.05364 0
M  V30 4540 H 427.443 -2.28209 3.12182 0
M  V30 4541 H 429.132 -2.07726 3.48719 0
M  V30 4542 H 429.898 -0.00115963 4.85 0
M  V30 4543 H 425.777 -1.16392 4.46065 0
M  V30 4544 H 429.321 1.32954 6.84813 0
M  V30 4545 H 425.218 0.159815 6.45302 0
M  V30 4546 H 425.986 1.48758 8.04868 0
M  V30 4547 N 428.649 -1.55105 -0.279332 0
M  V30 4548 C 429.896 -1.75412 -1.01177 0
M  V30 4549 C 430.224 -0.551728 -1.86511 0
M  V30 4550 O 429.479 0.465919 -1.90073 0
M  V30 4551 C 429.778 -3.0086 -1.92919 0
M  V30 4552 C 429.444 -4.33689 -1.23387 0
M  V30 4553 C 428.106 -4.69792 -1.04159 0
M  V30 4554 C 430.458 -5.15941 -0.738562 0
M  V30 4555 C 427.786 -5.85707 -0.341166 0
M  V30 4556 C 430.138 -6.32579 -0.0517636 0
M  V30 4557 C 428.802 -6.67326 0.152292 0
M  V30 4558 H 428.072 -0.641879 -0.370233 0
M  V30 4559 H 430.719 -1.89373 -0.284627 0
M  V30 4560 H 429.024 -2.81773 -2.72234 0
M  V30 4561 H 430.721 -3.13768 -2.49701 0
M  V30 4562 H 427.311 -4.05309 -1.39364 0
M  V30 4563 H 431.495 -4.8853 -0.874764 0
M  V30 4564 H 426.751 -6.11157 -0.172287 0
M  V30 4565 H 430.925 -6.9557 0.339828 0
M  V30 4566 H 428.552 -7.56998 0.697014 0
M  V30 4567 N 430.127 0.543554 -1.4793 0
M  V30 4568 C 431.357 1.32324 -1.58663 0
M  V30 4569 C 431.765 1.8766 -0.240896 0
M  V30 4570 O 431.108 1.66411 0.778011 0
M  V30 4571 C 431.17 2.52094 -2.56299 0
M  V30 4572 C 430.834 2.17944 -4.01683 0
M  V30 4573 C 431.831 1.74422 -4.89768 0
M  V30 4574 C 429.516 2.28884 -4.47121 0
M  V30 4575 C 431.51 1.42287 -6.21316 0
M  V30 4576 C 429.197 1.96361 -5.78693 0
M  V30 4577 C 430.195 1.53132 -6.65612 0
M  V30 4578 O 429.883 1.21029 -7.94737 0
M  V30 4579 H 429.615 0.409174 -0.538101 0
M  V30 4580 H 432.169 0.663887 -1.94375 0
M  V30 4581 H 430.399 3.20965 -2.15681 0
M  V30 4582 H 432.088 3.14165 -2.57012 0
M  V30 4583 H 432.854 1.65452 -4.55907 0
M  V30 4584 H 428.733 2.61488 -3.79664 0
M  V30 4585 H 432.277 1.08472 -6.89115 0
M  V30 4586 H 428.174 2.04967 -6.12094 0
M  V30 4587 H 428.942 1.34543 -8.07366 0
M  V30 4588 N 431.605 1.3629 0.791371 0
M  V30 4589 C 432.833 1.33562 1.58016 0
M  V30 4590 C 433.248 -0.0835616 1.88615 0
M  V30 4591 O 432.605 -1.0399 1.49974 0
M  V30 4592 C 432.656 2.15517 2.90232 0
M  V30 4593 O 432.377 3.51902 2.60953 0
M  V30 4594 C 433.878 2.20546 3.84544 0
M  V30 4595 H 431.098 0.458226 0.490173 0
M  V30 4596 H 433.642 1.79361 0.982345 0
M  V30 4597 H 431.797 1.73278 3.46487 0
M  V30 4598 H 432.211 3.94644 3.4548 0
M  V30 4599 H 433.685 2.82252 4.74382 0
M  V30 4600 H 434.162 1.20838 4.2225 0
M  V30 4601 H 434.768 2.63013 3.34222 0
M  V30 4602 N 433.083 -1.0153 1.20538 0
M  V30 4603 C 434.308 -1.79283 1.04271 0
M  V30 4604 C 434.733 -1.8372 -0.403544 0
M  V30 4605 O 434.091 -1.27321 -1.2907 0
M  V30 4606 C 434.139 -3.21535 1.63241 0
M  V30 4607 O 433.243 -4.03099 0.870908 0
M  V30 4608 H 432.584 -0.55293 0.367647 0
M  V30 4609 H 435.114 -1.27696 1.59859 0
M  V30 4610 H 435.124 -3.72243 1.6703 0
M  V30 4611 H 433.799 -3.1762 2.68497 0
M  V30 4612 H 432.376 -3.61693 0.907323 0
M  V30 4613 N 434.561 -1.01147 -1.20859 0
M  V30 4614 C 435.808 -0.697865 -1.90095 0
M  V30 4615 C 436.136 0.772014 -1.78522 0
M  V30 4616 O 435.391 1.57595 -1.16027 0
M  V30 4617 C 435.69 -1.0727 -3.40922 0
M  V30 4618 C 435.356 -2.53792 -3.72693 0
M  V30 4619 C 434.018 -2.93829 -3.81075 0
M  V30 4620 C 436.37 -3.48674 -3.87397 0
M  V30 4621 C 433.698 -4.27696 -4.01613 0
M  V30 4622 C 436.05 -4.82223 -4.09444 0
M  V30 4623 C 434.714 -5.21973 -4.16054 0
M  V30 4624 H 433.984 -0.255367 -0.695607 0
M  V30 4625 H 436.631 -1.27111 -1.43231 0
M  V30 4626 H 434.936 -0.417799 -3.89566 0
M  V30 4627 H 436.633 -0.807818 -3.92779 0
M  V30 4628 H 433.223 -2.21768 -3.66765 0
M  V30 4629 H 437.407 -3.18904 -3.80281 0
M  V30 4630 H 432.663 -4.58055 -4.04964 0
M  V30 4631 H 436.837 -5.55672 -4.19763 0
M  V30 4632 H 434.464 -6.25717 -4.31721 0
M  V30 4633 N 436.039 1.36541 -0.78704 0
M  V30 4634 C 437.002 2.28413 -0.189778 0
M  V30 4635 C 438.002 1.48719 0.611499 0
M  V30 4636 O 439.192 1.68737 0.432842 0
M  V30 4637 C 436.324 3.32824 0.737638 0
M  V30 4638 H 437.517 2.82743 -0.999831 0
M  V30 4639 H 435.07 1.46065 -0.556298 0
M  V30 4640 H 435.805 2.83646 1.57212 0
M  V30 4641 H 435.59 3.91752 0.165044 0
M  V30 4642 H 437.08 4.0144 1.15047 0
M  V30 4643 N 437.518 0.538854 1.48102 0
M  V30 4644 C 438.481 -0.208395 2.28251 0
M  V30 4645 C 439.481 -0.859656 1.35892 0
M  V30 4646 O 440.671 -0.71834 1.58699 0
M  V30 4647 C 437.803 -1.30252 3.15035 0
M  V30 4648 H 438.996 0.495407 2.9578 0
M  V30 4649 H 436.549 0.295112 1.53489 0
M  V30 4650 H 437.284 -2.0393 2.52157 0
M  V30 4651 H 437.069 -0.840551 3.82985 0
M  V30 4652 H 438.559 -1.82787 3.75471 0
M  V30 4653 N 438.996 -1.55193 0.274407 0
M  V30 4654 C 440.226 -2.03692 -0.345442 0
M  V30 4655 C 440.634 -1.15224 -1.50067 0
M  V30 4656 O 439.977 -0.164749 -1.8296 0
M  V30 4657 C 440.039 -3.48325 -0.88939 0
M  V30 4658 C 439.703 -4.56794 0.137115 0
M  V30 4659 C 440.7 -5.11028 0.956378 0
M  V30 4660 C 438.385 -5.01568 0.27115 0
M  V30 4661 C 440.379 -6.08552 1.89587 0
M  V30 4662 C 438.066 -5.98918 1.21412 0
M  V30 4663 C 439.064 -6.52291 2.02498 0
M  V30 4664 O 438.752 -7.47738 2.952 0
M  V30 4665 H 438.484 -0.670893 -0.0829332 0
M  V30 4666 H 441.038 -2.01387 0.404056 0
M  V30 4667 H 439.268 -3.47867 -1.68895 0
M  V30 4668 H 440.957 -3.80167 -1.42225 0
M  V30 4669 H 441.723 -4.7725 0.863559 0
M  V30 4670 H 437.602 -4.5967 -0.349987 0
M  V30 4671 H 441.146 -6.50137 2.52918 0
M  V30 4672 H 437.043 -6.32114 1.30776 0
M  V30 4673 H 437.811 -7.65451 2.89874 0
M  V30 4674 N 440.474 -0.00167713 -1.576 0
M  V30 4675 C 441.723 0.682021 -1.89819 0
M  V30 4676 C 442.036 1.74844 -0.876871 0
M  V30 4677 O 443.242 2.48688 -1.08934 0
M  V30 4678 C 441.698 1.26425 -3.36964 0
M  V30 4679 C 441.306 0.232568 -4.47396 0
M  V30 4680 C 443.05 1.92604 -3.78291 0
M  V30 4681 C 440.957 0.824882 -5.85619 0
M  V30 4682 H 439.887 0.258499 -0.708304 0
M  V30 4683 H 442.538 -0.0624957 -1.83394 0
M  V30 4684 H 440.92 2.05949 -3.38232 0
M  V30 4685 H 442.094 -0.5382 -4.57646 0
M  V30 4686 H 440.409 -0.32888 -4.15099 0
M  V30 4687 H 443.006 2.37827 -4.78897 0
M  V30 4688 H 443.349 2.75732 -3.11894 0
M  V30 4689 H 443.882 1.19812 -3.79328 0
M  V30 4690 H 440.621 0.0323542 -6.55492 0
M  V30 4691 H 440.141 1.56477 -5.79029 0
M  V30 4692 H 441.82 1.32301 -6.33329 0
M  V30 4693 N 441.952 1.55251 0.271103 0
M  V30 4694 C 443.199 1.75946 1.00245 0
M  V30 4695 C 443.527 0.561611 1.86215 0
M  V30 4696 O 442.782 -0.455832 1.90317 0
M  V30 4697 C 443.081 3.01879 1.91321 0
M  V30 4698 C 442.747 4.34337 1.21086 0
M  V30 4699 C 441.409 4.70338 1.01666 0
M  V30 4700 C 443.761 5.16325 0.71119 0
M  V30 4701 C 441.089 5.8588 0.310099 0
M  V30 4702 C 443.441 6.32597 0.0182157 0
M  V30 4703 C 442.105 6.67236 -0.18768 0
M  V30 4704 H 441.375 0.643833 0.366824 0
M  V30 4705 H 444.022 1.89521 0.27458 0
M  V30 4706 H 442.327 2.83212 2.70736 0
M  V30 4707 H 444.024 3.15088 2.48033 0
M  V30 4708 H 440.614 4.06043 1.37213 0
M  V30 4709 H 444.798 4.88987 0.848844 0
M  V30 4710 H 440.054 6.1124 0.139873 0
M  V30 4711 H 444.228 6.9538 -0.376711 0
M  V30 4712 H 441.855 7.56618 -0.73715 0
M  V30 4713 N 443.43 -0.535701 1.48216 0
M  V30 4714 C 444.678 -1.28928 1.55634 0
M  V30 4715 C 444.999 -1.93645 0.229514 0
M  V30 4716 O 444.269 -1.81038 -0.74846 0
M  V30 4717 H 442.849 -0.47884 0.573342 0
M  V30 4718 H 445.511 -0.623853 1.84646 0
M  V30 4719 H 444.607 -2.07157 2.33436 0
M  V30 4720 N 444.908 -1.36708 -0.784132 0
M  V30 4721 C 445.838 -1.34153 -1.91116 0
M  V30 4722 C 446.819 -0.212121 -1.68772 0
M  V30 4723 O 448.004 -0.410581 -1.8981 0
M  V30 4724 C 445.134 -1.13535 -3.28218 0
M  V30 4725 C 444.088 -2.23356 -3.65097 0
M  V30 4726 C 443.414 -1.87875 -5.00607 0
M  V30 4727 C 444.714 -3.65473 -3.73131 0
M  V30 4728 H 446.408 -2.28459 -1.93512 0
M  V30 4729 H 443.954 -1.09973 -0.929618 0
M  V30 4730 H 445.907 -1.10381 -4.06687 0
M  V30 4731 H 444.631 -0.156804 -3.26223 0
M  V30 4732 H 443.29 -2.25645 -2.88929 0
M  V30 4733 H 442.938 -0.885814 -4.95139 0
M  V30 4734 H 442.638 -2.61406 -5.26252 0
M  V30 4735 H 444.162 -1.86286 -5.81489 0
M  V30 4736 H 445.576 -3.65382 -4.41779 0
M  V30 4737 H 443.973 -4.37953 -4.10265 0
M  V30 4738 H 445.043 -3.99995 -2.74102 0
M  V30 4739 N 446.386 1.0089 -1.21074 0
M  V30 4740 C 447.634 1.74262 -1.02358 0
M  V30 4741 C 447.955 1.89869 0.444393 0
M  V30 4742 O 447.225 1.44677 1.32081 0
M  V30 4743 H 445.805 0.645615 -0.375754 0
M  V30 4744 H 448.467 1.21596 -1.52317 0
M  V30 4745 H 447.563 2.74328 -1.4883 0
M  V30 4746 N 447.864 1.01787 1.20321 0
M  V30 4747 C 448.794 0.609625 2.25401 0
M  V30 4748 C 449.775 -0.375951 1.65893 0
M  V30 4749 O 450.96 -0.261101 1.92437 0
M  V30 4750 C 448.09 -0.0515995 3.47262 0
M  V30 4751 C 447.044 0.855095 4.19371 0
M  V30 4752 C 446.37 0.0595757 5.34667 0
M  V30 4753 C 447.67 2.16374 4.75373 0
M  V30 4754 H 449.364 1.48803 2.59804 0
M  V30 4755 H 446.91 0.716934 1.24884 0
M  V30 4756 H 448.863 -0.348764 4.19954 0
M  V30 4757 H 447.587 -0.964726 3.12027 0
M  V30 4758 H 446.246 1.13628 3.48546 0
M  V30 4759 H 445.894 -0.85524 4.95676 0
M  V30 4760 H 445.594 0.663406 5.83843 0
M  V30 4761 H 447.118 -0.231105 6.10162 0
M  V30 4762 H 448.532 1.92885 5.39878 0
M  V30 4763 H 446.929 2.71853 5.34991 0
M  V30 4764 H 447.999 2.82589 3.94045 0
M  V30 4765 N 449.342 -1.36122 0.79427 0
M  V30 4766 C 450.57 -2.03362 0.380989 0
M  V30 4767 C 450.985 -1.59881 -1.00416 0
M  V30 4768 O 450.342 -0.790515 -1.6449 0
M  V30 4769 C 450.393 -3.58804 0.440649 0
M  V30 4770 O 450.114 -4.007 1.77118 0
M  V30 4771 C 451.615 -4.43296 0.0186117 0
M  V30 4772 H 448.835 -0.652526 0.156367 0
M  V30 4773 H 451.379 -1.73998 1.07447 0
M  V30 4774 H 449.534 -3.8686 -0.204458 0
M  V30 4775 H 449.948 -4.95309 1.72538 0
M  V30 4776 H 451.422 -5.51887 0.111488 0
M  V30 4777 H 451.899 -4.2684 -1.03461 0
M  V30 4778 H 452.505 -4.20512 0.636395 0
M  V30 4779 N 450.82 -0.546701 -1.47814 0
M  V30 4780 C 452.069 -0.0166497 -2.01693 0
M  V30 4781 C 452.382 1.33721 -1.42752 0
M  V30 4782 O 453.588 1.95658 -1.8823 0
M  V30 4783 C 452.044 0.0206769 -3.59894 0
M  V30 4784 C 451.652 -1.3293 -4.27824 0
M  V30 4785 C 453.396 0.498674 -4.21561 0
M  V30 4786 C 451.303 -1.25165 -5.78003 0
M  V30 4787 H 450.233 -0.0024541 -0.753996 0
M  V30 4788 H 452.884 -0.692984 -1.69912 0
M  V30 4789 H 451.266 0.76244 -3.88591 0
M  V30 4790 H 452.44 -2.08795 -4.10781 0
M  V30 4791 H 450.755 -1.74438 -3.78101 0
M  V30 4792 H 453.352 0.575 -5.31599 0
M  V30 4793 H 453.695 1.5083 -3.88016 0
M  V30 4794 H 454.228 -0.18791 -3.97356 0
M  V30 4795 H 450.967 -2.23695 -6.1615 0
M  V30 4796 H 450.487 -0.53464 -5.97412 0
M  V30 4797 H 452.166 -0.949299 -6.39998 0
M  V30 4798 N 452.299 1.55045 -0.282633 0
M  V30 4799 C 453.546 1.9976 0.33199 0
M  V30 4800 C 453.874 1.17105 1.55295 0
M  V30 4801 O 453.129 0.230599 1.94337 0
M  V30 4802 C 453.428 3.49422 0.750938 0
M  V30 4803 C 453.094 4.4941 -0.366228 0
M  V30 4804 C 451.756 4.76471 -0.672964 0
M  V30 4805 C 454.108 5.09054 -1.11864 0
M  V30 4806 C 451.436 5.60442 -1.73556 0
M  V30 4807 C 453.788 5.9418 -2.17102 0
M  V30 4808 C 452.452 6.19558 -2.48402 0
M  V30 4809 H 451.722 0.730974 0.121484 0
M  V30 4810 H 454.369 1.8732 -0.39791 0
M  V30 4811 H 452.674 3.59377 1.56063 0
M  V30 4812 H 454.371 3.81432 1.23736 0
M  V30 4813 H 450.961 4.2844 -0.117041 0
M  V30 4814 H 455.145 4.88165 -0.894925 0
M  V30 4815 H 450.401 5.78349 -1.983 0
M  V30 4816 H 454.575 6.39427 -2.75873 0
M  V30 4817 H 452.202 6.84417 -3.30874 0
M  V30 4818 N 453.777 0.010035 1.57597 0
M  V30 4819 C 455.026 -0.671945 1.90178 0
M  V30 4820 C 455.339 -1.74376 0.886131 0
M  V30 4821 O 456.545 -2.48107 1.10252 0
M  V30 4822 C 455.001 -1.24636 3.3763 0
M  V30 4823 C 454.609 -0.208838 4.47513 0
M  V30 4824 C 456.353 -1.90595 3.79307 0
M  V30 4825 C 454.26 -0.793814 5.86048 0
M  V30 4826 H 453.19 -0.25474 0.709665 0
M  V30 4827 H 455.841 0.0722206 1.83358 0
M  V30 4828 H 454.223 -2.04152 3.3932 0
M  V30 4829 H 455.397 0.562463 4.57354 0
M  V30 4830 H 453.712 0.350889 4.14919 0
M  V30 4831 H 456.309 -2.35284 4.80151 0
M  V30 4832 H 456.652 -2.74074 3.13352 0
M  V30 4833 H 457.185 -1.17798 3.79958 0
M  V30 4834 H 453.924 0.00240855 6.555 0
M  V30 4835 H 453.444 -1.53404 5.79851 0
M  V30 4836 H 455.123 -1.2894 6.34022 0
M  V30 4837 N 455.255 -1.55392 -0.262866 0
M  V30 4838 C 456.188 -1.8391 -1.35101 0
M  V30 4839 C 457.166 -0.692901 -1.47097 0
M  V30 4840 O 458.35 -0.936979 -1.63563 0
M  V30 4841 C 455.477 -2.00969 -2.72634 0
M  V30 4842 C 454.523 -3.23559 -2.7787 0
M  V30 4843 S 455.356 -4.80647 -2.3609 0
M  V30 4844 C 456.512 -5.00692 -3.75578 0
M  V30 4845 H 456.745 -2.75918 -1.1071 0
M  V30 4846 H 454.278 -1.47294 -0.463029 0
M  V30 4847 H 456.236 -2.11482 -3.51832 0
M  V30 4848 H 454.897 -1.09832 -2.94272 0
M  V30 4849 H 454.09 -3.32413 -3.78837 0
M  V30 4850 H 453.692 -3.11689 -2.06702 0
M  V30 4851 H 455.984 -4.87055 -4.70939 0
M  V30 4852 H 456.927 -6.02717 -3.71669 0
M  V30 4853 H 457.335 -4.28619 -3.6735 0
M  V30 4854 N 456.733 0.527833 -1.48498 0
M  V30 4855 C 457.683 1.62844 -1.5958 0
M  V30 4856 C 458.667 1.54397 -0.452809 0
M  V30 4857 O 459.859 1.62381 -0.704364 0
M  V30 4858 C 456.988 3.01557 -1.64067 0
M  V30 4859 C 456.074 3.151 -2.83853 0
M  V30 4860 N 456.465 2.9861 -4.08247 0
M  V30 4861 C 454.763 3.46158 -2.8123 0
M  V30 4862 C 455.464 3.15626 -4.88626 0
M  V30 4863 N 454.44 3.43298 -4.21483 0
M  V30 4864 H 458.242 1.48708 -2.53502 0
M  V30 4865 H 455.756 0.733343 -1.44899 0
M  V30 4866 H 457.753 3.8062 -1.70101 0
M  V30 4867 H 456.413 3.16783 -0.712636 0
M  V30 4868 H 457.424 2.75329 -4.3865 0
M  V30 4869 H 454.101 3.67728 -1.97692 0
M  V30 4870 H 455.491 3.07596 -5.97356 0
M  V30 4871 N 458.211 1.37122 0.776871 0
M  V30 4872 C 459.46 1.31373 1.53049 0
M  V30 4873 C 459.773 -0.101016 1.95339 0
M  V30 4874 O 460.979 -0.280953 2.70042 0
M  V30 4875 C 459.435 2.30567 2.76346 0
M  V30 4876 C 459.043 3.77543 2.41175 0
M  V30 4877 C 460.787 2.33818 3.54301 0
M  V30 4878 C 458.694 4.68481 3.60943 0
M  V30 4879 H 457.624 0.488234 0.574581 0
M  V30 4880 H 460.275 1.62554 0.851372 0
M  V30 4881 H 458.657 1.92396 3.46121 0
M  V30 4882 H 459.831 4.24521 1.79216 0
M  V30 4883 H 458.146 3.77187 1.76405 0
M  V30 4884 H 460.743 2.98965 4.4331 0
M  V30 4885 H 461.086 1.3503 3.93793 0
M  V30 4886 H 461.619 2.7067 2.91518 0
M  V30 4887 H 458.358 5.68378 3.26537 0
M  V30 4888 H 457.878 4.2621 4.22025 0
M  V30 4889 H 459.557 4.85366 4.27819 0
M  V30 4890 N 459.689 -1.00246 1.21608 0
M  V30 4891 C 460.936 -1.74061 1.03485 0
M  V30 4892 C 461.264 -1.89658 -0.431308 0
M  V30 4893 O 460.519 -1.42976 -1.33627 0
M  V30 4894 C 460.818 -3.15448 1.68009 0
M  V30 4895 C 460.484 -3.19792 3.17874 0
M  V30 4896 C 459.146 -3.20685 3.58768 0
M  V30 4897 C 461.498 -3.16835 4.13842 0
M  V30 4898 C 458.826 -3.16309 4.94131 0
M  V30 4899 C 461.178 -3.14001 5.49169 0
M  V30 4900 C 459.842 -3.13204 5.89457 0
M  V30 4901 H 459.112 -0.636934 0.378677 0
M  V30 4902 H 461.759 -1.17473 1.51236 0
M  V30 4903 H 460.064 -3.75284 1.12557 0
M  V30 4904 H 461.761 -3.71285 1.51487 0
M  V30 4905 H 458.351 -3.19842 2.85305 0
M  V30 4906 H 462.535 -3.15303 3.83272 0
M  V30 4907 H 457.791 -3.14032 5.24589 0
M  V30 4908 H 461.965 -3.10667 6.23265 0
M  V30 4909 H 459.592 -3.09568 6.94314 0
M  V30 4910 N 461.167 -1.02423 -1.1978 0
M  V30 4911 C 462.114 -0.601023 -2.22837 0
M  V30 4912 C 463.084 0.382801 -1.61629 0
M  V30 4913 O 464.269 0.280514 -1.88727 0
M  V30 4914 C 461.409 0.0467755 -3.45068 0
M  V30 4915 C 460.522 -0.98253 -4.20678 0
M  V30 4916 C 459.657 -0.304982 -5.30324 0
M  V30 4917 C 458.696 -1.32052 -5.97686 0
M  V30 4918 N 457.833 -0.669105 -6.98904 0
M  V30 4919 H 462.673 -1.48444 -2.58396 0
M  V30 4920 H 460.21 -0.742936 -1.2696 0
M  V30 4921 H 462.168 0.439556 -4.14878 0
M  V30 4922 H 460.798 0.893796 -3.10179 0
M  V30 4923 H 459.85 -1.49341 -3.49859 0
M  V30 4924 H 461.162 -1.75455 -4.66923 0
M  V30 4925 H 460.316 0.142893 -6.06532 0
M  V30 4926 H 459.055 0.499283 -4.85138 0
M  V30 4927 H 458.06 -1.7787 -5.20233 0
M  V30 4928 H 459.285 -2.1262 -6.44957 0
M  V30 4929 H 457.231 0.115152 -6.55899 0
M  V30 4930 H 457.148 -1.37908 -7.43315 0
M  V30 4931 H 458.416 -0.245076 -7.79115 0
M  V30 4932 N 462.645 1.35699 -0.801477 0
M  V30 4933 C 463.595 2.2728 -0.181073 0
M  V30 4934 C 464.579 1.47533 0.642098 0
M  V30 4935 O 465.771 1.69785 0.500193 0
M  V30 4936 C 462.9 3.36626 0.673612 0
M  V30 4937 C 461.986 4.23802 -0.159008 0
M  V30 4938 N 462.377 4.90879 -1.2195 0
M  V30 4939 C 460.675 4.45959 0.0602005 0
M  V30 4940 C 461.376 5.5546 -1.72738 0
M  V30 4941 N 460.352 5.33663 -1.03465 0
M  V30 4942 H 464.154 2.76632 -0.992582 0
M  V30 4943 H 461.668 1.49166 -0.642127 0
M  V30 4944 H 463.665 4.01179 1.13408 0
M  V30 4945 H 462.325 2.88828 1.48353 0
M  V30 4946 H 463.336 4.92497 -1.60209 0
M  V30 4947 H 460.013 4.08969 0.839664 0
M  V30 4948 H 461.403 6.18991 -2.61342 0
M  V30 4949 N 464.123 0.554532 1.47522 0
M  V30 4950 C 465.086 -0.184174 2.28459 0
M  V30 4951 C 466.086 -0.845195 1.36796 0
M  V30 4952 O 467.276 -0.701467 1.59452 0
M  V30 4953 C 464.408 -1.26903 3.16399 0
M  V30 4954 H 465.601 0.526751 2.95238 0
M  V30 4955 H 463.154 0.311375 1.53167 0
M  V30 4956 H 463.889 -2.01244 2.54306 0
M  V30 4957 H 463.674 -0.799883 3.83854 0
M  V30 4958 H 465.164 -1.78794 3.77389 0
M  V30 4959 N 465.601 -1.54893 0.290851 0
M  V30 4960 C 466.533 -2.20564 -0.623236 0
M  V30 4961 C 467.546 -1.19519 -1.1054 0
M  V30 4962 O 468.735 -1.46165 -1.02459 0
M  V30 4963 C 465.835 -2.83033 -1.86401 0
M  V30 4964 C 465.008 -4.09916 -1.52604 0
M  V30 4965 C 464.067 -4.56284 -2.62091 0
M  V30 4966 O 463.093 -5.2171 -2.27612 0
M  V30 4967 N 464.295 -4.27746 -3.92446 0
M  V30 4968 H 467.06 -2.99638 -0.0610915 0
M  V30 4969 H 464.621 -1.61508 0.112615 0
M  V30 4970 H 466.613 -3.1099 -2.58973 0
M  V30 4971 H 465.183 -2.0786 -2.33481 0
M  V30 4972 H 464.403 -3.89078 -0.633424 0
M  V30 4973 H 465.691 -4.92554 -1.27547 0
M  V30 4974 H 465.089 -3.7531 -4.23272 0
M  V30 4975 H 463.646 -4.60437 -4.61347 0
M  V30 4976 N 467.08 -0.0183926 -1.57589 0
M  V30 4977 C 468.491 0.521927 -1.79256 0
M  V30 4978 C 468.842 1.72885 -0.927636 0
M  V30 4979 O 467.967 2.15978 -0.135091 0
M  V30 4980 C 468.562 0.953632 -3.25102 0
M  V30 4981 C 467.121 1.43913 -3.47801 0
M  V30 4982 C 466.268 0.398837 -2.74417 0
M  V30 4983 H 469.219 -0.244485 -1.56805 0
M  V30 4984 H 469.24 1.81863 -3.34224 0
M  V30 4985 H 468.752 0.0750123 -3.88028 0
M  V30 4986 H 466.853 2.33804 -2.90115 0
M  V30 4987 H 466.966 1.45391 -4.56507 0
M  V30 4988 H 465.33 0.864572 -2.39577 0
M  V30 4989 H 466.113 -0.471132 -3.40052 0
M  V30 4990 N 468.558 1.5553 0.254621 0
M  V30 4991 C 469.521 1.88872 1.29846 0
M  V30 4992 C 470.521 0.764591 1.41459 0
M  V30 4993 O 471.711 1.03265 1.40293 0
M  V30 4994 C 468.843 2.11032 2.67728 0
M  V30 4995 H 470.036 2.82201 1.01502 0
M  V30 4996 H 467.589 1.48303 0.493556 0
M  V30 4997 H 468.324 1.20146 3.01223 0
M  V30 4998 H 468.109 2.92895 2.60682 0
M  V30 4999 H 469.599 2.38038 3.43115 0
M  V30 5000 N 470.036 -0.519951 1.48776 0
M  V30 5001 C 470.966 -1.63253 1.66945 0
M  V30 5002 C 471.947 -1.62014 0.518224 0
M  V30 5003 O 473.132 -1.79053 0.751919 0
M  V30 5004 C 470.262 -3.0181 1.71836 0
M  V30 5005 C 469.216 -3.17911 2.8656 0
M  V30 5006 C 468.542 -4.5763 2.76548 0
M  V30 5007 C 469.842 -2.99729 4.27738 0
M  V30 5008 H 471.536 -1.48302 2.6009 0
M  V30 5009 H 469.082 -0.712026 1.25165 0
M  V30 5010 H 471.035 -3.79525 1.83135 0
M  V30 5011 H 469.759 -3.17806 0.752775 0
M  V30 5012 H 468.418 -2.42616 2.74833 0
M  V30 5013 H 468.066 -4.70476 1.77937 0
M  V30 5014 H 467.766 -4.69346 3.53536 0
M  V30 5015 H 469.29 -5.37431 2.89828 0
M  V30 5016 H 470.704 -3.67228 4.40246 0
M  V30 5017 H 469.101 -3.22932 5.05801 0
M  V30 5018 H 470.171 -1.96047 4.43502 0
M  V30 5019 N 471.514 -1.37532 -0.769588 0
M  V30 5020 C 472.444 -1.36172 -1.89682 0
M  V30 5021 C 473.425 -0.23001 -1.68538 0
M  V30 5022 O 474.61 -0.43069 -1.89364 0
M  V30 5023 C 471.74 -1.1701 -3.26995 0
M  V30 5024 C 470.694 -2.27216 -3.62708 0
M  V30 5025 C 470.02 -1.93174 -4.98586 0
M  V30 5026 C 471.32 -3.6941 -3.69234 0
M  V30 5027 H 473.014 -2.30499 -1.91078 0
M  V30 5028 H 470.56 -1.10953 -0.917902 0
M  V30 5029 H 472.513 -1.14688 -4.05493 0
M  V30 5030 H 471.237 -0.191395 -3.26039 0
M  V30 5031 H 469.896 -2.28697 -2.86519 0
M  V30 5032 H 469.544 -0.938281 -4.94171 0
M  V30 5033 H 469.244 -2.66973 -5.23449 0
M  V30 5034 H 470.768 -1.92443 -5.79481 0
M  V30 5035 H 472.182 -3.70047 -4.37879 0
M  V30 5036 H 470.579 -4.4228 -4.05597 0
M  V30 5037 H 471.649 -4.0288 -2.69844 0
M  V30 5038 N 472.992 0.995999 -1.22138 0
M  V30 5039 C 474.222 1.76809 -1.06874 0
M  V30 5040 C 474.63 1.85265 0.383866 0
M  V30 5041 O 473.973 1.31969 1.27789 0
M  V30 5042 C 474.035 3.2186 -1.60144 0
M  V30 5043 C 473.699 3.36958 -3.0872 0
M  V30 5044 C 474.696 3.2452 -4.0618 0
M  V30 5045 C 472.381 3.62109 -3.48112 0
M  V30 5046 C 474.375 3.37013 -5.41019 0
M  V30 5047 C 472.062 3.74243 -4.831 0
M  V30 5048 C 473.06 3.61702 -5.79362 0
M  V30 5049 O 472.748 3.73436 -7.119 0
M  V30 5050 H 472.48 0.562207 -0.375365 0
M  V30 5051 H 475.034 1.26113 -1.62125 0
M  V30 5052 H 473.264 3.73734 -0.992981 0
M  V30 5053 H 474.953 3.80775 -1.40589 0
M  V30 5054 H 475.719 3.05004 -3.77091 0
M  V30 5055 H 471.598 3.70949 -2.73712 0
M  V30 5056 H 475.142 3.27141 -6.16137 0
M  V30 5057 H 471.039 3.93266 -5.11872 0
M  V30 5058 H 471.807 3.90328 -7.19435 0
M  V30 5059 N 474.47 1.03057 1.19235 0
M  V30 5060 C 475.4 0.633497 2.24742 0
M  V30 5061 C 476.381 -0.358335 1.66283 0
M  V30 5062 O 477.566 -0.240676 1.92703 0
M  V30 5063 C 474.696 -0.0147648 3.47297 0
M  V30 5064 C 473.65 0.899527 4.18441 0
M  V30 5065 C 472.976 0.116281 5.34574 0
M  V30 5066 C 474.276 2.21404 4.73051 0
M  V30 5067 H 475.97 1.5155 2.58211 0
M  V30 5068 H 473.516 0.73014 1.24117 0
M  V30 5069 H 475.469 -0.304202 4.20301 0
M  V30 5070 H 474.193 -0.931577 3.13032 0
M  V30 5071 H 472.852 1.17319 3.47321 0
M  V30 5072 H 472.5 -0.802619 4.96555 0
M  V30 5073 H 472.2 0.725293 5.83107 0
M  V30 5074 H 473.724 -0.166376 6.10373 0
M  V30 5075 H 475.138 1.98601 5.37802 0
M  V30 5076 H 473.535 2.77512 5.32078 0
M  V30 5077 H 474.605 2.86752 3.91026 0
M  V30 5078 N 475.948 -1.35272 0.808662 0
M  V30 5079 C 477.194 -1.99003 0.390581 0
M  V30 5080 C 477.527 -1.63999 -1.0401 0
M  V30 5081 O 476.802 -0.904368 -1.72196 0
M  V30 5082 C 477.085 -3.55454 0.576566 0
M  V30 5083 C 476.938 -4.00249 2.05233 0
M  V30 5084 C 478.257 -4.401 0.00354277 0
M  V30 5085 H 475.376 -0.722917 0.143388 0
M  V30 5086 H 478.018 -1.6039 1.01858 0
M  V30 5087 H 476.168 -3.88477 0.0419766 0
M  V30 5088 H 477.84 -3.77626 2.64946 0
M  V30 5089 H 476.083 -3.51082 2.54801 0
M  V30 5090 H 476.754 -5.0911 2.13333 0
M  V30 5091 H 479.23 -4.13548 0.460117 0
M  V30 5092 H 478.106 -5.48656 0.163575 0
M  V30 5093 H 478.367 -4.28444 -1.09032 0
M  V30 5094 N 477.426 -0.562348 -1.47226 0
M  V30 5095 C 478.837 -0.130325 -1.86245 0
M  V30 5096 C 479.188 1.30128 -1.46838 0
M  V30 5097 O 478.313 1.97974 -0.873805 0
M  V30 5098 C 478.908 -0.229738 -3.3802 0
M  V30 5099 C 477.467 0.14728 -3.76112 0
M  V30 5100 C 476.614 -0.574971 -2.71274 0
M  V30 5101 H 479.565 -0.771773 -1.3867 0
M  V30 5102 H 479.586 0.550316 -3.76499 0
M  V30 5103 H 479.098 -1.27178 -3.66671 0
M  V30 5104 H 477.199 1.19023 -3.53078 0
M  V30 5105 H 477.312 -0.214858 -4.78618 0
M  V30 5106 H 475.676 -0.0174756 -2.54694 0
M  V30 5107 H 476.459 -1.61827 -3.02766 0
M  V30 5108 N 478.904 1.54736 -0.299062 0
M  V30 5109 C 479.867 2.22127 0.565012 0
M  V30 5110 C 480.867 1.20669 1.06281 0
M  V30 5111 O 482.057 1.45417 0.959145 0
M  V30 5112 C 479.189 2.90611 1.78208 0
M  V30 5113 H 480.382 2.99891 -0.0237448 0
M  V30 5114 H 477.935 1.5622 -0.0498788 0
M  V30 5115 H 478.67 2.16921 2.41072 0
M  V30 5116 H 478.455 3.64984 1.43281 0
M  V30 5117 H 479.945 3.42026 2.396 0
M  V30 5118 N 480.382 0.0267497 1.57577 0
M  V30 5119 C 481.622 -0.65659 1.93567 0
M  V30 5120 C 481.986 -1.69429 0.903213 0
M  V30 5121 O 483.187 -2.42994 1.14923 0
M  V30 5122 C 481.458 -1.25912 3.34486 0
M  V30 5123 S 483.017 -1.96386 3.924 0
M  V30 5124 H 479.835 -0.216237 0.67732 0
M  V30 5125 H 482.437 0.0898475 1.95293 0
M  V30 5126 H 481.141 -0.491405 4.07447 0
M  V30 5127 H 480.672 -2.04291 3.36198 0
M  V30 5128 H 482.687 -3.24202 3.75643 0
M  V30 5129 N 481.861 -1.55662 -0.24637 0
M  V30 5130 C 483.11 -1.7672 -0.972254 0
M  V30 5131 C 483.423 -0.59078 -1.86465 0
M  V30 5132 O 484.629 -0.684391 -2.62732 0
M  V30 5133 C 483.085 -3.12869 -1.7788 0
M  V30 5134 C 482.693 -4.38161 -0.933768 0
M  V30 5135 C 484.437 -3.43265 -2.49738 0
M  V30 5136 C 482.344 -5.6534 -1.73623 0
M  V30 5137 H 481.274 -0.658795 -0.366749 0
M  V30 5138 H 483.925 -1.82092 -0.226902 0
M  V30 5139 H 482.307 -3.01606 -2.56612 0
M  V30 5140 H 483.481 -4.60413 -0.188736 0
M  V30 5141 H 481.796 -4.15102 -0.328488 0
M  V30 5142 H 484.393 -4.35501 -3.10231 0
M  V30 5143 H 484.736 -2.64614 -3.2138 0
M  V30 5144 H 485.269 -3.55746 -1.78016 0
M  V30 5145 H 482.008 -6.46814 -1.06354 0
M  V30 5146 H 481.528 -5.47188 -2.45653 0
M  V30 5147 H 483.207 -6.04616 -2.30323 0
M  V30 5148 N 483.339 0.512053 -1.4905 0
M  V30 5149 C 484.587 1.26436 -1.57665 0
M  V30 5150 C 484.908 1.93255 -0.260293 0
M  V30 5151 O 484.178 1.82206 0.719564 0
M  V30 5152 H 482.758 0.469658 -0.580888 0
M  V30 5153 H 485.42 0.594398 -1.85615 0
M  V30 5154 H 484.516 2.03417 -2.36702 0
M  V30 5155 N 484.817 1.37938 0.762283 0
M  V30 5156 C 486.064 1.33668 1.52115 0
M  V30 5157 C 486.392 -0.0759538 1.94352 0
M  V30 5158 O 485.647 -1.05121 1.6507 0
M  V30 5159 C 485.946 2.23042 2.79261 0
M  V30 5160 C 485.612 3.71159 2.56031 0
M  V30 5161 C 484.274 4.11523 2.49404 0
M  V30 5162 C 486.626 4.64955 2.35513 0
M  V30 5163 C 483.954 5.43784 2.20263 0
M  V30 5164 C 486.306 5.97464 2.07894 0
M  V30 5165 C 484.97 6.36922 1.99718 0
M  V30 5166 H 484.24 0.489127 0.556629 0
M  V30 5167 H 486.887 1.70224 0.877262 0
M  V30 5168 H 485.192 1.79512 3.48256 0
M  V30 5169 H 486.889 2.17047 3.37182 0
M  V30 5170 H 483.479 3.39153 2.62056 0
M  V30 5171 H 487.663 4.34623 2.39617 0
M  V30 5172 H 482.919 5.73307 2.12435 0
M  V30 5173 H 487.093 6.6969 1.91019 0
M  V30 5174 H 484.72 7.39331 1.76902 0
M  V30 5175 N 486.295 -0.989507 1.22664 0
M  V30 5176 C 487.706 -1.54406 1.04955 0
M  V30 5177 C 488.057 -1.92366 -0.385951 0
M  V30 5178 O 487.182 -1.75111 -1.27142 0
M  V30 5179 C 487.777 -2.80578 1.89899 0
M  V30 5180 C 486.336 -3.32464 1.76478 0
M  V30 5181 C 485.483 -2.05524 1.86159 0
M  V30 5182 H 488.434 -0.810211 1.3646 0
M  V30 5183 H 488.455 -3.53075 1.4184 0
M  V30 5184 H 487.967 -2.52918 2.94371 0
M  V30 5185 H 486.068 -3.65024 0.747528 0
M  V30 5186 H 486.181 -4.02838 2.59342 0
M  V30 5187 H 484.545 -2.19241 1.29636 0
M  V30 5188 H 485.328 -1.80258 2.92168 0
M  V30 5189 N 487.773 -1.03688 -1.18687 0
M  V30 5190 C 489.019 -0.739123 -1.88851 0
M  V30 5191 C 489.352 0.731042 -1.79915 0
M  V30 5192 O 488.627 1.53313 -1.19688 0
M  V30 5193 C 488.91 -1.20106 -3.3948 0
M  V30 5194 C 488.763 -2.73304 -3.57246 0
M  V30 5195 C 490.082 -0.788134 -4.32986 0
M  V30 5196 H 487.201 -0.269978 -0.68577 0
M  V30 5197 H 489.843 -1.28822 -1.3966 0
M  V30 5198 H 487.993 -0.733915 -3.81505 0
M  V30 5199 H 489.665 -3.28027 -3.24339 0
M  V30 5200 H 487.908 -3.13313 -3.00029 0
M  V30 5201 H 488.579 -3.00684 -4.62918 0
M  V30 5202 H 491.055 -1.19005 -3.98719 0
M  V30 5203 H 489.931 -1.13915 -5.36949 0
M  V30 5204 H 490.192 0.308988 -4.41019 0
M  V30 5205 N 489.251 1.34841 -0.815825 0
M  V30 5206 C 490.181 2.32187 -0.247298 0
M  V30 5207 C 491.162 1.5791 0.632344 0
M  V30 5208 O 492.347 1.8593 0.560698 0
M  V30 5209 C 489.477 3.42122 0.597466 0
M  V30 5210 C 488.431 4.27602 -0.184446 0
M  V30 5211 C 487.757 5.28942 0.782609 0
M  V30 5212 C 489.057 5.03502 -1.38865 0
M  V30 5213 H 490.751 2.79985 -1.06061 0
M  V30 5214 H 488.297 1.34611 -0.511461 0
M  V30 5215 H 490.25 4.09232 1.00533 0
M  V30 5216 H 488.974 2.92956 1.44376 0
M  V30 5217 H 487.633 3.62085 -0.573592 0
M  V30 5218 H 487.281 4.7604 1.62466 0
M  V30 5219 H 486.981 5.87008 0.263695 0
M  V30 5220 H 488.505 5.98922 1.18848 0
M  V30 5221 H 489.919 5.63506 -1.05518 0
M  V30 5222 H 488.316 5.71108 -1.8427 0
M  V30 5223 H 489.386 4.33608 -2.17054 0
M  V30 5224 N 490.729 0.570148 1.46925 0
M  V30 5225 C 491.975 0.0510284 2.02736 0
M  V30 5226 C 492.308 -1.3006 1.44215 0
M  V30 5227 O 491.583 -1.84932 0.602521 0
M  V30 5228 C 491.866 -0.028215 3.60089 0
M  V30 5229 C 491.719 1.35142 4.29018 0
M  V30 5230 C 493.038 -0.735181 4.33916 0
M  V30 5231 H 490.157 0.0200178 0.736728 0
M  V30 5232 H 492.799 0.73493 1.75211 0
M  V30 5233 H 490.949 -0.610648 3.83671 0
M  V30 5234 H 492.621 1.97806 4.16738 0
M  V30 5235 H 490.864 1.9226 3.88868 0
M  V30 5236 H 491.535 1.24857 5.37694 0
M  V30 5237 H 494.011 -0.240519 4.15404 0
M  V30 5238 H 492.887 -0.759622 5.43618 0
M  V30 5239 H 493.148 -1.79397 4.04066 0
M  V30 5240 N 492.207 -1.54576 0.307264 0
M  V30 5241 C 493.17 -2.22423 -0.553224 0
M  V30 5242 C 494.17 -1.21231 -1.05639 0
M  V30 5243 O 495.36 -1.45923 -0.951419 0
M  V30 5244 C 492.492 -2.91552 -1.76664 0
M  V30 5245 H 493.685 -2.99874 0.0396484 0
M  V30 5246 H 491.238 -1.56192 0.0581629 0
M  V30 5247 H 491.973 -2.18196 -2.39918 0
M  V30 5248 H 491.758 -3.65738 -1.41343 0
M  V30 5249 H 493.248 -3.43292 -2.37783 0
M  V30 5250 N 493.685 -0.035106 -1.57561 0
M  V30 5251 C 494.615 0.942993 -2.13612 0
M  V30 5252 C 495.596 1.33531 -1.05373 0
M  V30 5253 O 496.781 1.41287 -1.33235 0
M  V30 5254 C 493.911 2.22332 -2.66807 0
M  V30 5255 C 492.865 1.97156 -3.79886 0
M  V30 5256 C 492.191 3.31506 -4.19533 0
M  V30 5257 C 493.491 1.30596 -5.05709 0
M  V30 5258 H 495.185 0.476179 -2.95589 0
M  V30 5259 H 492.731 0.227602 -1.4219 0
M  V30 5260 H 494.684 2.91142 -3.04654 0
M  V30 5261 H 493.408 2.7119 -1.81999 0
M  V30 5262 H 492.067 1.30763 -3.42486 0
M  V30 5263 H 491.715 3.78134 -3.31698 0
M  V30 5264 H 491.415 3.15465 -4.95738 0
M  V30 5265 H 492.939 4.01574 -4.59968 0
M  V30 5266 H 494.353 1.89416 -5.41105 0
M  V30 5267 H 492.75 1.24934 -5.86951 0
M  V30 5268 H 493.82 0.279742 -4.84092 0
M  V30 5269 N 495.163 1.55791 0.238111 0
M  V30 5270 C 496.126 1.90239 1.27835 0
M  V30 5271 C 497.126 0.779552 1.4064 0
M  V30 5272 O 498.316 1.04747 1.3919 0
M  V30 5273 C 495.448 2.13859 2.65475 0
M  V30 5274 H 496.641 2.83262 0.985034 0
M  V30 5275 H 494.194 1.48818 0.477799 0
M  V30 5276 H 494.929 1.23334 2.99932 0
M  V30 5277 H 494.714 2.95643 2.57561 0
M  V30 5278 H 496.204 2.41664 3.40571 0
M  V30 5279 N 496.642 -0.504142 1.49319 0
M  V30 5280 C 497.589 -1.60603 1.65756 0
M  V30 5281 C 498.559 -1.58425 0.499082 0
M  V30 5282 O 499.744 -1.76459 0.725728 0
M  V30 5283 C 496.884 -2.98764 1.72726 0
M  V30 5284 C 495.997 -3.10982 2.99857 0
M  V30 5285 C 495.132 -4.39857 2.97824 0
M  V30 5286 C 494.171 -4.45697 4.19548 0
M  V30 5287 N 493.308 -5.65995 4.15444 0
M  V30 5288 H 498.148 -1.45895 2.59843 0
M  V30 5289 H 495.685 -0.709891 1.28837 0
M  V30 5290 H 497.643 -3.78839 1.74747 0
M  V30 5291 H 496.273 -3.12183 0.821075 0
M  V30 5292 H 495.325 -2.23991 3.07461 0
M  V30 5293 H 496.637 -3.11157 3.89849 0
M  V30 5294 H 495.791 -5.2825 2.98391 0
M  V30 5295 H 494.53 -4.42242 2.05604 0
M  V30 5296 H 493.535 -3.55707 4.19229 0
M  V30 5297 H 494.76 -4.4503 5.12957 0
M  V30 5298 H 492.706 -5.69229 3.26059 0
M  V30 5299 H 492.623 -5.67773 4.99169 0
M  V30 5300 H 493.891 -6.56604 4.20109 0
M  V30 5301 N 498.12 -1.38341 -0.754957 0
M  V30 5302 C 499.368 -1.34208 -1.51105 0
M  V30 5303 C 499.689 0.0677634 -1.94882 0
M  V30 5304 O 498.959 1.01517 -1.67544 0
M  V30 5305 H 497.539 -0.493819 -0.560493 0
M  V30 5306 H 500.201 -1.73005 -0.897507 0
M  V30 5307 H 499.297 -1.99203 -2.4026 0
M  V30 5308 N 499.598 0.982988 -1.23187 0
M  V30 5309 C 500.508 2.10907 -1.02739 0
M  V30 5310 C 501.524 1.73979 0.0273188 0
M  V30 5311 O 502.7 2.00702 -0.16757 0
M  V30 5312 C 499.765 3.41142 -0.618304 0
M  V30 5313 C 498.826 3.92112 -1.74777 0
M  V30 5314 C 498.059 5.16131 -1.3581 0
M  V30 5315 O 498.282 5.6989 -0.241201 0
M  V30 5316 O 497.216 5.61103 -2.17824 0
M  V30 5317 H 501.042 2.31046 -1.97108 0
M  V30 5318 H 498.627 1.09284 -1.01869 0
M  V30 5319 H 500.509 4.19488 -0.400982 0
M  V30 5320 H 499.184 3.2234 0.296421 0
M  V30 5321 H 498.091 3.14895 -2.0197 0
M  V30 5322 H 499.424 4.15364 -2.64071 0
M  V30 5323 N 501.076 1.04316 1.18135 0
M  V30 5324 C 502.322 0.749128 1.88457 0
M  V30 5325 C 502.655 -0.72149 1.803 0
M  V30 5326 O 501.93 -1.52676 1.205 0
M  V30 5327 C 502.213 1.21905 3.38838 0
M  V30 5328 C 502.066 2.75195 3.55792 0
M  V30 5329 C 503.385 0.811085 4.32561 0
M  V30 5330 H 500.504 0.273611 0.684329 0
M  V30 5331 H 503.146 1.29561 1.38975 0
M  V30 5332 H 501.296 0.754137 3.8111 0
M  V30 5333 H 502.968 3.29743 3.22595 0
M  V30 5334 H 501.211 3.14899 2.98364 0
M  V30 5335 H 501.882 3.03135 4.61317 0
M  V30 5336 H 504.358 1.21118 3.98082 0
M  V30 5337 H 503.234 1.16761 5.36338 0
M  V30 5338 H 503.495 -0.285596 4.41177 0
M  V30 5339 N 502.554 -1.34406 0.822964 0
M  V30 5340 C 503.782 -2.02508 0.424039 0
M  V30 5341 C 504.197 -1.61975 -0.970022 0
M  V30 5342 O 503.554 -0.825228 -1.62777 0
M  V30 5343 C 503.605 -3.57789 0.516657 0
M  V30 5344 O 503.326 -3.96853 1.85577 0
M  V30 5345 C 504.827 -4.43157 0.112637 0
M  V30 5346 H 502.047 -0.649063 0.170173 0
M  V30 5347 H 504.591 -1.7168 1.11113 0
M  V30 5348 H 502.746 -3.87207 -0.122353 0
M  V30 5349 H 503.16 -4.91538 1.83005 0
M  V30 5350 H 504.634 -5.51527 0.228526 0
M  V30 5351 H 505.111 -4.28939 -0.943837 0
M  V30 5352 H 505.717 -4.19067 0.725449 0
M  V30 5353 N 504.032 -0.577932 -1.46621 0
M  V30 5354 C 504.942 0.160651 -2.34049 0
M  V30 5355 C 505.958 0.890911 -1.49462 0
M  V30 5356 O 507.134 0.855166 -1.82343 0
M  V30 5357 C 504.199 1.16447 -3.26559 0
M  V30 5358 C 503.26 0.4394 -4.27045 0
M  V30 5359 C 502.493 1.3954 -5.15135 0
M  V30 5360 O 502.716 2.63162 -5.06065 0
M  V30 5361 O 501.65 0.908585 -5.95003 0
M  V30 5362 H 505.476 -0.557057 -2.98547 0
M  V30 5363 H 503.061 -0.338369 -1.45518 0
M  V30 5364 H 504.943 1.7434 -3.83645 0
M  V30 5365 H 503.618 1.86373 -2.64663 0
M  V30 5366 H 502.525 -0.181247 -3.73661 0
M  V30 5367 H 503.858 -0.218799 -4.91713 0
M  V30 5368 N 505.51 1.54411 -0.315457 0
M  V30 5369 C 506.443 2.20265 0.596522 0
M  V30 5370 C 507.421 1.17693 1.12192 0
M  V30 5371 O 508.605 1.46397 1.18744 0
M  V30 5372 C 505.732 2.85794 1.81767 0
M  V30 5373 C 504.778 4.02017 1.42424 0
M  V30 5374 S 505.611 5.33452 0.467836 0
M  V30 5375 C 506.767 6.02471 1.69645 0
M  V30 5376 H 507 2.97277 0.0370896 0
M  V30 5377 H 504.533 1.54079 -0.0995562 0
M  V30 5378 H 506.491 3.24172 2.51839 0
M  V30 5379 H 505.152 2.08601 2.34828 0
M  V30 5380 H 504.345 4.46701 2.33396 0
M  V30 5381 H 503.947 3.65271 0.803311 0
M  V30 5382 H 506.239 6.24157 2.63504 0
M  V30 5383 H 507.182 6.96215 1.29192 0
M  V30 5384 H 507.59 5.32284 1.87974 0
M  V30 5385 N 506.988 0.0434614 1.5754 0
M  V30 5386 C 508.235 -0.632035 1.92384 0
M  V30 5387 C 508.563 -1.71304 0.921157 0
M  V30 5388 O 507.818 -1.95583 -0.067744 0
M  V30 5389 C 508.117 -1.2738 3.3393 0
M  V30 5390 C 507.783 -0.321757 4.49751 0
M  V30 5391 C 506.445 -0.0597611 4.81163 0
M  V30 5392 C 508.797 0.331158 5.20147 0
M  V30 5393 C 506.125 0.862715 5.80322 0
M  V30 5394 C 508.477 1.24178 6.20292 0
M  V30 5395 C 507.141 1.51252 6.50138 0
M  V30 5396 H 506.411 -0.231278 0.703983 0
M  V30 5397 H 509.058 0.108294 1.91194 0
M  V30 5398 H 507.363 -2.08921 3.3145 0
M  V30 5399 H 509.06 -1.80326 3.58167 0
M  V30 5400 H 505.65 -0.53614 4.25233 0
M  V30 5401 H 509.834 0.141826 4.96097 0
M  V30 5402 H 505.09 1.08003 6.01785 0
M  V30 5403 H 509.264 1.75381 6.73954 0
M  V30 5404 H 506.891 2.22897 7.26788 0
M  V30 5405 N 508.466 -1.55915 -0.229846 0
M  V30 5406 C 509.691 -1.8296 -0.976743 0
M  V30 5407 C 510.116 -0.622735 -1.77493 0
M  V30 5408 O 509.474 0.428431 -1.76165 0
M  V30 5409 C 509.522 -3.07916 -1.8767 0
M  V30 5410 O 508.626 -2.86028 -2.97088 0
M  V30 5411 H 507.967 -0.603453 -0.277021 0
M  V30 5412 H 510.497 -2.0312 -0.245669 0
M  V30 5413 H 510.507 -3.37802 -2.2881 0
M  V30 5414 H 509.182 -3.95389 -1.28996 0
M  V30 5415 H 507.759 -2.67355 -2.59954 0
M  V30 5416 N 509.944 0.496216 -1.49584 0
M  V30 5417 C 511.174 1.27209 -1.62793 0
M  V30 5418 C 511.582 1.86799 -0.300476 0
M  V30 5419 O 510.925 1.68802 0.724674 0
M  V30 5420 C 510.987 2.43812 -2.64189 0
M  V30 5421 C 510.651 2.05055 -4.08414 0
M  V30 5422 C 511.648 1.58752 -4.9507 0
M  V30 5423 C 509.333 2.14543 -4.54177 0
M  V30 5424 C 511.327 1.22448 -6.25528 0
M  V30 5425 C 509.014 1.77851 -5.84647 0
M  V30 5426 C 510.012 1.31878 -6.70147 0
M  V30 5427 O 509.7 0.956834 -7.98185 0
M  V30 5428 H 509.432 0.391848 -0.550846 0
M  V30 5429 H 511.986 0.601712 -1.96389 0
M  V30 5430 H 510.216 3.13941 -2.25783 0
M  V30 5431 H 511.905 3.05829 -2.66877 0
M  V30 5432 H 512.671 1.50863 -4.60939 0
M  V30 5433 H 508.55 2.49277 -3.87791 0
M  V30 5434 H 512.094 0.864933 -6.92217 0
M  V30 5435 H 507.991 1.8539 -6.18305 0
M  V30 5436 H 508.759 1.08789 -8.11238 0
M  V30 5437 N 511.423 1.38739 0.74761 0
M  V30 5438 C 512.333 1.38696 1.89211 0
M  V30 5439 C 513.349 0.283303 1.71678 0
M  V30 5440 O 514.525 0.522713 1.94498 0
M  V30 5441 C 511.59 1.21662 3.24653 0
M  V30 5442 C 510.651 2.41886 3.54669 0
M  V30 5443 C 509.884 2.25655 4.83648 0
M  V30 5444 O 510.107 1.25339 5.56459 0
M  V30 5445 O 509.041 3.14372 5.13277 0
M  V30 5446 H 512.867 2.35143 1.92202 0
M  V30 5447 H 510.452 1.19721 0.893708 0
M  V30 5448 H 512.334 1.14246 4.05618 0
M  V30 5449 H 511.009 0.283024 3.2246 0
M  V30 5450 H 509.916 2.54877 2.73841 0
M  V30 5451 H 511.249 3.33895 3.61628 0
M  V30 5452 N 512.901 -0.976442 1.23707 0
M  V30 5453 C 513.811 -2.10359 1.03856 0
M  V30 5454 C 514.827 -1.73991 -0.0180919 0
M  V30 5455 O 516.003 -2.0061 0.178211 0
M  V30 5456 C 513.068 -3.40809 0.636387 0
M  V30 5457 C 512.129 -3.91179 1.76854 0
M  V30 5458 C 511.362 -5.15404 1.38546 0
M  V30 5459 O 511.585 -5.69754 0.27142 0
M  V30 5460 O 510.519 -5.5994 2.20797 0
M  V30 5461 H 514.345 -2.29997 1.98331 0
M  V30 5462 H 511.93 -1.08742 1.02448 0
M  V30 5463 H 513.812 -4.19269 0.423223 0
M  V30 5464 H 512.487 -3.22493 -0.279322 0
M  V30 5465 H 511.394 -3.13819 2.03638 0
M  V30 5466 H 512.727 -4.13958 2.6627 0
M  V30 5467 N 514.379 -1.04941 -1.1758 0
M  V30 5468 C 515.604 -0.778253 -1.92245 0
M  V30 5469 C 516.029 0.659707 -1.76152 0
M  V30 5470 O 515.387 1.45803 -1.07755 0
M  V30 5471 C 515.435 -1.16051 -3.41416 0
M  V30 5472 O 514.539 -0.291153 -4.11371 0
M  V30 5473 H 513.88 -0.285619 -0.599431 0
M  V30 5474 H 516.41 -1.40159 -1.49052 0
M  V30 5475 H 516.42 -1.12619 -3.92149 0
M  V30 5476 H 515.095 -2.208 -3.52449 0
M  V30 5477 H 513.672 -0.385851 -3.70898 0
M  V30 5478 N 515.857 1.33968 -0.830081 0
M  V30 5479 C 516.805 2.31301 -0.245435 0
M  V30 5480 C 517.799 1.57734 0.617762 0
M  V30 5481 O 519.005 1.72674 0.508303 0
M  V30 5482 H 515.38 0.749552 -0.0606316 0
M  V30 5483 H 517.351 2.78129 -1.08105 0
M  V30 5484 C 516.1 3.42961 0.572084 0
M  V30 5485 H 515.423 3.99714 -0.0828118 0
M  V30 5486 H 516.863 4.13286 0.94715 0
M  V30 5487 C 515.322 2.88043 1.74737 0
M  V30 5488 O 515.852 2.83508 2.8458 0
M  V30 5489 N 514.058 2.44768 1.56642 0
M  V30 5490 H 513.605 2.48656 0.672901 0
M  V30 5491 H 513.563 2.08375 2.3543 0
M  V30 5492 N 517.335 0.585699 1.46312 0
M  V30 5493 C 518.746 0.159938 1.86014 0
M  V30 5494 C 519.097 -1.27775 1.48889 0
M  V30 5495 O 518.222 -1.96559 0.90519 0
M  V30 5496 C 518.817 0.283485 3.37612 0
M  V30 5497 C 517.376 -0.0874256 3.76298 0
M  V30 5498 C 516.523 0.618055 2.70325 0
M  V30 5499 H 519.474 0.793737 1.37425 0
M  V30 5500 H 519.495 -0.490348 3.77327 0
M  V30 5501 H 519.007 1.32995 3.64601 0
M  V30 5502 H 517.108 -1.13391 3.54927 0
M  V30 5503 H 517.221 0.290975 4.78216 0
M  V30 5504 H 515.585 0.057993 2.54634 0
M  V30 5505 H 516.368 1.66623 3.00153 0
M  V30 5506 N 518.813 -1.54241 0.323641 0
M  V30 5507 C 519.76 -2.24339 -0.542277 0
M  V30 5508 C 520.73 -1.23421 -1.11159 0
M  V30 5509 O 521.915 -1.52104 -1.15192 0
M  V30 5510 C 519.055 -3.00479 -1.69725 0
M  V30 5511 C 518.168 -4.16214 -1.15716 0
M  V30 5512 C 517.303 -4.79884 -2.27783 0
M  V30 5513 C 516.342 -5.87722 -1.71023 0
M  V30 5514 N 515.479 -6.45254 -2.76752 0
M  V30 5515 H 520.319 -2.97935 0.0620613 0
M  V30 5516 H 517.856 -1.47039 0.0423993 0
M  V30 5517 H 519.814 -3.42869 -2.3769 0
M  V30 5518 H 518.444 -2.29217 -2.27288 0
M  V30 5519 H 517.496 -3.78605 -0.369063 0
M  V30 5520 H 518.808 -4.93838 -0.701832 0
M  V30 5521 H 517.962 -5.25243 -3.03651 0
M  V30 5522 H 516.701 -4.01641 -2.76652 0
M  V30 5523 H 515.706 -5.41765 -0.936518 0
M  V30 5524 H 516.931 -6.67863 -1.2303 0
M  V30 5525 H 514.877 -5.69884 -3.24912 0
M  V30 5526 H 514.794 -7.18292 -2.35782 0
M  V30 5527 H 516.062 -6.95269 -3.5245 0
M  V30 5528 N 520.291 -0.0518155 -1.57515 0
M  V30 5529 C 521.568 0.661727 -1.84067 0
M  V30 5530 C 521.948 1.88999 -0.940351 0
M  V30 5531 O 521.296 2.285 -0.00155404 0
M  V30 5532 C 521.506 1.01841 -3.3381 0
M  V30 5533 C 522.854 1.40043 -4.00841 0
M  V30 5534 O 523.878 1.11073 -3.38439 0
M  V30 5535 O 522.737 1.94111 -5.10865 0
M  V30 5536 H 519.831 0.326702 -0.759733 0
M  V30 5537 H 522.377 -0.0812277 -1.69505 0
M  V30 5538 H 521.149 0.145202 -3.91031 0
M  V30 5539 H 520.772 1.81879 -3.53562 0
M  V30 5540 N 521.769 1.56035 0.221574 0
M  V30 5541 C 523.18 1.69229 0.788567 0
M  V30 5542 C 523.531 0.653814 1.84986 0
M  V30 5543 O 522.656 -0.195065 2.15519 0
M  V30 5544 C 523.251 3.06809 1.43713 0
M  V30 5545 C 521.81 3.21858 1.95152 0
M  V30 5546 C 520.957 2.65155 0.811685 0
M  V30 5547 H 523.908 1.587 -0.00307894 0
M  V30 5548 H 523.929 3.02666 2.30594 0
M  V30 5549 H 523.441 3.82369 0.664475 0
M  V30 5550 H 521.542 2.51167 2.7522 0
M  V30 5551 H 521.655 4.29073 2.1315 0
M  V30 5552 H 520.019 2.23635 1.21899 0
M  V30 5553 H 520.802 3.43261 0.0516987 0
M  V30 5554 N 523.247 -0.488276 1.49845 0
M  V30 5555 C 524.21 -1.57069 1.66919 0
M  V30 5556 C 525.21 -1.51445 0.540479 0
M  V30 5557 O 526.4 -1.5437 0.807188 0
M  V30 5558 C 523.532 -2.96718 1.67844 0
M  V30 5559 H 524.725 -1.43254 2.63474 0
M  V30 5560 H 522.278 -0.713435 1.39068 0
M  V30 5561 H 523.013 -3.15996 0.7292 0
M  V30 5562 H 522.798 -3.02208 2.49826 0
M  V30 5563 H 524.288 -3.75335 1.83066 0
M  V30 5564 N 524.725 -1.39134 -0.740242 0
M  V30 5565 C 525.688 -1.37217 -1.83587 0
M  V30 5566 C 526.688 -0.270221 -1.58513 0
M  V30 5567 O 527.878 -0.527843 -1.6601 0
M  V30 5568 C 525.01 -1.13959 -3.21288 0
M  V30 5569 H 526.203 -2.34705 -1.86691 0
M  V30 5570 H 523.756 -1.24622 -0.94335 0
M  V30 5571 H 524.491 -0.17131 -3.23847 0
M  V30 5572 H 524.276 -1.93754 -3.40884 0
M  V30 5573 H 525.766 -1.15346 -4.01354 0
M  V30 5574 N 526.204 0.969867 -1.24223 0
M  V30 5575 C 527.45 1.7151 -1.08223 0
M  V30 5576 C 527.783 1.90478 0.37838 0
M  V30 5577 O 527.058 1.4647 1.27971 0
M  V30 5578 C 527.341 3.10714 -1.82013 0
M  V30 5579 C 527.194 2.9925 -3.35811 0
M  V30 5580 C 528.513 4.10332 -1.59108 0
M  V30 5581 H 525.632 0.622499 -0.394543 0
M  V30 5582 H 528.274 1.1284 -1.52863 0
M  V30 5583 H 526.424 3.608 -1.44068 0
M  V30 5584 H 528.096 2.56608 -3.83341 0
M  V30 5585 H 526.339 2.35512 -3.64303 0
M  V30 5586 H 527.01 3.97857 -3.82641 0
M  V30 5587 H 529.486 3.69097 -1.92111 0
M  V30 5588 H 528.362 5.05804 -2.13198 0
M  V30 5589 H 528.623 4.38926 -0.528832 0
M  V30 5590 N 527.682 1.05563 1.17022 0
M  V30 5591 C 528.91 0.78845 1.91288 0
M  V30 5592 C 529.325 -0.656318 1.77025 0
M  V30 5593 O 528.682 -1.44869 1.10992 0
M  V30 5594 C 528.733 1.16444 3.42232 0
M  V30 5595 O 528.454 2.5525 3.5606 0
M  V30 5596 C 529.955 0.923937 4.33565 0
M  V30 5597 H 527.175 0.286389 0.606813 0
M  V30 5598 H 529.719 1.4073 1.48375 0
M  V30 5599 H 527.874 0.590266 3.82877 0
M  V30 5600 H 528.288 2.70097 4.49609 0
M  V30 5601 H 529.762 1.23672 5.37968 0
M  V30 5602 H 530.239 -0.140688 4.38975 0
M  V30 5603 H 530.845 1.48214 3.98639 0
M  V30 5604 N 529.16 -1.33526 0.837174 0
M  V30 5605 C 530.07 -2.33023 0.271568 0
M  V30 5606 C 531.086 -1.63272 -0.601514 0
M  V30 5607 O 532.262 -1.94939 -0.506038 0
M  V30 5608 C 529.327 -3.42382 -0.545448 0
M  V30 5609 C 528.388 -4.27857 0.351709 0
M  V30 5610 C 527.621 -5.31994 -0.426409 0
M  V30 5611 O 527.844 -5.45763 -1.65828 0
M  V30 5612 O 526.778 -6.01572 0.1987 0
M  V30 5613 H 530.604 -2.83256 1.09545 0
M  V30 5614 H 528.189 -1.36837 0.599655 0
M  V30 5615 H 530.071 -4.09122 -1.00979 0
M  V30 5616 H 528.746 -2.94369 -1.34641 0
M  V30 5617 H 527.653 -3.6399 0.863853 0
M  V30 5618 H 528.986 -4.79349 1.1174 0
M  V30 5619 N 530.638 -0.59345 -1.46 0
M  V30 5620 C 531.863 -0.0872365 -2.07216 0
M  V30 5621 C 532.288 1.2131 -1.43755 0
M  V30 5622 O 531.646 1.73528 -0.525152 0
M  V30 5623 C 531.694 0.0538197 -3.6056 0
M  V30 5624 O 530.798 1.10765 -3.97247 0
M  V30 5625 H 530.139 -0.0676598 -0.660544 0
M  V30 5626 H 532.669 -0.819445 -1.87473 0
M  V30 5627 H 532.679 0.256567 -4.07193 0
M  V30 5628 H 531.354 -0.895739 -4.0614 0
M  V30 5629 H 529.931 0.882501 -3.62307 0
M  V30 5630 N 532.116 1.54067 -0.331816 0
M  V30 5631 C 533.063 2.24623 0.530372 0
M  V30 5632 C 534.033 1.24009 1.10503 0
M  V30 5633 O 535.218 1.52712 1.14384 0
M  V30 5634 C 532.358 3.01374 1.68129 0
M  V30 5635 C 531.471 4.16821 1.13507 0
M  V30 5636 C 530.606 4.81085 2.25234 0
M  V30 5637 C 529.645 5.88621 1.67903 0
M  V30 5638 N 528.782 6.46713 2.73326 0
M  V30 5639 H 533.622 2.97898 -0.0778607 0
M  V30 5640 H 531.159 1.47014 -0.0501965 0
M  V30 5641 H 533.117 3.44125 2.35868 0
M  V30 5642 H 531.747 2.30419 2.26069 0
M  V30 5643 H 530.799 3.78796 0.348979 0
M  V30 5644 H 532.111 4.94203 0.675633 0
M  V30 5645 H 531.265 5.26846 3.00862 0
M  V30 5646 H 530.004 4.03102 2.74518 0
M  V30 5647 H 529.009 5.42254 0.907773 0
M  V30 5648 H 530.234 6.68506 1.19487 0
M  V30 5649 H 528.18 5.71599 3.21886 0
M  V30 5650 H 528.097 7.19532 2.3197 0
M  V30 5651 H 529.365 6.97129 3.48758 0
M  V30 5652 N 533.594 0.0601682 1.57485 0
M  V30 5653 C 534.504 -0.926121 2.15546 0
M  V30 5654 C 535.52 -1.33532 1.11558 0
M  V30 5655 O 536.696 -1.4104 1.4377 0
M  V30 5656 C 533.761 -2.17952 2.69625 0
M  V30 5657 C 532.822 -1.82783 3.88444 0
M  V30 5658 C 532.055 -3.02148 4.39935 0
M  V30 5659 O 532.278 -4.15803 3.90466 0
M  V30 5660 O 531.212 -2.82639 5.31412 0
M  V30 5661 H 535.038 -0.462289 3.00161 0
M  V30 5662 H 532.623 -0.162246 1.48516 0
M  V30 5663 H 534.505 -2.91474 3.04337 0
M  V30 5664 H 533.18 -2.63456 1.88077 0
M  V30 5665 H 532.087 -1.06549 3.58606 0
M  V30 5666 H 533.42 -1.42072 4.7125 0
M  V30 5667 N 535.072 -1.5615 -0.213296 0
M  V30 5668 C 536.32 -1.79191 -0.934612 0
M  V30 5669 C 536.641 -0.630112 -1.84539 0
M  V30 5670 O 535.911 0.35257 -1.92701 0
M  V30 5671 H 534.491 -0.660937 -0.348097 0
M  V30 5672 H 537.153 -1.93618 -0.22317 0
M  V30 5673 H 536.249 -2.71656 -1.53654 0
M  V30 5674 N 536.55 0.480323 -1.50102 0
M  V30 5675 C 537.778 1.25657 -1.64371 0
M  V30 5676 C 538.193 1.86011 -0.323316 0
M  V30 5677 O 537.55 1.68803 0.693682 0
M  V30 5678 C 537.601 2.37197 -2.728 0
M  V30 5679 O 537.322 1.7932 -3.9972 0
M  V30 5680 C 538.823 3.2823 -2.9796 0
M  V30 5681 H 536.043 0.380369 -0.552775 0
M  V30 5682 H 538.587 0.574379 -1.96268 0
M  V30 5683 H 536.742 3.01208 -2.43623 0
M  V30 5684 H 537.156 2.52701 -4.59611 0
M  V30 5685 H 538.63 4.02725 -3.77513 0
M  V30 5686 H 539.107 3.86462 -2.08671 0
M  V30 5687 H 539.713 2.69964 -3.28633 0
M  V30 5688 N 538.028 1.39524 0.732853 0
M  V30 5689 C 538.938 1.40695 1.87729 0
M  V30 5690 C 539.954 0.301496 1.71368 0
M  V30 5691 O 541.13 0.543313 1.93933 0
M  V30 5692 C 538.195 1.25098 3.23344 0
M  V30 5693 C 537.256 2.45634 3.52083 0
M  V30 5694 C 536.489 2.30772 4.81228 0
M  V30 5695 O 536.712 1.31233 5.55098 0
M  V30 5696 O 535.646 3.19799 5.09914 0
M  V30 5697 H 539.472 2.37168 1.89697 0
M  V30 5698 H 537.057 1.20663 0.880959 0
M  V30 5699 H 538.939 1.18541 4.04383 0
M  V30 5700 H 537.614 0.317209 3.22142 0
M  V30 5701 H 536.521 2.57767 2.71122 0
M  V30 5702 H 537.854 3.37712 3.58066 0
M  V30 5703 N 539.506 -0.963266 1.24736 0
M  V30 5704 C 540.469 -2.04013 1.04457 0
M  V30 5705 C 541.469 -1.608 0.000335555 0
M  V30 5706 O 542.659 -1.72515 0.241719 0
M  V30 5707 C 539.791 -3.35858 0.584162 0
M  V30 5708 H 540.984 -2.23436 2.00041 0
M  V30 5709 H 538.537 -1.13914 1.07021 0
M  V30 5710 H 539.272 -3.22128 -0.374673 0
M  V30 5711 H 539.057 -3.68568 1.3379 0
M  V30 5712 H 540.547 -4.1502 0.463451 0
M  V30 5713 N 540.985 -1.06182 -1.16461 0
M  V30 5714 C 542.21 -0.798599 -1.91408 0
M  V30 5715 C 542.635 0.640987 -1.76842 0
M  V30 5716 O 541.993 1.44652 -1.09296 0
M  V30 5717 C 542.041 -1.19665 -3.40165 0
M  V30 5718 O 541.145 -0.334768 -4.11039 0
M  V30 5719 H 540.486 -0.291961 -0.596368 0
M  V30 5720 H 543.016 -1.41732 -1.47557 0
M  V30 5721 H 543.026 -1.16772 -3.90933 0
M  V30 5722 H 541.701 -2.24526 -3.50087 0
M  V30 5723 H 540.278 -0.425168 -3.70468 0
M  V30 5724 N 542.463 1.3308 -0.844243 0
M  V30 5725 C 543.426 2.27403 -0.286485 0
M  V30 5726 C 544.426 1.51179 0.547872 0
M  V30 5727 O 545.616 1.70421 0.360886 0
M  V30 5728 C 542.748 3.35653 0.595813 0
M  V30 5729 H 543.941 2.78248 -1.11885 0
M  V30 5730 H 541.494 1.43574 -0.617749 0
M  V30 5731 H 542.229 2.90058 1.4504 0
M  V30 5732 H 542.014 3.921 -0.00125994 0
M  V30 5733 H 543.504 4.05958 0.979168 0
M  V30 5734 N 543.941 0.601185 1.45683 0
M  V30 5735 C 545.166 0.0982245 2.07167 0
M  V30 5736 C 545.591 -1.20546 1.44396 0
M  V30 5737 O 544.949 -1.73247 0.534347 0
M  V30 5738 C 544.997 -0.0346976 3.60583 0
M  V30 5739 O 544.101 -1.08657 3.97828 0
M  V30 5740 H 543.442 0.0711618 0.660176 0
M  V30 5741 H 545.972 0.829376 1.87036 0
M  V30 5742 H 545.982 -0.234969 4.07323 0
M  V30 5743 H 544.657 0.917265 4.05659 0
M  V30 5744 H 543.234 -0.863275 3.6277 0
M  V30 5745 N 545.419 -1.53889 0.339982 0
M  V30 5746 C 546.366 -2.24902 -0.518452 0
M  V30 5747 C 547.336 -1.24593 -1.09844 0
M  V30 5748 O 548.521 -1.53317 -1.13572 0
M  V30 5749 C 545.661 -3.02262 -1.66529 0
M  V30 5750 C 544.774 -4.17418 -1.11295 0
M  V30 5751 C 543.909 -4.82273 -2.2268 0
M  V30 5752 C 542.948 -5.89503 -1.6478 0
M  V30 5753 N 542.085 -6.48153 -2.69893 0
M  V30 5754 H 546.925 -2.97853 0.0936579 0
M  V30 5755 H 544.462 -1.46986 0.0579924 0
M  V30 5756 H 546.42 -3.45371 -2.3404 0
M  V30 5757 H 545.05 -2.31614 -2.24844 0
M  V30 5758 H 544.102 -3.78976 -0.328886 0
M  V30 5759 H 545.414 -4.94554 -0.649414 0
M  V30 5760 H 544.568 -5.28435 -2.98063 0
M  V30 5761 H 543.307 -4.04552 -2.72376 0
M  V30 5762 H 542.312 -5.42728 -0.879004 0
M  V30 5763 H 543.537 -6.6913 -1.1594 0
M  V30 5764 H 541.483 -5.73298 -3.1885 0
M  V30 5765 H 541.4 -7.20752 -2.28151 0
M  V30 5766 H 542.668 -6.98968 -3.45056 0
M  V30 5767 N 546.897 -0.0685191 -1.57451 0
M  V30 5768 C 548.145 0.60016 -1.92983 0
M  V30 5769 C 548.466 1.70348 -0.949028 0
M  V30 5770 O 547.736 1.959 0.00335647 0
M  V30 5771 H 546.316 0.224682 -0.712409 0
M  V30 5772 H 548.978 -0.125605 -1.94495 0
M  V30 5773 H 548.074 1.02759 -2.94698 0
M  V30 5774 N 548.375 1.56261 0.205012 0
M  V30 5775 C 549.305 1.96779 1.257 0
M  V30 5776 C 550.286 0.838309 1.48008 0
M  V30 5777 O 551.471 1.10189 1.59913 0
M  V30 5778 C 548.601 2.29876 2.60335 0
M  V30 5779 C 547.555 3.45469 2.52656 0
M  V30 5780 C 546.881 3.64215 3.91473 0
M  V30 5781 C 548.181 4.79954 2.06014 0
M  V30 5782 H 549.875 2.84904 0.920338 0
M  V30 5783 H 547.421 1.37072 0.441277 0
M  V30 5784 H 549.374 2.56814 3.34102 0
M  V30 5785 H 548.098 1.38622 2.95722 0
M  V30 5786 H 546.757 3.18605 1.81345 0
M  V30 5787 H 546.405 2.70309 4.24196 0
M  V30 5788 H 546.105 4.41973 3.87213 0
M  V30 5789 H 547.629 3.93519 4.66878 0
M  V30 5790 H 549.043 5.05989 2.69533 0
M  V30 5791 H 547.44 5.61111 2.12777 0
M  V30 5792 H 548.51 4.74201 1.01297 0
M  V30 5793 N 549.853 -0.472356 1.50355 0
M  V30 5794 C 550.763 -1.59637 1.7191 0
M  V30 5795 C 551.779 -1.63247 0.602195 0
M  V30 5796 O 552.955 -1.81139 0.880369 0
M  V30 5797 C 550.02 -2.9586 1.80742 0
M  V30 5798 C 549.081 -3.02649 3.04471 0
M  V30 5799 C 548.314 -4.32374 3.12872 0
M  V30 5800 O 548.537 -5.22807 2.28099 0
M  V30 5801 O 547.471 -4.44728 4.05587 0
M  V30 5802 H 551.297 -1.44373 2.67189 0
M  V30 5803 H 548.882 -0.651717 1.34436 0
M  V30 5804 H 550.764 -3.7677 1.88739 0
M  V30 5805 H 549.439 -3.11325 0.88647 0
M  V30 5806 H 548.346 -2.20821 3.01975 0
M  V30 5807 H 549.679 -2.92119 3.9614 0
M  V30 5808 N 551.331 -1.39911 -0.725443 0
M  V30 5809 C 552.278 -1.39393 -1.83952 0
M  V30 5810 C 553.248 -0.252249 -1.64173 0
M  V30 5811 O 554.433 -0.44882 -1.85446 0
M  V30 5812 C 551.573 -1.25262 -3.21564 0
M  V30 5813 C 550.686 -2.49054 -3.52982 0
M  V30 5814 C 549.821 -2.27439 -4.80047 0
M  V30 5815 C 548.86 -3.46857 -5.04338 0
M  V30 5816 N 547.997 -3.24499 -6.22611 0
M  V30 5817 H 552.837 -2.34622 -1.83729 0
M  V30 5818 H 550.374 -1.16537 -0.897636 0
M  V30 5819 H 552.332 -1.15077 -4.01015 0
M  V30 5820 H 550.962 -0.33657 -3.21041 0
M  V30 5821 H 550.014 -2.69805 -2.6816 0
M  V30 5822 H 551.326 -3.37973 -3.66846 0
M  V30 5823 H 550.48 -2.14551 -5.67497 0
M  V30 5824 H 549.219 -1.35929 -4.68374 0
M  V30 5825 H 548.224 -3.60232 -4.15346 0
M  V30 5826 H 549.449 -4.3928 -5.17889 0
M  V30 5827 H 547.395 -2.35663 -6.12208 0
M  V30 5828 H 547.312 -4.06978 -6.37106 0
M  V30 5829 H 548.58 -3.15325 -7.12875 0
M  V30 5830 N 552.809 0.956637 -1.25245 0
M  V30 5831 C 553.756 2.053 -1.05454 0
M  V30 5832 C 554.726 1.66062 0.0356889 0
M  V30 5833 O 555.911 1.90415 -0.121099 0
M  V30 5834 C 553.051 3.38391 -0.677191 0
M  V30 5835 C 552.164 3.90758 -1.84206 0
M  V30 5836 C 551.299 5.12165 -1.40926 0
M  V30 5837 C 550.338 5.56757 -2.54338 0
M  V30 5838 N 549.475 6.69376 -2.11848 0
M  V30 5839 H 554.315 2.21562 -1.99284 0
M  V30 5840 H 551.852 1.08578 -0.992434 0
M  V30 5841 H 553.81 4.1488 -0.43938 0
M  V30 5842 H 552.44 3.22021 0.224127 0
M  V30 5843 H 551.492 3.10808 -2.19323 0
M  V30 5844 H 552.804 4.19802 -2.69383 0
M  V30 5845 H 551.958 5.96065 -1.13098 0
M  V30 5846 H 550.697 4.84832 -0.528175 0
M  V30 5847 H 549.702 4.71423 -2.82913 0
M  V30 5848 H 550.927 5.861 -3.43022 0
M  V30 5849 H 548.873 6.43756 -1.26153 0
M  V30 5850 H 548.79 6.97927 -2.90574 0
M  V30 5851 H 550.058 7.5669 -1.87191 0
M  V30 5852 N 554.287 1.06798 1.15896 0
M  V30 5853 C 555.197 0.694564 2.24083 0
M  V30 5854 C 556.213 -0.291687 1.71538 0
M  V30 5855 O 557.389 -0.139723 2.00915 0
M  V30 5856 C 554.454 0.0921014 3.46578 0
M  V30 5857 C 553.515 1.13087 4.14137 0
M  V30 5858 C 552.748 0.557064 5.30785 0
M  V30 5859 O 552.971 -0.628623 5.66925 0
M  V30 5860 O 551.905 1.29924 5.8771 0
M  V30 5861 H 555.731 1.59663 2.58344 0
M  V30 5862 H 553.316 0.840575 1.2351 0
M  V30 5863 H 555.198 -0.241884 4.20705 0
M  V30 5864 H 553.873 -0.78337 3.14078 0
M  V30 5865 H 552.78 1.51712 3.41957 0
M  V30 5866 H 554.113 1.97805 4.50704 0
M  V30 5867 N 555.766 -1.3263 0.851289 0
M  V30 5868 C 556.713 -2.28952 0.291469 0
M  V30 5869 C 557.683 -1.54897 -0.599676 0
M  V30 5870 O 558.868 -1.83137 -0.535305 0
M  V30 5871 C 556.008 -3.41206 -0.516992 0
M  V30 5872 C 555.121 -4.30148 0.399566 0
M  V30 5873 C 554.256 -5.29527 -0.4212 0
M  V30 5874 C 553.295 -6.10112 0.492969 0
M  V30 5875 N 552.432 -7.01499 -0.290414 0
M  V30 5876 H 557.272 -2.76228 1.11813 0
M  V30 5877 H 554.809 -1.35907 0.562826 0
M  V30 5878 H 556.767 -4.05005 -1.00132 0
M  V30 5879 H 555.397 -2.9509 -1.30851 0
M  V30 5880 H 554.449 -3.66959 1.00227 0
M  V30 5881 H 555.761 -4.8649 1.1013 0
M  V30 5882 H 554.915 -5.98914 -0.968832 0
M  V30 5883 H 553.654 -4.73794 -1.15632 0
M  V30 5884 H 552.659 -5.39632 1.05251 0
M  V30 5885 H 553.884 -6.6793 1.22664 0
M  V30 5886 H 551.83 -6.48199 -1.00868 0
M  V30 5887 H 551.747 -7.55178 0.352354 0
M  V30 5888 H 553.015 -7.75176 -0.819882 0
M  V30 5889 O 557.283 -0.749239 -1.43069 0
M  V30 5890 H 557.974 -0.305579 -1.91274 0
M  V30 END ATOM
M  V30 BEGIN BOND
M  V30 END BOND
M  V30 END CTAB
M  END
$$$$
