drugbank_target|Q8TD19 Serine/threonine-protein kinase Nek9 (DB12010)
 OpenBabel12092121173D

  0  0  0     0  0            999 V3000
M  V30 BEGIN CTAB
M  V30 COUNTS 14912 15059 0 0 0
M  V30 BEGIN ATOM
M  V30 1 H -0.908 1.98254 -0.117106 0
M  V30 2 N 0 1.576 0 0
M  V30 3 C 0.933 2.03868 1.02534 0
M  V30 4 C 1.911 0.928543 1.3348 0
M  V30 5 O 3.095 1.19667 1.45644 0
M  V30 6 C 0.222 2.43627 2.35294 0
M  V30 7 C -0.732 3.65373 2.2001 0
M  V30 8 S 0.101 5.13292 1.52614 0
M  V30 9 C 1.257 5.56322 2.86805 0
M  V30 10 H 1.49 2.90518 0.631377 0
M  V30 11 H -0.977 1.52953 0.210867 0
M  V30 12 H 0.981 2.67203 3.11629 0
M  V30 13 H -0.358 1.57376 2.7183 0
M  V30 14 H -1.165 3.90944 3.18086 0
M  V30 15 H -1.563 3.418 1.51819 0
M  V30 16 H 0.729 5.58782 3.83104 0
M  V30 17 H 1.672 6.56266 2.65933 0
M  V30 18 H 2.08 4.83886 2.90714 0
M  V30 19 N 1.4781 -0.272755 1.55222 0
M  V30 20 C 2.7031 -1.02683 1.80197 0
M  V30 21 C 3.1281 -1.79142 0.573551 0
M  V30 22 O 2.4861 -1.74917 -0.476849 0
M  V30 23 C 2.5341 -1.9609 3.02624 0
M  V30 24 O 1.6381 -3.04863 2.77727 0
M  V30 25 H 0.9791 -0.293557 0.595584 0
M  V30 26 H 3.5091 -0.30159 2.02365 0
M  V30 27 H 3.5191 -2.38039 3.31363 0
M  V30 28 H 2.1941 -1.39851 3.91682 0
M  V30 29 H 0.7711 -2.67228 2.60084 0
M  V30 30 N 2.9562 -1.48159 -0.537278 0
M  V30 31 C 4.2022 -1.56035 -1.29541 0
M  V30 32 C 4.5352 -0.230377 -1.92829 0
M  V30 33 O 3.8102 0.762952 -1.78911 0
M  V30 34 C 4.0932 -2.69323 -2.39034 0
M  V30 35 C 3.9462 -4.12002 -1.80485 0
M  V30 36 C 5.2652 -2.78408 -3.40847 0
M  V30 37 H 2.3842 -0.567992 -0.469632 0
M  V30 38 H 5.0262 -1.80302 -0.599277 0
M  V30 39 H 3.1762 -2.48763 -2.98412 0
M  V30 40 H 4.8482 -4.43981 -1.25215 0
M  V30 41 H 3.0912 -4.19344 -1.11055 0
M  V30 42 H 3.7622 -4.87077 -2.59731 0
M  V30 43 H 6.2382 -2.97012 -2.91416 0
M  V30 44 H 5.1142 -3.59416 -4.14863 0
M  V30 45 H 5.3752 -1.86269 -4.00944 0
M  V30 46 N 4.4343 0.785586 -1.36625 0
M  V30 47 C 5.3643 1.91259 -1.33949 0
M  V30 48 C 6.3453 1.68795 -0.210325 0
M  V30 49 O 7.5303 1.89854 -0.408561 0
M  V30 50 C 4.6603 3.28339 -1.13186 0
M  V30 51 C 3.6143 3.65335 -2.22967 0
M  V30 52 C 2.9403 5.00806 -1.87342 0
M  V30 53 C 4.2403 3.7352 -3.65075 0
M  V30 54 H 5.9343 1.93755 -2.28253 0
M  V30 55 H 3.4803 0.930788 -1.09874 0
M  V30 56 H 5.4333 4.06804 -1.09948 0
M  V30 57 H 4.1573 3.2624 -0.153332 0
M  V30 58 H 2.8163 2.89169 -2.25337 0
M  V30 59 H 2.4643 4.95233 -0.880545 0
M  V30 60 H 2.1643 5.26529 -2.60846 0
M  V30 61 H 3.6883 5.81687 -1.85667 0
M  V30 62 H 5.1023 4.42168 -3.64911 0
M  V30 63 H 3.4993 4.10731 -4.37516 0
M  V30 64 H 4.5693 2.74527 -3.99703 0
M  V30 65 N 5.9124 1.20967 1.01018 0
M  V30 66 C 7.1604 1.02172 1.74371 0
M  V30 67 C 7.4814 -0.446414 1.89821 0
M  V30 68 O 6.7514 -1.32234 1.44537 0
M  V30 69 H 5.3314 0.375066 0.646014 0
M  V30 70 H 7.9934 1.52187 1.21758 0
M  V30 71 H 7.0894 1.48538 2.74487 0
M  V30 72 N 7.3905 -1.2043 1.01659 0
M  V30 73 C 8.3005 -2.2689 0.596484 0
M  V30 74 C 9.3165 -1.70107 -0.36599 0
M  V30 75 O 10.4925 -2.00117 -0.226942 0
M  V30 76 C 7.5575 -3.4665 -0.0586659 0
M  V30 77 C 6.6185 -4.18662 0.949751 0
M  V30 78 C 5.8515 -5.32705 0.32577 0
M  V30 79 O 6.0745 -5.63656 -0.874509 0
M  V30 80 O 5.0085 -5.92803 1.04249 0
M  V30 81 H 8.8345 -2.65041 1.4828 0
M  V30 82 H 6.4195 -1.27048 0.786082 0
M  V30 83 H 8.3015 -4.19256 -0.424564 0
M  V30 84 H 6.9765 -3.10375 -0.91918 0
M  V30 85 H 5.8835 -3.48229 1.36702 0
M  V30 86 H 7.2165 -4.58878 1.78023 0
M  V30 87 N 8.8686 -0.792821 -1.36206 0
M  V30 88 C 10.0986 -0.378275 -2.03107 0
M  V30 89 C 10.5066 1.01119 -1.59911 0
M  V30 90 O 9.8496 1.66052 -0.785658 0
M  V30 91 C 9.9116 -0.366535 -3.57627 0
M  V30 92 C 9.5756 -1.70416 -4.24037 0
M  V30 93 C 10.5726 -2.6602 -4.46687 0
M  V30 94 C 8.2576 -1.98439 -4.6144 0
M  V30 95 C 10.2516 -3.8784 -5.05825 0
M  V30 96 C 7.9386 -3.20525 -5.20295 0
M  V30 97 C 8.9366 -4.15044 -5.42427 0
M  V30 98 O 8.6246 -5.34978 -6.00045 0
M  V30 99 H 8.3566 -0.153543 -0.658332 0
M  V30 100 H 10.9106 -1.07383 -1.75094 0
M  V30 101 H 9.1406 0.385539 -3.84773 0
M  V30 102 H 10.8296 0.0238088 -4.05893 0
M  V30 103 H 11.5956 -2.45658 -4.18183 0
M  V30 104 H 7.4746 -1.25686 -4.43536 0
M  V30 105 H 11.0186 -4.61628 -5.23015 0
M  V30 106 H 6.9156 -3.40764 -5.48225 0
M  V30 107 H 7.6836 -5.36088 -6.18508 0
M  V30 108 N 10.3467 1.47872 -0.545128 0
M  V30 109 C 11.2567 2.33633 0.212746 0
M  V30 110 C 12.2727 1.4744 0.923983 0
M  V30 111 O 13.4487 1.80393 0.895572 0
M  V30 112 C 10.5137 3.23884 1.23693 0
M  V30 113 C 9.5747 4.25961 0.534417 0
M  V30 114 C 8.8077 5.11899 1.5098 0
M  V30 115 O 9.0307 5.00077 2.7437 0
M  V30 116 O 7.9647 5.92831 1.0409 0
M  V30 117 H 11.7907 2.99714 -0.490416 0
M  V30 118 H 9.3757 1.46235 -0.305871 0
M  V30 119 H 11.2577 3.79666 1.82843 0
M  V30 120 H 9.9327 2.60446 1.92222 0
M  V30 121 H 8.8397 3.73972 -0.0979679 0
M  V30 122 H 10.1727 4.92079 -0.109213 0
M  V30 123 N 11.8248 0.280983 1.55075 0
M  V30 124 C 13.2408 -0.0729964 1.59433 0
M  V30 125 C 13.4408 -1.5411 1.29817 0
M  V30 126 O 12.4968 -2.29086 1.06187 0
M  V30 127 C 13.8098 0.306921 2.9913 0
M  V30 128 C 15.3578 0.254023 3.11968 0
M  V30 129 C 15.8328 0.608467 4.5394 0
M  V30 130 N 17.3238 0.560241 4.59799 0
M  V30 131 C 18.0588 0.80722 5.6769 0
M  V30 132 N 17.5548 1.11912 6.83701 0
M  V30 133 N 19.3478 0.735623 5.57266 0
M  V30 134 H 11.4988 1.238 1.7259 0
M  V30 135 H 13.7618 0.500547 0.805082 0
M  V30 136 H 13.4678 1.32816 3.25657 0
M  V30 137 H 13.3418 -0.349363 3.75579 0
M  V30 138 H 15.7288 -0.75794 2.852 0
M  V30 139 H 15.8098 0.944649 2.37718 0
M  V30 140 H 15.4538 1.61814 4.81434 0
M  V30 141 H 15.3838 -0.104013 5.26497 0
M  V30 142 H 17.8748 0.329288 3.76463 0
M  V30 143 H 18.1878 1.29409 7.61888 0
M  V30 144 H 16.5328 1.15695 6.85303 0
M  V30 145 H 19.7238 0.491752 4.6551 0
M  V30 146 H 19.8968 0.931482 6.4127 0
M  V30 147 N 13.3029 -1.57598 0.00835791 0
M  V30 148 C 14.2529 -2.05431 -0.989045 0
M  V30 149 C 15.2369 -0.950662 -1.29812 0
M  V30 150 O 16.4289 -1.21438 -1.28771 0
M  V30 151 C 13.5579 -2.56801 -2.27833 0
M  V30 152 C 12.6439 -3.74058 -1.99853 0
M  V30 153 N 13.0349 -4.8544 -1.42062 0
M  V30 154 C 11.3329 -3.82148 -2.29953 0
M  V30 155 C 12.0339 -5.66817 -1.30743 0
M  V30 156 N 11.0099 -5.13077 -1.7959 0
M  V30 157 H 14.8119 -2.88955 -0.536853 0
M  V30 158 H 12.3259 -1.61199 -0.197148 0
M  V30 159 H 14.3229 -2.89349 -3.00137 0
M  V30 160 H 12.9829 -1.74699 -2.73698 0
M  V30 161 H 13.9939 -5.0612 -1.09833 0
M  V30 162 H 10.6709 -3.10916 -2.78635 0
M  V30 163 H 12.0609 -6.66343 -0.862328 0
M  V30 164 N 14.781 0.264519 -1.55364 0
M  V30 165 C 16.021 1.00254 -1.78125 0
M  V30 166 C 16.385 1.83187 -0.575017 0
M  V30 167 O 17.586 2.60029 -0.681042 0
M  V30 168 C 15.857 1.85478 -3.05504 0
M  V30 169 S 17.416 2.6543 -3.49417 0
M  V30 170 H 14.234 0.337522 -0.625779 0
M  V30 171 H 16.836 0.272111 -1.93597 0
M  V30 172 H 15.54 1.23491 -3.9138 0
M  V30 173 H 15.071 2.62827 -2.92721 0
M  V30 174 H 17.086 3.87958 -3.09359 0
M  V30 175 N 16.2591 1.48442 0.529413 0
M  V30 176 C 17.5361 1.46978 1.29062 0
M  V30 177 C 17.9161 0.181769 2.10316 0
M  V30 178 O 17.2641 -0.836481 2.12639 0
M  V30 179 C 17.4741 2.7321 2.17157 0
M  V30 180 C 18.8221 3.21562 2.77278 0
M  V30 181 O 19.8461 2.74131 2.27444 0
M  V30 182 O 18.7051 4.04094 3.67927 0
M  V30 183 H 15.7991 0.587003 0.582543 0
M  V30 184 H 18.3451 1.60676 0.546021 0
M  V30 185 H 17.1171 3.58465 1.56903 0
M  V30 186 H 16.7401 2.62235 2.98862 0
M  V30 187 N 17.7372 -0.778329 1.37039 0
M  V30 188 C 18.9622 -1.57248 1.35233 0
M  V30 189 C 19.3872 -1.87999 -0.0615568 0
M  V30 190 O 18.7452 -1.48734 -1.03672 0
M  V30 191 C 18.7932 -2.86353 2.19167 0
M  V30 192 O 17.8972 -3.80442 1.59178 0
M  V30 193 H 17.2382 -0.476569 0.462362 0
M  V30 194 H 19.7682 -0.963853 1.80474 0
M  V30 195 H 19.7782 -3.35519 2.32145 0
M  V30 196 H 18.4532 -2.63299 3.21942 0
M  V30 197 H 17.0302 -3.39067 1.55203 0
M  V30 198 N 19.2153 -1.21501 -1.00376 0
M  V30 199 C 20.4643 -1.02718 -1.73586 0
M  V30 200 C 20.7773 0.439589 -1.90596 0
M  V30 201 O 21.9833 0.746848 -2.61026 0
M  V30 202 C 20.4393 -1.78929 -3.1227 0
M  V30 203 C 20.0473 -3.29783 -3.03228 0
M  V30 204 C 21.7913 -1.68557 -3.89601 0
M  V30 205 C 19.6983 -3.98479 -4.36999 0
M  V30 206 H 18.6283 -0.380733 -0.650814 0
M  V30 207 H 21.2793 -1.45248 -1.1214 0
M  V30 208 H 19.6613 -1.29192 -3.74333 0
M  V30 209 H 20.8353 -3.86832 -2.50395 0
M  V30 210 H 19.1503 -3.40711 -2.39385 0
M  V30 211 H 21.7473 -2.17211 -4.88593 0
M  V30 212 H 22.0903 -0.644021 -4.11288 0
M  V30 213 H 22.6233 -2.15778 -3.34193 0
M  V30 214 H 19.3623 -5.02841 -4.20513 0
M  V30 215 H 18.8823 -3.46219 -4.89788 0
M  V30 216 H 20.5613 -4.03462 -5.05794 0
M  V30 217 N 20.6934 1.19889 -1.02296 0
M  V30 218 C 21.6414 2.24938 -0.592081 0
M  V30 219 C 22.6354 1.65257 0.372357 0
M  V30 220 O 23.8414 1.78371 0.241583 0
M  V30 221 H 20.2164 0.731787 -0.173182 0
M  V30 222 H 22.1874 2.58603 -1.48885 0
M  V30 223 C 20.9364 3.47668 0.047351 0
M  V30 224 H 20.2594 3.93875 -0.685772 0
M  V30 225 H 21.6994 4.22852 0.311862 0
M  V30 226 C 20.1584 3.11136 1.29212 0
M  V30 227 O 20.6884 3.2325 2.38479 0
M  V30 228 N 18.8944 2.65625 1.17863 0
M  V30 229 H 18.4414 2.55968 0.289493 0
M  V30 230 H 18.3994 2.41553 2.01245 0
M  V30 231 N 22.1715 0.800033 1.35784 0
M  V30 232 C 23.3965 0.388511 2.03729 0
M  V30 233 C 23.8215 -0.990481 1.5991 0
M  V30 234 O 23.1795 -1.64013 0.772612 0
M  V30 235 C 23.2275 0.4726 3.5749 0
M  V30 236 O 22.3315 -0.51646 4.09153 0
M  V30 237 H 21.6725 0.163271 0.643614 0
M  V30 238 H 24.2025 1.0841 1.73518 0
M  V30 239 H 24.2125 0.34003 4.06581 0
M  V30 240 H 22.8875 1.47848 3.88734 0
M  V30 241 H 21.4645 -0.344673 3.71304 0
M  V30 242 N 23.6496 -1.47581 0.552962 0
M  V30 243 C 24.9266 -1.95563 -0.0381515 0
M  V30 244 C 25.3066 -1.49552 -1.48988 0
M  V30 245 O 24.6546 -0.732414 -2.16444 0
M  V30 246 C 24.8646 -3.48848 0.102919 0
M  V30 247 C 26.2126 -4.24577 -0.0446082 0
M  V30 248 O 27.2366 -3.56187 0.0302548 0
M  V30 249 O 26.0956 -5.46116 -0.204923 0
M  V30 250 H 23.1896 -0.824321 -0.0665067 0
M  V30 251 H 25.7356 -1.58001 0.619186 0
M  V30 252 H 24.5076 -3.75129 1.11328 0
M  V30 253 H 24.1306 -3.93165 -0.592224 0
M  V30 254 N 25.1277 -0.289203 -1.54924 0
M  V30 255 C 26.3747 0.323519 -1.99899 0
M  V30 256 C 26.7027 1.54797 -1.17762 0
M  V30 257 O 25.9577 1.94237 -0.238835 0
M  V30 258 C 26.2567 0.736119 -3.49737 0
M  V30 259 C 25.9227 -0.385276 -4.49251 0
M  V30 260 C 24.5847 -0.693156 -4.76181 0
M  V30 261 C 26.9367 -1.14021 -5.08575 0
M  V30 262 C 24.2647 -1.7593 -5.59701 0
M  V30 263 C 26.6167 -2.19619 -5.93254 0
M  V30 264 C 25.2807 -2.51026 -6.185 0
M  V30 265 H 24.5507 0.118384 -0.731482 0
M  V30 266 H 27.1977 -0.405847 -1.8715 0
M  V30 267 H 25.5027 1.54539 -3.60035 0
M  V30 268 H 27.1997 1.22118 -3.81953 0
M  V30 269 H 23.7897 -0.135202 -4.28387 0
M  V30 270 H 27.9737 -0.915611 -4.87781 0
M  V30 271 H 23.2297 -2.0075 -5.77503 0
M  V30 272 H 27.4037 -2.78581 -6.38252 0
M  V30 273 H 25.0307 -3.33772 -6.83008 0
M  V30 274 N 26.6058 1.57591 -0.0167156 0
M  V30 275 C 27.8538 1.90906 0.663285 0
M  V30 276 C 28.1748 0.892509 1.73376 0
M  V30 277 O 27.4448 -0.0677623 1.95783 0
M  V30 278 H 26.0248 0.704637 0.247983 0
M  V30 279 H 28.6868 1.94803 -0.0615909 0
M  V30 280 H 27.7828 2.9116 1.12393 0
M  V30 281 N 28.0839 -0.256276 1.55502 0
M  V30 282 C 29.3089 -1.00766 1.81276 0
M  V30 283 C 29.7339 -1.78524 0.59252 0
M  V30 284 O 29.0919 -1.75413 -0.45827 0
M  V30 285 C 29.1399 -1.92869 3.04687 0
M  V30 286 O 28.2439 -3.019 2.80945 0
M  V30 287 H 27.5849 -0.287224 0.598664 0
M  V30 288 H 30.1149 -0.280109 2.02674 0
M  V30 289 H 30.1249 -2.34511 3.33869 0
M  V30 290 H 28.7999 -1.35689 3.93143 0
M  V30 291 H 27.3769 -2.64454 2.62904 0
M  V30 292 N 29.562 -1.4872 -0.521534 0
M  V30 293 C 30.472 -1.66569 -1.65203 0
M  V30 294 C 31.488 -0.548197 -1.65139 0
M  V30 295 O 32.664 -0.820339 -1.83936 0
M  V30 296 C 29.729 -1.70917 -3.01642 0
M  V30 297 C 28.79 -2.94356 -3.12495 0
M  V30 298 C 28.023 -2.98487 -4.42426 0
M  V30 299 O 28.246 -2.10786 -5.30024 0
M  V30 300 O 27.18 -3.90746 -4.57822 0
M  V30 301 H 31.006 -2.62298 -1.5308 0
M  V30 302 H 28.591 -1.3222 -0.695565 0
M  V30 303 H 30.473 -1.7625 -3.82771 0
M  V30 304 H 29.148 -0.783633 -3.14071 0
M  V30 305 H 28.055 -2.94552 -2.3063 0
M  V30 306 H 29.388 -3.86322 -3.04986 0
M  V30 307 N 31.0401 0.771051 -1.3745 0
M  V30 308 C 32.2651 1.56529 -1.36065 0
M  V30 309 C 32.6901 1.88029 0.0515859 0
M  V30 310 O 32.0481 1.49282 1.02882 0
M  V30 311 C 32.0961 2.85187 -2.20683 0
M  V30 312 O 31.2001 3.79593 -1.61193 0
M  V30 313 H 30.5411 0.47411 -0.464883 0
M  V30 314 H 33.0711 0.954269 -1.80983 0
M  V30 315 H 33.0811 3.34283 -2.33921 0
M  V30 316 H 31.7561 2.61588 -3.23334 0
M  V30 317 H 30.3331 3.38239 -1.56999 0
M  V30 318 N 32.5182 1.22032 0.997298 0
M  V30 319 C 33.7662 1.04016 1.73278 0
M  V30 320 C 34.0872 -0.426255 1.90284 0
M  V30 321 O 33.3572 -1.30694 1.45931 0
M  V30 322 H 31.9372 0.381897 0.642 0
M  V30 323 H 34.5992 1.5347 1.20137 0
M  V30 324 H 33.6952 1.51441 2.72896 0
M  V30 325 N 33.9963 -1.19345 1.0293 0
M  V30 326 C 35.2443 -1.88665 0.724574 0
M  V30 327 C 35.5653 -1.80036 -0.749144 0
M  V30 328 O 34.8353 -1.2111 -1.53978 0
M  V30 329 H 33.4153 -0.698406 0.265025 0
M  V30 330 H 36.0773 -1.44885 1.30362 0
M  V30 331 H 35.1733 -2.94987 1.01926 0
M  V30 332 N 35.4744 -0.807222 -1.35358 0
M  V30 333 C 36.7144 -0.393534 -2.00576 0
M  V30 334 C 37.0784 1.0203 -1.62647 0
M  V30 335 O 38.2794 1.53603 -2.20589 0
M  V30 336 C 36.5504 -0.572017 -3.52793 0
M  V30 337 S 38.1094 -0.248845 -4.38094 0
M  V30 338 H 34.9274 -0.149425 -0.695121 0
M  V30 339 H 37.5294 -1.04961 -1.64935 0
M  V30 340 H 36.2334 -1.60097 -3.77885 0
M  V30 341 H 35.7644 0.099359 -3.93275 0
M  V30 342 H 37.7794 0.943253 -4.87152 0
M  V30 343 N 36.9525 1.47285 -0.560781 0
M  V30 344 C 38.2005 2.02064 -0.0379868 0
M  V30 345 C 38.5215 1.43711 1.31803 0
M  V30 346 O 37.7915 0.61362 1.86042 0
M  V30 347 H 36.3715 0.746918 -0.0110531 0
M  V30 348 H 39.0335 1.80648 -0.731598 0
M  V30 349 H 38.1295 3.12064 0.0474463 0
M  V30 350 N 38.4306 0.297415 1.54768 0
M  V30 351 C 39.7076 -0.365847 1.92148 0
M  V30 352 C 40.0876 -1.71975 1.22424 0
M  V30 353 O 39.4356 -2.25666 0.358739 0
M  V30 354 C 39.6456 -0.484056 3.45627 0
M  V30 355 C 40.9936 -0.756594 4.17805 0
M  V30 356 O 42.0176 -0.568007 3.51642 0
M  V30 357 O 40.8766 -1.11863 5.34929 0
M  V30 358 H 37.9706 -0.203919 0.801465 0
M  V30 359 H 40.5166 0.34521 1.66152 0
M  V30 360 H 39.2886 0.467865 3.88493 0
M  V30 361 H 38.9116 -1.24372 3.77647 0
M  V30 362 N 39.9087 -1.5758 0.0250728 0
M  V30 363 C 41.1337 -1.96337 -0.668317 0
M  V30 364 C 41.5587 -0.901314 -1.651 0
M  V30 365 O 40.9167 0.138187 -1.80773 0
M  V30 366 C 40.9647 -3.34191 -1.35457 0
M  V30 367 O 40.0687 -3.30269 -2.46974 0
M  V30 368 H 39.4097 -0.640281 -0.175887 0
M  V30 369 H 41.9397 -2.0442 0.0857224 0
M  V30 370 H 41.9497 -3.70331 -1.71228 0
M  V30 371 H 40.6247 -4.11036 -0.634218 0
M  V30 372 H 39.2017 -3.05841 -2.13344 0
M  V30 373 N 41.3868 0.248026 -1.55636 0
M  V30 374 C 42.6118 0.998028 -1.81808 0
M  V30 375 C 43.0368 1.78207 -0.601979 0
M  V30 376 O 42.3948 1.75653 0.448961 0
M  V30 377 C 42.4428 1.9125 -3.05705 0
M  V30 378 O 41.5468 3.00406 -2.82542 0
M  V30 379 H 40.8878 0.284045 -0.600179 0
M  V30 380 H 43.4178 0.269357 -2.02819 0
M  V30 381 H 43.4278 2.32737 -3.35108 0
M  V30 382 H 42.1028 1.33602 -3.93857 0
M  V30 383 H 40.6798 2.63056 -2.64303 0
M  V30 384 N 42.8649 1.48995 0.513639 0
M  V30 385 C 44.2759 1.5119 1.09537 0
M  V30 386 C 44.6269 0.290906 1.94031 0
M  V30 387 O 43.7519 -0.60049 2.07902 0
M  V30 388 C 44.3469 2.73964 1.99322 0
M  V30 389 C 42.9059 2.78978 2.52682 0
M  V30 390 C 42.0529 2.44934 1.30009 0
M  V30 391 H 45.0039 1.55875 0.298125 0
M  V30 392 H 45.0249 2.53409 2.83838 0
M  V30 393 H 44.5369 3.62813 1.37799 0
M  V30 394 H 42.6379 1.94378 3.1788 0
M  V30 395 H 42.7509 3.8083 2.90698 0
M  V30 396 H 41.1149 1.9644 1.62122 0
M  V30 397 H 41.8979 3.36043 0.702131 0
M  V30 398 N 44.343 -0.763751 1.37857 0
M  V30 399 C 45.591 -1.51957 1.33243 0
M  V30 400 C 45.912 -1.94835 -0.0801709 0
M  V30 401 O 45.182 -1.66894 -1.02582 0
M  V30 402 H 43.762 -0.563626 0.49024 0
M  V30 403 H 46.424 -0.908504 1.7243 0
M  V30 404 H 45.52 -2.41523 1.97669 0
M  V30 405 N 45.8211 -1.22559 -0.990812 0
M  V30 406 C 47.2321 -1.04791 -1.54518 0
M  V30 407 C 47.5831 0.387998 -1.92325 0
M  V30 408 O 46.7081 1.27328 -1.74976 0
M  V30 409 C 47.3031 -1.896 -2.80779 0
M  V30 410 C 45.8621 -1.76124 -3.32652 0
M  V30 411 C 45.0091 -1.8594 -2.05722 0
M  V30 412 H 47.9601 -1.36374 -0.811662 0
M  V30 413 H 47.9811 -1.41464 -3.53225 0
M  V30 414 H 47.4931 -2.94101 -2.53231 0
M  V30 415 H 45.5941 -0.743643 -3.65104 0
M  V30 416 H 45.7071 -2.58913 -4.03114 0
M  V30 417 H 44.0711 -1.29403 -2.19379 0
M  V30 418 H 44.8541 -2.91976 -1.80568 0
M  V30 419 N 47.2992 1.18797 -1.03562 0
M  V30 420 C 48.5242 1.9314 -0.755764 0
M  V30 421 C 48.9492 1.7537 0.68022 0
M  V30 422 O 48.3072 1.06046 1.47051 0
M  V30 423 C 48.3552 3.42747 -1.12058 0
M  V30 424 O 47.4592 4.11683 -0.243124 0
M  V30 425 H 46.8002 0.602724 -0.278604 0
M  V30 426 H 49.3302 1.50678 -1.3841 0
M  V30 427 H 49.3402 3.93437 -1.08035 0
M  V30 428 H 48.0152 3.55002 -2.16672 0
M  V30 429 H 46.5922 3.71323 -0.342539 0
M  V30 430 N 48.7773 0.814389 1.34928 0
M  V30 431 C 49.7403 0.235759 2.27984 0
M  V30 432 C 50.7403 -0.581412 1.49921 0
M  V30 433 O 51.9303 -0.398758 1.69575 0
M  V30 434 C 49.0623 -0.670433 3.34242 0
M  V30 435 H 50.2553 1.05659 2.80671 0
M  V30 436 H 47.8083 0.585614 1.44915 0
M  V30 437 H 48.5433 -1.51466 2.86755 0
M  V30 438 H 48.3283 -0.0860822 3.92005 0
M  V30 439 H 49.8183 -1.06935 4.03676 0
M  V30 440 N 50.2554 -1.46986 0.568584 0
M  V30 441 C 51.4804 -2.07335 0.0520528 0
M  V30 442 C 51.9054 -1.41675 -1.23733 0
M  V30 443 O 51.2634 -0.495623 -1.74394 0
M  V30 444 C 51.3114 -3.60417 -0.11501 0
M  V30 445 O 50.4154 -3.95309 -1.17492 0
M  V30 446 H 49.7564 -0.661597 0.0564385 0
M  V30 447 H 52.2864 -1.88837 0.787507 0
M  V30 448 H 52.2964 -4.06698 -0.325644 0
M  V30 449 H 50.9714 -4.07601 0.826675 0
M  V30 450 H 49.5484 -3.60757 -0.943869 0
M  V30 451 N 51.7335 -0.305618 -1.54608 0
M  V30 452 C 52.6655 0.602161 -2.21149 0
M  V30 453 C 53.6785 1.09394 -1.20569 0
M  V30 454 O 54.8675 1.0106 -1.47136 0
M  V30 455 C 51.9675 1.83692 -2.84799 0
M  V30 456 C 51.1405 1.48686 -4.11353 0
M  V30 457 C 50.1995 2.57725 -4.58764 0
M  V30 458 O 49.2255 2.22623 -5.23858 0
M  V30 459 N 50.4275 3.88346 -4.31471 0
M  V30 460 H 53.1925 0.0324966 -2.99682 0
M  V30 461 H 50.7535 -0.128021 -1.61393 0
M  V30 462 H 52.7455 2.55994 -3.13448 0
M  V30 463 H 51.3155 2.31486 -2.10078 0
M  V30 464 H 50.5355 0.596269 -3.89664 0
M  V30 465 H 51.8235 1.22842 -4.93748 0
M  V30 466 H 51.2215 4.19671 -3.79331 0
M  V30 467 H 49.7785 4.56932 -4.64818 0
M  V30 468 N 53.2116 1.57565 -0.0334293 0
M  V30 469 C 54.4596 1.91598 0.642999 0
M  V30 470 C 54.7806 0.910847 1.7242 0
M  V30 471 O 54.0506 -0.0469931 1.95844 0
M  V30 472 H 52.6306 0.707228 0.240496 0
M  V30 473 H 55.2926 1.94726 -0.0822488 0
M  V30 474 H 54.3886 2.92336 1.09298 0
M  V30 475 N 54.6897 -0.239769 1.55765 0
M  V30 476 C 56.1007 -0.808263 1.68297 0
M  V30 477 C 56.4517 -1.85736 0.632181 0
M  V30 478 O 55.5767 -2.15277 -0.220204 0
M  V30 479 C 56.1717 -1.47284 3.05111 0
M  V30 480 C 54.7307 -1.98895 3.19559 0
M  V30 481 C 53.8777 -0.842575 2.64189 0
M  V30 482 H 56.8287 -0.0154422 1.58692 0
M  V30 483 H 56.8497 -2.34111 2.99954 0
M  V30 484 H 56.3617 -0.709053 3.81568 0
M  V30 485 H 54.4627 -2.78132 2.47938 0
M  V30 486 H 54.5757 -2.18143 4.26556 0
M  V30 487 H 52.9397 -1.24501 2.22197 0
M  V30 488 H 53.7227 -0.0917552 3.43177 0
M  V30 489 N 56.1678 -1.49265 -0.50573 0
M  V30 490 C 57.5838 -1.35923 -0.836486 0
M  V30 491 C 57.7838 -0.388704 -1.97715 0
M  V30 492 O 56.8398 0.181336 -2.51848 0
M  V30 493 C 58.1528 -2.76531 -1.18115 0
M  V30 494 C 59.7008 -2.85197 -1.28964 0
M  V30 495 C 60.1758 -4.26561 -1.66761 0
M  V30 496 N 61.6668 -4.2935 -1.73819 0
M  V30 497 C 62.4018 -5.35693 -2.045 0
M  V30 498 N 61.8978 -6.52287 -2.33438 0
M  V30 499 N 63.6908 -5.23105 -2.05711 0
M  V30 500 H 55.8418 -2.10965 0.246519 0
M  V30 501 H 58.1048 -0.9468 0.0476887 0
M  V30 502 H 57.8108 -3.49226 -0.416398 0
M  V30 503 H 57.6848 -3.11599 -2.1257 0
M  V30 504 H 60.0718 -2.12742 -2.04511 0
M  V30 505 H 60.1528 -2.53718 -0.325704 0
M  V30 506 H 59.7968 -4.99541 -0.917656 0
M  V30 507 H 59.7268 -4.55502 -2.64246 0
M  V30 508 H 62.2178 -3.4526 -1.53635 0
M  V30 509 H 62.5308 -7.29158 -2.56024 0
M  V30 510 H 60.8758 -6.55521 -2.30905 0
M  V30 511 H 64.0668 -4.31026 -1.82577 0
M  V30 512 H 64.2398 -6.06078 -2.29289 0
M  V30 513 N 57.6459 0.756429 -1.3826 0
M  V30 514 C 58.6089 1.85176 -1.35065 0
M  V30 515 C 59.6089 1.58818 -0.251703 0
M  V30 516 O 60.7989 1.66615 -0.508433 0
M  V30 517 C 57.9309 3.22596 -1.10201 0
M  V30 518 H 59.1239 1.89417 -2.3251 0
M  V30 519 H 56.6769 0.95783 -1.23512 0
M  V30 520 H 57.4119 3.24025 -0.133504 0
M  V30 521 H 57.1969 3.43122 -1.89762 0
M  V30 522 H 58.6869 4.02673 -1.10654 0
M  V30 523 N 59.124 1.23083 0.984299 0
M  V30 524 C 60.372 1.05848 1.72165 0
M  V30 525 C 60.693 -0.406049 1.90726 0
M  V30 526 O 59.963 -1.29139 1.47309 0
M  V30 527 H 58.543 0.388685 0.637913 0
M  V30 528 H 61.205 1.54736 1.18503 0
M  V30 529 H 60.301 1.54327 2.71274 0
M  V30 530 N 60.6021 -1.18246 1.0419 0
M  V30 531 C 61.8501 -1.87886 0.744543 0
M  V30 532 C 62.1711 -1.8082 -0.730006 0
M  V30 533 O 61.4411 -1.22736 -1.52685 0
M  V30 534 H 60.0211 -0.695556 0.272417 0
M  V30 535 H 62.6831 -1.43494 1.31892 0
M  V30 536 H 61.7791 -2.9389 1.05049 0
M  V30 537 N 62.0802 -0.821533 -1.34494 0
M  V30 538 C 63.3282 -0.408139 -1.97936 0
M  V30 539 C 63.6492 1.03193 -1.65457 0
M  V30 540 O 62.9192 1.71622 -0.944595 0
M  V30 541 H 61.4992 -0.147928 -0.732206 0
M  V30 542 H 64.1612 -1.05067 -1.64155 0
M  V30 543 H 63.2572 -0.52601 -3.07635 0
M  V30 544 N 63.5583 1.46682 -0.576371 0
M  V30 545 C 64.5213 2.28707 0.150239 0
M  V30 546 C 65.5213 1.38035 0.824794 0
M  V30 547 O 66.7113 1.60476 0.677719 0
M  V30 548 C 63.8433 3.18248 1.22192 0
M  V30 549 H 65.0363 2.94423 -0.570521 0
M  V30 550 H 62.5893 1.52688 -0.334078 0
M  V30 551 H 63.3243 2.57265 1.97447 0
M  V30 552 H 63.1093 3.85 0.742812 0
M  V30 553 H 64.5993 3.80001 1.73172 0
M  V30 554 N 65.0364 0.313813 1.54444 0
M  V30 555 C 65.9994 -0.54379 2.22656 0
M  V30 556 C 66.9994 -1.05124 1.21678 0
M  V30 557 O 68.1894 -0.945225 1.46325 0
M  V30 558 C 65.3214 -1.75427 2.92298 0
M  V30 559 H 66.5144 0.0523599 2.99854 0
M  V30 560 H 64.0674 0.0647834 1.56166 0
M  V30 561 H 64.8024 -2.38991 2.19211 0
M  V30 562 H 64.5874 -1.39791 3.66334 0
M  V30 563 H 66.0774 -2.36325 3.44297 0
M  V30 564 N 66.5145 -1.57545 0.0417849 0
M  V30 565 C 67.4245 -2.14451 -0.951213 0
M  V30 566 C 68.4405 -1.09992 -1.34825 0
M  V30 567 O 69.6165 -1.42114 -1.42708 0
M  V30 568 C 66.6815 -2.67063 -2.21084 0
M  V30 569 C 65.7425 -3.86284 -1.87304 0
M  V30 570 C 64.9755 -4.36378 -3.07261 0
M  V30 571 O 65.1985 -3.85587 -4.20332 0
M  V30 572 O 64.1325 -5.28077 -2.88822 0
M  V30 573 H 67.9585 -2.99601 -0.497287 0
M  V30 574 H 65.5435 -1.48317 -0.179567 0
M  V30 575 H 67.4255 -3.00914 -2.95006 0
M  V30 576 H 66.1005 -1.84989 -2.65633 0
M  V30 577 H 65.0075 -3.57338 -1.10727 0
M  V30 578 H 66.3405 -4.6956 -1.47562 0
M  V30 579 N 67.9926 0.231505 -1.5589 0
M  V30 580 C 68.9246 1.31006 -1.8807 0
M  V30 581 C 69.9376 1.43539 -0.768145 0
M  V30 582 O 71.1266 1.44614 -1.04638 0
M  V30 583 C 68.2266 2.68688 -2.06543 0
M  V30 584 C 67.3996 2.78228 -3.37502 0
M  V30 585 C 66.4586 3.96857 -3.4553 0
M  V30 586 O 65.4846 3.85662 -4.18633 0
M  V30 587 N 66.6866 5.1072 -2.75944 0
M  V30 588 H 69.4516 1.03731 -2.81176 0
M  V30 589 H 67.0126 0.421573 -1.56315 0
M  V30 590 H 69.0046 3.46412 -2.09239 0
M  V30 591 H 67.5746 2.88605 -1.20109 0
M  V30 592 H 66.7946 1.87059 -3.46991 0
M  V30 593 H 68.0826 2.81564 -4.23791 0
M  V30 594 H 67.4806 5.2271 -2.16311 0
M  V30 595 H 66.0376 5.86523 -2.84314 0
M  V30 596 N 69.4707 1.49531 0.497807 0
M  V30 597 C 70.3807 1.69176 1.62532 0
M  V30 598 C 71.3967 0.5744 1.64246 0
M  V30 599 O 72.5727 0.849497 1.82608 0
M  V30 600 C 69.6377 1.75695 2.98885 0
M  V30 601 C 68.6987 2.9929 3.07773 0
M  V30 602 C 67.9317 3.05488 4.37622 0
M  V30 603 O 68.1547 2.19192 5.26603 0
M  V30 604 O 67.0887 3.9798 4.51548 0
M  V30 605 H 70.9147 2.647 1.48887 0
M  V30 606 H 68.4997 1.3331 0.674441 0
M  V30 607 H 70.3817 1.82317 3.79919 0
M  V30 608 H 69.0567 0.8335 3.12785 0
M  V30 609 H 67.9637 2.98183 2.25915 0
M  V30 610 H 69.2967 3.91125 2.98801 0
M  V30 611 N 70.9488 -0.749086 1.3866 0
M  V30 612 C 71.8588 -1.89358 1.38494 0
M  V30 613 C 72.8748 -1.71708 0.281476 0
M  V30 614 O 74.0508 -1.94554 0.520643 0
M  V30 615 C 71.1158 -3.24782 1.21316 0
M  V30 616 C 70.1768 -3.54926 2.41508 0
M  V30 617 C 69.4098 -4.83888 2.2514 0
M  V30 618 O 69.6328 -5.56592 1.24746 0
M  V30 619 O 68.5668 -5.13612 3.13826 0
M  V30 620 H 72.3928 -1.92452 2.34938 0
M  V30 621 H 69.9778 -0.894981 1.19626 0
M  V30 622 H 71.8598 -4.05739 1.13814 0
M  V30 623 H 70.5348 -3.2249 0.279592 0
M  V30 624 H 69.4418 -2.74112 2.54585 0
M  V30 625 H 70.7748 -3.61983 3.3351 0
M  V30 626 N 72.4269 -1.23603 -0.977757 0
M  V30 627 C 73.3569 -1.04401 -2.0886 0
M  V30 628 C 74.3379 0.0399052 -1.70053 0
M  V30 629 O 75.5229 -0.125246 -1.93796 0
M  V30 630 C 72.6529 -0.637269 -3.41403 0
M  V30 631 C 71.6069 -1.66883 -3.94124 0
M  V30 632 C 70.9329 -1.11745 -5.22893 0
M  V30 633 C 72.2329 -3.06247 -4.23096 0
M  V30 634 H 73.9269 -1.97316 -2.25182 0
M  V30 635 H 71.4729 -0.950096 -1.08209 0
M  V30 636 H 73.4259 -0.48998 -4.18542 0
M  V30 637 H 72.1499 0.327557 -3.24953 0
M  V30 638 H 70.8089 -1.80416 -3.19133 0
M  V30 639 H 70.4569 -0.143527 -5.02795 0
M  V30 640 H 70.1569 -1.80672 -5.59134 0
M  V30 641 H 71.6809 -0.982067 -6.02651 0
M  V30 642 H 73.0949 -2.96001 -4.90975 0
M  V30 643 H 71.4919 -3.72436 -4.70544 0
M  V30 644 H 72.5619 -3.55041 -3.30263 0
M  V30 645 N 73.905 1.17692 -1.04816 0
M  V30 646 C 74.855 2.1952 -0.616042 0
M  V30 647 C 75.839 1.57147 0.345485 0
M  V30 648 O 77.031 1.76245 0.163325 0
M  V30 649 C 74.16 3.43298 0.0116917 0
M  V30 650 C 73.246 4.12777 -0.973435 0
M  V30 651 N 73.637 4.5814 -2.14339 0
M  V30 652 C 71.935 4.38747 -0.80108 0
M  V30 653 C 72.636 5.11713 -2.7663 0
M  V30 654 N 71.612 5.03686 -2.04453 0
M  V30 655 H 75.414 2.52293 -1.5075 0
M  V30 656 H 72.928 1.3398 -0.917776 0
M  V30 657 H 74.925 4.15519 0.339006 0
M  V30 658 H 73.585 3.12018 0.898593 0
M  V30 659 H 74.596 4.52349 -2.52191 0
M  V30 660 H 71.273 4.17485 0.0350934 0
M  V30 661 H 72.663 5.56962 -3.75823 0
M  V30 662 N 75.3831 0.828654 1.34056 0
M  V30 663 C 76.6131 0.431993 2.02033 0
M  V30 664 C 77.0211 -0.96844 1.62536 0
M  V30 665 O 76.3641 -1.6391 0.829408 0
M  V30 666 C 76.4261 0.461224 3.56529 0
M  V30 667 C 76.0901 1.81599 4.1937 0
M  V30 668 C 77.0871 2.7777 4.39477 0
M  V30 669 C 74.7721 2.10604 4.56017 0
M  V30 670 C 76.7661 4.01115 4.95364 0
M  V30 671 C 74.4531 3.34207 5.11614 0
M  V30 672 C 75.4511 4.2928 5.31232 0
M  V30 673 O 75.1391 5.50699 5.8565 0
M  V30 674 H 74.8711 0.170943 0.654029 0
M  V30 675 H 77.4251 1.11988 1.72185 0
M  V30 676 H 75.6551 -0.283388 3.8566 0
M  V30 677 H 77.3441 0.0838149 4.05813 0
M  V30 678 H 78.1101 2.56659 4.11523 0
M  V30 679 H 73.9891 1.37402 4.40047 0
M  V30 680 H 77.5331 4.75333 5.10592 0
M  V30 681 H 73.4301 3.55179 5.38997 0
M  V30 682 H 74.1981 5.52298 6.04077 0
M  V30 683 N 76.8612 -1.46375 0.584142 0
M  V30 684 C 78.1102 -2.01585 0.0679741 0
M  V30 685 C 78.4232 -1.46109 -1.30045 0
M  V30 686 O 79.6292 -1.93148 -1.90804 0
M  V30 687 C 78.0852 -3.5983 0.0709207 0
M  V30 688 C 77.6932 -4.24303 1.43775 0
M  V30 689 C 79.4372 -4.22693 -0.391228 0
M  V30 690 C 77.3442 -5.74631 1.39834 0
M  V30 691 H 76.2742 -0.753689 0.0216421 0
M  V30 692 H 78.9252 -1.68093 0.736001 0
M  V30 693 H 77.3072 -3.90405 -0.663299 0
M  V30 694 H 78.4812 -4.05335 2.19181 0
M  V30 695 H 76.7962 -3.73539 1.84004 0
M  V30 696 H 79.3932 -5.3289 -0.439524 0
M  V30 697 H 79.7362 -3.91728 -1.40906 0
M  V30 698 H 80.2692 -3.96749 0.288974 0
M  V30 699 H 77.0082 -6.10258 2.39303 0
M  V30 700 H 76.5282 -5.95858 0.686505 0
M  V30 701 H 78.2072 -6.37375 1.11187 0
M  V30 702 N 78.3393 -0.321999 -1.54275 0
M  V30 703 C 79.7503 0.166384 -1.85957 0
M  V30 704 C 80.1013 1.51747 -1.24367 0
M  V30 705 O 79.2263 2.09317 -0.549124 0
M  V30 706 C 79.8213 0.308681 -3.37391 0
M  V30 707 C 78.3803 0.741286 -3.69028 0
M  V30 708 C 77.5273 -0.137937 -2.76957 0
M  V30 709 H 80.4783 -0.542335 -1.49146 0
M  V30 710 H 80.4993 1.13984 -3.63026 0
M  V30 711 H 80.0113 -0.674809 -3.82188 0
M  V30 712 H 78.1123 1.73458 -3.29762 0
M  V30 713 H 78.2253 0.546118 -4.75977 0
M  V30 714 H 76.5893 0.386251 -2.51754 0
M  V30 715 H 77.3723 -1.11816 -3.2458 0
M  V30 716 N 79.8174 1.5752 -0.0501392 0
M  V30 717 C 81.0664 1.91827 0.623328 0
M  V30 718 C 81.3794 0.930222 1.72065 0
M  V30 719 O 82.5854 1.1653 2.4522 0
M  V30 720 C 81.0414 3.40692 1.16003 0
M  V30 721 C 80.6494 4.479 0.0948811 0
M  V30 722 C 82.3934 3.84034 1.80881 0
M  V30 723 C 80.3004 5.87879 0.644411 0
M  V30 724 H 79.2304 0.715918 0.236596 0
M  V30 725 H 81.8814 1.83115 -0.118861 0
M  V30 726 H 80.2634 3.44405 1.9545 0
M  V30 727 H 81.4374 4.55775 -0.678675 0
M  V30 728 H 79.7524 4.13892 -0.45637 0
M  V30 729 H 82.3494 4.85984 2.22988 0
M  V30 730 H 82.6924 3.20225 2.6601 0
M  V30 731 H 83.2254 3.82833 1.0809 0
M  V30 732 H 79.9644 6.55282 -0.169229 0
M  V30 733 H 79.4844 5.83567 1.38598 0
M  V30 734 H 81.1634 6.37098 1.12763 0
M  V30 735 N 81.2955 -0.223234 1.56011 0
M  V30 736 C 82.7115 -0.572856 1.48965 0
M  V30 737 C 82.9115 -1.87225 0.74492 0
M  V30 738 O 81.9675 -2.50899 0.283896 0
M  V30 739 C 83.2805 -0.653646 2.9351 0
M  V30 740 C 84.8285 -0.744386 3.0402 0
M  V30 741 C 85.3035 -0.856535 4.49919 0
M  V30 742 N 86.7945 -0.9208 4.53955 0
M  V30 743 C 87.5295 -1.02726 5.64123 0
M  V30 744 N 87.0255 -1.09777 6.84047 0
M  V30 745 N 88.8185 -1.06226 5.51971 0
M  V30 746 H 80.9695 0.629462 2.02858 0
M  V30 747 H 83.2325 0.220621 0.921971 0
M  V30 748 H 82.9385 0.231518 3.50937 0
M  V30 749 H 82.8125 -1.51781 3.45315 0
M  V30 750 H 85.1995 -1.61999 2.46658 0
M  V30 751 H 85.2805 0.14541 2.55386 0
M  V30 752 H 84.9245 0.0146069 5.07898 0
M  V30 753 H 84.8545 -1.76172 4.96257 0
M  V30 754 H 87.3455 -0.876694 3.6759 0
M  V30 755 H 87.6585 -1.17872 7.63758 0
M  V30 756 H 86.0035 -1.06693 6.86762 0
M  V30 757 H 89.1945 -1.00382 4.5721 0
M  V30 758 H 89.3675 -1.14177 6.37862 0
M  V30 759 N 82.7736 -1.49793 -0.48987 0
M  V30 760 C 84.0196 -1.60078 -1.24511 0
M  V30 761 C 84.3526 -0.291608 -1.91998 0
M  V30 762 O 83.6276 0.705647 -1.81248 0
M  V30 763 C 83.9106 -2.76791 -2.30345 0
M  V30 764 C 83.7636 -4.17535 -1.67286 0
M  V30 765 C 85.0826 -2.89111 -3.31817 0
M  V30 766 H 82.2016 -0.582645 -0.451324 0
M  V30 767 H 84.8436 -1.82117 -0.541612 0
M  V30 768 H 82.9936 -2.5813 -2.90346 0
M  V30 769 H 84.6656 -4.4774 -1.11026 0
M  V30 770 H 82.9086 -4.22665 -0.976577 0
M  V30 771 H 83.5796 -4.95094 -2.44103 0
M  V30 772 H 86.0556 -3.06133 -2.81819 0
M  V30 773 H 84.9316 -3.72433 -4.03219 0
M  V30 774 H 85.1926 -1.9893 -3.94815 0
M  V30 775 N 84.2517 0.741722 -1.39055 0
M  V30 776 C 85.1817 1.869 -1.39966 0
M  V30 777 C 86.1627 1.6804 -0.26392 0
M  V30 778 O 87.3477 1.88458 -0.468755 0
M  V30 779 C 84.4777 3.24572 -1.23574 0
M  V30 780 C 83.4317 3.58056 -2.34477 0
M  V30 781 C 82.7577 4.94593 -2.0318 0
M  V30 782 C 84.0577 3.61716 -3.76774 0
M  V30 783 H 85.7517 1.86395 -2.34302 0
M  V30 784 H 83.2977 0.895361 -1.1278 0
M  V30 785 H 85.2507 4.031 -1.22834 0
M  V30 786 H 83.9747 3.25587 -0.257045 0
M  V30 787 H 82.6337 2.81854 -2.34423 0
M  V30 788 H 82.2817 4.92181 -1.03765 0
M  V30 789 H 81.9817 5.17964 -2.77465 0
M  V30 790 H 83.5057 5.75486 -2.04079 0
M  V30 791 H 84.9197 4.30335 -3.78794 0
M  V30 792 H 83.3167 3.96603 -4.50362 0
M  V30 793 H 84.3867 2.61672 -4.08235 0
M  V30 794 N 85.7298 1.2412 0.971189 0
M  V30 795 C 86.9778 1.07668 1.71032 0
M  V30 796 C 87.2988 -0.385797 1.91146 0
M  V30 797 O 86.5688 -1.27569 1.4867 0
M  V30 798 H 85.1488 0.395429 0.633755 0
M  V30 799 H 87.8108 1.55984 1.16855 0
M  V30 800 H 86.9068 1.57195 2.69622 0
M  V30 801 N 87.2079 -1.17134 1.05439 0
M  V30 802 C 88.6239 -1.39454 0.776201 0
M  V30 803 C 88.8239 -1.91454 -0.628307 0
M  V30 804 O 87.8799 -2.10777 -1.39031 0
M  V30 805 C 89.1929 -2.38305 1.83388 0
M  V30 806 C 90.7409 -2.52006 1.85639 0
M  V30 807 C 91.2159 -3.54133 2.90437 0
M  V30 808 N 92.7069 -3.61653 2.89415 0
M  V30 809 C 93.4419 -4.4044 3.67152 0
M  V30 810 N 92.9379 -5.22721 4.54681 0
M  V30 811 N 94.7309 -4.35337 3.55581 0
M  V30 812 H 86.8819 -0.817134 1.96053 0
M  V30 813 H 89.1449 -0.421626 0.849079 0
M  V30 814 H 88.8509 -2.07173 2.84204 0
M  V30 815 H 88.7249 -3.37841 1.67761 0
M  V30 816 H 91.1119 -2.82447 0.85486 0
M  V30 817 H 91.1929 -1.52537 2.05344 0
M  V30 818 H 90.8369 -3.24431 3.90777 0
M  V30 819 H 90.7669 -4.53313 2.67983 0
M  V30 820 H 93.2579 -3.02909 2.25952 0
M  V30 821 H 93.5709 -5.80027 5.10674 0
M  V30 822 H 91.9159 -5.22093 4.58741 0
M  V30 823 H 95.1069 -3.70112 2.86592 0
M  V30 824 H 95.2799 -4.96494 4.1641 0
M  V30 825 N 88.686 -0.835752 -1.33615 0
M  V30 826 C 89.934 -0.429109 -1.97492 0
M  V30 827 C 90.255 1.01433 -1.66543 0
M  V30 828 O 89.525 1.70611 -0.962744 0
M  V30 829 H 88.105 -0.155686 -0.730596 0
M  V30 830 H 90.767 -1.06802 -1.63031 0
M  V30 831 H 89.863 -0.55861 -3.0706 0
M  V30 832 N 90.1641 1.46063 -0.591896 0
M  V30 833 C 91.1271 2.28854 0.125973 0
M  V30 834 C 92.1271 1.38903 0.810107 0
M  V30 835 O 93.3171 1.61186 0.66066 0
M  V30 836 C 90.4491 3.19526 1.1881 0
M  V30 837 H 91.6421 2.93802 -0.601717 0
M  V30 838 H 89.1951 1.52325 -0.350254 0
M  V30 839 H 89.9301 2.59345 1.94707 0
M  V30 840 H 89.7151 3.85766 0.701936 0
M  V30 841 H 91.2051 3.81817 1.69132 0
M  V30 842 N 91.6422 0.330177 1.54103 0
M  V30 843 C 92.8892 -0.270405 2.00686 0
M  V30 844 C 93.2172 -1.51621 1.21825 0
M  V30 845 O 92.4722 -1.93536 0.29025 0
M  V30 846 C 92.7712 -0.643134 3.51566 0
M  V30 847 C 92.4372 0.504251 4.48072 0
M  V30 848 C 91.0992 0.819163 4.74176 0
M  V30 849 C 93.4512 1.27465 5.05373 0
M  V30 850 C 90.7792 1.90708 5.5484 0
M  V30 851 C 93.1312 2.35271 5.87223 0
M  V30 852 C 91.7952 2.67336 6.11627 0
M  V30 853 H 91.0652 -0.0989482 0.734364 0
M  V30 854 H 93.7122 0.455324 1.86008 0
M  V30 855 H 92.0172 -1.44938 3.64006 0
M  V30 856 H 93.7142 -1.11949 3.85056 0
M  V30 857 H 90.3042 0.248733 4.27878 0
M  V30 858 H 94.4882 1.04462 4.85182 0
M  V30 859 H 89.7442 2.15991 5.71977 0
M  V30 860 H 93.9182 2.95405 6.30641 0
M  V30 861 H 91.5452 3.51763 6.73919 0
M  V30 862 N 93.1203 -1.57491 0.0584922 0
M  V30 863 C 94.3683 -1.92597 -0.612436 0
M  V30 864 C 94.6893 -0.938162 -1.70949 0
M  V30 865 O 93.9593 0.0158301 -1.95894 0
M  V30 866 H 92.5393 -0.710964 -0.229214 0
M  V30 867 H 95.2013 -1.94571 0.113218 0
M  V30 868 H 94.2973 -2.94038 -1.04633 0
M  V30 869 N 94.5984 0.214957 -1.56127 0
M  V30 870 C 95.5084 1.28727 -1.96129 0
M  V30 871 C 96.5244 1.50916 -0.866044 0
M  V30 872 O 97.7004 1.63918 -1.17016 0
M  V30 873 C 94.7654 2.61569 -2.27558 0
M  V30 874 C 93.8264 2.47625 -3.50685 0
M  V30 875 C 93.0594 3.74132 -3.80606 0
M  V30 876 O 93.2824 4.77438 -3.12104 0
M  V30 877 O 92.2164 3.70849 -4.74083 0
M  V30 878 H 96.0424 0.977855 -2.87527 0
M  V30 879 H 93.6274 0.418358 -1.43423 0
M  V30 880 H 95.5094 3.40012 -2.48938 0
M  V30 881 H 94.1844 2.92178 -1.39332 0
M  V30 882 H 93.0914 1.67361 -3.34576 0
M  V30 883 H 94.4244 2.21954 -4.39315 0
M  V30 884 N 96.0765 1.50051 0.48192 0
M  V30 885 C 97.0395 1.67584 1.5636 0
M  V30 886 C 98.0395 0.546894 1.51214 0
M  V30 887 O 99.2295 0.813725 1.54026 0
M  V30 888 C 96.3615 1.691 2.96003 0
M  V30 889 H 97.5545 2.64078 1.42136 0
M  V30 890 H 95.1075 1.39369 0.707533 0
M  V30 891 H 95.8425 0.742589 3.15684 0
M  V30 892 H 95.6275 2.51105 3.01146 0
M  V30 893 H 97.1175 1.84656 3.74556 0
M  V30 894 N 97.5546 -0.734337 1.39446 0
M  V30 895 C 98.7826 -1.52358 1.39981 0
M  V30 896 C 99.1976 -1.88799 -0.0054975 0
M  V30 897 O 98.5546 -1.54146 -0.976998 0
M  V30 898 C 98.6056 -2.81072 2.27333 0
M  V30 899 O 98.3266 -2.46178 3.62392 0
M  V30 900 C 99.8276 -3.75096 2.36259 0
M  V30 901 H 97.0476 -0.470806 0.478103 0
M  V30 902 H 99.5916 -0.907339 1.83269 0
M  V30 903 H 97.7466 -3.39026 1.87457 0
M  V30 904 H 98.1606 -3.28866 4.08592 0
M  V30 905 H 99.6346 -4.62305 3.01626 0
M  V30 906 H 100.112 -4.16892 1.38194 0
M  V30 907 H 100.718 -3.23061 2.76608 0
M  V30 908 N 99.0327 -1.24633 -0.964593 0
M  V30 909 C 99.9627 -1.06611 -2.07741 0
M  V30 910 C 100.944 0.0218666 -1.70086 0
M  V30 911 O 102.129 -0.145793 -1.93652 0
M  V30 912 C 99.2587 -0.673444 -3.40708 0
M  V30 913 C 98.2127 -1.71054 -3.92332 0
M  V30 914 C 97.5387 -1.17285 -5.21678 0
M  V30 915 C 98.8387 -3.10718 -4.19824 0
M  V30 916 H 100.533 -1.99693 -2.23076 0
M  V30 917 H 98.0787 -0.96152 -1.07195 0
M  V30 918 H 100.032 -0.534345 -4.17998 0
M  V30 919 H 98.7557 0.293073 -3.25282 0
M  V30 920 H 97.4147 -1.83791 -3.17201 0
M  V30 921 H 97.0627 -0.196847 -5.02615 0
M  V30 922 H 96.7627 -1.86592 -5.57187 0
M  V30 923 H 98.2867 -1.04593 -6.01575 0
M  V30 924 H 99.7007 -3.01192 -4.87808 0
M  V30 925 H 98.0977 -3.77406 -4.66567 0
M  V30 926 H 99.1677 -3.58524 -3.26479 0
M  V30 927 N 100.511 1.16574 -1.06058 0
M  V30 928 C 101.741 1.90675 -0.795397 0
M  V30 929 C 102.149 1.77547 0.653735 0
M  V30 930 O 101.492 1.11611 1.45907 0
M  V30 931 C 101.554 3.42011 -1.10764 0
M  V30 932 C 101.218 3.78924 -2.55471 0
M  V30 933 C 102.215 3.81042 -3.53699 0
M  V30 934 C 99.8998 4.09626 -2.90708 0
M  V30 935 C 101.894 4.13346 -4.85205 0
M  V30 936 C 99.5808 4.41597 -4.22416 0
M  V30 937 C 100.579 4.43436 -5.19474 0
M  V30 938 O 100.267 4.74649 -6.48817 0
M  V30 939 H 99.9988 0.611554 -0.288058 0
M  V30 940 H 102.553 1.48711 -1.41683 0
M  V30 941 H 100.783 3.84312 -0.429128 0
M  V30 942 H 102.472 3.97384 -0.827077 0
M  V30 943 H 103.238 3.57437 -3.27817 0
M  V30 944 H 99.1168 4.07361 -2.15819 0
M  V30 945 H 102.661 4.14696 -5.60957 0
M  V30 946 H 98.5578 4.64667 -4.48056 0
M  V30 947 H 99.3258 4.9247 -6.5377 0
M  V30 948 N 101.989 0.842826 1.3317 0
M  V30 949 C 103.405 0.531128 1.50503 0
M  V30 950 C 103.605 -0.940734 1.78192 0
M  V30 951 O 102.661 -1.72436 1.84451 0
M  V30 952 C 103.974 1.40789 2.65705 0
M  V30 953 C 105.522 1.40708 2.79589 0
M  V30 954 C 105.997 2.26878 3.97857 0
M  V30 955 N 107.488 2.24609 4.05099 0
M  V30 956 C 108.223 2.88019 4.95815 0
M  V30 957 N 107.719 3.60496 5.9162 0
M  V30 958 N 109.512 2.77469 4.88843 0
M  V30 959 H 101.663 1.79557 1.1346 0
M  V30 960 H 103.926 0.766267 0.558156 0
M  V30 961 H 103.632 2.454 2.51936 0
M  V30 962 H 103.506 1.08677 3.61205 0
M  V30 963 H 105.893 0.368668 2.92788 0
M  V30 964 H 105.974 1.76829 1.84838 0
M  V30 965 H 105.618 3.3078 3.85418 0
M  V30 966 H 105.548 1.88096 4.91861 0
M  V30 967 H 108.039 1.71906 3.36536 0
M  V30 968 H 108.352 4.06076 6.57512 0
M  V30 969 H 106.697 3.64604 5.91683 0
M  V30 970 H 109.888 2.20406 4.12963 0
M  V30 971 H 110.061 3.2717 5.59342 0
M  V30 972 N 103.467 -1.45747 0.599634 0
M  V30 973 C 104.883 -1.57424 0.26264 0
M  V30 974 C 105.083 -1.59222 -1.23493 0
M  V30 975 O 104.139 -1.51825 -2.01756 0
M  V30 976 C 105.452 -2.86061 0.926795 0
M  V30 977 C 107 -2.99722 0.901967 0
M  V30 978 C 107.475 -4.31119 1.54598 0
M  V30 979 N 108.966 -4.37858 1.5111 0
M  V30 980 C 109.701 -5.3818 1.97863 0
M  V30 981 N 109.197 -6.45083 2.52666 0
M  V30 982 N 110.99 -5.29487 1.88679 0
M  V30 983 H 103.141 -1.42823 1.57211 0
M  V30 984 H 105.404 -0.68235 0.658105 0
M  V30 985 H 105.11 -2.90605 1.98095 0
M  V30 986 H 104.984 -3.74563 0.445238 0
M  V30 987 H 107.371 -2.9475 -0.143617 0
M  V30 988 H 107.452 -2.12652 1.42171 0
M  V30 989 H 107.096 -4.36849 2.59085 0
M  V30 990 H 107.026 -5.16992 1.00132 0
M  V30 991 H 109.517 -3.61209 1.11068 0
M  V30 992 H 109.83 -7.17869 2.86155 0
M  V30 993 H 108.175 -6.45856 2.56701 0
M  V30 994 H 111.366 -4.44877 1.4561 0
M  V30 995 H 111.539 -6.07524 2.25429 0
M  V30 996 N 104.945 -0.338344 -1.53925 0
M  V30 997 C 106.173 0.261298 -2.05243 0
M  V30 998 C 106.588 1.44625 -1.21363 0
M  V30 999 O 105.945 1.80811 -0.247736 0
M  V30 1000 C 105.996 0.681412 -3.5502 0
M  V30 1001 O 105.717 -0.456414 -4.35716 0
M  V30 1002 C 107.218 1.34232 -4.22489 0
M  V30 1003 H 104.438 0.0513685 -0.669031 0
M  V30 1004 H 106.982 -0.488822 -1.98572 0
M  V30 1005 H 105.137 1.38148 -3.61931 0
M  V30 1006 H 105.551 -0.122564 -5.24357 0
M  V30 1007 H 107.025 1.58708 -5.28693 0
M  V30 1008 H 107.502 2.29426 -3.74514 0
M  V30 1009 H 108.108 0.684424 -4.19757 0
M  V30 1010 N 106.423 1.57458 -0.0668435 0
M  V30 1011 C 107.333 2.15937 0.916975 0
M  V30 1012 C 108.349 1.12123 1.33058 0
M  V30 1013 O 109.525 1.44366 1.40429 0
M  V30 1014 C 106.59 2.70547 2.16807 0
M  V30 1015 C 105.651 3.89215 1.81135 0
M  V30 1016 C 104.884 4.41211 3.0028 0
M  V30 1017 O 105.107 3.92225 4.14144 0
M  V30 1018 O 104.041 5.32605 2.80384 0
M  V30 1019 H 107.867 3.00354 0.449561 0
M  V30 1020 H 105.452 1.48584 0.155949 0
M  V30 1021 H 107.334 3.0557 2.90181 0
M  V30 1022 H 106.009 1.89192 2.62656 0
M  V30 1023 H 104.916 3.59054 1.05028 0
M  V30 1024 H 106.249 4.71848 1.40073 0
M  V30 1025 N 107.901 -0.206675 1.56239 0
M  V30 1026 C 109.178 -0.954051 1.70755 0
M  V30 1027 C 109.558 -2.01841 0.618353 0
M  V30 1028 O 108.906 -2.25444 -0.372434 0
M  V30 1029 C 109.116 -1.551 3.12642 0
M  V30 1030 C 110.464 -2.03757 3.72516 0
M  V30 1031 O 111.488 -1.64965 3.15698 0
M  V30 1032 O 110.347 -2.75103 4.72208 0
M  V30 1033 H 107.441 -0.446636 0.696021 0
M  V30 1034 H 109.987 -0.197283 1.68549 0
M  V30 1035 H 108.759 -0.783212 3.83382 0
M  V30 1036 H 108.382 -2.37291 3.19028 0
M  V30 1037 N 109.379 -1.50304 -0.473955 0
M  V30 1038 C 110.656 -1.51667 -1.23518 0
M  V30 1039 C 111.036 -0.259701 -2.09496 0
M  V30 1040 O 110.384 0.756986 -2.15597 0
M  V30 1041 C 110.594 -2.81082 -2.06868 0
M  V30 1042 C 111.942 -3.31631 -2.65153 0
M  V30 1043 O 112.966 -2.82384 -2.17113 0
M  V30 1044 O 111.825 -4.17471 -3.52675 0
M  V30 1045 H 108.919 -0.60822 -0.560355 0
M  V30 1046 H 111.465 -1.62592 -0.486011 0
M  V30 1047 H 110.237 -3.64041 -1.4349 0
M  V30 1048 H 109.86 -2.73146 -2.88924 0
M  V30 1049 N 110.857 0.726932 -1.39834 0
M  V30 1050 C 112.082 1.52121 -1.40976 0
M  V30 1051 C 112.507 1.88098 -0.00826029 0
M  V30 1052 O 111.865 1.52479 0.980807 0
M  V30 1053 C 111.913 2.78021 -2.29644 0
M  V30 1054 O 111.017 3.74272 -1.73188 0
M  V30 1055 H 110.358 0.45908 -0.479731 0
M  V30 1056 H 112.888 0.896207 -1.83927 0
M  V30 1057 H 112.898 3.26671 -2.44438 0
M  V30 1058 H 111.573 2.51169 -3.31492 0
M  V30 1059 H 110.15 3.33073 -1.6768 0
M  V30 1060 N 112.336 1.25143 0.95797 0
M  V30 1061 C 113.266 1.07711 2.07173 0
M  V30 1062 C 114.247 -0.0128462 1.70095 0
M  V30 1063 O 115.432 0.156061 1.93572 0
M  V30 1064 C 112.562 0.691503 3.40346 0
M  V30 1065 C 111.516 1.73132 3.9142 0
M  V30 1066 C 110.842 1.20049 5.21049 0
M  V30 1067 C 112.142 3.1294 4.1817 0
M  V30 1068 H 113.836 2.00873 2.22014 0
M  V30 1069 H 111.382 0.967191 1.06684 0
M  V30 1070 H 113.335 0.556505 4.17709 0
M  V30 1071 H 112.059 -0.275819 3.25433 0
M  V30 1072 H 110.718 1.8547 3.16222 0
M  V30 1073 H 110.366 0.223499 5.02503 0
M  V30 1074 H 110.066 1.89545 5.56189 0
M  V30 1075 H 111.59 1.07782 6.01012 0
M  V30 1076 H 113.004 3.03775 4.86203 0
M  V30 1077 H 111.401 3.79875 4.64559 0
M  V30 1078 H 112.471 3.6025 3.24573 0
M  V30 1079 N 113.814 -1.1601 1.06675 0
M  V30 1080 C 115.06 -1.86909 0.786945 0
M  V30 1081 C 115.393 -1.81717 -0.685018 0
M  V30 1082 O 114.668 -1.23551 -1.50218 0
M  V30 1083 C 114.951 -3.36313 1.28707 0
M  V30 1084 C 114.804 -3.50175 2.82308 0
M  V30 1085 C 116.123 -4.3084 0.898071 0
M  V30 1086 H 113.242 -0.678677 0.287343 0
M  V30 1087 H 115.884 -1.36336 1.32334 0
M  V30 1088 H 114.034 -3.79513 0.830768 0
M  V30 1089 H 115.706 -3.15886 3.36175 0
M  V30 1090 H 113.949 -2.91959 3.20847 0
M  V30 1091 H 114.62 -4.55116 3.12368 0
M  V30 1092 H 117.096 -3.95561 1.29114 0
M  V30 1093 H 115.972 -5.33876 1.27543 0
M  V30 1094 H 116.233 -4.41662 -0.196651 0
M  V30 1095 N 115.292 -0.849877 -1.32721 0
M  V30 1096 C 116.538 -0.451591 -1.97708 0
M  V30 1097 C 116.871 0.989175 -1.6712 0
M  V30 1098 O 116.146 1.69334 -0.956891 0
M  V30 1099 C 116.429 -0.685598 -3.53513 0
M  V30 1100 C 116.282 -2.17444 -3.93749 0
M  V30 1101 C 117.601 -0.138874 -4.39881 0
M  V30 1102 H 114.72 -0.16555 -0.718166 0
M  V30 1103 H 117.362 -1.06742 -1.57182 0
M  V30 1104 H 115.512 -0.161416 -3.88165 0
M  V30 1105 H 117.184 -2.76433 -3.693 0
M  V30 1106 H 115.427 -2.65476 -3.43081 0
M  V30 1107 H 116.098 -2.28888 -5.02309 0
M  V30 1108 H 118.574 -0.587068 -4.11938 0
M  V30 1109 H 117.45 -0.332213 -5.47894 0
M  V30 1110 H 117.711 0.95806 -4.31594 0
M  V30 1111 N 116.77 1.45427 -0.607355 0
M  V30 1112 C 118.016 2.03097 -0.111035 0
M  V30 1113 C 118.371 1.46735 1.24445 0
M  V30 1114 O 117.664 0.632478 1.8086 0
M  V30 1115 C 117.858 3.57398 -0.0129263 0
M  V30 1116 C 117.687 4.28726 -1.35735 0
M  V30 1117 C 116.457 4.66659 -1.93798 0
M  V30 1118 C 118.655 4.60699 -2.28607 0
M  V30 1119 N 116.637 5.22845 -3.21723 0
M  V30 1120 C 118.008 5.17716 -3.41131 0
M  V30 1121 C 120.063 4.42638 -2.27982 0
M  V30 1122 C 118.766 5.58576 -4.53194 0
M  V30 1123 C 120.792 4.84531 -3.39093 0
M  V30 1124 C 120.154 5.4164 -4.50339 0
M  V30 1125 H 116.253 0.777476 -0.083994 0
M  V30 1126 H 118.837 1.77249 -0.805655 0
M  V30 1127 H 117.008 3.82907 0.650914 0
M  V30 1128 H 118.74 4.01722 0.490033 0
M  V30 1129 H 115.495 4.50207 -1.47007 0
M  V30 1130 H 115.919 5.55438 -3.87063 0
M  V30 1131 H 120.561 3.97798 -1.43235 0
M  V30 1132 H 118.279 6.02382 -5.38667 0
M  V30 1133 H 121.865 4.72289 -3.39757 0
M  V30 1134 H 120.745 5.73461 -5.34895 0
M  V30 1135 N 118.248 0.346503 1.53744 0
M  V30 1136 C 119.195 -0.508914 2.25119 0
M  V30 1137 C 120.165 -1.09315 1.25058 0
M  V30 1138 O 121.35 -1.12921 1.53797 0
M  V30 1139 C 118.49 -1.65246 3.02965 0
M  V30 1140 C 117.603 -1.09525 4.17886 0
M  V30 1141 C 116.738 -2.20634 4.83212 0
M  V30 1142 C 115.777 -1.62279 5.90196 0
M  V30 1143 N 114.914 -2.67143 6.49291 0
M  V30 1144 H 119.754 0.106283 2.9781 0
M  V30 1145 H 117.291 0.0642227 1.4696 0
M  V30 1146 H 119.249 -2.32574 3.4636 0
M  V30 1147 H 117.879 -2.2386 2.32565 0
M  V30 1148 H 116.931 -0.312818 3.79112 0
M  V30 1149 H 118.243 -0.628444 4.94825 0
M  V30 1150 H 117.397 -2.95821 5.29693 0
M  V30 1151 H 116.136 -2.70659 4.05703 0
M  V30 1152 H 115.141 -0.855989 5.43096 0
M  V30 1153 H 116.366 -1.13102 6.69615 0
M  V30 1154 H 114.312 -3.16417 5.74645 0
M  V30 1155 H 114.229 -2.25093 7.21713 0
M  V30 1156 H 115.497 -3.4209 7.00425 0
M  V30 1157 N 119.726 -1.57421 0.075193 0
M  V30 1158 C 120.636 -2.1642 -0.905511 0
M  V30 1159 C 121.652 -1.12828 -1.32461 0
M  V30 1160 O 122.828 -1.45109 -1.39661 0
M  V30 1161 C 119.893 -2.71693 -2.15369 0
M  V30 1162 C 118.954 -3.90171 -1.79068 0
M  V30 1163 C 118.187 -4.42798 -2.97936 0
M  V30 1164 O 118.41 -3.94416 -4.12058 0
M  V30 1165 O 117.344 -5.34085 -2.77555 0
M  V30 1166 H 121.17 -3.00588 -0.433626 0
M  V30 1167 H 118.755 -1.48664 -0.148067 0
M  V30 1168 H 120.637 -3.07104 -2.88557 0
M  V30 1169 H 119.312 -1.90582 -2.61649 0
M  V30 1170 H 118.219 -3.59606 -1.03122 0
M  V30 1171 H 119.552 -4.72584 -1.37569 0
M  V30 1172 N 121.204 0.198386 -1.56346 0
M  V30 1173 C 122.45 0.920648 -1.80698 0
M  V30 1174 C 122.783 1.83045 -0.648697 0
M  V30 1175 O 122.058 1.91308 0.350925 0
M  V30 1176 C 122.341 1.73971 -3.15287 0
M  V30 1177 C 122.194 0.85485 -4.41602 0
M  V30 1178 C 123.513 2.71296 -3.46535 0
M  V30 1179 H 120.632 0.333261 -0.657348 0
M  V30 1180 H 123.274 0.188198 -1.89066 0
M  V30 1181 H 121.424 2.36416 -3.08285 0
M  V30 1182 H 123.096 0.245362 -4.60647 0
M  V30 1183 H 121.339 0.161398 -4.335 0
M  V30 1184 H 122.01 1.46286 -5.32264 0
M  V30 1185 H 124.486 2.18983 -3.53816 0
M  V30 1186 H 123.362 3.2569 -4.41834 0
M  V30 1187 H 123.623 3.5018 -2.69864 0
M  V30 1188 N 122.682 1.50554 0.465978 0
M  V30 1189 C 123.959 1.5232 1.22712 0
M  V30 1190 C 124.339 0.270807 2.09356 0
M  V30 1191 O 123.687 -0.745541 2.15995 0
M  V30 1192 C 123.897 2.82175 2.05374 0
M  V30 1193 C 125.245 3.33033 2.6339 0
M  V30 1194 O 126.269 2.83531 2.15612 0
M  V30 1195 O 125.128 4.19336 3.50456 0
M  V30 1196 H 122.222 0.611183 0.557122 0
M  V30 1197 H 124.768 1.62847 0.477381 0
M  V30 1198 H 123.54 3.64797 1.41558 0
M  V30 1199 H 123.163 2.74675 2.87471 0
M  V30 1200 N 124.16 -0.719506 1.40217 0
M  V30 1201 C 125.09 -1.8465 1.42922 0
M  V30 1202 C 126.071 -1.67599 0.29062 0
M  V30 1203 O 127.256 -1.87688 0.498677 0
M  V30 1204 C 124.386 -3.22565 1.28722 0
M  V30 1205 C 123.34 -3.54281 2.40144 0
M  V30 1206 C 122.666 -4.91298 2.11023 0
M  V30 1207 C 123.966 -3.55676 3.82481 0
M  V30 1208 H 125.66 -1.82644 2.37237 0
M  V30 1209 H 123.206 -0.877305 1.1419 0
M  V30 1210 H 125.159 -4.01095 1.29232 0
M  V30 1211 H 123.883 -3.25137 0.308811 0
M  V30 1212 H 122.542 -2.78088 2.38877 0
M  V30 1213 H 122.19 -4.90468 1.11582 0
M  V30 1214 H 121.89 -5.13485 2.8567 0
M  V30 1215 H 123.414 -5.72166 2.13209 0
M  V30 1216 H 124.828 -4.24254 3.85592 0
M  V30 1217 H 123.225 -3.89388 4.56614 0
M  V30 1218 H 124.295 -2.55144 4.12346 0
M  V30 1219 N 125.638 -1.25649 -0.95132 0
M  V30 1220 C 126.866 -1.13343 -1.73092 0
M  V30 1221 C 127.281 0.312434 -1.86197 0
M  V30 1222 O 126.638 1.21465 -1.36207 0
M  V30 1223 C 126.689 -1.78602 -3.14299 0
M  V30 1224 O 126.41 -3.17537 -3.01831 0
M  V30 1225 C 127.911 -1.72119 -4.08522 0
M  V30 1226 H 125.131 -0.395181 -0.542285 0
M  V30 1227 H 127.675 -1.66076 -1.19328 0
M  V30 1228 H 125.83 -1.29832 -3.64996 0
M  V30 1229 H 126.244 -3.49676 -3.90931 0
M  V30 1230 H 127.718 -2.22435 -5.052 0
M  V30 1231 H 128.195 -0.685635 -4.33815 0
M  V30 1232 H 128.801 -2.20393 -3.63741 0
M  V30 1233 N 127.117 1.15442 -1.07289 0
M  V30 1234 C 128.533 1.38201 -0.798288 0
M  V30 1235 C 128.733 1.92429 0.597769 0
M  V30 1236 O 127.789 2.12962 1.3566 0
M  V30 1237 C 129.102 2.35357 -1.87156 0
M  V30 1238 C 130.65 2.49021 -1.89624 0
M  V30 1239 C 131.125 3.49468 -2.96034 0
M  V30 1240 N 132.616 3.57003 -2.95132 0
M  V30 1241 C 133.351 4.34543 -3.74112 0
M  V30 1242 N 132.847 5.15421 -4.6294 0
M  V30 1243 N 134.64 4.29625 -3.62462 0
M  V30 1244 H 126.791 0.78584 -1.97328 0
M  V30 1245 H 129.054 0.408065 -0.855679 0
M  V30 1246 H 128.76 2.02626 -2.87464 0
M  V30 1247 H 128.634 3.35129 -1.73114 0
M  V30 1248 H 131.021 2.81051 -0.899687 0
M  V30 1249 H 131.102 1.4925 -2.07745 0
M  V30 1250 H 130.746 3.18173 -3.95889 0
M  V30 1251 H 130.676 4.48992 -2.75161 0
M  V30 1252 H 133.167 2.99276 -2.30743 0
M  V30 1253 H 133.48 5.7183 -5.19837 0
M  V30 1254 H 131.825 5.14729 -4.66989 0
M  V30 1255 H 135.016 3.65505 -2.92444 0
M  V30 1256 H 135.189 4.89807 -4.24256 0
M  V30 1257 N 128.595 0.856903 1.32268 0
M  V30 1258 C 129.525 0.31858 2.31316 0
M  V30 1259 C 130.506 -0.583487 1.59779 0
M  V30 1260 O 131.691 -0.503259 1.87566 0
M  V30 1261 C 128.821 -0.491979 3.43798 0
M  V30 1262 C 127.775 0.315849 4.26833 0
M  V30 1263 C 127.101 -0.619586 5.31098 0
M  V30 1264 C 128.401 1.54282 4.98993 0
M  V30 1265 H 130.095 1.14621 2.76591 0
M  V30 1266 H 127.641 0.552613 1.32974 0
M  V30 1267 H 129.594 -0.879012 4.1213 0
M  V30 1268 H 128.318 -1.35299 2.97257 0
M  V30 1269 H 126.977 0.684664 3.6015 0
M  V30 1270 H 126.625 -1.47751 4.8081 0
M  V30 1271 H 126.325 -0.0830621 5.87541 0
M  V30 1272 H 127.849 -1.00375 6.02293 0
M  V30 1273 H 129.263 1.22796 5.59995 0
M  V30 1274 H 127.66 2.01745 5.65172 0
M  V30 1275 H 128.73 2.30285 4.26728 0
M  V30 1276 N 130.073 -1.45103 0.615059 0
M  V30 1277 C 131.298 -2.07064 0.117988 0
M  V30 1278 C 131.723 -1.4554 -1.19163 0
M  V30 1279 O 131.081 -0.550855 -1.72729 0
M  V30 1280 C 131.129 -3.606 -0.000288387 0
M  V30 1281 O 130.233 -3.98847 -1.04856 0
M  V30 1282 H 129.574 -0.659467 0.0774581 0
M  V30 1283 H 132.104 -1.86236 0.847186 0
M  V30 1284 H 132.114 -4.07529 -0.196091 0
M  V30 1285 H 130.789 -4.04765 0.955932 0
M  V30 1286 H 129.366 -3.63577 -0.828619 0
M  V30 1287 N 131.551 -0.354651 -1.53558 0
M  V30 1288 C 132.461 0.50515 -2.29097 0
M  V30 1289 C 133.477 1.10223 -1.34636 0
M  V30 1290 O 134.653 1.11553 -1.67684 0
M  V30 1291 C 131.718 1.63479 -3.05738 0
M  V30 1292 C 130.779 1.06636 -4.15845 0
M  V30 1293 C 130.012 2.14217 -4.88822 0
M  V30 1294 O 130.235 3.35137 -4.61562 0
M  V30 1295 O 129.169 1.77887 -5.75013 0
M  V30 1296 H 132.995 -0.109237 -3.03503 0
M  V30 1297 H 130.58 -0.119357 -1.48922 0
M  V30 1298 H 132.462 2.2918 -3.5363 0
M  V30 1299 H 131.137 2.23478 -2.34178 0
M  V30 1300 H 130.044 0.373565 -3.7223 0
M  V30 1301 H 131.377 0.511081 -4.89539 0
M  V30 1302 N 133.029 1.57378 -0.0835403 0
M  V30 1303 C 133.976 2.13384 0.879539 0
M  V30 1304 C 134.946 1.04936 1.28754 0
M  V30 1305 O 136.131 1.32662 1.37133 0
M  V30 1306 C 133.271 2.70932 2.13752 0
M  V30 1307 C 132.384 3.93575 1.7811 0
M  V30 1308 C 131.519 4.39326 2.98607 0
M  V30 1309 C 130.558 5.54587 2.59037 0
M  V30 1310 N 129.695 5.95243 3.72331 0
M  V30 1311 H 134.535 2.9537 0.395076 0
M  V30 1312 H 132.072 1.45953 0.183349 0
M  V30 1313 H 134.03 3.02411 2.87408 0
M  V30 1314 H 132.66 1.91693 2.59718 0
M  V30 1315 H 131.712 3.68483 0.94469 0
M  V30 1316 H 133.024 4.77258 1.45005 0
M  V30 1317 H 132.178 4.72528 3.80529 0
M  V30 1318 H 130.917 3.5452 3.34913 0
M  V30 1319 H 129.922 5.21024 1.75539 0
M  V30 1320 H 131.147 6.41133 2.23887 0
M  V30 1321 H 129.093 5.13385 4.08378 0
M  V30 1322 H 129.01 6.73694 3.43034 0
M  V30 1323 H 130.278 6.33072 4.54797 0
M  V30 1324 N 134.507 -0.190092 1.56449 0
M  V30 1325 C 135.417 -1.25591 1.98152 0
M  V30 1326 C 136.433 -1.49519 0.889944 0
M  V30 1327 O 137.609 -1.62036 1.19609 0
M  V30 1328 C 134.674 -2.57916 2.3169 0
M  V30 1329 C 133.735 -2.42015 3.5458 0
M  V30 1330 C 132.968 -3.6803 3.8651 0
M  V30 1331 O 133.191 -4.72413 3.1966 0
M  V30 1332 O 132.125 -3.6326 4.79923 0
M  V30 1333 H 135.951 -0.931988 2.89046 0
M  V30 1334 H 133.536 -0.395488 1.4407 0
M  V30 1335 H 135.418 -3.36008 2.54316 0
M  V30 1336 H 134.093 -2.89925 1.43963 0
M  V30 1337 H 133 -1.62017 3.37196 0
M  V30 1338 H 134.333 -2.14937 4.4279 0
M  V30 1339 N 135.985 -1.50799 -0.457987 0
M  V30 1340 C 137.401 -1.38515 -0.792819 0
M  V30 1341 C 137.601 -0.451409 -1.96379 0
M  V30 1342 O 136.657 0.10112 -2.52297 0
M  V30 1343 C 137.97 -2.80149 -1.09258 0
M  V30 1344 C 139.518 -2.89156 -1.19825 0
M  V30 1345 C 139.993 -4.31651 -1.53106 0
M  V30 1346 N 141.484 -4.34662 -1.60072 0
M  V30 1347 C 142.219 -5.41928 -1.87354 0
M  V30 1348 N 141.715 -6.59384 -2.12568 0
M  V30 1349 N 143.508 -5.29385 -1.88965 0
M  V30 1350 H 135.659 -2.10073 0.313511 0
M  V30 1351 H 137.922 -0.944803 0.0777862 0
M  V30 1352 H 137.628 -3.50374 -0.305084 0
M  V30 1353 H 137.502 -3.18204 -2.02549 0
M  V30 1354 H 139.889 -2.19141 -1.97639 0
M  V30 1355 H 139.97 -2.54626 -0.244821 0
M  V30 1356 H 139.614 -5.02208 -0.758266 0
M  V30 1357 H 139.544 -4.63678 -2.49621 0
M  V30 1358 H 142.035 -3.49973 -1.42573 0
M  V30 1359 H 142.348 -7.36934 -2.32696 0
M  V30 1360 H 140.693 -6.62535 -2.09933 0
M  V30 1361 H 143.884 -4.36616 -1.68772 0
M  V30 1362 H 144.057 -6.13066 -2.09891 0
M  V30 1363 N 137.463 0.71206 -1.40597 0
M  V30 1364 C 138.879 1.02058 -1.22704 0
M  V30 1365 C 139.079 2.01228 -0.104729 0
M  V30 1366 O 138.135 2.4674 0.53624 0
M  V30 1367 C 139.448 1.56094 -2.57012 0
M  V30 1368 C 140.996 1.6806 -2.64054 0
M  V30 1369 C 141.471 2.25501 -3.9864 0
M  V30 1370 N 142.962 2.32882 -4.004 0
M  V30 1371 C 143.697 2.78317 -5.01325 0
M  V30 1372 N 143.193 3.23478 -6.12645 0
M  V30 1373 N 144.986 2.77733 -4.88693 0
M  V30 1374 H 137.137 0.0547896 -2.12329 0
M  V30 1375 H 139.4 0.0869027 -0.944008 0
M  V30 1376 H 139.106 0.906865 -3.39807 0
M  V30 1377 H 138.98 2.54564 -2.78347 0
M  V30 1378 H 141.367 2.32583 -1.81629 0
M  V30 1379 H 141.448 0.681802 -2.46546 0
M  V30 1380 H 141.092 1.61598 -4.81506 0
M  V30 1381 H 141.022 3.26102 -4.13479 0
M  V30 1382 H 143.513 2.00991 -3.20017 0
M  V30 1383 H 143.826 3.56725 -6.85542 0
M  V30 1384 H 142.171 3.21429 -6.16205 0
M  V30 1385 H 145.362 2.4179 -4.00818 0
M  V30 1386 H 145.535 3.12826 -5.67489 0
M  V30 1387 N 138.941 1.26152 0.944643 0
M  V30 1388 C 140.218 1.02247 1.66748 0
M  V30 1389 C 140.598 -0.448202 2.06287 0
M  V30 1390 O 139.946 -1.42779 1.78399 0
M  V30 1391 C 140.156 1.96788 2.88228 0
M  V30 1392 C 141.504 2.25201 3.59958 0
M  V30 1393 O 142.528 1.94626 2.98327 0
M  V30 1394 O 141.387 2.77242 4.70956 0
M  V30 1395 H 138.481 0.388517 0.730057 0
M  V30 1396 H 141.027 1.37348 0.99668 0
M  V30 1397 H 139.799 2.96047 2.55875 0
M  V30 1398 H 139.422 1.62145 3.63035 0
M  V30 1399 N 140.419 -1.14872 1.07899 0
M  V30 1400 C 141.382 -2.17986 0.708161 0
M  V30 1401 C 142.382 -1.58775 -0.25442 0
M  V30 1402 O 143.572 -1.74166 -0.034645 0
M  V30 1403 C 140.704 -3.40871 0.0446929 0
M  V30 1404 H 141.897 -2.52306 1.62116 0
M  V30 1405 H 139.45 -1.2943 0.876218 0
M  V30 1406 H 140.185 -3.12124 -0.880281 0
M  V30 1407 H 139.97 -3.8511 0.737091 0
M  V30 1408 H 141.46 -4.17121 -0.19991 0
M  V30 1409 N 141.898 -0.863906 -1.31812 0
M  V30 1410 C 142.828 -0.330843 -2.31144 0
M  V30 1411 C 143.809 0.575005 -1.60087 0
M  V30 1412 O 144.994 0.493304 -1.8783 0
M  V30 1413 C 142.124 0.47374 -3.44054 0
M  V30 1414 C 141.078 -0.338481 -4.26659 0
M  V30 1415 C 140.404 0.591412 -5.31419 0
M  V30 1416 C 141.704 -1.56926 -4.98168 0
M  V30 1417 H 143.398 -1.16086 -2.75979 0
M  V30 1418 H 140.944 -0.559657 -1.32679 0
M  V30 1419 H 142.897 0.857143 -4.12591 0
M  V30 1420 H 141.621 1.33721 -2.9797 0
M  V30 1421 H 140.28 -0.703754 -3.59782 0
M  V30 1422 H 139.928 1.45199 -4.81587 0
M  V30 1423 H 139.628 0.0519022 -5.87577 0
M  V30 1424 H 141.152 0.97179 -6.02817 0
M  V30 1425 H 142.566 -1.25764 -5.59336 0
M  V30 1426 H 140.963 -2.04739 -5.64094 0
M  V30 1427 H 142.033 -2.32544 -4.25501 0
M  V30 1428 N 143.376 1.44774 -0.622745 0
M  V30 1429 C 144.324 2.32387 0.0994683 0
M  V30 1430 C 145.318 1.46859 0.844326 0
M  V30 1431 O 146.524 1.63254 0.758174 0
M  V30 1432 H 142.899 0.750273 0.0509291 0
M  V30 1433 H 144.87 2.91062 -0.65767 0
M  V30 1434 C 143.619 3.30723 1.07319 0
M  V30 1435 H 142.942 3.96541 0.509462 0
M  V30 1436 H 144.382 3.94725 1.54817 0
M  V30 1437 C 142.841 2.59021 2.15429 0
M  V30 1438 O 143.371 2.38286 3.23393 0
M  V30 1439 N 141.577 2.189 1.91131 0
M  V30 1440 H 141.124 2.35964 1.03337 0
M  V30 1441 H 141.082 1.71251 2.63668 0
M  V30 1442 N 144.854 0.36279 1.53368 0
M  V30 1443 C 145.764 -0.492994 2.29362 0
M  V30 1444 C 146.78 -1.09507 1.35219 0
M  V30 1445 O 147.956 -1.10662 1.68273 0
M  V30 1446 C 145.021 -1.61855 3.066 0
M  V30 1447 C 144.082 -1.04429 4.16405 0
M  V30 1448 C 143.315 -2.11621 4.89951 0
M  V30 1449 O 143.538 -3.32684 4.63333 0
M  V30 1450 O 142.472 -1.74835 5.75948 0
M  V30 1451 H 146.298 0.125331 3.03441 0
M  V30 1452 H 143.883 0.127253 1.48857 0
M  V30 1453 H 145.765 -2.27302 3.54841 0
M  V30 1454 H 144.44 -2.22233 2.3536 0
M  V30 1455 H 143.347 -0.353819 3.72423 0
M  V30 1456 H 144.68 -0.485113 4.89804 0
M  V30 1457 N 146.332 -1.57332 0.0918853 0
M  V30 1458 C 147.581 -1.93412 -0.572249 0
M  V30 1459 C 147.894 -0.975515 -1.69538 0
M  V30 1460 O 149.1 -1.22991 -2.42045 0
M  V30 1461 C 147.556 -3.43648 -1.0693 0
M  V30 1462 C 147.164 -4.47994 0.0239049 0
M  V30 1463 C 148.908 -3.88695 -1.70635 0
M  V30 1464 C 146.815 -5.89381 -0.488319 0
M  V30 1465 H 145.745 -0.721939 -0.217532 0
M  V30 1466 H 148.396 -1.82735 0.167369 0
M  V30 1467 H 146.778 -3.49466 -1.8625 0
M  V30 1468 H 147.952 -4.53815 0.799277 0
M  V30 1469 H 146.267 -4.12536 0.565946 0
M  V30 1470 H 148.864 -4.91725 -2.10025 0
M  V30 1471 H 149.207 -3.27166 -2.57426 0
M  V30 1472 H 149.74 -3.85564 -0.979023 0
M  V30 1473 H 146.479 -6.54602 0.342906 0
M  V30 1474 H 145.999 -5.87037 -1.23077 0
M  V30 1475 H 147.678 -6.39863 -0.958317 0
M  V30 1476 N 147.81 0.181792 -1.56548 0
M  V30 1477 C 149.056 0.901431 -1.81665 0
M  V30 1478 C 149.389 1.82347 -0.668075 0
M  V30 1479 O 148.664 1.91669 0.330615 0
M  V30 1480 C 148.947 1.70618 -3.17115 0
M  V30 1481 C 148.8 0.807964 -4.42484 0
M  V30 1482 C 150.119 2.67605 -3.49393 0
M  V30 1483 H 147.238 0.32627 -0.660846 0
M  V30 1484 H 149.88 0.168134 -1.89255 0
M  V30 1485 H 148.03 2.33133 -3.10775 0
M  V30 1486 H 149.702 0.19649 -4.60881 0
M  V30 1487 H 147.945 0.115411 -4.33646 0
M  V30 1488 H 148.616 1.40632 -5.33785 0
M  V30 1489 H 151.092 2.15218 -3.56118 0
M  V30 1490 H 149.968 3.20985 -4.45264 0
M  V30 1491 H 150.229 3.47298 -2.73563 0
M  V30 1492 N 149.288 1.51039 0.449983 0
M  V30 1493 C 150.537 1.62317 1.19733 0
M  V30 1494 C 150.85 0.339101 1.92638 0
M  V30 1495 O 152.056 0.331069 2.69474 0
M  V30 1496 C 150.512 2.86608 2.17678 0
M  V30 1497 C 150.12 4.21972 1.50479 0
M  V30 1498 C 151.864 3.07239 2.92924 0
M  V30 1499 C 149.771 5.37426 2.46834 0
M  V30 1500 H 148.701 0.604532 0.450619 0
M  V30 1501 H 151.352 1.77494 0.465625 0
M  V30 1502 H 149.734 2.65037 2.94231 0
M  V30 1503 H 150.908 4.53878 0.795716 0
M  V30 1504 H 149.223 4.07117 0.874344 0
M  V30 1505 H 151.82 3.90668 3.65079 0
M  V30 1506 H 152.163 2.19807 3.5354 0
M  V30 1507 H 152.696 3.29091 2.23481 0
M  V30 1508 H 149.435 6.27079 1.90926 0
M  V30 1509 H 148.955 5.09912 3.15832 0
M  V30 1510 H 150.634 5.68862 3.08228 0
M  V30 1511 N 150.766 -0.704594 1.40972 0
M  V30 1512 C 151.696 -1.83124 1.44872 0
M  V30 1513 C 152.677 -1.67281 0.30838 0
M  V30 1514 O 153.862 -1.87149 0.518556 0
M  V30 1515 C 150.992 -3.21181 1.32136 0
M  V30 1516 C 149.946 -3.51714 2.43888 0
M  V30 1517 C 149.272 -4.89032 2.16222 0
M  V30 1518 C 150.572 -3.516 3.86232 0
M  V30 1519 H 152.266 -1.80117 2.39161 0
M  V30 1520 H 149.812 -0.865145 1.15114 0
M  V30 1521 H 151.765 -3.99702 1.33479 0
M  V30 1522 H 150.489 -3.24791 0.343279 0
M  V30 1523 H 149.148 -2.75539 2.41813 0
M  V30 1524 H 148.796 -4.89256 1.16778 0
M  V30 1525 H 148.496 -5.10426 2.911 0
M  V30 1526 H 150.02 -5.69873 2.19265 0
M  V30 1527 H 151.434 -4.2014 3.9007 0
M  V30 1528 H 149.831 -3.84523 4.60719 0
M  V30 1529 H 150.901 -2.50757 4.15029 0
M  V30 1530 N 152.244 -1.26651 -0.937939 0
M  V30 1531 C 153.207 -1.08546 -2.01867 0
M  V30 1532 C 154.207 -0.0327327 -1.60767 0
M  V30 1533 O 155.397 -0.276427 -1.71993 0
M  V30 1534 C 152.529 -0.651711 -3.34613 0
M  V30 1535 H 153.722 -2.04502 -2.1936 0
M  V30 1536 H 151.275 -1.09294 -1.11734 0
M  V30 1537 H 152.01 0.309696 -3.22818 0
M  V30 1538 H 151.795 -1.41189 -3.65798 0
M  V30 1539 H 153.285 -0.546973 -4.14002 0
M  V30 1540 N 153.722 1.14298 -1.08507 0
M  V30 1541 C 154.652 2.21542 -0.737646 0
M  V30 1542 C 155.633 1.67773 0.280377 0
M  V30 1543 O 156.818 1.93616 0.150521 0
M  V30 1544 C 153.948 3.46988 -0.147259 0
M  V30 1545 C 152.902 4.13789 -1.09374 0
M  V30 1546 C 152.228 5.33449 -0.365524 0
M  V30 1547 C 153.528 4.62208 -2.4323 0
M  V30 1548 H 155.222 2.5086 -1.6343 0
M  V30 1549 H 152.768 1.20576 -0.787243 0
M  V30 1550 H 154.721 4.21262 0.107808 0
M  V30 1551 H 153.445 3.17037 0.784538 0
M  V30 1552 H 152.104 3.4147 -1.33393 0
M  V30 1553 H 151.752 4.99759 0.57011 0
M  V30 1554 H 151.452 5.79088 -0.996512 0
M  V30 1555 H 152.976 6.10485 -0.118534 0
M  V30 1556 H 154.39 5.27952 -2.23472 0
M  V30 1557 H 152.787 5.18553 -3.02031 0
M  V30 1558 H 153.857 3.77224 -3.04681 0
M  V30 1559 N 155.201 0.870884 1.31352 0
M  V30 1560 C 156.131 0.343096 2.30966 0
M  V30 1561 C 157.112 -0.566507 1.60389 0
M  V30 1562 O 158.297 -0.483336 1.88089 0
M  V30 1563 C 155.427 -0.455487 3.443 0
M  V30 1564 C 154.381 0.361103 4.26474 0
M  V30 1565 C 153.707 -0.563221 5.31725 0
M  V30 1566 C 155.007 1.59566 4.97329 0
M  V30 1567 H 156.701 1.17548 2.75359 0
M  V30 1568 H 154.247 0.566686 1.32381 0
M  V30 1569 H 156.2 -0.83525 4.13039 0
M  V30 1570 H 154.924 -1.32139 2.98675 0
M  V30 1571 H 153.583 0.722825 3.59403 0
M  V30 1572 H 153.231 -1.42643 4.82351 0
M  V30 1573 H 152.931 -0.0207409 5.87596 0
M  V30 1574 H 154.455 -0.939808 6.03324 0
M  V30 1575 H 155.869 1.28728 5.58661 0
M  V30 1576 H 154.266 2.07728 5.63 0
M  V30 1577 H 155.336 2.34798 4.24262 0
M  V30 1578 N 156.679 -1.44442 0.630414 0
M  V30 1579 C 157.611 -2.2892 -0.113347 0
M  V30 1580 C 158.624 -1.41243 -0.80959 0
M  V30 1581 O 159.813 -1.65402 -0.671156 0
M  V30 1582 C 156.913 -3.17594 -1.18266 0
M  V30 1583 C 156.086 -4.33682 -0.569073 0
M  V30 1584 C 155.145 -5.03397 -1.53226 0
M  V30 1585 O 154.171 -5.59438 -1.04967 0
M  V30 1586 N 155.373 -5.04783 -2.86661 0
M  V30 1587 H 158.138 -2.93392 0.611636 0
M  V30 1588 H 155.699 -1.54881 0.471523 0
M  V30 1589 H 157.691 -3.61097 -1.82732 0
M  V30 1590 H 156.261 -2.54876 -1.80988 0
M  V30 1591 H 155.481 -3.9338 0.254187 0
M  V30 1592 H 156.769 -5.08608 -0.139767 0
M  V30 1593 H 156.167 -4.60584 -3.28449 0
M  V30 1594 H 154.724 -5.52077 -3.46489 0
M  V30 1595 N 158.157 -0.370918 -1.53173 0
M  V30 1596 C 159.107 0.489588 -2.22681 0
M  V30 1597 C 160.091 1.04442 -1.22395 0
M  V30 1598 O 161.283 0.973578 -1.47819 0
M  V30 1599 C 158.412 1.626 -3.02351 0
M  V30 1600 C 157.498 1.08379 -4.10018 0
M  V30 1601 N 157.889 0.265004 -5.05105 0
M  V30 1602 C 156.187 1.35809 -4.2482 0
M  V30 1603 C 156.888 -0.0324755 -5.81691 0
M  V30 1604 N 155.864 0.566581 -5.40639 0
M  V30 1605 H 159.666 -0.142729 -2.93553 0
M  V30 1606 H 157.18 -0.179221 -1.61408 0
M  V30 1607 H 159.177 2.2547 -3.50669 0
M  V30 1608 H 157.837 2.26132 -2.33011 0
M  V30 1609 H 158.848 -0.0962352 -5.17811 0
M  V30 1610 H 155.525 1.9958 -3.66707 0
M  V30 1611 H 156.915 -0.69473 -6.68299 0
M  V30 1612 N 159.635 1.57281 -0.100228 0
M  V30 1613 C 160.912 1.86014 0.604812 0
M  V30 1614 C 161.292 0.998025 1.86018 0
M  V30 1615 O 160.64 0.0718184 2.28387 0
M  V30 1616 C 160.85 3.36784 0.915278 0
M  V30 1617 C 162.198 4.04957 1.27651 0
M  V30 1618 O 163.222 3.41695 1.00613 0
M  V30 1619 O 162.081 5.16593 1.7831 0
M  V30 1620 H 159.175 0.76942 0.303185 0
M  V30 1621 H 161.721 1.69176 -0.133313 0
M  V30 1622 H 160.493 3.91292 0.0248896 0
M  V30 1623 H 160.116 3.58987 1.70921 0
M  V30 1624 N 161.113 -0.173488 1.56642 0
M  V30 1625 C 162.061 -1.23417 1.97157 0
M  V30 1626 C 163.055 -1.45946 0.860013 0
M  V30 1627 O 164.261 -1.46551 1.04512 0
M  V30 1628 H 160.636 -0.414818 0.62724 0
M  V30 1629 H 162.607 -0.865582 2.8557 0
M  V30 1630 C 161.356 -2.5665 2.34576 0
M  V30 1631 H 160.679 -2.40137 3.19647 0
M  V30 1632 H 162.119 -3.2956 2.6677 0
M  V30 1633 C 160.578 -3.15245 1.18836 0
M  V30 1634 O 161.108 -3.98883 0.474869 0
M  V30 1635 N 159.314 -2.74303 0.959497 0
M  V30 1636 H 158.861 -2.0639 1.54146 0
M  V30 1637 H 158.819 -3.13844 0.186932 0
M  V30 1638 N 162.591 -1.51276 -0.441967 0
M  V30 1639 C 163.84 -1.6295 -1.18871 0
M  V30 1640 C 164.153 -0.349312 -1.92456 0
M  V30 1641 O 165.359 -0.345355 -2.69295 0
M  V30 1642 C 163.815 -2.87759 -2.16155 0
M  V30 1643 C 163.423 -4.22764 -1.48239 0
M  V30 1644 C 165.167 -3.08788 -2.91291 0
M  V30 1645 C 163.074 -5.38728 -2.4398 0
M  V30 1646 H 162.004 -0.606913 -0.447406 0
M  V30 1647 H 164.655 -1.77739 -0.456205 0
M  V30 1648 H 163.037 -2.66593 -2.92821 0
M  V30 1649 H 164.211 -4.54293 -0.771635 0
M  V30 1650 H 162.526 -4.07575 -0.852741 0
M  V30 1651 H 165.123 -3.92599 -3.63002 0
M  V30 1652 H 165.466 -2.21679 -3.5237 0
M  V30 1653 H 165.999 -3.30272 -2.21733 0
M  V30 1654 H 162.738 -6.28082 -1.87598 0
M  V30 1655 H 162.258 -5.1158 -3.13123 0
M  V30 1656 H 163.937 -5.70489 -3.05207 0
M  V30 1657 N 164.069 0.697108 -1.41344 0
M  V30 1658 C 165.318 1.45279 -1.39918 0
M  V30 1659 C 165.631 1.95597 -0.0109624 0
M  V30 1660 O 166.837 2.71208 0.125919 0
M  V30 1661 C 165.293 2.62695 -2.46007 0
M  V30 1662 C 164.901 2.19169 -3.90729 0
M  V30 1663 C 166.645 3.40336 -2.53715 0
M  V30 1664 C 164.552 3.33535 -4.88373 0
M  V30 1665 H 163.482 0.545692 -0.520323 0
M  V30 1666 H 166.133 0.756929 -1.67161 0
M  V30 1667 H 164.515 3.34541 -2.11892 0
M  V30 1668 H 165.689 1.54623 -4.34083 0
M  V30 1669 H 164.004 1.54525 -3.86666 0
M  V30 1670 H 166.601 4.2547 -3.2385 0
M  V30 1671 H 166.944 3.85418 -1.5735 0
M  V30 1672 H 167.477 2.75546 -2.86913 0
M  V30 1673 H 164.216 2.93468 -5.86137 0
M  V30 1674 H 163.736 3.96936 -4.49668 0
M  V30 1675 H 165.415 3.99335 -5.09059 0
M  V30 1676 N 165.547 1.27147 0.931209 0
M  V30 1677 C 166.51 1.09615 2.01289 0
M  V30 1678 C 167.51 0.0412581 1.60747 0
M  V30 1679 O 168.7 0.285545 1.71844 0
M  V30 1680 C 165.832 0.669447 3.34262 0
M  V30 1681 H 167.025 2.05662 2.18273 0
M  V30 1682 H 164.578 1.09885 1.11153 0
M  V30 1683 H 165.313 -0.292572 3.22978 0
M  V30 1684 H 165.098 1.43127 3.65044 0
M  V30 1685 H 166.588 0.568921 4.13706 0
M  V30 1686 N 167.025 -1.13721 1.09112 0
M  V30 1687 C 168.255 -1.88499 0.845671 0
M  V30 1688 C 168.663 -1.79218 -0.606432 0
M  V30 1689 O 168.006 -1.1544 -1.42896 0
M  V30 1690 C 168.068 -3.38954 1.19793 0
M  V30 1691 C 167.732 -3.72018 2.65428 0
M  V30 1692 C 168.729 -3.7153 3.63677 0
M  V30 1693 C 166.414 -4.01775 3.01467 0
M  V30 1694 C 168.408 -4.00336 4.95994 0
M  V30 1695 C 166.095 -4.30243 4.33975 0
M  V30 1696 C 167.093 -4.29508 5.31048 0
M  V30 1697 O 166.781 -4.5728 6.61173 0
M  V30 1698 H 166.513 -0.603702 0.304171 0
M  V30 1699 H 169.067 -1.44903 1.45576 0
M  V30 1700 H 167.297 -3.83039 0.530871 0
M  V30 1701 H 168.986 -3.95052 0.932146 0
M  V30 1702 H 169.752 -3.4862 3.37179 0
M  V30 1703 H 165.631 -4.01496 2.26544 0
M  V30 1704 H 169.175 -3.99678 5.71755 0
M  V30 1705 H 165.072 -4.52625 4.60219 0
M  V30 1706 H 165.84 -4.74964 6.66597 0
M  V30 1707 N 168.503 -0.877838 -1.30888 0
M  V30 1708 C 169.733 -0.506678 -2.00291 0
M  V30 1709 C 170.141 0.907449 -1.66018 0
M  V30 1710 O 169.484 1.60719 -0.88967 0
M  V30 1711 C 169.546 -0.59323 -3.54572 0
M  V30 1712 C 169.21 -1.97038 -4.12341 0
M  V30 1713 C 170.207 -2.93889 -4.28865 0
M  V30 1714 C 167.892 -2.27383 -4.47886 0
M  V30 1715 C 169.886 -4.19224 -4.80136 0
M  V30 1716 C 167.573 -3.52965 -4.98857 0
M  V30 1717 C 168.571 -4.48701 -5.14934 0
M  V30 1718 O 168.259 -5.72056 -5.64808 0
M  V30 1719 H 167.991 -0.1951 -0.647234 0
M  V30 1720 H 170.545 -1.18301 -1.6791 0
M  V30 1721 H 168.775 0.140057 -3.86446 0
M  V30 1722 H 170.464 -0.234372 -4.05223 0
M  V30 1723 H 171.23 -2.71756 -4.01714 0
M  V30 1724 H 167.109 -1.53639 -4.34645 0
M  V30 1725 H 170.653 -4.93956 -4.92599 0
M  V30 1726 H 166.55 -3.74939 -5.25443 0
M  V30 1727 H 167.318 -5.74337 -5.83163 0
M  V30 1728 N 169.982 1.44106 -0.638065 0
M  V30 1729 C 170.93 2.3248 0.0748149 0
M  V30 1730 C 171.924 1.47746 0.828702 0
M  V30 1731 O 173.13 1.64049 0.740816 0
M  V30 1732 H 169.505 0.750771 0.0429686 0
M  V30 1733 H 171.476 2.90348 -0.688504 0
M  V30 1734 C 170.225 3.31843 1.03805 0
M  V30 1735 H 169.548 3.97059 0.467375 0
M  V30 1736 H 170.988 3.96345 1.50622 0
M  V30 1737 C 169.447 2.61291 2.1267 0
M  V30 1738 O 169.977 2.41702 3.20847 0
M  V30 1739 N 168.183 2.20915 1.88798 0
M  V30 1740 H 167.73 2.37047 1.00829 0
M  V30 1741 H 167.688 1.74038 2.61836 0
M  V30 1742 N 171.46 0.379036 1.52974 0
M  V30 1743 C 172.41 -0.477772 2.22938 0
M  V30 1744 C 173.394 -1.03792 1.22948 0
M  V30 1745 O 174.586 -0.965725 1.48333 0
M  V30 1746 C 171.715 -1.60994 3.03209 0
M  V30 1747 C 170.801 -1.06203 4.10587 0
M  V30 1748 N 171.192 -0.238214 5.05239 0
M  V30 1749 C 169.49 -1.33554 4.25534 0
M  V30 1750 C 170.191 0.0633235 5.81666 0
M  V30 1751 N 169.167 -0.537901 5.40932 0
M  V30 1752 H 172.969 0.158295 2.93473 0
M  V30 1753 H 170.483 0.187778 1.61311 0
M  V30 1754 H 172.48 -2.23607 3.5186 0
M  V30 1755 H 171.14 -2.24893 2.34207 0
M  V30 1756 H 172.151 0.123695 5.17752 0
M  V30 1757 H 168.828 -1.97632 3.6776 0
M  V30 1758 H 170.218 0.730161 6.67921 0
M  V30 1759 N 172.938 -1.57226 0.108567 0
M  V30 1760 C 174.185 -1.94833 -0.551943 0
M  V30 1761 C 174.513 -0.991204 -1.67348 0
M  V30 1762 O 173.768 -0.0131878 -1.95696 0
M  V30 1763 C 174.067 -3.38911 -1.13463 0
M  V30 1764 C 173.733 -4.50696 -0.135509 0
M  V30 1765 C 172.395 -4.80998 0.139252 0
M  V30 1766 C 174.747 -5.18333 0.545957 0
M  V30 1767 C 172.075 -5.76259 1.10194 0
M  V30 1768 C 174.427 -6.14627 1.49721 0
M  V30 1769 C 173.091 -6.43327 1.78006 0
M  V30 1770 H 172.361 -0.712944 -0.20197 0
M  V30 1771 H 175.008 -1.90582 0.18726 0
M  V30 1772 H 173.313 -3.39805 -1.95037 0
M  V30 1773 H 175.01 -3.65317 -1.65362 0
M  V30 1774 H 171.6 -4.27087 -0.359846 0
M  V30 1775 H 175.784 -4.95087 0.346842 0
M  V30 1776 H 171.04 -5.96804 1.32795 0
M  V30 1777 H 175.214 -6.66126 2.03099 0
M  V30 1778 H 172.841 -7.1695 2.52759 0
M  V30 1779 N 174.416 0.165178 -1.56732 0
M  V30 1780 C 175.349 1.23336 -1.91998 0
M  V30 1781 C 176.327 1.42476 -0.783531 0
M  V30 1782 O 177.511 1.57384 -1.03743 0
M  V30 1783 C 174.638 2.59533 -2.17625 0
M  V30 1784 C 173.684 2.57093 -3.40302 0
M  V30 1785 S 174.517 2.05571 -4.9447 0
M  V30 1786 C 175.673 3.43532 -5.23198 0
M  V30 1787 H 175.906 0.932387 -2.82301 0
M  V30 1788 H 173.439 0.370013 -1.49901 0
M  V30 1789 H 175.397 3.37918 -2.3307 0
M  V30 1790 H 174.058 2.86827 -1.28019 0
M  V30 1791 H 173.251 3.57308 -3.55453 0
M  V30 1792 H 172.853 1.86806 -3.24005 0
M  V30 1793 H 175.145 4.39559 -5.15552 0
M  V30 1794 H 176.088 3.33251 -6.2478 0
M  V30 1795 H 176.496 3.39828 -4.50752 0
M  V30 1796 N 175.894 1.51508 0.433938 0
M  V30 1797 C 177.171 1.54888 1.19453 0
M  V30 1798 C 177.551 0.315154 2.08734 0
M  V30 1799 O 176.899 -0.699558 2.17528 0
M  V30 1800 C 177.109 2.86467 1.99342 0
M  V30 1801 C 178.457 3.38545 2.56267 0
M  V30 1802 O 179.481 2.88041 2.0955 0
M  V30 1803 O 178.34 4.26675 3.41483 0
M  V30 1804 H 175.434 0.622863 0.544032 0
M  V30 1805 H 177.98 1.63823 0.442732 0
M  V30 1806 H 176.752 3.67718 1.33788 0
M  V30 1807 H 176.375 2.8071 2.8158 0
M  V30 1808 N 177.372 -0.689602 1.41712 0
M  V30 1809 C 178.32 -1.82475 1.44242 0
M  V30 1810 C 179.314 -1.66354 0.319774 0
M  V30 1811 O 180.52 -1.73143 0.492089 0
M  V30 1812 H 176.895 -0.601416 0.451445 0
M  V30 1813 H 178.866 -1.77458 2.39899 0
M  V30 1814 C 177.615 -3.20535 1.3473 0
M  V30 1815 H 176.938 -3.33559 2.20405 0
M  V30 1816 H 178.378 -4.00023 1.40562 0
M  V30 1817 C 176.837 -3.36846 0.0603281 0
M  V30 1818 O 177.367 -3.91656 -0.892663 0
M  V30 1819 N 175.573 -2.90595 -0.0177039 0
M  V30 1820 H 175.12 -2.46178 0.758572 0
M  V30 1821 H 175.078 -3.01886 -0.878201 0
M  V30 1822 N 178.85 -1.27639 -0.924453 0
M  V30 1823 C 180.078 -1.16989 -1.70649 0
M  V30 1824 C 180.493 0.272869 -1.86818 0
M  V30 1825 O 179.85 1.18549 -1.38753 0
M  V30 1826 C 179.901 -1.85229 -3.10439 0
M  V30 1827 O 179.622 -3.23868 -2.95028 0
M  V30 1828 C 181.123 -1.80746 -4.04779 0
M  V30 1829 H 178.343 -0.406595 -0.53378 0
M  V30 1830 H 180.887 -1.68569 -1.15778 0
M  V30 1831 H 179.042 -1.37545 -3.6216 0
M  V30 1832 H 179.456 -3.57889 -3.83426 0
M  V30 1833 H 180.93 -2.33101 -5.00368 0
M  V30 1834 H 181.407 -0.777499 -4.32263 0
M  V30 1835 H 182.013 -2.28059 -3.58984 0
M  V30 1836 N 180.328 1.1314 -1.09713 0
M  V30 1837 C 181.556 1.88321 -0.856898 0
M  V30 1838 C 181.971 1.79276 0.592073 0
M  V30 1839 O 181.328 1.16142 1.40774 0
M  V30 1840 C 181.379 3.37812 -1.28706 0
M  V30 1841 O 181.1 3.46627 -2.67921 0
M  V30 1842 C 182.601 4.29952 -1.07964 0
M  V30 1843 H 179.821 0.596094 -0.308079 0
M  V30 1844 H 182.365 1.43205 -1.45988 0
M  V30 1845 H 180.52 3.805 -0.727912 0
M  V30 1846 H 180.934 4.39579 -2.8613 0
M  V30 1847 H 182.408 5.33159 -1.42986 0
M  V30 1848 H 182.885 4.39196 -0.0176577 0
M  V30 1849 H 183.491 3.93036 -1.62489 0
M  V30 1850 N 181.806 0.884767 1.30421 0
M  V30 1851 C 182.736 0.367574 2.30589 0
M  V30 1852 C 183.717 -0.549464 1.60981 0
M  V30 1853 O 184.902 -0.46336 1.88591 0
M  V30 1854 C 182.032 -0.418944 3.44764 0
M  V30 1855 C 180.986 0.406316 4.26067 0
M  V30 1856 C 180.312 -0.506793 5.32293 0
M  V30 1857 C 181.612 1.64832 4.95608 0
M  V30 1858 H 183.306 1.20462 2.74097 0
M  V30 1859 H 180.852 0.580695 1.31772 0
M  V30 1860 H 182.805 -0.791395 4.13902 0
M  V30 1861 H 181.529 -1.28964 3.0006 0
M  V30 1862 H 180.188 0.760903 3.58617 0
M  V30 1863 H 179.836 -1.37519 4.83836 0
M  V30 1864 H 179.536 0.0415828 5.87585 0
M  V30 1865 H 181.06 -0.875764 6.04287 0
M  V30 1866 H 182.474 1.34646 5.57264 0
M  V30 1867 H 180.871 2.13688 5.60765 0
M  V30 1868 H 181.941 2.39284 4.21748 0
M  V30 1869 N 183.284 -1.43765 0.645699 0
M  V30 1870 C 184.214 -2.33471 -0.0370477 0
M  V30 1871 C 185.195 -1.49042 -0.819779 0
M  V30 1872 O 186.38 -1.77726 -0.782758 0
M  V30 1873 C 183.51 -3.32311 -1.0093 0
M  V30 1874 C 182.464 -4.2667 -0.337201 0
M  V30 1875 C 181.79 -5.1549 -1.42037 0
M  V30 1876 C 183.09 -5.16657 0.765706 0
M  V30 1877 H 184.784 -2.90809 0.712069 0
M  V30 1878 H 182.33 -1.39834 0.343876 0
M  V30 1879 H 184.283 -3.9396 -1.49578 0
M  V30 1880 H 183.007 -2.73213 -1.78948 0
M  V30 1881 H 181.666 -3.66374 0.128771 0
M  V30 1882 H 181.314 -4.52735 -2.1918 0
M  V30 1883 H 181.014 -5.79438 -0.975966 0
M  V30 1884 H 182.538 -5.80012 -1.90838 0
M  V30 1885 H 183.952 -5.72158 0.361702 0
M  V30 1886 H 182.349 -5.89286 1.13413 0
M  V30 1887 H 183.419 -4.56796 1.62683 0
M  V30 1888 N 184.763 -0.387143 -1.52771 0
M  V30 1889 C 186.012 0.19697 -2.00736 0
M  V30 1890 C 186.325 1.48082 -1.27793 0
M  V30 1891 O 187.531 2.14485 -1.66458 0
M  V30 1892 C 185.987 0.401568 -3.57653 0
M  V30 1893 C 185.595 -0.868907 -4.39493 0
M  V30 1894 C 187.339 0.942164 -4.13912 0
M  V30 1895 C 185.246 -0.632705 -5.88006 0
M  V30 1896 H 184.176 0.0773827 -0.750019 0
M  V30 1897 H 186.827 -0.50921 -1.76293 0
M  V30 1898 H 185.209 1.16954 -3.78335 0
M  V30 1899 H 186.383 -1.64133 -4.30577 0
M  V30 1900 H 184.698 -1.33429 -3.94443 0
M  V30 1901 H 187.295 1.13455 -5.22525 0
M  V30 1902 H 187.638 1.9106 -3.69867 0
M  V30 1903 H 188.171 0.233814 -3.97112 0
M  V30 1904 H 184.91 -1.57208 -6.36369 0
M  V30 1905 H 184.43 0.100825 -5.99715 0
M  V30 1906 H 186.109 -0.26642 -6.46451 0
M  V30 1907 N 186.241 1.57166 -0.116904 0
M  V30 1908 C 187.151 2.18745 0.847812 0
M  V30 1909 C 188.167 1.163 1.29423 0
M  V30 1910 O 189.343 1.48761 1.35765 0
M  V30 1911 C 186.408 2.77307 2.0809 0
M  V30 1912 C 185.469 3.94781 1.68661 0
M  V30 1913 C 184.702 4.50541 2.86091 0
M  V30 1914 O 184.925 4.05202 4.01456 0
M  V30 1915 O 183.859 5.41256 2.63298 0
M  V30 1916 H 187.685 3.01632 0.353778 0
M  V30 1917 H 185.27 1.49005 0.108599 0
M  V30 1918 H 187.152 3.14647 2.80313 0
M  V30 1919 H 185.827 1.97452 2.56504 0
M  V30 1920 H 184.734 3.62214 0.935518 0
M  V30 1921 H 186.067 4.76065 1.24991 0
M  V30 1922 N 187.719 -0.156864 1.56817 0
M  V30 1923 C 188.649 -1.19589 2.00551 0
M  V30 1924 C 189.63 -1.4536 0.883426 0
M  V30 1925 O 190.815 -1.56449 1.15054 0
M  V30 1926 C 187.945 -2.53143 2.37773 0
M  V30 1927 C 186.899 -2.41913 3.53075 0
M  V30 1928 C 186.225 -3.80088 3.76081 0
M  V30 1929 C 187.525 -1.91157 4.86062 0
M  V30 1930 H 189.219 -0.832293 2.87599 0
M  V30 1931 H 186.765 -0.398918 1.38364 0
M  V30 1932 H 188.718 -3.26047 2.66967 0
M  V30 1933 H 187.442 -2.91319 1.4765 0
M  V30 1934 H 186.101 -1.71462 3.24031 0
M  V30 1935 H 185.749 -4.15683 2.83225 0
M  V30 1936 H 185.449 -3.73439 4.53671 0
M  V30 1937 H 186.973 -4.54556 4.0769 0
M  V30 1938 H 188.387 -2.53846 5.14038 0
M  V30 1939 H 186.784 -1.95422 5.67389 0
M  V30 1940 H 187.854 -0.866673 4.77092 0
M  V30 1941 N 189.197 -1.51736 -0.425897 0
M  V30 1942 C 190.107 -1.76738 -1.54275 0
M  V30 1943 C 191.123 -0.65211 -1.61318 0
M  V30 1944 O 192.299 -0.935654 -1.78346 0
M  V30 1945 C 189.364 -1.89755 -2.90162 0
M  V30 1946 C 188.425 -3.13633 -2.93143 0
M  V30 1947 C 187.658 -3.2602 -4.22548 0
M  V30 1948 O 187.881 -2.44067 -5.15546 0
M  V30 1949 O 186.815 -4.19071 -4.32046 0
M  V30 1950 H 190.641 -2.71502 -1.36089 0
M  V30 1951 H 188.226 -1.36376 -0.610069 0
M  V30 1952 H 190.108 -2.00236 -3.70788 0
M  V30 1953 H 188.783 -0.981785 -3.08452 0
M  V30 1954 H 187.69 -3.08622 -2.11431 0
M  V30 1955 H 189.023 -4.04936 -2.798 0
M  V30 1956 N 190.675 0.682077 -1.42076 0
M  V30 1957 C 191.905 1.46844 -1.45329 0
M  V30 1958 C 192.313 1.89102 -0.0609328 0
M  V30 1959 O 191.656 1.58238 0.933082 0
M  V30 1960 C 191.718 2.75375 -2.31104 0
M  V30 1961 C 191.382 2.55238 -3.79081 0
M  V30 1962 C 192.379 2.20309 -4.70914 0
M  V30 1963 C 190.064 2.70459 -4.2327 0
M  V30 1964 C 192.058 2.00859 -6.04925 0
M  V30 1965 C 189.745 2.50624 -5.57343 0
M  V30 1966 C 190.743 2.15876 -6.47986 0
M  V30 1967 O 190.431 1.96227 -7.79583 0
M  V30 1968 H 190.163 0.4586 -0.496651 0
M  V30 1969 H 192.717 0.846131 -1.87162 0
M  V30 1970 H 190.947 3.40061 -1.84107 0
M  V30 1971 H 192.636 3.37231 -2.25898 0
M  V30 1972 H 193.402 2.08153 -4.38061 0
M  V30 1973 H 189.281 2.96485 -3.53012 0
M  V30 1974 H 192.825 1.7366 -6.75639 0
M  V30 1975 H 188.722 2.62375 -5.89771 0
M  V30 1976 H 189.49 2.10883 -7.90867 0
M  V30 1977 N 192.153 1.28127 0.917671 0
M  V30 1978 C 193.393 1.163 1.68088 0
M  V30 1979 C 193.757 -0.284515 1.8988 0
M  V30 1980 O 194.958 -0.525413 2.63615 0
M  V30 1981 C 193.229 1.93546 3.00457 0
M  V30 1982 S 194.788 1.98048 3.91564 0
M  V30 1983 H 191.606 0.415005 0.577315 0
M  V30 1984 H 194.208 1.62173 1.09179 0
M  V30 1985 H 192.912 2.97888 2.82295 0
M  V30 1986 H 192.443 1.48207 3.64415 0
M  V30 1987 H 194.458 1.08415 4.84211 0
M  V30 1988 N 193.631 -1.12557 1.10312 0
M  V30 1989 C 194.579 -2.20325 0.745629 0
M  V30 1990 C 195.573 -1.67429 -0.25763 0
M  V30 1991 O 196.779 -1.79612 -0.118132 0
M  V30 1992 H 193.154 -0.718118 0.223182 0
M  V30 1993 H 195.125 -2.47733 1.66346 0
M  V30 1994 C 193.874 -3.47168 0.192262 0
M  V30 1995 H 193.197 -3.88215 0.955475 0
M  V30 1996 H 194.637 -4.23995 -0.0198274 0
M  V30 1997 C 193.096 -3.19298 -1.07472 0
M  V30 1998 O 193.626 -3.3891 -2.15645 0
M  V30 1999 N 191.832 -2.73113 -0.992847 0
M  V30 2000 H 191.379 -2.57354 -0.112474 0
M  V30 2001 H 191.337 -2.54842 -1.84127 0
M  V30 2002 N 195.109 -0.891671 -1.2995 0
M  V30 2003 C 196.357 -0.512486 -1.95494 0
M  V30 2004 C 196.678 0.942776 -1.70695 0
M  V30 2005 O 195.948 1.66374 -1.03424 0
M  V30 2006 H 194.528 -0.186533 -0.723336 0
M  V30 2007 H 197.19 -1.13621 -1.58355 0
M  V30 2008 H 196.286 -0.688342 -3.04415 0
M  V30 2009 N 196.587 1.43421 -0.653314 0
M  V30 2010 C 197.835 2.01414 -0.166415 0
M  V30 2011 C 198.156 1.51803 1.22397 0
M  V30 2012 O 197.426 0.730693 1.81763 0
M  V30 2013 H 196.006 0.744703 -0.0585319 0
M  V30 2014 H 198.668 1.75629 -0.845003 0
M  V30 2015 H 197.764 3.11734 -0.151111 0
M  V30 2016 N 198.065 0.39524 1.52563 0
M  V30 2017 C 199.013 -0.451859 2.28169 0
M  V30 2018 C 200.007 -1.05792 1.32304 0
M  V30 2019 O 201.213 -0.997718 1.49818 0
M  V30 2020 H 197.588 -0.164481 0.733792 0
M  V30 2021 H 199.559 0.207199 2.9768 0
M  V30 2022 C 198.308 -1.56385 3.10546 0
M  V30 2023 H 197.631 -1.10682 3.84174 0
M  V30 2024 H 199.071 -2.13067 3.66577 0
M  V30 2025 C 197.53 -2.52328 2.23231 0
M  V30 2026 O 198.06 -3.5588 1.86312 0
M  V30 2027 N 196.266 -2.22209 1.87274 0
M  V30 2028 H 195.813 -1.38033 2.17496 0
M  V30 2029 H 195.771 -2.86652 1.29143 0
M  V30 2030 N 199.544 -1.57102 0.125237 0
M  V30 2031 C 200.474 -2.18659 -0.819174 0
M  V30 2032 C 201.455 -1.12843 -1.27281 0
M  V30 2033 O 202.64 -1.41104 -1.33429 0
M  V30 2034 C 199.77 -2.79096 -2.06695 0
M  V30 2035 C 198.724 -3.90548 -1.75088 0
M  V30 2036 C 198.05 -4.37821 -3.06948 0
M  V30 2037 C 199.35 -5.12356 -1.01435 0
M  V30 2038 H 201.044 -2.9783 -0.306202 0
M  V30 2039 H 198.59 -1.4326 -0.145839 0
M  V30 2040 H 200.543 -3.2082 -2.73226 0
M  V30 2041 H 199.267 -1.97223 -2.60328 0
M  V30 2042 H 197.926 -3.49409 -1.10944 0
M  V30 2043 H 197.574 -3.52799 -3.58527 0
M  V30 2044 H 197.274 -5.12982 -2.86571 0
M  V30 2045 H 198.798 -4.822 -3.74587 0
M  V30 2046 H 200.212 -5.5106 -1.58132 0
M  V30 2047 H 198.609 -5.9314 -0.911319 0
M  V30 2048 H 199.679 -4.849 -0.00218681 0
M  V30 2049 N 201.022 0.148545 -1.56898 0
M  V30 2050 C 202.252 0.875118 -1.8715 0
M  V30 2051 C 202.66 1.75322 -0.711262 0
M  V30 2052 O 202.003 1.80745 0.328151 0
M  V30 2053 C 202.065 1.7844 -3.12089 0
M  V30 2054 C 201.729 1.08361 -4.43967 0
M  V30 2055 C 202.726 0.438247 -5.1805 0
M  V30 2056 C 200.411 1.07358 -4.90693 0
M  V30 2057 C 202.405 -0.20779 -6.37061 0
M  V30 2058 C 200.092 0.42373 -6.09629 0
M  V30 2059 C 201.09 -0.215829 -6.82659 0
M  V30 2060 O 200.778 -0.855378 -7.99336 0
M  V30 2061 H 200.51 0.258504 -0.624621 0
M  V30 2062 H 203.064 0.14652 -2.04877 0
M  V30 2063 H 201.294 2.55389 -2.90367 0
M  V30 2064 H 202.983 2.38279 -3.286 0
M  V30 2065 H 203.749 0.437817 -4.8302 0
M  V30 2066 H 199.628 1.5608 -4.33774 0
M  V30 2067 H 203.172 -0.70758 -6.94002 0
M  V30 2068 H 199.069 0.421822 -6.4412 0
M  V30 2069 H 199.837 -0.756892 -8.14993 0
M  V30 2070 N 202.5 1.5196 0.417844 0
M  V30 2071 C 203.777 1.56146 1.17803 0
M  V30 2072 C 204.157 0.337275 2.08388 0
M  V30 2073 O 203.505 -0.676447 2.18258 0
M  V30 2074 C 203.715 2.88566 1.96293 0
M  V30 2075 C 205.063 3.41244 2.52662 0
M  V30 2076 O 206.087 2.90247 2.06483 0
M  V30 2077 O 204.946 4.30273 3.36938 0
M  V30 2078 H 202.04 0.628598 0.537395 0
M  V30 2079 H 204.586 1.64283 0.425331 0
M  V30 2080 H 203.358 3.69116 1.2988 0
M  V30 2081 H 202.981 2.83681 2.78587 0
M  V30 2082 N 203.978 -0.674533 1.42435 0
M  V30 2083 C 204.925 -1.78807 1.45934 0
M  V30 2084 C 205.895 -1.63157 0.311271 0
M  V30 2085 O 207.08 -1.83707 0.515383 0
M  V30 2086 C 204.22 -3.16839 1.36773 0
M  V30 2087 C 203.333 -3.43774 2.61617 0
M  V30 2088 C 202.468 -4.71536 2.44597 0
M  V30 2089 C 201.507 -4.91505 3.64814 0
M  V30 2090 N 200.644 -6.10508 3.46734 0
M  V30 2091 H 205.484 -1.75151 2.41093 0
M  V30 2092 H 203.021 -0.85504 1.19697 0
M  V30 2093 H 204.979 -3.96606 1.29459 0
M  V30 2094 H 203.609 -3.19619 0.452089 0
M  V30 2095 H 202.661 -2.58259 2.79297 0
M  V30 2096 H 203.973 -3.54423 3.50978 0
M  V30 2097 H 203.127 -5.59393 2.3487 0
M  V30 2098 H 201.866 -4.6317 1.52726 0
M  V30 2099 H 200.871 -4.0209 3.74972 0
M  V30 2100 H 202.096 -5.01716 4.57665 0
M  V30 2101 H 200.042 -6.03315 2.5758 0
M  V30 2102 H 199.959 -6.2202 4.29682 0
M  V30 2103 H 201.227 -7.01044 3.40819 0
M  V30 2104 N 205.456 -1.28612 -0.910864 0
M  V30 2105 C 206.705 -1.15311 -1.65488 0
M  V30 2106 C 207.018 0.296999 -1.93332 0
M  V30 2107 O 208.224 0.551168 -2.65847 0
M  V30 2108 C 206.68 -2.01599 -2.98137 0
M  V30 2109 C 206.288 -3.51367 -2.7793 0
M  V30 2110 C 208.032 -1.96993 -3.76024 0
M  V30 2111 C 205.939 -4.29797 -4.06237 0
M  V30 2112 H 204.869 -0.42796 -0.620779 0
M  V30 2113 H 207.52 -1.53166 -1.01057 0
M  V30 2114 H 205.902 -1.56603 -3.63719 0
M  V30 2115 H 207.076 -4.0434 -2.21011 0
M  V30 2116 H 205.391 -3.57529 -2.13452 0
M  V30 2117 H 207.988 -2.52856 -4.71135 0
M  V30 2118 H 208.331 -0.94733 -4.05378 0
M  V30 2119 H 208.864 -2.39973 -3.17266 0
M  V30 2120 H 205.603 -5.32648 -3.82055 0
M  V30 2121 H 205.123 -3.81596 -4.62757 0
M  V30 2122 H 206.802 -4.39869 -4.74473 0
M  V30 2123 N 206.934 1.1197 -1.10907 0
M  V30 2124 C 207.864 2.19928 -0.784473 0
M  V30 2125 C 208.845 1.6833 0.244726 0
M  V30 2126 O 210.03 1.93892 0.109418 0
M  V30 2127 C 207.16 3.46597 -0.220827 0
M  V30 2128 C 206.114 4.11376 -1.18127 0
M  V30 2129 C 205.44 5.32554 -0.478594 0
M  V30 2130 C 206.74 4.56945 -2.52979 0
M  V30 2131 H 208.434 2.47337 -1.68715 0
M  V30 2132 H 205.98 1.18879 -0.812642 0
M  V30 2133 H 207.933 4.21396 0.0184278 0
M  V30 2134 H 206.657 3.1863 0.717113 0
M  V30 2135 H 205.316 3.38564 -1.40606 0
M  V30 2136 H 204.964 5.00856 0.463976 0
M  V30 2137 H 204.664 5.76844 -1.11912 0
M  V30 2138 H 206.188 6.10096 -0.248 0
M  V30 2139 H 207.602 5.23093 -2.3462 0
M  V30 2140 H 205.999 5.1203 -3.12962 0
M  V30 2141 H 207.069 3.70676 -3.12614 0
M  V30 2142 N 208.412 0.89855 1.29475 0
M  V30 2143 C 209.828 0.594483 1.48115 0
M  V30 2144 C 210.028 -0.86431 1.82022 0
M  V30 2145 O 209.084 -1.64457 1.91599 0
M  V30 2146 C 210.397 1.51932 2.59494 0
M  V30 2147 C 211.945 1.5244 2.7337 0
M  V30 2148 C 212.42 2.43548 3.87877 0
M  V30 2149 N 213.911 2.41589 3.95208 0
M  V30 2150 C 214.646 3.08789 4.83153 0
M  V30 2151 N 214.142 3.85265 5.75798 0
M  V30 2152 N 215.935 2.97952 4.76635 0
M  V30 2153 H 208.086 1.84207 1.05742 0
M  V30 2154 H 210.349 0.789251 0.525154 0
M  V30 2155 H 210.055 2.55865 2.41301 0
M  V30 2156 H 209.929 1.23899 3.56271 0
M  V30 2157 H 212.316 0.492518 2.90961 0
M  V30 2158 H 212.397 1.8451 1.77172 0
M  V30 2159 H 212.041 3.46829 3.71041 0
M  V30 2160 H 211.971 2.08788 4.83441 0
M  V30 2161 H 214.462 1.86025 3.28943 0
M  V30 2162 H 214.775 4.33598 6.39697 0
M  V30 2163 H 213.12 3.89371 5.75687 0
M  V30 2164 H 216.311 2.37723 4.03244 0
M  V30 2165 H 216.484 3.50599 5.44962 0
M  V30 2166 N 209.89 -1.43072 0.660911 0
M  V30 2167 C 210.822 -2.29108 -0.0647641 0
M  V30 2168 C 211.835 -1.42928 -0.779448 0
M  V30 2169 O 213.024 -1.66788 -0.635921 0
M  V30 2170 C 210.124 -3.20032 -1.11503 0
M  V30 2171 C 209.297 -4.34792 -0.476955 0
M  V30 2172 C 208.356 -5.06534 -1.42513 0
M  V30 2173 O 207.382 -5.61538 -0.930771 0
M  V30 2174 N 208.584 -5.1075 -2.75889 0
M  V30 2175 H 211.349 -2.92029 0.673731 0
M  V30 2176 H 208.91 -1.53846 0.50427 0
M  V30 2177 H 210.902 -3.64892 -1.75032 0
M  V30 2178 H 209.472 -2.58658 -1.75541 0
M  V30 2179 H 208.692 -3.92752 0.337572 0
M  V30 2180 H 209.98 -5.0879 -0.0318525 0
M  V30 2181 H 209.378 -4.67447 -3.18606 0
M  V30 2182 H 207.935 -5.59302 -3.347 0
M  V30 2183 N 211.368 -0.403325 -1.52352 0
M  V30 2184 C 212.315 0.425011 -2.26853 0
M  V30 2185 C 213.285 1.04598 -1.29029 0
M  V30 2186 O 214.47 1.07135 -1.57882 0
M  V30 2187 C 211.61 1.53888 -3.08889 0
M  V30 2188 C 210.723 0.939396 -4.21663 0
M  V30 2189 C 209.858 2.02547 -4.91068 0
M  V30 2190 C 208.897 1.40263 -5.95813 0
M  V30 2191 N 208.034 2.4286 -6.58759 0
M  V30 2192 H 212.874 -0.21674 -2.97211 0
M  V30 2193 H 210.411 -0.118722 -1.4662 0
M  V30 2194 H 212.369 2.19558 -3.54753 0
M  V30 2195 H 210.999 2.15074 -2.40714 0
M  V30 2196 H 210.051 0.171898 -3.80011 0
M  V30 2197 H 211.363 0.44436 -4.96817 0
M  V30 2198 H 210.517 2.75958 -5.40308 0
M  V30 2199 H 209.256 2.55415 -4.15469 0
M  V30 2200 H 208.261 0.653833 -5.45898 0
M  V30 2201 H 209.486 0.881719 -6.73352 0
M  V30 2202 H 207.432 2.94871 -5.85992 0
M  V30 2203 H 207.349 1.98152 -7.2957 0
M  V30 2204 H 208.617 3.15858 -7.12639 0
M  V30 2205 N 212.846 1.57033 -0.133567 0
M  V30 2206 C 214.123 1.87256 0.56522 0
M  V30 2207 C 214.503 1.03726 1.83859 0
M  V30 2208 O 213.851 0.120247 2.28183 0
M  V30 2209 C 214.061 3.3865 0.843636 0
M  V30 2210 C 215.409 4.07574 1.19032 0
M  V30 2211 O 216.433 3.43752 0.933429 0
M  V30 2212 O 215.292 5.20259 1.67312 0
M  V30 2213 H 212.386 0.775678 0.286796 0
M  V30 2214 H 214.932 1.68855 -0.169168 0
M  V30 2215 H 213.704 3.91257 -0.0581149 0
M  V30 2216 H 213.327 3.62532 1.63268 0
M  V30 2217 N 214.325 -0.140222 1.56975 0
M  V30 2218 C 215.272 -1.17292 1.98774 0
M  V30 2219 C 216.242 -1.4232 0.856408 0
M  V30 2220 O 217.427 -1.54541 1.119 0
M  V30 2221 C 214.567 -2.49973 2.37923 0
M  V30 2222 C 213.68 -2.32062 3.64378 0
M  V30 2223 C 212.815 -3.57825 3.926 0
M  V30 2224 C 211.854 -3.3498 5.12303 0
M  V30 2225 N 210.991 -4.52891 5.36502 0
M  V30 2226 H 215.831 -0.809472 2.86795 0
M  V30 2227 H 213.368 -0.388237 1.41884 0
M  V30 2228 H 215.326 -3.27346 2.58652 0
M  V30 2229 H 213.956 -2.84252 1.52972 0
M  V30 2230 H 213.008 -1.45711 3.51387 0
M  V30 2231 H 214.32 -2.11145 4.51906 0
M  V30 2232 H 213.474 -4.43624 4.13863 0
M  V30 2233 H 212.213 -3.81753 3.03506 0
M  V30 2234 H 211.218 -2.4757 4.90906 0
M  V30 2235 H 212.443 -3.12444 6.02956 0
M  V30 2236 H 210.389 -4.76979 4.50363 0
M  V30 2237 H 210.306 -4.35001 6.18312 0
M  V30 2238 H 211.574 -5.39884 5.62268 0
M  V30 2239 N 215.803 -1.52179 -0.40978 0
M  V30 2240 C 216.733 -1.78435 -1.5061 0
M  V30 2241 C 217.714 -0.635295 -1.57791 0
M  V30 2242 O 218.899 -0.880823 -1.73076 0
M  V30 2243 C 216.029 -1.93444 -2.88439 0
M  V30 2244 C 214.983 -3.09038 -2.96108 0
M  V30 2245 C 214.309 -3.09268 -4.36185 0
M  V30 2246 C 215.609 -4.48508 -2.67652 0
M  V30 2247 H 217.303 -2.70237 -1.28889 0
M  V30 2248 H 214.849 -1.30036 -0.618605 0
M  V30 2249 H 216.802 -2.10394 -3.65119 0
M  V30 2250 H 215.526 -0.983129 -3.11452 0
M  V30 2251 H 214.185 -2.91837 -2.21872 0
M  V30 2252 H 213.833 -2.11861 -4.56206 0
M  V30 2253 H 213.533 -3.86907 -4.42241 0
M  V30 2254 H 215.057 -3.28348 -5.14801 0
M  V30 2255 H 216.471 -4.65918 -3.34056 0
M  V30 2256 H 214.868 -5.28059 -2.85085 0
M  V30 2257 H 215.938 -4.56649 -1.63095 0
M  V30 2258 N 217.281 0.66697 -1.42791 0
M  V30 2259 C 218.528 1.42699 -1.43678 0
M  V30 2260 C 218.856 1.94419 -0.0560425 0
M  V30 2261 O 218.111 1.7182 0.936831 0
M  V30 2262 C 218.41 2.6349 -2.4147 0
M  V30 2263 C 218.076 2.30267 -3.8767 0
M  V30 2264 C 216.738 2.20918 -4.27491 0
M  V30 2265 C 219.09 2.03435 -4.79858 0
M  V30 2266 C 216.418 1.82873 -5.57471 0
M  V30 2267 C 218.77 1.66892 -6.10188 0
M  V30 2268 C 217.434 1.56058 -6.49001 0
M  V30 2269 H 216.704 0.522171 -0.525755 0
M  V30 2270 H 219.351 0.759785 -1.75783 0
M  V30 2271 H 217.656 3.35279 -2.0272 0
M  V30 2272 H 219.353 3.21684 -2.39417 0
M  V30 2273 H 215.943 2.38449 -3.56146 0
M  V30 2274 H 220.127 2.09586 -4.49875 0
M  V30 2275 H 215.383 1.7306 -5.86396 0
M  V30 2276 H 219.557 1.45157 -6.81104 0
M  V30 2277 H 217.184 1.26348 -7.49627 0
M  V30 2278 N 218.759 1.29093 0.90403 0
M  V30 2279 C 219.669 1.15727 2.0407 0
M  V30 2280 C 220.685 0.0815308 1.73809 0
M  V30 2281 O 221.861 0.292749 1.99261 0
M  V30 2282 C 218.926 0.830424 3.36608 0
M  V30 2283 C 217.987 1.98955 3.80415 0
M  V30 2284 C 217.22 1.6782 5.06628 0
M  V30 2285 O 217.443 0.597105 5.67266 0
M  V30 2286 O 216.377 2.52486 5.46383 0
M  V30 2287 H 220.203 2.11171 2.18267 0
M  V30 2288 H 217.788 1.08504 1.027 0
M  V30 2289 H 219.67 0.662521 4.16159 0
M  V30 2290 H 218.345 -0.0942678 3.23563 0
M  V30 2291 H 217.252 2.21267 3.01648 0
M  V30 2292 H 218.585 2.89529 3.98037 0
M  V30 2293 N 220.237 -1.11381 1.11499 0
M  V30 2294 C 221.147 -2.21019 0.786628 0
M  V30 2295 C 222.163 -1.72597 -0.220507 0
M  V30 2296 O 223.339 -2.01321 -0.0565251 0
M  V30 2297 C 220.404 -3.459 0.235333 0
M  V30 2298 C 219.465 -4.09107 1.30115 0
M  V30 2299 C 218.698 -5.28027 0.776068 0
M  V30 2300 O 218.921 -5.6904 -0.393661 0
M  V30 2301 O 217.855 -5.81835 1.54114 0
M  V30 2302 H 221.681 -2.51521 1.70209 0
M  V30 2303 H 219.266 -1.19928 0.890928 0
M  V30 2304 H 221.148 -4.21346 -0.067715 0
M  V30 2305 H 219.823 -3.17049 -0.652828 0
M  V30 2306 H 218.73 -3.35391 1.65722 0
M  V30 2307 H 220.063 -4.42139 2.16273 0
M  V30 2308 N 221.715 -0.905404 -1.28997 0
M  V30 2309 C 222.625 -0.392246 -2.31298 0
M  V30 2310 C 223.641 0.515889 -1.66176 0
M  V30 2311 O 224.817 0.404093 -1.97304 0
M  V30 2312 C 221.882 0.36686 -3.44754 0
M  V30 2313 C 220.943 -0.573485 -4.25452 0
M  V30 2314 C 220.176 0.149488 -5.33491 0
M  V30 2315 O 220.399 1.37255 -5.5364 0
M  V30 2316 O 219.333 -0.510919 -5.99728 0
M  V30 2317 H 223.159 -1.2411 -2.77183 0
M  V30 2318 H 220.744 -0.669926 -1.33538 0
M  V30 2319 H 222.626 0.795907 -4.13816 0
M  V30 2320 H 221.301 1.19169 -3.00966 0
M  V30 2321 H 220.208 -1.05176 -3.59011 0
M  V30 2322 H 221.541 -1.36489 -4.72897 0
M  V30 2323 N 223.193 1.4272 -0.668489 0
M  V30 2324 C 224.126 2.28111 0.0637898 0
M  V30 2325 C 225.104 1.40705 0.814912 0
M  V30 2326 O 226.288 1.70146 0.81134 0
M  V30 2327 C 223.415 3.20429 1.0974 0
M  V30 2328 C 222.461 4.24197 0.442579 0
M  V30 2329 S 223.294 5.29563 -0.795173 0
M  V30 2330 C 224.45 6.25449 0.237516 0
M  V30 2331 H 224.683 2.8987 -0.660521 0
M  V30 2332 H 222.216 1.47456 -0.457821 0
M  V30 2333 H 224.174 3.74158 1.68868 0
M  V30 2334 H 222.835 2.57818 1.79411 0
M  V30 2335 H 222.028 4.88954 1.22227 0
M  V30 2336 H 221.63 3.73925 -0.0749554 0
M  V30 2337 H 223.922 6.68524 1.09915 0
M  V30 2338 H 224.865 7.07104 -0.375421 0
M  V30 2339 H 225.273 5.61511 0.580167 0
M  V30 2340 N 224.671 0.411399 1.52136 0
M  V30 2341 C 225.917 -0.163888 2.02137 0
M  V30 2342 C 226.25 -1.44597 1.29636 0
M  V30 2343 O 225.525 -1.90272 0.403353 0
M  V30 2344 C 225.808 -0.40927 3.57767 0
M  V30 2345 C 225.661 0.889643 4.40914 0
M  V30 2346 C 226.98 -1.19042 4.23694 0
M  V30 2347 H 224.099 -0.0580896 0.734707 0
M  V30 2348 H 226.741 0.54531 1.82007 0
M  V30 2349 H 224.891 -1.0134 3.7505 0
M  V30 2350 H 226.563 1.52575 4.35337 0
M  V30 2351 H 224.806 1.50011 4.07037 0
M  V30 2352 H 225.477 0.672314 5.4789 0
M  V30 2353 H 227.953 -0.678942 4.10524 0
M  V30 2354 H 226.829 -1.33086 5.32522 0
M  V30 2355 H 227.09 -2.21166 3.82803 0
M  V30 2356 N 226.149 -1.5696 0.141893 0
M  V30 2357 C 227.395 -1.9625 -0.511248 0
M  V30 2358 C 227.728 -1.02654 -1.64851 0
M  V30 2359 O 227.003 -0.0679676 -1.94381 0
M  V30 2360 C 227.286 -3.45285 -1.02227 0
M  V30 2361 C 227.139 -4.49658 0.113138 0
M  V30 2362 C 228.458 -3.96698 -1.90574 0
M  V30 2363 H 225.577 -0.713567 -0.184367 0
M  V30 2364 H 228.219 -1.88698 0.222087 0
M  V30 2365 H 226.369 -3.51852 -1.64719 0
M  V30 2366 H 228.041 -4.55174 0.749302 0
M  V30 2367 H 226.284 -4.26857 0.773026 0
M  V30 2368 H 226.955 -5.51258 -0.286053 0
M  V30 2369 H 229.431 -3.92578 -1.37918 0
M  V30 2370 H 228.307 -5.01453 -2.2324 0
M  V30 2371 H 228.568 -3.3875 -2.84079 0
M  V30 2372 N 227.627 0.131896 -1.57047 0
M  V30 2373 C 228.873 0.838268 -1.85323 0
M  V30 2374 C 229.228 1.78098 -0.727937 0
M  V30 2375 O 228.521 1.89645 0.27304 0
M  V30 2376 C 228.715 1.63703 -3.17704 0
M  V30 2377 C 228.544 0.773167 -4.43004 0
M  V30 2378 C 227.314 0.432956 -5.03442 0
M  V30 2379 C 229.512 0.0966216 -5.14209 0
M  V30 2380 N 227.494 -0.442924 -6.123 0
M  V30 2381 C 228.865 -0.638778 -6.16701 0
M  V30 2382 C 230.92 0.018861 -4.97896 0
M  V30 2383 C 229.623 -1.44462 -7.04644 0
M  V30 2384 C 231.649 -0.773762 -5.86316 0
M  V30 2385 C 231.011 -1.4974 -6.883 0
M  V30 2386 H 227.11 0.284086 -0.728573 0
M  V30 2387 H 229.694 0.102731 -1.94429 0
M  V30 2388 H 227.865 2.3437 -3.09718 0
M  V30 2389 H 229.597 2.28774 -3.33833 0
M  V30 2390 H 226.352 0.772237 -4.67262 0
M  V30 2391 H 226.776 -0.872332 -6.71356 0
M  V30 2392 H 231.418 0.56397 -4.19022 0
M  V30 2393 H 229.136 -2.00093 -7.82936 0
M  V30 2394 H 232.722 -0.83612 -5.75761 0
M  V30 2395 H 231.602 -2.10087 -7.55535 0
M  V30 2396 N 229.106 1.52395 0.401703 0
M  V30 2397 C 230.336 1.70429 1.1678 0
M  V30 2398 C 230.744 0.416702 1.84554 0
M  V30 2399 O 230.087 -0.617697 1.73003 0
M  V30 2400 C 230.149 2.78919 2.26814 0
M  V30 2401 C 229.813 4.20437 1.79113 0
M  V30 2402 C 230.81 5.04028 1.27482 0
M  V30 2403 C 228.495 4.66704 1.85722 0
M  V30 2404 C 230.489 6.31961 0.830913 0
M  V30 2405 C 228.176 5.94625 1.40942 0
M  V30 2406 C 229.174 6.77082 0.897128 0
M  V30 2407 O 228.862 8.02607 0.455822 0
M  V30 2408 H 228.594 0.574272 0.356634 0
M  V30 2409 H 231.148 1.99767 0.477724 0
M  V30 2410 H 229.378 2.44973 2.99207 0
M  V30 2411 H 231.067 2.8548 2.88541 0
M  V30 2412 H 231.833 4.69471 1.21744 0
M  V30 2413 H 227.712 4.0262 2.24539 0
M  V30 2414 H 231.256 6.96271 0.430368 0
M  V30 2415 H 227.153 6.28688 1.46362 0
M  V30 2416 H 227.921 8.16453 0.578457 0
M  V30 2417 N 230.584 -0.659388 1.43143 0
M  V30 2418 C 231.514 -1.78422 1.50625 0
M  V30 2419 C 232.495 -1.66216 0.361443 0
M  V30 2420 O 233.68 -1.85404 0.577834 0
M  V30 2421 C 230.81 -3.16815 1.42287 0
M  V30 2422 C 229.764 -3.43777 2.54954 0
M  V30 2423 C 229.09 -4.81905 2.31671 0
M  V30 2424 C 230.39 -3.39134 3.97222 0
M  V30 2425 H 232.084 -1.72417 2.44771 0
M  V30 2426 H 229.63 -0.828084 1.17808 0
M  V30 2427 H 231.583 -3.95253 1.46127 0
M  V30 2428 H 230.307 -3.23534 0.446435 0
M  V30 2429 H 228.966 -2.67707 2.50457 0
M  V30 2430 H 228.614 -4.85294 1.32284 0
M  V30 2431 H 228.314 -5.00906 3.07192 0
M  V30 2432 H 229.838 -5.62609 2.37284 0
M  V30 2433 H 231.252 -4.07518 4.03239 0
M  V30 2434 H 229.649 -3.69671 4.72719 0
M  V30 2435 H 230.719 -2.37426 4.22797 0
M  V30 2436 N 232.062 -1.29571 -0.897171 0
M  V30 2437 C 233.309 -1.17689 -1.6479 0
M  V30 2438 C 233.637 0.27107 -1.92602 0
M  V30 2439 O 232.892 1.21193 -1.53658 0
M  V30 2440 C 233.191 -1.9382 -3.00281 0
M  V30 2441 C 232.857 -3.43522 -2.92068 0
M  V30 2442 C 231.519 -3.84348 -2.89535 0
M  V30 2443 C 233.871 -4.38906 -2.81089 0
M  V30 2444 C 231.199 -5.18869 -2.73846 0
M  V30 2445 C 233.551 -5.73521 -2.66939 0
M  V30 2446 C 232.215 -6.13601 -2.62774 0
M  V30 2447 H 231.485 -0.430654 -0.603008 0
M  V30 2448 H 234.132 -1.60536 -1.04404 0
M  V30 2449 H 232.437 -1.4357 -3.64547 0
M  V30 2450 H 234.134 -1.82028 -3.57305 0
M  V30 2451 H 230.724 -3.11072 -2.94842 0
M  V30 2452 H 234.908 -4.08315 -2.82121 0
M  V30 2453 H 230.164 -5.4903 -2.69027 0
M  V30 2454 H 234.338 -6.47078 -2.57416 0
M  V30 2455 H 231.965 -7.17786 -2.50375 0
M  V30 2456 N 233.54 1.10788 -1.12088 0
M  V30 2457 C 234.472 2.16816 -0.743213 0
M  V30 2458 C 235.485 1.6119 0.228412 0
M  V30 2459 O 236.674 1.78497 0.0102931 0
M  V30 2460 C 233.774 3.38809 -0.0787313 0
M  V30 2461 C 232.947 4.23885 -1.0789 0
M  V30 2462 C 232.006 5.24334 -0.442713 0
M  V30 2463 O 231.032 5.58497 -1.09864 0
M  V30 2464 N 232.234 5.75079 0.791457 0
M  V30 2465 H 234.999 2.49825 -1.65552 0
M  V30 2466 H 232.56 1.26373 -1.012 0
M  V30 2467 H 234.552 4.03107 0.358766 0
M  V30 2468 H 233.122 3.03805 0.736275 0
M  V30 2469 H 232.342 3.55939 -1.69414 0
M  V30 2470 H 233.63 4.77562 -1.75533 0
M  V30 2471 H 233.028 5.49517 1.3434 0
M  V30 2472 H 231.585 6.4118 1.17183 0
M  V30 2473 N 235.018 0.912232 1.28515 0
M  V30 2474 C 236.267 0.540504 1.94323 0
M  V30 2475 C 236.58 -0.920044 1.72611 0
M  V30 2476 O 237.786 -1.39986 2.32629 0
M  V30 2477 C 236.242 0.915803 3.48053 0
M  V30 2478 C 235.85 2.39598 3.78546 0
M  V30 2479 C 237.594 0.614588 4.20027 0
M  V30 2480 C 235.501 2.71148 5.25578 0
M  V30 2481 H 234.431 0.198418 0.727424 0
M  V30 2482 H 237.082 1.11094 1.46049 0
M  V30 2483 H 235.464 0.274168 3.9505 0
M  V30 2484 H 236.638 3.08422 3.42364 0
M  V30 2485 H 234.953 2.66749 3.1974 0
M  V30 2486 H 237.55 0.827002 5.28266 0
M  V30 2487 H 237.893 -0.447531 4.13887 0
M  V30 2488 H 238.426 1.21462 3.78803 0
M  V30 2489 H 235.165 3.76207 5.36794 0
M  V30 2490 H 234.685 2.0696 5.62963 0
M  V30 2491 H 236.364 2.58072 5.93302 0
M  V30 2492 N 236.496 -1.42363 0.676048 0
M  V30 2493 C 237.742 -2.0182 0.199125 0
M  V30 2494 C 238.075 -1.53339 -1.19168 0
M  V30 2495 O 237.35 -0.736124 -1.80032 0
M  V30 2496 C 237.633 -3.59331 0.235144 0
M  V30 2497 C 237.486 -4.17989 1.66149 0
M  V30 2498 C 238.805 -4.3813 -0.41595 0
M  V30 2499 H 235.924 -0.733293 0.0738311 0
M  V30 2500 H 238.566 -1.69368 0.86107 0
M  V30 2501 H 236.716 -3.87109 -0.328487 0
M  V30 2502 H 238.388 -4.0116 2.27747 0
M  V30 2503 H 236.631 -3.7377 2.20178 0
M  V30 2504 H 237.302 -5.27126 1.63837 0
M  V30 2505 H 239.778 -4.16051 0.0638529 0
M  V30 2506 H 238.654 -5.47717 -0.360115 0
M  V30 2507 H 238.915 -4.16101 -1.49373 0
M  V30 2508 N 237.974 -0.419461 -1.51915 0
M  V30 2509 C 239.199 0.154572 -2.06823 0
M  V30 2510 C 239.624 1.3722 -1.28656 0
M  V30 2511 O 238.982 1.78461 -0.319583 0
M  V30 2512 C 239.03 0.473172 -3.57482 0
M  V30 2513 O 238.134 1.56255 -3.81652 0
M  V30 2514 H 237.475 0.0096924 -0.663929 0
M  V30 2515 H 240.005 -0.595642 -1.95738 0
M  V30 2516 H 240.015 0.728825 -4.01438 0
M  V30 2517 H 238.69 -0.416873 -4.13805 0
M  V30 2518 H 237.267 1.29825 -3.49571 0
M  V30 2519 N 239.452 1.56882 -0.150215 0
M  V30 2520 C 240.415 2.1573 0.774157 0
M  V30 2521 C 241.415 1.0999 1.17298 0
M  V30 2522 O 242.605 1.35613 1.09338 0
M  V30 2523 C 239.737 2.72302 2.05096 0
M  V30 2524 H 240.93 2.98752 0.262201 0
M  V30 2525 H 238.483 1.55985 0.099248 0
M  V30 2526 H 239.218 1.92956 2.6065 0
M  V30 2527 H 239.003 3.49665 1.77416 0
M  V30 2528 H 240.493 3.17632 2.71109 0
M  V30 2529 N 240.93 -0.123565 1.57115 0
M  V30 2530 C 242.176 -0.833386 1.84885 0
M  V30 2531 C 242.509 -1.79742 0.735292 0
M  V30 2532 O 241.784 -1.92764 -0.25925 0
M  V30 2533 C 242.067 -1.5873 3.23228 0
M  V30 2534 C 241.92 -0.643183 4.45178 0
M  V30 2535 C 243.239 -2.54453 3.59085 0
M  V30 2536 H 240.358 -0.301518 0.6725 0
M  V30 2537 H 243 -0.097778 1.89748 0
M  V30 2538 H 241.15 -2.21438 3.19214 0
M  V30 2539 H 242.822 -0.0253015 4.61293 0
M  V30 2540 H 241.065 0.0456139 4.33776 0
M  V30 2541 H 241.736 -1.20724 5.38637 0
M  V30 2542 H 244.212 -2.01853 3.63861 0
M  V30 2543 H 243.088 -3.04238 4.5687 0
M  V30 2544 H 243.349 -3.36906 2.86264 0
M  V30 2545 N 242.408 -1.52605 -0.393616 0
M  V30 2546 C 243.633 -1.71592 -1.16495 0
M  V30 2547 C 244.058 -0.43133 -1.83088 0
M  V30 2548 O 243.416 0.612523 -1.7064 0
M  V30 2549 C 243.464 -2.86318 -2.19213 0
M  V30 2550 O 242.568 -2.52969 -3.257 0
M  V30 2551 H 241.909 -0.570734 -0.33935 0
M  V30 2552 H 244.439 -1.99377 -0.459324 0
M  V30 2553 H 244.449 -3.1168 -2.63286 0
M  V30 2554 H 243.124 -3.79511 -1.7013 0
M  V30 2555 H 241.701 -2.38332 -2.86797 0
M  V30 2556 N 243.887 0.651787 -1.4349 0
M  V30 2557 C 245.127 1.42345 -1.46688 0
M  V30 2558 C 245.491 1.91793 -0.0891023 0
M  V30 2559 O 246.692 2.688 0.00423594 0
M  V30 2560 C 244.963 2.57221 -2.48137 0
M  V30 2561 S 246.522 3.45725 -2.70221 0
M  V30 2562 H 243.34 0.485878 -0.51908 0
M  V30 2563 H 245.942 0.756578 -1.80267 0
M  V30 2564 H 244.646 2.1917 -3.46976 0
M  V30 2565 H 244.177 3.28757 -2.16061 0
M  V30 2566 H 246.192 4.53996 -2.00255 0
M  V30 2567 N 245.365 1.30045 0.890287 0
M  V30 2568 C 246.614 1.17929 1.63633 0
M  V30 2569 C 246.927 -0.266204 1.9378 0
M  V30 2570 O 248.133 -0.508804 2.6669 0
M  V30 2571 C 246.589 2.06317 2.94892 0
M  V30 2572 C 246.197 3.55745 2.72305 0
M  V30 2573 C 247.941 2.0295 3.72843 0
M  V30 2574 C 245.848 4.36205 3.99348 0
M  V30 2575 H 244.778 0.437782 0.613892 0
M  V30 2576 H 247.429 1.54754 0.986075 0
M  V30 2577 H 245.811 1.6237 3.61182 0
M  V30 2578 H 246.985 4.07805 2.1455 0
M  V30 2579 H 245.3 3.6088 2.07737 0
M  V30 2580 H 247.897 2.60319 4.67053 0
M  V30 2581 H 248.24 1.0117 4.0382 0
M  V30 2582 H 248.773 2.4499 3.13408 0
M  V30 2583 H 245.512 5.38659 3.73533 0
M  V30 2584 H 245.032 3.8891 4.56628 0
M  V30 2585 H 246.711 4.47362 4.67415 0
M  V30 2586 N 246.843 -1.10192 1.12674 0
M  V30 2587 C 247.793 -2.14754 0.765801 0
M  V30 2588 C 248.777 -1.59154 -0.236409 0
M  V30 2589 O 249.969 -1.76951 -0.0415261 0
M  V30 2590 C 247.098 -3.42563 0.224827 0
M  V30 2591 C 246.184 -4.05091 1.25548 0
M  V30 2592 N 246.575 -4.42287 2.4539 0
M  V30 2593 C 244.873 -4.32186 1.10142 0
M  V30 2594 C 245.574 -4.91441 3.11224 0
M  V30 2595 N 244.55 -4.88405 2.38666 0
M  V30 2596 H 248.352 -2.41309 1.67772 0
M  V30 2597 H 245.866 -1.27339 1.00789 0
M  V30 2598 H 247.863 -4.16868 -0.0519578 0
M  V30 2599 H 246.523 -3.17467 -0.681515 0
M  V30 2600 H 247.534 -4.33902 2.82754 0
M  V30 2601 H 244.211 -4.16735 0.252587 0
M  V30 2602 H 245.601 -5.29749 4.13298 0
M  V30 2603 N 248.321 -0.919034 -1.28029 0
M  V30 2604 C 249.268 -0.410005 -2.27129 0
M  V30 2605 C 250.238 0.518405 -1.57803 0
M  V30 2606 O 251.423 0.439451 -1.8567 0
M  V30 2607 C 248.563 0.339054 -3.4343 0
M  V30 2608 C 247.676 -0.622468 -4.27492 0
M  V30 2609 C 246.811 0.145567 -5.31001 0
M  V30 2610 C 245.85 -0.809226 -6.06727 0
M  V30 2611 N 244.987 -0.0743728 -7.02061 0
M  V30 2612 H 249.827 -1.26011 -2.70047 0
M  V30 2613 H 247.364 -0.632663 -1.328 0
M  V30 2614 H 249.322 0.789586 -4.0966 0
M  V30 2615 H 247.952 1.15346 -3.01488 0
M  V30 2616 H 247.004 -1.19153 -3.61257 0
M  V30 2617 H 248.316 -1.35252 -4.80113 0
M  V30 2618 H 247.47 0.656417 -6.03139 0
M  V30 2619 H 246.209 0.908643 -4.79161 0
M  V30 2620 H 245.214 -1.3314 -5.33436 0
M  V30 2621 H 246.439 -1.57194 -6.60656 0
M  V30 2622 H 244.385 0.670616 -6.52563 0
M  V30 2623 H 244.302 -0.744157 -7.52329 0
M  V30 2624 H 245.57 0.416109 -7.78389 0
M  V30 2625 N 249.799 1.42003 -0.683588 0
M  V30 2626 C 250.762 2.29191 -0.0198243 0
M  V30 2627 C 251.762 1.43773 0.72013 0
M  V30 2628 O 252.952 1.65061 0.556815 0
M  V30 2629 C 250.084 3.26435 0.982487 0
M  V30 2630 H 251.277 2.8938 -0.787345 0
M  V30 2631 H 248.83 1.49789 -0.446418 0
M  V30 2632 H 249.565 2.71203 1.77819 0
M  V30 2633 H 249.35 3.89449 0.455182 0
M  V30 2634 H 250.84 3.918 1.44508 0
M  V30 2635 N 251.277 0.427512 1.51691 0
M  V30 2636 C 252.525 -0.141948 2.01601 0
M  V30 2637 C 252.846 -1.44067 1.31414 0
M  V30 2638 O 252.116 -1.90763 0.445658 0
M  V30 2639 H 250.696 -0.0554468 0.744939 0
M  V30 2640 H 253.358 0.567968 1.86441 0
M  V30 2641 H 252.454 -0.324913 3.10404 0
M  V30 2642 N 252.755 -1.56801 0.158532 0
M  V30 2643 C 254.004 -1.95665 -0.489702 0
M  V30 2644 C 254.317 -1.04654 -1.65248 0
M  V30 2645 O 255.523 -1.33146 -2.3661 0
M  V30 2646 C 253.979 -3.47874 -0.922582 0
M  V30 2647 C 253.587 -4.47489 0.213893 0
M  V30 2648 C 255.331 -3.95583 -1.53996 0
M  V30 2649 C 253.238 -5.90921 -0.237903 0
M  V30 2650 H 252.168 -0.730516 -0.186716 0
M  V30 2651 H 254.819 -1.81861 0.244722 0
M  V30 2652 H 253.201 -3.57051 -1.71261 0
M  V30 2653 H 254.375 -4.50017 0.991036 0
M  V30 2654 H 252.69 -4.09764 0.740407 0
M  V30 2655 H 255.287 -5.0019 -1.8898 0
M  V30 2656 H 255.63 -3.37789 -2.43319 0
M  V30 2657 H 256.163 -3.8937 -0.814611 0
M  V30 2658 H 252.902 -6.52559 0.620236 0
M  V30 2659 H 252.422 -5.91729 -0.980676 0
M  V30 2660 H 254.101 -6.43352 -0.686067 0
M  V30 2661 N 254.233 0.115231 -1.57178 0
M  V30 2662 C 255.163 1.1423 -2.03651 0
M  V30 2663 C 256.144 1.42967 -0.921655 0
M  V30 2664 O 257.329 1.53343 -1.19162 0
M  V30 2665 C 254.459 2.4675 -2.44401 0
M  V30 2666 C 253.413 2.32467 -3.59365 0
M  V30 2667 C 252.739 3.69984 -3.86026 0
M  V30 2668 C 254.039 1.78203 -4.90959 0
M  V30 2669 H 255.733 0.755749 -2.89705 0
M  V30 2670 H 253.279 0.362093 -1.39373 0
M  V30 2671 H 255.232 3.18854 -2.75517 0
M  V30 2672 H 253.956 2.87302 -1.55322 0
M  V30 2673 H 252.615 1.62811 -3.28463 0
M  V30 2674 H 252.263 4.08028 -2.94147 0
M  V30 2675 H 251.963 3.61279 -4.63412 0
M  V30 2676 H 253.487 4.43587 -4.19599 0
M  V30 2677 H 254.901 2.40128 -5.20587 0
M  V30 2678 H 253.298 1.8031 -5.72371 0
M  V30 2679 H 254.368 0.739876 -4.79222 0
M  V30 2680 N 255.711 1.52812 0.385517 0
M  V30 2681 C 256.661 1.74219 1.47078 0
M  V30 2682 C 257.645 0.59632 1.49442 0
M  V30 2683 O 258.837 0.85428 1.5502 0
M  V30 2684 C 255.966 1.9176 2.84751 0
M  V30 2685 C 255.052 3.12289 2.86943 0
M  V30 2686 N 255.443 4.34575 2.58802 0
M  V30 2687 C 253.741 3.12605 3.1811 0
M  V30 2688 C 254.442 5.162 2.68166 0
M  V30 2689 N 253.418 4.51964 3.02043 0
M  V30 2690 H 257.22 2.6639 1.24152 0
M  V30 2691 H 254.734 1.51166 0.593504 0
M  V30 2692 H 256.731 2.05218 3.62893 0
M  V30 2693 H 255.391 1.00805 3.08656 0
M  V30 2694 H 256.402 4.62649 2.32759 0
M  V30 2695 H 253.079 2.31472 3.47458 0
M  V30 2696 H 254.469 6.23689 2.49923 0
M  V30 2697 N 257.189 -0.644168 1.43834 0
M  V30 2698 C 258.605 -0.960875 1.27434 0
M  V30 2699 C 258.805 -2.00499 0.200618 0
M  V30 2700 O 257.861 -2.49018 -0.417906 0
M  V30 2701 C 259.174 -1.43653 2.64167 0
M  V30 2702 C 260.722 -1.55271 2.71772 0
M  V30 2703 C 261.197 -2.06224 4.08944 0
M  V30 2704 N 262.688 -2.13513 4.11055 0
M  V30 2705 C 263.423 -2.54081 5.14033 0
M  V30 2706 N 262.919 -2.9388 6.27381 0
M  V30 2707 N 264.712 -2.54101 5.01387 0
M  V30 2708 H 256.863 0.0465779 2.12349 0
M  V30 2709 H 259.126 -0.0417638 0.94708 0
M  V30 2710 H 258.832 -0.743706 3.43747 0
M  V30 2711 H 258.706 -2.40993 2.90176 0
M  V30 2712 H 261.093 -2.23653 1.92519 0
M  V30 2713 H 261.174 -0.563395 2.49519 0
M  V30 2714 H 260.818 -1.38441 4.88668 0
M  V30 2715 H 260.748 -3.06003 4.28567 0
M  V30 2716 H 263.239 -1.85493 3.29242 0
M  V30 2717 H 263.552 -3.2361 7.01781 0
M  V30 2718 H 261.897 -2.91663 6.30839 0
M  V30 2719 H 265.088 -2.22391 4.11898 0
M  V30 2720 H 265.261 -2.85394 5.81768 0
M  V30 2721 N 258.668 -1.30515 -0.883378 0
M  V30 2722 C 259.945 -1.10086 -1.6168 0
M  V30 2723 C 260.325 0.349269 -2.08191 0
M  V30 2724 O 259.673 1.34105 -1.85008 0
M  V30 2725 C 259.883 -2.10315 -2.78511 0
M  V30 2726 C 261.231 -2.42119 -3.48803 0
M  V30 2727 O 262.255 -2.08638 -2.88702 0
M  V30 2728 O 261.114 -2.99396 -4.57192 0
M  V30 2729 H 258.208 -0.422907 -0.710689 0
M  V30 2730 H 260.754 -1.41947 -0.930015 0
M  V30 2731 H 259.526 -3.07917 -2.41459 0
M  V30 2732 H 259.149 -1.79282 -3.54886 0
M  V30 2733 N 260.146 1.09593 -1.13257 0
M  V30 2734 C 261.395 1.81105 -0.887917 0
M  V30 2735 C 261.708 1.86563 0.587672 0
M  V30 2736 O 262.914 2.54367 0.949204 0
M  V30 2737 C 261.37 3.25338 -1.53895 0
M  V30 2738 C 260.978 3.28151 -3.04994 0
M  V30 2739 C 262.722 4.01617 -1.37492 0
M  V30 2740 C 260.629 4.66897 -3.6299 0
M  V30 2741 H 259.559 0.678661 -0.328534 0
M  V30 2742 H 262.21 1.23183 -1.36008 0
M  V30 2743 H 260.592 3.8331 -0.994446 0
M  V30 2744 H 261.766 2.79953 -3.66009 0
M  V30 2745 H 260.081 2.65361 -3.20893 0
M  V30 2746 H 262.678 5.04119 -1.78235 0
M  V30 2747 H 263.021 4.15072 -0.31957 0
M  V30 2748 H 263.554 3.50082 -1.88912 0
M  V30 2749 H 260.293 4.58643 -4.68323 0
M  V30 2750 H 259.813 5.15426 -3.06752 0
M  V30 2751 H 261.492 5.3587 -3.62563 0
M  V30 2752 N 261.624 0.925811 1.2754 0
M  V30 2753 C 262.571 0.422045 2.26908 0
M  V30 2754 C 263.541 -0.510029 1.58076 0
M  V30 2755 O 264.726 -0.429599 1.85901 0
M  V30 2756 C 261.866 -0.320837 3.43605 0
M  V30 2757 C 260.979 0.64513 4.27156 0
M  V30 2758 C 260.114 -0.117405 5.3107 0
M  V30 2759 C 259.153 0.841391 6.0629 0
M  V30 2760 N 258.29 0.111604 7.02011 0
M  V30 2761 H 263.13 1.27441 2.69375 0
M  V30 2762 H 260.667 0.639697 1.32462 0
M  V30 2763 H 262.625 -0.76785 4.10073 0
M  V30 2764 H 261.255 -1.13745 3.02096 0
M  V30 2765 H 260.307 1.21067 3.6062 0
M  V30 2766 H 261.619 1.37797 4.79389 0
M  V30 2767 H 260.773 -0.624422 6.03478 0
M  V30 2768 H 259.512 -0.883219 4.79636 0
M  V30 2769 H 258.517 1.35967 5.32722 0
M  V30 2770 H 259.742 1.60696 6.59813 0
M  V30 2771 H 257.688 -0.635999 6.5291 0
M  V30 2772 H 257.605 0.784044 7.51923 0
M  V30 2773 H 258.873 -0.374823 7.78598 0
M  V30 2774 N 263.102 -1.41638 0.69111 0
M  V30 2775 C 264.33 -2.05628 0.22909 0
M  V30 2776 C 264.745 -1.51992 -1.11999 0
M  V30 2777 O 264.102 -0.666322 -1.69901 0
M  V30 2778 C 264.153 -3.61084 0.173283 0
M  V30 2779 O 263.874 -4.12735 1.46907 0
M  V30 2780 C 265.375 -4.42213 -0.310266 0
M  V30 2781 H 262.595 -0.662327 0.107534 0
M  V30 2782 H 265.139 -1.81489 0.942438 0
M  V30 2783 H 263.294 -3.84278 -0.490858 0
M  V30 2784 H 263.708 -5.06743 1.35322 0
M  V30 2785 H 265.182 -5.51194 -0.298196 0
M  V30 2786 H 265.659 -4.1799 -1.34838 0
M  V30 2787 H 266.265 -4.24074 0.322716 0
M  V30 2788 N 264.58 -0.43555 -1.51462 0
M  V30 2789 C 265.51 0.367376 -2.30592 0
M  V30 2790 C 266.491 1.02263 -1.35928 0
M  V30 2791 O 267.676 1.02661 -1.64847 0
M  V30 2792 C 264.806 1.46983 -3.14664 0
M  V30 2793 C 263.76 0.938161 -4.17591 0
M  V30 2794 C 263.086 2.13622 -4.90173 0
M  V30 2795 C 264.386 -0.0261621 -5.22293 0
M  V30 2796 H 266.08 -0.292969 -2.97963 0
M  V30 2797 H 263.626 -0.14234 -1.43295 0
M  V30 2798 H 265.579 2.03873 -3.688 0
M  V30 2799 H 264.303 2.15843 -2.4511 0
M  V30 2800 H 262.962 0.391481 -3.64504 0
M  V30 2801 H 262.61 2.81098 -4.17124 0
M  V30 2802 H 262.31 1.78688 -5.59772 0
M  V30 2803 H 263.834 2.7107 -5.47132 0
M  V30 2804 H 265.248 0.452384 -5.71512 0
M  V30 2805 H 263.645 -0.287992 -5.99409 0
M  V30 2806 H 264.715 -0.963391 -4.75233 0
M  V30 2807 N 266.058 1.56714 -0.166846 0
M  V30 2808 C 267.006 2.19056 0.782123 0
M  V30 2809 C 268 1.15328 1.24079 0
M  V30 2810 O 269.206 1.33537 1.20697 0
M  V30 2811 H 265.581 0.70167 0.270486 0
M  V30 2812 H 267.552 2.97494 0.232322 0
M  V30 2813 C 266.301 2.84206 2.00306 0
M  V30 2814 H 265.624 3.63748 1.65914 0
M  V30 2815 H 267.064 3.31302 2.64604 0
M  V30 2816 C 265.523 1.83744 2.82382 0
M  V30 2817 O 266.053 1.32014 3.79388 0
M  V30 2818 N 264.259 1.52601 2.47308 0
M  V30 2819 H 263.806 1.9486 1.68485 0
M  V30 2820 H 263.764 0.856351 3.02513 0
M  V30 2821 N 267.536 -0.106894 1.57237 0
M  V30 2822 C 268.785 -0.811163 1.8467 0
M  V30 2823 C 269.098 -1.80469 0.754342 0
M  V30 2824 O 270.304 -2.55601 0.915439 0
M  V30 2825 C 268.76 -1.49337 3.27454 0
M  V30 2826 C 268.368 -0.540217 4.44731 0
M  V30 2827 C 270.112 -2.18206 3.64124 0
M  V30 2828 C 268.019 -1.22634 5.78545 0
M  V30 2829 H 266.949 -0.306679 0.688813 0
M  V30 2830 H 269.6 -0.0639887 1.83388 0
M  V30 2831 H 267.982 -2.2876 3.23241 0
M  V30 2832 H 269.156 0.221659 4.60267 0
M  V30 2833 H 267.471 0.042146 4.16379 0
M  V30 2834 H 270.068 -2.70253 4.61376 0
M  V30 2835 H 270.411 -2.96562 2.92158 0
M  V30 2836 H 270.944 -1.45658 3.70174 0
M  V30 2837 H 267.683 -0.483832 6.53712 0
M  V30 2838 H 267.203 -1.95993 5.66874 0
M  V30 2839 H 268.882 -1.75615 6.2271 0
M  V30 2840 N 269.014 -1.53014 -0.377408 0
M  V30 2841 C 270.261 -1.68623 -1.12128 0
M  V30 2842 C 270.589 -0.431997 -1.89642 0
M  V30 2843 O 269.844 0.585855 -1.86725 0
M  V30 2844 C 270.143 -2.87982 -2.11663 0
M  V30 2845 C 269.809 -4.24964 -1.50719 0
M  V30 2846 C 268.471 -4.62217 -1.33825 0
M  V30 2847 C 270.823 -5.10199 -1.06519 0
M  V30 2848 C 268.151 -5.82352 -0.712963 0
M  V30 2849 C 270.503 -6.30969 -0.453955 0
M  V30 2850 C 269.167 -6.66944 -0.272411 0
M  V30 2851 H 268.437 -0.617034 -0.410305 0
M  V30 2852 H 271.084 -1.8718 -0.404484 0
M  V30 2853 H 269.389 -2.63889 -2.89603 0
M  V30 2854 H 271.086 -2.97253 -2.6915 0
M  V30 2855 H 267.676 -3.95626 -1.64858 0
M  V30 2856 H 271.86 -4.81978 -1.18368 0
M  V30 2857 H 267.116 -6.08824 -0.560611 0
M  V30 2858 H 271.29 -6.96324 -0.103217 0
M  V30 2859 H 268.917 -7.59898 0.214181 0
M  V30 2860 N 270.492 0.636531 -1.44174 0
M  V30 2861 C 271.422 1.76003 -1.53444 0
M  V30 2862 C 272.403 1.65619 -0.387841 0
M  V30 2863 O 273.588 1.84461 -0.607257 0
M  V30 2864 C 270.718 3.14511 -1.4731 0
M  V30 2865 C 269.672 3.39677 -2.60391 0
M  V30 2866 C 268.998 4.78159 -2.39308 0
M  V30 2867 C 270.298 3.32772 -4.02567 0
M  V30 2868 H 271.992 1.68501 -2.47483 0
M  V30 2869 H 269.538 0.809237 -1.19111 0
M  V30 2870 H 271.491 3.92878 -1.52397 0
M  V30 2871 H 270.215 3.22783 -0.49785 0
M  V30 2872 H 268.874 2.63688 -2.54684 0
M  V30 2873 H 268.522 4.83128 -1.39988 0
M  V30 2874 H 268.222 4.95956 -3.15122 0
M  V30 2875 H 269.746 5.58762 -2.46205 0
M  V30 2876 H 271.16 4.01051 -4.09672 0
M  V30 2877 H 269.557 3.62104 -4.7854 0
M  V30 2878 H 270.627 2.30669 -4.2652 0
M  V30 2879 N 271.97 1.30982 0.876444 0
M  V30 2880 C 273.198 1.23242 1.6619 0
M  V30 2881 C 273.613 -0.203345 1.87702 0
M  V30 2882 O 272.97 -1.13317 1.43057 0
M  V30 2883 C 273.021 1.96623 3.03351 0
M  V30 2884 O 272.742 3.34594 2.82804 0
M  V30 2885 C 274.243 1.95644 3.97792 0
M  V30 2886 H 271.463 0.426126 0.518322 0
M  V30 2887 H 274.007 1.7275 1.09442 0
M  V30 2888 H 272.162 1.50892 3.56806 0
M  V30 2889 H 272.576 3.71873 3.69879 0
M  V30 2890 H 274.05 2.51511 4.91372 0
M  V30 2891 H 274.527 0.937395 4.2908 0
M  V30 2892 H 275.133 2.41225 3.50272 0
M  V30 2893 N 273.449 -1.08991 1.13837 0
M  V30 2894 C 274.396 -2.15748 0.819835 0
M  V30 2895 C 275.366 -1.64636 -0.220026 0
M  V30 2896 O 276.551 -1.90582 -0.0912757 0
M  V30 2897 C 273.691 -3.4382 0.296913 0
M  V30 2898 C 272.804 -4.0881 1.39636 0
M  V30 2899 C 271.939 -5.24655 0.831314 0
M  V30 2900 C 270.978 -5.81575 1.90886 0
M  V30 2901 N 270.115 -6.88774 1.36142 0
M  V30 2902 H 274.955 -2.42338 1.73426 0
M  V30 2903 H 272.492 -1.18935 0.865613 0
M  V30 2904 H 274.45 -4.17193 -0.0244339 0
M  V30 2905 H 273.08 -3.17535 -0.580628 0
M  V30 2906 H 272.132 -3.33258 1.83422 0
M  V30 2907 H 273.444 -4.47141 2.21058 0
M  V30 2908 H 272.598 -6.04942 0.461515 0
M  V30 2909 H 271.337 -4.87698 -0.013932 0
M  V30 2910 H 270.342 -4.99946 2.28767 0
M  V30 2911 H 271.567 -6.20592 2.75758 0
M  V30 2912 H 269.513 -6.53788 0.538254 0
M  V30 2913 H 269.43 -7.25898 2.11208 0
M  V30 2914 H 270.698 -7.72806 1.01933 0
M  V30 2915 N 274.927 -0.932562 -1.27047 0
M  V30 2916 C 275.89 -0.440064 -2.24936 0
M  V30 2917 C 276.89 0.444071 -1.54547 0
M  V30 2918 O 278.08 0.244465 -1.72476 0
M  V30 2919 C 275.212 0.36678 -3.38921 0
M  V30 2920 H 276.405 -1.305 -2.70018 0
M  V30 2921 H 273.958 -0.713707 -1.39054 0
M  V30 2922 H 274.693 1.25033 -2.99228 0
M  V30 2923 H 274.478 -0.267204 -3.91188 0
M  V30 2924 H 275.968 0.701567 -4.11665 0
M  V30 2925 N 276.405 1.4127 -0.698611 0
M  V30 2926 C 277.353 2.32588 -0.023855 0
M  V30 2927 C 278.347 1.51128 0.765292 0
M  V30 2928 O 279.553 1.67043 0.670571 0
M  V30 2929 H 275.928 0.751918 0.0110871 0
M  V30 2930 H 277.899 2.87167 -0.811031 0
M  V30 2931 C 276.648 3.35947 0.896369 0
M  V30 2932 H 275.971 3.98684 0.298548 0
M  V30 2933 H 277.411 4.02376 1.33676 0
M  V30 2934 C 275.87 2.70076 2.01396 0
M  V30 2935 O 276.4 2.55093 3.10307 0
M  V30 2936 N 274.606 2.28724 1.79259 0
M  V30 2937 H 274.153 2.4111 0.906841 0
M  V30 2938 H 274.111 1.84986 2.54219 0
M  V30 2939 N 277.883 0.443576 1.51229 0
M  V30 2940 C 278.813 -0.355142 2.30783 0
M  V30 2941 C 279.794 -1.0154 1.36468 0
M  V30 2942 O 280.979 -1.01785 1.65389 0
M  V30 2943 C 278.109 -1.45312 3.15439 0
M  V30 2944 C 277.063 -0.916002 4.18083 0
M  V30 2945 C 276.389 -2.1102 4.91299 0
M  V30 2946 C 277.689 0.0538602 5.22272 0
M  V30 2947 H 279.383 0.308767 2.97804 0
M  V30 2948 H 276.929 0.149937 1.43217 0
M  V30 2949 H 278.882 -2.01914 3.69876 0
M  V30 2950 H 277.606 -2.14541 2.46252 0
M  V30 2951 H 276.265 -0.372145 3.64706 0
M  V30 2952 H 275.913 -2.78882 4.18609 0
M  V30 2953 H 275.613 -1.75717 5.60712 0
M  V30 2954 H 277.137 -2.68164 5.48562 0
M  V30 2955 H 278.551 -0.422069 5.71744 0
M  V30 2956 H 276.948 0.319776 5.99247 0
M  V30 2957 H 278.018 0.98858 4.74716 0
M  V30 2958 N 279.361 -1.56624 0.175154 0
M  V30 2959 C 280.61 -1.96173 -0.468921 0
M  V30 2960 C 280.923 -1.06401 -1.64128 0
M  V30 2961 O 282.129 -1.35648 -2.35185 0
M  V30 2962 C 280.585 -3.48833 -0.885633 0
M  V30 2963 C 280.193 -4.47237 0.261343 0
M  V30 2964 C 281.937 -3.97194 -1.49791 0
M  V30 2965 C 279.844 -5.9114 -0.175214 0
M  V30 2966 H 278.774 -0.732455 -0.178958 0
M  V30 2967 H 281.425 -1.81591 0.263997 0
M  V30 2968 H 279.807 -3.58848 -1.67464 0
M  V30 2969 H 280.981 -4.4894 1.03871 0
M  V30 2970 H 279.296 -4.08956 0.783827 0
M  V30 2971 H 281.893 -5.02167 -1.83665 0
M  V30 2972 H 282.236 -3.40351 -2.39722 0
M  V30 2973 H 282.769 -3.90212 -0.773267 0
M  V30 2974 H 279.508 -6.51865 0.689414 0
M  V30 2975 H 279.028 -5.92735 -0.91786 0
M  V30 2976 H 280.707 -6.44044 -0.617792 0
M  V30 2977 N 280.839 0.0985539 -1.57292 0
M  V30 2978 C 281.786 1.11981 -2.01814 0
M  V30 2979 C 282.756 1.39999 -0.89384 0
M  V30 2980 O 283.941 1.5152 -1.15958 0
M  V30 2981 C 281.081 2.43577 -2.44467 0
M  V30 2982 C 280.194 2.2232 -3.70402 0
M  V30 2983 C 279.329 3.4729 -4.01949 0
M  V30 2984 C 278.368 3.2128 -5.21005 0
M  V30 2985 N 277.505 4.38507 -5.48321 0
M  V30 2986 H 282.345 0.733149 -2.88841 0
M  V30 2987 H 279.882 0.350482 -1.42864 0
M  V30 2988 H 281.84 3.20373 -2.6724 0
M  V30 2989 H 280.47 2.80097 -1.60455 0
M  V30 2990 H 279.522 1.36343 -3.55126 0
M  V30 2991 H 280.834 1.99089 -4.57345 0
M  V30 2992 H 279.988 4.32495 -4.25479 0
M  V30 2993 H 278.727 3.73572 -3.13521 0
M  V30 2994 H 277.732 2.34468 -4.97298 0
M  V30 2995 H 278.957 2.96348 -6.11028 0
M  V30 2996 H 276.903 4.64871 -4.62851 0
M  V30 2997 H 276.82 4.18455 -6.29628 0
M  V30 2998 H 278.088 5.24787 -5.76385 0
M  V30 2999 N 282.317 1.53212 0.369288 0
M  V30 3000 C 283.247 1.82365 1.45826 0
M  V30 3001 C 284.228 0.676907 1.56051 0
M  V30 3002 O 285.413 0.926401 1.70679 0
M  V30 3003 C 282.543 2.01023 2.83208 0
M  V30 3004 C 281.497 3.1678 2.8781 0
M  V30 3005 C 280.823 3.20724 4.27832 0
M  V30 3006 C 282.123 4.55447 2.55667 0
M  V30 3007 H 283.817 2.73559 1.21678 0
M  V30 3008 H 281.363 1.3163 0.583911 0
M  V30 3009 H 283.316 2.20001 3.59413 0
M  V30 3010 H 282.04 1.06536 3.08736 0
M  V30 3011 H 280.699 2.97616 2.14056 0
M  V30 3012 H 280.347 2.23882 4.50429 0
M  V30 3013 H 280.047 3.98496 4.31827 0
M  V30 3014 H 281.571 3.41881 5.05915 0
M  V30 3015 H 282.985 4.74611 3.21586 0
M  V30 3016 H 281.382 5.35432 2.70984 0
M  V30 3017 H 282.452 4.60812 1.5093 0
M  V30 3018 N 283.795 -0.628877 1.44509 0
M  V30 3019 C 285.043 -1.38565 1.4712 0
M  V30 3020 C 285.364 -1.94712 0.105899 0
M  V30 3021 O 284.634 -1.75912 -0.862079 0
M  V30 3022 H 283.214 -0.514333 0.541729 0
M  V30 3023 H 285.876 -0.740018 1.80305 0
M  V30 3024 H 284.972 -2.21583 2.19789 0
M  V30 3025 N 285.273 -1.31445 -0.869486 0
M  V30 3026 C 286.55 -1.11795 -1.60503 0
M  V30 3027 C 286.93 0.327168 -2.08549 0
M  V30 3028 O 286.278 1.32135 -1.8642 0
M  V30 3029 C 286.488 -2.13258 -2.76265 0
M  V30 3030 C 287.836 -2.45805 -3.46215 0
M  V30 3031 O 288.86 -2.11688 -2.86473 0
M  V30 3032 O 287.719 -3.04228 -4.5399 0
M  V30 3033 H 284.813 -0.430421 -0.706163 0
M  V30 3034 H 287.359 -1.42925 -0.914907 0
M  V30 3035 H 286.131 -3.10461 -2.3818 0
M  V30 3036 H 285.754 -1.83035 -3.52964 0
M  V30 3037 N 286.751 1.08385 -1.14413 0
M  V30 3038 C 287.981 1.8425 -0.934644 0
M  V30 3039 C 288.389 1.81907 0.520234 0
M  V30 3040 O 287.732 1.22126 1.37226 0
M  V30 3041 C 287.794 3.32853 -1.35828 0
M  V30 3042 C 287.458 3.5893 -2.82875 0
M  V30 3043 C 288.455 3.53756 -3.80989 0
M  V30 3044 C 286.14 3.86934 -3.20293 0
M  V30 3045 C 288.134 3.76216 -5.14529 0
M  V30 3046 C 285.821 4.09047 -4.54008 0
M  V30 3047 C 286.819 4.03682 -5.50936 0
M  V30 3048 O 286.507 4.25214 -6.82238 0
M  V30 3049 H 286.239 0.588502 -0.332628 0
M  V30 3050 H 288.793 1.37792 -1.52324 0
M  V30 3051 H 287.023 3.8007 -0.713019 0
M  V30 3052 H 288.712 3.90154 -1.11957 0
M  V30 3053 H 289.478 3.32135 -3.53428 0
M  V30 3054 H 285.357 3.9023 -2.45442 0
M  V30 3055 H 288.901 3.71943 -5.90173 0
M  V30 3056 H 284.798 4.30151 -4.8129 0
M  V30 3057 H 285.566 4.42619 -6.88499 0
M  V30 3058 N 288.23 0.939286 1.26551 0
M  V30 3059 C 289.478 0.58469 1.93457 0
M  V30 3060 C 289.799 -0.878774 1.74076 0
M  V30 3061 O 289.069 -1.62421 1.09528 0
M  V30 3062 H 287.649 0.21325 0.715914 0
M  V30 3063 H 290.311 1.1942 1.54029 0
M  V30 3064 H 289.407 0.800849 3.0165 0
M  V30 3065 N 289.708 -1.40897 0.706093 0
M  V30 3066 C 290.638 -2.33418 0.0620085 0
M  V30 3067 C 291.619 -1.52385 -0.755827 0
M  V30 3068 O 292.804 -1.80886 -0.706674 0
M  V30 3069 C 289.934 -3.36293 -0.867445 0
M  V30 3070 C 288.888 -4.27716 -0.155932 0
M  V30 3071 C 288.214 -5.2105 -1.20046 0
M  V30 3072 C 289.514 -5.12944 0.984149 0
M  V30 3073 H 291.208 -2.87527 0.83477 0
M  V30 3074 H 288.754 -1.38249 0.402875 0
M  V30 3075 H 290.707 -3.99949 -1.32735 0
M  V30 3076 H 289.431 -2.80556 -1.67199 0
M  V30 3077 H 288.09 -3.65498 0.284047 0
M  V30 3078 H 287.738 -4.61624 -1.99781 0
M  V30 3079 H 287.438 -5.83056 -0.729328 0
M  V30 3080 H 288.962 -5.87584 -1.66066 0
M  V30 3081 H 290.376 -5.70109 0.604048 0
M  V30 3082 H 288.773 -5.83945 1.38304 0
M  V30 3083 H 289.843 -4.49485 1.81911 0
M  V30 3084 N 291.186 -0.45159 -1.50991 0
M  V30 3085 C 292.149 0.341117 -2.26647 0
M  V30 3086 C 293.149 0.937422 -1.30649 0
M  V30 3087 O 294.339 0.809644 -1.54241 0
M  V30 3088 C 291.471 1.48398 -3.06905 0
M  V30 3089 H 292.664 -0.322117 -2.98165 0
M  V30 3090 H 290.217 -0.205122 -1.54948 0
M  V30 3091 H 290.952 2.18284 -2.39838 0
M  V30 3092 H 290.737 1.06241 -3.77432 0
M  V30 3093 H 292.227 2.04367 -3.64176 0
M  V30 3094 N 292.664 1.56529 -0.183458 0
M  V30 3095 C 293.611 2.18546 0.742055 0
M  V30 3096 C 294.581 1.12912 1.2182 0
M  V30 3097 O 295.766 1.41115 1.28418 0
M  V30 3098 C 292.906 2.83977 1.96089 0
M  V30 3099 C 292.019 4.04105 1.52719 0
M  V30 3100 C 291.154 4.57427 2.70063 0
M  V30 3101 C 290.193 5.69938 2.23243 0
M  V30 3102 N 289.33 6.17717 3.33722 0
M  V30 3103 H 294.17 2.97284 0.206432 0
M  V30 3104 H 291.707 1.46823 0.0901571 0
M  V30 3105 H 293.665 3.20077 2.67594 0
M  V30 3106 H 292.295 2.07822 2.47002 0
M  V30 3107 H 291.347 3.73745 0.708436 0
M  V30 3108 H 292.659 4.85513 1.1436 0
M  V30 3109 H 291.813 4.95772 3.49708 0
M  V30 3110 H 290.552 3.75101 3.11689 0
M  V30 3111 H 289.557 5.31133 1.42048 0
M  V30 3112 H 290.782 6.54073 1.82661 0
M  V30 3113 H 288.728 5.38317 3.74902 0
M  V30 3114 H 288.645 6.94146 2.99495 0
M  V30 3115 H 289.913 6.60713 4.13616 0
M  V30 3116 N 294.142 -0.090211 1.57342 0
M  V30 3117 C 295.089 -1.10909 2.02405 0
M  V30 3118 C 296.059 -1.39523 0.901252 0
M  V30 3119 O 297.244 -1.50903 1.1676 0
M  V30 3120 C 294.384 -2.42277 2.45755 0
M  V30 3121 C 293.497 -2.20352 3.71576 0
M  V30 3122 C 292.632 -3.45154 4.03785 0
M  V30 3123 C 291.671 -3.18512 5.22701 0
M  V30 3124 N 290.808 -4.35593 5.50639 0
M  V30 3125 H 295.648 -0.71782 2.89225 0
M  V30 3126 H 293.185 -0.342901 1.43048 0
M  V30 3127 H 295.143 -3.18951 2.68935 0
M  V30 3128 H 293.773 -2.79242 1.61938 0
M  V30 3129 H 292.825 -1.34458 3.55844 0
M  V30 3130 H 294.137 -1.96661 4.58395 0
M  V30 3131 H 293.291 -4.30233 4.27767 0
M  V30 3132 H 292.03 -3.71904 3.15498 0
M  V30 3133 H 291.035 -2.31827 4.98534 0
M  V30 3134 H 292.26 -2.93103 6.12591 0
M  V30 3135 H 290.206 -4.6241 4.6531 0
M  V30 3136 H 290.123 -4.1511 6.31838 0
M  V30 3137 H 291.391 -5.21723 5.7916 0
M  V30 3138 N 295.62 -1.53406 -0.361157 0
M  V30 3139 C 296.55 -1.83136 -1.44857 0
M  V30 3140 C 297.531 -0.685174 -1.5569 0
M  V30 3141 O 298.716 -0.93544 -1.70186 0
M  V30 3142 C 295.846 -2.02522 -2.82138 0
M  V30 3143 C 294.8 -3.18302 -2.86126 0
M  V30 3144 C 294.126 -3.22989 -4.26125 0
M  V30 3145 C 295.426 -4.56796 -2.53248 0
M  V30 3146 H 297.12 -2.74201 -1.20226 0
M  V30 3147 H 294.666 -1.31938 -0.576922 0
M  V30 3148 H 296.619 -2.21904 -3.58241 0
M  V30 3149 H 295.343 -1.08172 -3.08166 0
M  V30 3150 H 294.002 -2.98747 -2.12475 0
M  V30 3151 H 293.65 -2.26267 -4.49235 0
M  V30 3152 H 293.35 -4.00781 -4.29708 0
M  V30 3153 H 294.874 -3.44559 -5.04094 0
M  V30 3154 H 296.288 -4.7631 -3.19064 0
M  V30 3155 H 294.685 -5.36862 -2.68141 0
M  V30 3156 H 295.755 -4.61606 -1.48484 0
M  V30 3157 N 297.098 0.621204 -1.44841 0
M  V30 3158 C 298.046 1.75385 -1.52784 0
M  V30 3159 C 299.04 1.64639 -0.398779 0
M  V30 3160 O 300.246 1.70598 -0.574137 0
M  V30 3161 H 296.621 0.579193 -0.479625 0
M  V30 3162 H 298.592 1.6581 -2.48092 0
M  V30 3163 C 297.341 3.13742 -1.4987 0
M  V30 3164 H 296.664 3.22663 -2.36069 0
M  V30 3165 H 298.104 3.92861 -1.59487 0
M  V30 3166 C 296.563 3.36175 -0.220973 0
M  V30 3167 O 297.093 3.95469 0.704782 0
M  V30 3168 N 295.299 2.90348 -0.120963 0
M  V30 3169 H 294.846 2.42278 -0.875162 0
M  V30 3170 H 294.804 3.05732 0.733168 0
M  V30 3171 N 298.576 1.31904 0.862503 0
M  V30 3172 C 299.801 1.25135 1.65397 0
M  V30 3173 C 300.226 -0.179 1.87246 0
M  V30 3174 O 299.584 -1.1277 1.4196 0
M  V30 3175 C 299.632 2.00832 2.99498 0
M  V30 3176 O 298.736 1.35075 3.89652 0
M  V30 3177 H 298.077 0.431655 0.504549 0
M  V30 3178 H 300.607 1.74094 1.07483 0
M  V30 3179 H 300.617 2.10709 3.49379 0
M  V30 3180 H 299.292 3.04847 2.82916 0
M  V30 3181 H 297.869 1.33696 3.48109 0
M  V30 3182 N 300.054 -1.07777 1.14986 0
M  V30 3183 C 300.964 -2.18404 0.856546 0
M  V30 3184 C 301.98 -1.73211 -0.165485 0
M  V30 3185 O 303.156 -2.01399 0.00755219 0
M  V30 3186 C 300.221 -3.44977 0.34526 0
M  V30 3187 C 299.282 -4.0476 1.43065 0
M  V30 3188 C 298.515 -5.25291 0.943663 0
M  V30 3189 O 298.738 -5.70004 -0.212426 0
M  V30 3190 O 297.672 -5.76638 1.72547 0
M  V30 3191 H 301.498 -2.45978 1.78125 0
M  V30 3192 H 299.083 -1.17033 0.928631 0
M  V30 3193 H 300.965 -4.21348 0.0663671 0
M  V30 3194 H 299.64 -3.18965 -0.551631 0
M  V30 3195 H 298.547 -3.29949 1.76309 0
M  V30 3196 H 299.88 -4.35035 2.30229 0
M  V30 3197 N 301.532 -0.945985 -1.26051 0
M  V30 3198 C 302.762 -0.612136 -1.97323 0
M  V30 3199 C 303.17 0.818171 -1.70595 0
M  V30 3200 O 302.513 1.55777 -0.973613 0
M  V30 3201 C 302.575 -0.780347 -3.50929 0
M  V30 3202 C 302.239 -2.18619 -4.01317 0
M  V30 3203 C 303.236 -3.16209 -4.12683 0
M  V30 3204 C 300.921 -2.50805 -4.35203 0
M  V30 3205 C 302.915 -4.44085 -4.57238 0
M  V30 3206 C 300.602 -3.78912 -4.79446 0
M  V30 3207 C 301.6 -4.75365 -4.90425 0
M  V30 3208 O 301.288 -6.01191 -5.3369 0
M  V30 3209 H 301.02 -0.229134 -0.635982 0
M  V30 3210 H 303.574 -1.27036 -1.61404 0
M  V30 3211 H 301.804 -0.0649864 -3.86645 0
M  V30 3212 H 303.493 -0.448842 -4.03411 0
M  V30 3213 H 304.259 -2.92668 -3.86744 0
M  V30 3214 H 300.138 -1.76463 -4.2589 0
M  V30 3215 H 303.682 -5.19373 -4.65723 0
M  V30 3216 H 299.579 -4.02265 -5.0483 0
M  V30 3217 H 300.347 -6.04442 -5.51899 0
M  V30 3218 N 303.011 1.40521 -0.713556 0
M  V30 3219 C 304.236 2.05759 -0.26035 0
M  V30 3220 C 304.661 1.53403 1.08854 0
M  V30 3221 O 304.019 0.668535 1.68524 0
M  V30 3222 C 304.067 3.59745 -0.248122 0
M  V30 3223 O 303.171 4.05123 0.77131 0
M  V30 3224 H 302.512 0.652564 -0.122703 0
M  V30 3225 H 305.042 1.79958 -0.973467 0
M  V30 3226 H 305.052 4.07911 -0.0851129 0
M  V30 3227 H 303.727 3.97218 -1.2325 0
M  V30 3228 H 302.304 3.68422 0.57619 0
M  V30 3229 N 304.489 0.459591 1.5075 0
M  V30 3230 C 305.422 -0.386257 2.24907 0
M  V30 3231 C 306.4 -1.006 1.27744 0
M  V30 3232 O 307.584 -1.04416 1.56938 0
M  V30 3233 C 304.711 -1.54021 3.01654 0
M  V30 3234 C 303.757 -1.03898 4.13651 0
M  V30 3235 S 304.59 0.0370501 5.35487 0
M  V30 3236 C 305.746 -1.12105 6.15779 0
M  V30 3237 H 305.979 0.243272 2.96303 0
M  V30 3238 H 303.512 0.244339 1.52454 0
M  V30 3239 H 305.47 -2.20163 3.46466 0
M  V30 3240 H 304.131 -2.14121 2.29806 0
M  V30 3241 H 303.324 -1.90254 4.66711 0
M  V30 3242 H 302.926 -0.45545 3.71216 0
M  V30 3243 H 305.218 -2.03501 6.46215 0
M  V30 3244 H 306.161 -0.62995 7.05292 0
M  V30 3245 H 306.569 -1.36967 5.47631 0
M  V30 3246 N 305.967 -1.56429 0.191757 0
M  V30 3247 C 306.93 -2.17707 -0.716688 0
M  V30 3248 C 307.93 -1.13061 -1.14341 0
M  V30 3249 O 309.12 -1.38464 -1.05704 0
M  V30 3250 C 306.252 -2.77644 -1.97804 0
M  V30 3251 H 307.445 -2.99342 -0.1829 0
M  V30 3252 H 304.998 -1.56193 -0.0578566 0
M  V30 3253 H 305.733 -1.99799 -2.55443 0
M  V30 3254 H 305.518 -3.54246 -1.68083 0
M  V30 3255 H 307.008 -3.24708 -2.62592 0
M  V30 3256 N 307.445 0.0818655 -1.57387 0
M  V30 3257 C 308.355 1.11642 -2.06333 0
M  V30 3258 C 309.371 1.43033 -0.99083 0
M  V30 3259 O 310.547 1.53411 -1.30488 0
M  V30 3260 C 307.612 2.41342 -2.48907 0
M  V30 3261 C 306.673 2.17014 -3.7041 0
M  V30 3262 C 305.906 3.4053 -4.10944 0
M  V30 3263 O 306.129 4.4927 -3.51444 0
M  V30 3264 O 305.063 3.29336 -5.03807 0
M  V30 3265 H 308.889 0.730657 -2.9478 0
M  V30 3266 H 306.474 0.295301 -1.46452 0
M  V30 3267 H 308.356 3.17691 -2.76858 0
M  V30 3268 H 307.031 2.79319 -1.63593 0
M  V30 3269 H 305.938 1.38403 -3.47556 0
M  V30 3270 H 307.271 1.83923 -4.56545 0
M  V30 3271 N 308.923 1.53595 0.353017 0
M  V30 3272 C 310.151 1.74311 1.1146 0
M  V30 3273 C 310.566 0.477854 1.82653 0
M  V30 3274 O 309.923 -0.549977 1.74016 0
M  V30 3275 C 309.974 2.91694 2.13534 0
M  V30 3276 O 309.695 4.13325 1.45238 0
M  V30 3277 C 311.196 3.24384 3.02142 0
M  V30 3278 H 308.416 0.582669 0.332773 0
M  V30 3279 H 310.96 2.00386 0.408107 0
M  V30 3280 H 309.115 2.67977 2.79763 0
M  V30 3281 H 309.529 4.79148 2.13349 0
M  V30 3282 H 311.003 4.09893 3.69718 0
M  V30 3283 H 311.48 2.40282 3.67643 0
M  V30 3284 H 312.086 3.50073 2.41514 0
M  V30 3285 N 310.401 -0.613514 1.45168 0
M  V30 3286 C 311.331 -1.7354 1.56225 0
M  V30 3287 C 312.312 -1.64981 0.41414 0
M  V30 3288 O 313.497 -1.83472 0.636526 0
M  V30 3289 C 310.627 -3.12128 1.52295 0
M  V30 3290 C 309.581 -3.35491 2.65762 0
M  V30 3291 C 308.907 -4.74291 2.46885 0
M  V30 3292 C 310.207 -3.26325 4.0781 0
M  V30 3293 H 311.901 -1.64543 2.50132 0
M  V30 3294 H 309.447 -0.790185 1.20383 0
M  V30 3295 H 311.4 -3.90404 1.58628 0
M  V30 3296 H 310.124 -3.2195 0.549139 0
M  V30 3297 H 308.783 -2.59603 2.58847 0
M  V30 3298 H 308.431 -4.80839 1.47657 0
M  V30 3299 H 308.131 -4.9088 3.22972 0
M  V30 3300 H 309.655 -5.54775 2.55063 0
M  V30 3301 H 311.069 -3.94483 4.16 0
M  V30 3302 H 309.466 -3.54445 4.8424 0
M  V30 3303 H 310.536 -2.23855 4.30136 0
M  V30 3304 N 311.879 -1.3236 -0.855495 0
M  V30 3305 C 313.125 -1.23054 -1.612 0
M  V30 3306 C 313.458 0.207404 -1.93089 0
M  V30 3307 O 312.733 1.14432 -1.57275 0
M  V30 3308 C 313.016 -2.08937 -2.93287 0
M  V30 3309 C 312.869 -3.61105 -2.68185 0
M  V30 3310 C 314.188 -1.94986 -3.94549 0
M  V30 3311 H 311.307 -0.448364 -0.584926 0
M  V30 3312 H 313.949 -1.62297 -0.987917 0
M  V30 3313 H 312.099 -1.75599 -3.46551 0
M  V30 3314 H 313.771 -4.04652 -2.21483 0
M  V30 3315 H 312.014 -3.83813 -2.02164 0
M  V30 3316 H 312.685 -4.16522 -3.62234 0
M  V30 3317 H 315.161 -2.24189 -3.5054 0
M  V30 3318 H 314.037 -2.57356 -4.84829 0
M  V30 3319 H 314.298 -0.917263 -4.3248 0
M  V30 3320 N 313.357 1.07166 -1.15556 0
M  V30 3321 C 314.605 1.79443 -0.929764 0
M  V30 3322 C 314.926 1.87246 0.544414 0
M  V30 3323 O 314.196 1.37473 1.39564 0
M  V30 3324 H 312.776 0.664625 -0.341003 0
M  V30 3325 H 315.438 1.29499 -1.45657 0
M  V30 3326 H 314.534 2.81832 -1.34079 0
M  V30 3327 N 314.835 0.952656 1.25548 0
M  V30 3328 C 316.063 0.623496 1.97282 0
M  V30 3329 C 316.478 -0.803987 1.70826 0
M  V30 3330 O 315.835 -1.53755 0.983147 0
M  V30 3331 C 315.886 0.870209 3.5087 0
M  V30 3332 O 315.607 2.24156 3.76412 0
M  V30 3333 C 317.108 0.553164 4.39835 0
M  V30 3334 H 314.328 0.233931 0.628902 0
M  V30 3335 H 316.872 1.27649 1.59768 0
M  V30 3336 H 315.027 0.263652 3.86502 0
M  V30 3337 H 315.441 2.31021 4.70882 0
M  V30 3338 H 316.915 0.776342 5.46513 0
M  V30 3339 H 317.392 -0.512215 4.36203 0
M  V30 3340 H 317.998 1.13896 4.09766 0
M  V30 3341 N 316.313 -1.40141 0.720998 0
M  V30 3342 C 317.724 -1.83678 0.334553 0
M  V30 3343 C 318.075 -1.6027 -1.13173 0
M  V30 3344 O 317.2 -1.08643 -1.87152 0
M  V30 3345 C 317.795 -3.33437 0.600437 0
M  V30 3346 C 316.354 -3.75447 0.267642 0
M  V30 3347 C 315.501 -2.63296 0.870097 0
M  V30 3348 H 318.452 -1.29331 0.919732 0
M  V30 3349 H 318.473 -3.80269 -0.132517 0
M  V30 3350 H 317.985 -3.50442 1.66768 0
M  V30 3351 H 316.086 -3.64035 -0.794329 0
M  V30 3352 H 316.199 -4.73344 0.74042 0
M  V30 3353 H 314.563 -2.52954 0.297739 0
M  V30 3354 H 315.346 -2.83112 1.94172 0
M  V30 3355 N 317.792 -0.46758 -1.50504 0
M  V30 3356 C 319.022 0.086288 -2.0642 0
M  V30 3357 C 319.43 1.34369 -1.33197 0
M  V30 3358 O 318.773 1.79431 -0.393747 0
M  V30 3359 C 318.835 0.443846 -3.5675 0
M  V30 3360 C 318.499 -0.711035 -4.51435 0
M  V30 3361 C 319.496 -1.59205 -4.94924 0
M  V30 3362 C 317.181 -0.900363 -4.94165 0
M  V30 3363 C 319.175 -2.64683 -5.79846 0
M  V30 3364 C 316.862 -1.95837 -5.7887 0
M  V30 3365 C 317.86 -2.82997 -6.21612 0
M  V30 3366 O 317.548 -3.86977 -7.0463 0
M  V30 3367 H 317.28 -0.00217814 -0.675996 0
M  V30 3368 H 319.834 -0.654346 -1.94698 0
M  V30 3369 H 318.064 1.23762 -3.6636 0
M  V30 3370 H 319.753 0.932386 -3.95046 0
M  V30 3371 H 320.519 -1.45745 -4.62583 0
M  V30 3372 H 316.398 -0.231427 -4.60419 0
M  V30 3373 H 319.942 -3.32745 -6.13128 0
M  V30 3374 H 315.839 -2.09305 -6.10624 0
M  V30 3375 H 316.607 -3.83923 -7.22873 0
M  V30 3376 N 319.27 1.56325 -0.20005 0
M  V30 3377 C 320.5 2.01811 0.442232 0
M  V30 3378 C 320.908 1.07932 1.55394 0
M  V30 3379 O 320.251 0.0772685 1.83537 0
M  V30 3380 C 320.313 3.43685 1.05457 0
M  V30 3381 C 319.977 4.56928 0.0809833 0
M  V30 3382 C 320.974 5.15009 -0.711471 0
M  V30 3383 C 318.659 5.0229 -0.0315364 0
M  V30 3384 C 320.653 6.16904 -1.60336 0
M  V30 3385 C 318.34 6.04028 -0.926981 0
M  V30 3386 C 319.338 6.6121 -1.71146 0
M  V30 3387 O 319.026 7.60971 -2.59189 0
M  V30 3388 H 318.758 0.666173 0.114848 0
M  V30 3389 H 321.312 2.03085 -0.307511 0
M  V30 3390 H 319.542 3.39413 1.85299 0
M  V30 3391 H 321.231 3.72948 1.60201 0
M  V30 3392 H 321.997 4.80827 -0.634873 0
M  V30 3393 H 317.876 4.57476 0.568902 0
M  V30 3394 H 321.42 6.61464 -2.21611 0
M  V30 3395 H 317.317 6.37634 -1.00468 0
M  V30 3396 H 318.085 7.7841 -2.53023 0
M  V30 3397 N 320.748 -0.0735177 1.57428 0
M  V30 3398 C 321.681 -1.11932 1.98863 0
M  V30 3399 C 322.659 -1.37666 0.865266 0
M  V30 3400 O 323.843 -1.51068 1.12742 0
M  V30 3401 C 320.97 -2.46403 2.32386 0
M  V30 3402 C 320.016 -2.36815 3.54713 0
M  V30 3403 S 320.849 -1.76392 5.05614 0
M  V30 3404 C 322.005 -3.12444 5.42337 0
M  V30 3405 H 322.238 -0.766212 2.87257 0
M  V30 3406 H 319.771 -0.281987 1.51803 0
M  V30 3407 H 321.729 -3.23755 2.52375 0
M  V30 3408 H 320.39 -2.78876 1.44524 0
M  V30 3409 H 319.583 -3.35977 3.7568 0
M  V30 3410 H 319.185 -1.67598 3.34345 0
M  V30 3411 H 321.477 -4.08753 5.40303 0
M  V30 3412 H 322.42 -2.96258 6.43146 0
M  V30 3413 H 322.828 -3.1297 4.69798 0
M  V30 3414 N 322.226 -1.5378 -0.344866 0
M  V30 3415 C 323.451 -1.75211 -1.10977 0
M  V30 3416 C 323.876 -0.48936 -1.81623 0
M  V30 3417 O 323.234 0.557925 -1.72502 0
M  V30 3418 C 323.282 -2.93147 -2.09993 0
M  V30 3419 O 322.386 -2.63203 -3.17487 0
M  V30 3420 H 321.727 -0.581241 -0.321021 0
M  V30 3421 H 324.257 -2.00738 -0.395661 0
M  V30 3422 H 324.267 -3.19898 -2.53237 0
M  V30 3423 H 322.942 -3.84731 -1.5797 0
M  V30 3424 H 321.519 -2.47336 -2.79069 0
M  V30 3425 N 323.704 0.605807 -1.45491 0
M  V30 3426 C 325.115 1.18777 -1.44045 0
M  V30 3427 C 325.466 1.95471 -0.169001 0
M  V30 3428 O 324.591 2.0374 0.729324 0
M  V30 3429 C 325.186 2.16064 -2.60963 0
M  V30 3430 C 323.745 2.69633 -2.62631 0
M  V30 3431 C 322.892 1.45072 -2.36325 0
M  V30 3432 H 325.843 0.395017 -1.53705 0
M  V30 3433 H 325.864 2.9913 -2.35163 0
M  V30 3434 H 325.376 1.60217 -3.53486 0
M  V30 3435 H 323.477 3.29414 -1.74119 0
M  V30 3436 H 323.59 3.13944 -3.61906 0
M  V30 3437 H 321.954 1.74089 -1.85917 0
M  V30 3438 H 322.737 0.910899 -3.30995 0
M  V30 3439 N 325.182 1.32811 0.848464 0
M  V30 3440 C 326.092 1.24278 1.98978 0
M  V30 3441 C 327.108 0.155176 1.73307 0
M  V30 3442 O 328.284 0.376999 1.9784 0
M  V30 3443 C 325.349 0.972444 3.32783 0
M  V30 3444 C 324.41 2.14911 3.71634 0
M  V30 3445 C 323.643 1.89157 4.99054 0
M  V30 3446 O 323.866 0.837165 5.64223 0
M  V30 3447 O 322.8 2.75433 5.35183 0
M  V30 3448 H 326.626 2.20238 2.09115 0
M  V30 3449 H 324.211 1.12762 0.980052 0
M  V30 3450 H 326.093 0.838432 4.12975 0
M  V30 3451 H 324.768 0.043051 3.23671 0
M  V30 3452 H 323.675 2.33862 2.91992 0
M  V30 3453 H 325.008 3.06151 3.85399 0
M  V30 3454 N 326.66 -1.06551 1.16123 0
M  V30 3455 C 327.59 -2.15935 0.88851 0
M  V30 3456 C 328.571 -1.69306 -0.164135 0
M  V30 3457 O 329.756 -1.94193 -0.0167857 0
M  V30 3458 C 326.886 -3.45149 0.385942 0
M  V30 3459 C 325.84 -4.05271 1.3762 0
M  V30 3460 C 325.166 -5.29664 0.732137 0
M  V30 3461 C 326.466 -4.44355 2.74493 0
M  V30 3462 H 328.16 -2.39006 1.80323 0
M  V30 3463 H 325.706 -1.14866 0.868435 0
M  V30 3464 H 327.659 -4.21004 0.182647 0
M  V30 3465 H 326.383 -3.21689 -0.564274 0
M  V30 3466 H 325.042 -3.3147 1.56599 0
M  V30 3467 H 324.69 -5.02499 -0.224483 0
M  V30 3468 H 324.39 -5.70848 1.39307 0
M  V30 3469 H 325.914 -6.08218 0.538802 0
M  V30 3470 H 327.328 -5.11303 2.59311 0
M  V30 3471 H 325.725 -4.96515 3.37035 0
M  V30 3472 H 326.795 -3.55339 3.29943 0
M  V30 3473 N 328.138 -0.959301 -1.25041 0
M  V30 3474 C 329.378 -0.624343 -1.94631 0
M  V30 3475 C 329.742 0.82403 -1.73418 0
M  V30 3476 O 330.943 1.26881 -2.3697 0
M  V30 3477 C 329.214 -0.978805 -3.43736 0
M  V30 3478 S 330.773 -0.757127 -4.32219 0
M  V30 3479 H 327.591 -0.229327 -0.673001 0
M  V30 3480 H 330.193 -1.23447 -1.51595 0
M  V30 3481 H 328.897 -2.02997 -3.56679 0
M  V30 3482 H 328.428 -0.359117 -3.91757 0
M  V30 3483 H 330.443 0.369759 -4.9482 0
M  V30 3484 N 329.616 1.39756 -0.72842 0
M  V30 3485 C 330.548 2.29157 -0.0446202 0
M  V30 3486 C 331.561 1.46484 0.710367 0
M  V30 3487 O 332.75 1.69632 0.55562 0
M  V30 3488 C 329.85 3.24987 0.961071 0
M  V30 3489 C 329.023 4.36572 0.268967 0
M  V30 3490 C 328.082 5.12756 1.18184 0
M  V30 3491 O 327.108 5.6534 0.661794 0
M  V30 3492 N 328.31 5.23331 2.51206 0
M  V30 3493 H 331.075 2.88482 -0.812295 0
M  V30 3494 H 328.636 1.51265 -0.577098 0
M  V30 3495 H 330.628 3.72827 1.57423 0
M  V30 3496 H 329.198 2.66739 1.63 0
M  V30 3497 H 328.418 3.90694 -0.524574 0
M  V30 3498 H 329.706 5.08363 -0.210934 0
M  V30 3499 H 329.104 4.82116 2.9594 0
M  V30 3500 H 327.661 5.74634 3.07634 0
M  V30 3501 N 331.094 0.475555 1.50254 0
M  V30 3502 C 332.342 -0.077738 2.0195 0
M  V30 3503 C 332.663 -1.39813 1.35931 0
M  V30 3504 O 331.933 -1.89249 0.506123 0
M  V30 3505 H 330.513 -0.031719 0.746326 0
M  V30 3506 H 333.175 0.626995 1.84539 0
M  V30 3507 H 332.271 -0.225995 3.11281 0
M  V30 3508 N 332.573 -1.56217 0.208337 0
M  V30 3509 C 333.819 -1.98242 -0.427552 0
M  V30 3510 C 334.152 -1.09554 -1.60348 0
M  V30 3511 O 333.427 -0.15035 -1.93918 0
M  V30 3512 C 333.71 -3.4931 -0.874907 0
M  V30 3513 C 333.563 -4.48773 0.303751 0
M  V30 3514 C 334.882 -4.04424 -1.73577 0
M  V30 3515 H 332.001 -0.720744 -0.153936 0
M  V30 3516 H 334.643 -1.87586 0.30192 0
M  V30 3517 H 332.793 -3.58522 -1.49648 0
M  V30 3518 H 334.465 -4.51586 0.941682 0
M  V30 3519 H 332.708 -4.23194 0.953375 0
M  V30 3520 H 333.379 -5.51976 -0.0519883 0
M  V30 3521 H 335.855 -3.98075 -1.21143 0
M  V30 3522 H 334.731 -5.1047 -2.01771 0
M  V30 3523 H 334.992 -3.50494 -2.69456 0
M  V30 3524 N 334.051 0.0651679 -1.57465 0
M  V30 3525 C 334.998 1.07675 -2.04144 0
M  V30 3526 C 335.968 1.38071 -0.923335 0
M  V30 3527 O 337.153 1.49026 -1.19146 0
M  V30 3528 C 334.293 2.38337 -2.49579 0
M  V30 3529 C 333.406 2.14413 -3.75035 0
M  V30 3530 C 332.541 3.38686 -4.09225 0
M  V30 3531 C 331.58 3.10156 -5.27702 0
M  V30 3532 N 330.717 4.26778 -5.57499 0
M  V30 3533 H 335.557 0.671716 -2.90331 0
M  V30 3534 H 333.094 0.3201 -1.43575 0
M  V30 3535 H 335.052 3.14632 -2.73975 0
M  V30 3536 H 333.682 2.7663 -1.6636 0
M  V30 3537 H 332.734 1.2878 -3.57939 0
M  V30 3538 H 334.046 1.89344 -4.61466 0
M  V30 3539 H 333.2 4.23373 -4.34558 0
M  V30 3540 H 331.939 3.66837 -3.21374 0
M  V30 3541 H 330.944 2.23866 -5.02159 0
M  V30 3542 H 332.169 2.8332 -6.17176 0
M  V30 3543 H 330.115 4.54948 -4.72608 0
M  V30 3544 H 330.032 4.05005 -6.38362 0
M  V30 3545 H 331.3 5.12443 -5.87386 0
M  V30 3546 N 335.529 1.53961 0.336706 0
M  V30 3547 C 336.759 1.75229 1.09446 0
M  V30 3548 C 337.167 0.494602 1.82621 0
M  V30 3549 O 336.51 -0.543764 1.75468 0
M  V30 3550 C 336.572 2.88288 2.1478 0
M  V30 3551 C 336.236 4.27656 1.6112 0
M  V30 3552 C 337.233 5.08981 1.0599 0
M  V30 3553 C 334.918 4.74161 1.6576 0
M  V30 3554 C 336.912 6.34916 0.562129 0
M  V30 3555 C 334.599 6.00067 1.15595 0
M  V30 3556 C 335.597 6.80278 0.609147 0
M  V30 3557 O 335.285 8.03818 0.114999 0
M  V30 3558 H 335.017 0.588881 0.331956 0
M  V30 3559 H 337.571 2.01614 0.392566 0
M  V30 3560 H 335.801 2.57443 2.88548 0
M  V30 3561 H 337.49 2.97461 2.76174 0
M  V30 3562 H 338.256 4.74213 1.01722 0
M  V30 3563 H 334.135 4.11781 2.07261 0
M  V30 3564 H 337.679 6.9747 0.134668 0
M  V30 3565 H 333.576 6.3433 1.19566 0
M  V30 3566 H 334.344 8.18172 0.231651 0
M  V30 3567 N 337.007 -0.598083 1.45811 0
M  V30 3568 C 337.955 -1.72932 1.55555 0
M  V30 3569 C 338.949 -1.63984 0.424921 0
M  V30 3570 O 340.155 -1.69663 0.601205 0
M  V30 3571 H 336.53 -0.571489 0.488779 0
M  V30 3572 H 338.501 -1.61842 2.50699 0
M  V30 3573 C 337.25 -3.11318 1.54843 0
M  V30 3574 H 336.573 -3.18867 2.41172 0
M  V30 3575 H 338.013 -3.90274 1.65717 0
M  V30 3576 C 336.472 -3.3578 0.274427 0
M  V30 3577 O 337.002 -3.9654 -0.641778 0
M  V30 3578 N 335.208 -2.90119 0.167139 0
M  V30 3579 H 334.755 -2.40855 0.913596 0
M  V30 3580 H 334.713 -3.0686 -0.684435 0
M  V30 3581 N 338.485 -1.33259 -0.841409 0
M  V30 3582 C 339.732 -1.24572 -1.5965 0
M  V30 3583 C 340.06 0.189137 -1.93578 0
M  V30 3584 O 339.315 1.14566 -1.5866 0
M  V30 3585 C 339.614 -2.06381 -2.9179 0
M  V30 3586 C 339.28 -3.556 -2.77235 0
M  V30 3587 C 337.942 -3.96282 -2.72973 0
M  V30 3588 C 340.294 -4.50433 -2.62221 0
M  V30 3589 C 337.622 -5.30017 -2.51592 0
M  V30 3590 C 339.974 -5.84327 -2.42374 0
M  V30 3591 C 338.638 -6.24194 -2.36512 0
M  V30 3592 H 337.908 -0.455842 -0.5842 0
M  V30 3593 H 340.555 -1.6482 -0.975016 0
M  V30 3594 H 338.86 -1.58903 -3.5813 0
M  V30 3595 H 340.557 -1.97019 -3.49263 0
M  V30 3596 H 337.147 -3.23298 -2.81384 0
M  V30 3597 H 341.331 -4.19914 -2.64549 0
M  V30 3598 H 336.587 -5.59947 -2.45499 0
M  V30 3599 H 340.761 -6.57414 -2.29739 0
M  V30 3600 H 338.388 -7.27759 -2.19706 0
M  V30 3601 N 339.963 1.05934 -1.16686 0
M  V30 3602 C 340.91 2.13499 -0.876748 0
M  V30 3603 C 341.88 1.65162 0.176299 0
M  V30 3604 O 343.065 1.90757 0.0407143 0
M  V30 3605 C 340.205 3.42912 -0.387967 0
M  V30 3606 C 339.318 4.04964 -1.50426 0
M  V30 3607 C 338.453 5.22266 -0.970125 0
M  V30 3608 C 337.492 5.76309 -2.06238 0
M  V30 3609 N 336.629 6.84922 -1.54356 0
M  V30 3610 H 341.469 2.37654 -1.7979 0
M  V30 3611 H 339.006 1.16598 -0.896843 0
M  V30 3612 H 340.964 4.17111 -0.086186 0
M  V30 3613 H 339.594 3.18963 0.496235 0
M  V30 3614 H 338.646 3.28277 -1.92193 0
M  V30 3615 H 339.958 4.41122 -2.32836 0
M  V30 3616 H 339.112 6.03506 -0.621743 0
M  V30 3617 H 337.851 4.87564 -0.115377 0
M  V30 3618 H 336.856 4.93704 -2.41942 0
M  V30 3619 H 338.081 6.13062 -2.92115 0
M  V30 3620 H 336.027 6.52131 -0.711406 0
M  V30 3621 H 335.944 7.20043 -2.30379 0
M  V30 3622 H 337.212 7.69832 -1.22387 0
M  V30 3623 N 341.441 0.965919 1.2453 0
M  V30 3624 C 342.666 0.643971 1.97149 0
M  V30 3625 C 343.091 -0.779487 1.71189 0
M  V30 3626 O 342.449 -1.5288 0.974553 0
M  V30 3627 C 342.497 0.922557 3.48599 0
M  V30 3628 O 341.601 0.00707672 4.12399 0
M  V30 3629 H 340.942 0.243647 0.617683 0
M  V30 3630 H 343.472 1.29558 1.58353 0
M  V30 3631 H 343.482 0.853373 3.98976 0
M  V30 3632 H 342.157 1.95996 3.66822 0
M  V30 3633 H 340.734 0.12943 3.72675 0
M  V30 3634 N 342.919 -1.39368 0.735821 0
M  V30 3635 C 344.196 -1.94465 0.210395 0
M  V30 3636 C 344.576 -1.67254 -1.28799 0
M  V30 3637 O 343.924 -1.00123 -2.05396 0
M  V30 3638 C 344.134 -3.4472 0.544897 0
M  V30 3639 C 345.482 -4.21708 0.494689 0
M  V30 3640 O 346.506 -3.52922 0.482136 0
M  V30 3641 O 345.365 -5.44299 0.489947 0
M  V30 3642 H 342.459 -0.826096 0.0386666 0
M  V30 3643 H 345.005 -1.48863 0.814735 0
M  V30 3644 H 343.777 -3.57963 1.58045 0
M  V30 3645 H 343.4 -3.97502 -0.08837 0
M  V30 3646 N 344.397 -0.483516 -1.5 0
M  V30 3647 C 345.646 0.0689102 -2.01582 0
M  V30 3648 C 345.959 1.39655 -1.36952 0
M  V30 3649 O 347.165 2.03465 -1.79762 0
M  V30 3650 C 345.621 0.173302 -3.59483 0
M  V30 3651 C 345.229 -1.14665 -4.33077 0
M  V30 3652 C 346.973 0.677024 -4.19066 0
M  V30 3653 C 344.88 -1.00537 -5.82792 0
M  V30 3654 H 343.81 0.0295277 -0.753422 0
M  V30 3655 H 346.461 -0.620295 -1.72698 0
M  V30 3656 H 344.843 0.926569 -3.85007 0
M  V30 3657 H 346.017 -1.91184 -4.19268 0
M  V30 3658 H 344.332 -1.58244 -3.85159 0
M  V30 3659 H 346.929 0.799952 -5.28682 0
M  V30 3660 H 347.272 1.67151 -3.81269 0
M  V30 3661 H 347.805 -0.0192083 -3.97795 0
M  V30 3662 H 344.544 -1.9736 -6.25083 0
M  V30 3663 H 344.064 -0.280776 -5.99142 0
M  V30 3664 H 345.743 -0.677 -6.43448 0
M  V30 3665 N 345.875 1.56104 -0.216619 0
M  V30 3666 C 347.121 1.99219 0.410301 0
M  V30 3667 C 347.476 1.10169 1.57735 0
M  V30 3668 O 346.769 0.150598 1.91007 0
M  V30 3669 C 346.963 3.45923 0.898464 0
M  V30 3670 C 346.792 4.49163 -0.219748 0
M  V30 3671 C 345.562 5.00642 -0.684516 0
M  V30 3672 C 347.76 5.03751 -1.03629 0
M  V30 3673 N 345.742 5.87579 -1.7783 0
M  V30 3674 C 347.113 5.87566 -1.97904 0
M  V30 3675 C 349.168 4.86128 -1.07629 0
M  V30 3676 C 347.871 6.5564 -2.95851 0
M  V30 3677 C 349.897 5.54958 -2.04392 0
M  V30 3678 C 349.259 6.38536 -2.97407 0
M  V30 3679 H 345.358 0.773206 0.11695 0
M  V30 3680 H 347.942 1.9193 -0.327258 0
M  V30 3681 H 346.113 3.53669 1.6054 0
M  V30 3682 H 347.845 3.75963 1.49779 0
M  V30 3683 H 344.6 4.72807 -0.27399 0
M  V30 3684 H 345.024 6.3575 -2.32705 0
M  V30 3685 H 349.666 4.21168 -0.371099 0
M  V30 3686 H 347.384 7.19785 -3.67335 0
M  V30 3687 H 350.97 5.43289 -2.08154 0
M  V30 3688 H 349.85 6.90858 -3.71059 0
M  V30 3689 N 347.353 -0.0568162 1.57498 0
M  V30 3690 C 348.316 -1.05038 2.03715 0
M  V30 3691 C 349.316 -1.30709 0.936577 0
M  V30 3692 O 350.506 -1.26178 1.20103 0
M  V30 3693 C 347.638 -2.39034 2.43055 0
M  V30 3694 H 348.831 -0.651715 2.92733 0
M  V30 3695 H 346.384 -0.302947 1.53336 0
M  V30 3696 H 347.119 -2.83703 1.57108 0
M  V30 3697 H 346.904 -2.21739 3.2338 0
M  V30 3698 H 348.394 -3.10421 2.79336 0
M  V30 3699 N 348.832 -1.54138 -0.328536 0
M  V30 3700 C 350.078 -1.7236 -1.06865 0
M  V30 3701 C 350.411 -0.493231 -1.87832 0
M  V30 3702 O 349.686 0.5098 -1.877 0
M  V30 3703 C 349.969 -2.99621 -1.99747 0
M  V30 3704 C 349.822 -4.32899 -1.22143 0
M  V30 3705 C 351.141 -3.22615 -2.99345 0
M  V30 3706 H 348.26 -0.627151 -0.387105 0
M  V30 3707 H 350.902 -1.86827 -0.345767 0
M  V30 3708 H 349.052 -2.87418 -2.61387 0
M  V30 3709 H 350.724 -4.56978 -0.630017 0
M  V30 3710 H 348.967 -4.30628 -0.523628 0
M  V30 3711 H 349.638 -5.18154 -1.90318 0
M  V30 3712 H 352.114 -3.34248 -2.47826 0
M  V30 3713 H 350.99 -4.13027 -3.61524 0
M  V30 3714 H 351.251 -2.3961 -3.71536 0
M  V30 3715 N 350.31 0.590341 -1.46126 0
M  V30 3716 C 351.558 1.34616 -1.50742 0
M  V30 3717 C 351.879 1.94363 -0.157486 0
M  V30 3718 O 351.149 1.78136 0.815136 0
M  V30 3719 H 349.729 0.499789 -0.555175 0
M  V30 3720 H 352.391 0.691953 -1.82203 0
M  V30 3721 H 351.487 2.15678 -2.25587 0
M  V30 3722 N 351.788 1.33704 0.83433 0
M  V30 3723 C 353.028 1.26754 1.60352 0
M  V30 3724 C 353.392 -0.163182 1.91305 0
M  V30 3725 O 354.593 -0.3567 2.66423 0
M  V30 3726 C 352.864 2.12262 2.8754 0
M  V30 3727 S 354.423 2.22549 3.78176 0
M  V30 3728 H 351.241 0.450879 0.549753 0
M  V30 3729 H 353.843 1.68788 0.986444 0
M  V30 3730 H 352.547 3.15238 2.62779 0
M  V30 3731 H 352.078 1.71082 3.54252 0
M  V30 3732 H 354.093 1.3899 4.76336 0
M  V30 3733 N 353.266 -1.05314 1.17247 0
M  V30 3734 C 354.512 -1.78557 0.961513 0
M  V30 3735 C 354.845 -1.87419 -0.508697 0
M  V30 3736 O 354.12 -1.37307 -1.37757 0
M  V30 3737 C 354.403 -3.22514 1.60176 0
M  V30 3738 C 354.256 -3.21673 3.14399 0
M  V30 3739 C 355.575 -4.20318 1.30463 0
M  V30 3740 H 352.694 -0.6482 0.350723 0
M  V30 3741 H 355.336 -1.23102 1.44727 0
M  V30 3742 H 353.486 -3.69867 1.18871 0
M  V30 3743 H 355.158 -2.82405 3.64753 0
M  V30 3744 H 353.401 -2.60048 3.47214 0
M  V30 3745 H 354.072 -4.23271 3.54324 0
M  V30 3746 H 356.548 -3.81454 1.66229 0
M  V30 3747 H 355.424 -5.19289 1.77848 0
M  V30 3748 H 355.685 -4.41526 0.22521 0
M  V30 3749 N 354.744 -0.972509 -1.24016 0
M  V30 3750 C 355.993 -0.632603 -1.91523 0
M  V30 3751 C 356.306 0.836641 -1.76804 0
M  V30 3752 O 357.512 1.28728 -2.39043 0
M  V30 3753 C 355.968 -1.08082 -3.43287 0
M  V30 3754 C 355.576 -2.57386 -3.66683 0
M  V30 3755 C 357.32 -0.814288 -4.16617 0
M  V30 3756 C 355.227 -2.95915 -5.12043 0
M  V30 3757 H 354.157 -0.232898 -0.717129 0
M  V30 3758 H 356.808 -1.17936 -1.40582 0
M  V30 3759 H 355.19 -0.462339 -3.93292 0
M  V30 3760 H 356.364 -3.24405 -3.27258 0
M  V30 3761 H 354.679 -2.81701 -3.06649 0
M  V30 3762 H 357.276 -1.0781 -5.23718 0
M  V30 3763 H 357.619 0.24955 -4.15551 0
M  V30 3764 H 358.152 -1.39397 -3.72577 0
M  V30 3765 H 354.891 -4.0139 -5.18234 0
M  V30 3766 H 354.411 -2.33584 -5.52448 0
M  V30 3767 H 356.09 -2.86086 -5.80314 0
M  V30 3768 N 356.222 1.38976 -0.743202 0
M  V30 3769 C 357.469 2.00343 -0.294752 0
M  V30 3770 C 357.797 1.58983 1.12047 0
M  V30 3771 O 357.052 0.813809 1.77977 0
M  V30 3772 C 357.351 3.55647 -0.353517 0
M  V30 3773 C 357.017 4.16685 -1.72292 0
M  V30 3774 C 355.679 4.3307 -2.09771 0
M  V30 3775 C 358.031 4.50464 -2.62168 0
M  V30 3776 C 355.359 4.80526 -3.36618 0
M  V30 3777 C 357.711 4.99332 -3.88395 0
M  V30 3778 C 356.375 5.13924 -4.25956 0
M  V30 3779 H 355.645 0.733108 -0.107857 0
M  V30 3780 H 358.292 1.6618 -0.951651 0
M  V30 3781 H 356.597 3.89884 0.386954 0
M  V30 3782 H 358.294 4.00998 0.0117269 0
M  V30 3783 H 354.884 4.04339 -1.42155 0
M  V30 3784 H 359.068 4.37416 -2.3448 0
M  V30 3785 H 354.324 4.90008 -3.65653 0
M  V30 3786 H 358.498 5.2444 -4.58187 0
M  V30 3787 H 356.125 5.50457 -5.2431 0
M  V30 3788 N 357.7 0.491464 1.49741 0
M  V30 3789 C 358.61 -0.296835 2.32715 0
M  V30 3790 C 359.626 -0.976536 1.44013 0
M  V30 3791 O 360.802 -0.960023 1.77047 0
M  V30 3792 C 357.867 -1.35288 3.19215 0
M  V30 3793 C 356.928 -0.687632 4.23757 0
M  V30 3794 C 356.161 -1.69336 5.06123 0
M  V30 3795 O 356.384 -2.92219 4.89861 0
M  V30 3796 O 355.318 -1.25394 5.88693 0
M  V30 3797 H 359.144 0.382048 3.01287 0
M  V30 3798 H 356.729 0.252953 1.47243 0
M  V30 3799 H 358.611 -1.96411 3.72828 0
M  V30 3800 H 357.286 -2.01487 2.53347 0
M  V30 3801 H 356.193 -0.0369159 3.74082 0
M  V30 3802 H 357.526 -0.0682566 4.92153 0
M  V30 3803 N 359.178 -1.55987 0.224894 0
M  V30 3804 C 360.108 -2.23426 -0.678457 0
M  V30 3805 C 361.089 -1.20709 -1.19847 0
M  V30 3806 O 362.274 -1.49304 -1.24186 0
M  V30 3807 C 359.404 -2.91676 -1.88527 0
M  V30 3808 C 358.358 -4.00893 -1.49896 0
M  V30 3809 C 357.684 -4.56455 -2.78483 0
M  V30 3810 C 358.984 -5.17769 -0.686461 0
M  V30 3811 H 360.678 -2.99175 -0.116173 0
M  V30 3812 H 358.224 -1.43897 -0.054436 0
M  V30 3813 H 360.177 -3.37547 -2.5227 0
M  V30 3814 H 358.901 -2.1338 -2.47258 0
M  V30 3815 H 357.56 -3.55758 -0.884985 0
M  V30 3816 H 357.208 -3.74886 -3.35365 0
M  V30 3817 H 356.908 -5.30169 -2.53368 0
M  V30 3818 H 358.432 -5.05047 -3.43162 0
M  V30 3819 H 359.846 -5.60001 -1.22767 0
M  V30 3820 H 358.243 -5.97735 -0.532259 0
M  V30 3821 H 359.313 -4.83932 0.306196 0
M  V30 3822 N 360.656 0.0484629 -1.57525 0
M  V30 3823 C 361.586 1.0549 -2.08313 0
M  V30 3824 C 362.567 1.38929 -0.981463 0
M  V30 3825 O 363.752 1.48151 -1.25558 0
M  V30 3826 C 360.882 2.36162 -2.54646 0
M  V30 3827 C 359.836 2.17016 -3.68901 0
M  V30 3828 C 359.162 3.53278 -4.01371 0
M  V30 3829 C 360.462 1.57219 -4.98076 0
M  V30 3830 H 362.156 0.632195 -2.92649 0
M  V30 3831 H 359.702 0.302654 -1.40784 0
M  V30 3832 H 361.655 3.06882 -2.88793 0
M  V30 3833 H 360.379 2.80456 -1.67368 0
M  V30 3834 H 359.038 1.48733 -3.35073 0
M  V30 3835 H 358.686 3.95185 -3.11188 0
M  V30 3836 H 358.386 3.41299 -4.78318 0
M  V30 3837 H 359.91 4.25391 -4.38035 0
M  V30 3838 H 361.324 2.17832 -5.30304 0
M  V30 3839 H 359.721 1.55871 -5.79503 0
M  V30 3840 H 360.791 0.535956 -4.81929 0
M  V30 3841 N 362.134 1.5431 0.320358 0
M  V30 3842 C 363.362 1.76636 1.07738 0
M  V30 3843 C 363.777 0.51649 1.81598 0
M  V30 3844 O 363.134 -0.512942 1.75143 0
M  V30 3845 C 363.185 2.96158 2.07299 0
M  V30 3846 O 362.906 4.16313 1.36438 0
M  V30 3847 C 364.407 3.3072 2.95193 0
M  V30 3848 H 361.627 0.589597 0.320339 0
M  V30 3849 H 364.171 2.01207 0.36551 0
M  V30 3850 H 362.326 2.73851 2.74016 0
M  V30 3851 H 362.74 4.83565 2.03138 0
M  V30 3852 H 364.214 4.17643 3.60941 0
M  V30 3853 H 364.691 2.48026 3.62463 0
M  V30 3854 H 365.297 3.55117 2.34034 0
M  V30 3855 N 363.613 -0.582584 1.46437 0
M  V30 3856 C 364.543 -1.70187 1.59871 0
M  V30 3857 C 365.524 -1.64066 0.449042 0
M  V30 3858 O 366.709 -1.82081 0.6753 0
M  V30 3859 C 363.839 -3.08827 1.58881 0
M  V30 3860 C 362.793 -3.29779 2.72819 0
M  V30 3861 C 362.119 -4.68947 2.5689 0
M  V30 3862 C 363.419 -3.17601 4.1464 0
M  V30 3863 H 365.113 -1.592 2.53566 0
M  V30 3864 H 362.659 -0.764472 1.22032 0
M  V30 3865 H 364.612 -3.86951 1.66873 0
M  V30 3866 H 363.336 -3.20713 0.617306 0
M  V30 3867 H 361.995 -2.54054 2.64296 0
M  V30 3868 H 361.643 -4.77599 1.57823 0
M  V30 3869 H 361.343 -4.83919 3.33312 0
M  V30 3870 H 362.867 -5.4924 2.66773 0
M  V30 3871 H 364.281 -3.8557 4.24274 0
M  V30 3872 H 362.678 -3.44094 4.9165 0
M  V30 3873 H 363.748 -2.14681 4.34788 0
M  V30 3874 N 365.091 -1.34144 -0.827227 0
M  V30 3875 C 366.038 -1.25364 -1.93785 0
M  V30 3876 C 367.008 -0.129774 -1.65592 0
M  V30 3877 O 368.193 -0.310024 -1.88264 0
M  V30 3878 C 365.333 -1.01064 -3.2997 0
M  V30 3879 C 364.446 -2.22185 -3.70484 0
M  V30 3880 C 363.581 -1.91203 -4.95595 0
M  V30 3881 C 362.62 -3.08491 -5.28677 0
M  V30 3882 N 361.757 -2.77421 -6.44967 0
M  V30 3883 H 366.597 -2.20347 -2.00627 0
M  V30 3884 H 364.134 -1.09558 -0.981608 0
M  V30 3885 H 366.092 -0.850139 -4.08446 0
M  V30 3886 H 364.722 -0.0975026 -3.22653 0
M  V30 3887 H 363.774 -2.4917 -2.87434 0
M  V30 3888 H 365.086 -3.0983 -3.90905 0
M  V30 3889 H 364.24 -1.71864 -5.81848 0
M  V30 3890 H 362.979 -1.00812 -4.77167 0
M  V30 3891 H 361.984 -3.28431 -4.40923 0
M  V30 3892 H 363.209 -3.99655 -5.49047 0
M  V30 3893 H 361.155 -1.89601 -6.28003 0
M  V30 3894 H 361.072 -3.58598 -6.6554 0
M  V30 3895 H 362.34 -2.61577 -7.34301 0
M  V30 3896 N 366.569 1.04691 -1.17803 0
M  V30 3897 C 367.985 1.29963 -0.926379 0
M  V30 3898 C 368.185 1.97251 0.411635 0
M  V30 3899 O 367.241 2.24922 1.14744 0
M  V30 3900 C 368.554 2.16447 -2.08737 0
M  V30 3901 C 370.102 2.29814 -2.12496 0
M  V30 3902 C 370.577 3.19661 -3.27995 0
M  V30 3903 N 372.068 3.27247 -3.27816 0
M  V30 3904 C 372.803 3.96906 -4.13827 0
M  V30 3905 N 372.299 4.6895 -5.09959 0
M  V30 3906 N 374.092 3.93122 -4.01761 0
M  V30 3907 H 366.243 0.594182 -2.0392 0
M  V30 3908 H 368.506 0.324649 -0.890678 0
M  V30 3909 H 368.212 1.74304 -3.05469 0
M  V30 3910 H 368.086 3.17103 -2.04268 0
M  V30 3911 H 370.473 2.71196 -1.16347 0
M  V30 3912 H 370.554 1.2877 -2.21025 0
M  V30 3913 H 370.198 2.78991 -4.24413 0
M  V30 3914 H 370.128 4.20722 -3.16703 0
M  V30 3915 H 372.619 2.75921 -2.58217 0
M  V30 3916 H 372.932 5.19679 -5.71974 0
M  V30 3917 H 371.277 4.67875 -5.13924 0
M  V30 3918 H 374.468 3.35967 -3.2595 0
M  V30 3919 H 374.641 4.47139 -4.6901 0
M  V30 3920 N 368.047 0.979072 1.23499 0
M  V30 3921 C 369.275 0.665202 1.95915 0
M  V30 3922 C 369.69 -0.767571 1.72493 0
M  V30 3923 O 369.047 -1.51635 1.01554 0
M  V30 3924 C 369.098 0.944438 3.48945 0
M  V30 3925 O 368.819 2.3209 3.71572 0
M  V30 3926 C 370.32 0.646336 4.38563 0
M  V30 3927 H 367.54 0.247218 0.623798 0
M  V30 3928 H 370.084 1.31009 1.57025 0
M  V30 3929 H 368.239 0.345575 3.85856 0
M  V30 3930 H 368.653 2.40957 4.65876 0
M  V30 3931 H 370.127 0.892091 5.44744 0
M  V30 3932 H 370.604 -0.419575 4.37191 0
M  V30 3933 H 371.21 1.22562 4.07258 0
M  V30 3934 N 369.525 -1.3858 0.750561 0
M  V30 3935 C 370.772 -2.00184 0.305373 0
M  V30 3936 C 371.1 -1.59575 -1.11203 0
M  V30 3937 O 370.355 -0.823236 -1.77542 0
M  V30 3938 C 370.654 -3.55455 0.372373 0
M  V30 3939 C 370.32 -4.15765 1.745 0
M  V30 3940 C 368.982 -4.31951 2.12065 0
M  V30 3941 C 371.334 -4.49067 2.64553 0
M  V30 3942 C 368.662 -4.78734 3.39162 0
M  V30 3943 C 371.014 -4.97265 3.91038 0
M  V30 3944 C 369.678 -5.11658 4.28676 0
M  V30 3945 H 368.948 -0.732526 0.111744 0
M  V30 3946 H 371.595 -1.65673 0.960451 0
M  V30 3947 H 369.9 -3.90084 -0.366272 0
M  V30 3948 H 371.597 -4.00999 0.00953918 0
M  V30 3949 H 368.187 -4.03579 1.44297 0
M  V30 3950 H 372.371 -4.36166 2.36796 0
M  V30 3951 H 367.627 -4.88062 3.68246 0
M  V30 3952 H 371.801 -5.22003 4.60962 0
M  V30 3953 H 369.428 -5.47668 5.27222 0
M  V30 3954 N 371.003 -0.499398 -1.49478 0
M  V30 3955 C 372.28 0.108629 -1.95298 0
M  V30 3956 C 372.66 1.54282 -1.44084 0
M  V30 3957 O 372.008 2.18944 -0.653908 0
M  V30 3958 C 372.218 0.0229111 -3.48992 0
M  V30 3959 C 373.566 0.197643 -4.2414 0
M  V30 3960 O 374.59 0.0981735 -3.56065 0
M  V30 3961 O 373.449 0.401669 -5.45022 0
M  V30 3962 H 370.543 0.096181 -0.821388 0
M  V30 3963 H 373.089 -0.561822 -1.6013 0
M  V30 3964 H 371.861 -0.977321 -3.78899 0
M  V30 3965 H 371.484 0.733579 -3.90774 0
M  V30 3966 N 372.481 1.55866 -0.233164 0
M  V30 3967 C 373.444 2.1953 0.658715 0
M  V30 3968 C 374.444 1.16053 1.11303 0
M  V30 3969 O 375.634 1.41218 1.01996 0
M  V30 3970 C 372.766 2.82791 1.90373 0
M  V30 3971 H 373.959 2.99721 0.10347 0
M  V30 3972 H 371.512 1.56291 0.0164245 0
M  V30 3973 H 372.247 2.06501 2.50056 0
M  V30 3974 H 372.032 3.58578 1.58632 0
M  V30 3975 H 373.522 3.31556 2.53891 0
M  V30 3976 N 373.959 -0.0401083 1.57549 0
M  V30 3977 C 375.187 -0.745196 1.93014 0
M  V30 3978 C 375.602 -1.6948 0.831984 0
M  V30 3979 O 374.959 -1.81482 -0.192463 0
M  V30 3980 C 375.01 -1.51176 3.28372 0
M  V30 3981 O 374.731 -0.600284 4.33968 0
M  V30 3982 C 376.232 -2.315 3.78051 0
M  V30 3983 H 373.452 -0.210088 0.637263 0
M  V30 3984 H 375.996 -0.000924689 2.045 0
M  V30 3985 H 374.151 -2.20801 3.18317 0
M  V30 3986 H 374.565 -1.13669 5.12035 0
M  V30 3987 H 376.039 -2.80697 4.75303 0
M  V30 3988 H 376.516 -3.12436 3.08675 0
M  V30 3989 H 377.122 -1.66971 3.91153 0
M  V30 3990 N 375.437 -1.54477 -0.31217 0
M  V30 3991 C 376.385 -1.85395 -1.40469 0
M  V30 3992 C 377.379 -0.726749 -1.53019 0
M  V30 3993 O 378.585 -0.910582 -1.55269 0
M  V30 3994 H 374.96 -0.587845 -0.46898 0
M  V30 3995 H 376.931 -2.76736 -1.11623 0
M  V30 3996 C 375.68 -2.10811 -2.76503 0
M  V30 3997 H 375.003 -2.97014 -2.67625 0
M  V30 3998 H 376.443 -2.3639 -3.51988 0
M  V30 3999 C 374.902 -0.903165 -3.24568 0
M  V30 4000 O 375.432 -0.118085 -4.01526 0
M  V30 4001 N 373.638 -0.711634 -2.81752 0
M  V30 4002 H 373.185 -1.35171 -2.19286 0
M  V30 4003 H 373.143 0.0930473 -3.14262 0
M  V30 4004 N 376.915 0.57481 -1.46744 0
M  V30 4005 C 378.326 1.15695 -1.46532 0
M  V30 4006 C 378.677 1.95068 -0.210425 0
M  V30 4007 O 377.802 2.05241 0.685944 0
M  V30 4008 C 378.397 2.1048 -2.65487 0
M  V30 4009 C 376.956 2.64002 -2.68291 0
M  V30 4010 C 376.103 1.40026 -2.39349 0
M  V30 4011 H 379.054 0.362325 -1.54509 0
M  V30 4012 H 379.075 2.94074 -2.41455 0
M  V30 4013 H 378.587 1.52683 -3.56805 0
M  V30 4014 H 376.688 3.25646 -1.81067 0
M  V30 4015 H 376.801 3.06197 -3.68483 0
M  V30 4016 H 375.165 1.70106 -1.89568 0
M  V30 4017 H 375.948 0.840485 -3.32852 0
M  V30 4018 N 378.394 1.34581 0.820102 0
M  V30 4019 C 379.324 1.29038 1.94606 0
M  V30 4020 C 380.305 0.1673 1.69275 0
M  V30 4021 O 381.49 0.360112 1.90832 0
M  V30 4022 C 378.62 1.04793 3.31113 0
M  V30 4023 C 377.574 2.13597 3.70891 0
M  V30 4024 C 376.9 1.74537 5.05412 0
M  V30 4025 C 378.2 3.55451 3.8269 0
M  V30 4026 H 379.894 2.23248 1.99501 0
M  V30 4027 H 377.44 1.0747 0.958449 0
M  V30 4028 H 379.393 0.995592 4.0947 0
M  V30 4029 H 378.117 0.0702565 3.26524 0
M  V30 4030 H 376.776 2.17905 2.9481 0
M  V30 4031 H 376.424 0.754226 4.97313 0
M  V30 4032 H 376.124 2.47361 5.32997 0
M  V30 4033 H 377.648 1.70803 5.86224 0
M  V30 4034 H 379.062 3.5354 4.51312 0
M  V30 4035 H 377.459 4.26922 4.21732 0
M  V30 4036 H 378.529 3.92587 2.84611 0
M  V30 4037 N 379.872 -1.04064 1.18357 0
M  V30 4038 C 380.82 -2.14187 0.907007 0
M  V30 4039 C 381.814 -1.68879 -0.132725 0
M  V30 4040 O 383.02 -1.79993 0.0154248 0
M  V30 4041 H 379.395 -0.699585 0.275835 0
M  V30 4042 H 381.366 -2.34711 1.84264 0
M  V30 4043 C 380.115 -3.44785 0.449254 0
M  V30 4044 H 379.438 -3.80058 1.24081 0
M  V30 4045 H 380.878 -4.22974 0.294737 0
M  V30 4046 C 379.337 -3.26391 -0.834909 0
M  V30 4047 O 379.867 -3.53973 -1.89911 0
M  V30 4048 N 378.073 -2.79726 -0.787523 0
M  V30 4049 H 377.62 -2.5748 0.0787347 0
M  V30 4050 H 377.578 -2.67798 -1.64716 0
M  V30 4051 N 381.35 -0.985608 -1.22978 0
M  V30 4052 C 382.28 -0.549649 -2.26939 0
M  V30 4053 C 383.261 0.419803 -1.64838 0
M  V30 4054 O 384.446 0.31203 -1.91677 0
M  V30 4055 C 381.576 0.143652 -3.47003 0
M  V30 4056 C 380.53 -0.743606 -4.21491 0
M  V30 4057 C 379.856 0.0822027 -5.34637 0
M  V30 4058 C 381.156 -2.03694 -4.80943 0
M  V30 4059 H 382.85 -1.41862 -2.63658 0
M  V30 4060 H 380.396 -0.683571 -1.26741 0
M  V30 4061 H 382.349 0.459985 -4.18882 0
M  V30 4062 H 381.073 1.04711 -3.09359 0
M  V30 4063 H 379.732 -1.04347 -3.51436 0
M  V30 4064 H 379.38 0.986359 -4.93234 0
M  V30 4065 H 379.08 -0.508377 -5.85397 0
M  V30 4066 H 380.604 0.392797 -6.09335 0
M  V30 4067 H 382.018 -1.78504 -5.44802 0
M  V30 4068 H 380.415 -2.57573 -5.42011 0
M  V30 4069 H 381.485 -2.72042 -4.01399 0
M  V30 4070 N 382.828 1.3818 -0.7579 0
M  V30 4071 C 384.068 2.01864 -0.320968 0
M  V30 4072 C 384.432 1.58863 1.07827 0
M  V30 4073 O 385.633 2.14908 1.61456 0
M  V30 4074 C 383.904 3.54626 -0.44446 0
M  V30 4075 S 385.463 4.38706 -0.0907467 0
M  V30 4076 H 382.281 0.700056 -0.124268 0
M  V30 4077 H 384.883 1.68611 -0.989468 0
M  V30 4078 H 383.587 3.83411 -1.4637 0
M  V30 4079 H 383.118 3.92661 0.241073 0
M  V30 4080 H 385.133 4.83435 1.11826 0
M  V30 4081 N 384.306 0.507319 1.49211 0
M  V30 4082 C 385.552 -0.0350047 2.0277 0
M  V30 4083 C 385.885 -1.3606 1.38569 0
M  V30 4084 O 385.16 -1.87321 0.523542 0
M  V30 4085 C 385.443 -0.180916 3.59645 0
M  V30 4086 C 385.296 1.16825 4.34364 0
M  V30 4087 C 386.615 -0.918558 4.30407 0
M  V30 4088 H 383.734 -0.0112473 0.736914 0
M  V30 4089 H 386.376 0.659956 1.7817 0
M  V30 4090 H 384.526 -0.772826 3.80736 0
M  V30 4091 H 386.198 1.79952 4.24753 0
M  V30 4092 H 384.441 1.75594 3.96673 0
M  V30 4093 H 385.112 1.01939 5.42506 0
M  V30 4094 H 387.588 -0.41649 4.1401 0
M  V30 4095 H 386.464 -0.989505 5.39907 0
M  V30 4096 H 386.725 -1.96373 3.96093 0
M  V30 4097 N 385.784 -1.5574 0.241426 0
M  V30 4098 C 386.731 -2.21149 -0.660432 0
M  V30 4099 C 387.701 -1.17356 -1.17545 0
M  V30 4100 O 388.886 -1.45784 -1.23093 0
M  V30 4101 C 386.026 -2.91059 -1.85414 0
M  V30 4102 C 385.139 -4.09495 -1.37616 0
M  V30 4103 C 384.274 -4.67135 -2.529 0
M  V30 4104 C 383.313 -5.77831 -2.01936 0
M  V30 4105 N 382.45 -6.29677 -3.10566 0
M  V30 4106 H 387.29 -2.97845 -0.095955 0
M  V30 4107 H 384.827 -1.47057 -0.0356024 0
M  V30 4108 H 386.785 -3.29788 -2.5553 0
M  V30 4109 H 385.415 -2.16846 -2.39118 0
M  V30 4110 H 384.467 -3.76117 -0.569235 0
M  V30 4111 H 385.779 -4.89423 -0.962618 0
M  V30 4112 H 384.933 -5.08409 -3.31067 0
M  V30 4113 H 383.672 -3.86411 -2.97553 0
M  V30 4114 H 382.677 -5.36039 -1.22238 0
M  V30 4115 H 383.902 -6.60402 -1.58259 0
M  V30 4116 H 381.848 -5.5186 -3.54664 0
M  V30 4117 H 381.765 -7.04783 -2.73526 0
M  V30 4118 H 383.033 -6.75609 -3.88809 0
M  V30 4119 N 387.262 0.0317525 -1.57568 0
M  V30 4120 C 388.511 0.722131 -1.8833 0
M  V30 4121 C 388.824 1.76664 -0.839587 0
M  V30 4122 O 390.03 2.50942 -1.03635 0
M  V30 4123 C 388.486 1.33544 -3.34207 0
M  V30 4124 C 388.094 0.327415 -4.46802 0
M  V30 4125 C 389.838 2.00585 -3.7412 0
M  V30 4126 C 387.745 0.948915 -5.83738 0
M  V30 4127 H 386.675 0.273466 -0.702661 0
M  V30 4128 H 389.326 -0.0235811 -1.83485 0
M  V30 4129 H 387.708 2.13077 -3.33788 0
M  V30 4130 H 388.882 -0.441006 -4.58685 0
M  V30 4131 H 387.197 -0.240758 -4.15703 0
M  V30 4132 H 389.794 2.47932 -4.73744 0
M  V30 4133 H 390.137 2.82285 -3.05975 0
M  V30 4134 H 390.67 1.27831 -3.76702 0
M  V30 4135 H 387.409 0.171387 -6.55276 0
M  V30 4136 H 386.929 1.68724 -5.7558 0
M  V30 4137 H 388.608 1.45705 -6.3038 0
M  V30 4138 N 388.74 1.54641 0.303973 0
M  V30 4139 C 389.986 1.74038 1.04109 0
M  V30 4140 C 390.319 0.523051 1.87024 0
M  V30 4141 O 389.594 -0.479874 1.88487 0
M  V30 4142 C 389.877 3.02761 1.94955 0
M  V30 4143 C 389.73 4.34787 1.1524 0
M  V30 4144 C 391.049 3.27336 2.94175 0
M  V30 4145 H 388.168 0.63323 0.377079 0
M  V30 4146 H 390.81 1.87354 0.316001 0
M  V30 4147 H 388.96 2.9154 2.56782 0
M  V30 4148 H 390.632 4.57922 0.557236 0
M  V30 4149 H 388.875 4.31407 0.455053 0
M  V30 4150 H 389.546 5.21116 1.8205 0
M  V30 4151 H 392.022 3.38148 2.42477 0
M  V30 4152 H 390.898 4.18726 3.54908 0
M  V30 4153 H 391.159 2.45491 3.67677 0
M  V30 4154 N 390.218 -0.567019 1.47046 0
M  V30 4155 C 391.15 -1.68985 1.54844 0
M  V30 4156 C 392.163 -1.56869 0.435431 0
M  V30 4157 O 393.352 -1.64006 0.70457 0
M  V30 4158 C 390.452 -3.07373 1.42742 0
M  V30 4159 C 389.625 -3.45339 2.6844 0
M  V30 4160 C 388.684 -4.62849 2.50314 0
M  V30 4161 O 387.71 -4.67922 3.24095 0
M  V30 4162 N 388.912 -5.58726 1.57499 0
M  V30 4163 H 391.677 -1.62745 2.51663 0
M  V30 4164 H 389.238 -0.753411 1.43302 0
M  V30 4165 H 391.23 -3.83803 1.28365 0
M  V30 4166 H 389.8 -3.07893 0.540445 0
M  V30 4167 H 389.02 -2.58455 2.97648 0
M  V30 4168 H 390.308 -3.67476 3.51907 0
M  V30 4169 H 389.706 -5.57376 0.966876 0
M  V30 4170 H 388.263 -6.34523 1.49078 0
M  V30 4171 N 391.696 -1.35014 -0.812953 0
M  V30 4172 C 392.944 -1.27678 -1.56661 0
M  V30 4173 C 393.265 0.150359 -1.94419 0
M  V30 4174 O 392.535 1.08532 -1.63088 0
M  V30 4175 H 391.115 -0.469602 -0.580933 0
M  V30 4176 H 393.777 -1.69043 -0.970076 0
M  V30 4177 H 392.873 -1.88833 -2.48492 0
M  V30 4178 N 393.175 1.03435 -1.18907 0
M  V30 4179 C 394.424 1.76143 -0.982669 0
M  V30 4180 C 394.737 1.89416 0.487953 0
M  V30 4181 O 395.943 2.59041 0.813036 0
M  V30 4182 C 394.399 3.16722 -1.70924 0
M  V30 4183 C 394.007 3.11522 -3.21959 0
M  V30 4184 C 395.751 3.93764 -1.58588 0
M  V30 4185 C 393.658 4.46999 -3.87228 0
M  V30 4186 H 392.588 0.660292 -0.364047 0
M  V30 4187 H 395.239 1.158 -1.42347 0
M  V30 4188 H 393.621 3.775 -1.19623 0
M  V30 4189 H 394.795 2.60158 -3.80335 0
M  V30 4190 H 393.11 2.47978 -3.34508 0
M  V30 4191 H 395.707 4.93963 -2.04707 0
M  V30 4192 H 396.05 4.12794 -0.539142 0
M  V30 4193 H 396.583 3.39576 -2.07203 0
M  V30 4194 H 393.322 4.33174 -4.91976 0
M  V30 4195 H 392.842 4.98441 -3.33642 0
M  V30 4196 H 394.521 5.15898 -3.90459 0
M  V30 4197 N 394.653 0.992116 1.22453 0
M  V30 4198 C 396.069 0.702713 1.43297 0
M  V30 4199 C 396.269 -0.726909 1.87932 0
M  V30 4200 O 395.325 -1.49792 2.0327 0
M  V30 4201 C 396.638 1.70762 2.47509 0
M  V30 4202 C 398.186 1.72298 2.61309 0
M  V30 4203 C 398.661 2.71649 3.68742 0
M  V30 4204 N 400.152 2.70239 3.76199 0
M  V30 4205 C 400.887 3.43778 4.58917 0
M  V30 4206 N 400.383 4.26914 5.45633 0
M  V30 4207 N 402.176 3.32487 4.5322 0
M  V30 4208 H 394.327 1.91543 0.917871 0
M  V30 4209 H 396.59 0.826031 0.465162 0
M  V30 4210 H 396.296 2.73059 2.21657 0
M  V30 4211 H 396.17 1.49985 3.46099 0
M  V30 4212 H 398.557 0.706989 2.86506 0
M  V30 4213 H 398.638 1.97143 1.62997 0
M  V30 4214 H 398.282 3.73397 3.44292 0
M  V30 4215 H 398.212 2.44074 4.66622 0
M  V30 4216 H 400.703 2.09912 3.14237 0
M  V30 4217 H 401.016 4.79855 6.05771 0
M  V30 4218 H 399.361 4.31002 5.45218 0
M  V30 4219 H 402.552 2.6698 3.84499 0
M  V30 4220 H 402.725 3.90058 5.17454 0
M  V30 4221 N 396.131 -1.37776 0.765217 0
M  V30 4222 C 397.094 -2.28686 0.153416 0
M  V30 4223 C 398.094 -1.47727 -0.635081 0
M  V30 4224 O 399.284 -1.68027 -0.459632 0
M  V30 4225 C 396.416 -3.31608 -0.790495 0
M  V30 4226 H 397.609 -2.84297 0.954723 0
M  V30 4227 H 395.162 -1.46932 0.53299 0
M  V30 4228 H 395.897 -2.81109 -1.61705 0
M  V30 4229 H 395.682 -3.9144 -0.227348 0
M  V30 4230 H 397.172 -3.99559 -1.21419 0
M  V30 4231 N 397.609 -0.515225 -1.4894 0
M  V30 4232 C 398.542 0.302518 -2.26186 0
M  V30 4233 C 399.52 0.957895 -1.31389 0
M  V30 4234 O 400.704 0.985198 -1.60705 0
M  V30 4235 C 397.831 1.42719 -3.07163 0
M  V30 4236 C 396.877 0.884736 -4.17223 0
M  V30 4237 S 397.71 -0.235767 -5.34981 0
M  V30 4238 C 398.866 0.891731 -6.19515 0
M  V30 4239 H 399.099 -0.353076 -2.95196 0
M  V30 4240 H 396.632 -0.300753 -1.51443 0
M  V30 4241 H 398.59 2.07152 -3.54398 0
M  V30 4242 H 397.251 2.05445 -2.37595 0
M  V30 4243 H 396.444 1.72801 -4.73451 0
M  V30 4244 H 396.046 0.317362 -3.72651 0
M  V30 4245 H 398.338 1.79377 -6.53322 0
M  V30 4246 H 399.281 0.367751 -7.07144 0
M  V30 4247 H 399.689 1.16548 -5.52338 0
M  V30 4248 N 399.087 1.5561 -0.249682 0
M  V30 4249 C 399.997 2.25143 0.659375 0
M  V30 4250 C 401.013 1.2685 1.19101 0
M  V30 4251 O 402.189 1.59732 1.22669 0
M  V30 4252 C 399.254 2.93945 1.8384 0
M  V30 4253 C 398.315 4.07655 1.34596 0
M  V30 4254 C 397.548 4.73167 2.46878 0
M  V30 4255 O 397.771 4.37768 3.65671 0
M  V30 4256 O 396.705 5.61623 2.16478 0
M  V30 4257 H 400.531 3.03545 0.0968698 0
M  V30 4258 H 398.116 1.49389 -0.018074 0
M  V30 4259 H 399.998 3.37271 2.52638 0
M  V30 4260 H 398.673 2.18481 2.38847 0
M  V30 4261 H 397.58 3.68839 0.625174 0
M  V30 4262 H 398.913 4.84946 0.841941 0
M  V30 4263 N 400.565 -0.0233959 1.57583 0
M  V30 4264 C 401.811 -0.714119 1.89811 0
M  V30 4265 C 402.144 -1.74702 0.848113 0
M  V30 4266 O 401.419 -1.94023 -0.136135 0
M  V30 4267 C 401.702 -1.37853 3.32669 0
M  V30 4268 C 401.555 -0.358764 4.48367 0
M  V30 4269 C 402.874 -2.31101 3.7454 0
M  V30 4270 H 399.993 -0.25814 0.690314 0
M  V30 4271 H 402.635 0.0230927 1.89986 0
M  V30 4272 H 400.785 -2.00689 3.3265 0
M  V30 4273 H 402.457 0.268115 4.6052 0
M  V30 4274 H 400.7 0.321387 4.32608 0
M  V30 4275 H 401.371 -0.862242 5.45224 0
M  V30 4276 H 403.847 -1.78304 3.75961 0
M  V30 4277 H 402.723 -2.74567 4.75294 0
M  V30 4278 H 402.984 -3.18018 3.0711 0
M  V30 4279 N 402.043 -1.548 -0.295768 0
M  V30 4280 C 403.32 -1.65014 -1.05023 0
M  V30 4281 C 403.7 -0.501805 -2.05049 0
M  V30 4282 O 403.048 0.500869 -2.22943 0
M  V30 4283 C 403.258 -3.03252 -1.72741 0
M  V30 4284 C 404.606 -3.60242 -2.24746 0
M  V30 4285 O 405.63 -3.05737 -1.82765 0
M  V30 4286 O 404.489 -4.55687 -3.01681 0
M  V30 4287 H 401.583 -0.669314 -0.485744 0
M  V30 4288 H 404.129 -1.67144 -0.293438 0
M  V30 4289 H 402.901 -3.7827 -1.00138 0
M  V30 4290 H 402.524 -3.04922 -2.55163 0
M  V30 4291 N 403.521 0.559213 -1.47345 0
M  V30 4292 C 404.746 1.34676 -1.57725 0
M  V30 4293 C 405.171 1.86723 -0.227164 0
M  V30 4294 O 404.529 1.6286 0.796642 0
M  V30 4295 C 404.577 2.49399 -2.60447 0
M  V30 4296 O 403.681 3.51567 -2.15578 0
M  V30 4297 H 403.022 0.400115 -0.52991 0
M  V30 4298 H 405.552 0.676009 -1.93109 0
M  V30 4299 H 405.562 2.95996 -2.80803 0
M  V30 4300 H 404.237 2.10873 -3.58477 0
M  V30 4301 H 402.814 3.11289 -2.05313 0
M  V30 4302 N 404.999 1.35443 0.805782 0
M  V30 4303 C 406.224 1.32037 1.59941 0
M  V30 4304 C 406.649 -0.0994215 1.87837 0
M  V30 4305 O 406.007 -1.06648 1.46615 0
M  V30 4306 C 406.055 2.13354 2.90711 0
M  V30 4307 O 405.159 1.5148 3.83572 0
M  V30 4308 H 404.5 0.452666 0.485787 0
M  V30 4309 H 407.03 1.78496 1.00002 0
M  V30 4310 H 407.04 2.25338 3.40128 0
M  V30 4311 H 405.715 3.16572 2.69732 0
M  V30 4312 H 404.292 1.4834 3.42125 0
M  V30 4313 N 406.477 -1.02803 1.19454 0
M  V30 4314 C 407.409 -2.11181 0.890807 0
M  V30 4315 C 408.422 -1.6238 -0.116829 0
M  V30 4316 O 409.611 -1.78144 0.112694 0
M  V30 4317 C 406.711 -3.37461 0.311942 0
M  V30 4318 C 405.884 -4.15446 1.36834 0
M  V30 4319 C 404.943 -5.20039 0.802864 0
M  V30 4320 O 403.969 -5.49602 1.48077 0
M  V30 4321 N 405.171 -5.79165 -0.393417 0
M  V30 4322 H 407.936 -2.37827 1.82369 0
M  V30 4323 H 405.497 -1.19101 1.09666 0
M  V30 4324 H 407.489 -4.0462 -0.0802225 0
M  V30 4325 H 406.059 -3.08156 -0.52524 0
M  V30 4326 H 405.279 -3.43423 1.93531 0
M  V30 4327 H 406.567 -4.64335 2.08015 0
M  V30 4328 H 405.965 -5.57466 -0.961658 0
M  V30 4329 H 404.522 -6.47729 -0.727351 0
M  V30 4330 N 407.956 -0.998596 -1.21925 0
M  V30 4331 C 409.186 -0.695276 -1.94549 0
M  V30 4332 C 409.594 0.745079 -1.73911 0
M  V30 4333 O 408.937 1.51507 -1.03881 0
M  V30 4334 C 408.999 -0.928485 -3.47303 0
M  V30 4335 C 408.663 -2.35443 -3.91683 0
M  V30 4336 C 409.66 -3.33428 -3.98901 0
M  V30 4337 C 407.345 -2.69038 -4.24174 0
M  V30 4338 C 409.339 -4.63079 -4.37992 0
M  V30 4339 C 407.026 -3.98906 -4.62944 0
M  V30 4340 C 408.024 -4.95738 -4.69822 0
M  V30 4341 O 407.712 -6.23285 -5.07711 0
M  V30 4342 H 407.444 -0.255902 -0.625692 0
M  V30 4343 H 409.998 -1.33767 -1.5587 0
M  V30 4344 H 408.228 -0.228917 -3.86022 0
M  V30 4345 H 409.917 -0.619539 -4.01144 0
M  V30 4346 H 410.683 -3.08807 -3.73983 0
M  V30 4347 H 406.562 -1.94367 -4.18022 0
M  V30 4348 H 410.106 -5.38658 -4.43275 0
M  V30 4349 H 406.003 -4.23314 -4.87314 0
M  V30 4350 H 406.771 -6.27306 -5.25766 0
M  V30 4351 N 409.434 1.37368 -0.772513 0
M  V30 4352 C 410.659 2.0447 -0.347386 0
M  V30 4353 C 411.084 1.57882 1.0225 0
M  V30 4354 O 410.442 0.73941 1.65537 0
M  V30 4355 C 410.49 3.58369 -0.400479 0
M  V30 4356 O 409.594 4.0803 0.598789 0
M  V30 4357 H 408.935 0.646773 -0.15027 0
M  V30 4358 H 411.465 1.75667 -1.04892 0
M  V30 4359 H 411.475 4.07183 -0.258045 0
M  V30 4360 H 410.15 3.91633 -1.39986 0
M  V30 4361 H 408.727 3.70534 0.419411 0
M  V30 4362 N 410.912 0.523116 1.48665 0
M  V30 4363 C 411.842 -0.23231 2.32342 0
M  V30 4364 C 412.823 -0.941637 1.41659 0
M  V30 4365 O 414.008 -0.928751 1.70552 0
M  V30 4366 C 411.138 -1.28387 3.22698 0
M  V30 4367 C 410.092 -0.693098 4.22351 0
M  V30 4368 C 409.418 -1.8468 5.01794 0
M  V30 4369 C 410.718 0.33063 5.21252 0
M  V30 4370 H 412.412 0.466192 2.95748 0
M  V30 4371 H 409.958 0.225643 1.42221 0
M  V30 4372 H 411.911 -1.82024 3.80059 0
M  V30 4373 H 410.635 -2.01186 2.57278 0
M  V30 4374 H 409.294 -0.178299 3.66166 0
M  V30 4375 H 408.942 -2.56301 4.32804 0
M  V30 4376 H 408.642 -1.45747 5.69238 0
M  V30 4377 H 410.166 -2.38709 5.62006 0
M  V30 4378 H 411.58 -0.118407 5.73178 0
M  V30 4379 H 409.977 0.636974 5.9671 0
M  V30 4380 H 411.047 1.23883 4.68808 0
M  V30 4381 N 412.39 -1.55475 0.257931 0
M  V30 4382 C 413.3 -2.2549 -0.647425 0
M  V30 4383 C 414.316 -1.2748 -1.18427 0
M  V30 4384 O 415.492 -1.6038 -1.2182 0
M  V30 4385 C 412.557 -2.94916 -1.82278 0
M  V30 4386 C 411.618 -4.08363 -1.32432 0
M  V30 4387 C 410.851 -4.74469 -2.44366 0
M  V30 4388 O 411.074 -4.39701 -3.63344 0
M  V30 4389 O 410.008 -5.62763 -2.13497 0
M  V30 4390 H 413.834 -3.03593 -0.0807707 0
M  V30 4391 H 411.419 -1.49377 0.0259962 0
M  V30 4392 H 413.301 -3.38606 -2.50846 0
M  V30 4393 H 411.976 -2.19744 -2.37685 0
M  V30 4394 H 410.883 -3.69166 -0.605605 0
M  V30 4395 H 412.216 -4.85385 -0.816211 0
M  V30 4396 N 413.868 0.0150385 -1.57593 0
M  V30 4397 C 414.798 1.01047 -2.10503 0
M  V30 4398 C 415.779 1.36816 -1.01071 0
M  V30 4399 O 416.964 1.45455 -1.28672 0
M  V30 4400 C 414.094 2.30708 -2.59598 0
M  V30 4401 C 413.048 2.09142 -3.73421 0
M  V30 4402 C 412.374 3.44685 -4.08774 0
M  V30 4403 C 413.674 1.46619 -5.01298 0
M  V30 4404 H 415.368 0.569978 -2.93925 0
M  V30 4405 H 412.914 0.272724 -1.41394 0
M  V30 4406 H 414.867 3.00687 -2.95238 0
M  V30 4407 H 413.591 2.76843 -1.73279 0
M  V30 4408 H 412.25 1.41592 -3.38153 0
M  V30 4409 H 411.898 3.88495 -3.195 0
M  V30 4410 H 411.598 3.31077 -4.8545 0
M  V30 4411 H 413.122 4.16004 -4.4696 0
M  V30 4412 H 414.536 2.06535 -5.34805 0
M  V30 4413 H 412.933 1.43544 -5.82679 0
M  V30 4414 H 414.003 0.433611 -4.82957 0
M  V30 4415 N 415.346 1.54954 0.287554 0
M  V30 4416 C 416.595 1.74081 1.01877 0
M  V30 4417 C 416.908 0.541135 1.87966 0
M  V30 4418 O 418.114 0.614491 2.64455 0
M  V30 4419 C 416.57 3.08042 1.86113 0
M  V30 4420 C 416.178 4.35531 1.04961 0
M  V30 4421 C 417.922 3.36523 2.58752 0
M  V30 4422 C 415.829 5.60538 1.88551 0
M  V30 4423 H 414.759 0.64884 0.384087 0
M  V30 4424 H 417.41 1.81426 0.275101 0
M  V30 4425 H 415.792 2.94696 2.64519 0
M  V30 4426 H 416.966 4.59751 0.31074 0
M  V30 4427 H 415.281 4.14085 0.43843 0
M  V30 4428 H 417.878 4.27122 3.21668 0
M  V30 4429 H 418.221 2.56 3.28283 0
M  V30 4430 H 418.754 3.50901 1.87386 0
M  V30 4431 H 415.493 6.43767 1.23466 0
M  V30 4432 H 415.013 5.40483 2.60074 0
M  V30 4433 H 416.692 5.98297 2.46273 0
M  V30 4434 N 416.824 -0.551391 1.4764 0
M  V30 4435 C 417.756 -1.67333 1.56628 0
M  V30 4436 C 418.769 -1.56398 0.452045 0
M  V30 4437 O 419.958 -1.6325 0.721926 0
M  V30 4438 C 417.058 -3.05841 1.45994 0
M  V30 4439 C 416.231 -3.42472 2.72088 0
M  V30 4440 C 415.29 -4.60168 2.55209 0
M  V30 4441 O 414.316 -4.64458 3.2904 0
M  V30 4442 N 415.518 -5.57024 1.63416 0
M  V30 4443 H 418.283 -1.60066 2.53375 0
M  V30 4444 H 415.844 -0.738169 1.44093 0
M  V30 4445 H 417.836 -3.8242 1.32428 0
M  V30 4446 H 416.406 -3.07302 0.573071 0
M  V30 4447 H 415.626 -2.55284 3.00373 0
M  V30 4448 H 416.914 -3.63723 3.55785 0
M  V30 4449 H 416.312 -5.56319 1.02594 0
M  V30 4450 H 414.869 -6.32906 1.558 0
M  V30 4451 N 418.302 -1.35869 -0.798587 0
M  V30 4452 C 419.235 -1.23801 -1.91699 0
M  V30 4453 C 420.213 -0.124143 -1.62125 0
M  V30 4454 O 421.397 -0.293656 -1.86199 0
M  V30 4455 C 418.524 -0.908063 -3.263 0
M  V30 4456 C 417.57 -2.0351 -3.74815 0
M  V30 4457 S 418.403 -3.65183 -3.91665 0
M  V30 4458 C 419.559 -3.34283 -5.29156 0
M  V30 4459 H 419.792 -2.18466 -2.01643 0
M  V30 4460 H 417.325 -1.21178 -0.956833 0
M  V30 4461 H 419.283 -0.724506 -4.04056 0
M  V30 4462 H 417.944 0.0206584 -3.14093 0
M  V30 4463 H 417.137 -1.75858 -4.72324 0
M  V30 4464 H 416.739 -2.1774 -3.04081 0
M  V30 4465 H 419.031 -2.87607 -6.13424 0
M  V30 4466 H 419.974 -4.31022 -5.61806 0
M  V30 4467 H 420.382 -2.69854 -4.95822 0
M  V30 4468 N 419.78 1.02168 -1.19998 0
M  V30 4469 C 421.026 1.75945 -1.00852 0
M  V30 4470 C 421.359 1.88702 0.458828 0
M  V30 4471 O 420.634 1.40911 1.34069 0
M  V30 4472 C 420.917 3.18154 -1.68671 0
M  V30 4473 C 420.77 3.13224 -3.22817 0
M  V30 4474 C 422.089 4.16711 -1.41561 0
M  V30 4475 H 419.208 0.638673 -0.367785 0
M  V30 4476 H 421.85 1.19222 -1.4794 0
M  V30 4477 H 420 3.66586 -1.28636 0
M  V30 4478 H 421.672 2.72635 -3.72112 0
M  V30 4479 H 419.915 2.50751 -3.53986 0
M  V30 4480 H 420.586 4.13728 -3.65422 0
M  V30 4481 H 423.062 3.76913 -1.76284 0
M  V30 4482 H 421.938 5.14391 -1.91553 0
M  V30 4483 H 422.199 4.40774 -0.342193 0
M  V30 4484 N 421.258 1.00505 1.21394 0
M  V30 4485 C 422.208 0.536503 2.21598 0
M  V30 4486 C 423.192 -0.401914 1.55799 0
M  V30 4487 O 424.384 -0.226757 1.75541 0
M  V30 4488 C 421.513 -0.135446 3.43033 0
M  V30 4489 C 420.599 0.823992 4.16018 0
M  V30 4490 N 420.99 1.97683 4.6557 0
M  V30 4491 C 419.288 0.642387 4.4135 0
M  V30 4492 C 419.989 2.58003 5.21354 0
M  V30 4493 N 418.965 1.86162 5.1073 0
M  V30 4494 H 422.767 1.41557 2.57563 0
M  V30 4495 H 420.281 0.868878 1.37202 0
M  V30 4496 H 422.278 -0.488584 4.14027 0
M  V30 4497 H 420.938 -1.01049 3.08576 0
M  V30 4498 H 421.949 2.3572 4.61147 0
M  V30 4499 H 418.626 -0.185578 4.17087 0
M  V30 4500 H 420.016 3.555 5.70149 0
M  V30 4501 N 422.737 -1.36956 0.779787 0
M  V30 4502 C 423.962 -2.04283 0.358224 0
M  V30 4503 C 424.387 -1.58422 -1.01411 0
M  V30 4504 O 423.745 -0.748179 -1.65142 0
M  V30 4505 C 423.793 -3.58152 0.419479 0
M  V30 4506 O 422.897 -4.08342 -0.577142 0
M  V30 4507 H 422.238 -0.645967 0.153698 0
M  V30 4508 H 424.768 -1.75108 1.05822 0
M  V30 4509 H 424.778 -4.07041 0.279636 0
M  V30 4510 H 423.453 -3.90886 1.42061 0
M  V30 4511 H 422.03 -3.70751 -0.399755 0
M  V30 4512 N 424.215 -0.530993 -1.48385 0
M  V30 4513 C 425.455 0.000718982 -2.044 0
M  V30 4514 C 425.819 1.31485 -1.39913 0
M  V30 4515 O 427.02 1.93265 -1.86821 0
M  V30 4516 C 425.291 0.119177 -3.57201 0
M  V30 4517 S 426.85 0.600806 -4.34667 0
M  V30 4518 H 423.668 -0.0125473 -0.710889 0
M  V30 4519 H 426.27 -0.711783 -1.82082 0
M  V30 4520 H 424.974 -0.842061 -4.01668 0
M  V30 4521 H 424.505 0.856026 -3.83974 0
M  V30 4522 H 426.52 1.86514 -4.59812 0
M  V30 4523 N 425.693 1.55336 -0.266172 0
M  V30 4524 C 426.623 2.25146 0.618981 0
M  V30 4525 C 427.604 1.23845 1.16604 0
M  V30 4526 O 428.789 1.52544 1.20183 0
M  V30 4527 C 425.919 2.96572 1.80728 0
M  V30 4528 C 424.873 4.04726 1.39215 0
M  V30 4529 C 424.199 4.63678 2.66283 0
M  V30 4530 C 425.499 5.19407 0.548942 0
M  V30 4531 H 427.193 2.99377 0.0368116 0
M  V30 4532 H 424.739 1.43991 0.0162651 0
M  V30 4533 H 426.692 3.44116 2.43232 0
M  V30 4534 H 425.416 2.19861 2.41514 0
M  V30 4535 H 424.075 3.57979 0.790351 0
M  V30 4536 H 423.723 3.83646 3.25308 0
M  V30 4537 H 423.423 5.367 2.39222 0
M  V30 4538 H 424.947 5.13967 3.29651 0
M  V30 4539 H 426.361 5.63059 1.07876 0
M  V30 4540 H 424.758 5.98936 0.373593 0
M  V30 4541 H 425.828 4.8295 -0.434394 0
M  V30 4542 N 427.171 -0.0066808 1.57599 0
M  V30 4543 C 428.448 -0.729586 1.81484 0
M  V30 4544 C 428.828 -1.92359 0.869558 0
M  V30 4545 O 428.176 -2.28348 -0.0832533 0
M  V30 4546 C 428.386 -1.1416 3.29801 0
M  V30 4547 C 429.734 -1.54823 3.95367 0
M  V30 4548 O 430.758 -1.23558 3.34084 0
M  V30 4549 O 429.617 -2.12937 5.03309 0
M  V30 4550 H 426.711 -0.354674 0.747085 0
M  V30 4551 H 429.257 0.0182609 1.6969 0
M  V30 4552 H 428.029 -0.290231 3.90222 0
M  V30 4553 H 427.652 -1.94876 3.46568 0
M  V30 4554 N 428.649 -1.55105 -0.279332 0
M  V30 4555 C 429.581 -1.83952 -1.36727 0
M  V30 4556 C 430.594 -0.723642 -1.45833 0
M  V30 4557 O 431.783 -1.00141 -1.47763 0
M  V30 4558 C 428.883 -1.98183 -2.74912 0
M  V30 4559 C 428.056 -3.28787 -2.88475 0
M  V30 4560 C 427.115 -3.33162 -4.07295 0
M  V30 4561 O 426.141 -4.06576 -3.98353 0
M  V30 4562 N 427.343 -2.60109 -5.18964 0
M  V30 4563 H 430.108 -2.77853 -1.12328 0
M  V30 4564 H 427.669 -1.54945 -0.469442 0
M  V30 4565 H 429.661 -1.98488 -3.52682 0
M  V30 4566 H 428.231 -1.11177 -2.92162 0
M  V30 4567 H 427.451 -3.41075 -1.97641 0
M  V30 4568 H 428.739 -4.14933 -2.94463 0
M  V30 4569 H 428.137 -2.00136 -5.29115 0
M  V30 4570 H 426.694 -2.66143 -5.94988 0
M  V30 4571 N 430.127 0.543554 -1.4793 0
M  V30 4572 C 431.404 1.30458 -1.4574 0
M  V30 4573 C 431.784 2.1048 -0.161692 0
M  V30 4574 O 431.132 2.11831 0.856734 0
M  V30 4575 C 431.342 2.19754 -2.71126 0
M  V30 4576 C 432.69 2.80334 -3.18901 0
M  V30 4577 O 433.714 2.30049 -2.71948 0
M  V30 4578 O 432.573 3.71766 -4.00565 0
M  V30 4579 H 429.667 0.588117 -0.581418 0
M  V30 4580 H 432.213 0.561328 -1.60147 0
M  V30 4581 H 430.985 1.60316 -3.56952 0
M  V30 4582 H 430.608 3.01351 -2.59371 0
M  V30 4583 N 431.605 1.3629 0.791371 0
M  V30 4584 C 433.016 1.27225 1.36641 0
M  V30 4585 C 433.367 -0.0887968 1.95999 0
M  V30 4586 O 432.492 -0.990207 1.92416 0
M  V30 4587 C 433.087 2.30375 2.48421 0
M  V30 4588 C 431.646 2.25004 3.01746 0
M  V30 4589 C 430.793 2.15259 1.7481 0
M  V30 4590 H 433.744 1.47198 0.593173 0
M  V30 4591 H 433.765 1.93905 3.27385 0
M  V30 4592 H 433.277 3.29422 2.05189 0
M  V30 4593 H 431.378 1.29417 3.49403 0
M  V30 4594 H 431.491 3.1761 3.58693 0
M  V30 4595 H 429.855 1.61482 1.96966 0
M  V30 4596 H 430.638 3.16191 1.33709 0
M  V30 4597 N 433.083 -1.0153 1.20538 0
M  V30 4598 C 433.993 -2.13557 0.971113 0
M  V30 4599 C 435.009 -1.73845 -0.0734366 0
M  V30 4600 O 436.185 -2.01075 0.114299 0
M  V30 4601 C 433.25 -3.42661 0.527639 0
M  V30 4602 C 432.311 -3.96608 1.64319 0
M  V30 4603 C 431.544 -5.1955 1.22078 0
M  V30 4604 O 431.767 -5.70329 0.0900198 0
M  V30 4605 O 430.701 -5.66681 2.02871 0
M  V30 4606 H 434.527 -2.3619 1.90913 0
M  V30 4607 H 432.112 -1.11946 0.989362 0
M  V30 4608 H 433.994 -4.20404 0.289621 0
M  V30 4609 H 432.669 -3.21441 -0.381779 0
M  V30 4610 H 431.576 -3.20139 1.93551 0
M  V30 4611 H 432.909 -4.22219 2.52966 0
M  V30 4612 N 434.561 -1.01147 -1.20859 0
M  V30 4613 C 435.493 -0.535546 -2.22855 0
M  V30 4614 C 436.506 0.379323 -1.58319 0
M  V30 4615 O 437.695 0.178489 -1.77605 0
M  V30 4616 C 434.795 0.240962 -3.38042 0
M  V30 4617 C 433.968 -0.674562 -4.32167 0
M  V30 4618 C 433.027 0.053467 -5.26173 0
M  V30 4619 O 432.053 -0.567339 -5.66366 0
M  V30 4620 N 433.255 1.32997 -5.65059 0
M  V30 4621 H 436.02 -1.41268 -2.64317 0
M  V30 4622 H 433.581 -0.888386 -1.35349 0
M  V30 4623 H 435.573 0.737115 -3.97931 0
M  V30 4624 H 434.143 1.01935 -2.95513 0
M  V30 4625 H 433.363 -1.35111 -3.70322 0
M  V30 4626 H 434.651 -1.2974 -4.91981 0
M  V30 4627 H 434.049 1.85536 -5.34409 0
M  V30 4628 H 432.606 1.77095 -6.2728 0
M  V30 4629 N 436.039 1.36541 -0.78704 0
M  V30 4630 C 437.455 1.52571 -0.46844 0
M  V30 4631 C 437.655 1.7415 1.01361 0
M  V30 4632 O 436.711 1.77163 1.79915 0
M  V30 4633 C 438.024 2.71299 -1.29682 0
M  V30 4634 C 439.572 2.85169 -1.29027 0
M  V30 4635 C 440.047 4.06898 -2.10233 0
M  V30 4636 N 441.538 4.1404 -2.07666 0
M  V30 4637 C 442.273 5.07301 -2.67271 0
M  V30 4638 N 441.769 6.06021 -3.35724 0
M  V30 4639 N 443.562 4.99898 -2.57018 0
M  V30 4640 H 435.713 1.20788 -1.74711 0
M  V30 4641 H 437.976 0.589364 -0.742532 0
M  V30 4642 H 437.682 2.61868 -2.34773 0
M  V30 4643 H 437.556 3.6539 -0.936479 0
M  V30 4644 H 439.943 2.94062 -0.247284 0
M  V30 4645 H 440.024 1.91992 -1.69035 0
M  V30 4646 H 439.668 3.98766 -3.1456 0
M  V30 4647 H 439.598 4.99218 -1.67597 0
M  V30 4648 H 442.089 3.43357 -1.57843 0
M  V30 4649 H 442.402 6.73741 -3.78541 0
M  V30 4650 H 440.747 6.06253 -3.39826 0
M  V30 4651 H 443.938 4.21724 -2.03142 0
M  V30 4652 H 444.111 5.72392 -3.03761 0
M  V30 4653 N 437.518 0.538854 1.48102 0
M  V30 4654 C 438.929 0.100679 1.86428 0
M  V30 4655 C 439.28 -1.32447 1.44749 0
M  V30 4656 O 438.405 -1.99339 0.842199 0
M  V30 4657 C 439 0.175933 3.38343 0
M  V30 4658 C 437.559 -0.207098 3.7583 0
M  V30 4659 C 436.706 0.531741 2.72154 0
M  V30 4660 H 439.657 0.749614 1.3988 0
M  V30 4661 H 439.678 -0.610144 3.75576 0
M  V30 4662 H 439.19 1.21328 3.68648 0
M  V30 4663 H 437.291 -1.24626 3.5114 0
M  V30 4664 H 437.404 0.138687 4.78899 0
M  V30 4665 H 435.768 -0.0230462 2.5469 0
M  V30 4666 H 436.551 1.56989 3.05302 0
M  V30 4667 N 438.996 -1.55193 0.274407 0
M  V30 4668 C 440.224 -2.03987 -0.345943 0
M  V30 4669 C 440.639 -1.15279 -1.4952 0
M  V30 4670 O 439.996 -0.172759 -1.8168 0
M  V30 4671 C 440.047 -3.51898 -0.827631 0
M  V30 4672 O 439.768 -4.37231 0.275855 0
M  V30 4673 C 441.269 -4.16577 -1.51587 0
M  V30 4674 H 438.489 -0.666335 -0.0789892 0
M  V30 4675 H 441.033 -2.00423 0.406294 0
M  V30 4676 H 439.188 -3.55909 -1.52996 0
M  V30 4677 H 439.602 -5.24415 -0.0943638 0
M  V30 4678 H 441.076 -5.21678 -1.80433 0
M  V30 4679 H 441.553 -3.64707 -2.44716 0
M  V30 4680 H 442.159 -4.16568 -0.857409 0
M  V30 4681 N 440.474 -0.00167713 -1.576 0
M  V30 4682 C 441.437 0.974046 -2.07473 0
M  V30 4683 C 442.437 1.27143 -0.984444 0
M  V30 4684 O 443.627 1.21633 -1.24703 0
M  V30 4685 C 440.759 2.29849 -2.51759 0
M  V30 4686 H 441.952 0.54262 -2.9495 0
M  V30 4687 H 439.505 0.245829 -1.54355 0
M  V30 4688 H 440.24 2.77677 -1.67529 0
M  V30 4689 H 440.025 2.09584 -3.31386 0
M  V30 4690 H 441.515 2.9984 -2.90664 0
M  V30 4691 N 441.952 1.55251 0.271103 0
M  V30 4692 C 443.229 1.66664 1.02384 0
M  V30 4693 C 443.609 0.534363 2.04225 0
M  V30 4694 O 442.957 -0.465337 2.23712 0
M  V30 4695 C 443.167 3.05961 1.67895 0
M  V30 4696 C 444.515 3.63772 2.18986 0
M  V30 4697 O 445.539 3.08606 1.77878 0
M  V30 4698 O 444.398 4.60429 2.94393 0
M  V30 4699 H 441.492 0.676957 0.475035 0
M  V30 4700 H 444.038 1.67589 0.26681 0
M  V30 4701 H 442.81 3.79815 0.941071 0
M  V30 4702 H 442.433 3.08943 2.5028 0
M  V30 4703 N 443.43 -0.535701 1.48216 0
M  V30 4704 C 444.34 -1.66785 1.64985 0
M  V30 4705 C 445.356 -1.65654 0.532414 0
M  V30 4706 O 446.532 -1.8471 0.80275 0
M  V30 4707 C 443.597 -3.0326 1.68031 0
M  V30 4708 C 442.658 -3.1529 2.9136 0
M  V30 4709 C 441.891 -4.45255 2.94252 0
M  V30 4710 O 442.114 -5.32011 2.05719 0
M  V30 4711 O 441.048 -4.6153 3.86359 0
M  V30 4712 H 444.874 -1.55576 2.60825 0
M  V30 4713 H 442.459 -0.70815 1.31551 0
M  V30 4714 H 444.341 -3.84436 1.72589 0
M  V30 4715 H 443.016 -3.14805 0.753628 0
M  V30 4716 H 441.923 -2.3343 2.92337 0
M  V30 4717 H 443.256 -3.08658 3.83394 0
M  V30 4718 N 444.908 -1.36708 -0.784132 0
M  V30 4719 C 445.838 -1.34153 -1.91116 0
M  V30 4720 C 446.819 -0.212121 -1.68772 0
M  V30 4721 O 448.004 -0.410581 -1.8981 0
M  V30 4722 C 445.134 -1.13535 -3.28218 0
M  V30 4723 C 444.088 -2.23356 -3.65097 0
M  V30 4724 C 443.414 -1.87875 -5.00607 0
M  V30 4725 C 444.714 -3.65473 -3.73131 0
M  V30 4726 H 446.408 -2.28459 -1.93512 0
M  V30 4727 H 443.954 -1.09973 -0.929618 0
M  V30 4728 H 445.907 -1.10381 -4.06687 0
M  V30 4729 H 444.631 -0.156804 -3.26223 0
M  V30 4730 H 443.29 -2.25645 -2.88929 0
M  V30 4731 H 442.938 -0.885814 -4.95139 0
M  V30 4732 H 442.638 -2.61406 -5.26252 0
M  V30 4733 H 444.162 -1.86286 -5.81489 0
M  V30 4734 H 445.576 -3.65382 -4.41779 0
M  V30 4735 H 443.973 -4.37953 -4.10265 0
M  V30 4736 H 445.043 -3.99995 -2.74102 0
M  V30 4737 N 446.386 1.0089 -1.21074 0
M  V30 4738 C 447.316 2.1145 -0.990523 0
M  V30 4739 C 448.297 1.69897 0.0831699 0
M  V30 4740 O 449.482 1.94052 -0.0758853 0
M  V30 4741 C 446.612 3.42914 -0.550177 0
M  V30 4742 C 445.566 3.98244 -1.56799 0
M  V30 4743 C 444.892 5.25568 -0.984013 0
M  V30 4744 C 446.192 4.30752 -2.95381 0
M  V30 4745 H 447.886 2.3013 -1.91521 0
M  V30 4746 H 445.432 1.10592 -0.92225 0
M  V30 4747 H 447.385 4.19653 -0.383305 0
M  V30 4748 H 446.109 3.24014 0.41015 0
M  V30 4749 H 444.768 3.23621 -1.72236 0
M  V30 4750 H 444.416 5.02998 -0.0155216 0
M  V30 4751 H 444.116 5.63551 -1.66384 0
M  V30 4752 H 445.64 6.04955 -0.828378 0
M  V30 4753 H 447.054 4.98349 -2.8341 0
M  V30 4754 H 445.451 4.79869 -3.60341 0
M  V30 4755 H 446.521 3.39192 -3.46521 0
M  V30 4756 N 447.864 1.01787 1.20321 0
M  V30 4757 C 449.141 0.622978 1.85414 0
M  V30 4758 C 449.521 -0.898887 1.91006 0
M  V30 4759 O 448.869 -1.79112 1.41884 0
M  V30 4760 C 449.079 1.27226 3.24984 0
M  V30 4761 C 450.427 1.3885 4.01255 0
M  V30 4762 O 451.451 1.22857 3.34342 0
M  V30 4763 O 450.31 1.64705 5.2109 0
M  V30 4764 H 447.404 0.215116 0.798533 0
M  V30 4765 H 449.95 1.11533 1.27901 0
M  V30 4766 H 448.722 2.31209 3.15687 0
M  V30 4767 H 448.345 0.767069 3.90131 0
M  V30 4768 N 449.342 -1.36122 0.79427 0
M  V30 4769 C 450.758 -1.5232 0.476525 0
M  V30 4770 C 450.958 -1.74685 -1.00436 0
M  V30 4771 O 450.014 -1.78115 -1.78973 0
M  V30 4772 C 451.327 -2.70607 1.31119 0
M  V30 4773 C 452.875 -2.8448 1.30537 0
M  V30 4774 C 453.35 -4.05778 2.12387 0
M  V30 4775 N 454.841 -4.12933 2.09859 0
M  V30 4776 C 455.576 -5.05876 2.69957 0
M  V30 4777 N 455.072 -6.04232 3.38934 0
M  V30 4778 N 456.865 -4.98528 2.59665 0
M  V30 4779 H 449.016 -1.1986 1.75349 0
M  V30 4780 H 451.279 -0.585418 0.745647 0
M  V30 4781 H 450.985 -2.60619 2.36158 0
M  V30 4782 H 450.859 -3.64888 0.955843 0
M  V30 4783 H 453.246 -2.93927 0.262876 0
M  V30 4784 H 453.327 -1.91093 1.70051 0
M  V30 4785 H 452.971 -3.97092 3.1667 0
M  V30 4786 H 452.901 -4.98323 1.70242 0
M  V30 4787 H 455.392 -3.42515 1.59662 0
M  V30 4788 H 455.705 -6.71724 3.82109 0
M  V30 4789 H 454.05 -6.04443 3.43036 0
M  V30 4790 H 457.241 -4.20641 2.05375 0
M  V30 4791 H 457.414 -5.70773 3.06793 0
M  V30 4792 N 450.82 -0.546701 -1.47814 0
M  V30 4793 C 452.231 -0.110564 -1.86372 0
M  V30 4794 C 452.582 1.31678 -1.45449 0
M  V30 4795 O 451.707 1.98889 -0.852758 0
M  V30 4796 C 452.302 -0.193873 -3.38245 0
M  V30 4797 C 450.861 0.187164 -3.75934 0
M  V30 4798 C 450.008 -0.546166 -2.71868 0
M  V30 4799 H 452.959 -0.757022 -1.39481 0
M  V30 4800 H 452.98 0.590218 -3.75895 0
M  V30 4801 H 452.492 -1.23282 -3.67999 0
M  V30 4802 H 450.593 1.22762 -3.51796 0
M  V30 4803 H 450.706 -0.164083 -4.78819 0
M  V30 4804 H 449.07 0.00953904 -2.54698 0
M  V30 4805 H 449.853 -1.58606 -3.04465 0
M  V30 4806 N 452.299 1.55045 -0.282633 0
M  V30 4807 C 453.229 2.2579 0.595066 0
M  V30 4808 C 454.21 1.25074 1.15284 0
M  V30 4809 O 455.395 1.5381 1.18559 0
M  V30 4810 C 452.525 2.98472 1.77572 0
M  V30 4811 C 451.479 4.0618 1.34914 0
M  V30 4812 C 450.805 4.66477 2.6135 0
M  V30 4813 C 452.105 5.1996 0.493821 0
M  V30 4814 H 453.799 2.994 0.00505653 0
M  V30 4815 H 451.345 1.44 0.000992001 0
M  V30 4816 H 453.298 3.46677 2.39568 0
M  V30 4817 H 452.022 2.2241 2.39168 0
M  V30 4818 H 450.681 3.58797 0.752338 0
M  V30 4819 H 450.329 3.87074 3.2122 0
M  V30 4820 H 450.029 5.39207 2.33516 0
M  V30 4821 H 451.553 5.17435 3.24181 0
M  V30 4822 H 452.967 5.64172 1.01898 0
M  V30 4823 H 451.364 5.99299 0.310047 0
M  V30 4824 H 452.434 4.82462 -0.485593 0
M  V30 4825 N 453.777 0.010035 1.57597 0
M  V30 4826 C 454.707 -0.976857 2.12084 0
M  V30 4827 C 455.688 -1.35191 1.03235 0
M  V30 4828 O 456.873 -1.43389 1.3097 0
M  V30 4829 C 454.003 -2.26548 2.63236 0
M  V30 4830 C 452.957 -2.03175 3.76701 0
M  V30 4831 C 452.283 -3.38138 4.14206 0
M  V30 4832 C 453.583 -1.38625 5.03568 0
M  V30 4833 H 455.277 -0.523145 2.94794 0
M  V30 4834 H 452.823 -0.250195 1.4181 0
M  V30 4835 H 454.776 -2.95952 2.99984 0
M  V30 4836 H 453.5 -2.74051 1.77661 0
M  V30 4837 H 452.159 -1.36195 3.40362 0
M  V30 4838 H 451.807 -3.83363 3.25641 0
M  V30 4839 H 451.507 -3.23312 4.90656 0
M  V30 4840 H 453.031 -4.08841 4.53521 0
M  V30 4841 H 454.445 -1.98 5.38023 0
M  V30 4842 H 452.842 -1.34256 5.84889 0
M  V30 4843 H 453.912 -0.356722 4.83586 0
M  V30 4844 N 455.255 -1.55392 -0.262866 0
M  V30 4845 C 456.671 -1.47459 -0.610582 0
M  V30 4846 C 456.871 -0.697031 -1.8906 0
M  V30 4847 O 455.927 -0.219952 -2.5154 0
M  V30 4848 C 457.24 -2.91751 -0.728131 0
M  V30 4849 C 458.788 -3.02027 -0.821517 0
M  V30 4850 C 459.263 -4.47594 -0.97076 0
M  V30 4851 N 460.754 -4.51465 -1.03603 0
M  V30 4852 C 461.489 -5.61326 -1.17049 0
M  V30 4853 N 460.985 -6.81032 -1.2715 0
M  V30 4854 N 462.778 -5.49089 -1.20239 0
M  V30 4855 H 454.929 -2.04395 0.577632 0
M  V30 4856 H 457.192 -0.927287 0.197086 0
M  V30 4857 H 456.898 -3.51413 0.142132 0
M  V30 4858 H 456.772 -3.4134 -1.6052 0
M  V30 4859 H 459.159 -2.42456 -1.68224 0
M  V30 4860 H 459.24 -2.55674 0.0803688 0
M  V30 4861 H 458.884 -5.07771 -0.114655 0
M  V30 4862 H 458.814 -4.91613 -1.88745 0
M  V30 4863 H 461.305 -3.6524 -0.96996 0
M  V30 4864 H 461.618 -7.60511 -1.37271 0
M  V30 4865 H 459.963 -6.83824 -1.24136 0
M  V30 4866 H 463.154 -4.54507 -1.11985 0
M  V30 4867 H 463.327 -6.34749 -1.30373 0
M  V30 4868 N 456.733 0.527833 -1.48498 0
M  V30 4869 C 457.68 1.6322 -1.6318 0
M  V30 4870 C 458.65 1.59199 -0.473815 0
M  V30 4871 O 459.835 1.77591 -0.697563 0
M  V30 4872 C 456.975 3.01474 -1.67951 0
M  V30 4873 C 456.088 3.15713 -2.94871 0
M  V30 4874 C 455.223 4.44539 -2.90789 0
M  V30 4875 C 454.262 4.52315 -4.12404 0
M  V30 4876 N 453.399 5.72533 -4.06387 0
M  V30 4877 H 458.239 1.50011 -2.57489 0
M  V30 4878 H 455.776 0.730298 -1.27691 0
M  V30 4879 H 457.734 3.81572 -1.68698 0
M  V30 4880 H 456.364 3.1345 -0.771306 0
M  V30 4881 H 455.416 2.28854 -3.03859 0
M  V30 4882 H 456.728 3.1732 -3.8485 0
M  V30 4883 H 455.882 5.3293 -2.89949 0
M  V30 4884 H 454.621 4.45457 -1.98542 0
M  V30 4885 H 453.626 3.62331 -4.13517 0
M  V30 4886 H 454.851 4.53134 -5.05812 0
M  V30 4887 H 452.797 5.74344 -3.16962 0
M  V30 4888 H 452.714 5.75643 -4.90073 0
M  V30 4889 H 453.982 6.63204 -4.0961 0
M  V30 4890 N 458.211 1.37122 0.776871 0
M  V30 4891 C 459.627 1.1781 1.07671 0
M  V30 4892 C 459.827 0.0107454 2.01497 0
M  V30 4893 O 458.883 -0.650756 2.4397 0
M  V30 4894 C 460.196 2.49451 1.67913 0
M  V30 4895 C 461.744 2.55927 1.80195 0
M  V30 4896 C 462.219 3.87686 2.43851 0
M  V30 4897 N 463.71 3.891 2.51307 0
M  V30 4898 C 464.445 4.87797 3.014 0
M  V30 4899 N 463.941 5.96888 3.51705 0
M  V30 4900 N 465.734 4.75205 3.00227 0
M  V30 4901 H 457.885 2.11843 0.153778 0
M  V30 4902 H 460.148 0.938927 0.130844 0
M  V30 4903 H 459.854 3.35207 1.06439 0
M  V30 4904 H 459.728 2.66169 2.67271 0
M  V30 4905 H 462.115 1.70582 2.40803 0
M  V30 4906 H 462.196 2.43097 0.796069 0
M  V30 4907 H 461.84 4.73444 1.83884 0
M  V30 4908 H 461.77 3.97817 3.45035 0
M  V30 4909 H 464.261 3.10293 2.157 0
M  V30 4910 H 464.574 6.68155 3.88316 0
M  V30 4911 H 462.919 6.0054 3.49824 0
M  V30 4912 H 466.11 3.89103 2.60224 0
M  V30 4913 H 466.283 5.52279 3.38957 0
M  V30 4914 N 459.689 -1.00246 1.21608 0
M  V30 4915 C 461.105 -1.26435 0.973975 0
M  V30 4916 C 461.305 -1.98642 -0.338143 0
M  V30 4917 O 460.361 -2.29026 -1.06317 0
M  V30 4918 C 461.674 -2.08551 2.16626 0
M  V30 4919 C 463.222 -2.21769 2.20879 0
M  V30 4920 C 463.697 -3.07267 3.39633 0
M  V30 4921 N 465.188 -3.14855 3.39736 0
M  V30 4922 C 465.923 -3.81274 4.28273 0
M  V30 4923 N 465.419 -4.497 5.27012 0
M  V30 4924 N 467.212 -3.7794 4.16074 0
M  V30 4925 H 459.363 -0.518089 2.05984 0
M  V30 4926 H 461.626 -0.291368 0.902113 0
M  V30 4927 H 461.332 -1.62847 3.11727 0
M  V30 4928 H 461.206 -3.09303 2.15897 0
M  V30 4929 H 463.593 -2.66691 1.26332 0
M  V30 4930 H 463.674 -1.20478 2.25652 0
M  V30 4931 H 463.318 -2.63047 4.34475 0
M  V30 4932 H 463.248 -4.08678 3.321 0
M  V30 4933 H 465.739 -2.66147 2.6828 0
M  V30 4934 H 466.052 -4.98092 5.90867 0
M  V30 4935 H 464.397 -4.48479 5.30935 0
M  V30 4936 H 467.588 -3.23638 3.38195 0
M  V30 4937 H 467.761 -4.29424 4.85282 0
M  V30 4938 N 461.167 -1.02423 -1.1978 0
M  V30 4939 C 462.583 -0.740459 -1.41384 0
M  V30 4940 C 462.783 0.676827 -1.89793 0
M  V30 4941 O 461.839 1.4435 -2.0717 0
M  V30 4942 C 463.152 -1.77264 -2.42895 0
M  V30 4943 C 464.7 -1.79165 -2.56649 0
M  V30 4944 C 465.175 -2.8133 -3.6141 0
M  V30 4945 N 466.666 -2.80118 -3.68901 0
M  V30 4946 C 467.401 -3.55824 -4.49641 0
M  V30 4947 N 466.897 -4.41231 -5.34123 0
M  V30 4948 N 468.69 -3.44387 -4.44246 0
M  V30 4949 H 460.841 -1.9391 -0.866764 0
M  V30 4950 H 463.104 -0.838074 -0.443098 0
M  V30 4951 H 462.81 -2.7884 -2.14339 0
M  V30 4952 H 462.684 -1.59108 -3.42001 0
M  V30 4953 H 465.071 -0.782702 -2.84531 0
M  V30 4954 H 465.152 -2.01396 -1.57713 0
M  V30 4955 H 464.796 -3.82394 -3.34271 0
M  V30 4956 H 464.726 -2.56359 -4.59986 0
M  V30 4957 H 467.217 -2.1817 -3.08562 0
M  V30 4958 H 467.53 -4.95747 -5.92836 0
M  V30 4959 H 465.875 -4.45306 -5.33599 0
M  V30 4960 H 469.066 -2.7708 -3.77285 0
M  V30 4961 H 469.239 -4.0364 -5.06931 0
M  V30 4962 N 462.645 1.35699 -0.801477 0
M  V30 4963 C 463.555 2.33661 -0.209691 0
M  V30 4964 C 464.571 1.6162 0.644591 0
M  V30 4965 O 465.747 1.93529 0.557545 0
M  V30 4966 C 462.812 3.40816 0.636033 0
M  V30 4967 C 461.873 4.28639 -0.238147 0
M  V30 4968 C 461.106 5.30676 0.567307 0
M  V30 4969 O 461.329 5.41174 1.8024 0
M  V30 4970 O 460.263 6.01887 -0.0391336 0
M  V30 4971 H 464.089 2.8606 -1.01996 0
M  V30 4972 H 461.674 1.38379 -0.563164 0
M  V30 4973 H 463.556 4.06301 1.11791 0
M  V30 4974 H 462.231 2.90696 1.42399 0
M  V30 4975 H 461.138 3.66152 -0.767044 0
M  V30 4976 H 462.471 4.82143 -0.989915 0
M  V30 4977 N 464.123 0.554532 1.47522 0
M  V30 4978 C 465.056 -0.242442 2.26908 0
M  V30 4979 C 466.034 -0.922722 1.33883 0
M  V30 4980 O 467.218 -0.942244 1.63261 0
M  V30 4981 C 464.345 -1.34525 3.10839 0
M  V30 4982 C 463.391 -0.773805 4.19422 0
M  V30 4983 S 464.224 0.377525 5.34168 0
M  V30 4984 C 465.38 -0.727164 6.21662 0
M  V30 4985 H 465.613 0.431218 2.94156 0
M  V30 4986 H 463.146 0.3408 1.50592 0
M  V30 4987 H 465.104 -1.97683 3.59766 0
M  V30 4988 H 463.765 -1.99073 2.42958 0
M  V30 4989 H 462.958 -1.60187 4.77866 0
M  V30 4990 H 462.56 -0.218448 3.73361 0
M  V30 4991 H 464.852 -1.61992 6.57849 0
M  V30 4992 H 465.795 -0.180135 7.07871 0
M  V30 4993 H 466.203 -1.01863 5.55233 0
M  V30 4994 N 465.601 -1.54893 0.290851 0
M  V30 4995 C 466.511 -2.26812 -0.59945 0
M  V30 4996 C 467.527 -1.29963 -1.15696 0
M  V30 4997 O 468.703 -1.62928 -1.18391 0
M  V30 4998 C 465.768 -2.98716 -1.75982 0
M  V30 4999 C 464.829 -4.1108 -1.2374 0
M  V30 5000 C 464.062 -4.79546 -2.34246 0
M  V30 5001 O 464.285 -4.47309 -3.53936 0
M  V30 5002 O 463.219 -5.67165 -2.01512 0
M  V30 5003 H 467.045 -3.03696 -0.0163561 0
M  V30 5004 H 464.63 -1.49289 0.0576755 0
M  V30 5005 H 466.512 -3.43851 -2.43607 0
M  V30 5006 H 465.187 -2.24737 -2.3297 0
M  V30 5007 H 464.094 -3.70367 -0.527163 0
M  V30 5008 H 465.427 -4.87007 -0.71307 0
M  V30 5009 N 467.08 -0.0183926 -1.57589 0
M  V30 5010 C 467.99 0.982943 -2.13015 0
M  V30 5011 C 469.006 1.36443 -1.07979 0
M  V30 5012 O 470.182 1.44802 -1.3998 0
M  V30 5013 C 467.247 2.25024 -2.63752 0
M  V30 5014 C 466.308 1.93018 -3.83461 0
M  V30 5015 C 465.541 3.13706 -4.31769 0
M  V30 5016 O 465.764 4.2601 -3.79305 0
M  V30 5017 O 464.698 2.96629 -5.23732 0
M  V30 5018 H 468.524 0.541709 -2.9883 0
M  V30 5019 H 466.109 0.201565 -1.48034 0
M  V30 5020 H 467.991 2.99441 -2.96502 0
M  V30 5021 H 466.666 2.68349 -1.81026 0
M  V30 5022 H 465.573 1.16019 -3.55655 0
M  V30 5023 H 466.906 1.54516 -4.67317 0
M  V30 5024 N 468.558 1.5553 0.254621 0
M  V30 5025 C 469.505 1.89666 1.31512 0
M  V30 5026 C 470.475 0.750057 1.482 0
M  V30 5027 O 471.66 1.00301 1.62309 0
M  V30 5028 C 468.8 2.19009 2.667 0
M  V30 5029 C 467.913 3.46435 2.58083 0
M  V30 5030 C 467.048 3.65386 3.85573 0
M  V30 5031 C 466.087 4.8644 3.71541 0
M  V30 5032 N 465.224 5.01952 4.90906 0
M  V30 5033 H 470.064 2.80109 1.017 0
M  V30 5034 H 467.601 1.38666 0.490938 0
M  V30 5035 H 469.559 2.34025 3.45381 0
M  V30 5036 H 468.189 1.31779 2.94676 0
M  V30 5037 H 467.241 3.39792 1.71013 0
M  V30 5038 H 468.553 4.35258 2.43622 0
M  V30 5039 H 467.707 3.80319 4.72697 0
M  V30 5040 H 466.446 2.74781 4.02922 0
M  V30 5041 H 465.451 4.71491 2.82801 0
M  V30 5042 H 466.676 5.78497 3.55694 0
M  V30 5043 H 464.622 4.14283 5.08631 0
M  V30 5044 H 464.539 5.84851 4.79046 0
M  V30 5045 H 465.807 5.21289 5.7955 0
M  V30 5046 N 470.036 -0.519951 1.48776 0
M  V30 5047 C 471.282 -1.27711 1.57536 0
M  V30 5048 C 471.615 -1.92547 0.252866 0
M  V30 5049 O 470.89 -1.7979 -0.742021 0
M  V30 5050 C 471.173 -2.35875 2.72094 0
M  V30 5051 C 471.026 -1.75664 4.1408 0
M  V30 5052 C 472.345 -3.37575 2.82367 0
M  V30 5053 H 469.464 -0.462971 0.573434 0
M  V30 5054 H 472.106 -0.578194 1.80989 0
M  V30 5055 H 470.256 -2.95488 2.52228 0
M  V30 5056 H 471.928 -1.20025 4.45412 0
M  V30 5057 H 470.171 -1.06154 4.20611 0
M  V30 5058 H 470.842 -2.54029 4.90075 0
M  V30 5059 H 473.318 -2.87929 3.00393 0
M  V30 5060 H 472.194 -4.1064 3.64233 0
M  V30 5061 H 472.455 -3.98743 1.90936 0
M  V30 5062 N 471.514 -1.37532 -0.769588 0
M  V30 5063 C 472.742 -1.36059 -1.55871 0
M  V30 5064 C 473.157 0.053544 -1.88724 0
M  V30 5065 O 472.514 1.01591 -1.5161 0
M  V30 5066 C 472.565 -2.20107 -2.86767 0
M  V30 5067 O 472.286 -3.56009 -2.55321 0
M  V30 5068 C 473.787 -2.26636 -3.80987 0
M  V30 5069 H 471.007 -0.465967 -0.482821 0
M  V30 5070 H 473.551 -1.80901 -0.953686 0
M  V30 5071 H 471.706 -1.78768 -3.43687 0
M  V30 5072 H 472.12 -4.0009 -3.39158 0
M  V30 5073 H 473.594 -2.89763 -4.69831 0
M  V30 5074 H 474.071 -1.2754 -4.20274 0
M  V30 5075 H 474.677 -2.68296 -3.29996 0
M  V30 5076 N 472.992 0.995999 -1.22138 0
M  V30 5077 C 473.922 2.10387 -1.01289 0
M  V30 5078 C 474.903 1.69975 0.0651454 0
M  V30 5079 O 476.088 1.9396 -0.0964628 0
M  V30 5080 C 473.218 3.42312 -0.586517 0
M  V30 5081 C 472.172 3.96558 -1.61014 0
M  V30 5082 C 471.498 5.24494 -1.0397 0
M  V30 5083 C 472.798 4.27595 -2.99933 0
M  V30 5084 H 474.492 2.28086 -1.93951 0
M  V30 5085 H 472.038 1.09607 -0.933928 0
M  V30 5086 H 473.991 4.19223 -0.427793 0
M  V30 5087 H 472.715 3.24431 0.375761 0
M  V30 5088 H 471.374 3.21776 -1.75658 0
M  V30 5089 H 471.022 5.02953 -0.0688703 0
M  V30 5090 H 470.722 5.61755 -1.72352 0
M  V30 5091 H 472.246 6.04042 -0.892494 0
M  V30 5092 H 473.66 4.95315 -2.8868 0
M  V30 5093 H 472.057 4.76021 -3.6541 0
M  V30 5094 H 473.127 3.35498 -3.50099 0
M  V30 5095 N 474.47 1.03057 1.19235 0
M  V30 5096 C 475.4 0.633497 2.24742 0
M  V30 5097 C 476.381 -0.358335 1.66283 0
M  V30 5098 O 477.566 -0.240676 1.92703 0
M  V30 5099 C 474.696 -0.0147648 3.47297 0
M  V30 5100 C 473.65 0.899527 4.18441 0
M  V30 5101 C 472.976 0.116281 5.34574 0
M  V30 5102 C 474.276 2.21404 4.73051 0
M  V30 5103 H 475.97 1.5155 2.58211 0
M  V30 5104 H 473.516 0.73014 1.24117 0
M  V30 5105 H 475.469 -0.304202 4.20301 0
M  V30 5106 H 474.193 -0.931577 3.13032 0
M  V30 5107 H 472.852 1.17319 3.47321 0
M  V30 5108 H 472.5 -0.802619 4.96555 0
M  V30 5109 H 472.2 0.725293 5.83107 0
M  V30 5110 H 473.724 -0.166376 6.10373 0
M  V30 5111 H 475.138 1.98601 5.37802 0
M  V30 5112 H 473.535 2.77512 5.32078 0
M  V30 5113 H 474.605 2.86752 3.91026 0
M  V30 5114 N 475.948 -1.35272 0.808662 0
M  V30 5115 C 476.896 -2.31663 0.208606 0
M  V30 5116 C 477.89 -1.56731 -0.642778 0
M  V30 5117 O 479.096 -1.71843 -0.53571 0
M  V30 5118 H 475.471 -0.750421 0.0486993 0
M  V30 5119 H 477.442 -2.79814 1.03666 0
M  V30 5120 C 476.191 -3.42008 -0.626573 0
M  V30 5121 H 475.514 -3.99795 0.0192103 0
M  V30 5122 H 476.954 -4.11727 -1.01278 0
M  V30 5123 C 475.413 -2.85226 -1.79298 0
M  V30 5124 O 475.943 -2.78945 -2.89055 0
M  V30 5125 N 474.149 -2.42245 -1.60516 0
M  V30 5126 H 473.696 -2.47554 -0.712375 0
M  V30 5127 H 473.654 -2.04603 -2.38715 0
M  V30 5128 N 477.426 -0.562348 -1.47226 0
M  V30 5129 C 478.389 0.172056 -2.28553 0
M  V30 5130 C 479.389 0.837928 -1.37242 0
M  V30 5131 O 480.579 0.693001 -1.59822 0
M  V30 5132 C 477.711 1.25223 -3.17068 0
M  V30 5133 H 478.904 -0.542401 -2.94954 0
M  V30 5134 H 476.457 -0.319493 -1.53 0
M  V30 5135 H 477.192 1.99892 -2.55369 0
M  V30 5136 H 476.977 0.779515 -3.84273 0
M  V30 5137 H 478.467 1.76791 -3.78332 0
M  V30 5138 N 478.904 1.54736 -0.299062 0
M  V30 5139 C 480.315 1.8569 0.193971 0
M  V30 5140 C 480.666 1.22101 1.53577 0
M  V30 5141 O 479.791 0.51799 2.10109 0
M  V30 5142 C 480.386 3.36895 0.358733 0
M  V30 5143 C 478.945 3.67887 0.795986 0
M  V30 5144 C 478.092 2.77131 -0.096807 0
M  V30 5145 H 481.043 1.49934 -0.520134 0
M  V30 5146 H 481.064 3.61294 1.19361 0
M  V30 5147 H 480.576 3.83148 -0.617998 0
M  V30 5148 H 478.677 3.27151 1.78334 0
M  V30 5149 H 478.79 4.75114 0.616718 0
M  V30 5150 H 477.154 2.51153 0.423581 0
M  V30 5151 H 477.937 3.26204 -1.06986 0
M  V30 5152 N 480.382 0.0267497 1.57577 0
M  V30 5153 C 481.61 -0.662661 1.96001 0
M  V30 5154 C 482.025 -1.65799 0.903117 0
M  V30 5155 O 481.382 -1.82135 -0.115317 0
M  V30 5156 C 481.433 -1.37112 3.34488 0
M  V30 5157 O 481.154 -0.415683 4.36123 0
M  V30 5158 C 482.655 -2.15257 3.8753 0
M  V30 5159 H 479.875 -0.18287 0.6456 0
M  V30 5160 H 482.419 0.0858116 2.0432 0
M  V30 5161 H 480.574 -2.07101 3.27395 0
M  V30 5162 H 480.988 -0.918496 5.16395 0
M  V30 5163 H 482.462 -2.60285 4.86781 0
M  V30 5164 H 482.939 -2.99063 3.21649 0
M  V30 5165 H 483.545 -1.50231 3.97883 0
M  V30 5166 N 481.861 -1.55662 -0.24637 0
M  V30 5167 C 482.808 -1.90361 -1.30504 0
M  V30 5168 C 483.778 -0.757905 -1.47801 0
M  V30 5169 O 484.963 -1.01161 -1.61775 0
M  V30 5170 C 482.103 -2.2042 -2.65535 0
M  V30 5171 C 481.216 -3.47799 -2.56242 0
M  V30 5172 C 480.351 -3.67426 -3.8363 0
M  V30 5173 C 479.39 -4.88403 -3.68956 0
M  V30 5174 N 478.527 -5.04548 -4.88237 0
M  V30 5175 H 483.367 -2.80645 -1.00213 0
M  V30 5176 H 480.904 -1.38924 -0.483577 0
M  V30 5177 H 482.862 -2.35853 -3.44135 0
M  V30 5178 H 481.492 -1.3334 -2.93973 0
M  V30 5179 H 480.544 -3.40694 -1.69208 0
M  V30 5180 H 481.856 -4.36544 -2.4131 0
M  V30 5181 H 481.01 -3.82821 -4.70673 0
M  V30 5182 H 479.749 -2.76914 -4.01459 0
M  V30 5183 H 478.754 -4.72984 -2.80296 0
M  V30 5184 H 479.979 -5.80375 -3.52621 0
M  V30 5185 H 477.925 -4.16974 -5.06427 0
M  V30 5186 H 477.842 -5.87384 -4.75937 0
M  V30 5187 H 479.11 -5.24355 -5.76777 0
M  V30 5188 N 483.339 0.512053 -1.4905 0
M  V30 5189 C 484.755 0.84224 -1.35567 0
M  V30 5190 C 484.955 1.97878 -0.380319 0
M  V30 5191 O 484.011 2.51769 0.19201 0
M  V30 5192 C 485.324 1.19286 -2.76028 0
M  V30 5193 C 486.872 1.30171 -2.84648 0
M  V30 5194 C 487.347 1.68568 -4.25851 0
M  V30 5195 N 488.838 1.75638 -4.28609 0
M  V30 5196 C 489.573 2.06769 -5.34821 0
M  V30 5197 N 489.069 2.36201 -6.51292 0
M  V30 5198 N 490.862 2.07927 -5.22229 0
M  V30 5199 H 483.013 -0.237574 -2.11067 0
M  V30 5200 H 485.276 -0.0436747 -0.946993 0
M  V30 5201 H 484.982 0.431199 -3.49047 0
M  V30 5202 H 484.856 2.13889 -3.10695 0
M  V30 5203 H 487.243 2.05411 -2.11873 0
M  V30 5204 H 487.324 0.336457 -2.53578 0
M  V30 5205 H 486.968 0.938824 -4.99148 0
M  V30 5206 H 486.898 2.66174 -4.54377 0
M  V30 5207 H 489.389 1.55097 -3.44606 0
M  V30 5208 H 489.702 2.59112 -7.28066 0
M  V30 5209 H 488.047 2.33681 -6.54536 0
M  V30 5210 H 491.238 1.84403 -4.30248 0
M  V30 5211 H 491.411 2.31856 -6.05101 0
M  V30 5212 N 484.817 1.37938 0.762283 0
M  V30 5213 C 486.228 1.30094 1.33912 0
M  V30 5214 C 486.579 -0.0472026 1.96143 0
M  V30 5215 O 485.704 -0.94917 1.94473 0
M  V30 5216 C 486.299 2.35592 2.43478 0
M  V30 5217 C 484.858 2.31353 2.96905 0
M  V30 5218 C 484.005 2.18919 1.70205 0
M  V30 5219 H 486.956 1.48423 0.561816 0
M  V30 5220 H 486.977 2.00806 3.23199 0
M  V30 5221 H 486.489 3.33701 1.98155 0
M  V30 5222 H 484.59 1.36799 3.46579 0
M  V30 5223 H 484.703 3.25147 3.51875 0
M  V30 5224 H 483.067 1.65624 1.93496 0
M  V30 5225 H 483.85 3.18956 1.26973 0
M  V30 5226 N 486.295 -0.989507 1.22664 0
M  V30 5227 C 487.711 -1.25395 0.987331 0
M  V30 5228 C 487.911 -1.9899 -0.317056 0
M  V30 5229 O 486.967 -2.30141 -1.03882 0
M  V30 5230 C 488.28 -2.06242 2.18826 0
M  V30 5231 C 489.828 -2.19413 2.23219 0
M  V30 5232 C 490.303 -3.03648 3.42873 0
M  V30 5233 N 491.794 -3.11234 3.43056 0
M  V30 5234 C 492.529 -3.7671 4.32293 0
M  V30 5235 N 492.025 -4.44085 5.31752 0
M  V30 5236 N 493.818 -3.73505 4.2006 0
M  V30 5237 H 485.969 -0.496212 2.06522 0
M  V30 5238 H 488.232 -0.281784 0.905153 0
M  V30 5239 H 487.938 -1.59531 3.13437 0
M  V30 5240 H 487.812 -3.06996 2.19165 0
M  V30 5241 H 490.199 -2.65336 1.29154 0
M  V30 5242 H 490.28 -1.18078 2.26917 0
M  V30 5243 H 489.924 -2.58424 4.37241 0
M  V30 5244 H 489.854 -4.05132 3.36416 0
M  V30 5245 H 492.345 -2.63287 2.71088 0
M  V30 5246 H 492.658 -4.91797 5.96117 0
M  V30 5247 H 491.003 -4.42822 5.35662 0
M  V30 5248 H 494.194 -3.20033 3.41609 0
M  V30 5249 H 494.367 -4.24253 4.8981 0
M  V30 5250 N 487.773 -1.03688 -1.18687 0
M  V30 5251 C 488.998 -0.757819 -1.93059 0
M  V30 5252 C 489.423 0.678353 -1.75442 0
M  V30 5253 O 488.781 1.46938 -1.06203 0
M  V30 5254 C 488.829 -1.12423 -3.42627 0
M  V30 5255 O 487.933 -0.247505 -4.11657 0
M  V30 5256 H 487.274 -0.279245 -0.602427 0
M  V30 5257 H 489.804 -1.3857 -1.5053 0
M  V30 5258 H 489.814 -1.08454 -3.93322 0
M  V30 5259 H 488.489 -2.17049 -3.54771 0
M  V30 5260 H 487.066 -0.34649 -3.71287 0
M  V30 5261 N 489.251 1.34841 -0.815825 0
M  V30 5262 C 490.476 2.03261 -0.41226 0
M  V30 5263 C 490.901 1.61055 0.971751 0
M  V30 5264 O 490.259 0.7917 1.63101 0
M  V30 5265 C 490.307 3.56914 -0.514289 0
M  V30 5266 O 489.411 4.09728 0.468675 0
M  V30 5267 H 488.752 0.641664 -0.170771 0
M  V30 5268 H 491.282 1.72241 -1.10427 0
M  V30 5269 H 491.292 4.06156 -0.387457 0
M  V30 5270 H 489.967 3.86982 -1.52375 0
M  V30 5271 H 488.544 3.71681 0.301316 0
M  V30 5272 N 490.729 0.570148 1.46925 0
M  V30 5273 C 491.957 0.0561966 2.06824 0
M  V30 5274 C 492.372 -1.24326 1.42086 0
M  V30 5275 O 491.729 -1.74882 0.521794 0
M  V30 5276 C 491.78 -0.129517 3.61268 0
M  V30 5277 O 491.501 1.1185 4.23581 0
M  V30 5278 C 493.002 -0.679266 4.38065 0
M  V30 5279 H 490.222 0.0517261 0.669003 0
M  V30 5280 H 492.766 0.787243 1.8874 0
M  V30 5281 H 490.921 -0.810739 3.78822 0
M  V30 5282 H 491.335 0.924375 5.1629 0
M  V30 5283 H 492.809 -0.758445 5.46765 0
M  V30 5284 H 493.286 -1.69346 4.05239 0
M  V30 5285 H 493.892 -0.0333237 4.25287 0
M  V30 5286 N 492.207 -1.54576 0.307264 0
M  V30 5287 C 493.453 -2.0056 -0.300612 0
M  V30 5288 C 493.786 -1.1953 -1.53057 0
M  V30 5289 O 493.061 -0.27337 -1.92569 0
M  V30 5290 C 493.344 -3.54167 -0.650987 0
M  V30 5291 C 493.197 -4.45933 0.588539 0
M  V30 5292 C 494.516 -4.14645 -1.47506 0
M  V30 5293 H 491.635 -0.729075 -0.107788 0
M  V30 5294 H 494.277 -1.85286 0.420606 0
M  V30 5295 H 492.427 -3.67313 -1.26544 0
M  V30 5296 H 494.099 -4.44683 1.22697 0
M  V30 5297 H 492.342 -4.16274 1.22058 0
M  V30 5298 H 493.013 -5.51189 0.299153 0
M  V30 5299 H 495.489 -4.04973 -0.955821 0
M  V30 5300 H 494.365 -5.22269 -1.68899 0
M  V30 5301 H 494.626 -3.66921 -2.4662 0
M  V30 5302 N 493.685 -0.035106 -1.57561 0
M  V30 5303 C 494.913 0.652258 -1.9635 0
M  V30 5304 C 495.328 1.65317 -0.911897 0
M  V30 5305 O 494.685 1.82194 0.105657 0
M  V30 5306 C 494.736 1.35337 -3.35211 0
M  V30 5307 O 494.457 0.392548 -4.36338 0
M  V30 5308 C 495.958 2.13199 -3.88666 0
M  V30 5309 H 493.178 0.179444 -0.646561 0
M  V30 5310 H 495.722 -0.0966459 -2.04271 0
M  V30 5311 H 493.877 2.05362 -3.28489 0
M  V30 5312 H 494.291 0.891097 -5.16875 0
M  V30 5313 H 495.765 2.577 -4.88154 0
M  V30 5314 H 496.242 2.97353 -3.23231 0
M  V30 5315 H 496.848 1.48118 -3.98674 0
M  V30 5316 N 495.163 1.55791 0.238111 0
M  V30 5317 C 496.073 1.94196 1.31625 0
M  V30 5318 C 497.089 0.843545 1.52185 0
M  V30 5319 O 498.265 1.1457 1.65637 0
M  V30 5320 C 495.33 2.2365 2.64918 0
M  V30 5321 C 494.391 3.46971 2.52804 0
M  V30 5322 C 493.624 3.7501 3.79741 0
M  V30 5323 O 493.847 3.04982 4.82019 0
M  V30 5324 O 492.781 4.68525 3.77846 0
M  V30 5325 H 496.607 2.86044 1.02043 0
M  V30 5326 H 494.192 1.42786 0.439603 0
M  V30 5327 H 496.074 2.43863 3.4367 0
M  V30 5328 H 494.749 1.34979 2.94215 0
M  V30 5329 H 493.656 3.32055 1.72309 0
M  V30 5330 H 494.989 4.35971 2.28451 0
M  V30 5331 N 496.642 -0.504142 1.49319 0
M  V30 5332 C 497.605 -1.5883 1.65244 0
M  V30 5333 C 498.605 -1.52009 0.524386 0
M  V30 5334 O 499.795 -1.55218 0.79077 0
M  V30 5335 C 496.927 -2.98481 1.64687 0
M  V30 5336 H 498.12 -1.4604 2.61939 0
M  V30 5337 H 495.673 -0.728144 1.38303 0
M  V30 5338 H 496.408 -3.16751 0.695644 0
M  V30 5339 H 496.193 -3.0484 2.46607 0
M  V30 5340 H 497.683 -3.77256 1.79075 0
M  V30 5341 N 498.12 -1.38341 -0.754957 0
M  V30 5342 C 499.531 -1.30803 -1.3322 0
M  V30 5343 C 499.882 0.0368 -1.96165 0
M  V30 5344 O 499.007 0.938844 -1.94974 0
M  V30 5345 C 499.602 -2.3688 -2.42225 0
M  V30 5346 C 498.161 -2.32925 -2.95674 0
M  V30 5347 C 497.308 -2.19819 -1.69042 0
M  V30 5348 H 500.259 -1.48719 -0.553937 0
M  V30 5349 H 500.28 -2.02517 -3.22129 0
M  V30 5350 H 499.792 -3.34747 -1.96383 0
M  V30 5351 H 497.893 -1.38635 -3.45848 0
M  V30 5352 H 498.006 -3.27008 -3.50146 0
M  V30 5353 H 496.37 -1.66648 -1.92615 0
M  V30 5354 H 497.153 -3.19625 -1.25279 0
M  V30 5355 N 499.598 0.982988 -1.23187 0
M  V30 5356 C 500.847 1.71817 -1.05649 0
M  V30 5357 C 501.16 1.91315 0.407176 0
M  V30 5358 O 502.366 2.62256 0.702436 0
M  V30 5359 C 500.822 3.09188 -1.84203 0
M  V30 5360 C 500.43 2.97586 -3.34882 0
M  V30 5361 C 502.174 3.86684 -1.75146 0
M  V30 5362 C 500.081 4.30173 -4.05839 0
M  V30 5363 H 499.011 0.644258 -0.391724 0
M  V30 5364 H 501.662 1.09659 -1.4713 0
M  V30 5365 H 500.044 3.72087 -1.35527 0
M  V30 5366 H 501.218 2.43793 -3.91026 0
M  V30 5367 H 499.533 2.33567 -3.44725 0
M  V30 5368 H 502.13 4.84836 -2.25473 0
M  V30 5369 H 502.473 4.10136 -0.713737 0
M  V30 5370 H 503.006 3.30482 -2.21419 0
M  V30 5371 H 499.745 4.11918 -5.09906 0
M  V30 5372 H 499.265 4.83841 -3.54482 0
M  V30 5373 H 500.944 4.98873 -4.11989 0
M  V30 5374 N 501.076 1.04316 1.18135 0
M  V30 5375 C 502.039 0.640794 2.2006 0
M  V30 5376 C 503.039 -0.303124 1.57917 0
M  V30 5377 O 504.229 -0.0881855 1.73977 0
M  V30 5378 C 501.361 -0.060148 3.40847 0
M  V30 5379 H 502.554 1.54281 2.57172 0
M  V30 5380 H 500.107 0.836004 1.32063 0
M  V30 5381 H 500.842 -0.975845 3.0927 0
M  V30 5382 H 500.627 0.618319 3.87194 0
M  V30 5383 H 502.117 -0.328082 4.16309 0
M  V30 5384 N 502.554 -1.34406 0.822964 0
M  V30 5385 C 503.8 -1.98578 0.411666 0
M  V30 5386 C 504.133 -1.65093 -1.02264 0
M  V30 5387 O 503.408 -0.92258 -1.71227 0
M  V30 5388 C 503.691 -3.54823 0.614235 0
M  V30 5389 C 503.544 -3.9805 2.09466 0
M  V30 5390 C 504.863 -4.40071 0.050221 0
M  V30 5391 H 501.982 -0.721355 0.151047 0
M  V30 5392 H 504.624 -1.59301 1.03554 0
M  V30 5393 H 502.774 -3.88411 0.0831774 0
M  V30 5394 H 504.446 -3.74795 2.68936 0
M  V30 5395 H 502.689 -3.4836 2.5851 0
M  V30 5396 H 503.36 -5.06819 2.18721 0
M  V30 5397 H 505.836 -4.13037 0.503953 0
M  V30 5398 H 504.712 -5.48452 0.221759 0
M  V30 5399 H 504.973 -4.29576 -1.04482 0
M  V30 5400 N 504.032 -0.577932 -1.46621 0
M  V30 5401 C 505.278 -0.0617793 -2.02706 0
M  V30 5402 C 505.611 1.29294 -1.44903 0
M  V30 5403 O 504.886 1.8461 -0.61232 0
M  V30 5404 C 505.169 0.00911824 -3.60099 0
M  V30 5405 C 505.022 -1.37416 -4.28295 0
M  V30 5406 C 506.341 0.712159 -4.343 0
M  V30 5407 H 503.46 -0.0239246 -0.736612 0
M  V30 5408 H 506.102 -0.744211 -1.74818 0
M  V30 5409 H 504.252 0.590292 -3.83989 0
M  V30 5410 H 505.924 -2.00013 -4.15683 0
M  V30 5411 H 504.167 -1.94319 -3.87843 0
M  V30 5412 H 504.838 -1.27707 -5.37024 0
M  V30 5413 H 507.314 0.218486 -4.15526 0
M  V30 5414 H 506.19 0.730782 -5.44014 0
M  V30 5415 H 506.451 1.77251 -4.05012 0
M  V30 5416 N 505.51 1.54411 -0.315457 0
M  V30 5417 C 506.738 2.04833 0.291738 0
M  V30 5418 C 507.153 1.19203 1.46411 0
M  V30 5419 O 506.51 0.220867 1.81159 0
M  V30 5420 C 506.561 3.53969 0.73404 0
M  V30 5421 O 506.282 4.36346 -0.391682 0
M  V30 5422 C 507.783 4.2045 1.40489 0
M  V30 5423 H 505.003 0.668195 0.0612947 0
M  V30 5424 H 507.547 1.99276 -0.45929 0
M  V30 5425 H 505.702 3.5984 1.43506 0
M  V30 5426 H 506.116 5.24481 -0.0447088 0
M  V30 5427 H 507.59 5.26278 1.66539 0
M  V30 5428 H 508.067 3.71067 2.3496 0
M  V30 5429 H 508.673 4.18694 0.746662 0
M  V30 5430 N 506.988 0.0434614 1.5754 0
M  V30 5431 C 508.213 -0.645358 1.97104 0
M  V30 5432 C 508.638 -1.64037 0.920521 0
M  V30 5433 O 507.996 -1.80922 -0.11708 0
M  V30 5434 C 508.044 -1.31547 3.35749 0
M  V30 5435 O 507.148 -2.43103 3.33129 0
M  V30 5436 H 506.489 -0.168403 0.64229 0
M  V30 5437 H 509.019 0.109573 2.04306 0
M  V30 5438 H 509.029 -1.66895 3.72304 0
M  V30 5439 H 507.704 -0.586205 4.11748 0
M  V30 5440 H 506.281 -2.0976 3.0831 0
M  V30 5441 N 508.466 -1.55915 -0.229846 0
M  V30 5442 C 509.882 -1.48721 -0.579166 0
M  V30 5443 C 510.082 -0.736976 -1.87539 0
M  V30 5444 O 509.138 -0.273258 -2.51017 0
M  V30 5445 C 510.451 -2.9323 -0.666082 0
M  V30 5446 C 511.999 -3.03701 -0.757267 0
M  V30 5447 C 512.474 -4.49552 -0.8756 0
M  V30 5448 N 513.965 -4.53561 -0.940035 0
M  V30 5449 C 514.7 -5.63683 -1.05116 0
M  V30 5450 N 514.196 -6.83576 -1.12675 0
M  V30 5451 N 515.989 -5.51516 -1.08565 0
M  V30 5452 H 508.14 -2.03123 0.620857 0
M  V30 5453 H 510.403 -0.922898 0.21671 0
M  V30 5454 H 510.109 -3.51032 0.21664 0
M  V30 5455 H 509.983 -3.44668 -1.53243 0
M  V30 5456 H 512.37 -2.45969 -1.63043 0
M  V30 5457 H 512.451 -2.55446 0.134583 0
M  V30 5458 H 512.095 -5.079 -0.00692351 0
M  V30 5459 H 512.025 -4.95506 -1.78274 0
M  V30 5460 H 514.516 -3.67215 -0.892269 0
M  V30 5461 H 514.829 -7.63251 -1.21109 0
M  V30 5462 H 513.174 -6.86303 -1.09603 0
M  V30 5463 H 516.365 -4.5678 -1.02319 0
M  V30 5464 H 516.538 -6.37372 -1.1688 0
M  V30 5465 N 509.944 0.496216 -1.49584 0
M  V30 5466 C 511.172 1.27394 -1.63029 0
M  V30 5467 C 511.587 1.86344 -0.303569 0
M  V30 5468 O 510.944 1.68057 0.711547 0
M  V30 5469 C 510.995 2.40077 -2.70269 0
M  V30 5470 O 510.716 1.83549 -3.97796 0
M  V30 5471 C 512.217 3.31372 -2.94462 0
M  V30 5472 H 509.437 0.386211 -0.54871 0
M  V30 5473 H 511.981 0.595163 -1.95648 0
M  V30 5474 H 510.136 3.03775 -2.40415 0
M  V30 5475 H 510.55 2.57561 -4.56905 0
M  V30 5476 H 512.024 4.06707 -3.73221 0
M  V30 5477 H 512.501 3.88654 -2.0456 0
M  V30 5478 H 513.107 2.73435 -3.25751 0
M  V30 5479 N 511.423 1.38739 0.74761 0
M  V30 5480 C 512.648 1.38702 1.54197 0
M  V30 5481 C 513.073 -0.019664 1.8809 0
M  V30 5482 O 512.431 -1.00333 1.51006 0
M  V30 5483 C 512.479 2.25492 2.814 0
M  V30 5484 O 511.583 1.67613 3.76802 0
M  V30 5485 H 510.924 0.472863 0.466151 0
M  V30 5486 H 513.454 1.82577 0.923413 0
M  V30 5487 H 513.464 2.39561 3.30264 0
M  V30 5488 H 512.139 3.27727 2.56062 0
M  V30 5489 H 510.716 1.62718 3.35526 0
M  V30 5490 N 512.901 -0.976442 1.23707 0
M  V30 5491 C 513.811 -2.10359 1.03856 0
M  V30 5492 C 514.827 -1.73991 -0.0180919 0
M  V30 5493 O 516.003 -2.0061 0.178211 0
M  V30 5494 C 513.068 -3.40809 0.636387 0
M  V30 5495 C 512.129 -3.91179 1.76854 0
M  V30 5496 C 511.362 -5.15404 1.38546 0
M  V30 5497 O 511.585 -5.69754 0.27142 0
M  V30 5498 O 510.519 -5.5994 2.20797 0
M  V30 5499 H 514.345 -2.29997 1.98331 0
M  V30 5500 H 511.93 -1.08742 1.02448 0
M  V30 5501 H 513.812 -4.19269 0.423223 0
M  V30 5502 H 512.487 -3.22493 -0.279322 0
M  V30 5503 H 511.394 -3.13819 2.03638 0
M  V30 5504 H 512.727 -4.13958 2.6627 0
M  V30 5505 N 514.379 -1.04941 -1.1758 0
M  V30 5506 C 515.625 -0.759112 -1.88057 0
M  V30 5507 C 515.958 0.711918 -1.8068 0
M  V30 5508 O 515.233 1.52035 -1.21308 0
M  V30 5509 C 515.516 -1.237 -3.38187 0
M  V30 5510 C 515.369 -2.77078 -3.54327 0
M  V30 5511 C 516.688 -0.834014 -4.32125 0
M  V30 5512 H 513.807 -0.277237 -0.682868 0
M  V30 5513 H 516.449 -1.30296 -1.38286 0
M  V30 5514 H 514.599 -0.774337 -3.80705 0
M  V30 5515 H 516.271 -3.31449 -3.20842 0
M  V30 5516 H 514.514 -3.16477 -2.96689 0
M  V30 5517 H 515.185 -3.05577 -4.59703 0
M  V30 5518 H 517.661 -1.23228 -3.97434 0
M  V30 5519 H 516.537 -1.19603 -5.35711 0
M  V30 5520 H 516.798 0.262195 -4.41322 0
M  V30 5521 N 515.857 1.33968 -0.830081 0
M  V30 5522 C 517.087 2.01987 -0.434142 0
M  V30 5523 C 517.495 1.62639 0.96671 0
M  V30 5524 O 516.838 0.831151 1.63822 0
M  V30 5525 C 516.9 3.5648 -0.465018 0
M  V30 5526 C 516.564 4.19176 -1.82045 0
M  V30 5527 C 517.561 4.39181 -2.78237 0
M  V30 5528 C 515.246 4.55792 -2.11089 0
M  V30 5529 C 517.24 4.94937 -4.01642 0
M  V30 5530 C 514.927 5.11258 -3.34752 0
M  V30 5531 C 515.925 5.30775 -4.29845 0
M  V30 5532 O 515.613 5.85064 -5.51322 0
M  V30 5533 H 515.345 0.653847 -0.171639 0
M  V30 5534 H 517.899 1.72066 -1.12171 0
M  V30 5535 H 516.129 3.8569 0.279284 0
M  V30 5536 H 517.818 4.05804 -0.0881334 0
M  V30 5537 H 518.584 4.11249 -2.57097 0
M  V30 5538 H 514.463 4.39901 -1.3787 0
M  V30 5539 H 518.007 5.10086 -4.75876 0
M  V30 5540 H 513.904 5.38619 -3.55753 0
M  V30 5541 H 514.672 6.03489 -5.5294 0
M  V30 5542 N 517.335 0.585699 1.46312 0
M  V30 5543 C 518.581 0.0725284 2.0267 0
M  V30 5544 C 518.914 -1.28523 1.45586 0
M  V30 5545 O 518.189 -1.84283 0.622101 0
M  V30 5546 C 518.472 0.0099788 3.60099 0
M  V30 5547 C 518.325 1.39685 4.27561 0
M  V30 5548 C 519.644 -0.689117 4.34671 0
M  V30 5549 H 516.763 0.0278307 0.736474 0
M  V30 5550 H 519.405 0.753472 1.74421 0
M  V30 5551 H 517.555 -0.56992 3.84297 0
M  V30 5552 H 519.227 2.02215 4.14617 0
M  V30 5553 H 517.47 1.96374 3.86807 0
M  V30 5554 H 518.141 1.30553 5.36339 0
M  V30 5555 H 520.617 -0.196446 4.15636 0
M  V30 5556 H 519.493 -0.701921 5.44393 0
M  V30 5557 H 519.754 -1.75101 4.05946 0
M  V30 5558 N 518.813 -1.54241 0.323641 0
M  V30 5559 C 520.059 -2.01572 -0.272089 0
M  V30 5560 C 520.414 -1.20774 -1.49771 0
M  V30 5561 O 519.707 -0.281821 -1.89516 0
M  V30 5562 C 519.901 -3.5129 -0.658031 0
M  V30 5563 C 519.73 -4.46582 0.528645 0
M  V30 5564 C 518.5 -4.94737 1.02777 0
M  V30 5565 C 520.698 -4.95416 1.38086 0
M  V30 5566 N 518.68 -5.73933 2.17885 0
M  V30 5567 C 520.051 -5.72537 2.3791 0
M  V30 5568 C 522.106 -4.77559 1.40861 0
M  V30 5569 C 520.809 -6.33702 3.40314 0
M  V30 5570 C 522.835 -5.39559 2.42136 0
M  V30 5571 C 522.197 -6.16532 3.40688 0
M  V30 5572 H 518.296 -0.779425 -0.0634072 0
M  V30 5573 H 520.88 -1.8922 0.458697 0
M  V30 5574 H 519.051 -3.63888 -1.35795 0
M  V30 5575 H 520.783 -3.85388 -1.23524 0
M  V30 5576 H 517.538 -4.69796 0.599046 0
M  V30 5577 H 517.962 -6.18209 2.75947 0
M  V30 5578 H 522.604 -4.17611 0.660352 0
M  V30 5579 H 520.322 -6.9277 4.16047 0
M  V30 5580 H 523.908 -5.27659 2.45086 0
M  V30 5581 H 522.788 -6.63655 4.1777 0
M  V30 5582 N 520.291 -0.0518155 -1.57515 0
M  V30 5583 C 521.539 0.620595 -1.92336 0
M  V30 5584 C 521.86 1.71345 -0.930907 0
M  V30 5585 O 521.13 1.95885 0.0241341 0
M  V30 5586 H 519.71 0.232226 -0.709986 0
M  V30 5587 H 522.372 -0.104969 -1.94617 0
M  V30 5588 H 521.468 1.05879 -2.93592 0
M  V30 5589 N 521.769 1.56035 0.221574 0
M  V30 5590 C 523.017 1.78693 0.944102 0
M  V30 5591 C 523.338 0.620317 1.8487 0
M  V30 5592 O 522.608 -0.362784 1.92512 0
M  V30 5593 H 521.188 0.659082 0.351597 0
M  V30 5594 H 523.85 1.93497 0.233435 0
M  V30 5595 H 522.946 2.70837 1.55093 0
M  V30 5596 N 523.247 -0.488276 1.49845 0
M  V30 5597 C 524.495 -1.23911 1.59657 0
M  V30 5598 C 524.816 -1.92816 0.291005 0
M  V30 5599 O 524.086 -1.83328 -0.690485 0
M  V30 5600 H 522.666 -0.460357 0.588286 0
M  V30 5601 H 525.328 -0.564794 1.86537 0
M  V30 5602 H 524.424 -1.99625 2.39909 0
M  V30 5603 N 524.725 -1.39134 -0.740242 0
M  V30 5604 C 525.672 -1.37434 -1.8542 0
M  V30 5605 C 526.642 -0.234822 -1.64432 0
M  V30 5606 O 527.827 -0.429125 -1.85912 0
M  V30 5607 C 524.967 -1.21844 -3.22875 0
M  V30 5608 C 524.08 -2.45296 -3.55603 0
M  V30 5609 C 523.215 -2.22334 -4.82432 0
M  V30 5610 C 522.254 -3.41488 -5.07988 0
M  V30 5611 N 521.391 -3.17877 -6.26018 0
M  V30 5612 H 526.231 -2.3266 -1.86207 0
M  V30 5613 H 523.768 -1.15578 -0.909946 0
M  V30 5614 H 525.726 -1.10818 -4.02213 0
M  V30 5615 H 524.356 -0.3025 -3.21379 0
M  V30 5616 H 523.408 -2.66945 -2.71006 0
M  V30 5617 H 524.72 -3.34063 -3.7041 0
M  V30 5618 H 523.874 -2.0852 -5.69741 0
M  V30 5619 H 522.613 -1.30954 -4.6979 0
M  V30 5620 H 521.618 -3.55807 -4.19144 0
M  V30 5621 H 522.843 -4.33763 -5.22519 0
M  V30 5622 H 520.789 -2.29156 -6.14673 0
M  V30 5623 H 520.706 -4.00198 -6.41387 0
M  V30 5624 H 521.974 -3.07746 -7.16179 0
M  V30 5625 N 526.204 0.969867 -1.24223 0
M  V30 5626 C 527.429 1.75289 -1.10853 0
M  V30 5627 C 527.854 1.85091 0.335079 0
M  V30 5628 O 527.212 1.32024 1.24255 0
M  V30 5629 C 527.26 3.15255 -1.75062 0
M  V30 5630 O 526.364 3.99589 -1.01992 0
M  V30 5631 H 525.705 0.538904 -0.387915 0
M  V30 5632 H 528.235 1.21675 -1.64488 0
M  V30 5633 H 528.245 3.65787 -1.80731 0
M  V30 5634 H 526.92 3.07436 -2.801 0
M  V30 5635 H 525.497 3.58077 -1.04094 0
M  V30 5636 N 527.682 1.05563 1.17022 0
M  V30 5637 C 528.91 0.78845 1.91288 0
M  V30 5638 C 529.325 -0.656318 1.77025 0
M  V30 5639 O 528.682 -1.44869 1.10992 0
M  V30 5640 C 528.733 1.16444 3.42232 0
M  V30 5641 O 528.454 2.5525 3.5606 0
M  V30 5642 C 529.955 0.923937 4.33565 0
M  V30 5643 H 527.175 0.286389 0.606813 0
M  V30 5644 H 529.719 1.4073 1.48375 0
M  V30 5645 H 527.874 0.590266 3.82877 0
M  V30 5646 H 528.288 2.70097 4.49609 0
M  V30 5647 H 529.762 1.23672 5.37968 0
M  V30 5648 H 530.239 -0.140688 4.38975 0
M  V30 5649 H 530.845 1.48214 3.98639 0
M  V30 5650 N 529.16 -1.33526 0.837174 0
M  V30 5651 C 530.571 -1.80182 0.489017 0
M  V30 5652 C 530.922 -1.69285 -0.991826 0
M  V30 5653 O 530.047 -1.24113 -1.77271 0
M  V30 5654 C 530.642 -3.27149 0.880866 0
M  V30 5655 C 529.201 -3.71828 0.584872 0
M  V30 5656 C 528.348 -2.54974 1.09011 0
M  V30 5657 H 531.299 -1.21071 1.02603 0
M  V30 5658 H 531.32 -3.80024 0.190239 0
M  V30 5659 H 530.832 -3.35048 1.95869 0
M  V30 5660 H 528.933 -3.69457 -0.48295 0
M  V30 5661 H 529.046 -4.65366 1.13892 0
M  V30 5662 H 527.41 -2.4952 0.511047 0
M  V30 5663 H 528.193 -2.65637 2.17467 0
M  V30 5664 N 530.638 -0.59345 -1.46 0
M  V30 5665 C 531.57 0.171569 -2.28557 0
M  V30 5666 C 532.583 0.845273 -1.39137 0
M  V30 5667 O 533.772 0.713033 -1.6364 0
M  V30 5668 C 530.872 1.26311 -3.14482 0
M  V30 5669 C 530.045 0.679258 -4.32094 0
M  V30 5670 C 529.104 1.65987 -4.99334 0
M  V30 5671 O 528.13 1.19171 -5.56585 0
M  V30 5672 N 529.332 2.99414 -4.97324 0
M  V30 5673 H 532.097 -0.536771 -2.94854 0
M  V30 5674 H 529.658 -0.431954 -1.56031 0
M  V30 5675 H 531.65 1.91863 -3.5633 0
M  V30 5676 H 530.22 1.87416 -2.50188 0
M  V30 5677 H 529.44 -0.153992 -3.93899 0
M  V30 5678 H 530.728 0.26916 -5.08088 0
M  V30 5679 H 530.126 3.40064 -4.52076 0
M  V30 5680 H 528.683 3.60426 -5.4308 0
M  V30 5681 N 532.116 1.54067 -0.331816 0
M  V30 5682 C 533.063 2.24623 0.530372 0
M  V30 5683 C 534.033 1.24009 1.10503 0
M  V30 5684 O 535.218 1.52712 1.14384 0
M  V30 5685 C 532.358 3.01374 1.68129 0
M  V30 5686 C 531.471 4.16821 1.13507 0
M  V30 5687 C 530.606 4.81085 2.25234 0
M  V30 5688 C 529.645 5.88621 1.67903 0
M  V30 5689 N 528.782 6.46713 2.73326 0
M  V30 5690 H 533.622 2.97898 -0.0778607 0
M  V30 5691 H 531.159 1.47014 -0.0501965 0
M  V30 5692 H 533.117 3.44125 2.35868 0
M  V30 5693 H 531.747 2.30419 2.26069 0
M  V30 5694 H 530.799 3.78796 0.348979 0
M  V30 5695 H 532.111 4.94203 0.675633 0
M  V30 5696 H 531.265 5.26846 3.00862 0
M  V30 5697 H 530.004 4.03102 2.74518 0
M  V30 5698 H 529.009 5.42254 0.907773 0
M  V30 5699 H 530.234 6.68506 1.19487 0
M  V30 5700 H 528.18 5.71599 3.21886 0
M  V30 5701 H 528.097 7.19532 2.3197 0
M  V30 5702 H 529.365 6.97129 3.48758 0
M  V30 5703 N 533.594 0.0601682 1.57485 0
M  V30 5704 C 534.524 -0.90889 2.15085 0
M  V30 5705 C 535.505 -1.31838 1.07484 0
M  V30 5706 O 536.69 -1.3915 1.35466 0
M  V30 5707 C 533.82 -2.18059 2.7031 0
M  V30 5708 C 532.774 -1.91088 3.82974 0
M  V30 5709 C 532.1 -3.24789 4.24754 0
M  V30 5710 C 533.4 -1.22535 5.07723 0
M  V30 5711 H 535.094 -0.429093 2.96309 0
M  V30 5712 H 532.64 -0.204952 1.42534 0
M  V30 5713 H 534.593 -2.86258 3.09248 0
M  V30 5714 H 533.317 -2.6826 1.8629 0
M  V30 5715 H 531.976 -1.25297 3.44523 0
M  V30 5716 H 531.624 -3.72809 3.37672 0
M  V30 5717 H 531.324 -3.07538 5.00694 0
M  V30 5718 H 532.848 -3.94205 4.66299 0
M  V30 5719 H 534.262 -1.80783 5.4405 0
M  V30 5720 H 532.659 -1.1558 5.88864 0
M  V30 5721 H 533.729 -0.202692 4.84476 0
M  V30 5722 N 535.072 -1.5615 -0.213296 0
M  V30 5723 C 536.349 -1.70349 -0.961281 0
M  V30 5724 C 536.729 -0.609791 -2.02101 0
M  V30 5725 O 536.077 0.381987 -2.25285 0
M  V30 5726 C 536.287 -3.11982 -1.56424 0
M  V30 5727 C 537.635 -3.71649 -2.05334 0
M  V30 5728 O 538.659 -3.14995 -1.66302 0
M  V30 5729 O 537.518 -4.71038 -2.77102 0
M  V30 5730 H 534.612 -0.694121 -0.449582 0
M  V30 5731 H 537.158 -1.68464 -0.204426 0
M  V30 5732 H 535.93 -3.83046 -0.799457 0
M  V30 5733 H 535.553 -3.18019 -2.38641 0
M  V30 5734 N 536.55 0.480323 -1.50102 0
M  V30 5735 C 537.796 1.23489 -1.60867 0
M  V30 5736 C 538.129 1.91809 -0.303827 0
M  V30 5737 O 537.404 1.81694 0.694092 0
M  V30 5738 C 537.687 2.28578 -2.78252 0
M  V30 5739 C 537.54 1.64624 -4.18592 0
M  V30 5740 C 538.859 3.2997 -2.91218 0
M  V30 5741 H 535.978 0.447605 -0.585507 0
M  V30 5742 H 538.62 0.530005 -1.82458 0
M  V30 5743 H 536.77 2.88697 -2.59974 0
M  V30 5744 H 538.442 1.08173 -4.48438 0
M  V30 5745 H 536.685 0.949645 -4.23278 0
M  V30 5746 H 537.356 2.40946 -4.96638 0
M  V30 5747 H 539.832 2.79864 -3.07921 0
M  V30 5748 H 538.708 4.00839 -3.74993 0
M  V30 5749 H 538.969 3.93541 -2.0144 0
M  V30 5750 N 538.028 1.39524 0.732853 0
M  V30 5751 C 539.277 1.36175 1.48792 0
M  V30 5752 C 539.59 -0.0388195 1.95561 0
M  V30 5753 O 540.796 -0.194899 2.708 0
M  V30 5754 C 539.252 2.39242 2.68871 0
M  V30 5755 C 538.86 3.85024 2.29042 0
M  V30 5756 C 540.604 2.44972 3.46683 0
M  V30 5757 C 538.511 4.79727 3.45856 0
M  V30 5758 H 537.441 0.506267 0.558757 0
M  V30 5759 H 540.092 1.65181 0.799226 0
M  V30 5760 H 538.474 2.0331 3.39825 0
M  V30 5761 H 539.648 4.30008 1.6562 0
M  V30 5762 H 537.963 3.82609 1.64316 0
M  V30 5763 H 540.56 3.12918 4.33574 0
M  V30 5764 H 540.903 1.4749 3.89297 0
M  V30 5765 H 541.436 2.79808 2.82759 0
M  V30 5766 H 538.175 5.78479 3.08289 0
M  V30 5767 H 537.695 4.39421 4.08251 0
M  V30 5768 H 539.374 4.98731 4.12161 0
M  V30 5769 N 539.506 -0.963266 1.24736 0
M  V30 5770 C 540.453 -2.05857 1.04363 0
M  V30 5771 C 541.423 -1.6604 -0.0444951 0
M  V30 5772 O 542.608 -1.90477 0.110999 0
M  V30 5773 C 539.748 -3.38745 0.659235 0
M  V30 5774 C 538.861 -3.9173 1.82131 0
M  V30 5775 C 537.996 -5.12906 1.38208 0
M  V30 5776 C 537.035 -5.58098 2.51382 0
M  V30 5777 N 536.172 -6.7049 2.08295 0
M  V30 5778 H 541.012 -2.22616 1.98107 0
M  V30 5779 H 538.549 -1.09103 0.986661 0
M  V30 5780 H 540.507 -4.15107 0.417371 0
M  V30 5781 H 539.137 -3.21898 -0.241201 0
M  V30 5782 H 538.189 -3.11966 2.17672 0
M  V30 5783 H 539.501 -4.21225 2.67153 0
M  V30 5784 H 538.655 -5.96657 1.09935 0
M  V30 5785 H 537.394 -4.85105 0.502456 0
M  V30 5786 H 536.399 -4.72917 2.80409 0
M  V30 5787 H 537.624 -5.87911 3.39909 0
M  V30 5788 H 535.57 -6.44416 1.22737 0
M  V30 5789 H 535.487 -6.99458 2.86869 0
M  V30 5790 H 536.755 -7.57672 1.83175 0
M  V30 5791 N 540.985 -1.06182 -1.16461 0
M  V30 5792 C 542.21 -0.798599 -1.91408 0
M  V30 5793 C 542.635 0.640987 -1.76842 0
M  V30 5794 O 541.993 1.44652 -1.09296 0
M  V30 5795 C 542.041 -1.19665 -3.40165 0
M  V30 5796 O 541.145 -0.334768 -4.11039 0
M  V30 5797 H 540.486 -0.291961 -0.596368 0
M  V30 5798 H 543.016 -1.41732 -1.47557 0
M  V30 5799 H 543.026 -1.16772 -3.90933 0
M  V30 5800 H 541.701 -2.24526 -3.50087 0
M  V30 5801 H 540.278 -0.425168 -3.70468 0
M  V30 5802 N 542.463 1.3308 -0.844243 0
M  V30 5803 C 543.711 1.97215 -0.441676 0
M  V30 5804 C 544.032 1.67185 1.0037 0
M  V30 5805 O 543.302 0.973588 1.69994 0
M  V30 5806 H 541.882 0.72959 -0.160335 0
M  V30 5807 H 544.544 1.62348 -1.07838 0
M  V30 5808 H 543.64 3.06698 -0.57815 0
M  V30 5809 N 543.941 0.601185 1.45683 0
M  V30 5810 C 545.181 0.0968037 2.04171 0
M  V30 5811 C 545.545 -1.2466 1.46027 0
M  V30 5812 O 546.746 -1.84132 1.95829 0
M  V30 5813 C 545.017 0.051384 3.57363 0
M  V30 5814 S 546.576 -0.392737 4.37039 0
M  V30 5815 H 543.394 0.0464504 0.709481 0
M  V30 5816 H 545.996 0.797846 1.78479 0
M  V30 5817 H 544.7 1.03274 3.97193 0
M  V30 5818 H 544.231 -0.671853 3.87621 0
M  V30 5819 H 546.246 -1.64364 4.68187 0
M  V30 5820 N 545.419 -1.53889 0.339982 0
M  V30 5821 C 546.644 -2.05741 -0.261798 0
M  V30 5822 C 547.069 -1.21354 -1.43718 0
M  V30 5823 O 546.427 -0.22645 -1.7988 0
M  V30 5824 C 546.475 -3.54542 -0.658228 0
M  V30 5825 O 545.579 -3.7302 -1.75869 0
M  V30 5826 H 544.92 -0.662529 -0.0441672 0
M  V30 5827 H 547.45 -1.98568 0.493161 0
M  V30 5828 H 547.46 -3.9711 -0.936368 0
M  V30 5829 H 546.135 -4.15412 0.201358 0
M  V30 5830 H 544.712 -3.42355 -1.47809 0
M  V30 5831 N 546.897 -0.0685191 -1.57451 0
M  V30 5832 C 547.86 0.885173 -2.11417 0
M  V30 5833 C 548.86 1.22853 -1.03748 0
M  V30 5834 O 550.05 1.16235 -1.2975 0
M  V30 5835 C 547.182 2.18964 -2.61281 0
M  V30 5836 H 548.375 0.417034 -2.96986 0
M  V30 5837 H 545.928 0.18014 -1.55258 0
M  V30 5838 H 546.663 2.70321 -1.79156 0
M  V30 5839 H 546.448 1.9534 -3.39977 0
M  V30 5840 H 547.938 2.87242 -3.0312 0
M  V30 5841 N 548.375 1.56261 0.205012 0
M  V30 5842 C 549.791 1.49623 0.555433 0
M  V30 5843 C 549.991 0.766719 1.86343 0
M  V30 5844 O 549.047 0.313158 2.50551 0
M  V30 5845 C 550.36 2.94253 0.619347 0
M  V30 5846 C 551.908 3.04868 0.708855 0
M  V30 5847 C 552.383 4.50888 0.803969 0
M  V30 5848 N 553.874 4.54999 0.867758 0
M  V30 5849 C 554.609 5.65284 0.96135 0
M  V30 5850 N 554.105 6.85282 1.01786 0
M  V30 5851 N 555.898 5.53174 0.997771 0
M  V30 5852 H 548.049 2.0211 -0.653094 0
M  V30 5853 H 550.312 0.919333 -0.231366 0
M  V30 5854 H 550.018 3.50643 -0.272458 0
M  V30 5855 H 549.892 3.47063 1.47741 0
M  V30 5856 H 552.279 2.48532 1.5911 0
M  V30 5857 H 552.36 2.55199 -0.175205 0
M  V30 5858 H 552.004 5.07846 -0.0738798 0
M  V30 5859 H 551.934 4.98279 1.70369 0
M  V30 5860 H 554.425 3.68588 0.833735 0
M  V30 5861 H 554.738 7.65081 1.08951 0
M  V30 5862 H 553.083 6.8796 0.986706 0
M  V30 5863 H 556.274 4.5835 0.950392 0
M  V30 5864 H 556.447 6.39151 1.06725 0
M  V30 5865 N 549.853 -0.472356 1.50355 0
M  V30 5866 C 550.785 -1.58795 1.65278 0
M  V30 5867 C 551.798 -1.53782 0.534313 0
M  V30 5868 O 552.987 -1.59193 0.807446 0
M  V30 5869 C 550.087 -2.97672 1.62001 0
M  V30 5870 C 549.26 -3.27568 2.89859 0
M  V30 5871 C 548.319 -4.45993 2.79242 0
M  V30 5872 O 547.345 -4.46364 3.53197 0
M  V30 5873 N 548.547 -5.47578 1.92713 0
M  V30 5874 H 551.312 -1.46411 2.61503 0
M  V30 5875 H 548.873 -0.660751 1.47803 0
M  V30 5876 H 550.865 -3.74862 1.52513 0
M  V30 5877 H 549.435 -3.03832 0.735159 0
M  V30 5878 H 548.655 -2.39003 3.13483 0
M  V30 5879 H 549.943 -3.44352 3.74565 0
M  V30 5880 H 549.341 -5.50099 1.31939 0
M  V30 5881 H 547.898 -6.23757 1.8913 0
M  V30 5882 N 551.331 -1.39911 -0.725443 0
M  V30 5883 C 552.577 -1.37858 -1.48738 0
M  V30 5884 C 552.91 0.0224187 -1.94187 0
M  V30 5885 O 552.185 0.989204 -1.67466 0
M  V30 5886 C 552.468 -2.3594 -2.72038 0
M  V30 5887 C 552.321 -3.85023 -2.32546 0
M  V30 5888 C 553.64 -2.31704 -3.74167 0
M  V30 5889 H 550.759 -0.502074 -0.539528 0
M  V30 5890 H 553.401 -1.70974 -0.828728 0
M  V30 5891 H 551.551 -2.0783 -3.28236 0
M  V30 5892 H 553.223 -4.2392 -1.81905 0
M  V30 5893 H 551.466 -4.01334 -1.64661 0
M  V30 5894 H 552.137 -4.49152 -3.20884 0
M  V30 5895 H 554.613 -2.5658 -3.27576 0
M  V30 5896 H 553.489 -3.02395 -4.58092 0
M  V30 5897 H 553.75 -1.3253 -4.21768 0
M  V30 5898 N 552.809 0.956637 -1.25245 0
M  V30 5899 C 554.049 1.71585 -1.11076 0
M  V30 5900 C 554.413 1.88916 0.34277 0
M  V30 5901 O 555.614 2.61875 0.606227 0
M  V30 5902 C 553.885 3.06267 -1.84215 0
M  V30 5903 S 555.444 3.97469 -1.85914 0
M  V30 5904 H 552.262 0.589803 -0.397055 0
M  V30 5905 H 554.864 1.14114 -1.58739 0
M  V30 5906 H 553.568 2.91322 -2.89067 0
M  V30 5907 H 553.099 3.688 -1.36931 0
M  V30 5908 H 555.114 4.87316 -0.93474 0
M  V30 5909 N 554.287 1.06798 1.15896 0
M  V30 5910 C 555.25 0.687328 2.18651 0
M  V30 5911 C 556.25 -0.269559 1.58524 0
M  V30 5912 O 557.44 -0.0512627 1.74125 0
M  V30 5913 C 554.572 0.0121642 3.40898 0
M  V30 5914 H 555.765 1.59701 2.53842 0
M  V30 5915 H 553.318 0.863828 1.3026 0
M  V30 5916 H 554.053 -0.910025 3.1127 0
M  V30 5917 H 553.838 0.700309 3.85795 0
M  V30 5918 H 555.328 -0.239703 4.16911 0
M  V30 5919 N 555.766 -1.3263 0.851289 0
M  V30 5920 C 557.014 -1.96978 0.452128 0
M  V30 5921 C 557.335 -1.67715 -0.99482 0
M  V30 5922 O 556.605 -0.98259 -1.69476 0
M  V30 5923 H 555.185 -0.72873 0.164202 0
M  V30 5924 H 557.847 -1.61774 1.08698 0
M  V30 5925 H 556.943 -3.06387 0.594407 0
M  V30 5926 N 557.244 -0.608902 -1.45362 0
M  V30 5927 C 558.192 0.121639 -2.32282 0
M  V30 5928 C 559.186 0.858301 -1.46046 0
M  V30 5929 O 560.392 0.773718 -1.62523 0
M  V30 5930 H 556.767 0.058086 -0.749753 0
M  V30 5931 H 558.738 -0.629866 -2.91677 0
M  V30 5932 C 557.487 1.1047 -3.29684 0
M  V30 5933 H 556.81 0.547278 -3.96036 0
M  V30 5934 H 558.25 1.58576 -3.9323 0
M  V30 5935 C 556.709 2.17891 -2.56954 0
M  V30 5936 O 557.239 3.25652 -2.35189 0
M  V30 5937 N 555.445 1.93211 -2.17066 0
M  V30 5938 H 554.992 1.05584 -2.34967 0
M  V30 5939 H 554.95 2.6529 -1.68727 0
M  V30 5940 N 558.722 1.53707 -0.348139 0
M  V30 5941 C 559.95 2.05406 0.248224 0
M  V30 5942 C 560.365 1.22282 1.43849 0
M  V30 5943 O 559.722 0.259244 1.80649 0
M  V30 5944 C 559.773 3.55446 0.658793 0
M  V30 5945 O 559.494 4.35417 -0.484149 0
M  V30 5946 C 560.995 4.23335 1.31539 0
M  V30 5947 H 558.215 0.669344 0.0471075 0
M  V30 5948 H 560.759 1.98257 -0.501456 0
M  V30 5949 H 558.914 3.62803 1.35841 0
M  V30 5950 H 559.328 5.24268 -0.155949 0
M  V30 5951 H 560.802 5.29692 1.55338 0
M  V30 5952 H 561.279 3.75967 2.27036 0
M  V30 5953 H 561.885 4.20184 0.657683 0
M  V30 5954 N 560.2 0.0768682 1.57412 0
M  V30 5955 C 561.15 -0.898795 2.09537 0
M  V30 5956 C 562.134 -1.25556 1.0062 0
M  V30 5957 O 563.326 -1.23369 1.26921 0
M  V30 5958 C 560.455 -2.16453 2.66464 0
M  V30 5959 C 559.541 -1.83401 3.82393 0
M  V30 5960 N 559.932 -1.20823 4.91157 0
M  V30 5961 C 558.23 -2.13121 3.91785 0
M  V30 5962 C 558.931 -1.05976 5.71965 0
M  V30 5963 N 557.907 -1.57113 5.204 0
M  V30 5964 H 561.709 -0.410718 2.91016 0
M  V30 5965 H 559.223 -0.126878 1.61904 0
M  V30 5966 H 561.22 -2.87274 3.02125 0
M  V30 5967 H 559.88 -2.65844 1.86433 0
M  V30 5968 H 560.891 -0.877249 5.10416 0
M  V30 5969 H 557.568 -2.64854 3.22736 0
M  V30 5970 H 558.958 -0.571809 6.69462 0
M  V30 5971 N 561.678 -1.56367 -0.196722 0
M  V30 5972 C 562.925 -1.80529 -0.917366 0
M  V30 5973 C 563.253 -0.649817 -1.83324 0
M  V30 5974 O 562.508 0.36451 -1.92275 0
M  V30 5975 C 562.807 -3.10663 -1.767 0
M  V30 5976 C 562.473 -4.3962 -1.00225 0
M  V30 5977 C 561.135 -4.74653 -0.791095 0
M  V30 5978 C 563.487 -5.1913 -0.464035 0
M  V30 5979 C 560.815 -5.86692 -0.0302155 0
M  V30 5980 C 563.167 -6.31964 0.283625 0
M  V30 5981 C 561.831 -6.65581 0.505813 0
M  V30 5982 H 561.101 -0.660602 -0.335688 0
M  V30 5983 H 563.748 -1.90615 -0.183844 0
M  V30 5984 H 562.053 -2.95807 -2.56915 0
M  V30 5985 H 563.75 -3.26563 -2.32718 0
M  V30 5986 H 560.34 -4.12127 -1.17684 0
M  V30 5987 H 564.524 -4.9248 -0.614575 0
M  V30 5988 H 559.78 -6.11211 0.151917 0
M  V30 5989 H 563.954 -6.92791 0.708057 0
M  V30 5990 H 561.581 -7.52239 1.0973 0
M  V30 5991 N 563.156 0.464375 -1.50603 0
M  V30 5992 C 564.119 1.54393 -1.69397 0
M  V30 5993 C 565.119 1.50566 -0.564504 0
M  V30 5994 O 566.309 1.53066 -0.831645 0
M  V30 5995 C 563.441 2.9401 -1.72543 0
M  V30 5996 H 564.634 1.39044 -2.65719 0
M  V30 5997 H 562.187 0.69122 -1.40185 0
M  V30 5998 H 562.922 3.14795 -0.77938 0
M  V30 5999 H 562.707 2.98195 -2.54602 0
M  V30 6000 H 564.197 3.72375 -1.89015 0
M  V30 6001 N 564.634 1.40294 0.718013 0
M  V30 6002 C 565.88 1.38645 1.48005 0
M  V30 6003 C 566.213 -0.0121202 1.94196 0
M  V30 6004 O 565.488 -0.980309 1.67989 0
M  V30 6005 C 565.771 2.37379 2.70782 0
M  V30 6006 C 565.624 3.8625 2.30501 0
M  V30 6007 C 566.943 2.33685 3.72933 0
M  V30 6008 H 564.062 0.504928 0.536858 0
M  V30 6009 H 566.704 1.71411 0.819649 0
M  V30 6010 H 564.854 2.09568 3.27129 0
M  V30 6011 H 566.526 4.24879 1.79655 0
M  V30 6012 H 564.769 4.02202 1.6253 0
M  V30 6013 H 565.44 4.50847 3.18498 0
M  V30 6014 H 567.916 2.58314 3.2621 0
M  V30 6015 H 566.792 3.0482 4.56482 0
M  V30 6016 H 567.053 1.34765 4.21059 0
M  V30 6017 N 566.112 -0.949982 1.2575 0
M  V30 6018 C 567.358 -1.69766 1.10938 0
M  V30 6019 C 567.691 -1.91056 -0.348028 0
M  V30 6020 O 566.966 -1.48488 -1.25625 0
M  V30 6021 C 567.249 -3.07779 1.86933 0
M  V30 6022 C 567.102 -2.9387 3.4053 0
M  V30 6023 C 568.421 -4.07749 1.65616 0
M  V30 6024 H 565.54 -0.616144 0.404396 0
M  V30 6025 H 568.182 -1.10394 1.54639 0
M  V30 6026 H 566.332 -3.58462 1.4979 0
M  V30 6027 H 568.004 -2.50476 3.87375 0
M  V30 6028 H 566.247 -2.29686 3.68004 0
M  V30 6029 H 566.918 -3.91719 3.88922 0
M  V30 6030 H 569.394 -3.65994 1.97959 0
M  V30 6031 H 568.27 -5.02348 2.21218 0
M  V30 6032 H 568.531 -4.38029 0.598595 0
M  V30 6033 N 567.59 -1.07411 -1.15328 0
M  V30 6034 C 568.818 -0.818782 -1.90009 0
M  V30 6035 C 569.233 0.628072 -1.78047 0
M  V30 6036 O 568.59 1.43085 -1.13282 0
M  V30 6037 C 568.641 -1.21874 -3.40337 0
M  V30 6038 O 568.362 -2.60883 -3.51954 0
M  V30 6039 C 569.863 -0.992796 -4.3204 0
M  V30 6040 H 567.083 -0.296007 -0.60218 0
M  V30 6041 H 569.627 -1.43073 -1.46117 0
M  V30 6042 H 567.782 -0.651103 -3.81889 0
M  V30 6043 H 568.196 -2.77216 -4.45255 0
M  V30 6044 H 569.67 -1.32215 -5.35932 0
M  V30 6045 H 570.147 0.0708331 -4.39143 0
M  V30 6046 H 570.753 -1.54537 -3.9623 0
M  V30 6047 N 569.068 1.32177 -0.85831 0
M  V30 6048 C 570.314 1.97417 -0.46417 0
M  V30 6049 C 570.647 1.67746 0.978514 0
M  V30 6050 O 569.922 0.967654 1.68721 0
M  V30 6051 C 570.205 3.53069 -0.708094 0
M  V30 6052 C 570.058 3.92357 -2.19946 0
M  V30 6053 C 571.377 4.39783 -0.166881 0
M  V30 6054 H 568.496 0.717097 -0.17012 0
M  V30 6055 H 571.138 1.56499 -1.07741 0
M  V30 6056 H 569.288 3.88054 -0.186128 0
M  V30 6057 H 570.96 3.67533 -2.78779 0
M  V30 6058 H 569.203 3.41384 -2.67656 0
M  V30 6059 H 569.874 5.00841 -2.32082 0
M  V30 6060 H 572.35 4.11556 -0.613285 0
M  V30 6061 H 571.226 5.47671 -0.367093 0
M  V30 6062 H 571.487 4.32196 0.930559 0
M  V30 6063 N 570.547 0.616602 1.45037 0
M  V30 6064 C 571.457 -0.0985401 2.34393 0
M  V30 6065 C 572.473 -0.850971 1.51771 0
M  V30 6066 O 573.649 -0.806521 1.84546 0
M  V30 6067 C 570.714 -1.07748 3.29532 0
M  V30 6068 C 569.775 -0.326022 4.2806 0
M  V30 6069 C 569.008 -1.25833 5.18654 0
M  V30 6070 O 569.231 -2.49652 5.12864 0
M  V30 6071 O 568.165 -0.750512 5.97203 0
M  V30 6072 H 571.991 0.636016 2.96966 0
M  V30 6073 H 569.576 0.376832 1.44569 0
M  V30 6074 H 571.458 -1.64107 3.88133 0
M  V30 6075 H 570.133 -1.79291 2.69512 0
M  V30 6076 H 569.04 0.280253 3.73049 0
M  V30 6077 H 570.373 0.349091 4.9096 0
M  V30 6078 N 572.025 -1.5352 0.356285 0
M  V30 6079 C 572.972 -2.25439 -0.494569 0
M  V30 6080 C 573.942 -1.25752 -1.08516 0
M  V30 6081 O 575.127 -1.54513 -1.1194 0
M  V30 6082 C 572.267 -3.04011 -1.63313 0
M  V30 6083 C 571.38 -4.18574 -1.06862 0
M  V30 6084 C 570.515 -4.84607 -2.17552 0
M  V30 6085 C 569.554 -5.91218 -1.58518 0
M  V30 6086 N 568.691 -6.50979 -2.63003 0
M  V30 6087 H 573.531 -2.97737 0.125244 0
M  V30 6088 H 571.068 -1.46916 0.0735789 0
M  V30 6089 H 573.026 -3.47834 -2.30363 0
M  V30 6090 H 571.656 -2.33986 -2.22374 0
M  V30 6091 H 570.708 -3.79303 -0.288672 0
M  V30 6092 H 572.02 -4.95215 -0.596924 0
M  V30 6093 H 571.174 -5.31566 -2.92442 0
M  V30 6094 H 569.913 -4.07418 -2.6807 0
M  V30 6095 H 568.918 -5.4363 -0.821391 0
M  V30 6096 H 570.143 -6.70322 -1.08836 0
M  V30 6097 H 568.089 -5.76648 -3.12751 0
M  V30 6098 H 568.006 -7.23131 -2.20493 0
M  V30 6099 H 569.274 -7.02589 -3.37623 0
M  V30 6100 N 573.503 -0.0852151 -1.57369 0
M  V30 6101 C 574.413 0.891712 -2.16992 0
M  V30 6102 C 575.429 1.3174 -1.13669 0
M  V30 6103 O 576.605 1.38735 -1.45995 0
M  V30 6104 C 573.67 2.13635 -2.73059 0
M  V30 6105 C 572.731 1.7658 -3.91303 0
M  V30 6106 C 571.964 2.95111 -4.44686 0
M  V30 6107 O 572.187 4.09539 -3.97032 0
M  V30 6108 O 571.121 2.74149 -5.35841 0
M  V30 6109 H 574.947 0.414477 -3.00858 0
M  V30 6110 H 572.532 0.138598 -1.48756 0
M  V30 6111 H 574.414 2.86595 -3.08935 0
M  V30 6112 H 573.089 2.6043 -1.92244 0
M  V30 6113 H 571.996 1.00831 -3.60255 0
M  V30 6114 H 573.329 1.34557 -4.7345 0
M  V30 6115 N 574.981 1.5647 0.188427 0
M  V30 6116 C 575.911 1.98101 1.23606 0
M  V30 6117 C 576.892 0.853961 1.47111 0
M  V30 6118 O 578.077 1.11879 1.58735 0
M  V30 6119 C 575.207 2.32624 2.57882 0
M  V30 6120 C 574.161 3.48129 2.48978 0
M  V30 6121 C 573.487 3.68347 3.87588 0
M  V30 6122 C 574.787 4.82112 2.00911 0
M  V30 6123 H 576.481 2.85864 0.890068 0
M  V30 6124 H 574.027 1.37532 0.426714 0
M  V30 6125 H 575.98 2.60343 3.3136 0
M  V30 6126 H 574.704 1.41751 2.94235 0
M  V30 6127 H 573.363 3.20511 1.77956 0
M  V30 6128 H 573.011 2.74793 4.21305 0
M  V30 6129 H 572.711 4.46055 3.82503 0
M  V30 6130 H 574.235 3.98449 4.62678 0
M  V30 6131 H 575.649 5.08819 2.64151 0
M  V30 6132 H 574.046 5.63337 2.06814 0
M  V30 6133 H 575.116 4.75249 0.96262 0
M  V30 6134 N 576.459 -0.456382 1.50847 0
M  V30 6135 C 577.689 -1.22848 1.66108 0
M  V30 6136 C 578.097 -1.85936 0.349897 0
M  V30 6137 O 577.44 -1.70664 -0.679665 0
M  V30 6138 C 577.502 -2.36722 2.70561 0
M  V30 6139 C 577.166 -1.94154 4.13707 0
M  V30 6140 C 578.163 -1.4557 4.99105 0
M  V30 6141 C 575.848 -2.02426 4.59705 0
M  V30 6142 C 577.842 -1.0582 6.28555 0
M  V30 6143 C 575.529 -1.62287 5.89157 0
M  V30 6144 C 576.527 -1.14064 6.73408 0
M  V30 6145 O 576.215 -0.744873 8.00442 0
M  V30 6146 H 575.947 -0.377105 0.561042 0
M  V30 6147 H 578.501 -0.549431 1.97915 0
M  V30 6148 H 576.731 -3.07844 2.34027 0
M  V30 6149 H 578.42 -2.98646 2.74892 0
M  V30 6150 H 579.186 -1.38589 4.64777 0
M  V30 6151 H 575.065 -2.38908 3.94264 0
M  V30 6152 H 578.609 -0.6811 6.94267 0
M  V30 6153 H 574.506 -1.68932 6.23003 0
M  V30 6154 H 575.274 -0.87242 8.13837 0
M  V30 6155 N 577.937 -1.40673 -0.710563 0
M  V30 6156 C 579.165 -1.42547 -1.4996 0
M  V30 6157 C 579.58 -0.0265485 -1.88781 0
M  V30 6158 O 578.937 0.950694 -1.55782 0
M  V30 6159 C 578.988 -2.32071 -2.77173 0
M  V30 6160 O 578.709 -3.66518 -2.39992 0
M  V30 6161 C 580.21 -2.42591 -3.71032 0
M  V30 6162 H 577.43 -0.486025 -0.462623 0
M  V30 6163 H 579.974 -1.84783 -0.876102 0
M  V30 6164 H 578.129 -1.93184 -3.35795 0
M  V30 6165 H 578.543 -4.14115 -3.21884 0
M  V30 6166 H 580.017 -3.09429 -4.57119 0
M  V30 6167 H 580.494 -1.4525 -4.14486 0
M  V30 6168 H 581.1 -2.82051 -3.18319 0
M  V30 6169 N 579.415 0.9433 -1.26252 0
M  V30 6170 C 580.661 1.69226 -1.12846 0
M  V30 6171 C 581.016 1.8963 0.325282 0
M  V30 6172 O 580.309 1.46435 1.23561 0
M  V30 6173 C 580.503 3.07073 -1.82868 0
M  V30 6174 C 580.332 3.00118 -3.34902 0
M  V30 6175 C 579.102 3.03251 -4.04186 0
M  V30 6176 C 581.3 2.80418 -4.31127 0
M  V30 6177 N 579.282 2.86573 -5.42908 0
M  V30 6178 C 580.653 2.72287 -5.5701 0
M  V30 6179 C 582.708 2.65185 -4.21404 0
M  V30 6180 C 581.411 2.50479 -6.74279 0
M  V30 6181 C 583.437 2.4475 -5.38378 0
M  V30 6182 C 582.799 2.37349 -6.63208 0
M  V30 6183 H 578.898 0.626716 -0.467708 0
M  V30 6184 H 581.482 1.11645 -1.5951 0
M  V30 6185 H 579.653 3.62797 -1.38682 0
M  V30 6186 H 581.385 3.70816 -1.62103 0
M  V30 6187 H 578.14 3.12882 -3.55531 0
M  V30 6188 H 578.564 2.81408 -6.15742 0
M  V30 6189 H 583.206 2.69675 -3.25631 0
M  V30 6190 H 580.924 2.4473 -7.70151 0
M  V30 6191 H 584.51 2.33872 -5.32724 0
M  V30 6192 H 583.39 2.21746 -7.52196 0
M  V30 6193 N 580.893 1.08022 1.14757 0
M  V30 6194 C 582.139 0.808705 1.85978 0
M  V30 6195 C 582.472 -0.663764 1.82504 0
M  V30 6196 O 581.747 -1.48765 1.25296 0
M  V30 6197 C 582.03 1.32623 3.34788 0
M  V30 6198 C 581.883 2.86375 3.46856 0
M  V30 6199 C 583.202 0.948291 4.29762 0
M  V30 6200 H 580.321 0.295244 0.675278 0
M  V30 6201 H 582.963 1.33917 1.34783 0
M  V30 6202 H 581.113 0.875002 3.78518 0
M  V30 6203 H 582.785 3.39839 3.11941 0
M  V30 6204 H 581.028 3.24232 2.88194 0
M  V30 6205 H 581.699 3.17658 4.51439 0
M  V30 6206 H 584.175 1.33722 3.94028 0
M  V30 6207 H 583.051 1.33765 5.32352 0
M  V30 6208 H 583.312 -0.145094 4.41862 0
M  V30 6209 N 582.371 -1.3172 0.865308 0
M  V30 6210 C 583.319 -2.30569 0.306674 0
M  V30 6211 C 584.313 -1.59317 -0.575724 0
M  V30 6212 O 585.519 -1.73961 -0.462343 0
M  V30 6213 H 581.894 -0.747681 0.0804834 0
M  V30 6214 H 583.865 -2.75165 1.15441 0
M  V30 6215 C 582.614 -3.44358 -0.480952 0
M  V30 6216 H 581.937 -3.99354 0.18876 0
M  V30 6217 H 583.377 -4.15652 -0.837241 0
M  V30 6218 C 581.836 -2.92574 -1.67039 0
M  V30 6219 O 582.366 -2.90954 -2.76964 0
M  V30 6220 N 580.572 -2.48835 -1.50097 0
M  V30 6221 H 580.119 -2.50353 -0.606738 0
M  V30 6222 H 580.077 -2.14543 -2.29823 0
M  V30 6223 N 583.85 -0.624285 -1.44708 0
M  V30 6224 C 584.783 0.133905 -2.27807 0
M  V30 6225 C 585.76 0.857794 -1.38133 0
M  V30 6226 O 586.945 0.863277 -1.6757 0
M  V30 6227 C 584.072 1.19541 -3.16903 0
M  V30 6228 C 583.118 0.572813 -4.22636 0
M  V30 6229 S 583.951 -0.631953 -5.31758 0
M  V30 6230 C 585.106 0.429733 -6.24423 0
M  V30 6231 H 585.34 -0.571072 -2.91764 0
M  V30 6232 H 582.873 -0.412261 -1.48794 0
M  V30 6233 H 584.831 1.80293 -3.68788 0
M  V30 6234 H 583.492 1.87255 -2.5218 0
M  V30 6235 H 582.685 1.37205 -4.84965 0
M  V30 6236 H 582.287 0.0400641 -3.73979 0
M  V30 6237 H 584.579 1.30421 -6.64828 0
M  V30 6238 H 585.522 -0.157804 -7.07924 0
M  V30 6239 H 585.93 0.75256 -5.59461 0
M  V30 6240 N 585.328 1.53329 -0.364422 0
M  V30 6241 C 586.26 2.23286 0.517293 0
M  V30 6242 C 587.273 1.24657 1.04711 0
M  V30 6243 O 588.462 1.50887 0.95369 0
M  V30 6244 C 585.562 2.91604 1.72685 0
M  V30 6245 C 584.735 4.1673 1.32873 0
M  V30 6246 C 583.794 4.68269 2.40022 0
M  V30 6247 O 582.82 5.31976 2.02461 0
M  V30 6248 N 584.022 4.45983 3.7159 0
M  V30 6249 H 586.787 2.99588 -0.0819391 0
M  V30 6250 H 584.348 1.60787 -0.189544 0
M  V30 6251 H 586.34 3.22992 2.4384 0
M  V30 6252 H 584.91 2.18763 2.23297 0
M  V30 6253 H 584.13 3.91657 0.447069 0
M  V30 6254 H 585.418 4.98078 1.03902 0
M  V30 6255 H 584.816 3.95077 4.04883 0
M  V30 6256 H 583.373 4.81924 4.38854 0
M  V30 6257 N 586.806 0.0935595 1.57322 0
M  V30 6258 C 588.054 -0.569383 1.93913 0
M  V30 6259 C 588.375 -1.68817 0.976009 0
M  V30 6260 O 587.645 -1.9588 0.0278099 0
M  V30 6261 H 586.225 -0.21332 0.715894 0
M  V30 6262 H 588.887 0.156531 1.9427 0
M  V30 6263 H 587.983 -0.980577 2.96296 0
M  V30 6264 N 588.284 -1.56567 -0.180126 0
M  V30 6265 C 589.532 -1.81133 -0.896392 0
M  V30 6266 C 589.853 -0.669114 -1.83161 0
M  V30 6267 O 589.123 0.311616 -1.93406 0
M  V30 6268 H 587.703 -0.668172 -0.333999 0
M  V30 6269 H 590.365 -1.94048 -0.182051 0
M  V30 6270 H 589.461 -2.74854 -1.47857 0
M  V30 6271 N 589.762 0.448376 -1.51087 0
M  V30 6272 C 590.99 1.22143 -1.66999 0
M  V30 6273 C 591.405 1.85283 -0.362699 0
M  V30 6274 O 590.762 1.70236 0.65772 0
M  V30 6275 C 590.813 2.31357 -2.7777 0
M  V30 6276 O 590.534 1.70801 -4.03434 0
M  V30 6277 C 592.035 3.21836 -3.04855 0
M  V30 6278 H 589.255 0.368558 -0.560719 0
M  V30 6279 H 591.799 0.532618 -1.97442 0
M  V30 6280 H 589.954 2.95973 -2.49958 0
M  V30 6281 H 590.368 2.42895 -4.64868 0
M  V30 6282 H 591.842 3.94627 -3.85971 0
M  V30 6283 H 592.319 3.81949 -2.16821 0
M  V30 6284 H 592.925 2.62933 -3.34285 0
M  V30 6285 N 591.24 1.41047 0.703093 0
M  V30 6286 C 592.187 1.42302 1.81711 0
M  V30 6287 C 593.157 0.278336 1.63751 0
M  V30 6288 O 594.342 0.478266 1.84709 0
M  V30 6289 C 591.482 1.30362 3.19531 0
M  V30 6290 C 590.595 2.54638 3.48975 0
M  V30 6291 C 589.73 2.35047 4.76368 0
M  V30 6292 C 588.769 3.54837 4.98756 0
M  V30 6293 N 587.906 3.34363 6.1737 0
M  V30 6294 H 592.746 2.37516 1.79973 0
M  V30 6295 H 590.283 1.1795 0.878983 0
M  V30 6296 H 592.241 1.21443 3.99134 0
M  V30 6297 H 590.871 0.387602 3.20464 0
M  V30 6298 H 589.923 2.74037 2.63833 0
M  V30 6299 H 591.235 3.43766 3.61423 0
M  V30 6300 H 590.389 2.23552 5.64012 0
M  V30 6301 H 589.128 1.43363 4.66153 0
M  V30 6302 H 588.133 3.66795 4.09563 0
M  V30 6303 H 589.358 4.47464 5.10835 0
M  V30 6304 H 587.304 2.45373 6.08382 0
M  V30 6305 H 587.221 4.17063 6.30551 0
M  V30 6306 H 588.489 3.26626 7.07768 0
M  V30 6307 N 592.718 -0.936591 1.26751 0
M  V30 6308 C 593.648 -2.05315 1.11212 0
M  V30 6309 C 594.629 -1.70092 0.0160262 0
M  V30 6310 O 595.814 -1.93279 0.188894 0
M  V30 6311 C 592.944 -3.39123 0.749171 0
M  V30 6312 C 591.898 -3.88425 1.79751 0
M  V30 6313 C 591.224 -5.18936 1.28876 0
M  V30 6314 C 592.524 -4.12798 3.19992 0
M  V30 6315 H 594.218 -2.18573 2.04613 0
M  V30 6316 H 591.764 -1.05027 0.985159 0
M  V30 6317 H 593.717 -4.16704 0.627323 0
M  V30 6318 H 592.441 -3.25855 -0.220543 0
M  V30 6319 H 591.1 -3.13028 1.90811 0
M  V30 6320 H 590.748 -5.02051 0.308757 0
M  V30 6321 H 590.448 -5.52892 1.98958 0
M  V30 6322 H 591.972 -5.99096 1.17967 0
M  V30 6323 H 593.386 -4.80977 3.11983 0
M  V30 6324 H 591.783 -4.58044 3.87705 0
M  V30 6325 H 592.853 -3.18412 3.65707 0
M  V30 6326 N 594.196 -1.08629 -1.14182 0
M  V30 6327 C 595.146 -0.687882 -2.17376 0
M  V30 6328 C 596.13 0.293632 -1.58198 0
M  V30 6329 O 597.322 0.105292 -1.76687 0
M  V30 6330 C 594.451 -0.101184 -3.43151 0
M  V30 6331 C 593.537 -1.10862 -4.09354 0
M  V30 6332 N 593.928 -2.29285 -4.50846 0
M  V30 6333 C 592.226 -0.944897 -4.35876 0
M  V30 6334 C 592.927 -2.93305 -5.02342 0
M  V30 6335 N 591.903 -2.20903 -4.96692 0
M  V30 6336 H 595.705 -1.58963 -2.472 0
M  V30 6337 H 593.219 -0.961329 -1.3089 0
M  V30 6338 H 595.216 0.202209 -4.16409 0
M  V30 6339 H 593.876 0.795522 -3.14804 0
M  V30 6340 H 594.887 -2.66927 -4.43813 0
M  V30 6341 H 591.564 -0.102186 -4.17375 0
M  V30 6342 H 592.954 -3.93932 -5.44304 0
M  V30 6343 N 595.674 1.31259 -0.872281 0
M  V30 6344 C 596.922 1.96233 -0.483409 0
M  V30 6345 C 597.243 1.69276 0.968012 0
M  V30 6346 O 596.513 1.00943 1.67891 0
M  V30 6347 H 595.093 0.726025 -0.175774 0
M  V30 6348 H 597.755 1.60024 -1.11258 0
M  V30 6349 H 596.851 3.05403 -0.643075 0
M  V30 6350 N 597.152 0.631951 1.44375 0
M  V30 6351 C 598.084 -0.110911 2.28931 0
M  V30 6352 C 599.097 -0.808086 1.41329 0
M  V30 6353 O 600.286 -0.669396 1.65473 0
M  V30 6354 C 597.386 -1.17928 3.1772 0
M  V30 6355 C 596.559 -0.564458 4.33743 0
M  V30 6356 C 595.618 -1.5269 5.0356 0
M  V30 6357 O 594.644 -1.04372 5.59549 0
M  V30 6358 N 595.846 -2.86123 5.05088 0
M  V30 6359 H 598.611 0.614758 2.93327 0
M  V30 6360 H 596.172 0.473171 1.54831 0
M  V30 6361 H 598.164 -1.82348 3.61291 0
M  V30 6362 H 596.734 -1.80717 2.55069 0
M  V30 6363 H 595.954 0.258373 3.93352 0
M  V30 6364 H 597.242 -0.134355 5.08623 0
M  V30 6365 H 596.64 -3.27959 4.60933 0
M  V30 6366 H 595.197 -3.45901 5.52445 0
M  V30 6367 N 598.631 -1.53133 0.372548 0
M  V30 6368 C 599.561 -2.28876 -0.462412 0
M  V30 6369 C 600.542 -1.31583 -1.07796 0
M  V30 6370 O 601.727 -1.60461 -1.09389 0
M  V30 6371 C 598.857 -3.08317 -1.59868 0
M  V30 6372 C 597.811 -4.13355 -1.11003 0
M  V30 6373 C 597.137 -4.8092 -2.33708 0
M  V30 6374 C 598.437 -5.21955 -0.18983 0
M  V30 6375 H 600.131 -2.9892 0.169511 0
M  V30 6376 H 597.677 -1.43761 0.0829658 0
M  V30 6377 H 599.63 -3.60055 -2.18949 0
M  V30 6378 H 598.354 -2.35976 -2.25794 0
M  V30 6379 H 597.013 -3.62573 -0.541869 0
M  V30 6380 H 596.661 -4.05144 -2.98106 0
M  V30 6381 H 596.361 -5.51904 -2.01682 0
M  V30 6382 H 597.885 -5.35455 -2.93462 0
M  V30 6383 H 599.299 -5.69153 -0.688319 0
M  V30 6384 H 597.696 -6.00087 0.0398887 0
M  V30 6385 H 598.766 -4.78811 0.766057 0
M  V30 6386 N 600.109 -0.101901 -1.5727 0
M  V30 6387 C 601.357 0.559091 -1.94213 0
M  V30 6388 C 601.678 1.68297 -0.984948 0
M  V30 6389 O 600.948 1.95863 -0.0381975 0
M  V30 6390 H 599.528 0.20952 -0.717015 0
M  V30 6391 H 602.19 -0.166831 -1.94185 0
M  V30 6392 H 601.286 0.96485 -2.96811 0
M  V30 6393 N 601.587 1.56661 0.17182 0
M  V30 6394 C 602.537 1.92781 1.21736 0
M  V30 6395 C 603.521 0.796065 1.39827 0
M  V30 6396 O 604.713 1.05924 1.41806 0
M  V30 6397 C 601.842 2.29079 2.55691 0
M  V30 6398 C 600.928 3.48765 2.41296 0
M  V30 6399 N 601.319 4.66022 1.96614 0
M  V30 6400 C 599.617 3.53362 2.72124 0
M  V30 6401 C 600.318 5.48159 1.94669 0
M  V30 6402 N 599.294 4.89189 2.37054 0
M  V30 6403 H 603.096 2.80926 0.863592 0
M  V30 6404 H 600.61 1.57889 0.380096 0
M  V30 6405 H 602.607 2.5315 3.31241 0
M  V30 6406 H 601.267 1.42272 2.91871 0
M  V30 6407 H 602.278 4.9025 1.66959 0
M  V30 6408 H 598.955 2.77033 3.12345 0
M  V30 6409 H 600.345 6.52121 1.61826 0
M  V30 6410 N 603.065 -0.440357 1.51323 0
M  V30 6411 C 604.313 -1.18769 1.63518 0
M  V30 6412 C 604.634 -1.91793 0.352201 0
M  V30 6413 O 603.904 -1.85432 -0.631811 0
M  V30 6414 H 602.484 -0.441408 0.602634 0
M  V30 6415 H 605.146 -0.505162 1.8824 0
M  V30 6416 H 604.242 -1.91892 2.46138 0
M  V30 6417 N 604.543 -1.41418 -0.695603 0
M  V30 6418 C 605.82 -1.31264 -1.45014 0
M  V30 6419 C 606.2 0.0597994 -2.11015 0
M  V30 6420 O 605.548 1.07403 -2.01685 0
M  V30 6421 C 605.758 -2.466 -2.4696 0
M  V30 6422 C 607.106 -2.87763 -3.12214 0
M  V30 6423 O 608.13 -2.46339 -2.57285 0
M  V30 6424 O 606.989 -3.59395 -4.11701 0
M  V30 6425 H 604.083 -0.516576 -0.645816 0
M  V30 6426 H 606.629 -1.53382 -0.726084 0
M  V30 6427 H 605.401 -3.38183 -1.96845 0
M  V30 6428 H 605.024 -2.26358 -3.26876 0
M  V30 6429 N 606.021 0.929856 -1.27246 0
M  V30 6430 C 606.968 2.03017 -1.09785 0
M  V30 6431 C 607.938 1.661 0.000456744 0
M  V30 6432 O 609.123 1.90116 -0.161462 0
M  V30 6433 C 606.263 3.36878 -0.748816 0
M  V30 6434 C 605.376 3.86763 -1.92453 0
M  V30 6435 C 604.511 5.09061 -1.51758 0
M  V30 6436 C 603.55 5.51237 -2.66091 0
M  V30 6437 N 602.687 6.64732 -2.25999 0
M  V30 6438 H 607.527 2.17285 -2.03939 0
M  V30 6439 H 605.064 1.06448 -1.01524 0
M  V30 6440 H 607.022 4.13855 -0.527283 0
M  V30 6441 H 605.652 3.22424 0.155771 0
M  V30 6442 H 604.704 3.06086 -2.25867 0
M  V30 6443 H 606.016 4.13994 -2.78227 0
M  V30 6444 H 605.17 5.93532 -1.25716 0
M  V30 6445 H 603.909 4.83602 -0.630896 0
M  V30 6446 H 602.914 4.65316 -2.92849 0
M  V30 6447 H 604.139 5.78692 -3.55377 0
M  V30 6448 H 602.085 6.40935 -1.3978 0
M  V30 6449 H 602.002 6.91607 -3.05313 0
M  V30 6450 H 603.27 7.52549 -2.03199 0
M  V30 6451 N 607.499 1.09233 1.13605 0
M  V30 6452 C 608.462 0.733553 2.17144 0
M  V30 6453 C 609.462 -0.235873 1.59061 0
M  V30 6454 O 610.652 -0.0143167 1.74194 0
M  V30 6455 C 607.784 0.084471 3.40795 0
M  V30 6456 H 608.977 1.65049 2.50397 0
M  V30 6457 H 606.53 0.891264 1.28399 0
M  V30 6458 H 607.265 -0.843795 3.1313 0
M  V30 6459 H 607.05 0.781985 3.84223 0
M  V30 6460 H 608.54 -0.151216 4.17326 0
M  V30 6461 N 608.977 -1.30795 0.87923 0
M  V30 6462 C 610.202 -2.01063 0.508769 0
M  V30 6463 C 610.627 -1.65508 -0.893803 0
M  V30 6464 O 609.985 -0.868616 -1.59138 0
M  V30 6465 C 610.033 -3.54054 0.683991 0
M  V30 6466 O 609.137 -4.11498 -0.272654 0
M  V30 6467 H 608.478 -0.632786 0.201191 0
M  V30 6468 H 611.008 -1.66776 1.18519 0
M  V30 6469 H 611.018 -4.03845 0.580798 0
M  V30 6470 H 609.693 -3.79271 1.70665 0
M  V30 6471 H 608.27 -3.72695 -0.12364 0
M  V30 6472 N 610.455 -0.639598 -1.44038 0
M  V30 6473 C 611.685 -0.154586 -2.06021 0
M  V30 6474 C 612.093 1.17951 -1.47933 0
M  V30 6475 O 611.436 1.73627 -0.59994 0
M  V30 6476 C 611.498 0.0255459 -3.59491 0
M  V30 6477 C 611.162 -1.2317 -4.40089 0
M  V30 6478 C 612.159 -2.15735 -4.73027 0
M  V30 6479 C 609.844 -1.46949 -4.80324 0
M  V30 6480 C 611.838 -3.30382 -5.45093 0
M  V30 6481 C 609.525 -2.61891 -5.52138 0
M  V30 6482 C 610.523 -3.53433 -5.84443 0
M  V30 6483 O 610.211 -4.6637 -6.54793 0
M  V30 6484 H 609.943 -0.0808543 -0.671147 0
M  V30 6485 H 612.497 -0.876541 -1.85758 0
M  V30 6486 H 610.727 0.802733 -3.78276 0
M  V30 6487 H 612.416 0.466184 -4.03214 0
M  V30 6488 H 613.182 -1.98602 -4.42473 0
M  V30 6489 H 609.061 -0.765815 -4.54595 0
M  V30 6490 H 612.605 -4.01856 -5.70226 0
M  V30 6491 H 608.502 -2.78964 -5.82108 0
M  V30 6492 H 609.27 -4.6546 -6.73267 0
M  V30 6493 N 611.933 1.52934 -0.380664 0
M  V30 6494 C 613.349 1.59571 -0.0302429 0
M  V30 6495 C 613.549 1.39509 1.45394 0
M  V30 6496 O 612.605 1.20777 2.21741 0
M  V30 6497 C 613.918 2.96519 -0.499691 0
M  V30 6498 C 615.466 3.09672 -0.455204 0
M  V30 6499 C 615.941 4.49056 -0.900703 0
M  V30 6500 N 617.432 4.55215 -0.856367 0
M  V30 6501 C 618.167 5.61282 -1.17259 0
M  V30 6502 N 617.663 6.75035 -1.55885 0
M  V30 6503 N 619.456 5.51343 -1.0944 0
M  V30 6504 H 611.607 1.64224 -1.347 0
M  V30 6505 H 613.87 0.771033 -0.551554 0
M  V30 6506 H 613.576 3.16388 -1.53595 0
M  V30 6507 H 613.45 3.77052 0.105789 0
M  V30 6508 H 615.837 2.89504 0.571949 0
M  V30 6509 H 615.918 2.31113 -1.09638 0
M  V30 6510 H 615.562 4.69964 -1.92604 0
M  V30 6511 H 615.492 5.26068 -0.236629 0
M  V30 6512 H 617.983 3.73546 -0.572013 0
M  V30 6513 H 618.296 7.51926 -1.784 0
M  V30 6514 H 616.641 6.76388 -1.59764 0
M  V30 6515 H 619.832 4.61356 -0.791713 0
M  V30 6516 H 620.005 6.33905 -1.34417 0
M  V30 6517 N 613.412 0.11024 1.57214 0
M  V30 6518 C 614.344 -0.873497 2.11902 0
M  V30 6519 C 615.357 -1.23588 1.05971 0
M  V30 6520 O 616.546 -1.18636 1.33371 0
M  V30 6521 C 613.646 -2.17805 2.59643 0
M  V30 6522 C 612.819 -1.98869 3.89576 0
M  V30 6523 C 611.878 -3.12974 4.23006 0
M  V30 6524 O 610.904 -2.86272 4.91973 0
M  V30 6525 N 612.106 -4.39167 3.79622 0
M  V30 6526 H 614.871 -0.406317 2.96933 0
M  V30 6527 H 612.432 -0.074437 1.61729 0
M  V30 6528 H 614.424 -2.93117 2.79042 0
M  V30 6529 H 612.994 -2.55899 1.7954 0
M  V30 6530 H 612.214 -1.078 3.79174 0
M  V30 6531 H 613.502 -1.83512 4.74553 0
M  V30 6532 H 612.9 -4.63739 3.2398 0
M  V30 6533 H 611.457 -5.11379 4.04147 0
M  V30 6534 N 614.89 -1.56749 -0.16351 0
M  V30 6535 C 616.301 -1.72039 -0.725216 0
M  V30 6536 C 616.652 -0.72202 -1.82432 0
M  V30 6537 O 615.777 0.114942 -2.16095 0
M  V30 6538 C 616.372 -3.11932 -1.32227 0
M  V30 6539 C 614.931 -3.28879 -1.83072 0
M  V30 6540 C 614.078 -2.67984 -0.712716 0
M  V30 6541 H 617.029 -1.58579 0.0619772 0
M  V30 6542 H 617.05 -3.11015 -2.19202 0
M  V30 6543 H 616.562 -3.84572 -0.522103 0
M  V30 6544 H 614.663 -2.61209 -2.65708 0
M  V30 6545 H 614.776 -4.36688 -1.97079 0
M  V30 6546 H 613.14 -2.28005 -1.13515 0
M  V30 6547 H 613.923 -3.43216 0.0757361 0
M  V30 6548 N 616.368 0.432326 -1.51554 0
M  V30 6549 C 617.315 1.52512 -1.7323 0
M  V30 6550 C 618.285 1.55863 -0.5741 0
M  V30 6551 O 619.47 1.72796 -0.809093 0
M  V30 6552 C 616.61 2.90183 -1.86783 0
M  V30 6553 C 615.723 2.96322 -3.14352 0
M  V30 6554 C 614.858 4.25147 -3.18471 0
M  V30 6555 C 613.897 4.25172 -4.40335 0
M  V30 6556 N 613.034 5.45529 -4.41975 0
M  V30 6557 H 617.874 1.33332 -2.66508 0
M  V30 6558 H 615.411 0.647613 -1.32077 0
M  V30 6559 H 617.369 3.70071 -1.92623 0
M  V30 6560 H 615.999 3.0791 -0.969087 0
M  V30 6561 H 615.051 2.09066 -3.17798 0
M  V30 6562 H 616.363 2.92203 -4.04251 0
M  V30 6563 H 615.517 5.13411 -3.23255 0
M  V30 6564 H 614.256 4.31929 -2.2647 0
M  V30 6565 H 613.261 3.353 -4.35723 0
M  V30 6566 H 614.486 4.20049 -5.33606 0
M  V30 6567 H 612.432 5.53024 -3.52847 0
M  V30 6568 H 612.349 5.43311 -5.25689 0
M  V30 6569 H 613.617 6.35812 -4.50958 0
M  V30 6570 N 617.846 1.41785 0.688094 0
M  V30 6571 C 618.796 1.40684 1.79421 0
M  V30 6572 C 619.78 0.280096 1.58443 0
M  V30 6573 O 620.972 0.521332 1.69148 0
M  V30 6574 C 618.101 1.29874 3.17785 0
M  V30 6575 C 617.187 2.47442 3.44432 0
M  V30 6576 N 617.578 3.72895 3.41736 0
M  V30 6577 C 615.876 2.41416 3.75013 0
M  V30 6578 C 616.577 4.50912 3.67496 0
M  V30 6579 N 615.553 3.81131 3.87608 0
M  V30 6580 H 619.355 2.35591 1.7571 0
M  V30 6581 H 616.869 1.35946 0.888393 0
M  V30 6582 H 618.866 1.27168 3.97031 0
M  V30 6583 H 617.526 0.359587 3.22703 0
M  V30 6584 H 618.537 4.05676 3.21943 0
M  V30 6585 H 615.214 1.56011 3.87256 0
M  V30 6586 H 616.604 5.59865 3.71484 0
M  V30 6587 N 619.324 -0.923095 1.27737 0
M  V30 6588 C 620.57 -1.67375 1.14514 0
M  V30 6589 C 620.903 -1.91751 -0.307424 0
M  V30 6590 O 620.178 -1.51119 -1.22447 0
M  V30 6591 C 620.461 -3.03745 1.9342 0
M  V30 6592 C 620.314 -2.86581 3.46686 0
M  V30 6593 C 621.633 -4.04144 1.74228 0
M  V30 6594 H 618.752 -0.607427 0.417374 0
M  V30 6595 H 621.394 -1.07089 1.56946 0
M  V30 6596 H 619.544 -3.55204 1.5736 0
M  V30 6597 H 621.216 -2.42203 3.92601 0
M  V30 6598 H 619.459 -2.21829 3.72793 0
M  V30 6599 H 620.13 -3.83381 3.97143 0
M  V30 6600 H 622.606 -3.61712 2.05678 0
M  V30 6601 H 621.482 -4.97543 2.31824 0
M  V30 6602 H 621.743 -4.36661 0.691373 0
M  V30 6603 N 620.802 -1.09834 -1.13024 0
M  V30 6604 C 621.712 -0.753731 -2.22162 0
M  V30 6605 C 622.728 0.246105 -1.72251 0
M  V30 6606 O 623.904 0.0864051 -2.01215 0
M  V30 6607 C 620.969 -0.183958 -3.46212 0
M  V30 6608 C 620.03 -1.24028 -4.10993 0
M  V30 6609 C 619.263 -0.697597 -5.29121 0
M  V30 6610 O 619.486 0.478092 -5.68393 0
M  V30 6611 O 618.42 -1.4546 -5.84059 0
M  V30 6612 H 622.246 -1.66456 -2.5402 0
M  V30 6613 H 619.831 -0.873026 -1.21238 0
M  V30 6614 H 621.713 0.130257 -4.21199 0
M  V30 6615 H 620.388 0.699823 -3.16045 0
M  V30 6616 H 619.295 -1.60725 -3.37814 0
M  V30 6617 H 620.628 -2.09685 -4.45301 0
M  V30 6618 N 622.28 1.30327 -0.886154 0
M  V30 6619 C 623.227 2.28099 -0.352069 0
M  V30 6620 C 624.197 1.56433 0.558397 0
M  V30 6621 O 625.382 1.84492 0.486561 0
M  V30 6622 C 622.522 3.42456 0.426346 0
M  V30 6623 C 621.635 4.28938 -0.513472 0
M  V30 6624 C 620.77 5.30458 0.280657 0
M  V30 6625 C 619.809 6.0859 -0.654556 0
M  V30 6626 N 618.946 7.02022 0.104322 0
M  V30 6627 H 623.786 2.73166 -1.19097 0
M  V30 6628 H 621.323 1.34367 -0.598662 0
M  V30 6629 H 623.281 4.07518 0.893587 0
M  V30 6630 H 621.911 2.98455 1.22981 0
M  V30 6631 H 620.963 3.64173 -1.09921 0
M  V30 6632 H 622.275 4.83399 -1.2299 0
M  V30 6633 H 621.429 6.01273 0.8097 0
M  V30 6634 H 620.168 4.76693 1.03029 0
M  V30 6635 H 619.173 5.36651 -1.19522 0
M  V30 6636 H 620.398 6.64443 -1.4033 0
M  V30 6637 H 618.344 6.50645 0.836472 0
M  V30 6638 H 618.261 7.53979 -0.552453 0
M  V30 6639 H 619.529 7.77077 0.614069 0
M  V30 6640 N 623.758 0.647228 1.43697 0
M  V30 6641 C 624.688 -0.0345631 2.33474 0
M  V30 6642 C 625.669 -0.818193 1.4913 0
M  V30 6643 O 626.854 -0.780867 1.77809 0
M  V30 6644 C 623.984 -1.00576 3.32418 0
M  V30 6645 C 622.938 -0.33266 4.26705 0
M  V30 6646 C 622.264 -1.41489 5.1564 0
M  V30 6647 C 623.564 0.771204 5.16575 0
M  V30 6648 H 625.258 0.715163 2.90733 0
M  V30 6649 H 622.804 0.345364 1.39797 0
M  V30 6650 H 624.757 -1.49159 3.94119 0
M  V30 6651 H 623.481 -1.78657 2.73403 0
M  V30 6652 H 622.14 0.13267 3.6636 0
M  V30 6653 H 621.788 -2.18698 4.52968 0
M  V30 6654 H 621.488 -0.969799 5.79542 0
M  V30 6655 H 623.012 -1.9022 5.80214 0
M  V30 6656 H 624.426 0.36779 5.72119 0
M  V30 6657 H 622.823 1.1404 5.89165 0
M  V30 6658 H 623.893 1.63169 4.56622 0
M  V30 6659 N 625.236 -1.5273 0.388769 0
M  V30 6660 C 626.168 -2.24081 -0.481704 0
M  V30 6661 C 627.181 -1.26307 -1.02715 0
M  V30 6662 O 628.37 -1.52386 -0.929565 0
M  V30 6663 C 625.47 -2.94315 -1.68024 0
M  V30 6664 C 624.643 -4.18791 -1.26226 0
M  V30 6665 C 623.702 -4.72028 -2.32542 0
M  V30 6666 O 622.728 -5.35129 -1.93972 0
M  V30 6667 N 623.93 -4.51838 -3.64448 0
M  V30 6668 H 626.695 -2.9942 0.129591 0
M  V30 6669 H 624.256 -1.60465 0.2151 0
M  V30 6670 H 626.248 -3.26831 -2.38671 0
M  V30 6671 H 624.818 -2.22287 -2.19789 0
M  V30 6672 H 624.038 -3.92318 -0.384703 0
M  V30 6673 H 625.326 -4.99668 -0.959647 0
M  V30 6674 H 624.724 -4.01468 -3.98547 0
M  V30 6675 H 623.281 -4.88845 -4.31131 0
M  V30 6676 N 626.714 -0.118576 -1.57153 0
M  V30 6677 C 627.962 0.538461 -1.94795 0
M  V30 6678 C 628.283 1.67243 -1.00274 0
M  V30 6679 O 627.553 1.95811 -0.0589692 0
M  V30 6680 H 626.133 0.201904 -0.719197 0
M  V30 6681 H 628.795 -0.187418 -1.93997 0
M  V30 6682 H 627.891 0.933315 -2.97818 0
M  V30 6683 N 628.193 1.56834 0.155195 0
M  V30 6684 C 629.14 1.97646 1.19184 0
M  V30 6685 C 630.11 0.842788 1.4313 0
M  V30 6686 O 631.295 1.1042 1.55602 0
M  V30 6687 C 628.435 2.35527 2.52232 0
M  V30 6688 C 627.548 3.62147 2.35529 0
M  V30 6689 C 626.683 3.89167 3.61555 0
M  V30 6690 C 625.722 5.09084 3.39853 0
M  V30 6691 N 624.859 5.32156 4.5799 0
M  V30 6692 H 629.699 2.8601 0.836802 0
M  V30 6693 H 627.236 1.41507 0.401758 0
M  V30 6694 H 629.194 2.55516 3.29799 0
M  V30 6695 H 627.824 1.50253 2.85699 0
M  V30 6696 H 626.876 3.4998 1.49057 0
M  V30 6697 H 628.188 4.49871 2.15448 0
M  V30 6698 H 627.342 4.09611 4.47553 0
M  V30 6699 H 626.081 2.9985 3.84632 0
M  V30 6700 H 625.086 4.88522 2.52243 0
M  V30 6701 H 626.311 5.99947 3.18183 0
M  V30 6702 H 624.257 4.45791 4.81255 0
M  V30 6703 H 624.174 6.14133 4.40882 0
M  V30 6704 H 625.442 5.57091 5.45225 0
M  V30 6705 N 629.671 -0.424282 1.51781 0
M  V30 6706 C 630.634 -1.49848 1.73431 0
M  V30 6707 C 631.634 -1.49016 0.604225 0
M  V30 6708 O 632.824 -1.50808 0.871935 0
M  V30 6709 C 629.956 -2.89332 1.80277 0
M  V30 6710 H 631.149 -1.3195 2.69312 0
M  V30 6711 H 628.702 -0.653809 1.41968 0
M  V30 6712 H 629.437 -3.12618 0.862568 0
M  V30 6713 H 629.222 -2.9134 2.62419 0
M  V30 6714 H 630.712 -3.67233 1.98821 0
M  V30 6715 N 631.149 -1.42148 -0.680565 0
M  V30 6716 C 632.398 -1.41604 -1.43636 0
M  V30 6717 C 632.711 -0.0337887 -1.95571 0
M  V30 6718 O 633.917 0.0942588 -2.71336 0
M  V30 6719 C 632.373 -2.49056 -2.59806 0
M  V30 6720 C 631.981 -3.9326 -2.14594 0
M  V30 6721 C 633.725 -2.5767 -3.37352 0
M  V30 6722 C 631.632 -4.92232 -3.27813 0
M  V30 6723 H 630.562 -0.526656 -0.539583 0
M  V30 6724 H 633.213 -1.68033 -0.737369 0
M  V30 6725 H 631.595 -2.15782 -3.32045 0
M  V30 6726 H 632.769 -4.35858 -1.49546 0
M  V30 6727 H 631.084 -3.88443 -1.50002 0
M  V30 6728 H 633.681 -3.28794 -4.21662 0
M  V30 6729 H 634.024 -1.61837 -3.83555 0
M  V30 6730 H 634.557 -2.90109 -2.72179 0
M  V30 6731 H 631.296 -5.89522 -2.86607 0
M  V30 6732 H 630.816 -4.5427 -3.91661 0
M  V30 6733 H 632.495 -5.13684 -3.93367 0
M  V30 6734 N 632.627 0.916307 -1.28225 0
M  V30 6735 C 634.043 1.19425 -1.05876 0
M  V30 6736 C 634.243 2.005 0.2005 0
M  V30 6737 O 633.299 2.35806 0.902873 0
M  V30 6738 C 634.612 1.93133 -2.30478 0
M  V30 6739 C 636.16 2.06026 -2.35632 0
M  V30 6740 C 636.635 2.83141 -3.59994 0
M  V30 6741 N 638.126 2.90704 -3.60618 0
M  V30 6742 C 638.861 3.50865 -4.53521 0
M  V30 6743 N 638.357 4.12327 -5.56739 0
M  V30 6744 N 640.15 3.48379 -4.41122 0
M  V30 6745 H 632.301 0.37496 -2.09064 0
M  V30 6746 H 634.564 0.228531 -0.920042 0
M  V30 6747 H 634.27 1.40985 -3.22205 0
M  V30 6748 H 634.144 2.93696 -2.36691 0
M  V30 6749 H 636.531 2.57355 -1.44404 0
M  V30 6750 H 636.612 1.04647 -2.33415 0
M  V30 6751 H 636.256 2.32492 -4.51564 0
M  V30 6752 H 636.186 3.84829 -3.59464 0
M  V30 6753 H 638.677 2.47034 -2.85977 0
M  V30 6754 H 638.99 4.56205 -6.23776 0
M  V30 6755 H 637.335 4.10839 -5.60568 0
M  V30 6756 H 640.526 2.99572 -3.59686 0
M  V30 6757 H 640.699 3.94974 -5.13712 0
M  V30 6758 N 634.105 1.10431 1.1244 0
M  V30 6759 C 635.037 0.710945 2.17895 0
M  V30 6760 C 636.05 -0.252315 1.60833 0
M  V30 6761 O 637.239 -0.03679 1.78462 0
M  V30 6762 C 634.339 0.0284262 3.38888 0
M  V30 6763 C 633.512 1.01585 4.2544 0
M  V30 6764 C 632.571 0.364826 5.24934 0
M  V30 6765 O 631.597 1.01561 5.60066 0
M  V30 6766 N 632.799 -0.87674 5.73841 0
M  V30 6767 H 635.564 1.61826 2.52255 0
M  V30 6768 H 633.125 0.993132 1.27861 0
M  V30 6769 H 635.117 -0.418568 4.0253 0
M  V30 6770 H 633.687 -0.781294 3.02679 0
M  V30 6771 H 632.907 1.64111 3.58415 0
M  V30 6772 H 634.195 1.68425 4.80115 0
M  V30 6773 H 633.593 -1.42483 5.47462 0
M  V30 6774 H 632.15 -1.26688 6.39369 0
M  V30 6775 N 635.583 -1.29855 0.893053 0
M  V30 6776 C 636.829 -1.96116 0.516349 0
M  V30 6777 C 637.162 -1.70281 -0.933695 0
M  V30 6778 O 636.437 -1.01205 -1.66096 0
M  V30 6779 C 636.72 -3.51068 0.801455 0
M  V30 6780 C 636.573 -3.86387 2.30272 0
M  V30 6781 C 637.892 -4.39186 0.283423 0
M  V30 6782 H 635.011 -0.712335 0.189072 0
M  V30 6783 H 637.653 -1.53587 1.11852 0
M  V30 6784 H 635.803 -3.87424 0.288949 0
M  V30 6785 H 637.475 -3.60012 2.88425 0
M  V30 6786 H 635.718 -3.34167 2.76613 0
M  V30 6787 H 636.389 -4.94512 2.45279 0
M  V30 6788 H 638.865 -4.09785 0.722187 0
M  V30 6789 H 637.741 -5.46505 0.512169 0
M  V30 6790 H 638.002 -4.34511 -0.815643 0
M  V30 6791 N 637.061 -0.65484 -1.43351 0
M  V30 6792 C 638.286 -0.175046 -2.0666 0
M  V30 6793 C 638.711 1.15104 -1.4877 0
M  V30 6794 O 638.069 1.71144 -0.598279 0
M  V30 6795 C 638.117 -0.0991544 -3.60464 0
M  V30 6796 O 637.221 0.938169 -4.01587 0
M  V30 6797 H 636.562 -0.0956148 -0.65708 0
M  V30 6798 H 639.092 -0.898222 -1.83829 0
M  V30 6799 H 639.102 0.083632 -4.07914 0
M  V30 6800 H 637.777 -1.06719 -4.01975 0
M  V30 6801 H 636.354 0.72804 -3.65724 0
M  V30 6802 N 638.539 1.52521 -0.396863 0
M  V30 6803 C 639.779 2.03583 0.182578 0
M  V30 6804 C 640.143 1.2766 1.43412 0
M  V30 6805 O 641.344 1.68884 2.09121 0
M  V30 6806 C 639.615 3.54724 0.436519 0
M  V30 6807 S 641.174 4.27598 0.985163 0
M  V30 6808 H 637.992 0.709186 0.0507529 0
M  V30 6809 H 640.594 1.87693 -0.546955 0
M  V30 6810 H 639.298 4.07567 -0.481343 0
M  V30 6811 H 638.829 3.74834 1.19427 0
M  V30 6812 H 640.844 4.41393 2.26686 0
M  V30 6813 N 640.017 0.126909 1.57088 0
M  V30 6814 C 641.265 -0.528123 1.95078 0
M  V30 6815 C 641.586 -1.66708 1.0116 0
M  V30 6816 O 640.856 -1.95777 0.0693527 0
M  V30 6817 H 639.436 -0.198087 0.720257 0
M  V30 6818 H 642.098 0.197703 1.93895 0
M  V30 6819 H 641.194 -0.917507 2.98309 0
M  V30 6820 N 641.495 -1.56914 -0.146875 0
M  V30 6821 C 642.772 -1.74273 -0.888165 0
M  V30 6822 C 643.152 -0.69496 -1.99333 0
M  V30 6823 O 642.5 0.286093 -2.26702 0
M  V30 6824 C 642.71 -3.18336 -1.43051 0
M  V30 6825 C 644.058 -3.80024 -1.89387 0
M  V30 6826 O 645.082 -3.21765 -1.52792 0
M  V30 6827 O 643.941 -4.82367 -2.56874 0
M  V30 6828 H 641.035 -0.712565 -0.419738 0
M  V30 6829 H 643.581 -1.6918 -0.132791 0
M  V30 6830 H 642.353 -3.86092 -0.636274 0
M  V30 6831 H 641.976 -3.27854 -2.24938 0
M  V30 6832 N 642.974 0.416227 -1.52004 0
M  V30 6833 C 644.251 1.17637 -1.56272 0
M  V30 6834 C 644.631 2.08352 -0.339493 0
M  V30 6835 O 643.979 2.1833 0.674124 0
M  V30 6836 C 644.189 1.95986 -2.88774 0
M  V30 6837 C 645.537 2.52299 -3.41512 0
M  V30 6838 O 646.561 2.06174 -2.90467 0
M  V30 6839 O 645.42 3.3648 -4.30631 0
M  V30 6840 H 642.514 0.536726 -0.629169 0
M  V30 6841 H 645.06 0.423583 -1.64329 0
M  V30 6842 H 643.832 1.29487 -3.69254 0
M  V30 6843 H 643.455 2.78285 -2.83978 0
M  V30 6844 N 644.452 1.42507 0.673017 0
M  V30 6845 C 645.699 1.43072 1.43306 0
M  V30 6846 C 646.027 0.0478004 1.94441 0
M  V30 6847 O 645.282 -0.944106 1.71421 0
M  V30 6848 C 645.581 2.40351 2.64511 0
M  V30 6849 C 645.247 3.8669 2.31908 0
M  V30 6850 C 643.909 4.26551 2.22728 0
M  V30 6851 C 646.261 4.78991 2.05467 0
M  V30 6852 C 643.589 5.56691 1.85234 0
M  V30 6853 C 645.941 6.09476 1.69477 0
M  V30 6854 C 644.605 6.48334 1.58808 0
M  V30 6855 H 643.875 0.523536 0.524395 0
M  V30 6856 H 646.522 1.75459 0.76723 0
M  V30 6857 H 644.827 2.01297 3.36135 0
M  V30 6858 H 646.524 2.38051 3.22696 0
M  V30 6859 H 643.114 3.55132 2.39956 0
M  V30 6860 H 647.298 4.48982 2.11492 0
M  V30 6861 H 642.554 5.85657 1.75545 0
M  V30 6862 H 646.728 6.80482 1.48043 0
M  V30 6863 H 644.355 7.49084 1.29525 0
M  V30 6864 N 645.93 -0.909495 1.28709 0
M  V30 6865 C 647.158 -1.69272 1.18973 0
M  V30 6866 C 647.573 -1.87123 -0.251048 0
M  V30 6867 O 646.93 -1.40127 -1.16922 0
M  V30 6868 C 646.981 -3.08257 1.88839 0
M  V30 6869 O 646.702 -2.91228 3.27289 0
M  V30 6870 C 648.203 -4.02642 1.85457 0
M  V30 6871 H 645.423 -0.528999 0.412797 0
M  V30 6872 H 647.967 -1.13803 1.69909 0
M  V30 6873 H 646.122 -3.6053 1.41762 0
M  V30 6874 H 646.536 -3.79223 3.6234 0
M  V30 6875 H 648.01 -4.97613 2.38925 0
M  V30 6876 H 648.487 -4.31327 0.827893 0
M  V30 6877 H 649.093 -3.56298 2.32233 0
M  V30 6878 N 647.408 -1.11026 -1.11852 0
M  V30 6879 C 648.654 -0.857729 -1.83768 0
M  V30 6880 C 648.987 0.615143 -1.842 0
M  V30 6881 O 648.262 1.45391 -1.29196 0
M  V30 6882 C 648.545 -1.41453 -3.31154 0
M  V30 6883 C 648.398 -2.95471 -3.39142 0
M  V30 6884 C 649.717 -1.0619 -4.27097 0
M  V30 6885 H 646.836 -0.313044 -0.667212 0
M  V30 6886 H 649.478 -1.37443 -1.31185 0
M  V30 6887 H 647.628 -0.975052 -3.76065 0
M  V30 6888 H 649.3 -3.4799 -3.02821 0
M  V30 6889 H 647.543 -3.31759 -2.79497 0
M  V30 6890 H 648.214 -3.29515 -4.42859 0
M  V30 6891 H 650.69 -1.44122 -3.90344 0
M  V30 6892 H 649.566 -1.47832 -5.28618 0
M  V30 6893 H 649.827 0.0278912 -4.42091 0
M  V30 6894 N 648.886 1.2938 -0.899927 0
M  V30 6895 C 650.126 1.97332 -0.532871 0
M  V30 6896 C 650.49 1.69385 0.904029 0
M  V30 6897 O 651.691 2.30793 1.37797 0
M  V30 6898 C 649.962 3.47927 -0.817393 0
M  V30 6899 S 651.521 4.3528 -0.55468 0
M  V30 6900 H 648.339 0.682966 -0.197683 0
M  V30 6901 H 650.941 1.57189 -1.16241 0
M  V30 6902 H 649.645 3.65761 -1.86138 0
M  V30 6903 H 649.176 3.93006 -0.175978 0
M  V30 6904 H 651.191 4.92557 0.600182 0
M  V30 6905 N 650.364 0.662433 1.43002 0
M  V30 6906 C 651.61 0.179857 2.02001 0
M  V30 6907 C 651.943 -1.20625 1.52195 0
M  V30 6908 O 651.218 -1.80726 0.718911 0
M  V30 6909 C 651.501 0.200845 3.59539 0
M  V30 6910 C 651.354 1.62153 4.19555 0
M  V30 6911 C 652.673 -0.457738 4.37713 0
M  V30 6912 H 649.792 0.0668305 0.733964 0
M  V30 6913 H 652.434 0.84487 1.70182 0
M  V30 6914 H 650.584 -0.365411 3.86778 0
M  V30 6915 H 652.256 2.23908 4.03315 0
M  V30 6916 H 650.499 2.16601 3.75854 0
M  V30 6917 H 651.17 1.58799 5.28665 0
M  V30 6918 H 653.646 0.0241495 4.16093 0
M  V30 6919 H 652.522 -0.412363 5.47349 0
M  V30 6920 H 652.783 -1.53336 4.14657 0
M  V30 6921 N 651.842 -1.52309 0.404946 0
M  V30 6922 C 653.07 -2.06185 -0.171818 0
M  V30 6923 C 653.485 -1.27536 -1.39212 0
M  V30 6924 O 652.842 -0.326112 -1.79563 0
M  V30 6925 C 652.893 -3.57647 -0.526417 0
M  V30 6926 O 652.614 -4.3332 0.645417 0
M  V30 6927 C 654.115 -4.27925 -1.15736 0
M  V30 6928 H 651.335 -0.670632 -0.0222328 0
M  V30 6929 H 653.879 -1.96259 0.574692 0
M  V30 6930 H 652.034 -3.67595 -1.22282 0
M  V30 6931 H 652.448 -5.23328 0.35042 0
M  V30 6932 H 653.922 -5.35093 -1.35572 0
M  V30 6933 H 654.399 -3.84134 -2.12926 0
M  V30 6934 H 655.005 -4.22335 -0.501281 0
M  V30 6935 N 653.32 -0.135238 -1.57019 0
M  V30 6936 C 654.597 0.563227 -1.87316 0
M  V30 6937 C 654.977 1.83749 -1.03921 0
M  V30 6938 O 654.325 2.2817 -0.122675 0
M  V30 6939 C 654.535 0.840031 -3.3874 0
M  V30 6940 C 655.883 1.18598 -4.077 0
M  V30 6941 O 656.907 0.92977 -3.43851 0
M  V30 6942 O 655.766 1.66758 -5.20436 0
M  V30 6943 H 652.86 0.285971 -0.775983 0
M  V30 6944 H 655.406 -0.170965 -1.68837 0
M  V30 6945 H 654.178 -0.0622785 -3.9125 0
M  V30 6946 H 653.801 1.62882 -3.62706 0
M  V30 6947 N 654.798 1.5699 0.138552 0
M  V30 6948 C 655.708 2.02174 1.19008 0
M  V30 6949 C 656.724 0.938622 1.46512 0
M  V30 6950 O 657.9 1.24872 1.58016 0
M  V30 6951 C 654.965 2.40045 2.50159 0
M  V30 6952 C 654.026 3.62346 2.30226 0
M  V30 6953 C 653.259 3.98401 3.55123 0
M  V30 6954 O 653.482 3.35019 4.61647 0
M  V30 6955 O 652.416 4.91606 3.47285 0
M  V30 6956 H 656.242 2.91954 0.836452 0
M  V30 6957 H 653.827 1.45293 0.347907 0
M  V30 6958 H 655.709 2.65225 3.27465 0
M  V30 6959 H 654.384 1.53417 2.85035 0
M  V30 6960 H 653.291 3.42341 1.50843 0
M  V30 6961 H 654.624 4.49617 2.00262 0
M  V30 6962 N 656.276 -0.40816 1.52223 0
M  V30 6963 C 657.524 -1.15274 1.66001 0
M  V30 6964 C 657.845 -1.91003 0.392803 0
M  V30 6965 O 657.115 -1.8673 -0.592336 0
M  V30 6966 H 655.695 -0.428526 0.611861 0
M  V30 6967 H 658.357 -0.46512 1.89269 0
M  V30 6968 H 657.453 -1.86628 2.50153 0
M  V30 6969 N 657.755 -1.42862 -0.66545 0
M  V30 6970 C 658.687 -1.43026 -1.79098 0
M  V30 6971 C 659.7 -0.32803 -1.59461 0
M  V30 6972 O 660.889 -0.591709 -1.68407 0
M  V30 6973 C 657.989 -1.21566 -3.16346 0
M  V30 6974 C 657.162 -2.44399 -3.62751 0
M  V30 6975 C 656.221 -2.18344 -4.78761 0
M  V30 6976 O 655.247 -2.91611 -4.88827 0
M  V30 6977 N 656.449 -1.1924 -5.68122 0
M  V30 6978 H 659.214 -2.40045 -1.79439 0
M  V30 6979 H 656.775 -1.37861 -0.848872 0
M  V30 6980 H 658.767 -1.02037 -3.91625 0
M  V30 6981 H 657.337 -0.330368 -3.10849 0
M  V30 6982 H 656.557 -2.79433 -2.78048 0
M  V30 6983 H 657.845 -3.26173 -3.90498 0
M  V30 6984 H 657.243 -0.586603 -5.6265 0
M  V30 6985 H 655.8 -1.05698 -6.43173 0
M  V30 6986 N 659.233 0.902656 -1.29189 0
M  V30 6987 C 660.163 2.02294 -1.16616 0
M  V30 6988 C 661.144 1.6999 -0.0611175 0
M  V30 6989 O 662.329 1.9271 -0.240072 0
M  V30 6990 C 659.459 3.37018 -0.83882 0
M  V30 6991 C 658.413 3.83522 -1.89986 0
M  V30 6992 C 657.739 5.15337 -1.42589 0
M  V30 6993 C 659.039 4.04169 -3.30824 0
M  V30 6994 H 660.733 2.13071 -2.10336 0
M  V30 6995 H 658.279 1.02378 -1.01266 0
M  V30 6996 H 660.232 4.14895 -0.737584 0
M  V30 6997 H 658.956 3.26325 0.134071 0
M  V30 6998 H 657.615 3.07859 -1.99043 0
M  V30 6999 H 657.263 5.01056 -0.441759 0
M  V30 7000 H 656.963 5.47423 -2.13547 0
M  V30 7001 H 658.487 5.95758 -1.3381 0
M  V30 7002 H 659.901 4.72537 -3.24626 0
M  V30 7003 H 658.298 4.47604 -3.99713 0
M  V30 7004 H 659.368 3.08604 -3.74021 0
M  V30 7005 N 660.711 1.11618 1.11262 0
M  V30 7006 C 661.941 0.88745 1.86569 0
M  V30 7007 C 662.349 -0.56636 1.80524 0
M  V30 7008 O 661.692 -1.40289 1.18594 0
M  V30 7009 C 661.754 1.27313 3.36202 0
M  V30 7010 C 661.418 2.73649 3.66013 0
M  V30 7011 C 662.415 3.71863 3.63337 0
M  V30 7012 C 660.1 3.10342 3.9496 0
M  V30 7013 C 662.094 5.04788 3.89188 0
M  V30 7014 C 659.781 4.43451 4.20469 0
M  V30 7015 C 660.779 5.40484 4.17572 0
M  V30 7016 O 660.467 6.71195 4.42439 0
M  V30 7017 H 660.199 0.317543 0.596777 0
M  V30 7018 H 662.753 1.48768 1.41624 0
M  V30 7019 H 660.983 0.616062 3.81761 0
M  V30 7020 H 662.672 1.01991 3.92877 0
M  V30 7021 H 663.438 3.44861 3.41022 0
M  V30 7022 H 659.317 2.35431 3.9635 0
M  V30 7023 H 662.861 5.80516 3.86842 0
M  V30 7024 H 658.758 4.70187 4.42261 0
M  V30 7025 H 659.526 6.77012 4.59997 0
M  V30 7026 N 662.189 -1.289 0.906776 0
M  V30 7027 C 663.152 -2.25777 0.394656 0
M  V30 7028 C 664.152 -1.53621 -0.475119 0
M  V30 7029 O 665.342 -1.71949 -0.279165 0
M  V30 7030 C 662.474 -3.38113 -0.43499 0
M  V30 7031 H 663.667 -2.72592 1.25033 0
M  V30 7032 H 661.22 -1.40463 0.685547 0
M  V30 7033 H 661.955 -2.96648 -1.31036 0
M  V30 7034 H 661.74 -3.91647 0.188334 0
M  V30 7035 H 663.23 -4.10168 -0.784365 0
M  V30 7036 N 663.667 -0.670007 -1.42649 0
M  V30 7037 C 664.914 -0.190286 -2.01604 0
M  V30 7038 C 665.242 1.20155 -1.52948 0
M  V30 7039 O 664.497 1.81964 -0.72026 0
M  V30 7040 C 664.796 -0.168298 -3.57004 0
M  V30 7041 C 664.462 -1.50415 -4.25072 0
M  V30 7042 C 663.124 -1.86992 -4.43382 0
M  V30 7043 C 665.476 -2.38414 -4.63474 0
M  V30 7044 C 662.804 -3.11203 -4.97363 0
M  V30 7045 C 665.156 -3.61933 -5.18833 0
M  V30 7046 C 663.82 -3.98685 -5.35356 0
M  V30 7047 H 663.09 -0.0696305 -0.737721 0
M  V30 7048 H 665.737 -0.864044 -1.70899 0
M  V30 7049 H 664.042 0.588958 -3.87348 0
M  V30 7050 H 665.739 0.22001 -4.00396 0
M  V30 7051 H 662.329 -1.20959 -4.11177 0
M  V30 7052 H 666.513 -2.11442 -4.49006 0
M  V30 7053 H 661.769 -3.39705 -5.08341 0
M  V30 7054 H 665.943 -4.30326 -5.47533 0
M  V30 7055 H 663.57 -4.95009 -5.76949 0
M  V30 7056 N 665.145 1.52092 -0.413018 0
M  V30 7057 C 666.393 2.01456 0.161178 0
M  V30 7058 C 666.714 1.30034 1.45314 0
M  V30 7059 O 665.984 0.427435 1.9118 0
M  V30 7060 H 664.564 0.744376 0.0625526 0
M  V30 7061 H 667.226 1.86974 -0.550151 0
M  V30 7062 H 666.322 3.1008 0.354517 0
M  V30 7063 N 666.623 0.143563 1.56945 0
M  V30 7064 C 667.848 -0.518701 2.00809 0
M  V30 7065 C 668.273 -1.5785 1.02298 0
M  V30 7066 O 667.631 -1.813 -0.0017839 0
M  V30 7067 C 667.679 -1.09929 3.43436 0
M  V30 7068 O 666.783 -2.21425 3.47915 0
M  V30 7069 H 666.124 -0.127215 0.6517 0
M  V30 7070 H 668.654 0.239283 2.03196 0
M  V30 7071 H 668.664 -1.4288 3.82164 0
M  V30 7072 H 667.339 -0.323162 4.14643 0
M  V30 7073 H 665.916 -1.89728 3.21026 0
M  V30 7074 N 668.101 -1.57061 -0.130224 0
M  V30 7075 C 669.378 -1.75205 -0.869631 0
M  V30 7076 C 669.758 -0.716063 -1.98584 0
M  V30 7077 O 669.106 0.262032 -2.26993 0
M  V30 7078 C 669.316 -3.19835 -1.39666 0
M  V30 7079 C 670.664 -3.82011 -1.85345 0
M  V30 7080 O 671.688 -3.23368 -1.49371 0
M  V30 7081 O 670.547 -4.85064 -2.51744 0
M  V30 7082 H 667.641 -0.716977 -0.412157 0
M  V30 7083 H 670.187 -1.69311 -0.11484 0
M  V30 7084 H 668.959 -3.86745 -0.595288 0
M  V30 7085 H 668.582 -3.30222 -2.21448 0
M  V30 7086 N 669.579 0.400081 -1.52437 0
M  V30 7087 C 670.809 1.16598 -1.70553 0
M  V30 7088 C 671.217 1.8451 -0.418665 0
M  V30 7089 O 670.56 1.73069 0.615855 0
M  V30 7090 C 670.622 2.26517 -2.7916 0
M  V30 7091 C 670.286 1.78666 -4.20628 0
M  V30 7092 C 671.283 1.26946 -5.04163 0
M  V30 7093 C 668.968 1.85225 -4.66902 0
M  V30 7094 C 670.962 0.824187 -6.32049 0
M  V30 7095 C 668.649 1.40309 -5.94774 0
M  V30 7096 C 669.647 0.889922 -6.77178 0
M  V30 7097 O 669.335 0.447281 -8.02655 0
M  V30 7098 H 669.067 0.356023 -0.574651 0
M  V30 7099 H 671.621 0.475598 -1.99818 0
M  V30 7100 H 669.851 2.98946 -2.45292 0
M  V30 7101 H 671.54 2.88237 -2.85787 0
M  V30 7102 H 672.306 1.21244 -4.69601 0
M  V30 7103 H 668.185 2.24111 -4.02859 0
M  V30 7104 H 671.729 0.422958 -6.96317 0
M  V30 7105 H 667.626 1.45693 -6.28843 0
M  V30 7106 H 668.394 0.569768 -8.16514 0
M  V30 7107 N 671.057 1.43213 0.657864 0
M  V30 7108 C 672.287 1.478 1.44356 0
M  V30 7109 C 672.695 0.0930206 1.88971 0
M  V30 7110 O 672.038 -0.906089 1.59799 0
M  V30 7111 C 672.1 2.35745 2.71412 0
M  V30 7112 C 671.764 3.83359 2.48767 0
M  V30 7113 C 672.761 4.74585 2.12285 0
M  V30 7114 C 670.446 4.27799 2.63235 0
M  V30 7115 C 672.44 6.08247 1.90562 0
M  V30 7116 C 670.127 5.61516 2.41128 0
M  V30 7117 C 671.125 6.51557 2.04847 0
M  V30 7118 O 670.813 7.82802 1.82967 0
M  V30 7119 H 670.545 0.504363 0.450104 0
M  V30 7120 H 673.099 1.88572 0.814241 0
M  V30 7121 H 671.329 1.89852 3.36887 0
M  V30 7122 H 673.018 2.31589 3.33348 0
M  V30 7123 H 673.784 4.41531 2.00687 0
M  V30 7124 H 669.663 3.57993 2.90451 0
M  V30 7125 H 673.207 6.78489 1.62168 0
M  V30 7126 H 669.104 5.94139 2.52327 0
M  V30 7127 H 669.872 7.94332 1.97429 0
M  V30 7128 N 672.536 -0.895792 1.29666 0
M  V30 7129 C 673.784 -1.64339 1.17631 0
M  V30 7130 C 674.105 -1.93099 -0.271643 0
M  V30 7131 O 673.375 -1.55981 -1.18518 0
M  V30 7132 H 671.955 -0.609162 0.432354 0
M  V30 7133 H 674.617 -1.07389 1.62646 0
M  V30 7134 H 673.713 -2.59815 1.72924 0
M  V30 7135 N 674.014 -1.12206 -1.10668 0
M  V30 7136 C 675.254 -0.885935 -1.84202 0
M  V30 7137 C 675.618 0.577849 -1.83098 0
M  V30 7138 O 676.819 0.931051 -2.5216 0
M  V30 7139 C 675.09 -1.44197 -3.2702 0
M  V30 7140 S 676.649 -1.34402 -4.1771 0
M  V30 7141 H 673.467 -0.319653 -0.635093 0
M  V30 7142 H 676.069 -1.43112 -1.33189 0
M  V30 7143 H 674.773 -2.50096 -3.25392 0
M  V30 7144 H 674.304 -0.894173 -3.83103 0
M  V30 7145 H 676.319 -0.313873 -4.95206 0
M  V30 7146 N 675.492 1.28418 -0.913599 0
M  V30 7147 C 676.425 2.25557 -0.346328 0
M  V30 7148 C 677.403 1.53038 0.549366 0
M  V30 7149 O 678.587 1.81937 0.493055 0
M  V30 7150 C 675.714 3.34915 0.504961 0
M  V30 7151 C 674.76 4.25257 -0.325334 0
M  V30 7152 S 675.593 5.06718 -1.73198 0
M  V30 7153 C 676.749 6.19569 -0.887988 0
M  V30 7154 H 676.982 2.73325 -1.16965 0
M  V30 7155 H 674.515 1.36855 -0.714841 0
M  V30 7156 H 676.473 3.98376 0.990301 0
M  V30 7157 H 675.134 2.85814 1.30267 0
M  V30 7158 H 674.327 5.02947 0.325589 0
M  V30 7159 H 673.929 3.66519 -0.744321 0
M  V30 7160 H 676.221 6.77398 -0.117568 0
M  V30 7161 H 677.164 6.88908 -1.63742 0
M  V30 7162 H 677.572 5.62812 -0.436228 0
M  V30 7163 N 676.97 0.677563 1.42291 0
M  V30 7164 C 678.218 0.200578 2.01102 0
M  V30 7165 C 678.539 -1.19803 1.53858 0
M  V30 7166 O 677.809 -1.80496 0.761439 0
M  V30 7167 H 676.389 0.0711634 0.743603 0
M  V30 7168 H 679.051 0.874691 1.7417 0
M  V30 7169 H 678.147 0.204 3.11433 0
M  V30 7170 N 678.448 -1.51871 0.421078 0
M  V30 7171 C 679.694 -2.02237 -0.151014 0
M  V30 7172 C 680.027 -1.30554 -1.43768 0
M  V30 7173 O 679.302 -0.41546 -1.90011 0
M  V30 7174 C 679.585 -3.5802 -0.386482 0
M  V30 7175 C 679.438 -4.40339 0.9177 0
M  V30 7176 C 680.757 -4.24444 -1.16342 0
M  V30 7177 H 677.876 -0.735062 -0.0534102 0
M  V30 7178 H 680.518 -1.81656 0.556888 0
M  V30 7179 H 678.668 -3.75688 -0.989494 0
M  V30 7180 H 680.34 -4.34357 1.55344 0
M  V30 7181 H 678.583 -4.06073 1.526 0
M  V30 7182 H 679.254 -5.47451 0.707187 0
M  V30 7183 H 681.73 -4.10948 -0.652788 0
M  V30 7184 H 680.606 -5.33358 -1.29693 0
M  V30 7185 H 680.867 -3.84204 -2.18724 0
M  V30 7186 N 679.926 -0.151884 -1.56866 0
M  V30 7187 C 681.203 0.543328 -1.87902 0
M  V30 7188 C 681.583 1.82636 -1.05864 0
M  V30 7189 O 680.931 2.28028 -0.146868 0
M  V30 7190 C 681.141 0.804056 -3.39611 0
M  V30 7191 C 682.489 1.14267 -4.08935 0
M  V30 7192 O 683.513 0.893248 -3.44818 0
M  V30 7193 O 682.372 1.61229 -5.22176 0
M  V30 7194 H 679.466 0.277724 -0.778973 0
M  V30 7195 H 682.012 -0.188862 -1.68646 0
M  V30 7196 H 680.784 -0.103772 -3.91162 0
M  V30 7197 H 680.407 1.59025 -3.64413 0
M  V30 7198 N 681.404 1.57128 0.121893 0
M  V30 7199 C 682.351 2.0013 1.14964 0
M  V30 7200 C 683.321 0.872959 1.4131 0
M  V30 7201 O 684.506 1.13696 1.53225 0
M  V30 7202 C 681.646 2.40824 2.4718 0
M  V30 7203 C 680.759 3.67061 2.27794 0
M  V30 7204 C 679.894 3.96749 3.53219 0
M  V30 7205 C 678.933 5.16178 3.28978 0
M  V30 7206 N 678.07 5.41751 4.46599 0
M  V30 7207 H 682.91 2.8772 0.775947 0
M  V30 7208 H 680.447 1.42328 0.371652 0
M  V30 7209 H 682.405 2.62454 3.24305 0
M  V30 7210 H 681.035 1.56279 2.82448 0
M  V30 7211 H 680.087 3.53063 1.416 0
M  V30 7212 H 681.399 4.5434 2.05857 0
M  V30 7213 H 680.553 4.19012 4.38764 0
M  V30 7214 H 679.292 3.07941 3.78185 0
M  V30 7215 H 678.297 4.93762 2.41824 0
M  V30 7216 H 679.522 6.06561 3.05386 0
M  V30 7217 H 677.468 4.55899 4.71691 0
M  V30 7218 H 677.385 6.23347 4.27756 0
M  V30 7219 H 678.653 5.68531 5.33285 0
M  V30 7220 N 682.882 -0.391992 1.52647 0
M  V30 7221 C 684.128 -1.139 1.67793 0
M  V30 7222 C 684.461 -1.89711 0.41514 0
M  V30 7223 O 683.736 -1.85431 -0.586979 0
M  V30 7224 C 684.019 -2.11966 2.91105 0
M  V30 7225 C 683.872 -1.39939 4.27478 0
M  V30 7226 C 685.191 -3.1243 3.09961 0
M  V30 7227 H 682.31 -0.412707 0.610608 0
M  V30 7228 H 684.952 -0.422725 1.85238 0
M  V30 7229 H 683.102 -2.73048 2.76364 0
M  V30 7230 H 684.774 -0.818439 4.53982 0
M  V30 7231 H 683.017 -0.701246 4.28095 0
M  V30 7232 H 683.688 -2.1158 5.09841 0
M  V30 7233 H 686.164 -2.61435 3.23714 0
M  V30 7234 H 685.04 -3.78294 3.97725 0
M  V30 7235 H 685.301 -3.81127 2.24042 0
M  V30 7236 N 684.36 -1.4356 -0.65026 0
M  V30 7237 C 685.323 -1.48615 -1.74489 0
M  V30 7238 C 686.323 -0.370483 -1.56474 0
M  V30 7239 O 687.513 -0.632351 -1.62317 0
M  V30 7240 C 684.645 -1.34161 -3.13391 0
M  V30 7241 H 685.838 -2.46103 -1.71387 0
M  V30 7242 H 683.391 -1.30369 -0.862186 0
M  V30 7243 H 684.126 -0.376918 -3.22102 0
M  V30 7244 H 683.911 -2.1504 -3.27872 0
M  V30 7245 H 685.401 -1.40637 -3.93206 0
M  V30 7246 N 685.838 0.888903 -1.30139 0
M  V30 7247 C 687.086 1.63713 -1.18501 0
M  V30 7248 C 687.407 1.9324 0.261399 0
M  V30 7249 O 686.677 1.56608 1.17689 0
M  V30 7250 H 685.257 0.606861 -0.435579 0
M  V30 7251 H 687.919 1.06525 -1.63213 0
M  V30 7252 H 687.015 2.58894 -1.743 0
M  V30 7253 N 687.317 1.12792 1.10072 0
M  V30 7254 C 688.728 0.899346 1.63611 0
M  V30 7255 C 689.079 -0.565547 1.87872 0
M  V30 7256 O 688.204 -1.43081 1.62348 0
M  V30 7257 C 688.799 1.62608 2.97227 0
M  V30 7258 C 687.358 1.44356 3.47618 0
M  V30 7259 C 686.505 1.65958 2.22156 0
M  V30 7260 H 689.456 1.28216 0.935223 0
M  V30 7261 H 689.477 1.0793 3.64872 0
M  V30 7262 H 688.989 2.69221 2.79538 0
M  V30 7263 H 687.09 0.400148 3.70445 0
M  V30 7264 H 687.203 2.20218 4.25489 0
M  V30 7265 H 685.567 1.08395 2.30484 0
M  V30 7266 H 686.35 2.73877 2.06993 0
M  V30 7267 N 688.795 -1.27931 0.920396 0
M  V30 7268 C 689.705 -2.30824 0.419212 0
M  V30 7269 C 690.721 -1.66767 -0.496461 0
M  V30 7270 O 691.897 -1.97763 -0.38104 0
M  V30 7271 C 688.962 -3.45158 -0.326601 0
M  V30 7272 C 688.023 -4.24754 0.623098 0
M  V30 7273 C 687.256 -5.33629 -0.0872172 0
M  V30 7274 O 687.479 -5.55204 -1.30784 0
M  V30 7275 O 686.413 -5.99091 0.580875 0
M  V30 7276 H 690.239 -2.75716 1.27337 0
M  V30 7277 H 687.824 -1.32747 0.685465 0
M  V30 7278 H 689.706 -4.14716 -0.747559 0
M  V30 7279 H 688.381 -3.02336 -1.15648 0
M  V30 7280 H 687.288 -3.57759 1.09359 0
M  V30 7281 H 688.621 -4.71272 1.41998 0
M  V30 7282 N 690.273 -0.685099 -1.4193 0
M  V30 7283 C 691.519 -0.211971 -2.01689 0
M  V30 7284 C 691.852 1.18189 -1.54094 0
M  V30 7285 O 691.127 1.79559 -0.747572 0
M  V30 7286 C 691.41 -0.258019 -3.59174 0
M  V30 7287 C 691.263 -1.68807 -4.16922 0
M  V30 7288 C 692.582 0.388044 -4.38386 0
M  V30 7289 H 689.701 -0.0784987 -0.732808 0
M  V30 7290 H 692.343 -0.871837 -1.68816 0
M  V30 7291 H 690.493 0.303832 -3.8731 0
M  V30 7292 H 692.165 -2.30296 -3.99702 0
M  V30 7293 H 690.408 -2.22553 -3.72361 0
M  V30 7294 H 691.079 -1.6719 -5.26072 0
M  V30 7295 H 693.555 -0.0903432 -4.16002 0
M  V30 7296 H 692.431 0.325232 -5.47936 0
M  V30 7297 H 692.692 1.4672 -4.17044 0
M  V30 7298 N 691.751 1.51645 -0.429126 0
M  V30 7299 C 692.681 2.30434 0.377148 0
M  V30 7300 C 693.662 1.35493 1.02838 0
M  V30 7301 O 694.847 1.6441 1.03359 0
M  V30 7302 C 691.977 3.14038 1.48315 0
M  V30 7303 C 690.931 4.1719 0.955855 0
M  V30 7304 C 690.257 4.89263 2.15698 0
M  V30 7305 C 691.557 5.223 -0.00402136 0
M  V30 7306 H 693.251 2.98085 -0.280336 0
M  V30 7307 H 690.797 1.43354 -0.136265 0
M  V30 7308 H 692.75 3.67933 2.05435 0
M  V30 7309 H 691.474 2.44193 2.16881 0
M  V30 7310 H 690.133 3.64335 0.406929 0
M  V30 7311 H 689.781 4.15929 2.82864 0
M  V30 7312 H 689.481 5.59009 1.81059 0
M  V30 7313 H 691.005 5.45978 2.73387 0
M  V30 7314 H 692.419 5.71315 0.476607 0
M  V30 7315 H 690.816 5.99525 -0.26258 0
M  V30 7316 H 691.886 4.75638 -0.943236 0
M  V30 7317 N 693.229 0.160201 1.56784 0
M  V30 7318 C 694.139 -0.787167 2.21 0
M  V30 7319 C 695.155 -1.26167 1.19825 0
M  V30 7320 O 696.331 -1.31611 1.52448 0
M  V30 7321 C 693.396 -2.00364 2.8294 0
M  V30 7322 C 692.457 -1.5771 3.99282 0
M  V30 7323 C 691.69 -2.73558 4.58259 0
M  V30 7324 O 691.913 -3.90129 4.16119 0
M  V30 7325 O 690.847 -2.48271 5.48311 0
M  V30 7326 H 694.673 -0.270462 3.02493 0
M  V30 7327 H 692.258 -0.0674666 1.49248 0
M  V30 7328 H 694.14 -2.71529 3.22257 0
M  V30 7329 H 692.815 -2.50961 2.04451 0
M  V30 7330 H 691.722 -0.835274 3.64656 0
M  V30 7331 H 693.055 -1.11815 4.79331 0
M  V30 7332 N 694.707 -1.5719 -0.113559 0
M  V30 7333 C 696.118 -1.74259 -0.670116 0
M  V30 7334 C 696.469 -0.779694 -1.80042 0
M  V30 7335 O 695.594 0.0461353 -2.16351 0
M  V30 7336 C 696.189 -3.15981 -1.22236 0
M  V30 7337 C 694.748 -3.34537 -1.72516 0
M  V30 7338 C 693.895 -2.70116 -0.627098 0
M  V30 7339 H 696.846 -1.58301 0.112396 0
M  V30 7340 H 696.867 -3.17832 -2.09197 0
M  V30 7341 H 696.379 -3.86038 -0.39949 0
M  V30 7342 H 694.48 -2.6953 -2.57263 0
M  V30 7343 H 694.593 -4.42737 -1.83086 0
M  V30 7344 H 692.957 -2.31501 -1.06204 0
M  V30 7345 H 693.74 -3.42802 0.184889 0
M  V30 7346 N 696.185 0.383891 -1.52853 0
M  V30 7347 C 697.118 1.49105 -1.72751 0
M  V30 7348 C 698.096 1.52077 -0.575438 0
M  V30 7349 O 699.28 1.70406 -0.805854 0
M  V30 7350 C 696.407 2.87551 -1.78975 0
M  V30 7351 C 695.453 3.02383 -3.00777 0
M  V30 7352 S 696.286 2.73048 -4.60657 0
M  V30 7353 C 697.442 4.13678 -4.69704 0
M  V30 7354 H 697.675 1.32002 -2.66388 0
M  V30 7355 H 695.208 0.577088 -1.4321 0
M  V30 7356 H 697.166 3.6733 -1.83246 0
M  V30 7357 H 695.827 3.01977 -0.864215 0
M  V30 7358 H 695.02 4.03733 -3.01688 0
M  V30 7359 H 694.622 2.30504 -2.94523 0
M  V30 7360 H 696.914 5.07676 -4.48633 0
M  V30 7361 H 697.857 4.1778 -5.71721 0
M  V30 7362 H 698.265 3.99825 -3.98497 0
M  V30 7363 N 697.663 1.43903 0.642637 0
M  V30 7364 C 698.595 1.45857 1.768 0
M  V30 7365 C 699.608 0.353358 1.58919 0
M  V30 7366 O 700.797 0.618426 1.67445 0
M  V30 7367 C 697.897 1.26583 3.14372 0
M  V30 7368 C 697.07 2.50139 3.58817 0
M  V30 7369 C 696.129 2.25933 4.75227 0
M  V30 7370 O 695.155 2.99351 4.84125 0
M  V30 7371 N 696.357 1.28263 5.66153 0
M  V30 7372 H 699.122 2.42869 1.75598 0
M  V30 7373 H 696.683 1.39194 0.826832 0
M  V30 7374 H 698.675 1.08255 3.89953 0
M  V30 7375 H 697.245 0.37978 3.10284 0
M  V30 7376 H 696.465 2.83821 2.73568 0
M  V30 7377 H 697.753 3.32344 3.8526 0
M  V30 7378 H 697.151 0.676041 5.61646 0
M  V30 7379 H 695.708 1.15916 6.4141 0
M  V30 7380 N 699.141 -0.881989 1.30609 0
M  V30 7381 C 700.071 -2.00413 1.1982 0
M  V30 7382 C 701.052 -1.69871 0.0881538 0
M  V30 7383 O 702.237 -1.92304 0.2707 0
M  V30 7384 C 699.367 -3.35641 0.89233 0
M  V30 7385 C 698.321 -3.80451 1.96064 0
M  V30 7386 C 697.647 -5.13003 1.5077 0
M  V30 7387 C 698.947 -3.98855 3.37213 0
M  V30 7388 H 700.641 -2.09698 2.13699 0
M  V30 7389 H 698.187 -1.00754 1.02882 0
M  V30 7390 H 700.14 -4.13669 0.803497 0
M  V30 7391 H 698.864 -3.26497 -0.0821381 0
M  V30 7392 H 697.523 -3.04654 2.03916 0
M  V30 7393 H 697.171 -5.0029 0.521417 0
M  V30 7394 H 696.871 -5.43956 2.22229 0
M  V30 7395 H 698.395 -5.93554 1.43271 0
M  V30 7396 H 699.809 -4.67312 3.32103 0
M  V30 7397 H 698.206 -4.41188 4.06784 0
M  V30 7398 H 699.276 -3.02614 3.78883 0
M  V30 7399 N 700.619 -1.13374 -1.09472 0
M  V30 7400 C 701.567 -0.806105 -2.18185 0
M  V30 7401 C 702.561 0.21136 -1.68076 0
M  V30 7402 O 703.767 0.0685558 -1.79869 0
M  V30 7403 H 700.142 -0.242901 -0.71169 0
M  V30 7404 H 702.113 -1.73115 -2.43051 0
M  V30 7405 C 700.862 -0.287928 -3.46506 0
M  V30 7406 H 700.185 -1.06217 -3.85432 0
M  V30 7407 H 701.625 -0.0971054 -4.23889 0
M  V30 7408 C 700.084 0.986256 -3.22141 0
M  V30 7409 O 700.614 2.06217 -3.44728 0
M  V30 7410 N 698.82 0.917153 -2.75747 0
M  V30 7411 H 698.367 0.0414609 -2.57567 0
M  V30 7412 H 698.325 1.77029 -2.59823 0
M  V30 7413 N 702.098 1.27442 -0.927168 0
M  V30 7414 C 703.345 1.94391 -0.567324 0
M  V30 7415 C 703.673 1.72875 0.891321 0
M  V30 7416 O 702.928 1.05071 1.65102 0
M  V30 7417 C 703.227 3.47413 -0.838994 0
M  V30 7418 C 702.893 3.89049 -2.2793 0
M  V30 7419 C 701.555 4.00127 -2.67305 0
M  V30 7420 C 703.907 4.10154 -3.21595 0
M  V30 7421 C 701.235 4.29697 -3.99471 0
M  V30 7422 C 703.587 4.41208 -4.53341 0
M  V30 7423 C 702.251 4.50499 -4.92551 0
M  V30 7424 H 701.521 0.711325 -0.207598 0
M  V30 7425 H 704.168 1.51523 -1.17103 0
M  V30 7426 H 702.473 3.91503 -0.152609 0
M  V30 7427 H 704.17 3.97354 -0.53955 0
M  V30 7428 H 700.76 3.80962 -1.96381 0
M  V30 7429 H 704.944 4.01036 -2.92377 0
M  V30 7430 H 700.2 4.35099 -4.29533 0
M  V30 7431 H 704.374 4.56486 -5.25922 0
M  V30 7432 H 702.001 4.73167 -5.94994 0
M  V30 7433 N 703.576 0.692616 1.41565 0
M  V30 7434 C 704.823 0.222335 2.01276 0
M  V30 7435 C 705.151 -1.17706 1.5484 0
M  V30 7436 O 704.406 -1.80795 0.749118 0
M  V30 7437 C 704.705 0.225073 3.56691 0
M  V30 7438 C 704.371 1.57158 4.22625 0
M  V30 7439 C 703.033 1.94022 4.40351 0
M  V30 7440 C 705.385 2.45758 4.59622 0
M  V30 7441 C 702.713 3.19076 4.92349 0
M  V30 7442 C 705.065 3.70141 5.13009 0
M  V30 7443 C 703.729 4.07152 5.28946 0
M  V30 7444 H 702.999 0.0813581 0.73652 0
M  V30 7445 H 705.646 0.891123 1.69503 0
M  V30 7446 H 703.951 -0.527259 3.88236 0
M  V30 7447 H 705.648 -0.156283 4.00695 0
M  V30 7448 H 702.238 1.27486 4.09201 0
M  V30 7449 H 706.422 2.18558 4.45585 0
M  V30 7450 H 701.678 3.4775 5.02872 0
M  V30 7451 H 705.852 4.38983 5.40617 0
M  V30 7452 H 703.479 5.04125 5.69001 0
M  V30 7453 N 705.054 -1.51416 0.437162 0
M  V30 7454 C 705.984 -2.30631 -0.364922 0
M  V30 7455 C 706.965 -1.36037 -1.02118 0
M  V30 7456 O 708.15 -1.64956 -1.02485 0
M  V30 7457 C 705.28 -3.1482 -1.46648 0
M  V30 7458 C 704.234 -4.17691 -0.933717 0
M  V30 7459 C 703.56 -4.904 -2.13101 0
M  V30 7460 C 704.86 -5.2229 0.0317201 0
M  V30 7461 H 706.554 -2.97932 0.29614 0
M  V30 7462 H 704.1 -1.4328 0.143865 0
M  V30 7463 H 706.053 -3.69017 -2.03481 0
M  V30 7464 H 704.777 -2.4534 -2.15583 0
M  V30 7465 H 703.436 -3.64545 -0.387602 0
M  V30 7466 H 703.084 -4.17423 -2.80654 0
M  V30 7467 H 702.784 -5.59962 -1.78092 0
M  V30 7468 H 704.308 -5.4742 -2.70487 0
M  V30 7469 H 705.722 -5.7156 -0.446302 0
M  V30 7470 H 704.119 -5.99378 0.29437 0
M  V30 7471 H 705.189 -4.75131 0.968447 0
M  V30 7472 N 706.532 -0.168513 -1.56696 0
M  V30 7473 C 707.757 0.486688 -2.01609 0
M  V30 7474 C 708.182 1.56203 -1.04796 0
M  V30 7475 O 707.54 1.8128 -0.0270596 0
M  V30 7476 C 707.588 1.04451 -3.45141 0
M  V30 7477 O 706.692 2.15862 -3.51393 0
M  V30 7478 H 706.033 0.116831 -0.653641 0
M  V30 7479 H 708.563 -0.271579 -2.0279 0
M  V30 7480 H 708.573 1.36782 -3.84389 0
M  V30 7481 H 707.248 0.257155 -4.15104 0
M  V30 7482 H 705.825 1.84597 -3.24004 0
M  V30 7483 N 708.01 1.57248 0.105221 0
M  V30 7484 C 708.958 2.02337 1.14728 0
M  V30 7485 C 709.952 0.922652 1.42069 0
M  V30 7486 O 711.158 1.10785 1.41869 0
M  V30 7487 H 707.533 0.644682 0.387155 0
M  V30 7488 H 709.504 2.89063 0.740607 0
M  V30 7489 C 708.253 2.45513 2.46209 0
M  V30 7490 H 707.576 3.29785 2.26013 0
M  V30 7491 H 709.016 2.80846 3.1765 0
M  V30 7492 C 707.475 1.3243 3.09781 0
M  V30 7493 O 708.005 0.647841 3.96442 0
M  V30 7494 N 706.211 1.07785 2.69872 0
M  V30 7495 H 705.758 1.62973 1.99493 0
M  V30 7496 H 705.716 0.323204 3.12734 0
M  V30 7497 N 709.488 -0.375779 1.53054 0
M  V30 7498 C 710.899 -0.95309 1.6054 0
M  V30 7499 C 711.25 -1.90575 0.466446 0
M  V30 7500 O 710.375 -2.12507 -0.408609 0
M  V30 7501 C 710.97 -1.73537 2.90982 0
M  V30 7502 C 709.529 -2.26218 3.00836 0
M  V30 7503 C 708.676 -1.07157 2.55759 0
M  V30 7504 H 711.627 -0.154895 1.57942 0
M  V30 7505 H 711.648 -2.59574 2.78211 0
M  V30 7506 H 711.16 -1.04176 3.73857 0
M  V30 7507 H 709.261 -2.98852 2.22527 0
M  V30 7508 H 709.374 -2.54799 4.05727 0
M  V30 7509 H 707.738 -1.43553 2.10391 0
M  V30 7510 H 708.521 -0.393099 3.41042 0
M  V30 7511 N 710.966 -1.44241 -0.634997 0
M  V30 7512 C 712.212 -1.47038 -1.39669 0
M  V30 7513 C 712.545 -0.101122 -1.93937 0
M  V30 7514 O 711.82 0.880699 -1.73418 0
M  V30 7515 C 712.103 -2.52763 -2.56482 0
M  V30 7516 C 711.956 -3.99032 -2.07589 0
M  V30 7517 C 713.275 -2.55031 -3.58674 0
M  V30 7518 H 710.394 -0.53537 -0.506506 0
M  V30 7519 H 713.036 -1.75898 -0.718317 0
M  V30 7520 H 711.186 -2.28284 -3.14354 0
M  V30 7521 H 712.858 -4.3463 -1.54577 0
M  V30 7522 H 711.101 -4.10994 -1.38804 0
M  V30 7523 H 711.772 -4.68649 -2.91671 0
M  V30 7524 H 714.248 -2.76893 -3.10595 0
M  V30 7525 H 713.124 -3.30916 -4.37934 0
M  V30 7526 H 713.385 -1.59085 -4.12486 0
M  V30 7527 N 712.444 0.87505 -1.31075 0
M  V30 7528 C 713.354 2.01441 -1.20244 0
M  V30 7529 C 714.37 1.73584 -0.120227 0
M  V30 7530 O 715.546 1.98559 -0.337063 0
M  V30 7531 C 712.611 3.34675 -0.905199 0
M  V30 7532 C 711.672 3.75889 -2.0738 0
M  V30 7533 C 710.905 5.02764 -1.79064 0
M  V30 7534 O 711.128 5.65795 -0.723318 0
M  V30 7535 O 710.062 5.40623 -2.64594 0
M  V30 7536 H 713.888 2.13509 -2.1598 0
M  V30 7537 H 711.473 1.00257 -1.10765 0
M  V30 7538 H 713.355 4.1458 -0.755057 0
M  V30 7539 H 712.03 3.23692 0.0221695 0
M  V30 7540 H 710.937 2.96645 -2.27931 0
M  V30 7541 H 712.27 3.91489 -2.98324 0
M  V30 7542 N 713.922 1.13953 1.08869 0
M  V30 7543 C 714.854 0.779906 2.15523 0
M  V30 7544 C 715.867 -0.20102 1.61554 0
M  V30 7545 O 717.056 0.0200049 1.78489 0
M  V30 7546 C 714.156 0.136226 3.38626 0
M  V30 7547 C 713.329 1.15069 4.21993 0
M  V30 7548 C 712.388 0.531645 5.23507 0
M  V30 7549 O 711.414 1.19327 5.56552 0
M  V30 7550 N 712.616 -0.693734 5.7634 0
M  V30 7551 H 715.381 1.69769 2.46979 0
M  V30 7552 H 712.942 1.03331 1.24637 0
M  V30 7553 H 714.934 -0.290295 4.03658 0
M  V30 7554 H 713.504 -0.684603 3.05011 0
M  V30 7555 H 712.724 1.75431 3.53012 0
M  V30 7556 H 714.012 1.83614 4.74514 0
M  V30 7557 H 713.41 -1.24994 5.51718 0
M  V30 7558 H 711.967 -1.06283 6.43076 0
M  V30 7559 N 715.4 -1.26948 0.933913 0
M  V30 7560 C 716.646 -1.94374 0.57848 0
M  V30 7561 C 716.979 -1.73166 -0.879048 0
M  V30 7562 O 716.254 -1.06438 -1.62792 0
M  V30 7563 C 716.537 -3.4834 0.912739 0
M  V30 7564 C 716.39 -3.78866 2.42448 0
M  V30 7565 C 717.709 -4.38062 0.423003 0
M  V30 7566 H 714.828 -0.705959 0.211639 0
M  V30 7567 H 717.47 -1.49951 1.16682 0
M  V30 7568 H 715.62 -3.86309 0.412058 0
M  V30 7569 H 717.292 -3.50654 2.99733 0
M  V30 7570 H 715.535 -3.25198 2.87104 0
M  V30 7571 H 716.206 -4.86458 2.60887 0
M  V30 7572 H 718.682 -4.0728 0.852191 0
M  V30 7573 H 717.558 -5.44599 0.685776 0
M  V30 7574 H 717.819 -4.36886 -0.676994 0
M  V30 7575 N 716.879 -0.700114 -1.41195 0
M  V30 7576 C 718.104 -0.240704 -2.05998 0
M  V30 7577 C 718.529 1.10313 -1.52357 0
M  V30 7578 O 717.887 1.69154 -0.652424 0
M  V30 7579 C 717.935 -0.213783 -3.59966 0
M  V30 7580 O 717.039 0.809933 -4.04368 0
M  V30 7581 H 716.38 -0.116471 -0.653705 0
M  V30 7582 H 718.91 -0.956251 -1.80878 0
M  V30 7583 H 718.92 -0.0461852 -4.07974 0
M  V30 7584 H 717.595 -1.19454 -3.98376 0
M  V30 7585 H 716.172 0.611319 -3.67855 0
M  V30 7586 N 718.357 1.51182 -0.445186 0
M  V30 7587 C 719.597 2.04061 0.117717 0
M  V30 7588 C 719.961 1.32158 1.39278 0
M  V30 7589 O 721.162 1.75452 2.03642 0
M  V30 7590 C 719.433 3.55933 0.323445 0
M  V30 7591 S 720.992 4.30516 0.848627 0
M  V30 7592 H 717.81 0.710442 0.028165 0
M  V30 7593 H 720.412 1.85858 -0.606391 0
M  V30 7594 H 719.116 4.0583 -0.610764 0
M  V30 7595 H 718.647 3.78444 1.07441 0
M  V30 7596 H 720.662 4.48382 2.12528 0
M  V30 7597 N 719.835 0.176821 1.56605 0
M  V30 7598 C 721.083 -0.465793 1.96659 0
M  V30 7599 C 721.404 -1.63406 1.06412 0
M  V30 7600 O 720.674 -1.95457 0.131603 0
M  V30 7601 H 719.254 -0.175072 0.726195 0
M  V30 7602 H 721.916 0.25929 1.93168 0
M  V30 7603 H 721.012 -0.822138 3.01077 0
M  V30 7604 N 721.313 -1.57302 -0.09688 0
M  V30 7605 C 722.59 -1.7701 -0.832272 0
M  V30 7606 C 722.97 -0.758025 -1.97021 0
M  V30 7607 O 722.318 0.213824 -2.27497 0
M  V30 7608 C 722.528 -3.22725 -1.32851 0
M  V30 7609 C 723.876 -3.85856 -1.772 0
M  V30 7610 O 724.9 -3.26464 -1.42478 0
M  V30 7611 O 723.759 -4.90295 -2.41398 0
M  V30 7612 H 720.853 -0.725558 -0.396856 0
M  V30 7613 H 723.399 -1.69516 -0.0789005 0
M  V30 7614 H 722.171 -3.87921 -0.51312 0
M  V30 7615 H 721.794 -3.34845 -2.14394 0
M  V30 7616 N 722.791 0.367657 -1.53252 0
M  V30 7617 C 723.739 1.47061 -1.8021 0
M  V30 7618 C 724.733 1.55539 -0.671112 0
M  V30 7619 O 725.939 1.58451 -0.854014 0
M  V30 7620 H 722.314 0.489868 -0.570555 0
M  V30 7621 H 724.285 1.21527 -2.72532 0
M  V30 7622 C 723.034 2.83924 -2.00706 0
M  V30 7623 H 722.357 2.78158 -2.87172 0
M  V30 7624 H 723.797 3.60281 -2.23547 0
M  V30 7625 C 722.256 3.27613 -0.785568 0
M  V30 7626 O 722.786 4.01691 0.0267459 0
M  V30 7627 N 720.992 2.84134 -0.609597 0
M  V30 7628 H 720.539 2.24017 -1.27178 0
M  V30 7629 H 720.497 3.13723 0.206281 0
M  V30 7630 N 724.269 1.44576 0.627338 0
M  V30 7631 C 725.219 1.48168 1.73293 0
M  V30 7632 C 726.203 0.347045 1.57113 0
M  V30 7633 O 727.395 0.592605 1.66785 0
M  V30 7634 C 724.524 1.43236 3.11991 0
M  V30 7635 C 723.61 2.61828 3.33627 0
M  V30 7636 N 724.001 3.87053 3.25612 0
M  V30 7637 C 722.299 2.57104 3.64436 0
M  V30 7638 C 723 4.66093 3.48041 0
M  V30 7639 N 721.976 3.97228 3.71095 0
M  V30 7640 H 725.778 2.42832 1.6556 0
M  V30 7641 H 723.292 1.39592 0.829934 0
M  V30 7642 H 725.289 1.43893 3.91281 0
M  V30 7643 H 723.949 0.496133 3.20887 0
M  V30 7644 H 724.96 4.18966 3.04447 0
M  V30 7645 H 721.637 1.72295 3.8029 0
M  V30 7646 H 723.027 5.75117 3.47404 0
M  V30 7647 N 725.747 -0.868086 1.31537 0
M  V30 7648 C 726.993 -1.62367 1.2151 0
M  V30 7649 C 727.326 -1.92883 -0.225819 0
M  V30 7650 O 726.601 -1.56176 -1.15927 0
M  V30 7651 C 726.884 -2.95268 2.06129 0
M  V30 7652 C 726.737 -2.71619 3.58529 0
M  V30 7653 C 728.056 -3.96391 1.91212 0
M  V30 7654 H 725.175 -0.589178 0.442762 0
M  V30 7655 H 727.817 -1.00336 1.61347 0
M  V30 7656 H 725.967 -3.4821 1.72284 0
M  V30 7657 H 727.639 -2.25334 4.0252 0
M  V30 7658 H 725.882 -2.05817 3.81866 0
M  V30 7659 H 726.553 -3.66192 4.13047 0
M  V30 7660 H 729.029 -3.52663 2.20834 0
M  V30 7661 H 727.905 -4.87263 2.52718 0
M  V30 7662 H 728.166 -4.33335 0.875953 0
M  V30 7663 N 727.225 -1.14528 -1.08264 0
M  V30 7664 C 728.471 -0.91576 -1.80947 0
M  V30 7665 C 728.804 0.55623 -1.86064 0
M  V30 7666 O 728.079 1.41207 -1.33756 0
M  V30 7667 C 728.362 -1.51917 -3.26486 0
M  V30 7668 C 728.215 -3.06111 -3.2957 0
M  V30 7669 C 729.534 -1.19724 -4.23502 0
M  V30 7670 H 726.653 -0.334113 -0.656915 0
M  V30 7671 H 729.295 -1.41547 -1.26746 0
M  V30 7672 H 727.445 -1.0942 -3.72773 0
M  V30 7673 H 729.117 -3.57448 -2.91597 0
M  V30 7674 H 727.36 -3.40483 -2.688 0
M  V30 7675 H 728.031 -3.43438 -4.32151 0
M  V30 7676 H 730.507 -1.56467 -3.85561 0
M  V30 7677 H 729.383 -1.64575 -5.23647 0
M  V30 7678 H 729.644 -0.112771 -4.41956 0
M  V30 7679 N 728.703 1.26451 -0.940633 0
M  V30 7680 C 729.949 1.94065 -0.58878 0
M  V30 7681 C 730.282 1.7363 0.869853 0
M  V30 7682 O 729.557 1.073 1.62225 0
M  V30 7683 C 729.84 3.47852 -0.931199 0
M  V30 7684 C 729.693 3.77575 -2.44453 0
M  V30 7685 C 731.012 4.37832 -0.446229 0
M  V30 7686 H 728.131 0.704827 -0.21538 0
M  V30 7687 H 730.773 1.4933 -1.17475 0
M  V30 7688 H 728.923 3.86085 -0.432539 0
M  V30 7689 H 730.595 3.49059 -3.01588 0
M  V30 7690 H 728.838 3.23671 -2.88825 0
M  V30 7691 H 729.509 4.85068 -2.63464 0
M  V30 7692 H 731.985 4.06822 -0.873778 0
M  V30 7693 H 730.861 5.44228 -0.714648 0
M  V30 7694 H 731.122 4.37239 0.653815 0
M  V30 7695 N 730.181 0.707592 1.40822 0
M  V30 7696 C 731.111 0.0644925 2.33411 0
M  V30 7697 C 732.092 -0.754205 1.52466 0
M  V30 7698 O 733.277 -0.704749 1.80961 0
M  V30 7699 C 730.407 -0.863865 3.36385 0
M  V30 7700 C 729.361 -0.15138 4.27732 0
M  V30 7701 C 728.687 -1.19491 5.21177 0
M  V30 7702 C 729.987 0.989607 5.12839 0
M  V30 7703 H 731.681 0.837829 2.87438 0
M  V30 7704 H 729.227 0.404346 1.38207 0
M  V30 7705 H 731.18 -1.32309 4.0009 0
M  V30 7706 H 729.904 -1.66901 2.80734 0
M  V30 7707 H 728.563 0.287937 3.65467 0
M  V30 7708 H 728.211 -1.9929 4.61836 0
M  V30 7709 H 727.911 -0.723123 5.83134 0
M  V30 7710 H 729.435 -1.6544 5.8776 0
M  V30 7711 H 730.849 0.610114 5.70044 0
M  V30 7712 H 729.246 1.38926 5.83798 0
M  V30 7713 H 730.316 1.82389 4.49291 0
M  V30 7714 N 731.66 -1.50943 0.453197 0
M  V30 7715 C 732.888 -2.06628 -0.106135 0
M  V30 7716 C 733.303 -1.31901 -1.35084 0
M  V30 7717 O 732.66 -0.383074 -1.78434 0
M  V30 7718 C 732.711 -3.5914 -0.412368 0
M  V30 7719 O 732.432 -4.31047 0.782948 0
M  V30 7720 C 733.933 -4.31391 -1.02064 0
M  V30 7721 H 731.153 -0.670999 -0.000885896 0
M  V30 7722 H 733.697 -1.94331 0.63684 0
M  V30 7723 H 731.852 -3.71299 -1.10526 0
M  V30 7724 H 732.266 -5.21948 0.516736 0
M  V30 7725 H 733.74 -5.39135 -1.1848 0
M  V30 7726 H 734.217 -3.90714 -2.00598 0
M  V30 7727 H 734.823 -4.23716 -0.366664 0
M  V30 7728 N 733.138 -0.185124 -1.56509 0
M  V30 7729 C 734.554 0.170865 -1.58683 0
M  V30 7730 C 734.754 1.61799 -1.20098 0
M  V30 7731 O 733.81 2.35181 -0.919038 0
M  V30 7732 C 735.123 -0.122459 -3.00451 0
M  V30 7733 C 736.671 -0.0617699 -3.12939 0
M  V30 7734 C 737.146 -0.328269 -4.56822 0
M  V30 7735 N 738.637 -0.276533 -4.62374 0
M  V30 7736 C 739.372 -0.456722 -5.71578 0
M  V30 7737 N 738.868 -0.69672 -6.89288 0
M  V30 7738 N 740.661 -0.391669 -5.60734 0
M  V30 7739 H 732.812 -1.12956 -1.79874 0
M  V30 7740 H 735.075 -0.45011 -0.834329 0
M  V30 7741 H 734.781 -1.12546 -3.33206 0
M  V30 7742 H 734.655 0.579578 -3.72721 0
M  V30 7743 H 737.042 0.931826 -2.80002 0
M  V30 7744 H 737.123 -0.796732 -2.43076 0
M  V30 7745 H 736.767 -1.31914 -4.9047 0
M  V30 7746 H 736.697 0.427465 -5.24862 0
M  V30 7747 H 739.188 -0.0972458 -3.77775 0
M  V30 7748 H 739.501 -0.823291 -7.68402 0
M  V30 7749 H 737.846 -0.733497 -6.91119 0
M  V30 7750 H 741.037 -0.204663 -4.67652 0
M  V30 7751 H 741.21 -0.535518 -6.45783 0
M  V30 7752 N 734.616 1.57351 0.0885366 0
M  V30 7753 C 735.564 2.03542 1.12576 0
M  V30 7754 C 736.558 0.937668 1.41082 0
M  V30 7755 O 737.764 1.12283 1.40686 0
M  V30 7756 H 734.139 0.648752 0.380296 0
M  V30 7757 H 736.11 2.89833 0.709906 0
M  V30 7758 C 734.859 2.4811 2.43591 0
M  V30 7759 H 734.182 3.32164 2.22502 0
M  V30 7760 H 735.622 2.842 3.14653 0
M  V30 7761 C 734.081 1.35708 3.08359 0
M  V30 7762 O 734.611 0.689852 3.95732 0
M  V30 7763 N 732.817 1.10641 2.68713 0
M  V30 7764 H 732.364 1.6508 1.97753 0
M  V30 7765 H 732.322 0.356355 3.12374 0
M  V30 7766 N 736.094 -0.359525 1.53444 0
M  V30 7767 C 737.041 -1.44073 1.8031 0
M  V30 7768 C 738.011 -1.52946 0.647811 0
M  V30 7769 O 739.196 -1.68739 0.890614 0
M  V30 7770 C 736.336 -2.80941 2.00416 0
M  V30 7771 C 735.449 -2.80986 3.28132 0
M  V30 7772 C 734.584 -4.09468 3.38393 0
M  V30 7773 C 733.623 -4.03679 4.60119 0
M  V30 7774 N 732.76 -5.23821 4.675 0
M  V30 7775 H 737.6 -1.20464 2.72566 0
M  V30 7776 H 735.137 -0.583859 1.35017 0
M  V30 7777 H 737.095 -3.60459 2.1006 0
M  V30 7778 H 735.725 -3.02936 1.11489 0
M  V30 7779 H 734.777 -1.93666 3.27411 0
M  V30 7780 H 736.089 -2.72583 4.17732 0
M  V30 7781 H 735.243 -4.97404 3.47382 0
M  V30 7782 H 733.982 -4.20632 2.4682 0
M  V30 7783 H 732.987 -3.14129 4.51224 0
M  V30 7784 H 734.212 -3.94112 5.5304 0
M  V30 7785 H 732.158 -5.35559 3.7883 0
M  V30 7786 H 732.075 -5.17611 5.51013 0
M  V30 7787 H 733.343 -6.13572 4.8078 0
M  V30 7788 N 737.572 -1.44907 -0.619662 0
M  V30 7789 C 738.482 -1.55168 -1.75955 0
M  V30 7790 C 739.498 -0.43672 -1.6843 0
M  V30 7791 O 740.674 -0.695704 -1.89002 0
M  V30 7792 C 737.739 -1.50397 -3.12381 0
M  V30 7793 C 736.8 -2.72835 -3.31451 0
M  V30 7794 C 736.033 -2.68283 -4.61368 0
M  V30 7795 O 736.256 -1.74929 -5.42914 0
M  V30 7796 O 735.19 -3.59308 -4.82889 0
M  V30 7797 H 739.016 -2.51493 -1.7025 0
M  V30 7798 H 736.601 -1.27282 -0.782289 0
M  V30 7799 H 738.483 -1.50301 -3.93685 0
M  V30 7800 H 737.158 -0.572197 -3.18603 0
M  V30 7801 H 736.065 -2.78496 -2.49781 0
M  V30 7802 H 737.398 -3.65098 -3.30098 0
M  V30 7803 N 739.05 0.861098 -1.31996 0
M  V30 7804 C 740.296 1.61721 -1.22369 0
M  V30 7805 C 740.629 1.93 0.215587 0
M  V30 7806 O 739.904 1.56789 1.15098 0
M  V30 7807 C 740.187 2.9417 -2.07691 0
M  V30 7808 C 740.04 2.69714 -3.59965 0
M  V30 7809 C 741.359 3.95372 -1.93312 0
M  V30 7810 H 738.478 0.586822 -0.44588 0
M  V30 7811 H 741.12 0.994788 -1.61876 0
M  V30 7812 H 739.27 3.47292 -1.74128 0
M  V30 7813 H 740.942 2.23196 -4.03709 0
M  V30 7814 H 739.185 2.03789 -3.82952 0
M  V30 7815 H 739.856 3.63996 -4.14983 0
M  V30 7816 H 742.332 3.51487 -2.22701 0
M  V30 7817 H 741.208 4.85916 -2.55298 0
M  V30 7818 H 741.469 4.32865 -0.898922 0
M  V30 7819 N 740.528 1.15101 1.07655 0
M  V30 7820 C 741.758 0.946357 1.83651 0
M  V30 7821 C 742.166 -0.508641 1.82235 0
M  V30 7822 O 741.509 -1.36445 1.22997 0
M  V30 7823 C 741.571 1.37945 3.31981 0
M  V30 7824 C 741.235 2.85155 3.57122 0
M  V30 7825 C 742.232 3.83234 3.51323 0
M  V30 7826 C 739.917 3.2275 3.84887 0
M  V30 7827 C 741.911 5.16914 3.72932 0
M  V30 7828 C 739.598 4.56604 4.06148 0
M  V30 7829 C 740.596 5.53495 4.00165 0
M  V30 7830 O 740.284 6.84931 4.20861 0
M  V30 7831 H 740.016 0.336368 0.586372 0
M  V30 7832 H 742.57 1.53198 1.36819 0
M  V30 7833 H 740.8 0.737205 3.79608 0
M  V30 7834 H 742.489 1.14439 3.89434 0
M  V30 7835 H 743.255 3.55535 3.29878 0
M  V30 7836 H 739.134 2.47921 3.88659 0
M  V30 7837 H 742.678 5.92529 3.68178 0
M  V30 7838 H 738.575 4.84019 4.27078 0
M  V30 7839 H 739.343 6.91304 4.38226 0
M  V30 7840 N 742.006 -1.2595 0.947325 0
M  V30 7841 C 743.231 -1.98083 0.614633 0
M  V30 7842 C 743.656 -1.70013 -0.804815 0
M  V30 7843 O 743.014 -0.95175 -1.54309 0
M  V30 7844 C 743.062 -3.4993 0.870706 0
M  V30 7845 O 742.166 -4.12364 -0.0541451 0
M  V30 7846 H 741.507 -0.621232 0.234451 0
M  V30 7847 H 744.037 -1.60259 1.27193 0
M  V30 7848 H 744.047 -4.00198 0.794051 0
M  V30 7849 H 742.722 -3.69691 1.90529 0
M  V30 7850 H 741.299 -3.72826 0.0740917 0
M  V30 7851 N 743.484 -0.715051 -1.40445 0
M  V30 7852 C 744.73 -0.263528 -2.01686 0
M  V30 7853 C 745.085 1.13052 -1.55683 0
M  V30 7854 O 744.378 1.75588 -0.766762 0
M  V30 7855 C 744.572 -0.281791 -3.56287 0
M  V30 7856 C 744.401 -1.67607 -4.17298 0
M  V30 7857 C 743.171 -2.2836 -4.50755 0
M  V30 7858 C 745.369 -2.62621 -4.42193 0
M  V30 7859 N 743.351 -3.6015 -4.97157 0
M  V30 7860 C 744.722 -3.79116 -4.90582 0
M  V30 7861 C 746.777 -2.60639 -4.24231 0
M  V30 7862 C 745.48 -4.93937 -5.22895 0
M  V30 7863 C 747.506 -3.74587 -4.57644 0
M  V30 7864 C 746.868 -4.89815 -5.06222 0
M  V30 7865 H 742.967 -0.142252 -0.768953 0
M  V30 7866 H 745.551 -0.936732 -1.70685 0
M  V30 7867 H 743.722 0.360975 -3.86719 0
M  V30 7868 H 745.454 0.186393 -4.04271 0
M  V30 7869 H 742.209 -1.80463 -4.3787 0
M  V30 7870 H 742.633 -4.27757 -5.24741 0
M  V30 7871 H 747.275 -1.72759 -3.85894 0
M  V30 7872 H 744.993 -5.82462 -5.60146 0
M  V30 7873 H 748.579 -3.74328 -4.45387 0
M  V30 7874 H 747.459 -5.76525 -5.3159 0
M  V30 7875 N 744.962 1.50701 -0.461195 0
M  V30 7876 C 746.21 2.01867 0.0970051 0
M  V30 7877 C 746.531 1.34591 1.41104 0
M  V30 7878 O 745.801 0.488041 1.89723 0
M  V30 7879 H 744.381 0.74599 0.0388392 0
M  V30 7880 H 747.043 1.85129 -0.609357 0
M  V30 7881 H 746.139 3.11051 0.255688 0
M  V30 7882 N 746.441 0.193421 1.56409 0
M  V30 7883 C 747.681 -0.447977 1.9943 0
M  V30 7884 C 748.045 -1.58915 1.07751 0
M  V30 7885 O 749.246 -2.29462 1.40002 0
M  V30 7886 C 747.517 -0.89793 3.45936 0
M  V30 7887 S 749.076 -1.5374 4.10986 0
M  V30 7888 H 745.894 -0.143316 0.696406 0
M  V30 7889 H 748.496 0.296093 1.93245 0
M  V30 7890 H 747.2 -0.0572927 4.1036 0
M  V30 7891 H 746.731 -1.67551 3.55936 0
M  V30 7892 H 748.746 -2.82612 4.07854 0
M  V30 7893 N 747.919 -1.57396 -0.0801906 0
M  V30 7894 C 749.167 -1.86467 -0.779384 0
M  V30 7895 C 749.488 -0.784243 -1.78535 0
M  V30 7896 O 748.758 0.187986 -1.94996 0
M  V30 7897 H 747.338 -0.68806 -0.29083 0
M  V30 7898 H 750 -1.94813 -0.0582749 0
M  V30 7899 H 749.096 -2.83701 -1.30078 0
M  V30 7900 N 749.397 0.351382 -1.53633 0
M  V30 7901 C 750.307 1.45471 -1.84052 0
M  V30 7902 C 751.323 1.57945 -0.730015 0
M  V30 7903 O 752.499 1.73571 -1.02153 0
M  V30 7904 C 749.564 2.80562 -2.03681 0
M  V30 7905 C 748.625 2.77497 -3.27558 0
M  V30 7906 C 747.858 4.06144 -3.46241 0
M  V30 7907 O 748.081 5.03028 -2.68922 0
M  V30 7908 O 747.015 4.11092 -4.39645 0
M  V30 7909 H 750.841 1.22684 -2.77817 0
M  V30 7910 H 748.426 0.542827 -1.3919 0
M  V30 7911 H 750.308 3.6058 -2.18082 0
M  V30 7912 H 748.983 3.03296 -1.13106 0
M  V30 7913 H 747.89 1.96126 -3.18568 0
M  V30 7914 H 749.223 2.59716 -4.18101 0
M  V30 7915 N 750.875 1.45233 0.611969 0
M  V30 7916 C 752.105 1.52318 1.39581 0
M  V30 7917 C 752.513 0.153093 1.8858 0
M  V30 7918 O 751.856 -0.854792 1.62601 0
M  V30 7919 C 751.918 2.4426 2.63775 0
M  V30 7920 C 751.582 3.91079 2.36445 0
M  V30 7921 C 752.579 4.81099 1.97079 0
M  V30 7922 C 750.264 4.35958 2.49492 0
M  V30 7923 C 752.258 6.14002 1.71115 0
M  V30 7924 C 749.945 5.68903 2.23142 0
M  V30 7925 C 750.943 6.57744 1.84015 0
M  V30 7926 O 750.631 7.88226 1.5797 0
M  V30 7927 H 750.363 0.518428 0.43383 0
M  V30 7928 H 752.917 1.91067 0.753837 0
M  V30 7929 H 751.147 2.00474 3.30677 0
M  V30 7930 H 752.836 2.42077 3.25812 0
M  V30 7931 H 753.602 4.47692 1.86539 0
M  V30 7932 H 749.481 3.67053 2.78914 0
M  V30 7933 H 753.025 6.83305 1.405 0
M  V30 7934 H 748.922 6.01866 2.33297 0
M  V30 7935 H 749.69 8.00211 1.72058 0
M  V30 7936 N 752.353 -0.854086 1.3245 0
M  V30 7937 C 753.601 -1.60513 1.228 0
M  V30 7938 C 753.922 -1.93865 -0.210073 0
M  V30 7939 O 753.192 -1.59673 -1.13496 0
M  V30 7940 H 751.772 -0.595099 0.451516 0
M  V30 7941 H 754.434 -1.0216 1.6598 0
M  V30 7942 H 753.53 -2.54182 1.81102 0
M  V30 7943 N 753.831 -1.1567 -1.07043 0
M  V30 7944 C 755.247 -0.900006 -1.31803 0
M  V30 7945 C 755.447 0.451293 -1.96381 0
M  V30 7946 O 754.503 1.19252 -2.22565 0
M  V30 7947 C 755.816 -2.04334 -2.20609 0
M  V30 7948 C 757.364 -2.07823 -2.34048 0
M  V30 7949 C 757.839 -3.21488 -3.26204 0
M  V30 7950 N 759.33 -3.21156 -3.33786 0
M  V30 7951 C 760.065 -4.05746 -4.05163 0
M  V30 7952 N 759.561 -5.00407 -4.79129 0
M  V30 7953 N 761.354 -3.93759 -4.01136 0
M  V30 7954 H 753.505 -2.02681 -0.635146 0
M  V30 7955 H 755.768 -0.883956 -0.342528 0
M  V30 7956 H 755.474 -3.01895 -1.80423 0
M  V30 7957 H 755.348 -1.97838 -3.21154 0
M  V30 7958 H 757.735 -1.1086 -2.73485 0
M  V30 7959 H 757.816 -2.18386 -1.33197 0
M  V30 7960 H 757.46 -4.18706 -2.87485 0
M  V30 7961 H 757.39 -3.08162 -4.27017 0
M  V30 7962 H 759.881 -2.52606 -2.81067 0
M  V30 7963 H 760.194 -5.61387 -5.31097 0
M  V30 7964 H 758.539 -5.04393 -4.78135 0
M  V30 7965 H 761.73 -3.19115 -3.42466 0
M  V30 7966 H 761.903 -4.59906 -4.56498 0
M  V30 7967 N 755.309 1.25446 -0.953992 0
M  V30 7968 C 756.239 2.28264 -0.491717 0
M  V30 7969 C 757.22 1.63717 0.461617 0
M  V30 7970 O 758.405 1.90821 0.36071 0
M  V30 7971 C 755.535 3.46525 0.231915 0
M  V30 7972 C 754.489 4.23247 -0.636098 0
M  V30 7973 C 753.815 5.34254 0.218238 0
M  V30 7974 C 755.115 4.85971 -1.91389 0
M  V30 7975 H 756.809 2.67183 -1.35106 0
M  V30 7976 H 754.355 1.2844 -0.651095 0
M  V30 7977 H 756.308 4.17576 0.566439 0
M  V30 7978 H 755.032 3.06594 1.12551 0
M  V30 7979 H 753.691 3.53978 -0.953696 0
M  V30 7980 H 753.339 4.90564 1.11156 0
M  V30 7981 H 753.039 5.86501 -0.359232 0
M  V30 7982 H 754.563 6.08138 0.547743 0
M  V30 7983 H 755.977 5.49168 -1.64581 0
M  V30 7984 H 754.374 5.48391 -2.43696 0
M  V30 7985 H 755.444 4.08192 -2.61738 0
M  V30 7986 N 756.787 0.722489 1.40064 0
M  V30 7987 C 758.035 0.264455 2.00362 0
M  V30 7988 C 758.356 -1.14847 1.57592 0
M  V30 7989 O 757.626 -1.77982 0.818477 0
M  V30 7990 H 756.206 0.0947846 0.740962 0
M  V30 7991 H 758.868 0.929659 1.71299 0
M  V30 7992 H 757.964 0.302977 3.10626 0
M  V30 7993 N 758.265 -1.50454 0.469181 0
M  V30 7994 C 759.195 -2.31353 -0.31592 0
M  V30 7995 C 760.176 -1.38172 -0.992094 0
M  V30 7996 O 761.361 -1.67093 -0.989633 0
M  V30 7997 C 758.491 -3.1786 -1.39937 0
M  V30 7998 C 757.445 -4.19578 -0.844909 0
M  V30 7999 C 756.771 -4.9481 -2.0265 0
M  V30 8000 C 758.071 -5.22106 0.142499 0
M  V30 8001 H 759.765 -2.97237 0.359269 0
M  V30 8002 H 757.311 -1.42942 0.174224 0
M  V30 8003 H 759.264 -3.7325 -1.95607 0
M  V30 8004 H 757.988 -2.49858 -2.1033 0
M  V30 8005 H 756.647 -3.65285 -0.310189 0
M  V30 8006 H 756.295 -4.23282 -2.71737 0
M  V30 8007 H 755.995 -5.63613 -1.66174 0
M  V30 8008 H 757.519 -5.53035 -2.58815 0
M  V30 8009 H 758.933 -5.72378 -0.324966 0
M  V30 8010 H 757.33 -5.98618 0.421441 0
M  V30 8011 H 758.4 -4.7297 1.06901 0
M  V30 8012 N 759.743 -0.201713 -1.56304 0
M  V30 8013 C 761.02 0.483273 -1.89536 0
M  V30 8014 C 761.4 1.79176 -1.11621 0
M  V30 8015 O 760.748 2.27445 -0.219339 0
M  V30 8016 C 760.958 0.695604 -3.41998 0
M  V30 8017 C 762.306 1.012 -4.12364 0
M  V30 8018 O 763.33 0.783094 -3.47485 0
M  V30 8019 O 762.189 1.44534 -5.27041 0
M  V30 8020 H 759.283 0.252801 -0.787414 0
M  V30 8021 H 761.829 -0.24242 -1.6796 0
M  V30 8022 H 760.601 -0.228165 -3.90634 0
M  V30 8023 H 760.224 1.47351 -3.69288 0
M  V30 8024 N 761.222 1.57436 0.0718424 0
M  V30 8025 C 762.447 1.91858 0.787745 0
M  V30 8026 C 762.872 0.798119 1.70328 0
M  V30 8027 O 762.23 -0.24905 1.79581 0
M  V30 8028 C 762.278 3.25232 1.55744 0
M  V30 8029 O 761.382 3.14462 2.6681 0
M  V30 8030 H 760.723 0.628258 0.214914 0
M  V30 8031 H 763.253 2.04561 0.0401012 0
M  V30 8032 H 763.263 3.59105 1.9367 0
M  V30 8033 H 761.938 4.0636 0.885691 0
M  V30 8034 H 760.515 2.92148 2.31741 0
M  V30 8035 N 762.7 -0.34323 1.53817 0
M  V30 8036 C 763.61 -1.44493 1.84821 0
M  V30 8037 C 764.626 -1.57556 0.738381 0
M  V30 8038 O 765.802 -1.73026 1.03072 0
M  V30 8039 C 762.867 -2.79478 2.05166 0
M  V30 8040 C 761.928 -2.75756 3.29025 0
M  V30 8041 C 761.161 -4.04302 3.4839 0
M  V30 8042 O 761.384 -5.01595 2.71586 0
M  V30 8043 O 760.318 -4.08754 4.41819 0
M  V30 8044 H 764.144 -1.21209 2.78464 0
M  V30 8045 H 761.729 -0.535437 1.39476 0
M  V30 8046 H 763.611 -3.59419 2.19991 0
M  V30 8047 H 762.286 -3.02692 1.14713 0
M  V30 8048 H 761.193 -1.94434 3.19603 0
M  V30 8049 H 762.526 -2.57495 4.19472 0
M  V30 8050 N 764.178 -1.45556 -0.604258 0
M  V30 8051 C 765.088 -1.57025 -1.74299 0
M  V30 8052 C 766.104 -0.45456 -1.67958 0
M  V30 8053 O 767.28 -0.715711 -1.88254 0
M  V30 8054 C 764.345 -1.53702 -3.10768 0
M  V30 8055 C 763.406 -2.76335 -3.28538 0
M  V30 8056 C 762.639 -2.73161 -4.58496 0
M  V30 8057 O 762.862 -1.80678 -5.41028 0
M  V30 8058 O 761.796 -3.64409 -4.79051 0
M  V30 8059 H 765.622 -2.53284 -1.67573 0
M  V30 8060 H 763.207 -1.28104 -0.768745 0
M  V30 8061 H 765.089 -1.54468 -3.92068 0
M  V30 8062 H 763.764 -0.605957 -3.17978 0
M  V30 8063 H 762.671 -2.8113 -2.46813 0
M  V30 8064 H 764.004 -3.68578 -3.26207 0
M  V30 8065 N 765.656 0.84705 -1.32902 0
M  V30 8066 C 766.933 1.58583 -1.14503 0
M  V30 8067 C 767.313 2.09075 0.291724 0
M  V30 8068 O 766.661 1.88636 1.28952 0
M  V30 8069 C 766.871 2.72605 -2.17916 0
M  V30 8070 C 768.219 3.41993 -2.51646 0
M  V30 8071 O 769.243 2.82838 -2.1652 0
M  V30 8072 O 768.102 4.48761 -3.1189 0
M  V30 8073 H 765.196 0.698756 -0.442345 0
M  V30 8074 H 767.742 0.890516 -1.44457 0
M  V30 8075 H 766.514 2.32876 -3.14459 0
M  V30 8076 H 766.137 3.49807 -1.89 0
M  V30 8077 N 767.134 1.16236 1.06428 0
M  V30 8078 C 768.364 0.965782 1.82637 0
M  V30 8079 C 768.772 -0.489284 1.82764 0
M  V30 8080 O 768.115 -1.35133 1.24438 0
M  V30 8081 C 768.177 1.41458 3.30499 0
M  V30 8082 C 767.841 2.88926 3.54077 0
M  V30 8083 C 768.838 3.86939 3.47238 0
M  V30 8084 C 766.523 3.26814 3.81442 0
M  V30 8085 C 768.517 5.20841 3.67428 0
M  V30 8086 C 766.204 4.60886 4.01282 0
M  V30 8087 C 767.202 5.57708 3.94272 0
M  V30 8088 O 766.89 6.89357 4.13573 0
M  V30 8089 H 766.622 0.342569 0.582772 0
M  V30 8090 H 769.176 1.54641 1.35187 0
M  V30 8091 H 767.406 0.777426 3.78805 0
M  V30 8092 H 769.095 1.18563 3.88198 0
M  V30 8093 H 769.861 3.59014 3.26089 0
M  V30 8094 H 765.74 2.5203 3.86008 0
M  V30 8095 H 769.284 5.96401 3.61873 0
M  V30 8096 H 765.181 4.88522 4.21921 0
M  V30 8097 H 765.949 6.95913 4.30869 0
M  V30 8098 N 768.612 -1.24939 0.960631 0
M  V30 8099 C 769.842 -1.96595 0.635123 0
M  V30 8100 C 770.25 -1.71538 -0.798206 0
M  V30 8101 O 769.593 -0.991727 -1.5463 0
M  V30 8102 C 769.655 -3.49994 0.821248 0
M  V30 8103 C 769.319 -3.98738 2.23287 0
M  V30 8104 C 770.316 -4.08965 3.21004 0
M  V30 8105 C 768.001 -4.32247 2.55867 0
M  V30 8106 C 769.995 -4.52025 4.49391 0
M  V30 8107 C 767.682 -4.74991 3.84482 0
M  V30 8108 C 768.68 -4.84844 4.81056 0
M  V30 8109 O 768.368 -5.26638 6.07378 0
M  V30 8110 H 768.1 -0.633265 0.23654 0
M  V30 8111 H 770.654 -1.5991 1.28911 0
M  V30 8112 H 768.884 -3.86543 0.110105 0
M  V30 8113 H 770.573 -4.02859 0.495892 0
M  V30 8114 H 771.339 -3.83302 2.97161 0
M  V30 8115 H 767.218 -4.23801 1.81421 0
M  V30 8116 H 770.762 -4.5963 5.24773 0
M  V30 8117 H 766.659 -5.00101 4.08129 0
M  V30 8118 H 767.427 -5.44807 6.10842 0
M  V30 8119 N 770.09 -0.729906 -1.39679 0
M  V30 8120 C 771.318 -0.285709 -2.04918 0
M  V30 8121 C 771.733 1.07765 -1.55023 0
M  V30 8122 O 771.09 1.67999 -0.712923 0
M  V30 8123 C 771.141 -0.272793 -3.60469 0
M  V30 8124 O 770.862 -1.58233 -4.08527 0
M  V30 8125 C 772.363 0.188199 -4.429 0
M  V30 8126 H 769.583 -0.125758 -0.65911 0
M  V30 8127 H 772.127 -0.992129 -1.78821 0
M  V30 8128 H 770.282 0.384699 -3.85485 0
M  V30 8129 H 770.696 -1.49245 -5.02818 0
M  V30 8130 H 772.17 0.14608 -5.51807 0
M  V30 8131 H 772.647 1.2326 -4.21549 0
M  V30 8132 H 773.253 -0.439541 -4.23023 0
M  V30 8133 N 771.568 1.50203 -0.477153 0
M  V30 8134 C 772.979 1.86685 -0.0235041 0
M  V30 8135 C 773.33 1.39148 1.38319 0
M  V30 8136 O 772.455 0.759051 2.02651 0
M  V30 8137 C 773.05 3.38781 -0.0358767 0
M  V30 8138 C 771.609 3.74652 0.362327 0
M  V30 8139 C 770.756 2.7412 -0.41875 0
M  V30 8140 H 773.707 1.4286 -0.691133 0
M  V30 8141 H 773.728 3.72732 0.764924 0
M  V30 8142 H 773.24 3.73349 -1.05981 0
M  V30 8143 H 771.341 3.45686 1.39039 0
M  V30 8144 H 771.454 4.79063 0.059457 0
M  V30 8145 H 769.818 2.54376 0.128341 0
M  V30 8146 H 770.601 3.11532 -1.44231 0
M  V30 8147 N 773.046 0.209999 1.56195 0
M  V30 8148 C 773.978 -0.736967 2.17029 0
M  V30 8149 C 774.991 -1.16599 1.13616 0
M  V30 8150 O 776.18 -1.09914 1.40646 0
M  V30 8151 C 773.28 -2.00852 2.72969 0
M  V30 8152 C 772.453 -1.73691 4.01435 0
M  V30 8153 C 771.512 -2.85439 4.42053 0
M  V30 8154 O 770.538 -2.54405 5.09183 0
M  V30 8155 N 771.74 -4.14135 4.06783 0
M  V30 8156 H 774.505 -0.216656 2.98916 0
M  V30 8157 H 772.066 0.0285672 1.61875 0
M  V30 8158 H 774.058 -2.74778 2.97118 0
M  V30 8159 H 772.628 -2.43963 1.95451 0
M  V30 8160 H 771.848 -0.834676 3.85262 0
M  V30 8161 H 773.136 -1.52961 4.85263 0
M  V30 8162 H 772.534 -4.42196 3.52816 0
M  V30 8163 H 771.091 -4.84642 4.35851 0
M  V30 8164 N 774.524 -1.57472 -0.0634922 0
M  V30 8165 C 775.471 -2.04258 -1.07457 0
M  V30 8166 C 776.441 -0.924804 -1.37973 0
M  V30 8167 O 777.626 -1.19305 -1.48899 0
M  V30 8168 C 774.766 -2.49832 -2.38071 0
M  V30 8169 C 773.879 -3.75263 -2.14014 0
M  V30 8170 C 773.014 -4.09585 -3.38251 0
M  V30 8171 C 772.053 -5.28032 -3.09594 0
M  V30 8172 N 771.19 -5.57953 -4.26185 0
M  V30 8173 H 776.03 -2.90402 -0.668626 0
M  V30 8174 H 773.567 -1.43609 -0.318572 0
M  V30 8175 H 775.525 -2.7431 -3.14341 0
M  V30 8176 H 774.155 -1.66654 -2.76453 0
M  V30 8177 H 773.207 -3.58075 -1.28399 0
M  V30 8178 H 774.519 -4.61667 -1.88852 0
M  V30 8179 H 773.673 -4.35008 -4.2291 0
M  V30 8180 H 772.412 -3.21765 -3.66495 0
M  V30 8181 H 771.417 -5.02397 -2.23332 0
M  V30 8182 H 772.642 -6.17477 -2.82663 0
M  V30 8183 H 770.588 -4.73092 -4.54445 0
M  V30 8184 H 770.505 -6.38793 -4.04326 0
M  V30 8185 H 771.773 -5.87931 -5.11817 0
M  V30 8186 N 776.003 0.335068 -1.53997 0
M  V30 8187 C 777.249 1.07594 -1.71905 0
M  V30 8188 C 777.582 1.88039 -0.485264 0
M  V30 8189 O 776.857 1.87482 0.517752 0
M  V30 8190 C 777.14 2.01016 -2.98772 0
M  V30 8191 C 776.993 1.23977 -4.32377 0
M  V30 8192 C 778.312 3.0071 -3.21343 0
M  V30 8193 H 775.431 0.38976 -0.625505 0
M  V30 8194 H 778.073 0.353684 -1.86679 0
M  V30 8195 H 776.223 2.62603 -2.86307 0
M  V30 8196 H 777.895 0.649383 -4.56706 0
M  V30 8197 H 776.138 0.541878 -4.30402 0
M  V30 8198 H 776.809 1.92512 -5.17342 0
M  V30 8199 H 779.285 2.4924 -3.33194 0
M  V30 8200 H 778.161 3.63272 -4.11491 0
M  V30 8201 H 778.422 3.72549 -2.38033 0
M  V30 8202 N 777.481 1.45874 0.596531 0
M  V30 8203 C 778.758 1.40942 1.35627 0
M  V30 8204 C 779.138 0.0857066 2.10926 0
M  V30 8205 O 778.486 -0.932544 2.08605 0
M  V30 8206 C 778.696 2.63027 2.29386 0
M  V30 8207 C 780.044 3.08588 2.91649 0
M  V30 8208 O 781.068 2.63478 2.39704 0
M  V30 8209 O 779.927 3.86902 3.85965 0
M  V30 8210 H 777.021 0.559838 0.608696 0
M  V30 8211 H 779.567 1.5802 0.618698 0
M  V30 8212 H 778.339 3.5094 1.7308 0
M  V30 8213 H 777.962 2.48338 3.10506 0
M  V30 8214 N 778.959 -0.83999 1.33349 0
M  V30 8215 C 780.205 -1.59753 1.24927 0
M  V30 8216 C 780.538 -1.93318 -0.184855 0
M  V30 8217 O 779.813 -1.586 -1.12589 0
M  V30 8218 C 780.096 -2.90829 2.12345 0
M  V30 8219 C 779.949 -2.63953 3.6421 0
M  V30 8220 C 781.268 -3.92246 1.99577 0
M  V30 8221 H 778.387 -0.579654 0.45516 0
M  V30 8222 H 781.029 -0.968909 1.63439 0
M  V30 8223 H 779.179 -3.44478 1.79631 0
M  V30 8224 H 780.851 -2.16745 4.07209 0
M  V30 8225 H 779.094 -1.97671 3.86146 0
M  V30 8226 H 779.765 -3.57348 4.20721 0
M  V30 8227 H 782.241 -3.479 2.28265 0
M  V30 8228 H 781.117 -4.81793 2.62996 0
M  V30 8229 H 781.378 -4.3138 0.967673 0
M  V30 8230 N 780.437 -1.16799 -1.0581 0
M  V30 8231 C 781.848 -0.95945 -1.60161 0
M  V30 8232 C 782.199 0.49543 -1.89842 0
M  V30 8233 O 781.324 1.36957 -1.67546 0
M  V30 8234 C 781.919 -1.73527 -2.90987 0
M  V30 8235 C 780.478 -1.57158 -3.42021 0
M  V30 8236 C 779.625 -1.74089 -2.15843 0
M  V30 8237 H 782.576 -1.31598 -0.886992 0
M  V30 8238 H 782.597 -1.21397 -3.60615 0
M  V30 8239 H 782.109 -2.79411 -2.69353 0
M  V30 8240 H 780.21 -0.537361 -3.68705 0
M  V30 8241 H 780.323 -2.35858 -4.17022 0
M  V30 8242 H 778.687 -1.16874 -2.26302 0
M  V30 8243 H 779.47 -2.81371 -1.96686 0
M  V30 8244 N 781.915 1.24427 -0.967243 0
M  V30 8245 C 782.862 2.25398 -0.496419 0
M  V30 8246 C 783.832 1.59667 0.457781 0
M  V30 8247 O 785.017 1.87213 0.368246 0
M  V30 8248 C 782.157 3.44474 0.207693 0
M  V30 8249 C 781.27 4.24804 -0.785221 0
M  V30 8250 C 780.405 5.31169 -0.0572631 0
M  V30 8251 C 779.444 6.03195 -1.04027 0
M  V30 8252 N 778.581 7.01265 -0.34235 0
M  V30 8253 H 783.421 2.65039 -1.36229 0
M  V30 8254 H 780.958 1.30288 -0.682902 0
M  V30 8255 H 782.916 4.12376 0.632612 0
M  V30 8256 H 781.546 3.05672 1.03752 0
M  V30 8257 H 780.598 3.56445 -1.32858 0
M  V30 8258 H 781.91 4.74599 -1.53483 0
M  V30 8259 H 781.064 6.05205 0.425674 0
M  V30 8260 H 779.803 4.8228 0.725047 0
M  V30 8261 H 778.808 5.27964 -1.53409 0
M  V30 8262 H 780.033 6.54173 -1.82302 0
M  V30 8263 H 777.979 6.54648 0.420993 0
M  V30 8264 H 777.896 7.48939 -1.03084 0
M  V30 8265 H 779.164 7.7941 0.118634 0
M  V30 8266 N 783.393 0.737304 1.3929 0
M  V30 8267 C 784.356 0.10731 2.28949 0
M  V30 8268 C 785.356 -0.664716 1.46418 0
M  V30 8269 O 786.546 -0.493392 1.67067 0
M  V30 8270 C 783.678 -0.857145 3.29948 0
M  V30 8271 H 784.871 0.89725 2.86163 0
M  V30 8272 H 782.424 0.503279 1.47976 0
M  V30 8273 H 783.159 -1.67336 2.77794 0
M  V30 8274 H 782.944 -0.306167 3.90903 0
M  V30 8275 H 784.434 -1.29444 3.97031 0
M  V30 8276 N 784.871 -1.49948 0.485112 0
M  V30 8277 C 785.801 -2.31675 -0.291364 0
M  V30 8278 C 786.782 -1.39216 -0.977383 0
M  V30 8279 O 787.967 -1.68133 -0.971855 0
M  V30 8280 C 785.097 -3.19326 -1.36558 0
M  V30 8281 C 784.051 -4.2045 -0.800359 0
M  V30 8282 C 783.377 -4.96931 -1.97391 0
M  V30 8283 C 784.677 -5.21925 0.197867 0
M  V30 8284 H 786.371 -2.96839 0.390775 0
M  V30 8285 H 783.917 -1.42749 0.189375 0
M  V30 8286 H 785.87 -3.75304 -1.91638 0
M  V30 8287 H 784.594 -2.52074 -2.07668 0
M  V30 8288 H 783.253 -3.65594 -0.271428 0
M  V30 8289 H 782.901 -4.26141 -2.67232 0
M  V30 8290 H 782.601 -5.65344 -1.60187 0
M  V30 8291 H 784.125 -5.55749 -2.52935 0
M  V30 8292 H 785.539 -5.72691 -0.264239 0
M  V30 8293 H 783.936 -5.98138 0.484908 0
M  V30 8294 H 785.006 -4.71809 1.11912 0
M  V30 8295 N 786.349 -0.21828 -1.56081 0
M  V30 8296 C 787.598 0.414644 -1.97392 0
M  V30 8297 C 787.911 1.61132 -1.10887 0
M  V30 8298 O 789.117 2.31355 -1.42082 0
M  V30 8299 C 787.573 0.789099 -3.51143 0
M  V30 8300 C 787.181 -0.384578 -4.46346 0
M  V30 8301 C 788.925 1.38781 -4.01173 0
M  V30 8302 C 786.832 0.0121288 -5.91399 0
M  V30 8303 H 785.762 0.158691 -0.737111 0
M  V30 8304 H 788.413 -0.313974 -1.80794 0
M  V30 8305 H 786.795 1.57505 -3.6333 0
M  V30 8306 H 787.969 -1.16212 -4.45905 0
M  V30 8307 H 786.284 -0.896306 -4.06639 0
M  V30 8308 H 788.881 1.69746 -5.07041 0
M  V30 8309 H 789.224 2.30245 -3.46833 0
M  V30 8310 H 789.757 0.665364 -3.92196 0
M  V30 8311 H 786.496 -0.868917 -6.49715 0
M  V30 8312 H 786.016 0.754053 -5.95041 0
M  V30 8313 H 787.695 0.439949 -6.45502 0
M  V30 8314 N 787.827 1.57504 0.0551401 0
M  V30 8315 C 789.076 1.87237 0.750009 0
M  V30 8316 C 789.389 0.813268 1.77891 0
M  V30 8317 O 790.595 0.99898 2.52453 0
M  V30 8318 C 789.051 3.32187 1.38491 0
M  V30 8319 C 788.659 4.46267 0.393707 0
M  V30 8320 C 790.403 3.71101 2.06117 0
M  V30 8321 C 788.31 5.82265 1.03547 0
M  V30 8322 H 787.24 0.698524 0.283866 0
M  V30 8323 H 789.891 1.835 0.00365997 0
M  V30 8324 H 788.273 3.30588 2.18008 0
M  V30 8325 H 789.447 4.59289 -0.372865 0
M  V30 8326 H 787.762 4.16015 -0.17902 0
M  V30 8327 H 790.359 4.70012 2.54937 0
M  V30 8328 H 790.702 3.01751 2.86796 0
M  V30 8329 H 791.235 3.74762 1.33409 0
M  V30 8330 H 787.974 6.54949 0.268644 0
M  V30 8331 H 787.494 5.73012 1.7725 0
M  V30 8332 H 789.173 6.28148 1.55047 0
M  V30 8333 N 789.305 -0.326896 1.54172 0
M  V30 8334 C 790.551 -1.06681 1.72473 0
M  V30 8335 C 790.884 -1.87779 0.49523 0
M  V30 8336 O 790.159 -1.87754 -0.507803 0
M  V30 8337 C 790.442 -1.99429 2.99834 0
M  V30 8338 C 790.295 -1.21682 4.33028 0
M  V30 8339 C 791.614 -2.99002 3.22933 0
M  V30 8340 H 788.733 -0.386438 0.627563 0
M  V30 8341 H 791.375 -0.343779 1.86864 0
M  V30 8342 H 789.525 -2.61081 2.87696 0
M  V30 8343 H 791.197 -0.625153 4.57044 0
M  V30 8344 H 789.44 -0.519045 4.30684 0
M  V30 8345 H 790.111 -1.89766 5.18356 0
M  V30 8346 H 792.587 -2.4747 3.34511 0
M  V30 8347 H 791.463 -3.61085 4.13412 0
M  V30 8348 H 791.724 -3.71281 2.40006 0
M  V30 8349 N 790.784 -1.46188 -0.588786 0
M  V30 8350 C 791.747 -1.55882 -1.68029 0
M  V30 8351 C 792.747 -0.436515 -1.54762 0
M  V30 8352 O 793.937 -0.700626 -1.59489 0
M  V30 8353 C 791.069 -1.47332 -3.07418 0
M  V30 8354 H 792.262 -2.5315 -1.60795 0
M  V30 8355 H 789.815 -1.33908 -0.806116 0
M  V30 8356 H 790.55 -0.513193 -3.20214 0
M  V30 8357 H 790.335 -2.28753 -3.18456 0
M  V30 8358 H 791.825 -1.57187 -3.86887 0
M  V30 8359 N 792.262 0.832906 -1.33792 0
M  V30 8360 C 793.508 1.59089 -1.25772 0
M  V30 8361 C 793.841 1.93414 0.174601 0
M  V30 8362 O 793.116 1.59195 1.11746 0
M  V30 8363 C 793.399 2.89699 -2.13885 0
M  V30 8364 C 793.252 2.62017 -3.65605 0
M  V30 8365 C 794.571 3.91182 -2.01654 0
M  V30 8366 H 791.69 0.577232 -0.458227 0
M  V30 8367 H 794.332 0.960227 -1.6395 0
M  V30 8368 H 792.482 3.4352 -1.81456 0
M  V30 8369 H 794.154 2.14582 -4.08353 0
M  V30 8370 H 792.397 1.95621 -3.87189 0
M  V30 8371 H 793.068 3.55112 -4.2261 0
M  V30 8372 H 795.544 3.46684 -2.30107 0
M  V30 8373 H 794.42 4.80391 -2.65548 0
M  V30 8374 H 794.681 4.30861 -0.990536 0
M  V30 8375 N 793.74 1.17359 1.05189 0
M  V30 8376 C 794.672 0.848078 2.12933 0
M  V30 8377 C 795.685 -0.149521 1.62112 0
M  V30 8378 O 796.874 0.0767797 1.78335 0
M  V30 8379 C 793.974 0.243889 3.38021 0
M  V30 8380 C 793.147 1.28436 4.18118 0
M  V30 8381 C 792.206 0.697926 5.21551 0
M  V30 8382 O 791.232 1.36973 5.52473 0
M  V30 8383 N 792.434 -0.510024 5.78255 0
M  V30 8384 H 795.199 1.7754 2.41453 0
M  V30 8385 H 792.76 1.07244 1.21286 0
M  V30 8386 H 794.752 -0.161727 4.04377 0
M  V30 8387 H 793.322 -0.58722 3.07035 0
M  V30 8388 H 792.542 1.86573 3.47252 0
M  V30 8389 H 793.83 1.98617 4.68432 0
M  V30 8390 H 793.228 -1.07378 5.55416 0
M  V30 8391 H 791.785 -0.857705 6.46132 0
M  V30 8392 N 795.218 -1.23913 0.973828 0
M  V30 8393 C 796.458 -1.93889 0.647015 0
M  V30 8394 C 796.822 -1.74368 -0.803735 0
M  V30 8395 O 798.023 -2.38435 -1.24106 0
M  V30 8396 C 796.294 -3.4257 1.01885 0
M  V30 8397 S 797.853 -4.31306 0.807517 0
M  V30 8398 H 794.671 -0.670279 0.237165 0
M  V30 8399 H 797.273 -1.50144 1.25208 0
M  V30 8400 H 795.977 -3.54286 2.07146 0
M  V30 8401 H 795.508 -3.91312 0.404812 0
M  V30 8402 H 797.523 -4.95218 -0.311986 0
M  V30 8403 N 796.696 -0.74468 -1.38897 0
M  V30 8404 C 797.944 -0.296298 -1.99916 0
M  V30 8405 C 798.265 1.12325 -1.59399 0
M  V30 8406 O 797.535 1.76658 -0.846689 0
M  V30 8407 H 796.115 -0.106561 -0.73936 0
M  V30 8408 H 798.777 -0.956793 -1.69798 0
M  V30 8409 H 797.873 -0.352356 -3.10105 0
M  V30 8410 N 798.174 1.49689 -0.493057 0
M  V30 8411 C 799.414 2.04332 0.0527374 0
M  V30 8412 C 799.778 1.36522 1.35003 0
M  V30 8413 O 800.979 1.81842 1.97957 0
M  V30 8414 C 799.25 3.56782 0.210044 0
M  V30 8415 S 800.809 4.32998 0.711232 0
M  V30 8416 H 797.627 0.710978 0.00554853 0
M  V30 8417 H 800.229 1.83835 -0.665213 0
M  V30 8418 H 798.933 4.03681 -0.739566 0
M  V30 8419 H 798.464 3.81671 0.953468 0
M  V30 8420 H 800.479 4.54916 1.98156 0
M  V30 8421 N 799.652 0.226554 1.55963 0
M  V30 8422 C 800.929 -0.453058 1.90281 0
M  V30 8423 C 801.309 -1.77377 1.14458 0
M  V30 8424 O 800.657 -2.27067 0.255496 0
M  V30 8425 C 800.867 -0.641108 3.43061 0
M  V30 8426 C 802.215 -0.946265 4.13921 0
M  V30 8427 O 803.239 -0.727713 3.48687 0
M  V30 8428 O 802.098 -1.36131 5.29274 0
M  V30 8429 H 799.192 -0.240242 0.791336 0
M  V30 8430 H 801.738 0.26911 1.67553 0
M  V30 8431 H 800.51 0.290283 3.90222 0
M  V30 8432 H 800.133 -1.41458 3.71585 0
M  V30 8433 N 801.13 -1.57531 -0.0467866 0
M  V30 8434 C 802.378 -1.88078 -0.739656 0
M  V30 8435 C 802.699 -0.821936 -1.76831 0
M  V30 8436 O 801.969 0.146582 -1.95351 0
M  V30 8437 H 800.549 -0.694075 -0.276169 0
M  V30 8438 H 803.211 -1.94893 -0.0169391 0
M  V30 8439 H 802.307 -2.86396 -1.24031 0
M  V30 8440 N 802.608 0.318715 -1.54344 0
M  V30 8441 C 803.836 1.0755 -1.7675 0
M  V30 8442 C 804.251 1.81543 -0.518422 0
M  V30 8443 O 803.608 1.75198 0.511078 0
M  V30 8444 C 803.659 2.06983 -2.96378 0
M  V30 8445 O 803.38 1.35995 -4.16458 0
M  V30 8446 C 804.881 2.94841 -3.31034 0
M  V30 8447 H 802.101 0.319711 -0.589937 0
M  V30 8448 H 804.645 0.363369 -2.01246 0
M  V30 8449 H 802.8 2.73724 -2.74142 0
M  V30 8450 H 803.214 2.02623 -4.83781 0
M  V30 8451 H 804.688 3.60496 -4.18027 0
M  V30 8452 H 805.165 3.62199 -2.48412 0
M  V30 8453 H 805.771 2.33656 -3.55366 0
M  V30 8454 N 804.086 1.46499 0.581025 0
M  V30 8455 C 805.333 1.51896 1.33918 0
M  V30 8456 C 805.661 0.171361 1.93744 0
M  V30 8457 O 804.916 -0.833178 1.77078 0
M  V30 8458 C 805.215 2.56686 2.48691 0
M  V30 8459 C 804.881 4.00656 2.06847 0
M  V30 8460 C 803.543 4.39852 1.9515 0
M  V30 8461 C 805.895 4.91089 1.74589 0
M  V30 8462 C 803.223 5.67345 1.49456 0
M  V30 8463 C 805.575 6.1902 1.30373 0
M  V30 8464 C 804.239 6.57121 1.17255 0
M  V30 8465 H 803.509 0.555826 0.490039 0
M  V30 8466 H 806.156 1.79983 0.654092 0
M  V30 8467 H 804.461 2.22266 3.22653 0
M  V30 8468 H 806.158 2.58091 3.06904 0
M  V30 8469 H 802.748 3.69674 2.16886 0
M  V30 8470 H 806.932 4.61523 1.8251 0
M  V30 8471 H 802.188 5.95635 1.37944 0
M  V30 8472 H 806.362 6.8852 1.04467 0
M  V30 8473 H 803.989 7.55805 0.816236 0
M  V30 8474 N 805.565 -0.825799 1.34232 0
M  V30 8475 C 806.495 -1.95151 1.28212 0
M  V30 8476 C 807.476 -1.69345 0.160123 0
M  V30 8477 O 808.661 -1.90983 0.352019 0
M  V30 8478 C 805.791 -3.31554 1.03388 0
M  V30 8479 C 804.745 -3.71793 2.12023 0
M  V30 8480 C 804.071 -5.06147 1.72392 0
M  V30 8481 C 805.371 -3.84193 3.53826 0
M  V30 8482 H 807.065 -2.00445 2.22401 0
M  V30 8483 H 804.611 -0.962996 1.07063 0
M  V30 8484 H 806.564 -4.09889 0.978225 0
M  V30 8485 H 805.288 -3.26551 0.0564142 0
M  V30 8486 H 803.947 -2.95731 2.16654 0
M  V30 8487 H 803.595 -4.97628 0.733137 0
M  V30 8488 H 803.295 -5.34041 2.451 0
M  V30 8489 H 804.819 -5.86943 1.68317 0
M  V30 8490 H 806.233 -4.52806 3.51624 0
M  V30 8491 H 804.63 -4.23538 4.2513 0
M  V30 8492 H 805.7 -2.86272 3.91377 0
M  V30 8493 N 807.043 -1.17915 -1.04565 0
M  V30 8494 C 807.973 -0.925033 -2.14395 0
M  V30 8495 C 808.954 0.135375 -1.6956 0
M  V30 8496 O 810.139 -0.0161774 -1.94193 0
M  V30 8497 C 807.269 -0.444469 -3.44444 0
M  V30 8498 C 806.223 -1.44478 -4.02877 0
M  V30 8499 C 805.549 -0.821933 -5.28345 0
M  V30 8500 C 806.849 -2.81995 -4.39632 0
M  V30 8501 H 808.543 -1.84354 -2.35911 0
M  V30 8502 H 806.089 -0.887806 -1.13375 0
M  V30 8503 H 808.042 -0.254078 -4.20633 0
M  V30 8504 H 806.766 0.509592 -3.226 0
M  V30 8505 H 805.425 -1.62203 -3.28764 0
M  V30 8506 H 805.073 0.139161 -5.02807 0
M  V30 8507 H 804.773 -1.48976 -5.68401 0
M  V30 8508 H 806.297 -0.641959 -6.07216 0
M  V30 8509 H 807.711 -2.67952 -5.06828 0
M  V30 8510 H 806.108 -3.45414 -4.90723 0
M  V30 8511 H 807.178 -3.35927 -3.49687 0
M  V30 8512 N 808.521 1.23394 -0.980386 0
M  V30 8513 C 809.749 1.95844 -0.667286 0
M  V30 8514 C 810.164 1.72574 0.765735 0
M  V30 8515 O 809.521 1.01715 1.51526 0
M  V30 8516 C 809.572 3.48844 -0.948151 0
M  V30 8517 O 809.293 3.71325 -2.32485 0
M  V30 8518 C 810.794 4.38494 -0.651002 0
M  V30 8519 H 808.014 0.623535 -0.247882 0
M  V30 8520 H 810.558 1.56885 -1.31176 0
M  V30 8521 H 808.713 3.85819 -0.349681 0
M  V30 8522 H 809.127 4.65619 -2.41452 0
M  V30 8523 H 810.601 5.44648 -0.897887 0
M  V30 8524 H 811.078 4.37236 0.414922 0
M  V30 8525 H 811.684 4.07127 -1.22995 0
M  V30 8526 N 809.999 0.752036 1.385 0
M  V30 8527 C 810.931 0.0835089 2.29048 0
M  V30 8528 C 811.944 -0.685402 1.47669 0
M  V30 8529 O 813.133 -0.526748 1.70551 0
M  V30 8530 C 810.233 -0.905772 3.26572 0
M  V30 8531 C 809.406 -0.194828 4.36966 0
M  V30 8532 C 808.465 -1.09464 5.14688 0
M  V30 8533 O 807.491 -0.565743 5.66381 0
M  V30 8534 N 808.693 -2.42287 5.2752 0
M  V30 8535 H 811.458 0.861142 2.87062 0
M  V30 8536 H 809.019 0.602689 1.50264 0
M  V30 8537 H 811.011 -1.51072 3.75446 0
M  V30 8538 H 809.581 -1.58449 2.69467 0
M  V30 8539 H 808.801 0.590812 3.89747 0
M  V30 8540 H 810.089 0.297189 5.07931 0
M  V30 8541 H 809.487 -2.87715 4.8707 0
M  V30 8542 H 808.044 -2.97836 5.79773 0
M  V30 8543 N 811.477 -1.49425 0.500989 0
M  V30 8544 C 812.702 -2.07356 -0.0425154 0
M  V30 8545 C 813.127 -1.35887 -1.30063 0
M  V30 8546 O 812.485 -0.41561 -1.76472 0
M  V30 8547 C 812.533 -3.59518 -0.279188 0
M  V30 8548 O 811.637 -3.89542 -1.3539 0
M  V30 8549 H 810.978 -0.663482 0.0262207 0
M  V30 8550 H 813.508 -1.92231 0.700607 0
M  V30 8551 H 813.518 -4.04791 -0.5107 0
M  V30 8552 H 812.193 -4.10946 0.640009 0
M  V30 8553 H 810.77 -3.56079 -1.10734 0
M  V30 8554 N 812.955 -0.234822 -1.55841 0
M  V30 8555 C 814.203 0.392483 -1.98252 0
M  V30 8556 C 814.524 1.59344 -1.12404 0
M  V30 8557 O 813.794 1.94834 -0.204055 0
M  V30 8558 H 812.374 0.147999 -0.732192 0
M  V30 8559 H 815.036 -0.330804 -1.92072 0
M  V30 8560 H 814.132 0.709829 -3.03921 0
M  V30 8561 N 814.433 1.57553 0.0384317 0
M  V30 8562 C 815.38 2.05942 1.04194 0
M  V30 8563 C 816.35 0.946637 1.36484 0
M  V30 8564 O 817.535 1.21658 1.46983 0
M  V30 8565 C 814.675 2.53588 2.34066 0
M  V30 8566 C 813.788 3.7862 2.08017 0
M  V30 8567 C 812.923 4.14915 3.31692 0
M  V30 8568 C 811.962 5.32891 3.01155 0
M  V30 8569 N 811.099 5.64662 4.17254 0
M  V30 8570 H 815.939 2.91429 0.622341 0
M  V30 8571 H 813.476 1.44098 0.295684 0
M  V30 8572 H 815.434 2.79276 3.09937 0
M  V30 8573 H 814.064 1.71031 2.73767 0
M  V30 8574 H 813.116 3.60073 1.22686 0
M  V30 8575 H 814.428 4.64613 1.81484 0
M  V30 8576 H 813.582 4.41681 4.15936 0
M  V30 8577 H 812.321 3.27555 3.6133 0
M  V30 8578 H 811.326 5.05887 2.15311 0
M  V30 8579 H 812.551 6.21896 2.72804 0
M  V30 8580 H 810.497 4.80261 4.46861 0
M  V30 8581 H 810.414 6.45145 3.94112 0
M  V30 8582 H 811.682 5.96 5.02399 0
M  V30 8583 N 815.911 -0.310526 1.54511 0
M  V30 8584 C 817.157 -1.04846 1.73595 0
M  V30 8585 C 817.49 -1.87244 0.515118 0
M  V30 8586 O 816.765 -1.88282 -0.48786 0
M  V30 8587 C 817.048 -1.96237 3.01932 0
M  V30 8588 C 816.901 -1.17082 4.34295 0
M  V30 8589 C 818.22 -2.9556 3.26086 0
M  V30 8590 H 815.339 -0.37976 0.631626 0
M  V30 8591 H 817.981 -0.32394 1.87218 0
M  V30 8592 H 816.131 -2.58015 2.90449 0
M  V30 8593 H 817.803 -0.576643 4.57682 0
M  V30 8594 H 816.046 -0.473336 4.3121 0
M  V30 8595 H 816.717 -1.84257 5.20339 0
M  V30 8596 H 819.193 -2.43908 3.37117 0
M  V30 8597 H 818.069 -3.5668 4.17218 0
M  V30 8598 H 818.33 -3.68715 2.4393 0
M  V30 8599 N 817.389 -1.46805 -0.573248 0
M  V30 8600 C 818.319 -1.60951 -1.69165 0
M  V30 8601 C 819.3 -0.45948 -1.63777 0
M  V30 8602 O 820.485 -0.68688 -1.81647 0
M  V30 8603 C 817.615 -1.60844 -3.07809 0
M  V30 8604 C 816.569 -2.74913 -3.28035 0
M  V30 8605 C 815.895 -2.59871 -4.67302 0
M  V30 8606 C 817.195 -4.16654 -3.14955 0
M  V30 8607 H 818.889 -2.54574 -1.57582 0
M  V30 8608 H 816.435 -1.22516 -0.756686 0
M  V30 8609 H 818.388 -1.69334 -3.85881 0
M  V30 8610 H 817.112 -0.637714 -3.20314 0
M  V30 8611 H 815.771 -2.65908 -2.52366 0
M  V30 8612 H 815.419 -1.60861 -4.76585 0
M  V30 8613 H 815.119 -3.36386 -4.81786 0
M  V30 8614 H 816.643 -2.70265 -5.4753 0
M  V30 8615 H 818.057 -4.26721 -3.82861 0
M  V30 8616 H 816.454 -4.93831 -3.40956 0
M  V30 8617 H 817.524 -4.36146 -2.11908 0
M  V30 8618 N 818.867 0.818669 -1.34668 0
M  V30 8619 C 819.83 1.9114 -1.26483 0
M  V30 8620 C 820.83 1.598 -0.179044 0
M  V30 8621 O 822.02 1.6876 -0.431952 0
M  V30 8622 C 819.152 3.27285 -0.95381 0
M  V30 8623 H 820.345 1.9982 -2.23634 0
M  V30 8624 H 817.898 1.01314 -1.19018 0
M  V30 8625 H 818.633 3.24297 0.0143428 0
M  V30 8626 H 818.418 3.51416 -1.73924 0
M  V30 8627 H 819.908 4.07299 -0.921827 0
M  V30 8628 N 820.346 1.18468 1.03938 0
M  V30 8629 C 821.586 0.991823 1.78724 0
M  V30 8630 C 821.95 -0.470115 1.86156 0
M  V30 8631 O 823.151 -0.782451 2.5716 0
M  V30 8632 C 821.422 1.63018 3.18056 0
M  V30 8633 S 822.981 1.58527 4.09163 0
M  V30 8634 H 819.799 0.356137 0.615376 0
M  V30 8635 H 822.401 1.50634 1.24618 0
M  V30 8636 H 821.105 2.68642 3.10258 0
M  V30 8637 H 820.636 1.11601 3.77238 0
M  V30 8638 H 822.651 0.602059 4.92534 0
M  V30 8639 N 821.824 -1.22873 0.986916 0
M  V30 8640 C 823.072 -1.91084 0.658121 0
M  V30 8641 C 823.393 -1.77304 -0.811675 0
M  V30 8642 O 822.663 -1.15649 -1.58121 0
M  V30 8643 H 821.243 -0.707251 0.240427 0
M  V30 8644 H 823.905 -1.49357 1.25213 0
M  V30 8645 H 823.001 -2.98373 0.915428 0
M  V30 8646 N 823.302 -0.75937 -1.38099 0
M  V30 8647 C 824.232 -0.151077 -2.33011 0
M  V30 8648 C 825.213 0.697099 -1.5516 0
M  V30 8649 O 826.398 0.637101 -1.83452 0
M  V30 8650 C 823.528 0.738423 -3.39359 0
M  V30 8651 C 822.482 -0.0074741 -4.27999 0
M  V30 8652 C 821.808 1.00066 -5.25253 0
M  V30 8653 C 823.108 -1.17926 -5.08813 0
M  V30 8654 H 824.802 -0.943933 -2.84131 0
M  V30 8655 H 822.348 -0.455362 -1.36611 0
M  V30 8656 H 824.301 1.17369 -4.04725 0
M  V30 8657 H 823.025 1.56366 -2.86735 0
M  V30 8658 H 821.684 -0.423379 -3.64147 0
M  V30 8659 H 821.332 1.82012 -4.68914 0
M  V30 8660 H 821.032 0.506199 -5.85416 0
M  V30 8661 H 822.556 1.43512 -5.93495 0
M  V30 8662 H 823.97 -0.821262 -5.67387 0
M  V30 8663 H 822.367 -1.60497 -5.78239 0
M  V30 8664 H 823.437 -1.98938 -4.42212 0
M  V30 8665 N 824.78 1.49157 -0.508906 0
M  V30 8666 C 825.728 2.30922 0.278906 0
M  V30 8667 C 826.722 1.39889 0.955382 0
M  V30 8668 O 827.928 1.56901 0.882169 0
M  V30 8669 H 824.303 0.744087 0.108805 0
M  V30 8670 H 826.274 2.95277 -0.430583 0
M  V30 8671 C 825.023 3.21432 1.32576 0
M  V30 8672 H 824.346 3.91413 0.814634 0
M  V30 8673 H 825.786 3.81568 1.84882 0
M  V30 8674 C 824.245 2.41583 2.34817 0
M  V30 8675 O 824.775 2.1256 3.40854 0
M  V30 8676 N 822.981 2.03462 2.07489 0
M  V30 8677 H 822.528 2.27265 1.21278 0
M  V30 8678 H 822.486 1.50345 2.76123 0
M  V30 8679 N 826.258 0.243083 1.55714 0
M  V30 8680 C 827.168 -0.668913 2.24862 0
M  V30 8681 C 828.184 -1.19638 1.26344 0
M  V30 8682 O 829.36 -1.23345 1.5921 0
M  V30 8683 C 826.425 -1.85084 2.93163 0
M  V30 8684 C 825.486 -1.36323 4.07081 0
M  V30 8685 C 824.719 -2.48882 4.72116 0
M  V30 8686 O 824.942 -3.67523 4.36214 0
M  V30 8687 O 823.876 -2.18857 5.60701 0
M  V30 8688 H 827.702 -0.109737 3.03502 0
M  V30 8689 H 825.287 0.0117411 1.49395 0
M  V30 8690 H 827.169 -2.54065 3.36197 0
M  V30 8691 H 825.844 -2.39771 2.17466 0
M  V30 8692 H 824.751 -0.640804 3.68571 0
M  V30 8693 H 826.084 -0.86249 4.84584 0
M  V30 8694 N 827.736 -1.57571 -0.0300757 0
M  V30 8695 C 828.983 -1.89226 -0.721091 0
M  V30 8696 C 829.311 -0.840244 -1.75414 0
M  V30 8697 O 828.566 0.158906 -1.95054 0
M  V30 8698 C 828.865 -3.27624 -1.42818 0
M  V30 8699 C 828.531 -4.4776 -0.531208 0
M  V30 8700 C 827.193 -4.8036 -0.28415 0
M  V30 8701 C 829.545 -5.21125 0.0881582 0
M  V30 8702 C 826.873 -5.83715 0.591065 0
M  V30 8703 C 829.225 -6.2541 0.95107 0
M  V30 8704 C 827.889 -6.56486 1.2076 0
M  V30 8705 H 827.159 -0.692428 -0.263866 0
M  V30 8706 H 829.806 -1.91491 0.0189874 0
M  V30 8707 H 828.111 -3.21343 -2.24155 0
M  V30 8708 H 829.808 -3.49365 -1.96838 0
M  V30 8709 H 826.398 -4.2227 -0.73392 0
M  V30 8710 H 830.582 -4.96219 -0.0897496 0
M  V30 8711 H 825.838 -6.06168 0.798132 0
M  V30 8712 H 830.012 -6.81402 1.43751 0
M  V30 8713 H 827.639 -7.36395 1.88751 0
M  V30 8714 N 829.214 0.302327 -1.54673 0
M  V30 8715 C 830.162 1.39286 -1.86285 0
M  V30 8716 C 831.156 1.52553 -0.736478 0
M  V30 8717 O 832.362 1.54686 -0.92045 0
M  V30 8718 H 828.737 0.465228 -0.590819 0
M  V30 8719 H 830.708 1.09859 -2.77441 0
M  V30 8720 C 829.457 2.75155 -2.12567 0
M  V30 8721 H 828.78 2.65728 -2.98712 0
M  V30 8722 H 830.22 3.50476 -2.38627 0
M  V30 8723 C 828.679 3.23987 -0.923813 0
M  V30 8724 O 829.209 4.01443 -0.143649 0
M  V30 8725 N 827.415 2.81293 -0.72956 0
M  V30 8726 H 826.962 2.18421 -1.36565 0
M  V30 8727 H 826.92 3.14315 0.0730351 0
M  V30 8728 N 830.692 1.47107 0.565454 0
M  V30 8729 C 831.639 1.58974 1.6732 0
M  V30 8730 C 832.609 0.433146 1.60353 0
M  V30 8731 O 833.794 0.652141 1.79309 0
M  V30 8732 C 830.934 1.60224 3.05651 0
M  V30 8733 C 830.047 2.86741 3.23116 0
M  V30 8734 C 829.182 2.79381 4.51796 0
M  V30 8735 C 828.221 4.0076 4.62664 0
M  V30 8736 N 827.358 3.91685 5.8269 0
M  V30 8737 H 832.198 2.53588 1.56515 0
M  V30 8738 H 829.735 1.25791 0.762558 0
M  V30 8739 H 831.693 1.58933 3.85741 0
M  V30 8740 H 830.323 0.691285 3.15311 0
M  V30 8741 H 829.375 2.97936 2.36513 0
M  V30 8742 H 830.687 3.7665 3.27011 0
M  V30 8743 H 829.841 2.76293 5.40136 0
M  V30 8744 H 828.58 1.87142 4.50366 0
M  V30 8745 H 827.585 4.04162 3.72738 0
M  V30 8746 H 828.81 4.94117 4.6586 0
M  V30 8747 H 826.756 3.02243 5.82224 0
M  V30 8748 H 826.673 4.75264 5.87929 0
M  V30 8749 H 827.941 3.92599 6.73414 0
M  V30 8750 N 832.17 -0.811516 1.35101 0
M  V30 8751 C 833.1 -1.9378 1.30275 0
M  V30 8752 C 834.081 -1.69165 0.178075 0
M  V30 8753 O 835.266 -1.90599 0.372256 0
M  V30 8754 C 832.396 -3.30439 1.06899 0
M  V30 8755 C 831.35 -3.69523 2.15955 0
M  V30 8756 C 830.676 -5.0429 1.77751 0
M  V30 8757 C 831.976 -3.80419 3.57881 0
M  V30 8758 H 833.67 -1.98075 2.24514 0
M  V30 8759 H 831.216 -0.951586 1.08078 0
M  V30 8760 H 833.169 -4.08828 1.02164 0
M  V30 8761 H 831.893 -3.26473 0.0910462 0
M  V30 8762 H 830.552 -2.93416 2.19778 0
M  V30 8763 H 830.2 -4.96823 0.785876 0
M  V30 8764 H 829.9 -5.31411 2.5075 0
M  V30 8765 H 831.424 -5.85125 1.74533 0
M  V30 8766 H 832.838 -4.49051 3.56407 0
M  V30 8767 H 831.235 -4.19005 4.29598 0
M  V30 8768 H 832.305 -2.82105 3.94391 0
M  V30 8769 N 833.648 -1.19017 -1.03309 0
M  V30 8770 C 834.896 -0.988258 -1.76289 0
M  V30 8771 C 835.217 0.482557 -1.88935 0
M  V30 8772 O 834.487 1.34969 -1.41987 0
M  V30 8773 H 833.067 -0.36267 -0.653054 0
M  V30 8774 H 835.729 -1.49836 -1.2464 0
M  V30 8775 H 834.825 -1.43273 -2.77271 0
M  V30 8776 N 835.127 1.22348 -0.993418 0
M  V30 8777 C 836.057 2.26584 -0.564088 0
M  V30 8778 C 837.038 1.65102 0.409298 0
M  V30 8779 O 838.223 1.91872 0.299819 0
M  V30 8780 C 835.353 3.47087 0.121554 0
M  V30 8781 C 834.307 4.21009 -0.770429 0
M  V30 8782 C 833.633 5.34678 0.0481586 0
M  V30 8783 C 834.933 4.79636 -2.06752 0
M  V30 8784 H 836.627 2.62749 -1.43538 0
M  V30 8785 H 834.173 1.26303 -0.691628 0
M  V30 8786 H 836.126 4.19166 0.433303 0
M  V30 8787 H 834.85 3.1002 1.0274 0
M  V30 8788 H 833.509 3.50764 -1.06583 0
M  V30 8789 H 833.157 4.93852 0.954933 0
M  V30 8790 H 832.857 5.85061 -0.545641 0
M  V30 8791 H 834.381 6.09573 0.353991 0
M  V30 8792 H 835.795 5.43654 -1.81969 0
M  V30 8793 H 834.192 5.4036 -2.61019 0
M  V30 8794 H 835.262 3.99659 -2.74592 0
M  V30 8795 N 836.605 0.766683 1.37694 0
M  V30 8796 C 837.553 0.137269 2.32195 0
M  V30 8797 C 838.547 -0.69067 1.54681 0
M  V30 8798 O 839.753 -0.588299 1.70115 0
M  V30 8799 H 836.128 0.0256003 0.751564 0
M  V30 8800 H 838.099 0.950129 2.82869 0
M  V30 8801 C 836.848 -0.731446 3.39919 0
M  V30 8802 H 836.171 -0.103738 3.99665 0
M  V30 8803 H 837.611 -1.13891 4.08417 0
M  V30 8804 C 836.07 -1.87984 2.79578 0
M  V30 8805 O 836.6 -2.97496 2.69924 0
M  V30 8806 N 834.806 -1.6789 2.37195 0
M  V30 8807 H 834.353 -0.788162 2.45246 0
M  V30 8808 H 834.311 -2.44894 1.97165 0
M  V30 8809 N 838.083 -1.48885 0.516809 0
M  V30 8810 C 839.015 -2.27357 -0.290061 0
M  V30 8811 C 840.028 -1.34558 -0.916406 0
M  V30 8812 O 841.217 -1.59715 -0.797073 0
M  V30 8813 C 838.317 -3.07496 -1.42476 0
M  V30 8814 C 837.49 -4.27982 -0.902793 0
M  V30 8815 C 836.549 -4.90038 -1.91701 0
M  V30 8816 O 835.575 -5.49643 -1.47922 0
M  V30 8817 N 836.777 -4.811 -3.24843 0
M  V30 8818 H 839.542 -2.97244 0.382884 0
M  V30 8819 H 837.103 -1.58064 0.35032 0
M  V30 8820 H 839.095 -3.45882 -2.10113 0
M  V30 8821 H 837.665 -2.40115 -2.00159 0
M  V30 8822 H 836.885 -3.94167 -0.0508272 0
M  V30 8823 H 838.173 -5.06003 -0.532723 0
M  V30 8824 H 837.571 -4.33801 -3.63088 0
M  V30 8825 H 836.128 -5.23625 -3.8815 0
M  V30 8826 N 839.561 -0.251338 -1.55583 0
M  V30 8827 C 840.801 0.373651 -2.00956 0
M  V30 8828 C 841.165 1.54806 -1.13574 0
M  V30 8829 O 842.366 2.24108 -1.48422 0
M  V30 8830 C 840.637 0.768919 -3.49031 0
M  V30 8831 S 842.196 1.38381 -4.16409 0
M  V30 8832 H 839.014 0.117371 -0.701245 0
M  V30 8833 H 841.616 -0.367611 -1.92013 0
M  V30 8834 H 840.32 -0.0950492 -4.1029 0
M  V30 8835 H 839.851 1.54225 -3.61909 0
M  V30 8836 H 841.866 2.6728 -4.18062 0
M  V30 8837 N 841.039 1.57585 0.0217189 0
M  V30 8838 C 841.972 2.02435 1.05334 0
M  V30 8839 C 842.95 0.91006 1.34747 0
M  V30 8840 O 844.134 1.17648 1.47279 0
M  V30 8841 C 841.261 2.40362 2.38629 0
M  V30 8842 C 840.307 3.62307 2.25025 0
M  V30 8843 S 841.14 5.11141 1.59673 0
M  V30 8844 C 842.296 5.52316 2.94444 0
M  V30 8845 H 842.529 2.89621 0.671354 0
M  V30 8846 H 840.062 1.52648 0.231925 0
M  V30 8847 H 842.02 2.62883 3.15282 0
M  V30 8848 H 840.681 1.53615 2.73973 0
M  V30 8849 H 839.874 3.86523 3.23443 0
M  V30 8850 H 839.476 3.39675 1.56515 0
M  V30 8851 H 841.768 5.53449 3.90768 0
M  V30 8852 H 842.711 6.52539 2.74952 0
M  V30 8853 H 843.119 4.79834 2.97355 0
M  V30 8854 N 842.517 -0.29412 1.54831 0
M  V30 8855 C 843.742 -1.05156 1.78765 0
M  V30 8856 C 844.167 -1.79916 0.548809 0
M  V30 8857 O 843.525 -1.74243 -0.500909 0
M  V30 8858 C 843.573 -2.00242 2.99893 0
M  V30 8859 O 842.677 -3.08662 2.73499 0
M  V30 8860 H 842.018 -0.301737 0.591482 0
M  V30 8861 H 844.548 -0.329449 2.0193 0
M  V30 8862 H 844.558 -2.42583 3.28051 0
M  V30 8863 H 843.233 -1.45235 3.89717 0
M  V30 8864 H 841.81 -2.70786 2.56377 0
M  V30 8865 N 843.995 -1.47404 -0.557645 0
M  V30 8866 C 845.243 -1.53703 -1.31224 0
M  V30 8867 C 845.564 -0.200742 -1.93964 0
M  V30 8868 O 844.834 0.775253 -1.79907 0
M  V30 8869 H 843.414 -0.566171 -0.487299 0
M  V30 8870 H 846.076 -1.83699 -0.651195 0
M  V30 8871 H 845.172 -2.30335 -2.10599 0
M  V30 8872 N 845.473 0.80434 -1.35529 0
M  V30 8873 C 846.722 1.55665 -1.28263 0
M  V30 8874 C 847.035 1.95096 0.140352 0
M  V30 8875 O 848.241 2.69422 0.335303 0
M  V30 8876 C 846.697 2.80935 -2.24952 0
M  V30 8877 C 846.305 2.48733 -3.72607 0
M  V30 8878 C 848.049 3.5894 -2.26632 0
M  V30 8879 C 845.956 3.70308 -4.61114 0
M  V30 8880 H 844.886 0.584301 -0.476559 0
M  V30 8881 H 847.537 0.88395 -1.60806 0
M  V30 8882 H 845.919 3.49927 -1.85383 0
M  V30 8883 H 847.093 1.87733 -4.20824 0
M  V30 8884 H 845.408 1.83969 -3.73557 0
M  V30 8885 H 848.005 4.49244 -2.89973 0
M  V30 8886 H 848.348 3.96433 -1.27069 0
M  V30 8887 H 848.881 2.96912 -2.64742 0
M  V30 8888 H 845.62 3.37922 -5.61684 0
M  V30 8889 H 845.14 4.30526 -4.17621 0
M  V30 8890 H 846.819 4.37511 -4.76648 0
M  V30 8891 N 846.951 1.19563 1.02676 0
M  V30 8892 C 848.2 0.993864 1.75514 0
M  V30 8893 C 848.513 -0.475882 1.89723 0
M  V30 8894 O 849.719 -0.796525 2.59553 0
M  V30 8895 C 848.175 1.72937 3.15628 0
M  V30 8896 C 847.783 3.23937 3.09466 0
M  V30 8897 C 849.527 1.61092 3.92746 0
M  V30 8898 C 847.434 3.90067 4.44524 0
M  V30 8899 H 846.364 0.368244 0.657961 0
M  V30 8900 H 849.015 1.43081 1.14891 0
M  V30 8901 H 847.397 1.22025 3.76731 0
M  V30 8902 H 848.571 3.81983 2.57731 0
M  V30 8903 H 846.886 3.3608 2.45843 0
M  V30 8904 H 849.483 2.07848 4.92649 0
M  V30 8905 H 849.826 0.565415 4.12442 0
M  V30 8906 H 850.359 2.09361 3.3825 0
M  V30 8907 H 847.098 4.94725 4.30032 0
M  V30 8908 H 846.618 3.36809 4.96306 0
M  V30 8909 H 848.297 3.93736 5.13401 0
M  V30 8910 N 848.429 -1.21819 0.999893 0
M  V30 8911 C 849.377 -2.26027 0.549047 0
M  V30 8912 C 850.371 -1.64516 -0.403826 0
M  V30 8913 O 851.577 -1.77878 -0.275578 0
M  V30 8914 H 847.952 -0.734958 0.159185 0
M  V30 8915 H 849.923 -2.61398 1.43923 0
M  V30 8916 C 848.672 -3.47514 -0.11369 0
M  V30 8917 H 847.995 -3.95112 0.610482 0
M  V30 8918 H 849.435 -4.22179 -0.3925 0
M  V30 8919 C 847.894 -3.08614 -1.35126 0
M  V30 8920 O 848.424 -3.1864 -2.44605 0
M  V30 8921 N 846.63 -2.63327 -1.22911 0
M  V30 8922 H 846.177 -2.55369 -0.338288 0
M  V30 8923 H 846.135 -2.37668 -2.05818 0
M  V30 8924 N 849.908 -0.773975 -1.37286 0
M  V30 8925 C 850.858 -0.135245 -2.27599 0
M  V30 8926 C 851.842 0.671691 -1.46209 0
M  V30 8927 O 853.034 0.534299 -1.68743 0
M  V30 8928 C 850.163 0.741298 -3.35201 0
M  V30 8929 C 849.249 -0.0735896 -4.24036 0
M  V30 8930 N 849.64 -1.12035 -4.93236 0
M  V30 8931 C 847.938 0.150038 -4.45748 0
M  V30 8932 C 848.639 -1.61512 -5.58828 0
M  V30 8933 N 847.615 -0.926922 -5.35639 0
M  V30 8934 H 851.417 -0.936646 -2.78575 0
M  V30 8935 H 848.931 -0.611944 -1.50429 0
M  V30 8936 H 850.928 1.21468 -3.98812 0
M  V30 8937 H 849.588 1.54142 -2.8578 0
M  V30 8938 H 850.599 -1.50253 -4.95625 0
M  V30 8939 H 847.276 0.921891 -4.07195 0
M  V30 8940 H 848.666 -2.48818 -6.24131 0
M  V30 8941 N 851.386 1.48609 -0.524698 0
M  V30 8942 C 852.296 2.33318 0.244923 0
M  V30 8943 C 853.312 1.46153 0.944214 0
M  V30 8944 O 854.488 1.79141 0.920347 0
M  V30 8945 C 851.553 3.22149 1.28144 0
M  V30 8946 C 850.614 4.25184 0.593068 0
M  V30 8947 C 849.847 5.0977 1.5802 0
M  V30 8948 O 850.07 4.96249 2.81235 0
M  V30 8949 O 849.004 5.9134 1.1225 0
M  V30 8950 H 852.83 3.00362 -0.449066 0
M  V30 8951 H 850.415 1.46643 -0.285689 0
M  V30 8952 H 852.297 3.77111 1.88057 0
M  V30 8953 H 850.972 2.57772 1.95793 0
M  V30 8954 H 849.879 3.74071 -0.0464214 0
M  V30 8955 H 851.212 4.92183 -0.0413893 0
M  V30 8956 N 852.864 0.259585 1.55447 0
M  V30 8957 C 853.827 -0.621359 2.20617 0
M  V30 8958 C 854.827 -1.09317 1.17925 0
M  V30 8959 O 856.017 -0.995842 1.42929 0
M  V30 8960 C 853.149 -1.85546 2.85982 0
M  V30 8961 H 854.342 -0.0525833 2.99854 0
M  V30 8962 H 851.895 0.0101055 1.56297 0
M  V30 8963 H 852.63 -2.46515 2.10715 0
M  V30 8964 H 852.415 -1.52523 3.61219 0
M  V30 8965 H 853.905 -2.48227 3.35817 0
M  V30 8966 N 854.342 -1.57594 -0.0133615 0
M  V30 8967 C 855.572 -1.93969 -0.711295 0
M  V30 8968 C 855.98 -0.859084 -1.68572 0
M  V30 8969 O 855.323 0.171842 -1.82894 0
M  V30 8970 C 855.385 -3.2625 -1.51001 0
M  V30 8971 C 855.049 -4.51628 -0.698645 0
M  V30 8972 C 856.046 -5.19899 0.00791185 0
M  V30 8973 C 853.731 -4.98095 -0.648553 0
M  V30 8974 C 855.725 -6.32928 0.753691 0
M  V30 8975 C 853.412 -6.11017 0.10096 0
M  V30 8976 C 854.41 -6.78289 0.800828 0
M  V30 8977 O 854.098 -7.89048 1.53814 0
M  V30 8978 H 853.83 -0.6445 -0.203951 0
M  V30 8979 H 856.384 -2.05378 0.0298267 0
M  V30 8980 H 854.614 -3.11211 -2.29531 0
M  V30 8981 H 856.303 -3.47835 -2.09202 0
M  V30 8982 H 857.069 -4.84995 -0.0217192 0
M  V30 8983 H 852.948 -4.45568 -1.18282 0
M  V30 8984 H 856.492 -6.85371 1.3005 0
M  V30 8985 H 852.389 -6.45364 0.132459 0
M  V30 8986 H 853.157 -8.05492 1.45345 0
M  V30 8987 N 855.82 0.285905 -1.54985 0
M  V30 8988 C 856.77 1.35505 -1.83364 0
M  V30 8989 C 857.754 1.45273 -0.691698 0
M  V30 8990 O 858.946 1.49172 -0.952725 0
M  V30 8991 C 856.075 2.71756 -2.0977 0
M  V30 8992 C 855.161 2.6615 -3.30189 0
M  V30 8993 N 855.552 2.30161 -4.50399 0
M  V30 8994 C 853.85 2.97232 -3.3252 0
M  V30 8995 C 854.551 2.34228 -5.32459 0
M  V30 8996 N 853.527 2.72187 -4.70548 0
M  V30 8997 H 857.329 1.06668 -2.7386 0
M  V30 8998 H 854.843 0.494521 -1.54688 0
M  V30 8999 H 856.84 3.48864 -2.28253 0
M  V30 9000 H 855.5 3.01492 -1.20551 0
M  V30 9001 H 856.511 2.02358 -4.7673 0
M  V30 9002 H 853.188 3.31764 -2.53454 0
M  V30 9003 H 854.578 2.09074 -6.38543 0
M  V30 9004 N 857.298 1.47698 0.54982 0
M  V30 9005 C 858.208 1.63386 1.68351 0
M  V30 9006 C 859.224 0.516583 1.66155 0
M  V30 9007 O 860.4 0.785088 1.85468 0
M  V30 9008 C 857.465 1.6513 3.04849 0
M  V30 9009 C 856.526 2.88338 3.18056 0
M  V30 9010 C 855.759 2.8999 4.48042 0
M  V30 9011 O 855.982 2.00633 5.3395 0
M  V30 9012 O 854.916 3.81938 4.65196 0
M  V30 9013 H 858.742 2.59329 1.58057 0
M  V30 9014 H 856.327 1.30869 0.72067 0
M  V30 9015 H 858.209 1.68913 3.86065 0
M  V30 9016 H 856.884 0.723555 3.1551 0
M  V30 9017 H 855.791 2.90097 2.36209 0
M  V30 9018 H 857.124 3.80431 3.12302 0
M  V30 9019 N 858.776 -0.797141 1.35954 0
M  V30 9020 C 860.022 -1.55698 1.29946 0
M  V30 9021 C 860.355 -1.93808 -0.123259 0
M  V30 9022 O 859.63 -1.62102 -1.07486 0
M  V30 9023 C 859.913 -2.83926 2.2149 0
M  V30 9024 C 859.766 -2.52232 3.72423 0
M  V30 9025 C 861.085 -3.85698 2.11955 0
M  V30 9026 H 858.204 -0.56488 0.47337 0
M  V30 9027 H 860.846 -0.916421 1.66438 0
M  V30 9028 H 858.996 -3.38588 1.905 0
M  V30 9029 H 860.668 -2.0368 4.13899 0
M  V30 9030 H 858.911 -1.85286 3.92239 0
M  V30 9031 H 859.582 -3.43782 4.31877 0
M  V30 9032 H 862.058 -3.40462 2.39218 0
M  V30 9033 H 860.934 -4.73182 2.78191 0
M  V30 9034 H 861.195 -4.28083 1.10442 0
M  V30 9035 N 860.254 -1.20106 -1.0204 0
M  V30 9036 C 861.665 -1.00992 -1.57027 0
M  V30 9037 C 862.016 0.434782 -1.91322 0
M  V30 9038 O 861.141 1.31557 -1.71819 0
M  V30 9039 C 861.736 -1.82697 -2.85319 0
M  V30 9040 C 860.295 -1.67959 -3.36848 0
M  V30 9041 C 859.442 -1.80868 -2.10195 0
M  V30 9042 H 862.393 -1.34354 -0.844676 0
M  V30 9043 H 862.414 -1.32809 -3.5657 0
M  V30 9044 H 861.926 -2.87839 -2.60328 0
M  V30 9045 H 860.027 -0.654389 -3.66809 0
M  V30 9046 H 860.14 -2.49006 -4.09308 0
M  V30 9047 H 858.504 -1.24015 -2.22469 0
M  V30 9048 H 859.287 -2.87486 -1.87635 0
M  V30 9049 N 861.732 1.21287 -1.00634 0
M  V30 9050 C 862.962 1.94103 -0.70765 0
M  V30 9051 C 863.37 1.74382 0.733991 0
M  V30 9052 O 862.713 1.04843 1.50843 0
M  V30 9053 C 862.775 3.46705 -0.950581 0
M  V30 9054 C 862.439 3.90176 -2.37932 0
M  V30 9055 C 863.436 3.96769 -3.35961 0
M  V30 9056 C 861.121 4.22453 -2.71733 0
M  V30 9057 C 863.115 4.35034 -4.65858 0
M  V30 9058 C 860.802 4.60394 -4.01846 0
M  V30 9059 C 861.8 4.66656 -4.9872 0
M  V30 9060 O 861.488 5.03732 -6.26505 0
M  V30 9061 H 861.22 0.62405 -0.259881 0
M  V30 9062 H 863.774 1.55015 -1.34757 0
M  V30 9063 H 862.004 3.85868 -0.253492 0
M  V30 9064 H 863.693 4.00741 -0.645069 0
M  V30 9065 H 864.459 3.72009 -3.11182 0
M  V30 9066 H 860.338 4.16776 -1.97025 0
M  V30 9067 H 863.882 4.39836 -5.4147 0
M  V30 9068 H 859.779 4.84609 -4.26409 0
M  V30 9069 H 860.547 5.21761 -6.30641 0
M  V30 9070 N 863.21 0.781244 1.36873 0
M  V30 9071 C 864.438 0.361566 2.03716 0
M  V30 9072 C 864.853 -1.01937 1.58916 0
M  V30 9073 O 864.21 -1.65237 0.774783 0
M  V30 9074 C 864.261 0.406391 3.59208 0
M  V30 9075 O 863.982 1.73286 4.02372 0
M  V30 9076 C 865.483 -0.0236894 4.43294 0
M  V30 9077 H 862.703 0.150133 0.653988 0
M  V30 9078 H 865.247 1.05781 1.75016 0
M  V30 9079 H 863.402 -0.241364 3.86647 0
M  V30 9080 H 863.816 1.67804 4.96933 0
M  V30 9081 H 865.29 0.0588205 5.51969 0
M  V30 9082 H 865.767 -1.07529 4.25833 0
M  V30 9083 H 866.373 0.59624 4.211 0
M  V30 9084 N 864.689 -1.48329 0.532571 0
M  V30 9085 C 865.917 -2.069 0.00354299 0
M  V30 9086 C 866.332 -1.38876 -1.27902 0
M  V30 9087 O 865.689 -0.477119 -1.76153 0
M  V30 9088 C 865.74 -3.60821 -0.221416 0
M  V30 9089 O 865.461 -4.26291 1.01034 0
M  V30 9090 C 866.962 -4.36194 -0.790531 0
M  V30 9091 H 864.182 -0.670103 0.0346836 0
M  V30 9092 H 866.726 -1.90682 0.738955 0
M  V30 9093 H 864.881 -3.76636 -0.906884 0
M  V30 9094 H 865.295 -5.18475 0.792683 0
M  V30 9095 H 866.769 -5.44657 -0.897347 0
M  V30 9096 H 867.246 -4.00798 -1.79605 0
M  V30 9097 H 867.852 -4.25064 -0.141546 0
M  V30 9098 N 866.167 -0.267825 -1.55308 0
M  V30 9099 C 867.392 0.357487 -2.04296 0
M  V30 9100 C 867.817 1.49222 -1.14518 0
M  V30 9101 O 867.175 1.80741 -0.142292 0
M  V30 9102 C 867.223 0.822899 -3.51085 0
M  V30 9103 O 866.327 1.93078 -3.6441 0
M  V30 9104 H 865.668 0.075025 -0.659748 0
M  V30 9105 H 868.198 -0.399996 -2.00652 0
M  V30 9106 H 868.208 1.12059 -3.92309 0
M  V30 9107 H 866.883 -0.0073562 -4.15899 0
M  V30 9108 H 865.46 1.63618 -3.35087 0
M  V30 9109 N 867.645 1.57599 0.00500368 0
M  V30 9110 C 868.892 1.90349 0.690895 0
M  V30 9111 C 869.22 0.868045 1.74055 0
M  V30 9112 O 868.475 -0.127855 1.95282 0
M  V30 9113 C 868.774 3.29855 1.37588 0
M  V30 9114 C 868.44 4.48548 0.459906 0
M  V30 9115 C 867.102 4.80752 0.207693 0
M  V30 9116 C 869.454 5.20919 -0.171054 0
M  V30 9117 C 866.782 5.82701 -0.683855 0
M  V30 9118 C 869.134 6.23818 -1.05045 0
M  V30 9119 C 867.798 6.54481 -1.31189 0
M  V30 9120 H 867.068 0.696538 0.252816 0
M  V30 9121 H 869.715 1.91436 -0.0494495 0
M  V30 9122 H 868.02 3.24869 2.19015 0
M  V30 9123 H 869.717 3.52452 1.91255 0
M  V30 9124 H 866.307 4.23384 0.666648 0
M  V30 9125 H 870.491 4.96299 0.0107942 0
M  V30 9126 H 865.747 6.04822 -0.894467 0
M  V30 9127 H 869.921 6.79029 -1.54574 0
M  V30 9128 H 867.548 7.33299 -2.00442 0
M  V30 9129 N 869.123 -0.277682 1.55134 0
M  V30 9130 C 870.351 -1.02826 1.7954 0
M  V30 9131 C 870.766 -1.80105 0.566373 0
M  V30 9132 O 870.123 -1.76491 -0.464448 0
M  V30 9133 C 870.174 -1.99053 3.01762 0
M  V30 9134 O 869.895 -1.24906 4.19917 0
M  V30 9135 C 871.396 -2.85961 3.38735 0
M  V30 9136 H 868.616 -0.303958 0.598206 0
M  V30 9137 H 871.16 -0.309884 2.02138 0
M  V30 9138 H 869.315 -2.66359 2.81303 0
M  V30 9139 H 869.729 -1.89725 4.88983 0
M  V30 9140 H 871.203 -3.49286 4.27438 0
M  V30 9141 H 871.68 -3.55486 2.57928 0
M  V30 9142 H 872.286 -2.24152 3.61436 0
M  V30 9143 N 870.601 -1.47988 -0.541979 0
M  V30 9144 C 871.531 -1.64503 -1.65713 0
M  V30 9145 C 872.512 -0.494116 -1.62765 0
M  V30 9146 O 873.697 -0.725256 -1.80149 0
M  V30 9147 C 870.827 -1.67337 -3.04328 0
M  V30 9148 C 869.781 -2.81809 -3.2213 0
M  V30 9149 C 869.107 -2.69724 -4.61685 0
M  V30 9150 C 870.407 -4.23241 -3.06046 0
M  V30 9151 H 872.101 -2.5786 -1.52147 0
M  V30 9152 H 869.647 -1.24094 -0.730529 0
M  V30 9153 H 871.6 -1.77481 -3.82202 0
M  V30 9154 H 870.324 -0.705514 -3.18889 0
M  V30 9155 H 868.983 -2.71201 -2.46669 0
M  V30 9156 H 868.631 -1.70934 -4.73065 0
M  V30 9157 H 868.331 -3.4653 -4.74543 0
M  V30 9158 H 869.855 -2.81818 -5.41674 0
M  V30 9159 H 871.269 -4.34746 -3.73723 0
M  V30 9160 H 869.666 -5.00952 -3.30405 0
M  V30 9161 H 870.736 -4.40543 -2.02609 0
M  V30 9162 N 872.079 0.78992 -1.36375 0
M  V30 9163 C 873.042 1.88414 -1.30509 0
M  V30 9164 C 874.042 1.59384 -0.2129 0
M  V30 9165 O 875.232 1.67805 -0.467651 0
M  V30 9166 C 872.364 3.25188 -1.02302 0
M  V30 9167 H 873.557 1.95031 -2.27822 0
M  V30 9168 H 871.11 0.987664 -1.2114 0
M  V30 9169 H 871.845 3.24254 -0.0544486 0
M  V30 9170 H 871.63 3.47647 -1.81338 0
M  V30 9171 H 873.12 4.05252 -1.00801 0
M  V30 9172 N 873.557 1.20646 1.01402 0
M  V30 9173 C 874.504 0.957618 2.09996 0
M  V30 9174 C 875.474 -0.113115 1.65714 0
M  V30 9175 O 876.659 0.032142 1.90773 0
M  V30 9176 C 873.799 0.5186 3.41181 0
M  V30 9177 C 872.912 1.65777 3.98926 0
M  V30 9178 C 872.047 1.16881 5.18182 0
M  V30 9179 C 871.086 2.2809 5.68015 0
M  V30 9180 N 870.223 1.80392 6.7853 0
M  V30 9181 H 875.063 1.88732 2.30617 0
M  V30 9182 H 872.6 0.940703 1.13089 0
M  V30 9183 H 874.558 0.245367 4.16478 0
M  V30 9184 H 873.188 -0.3741 3.20625 0
M  V30 9185 H 872.24 2.04586 3.207 0
M  V30 9186 H 873.552 2.49507 4.31912 0
M  V30 9187 H 872.706 0.851694 6.00692 0
M  V30 9188 H 871.445 0.301434 4.86768 0
M  V30 9189 H 870.45 2.60614 4.84108 0
M  V30 9190 H 871.675 3.15308 6.01463 0
M  V30 9191 H 869.621 0.959856 6.4894 0
M  V30 9192 H 869.538 2.57701 7.10722 0
M  V30 9193 H 870.806 1.51688 7.64598 0
M  V30 9194 N 875.035 -1.20752 1.01276 0
M  V30 9195 C 875.967 -2.22798 0.537917 0
M  V30 9196 C 876.98 -1.5836 -0.377638 0
M  V30 9197 O 878.169 -1.77624 -0.176599 0
M  V30 9198 C 875.269 -3.38068 -0.237364 0
M  V30 9199 C 874.442 -4.32095 0.679161 0
M  V30 9200 C 873.501 -5.26178 -0.0478676 0
M  V30 9201 O 872.527 -5.66305 0.573366 0
M  V30 9202 N 873.729 -5.65201 -1.32396 0
M  V30 9203 H 876.494 -2.64166 1.4155 0
M  V30 9204 H 874.055 -1.35254 0.889826 0
M  V30 9205 H 876.047 -3.98009 -0.73288 0
M  V30 9206 H 874.617 -2.95622 -1.0162 0
M  V30 9207 H 873.837 -3.70179 1.35505 0
M  V30 9208 H 875.125 -4.91842 1.30263 0
M  V30 9209 H 874.523 -5.34606 -1.84968 0
M  V30 9210 H 873.08 -6.27468 -1.76428 0
M  V30 9211 N 876.513 -0.788492 -1.36457 0
M  V30 9212 C 877.443 -0.200468 -2.32638 0
M  V30 9213 C 878.424 0.664031 -1.56603 0
M  V30 9214 O 879.609 0.598045 -1.84762 0
M  V30 9215 C 876.739 0.666274 -3.40849 0
M  V30 9216 C 875.693 -0.0982574 -4.27887 0
M  V30 9217 C 875.019 0.889018 -5.27258 0
M  V30 9218 C 876.319 -1.28692 -5.06197 0
M  V30 9219 H 878.013 -1.00399 -2.82065 0
M  V30 9220 H 875.559 -0.484237 -1.35614 0
M  V30 9221 H 877.512 1.08757 -4.07124 0
M  V30 9222 H 876.236 1.50249 -2.89987 0
M  V30 9223 H 874.895 -0.500525 -3.63167 0
M  V30 9224 H 874.543 1.72024 -4.7267 0
M  V30 9225 H 874.243 0.381909 -5.86358 0
M  V30 9226 H 875.767 1.30891 -5.96406 0
M  V30 9227 H 877.181 -0.941429 -5.65517 0
M  V30 9228 H 875.578 -1.72726 -5.74705 0
M  V30 9229 H 876.648 -2.08273 -4.37893 0
M  V30 9230 N 877.991 1.48044 -0.54043 0
M  V30 9231 C 879.216 2.07396 -0.0124765 0
M  V30 9232 C 879.641 1.39288 1.26414 0
M  V30 9233 O 878.999 0.462252 1.75308 0
M  V30 9234 C 879.047 3.60131 0.18377 0
M  V30 9235 O 878.151 3.92995 1.25014 0
M  V30 9236 H 877.492 0.662554 -0.0438026 0
M  V30 9237 H 880.022 1.90306 -0.751327 0
M  V30 9238 H 880.032 4.06003 0.403197 0
M  V30 9239 H 878.707 4.09105 -0.74874 0
M  V30 9240 H 877.284 3.5889 1.01254 0
M  V30 9241 N 879.47 0.276058 1.55163 0
M  V30 9242 C 880.717 -0.340455 1.99618 0
M  V30 9243 C 881.045 -1.5579 1.16446 0
M  V30 9244 O 880.3 -1.94433 0.222359 0
M  V30 9245 C 880.599 -0.765744 3.491 0
M  V30 9246 C 880.265 0.347174 4.49561 0
M  V30 9247 C 878.927 0.65276 4.76752 0
M  V30 9248 C 881.279 1.09705 5.09523 0
M  V30 9249 C 878.607 1.71179 5.61173 0
M  V30 9250 C 880.959 2.14581 5.95095 0
M  V30 9251 C 879.623 2.45773 6.20606 0
M  V30 9252 H 878.893 -0.124581 0.730452 0
M  V30 9253 H 881.54 0.389966 1.87487 0
M  V30 9254 H 879.845 -1.57585 3.58712 0
M  V30 9255 H 881.542 -1.25352 3.80904 0
M  V30 9256 H 878.132 0.0988779 4.28486 0
M  V30 9257 H 882.316 0.874223 4.8854 0
M  V30 9258 H 877.572 1.95846 5.79184 0
M  V30 9259 H 881.746 2.7316 6.40591 0
M  V30 9260 H 879.373 3.27969 6.85813 0
M  V30 9261 N 880.948 -1.576 0.00335426 0
M  V30 9262 C 882.178 -1.94713 -0.690682 0
M  V30 9263 C 882.586 -0.876915 -1.67651 0
M  V30 9264 O 881.929 0.152434 -1.83066 0
M  V30 9265 C 881.991 -3.27833 -1.47532 0
M  V30 9266 C 881.655 -4.52344 -0.650704 0
M  V30 9267 C 882.652 -5.19862 0.0630537 0
M  V30 9268 C 880.337 -4.98755 -0.595687 0
M  V30 9269 C 882.331 -6.32093 0.820779 0
M  V30 9270 C 880.018 -6.10875 0.165761 0
M  V30 9271 C 881.016 -6.77401 0.872724 0
M  V30 9272 O 880.704 -7.87372 1.62174 0
M  V30 9273 H 880.436 -0.646627 -0.197104 0
M  V30 9274 H 882.99 -2.05335 0.0516082 0
M  V30 9275 H 881.22 -3.13628 -2.26217 0
M  V30 9276 H 882.909 -3.50034 -2.05501 0
M  V30 9277 H 883.675 -4.84991 0.0297223 0
M  V30 9278 H 879.554 -4.46797 -1.13549 0
M  V30 9279 H 883.098 -6.83953 1.37312 0
M  V30 9280 H 878.995 -6.45187 0.200901 0
M  V30 9281 H 879.763 -8.03905 1.5388 0
M  V30 9282 N 882.426 0.269451 -1.5528 0
M  V30 9283 C 883.373 1.33316 -1.88403 0
M  V30 9284 C 884.343 1.48909 -0.735881 0
M  V30 9285 O 885.528 1.63259 -0.987479 0
M  V30 9286 C 882.668 2.68778 -2.16454 0
M  V30 9287 C 881.781 2.61377 -3.43956 0
M  V30 9288 C 880.916 3.89042 -3.6169 0
M  V30 9289 C 879.955 3.76166 -4.82872 0
M  V30 9290 N 879.092 4.95673 -4.97245 0
M  V30 9291 H 883.932 1.04368 -2.79126 0
M  V30 9292 H 881.469 0.504147 -1.38191 0
M  V30 9293 H 883.427 3.47599 -2.30719 0
M  V30 9294 H 882.057 2.9592 -1.28961 0
M  V30 9295 H 881.109 1.74247 -3.38145 0
M  V30 9296 H 882.421 2.47764 -4.32914 0
M  V30 9297 H 881.575 4.76304 -3.75791 0
M  V30 9298 H 880.314 4.05526 -2.70924 0
M  V30 9299 H 879.319 2.87287 -4.68771 0
M  V30 9300 H 880.544 3.61198 -5.75077 0
M  V30 9301 H 878.49 5.12561 -4.09411 0
M  V30 9302 H 878.407 4.84605 -5.80254 0
M  V30 9303 H 879.675 5.84498 -5.15735 0
M  V30 9304 N 883.904 1.48273 0.534124 0
M  V30 9305 C 885.153 1.55334 1.28663 0
M  V30 9306 C 885.466 0.230345 1.94239 0
M  V30 9307 O 886.672 0.179161 2.70908 0
M  V30 9308 C 885.128 2.73927 2.33435 0
M  V30 9309 C 884.736 4.12852 1.73947 0
M  V30 9310 C 886.48 2.90298 3.09722 0
M  V30 9311 C 884.387 5.22711 2.76636 0
M  V30 9312 H 883.317 0.578262 0.483869 0
M  V30 9313 H 885.968 1.74598 0.564602 0
M  V30 9314 H 884.35 2.48089 3.08655 0
M  V30 9315 H 885.524 4.48691 1.04944 0
M  V30 9316 H 883.839 4.01562 1.10167 0
M  V30 9317 H 886.436 3.69542 3.86449 0
M  V30 9318 H 886.779 1.99598 3.6533 0
M  V30 9319 H 887.312 3.16017 2.41616 0
M  V30 9320 H 884.051 6.15362 2.25852 0
M  V30 9321 H 883.571 4.91364 3.43979 0
M  V30 9322 H 885.25 5.50648 3.39699 0
M  V30 9323 N 885.382 -0.782676 1.36792 0
M  V30 9324 C 886.798 -1.08169 1.17352 0
M  V30 9325 C 886.998 -2.015 0.0022037 0
M  V30 9326 O 886.054 -2.43692 -0.661093 0
M  V30 9327 C 887.367 -1.68969 2.48737 0
M  V30 9328 C 888.915 -1.81278 2.55161 0
M  V30 9329 C 889.39 -2.45492 3.86649 0
M  V30 9330 N 890.881 -2.52954 3.88032 0
M  V30 9331 C 891.616 -3.03465 4.86515 0
M  V30 9332 N 891.112 -3.54232 5.95392 0
M  V30 9333 N 892.905 -3.02239 4.73928 0
M  V30 9334 H 885.056 -0.162757 2.11775 0
M  V30 9335 H 887.319 -0.134823 0.938364 0
M  V30 9336 H 887.025 -1.07859 3.34753 0
M  V30 9337 H 886.899 -2.68397 2.65034 0
M  V30 9338 H 889.286 -2.41524 1.69559 0
M  V30 9339 H 889.367 -0.806367 2.42758 0
M  V30 9340 H 889.011 -1.85889 4.7266 0
M  V30 9341 H 888.941 -3.46718 3.96351 0
M  V30 9342 H 891.432 -2.17014 3.09376 0
M  V30 9343 H 891.745 -3.91145 6.66503 0
M  V30 9344 H 890.09 -3.52366 5.99052 0
M  V30 9345 H 893.281 -2.61871 3.87996 0
M  V30 9346 H 893.454 -3.41295 5.50837 0
M  V30 9347 N 886.86 -1.21182 -1.00761 0
M  V30 9348 C 888.088 -1.05335 -1.78079 0
M  V30 9349 C 888.503 0.396988 -1.84579 0
M  V30 9350 O 887.86 1.27548 -1.30529 0
M  V30 9351 C 887.911 -1.64089 -3.22113 0
M  V30 9352 O 887.632 -3.03448 -3.15992 0
M  V30 9353 C 889.133 -1.53318 -4.15943 0
M  V30 9354 H 886.353 -0.37005 -0.559736 0
M  V30 9355 H 888.897 -1.60463 -1.26775 0
M  V30 9356 H 887.052 -1.13059 -3.70535 0
M  V30 9357 H 887.466 -3.31492 -4.06465 0
M  V30 9358 H 888.94 -1.99174 -5.14814 0
M  V30 9359 H 889.417 -0.487166 -4.3649 0
M  V30 9360 H 890.023 -2.03582 -3.73409 0
M  V30 9361 N 888.338 1.20213 -1.01915 0
M  V30 9362 C 889.587 1.88968 -0.705261 0
M  V30 9363 C 889.9 1.79869 0.768531 0
M  V30 9364 O 891.106 2.43783 1.19508 0
M  V30 9365 C 889.562 3.38911 -1.21109 0
M  V30 9366 C 889.17 3.5659 -2.71197 0
M  V30 9367 C 890.914 4.13204 -0.97275 0
M  V30 9368 C 888.821 5.00372 -3.15248 0
M  V30 9369 H 887.751 0.707715 -0.260107 0
M  V30 9370 H 890.402 1.35977 -1.23217 0
M  V30 9371 H 888.784 3.9124 -0.612152 0
M  V30 9372 H 889.958 3.14635 -3.36662 0
M  V30 9373 H 888.273 2.95671 -2.93202 0
M  V30 9374 H 890.87 5.19221 -1.27726 0
M  V30 9375 H 891.213 4.16201 0.09072 0
M  V30 9376 H 891.746 3.66983 -1.5352 0
M  V30 9377 H 888.485 5.02532 -4.20882 0
M  V30 9378 H 888.005 5.43127 -2.54505 0
M  V30 9379 H 889.684 5.68969 -3.08032 0
M  V30 9380 N 889.816 0.795718 1.36037 0
M  V30 9381 C 890.779 0.204318 2.28287 0
M  V30 9382 C 891.779 -0.602017 1.49105 0
M  V30 9383 O 892.969 -0.422089 1.69009 0
M  V30 9384 C 890.101 -0.716431 3.33287 0
M  V30 9385 H 891.294 1.01781 2.821 0
M  V30 9386 H 888.847 0.565588 1.45708 0
M  V30 9387 H 889.582 -1.55403 2.84641 0
M  V30 9388 H 889.367 -0.140096 3.9185 0
M  V30 9389 H 890.857 -1.12488 4.02164 0
M  V30 9390 N 891.294 -1.47756 0.548274 0
M  V30 9391 C 892.705 -1.8636 0.112547 0
M  V30 9392 C 893.056 -1.45589 -1.31523 0
M  V30 9393 O 892.181 -0.854874 -1.98799 0
M  V30 9394 C 892.776 -3.38224 0.197473 0
M  V30 9395 C 891.335 -3.75954 -0.183163 0
M  V30 9396 C 890.482 -2.7181 0.549059 0
M  V30 9397 H 893.433 -1.394 0.758506 0
M  V30 9398 H 893.454 -3.75957 -0.586217 0
M  V30 9399 H 892.966 -3.67868 1.23673 0
M  V30 9400 H 891.067 -3.51926 -1.22387 0
M  V30 9401 H 891.18 -4.78801 0.169178 0
M  V30 9402 H 889.544 -2.54699 -0.00682862 0
M  V30 9403 H 890.327 -3.04296 1.5893 0
M  V30 9404 N 892.772 -0.284283 -1.55015 0
M  V30 9405 C 894.02 0.329212 -1.99401 0
M  V30 9406 C 894.341 1.55687 -1.17416 0
M  V30 9407 O 893.611 1.94087 -0.265937 0
M  V30 9408 H 892.191 0.12463 -0.73653 0
M  V30 9409 H 894.853 -0.391743 -1.90922 0
M  V30 9410 H 893.949 0.61278 -3.06025 0
M  V30 9411 N 894.251 1.57596 -0.0117121 0
M  V30 9412 C 895.198 2.09153 0.975897 0
M  V30 9413 C 896.168 0.989579 1.33404 0
M  V30 9414 O 897.353 1.26273 1.43038 0
M  V30 9415 C 894.493 2.60906 2.2588 0
M  V30 9416 C 893.606 3.85046 1.95866 0
M  V30 9417 C 892.741 4.25257 3.18323 0
M  V30 9418 C 891.78 5.42202 2.84049 0
M  V30 9419 N 890.917 5.77651 3.99079 0
M  V30 9420 H 895.757 2.93261 0.52931 0
M  V30 9421 H 893.294 1.44965 0.249691 0
M  V30 9422 H 895.252 2.88995 3.00895 0
M  V30 9423 H 893.882 1.79654 2.68187 0
M  V30 9424 H 892.934 3.63794 1.11168 0
M  V30 9425 H 894.246 4.70151 1.66611 0
M  V30 9426 H 893.4 4.5469 4.01674 0
M  V30 9427 H 892.139 3.38884 3.50726 0
M  V30 9428 H 891.144 5.1248 1.99107 0
M  V30 9429 H 892.369 6.3026 2.52881 0
M  V30 9430 H 890.315 4.94235 4.31356 0
M  V30 9431 H 890.232 6.57356 3.73388 0
M  V30 9432 H 891.5 6.11681 4.83183 0
M  V30 9433 N 895.729 -0.261212 1.5542 0
M  V30 9434 C 896.957 -1.00916 1.8062 0
M  V30 9435 C 897.372 -1.79494 0.585444 0
M  V30 9436 O 896.729 -1.76974 -0.445702 0
M  V30 9437 C 896.78 -1.95841 3.03856 0
M  V30 9438 O 896.501 -1.20445 4.21218 0
M  V30 9439 C 898.002 -2.82352 3.41749 0
M  V30 9440 H 895.222 -0.297596 0.601397 0
M  V30 9441 H 897.766 -0.288427 2.02456 0
M  V30 9442 H 895.921 -2.63361 2.84112 0
M  V30 9443 H 896.335 -1.84528 4.90968 0
M  V30 9444 H 897.809 -3.44733 4.31118 0
M  V30 9445 H 898.286 -3.5273 2.61683 0
M  V30 9446 H 898.892 -2.20306 3.63793 0
M  V30 9447 N 897.207 -1.48554 -0.526253 0
M  V30 9448 C 898.157 -1.59753 -1.62674 0
M  V30 9449 C 899.141 -0.454452 -1.54349 0
M  V30 9450 O 900.333 -0.706091 -1.62306 0
M  V30 9451 C 897.462 -1.64388 -3.01383 0
M  V30 9452 C 896.548 -2.84188 -3.14798 0
M  V30 9453 N 896.939 -4.08564 -2.98176 0
M  V30 9454 C 895.237 -2.81599 -3.45859 0
M  V30 9455 C 895.938 -4.88961 -3.15106 0
M  V30 9456 N 894.914 -4.21848 -3.42849 0
M  V30 9457 H 898.716 -2.5366 -1.48438 0
M  V30 9458 H 896.23 -1.44977 -0.731801 0
M  V30 9459 H 898.227 -1.70505 -3.80439 0
M  V30 9460 H 896.887 -0.716006 -3.16707 0
M  V30 9461 H 897.898 -4.38943 -2.74862 0
M  V30 9462 H 894.575 -1.98083 -3.67518 0
M  V30 9463 H 895.965 -5.97683 -3.0696 0
M  V30 9464 N 898.685 0.775411 -1.37205 0
M  V30 9465 C 899.913 1.56446 -1.35397 0
M  V30 9466 C 900.328 1.887 0.0615437 0
M  V30 9467 O 899.685 1.51178 1.02233 0
M  V30 9468 C 899.736 2.87697 -2.18889 0
M  V30 9469 O 899.457 2.56828 -3.54924 0
M  V30 9470 C 900.958 3.81944 -2.25019 0
M  V30 9471 H 898.178 0.484792 -0.463916 0
M  V30 9472 H 900.722 0.961346 -1.80495 0
M  V30 9473 H 898.877 3.44442 -1.7731 0
M  V30 9474 H 899.291 3.40851 -3.98649 0
M  V30 9475 H 900.765 4.71055 -2.87769 0
M  V30 9476 H 901.242 4.20811 -1.25757 0
M  V30 9477 H 901.848 3.3113 -2.66895 0
M  V30 9478 N 900.163 1.21714 1.00117 0
M  V30 9479 C 901.126 0.981338 2.07129 0
M  V30 9480 C 902.126 -0.0491116 1.60725 0
M  V30 9481 O 903.316 0.188555 1.73177 0
M  V30 9482 C 900.448 0.480608 3.37495 0
M  V30 9483 H 901.641 1.93075 2.29482 0
M  V30 9484 H 899.194 1.03467 1.17151 0
M  V30 9485 H 899.929 -0.473552 3.20824 0
M  V30 9486 H 899.714 1.22393 3.72508 0
M  V30 9487 H 901.204 0.33561 4.16249 0
M  V30 9488 N 901.641 -1.19671 1.02551 0
M  V30 9489 C 902.604 -2.20987 0.608055 0
M  V30 9490 C 903.604 -1.5745 -0.326534 0
M  V30 9491 O 904.794 -1.73827 -0.114003 0
M  V30 9492 C 901.926 -3.4072 -0.11074 0
M  V30 9493 H 903.119 -2.59434 1.50446 0
M  V30 9494 H 900.672 -1.3329 0.816307 0
M  V30 9495 H 901.407 -3.07787 -1.02165 0
M  V30 9496 H 901.192 -3.88069 0.560772 0
M  V30 9497 H 902.682 -4.15776 -0.389848 0
M  V30 9498 N 903.119 -0.802921 -1.35613 0
M  V30 9499 C 904.368 -0.378087 -1.98125 0
M  V30 9500 C 904.681 1.05953 -1.64418 0
M  V30 9501 O 905.887 1.58729 -2.20266 0
M  V30 9502 C 904.343 -0.625077 -3.5443 0
M  V30 9503 C 903.951 -2.07499 -3.97049 0
M  V30 9504 C 905.695 -0.265419 -4.23669 0
M  V30 9505 C 903.602 -2.26793 -5.46186 0
M  V30 9506 H 902.532 -0.137633 -0.741332 0
M  V30 9507 H 905.183 -0.986461 -1.54729 0
M  V30 9508 H 903.565 0.0531975 -3.95964 0
M  V30 9509 H 904.739 -2.79077 -3.66678 0
M  V30 9510 H 903.054 -2.39417 -3.40688 0
M  V30 9511 H 905.651 -0.387669 -5.33293 0
M  V30 9512 H 905.994 0.787994 -4.08774 0
M  V30 9513 H 906.527 -0.897464 -3.87544 0
M  V30 9514 H 903.266 -3.30566 -5.66045 0
M  V30 9515 H 902.786 -1.59735 -5.78139 0
M  V30 9516 H 904.465 -2.08165 -6.12598 0
M  V30 9517 N 904.597 1.47463 -0.556102 0
M  V30 9518 C 905.874 1.9557 0.0339892 0
M  V30 9519 C 906.254 1.49869 1.48669 0
M  V30 9520 O 905.602 0.737019 2.16288 0
M  V30 9521 C 905.812 3.48826 -0.110343 0
M  V30 9522 C 907.16 4.24585 0.0355716 0
M  V30 9523 O 908.184 3.5618 -0.0378356 0
M  V30 9524 O 907.043 5.46158 0.193299 0
M  V30 9525 H 904.137 0.824461 0.0647521 0
M  V30 9526 H 906.683 1.57868 -0.622547 0
M  V30 9527 H 905.455 3.74891 -1.12126 0
M  V30 9528 H 905.078 3.9329 0.583855 0
M  V30 9529 N 906.075 0.2925 1.54862 0
M  V30 9530 C 906.985 -0.597036 2.26876 0
M  V30 9531 C 908.001 -1.15558 1.30086 0
M  V30 9532 O 909.177 -1.18217 1.63054 0
M  V30 9533 C 906.242 -1.75664 2.98903 0
M  V30 9534 C 905.303 -1.23303 4.11212 0
M  V30 9535 C 904.536 -2.33736 4.79795 0
M  V30 9536 O 904.759 -3.53459 4.47686 0
M  V30 9537 O 903.693 -2.00908 5.67379 0
M  V30 9538 H 907.519 -0.0131242 3.03697 0
M  V30 9539 H 905.104 0.0592642 1.49282 0
M  V30 9540 H 906.986 -2.43241 3.4411 0
M  V30 9541 H 905.661 -2.32731 2.24984 0
M  V30 9542 H 904.568 -0.523222 3.70423 0
M  V30 9543 H 905.901 -0.707887 4.87083 0
M  V30 9544 N 907.553 -1.57587 0.0200696 0
M  V30 9545 C 908.969 -1.56018 -0.336237 0
M  V30 9546 C 909.169 -1.02478 -1.73495 0
M  V30 9547 O 908.225 -0.667487 -2.43518 0
M  V30 9548 C 909.538 -3.00079 -0.193112 0
M  V30 9549 C 911.086 -3.11863 -0.266557 0
M  V30 9550 C 911.561 -4.57747 -0.152326 0
M  V30 9551 N 913.052 -4.62726 -0.209596 0
M  V30 9552 C 913.787 -5.73217 -0.144855 0
M  V30 9553 N 913.283 -6.92794 -0.0295487 0
M  V30 9554 N 915.076 -5.61751 -0.198184 0
M  V30 9555 H 907.227 -1.90722 0.93482 0
M  V30 9556 H 909.49 -0.876909 0.360186 0
M  V30 9557 H 909.196 -3.43167 0.770036 0
M  V30 9558 H 909.07 -3.64593 -0.967029 0
M  V30 9559 H 911.457 -2.68693 -1.22016 0
M  V30 9560 H 911.538 -2.50087 0.53758 0
M  V30 9561 H 911.182 -5.01595 0.797817 0
M  V30 9562 H 911.112 -5.17491 -0.97521 0
M  V30 9563 H 913.603 -3.76713 -0.299229 0
M  V30 9564 H 913.916 -7.72799 0.0134071 0
M  V30 9565 H 912.261 -6.95 0.00510737 0
M  V30 9566 H 915.452 -4.67222 -0.286603 0
M  V30 9567 H 915.625 -6.47839 -0.144266 0
M  V30 9568 N 909.032 0.252966 -1.55557 0
M  V30 9569 C 910.28 0.979912 -1.76754 0
M  V30 9570 C 910.601 1.86083 -0.582944 0
M  V30 9571 O 909.871 1.91742 0.401497 0
M  V30 9572 H 908.451 0.364805 -0.651864 0
M  V30 9573 H 911.113 0.272372 -1.92987 0
M  V30 9574 H 910.209 1.60518 -2.67657 0
M  V30 9575 N 910.51 1.48831 0.518367 0
M  V30 9576 C 911.926 1.35209 0.847979 0
M  V30 9577 C 912.126 0.371927 1.98038 0
M  V30 9578 O 911.182 -0.202681 2.51685 0
M  V30 9579 C 912.495 2.7552 1.20455 0
M  V30 9580 C 914.043 2.84094 1.31377 0
M  V30 9581 C 914.518 4.25132 1.70372 0
M  V30 9582 N 916.009 4.27861 1.77453 0
M  V30 9583 C 916.744 5.3394 2.09035 0
M  V30 9584 N 916.24 6.50285 2.3896 0
M  V30 9585 N 918.033 5.21343 2.10139 0
M  V30 9586 H 910.184 2.11166 -0.228624 0
M  V30 9587 H 912.447 0.94717 -0.0396599 0
M  V30 9588 H 912.153 3.48861 0.445991 0
M  V30 9589 H 912.027 3.09785 2.15204 0
M  V30 9590 H 914.414 2.11001 2.06307 0
M  V30 9591 H 914.495 2.53433 0.347203 0
M  V30 9592 H 914.139 4.98745 0.959975 0
M  V30 9593 H 914.069 4.53245 2.68098 0
M  V30 9594 H 916.56 3.43945 1.56557 0
M  V30 9595 H 916.873 7.26961 2.62196 0
M  V30 9596 H 915.218 6.5354 2.36454 0
M  V30 9597 H 918.409 4.29462 1.86225 0
M  V30 9598 H 918.582 6.04112 2.34419 0
M  V30 9599 N 911.988 -0.768124 1.37614 0
M  V30 9600 C 912.918 -1.89537 1.36374 0
M  V30 9601 C 913.899 -1.68513 0.231803 0
M  V30 9602 O 915.084 -1.89318 0.432705 0
M  V30 9603 C 912.214 -3.26871 1.17358 0
M  V30 9604 C 911.168 -3.62466 2.27602 0
M  V30 9605 C 910.494 -4.9838 1.93705 0
M  V30 9606 C 911.794 -3.68841 3.69802 0
M  V30 9607 H 913.488 -1.90832 2.30702 0
M  V30 9608 H 911.034 -0.91672 1.11051 0
M  V30 9609 H 912.987 -4.05371 1.15119 0
M  V30 9610 H 911.711 -3.26018 0.194865 0
M  V30 9611 H 910.37 -2.86276 2.29002 0
M  V30 9612 H 910.018 -4.94071 0.943539 0
M  V30 9613 H 909.718 -5.23165 2.6753 0
M  V30 9614 H 911.242 -5.79276 1.93059 0
M  V30 9615 H 912.656 -4.37485 3.70513 0
M  V30 9616 H 911.053 -4.05126 4.42711 0
M  V30 9617 H 912.123 -2.69415 4.03167 0
M  V30 9618 N 913.466 -1.22244 -0.994698 0
M  V30 9619 C 914.396 -1.01513 -2.10279 0
M  V30 9620 C 915.377 0.0633365 -1.69982 0
M  V30 9621 O 916.562 -0.0985268 -1.9395 0
M  V30 9622 C 913.692 -0.59016 -3.42249 0
M  V30 9623 C 912.646 -1.61436 -3.96387 0
M  V30 9624 C 911.972 -1.04528 -5.24383 0
M  V30 9625 C 913.272 -3.00388 -4.27276 0
M  V30 9626 H 914.966 -1.94194 -2.2788 0
M  V30 9627 H 912.512 -0.935094 -1.09508 0
M  V30 9628 H 914.465 -0.432254 -4.19177 0
M  V30 9629 H 913.189 0.372308 -3.24471 0
M  V30 9630 H 911.848 -1.76001 -3.21589 0
M  V30 9631 H 911.496 -0.0742225 -5.02945 0
M  V30 9632 H 911.196 -1.72949 -5.61571 0
M  V30 9633 H 912.72 -0.898922 -6.03947 0
M  V30 9634 H 914.134 -2.89207 -4.95007 0
M  V30 9635 H 912.531 -3.65916 -4.75631 0
M  V30 9636 H 913.601 -3.50456 -3.35125 0
M  V30 9637 N 914.944 1.19125 -1.03184 0
M  V30 9638 C 916.172 1.92838 -0.74975 0
M  V30 9639 C 916.587 1.75667 0.691851 0
M  V30 9640 O 915.944 1.0805 1.47076 0
M  V30 9641 C 915.995 3.44509 -1.09525 0
M  V30 9642 O 915.716 3.6113 -2.48025 0
M  V30 9643 C 917.217 4.35338 -0.836397 0
M  V30 9644 H 914.437 0.61246 -0.274105 0
M  V30 9645 H 916.981 1.5118 -1.37712 0
M  V30 9646 H 915.136 3.83988 -0.513006 0
M  V30 9647 H 915.55 4.54959 -2.60984 0
M  V30 9648 H 917.024 5.4035 -1.12808 0
M  V30 9649 H 917.501 4.38602 0.229102 0
M  V30 9650 H 918.107 4.01544 -1.40152 0
M  V30 9651 N 916.422 0.810101 1.35185 0
M  V30 9652 C 917.669 0.392117 1.98667 0
M  V30 9653 C 917.997 -1.0416 1.64259 0
M  V30 9654 O 917.252 -1.73795 0.899647 0
M  V30 9655 C 917.551 0.526561 3.535 0
M  V30 9656 C 917.217 1.92411 4.07785 0
M  V30 9657 C 915.879 2.30644 4.22323 0
M  V30 9658 C 918.231 2.83827 4.37141 0
M  V30 9659 C 915.559 3.59655 4.63536 0
M  V30 9660 C 917.911 4.12287 4.79794 0
M  V30 9661 C 916.575 4.50515 4.92536 0
M  V30 9662 H 915.845 0.143486 0.726975 0
M  V30 9663 H 918.492 1.03157 1.61341 0
M  V30 9664 H 916.797 -0.19633 3.91308 0
M  V30 9665 H 918.494 0.183871 4.00578 0
M  V30 9666 H 915.084 1.61707 3.96924 0
M  V30 9667 H 919.268 2.55536 4.25459 0
M  V30 9668 H 914.524 3.89117 4.71591 0
M  V30 9669 H 918.698 4.83221 5.01468 0
M  V30 9670 H 916.325 5.50535 5.24229 0
M  V30 9671 N 917.9 -1.47166 0.563914 0
M  V30 9672 C 919.148 -2.02056 0.0422873 0
M  V30 9673 C 919.469 -1.43992 -1.31497 0
M  V30 9674 O 918.739 -0.617578 -1.85911 0
M  V30 9675 H 917.319 -0.746893 0.0126427 0
M  V30 9676 H 919.981 -1.80492 0.735441 0
M  V30 9677 H 919.077 -3.12073 -0.0408044 0
M  V30 9678 N 919.378 -0.300708 -1.54705 0
M  V30 9679 C 920.618 0.30953 -2.02043 0
M  V30 9680 C 920.982 1.51114 -1.18442 0
M  V30 9681 O 922.183 2.19273 -1.55477 0
M  V30 9682 C 920.454 0.657489 -3.513 0
M  V30 9683 S 922.013 1.25063 -4.206 0
M  V30 9684 H 918.831 0.0950019 -0.704624 0
M  V30 9685 H 921.433 -0.428512 -1.90746 0
M  V30 9686 H 920.137 -0.225532 -4.0978 0
M  V30 9687 H 919.668 1.42633 -3.66633 0
M  V30 9688 H 921.683 2.53844 -4.26354 0
M  V30 9689 N 920.856 1.57574 -0.0284266 0
M  V30 9690 C 921.804 2.11332 0.971675 0
M  V30 9691 C 922.798 1.03974 1.33738 0
M  V30 9692 O 924.004 1.22409 1.31969 0
M  V30 9693 H 920.379 0.675174 0.331125 0
M  V30 9694 H 922.35 2.943 0.49296 0
M  V30 9695 C 921.099 2.65496 2.24516 0
M  V30 9696 H 920.422 3.47753 1.9725 0
M  V30 9697 H 921.862 3.06757 2.92705 0
M  V30 9698 C 920.321 1.58207 2.97443 0
M  V30 9699 O 920.851 0.981496 3.89525 0
M  V30 9700 N 919.057 1.30269 2.59766 0
M  V30 9701 H 918.604 1.79294 1.84963 0
M  V30 9702 H 918.562 0.587085 3.0887 0
M  V30 9703 N 922.334 -0.244713 1.55689 0
M  V30 9704 C 923.281 -1.30301 1.905 0
M  V30 9705 C 924.251 -1.4772 0.759478 0
M  V30 9706 O 925.436 -1.61667 1.01333 0
M  V30 9707 C 922.576 -2.653 2.20703 0
M  V30 9708 C 921.689 -2.55872 3.48071 0
M  V30 9709 C 920.824 -3.83238 3.67834 0
M  V30 9710 C 919.863 -3.68436 4.88796 0
M  V30 9711 N 919 -4.877 5.05068 0
M  V30 9712 H 923.84 -0.999143 2.80751 0
M  V30 9713 H 921.377 -0.482099 1.38976 0
M  V30 9714 H 923.335 -3.43884 2.36219 0
M  V30 9715 H 921.965 -2.93831 1.33653 0
M  V30 9716 H 921.017 -1.68846 3.40874 0
M  V30 9717 H 922.329 -2.40845 4.36801 0
M  V30 9718 H 921.483 -4.70266 3.83321 0
M  V30 9719 H 920.222 -4.01165 2.77341 0
M  V30 9720 H 919.227 -2.79793 4.73282 0
M  V30 9721 H 920.452 -3.52003 5.8075 0
M  V30 9722 H 918.398 -5.05983 4.17513 0
M  V30 9723 H 918.315 -4.75312 5.8789 0
M  V30 9724 H 919.583 -5.76219 5.24969 0
M  V30 9725 N 923.813 -1.49104 -0.510467 0
M  V30 9726 C 925.053 -1.59723 -1.27545 0
M  V30 9727 C 925.417 -0.273525 -1.90042 0
M  V30 9728 O 926.618 -0.254835 -2.67589 0
M  V30 9729 C 924.889 -2.71771 -2.3211 0
M  V30 9730 S 926.448 -3.02282 -3.18074 0
M  V30 9731 H 923.266 -0.563489 -0.433591 0
M  V30 9732 H 925.868 -1.86719 -0.579328 0
M  V30 9733 H 924.572 -3.66483 -1.84711 0
M  V30 9734 H 924.103 -2.46739 -3.06404 0
M  V30 9735 H 926.118 -2.43076 -4.32583 0
M  V30 9736 N 925.291 0.760815 -1.38019 0
M  V30 9737 C 926.539 1.51673 -1.33566 0
M  V30 9738 C 926.86 1.94852 0.076024 0
M  V30 9739 O 926.13 1.67112 1.02227 0
M  V30 9740 H 924.71 0.562581 -0.491438 0
M  V30 9741 H 927.372 0.904832 -1.72623 0
M  V30 9742 H 926.468 2.41102 -1.98182 0
M  V30 9743 N 926.769 1.22769 0.988202 0
M  V30 9744 C 927.701 0.959757 2.08138 0
M  V30 9745 C 928.714 -0.0633787 1.62677 0
M  V30 9746 O 929.903 0.171203 1.77677 0
M  V30 9747 C 927.003 0.422724 3.36253 0
M  V30 9748 C 926.176 1.50419 4.10722 0
M  V30 9749 C 925.235 0.973407 5.17118 0
M  V30 9750 O 924.261 1.66066 5.44436 0
M  V30 9751 N 925.463 -0.202787 5.80146 0
M  V30 9752 H 928.228 1.9009 2.31702 0
M  V30 9753 H 925.789 1.13522 1.15431 0
M  V30 9754 H 927.781 0.0528514 4.04665 0
M  V30 9755 H 926.351 -0.423642 3.09716 0
M  V30 9756 H 925.571 2.04718 3.36874 0
M  V30 9757 H 926.859 2.23169 4.57245 0
M  V30 9758 H 926.257 -0.777856 5.60327 0
M  V30 9759 H 924.814 -0.513998 6.4977 0
M  V30 9760 N 928.247 -1.18576 1.03814 0
M  V30 9761 C 929.177 -2.24334 0.647795 0
M  V30 9762 C 930.158 -1.66508 -0.34774 0
M  V30 9763 O 931.343 -1.92852 -0.228401 0
M  V30 9764 C 928.473 -3.47299 0.00734922 0
M  V30 9765 C 927.427 -4.17859 0.926152 0
M  V30 9766 C 926.753 -5.34489 0.150317 0
M  V30 9767 C 928.053 -4.71632 2.24411 0
M  V30 9768 H 929.747 -2.57241 1.53191 0
M  V30 9769 H 927.293 -1.23649 0.738028 0
M  V30 9770 H 929.246 -4.20486 -0.277434 0
M  V30 9771 H 927.97 -3.13619 -0.911626 0
M  V30 9772 H 926.629 -3.46567 1.19528 0
M  V30 9773 H 926.277 -4.97056 -0.770985 0
M  V30 9774 H 925.977 -5.82633 0.762407 0
M  V30 9775 H 927.501 -6.10467 -0.127508 0
M  V30 9776 H 928.915 -5.36526 2.02021 0
M  V30 9777 H 927.312 -5.303 2.80894 0
M  V30 9778 H 928.382 -3.89192 2.89236 0
M  V30 9779 N 929.725 -0.817259 -1.34754 0
M  V30 9780 C 930.973 -0.401852 -1.98065 0
M  V30 9781 C 931.294 1.03718 -1.65129 0
M  V30 9782 O 930.564 1.71921 -0.939141 0
M  V30 9783 H 929.144 -0.145603 -0.732672 0
M  V30 9784 H 931.806 -1.04545 -1.64488 0
M  V30 9785 H 930.902 -0.516241 -3.07801 0
M  V30 9786 N 931.203 1.46865 -0.571711 0
M  V30 9787 C 932.449 2.0273 -0.0531858 0
M  V30 9788 C 932.782 1.44353 1.29907 0
M  V30 9789 O 932.057 0.604488 1.84868 0
M  V30 9790 C 932.34 3.60092 0.0243831 0
M  V30 9791 C 932.193 4.28874 -1.35599 0
M  V30 9792 C 933.512 4.33994 0.730563 0
M  V30 9793 H 930.631 0.736706 -0.0208018 0
M  V30 9794 H 933.273 1.75132 -0.736794 0
M  V30 9795 H 931.423 3.83736 0.606565 0
M  V30 9796 H 933.095 4.16527 -1.98249 0
M  V30 9797 H 931.338 3.88664 -1.92674 0
M  V30 9798 H 932.009 5.37561 -1.25429 0
M  V30 9799 H 934.485 4.1543 0.236098 0
M  V30 9800 H 933.361 5.43699 0.753836 0
M  V30 9801 H 933.622 4.04257 1.78967 0
M  V30 9802 N 932.681 0.308908 1.54543 0
M  V30 9803 C 933.929 -0.297447 1.99899 0
M  V30 9804 C 934.25 -1.53799 1.19878 0
M  V30 9805 O 933.52 -1.93639 0.29678 0
M  V30 9806 H 932.1 -0.112897 0.738419 0
M  V30 9807 H 934.762 0.422067 1.90275 0
M  V30 9808 H 933.858 -0.564016 3.06961 0
M  V30 9809 N 934.159 -1.57557 0.0367827 0
M  V30 9810 C 935.107 -2.11844 -0.960454 0
M  V30 9811 C 936.101 -1.04681 -1.33185 0
M  V30 9812 O 937.307 -1.23108 -1.31318 0
M  V30 9813 H 933.682 -0.676921 -0.32754 0
M  V30 9814 H 935.653 -2.94557 -0.477346 0
M  V30 9815 C 934.402 -2.66683 -2.23105 0
M  V30 9816 H 933.725 -3.48795 -1.95403 0
M  V30 9817 H 935.165 -3.08305 -2.91074 0
M  V30 9818 C 933.624 -1.59782 -2.96599 0
M  V30 9819 O 934.154 -1.00214 -3.88999 0
M  V30 9820 N 932.36 -1.31644 -2.59072 0
M  V30 9821 H 931.907 -1.80272 -1.8401 0
M  V30 9822 H 931.865 -0.603457 -3.08554 0
M  V30 9823 N 935.637 0.236453 -1.55816 0
M  V30 9824 C 936.867 0.978873 -1.81939 0
M  V30 9825 C 937.275 1.79041 -0.611647 0
M  V30 9826 O 936.618 1.78616 0.429172 0
M  V30 9827 C 936.68 1.9569 -3.01572 0
M  V30 9828 C 936.344 1.33131 -4.37178 0
M  V30 9829 C 937.341 0.728585 -5.1477 0
M  V30 9830 C 935.026 1.34755 -4.83887 0
M  V30 9831 C 937.02 0.150427 -6.37222 0
M  V30 9832 C 934.707 0.765539 -6.06286 0
M  V30 9833 C 935.705 0.168017 -6.82793 0
M  V30 9834 O 935.393 -0.404976 -8.02879 0
M  V30 9835 H 935.125 0.293186 -0.609113 0
M  V30 9836 H 937.679 0.261384 -2.0373 0
M  V30 9837 H 935.909 2.71298 -2.75562 0
M  V30 9838 H 937.598 2.56362 -3.14695 0
M  V30 9839 H 938.364 0.708477 -4.79797 0
M  V30 9840 H 934.243 1.80202 -4.24321 0
M  V30 9841 H 937.787 -0.316586 -6.96881 0
M  V30 9842 H 933.684 0.78301 -6.40733 0
M  V30 9843 H 934.452 -0.29785 -8.17958 0
M  V30 9844 N 937.115 1.49373 0.502552 0
M  V30 9845 C 938.062 1.65927 1.60427 0
M  V30 9846 C 939.032 0.500768 1.58371 0
M  V30 9847 O 940.217 0.727606 1.76382 0
M  V30 9848 C 937.357 1.73043 2.9858 0
M  V30 9849 C 936.47 3.00187 3.10663 0
M  V30 9850 C 935.605 2.98292 4.3954 0
M  V30 9851 C 934.644 4.20022 4.4525 0
M  V30 9852 N 933.781 4.16046 5.65553 0
M  V30 9853 H 938.621 2.59998 1.45619 0
M  V30 9854 H 936.158 1.28912 0.708519 0
M  V30 9855 H 938.116 1.7515 3.78653 0
M  V30 9856 H 936.746 0.824397 3.12095 0
M  V30 9857 H 935.798 3.07699 2.23663 0
M  V30 9858 H 937.11 3.9018 3.10742 0
M  V30 9859 H 936.264 2.98953 5.27932 0
M  V30 9860 H 935.003 2.06075 4.42023 0
M  V30 9861 H 934.008 4.19607 3.5526 0
M  V30 9862 H 935.233 5.13431 4.44484 0
M  V30 9863 H 933.179 3.26665 5.68881 0
M  V30 9864 H 933.096 4.99773 5.67242 0
M  V30 9865 H 934.364 4.20807 6.56156 0
M  V30 9866 N 938.594 -0.753485 1.38421 0
M  V30 9867 C 939.541 -1.86723 1.35659 0
M  V30 9868 C 940.511 -1.64648 0.219121 0
M  V30 9869 O 941.696 -1.86313 0.411366 0
M  V30 9870 C 938.836 -3.24023 1.18758 0
M  V30 9871 C 937.949 -3.57928 2.41892 0
M  V30 9872 C 937.084 -4.84532 2.17721 0
M  V30 9873 C 936.123 -5.11224 3.36626 0
M  V30 9874 N 935.26 -6.29023 3.11889 0
M  V30 9875 H 940.1 -1.88419 2.30873 0
M  V30 9876 H 937.637 -0.920934 1.14705 0
M  V30 9877 H 939.595 -4.03252 1.06974 0
M  V30 9878 H 938.225 -3.21654 0.27182 0
M  V30 9879 H 937.277 -2.73541 2.64347 0
M  V30 9880 H 938.589 -3.73581 3.30513 0
M  V30 9881 H 937.743 -5.71704 2.03074 0
M  V30 9882 H 936.482 -4.71018 1.26465 0
M  V30 9883 H 935.487 -4.2252 3.51791 0
M  V30 9884 H 936.712 -5.26635 4.28757 0
M  V30 9885 H 934.658 -6.16832 2.2328 0
M  V30 9886 H 934.575 -6.45177 3.9406 0
M  V30 9887 H 935.843 -7.19083 3.00898 0
M  V30 9888 N 940.072 -1.23292 -0.981677 0
M  V30 9889 C 941.488 -0.995295 -1.24764 0
M  V30 9890 C 941.688 0.304379 -1.99188 0
M  V30 9891 O 940.744 1.02414 -2.30798 0
M  V30 9892 C 942.057 -2.20135 -2.04844 0
M  V30 9893 C 943.605 -2.24612 -2.17988 0
M  V30 9894 C 944.08 -3.448 -3.01458 0
M  V30 9895 N 945.571 -3.45031 -3.09044 0
M  V30 9896 C 946.306 -4.34683 -3.7395 0
M  V30 9897 N 945.802 -5.34569 -4.4069 0
M  V30 9898 N 947.595 -4.22429 -3.70823 0
M  V30 9899 H 939.746 -2.06834 -0.483052 0
M  V30 9900 H 942.009 -0.906929 -0.276014 0
M  V30 9901 H 941.715 -3.14446 -1.57532 0
M  V30 9902 H 941.589 -2.21115 -3.05594 0
M  V30 9903 H 943.976 -1.30841 -2.64508 0
M  V30 9904 H 944.057 -2.27664 -1.16631 0
M  V30 9905 H 943.701 -4.38877 -2.55635 0
M  V30 9906 H 943.631 -3.38988 -4.02982 0
M  V30 9907 H 946.122 -2.72759 -2.61555 0
M  V30 9908 H 946.435 -5.99236 -4.87991 0
M  V30 9909 H 944.78 -5.3847 -4.39403 0
M  V30 9910 H 947.971 -3.43639 -3.17851 0
M  V30 9911 H 948.144 -4.92501 -4.21126 0
M  V30 9912 N 941.55 1.18024 -1.04442 0
M  V30 9913 C 942.48 2.23988 -0.659683 0
M  V30 9914 C 943.461 1.6669 0.338904 0
M  V30 9915 O 944.646 1.92971 0.21817 0
M  V30 9916 C 941.776 3.4729 -0.0257672 0
M  V30 9917 C 940.73 4.17362 -0.948299 0
M  V30 9918 C 940.056 5.34401 -0.17866 0
M  V30 9919 C 941.356 4.70435 -2.26909 0
M  V30 9920 H 943.05 2.56425 -1.54553 0
M  V30 9921 H 940.596 1.23256 -0.744575 0
M  V30 9922 H 942.549 4.20627 0.255131 0
M  V30 9923 H 941.273 3.14098 0.894981 0
M  V30 9924 H 939.932 3.45928 -1.21364 0
M  V30 9925 H 939.58 4.97458 0.744614 0
M  V30 9926 H 939.28 5.8222 -0.793294 0
M  V30 9927 H 940.804 6.10526 0.0951315 0
M  V30 9928 H 942.218 5.35447 -2.04864 0
M  V30 9929 H 940.615 5.28803 -2.83703 0
M  V30 9930 H 941.685 3.87653 -2.91296 0
M  V30 9931 N 943.028 0.824394 1.34319 0
M  V30 9932 C 944.276 0.41235 1.97849 0
M  V30 9933 C 944.597 -1.02841 1.65677 0
M  V30 9934 O 943.867 -1.71421 0.948245 0
M  V30 9935 H 942.447 0.149486 0.73189 0
M  V30 9936 H 945.109 1.05416 1.63931 0
M  V30 9937 H 944.205 0.532557 3.07523 0
M  V30 9938 N 944.506 -1.46559 0.579492 0
M  V30 9939 C 945.755 -2.01606 0.0615735 0
M  V30 9940 C 946.068 -1.45695 -1.30508 0
M  V30 9941 O 947.274 -1.92541 -1.91416 0
M  V30 9942 C 945.73 -3.59851 0.059496 0
M  V30 9943 C 945.338 -4.24757 1.42427 0
M  V30 9944 C 947.082 -4.22567 -0.404646 0
M  V30 9945 C 944.989 -5.75072 1.38009 0
M  V30 9946 H 943.919 -0.753754 0.0192491 0
M  V30 9947 H 946.57 -1.68326 0.73066 0
M  V30 9948 H 944.952 -3.90193 -0.675691 0
M  V30 9949 H 946.126 -4.06029 2.17893 0
M  V30 9950 H 944.441 -3.74121 1.82817 0
M  V30 9951 H 947.038 -5.32748 -0.456441 0
M  V30 9952 H 947.381 -3.91279 -1.42149 0
M  V30 9953 H 947.914 -3.96839 0.276376 0
M  V30 9954 H 944.653 -6.11014 2.37364 0
M  V30 9955 H 944.173 -5.96073 0.667583 0
M  V30 9956 H 945.852 -6.37724 1.09163 0
M  V30 9957 N 945.984 -0.3171 -1.54377 0
M  V30 9958 C 946.932 0.567371 -2.25574 0
M  V30 9959 C 947.926 1.12387 -1.2675 0
M  V30 9960 O 949.132 1.07266 -1.44548 0
M  V30 9961 H 945.507 0.201605 -0.724472 0
M  V30 9962 H 947.478 -0.0554644 -2.98348 0
M  V30 9963 C 946.227 1.71984 -3.02187 0
M  V30 9964 H 945.55 1.30086 -3.78044 0
M  V30 9965 H 946.99 2.31443 -3.5526 0
M  V30 9966 C 945.449 2.6336 -2.10103 0
M  V30 9967 O 945.979 3.64899 -1.67962 0
M  V30 9968 N 944.185 2.3145 -1.75725 0
M  V30 9969 H 943.732 1.48921 -2.10191 0
M  V30 9970 H 943.69 2.92852 -1.14391 0
M  V30 9971 N 947.462 1.57535 -0.0451378 0
M  V30 9972 C 948.392 2.14208 0.929372 0
M  V30 9973 C 949.373 1.06221 1.32858 0
M  V30 9974 O 950.558 1.34132 1.40436 0
M  V30 9975 C 947.688 2.68217 2.20629 0
M  V30 9976 C 946.642 3.81134 1.94734 0
M  V30 9977 C 945.968 4.21636 3.28828 0
M  V30 9978 C 947.268 5.06531 1.27374 0
M  V30 9979 H 948.962 2.95886 0.457348 0
M  V30 9980 H 946.508 1.42332 0.218544 0
M  V30 9981 H 948.461 3.06502 2.89196 0
M  V30 9982 H 947.185 1.83722 2.70026 0
M  V30 9983 H 945.844 3.43312 1.28579 0
M  V30 9984 H 945.492 3.34099 3.76014 0
M  V30 9985 H 945.192 4.97736 3.12302 0
M  V30 9986 H 946.716 4.62516 3.98637 0
M  V30 9987 H 948.13 5.423 1.85967 0
M  V30 9988 H 946.527 5.87735 1.21194 0
M  V30 9989 H 947.597 4.84261 0.248913 0
M  V30 9990 N 948.94 -0.228186 1.55939 0
M  V30 9991 C 949.87 -1.28607 1.94891 0
M  V30 9992 C 950.851 -1.49236 0.816245 0
M  V30 9993 O 952.036 -1.61531 1.07803 0
M  V30 9994 C 949.166 -2.63719 2.25986 0
M  V30 9995 C 948.12 -2.57757 3.4168 0
M  V30 9996 C 947.446 -3.96837 3.58364 0
M  V30 9997 C 948.746 -2.13116 4.76843 0
M  V30 9998 H 950.44 -0.962531 2.83506 0
M  V30 9999 H 947.986 -0.461577 1.36402 0
M  V30 10000 H 949.939 -3.37878 2.51826 0
M  V30 10001 H 948.663 -2.97747 1.34217 0
M  V30 10002 H 947.322 -1.86055 3.15878 0
M  V30 10003 H 946.97 -4.28162 2.63982 0
M  V30 10004 H 946.67 -3.93731 4.36176 0
M  V30 10005 H 948.194 -4.72668 3.86545 0
M  V30 10006 H 949.608 -2.77015 5.01932 0
M  V30 10007 H 948.005 -2.21083 5.57891 0
M  V30 10008 H 949.075 -1.08326 4.72645 0
M  V30 10009 N 950.418 -1.49637 -0.494624 0
M  V30 10010 C 951.666 -1.5913 -1.24587 0
M  V30 10011 C 951.987 -0.282828 -1.92938 0
M  V30 10012 O 951.257 0.69825 -1.83034 0
M  V30 10013 H 949.837 -0.586329 -0.462847 0
M  V30 10014 H 952.499 -1.86296 -0.572696 0
M  V30 10015 H 951.595 -2.3906 -2.00641 0
M  V30 10016 N 951.896 0.746133 -1.38819 0
M  V30 10017 C 953.144 1.50247 -1.35167 0
M  V30 10018 C 953.465 1.94921 0.0553531 0
M  V30 10019 O 952.735 1.68187 1.00449 0
M  V30 10020 H 951.315 0.557337 -0.497377 0
M  V30 10021 H 953.977 0.886472 -1.73573 0
M  V30 10022 H 953.073 2.38986 -2.00728 0
M  V30 10023 N 953.375 1.23811 0.975125 0
M  V30 10024 C 954.786 1.0675 1.53171 0
M  V30 10025 C 955.137 -0.363475 1.92804 0
M  V30 10026 O 954.262 -1.25089 1.76583 0
M  V30 10027 C 954.857 1.93161 2.78342 0
M  V30 10028 C 953.416 1.80346 3.30382 0
M  V30 10029 C 952.563 1.88544 2.03338 0
M  V30 10030 H 955.514 1.37396 0.79423 0
M  V30 10031 H 955.535 1.45951 3.51395 0
M  V30 10032 H 955.047 2.97302 2.49465 0
M  V30 10033 H 953.148 0.790077 3.64127 0
M  V30 10034 H 953.261 2.64026 3.99784 0
M  V30 10035 H 951.625 1.32186 2.17713 0
M  V30 10036 H 952.408 2.94252 1.76836 0
M  V30 10037 N 954.853 -1.17469 1.05066 0
M  V30 10038 C 955.783 -2.23635 0.671552 0
M  V30 10039 C 956.764 -1.66867 -0.33006 0
M  V30 10040 O 957.949 -1.93084 -0.207933 0
M  V30 10041 C 955.079 -3.47272 0.0441845 0
M  V30 10042 C 954.033 -4.16854 0.97042 0
M  V30 10043 C 953.359 -5.34299 0.206998 0
M  V30 10044 C 954.659 -4.69225 2.29401 0
M  V30 10045 H 956.353 -2.55602 1.55911 0
M  V30 10046 H 953.899 -1.2286 0.751101 0
M  V30 10047 H 955.852 -4.20756 -0.23282 0
M  V30 10048 H 954.576 -3.14568 -0.878311 0
M  V30 10049 H 953.235 -3.4528 1.23197 0
M  V30 10050 H 952.883 -4.97846 -0.718222 0
M  V30 10051 H 952.583 -5.81792 0.82416 0
M  V30 10052 H 954.107 -6.10568 -0.0627525 0
M  V30 10053 H 955.521 -5.34353 2.077 0
M  V30 10054 H 953.918 -5.27291 2.86503 0
M  V30 10055 H 954.988 -3.86102 2.93348 0
M  V30 10056 N 956.331 -0.831506 -1.3388 0
M  V30 10057 C 957.579 -0.422837 -1.97627 0
M  V30 10058 C 957.9 1.01961 -1.6622 0
M  V30 10059 O 957.17 1.70916 -0.957323 0
M  V30 10060 H 955.75 -0.153365 -0.731087 0
M  V30 10061 H 958.412 -1.06284 -1.6337 0
M  V30 10062 H 957.508 -0.548858 -3.07236 0
M  V30 10063 N 957.809 1.4625 -0.587256 0
M  V30 10064 C 959.057 2.01963 -0.0744273 0
M  V30 10065 C 959.378 1.46065 1.29189 0
M  V30 10066 O 958.648 0.647077 1.84905 0
M  V30 10067 H 957.228 0.746597 -0.0245236 0
M  V30 10068 H 959.89 1.79299 -0.764063 0
M  V30 10069 H 958.986 3.12099 -0.00884894 0
M  V30 10070 N 959.287 0.325282 1.54207 0
M  V30 10071 C 960.234 -0.539889 2.24397 0
M  V30 10072 C 961.204 -1.11028 1.2354 0
M  V30 10073 O 962.389 -1.1503 1.52226 0
M  V30 10074 C 959.529 -1.69405 3.00659 0
M  V30 10075 C 958.642 -1.15273 4.16337 0
M  V30 10076 C 957.777 -2.27272 4.80126 0
M  V30 10077 C 956.816 -1.70397 5.87904 0
M  V30 10078 N 955.953 -2.76065 6.45548 0
M  V30 10079 H 960.793 0.0652318 2.97929 0
M  V30 10080 H 958.33 0.043964 1.47034 0
M  V30 10081 H 960.288 -2.37325 3.43122 0
M  V30 10082 H 958.918 -2.27043 2.29458 0
M  V30 10083 H 957.97 -0.365034 3.78645 0
M  V30 10084 H 959.282 -0.696576 4.93912 0
M  V30 10085 H 958.436 -3.03092 5.25566 0
M  V30 10086 H 957.175 -2.76224 4.01935 0
M  V30 10087 H 956.18 -0.930752 5.41864 0
M  V30 10088 H 957.405 -1.22319 6.67993 0
M  V30 10089 H 955.351 -3.24306 5.7023 0
M  V30 10090 H 955.268 -2.35018 7.18542 0
M  V30 10091 H 956.536 -3.5171 6.95644 0
M  V30 10092 N 960.765 -1.57509 0.0534917 0
M  V30 10093 C 961.697 -2.08616 -0.949322 0
M  V30 10094 C 962.71 -1.01446 -1.27328 0
M  V30 10095 O 963.899 -1.29007 -1.23367 0
M  V30 10096 C 960.999 -2.51622 -2.27024 0
M  V30 10097 C 960.172 -3.82154 -2.12785 0
M  V30 10098 C 959.231 -4.11448 -3.2802 0
M  V30 10099 O 958.257 -4.81333 -3.03822 0
M  V30 10100 N 959.459 -3.63543 -4.52567 0
M  V30 10101 H 962.224 -2.95275 -0.5131 0
M  V30 10102 H 959.785 -1.61355 -0.132693 0
M  V30 10103 H 961.777 -2.68293 -3.02986 0
M  V30 10104 H 960.347 -1.70198 -2.62205 0
M  V30 10105 H 959.567 -3.75041 -1.21399 0
M  V30 10106 H 960.855 -4.67629 -2.00501 0
M  V30 10107 H 960.253 -3.07051 -4.75117 0
M  V30 10108 H 958.81 -3.85448 -5.25617 0
M  V30 10109 N 962.243 0.219913 -1.56058 0
M  V30 10110 C 963.489 0.945463 -1.79412 0
M  V30 10111 C 963.822 1.83922 -0.62341 0
M  V30 10112 O 963.097 1.90806 0.377256 0
M  V30 10113 C 963.38 1.783 -3.1286 0
M  V30 10114 C 963.233 0.915626 -4.40382 0
M  V30 10115 C 964.552 2.76045 -3.42764 0
M  V30 10116 H 961.671 0.342288 -0.652693 0
M  V30 10117 H 964.313 0.214235 -1.88788 0
M  V30 10118 H 962.463 2.40642 -3.04998 0
M  V30 10119 H 964.135 0.30882 -4.60265 0
M  V30 10120 H 962.378 0.221124 -4.33236 0
M  V30 10121 H 963.049 1.53607 -5.30197 0
M  V30 10122 H 965.525 2.23838 -3.50764 0
M  V30 10123 H 964.401 3.31748 -4.37304 0
M  V30 10124 H 964.662 3.53866 -2.65012 0
M  V30 10125 N 963.721 1.49897 0.486681 0
M  V30 10126 C 964.97 1.59349 1.23656 0
M  V30 10127 C 965.283 0.292024 1.93408 0
M  V30 10128 O 966.489 0.265258 2.70201 0
M  V30 10129 C 964.945 2.81215 2.24602 0
M  V30 10130 C 964.553 4.18177 1.60725 0
M  V30 10131 C 966.297 3.00004 3.00329 0
M  V30 10132 C 964.204 5.31247 2.59866 0
M  V30 10133 H 963.134 0.593363 0.465227 0
M  V30 10134 H 965.785 1.76306 0.508769 0
M  V30 10135 H 964.167 2.57783 3.00606 0
M  V30 10136 H 965.341 4.51802 0.90616 0
M  V30 10137 H 963.656 4.04864 0.973362 0
M  V30 10138 H 966.253 3.81649 3.74497 0
M  V30 10139 H 966.596 2.1112 3.58795 0
M  V30 10140 H 967.129 3.23544 2.3144 0
M  V30 10141 H 963.868 6.22236 2.06161 0
M  V30 10142 H 963.388 5.02059 3.28172 0
M  V30 10143 H 965.067 5.61177 3.22009 0
M  V30 10144 N 965.199 -0.738761 1.39212 0
M  V30 10145 C 966.615 -1.04381 1.20734 0
M  V30 10146 C 966.815 -2.01391 0.0663082 0
M  V30 10147 O 965.871 -2.45672 -0.583229 0
M  V30 10148 C 967.184 -1.6097 2.53987 0
M  V30 10149 C 968.732 -1.73069 2.60799 0
M  V30 10150 C 969.207 -2.33067 3.94264 0
M  V30 10151 N 970.698 -2.40481 3.95883 0
M  V30 10152 C 971.433 -2.87834 4.95923 0
M  V30 10153 N 970.929 -3.35111 6.0636 0
M  V30 10154 N 972.722 -2.87009 4.83304 0
M  V30 10155 H 964.873 -0.0952996 2.12186 0
M  V30 10156 H 967.136 -0.104902 0.942178 0
M  V30 10157 H 966.842 -0.971548 3.38015 0
M  V30 10158 H 966.716 -2.59829 2.73439 0
M  V30 10159 H 969.103 -2.36007 1.77157 0
M  V30 10160 H 969.184 -0.728728 2.452 0
M  V30 10161 H 968.828 -1.70758 4.78335 0
M  V30 10162 H 968.758 -3.33933 4.07181 0
M  V30 10163 H 971.249 -2.07061 3.16123 0
M  V30 10164 H 971.562 -3.69742 6.78609 0
M  V30 10165 H 969.907 -3.33129 6.09959 0
M  V30 10166 H 973.098 -2.49395 3.96131 0
M  V30 10167 H 973.271 -3.23598 5.61416 0
M  V30 10168 N 966.677 -1.24326 -0.968545 0
M  V30 10169 C 967.923 -1.08406 -1.71394 0
M  V30 10170 C 968.256 0.376353 -1.90518 0
M  V30 10171 O 967.531 1.27816 -1.46606 0
M  V30 10172 C 967.814 -1.82344 -3.1052 0
M  V30 10173 C 967.667 -3.3613 -2.98893 0
M  V30 10174 C 968.986 -1.59545 -4.10163 0
M  V30 10175 H 966.105 -0.395205 -0.622079 0
M  V30 10176 H 968.747 -1.52983 -1.12677 0
M  V30 10177 H 966.897 -1.44452 -3.60646 0
M  V30 10178 H 968.569 -3.83614 -2.56199 0
M  V30 10179 H 966.812 -3.64553 -2.35124 0
M  V30 10180 H 967.483 -3.83064 -3.97449 0
M  V30 10181 H 969.959 -1.92504 -3.68892 0
M  V30 10182 H 968.835 -2.13736 -5.05577 0
M  V30 10183 H 969.096 -0.533503 -4.38869 0
M  V30 10184 N 968.156 1.1691 -1.05688 0
M  V30 10185 C 969.381 1.91745 -0.790478 0
M  V30 10186 C 969.806 1.76568 0.648478 0
M  V30 10187 O 969.164 1.08682 1.45114 0
M  V30 10188 C 969.212 3.4067 -1.18222 0
M  V30 10189 O 968.316 4.11177 -0.317341 0
M  V30 10190 H 967.657 0.5976 -0.28943 0
M  V30 10191 H 970.187 1.48157 -1.41105 0
M  V30 10192 H 970.197 3.91424 -1.15114 0
M  V30 10193 H 968.872 3.51036 -2.2304 0
M  V30 10194 H 967.449 3.70645 -0.409459 0
M  V30 10195 N 969.634 0.838594 1.33437 0
M  V30 10196 C 970.874 0.440239 1.99603 0
M  V30 10197 C 971.238 -0.982061 1.64984 0
M  V30 10198 O 972.439 -1.48413 2.24114 0
M  V30 10199 C 970.71 0.654201 3.51362 0
M  V30 10200 S 972.269 0.351025 4.37394 0
M  V30 10201 H 969.087 0.165608 0.691444 0
M  V30 10202 H 971.689 1.08782 1.6244 0
M  V30 10203 H 970.393 1.68873 3.74045 0
M  V30 10204 H 969.924 -0.00754449 3.93399 0
M  V30 10205 H 971.939 -0.829298 4.89221 0
M  V30 10206 N 971.112 -1.45937 0.595003 0
M  V30 10207 C 972.36 -2.01921 0.0851368 0
M  V30 10208 C 972.681 -1.46748 -1.28413 0
M  V30 10209 O 971.951 -0.656873 -1.84559 0
M  V30 10210 H 970.531 -0.746457 0.0284826 0
M  V30 10211 H 973.193 -1.78891 0.773561 0
M  V30 10212 H 972.289 -3.1209 0.0254002 0
M  V30 10213 N 972.59 -0.333456 -1.54032 0
M  V30 10214 C 973.867 0.320902 -1.9295 0
M  V30 10215 C 974.247 1.69071 -1.26405 0
M  V30 10216 O 973.595 2.24768 -0.411311 0
M  V30 10217 C 973.805 0.403257 -3.46662 0
M  V30 10218 C 975.153 0.658875 -4.19457 0
M  V30 10219 O 976.177 0.485781 -3.52872 0
M  V30 10220 O 975.036 0.993475 -5.37394 0
M  V30 10221 H 972.13 0.185158 -0.806006 0
M  V30 10222 H 974.676 -0.383895 -1.65301 0
M  V30 10223 H 973.448 -0.558409 -3.87295 0
M  V30 10224 H 973.071 1.15524 -3.80447 0
M  V30 10225 N 974.068 1.57479 -0.061844 0
M  V30 10226 C 974.978 2.15645 0.923826 0
M  V30 10227 C 975.994 1.117 1.33413 0
M  V30 10228 O 977.17 1.4392 1.40887 0
M  V30 10229 C 974.235 2.69857 2.17665 0
M  V30 10230 C 973.296 3.88638 1.8237 0
M  V30 10231 C 972.529 4.40256 3.01679 0
M  V30 10232 O 972.752 3.90908 4.15388 0
M  V30 10233 O 971.686 5.31713 2.82073 0
M  V30 10234 H 975.512 3.0021 0.459094 0
M  V30 10235 H 973.097 1.48534 0.160665 0
M  V30 10236 H 974.979 3.04647 2.9115 0
M  V30 10237 H 973.654 1.88357 2.63255 0
M  V30 10238 H 972.561 3.58719 1.06167 0
M  V30 10239 H 973.894 4.71401 1.4157 0
M  V30 10240 N 975.546 -0.211634 1.56173 0
M  V30 10241 C 976.793 -0.93455 1.79645 0
M  V30 10242 C 977.121 -1.83936 0.632294 0
M  V30 10243 O 976.376 -1.91919 -0.382841 0
M  V30 10244 C 976.675 -1.79657 3.08963 0
M  V30 10245 C 976.341 -1.04415 4.38644 0
M  V30 10246 C 975.003 -0.836351 4.73876 0
M  V30 10247 C 977.355 -0.51355 5.18664 0
M  V30 10248 C 974.683 -0.0861976 5.86637 0
M  V30 10249 C 977.035 0.223309 6.32206 0
M  V30 10250 C 975.699 0.442279 6.66033 0
M  V30 10251 H 974.969 -0.341976 0.657368 0
M  V30 10252 H 977.616 -0.202024 1.90431 0
M  V30 10253 H 975.921 -2.59726 2.93342 0
M  V30 10254 H 977.618 -2.35823 3.24328 0
M  V30 10255 H 974.208 -1.21611 4.10985 0
M  V30 10256 H 978.392 -0.661541 4.91871 0
M  V30 10257 H 973.648 0.0935866 6.11328 0
M  V30 10258 H 977.822 0.641917 6.93435 0
M  V30 10259 H 975.449 1.02547 7.53252 0
M  V30 10260 N 977.024 -1.50153 -0.478725 0
M  V30 10261 C 978.252 -1.64505 -1.25482 0
M  V30 10262 C 978.667 -0.325295 -1.85977 0
M  V30 10263 O 978.024 0.691885 -1.68876 0
M  V30 10264 C 978.075 -2.73052 -2.36906 0
M  V30 10265 O 977.796 -3.99911 -1.78894 0
M  V30 10266 C 979.297 -2.98309 -3.27912 0
M  V30 10267 H 976.517 -0.55318 -0.379781 0
M  V30 10268 H 979.061 -1.96329 -0.57229 0
M  V30 10269 H 977.216 -2.43944 -3.00949 0
M  V30 10270 H 977.63 -4.5988 -2.52211 0
M  V30 10271 H 979.104 -3.77942 -4.02323 0
M  V30 10272 H 979.581 -2.09082 -3.8624 0
M  V30 10273 H 980.187 -3.2892 -2.69614 0
M  V30 10274 N 978.502 0.731368 -1.39602 0
M  V30 10275 C 979.751 1.48647 -1.36334 0
M  V30 10276 C 980.064 1.95565 0.0367383 0
M  V30 10277 O 981.27 2.7082 0.192017 0
M  V30 10278 C 979.726 2.68616 -2.39528 0
M  V30 10279 C 979.334 2.28632 -3.85268 0
M  V30 10280 C 981.078 3.46422 -2.45341 0
M  V30 10281 C 978.985 3.45345 -4.80095 0
M  V30 10282 H 977.915 0.558218 -0.506861 0
M  V30 10283 H 980.566 0.797467 -1.65266 0
M  V30 10284 H 978.948 3.39609 -2.03671 0
M  V30 10285 H 980.122 1.65162 -4.30184 0
M  V30 10286 H 978.437 1.63909 -3.82783 0
M  V30 10287 H 981.034 4.33241 -3.13379 0
M  V30 10288 H 981.377 3.8914 -1.47904 0
M  V30 10289 H 981.91 2.82461 -2.80108 0
M  V30 10290 H 978.649 3.07674 -5.78807 0
M  V30 10291 H 978.169 4.07784 -4.39855 0
M  V30 10292 H 979.848 4.1163 -4.99169 0
M  V30 10293 N 979.98 1.24838 0.961938 0
M  V30 10294 C 980.943 1.04674 2.03902 0
M  V30 10295 C 981.943 0.00204674 1.608 0
M  V30 10296 O 983.133 0.243555 1.72489 0
M  V30 10297 C 980.265 0.587736 3.35795 0
M  V30 10298 H 981.458 2.00278 2.23223 0
M  V30 10299 H 979.011 1.07142 1.138 0
M  V30 10300 H 979.746 -0.371244 3.22168 0
M  V30 10301 H 979.531 1.34182 3.68426 0
M  V30 10302 H 981.021 0.467867 4.14971 0
M  V30 10303 N 981.458 -1.16348 1.06306 0
M  V30 10304 C 982.421 -2.18941 0.678053 0
M  V30 10305 C 983.421 -1.58409 -0.276277 0
M  V30 10306 O 984.611 -1.74101 -0.0586435 0
M  V30 10307 C 981.743 -3.409 -0.00228684 0
M  V30 10308 H 982.936 -2.54516 1.58624 0
M  V30 10309 H 980.489 -1.30625 0.858298 0
M  V30 10310 H 981.224 -3.10881 -0.923212 0
M  V30 10311 H 981.009 -3.86089 0.683949 0
M  V30 10312 H 982.499 -4.16806 -0.257374 0
M  V30 10313 N 982.937 -0.845659 -1.3299 0
M  V30 10314 C 984.165 -0.45835 -2.01759 0
M  V30 10315 C 984.58 0.94239 -1.63598 0
M  V30 10316 O 983.937 1.61353 -0.852738 0
M  V30 10317 C 983.988 -0.577311 -3.5686 0
M  V30 10318 O 983.709 -1.92287 -3.93646 0
M  V30 10319 C 985.21 -0.187839 -4.42902 0
M  V30 10320 H 982.43 -0.181165 -0.646081 0
M  V30 10321 H 984.974 -1.14011 -1.6977 0
M  V30 10322 H 983.129 0.0566146 -3.87359 0
M  V30 10323 H 983.543 -1.91322 -4.88361 0
M  V30 10324 H 985.017 -0.322105 -5.51059 0
M  V30 10325 H 985.494 0.870896 -4.30479 0
M  V30 10326 H 986.1 -0.796473 -4.17776 0
M  V30 10327 N 984.415 1.45619 -0.602734 0
M  V30 10328 C 985.692 1.9558 -0.0282472 0
M  V30 10329 C 986.072 1.54523 1.43826 0
M  V30 10330 O 985.42 0.805456 2.13833 0
M  V30 10331 C 985.63 3.48298 -0.221263 0
M  V30 10332 C 986.978 4.24483 -0.0995249 0
M  V30 10333 O 988.002 3.55879 -0.151132 0
M  V30 10334 O 986.861 5.46497 0.0194454 0
M  V30 10335 H 983.955 0.826104 0.0384897 0
M  V30 10336 H 986.501 1.55808 -0.672456 0
M  V30 10337 H 985.273 3.71134 -1.23997 0
M  V30 10338 H 984.896 3.94948 0.458437 0
M  V30 10339 N 985.893 0.34162 1.53853 0
M  V30 10340 C 987.17 -0.310664 1.93117 0
M  V30 10341 C 987.55 -1.68398 1.273 0
M  V30 10342 O 986.898 -2.24546 0.423225 0
M  V30 10343 C 987.108 -0.384867 3.46871 0
M  V30 10344 C 988.456 -0.636621 4.198 0
M  V30 10345 O 989.48 -0.467061 3.53125 0
M  V30 10346 O 988.339 -0.964962 5.37913 0
M  V30 10347 H 985.433 -0.180881 0.806977 0
M  V30 10348 H 987.979 0.392656 1.65095 0
M  V30 10349 H 986.751 0.57894 3.86994 0
M  V30 10350 H 986.374 -1.13505 3.81054 0
M  V30 10351 N 987.371 -1.57444 0.0701946 0
M  V30 10352 C 988.319 -2.13834 -0.915302 0
M  V30 10353 C 989.313 -1.07483 -1.30934 0
M  V30 10354 O 990.519 -1.25865 -1.28678 0
M  V30 10355 H 986.894 -0.683716 -0.313108 0
M  V30 10356 H 988.865 -2.95503 -0.414758 0
M  V30 10357 C 987.614 -2.71355 -2.17398 0
M  V30 10358 H 986.937 -3.52861 -1.87961 0
M  V30 10359 H 988.377 -3.1441 -2.84469 0
M  V30 10360 C 986.836 -1.66038 -2.93143 0
M  V30 10361 O 987.366 -1.08443 -3.86786 0
M  V30 10362 N 985.572 -1.3711 -2.56221 0
M  V30 10363 H 985.119 -1.84135 -1.80145 0
M  V30 10364 H 985.077 -0.66877 -3.07205 0
M  V30 10365 N 988.849 0.203349 -1.56283 0
M  V30 10366 C 989.799 1.25595 -1.90289 0
M  V30 10367 C 990.783 1.41403 -0.767732 0
M  V30 10368 O 991.975 1.43912 -1.03046 0
M  V30 10369 C 989.104 2.60255 -2.23881 0
M  V30 10370 C 988.19 2.48274 -3.43833 0
M  V30 10371 N 988.581 2.05963 -4.61966 0
M  V30 10372 C 986.879 2.79188 -3.47808 0
M  V30 10373 C 987.58 2.05674 -5.44126 0
M  V30 10374 N 986.556 2.46862 -4.84314 0
M  V30 10375 H 990.358 0.920016 -2.79129 0
M  V30 10376 H 987.872 0.411829 -1.57091 0
M  V30 10377 H 989.869 3.36274 -2.46425 0
M  V30 10378 H 988.529 2.94678 -1.36363 0
M  V30 10379 H 989.54 1.76803 -4.86787 0
M  V30 10380 H 986.217 3.17863 -2.70684 0
M  V30 10381 H 987.607 1.74932 -6.48728 0
M  V30 10382 N 990.327 1.50405 0.470755 0
M  V30 10383 C 991.576 1.60652 1.21959 0
M  V30 10384 C 991.889 0.312521 1.93087 0
M  V30 10385 O 993.095 0.293901 2.69905 0
M  V30 10386 C 991.551 2.83581 2.21607 0
M  V30 10387 C 991.159 4.19858 1.5628 0
M  V30 10388 C 992.903 3.03173 2.9713 0
M  V30 10389 C 990.81 5.33974 2.54217 0
M  V30 10390 H 989.74 0.598264 0.458907 0
M  V30 10391 H 992.391 1.76836 0.490041 0
M  V30 10392 H 990.773 2.60957 2.97855 0
M  V30 10393 H 991.947 4.52738 0.85819 0
M  V30 10394 H 990.262 4.05873 0.930366 0
M  V30 10395 H 992.859 3.856 3.70428 0
M  V30 10396 H 993.202 2.14914 3.56536 0
M  V30 10397 H 993.735 3.2598 2.27995 0
M  V30 10398 H 990.474 6.24388 1.99549 0
M  V30 10399 H 989.994 5.05511 3.22829 0
M  V30 10400 H 991.673 5.64561 3.16039 0
M  V30 10401 N 991.805 -0.723954 1.39988 0
M  V30 10402 C 993.052 -1.48371 1.37812 0
M  V30 10403 C 993.38 -1.94487 -0.0223285 0
M  V30 10404 O 992.635 -1.67906 -1.00529 0
M  V30 10405 C 992.934 -2.73004 2.30659 0
M  V30 10406 C 992.6 -2.45698 3.78078 0
M  V30 10407 C 991.262 -2.37961 4.18244 0
M  V30 10408 C 993.614 -2.22601 4.71273 0
M  V30 10409 C 990.942 -2.05183 5.49652 0
M  V30 10410 C 993.294 -1.91339 6.0297 0
M  V30 10411 C 991.958 -1.82078 6.42187 0
M  V30 10412 H 991.228 -0.542929 0.504291 0
M  V30 10413 H 993.875 -0.829986 1.72579 0
M  V30 10414 H 992.18 -3.43174 1.89048 0
M  V30 10415 H 993.877 -3.31068 2.26263 0
M  V30 10416 H 990.467 -2.52603 3.46251 0
M  V30 10417 H 994.651 -2.2754 4.41066 0
M  V30 10418 H 989.907 -1.96544 5.78948 0
M  V30 10419 H 994.081 -1.72479 6.74703 0
M  V30 10420 H 991.708 -1.56446 7.43928 0
M  V30 10421 N 993.283 -1.25346 -0.955304 0
M  V30 10422 C 994.246 -1.05754 -2.03344 0
M  V30 10423 C 995.246 -0.0105743 -1.60797 0
M  V30 10424 O 996.436 -0.252699 -1.72357 0
M  V30 10425 C 993.568 -0.605536 -3.35479 0
M  V30 10426 H 994.761 -2.01459 -2.22158 0
M  V30 10427 H 992.314 -1.07744 -1.1323 0
M  V30 10428 H 993.049 0.354154 -3.2236 0
M  V30 10429 H 992.834 -1.36134 -3.67709 0
M  V30 10430 H 994.324 -0.489867 -4.14717 0
M  V30 10431 N 994.761 1.15782 -1.06922 0
M  V30 10432 C 996.007 1.86975 -0.800747 0
M  V30 10433 C 996.362 1.80512 0.665818 0
M  V30 10434 O 995.655 1.21432 1.48205 0
M  V30 10435 C 995.849 3.35284 -1.2377 0
M  V30 10436 C 995.678 3.56186 -2.74521 0
M  V30 10437 C 994.448 3.71908 -3.42071 0
M  V30 10438 C 996.646 3.54373 -3.72725 0
M  V30 10439 N 994.628 3.80821 -4.81507 0
M  V30 10440 C 995.999 3.69347 -4.97978 0
M  V30 10441 C 998.054 3.37622 -3.65945 0
M  V30 10442 C 996.757 3.69302 -6.17259 0
M  V30 10443 C 998.783 3.38873 -4.84684 0
M  V30 10444 C 998.145 3.54373 -6.08769 0
M  V30 10445 H 994.244 0.701533 -0.345507 0
M  V30 10446 H 996.828 1.38875 -1.36462 0
M  V30 10447 H 994.999 3.82011 -0.701588 0
M  V30 10448 H 996.731 3.94169 -0.917235 0
M  V30 10449 H 993.486 3.72499 -2.92475 0
M  V30 10450 H 993.91 3.89031 -5.54061 0
M  V30 10451 H 998.552 3.24562 -2.7096 0
M  V30 10452 H 996.27 3.81142 -7.1257 0
M  V30 10453 H 999.856 3.27146 -4.8111 0
M  V30 10454 H 998.736 3.55268 -6.9911 0
M  V30 10455 N 996.239 0.8527 1.3254 0
M  V30 10456 C 997.487 0.454224 1.96929 0
M  V30 10457 C 997.808 -0.993034 1.67821 0
M  V30 10458 O 997.078 -1.69371 0.984393 0
M  V30 10459 H 995.658 0.164977 0.728554 0
M  V30 10460 H 998.32 1.0887 1.61658 0
M  V30 10461 H 997.416 0.597667 3.06324 0
M  V30 10462 N 997.718 -1.45297 0.610449 0
M  V30 10463 C 998.666 -2.32295 -0.119167 0
M  V30 10464 C 999.66 -1.46138 -0.856746 0
M  V30 10465 O 1000.87 -1.62605 -0.771988 0
M  V30 10466 H 997.241 -0.749815 -0.0572881 0
M  V30 10467 H 999.212 -2.91609 0.63297 0
M  V30 10468 C 997.961 -3.29802 -1.10119 0
M  V30 10469 H 997.284 -3.96095 -0.543063 0
M  V30 10470 H 998.724 -3.93398 -1.58158 0
M  V30 10471 C 997.183 -2.57185 -2.17617 0
M  V30 10472 O 997.713 -2.35535 -3.25401 0
M  V30 10473 N 995.919 -2.17272 -1.9298 0
M  V30 10474 H 995.466 -2.3508 -1.05334 0
M  V30 10475 H 995.424 -1.69009 -2.6511 0
M  V30 10476 N 999.196 -0.349774 -1.5367 0
M  V30 10477 C 1000.44 0.244343 -2.00617 0
M  V30 10478 C 1000.76 1.50567 -1.23914 0
M  V30 10479 O 1000.03 1.92784 -0.348016 0
M  V30 10480 H 998.615 0.0932792 -0.741153 0
M  V30 10481 H 1001.28 -0.472367 -1.89089 0
M  V30 10482 H 1000.37 0.482433 -3.08349 0
M  V30 10483 N 1000.67 1.57404 -0.0785433 0
M  V30 10484 C 1001.92 1.93361 0.58786 0
M  V30 10485 C 1002.24 0.959856 1.6974 0
M  V30 10486 O 1001.51 0.0091173 1.95898 0
M  V30 10487 H 1000.09 0.713825 0.220141 0
M  V30 10488 H 1002.75 1.94411 -0.137986 0
M  V30 10489 H 1001.85 2.95346 1.00881 0
M  V30 10490 N 1002.15 -0.195058 1.56388 0
M  V30 10491 C 1003.1 -1.26122 1.95438 0
M  V30 10492 C 1004.09 -1.47117 0.839818 0
M  V30 10493 O 1005.3 -1.47978 1.02482 0
M  V30 10494 H 1001.67 -0.423422 0.621464 0
M  V30 10495 H 1003.65 -0.904854 2.8435 0
M  V30 10496 C 1002.39 -2.59858 2.31017 0
M  V30 10497 H 1001.72 -2.44519 3.16308 0
M  V30 10498 H 1003.16 -3.33205 2.62203 0
M  V30 10499 C 1001.62 -3.16853 1.14481 0
M  V30 10500 O 1002.15 -3.995 0.419853 0
M  V30 10501 N 1000.35 -2.75599 0.921604 0
M  V30 10502 H 999.9 -2.08495 1.51287 0
M  V30 10503 H 999.858 -3.14072 0.143663 0
M  V30 10504 N 1003.63 -1.50653 -0.462772 0
M  V30 10505 C 1004.88 -1.61737 -1.21184 0
M  V30 10506 C 1005.2 -0.32369 -1.92295 0
M  V30 10507 O 1004.47 0.659269 -1.84473 0
M  V30 10508 H 1003.05 -0.596015 -0.450306 0
M  V30 10509 H 1005.71 -1.87469 -0.533051 0
M  V30 10510 H 1004.81 -2.43262 -1.95525 0
M  V30 10511 N 1005.11 0.71652 -1.4037 0
M  V30 10512 C 1006.52 1.02447 -1.22379 0
M  V30 10513 C 1006.72 2.0126 -0.0983394 0
M  V30 10514 O 1005.78 2.46569 0.544071 0
M  V30 10515 C 1007.09 1.56909 -2.56515 0
M  V30 10516 C 1008.64 1.68898 -2.6352 0
M  V30 10517 C 1009.12 2.26765 -3.97922 0
M  V30 10518 N 1010.61 2.34152 -3.99658 0
M  V30 10519 C 1011.34 2.79907 -5.00439 0
M  V30 10520 N 1010.84 3.25422 -6.11615 0
M  V30 10521 N 1012.63 2.79283 -4.87809 0
M  V30 10522 H 1004.78 0.0615306 -2.12311 0
M  V30 10523 H 1007.05 0.0898994 -0.943728 0
M  V30 10524 H 1006.75 0.917649 -3.39517 0
M  V30 10525 H 1006.63 2.55446 -2.77538 0
M  V30 10526 H 1009.01 2.33159 -1.8089 0
M  V30 10527 H 1009.09 0.689626 -2.46329 0
M  V30 10528 H 1008.74 1.63126 -4.80991 0
M  V30 10529 H 1008.67 3.27413 -4.12442 0
M  V30 10530 H 1011.16 2.02006 -3.19378 0
M  V30 10531 H 1011.47 3.58899 -6.84406 0
M  V30 10532 H 1009.82 3.23383 -6.15181 0
M  V30 10533 H 1013.01 2.43061 -4.00049 0
M  V30 10534 H 1013.18 3.14626 -5.66493 0
M  V30 10535 N 1006.59 1.25851 0.948643 0
M  V30 10536 C 1007.52 1.09248 2.06367 0
M  V30 10537 C 1008.5 -0.000205168 1.701 0
M  V30 10538 O 1009.68 0.170442 1.93451 0
M  V30 10539 C 1006.81 0.716777 3.39823 0
M  V30 10540 C 1005.77 1.76036 3.90122 0
M  V30 10541 C 1005.09 1.23918 5.20143 0
M  V30 10542 C 1006.39 3.16039 4.15833 0
M  V30 10543 H 1008.09 2.02518 2.20515 0
M  V30 10544 H 1005.63 0.975093 1.05962 0
M  V30 10545 H 1007.59 0.587531 4.17284 0
M  V30 10546 H 1006.31 -0.251626 3.25629 0
M  V30 10547 H 1004.97 1.87815 3.14835 0
M  V30 10548 H 1004.62 0.260836 5.02323 0
M  V30 10549 H 1004.32 1.93673 5.54765 0
M  V30 10550 H 1005.84 1.12245 6.00194 0
M  V30 10551 H 1007.25 3.0738 4.83933 0
M  V30 10552 H 1005.65 3.83317 4.61723 0
M  V30 10553 H 1006.72 3.62652 3.21887 0
M  V30 10554 N 1008.06 -1.15214 1.07534 0
M  V30 10555 C 1009.03 -2.18209 0.701237 0
M  V30 10556 C 1010.03 -1.58693 -0.25946 0
M  V30 10557 O 1011.22 -1.74154 -0.0401744 0
M  V30 10558 C 1008.35 -3.40883 0.0338703 0
M  V30 10559 H 1009.54 -2.5282 1.61314 0
M  V30 10560 H 1007.1 -1.29707 0.872105 0
M  V30 10561 H 1007.83 -3.11843 -0.890187 0
M  V30 10562 H 1007.62 -3.85342 0.72486 0
M  V30 10563 H 1009.11 -4.17056 -0.213152 0
M  V30 10564 N 1009.54 -0.859717 -1.32086 0
M  V30 10565 C 1010.48 -0.252764 -2.26796 0
M  V30 10566 C 1011.45 0.612178 -1.50636 0
M  V30 10567 O 1012.64 0.567865 -1.79743 0
M  V30 10568 C 1009.76 0.643017 -3.3254 0
M  V30 10569 C 1008.81 -0.149211 -4.26239 0
M  V30 10570 S 1009.64 -1.52097 -5.13446 0
M  V30 10571 C 1010.8 -0.631035 -6.22711 0
M  V30 10572 H 1011.03 -1.05563 -2.77928 0
M  V30 10573 H 1008.57 -0.657639 -1.39694 0
M  V30 10574 H 1010.52 1.15418 -3.9394 0
M  V30 10575 H 1009.18 1.41974 -2.80183 0
M  V30 10576 H 1008.38 0.53328 -5.01171 0
M  V30 10577 H 1007.98 -0.592128 -3.69283 0
M  V30 10578 H 1010.27 0.162638 -6.77305 0
M  V30 10579 H 1011.21 -1.35116 -6.95089 0
M  V30 10580 H 1011.62 -0.203131 -5.64134 0
M  V30 10581 N 1011.02 1.44971 -0.618145 0
M  V30 10582 C 1012.25 2.06527 -0.124165 0
M  V30 10583 C 1012.66 1.46097 1.19588 0
M  V30 10584 O 1012.02 0.57901 1.73071 0
M  V30 10585 C 1012.07 3.61498 0.0106701 0
M  V30 10586 O 1011.79 4.19675 -1.25716 0
M  V30 10587 C 1013.29 4.40061 0.534872 0
M  V30 10588 H 1010.51 0.666941 -0.0736935 0
M  V30 10589 H 1013.06 1.8605 -0.848871 0
M  V30 10590 H 1011.21 3.81282 0.685752 0
M  V30 10591 H 1011.63 5.12972 -1.09362 0
M  V30 10592 H 1013.1 5.48963 0.57827 0
M  V30 10593 H 1013.58 4.10587 1.55931 0
M  V30 10594 H 1014.18 4.25167 -0.10652 0
M  V30 10595 N 1012.5 0.357919 1.53482 0
M  V30 10596 C 1013.91 -0.122938 1.86295 0
M  V30 10597 C 1014.26 -1.48803 1.27875 0
M  V30 10598 O 1013.39 -2.07978 0.597828 0
M  V30 10599 C 1013.98 -0.229853 3.38019 0
M  V30 10600 C 1012.54 -0.654955 3.70658 0
M  V30 10601 C 1011.69 0.202539 2.76559 0
M  V30 10602 H 1014.64 0.576997 1.47839 0
M  V30 10603 H 1014.66 -1.05481 3.65587 0
M  V30 10604 H 1014.17 0.763825 3.80509 0
M  V30 10605 H 1012.27 -1.65714 3.33721 0
M  V30 10606 H 1012.38 -0.43488 4.77122 0
M  V30 10607 H 1010.75 -0.327388 2.52587 0
M  V30 10608 H 1011.53 1.19361 3.21882 0
M  V30 10609 N 1013.98 -1.5736 0.0868897 0
M  V30 10610 C 1015.2 -1.98388 -0.587349 0
M  V30 10611 C 1015.62 -0.965757 -1.6223 0
M  V30 10612 O 1014.98 0.0456981 -1.82443 0
M  V30 10613 C 1015.03 -3.39479 -1.24242 0
M  V30 10614 O 1014.75 -4.37393 -0.248878 0
M  V30 10615 C 1016.25 -3.95465 -2.00305 0
M  V30 10616 H 1013.47 -0.652111 -0.15809 0
M  V30 10617 H 1016.01 -2.03843 0.163754 0
M  V30 10618 H 1014.17 -3.35063 -1.94451 0
M  V30 10619 H 1014.58 -5.19525 -0.720678 0
M  V30 10620 H 1016.06 -4.96363 -2.41511 0
M  V30 10621 H 1016.53 -3.32832 -2.86565 0
M  V30 10622 H 1017.14 -4.03328 -1.34931 0
M  V30 10623 N 1015.45 0.186762 -1.56489 0
M  V30 10624 C 1016.36 1.25169 -1.98419 0
M  V30 10625 C 1017.38 1.49329 -0.893124 0
M  V30 10626 O 1018.56 1.61781 -1.19954 0
M  V30 10627 C 1015.62 2.57422 -2.32239 0
M  V30 10628 C 1014.68 2.4126 -3.55095 0
M  V30 10629 C 1013.92 3.67206 -3.87292 0
M  V30 10630 O 1014.14 4.71731 -3.20665 0
M  V30 10631 O 1013.07 3.62238 -4.80695 0
M  V30 10632 H 1016.9 0.925834 -2.89244 0
M  V30 10633 H 1014.48 0.392421 -1.44154 0
M  V30 10634 H 1016.37 3.35466 -2.5503 0
M  V30 10635 H 1015.04 2.89618 -1.44579 0
M  V30 10636 H 1013.95 1.61299 -3.37541 0
M  V30 10637 H 1015.28 2.13994 -4.43247 0
M  V30 10638 N 1016.93 1.50896 0.454776 0
M  V30 10639 C 1018.35 1.38684 0.78987 0
M  V30 10640 C 1018.55 0.455587 1.96282 0
M  V30 10641 O 1017.6 -0.0957503 2.52318 0
M  V30 10642 C 1018.92 2.80381 1.08661 0
M  V30 10643 C 1020.47 2.8941 1.19209 0
M  V30 10644 C 1020.94 4.31976 1.52187 0
M  V30 10645 N 1022.43 4.35002 1.59146 0
M  V30 10646 C 1023.17 5.42326 1.862 0
M  V30 10647 N 1022.66 6.59835 2.11164 0
M  V30 10648 N 1024.46 5.29786 1.87838 0
M  V30 10649 H 1016.61 2.10006 -0.317981 0
M  V30 10650 H 1018.87 0.944636 -0.0797969 0
M  V30 10651 H 1018.58 3.50438 0.297626 0
M  V30 10652 H 1018.45 3.18634 2.01872 0
M  V30 10653 H 1020.84 2.19561 1.97173 0
M  V30 10654 H 1020.92 2.54677 0.239401 0
M  V30 10655 H 1020.56 5.02368 0.747576 0
M  V30 10656 H 1020.49 4.64208 2.48633 0
M  V30 10657 H 1022.98 3.50276 1.41828 0
M  V30 10658 H 1023.3 7.37428 2.31128 0
M  V30 10659 H 1021.64 6.62981 2.08522 0
M  V30 10660 H 1024.83 4.36974 1.67843 0
M  V30 10661 H 1025 6.13511 2.08585 0
M  V30 10662 N 1018.41 -0.709066 1.40748 0
M  V30 10663 C 1019.82 -1.28847 1.35112 0
M  V30 10664 C 1020.17 -1.9618 0.0277149 0
M  V30 10665 O 1019.3 -1.97955 -0.874233 0
M  V30 10666 C 1019.89 -2.34306 2.44716 0
M  V30 10667 C 1018.45 -2.87856 2.4252 0
M  V30 10668 C 1017.6 -1.61723 2.25257 0
M  V30 10669 H 1020.55 -0.504742 1.50459 0
M  V30 10670 H 1020.57 -3.15297 2.12998 0
M  V30 10671 H 1020.08 -1.85271 3.41022 0
M  V30 10672 H 1018.18 -3.41103 1.49931 0
M  V30 10673 H 1018.3 -3.39205 3.38344 0
M  V30 10674 H 1016.66 -1.87032 1.7289 0
M  V30 10675 H 1017.44 -1.14703 3.23571 0
M  V30 10676 N 1019.89 -1.26353 -0.941956 0
M  V30 10677 C 1020.84 -1.04513 -2.02635 0
M  V30 10678 C 1021.82 0.0222314 -1.60885 0
M  V30 10679 O 1023.02 -0.194629 -1.75927 0
M  V30 10680 C 1020.14 -0.679282 -3.36512 0
M  V30 10681 C 1019.23 -1.78406 -3.8475 0
M  V30 10682 N 1019.62 -3.02136 -4.05645 0
M  V30 10683 C 1017.92 -1.66748 -4.13656 0
M  V30 10684 C 1018.62 -3.73932 -4.45589 0
M  V30 10685 N 1017.6 -3.01616 -4.52248 0
M  V30 10686 H 1021.4 -1.9843 -2.16801 0
M  V30 10687 H 1018.91 -1.16858 -1.12774 0
M  V30 10688 H 1020.91 -0.503975 -4.13843 0
M  V30 10689 H 1019.57 0.252418 -3.23717 0
M  V30 10690 H 1020.58 -3.38049 -3.92356 0
M  V30 10691 H 1017.26 -0.805627 -4.09653 0
M  V30 10692 H 1018.65 -4.80201 -4.69954 0
M  V30 10693 N 1021.37 1.14642 -1.08144 0
M  V30 10694 C 1022.62 1.8525 -0.807885 0
M  V30 10695 C 1022.94 1.83194 0.668213 0
M  V30 10696 O 1022.21 1.27848 1.48431 0
M  V30 10697 H 1020.79 0.685909 -0.295868 0
M  V30 10698 H 1023.45 1.38935 -1.36686 0
M  V30 10699 H 1022.54 2.90155 -1.14964 0
M  V30 10700 N 1022.85 0.866709 1.31628 0
M  V30 10701 C 1024.07 0.48956 2.01539 0
M  V30 10702 C 1024.5 -0.909556 1.64647 0
M  V30 10703 O 1023.85 -1.59959 0.853391 0
M  V30 10704 C 1023.9 0.650176 3.5469 0
M  V30 10705 O 1023.01 -0.311908 4.11219 0
M  V30 10706 H 1022.35 0.195144 0.634677 0
M  V30 10707 H 1024.88 1.16923 1.679 0
M  V30 10708 H 1024.89 0.542236 4.04381 0
M  V30 10709 H 1023.56 1.67038 3.80882 0
M  V30 10710 H 1022.14 -0.159197 3.7256 0
M  V30 10711 N 1024.32 -1.44642 0.625825 0
M  V30 10712 C 1025.6 -1.9551 0.0593587 0
M  V30 10713 C 1025.98 -1.56792 -1.41349 0
M  V30 10714 O 1025.33 -0.839373 -2.12525 0
M  V30 10715 C 1025.54 -3.47902 0.276647 0
M  V30 10716 C 1026.89 -4.24271 0.167044 0
M  V30 10717 O 1027.91 -3.55594 0.207731 0
M  V30 10718 O 1026.77 -5.46458 0.0675 0
M  V30 10719 H 1023.86 -0.826612 -0.0253422 0
M  V30 10720 H 1026.41 -1.54718 0.697159 0
M  V30 10721 H 1025.18 -3.69115 1.29885 0
M  V30 10722 H 1024.8 -3.95628 -0.395547 0
M  V30 10723 N 1025.8 -0.366053 -1.5329 0
M  V30 10724 C 1027.05 0.224614 -2.00445 0
M  V30 10725 C 1027.36 1.49829 -1.2574 0
M  V30 10726 O 1028.57 2.16759 -1.63487 0
M  V30 10727 C 1027.03 0.450818 -3.57065 0
M  V30 10728 C 1026.63 -0.808257 -4.40649 0
M  V30 10729 C 1028.38 0.999116 -4.12575 0
M  V30 10730 C 1026.28 -0.551612 -5.88822 0
M  V30 10731 H 1025.21 0.0877114 -0.748881 0
M  V30 10732 H 1027.87 -0.484866 -1.76978 0
M  V30 10733 H 1026.25 1.22157 -3.76688 0
M  V30 10734 H 1027.42 -1.58184 -4.32798 0
M  V30 10735 H 1025.74 -1.27981 -3.96245 0
M  V30 10736 H 1028.33 1.20646 -5.20911 0
M  V30 10737 H 1028.68 1.96139 -3.67199 0
M  V30 10738 H 1029.21 0.288518 -3.96752 0
M  V30 10739 H 1025.95 -1.48423 -6.38475 0
M  V30 10740 H 1025.47 0.183462 -5.99519 0
M  V30 10741 H 1027.15 -0.177307 -6.46757 0
M  V30 10742 N 1027.28 1.57312 -0.0952337 0
M  V30 10743 C 1028.52 1.96239 0.571813 0
M  V30 10744 C 1028.88 0.97602 1.65342 0
M  V30 10745 O 1030.08 1.25379 2.37768 0
M  V30 10746 C 1028.36 3.39644 1.1125 0
M  V30 10747 S 1029.91 4.00568 1.7914 0
M  V30 10748 H 1026.73 0.686081 0.186585 0
M  V30 10749 H 1029.33 1.94718 -0.174669 0
M  V30 10750 H 1028.04 4.09199 0.313796 0
M  V30 10751 H 1027.57 3.44762 1.89481 0
M  V30 10752 H 1029.58 3.89383 3.07563 0
M  V30 10753 N 1028.76 -0.17846 1.56586 0
M  V30 10754 C 1029.99 -0.911996 1.85715 0
M  V30 10755 C 1030.4 -1.76138 0.679766 0
M  V30 10756 O 1029.76 -1.79088 -0.351266 0
M  V30 10757 C 1029.81 -1.79459 3.1381 0
M  V30 10758 O 1029.53 -0.979476 4.2701 0
M  V30 10759 C 1031.03 -2.6384 3.56235 0
M  V30 10760 H 1028.25 -0.265299 0.616326 0
M  V30 10761 H 1030.79 -0.180704 2.037 0
M  V30 10762 H 1028.95 -2.4793 2.97673 0
M  V30 10763 H 1029.36 -1.58244 5.00059 0
M  V30 10764 H 1030.84 -3.21396 4.48786 0
M  V30 10765 H 1031.31 -3.38363 2.80013 0
M  V30 10766 H 1031.92 -2.00712 3.7496 0
M  V30 10767 N 1030.24 -1.51135 -0.446768 0
M  V30 10768 C 1031.46 -1.67411 -1.22427 0
M  V30 10769 C 1031.89 -0.367009 -1.84485 0
M  V30 10770 O 1031.24 0.67185 -1.68392 0
M  V30 10771 C 1031.29 -2.78473 -2.29096 0
M  V30 10772 O 1030.4 -2.41419 -3.34351 0
M  V30 10773 H 1029.74 -0.558512 -0.359111 0
M  V30 10774 H 1032.27 -1.97648 -0.5288 0
M  V30 10775 H 1032.28 -3.02277 -2.7403 0
M  V30 10776 H 1030.95 -3.73326 -1.83304 0
M  V30 10777 H 1029.53 -2.28152 -2.9496 0
M  V30 10778 N 1031.71 0.701592 -1.41122 0
M  V30 10779 C 1032.96 1.46245 -1.41364 0
M  V30 10780 C 1033.31 1.9239 -0.0200662 0
M  V30 10781 O 1032.61 1.6622 0.952971 0
M  V30 10782 C 1032.8 2.693 -2.34973 0
M  V30 10783 C 1032.63 2.35193 -3.83294 0
M  V30 10784 C 1031.4 2.2585 -4.52018 0
M  V30 10785 C 1033.6 1.98555 -4.74426 0
M  V30 10786 N 1031.58 1.84565 -5.85499 0
M  V30 10787 C 1032.95 1.67981 -5.9681 0
M  V30 10788 C 1035.01 1.85313 -4.62129 0
M  V30 10789 C 1033.71 1.25496 -7.08268 0
M  V30 10790 C 1035.74 1.44232 -5.73543 0
M  V30 10791 C 1035.1 1.14564 -6.95021 0
M  V30 10792 H 1031.2 0.532679 -0.572518 0
M  V30 10793 H 1033.78 0.812296 -1.76946 0
M  V30 10794 H 1031.95 3.32045 -2.01496 0
M  V30 10795 H 1033.68 3.35734 -2.25976 0
M  V30 10796 H 1030.44 2.4405 -4.05878 0
M  V30 10797 H 1030.86 1.66421 -6.56226 0
M  V30 10798 H 1035.5 2.06905 -3.68714 0
M  V30 10799 H 1033.22 1.02647 -8.01554 0
M  V30 10800 H 1036.81 1.34544 -5.66029 0
M  V30 10801 H 1035.69 0.832556 -7.79768 0
M  V30 10802 N 1033.19 1.2685 0.935242 0
M  V30 10803 C 1034.6 1.11569 1.49697 0
M  V30 10804 C 1034.95 -0.301952 1.93863 0
M  V30 10805 O 1034.08 -1.19408 1.80473 0
M  V30 10806 C 1034.67 2.01918 2.72056 0
M  V30 10807 C 1033.23 1.90765 3.24477 0
M  V30 10808 C 1032.38 1.94918 1.97237 0
M  V30 10809 H 1035.33 1.39853 0.750116 0
M  V30 10810 H 1035.35 1.57056 3.46574 0
M  V30 10811 H 1034.86 3.05088 2.39881 0
M  V30 10812 H 1032.96 0.905521 3.61429 0
M  V30 10813 H 1033.08 2.76611 3.91182 0
M  V30 10814 H 1031.44 1.39046 2.13397 0
M  V30 10815 H 1032.22 2.99729 1.67385 0
M  V30 10816 N 1034.67 -1.14067 1.0875 0
M  V30 10817 C 1036.09 -1.37173 0.815823 0
M  V30 10818 C 1036.29 -1.93175 -0.573215 0
M  V30 10819 O 1035.34 -2.14672 -1.32937 0
M  V30 10820 C 1036.66 -2.32955 1.90138 0
M  V30 10821 C 1038.2 -2.46586 1.9278 0
M  V30 10822 C 1038.68 -3.4567 3.0046 0
M  V30 10823 N 1040.17 -3.53216 2.99655 0
M  V30 10824 C 1040.9 -4.29743 3.79616 0
M  V30 10825 N 1040.4 -5.09484 4.69466 0
M  V30 10826 N 1042.19 -4.24975 3.67903 0
M  V30 10827 H 1034.34 -0.760648 1.98313 0
M  V30 10828 H 1036.61 -0.397135 0.860807 0
M  V30 10829 H 1036.31 -1.98949 2.90021 0
M  V30 10830 H 1036.19 -3.32897 1.77368 0
M  V30 10831 H 1038.57 -2.79882 0.935404 0
M  V30 10832 H 1038.66 -1.46593 2.09629 0
M  V30 10833 H 1038.3 -3.13106 3.99909 0
M  V30 10834 H 1038.23 -4.45452 2.80856 0
M  V30 10835 H 1040.72 -2.96314 2.34535 0
M  V30 10836 H 1041.03 -5.65163 5.27077 0
M  V30 10837 H 1039.38 -5.08741 4.73506 0
M  V30 10838 H 1042.57 -3.61751 2.97075 0
M  V30 10839 H 1042.74 -4.84364 4.30459 0
M  V30 10840 N 1036.15 -0.873678 -1.31166 0
M  V30 10841 C 1037.56 -0.53852 -1.78765 0
M  V30 10842 C 1037.91 0.944765 -1.71955 0
M  V30 10843 O 1037.04 1.73781 -1.28954 0
M  V30 10844 C 1037.63 -0.970749 -3.24595 0
M  V30 10845 C 1036.19 -0.687189 -3.70074 0
M  V30 10846 C 1035.34 -1.16001 -2.51871 0
M  V30 10847 H 1038.29 -1.05903 -1.18196 0
M  V30 10848 H 1038.31 -0.294966 -3.79355 0
M  V30 10849 H 1037.82 -2.05034 -3.29519 0
M  V30 10850 H 1035.92 0.380881 -3.70648 0
M  V30 10851 H 1036.03 -1.26682 -4.62048 0
M  V30 10852 H 1034.4 -0.579663 -2.48016 0
M  V30 10853 H 1035.18 -2.2471 -2.59539 0
M  V30 10854 N 1037.63 1.44308 -0.633487 0
M  V30 10855 C 1038.88 2.01239 -0.136356 0
M  V30 10856 C 1039.19 1.50438 1.25011 0
M  V30 10857 O 1040.39 1.99513 1.84138 0
M  V30 10858 C 1038.85 3.59382 -0.193011 0
M  V30 10859 C 1038.46 4.19178 -1.58093 0
M  V30 10860 C 1040.2 4.23778 0.247534 0
M  V30 10861 C 1038.11 5.69553 -1.59258 0
M  V30 10862 H 1037.04 0.752521 -0.0472109 0
M  V30 10863 H 1039.69 1.65498 -0.79263 0
M  V30 10864 H 1038.07 3.92432 0.530408 0
M  V30 10865 H 1039.25 3.97662 -2.32813 0
M  V30 10866 H 1037.56 3.67079 -1.96576 0
M  V30 10867 H 1040.16 5.34075 0.258401 0
M  V30 10868 H 1040.5 3.96285 1.27529 0
M  V30 10869 H 1041.03 3.9554 -0.423469 0
M  V30 10870 H 1037.77 6.01784 -2.59878 0
M  V30 10871 H 1037.29 5.93185 -0.888352 0
M  V30 10872 H 1038.97 6.33234 -1.32756 0
M  V30 10873 N 1039.1 0.374177 1.53094 0
M  V30 10874 C 1040.35 -0.212816 2.01379 0
M  V30 10875 C 1040.68 -1.48069 1.26118 0
M  V30 10876 O 1039.93 -1.92625 0.345561 0
M  V30 10877 C 1040.23 -0.542179 3.53264 0
M  V30 10878 C 1039.9 0.632375 4.46444 0
M  V30 10879 C 1038.56 0.954635 4.71636 0
M  V30 10880 C 1040.91 1.41887 5.01515 0
M  V30 10881 C 1038.24 2.06521 5.4915 0
M  V30 10882 C 1040.59 2.51993 5.80243 0
M  V30 10883 C 1039.26 2.84744 6.03719 0
M  V30 10884 H 1038.53 -0.0778749 0.736897 0
M  V30 10885 H 1041.17 0.508412 1.84628 0
M  V30 10886 H 1039.48 -1.34454 3.68007 0
M  V30 10887 H 1041.18 -1.00874 3.88105 0
M  V30 10888 H 1037.77 0.371179 4.2699 0
M  V30 10889 H 1041.95 1.18315 4.81991 0
M  V30 10890 H 1037.21 2.32284 5.65557 0
M  V30 10891 H 1041.38 3.13346 6.21922 0
M  V30 10892 H 1039.01 3.70921 6.63568 0
M  V30 10893 N 1040.58 -1.57259 0.103575 0
M  V30 10894 C 1041.83 -1.94272 -0.557024 0
M  V30 10895 C 1042.15 -0.986739 -1.68192 0
M  V30 10896 O 1041.42 -0.0402818 -1.95859 0
M  V30 10897 H 1040 -0.717237 -0.208757 0
M  V30 10898 H 1042.66 -1.94167 0.168898 0
M  V30 10899 H 1041.76 -2.96914 -0.961691 0
M  V30 10900 N 1042.06 0.170153 -1.56679 0
M  V30 10901 C 1043.29 0.90618 -1.86556 0
M  V30 10902 C 1043.71 1.74986 -0.690044 0
M  V30 10903 O 1043.07 1.77672 0.360862 0
M  V30 10904 C 1043.12 1.75777 -3.14857 0
M  V30 10905 O 1042.22 2.85952 -2.97162 0
M  V30 10906 H 1041.56 0.253781 -0.613589 0
M  V30 10907 H 1044.09 0.167943 -2.0391 0
M  V30 10908 H 1044.1 2.15747 -3.46291 0
M  V30 10909 H 1042.78 1.13807 -4.00026 0
M  V30 10910 H 1041.35 2.49557 -2.77084 0
M  V30 10911 N 1043.54 1.5137 0.438746 0
M  V30 10912 C 1044.47 1.75528 1.53987 0
M  V30 10913 C 1045.45 0.605067 1.58975 0
M  V30 10914 O 1046.63 0.847634 1.74725 0
M  V30 10915 C 1043.76 1.87904 2.92078 0
M  V30 10916 C 1042.72 3.0333 3.01951 0
M  V30 10917 C 1042.04 3.00888 4.42007 0
M  V30 10918 C 1043.34 4.43319 2.76163 0
M  V30 10919 H 1045.04 2.67728 1.34022 0
M  V30 10920 H 1042.58 1.28831 0.643308 0
M  V30 10921 H 1044.54 2.03388 3.69068 0
M  V30 10922 H 1043.26 0.923514 3.13271 0
M  V30 10923 H 1041.92 2.87549 2.274 0
M  V30 10924 H 1041.57 2.03116 4.60166 0
M  V30 10925 H 1041.27 3.78397 4.49544 0
M  V30 10926 H 1042.79 3.18464 5.20973 0
M  V30 10927 H 1044.21 4.59458 3.42887 0
M  V30 10928 H 1042.6 5.22523 2.9511 0
M  V30 10929 H 1043.67 4.53453 1.71779 0
M  V30 10930 N 1045.02 -0.694098 1.41492 0
M  V30 10931 C 1045.97 -1.80016 1.39923 0
M  V30 10932 C 1046.95 -1.58561 0.273377 0
M  V30 10933 O 1048.14 -1.69368 0.514157 0
M  V30 10934 C 1045.27 -3.18333 1.28526 0
M  V30 10935 C 1044.36 -3.45478 2.45979 0
M  V30 10936 N 1044.75 -3.43313 3.71443 0
M  V30 10937 C 1043.05 -3.76033 2.39824 0
M  V30 10938 C 1043.75 -3.69404 4.4935 0
M  V30 10939 N 1042.72 -3.89221 3.79484 0
M  V30 10940 H 1046.53 -1.76707 2.34844 0
M  V30 10941 H 1044.04 -0.894148 1.35568 0
M  V30 10942 H 1046.04 -3.97567 1.25484 0
M  V30 10943 H 1044.7 -3.22852 0.345904 0
M  V30 10944 H 1045.71 -3.2366 4.04308 0
M  V30 10945 H 1042.38 -3.87913 1.54368 0
M  V30 10946 H 1043.77 -3.73854 5.58285 0
M  V30 10947 N 1046.49 -1.27344 -0.928501 0
M  V30 10948 C 1047.44 -1.06656 -2.01515 0
M  V30 10949 C 1048.43 0.00516619 -1.60899 0
M  V30 10950 O 1049.62 -0.213277 -1.7571 0
M  V30 10951 C 1046.75 -0.714935 -3.35773 0
M  V30 10952 C 1045.84 -1.82476 -3.82836 0
M  V30 10953 N 1046.23 -3.06421 -4.02417 0
M  V30 10954 C 1044.52 -1.71126 -4.11864 0
M  V30 10955 C 1045.23 -3.78637 -4.41598 0
M  V30 10956 N 1044.2 -3.06396 -4.49024 0
M  V30 10957 H 1048 -2.00718 -2.14685 0
M  V30 10958 H 1045.52 -1.18048 -1.11528 0
M  V30 10959 H 1047.51 -0.54784 -4.13285 0
M  V30 10960 H 1046.17 0.218069 -3.23967 0
M  V30 10961 H 1047.19 -3.42191 -3.88749 0
M  V30 10962 H 1043.86 -0.849031 -4.08776 0
M  V30 10963 H 1045.25 -4.85159 -4.64834 0
M  V30 10964 N 1047.97 1.13488 -1.09353 0
M  V30 10965 C 1049.22 1.85022 -0.830354 0
M  V30 10966 C 1049.55 1.83266 0.64242 0
M  V30 10967 O 1048.83 1.27024 1.47293 0
M  V30 10968 C 1049.11 3.33218 -1.36521 0
M  V30 10969 C 1048.96 3.43491 -2.90404 0
M  V30 10970 C 1050.28 4.28626 -0.998381 0
M  V30 10971 H 1047.4 0.671786 -0.303105 0
M  V30 10972 H 1050.04 1.33211 -1.3548 0
M  V30 10973 H 1048.19 3.77471 -0.919117 0
M  V30 10974 H 1049.86 3.07954 -3.43456 0
M  V30 10975 H 1048.11 2.84391 -3.27573 0
M  V30 10976 H 1048.78 4.47702 -3.22905 0
M  V30 10977 H 1051.25 3.9244 -1.38311 0
M  V30 10978 H 1050.13 5.30754 -1.39968 0
M  V30 10979 H 1050.39 4.42001 0.093517 0
M  V30 10980 N 1049.45 0.880621 1.30701 0
M  V30 10981 C 1050.86 0.547993 1.78477 0
M  V30 10982 C 1051.21 -0.935633 1.72454 0
M  V30 10983 O 1050.34 -1.73094 1.29874 0
M  V30 10984 C 1050.93 0.98795 3.24076 0
M  V30 10985 C 1049.49 0.706805 3.69704 0
M  V30 10986 C 1048.64 1.17335 2.51252 0
M  V30 10987 H 1051.59 1.06528 1.17633 0
M  V30 10988 H 1051.61 0.31508 3.79193 0
M  V30 10989 H 1051.12 2.06778 3.28427 0
M  V30 10990 H 1049.22 -0.36122 3.70845 0
M  V30 10991 H 1049.34 1.2913 4.6137 0
M  V30 10992 H 1047.7 0.592808 2.47705 0
M  V30 10993 H 1048.48 2.26083 2.58343 0
M  V30 10994 N 1050.93 -1.4397 0.641131 0
M  V30 10995 C 1052.21 -1.95436 0.0800918 0
M  V30 10996 C 1052.59 -1.58282 -1.39678 0
M  V30 10997 O 1051.93 -0.861867 -2.11623 0
M  V30 10998 C 1052.14 -3.47589 0.313531 0
M  V30 10999 C 1053.49 -4.2407 0.212034 0
M  V30 11000 O 1054.52 -3.55353 0.245434 0
M  V30 11001 O 1053.38 -5.46356 0.125455 0
M  V30 11002 H 1050.47 -0.826834 -0.0165735 0
M  V30 11003 H 1053.02 -1.5397 0.71353 0
M  V30 11004 H 1051.79 -3.67716 1.33793 0
M  V30 11005 H 1051.41 -3.96025 -0.353563 0
M  V30 11006 N 1052.41 -0.382291 -1.52893 0
M  V30 11007 C 1053.34 0.447829 -2.29165 0
M  V30 11008 C 1054.32 1.06956 -1.32267 0
M  V30 11009 O 1055.5 1.08365 -1.61154 0
M  V30 11010 C 1052.63 1.57902 -3.09329 0
M  V30 11011 C 1051.59 1.08369 -4.14053 0
M  V30 11012 C 1050.91 2.30641 -4.82399 0
M  V30 11013 C 1052.21 0.156591 -5.22065 0
M  V30 11014 H 1053.91 -0.188541 -2.98806 0
M  V30 11015 H 1051.45 -0.0921179 -1.43705 0
M  V30 11016 H 1053.41 2.16652 -3.61442 0
M  V30 11017 H 1052.13 2.24287 -2.37409 0
M  V30 11018 H 1050.79 0.518772 -3.62911 0
M  V30 11019 H 1050.44 2.9552 -4.07034 0
M  V30 11020 H 1050.14 1.98163 -5.53177 0
M  V30 11021 H 1051.66 2.90047 -5.37313 0
M  V30 11022 H 1053.08 0.652065 -5.6958 0
M  V30 11023 H 1051.47 -0.0780978 -6.00049 0
M  V30 11024 H 1052.54 -0.796529 -4.78313 0
M  V30 11025 N 1053.89 1.57202 -0.111913 0
M  V30 11026 C 1055.11 1.99723 0.559054 0
M  V30 11027 C 1055.54 0.990968 1.59879 0
M  V30 11028 O 1054.89 -0.038311 1.8126 0
M  V30 11029 C 1054.94 3.41151 1.16826 0
M  V30 11030 O 1054.05 3.43383 2.2839 0
M  V30 11031 H 1053.39 0.649004 0.140319 0
M  V30 11032 H 1055.92 2.03637 -0.198295 0
M  V30 11033 H 1055.93 3.79208 1.50551 0
M  V30 11034 H 1054.6 4.13907 0.406637 0
M  V30 11035 H 1053.18 3.17138 1.96158 0
M  V30 11036 N 1055.36 -0.161842 1.56767 0
M  V30 11037 C 1056.6 -0.88331 1.84329 0
M  V30 11038 C 1056.97 -1.79012 0.694165 0
M  V30 11039 O 1058.17 -2.54991 0.850461 0
M  V30 11040 C 1056.44 -1.65 3.17033 0
M  V30 11041 S 1058 -2.41893 3.66106 0
M  V30 11042 H 1054.82 -0.295667 0.646608 0
M  V30 11043 H 1057.42 -0.14429 1.94967 0
M  V30 11044 H 1056.12 -0.975025 3.9865 0
M  V30 11045 H 1055.65 -2.43021 3.09361 0
M  V30 11046 H 1057.67 -3.66788 3.34187 0
M  V30 11047 N 1056.84 -1.516 -0.430713 0
M  V30 11048 C 1058.26 -1.39923 -0.767706 0
M  V30 11049 C 1058.46 -0.486756 -1.95532 0
M  V30 11050 O 1057.51 0.0555965 -2.52439 0
M  V30 11051 C 1058.83 -2.82074 -1.04187 0
M  V30 11052 C 1060.37 -2.9127 -1.1459 0
M  V30 11053 C 1060.85 -4.34342 -1.45295 0
M  V30 11054 N 1062.34 -4.37479 -1.52206 0
M  V30 11055 C 1063.08 -5.45219 -1.77549 0
M  V30 11056 N 1062.57 -6.6311 -2.0064 0
M  V30 11057 N 1064.36 -5.32707 -1.79386 0
M  V30 11058 H 1056.52 -2.09474 0.351351 0
M  V30 11059 H 1058.78 -0.943247 0.0948151 0
M  V30 11060 H 1058.48 -3.50868 -0.241837 0
M  V30 11061 H 1058.36 -3.21805 -1.96777 0
M  V30 11062 H 1060.75 -2.2267 -1.93655 0
M  V30 11063 H 1060.83 -2.55026 -0.198854 0
M  V30 11064 H 1060.47 -5.03494 -0.667559 0
M  V30 11065 H 1060.4 -4.68105 -2.41217 0
M  V30 11066 H 1062.89 -3.52488 -1.36237 0
M  V30 11067 H 1063.2 -7.41012 -2.19366 0
M  V30 11068 H 1061.55 -6.66214 -1.97948 0
M  V30 11069 H 1064.74 -4.39589 -1.60869 0
M  V30 11070 H 1064.91 -6.16752 -1.98799 0
M  V30 11071 N 1058.32 0.686584 -1.41858 0
M  V30 11072 C 1059.57 1.44379 -1.41418 0
M  V30 11073 C 1059.89 1.94981 -0.0273696 0
M  V30 11074 O 1059.16 1.72296 0.932248 0
M  V30 11075 H 1057.74 0.53574 -0.520568 0
M  V30 11076 H 1060.4 0.812056 -1.77177 0
M  V30 11077 H 1059.5 2.30258 -2.10684 0
M  V30 11078 N 1059.8 1.27835 0.921735 0
M  V30 11079 C 1061.04 1.15702 1.67286 0
M  V30 11080 C 1061.4 -0.293049 1.90155 0
M  V30 11081 O 1060.69 -1.21058 1.48511 0
M  V30 11082 C 1060.89 1.88054 3.03925 0
M  V30 11083 C 1060.71 3.39947 2.94391 0
M  V30 11084 C 1059.48 4.09275 2.96347 0
M  V30 11085 C 1061.68 4.35824 2.7306 0
M  V30 11086 N 1059.66 5.47694 2.77317 0
M  V30 11087 C 1061.04 5.61551 2.62794 0
M  V30 11088 C 1063.09 4.25844 2.57994 0
M  V30 11089 C 1061.79 6.78434 2.38998 0
M  V30 11090 C 1063.82 5.42455 2.35577 0
M  V30 11091 C 1063.18 6.67141 2.26058 0
M  V30 11092 H 1059.28 0.478278 0.618687 0
M  V30 11093 H 1061.86 1.61382 1.08922 0
M  V30 11094 H 1060.04 1.4482 3.60391 0
M  V30 11095 H 1061.77 1.68374 3.68011 0
M  V30 11096 H 1058.52 3.6079 3.06802 0
M  V30 11097 H 1058.95 6.2043 2.70916 0
M  V30 11098 H 1063.59 3.30161 2.64109 0
M  V30 11099 H 1061.31 7.74194 2.31623 0
M  V30 11100 H 1064.89 5.36617 2.24796 0
M  V30 11101 H 1063.77 7.55851 2.08947 0
M  V30 11102 N 1061.28 -1.12907 1.09954 0
M  V30 11103 C 1062.23 -2.16558 0.713204 0
M  V30 11104 C 1063.21 -1.5853 -0.27515 0
M  V30 11105 O 1064.4 -1.76797 -0.0846643 0
M  V30 11106 C 1061.53 -3.43009 0.141224 0
M  V30 11107 C 1060.62 -4.08032 1.15632 0
M  V30 11108 N 1061.01 -4.48139 2.34531 0
M  V30 11109 C 1059.31 -4.34743 0.995701 0
M  V30 11110 C 1060.01 -4.98885 2.99147 0
M  V30 11111 N 1058.98 -4.9408 2.26684 0
M  V30 11112 H 1062.78 -2.45328 1.61838 0
M  V30 11113 H 1060.3 -1.29759 0.976539 0
M  V30 11114 H 1062.3 -4.16617 -0.153598 0
M  V30 11115 H 1060.96 -3.15711 -0.758729 0
M  V30 11116 H 1061.97 -4.40668 2.72089 0
M  V30 11117 H 1058.64 -4.17227 0.150888 0
M  V30 11118 H 1060.03 -5.3967 4.00257 0
M  V30 11119 N 1062.75 -0.88754 -1.30232 0
M  V30 11120 C 1063.98 -0.522306 -2.00199 0
M  V30 11121 C 1064.4 0.889866 -1.66514 0
M  V30 11122 O 1063.75 1.58558 -0.903639 0
M  V30 11123 C 1063.8 -0.690551 -3.54843 0
M  V30 11124 O 1063.53 -2.04713 -3.8733 0
M  V30 11125 C 1065.03 -0.328649 -4.4208 0
M  V30 11126 H 1062.25 -0.201628 -0.63999 0
M  V30 11127 H 1064.79 -1.19355 -1.66056 0
M  V30 11128 H 1062.95 -0.0666493 -3.87343 0
M  V30 11129 H 1063.36 -2.06762 -4.82027 0
M  V30 11130 H 1064.83 -0.497257 -5.49756 0
M  V30 11131 H 1065.31 0.733502 -4.33032 0
M  V30 11132 H 1065.92 -0.928982 -4.1503 0
M  V30 11133 N 1064.23 1.43628 -0.648757 0
M  V30 11134 C 1065.48 2.01083 -0.157692 0
M  V30 11135 C 1065.79 1.51756 1.23408 0
M  V30 11136 O 1067 2.01455 1.82012 0
M  V30 11137 C 1065.46 3.59157 -0.231118 0
M  V30 11138 C 1065.06 4.17478 -1.6253 0
M  V30 11139 C 1066.81 4.24016 0.202573 0
M  V30 11140 C 1064.72 5.67832 -1.6529 0
M  V30 11141 H 1063.65 0.751977 -0.0551897 0
M  V30 11142 H 1066.3 1.64648 -0.810139 0
M  V30 11143 H 1064.68 3.92972 0.488755 0
M  V30 11144 H 1065.85 3.9517 -2.37017 0
M  V30 11145 H 1064.17 3.64973 -2.00459 0
M  V30 11146 H 1066.76 5.34319 0.20174 0
M  V30 11147 H 1067.11 3.97616 1.23319 0
M  V30 11148 H 1067.64 3.95068 -0.465398 0
M  V30 11149 H 1064.38 5.98994 -2.66246 0
M  V30 11150 H 1063.9 5.92209 -0.951217 0
M  V30 11151 H 1065.58 6.3179 -1.39465 0
M  V30 11152 N 1065.71 0.390394 1.52688 0
M  V30 11153 C 1066.64 -0.43567 2.294 0
M  V30 11154 C 1067.62 -1.06253 1.32832 0
M  V30 11155 O 1068.81 -1.07509 1.61726 0
M  V30 11156 C 1065.94 -1.56259 3.10162 0
M  V30 11157 C 1064.89 -1.06172 4.14622 0
M  V30 11158 C 1064.22 -2.2808 4.83615 0
M  V30 11159 C 1065.52 -0.128902 5.22141 0
M  V30 11160 H 1067.21 0.204384 2.98702 0
M  V30 11161 H 1064.76 0.0997377 1.43654 0
M  V30 11162 H 1066.71 -2.14732 3.62585 0
M  V30 11163 H 1065.43 -2.23025 2.38595 0
M  V30 11164 H 1064.09 -0.499518 3.63181 0
M  V30 11165 H 1063.74 -2.93358 4.08595 0
M  V30 11166 H 1063.44 -1.95227 5.5422 0
M  V30 11167 H 1064.96 -2.87193 5.38844 0
M  V30 11168 H 1066.38 -0.621849 5.69917 0
M  V30 11169 H 1064.78 0.109919 5.99999 0
M  V30 11170 H 1065.85 0.821884 4.77884 0
M  V30 11171 N 1067.19 -1.57141 0.120249 0
M  V30 11172 C 1068.44 -1.94413 -0.53727 0
M  V30 11173 C 1068.75 -1.00594 -1.67751 0
M  V30 11174 O 1069.96 -1.27336 -2.39787 0
M  V30 11175 C 1068.41 -3.45521 -1.00714 0
M  V30 11176 C 1068.02 -4.47878 0.104706 0
M  V30 11177 C 1069.76 -3.9171 -1.63596 0
M  V30 11178 C 1067.67 -5.90165 -0.381932 0
M  V30 11179 H 1066.6 -0.725745 -0.204475 0
M  V30 11180 H 1069.25 -1.82404 0.200302 0
M  V30 11181 H 1067.63 -3.52769 -1.79917 0
M  V30 11182 H 1068.81 -4.523 0.881002 0
M  V30 11183 H 1067.12 -4.11448 0.640264 0
M  V30 11184 H 1069.72 -4.95433 -2.01122 0
M  V30 11185 H 1070.06 -3.31756 -2.51483 0
M  V30 11186 H 1070.6 -3.87268 -0.909319 0
M  V30 11187 H 1067.34 -6.53877 0.460921 0
M  V30 11188 H 1066.86 -5.89161 -1.12468 0
M  V30 11189 H 1068.53 -6.41488 -0.842748 0
M  V30 11190 N 1068.67 0.153526 -1.5685 0
M  V30 11191 C 1069.91 0.868517 -1.83261 0
M  V30 11192 C 1070.25 1.81112 -0.700857 0
M  V30 11193 O 1069.52 1.92235 0.295989 0
M  V30 11194 C 1069.8 1.6487 -3.2014 0
M  V30 11195 C 1069.66 0.728021 -4.43869 0
M  V30 11196 C 1070.98 2.61259 -3.54163 0
M  V30 11197 H 1068.09 0.314297 -0.666623 0
M  V30 11198 H 1070.74 0.133971 -1.89527 0
M  V30 11199 H 1068.89 2.2749 -3.1493 0
M  V30 11200 H 1070.56 0.113328 -4.61161 0
M  V30 11201 H 1068.8 0.0371744 -4.33784 0
M  V30 11202 H 1069.47 1.30981 -5.36235 0
M  V30 11203 H 1071.95 2.0876 -3.59942 0
M  V30 11204 H 1070.82 3.12902 -4.50981 0
M  V30 11205 H 1071.09 3.42307 -2.79782 0
M  V30 11206 N 1070.14 1.51827 0.422667 0
M  V30 11207 C 1071.05 1.77066 1.53899 0
M  V30 11208 C 1072.07 0.655541 1.61179 0
M  V30 11209 O 1073.25 0.939448 1.78147 0
M  V30 11210 C 1070.31 1.90372 2.89758 0
M  V30 11211 C 1069.37 3.14256 2.92475 0
M  V30 11212 C 1068.61 3.26918 4.21853 0
M  V30 11213 O 1068.83 2.45164 5.15025 0
M  V30 11214 O 1067.76 4.19989 4.31153 0
M  V30 11215 H 1071.59 2.71791 1.35511 0
M  V30 11216 H 1069.17 1.36506 0.607165 0
M  V30 11217 H 1071.06 2.01024 3.70361 0
M  V30 11218 H 1069.73 0.988347 3.08242 0
M  V30 11219 H 1068.64 3.09072 2.10773 0
M  V30 11220 H 1069.97 4.0553 2.78937 0
M  V30 11221 N 1071.62 -0.679052 1.4222 0
M  V30 11222 C 1072.57 -1.79269 1.45366 0
M  V30 11223 C 1073.54 -1.63255 0.306089 0
M  V30 11224 O 1074.72 -1.8387 0.509548 0
M  V30 11225 C 1071.86 -3.17272 1.35766 0
M  V30 11226 C 1070.98 -3.44603 2.60525 0
M  V30 11227 C 1070.11 -4.7231 2.43098 0
M  V30 11228 C 1069.15 -4.92661 3.63251 0
M  V30 11229 N 1068.29 -6.11606 3.44794 0
M  V30 11230 H 1073.13 -1.75916 2.40536 0
M  V30 11231 H 1070.67 -0.858836 1.19425 0
M  V30 11232 H 1072.62 -3.97015 1.282 0
M  V30 11233 H 1071.25 -3.1976 0.441939 0
M  V30 11234 H 1070.31 -2.59144 2.78475 0
M  V30 11235 H 1071.62 -3.55536 3.49851 0
M  V30 11236 H 1070.77 -5.60136 2.33093 0
M  V30 11237 H 1069.51 -4.63652 1.51255 0
M  V30 11238 H 1068.52 -4.03278 3.73693 0
M  V30 11239 H 1069.74 -5.03167 4.5607 0
M  V30 11240 H 1067.69 -6.04129 2.55663 0
M  V30 11241 H 1067.6 -6.23381 4.27705 0
M  V30 11242 H 1068.87 -7.02122 3.38592 0
M  V30 11243 N 1073.1 -1.28322 -0.914942 0
M  V30 11244 C 1074.35 -1.15578 -1.66642 0
M  V30 11245 C 1074.68 0.295209 -1.91943 0
M  V30 11246 O 1073.95 1.21482 -1.51896 0
M  V30 11247 C 1074.24 -1.9535 -3.02507 0
M  V30 11248 C 1074.09 -3.48504 -2.84367 0
M  V30 11249 C 1075.41 -1.76798 -4.03027 0
M  V30 11250 H 1072.53 -0.421234 -0.604757 0
M  V30 11251 H 1075.17 -1.57625 -1.06087 0
M  V30 11252 H 1073.32 -1.59619 -3.54195 0
M  V30 11253 H 1074.99 -3.94135 -2.39699 0
M  V30 11254 H 1073.24 -3.74198 -2.1945 0
M  V30 11255 H 1073.91 -3.99576 -3.80845 0
M  V30 11256 H 1076.38 -2.07977 -3.60395 0
M  V30 11257 H 1075.26 -2.34987 -4.96057 0
M  V30 11258 H 1075.52 -0.719162 -4.36211 0
M  V30 11259 N 1074.58 1.12322 -1.10551 0
M  V30 11260 C 1075.51 2.20176 -0.777486 0
M  V30 11261 C 1076.49 1.68252 0.250069 0
M  V30 11262 O 1077.67 1.93856 0.115574 0
M  V30 11263 C 1074.8 3.46666 -0.209822 0
M  V30 11264 C 1073.76 4.11749 -1.1682 0
M  V30 11265 C 1073.08 5.32703 -0.461684 0
M  V30 11266 C 1074.38 4.57746 -2.51527 0
M  V30 11267 H 1076.08 2.47872 -1.67928 0
M  V30 11268 H 1073.62 1.19136 -0.808863 0
M  V30 11269 H 1075.58 4.21388 0.0318068 0
M  V30 11270 H 1074.3 3.18401 0.727226 0
M  V30 11271 H 1072.96 3.39009 -1.3953 0
M  V30 11272 H 1072.61 5.00706 0.479875 0
M  V30 11273 H 1072.31 5.77197 -1.1008 0
M  V30 11274 H 1073.83 6.10172 -0.228629 0
M  V30 11275 H 1075.25 5.23835 -2.32958 0
M  V30 11276 H 1073.64 5.13021 -3.11335 0
M  V30 11277 H 1074.71 3.71667 -3.11435 0
M  V30 11278 N 1076.06 0.894434 1.2976 0
M  V30 11279 C 1077 0.357958 2.29829 0
M  V30 11280 C 1078 -0.540093 1.6056 0
M  V30 11281 O 1079.2 -0.423478 1.74948 0
M  V30 11282 H 1075.58 0.0971183 0.745702 0
M  V30 11283 H 1077.55 1.21542 2.72526 0
M  V30 11284 C 1076.3 -0.404126 3.45343 0
M  V30 11285 H 1075.62 0.277671 3.98835 0
M  V30 11286 H 1077.06 -0.744446 4.17413 0
M  V30 11287 C 1075.52 -1.6048 2.96222 0
M  V30 11288 O 1076.05 -2.70414 2.97051 0
M  V30 11289 N 1074.26 -1.44517 2.52117 0
M  V30 11290 H 1073.8 -0.55082 2.51642 0
M  V30 11291 H 1073.76 -2.24987 2.1961 0
M  V30 11292 N 1077.53 -1.43282 0.656365 0
M  V30 11293 C 1078.76 -2.06641 0.177245 0
M  V30 11294 C 1079.18 -1.48893 -1.14946 0
M  V30 11295 O 1078.54 -0.600099 -1.7108 0
M  V30 11296 C 1078.59 -3.60453 0.10299 0
M  V30 11297 O 1077.69 -4.01687 -0.933895 0
M  V30 11298 H 1077.04 -0.656978 0.096314 0
M  V30 11299 H 1079.57 -1.83733 0.900178 0
M  V30 11300 H 1079.58 -4.07923 -0.079291 0
M  V30 11301 H 1078.25 -4.01861 1.07147 0
M  V30 11302 H 1076.83 -3.65801 -0.724148 0
M  V30 11303 N 1079.01 -0.398486 -1.52479 0
M  V30 11304 C 1079.96 0.432212 -2.26717 0
M  V30 11305 C 1080.93 1.05007 -1.28696 0
M  V30 11306 O 1082.12 1.07636 -1.57541 0
M  V30 11307 C 1079.26 1.54868 -3.08399 0
M  V30 11308 C 1078.37 0.952779 -4.21362 0
M  V30 11309 C 1077.5 2.04106 -4.90423 0
M  V30 11310 C 1076.54 1.42153 -5.95364 0
M  V30 11311 N 1075.68 2.44951 -6.57984 0
M  V30 11312 H 1080.52 -0.207303 -2.97278 0
M  V30 11313 H 1078.06 -0.114066 -1.46657 0
M  V30 11314 H 1080.01 2.20684 -3.54054 0
M  V30 11315 H 1078.64 2.15837 -2.4003 0
M  V30 11316 H 1077.7 0.183962 -3.79955 0
M  V30 11317 H 1079.01 0.460131 -4.96673 0
M  V30 11318 H 1078.16 2.77672 -5.39429 0
M  V30 11319 H 1076.9 2.56733 -4.14656 0
M  V30 11320 H 1075.91 0.671161 -5.45688 0
M  V30 11321 H 1077.13 0.903093 -6.73068 0
M  V30 11322 H 1075.08 2.9673 -5.85053 0
M  V30 11323 H 1074.99 2.00468 -7.28937 0
M  V30 11324 H 1076.26 3.18119 -7.11632 0
M  V30 11325 N 1080.49 1.57075 -0.12858 0
M  V30 11326 C 1081.72 1.99876 0.534544 0
M  V30 11327 C 1082.13 1.00843 1.59612 0
M  V30 11328 O 1081.49 0.00268947 1.825 0
M  V30 11329 C 1081.54 3.42654 1.15198 0
M  V30 11330 O 1081.26 4.37899 0.132823 0
M  V30 11331 C 1082.76 4.00637 1.8975 0
M  V30 11332 H 1079.98 0.656073 0.140744 0
M  V30 11333 H 1082.53 2.03337 -0.217742 0
M  V30 11334 H 1080.68 3.40101 1.85499 0
M  V30 11335 H 1081.1 5.21253 0.582682 0
M  V30 11336 H 1082.57 5.02592 2.28266 0
M  V30 11337 H 1083.05 3.40313 2.7764 0
M  V30 11338 H 1083.65 4.06764 1.2419 0
M  V30 11339 N 1081.97 -0.145205 1.5693 0
M  V30 11340 C 1083.22 -0.855955 1.82637 0
M  V30 11341 C 1083.53 -1.82255 0.710109 0
M  V30 11342 O 1084.74 -2.57758 0.852837 0
M  V30 11343 C 1083.19 -1.57278 3.23715 0
M  V30 11344 C 1082.8 -0.648507 4.43281 0
M  V30 11345 C 1084.55 -2.27021 3.58695 0
M  V30 11346 C 1082.45 -1.36706 5.75383 0
M  V30 11347 H 1081.38 -0.323385 0.68113 0
M  V30 11348 H 1084.03 -0.10869 1.83178 0
M  V30 11349 H 1082.42 -2.36574 3.17567 0
M  V30 11350 H 1083.59 0.109355 4.6067 0
M  V30 11351 H 1081.9 -0.0594029 4.16358 0
M  V30 11352 H 1084.5 -2.81423 4.54648 0
M  V30 11353 H 1084.84 -3.03598 2.8484 0
M  V30 11354 H 1085.38 -1.54642 3.66512 0
M  V30 11355 H 1082.12 -0.6431 6.52338 0
M  V30 11356 H 1081.64 -2.09759 5.61926 0
M  V30 11357 H 1083.32 -1.90748 6.18243 0
M  V30 11358 N 1083.45 -1.52049 -0.414609 0
M  V30 11359 C 1084.86 -1.40729 -0.752822 0
M  V30 11360 C 1085.06 -0.507468 -1.95005 0
M  V30 11361 O 1084.12 0.0288189 -2.52484 0
M  V30 11362 C 1085.43 -2.83163 -1.01189 0
M  V30 11363 C 1086.98 -2.92469 -1.11494 0
M  V30 11364 C 1087.46 -4.35859 -1.4068 0
M  V30 11365 N 1088.95 -4.39069 -1.47557 0
M  V30 11366 C 1089.68 -5.47072 -1.71756 0
M  V30 11367 N 1089.18 -6.65201 -1.93595 0
M  V30 11368 N 1090.97 -5.3458 -1.73726 0
M  V30 11369 H 1083.12 -2.09089 0.373549 0
M  V30 11370 H 1085.38 -0.942188 0.104814 0
M  V30 11371 H 1085.09 -3.51104 -0.204609 0
M  V30 11372 H 1084.96 -3.23874 -1.93353 0
M  V30 11373 H 1087.35 -2.24711 -1.91282 0
M  V30 11374 H 1087.43 -2.55222 -0.171794 0
M  V30 11375 H 1087.08 -5.04174 -0.614119 0
M  V30 11376 H 1087.01 -4.70637 -2.36238 0
M  V30 11377 H 1089.5 -3.53913 -1.32491 0
M  V30 11378 H 1089.81 -7.43297 -2.11495 0
M  V30 11379 H 1088.16 -6.68276 -1.90871 0
M  V30 11380 H 1091.35 -4.41271 -1.56198 0
M  V30 11381 H 1091.52 -6.18826 -1.92246 0
M  V30 11382 N 1084.93 0.6715 -1.42579 0
M  V30 11383 C 1086.15 1.46471 -1.46836 0
M  V30 11384 C 1086.58 1.87921 -0.0820658 0
M  V30 11385 O 1085.93 1.5621 0.920217 0
M  V30 11386 C 1085.98 2.68796 -2.40377 0
M  V30 11387 O 1085.09 3.67188 -1.87741 0
M  V30 11388 H 1084.43 0.439901 -0.497376 0
M  V30 11389 H 1086.96 0.823342 -1.87303 0
M  V30 11390 H 1086.97 3.16828 -2.57068 0
M  V30 11391 H 1085.64 2.37967 -3.41093 0
M  V30 11392 H 1084.22 3.26237 -1.80621 0
M  V30 11393 N 1086.4 1.28806 0.908124 0
M  V30 11394 C 1087.35 1.13083 2.03261 0
M  V30 11395 C 1088.35 0.0486094 1.6933 0
M  V30 11396 O 1089.55 0.207794 1.78797 0
M  V30 11397 H 1085.93 0.349057 0.666081 0
M  V30 11398 H 1087.9 2.08304 2.13663 0
M  V30 11399 C 1086.65 0.815339 3.38005 0
M  V30 11400 H 1085.97 1.64007 3.64612 0
M  V30 11401 H 1087.41 0.745311 4.17398 0
M  V30 11402 C 1085.87 -0.48113 3.33447 0
M  V30 11403 O 1086.4 -1.50974 3.7225 0
M  V30 11404 N 1084.6 -0.483912 2.86543 0
M  V30 11405 H 1084.15 0.353593 2.55162 0
M  V30 11406 H 1084.11 -1.35138 2.83875 0
M  V30 11407 N 1087.88 -1.11734 1.11145 0
M  V30 11408 C 1089.11 -1.87755 0.881062 0
M  V30 11409 C 1089.53 -1.79461 -0.563496 0
M  V30 11410 O 1088.89 -1.15481 -1.39763 0
M  V30 11411 C 1088.94 -3.34641 1.34342 0
M  V30 11412 O 1088.04 -4.09195 0.513157 0
M  V30 11413 H 1087.38 -0.583111 0.317613 0
M  V30 11414 H 1089.91 -1.41256 1.48013 0
M  V30 11415 H 1089.92 -3.85486 1.33658 0
M  V30 11416 H 1088.6 -3.39994 2.39534 0
M  V30 11417 H 1087.17 -3.68269 0.585833 0
M  V30 11418 N 1089.36 -0.901303 -1.29284 0
M  V30 11419 C 1090.58 -0.542823 -2.0017 0
M  V30 11420 C 1091.01 0.865583 -1.67001 0
M  V30 11421 O 1090.37 1.5764 -0.895502 0
M  V30 11422 C 1090.42 -0.743987 -3.52842 0
M  V30 11423 O 1089.52 0.202771 -4.11901 0
M  V30 11424 H 1088.86 -0.211903 -0.62928 0
M  V30 11425 H 1091.39 -1.21333 -1.64741 0
M  V30 11426 H 1091.4 -0.64926 -4.02801 0
M  V30 11427 H 1090.08 -1.77077 -3.7632 0
M  V30 11428 H 1088.65 0.0603637 -3.72851 0
M  V30 11429 N 1090.84 1.42931 -0.663954 0
M  V30 11430 C 1092.09 2.01284 -0.181379 0
M  V30 11431 C 1092.41 1.52708 1.21265 0
M  V30 11432 O 1091.68 0.744181 1.81215 0
M  V30 11433 H 1090.26 0.744248 -0.0640646 0
M  V30 11434 H 1092.92 1.74997 -0.858031 0
M  V30 11435 H 1092.01 3.11613 -0.174273 0
M  V30 11436 N 1092.32 0.406567 1.52266 0
M  V30 11437 C 1093.25 -0.411314 2.29849 0
M  V30 11438 C 1094.23 -1.04838 1.33952 0
M  V30 11439 O 1095.41 -1.05788 1.62857 0
M  V30 11440 C 1092.54 -1.52961 3.11802 0
M  V30 11441 C 1091.5 -1.01768 4.15725 0
M  V30 11442 C 1090.82 -2.22938 4.86007 0
M  V30 11443 C 1092.12 -0.073515 5.22248 0
M  V30 11444 H 1093.82 0.236054 2.98468 0
M  V30 11445 H 1091.36 0.114968 1.4354 0
M  V30 11446 H 1093.31 -2.10874 3.64843 0
M  V30 11447 H 1092.04 -2.20482 2.40947 0
M  V30 11448 H 1090.7 -0.46097 3.6369 0
M  V30 11449 H 1090.35 -2.89007 4.11684 0
M  V30 11450 H 1090.05 -1.89338 5.5626 0
M  V30 11451 H 1091.57 -2.81462 5.41859 0
M  V30 11452 H 1092.98 -0.561367 5.70545 0
M  V30 11453 H 1091.38 0.173551 5.99849 0
M  V30 11454 H 1092.45 0.872524 4.76985 0
M  V30 11455 N 1093.79 -1.57004 0.136909 0
M  V30 11456 C 1095.02 -2.00587 -0.527209 0
M  V30 11457 C 1095.44 -1.01628 -1.58283 0
M  V30 11458 O 1094.8 0.00946934 -1.81298 0
M  V30 11459 C 1094.85 -3.42967 -1.11384 0
M  V30 11460 O 1093.95 -3.46973 -2.22898 0
M  V30 11461 H 1093.3 -0.651155 -0.129976 0
M  V30 11462 H 1095.83 -2.03296 0.230667 0
M  V30 11463 H 1095.84 -3.81555 -1.44499 0
M  V30 11464 H 1094.51 -4.14502 -0.340736 0
M  V30 11465 H 1093.09 -3.20219 -1.91087 0
M  V30 11466 N 1095.27 0.136881 -1.57004 0
M  V30 11467 C 1096.52 0.846257 -1.83088 0
M  V30 11468 C 1096.83 1.81876 -0.719765 0
M  V30 11469 O 1098.04 2.57302 -0.866494 0
M  V30 11470 C 1096.5 1.55559 -3.24545 0
M  V30 11471 C 1096.1 0.624989 -4.43619 0
M  V30 11472 C 1097.85 2.25115 -3.59893 0
M  V30 11473 C 1095.76 1.33653 -5.761 0
M  V30 11474 H 1094.69 0.319768 -0.682836 0
M  V30 11475 H 1097.34 0.0989741 -1.83233 0
M  V30 11476 H 1095.72 2.34887 -3.18817 0
M  V30 11477 H 1096.89 -0.133783 -4.60606 0
M  V30 11478 H 1095.21 0.0373216 -4.16383 0
M  V30 11479 H 1097.8 2.79008 -4.56134 0
M  V30 11480 H 1098.15 3.02084 -2.86446 0
M  V30 11481 H 1098.68 1.52696 -3.67327 0
M  V30 11482 H 1095.42 0.608495 -6.5267 0
M  V30 11483 H 1094.94 2.06776 -5.63031 0
M  V30 11484 H 1096.62 1.87467 -6.19246 0
M  V30 11485 N 1096.75 1.52266 0.40654 0
M  V30 11486 C 1098 1.66123 1.15097 0
M  V30 11487 C 1098.32 0.394836 1.90961 0
M  V30 11488 O 1097.59 -0.590349 1.86793 0
M  V30 11489 H 1096.17 0.612317 0.427875 0
M  V30 11490 H 1098.83 1.89318 0.463106 0
M  V30 11491 H 1097.93 2.50351 1.86361 0
M  V30 11492 N 1098.23 -0.663929 1.42933 0
M  V30 11493 C 1099.46 -1.45192 1.474 0
M  V30 11494 C 1099.87 -1.88592 0.0886014 0
M  V30 11495 O 1099.23 -1.58824 -0.898962 0
M  V30 11496 C 1099.28 -2.69394 2.41059 0
M  V30 11497 O 1099 -2.27812 3.7421 0
M  V30 11498 C 1100.5 -3.62855 2.54659 0
M  V30 11499 H 1097.72 -0.446394 0.500973 0
M  V30 11500 H 1100.27 -0.814875 1.87563 0
M  V30 11501 H 1098.42 -3.29262 2.0412 0
M  V30 11502 H 1098.83 -3.08095 4.24474 0
M  V30 11503 H 1100.31 -4.46698 3.24291 0
M  V30 11504 H 1100.79 -4.09487 1.58799 0
M  V30 11505 H 1101.39 -3.08874 2.92364 0
M  V30 11506 N 1099.71 -1.29285 -0.901281 0
M  V30 11507 C 1100.95 -1.17339 -1.65407 0
M  V30 11508 C 1101.29 0.274834 -1.92245 0
M  V30 11509 O 1100.56 1.19865 -1.53176 0
M  V30 11510 C 1100.84 -1.98547 -3.00418 0
M  V30 11511 C 1100.7 -3.51501 -2.80655 0
M  V30 11512 C 1102.02 -1.81062 -4.01129 0
M  V30 11513 H 1099.13 -0.427624 -0.600255 0
M  V30 11514 H 1101.78 -1.58741 -1.0441 0
M  V30 11515 H 1099.93 -1.63366 -3.52482 0
M  V30 11516 H 1101.6 -3.96655 -2.35505 0
M  V30 11517 H 1099.84 -3.76504 -2.15469 0
M  V30 11518 H 1100.51 -4.03593 -3.76585 0
M  V30 11519 H 1102.99 -2.11788 -3.58169 0
M  V30 11520 H 1101.86 -2.40235 -4.93536 0
M  V30 11521 H 1102.13 -0.765388 -4.35424 0
M  V30 11522 N 1101.18 1.11143 -1.11736 0
M  V30 11523 C 1102.43 1.82948 -0.868127 0
M  V30 11524 C 1102.76 1.84813 0.606182 0
M  V30 11525 O 1102.01 1.29901 1.4637 0
M  V30 11526 C 1102.31 3.29733 -1.3788 0
M  V30 11527 C 1101.98 3.48025 -2.86687 0
M  V30 11528 C 1100.64 3.52725 -3.2732 0
M  V30 11529 C 1102.99 3.54024 -3.82513 0
M  V30 11530 C 1100.32 3.60983 -4.62502 0
M  V30 11531 C 1102.67 3.63814 -5.17515 0
M  V30 11532 C 1101.34 3.66776 -5.57702 0
M  V30 11533 H 1100.61 0.669452 -0.31767 0
M  V30 11534 H 1103.25 1.31057 -1.3963 0
M  V30 11535 H 1101.56 3.8414 -0.77093 0
M  V30 11536 H 1103.26 3.83787 -1.16225 0
M  V30 11537 H 1099.85 3.45039 -2.54256 0
M  V30 11538 H 1104.03 3.4965 -3.52219 0
M  V30 11539 H 1099.29 3.61554 -4.9304 0
M  V30 11540 H 1103.46 3.674 -5.916 0
M  V30 11541 H 1101.09 3.72927 -6.62442 0
M  V30 11542 N 1102.66 0.908147 1.28804 0
M  V30 11543 C 1103.59 0.34957 2.26519 0
M  V30 11544 C 1104.61 -0.508845 1.54643 0
M  V30 11545 O 1105.8 -0.324633 1.75523 0
M  V30 11546 C 1102.9 -0.519461 3.34895 0
M  V30 11547 C 1102.07 0.315157 4.36263 0
M  V30 11548 C 1101.13 -0.488059 5.23932 0
M  V30 11549 O 1100.15 0.0974133 5.69117 0
M  V30 11550 N 1101.36 -1.79233 5.52137 0
M  V30 11551 H 1104.12 1.18945 2.75086 0
M  V30 11552 H 1101.68 0.77351 1.42227 0
M  V30 11553 H 1103.67 -1.0634 3.90479 0
M  V30 11554 H 1102.24 -1.26004 2.8608 0
M  V30 11555 H 1101.46 1.04049 3.8022 0
M  V30 11556 H 1102.75 0.886438 5.01019 0
M  V30 11557 H 1102.15 -2.2906 5.1725 0
M  V30 11558 H 1100.71 -2.28322 6.10502 0
M  V30 11559 N 1104.14 -1.42577 0.671525 0
M  V30 11560 C 1105.37 -2.06442 0.199152 0
M  V30 11561 C 1105.79 -1.50104 -1.1336 0
M  V30 11562 O 1105.15 -0.618211 -1.70434 0
M  V30 11563 C 1105.2 -3.60323 0.141215 0
M  V30 11564 O 1104.3 -4.02655 -0.891238 0
M  V30 11565 H 1103.64 -0.655919 0.103277 0
M  V30 11566 H 1106.17 -1.82768 0.919614 0
M  V30 11567 H 1106.18 -4.07984 -0.0360209 0
M  V30 11568 H 1104.86 -4.00702 1.11403 0
M  V30 11569 H 1103.43 -3.66549 -0.685309 0
M  V30 11570 N 1105.62 -0.414636 -1.52048 0
M  V30 11571 C 1106.84 0.161137 -2.06773 0
M  V30 11572 C 1107.27 1.37628 -1.2822 0
M  V30 11573 O 1106.63 1.78562 -0.313915 0
M  V30 11574 C 1106.67 0.48452 -3.5733 0
M  V30 11575 O 1105.78 1.57466 -3.81154 0
M  V30 11576 H 1105.12 0.0118003 -0.663895 0
M  V30 11577 H 1107.65 -0.589424 -1.95926 0
M  V30 11578 H 1107.66 0.741567 -4.01204 0
M  V30 11579 H 1106.33 -0.403733 -4.13936 0
M  V30 11580 H 1104.91 1.30935 -3.49157 0
M  V30 11581 N 1107.1 1.56929 -0.145233 0
M  V30 11582 C 1108.32 2.00864 0.516564 0
M  V30 11583 C 1108.75 1.02466 1.57741 0
M  V30 11584 O 1108.1 0.000145439 1.813 0
M  V30 11585 C 1108.15 3.43552 1.09563 0
M  V30 11586 O 1107.26 3.4815 2.21055 0
M  V30 11587 H 1106.6 0.651835 0.126521 0
M  V30 11588 H 1109.13 2.0317 -0.241445 0
M  V30 11589 H 1109.14 3.82316 1.42473 0
M  V30 11590 H 1107.81 4.14677 0.318749 0
M  V30 11591 H 1106.39 3.21228 1.89387 0
M  V30 11592 N 1108.58 -0.128553 1.57075 0
M  V30 11593 C 1109.99 -0.686713 1.73612 0
M  V30 11594 C 1110.34 -1.80778 0.762478 0
M  V30 11595 O 1109.46 -2.16297 -0.0667779 0
M  V30 11596 C 1110.06 -1.25246 3.148 0
M  V30 11597 C 1108.62 -1.757 3.32876 0
M  V30 11598 C 1107.76 -0.652844 2.69506 0
M  V30 11599 H 1110.71 0.0972859 1.58402 0
M  V30 11600 H 1110.74 -2.1222 3.15821 0
M  V30 11601 H 1110.25 -0.436308 3.8564 0
M  V30 11602 H 1108.35 -2.59824 2.67063 0
M  V30 11603 H 1108.46 -1.87302 4.4097 0
M  V30 11604 H 1106.83 -1.08408 2.30477 0
M  V30 11605 H 1107.61 0.15217 3.42963 0
M  V30 11606 N 1110.05 -1.5248 -0.398459 0
M  V30 11607 C 1111.3 -1.66731 -1.14215 0
M  V30 11608 C 1111.62 -0.404957 -1.90749 0
M  V30 11609 O 1110.89 0.580434 -1.87104 0
M  V30 11610 H 1109.47 -0.614577 -0.424622 0
M  V30 11611 H 1112.13 -1.89561 -0.453059 0
M  V30 11612 H 1111.23 -2.51336 -1.85031 0
M  V30 11613 N 1111.53 0.65634 -1.43283 0
M  V30 11614 C 1112.78 1.41347 -1.44449 0
M  V30 11615 C 1113.1 1.94879 -0.0687217 0
M  V30 11616 O 1112.37 1.74235 0.895492 0
M  V30 11617 H 1110.95 0.524578 -0.531815 0
M  V30 11618 H 1113.61 0.774292 -1.7886 0
M  V30 11619 H 1112.71 2.25737 -2.15521 0
M  V30 11620 N 1113.01 1.29761 0.894412 0
M  V30 11621 C 1114.26 1.17806 1.64214 0
M  V30 11622 C 1114.58 -0.269588 1.93127 0
M  V30 11623 O 1113.85 -1.18352 1.56107 0
M  V30 11624 H 1112.43 0.433002 0.608702 0
M  V30 11625 H 1115.09 1.6276 1.07216 0
M  V30 11626 H 1114.19 1.73201 2.5963 0
M  V30 11627 N 1114.49 -1.10549 1.12324 0
M  V30 11628 C 1115.74 -1.82124 0.876083 0
M  V30 11629 C 1116.06 -1.85547 -0.599761 0
M  V30 11630 O 1115.33 -1.33269 -1.43584 0
M  V30 11631 H 1113.91 -0.674455 0.321122 0
M  V30 11632 H 1116.57 -1.33766 1.41748 0
M  V30 11633 H 1115.66 -2.85688 1.25653 0
M  V30 11634 N 1115.97 -0.914965 -1.28321 0
M  V30 11635 C 1117.21 -0.547665 -1.94538 0
M  V30 11636 C 1117.53 0.911834 -1.72368 0
M  V30 11637 O 1116.8 1.64481 -1.06408 0
M  V30 11638 H 1115.38 -0.199549 -0.719853 0
M  V30 11639 H 1118.05 -1.16459 -1.5628 0
M  V30 11640 H 1117.14 -0.743138 -3.03124 0
M  V30 11641 N 1117.44 1.42219 -0.679077 0
M  V30 11642 C 1118.69 2.01081 -0.202718 0
M  V30 11643 C 1119.01 1.53986 1.19639 0
M  V30 11644 O 1118.28 0.763359 1.80415 0
M  V30 11645 H 1116.86 0.743526 -0.0719547 0
M  V30 11646 H 1119.52 1.74077 -0.876544 0
M  V30 11647 H 1118.62 3.11411 -0.207314 0
M  V30 11648 N 1118.92 0.422693 1.51826 0
M  V30 11649 C 1120.17 -0.148348 2.01555 0
M  V30 11650 C 1120.49 -1.44483 1.30956 0
M  V30 11651 O 1119.76 -1.90904 0.439599 0
M  V30 11652 H 1118.34 -0.0578116 0.74476 0
M  V30 11653 H 1121 0.562046 1.8662 0
M  V30 11654 H 1120.1 -0.334766 3.10299 0
M  V30 11655 N 1120.4 -1.5685 0.153553 0
M  V30 11656 C 1121.65 -1.95946 -0.494936 0
M  V30 11657 C 1121.97 -1.03975 -1.64967 0
M  V30 11658 O 1121.24 -0.102572 -1.95631 0
M  V30 11659 H 1119.82 -0.723516 -0.185833 0
M  V30 11660 H 1122.48 -1.93531 0.230585 0
M  V30 11661 H 1121.58 -2.99823 -0.866743 0
M  V30 11662 N 1121.88 0.120221 -1.57141 0
M  V30 11663 C 1123.13 0.826586 -1.84423 0
M  V30 11664 C 1123.45 1.80473 -0.738553 0
M  V30 11665 O 1122.72 1.94454 0.23755 0
M  V30 11666 H 1121.3 0.308246 -0.680436 0
M  V30 11667 H 1123.96 0.107835 -1.94601 0
M  V30 11668 H 1123.05 1.37256 -2.80298 0
M  V30 11669 N 1123.36 1.52689 0.390367 0
M  V30 11670 C 1124.27 1.8029 1.50108 0
M  V30 11671 C 1125.28 0.689582 1.59752 0
M  V30 11672 O 1126.46 0.977024 1.76114 0
M  V30 11673 C 1123.52 1.96475 2.85654 0
M  V30 11674 C 1122.58 3.2039 2.85743 0
M  V30 11675 C 1121.82 3.35793 4.14824 0
M  V30 11676 O 1122.04 2.56033 5.09709 0
M  V30 11677 O 1120.97 4.2904 4.22147 0
M  V30 11678 H 1124.8 2.74605 1.29715 0
M  V30 11679 H 1122.39 1.37763 0.578074 0
M  V30 11680 H 1124.27 2.08835 3.66013 0
M  V30 11681 H 1122.94 1.05351 3.06077 0
M  V30 11682 H 1121.85 3.13473 2.0417 0
M  V30 11683 H 1123.18 4.11356 2.70272 0
M  V30 11684 N 1124.83 -0.648732 1.43629 0
M  V30 11685 C 1125.74 -1.79046 1.51591 0
M  V30 11686 C 1126.76 -1.69276 0.402697 0
M  V30 11687 O 1127.94 -1.90366 0.657484 0
M  V30 11688 C 1125 -3.15347 1.44073 0
M  V30 11689 C 1124.06 -3.3688 2.66102 0
M  V30 11690 C 1123.3 -4.66679 2.58933 0
M  V30 11691 O 1123.52 -5.46328 1.63956 0
M  V30 11692 O 1122.45 -4.9003 3.49506 0
M  V30 11693 H 1126.28 -1.75283 2.48011 0
M  V30 11694 H 1123.86 -0.807774 1.2568 0
M  V30 11695 H 1125.75 -3.96633 1.42339 0
M  V30 11696 H 1124.42 -3.19691 0.50789 0
M  V30 11697 H 1123.33 -2.55341 2.73407 0
M  V30 11698 H 1124.66 -3.37386 3.58373 0
M  V30 11699 N 1126.31 -1.30234 -0.887518 0
M  V30 11700 C 1127.22 -1.18316 -2.02579 0
M  V30 11701 C 1128.24 -0.103658 -1.73691 0
M  V30 11702 O 1129.41 -0.3181 -1.98872 0
M  V30 11703 C 1126.48 -0.873222 -3.35523 0
M  V30 11704 C 1125.54 -2.03783 -3.7785 0
M  V30 11705 C 1124.77 -1.74258 -5.0445 0
M  V30 11706 O 1125 -0.669295 -5.6646 0
M  V30 11707 O 1123.93 -2.59423 -5.43124 0
M  V30 11708 H 1127.76 -2.13933 -2.15561 0
M  V30 11709 H 1125.34 -1.09803 -1.0131 0
M  V30 11710 H 1127.22 -0.715463 -4.15282 0
M  V30 11711 H 1125.9 0.053056 -3.23657 0
M  V30 11712 H 1124.81 -2.2509 -2.98806 0
M  V30 11713 H 1126.14 -2.94574 -3.94318 0
M  V30 11714 N 1127.79 1.09952 -1.12909 0
M  V30 11715 C 1129.07 1.78547 -0.798767 0
M  V30 11716 C 1129.45 1.9878 0.710624 0
M  V30 11717 O 1128.8 1.58485 1.64604 0
M  V30 11718 C 1129.01 3.1121 -1.57953 0
M  V30 11719 C 1130.35 3.86006 -1.76874 0
M  V30 11720 O 1131.38 3.20946 -1.54506 0
M  V30 11721 O 1130.24 5.02791 -2.14158 0
M  V30 11722 H 1127.33 0.774084 -0.291072 0
M  V30 11723 H 1129.88 1.16557 -1.2334 0
M  V30 11724 H 1128.65 2.91935 -2.60557 0
M  V30 11725 H 1128.27 3.80922 -1.13948 0
M  V30 11726 N 1129.27 0.921757 1.27833 0
M  V30 11727 C 1130.49 0.574599 1.99281 0
M  V30 11728 C 1130.92 -0.838905 1.68357 0
M  V30 11729 O 1130.28 -1.56196 0.920468 0
M  V30 11730 C 1130.32 0.800027 3.51613 0
M  V30 11731 O 1129.43 -0.137215 4.12172 0
M  V30 11732 H 1128.77 0.221887 0.625829 0
M  V30 11733 H 1131.3 1.23939 1.62789 0
M  V30 11734 H 1131.31 0.71326 4.01717 0
M  V30 11735 H 1129.98 1.83042 3.73455 0
M  V30 11736 H 1128.56 -0.00103872 3.729 0
M  V30 11737 N 1130.75 -1.41857 0.686609 0
M  V30 11738 C 1131.68 -2.29188 -0.0234289 0
M  V30 11739 C 1132.69 -1.44311 -0.753541 0
M  V30 11740 O 1133.88 -1.67908 -0.605734 0
M  V30 11741 C 1130.98 -3.21991 -1.05713 0
M  V30 11742 C 1130.15 -4.35581 -0.398453 0
M  V30 11743 C 1129.21 -5.09022 -1.33354 0
M  V30 11744 O 1128.24 -5.63126 -0.829334 0
M  V30 11745 N 1129.44 -5.15643 -2.66632 0
M  V30 11746 H 1132.21 -2.90766 0.726295 0
M  V30 11747 H 1129.77 -1.52912 0.531937 0
M  V30 11748 H 1131.76 -3.6799 -1.68421 0
M  V30 11749 H 1130.33 -2.61782 -1.70847 0
M  V30 11750 H 1129.55 -3.92079 0.408358 0
M  V30 11751 H 1130.84 -5.08765 0.0599239 0
M  V30 11752 H 1130.23 -4.73118 -3.10122 0
M  V30 11753 H 1128.79 -5.65248 -3.24558 0
M  V30 11754 N 1132.22 -0.430739 -1.51599 0
M  V30 11755 C 1133.16 0.419726 -2.25324 0
M  V30 11756 C 1134.17 0.991925 -1.29092 0
M  V30 11757 O 1135.36 0.887188 -1.54891 0
M  V30 11758 C 1132.46 1.59844 -2.98836 0
M  V30 11759 C 1131.63 1.14629 -4.22112 0
M  V30 11760 C 1130.69 2.19437 -4.78261 0
M  V30 11761 O 1129.72 1.79141 -5.40275 0
M  V30 11762 N 1130.92 3.51849 -4.61717 0
M  V30 11763 H 1133.68 -0.212112 -2.98948 0
M  V30 11764 H 1131.24 -0.259269 -1.59811 0
M  V30 11765 H 1133.24 2.29567 -3.33288 0
M  V30 11766 H 1131.81 2.13575 -2.28264 0
M  V30 11767 H 1131.03 0.276367 -3.9323 0
M  V30 11768 H 1132.31 0.821488 -5.02124 0
M  V30 11769 H 1131.71 3.87324 -4.12306 0
M  V30 11770 H 1130.27 4.17486 -5.00548 0
M  V30 11771 N 1133.7 1.56767 -0.161869 0
M  V30 11772 C 1134.61 2.21083 0.784814 0
M  V30 11773 C 1135.63 1.19959 1.26039 0
M  V30 11774 O 1136.8 1.52588 1.31449 0
M  V30 11775 C 1133.87 2.83153 2.00063 0
M  V30 11776 C 1132.93 3.9945 1.57285 0
M  V30 11777 C 1132.16 4.5855 2.7307 0
M  V30 11778 O 1132.39 4.16534 3.89686 0
M  V30 11779 O 1131.32 5.48575 2.47688 0
M  V30 11780 H 1135.15 3.02522 0.267243 0
M  V30 11781 H 1132.73 1.49255 0.0658783 0
M  V30 11782 H 1134.61 3.22546 2.71186 0
M  V30 11783 H 1133.29 2.04718 2.50744 0
M  V30 11784 H 1132.2 3.64745 0.831393 0
M  V30 11785 H 1133.53 4.7945 1.11304 0
M  V30 11786 N 1135.18 -0.111886 1.57202 0
M  V30 11787 C 1136.41 -0.836317 1.89791 0
M  V30 11788 C 1136.83 -1.72304 0.754513 0
M  V30 11789 O 1136.19 -1.78889 -0.294672 0
M  V30 11790 C 1136.24 -1.63971 3.21164 0
M  V30 11791 O 1135.34 -2.74726 3.0757 0
M  V30 11792 H 1134.68 -0.230833 0.622585 0
M  V30 11793 H 1137.21 -0.0921478 2.04392 0
M  V30 11794 H 1137.22 -2.02746 3.54059 0
M  V30 11795 H 1135.9 -0.98882 4.03974 0
M  V30 11796 H 1134.47 -2.39101 2.86156 0
M  V30 11797 N 1136.66 -1.52894 -0.382264 0
M  V30 11798 C 1137.57 -1.81084 -1.4915 0
M  V30 11799 C 1138.58 -0.698045 -1.59384 0
M  V30 11800 O 1139.76 -0.98635 -1.75594 0
M  V30 11801 C 1136.83 -1.97987 -2.84608 0
M  V30 11802 C 1135.89 -3.219 -2.8404 0
M  V30 11803 C 1135.12 -3.37988 -4.13037 0
M  V30 11804 O 1135.34 -2.58733 -5.08344 0
M  V30 11805 O 1134.28 -4.31273 -4.19866 0
M  V30 11806 H 1138.1 -2.75289 -1.28257 0
M  V30 11807 H 1135.69 -1.38068 -0.57076 0
M  V30 11808 H 1137.57 -2.10773 -3.64901 0
M  V30 11809 H 1136.24 -1.06972 -3.05514 0
M  V30 11810 H 1135.15 -3.14551 -2.02505 0
M  V30 11811 H 1136.48 -4.12783 -2.68087 0
M  V30 11812 N 1138.14 0.641106 -1.43971 0
M  V30 11813 C 1139.37 1.42829 -1.49692 0
M  V30 11814 C 1139.78 1.88427 -0.118594 0
M  V30 11815 O 1139.14 1.60234 0.873581 0
M  V30 11816 C 1139.19 2.65524 -2.45314 0
M  V30 11817 O 1138.91 2.2183 -3.77787 0
M  V30 11818 C 1140.41 3.58758 -2.60399 0
M  V30 11819 H 1137.63 0.438367 -0.508011 0
M  V30 11820 H 1140.17 0.784933 -1.88836 0
M  V30 11821 H 1138.33 3.25973 -2.09332 0
M  V30 11822 H 1138.74 3.01303 -4.29321 0
M  V30 11823 H 1140.22 4.41483 -3.31357 0
M  V30 11824 H 1140.69 4.06909 -1.65294 0
M  V30 11825 H 1141.3 3.04184 -2.97241 0
M  V30 11826 N 1139.62 1.30703 0.880598 0
M  V30 11827 C 1141.03 1.17818 1.4483 0
M  V30 11828 C 1141.38 -0.219456 1.94969 0
M  V30 11829 O 1140.5 -1.11646 1.85375 0
M  V30 11830 C 1141.1 2.13275 2.63247 0
M  V30 11831 C 1139.66 2.04356 3.16094 0
M  V30 11832 C 1138.8 2.03108 1.88792 0
M  V30 11833 H 1141.75 1.42909 0.690125 0
M  V30 11834 H 1141.78 1.71615 3.39601 0
M  V30 11835 H 1141.29 3.14988 2.26725 0
M  V30 11836 H 1139.39 1.058 3.57263 0
M  V30 11837 H 1139.5 2.92953 3.79098 0
M  V30 11838 H 1137.87 1.47971 2.07308 0
M  V30 11839 H 1138.65 3.06558 1.54521 0
M  V30 11840 N 1141.09 -1.09351 1.1349 0
M  V30 11841 C 1142.37 -1.78121 0.808225 0
M  V30 11842 C 1142.75 -1.99154 -0.700072 0
M  V30 11843 O 1142.1 -1.59356 -1.63762 0
M  V30 11844 C 1142.31 -3.10368 1.59601 0
M  V30 11845 C 1143.66 -3.85063 1.78919 0
M  V30 11846 O 1144.68 -3.20122 1.56206 0
M  V30 11847 O 1143.54 -5.01648 2.16821 0
M  V30 11848 H 1140.63 -0.77253 0.295173 0
M  V30 11849 H 1143.18 -1.15901 1.23956 0
M  V30 11850 H 1141.95 -2.90549 2.62101 0
M  V30 11851 H 1141.57 -3.80312 1.15967 0
M  V30 11852 N 1142.57 -0.928524 -1.27343 0
M  V30 11853 C 1143.98 -0.613856 -1.7632 0
M  V30 11854 C 1144.33 0.870983 -1.75808 0
M  V30 11855 O 1143.46 1.68155 -1.36209 0
M  V30 11856 C 1144.05 -1.10755 -3.20186 0
M  V30 11857 C 1142.61 -0.843532 -3.66826 0
M  V30 11858 C 1141.76 -1.26579 -2.46724 0
M  V30 11859 H 1144.71 -1.10821 -1.13598 0
M  V30 11860 H 1144.73 -0.455598 -3.77763 0
M  V30 11861 H 1144.24 -2.18825 -3.20526 0
M  V30 11862 H 1142.34 0.223334 -3.7193 0
M  V30 11863 H 1142.46 -1.46165 -4.56259 0
M  V30 11864 H 1140.82 -0.684334 -2.45334 0
M  V30 11865 H 1141.6 -2.35516 -2.49774 0
M  V30 11866 N 1144.05 1.41491 -0.694123 0
M  V30 11867 C 1145.27 2.06099 -0.23197 0
M  V30 11868 C 1145.7 1.51888 1.10958 0
M  V30 11869 O 1145.06 0.645247 1.69429 0
M  V30 11870 C 1145.11 3.60053 -0.198522 0
M  V30 11871 O 1144.21 4.04021 0.827067 0
M  V30 11872 H 1143.55 0.654193 -0.113699 0
M  V30 11873 H 1146.08 1.81282 -0.948575 0
M  V30 11874 H 1146.09 4.0799 -0.0288904 0
M  V30 11875 H 1144.77 3.98879 -1.17764 0
M  V30 11876 H 1143.34 3.67593 0.626908 0
M  V30 11877 N 1145.53 0.438773 1.51369 0
M  V30 11878 C 1146.78 -0.126962 2.01701 0
M  V30 11879 C 1147.1 -1.43086 1.32481 0
M  V30 11880 O 1146.37 -1.90427 0.459823 0
M  V30 11881 H 1144.95 -0.0499092 0.745331 0
M  V30 11882 H 1147.61 0.581808 1.86013 0
M  V30 11883 H 1146.7 -0.301836 3.10637 0
M  V30 11884 N 1147.01 -1.56678 0.170181 0
M  V30 11885 C 1148.25 -1.9646 -0.474125 0
M  V30 11886 C 1148.57 -1.05719 -1.63855 0
M  V30 11887 O 1147.84 -0.123316 -1.95511 0
M  V30 11888 H 1146.42 -0.725446 -0.178149 0
M  V30 11889 H 1149.09 -1.93276 0.251099 0
M  V30 11890 H 1148.18 -3.00726 -0.834894 0
M  V30 11891 N 1148.48 0.103547 -1.57259 0
M  V30 11892 C 1149.73 0.808576 -1.85656 0
M  V30 11893 C 1150.06 1.79143 -0.757502 0
M  V30 11894 O 1149.31 1.941 0.249723 0
M  V30 11895 C 1149.61 1.57946 -3.20605 0
M  V30 11896 C 1149.28 0.739502 -4.44795 0
M  V30 11897 C 1147.94 0.507921 -4.78512 0
M  V30 11898 C 1150.29 0.155034 -5.20969 0
M  V30 11899 C 1147.62 -0.318129 -5.85837 0
M  V30 11900 C 1149.97 -0.658292 -6.29166 0
M  V30 11901 C 1148.64 -0.900044 -6.61404 0
M  V30 11902 H 1147.91 0.295879 -0.679365 0
M  V30 11903 H 1150.55 0.0703604 -1.91371 0
M  V30 11904 H 1148.86 2.38902 -3.10537 0
M  V30 11905 H 1150.56 2.12921 -3.39803 0
M  V30 11906 H 1147.15 0.930103 -4.18386 0
M  V30 11907 H 1151.33 0.32113 -4.9526 0
M  V30 11908 H 1146.59 -0.514495 -6.09231 0
M  V30 11909 H 1150.76 -1.11809 -6.87366 0
M  V30 11910 H 1148.39 -1.54194 -7.44398 0
M  V30 11911 N 1149.96 1.53094 0.37415 0
M  V30 11912 C 1151.38 1.42676 0.715246 0
M  V30 11913 C 1151.58 0.558992 1.93591 0
M  V30 11914 O 1150.63 0.0381328 2.52471 0
M  V30 11915 C 1151.95 2.85746 0.936459 0
M  V30 11916 C 1153.49 2.95322 1.03701 0
M  V30 11917 C 1153.97 4.39436 1.29075 0
M  V30 11918 N 1155.46 4.42826 1.35864 0
M  V30 11919 C 1156.2 5.51433 1.57191 0
M  V30 11920 N 1155.69 6.701 1.75891 0
M  V30 11921 N 1157.48 5.38998 1.59491 0
M  V30 11922 H 1149.64 2.08025 -0.428854 0
M  V30 11923 H 1151.9 0.939078 -0.129758 0
M  V30 11924 H 1151.6 3.51523 0.111448 0
M  V30 11925 H 1151.48 3.28887 1.84698 0
M  V30 11926 H 1153.87 2.29704 1.85257 0
M  V30 11927 H 1153.95 2.55588 0.104066 0
M  V30 11928 H 1153.59 5.05625 0.480231 0
M  V30 11929 H 1153.52 4.76735 2.23677 0
M  V30 11930 H 1156.01 3.57301 1.23061 0
M  V30 11931 H 1156.32 7.48643 1.91713 0
M  V30 11932 H 1154.67 6.73102 1.73086 0
M  V30 11933 H 1157.86 4.45257 1.44444 0
M  V30 11934 H 1158.03 6.23705 1.75771 0
M  V30 11935 N 1151.44 -0.633461 1.44309 0
M  V30 11936 C 1152.69 -1.39031 1.46679 0
M  V30 11937 C 1153.01 -1.94745 0.0997165 0
M  V30 11938 O 1152.28 -1.75637 -0.867659 0
M  V30 11939 H 1150.86 -0.516051 0.540093 0
M  V30 11940 H 1153.52 -0.745739 1.80069 0
M  V30 11941 H 1152.62 -2.2228 2.19085 0
M  V30 11942 N 1152.92 -1.31168 -0.873655 0
M  V30 11943 C 1154.15 -1.23595 -1.65927 0
M  V30 11944 C 1154.56 0.199349 -1.87745 0
M  V30 11945 O 1153.92 1.13013 -1.43298 0
M  V30 11946 C 1153.97 -1.97268 -3.02932 0
M  V30 11947 O 1153.69 -3.35196 -2.82091 0
M  V30 11948 C 1155.19 -1.9649 -3.97374 0
M  V30 11949 H 1152.41 -0.427228 -0.517414 0
M  V30 11950 H 1154.96 -1.72983 -1.09074 0
M  V30 11951 H 1153.11 -1.51651 -3.56484 0
M  V30 11952 H 1153.52 -3.7266 -3.69087 0
M  V30 11953 H 1155 -2.52557 -4.90835 0
M  V30 11954 H 1155.48 -0.946525 -4.28879 0
M  V30 11955 H 1156.08 -2.4197 -3.49758 0
M  V30 11956 N 1154.4 1.08748 -1.14068 0
M  V30 11957 C 1155.33 2.14886 -0.768052 0
M  V30 11958 C 1156.31 1.60682 0.248979 0
M  V30 11959 O 1157.49 1.87988 0.138852 0
M  V30 11960 C 1154.62 3.38412 -0.139747 0
M  V30 11961 C 1153.66 4.11357 -1.12639 0
M  V30 11962 S 1154.5 4.64645 -2.66206 0
M  V30 11963 C 1155.65 5.91461 -2.04755 0
M  V30 11964 H 1155.89 2.46163 -1.66706 0
M  V30 11965 H 1153.42 1.20804 -0.961549 0
M  V30 11966 H 1155.38 4.09929 0.21635 0
M  V30 11967 H 1154.04 3.0534 0.736638 0
M  V30 11968 H 1153.23 4.99987 -0.634719 0
M  V30 11969 H 1152.83 3.45735 -1.4263 0
M  V30 11970 H 1155.13 6.62859 -1.40086 0
M  V30 11971 H 1156.07 6.45319 -2.91494 0
M  V30 11972 H 1156.48 5.44308 -1.49629 0
M  V30 11973 N 1155.87 0.935264 1.26849 0
M  V30 11974 C 1156.78 0.446122 2.30319 0
M  V30 11975 C 1157.8 -0.476965 1.67335 0
M  V30 11976 O 1158.98 -0.357934 1.98194 0
M  V30 11977 C 1156.04 -0.286297 3.45516 0
M  V30 11978 C 1155.1 0.672626 4.23998 0
M  V30 11979 C 1154.34 -0.0249345 5.33694 0
M  V30 11980 O 1154.56 -1.24296 5.56693 0
M  V30 11981 O 1153.49 0.650752 5.98372 0
M  V30 11982 H 1157.32 1.30546 2.74211 0
M  V30 11983 H 1154.9 0.70091 1.31938 0
M  V30 11984 H 1156.79 -0.699109 4.1556 0
M  V30 11985 H 1155.46 -1.12112 3.03665 0
M  V30 11986 H 1154.37 1.13527 3.56458 0
M  V30 11987 H 1155.7 1.47489 4.69583 0
M  V30 11988 N 1157.35 -1.41121 0.701616 0
M  V30 11989 C 1158.32 -2.29148 0.0490091 0
M  V30 11990 C 1159.32 -1.44679 -0.701763 0
M  V30 11991 O 1160.51 -1.65757 -0.53575 0
M  V30 11992 C 1157.64 -3.2766 -0.940837 0
M  V30 11993 H 1158.83 -2.88354 0.824133 0
M  V30 11994 H 1156.38 -1.49209 0.465457 0
M  V30 11995 H 1157.12 -2.73445 -1.74351 0
M  V30 11996 H 1156.9 -3.89997 -0.405551 0
M  V30 11997 H 1158.39 -3.93609 -1.39507 0
M  V30 11998 N 1158.83 -0.446794 -1.51134 0
M  V30 11999 C 1160.11 0.176892 -1.94798 0
M  V30 12000 C 1160.49 1.59229 -1.38598 0
M  V30 12001 O 1159.84 2.21097 -0.576905 0
M  V30 12002 C 1160.05 0.145 -3.48699 0
M  V30 12003 C 1161.39 0.345917 -4.23189 0
M  V30 12004 O 1162.42 0.222691 -3.55503 0
M  V30 12005 O 1161.28 0.592112 -5.43283 0
M  V30 12006 H 1158.37 0.12486 -0.81752 0
M  V30 12007 H 1160.92 -0.505453 -1.61998 0
M  V30 12008 H 1159.69 -0.844156 -3.82086 0
M  V30 12009 H 1159.31 0.869851 -3.87968 0
M  V30 12010 N 1160.31 1.56586 -0.178487 0
M  V30 12011 C 1161.72 1.58609 0.17759 0
M  V30 12012 C 1161.92 1.19411 1.62306 0
M  V30 12013 O 1160.98 0.90906 2.35568 0
M  V30 12014 C 1162.29 3.005 -0.109722 0
M  V30 12015 C 1163.84 3.12962 -0.0485036 0
M  V30 12016 C 1164.32 4.56957 -0.308901 0
M  V30 12017 N 1165.81 4.62487 -0.25693 0
M  V30 12018 C 1166.54 5.71767 -0.432488 0
M  V30 12019 N 1166.04 6.89577 -0.667494 0
M  V30 12020 N 1167.83 5.60895 -0.367895 0
M  V30 12021 H 1159.98 1.80351 -1.12193 0
M  V30 12022 H 1162.25 0.83623 -0.446569 0
M  V30 12023 H 1161.95 3.3368 -1.11133 0
M  V30 12024 H 1161.83 3.72472 0.595373 0
M  V30 12025 H 1164.21 2.79604 0.943687 0
M  V30 12026 H 1164.29 2.43411 -0.78642 0
M  V30 12027 H 1163.94 4.91025 -1.29833 0
M  V30 12028 H 1163.87 5.24676 0.449711 0
M  V30 12029 H 1166.36 3.77813 -0.0812308 0
M  V30 12030 H 1166.67 7.68744 -0.79071 0
M  V30 12031 H 1165.02 6.91423 -0.704193 0
M  V30 12032 H 1168.21 4.67735 -0.184837 0
M  V30 12033 H 1168.38 6.46005 -0.508138 0
M  V30 12034 N 1161.79 -0.095206 1.57312 0
M  V30 12035 C 1163.03 -0.797142 1.85715 0
M  V30 12036 C 1163.36 -1.79275 0.767171 0
M  V30 12037 O 1162.63 -1.94808 -0.206584 0
M  V30 12038 H 1161.21 -0.297382 0.685254 0
M  V30 12039 H 1163.87 -0.0768617 1.94748 0
M  V30 12040 H 1162.96 -1.32779 2.82447 0
M  V30 12041 N 1163.26 -1.53291 -0.366026 0
M  V30 12042 C 1164.2 -1.7448 -1.47079 0
M  V30 12043 C 1165.18 -0.593147 -1.51395 0
M  V30 12044 O 1166.36 -0.825686 -1.69454 0
M  V30 12045 C 1163.49 -1.82319 -2.85443 0
M  V30 12046 C 1162.53 -3.04285 -2.98852 0
M  V30 12047 S 1163.37 -4.63812 -2.67653 0
M  V30 12048 C 1164.52 -4.74499 -4.08168 0
M  V30 12049 H 1164.75 -2.67911 -1.28884 0
M  V30 12050 H 1162.29 -1.43874 -0.560335 0
M  V30 12051 H 1164.25 -1.87521 -3.65166 0
M  V30 12052 H 1162.91 -0.899398 -3.00948 0
M  V30 12053 H 1162.1 -3.06379 -4.00185 0
M  V30 12054 H 1161.7 -2.97193 -2.27051 0
M  V30 12055 H 1163.99 -4.54527 -5.02406 0
M  V30 12056 H 1164.94 -5.76558 -4.1108 0
M  V30 12057 H 1165.34 -4.03136 -3.95147 0
M  V30 12058 N 1164.74 0.6258 -1.44643 0
M  V30 12059 C 1165.65 1.76611 -1.5442 0
M  V30 12060 C 1166.67 1.68614 -0.429576 0
M  V30 12061 O 1167.84 1.89296 -0.687686 0
M  V30 12062 C 1164.91 3.13015 -1.49071 0
M  V30 12063 C 1163.97 3.32604 -2.71428 0
M  V30 12064 C 1163.2 4.62501 -2.66325 0
M  V30 12065 O 1163.43 5.43651 -1.72626 0
M  V30 12066 O 1162.36 4.84408 -3.57258 0
M  V30 12067 H 1166.19 1.71315 -2.50769 0
M  V30 12068 H 1163.77 0.787677 -1.26949 0
M  V30 12069 H 1165.65 3.94318 -1.48631 0
M  V30 12070 H 1164.33 3.18842 -0.558686 0
M  V30 12071 H 1163.24 2.50959 -2.77435 0
M  V30 12072 H 1164.57 3.31642 -3.63695 0
M  V30 12073 N 1166.22 1.31629 0.866686 0
M  V30 12074 C 1167.47 1.21263 1.61678 0
M  V30 12075 C 1167.79 -0.228562 1.93656 0
M  V30 12076 O 1167.06 -1.15014 1.58583 0
M  V30 12077 H 1165.64 0.445817 0.59938 0
M  V30 12078 H 1168.3 1.64998 1.03739 0
M  V30 12079 H 1167.4 1.78669 2.55898 0
M  V30 12080 N 1167.7 -1.08142 1.14644 0
M  V30 12081 C 1168.63 -2.17139 0.858667 0
M  V30 12082 C 1169.61 -1.69064 -0.187452 0
M  V30 12083 O 1170.8 -1.94151 -0.0435458 0
M  V30 12084 C 1167.93 -3.45648 0.33834 0
M  V30 12085 C 1166.88 -4.07129 1.32021 0
M  V30 12086 C 1166.21 -5.30623 0.659075 0
M  V30 12087 C 1167.51 -4.48095 2.68343 0
M  V30 12088 H 1169.2 -2.41468 1.77012 0
M  V30 12089 H 1166.75 -1.16052 0.852523 0
M  V30 12090 H 1168.7 -4.21216 0.124611 0
M  V30 12091 H 1167.42 -3.2088 -0.608553 0
M  V30 12092 H 1166.08 -3.33596 1.52016 0
M  V30 12093 H 1165.73 -5.02142 -0.293711 0
M  V30 12094 H 1165.43 -5.72714 1.31427 0
M  V30 12095 H 1166.95 -6.08903 0.454933 0
M  V30 12096 H 1168.37 -5.14828 2.5224 0
M  V30 12097 H 1166.76 -5.01113 3.30161 0
M  V30 12098 H 1167.83 -3.59852 3.25015 0
M  V30 12099 N 1169.18 -0.941978 -1.26351 0
M  V30 12100 C 1170.43 -0.585711 -1.93009 0
M  V30 12101 C 1170.74 0.879507 -1.74711 0
M  V30 12102 O 1171.95 1.34518 -2.35833 0
M  V30 12103 C 1170.4 -0.996787 -3.45821 0
M  V30 12104 C 1170.01 -2.48367 -3.72851 0
M  V30 12105 C 1171.75 -0.712452 -4.18479 0
M  V30 12106 C 1169.66 -2.83341 -5.19107 0
M  V30 12107 H 1168.59 -0.215342 -0.722595 0
M  V30 12108 H 1171.24 -1.14472 -1.43417 0
M  V30 12109 H 1169.62 -0.366295 -3.94302 0
M  V30 12110 H 1170.8 -3.16328 -3.35072 0
M  V30 12111 H 1169.11 -2.74139 -3.13427 0
M  V30 12112 H 1171.71 -0.95007 -5.26192 0
M  V30 12113 H 1172.05 0.350811 -4.14819 0
M  V30 12114 H 1172.59 -1.3027 -3.75865 0
M  V30 12115 H 1169.32 -3.88633 -5.27868 0
M  V30 12116 H 1168.84 -2.20043 -5.5798 0
M  V30 12117 H 1170.52 -2.71849 -5.87118 0
M  V30 12118 N 1170.66 1.40747 -0.709091 0
M  V30 12119 C 1171.88 2.05841 -0.253816 0
M  V30 12120 C 1172.31 1.53056 1.09341 0
M  V30 12121 O 1171.66 0.663181 1.68735 0
M  V30 12122 C 1171.71 3.59822 -0.236699 0
M  V30 12123 O 1170.82 4.04876 0.784168 0
M  V30 12124 H 1170.16 0.65295 -0.120631 0
M  V30 12125 H 1172.69 1.80266 -0.967749 0
M  V30 12126 H 1172.7 4.07936 -0.0721616 0
M  V30 12127 H 1171.37 3.97608 -1.21988 0
M  V30 12128 H 1169.95 3.68237 0.587884 0
M  V30 12129 N 1172.13 0.454803 1.50895 0
M  V30 12130 C 1173.54 -0.00421212 1.867 0
M  V30 12131 C 1173.9 -1.4037 1.3708 0
M  V30 12132 O 1173.02 -2.03755 0.728884 0
M  V30 12133 C 1173.62 -0.0144196 3.38797 0
M  V30 12134 C 1172.17 -0.417905 3.74073 0
M  V30 12135 C 1171.32 0.37801 2.74711 0
M  V30 12136 H 1174.27 0.669849 1.4387 0
M  V30 12137 H 1174.29 -0.820172 3.71555 0
M  V30 12138 H 1173.81 1.00427 3.74881 0
M  V30 12139 H 1171.91 -1.44155 3.43584 0
M  V30 12140 H 1172.02 -0.130568 4.78922 0
M  V30 12141 H 1170.38 -0.166089 2.54158 0
M  V30 12142 H 1171.17 1.3959 3.13639 0
M  V30 12143 N 1173.61 -1.56489 0.186789 0
M  V30 12144 C 1174.84 -2.01722 -0.459993 0
M  V30 12145 C 1175.25 -1.06697 -1.5576 0
M  V30 12146 O 1174.61 -0.0704212 -1.82364 0
M  V30 12147 C 1174.66 -3.46693 -1.02401 0
M  V30 12148 O 1174.38 -4.3809 0.0297916 0
M  V30 12149 C 1175.88 -4.07403 -1.7475 0
M  V30 12150 H 1173.1 -0.660845 -0.116298 0
M  V30 12151 H 1175.65 -2.02389 0.293059 0
M  V30 12152 H 1173.8 -3.46752 -1.72749 0
M  V30 12153 H 1174.22 -5.23057 -0.388821 0
M  V30 12154 H 1175.69 -5.10718 -2.09455 0
M  V30 12155 H 1176.17 -3.50383 -2.64818 0
M  V30 12156 H 1176.77 -4.11093 -1.09007 0
M  V30 12157 N 1175.09 0.086862 -1.5736 0
M  V30 12158 C 1176 1.12297 -2.05977 0
M  V30 12159 C 1177.02 1.43347 -0.986284 0
M  V30 12160 O 1178.19 1.53825 -1.3 0
M  V30 12161 C 1175.26 2.42131 -2.4814 0
M  V30 12162 C 1174.32 2.18189 -3.69719 0
M  V30 12163 C 1173.55 3.41833 -4.09861 0
M  V30 12164 O 1173.77 4.50383 -3.50016 0
M  V30 12165 O 1172.71 3.30934 -5.02759 0
M  V30 12166 H 1176.53 0.740012 -2.94546 0
M  V30 12167 H 1174.12 0.29995 -1.46358 0
M  V30 12168 H 1176 3.18568 -2.75848 0
M  V30 12169 H 1174.68 2.79837 -1.62705 0
M  V30 12170 H 1173.58 1.39506 -3.47115 0
M  V30 12171 H 1174.92 1.85372 -4.55959 0
M  V30 12172 N 1176.57 1.53483 0.357892 0
M  V30 12173 C 1177.53 1.79782 1.42166 0
M  V30 12174 C 1178.53 0.668441 1.46248 0
M  V30 12175 O 1179.72 0.936677 1.46874 0
M  V30 12176 C 1176.85 1.92686 2.8122 0
M  V30 12177 H 1178.05 2.74794 1.20117 0
M  V30 12178 H 1175.6 1.44677 0.591468 0
M  V30 12179 H 1176.33 0.997669 3.08573 0
M  V30 12180 H 1176.12 2.74837 2.79655 0
M  V30 12181 H 1177.61 2.14599 3.58242 0
M  V30 12182 N 1178.05 -0.61812 1.44973 0
M  V30 12183 C 1178.98 -1.74277 1.47318 0
M  V30 12184 C 1179.96 -1.59203 0.330627 0
M  V30 12185 O 1181.14 -1.80909 0.529558 0
M  V30 12186 C 1178.27 -3.11994 1.31823 0
M  V30 12187 C 1177.31 -3.45685 2.49809 0
M  V30 12188 S 1178.15 -3.41704 4.12309 0
M  V30 12189 C 1179.3 -4.82019 3.9926 0
M  V30 12190 H 1179.54 -1.72023 2.42478 0
M  V30 12191 H 1177.07 -0.793867 1.32428 0
M  V30 12192 H 1179.03 -3.9146 1.2357 0
M  V30 12193 H 1177.69 -3.11774 0.381521 0
M  V30 12194 H 1176.88 -4.45931 2.34864 0
M  V30 12195 H 1176.48 -2.73711 2.54869 0
M  V30 12196 H 1178.77 -5.71567 3.63754 0
M  V30 12197 H 1179.72 -5.02019 4.99382 0
M  V30 12198 H 1180.13 -4.57205 3.31095 0
M  V30 12199 N 1179.52 -1.32087 -0.859693 0
M  V30 12200 C 1180.77 -1.22119 -1.61033 0
M  V30 12201 C 1181.09 0.218289 -1.93774 0
M  V30 12202 O 1180.36 1.14172 -1.5919 0
M  V30 12203 H 1178.94 -0.448989 -0.597008 0
M  V30 12204 H 1181.6 -1.65545 -1.02863 0
M  V30 12205 H 1180.7 -1.80023 -2.54947 0
M  V30 12206 N 1181 1.07532 -1.15215 0
M  V30 12207 C 1181.95 2.16785 -0.843022 0
M  V30 12208 C 1182.94 1.68411 0.182802 0
M  V30 12209 O 1184.15 1.7996 0.0380164 0
M  V30 12210 H 1180.52 0.707465 -0.254945 0
M  V30 12211 H 1182.5 2.40078 -1.77215 0
M  V30 12212 C 1181.24 3.45967 -0.346699 0
M  V30 12213 H 1180.57 3.83574 -1.12744 0
M  V30 12214 H 1182.01 4.23663 -0.169039 0
M  V30 12215 C 1180.47 3.23768 0.931437 0
M  V30 12216 O 1181 3.48179 2.00336 0
M  V30 12217 N 1179.2 2.77264 0.870217 0
M  V30 12218 H 1178.75 2.576 -0.00226223 0
M  V30 12219 H 1178.71 2.6279 1.72594 0
M  V30 12220 N 1182.48 0.948665 1.2585 0
M  V30 12221 C 1183.71 0.616741 1.98018 0
M  V30 12222 C 1184.13 -0.803005 1.70098 0
M  V30 12223 O 1183.49 -1.54208 0.953392 0
M  V30 12224 C 1183.54 0.874429 3.49837 0
M  V30 12225 O 1182.64 -0.0497568 4.1237 0
M  V30 12226 H 1181.98 0.235112 0.620982 0
M  V30 12227 H 1184.51 1.27364 1.60124 0
M  V30 12228 H 1184.52 0.798309 4.00114 0
M  V30 12229 H 1183.2 1.90922 3.69488 0
M  V30 12230 H 1181.77 0.0780591 3.72818 0
M  V30 12231 N 1183.96 -1.40369 0.716545 0
M  V30 12232 C 1184.91 -2.32539 0.053472 0
M  V30 12233 C 1185.9 -1.5209 -0.745984 0
M  V30 12234 O 1187.11 -1.67883 -0.649245 0
M  V30 12235 H 1183.48 -0.751998 -0.00151088 0
M  V30 12236 H 1185.45 -2.86111 0.847535 0
M  V30 12237 C 1184.2 -3.37061 -0.853515 0
M  V30 12238 H 1183.52 -3.99032 -0.247754 0
M  V30 12239 H 1184.96 -4.04046 -1.28541 0
M  V30 12240 C 1183.42 -2.72619 -1.97941 0
M  V30 12241 O 1183.95 -2.59024 -3.07033 0
M  V30 12242 N 1182.16 -2.30988 -1.76332 0
M  V30 12243 H 1181.71 -2.42246 -0.876063 0
M  V30 12244 H 1181.66 -1.88209 -2.51843 0
M  V30 12245 N 1185.44 -0.462799 -1.50652 0
M  V30 12246 C 1186.68 0.0948568 -2.01877 0
M  V30 12247 C 1187.01 1.4096 -1.34741 0
M  V30 12248 O 1186.28 1.89671 -0.49006 0
M  V30 12249 H 1184.86 0.0380453 -0.746031 0
M  V30 12250 H 1187.52 -0.611327 -1.85064 0
M  V30 12251 H 1186.61 0.252378 -3.11078 0
M  V30 12252 N 1186.91 1.56388 -0.195085 0
M  V30 12253 C 1187.88 2.17859 0.712053 0
M  V30 12254 C 1188.88 1.13304 1.141 0
M  V30 12255 O 1190.07 1.38689 1.05409 0
M  V30 12256 C 1187.2 2.78065 1.97213 0
M  V30 12257 H 1188.39 2.9938 0.176529 0
M  V30 12258 H 1185.95 1.56205 0.0545322 0
M  V30 12259 H 1186.68 2.00342 2.55017 0
M  V30 12260 H 1186.47 3.54603 1.67329 0
M  V30 12261 H 1187.96 3.25266 2.619 0
M  V30 12262 N 1188.39 -0.0785156 1.57404 0
M  V30 12263 C 1189.62 -0.795871 1.91522 0
M  V30 12264 C 1190.04 -1.70665 0.790892 0
M  V30 12265 O 1189.4 -1.79474 -0.25666 0
M  V30 12266 C 1189.45 -1.57121 3.24569 0
M  V30 12267 O 1188.55 -2.6814 3.13328 0
M  V30 12268 H 1187.89 -0.217575 0.627341 0
M  V30 12269 H 1190.42 -0.0487724 2.04542 0
M  V30 12270 H 1190.43 -1.9519 3.5828 0
M  V30 12271 H 1189.11 -0.902909 4.05981 0
M  V30 12272 H 1187.69 -2.32978 2.91163 0
M  V30 12273 N 1189.87 -1.5367 -0.349747 0
M  V30 12274 C 1191.1 -1.74858 -1.11532 0
M  V30 12275 C 1191.52 -0.483591 -1.81777 0
M  V30 12276 O 1190.88 0.563399 -1.72324 0
M  V30 12277 C 1190.93 -2.92479 -2.10923 0
M  V30 12278 O 1190.03 -2.62194 -3.18321 0
M  V30 12279 H 1189.37 -0.580219 -0.322865 0
M  V30 12280 H 1191.9 -2.00611 -0.402033 0
M  V30 12281 H 1191.91 -3.19093 -2.54252 0
M  V30 12282 H 1190.59 -3.84228 -1.59191 0
M  V30 12283 H 1189.16 -2.46448 -2.79853 0
M  V30 12284 N 1191.35 0.610423 -1.45298 0
M  V30 12285 C 1192.57 1.40112 -1.52917 0
M  V30 12286 C 1193 1.87404 -0.161696 0
M  V30 12287 O 1192.36 1.59973 0.853135 0
M  V30 12288 C 1192.4 2.58359 -2.51561 0
M  V30 12289 O 1191.51 3.58895 -2.03146 0
M  V30 12290 H 1190.85 0.41841 -0.515586 0
M  V30 12291 H 1193.38 0.743159 -1.90626 0
M  V30 12292 H 1193.39 3.0564 -2.70275 0
M  V30 12293 H 1192.06 2.23286 -3.50879 0
M  V30 12294 H 1190.64 3.18282 -1.94296 0
M  V30 12295 N 1192.83 1.32541 0.852676 0
M  V30 12296 C 1194.07 1.24532 1.62083 0
M  V30 12297 C 1194.43 -0.189531 1.91062 0
M  V30 12298 O 1195.63 -0.393382 2.65906 0
M  V30 12299 C 1193.9 2.0828 2.90438 0
M  V30 12300 S 1195.46 2.17317 3.81207 0
M  V30 12301 H 1192.28 0.443261 0.555915 0
M  V30 12302 H 1194.88 1.67413 1.00961 0
M  V30 12303 H 1193.59 3.11587 2.67099 0
M  V30 12304 H 1193.12 1.66184 3.56576 0
M  V30 12305 H 1195.13 1.32412 4.78207 0
M  V30 12306 N 1194.3 -1.0692 1.15784 0
M  V30 12307 C 1195.72 -1.61069 0.944123 0
M  V30 12308 C 1196.07 -1.8936 -0.513522 0
M  V30 12309 O 1195.19 -1.66232 -1.38549 0
M  V30 12310 C 1195.79 -2.9263 1.70743 0
M  V30 12311 C 1194.35 -3.43505 1.53887 0
M  V30 12312 C 1193.49 -2.17495 1.72021 0
M  V30 12313 H 1196.44 -0.89951 1.30746 0
M  V30 12314 H 1196.46 -3.61757 1.17951 0
M  V30 12315 H 1195.98 -2.72007 2.76828 0
M  V30 12316 H 1194.08 -3.69201 0.502153 0
M  V30 12317 H 1194.19 -4.19254 2.31868 0
M  V30 12318 H 1192.55 -2.27407 1.1471 0
M  V30 12319 H 1193.34 -1.99362 2.79481 0
M  V30 12320 N 1195.78 -0.955326 -1.25345 0
M  V30 12321 C 1197.03 -0.609278 -1.92697 0
M  V30 12322 C 1197.35 0.856535 -1.75181 0
M  V30 12323 O 1196.62 1.61013 -1.11587 0
M  V30 12324 H 1195.2 -0.22235 -0.713141 0
M  V30 12325 H 1197.86 -1.21372 -1.52496 0
M  V30 12326 H 1196.96 -0.839198 -3.00606 0
M  V30 12327 N 1197.26 1.39987 -0.723979 0
M  V30 12328 C 1198.51 2.01514 -0.276365 0
M  V30 12329 C 1198.86 1.56399 1.12058 0
M  V30 12330 O 1198.16 0.777927 1.75097 0
M  V30 12331 C 1198.35 3.56101 -0.304472 0
M  V30 12332 C 1198.18 4.16223 -1.70261 0
M  V30 12333 C 1196.95 4.49292 -2.31225 0
M  V30 12334 C 1199.15 4.40512 -2.65431 0
M  V30 12335 N 1197.13 4.94854 -3.63308 0
M  V30 12336 C 1198.5 4.88158 -3.82232 0
M  V30 12337 C 1200.55 4.22562 -2.63335 0
M  V30 12338 C 1199.26 5.19739 -4.97256 0
M  V30 12339 C 1201.28 4.5525 -3.77493 0
M  V30 12340 C 1200.65 5.03093 -4.93028 0
M  V30 12341 H 1196.74 0.768031 -0.147146 0
M  V30 12342 H 1199.33 1.70085 -0.947581 0
M  V30 12343 H 1197.5 3.86941 0.336344 0
M  V30 12344 H 1199.23 4.04381 0.160647 0
M  V30 12345 H 1195.99 4.36712 -1.83248 0
M  V30 12346 H 1196.41 5.22007 -4.31089 0
M  V30 12347 H 1201.05 3.84786 -1.75212 0
M  V30 12348 H 1198.77 5.56426 -5.86017 0
M  V30 12349 H 1202.36 4.42995 -3.77156 0
M  V30 12350 H 1201.24 5.27909 -5.79898 0
M  V30 12351 N 1198.74 0.470782 1.50404 0
M  V30 12352 C 1199.67 -0.313458 2.31386 0
M  V30 12353 C 1200.65 -0.990623 1.38278 0
M  V30 12354 O 1201.84 -0.987854 1.67198 0
M  V30 12355 C 1198.97 -1.39599 3.18009 0
M  V30 12356 C 1197.92 -0.840443 4.19667 0
M  V30 12357 C 1197.25 -2.02124 4.95025 0
M  V30 12358 C 1198.55 0.148055 5.2209 0
M  V30 12359 H 1200.24 0.362432 2.97198 0
M  V30 12360 H 1197.79 0.175745 1.42924 0
M  V30 12361 H 1199.74 -1.9521 3.73458 0
M  V30 12362 H 1198.46 -2.10064 2.50081 0
M  V30 12363 H 1197.12 -0.306302 3.65318 0
M  V30 12364 H 1196.77 -2.71286 4.23571 0
M  V30 12365 H 1196.47 -1.65574 5.6379 0
M  V30 12366 H 1197.99 -2.58226 5.5331 0
M  V30 12367 H 1199.41 -0.318874 5.72413 0
M  V30 12368 H 1197.8 0.427811 5.98573 0
M  V30 12369 H 1198.87 1.07404 4.72855 0
M  V30 12370 N 1200.22 -1.56282 0.203376 0
M  V30 12371 C 1201.63 -1.58871 -0.152335 0
M  V30 12372 C 1201.83 -1.21978 -1.60386 0
M  V30 12373 O 1200.89 -0.946422 -2.34092 0
M  V30 12374 C 1202.2 -3.00287 0.157515 0
M  V30 12375 C 1203.75 -3.12846 0.098287 0
M  V30 12376 C 1204.23 -4.56408 0.38156 0
M  V30 12377 N 1205.72 -4.6202 0.330475 0
M  V30 12378 C 1206.45 -5.71006 0.523397 0
M  V30 12379 N 1205.95 -6.88428 0.777115 0
M  V30 12380 N 1207.74 -5.60238 0.457082 0
M  V30 12381 H 1199.89 -1.78543 1.15048 0
M  V30 12382 H 1202.15 -0.829019 0.459816 0
M  V30 12383 H 1201.86 -3.3187 1.16427 0
M  V30 12384 H 1201.73 -3.73372 -0.536041 0
M  V30 12385 H 1204.12 -2.8107 -0.899085 0
M  V30 12386 H 1204.2 -2.42129 0.825045 0
M  V30 12387 H 1203.85 -4.88897 1.37629 0
M  V30 12388 H 1203.78 -5.25325 -0.366182 0
M  V30 12389 H 1206.27 -3.77636 0.141327 0
M  V30 12390 H 1206.58 -7.67389 0.912911 0
M  V30 12391 H 1204.93 -6.90215 0.814104 0
M  V30 12392 H 1208.12 -4.67382 0.259226 0
M  V30 12393 H 1208.29 -6.45114 0.610848 0
M  V30 12394 N 1201.7 0.070167 -1.57444 0
M  V30 12395 C 1202.64 1.08322 -2.03801 0
M  V30 12396 C 1203.61 1.38364 -0.918946 0
M  V30 12397 O 1204.8 1.49404 -1.18672 0
M  V30 12398 C 1201.94 2.39128 -2.48821 0
M  V30 12399 C 1201.05 2.15603 -3.74352 0
M  V30 12400 C 1200.19 3.39984 -4.08148 0
M  V30 12401 C 1199.22 3.1183 -5.26715 0
M  V30 12402 N 1198.36 4.28546 -5.56141 0
M  V30 12403 H 1203.2 0.680931 -2.90116 0
M  V30 12404 H 1200.74 0.324657 -1.43473 0
M  V30 12405 H 1202.7 3.15501 -2.72975 0
M  V30 12406 H 1201.33 2.77157 -1.65481 0
M  V30 12407 H 1200.38 1.29915 -3.57528 0
M  V30 12408 H 1201.69 1.90808 -4.60862 0
M  V30 12409 H 1200.84 4.2475 -4.33211 0
M  V30 12410 H 1199.58 3.67856 -3.20208 0
M  V30 12411 H 1198.59 2.2546 -5.01446 0
M  V30 12412 H 1199.81 2.85278 -6.16273 0
M  V30 12413 H 1197.76 4.56447 -4.71161 0
M  V30 12414 H 1197.68 4.0703 -6.37073 0
M  V30 12415 H 1198.94 5.14305 -5.85757 0
M  V30 12416 N 1203.17 1.53854 0.341593 0
M  V30 12417 C 1204.08 1.84975 1.44297 0
M  V30 12418 C 1205.1 0.740057 1.57477 0
M  V30 12419 O 1206.28 1.03256 1.72917 0
M  V30 12420 C 1203.34 2.05464 2.79259 0
M  V30 12421 C 1202.4 3.29318 2.75405 0
M  V30 12422 C 1201.63 3.4882 4.03931 0
M  V30 12423 O 1201.86 2.7212 5.01305 0
M  V30 12424 O 1200.79 4.42253 4.08284 0
M  V30 12425 H 1204.62 2.78592 1.20913 0
M  V30 12426 H 1202.2 1.39532 0.533953 0
M  V30 12427 H 1204.08 2.20374 3.59184 0
M  V30 12428 H 1202.76 1.15035 3.0257 0
M  V30 12429 H 1201.67 3.1981 1.94094 0
M  V30 12430 H 1203 4.19746 2.57049 0
M  V30 12431 N 1204.65 -0.602709 1.4562 0
M  V30 12432 C 1205.58 -1.72374 1.5751 0
M  V30 12433 C 1206.56 -1.64669 0.426389 0
M  V30 12434 O 1207.75 -1.82994 0.650143 0
M  V30 12435 C 1204.88 -3.10987 1.5461 0
M  V30 12436 C 1203.83 -3.33507 2.68248 0
M  V30 12437 C 1203.16 -4.72443 2.50403 0
M  V30 12438 C 1204.46 -3.23285 4.10224 0
M  V30 12439 H 1206.15 -1.62679 2.51348 0
M  V30 12440 H 1203.7 -0.781217 1.20967 0
M  V30 12441 H 1205.65 -3.89214 1.61525 0
M  V30 12442 H 1204.37 -3.21533 0.573049 0
M  V30 12443 H 1203.03 -2.57672 2.60769 0
M  V30 12444 H 1202.68 -4.79729 1.51226 0
M  V30 12445 H 1202.38 -4.88466 3.26611 0
M  V30 12446 H 1203.91 -5.52864 2.59179 0
M  V30 12447 H 1205.32 -3.91381 4.1892 0
M  V30 12448 H 1203.72 -3.50837 4.86861 0
M  V30 12449 H 1204.79 -2.20652 4.31788 0
M  V30 12450 N 1206.13 -1.32992 -0.845635 0
M  V30 12451 C 1207.04 -1.24701 -1.98713 0
M  V30 12452 C 1208.06 -0.158864 -1.73273 0
M  V30 12453 O 1209.23 -0.381209 -1.97759 0
M  V30 12454 C 1206.3 -0.979524 -3.32575 0
M  V30 12455 C 1205.36 -2.15701 -3.71176 0
M  V30 12456 C 1204.59 -1.90219 -4.98651 0
M  V30 12457 O 1204.81 -0.849171 -5.64044 0
M  V30 12458 O 1203.75 -2.76571 -5.34595 0
M  V30 12459 H 1207.57 -2.20683 -2.08645 0
M  V30 12460 H 1205.16 -1.12971 -0.97765 0
M  V30 12461 H 1207.04 -0.847219 -4.12796 0
M  V30 12462 H 1205.72 -0.0499398 -3.23661 0
M  V30 12463 H 1204.62 -2.34483 -2.91494 0
M  V30 12464 H 1205.96 -3.0697 -3.84747 0
M  V30 12465 N 1207.61 1.06304 -1.1635 0
M  V30 12466 C 1208.56 2.15879 -0.865967 0
M  V30 12467 C 1209.55 1.68595 0.164929 0
M  V30 12468 O 1210.76 1.7999 0.0189271 0
M  V30 12469 H 1207.13 0.704721 -0.262435 0
M  V30 12470 H 1209.1 2.38185 -1.79751 0
M  V30 12471 C 1207.85 3.4558 -0.383374 0
M  V30 12472 H 1207.17 3.82356 -1.16806 0
M  V30 12473 H 1208.61 4.2346 -0.213964 0
M  V30 12474 C 1207.07 3.24738 0.897044 0
M  V30 12475 O 1207.6 3.50284 1.96632 0
M  V30 12476 N 1205.81 2.78172 0.840761 0
M  V30 12477 H 1205.36 2.57583 -0.029584 0
M  V30 12478 H 1205.31 2.64606 1.69797 0
M  V30 12479 N 1209.09 0.96196 1.24836 0
M  V30 12480 C 1210.05 0.492443 2.23847 0
M  V30 12481 C 1211.05 -0.40788 1.55541 0
M  V30 12482 O 1212.24 -0.204143 1.73 0
M  V30 12483 C 1209.37 -0.287578 3.39685 0
M  V30 12484 H 1210.56 1.36767 2.66899 0
M  V30 12485 H 1208.12 0.745967 1.3735 0
M  V30 12486 H 1208.85 -1.18015 3.02064 0
M  V30 12487 H 1208.64 0.358431 3.90458 0
M  V30 12488 H 1210.13 -0.605297 4.1319 0
M  V30 12489 N 1210.56 -1.39601 0.731392 0
M  V30 12490 C 1211.47 -2.34425 0.090527 0
M  V30 12491 C 1212.49 -1.58131 -0.725992 0
M  V30 12492 O 1213.67 -1.90441 -0.655294 0
M  V30 12493 C 1210.73 -3.37138 -0.808624 0
M  V30 12494 C 1209.79 -4.29295 0.0197365 0
M  V30 12495 C 1209.02 -5.27102 -0.836593 0
M  V30 12496 O 1209.25 -5.31302 -2.07543 0
M  V30 12497 O 1208.18 -6.01307 -0.267172 0
M  V30 12498 H 1212.01 -2.9088 0.873084 0
M  V30 12499 H 1209.59 -1.41066 0.492024 0
M  V30 12500 H 1211.47 -4.00087 -1.32319 0
M  V30 12501 H 1210.15 -2.83074 -1.57006 0
M  V30 12502 H 1209.06 -3.69581 0.579744 0
M  V30 12503 H 1210.39 -4.86555 0.743308 0
M  V30 12504 N 1212.04 -0.478751 -1.50152 0
M  V30 12505 C 1213.29 0.073585 -2.02366 0
M  V30 12506 C 1213.62 1.3903 -1.36018 0
M  V30 12507 O 1212.87 1.89787 -0.477435 0
M  V30 12508 C 1213.17 0.297535 -3.56159 0
M  V30 12509 C 1212.84 -0.938419 -4.41027 0
M  V30 12510 C 1211.5 -1.27727 -4.63939 0
M  V30 12511 C 1213.85 -1.76098 -4.9055 0
M  V30 12512 C 1211.18 -2.4386 -5.33619 0
M  V30 12513 C 1213.53 -2.91366 -5.61506 0
M  V30 12514 C 1212.2 -3.25657 -5.8267 0
M  V30 12515 H 1211.47 0.0269267 -0.740511 0
M  V30 12516 H 1214.11 -0.63439 -1.80687 0
M  V30 12517 H 1212.42 1.08783 -3.76395 0
M  V30 12518 H 1214.11 0.73899 -3.94132 0
M  V30 12519 H 1210.7 -0.664441 -4.23418 0
M  V30 12520 H 1214.89 -1.51237 -4.72696 0
M  V30 12521 H 1210.14 -2.70692 -5.48211 0
M  V30 12522 H 1214.32 -3.55445 -5.98859 0
M  V30 12523 H 1211.95 -4.15751 -6.36439 0
M  V30 12524 N 1213.52 1.56172 -0.211661 0
M  V30 12525 C 1214.77 1.97214 0.423008 0
M  V30 12526 C 1215.08 1.10203 1.616 0
M  V30 12527 O 1216.29 1.411 2.31955 0
M  V30 12528 C 1214.74 3.50805 0.803977 0
M  V30 12529 C 1214.35 4.46505 -0.365654 0
M  V30 12530 C 1216.1 4.00582 1.4048 0
M  V30 12531 C 1214 5.91388 0.0371986 0
M  V30 12532 H 1212.93 0.736432 0.161814 0
M  V30 12533 H 1215.58 1.80925 -0.306307 0
M  V30 12534 H 1213.97 3.62659 1.59043 0
M  V30 12535 H 1215.14 4.46394 -1.14321 0
M  V30 12536 H 1213.46 4.07015 -0.879061 0
M  V30 12537 H 1216.05 5.06317 1.71894 0
M  V30 12538 H 1216.4 3.45853 2.31713 0
M  V30 12539 H 1216.93 3.9191 0.681984 0
M  V30 12540 H 1213.67 6.50078 -0.841367 0
M  V30 12541 H 1213.19 5.94716 0.77927 0
M  V30 12542 H 1214.87 6.4531 0.467309 0
M  V30 12543 N 1215 -0.0618163 1.57479 0
M  V30 12544 C 1216.41 -0.612461 1.76368 0
M  V30 12545 C 1216.76 -1.77381 0.838466 0
M  V30 12546 O 1215.89 -2.16386 0.0250211 0
M  V30 12547 C 1216.48 -1.11782 3.19829 0
M  V30 12548 C 1215.04 -1.61424 3.40028 0
M  V30 12549 C 1214.19 -0.53795 2.72032 0
M  V30 12550 H 1217.14 0.164382 1.57846 0
M  V30 12551 H 1217.16 -1.98634 3.24538 0
M  V30 12552 H 1216.67 -0.272353 3.87143 0
M  V30 12553 H 1214.77 -2.48263 2.77842 0
M  V30 12554 H 1214.88 -1.68431 4.48517 0
M  V30 12555 H 1213.25 -0.985355 2.34868 0
M  V30 12556 H 1214.03 0.297495 3.42009 0
M  V30 12557 N 1216.48 -1.54033 -0.333429 0
M  V30 12558 C 1217.41 -1.7756 -1.43345 0
M  V30 12559 C 1218.39 -0.625126 -1.50103 0
M  V30 12560 O 1219.57 -0.861444 -1.67665 0
M  V30 12561 C 1216.7 -1.88332 -2.81511 0
M  V30 12562 C 1215.74 -3.10556 -2.92331 0
M  V30 12563 S 1216.58 -4.69385 -2.57755 0
M  V30 12564 C 1217.73 -4.8305 -3.98011 0
M  V30 12565 H 1217.97 -2.70584 -1.23172 0
M  V30 12566 H 1215.5 -1.4503 -0.529691 0
M  V30 12567 H 1217.46 -1.95224 -3.61106 0
M  V30 12568 H 1216.12 -0.963031 -2.98972 0
M  V30 12569 H 1215.31 -3.14798 -3.93596 0
M  V30 12570 H 1214.91 -3.01943 -2.20696 0
M  V30 12571 H 1217.21 -4.65081 -4.92652 0
M  V30 12572 H 1218.15 -5.85148 -3.98757 0
M  V30 12573 H 1218.56 -4.11427 -3.86507 0
M  V30 12574 N 1217.95 0.594978 -1.45938 0
M  V30 12575 C 1219.37 1.17703 -1.44924 0
M  V30 12576 C 1219.72 1.9534 -0.183522 0
M  V30 12577 O 1218.84 2.04276 0.714163 0
M  V30 12578 C 1219.44 2.14119 -2.62561 0
M  V30 12579 C 1218 2.67674 -2.64627 0
M  V30 12580 C 1217.14 1.43312 -2.37397 0
M  V30 12581 H 1220.09 0.383583 -1.53995 0
M  V30 12582 H 1220.11 2.97374 -2.3738 0
M  V30 12583 H 1219.63 1.57586 -3.54667 0
M  V30 12584 H 1217.73 3.28111 -1.76562 0
M  V30 12585 H 1217.84 3.11246 -3.64229 0
M  V30 12586 H 1216.2 1.72702 -1.87206 0
M  V30 12587 H 1216.99 0.886276 -3.31663 0
M  V30 12588 N 1219.43 1.33438 0.838571 0
M  V30 12589 C 1220.71 1.1551 1.5785 0
M  V30 12590 C 1221.09 -0.278405 2.09256 0
M  V30 12591 O 1220.44 -1.27748 1.89453 0
M  V30 12592 C 1220.65 2.19647 2.71212 0
M  V30 12593 C 1222 2.53818 3.40384 0
M  V30 12594 O 1223.02 2.18317 2.81454 0
M  V30 12595 O 1221.88 3.14741 4.46766 0
M  V30 12596 H 1218.97 0.446785 0.695925 0
M  V30 12597 H 1221.52 1.45021 0.8813 0
M  V30 12598 H 1220.29 3.15936 2.30869 0
M  V30 12599 H 1219.91 1.91224 3.48596 0
M  V30 12600 N 1220.91 -1.05686 1.16912 0
M  V30 12601 C 1222.14 -1.82821 0.979348 0
M  V30 12602 C 1222.56 -1.82196 -0.467575 0
M  V30 12603 O 1221.92 -1.22727 -1.33445 0
M  V30 12604 C 1221.97 -3.2705 1.51891 0
M  V30 12605 O 1221.07 -4.05899 0.729341 0
M  V30 12606 H 1220.41 -0.565455 0.348076 0
M  V30 12607 H 1222.94 -1.33211 1.55293 0
M  V30 12608 H 1222.95 -3.77859 1.53904 0
M  V30 12609 H 1221.63 -3.26819 2.5722 0
M  V30 12610 H 1220.2 -3.64646 0.780221 0
M  V30 12611 N 1222.39 -0.968567 -1.24324 0
M  V30 12612 C 1223.8 -0.66964 -1.74278 0
M  V30 12613 C 1224.15 0.81461 -1.7849 0
M  V30 12614 O 1223.28 1.63736 -1.4149 0
M  V30 12615 C 1223.87 -1.20885 -3.165 0
M  V30 12616 C 1222.43 -0.959808 -3.63957 0
M  V30 12617 C 1221.58 -1.34365 -2.42573 0
M  V30 12618 H 1224.53 -1.14379 -1.10015 0
M  V30 12619 H 1224.55 -0.57555 -3.76122 0
M  V30 12620 H 1224.06 -2.28912 -3.13402 0
M  V30 12621 H 1222.16 0.104894 -3.72452 0
M  V30 12622 H 1222.27 -1.60606 -4.51378 0
M  V30 12623 H 1220.64 -0.762039 -2.43033 0
M  V30 12624 H 1221.42 -2.43343 -2.42155 0
M  V30 12625 N 1223.87 1.39211 -0.738786 0
M  V30 12626 C 1225.09 2.05256 -0.297421 0
M  V30 12627 C 1225.52 1.55341 1.06069 0
M  V30 12628 O 1224.87 0.698823 1.67291 0
M  V30 12629 C 1224.92 3.59239 -0.312969 0
M  V30 12630 O 1224.03 4.06448 0.698112 0
M  V30 12631 H 1223.37 0.650245 -0.134454 0
M  V30 12632 H 1225.9 1.78173 -1.00577 0
M  V30 12633 H 1225.91 4.07691 -0.158675 0
M  V30 12634 H 1224.58 3.94931 -1.30394 0
M  V30 12635 H 1223.16 3.69401 0.509643 0
M  V30 12636 N 1225.34 0.486708 1.49896 0
M  V30 12637 C 1226.76 0.0353906 1.86666 0
M  V30 12638 C 1227.11 -1.3743 1.40026 0
M  V30 12639 O 1226.23 -2.02163 0.77194 0
M  V30 12640 C 1226.83 0.0574475 3.38751 0
M  V30 12641 C 1225.39 -0.338464 3.74875 0
M  V30 12642 C 1224.53 0.436196 2.73848 0
M  V30 12643 H 1227.48 0.700215 1.42417 0
M  V30 12644 H 1227.5 -0.741175 3.73212 0
M  V30 12645 H 1227.02 1.08356 3.72667 0
M  V30 12646 H 1225.12 -1.36835 3.46565 0
M  V30 12647 H 1225.23 -0.0289519 4.79091 0
M  V30 12648 H 1223.59 -0.112141 2.54453 0
M  V30 12649 H 1224.38 1.46212 3.10608 0
M  V30 12650 N 1226.82 -1.56058 0.219941 0
M  V30 12651 C 1227.75 -2.2321 -0.685547 0
M  V30 12652 C 1228.73 -1.20328 -1.20229 0
M  V30 12653 O 1229.92 -1.48909 -1.24659 0
M  V30 12654 C 1227.05 -2.91076 -1.89452 0
M  V30 12655 C 1226 -4.00415 -1.51169 0
M  V30 12656 C 1225.33 -4.55569 -2.79931 0
M  V30 12657 C 1226.63 -5.17549 -0.702896 0
M  V30 12658 H 1228.32 -2.99136 -0.125671 0
M  V30 12659 H 1225.87 -1.43879 -0.0590043 0
M  V30 12660 H 1227.82 -3.36744 -2.53341 0
M  V30 12661 H 1226.55 -2.12594 -2.47934 0
M  V30 12662 H 1225.21 -3.55475 -0.896275 0
M  V30 12663 H 1224.85 -3.73819 -3.36553 0
M  V30 12664 H 1224.55 -5.29361 -2.55049 0
M  V30 12665 H 1226.08 -5.03955 -3.44764 0
M  V30 12666 H 1227.49 -5.59608 -1.24544 0
M  V30 12667 H 1225.89 -5.97563 -0.551234 0
M  V30 12668 H 1226.96 -4.84027 0.29083 0
M  V30 12669 N 1228.3 0.053464 -1.57509 0
M  V30 12670 C 1229.53 0.765301 -1.92764 0
M  V30 12671 C 1229.95 1.69385 -0.817943 0
M  V30 12672 O 1229.31 1.7986 0.228075 0
M  V30 12673 C 1229.36 1.51938 -3.27028 0
M  V30 12674 O 1228.46 2.63121 -3.17555 0
M  V30 12675 H 1227.8 0.207567 -0.630723 0
M  V30 12676 H 1230.33 0.0162254 -2.04594 0
M  V30 12677 H 1230.34 1.89466 -3.6134 0
M  V30 12678 H 1229.02 0.838207 -4.07366 0
M  V30 12679 H 1227.59 2.28316 -2.94832 0
M  V30 12680 N 1229.78 1.54207 0.325255 0
M  V30 12681 C 1230.74 1.82757 1.38321 0
M  V30 12682 C 1231.74 0.699312 1.44797 0
M  V30 12683 O 1232.93 0.96762 1.44854 0
M  V30 12684 C 1230.06 1.98608 2.7707 0
M  V30 12685 H 1231.26 2.7728 1.14261 0
M  V30 12686 H 1228.81 1.45899 0.560647 0
M  V30 12687 H 1229.55 1.0629 3.06387 0
M  V30 12688 H 1229.33 2.80707 2.73763 0
M  V30 12689 H 1230.82 2.2215 3.53609 0
M  V30 12690 N 1231.26 -0.58723 1.46251 0
M  V30 12691 C 1232.22 -1.67863 1.5606 0
M  V30 12692 C 1233.22 -1.54715 0.438162 0
M  V30 12693 O 1234.41 -1.59415 0.702323 0
M  V30 12694 C 1231.54 -3.07262 1.47659 0
M  V30 12695 H 1232.74 -1.60525 2.53321 0
M  V30 12696 H 1230.29 -0.804691 1.33994 0
M  V30 12697 H 1231.02 -3.20159 0.5166 0
M  V30 12698 H 1230.81 -3.18213 2.29092 0
M  V30 12699 H 1232.3 -3.8672 1.57599 0
M  V30 12700 N 1232.74 -1.33881 -0.831482 0
M  V30 12701 C 1233.98 -1.25755 -1.58719 0
M  V30 12702 C 1234.31 0.174746 -1.93713 0
M  V30 12703 O 1233.57 1.13384 -1.59507 0
M  V30 12704 C 1233.86 -2.08544 -2.90249 0
M  V30 12705 C 1233.53 -3.57651 -2.74585 0
M  V30 12706 C 1232.19 -3.983 -2.7002 0
M  V30 12707 C 1234.54 -4.52369 -2.58866 0
M  V30 12708 C 1231.87 -5.31872 -2.47647 0
M  V30 12709 C 1234.22 -5.86112 -2.38025 0
M  V30 12710 C 1232.89 -6.25934 -2.31867 0
M  V30 12711 H 1232.16 -0.460171 -0.580796 0
M  V30 12712 H 1234.81 -1.6554 -0.96274 0
M  V30 12713 H 1233.11 -1.6156 -3.56939 0
M  V30 12714 H 1234.81 -1.99609 -3.47789 0
M  V30 12715 H 1231.4 -3.2538 -2.78973 0
M  V30 12716 H 1235.58 -4.21868 -2.61421 0
M  V30 12717 H 1230.84 -5.61756 -2.41331 0
M  V30 12718 H 1235.01 -6.59103 -2.24847 0
M  V30 12719 H 1232.64 -7.29372 -2.14291 0
M  V30 12720 N 1234.21 1.05064 -1.1747 0
M  V30 12721 C 1235.44 1.82299 -0.98903 0
M  V30 12722 C 1235.86 1.82441 0.457907 0
M  V30 12723 O 1235.22 1.23433 1.32793 0
M  V30 12724 C 1235.27 3.26239 -1.53624 0
M  V30 12725 O 1234.37 4.05507 -0.750857 0
M  V30 12726 H 1233.71 0.563601 -0.35107 0
M  V30 12727 H 1236.24 1.32386 -1.55997 0
M  V30 12728 H 1236.25 3.77038 -1.55906 0
M  V30 12729 H 1234.93 3.25451 -2.58949 0
M  V30 12730 H 1233.51 3.64227 -0.799548 0
M  V30 12731 N 1235.69 0.975146 1.23809 0
M  V30 12732 C 1236.6 0.51917 2.28783 0
M  V30 12733 C 1237.62 -0.423487 1.68768 0
M  V30 12734 O 1238.79 -0.294699 1.99232 0
M  V30 12735 C 1235.86 -0.176229 3.46252 0
M  V30 12736 C 1234.92 0.807177 4.21643 0
M  V30 12737 C 1234.15 0.144869 5.33503 0
M  V30 12738 O 1234.38 -1.06522 5.60365 0
M  V30 12739 O 1233.31 0.84079 5.95999 0
M  V30 12740 H 1237.14 1.39204 2.69919 0
M  V30 12741 H 1234.72 0.74253 1.29641 0
M  V30 12742 H 1236.6 -0.566547 4.17574 0
M  V30 12743 H 1235.28 -1.02394 3.07078 0
M  V30 12744 H 1234.18 1.2481 3.52666 0
M  V30 12745 H 1235.52 1.62354 4.64653 0
M  V30 12746 N 1237.17 -1.38817 0.746158 0
M  V30 12747 C 1238.39 -2.05096 0.308302 0
M  V30 12748 C 1238.82 -1.55902 -1.05244 0
M  V30 12749 O 1238.18 -0.707685 -1.66918 0
M  V30 12750 C 1238.23 -3.59068 0.332016 0
M  V30 12751 O 1237.33 -4.06813 -0.676547 0
M  V30 12752 H 1236.67 -0.649523 0.1379 0
M  V30 12753 H 1239.2 -1.77637 1.0152 0
M  V30 12754 H 1239.21 -4.07601 0.180293 0
M  V30 12755 H 1237.89 -3.94234 1.32487 0
M  V30 12756 H 1236.46 -3.69666 -0.490046 0
M  V30 12757 N 1238.65 -0.49465 -1.49636 0
M  V30 12758 C 1239.56 0.291881 -2.32777 0
M  V30 12759 C 1240.57 0.973468 -1.44221 0
M  V30 12760 O 1241.75 0.956252 -1.77251 0
M  V30 12761 C 1238.81 1.34609 -3.19502 0
M  V30 12762 C 1237.88 0.678611 -4.23903 0
M  V30 12763 C 1237.11 1.68259 -5.06483 0
M  V30 12764 O 1237.33 2.91176 -4.90482 0
M  V30 12765 O 1236.27 1.24141 -5.88959 0
M  V30 12766 H 1240.09 -0.388459 -3.01205 0
M  V30 12767 H 1237.68 -0.256086 -1.47189 0
M  V30 12768 H 1239.56 1.95617 -3.73245 0
M  V30 12769 H 1238.23 2.00947 -2.53775 0
M  V30 12770 H 1237.14 0.0289541 -3.74089 0
M  V30 12771 H 1238.47 0.0577817 -4.92166 0
M  V30 12772 N 1240.13 1.55939 -0.228214 0
M  V30 12773 C 1241.07 2.20581 0.679157 0
M  V30 12774 C 1242.04 1.16355 1.18536 0
M  V30 12775 O 1243.23 1.44735 1.24324 0
M  V30 12776 C 1240.37 2.89477 1.87875 0
M  V30 12777 C 1239.48 4.08313 1.41083 0
M  V30 12778 C 1238.62 4.64974 2.56851 0
M  V30 12779 C 1237.65 5.76098 2.06828 0
M  V30 12780 N 1236.79 6.27021 3.15894 0
M  V30 12781 H 1241.63 2.97753 0.121203 0
M  V30 12782 H 1239.17 1.47021 0.0480688 0
M  V30 12783 H 1241.13 3.2761 2.58317 0
M  V30 12784 H 1239.76 2.14811 2.40948 0
M  V30 12785 H 1238.81 3.75621 0.601102 0
M  V30 12786 H 1240.12 4.8859 1.00408 0
M  V30 12787 H 1239.27 5.05584 3.35365 0
M  V30 12788 H 1238.01 3.83875 3.00818 0
M  V30 12789 H 1237.02 5.34984 1.26778 0
M  V30 12790 H 1238.24 6.59037 1.63852 0
M  V30 12791 H 1236.19 5.48833 3.5933 0
M  V30 12792 H 1236.11 7.02439 2.79491 0
M  V30 12793 H 1237.37 6.72289 3.94523 0
M  V30 12794 N 1241.6 -0.0451101 1.57535 0
M  V30 12795 C 1242.88 -0.773625 1.79651 0
M  V30 12796 C 1243.26 -1.94422 0.822391 0
M  V30 12797 O 1242.61 -2.28077 -0.138913 0
M  V30 12798 C 1242.82 -1.22168 3.26919 0
M  V30 12799 C 1244.17 -1.64419 3.91474 0
M  V30 12800 O 1245.19 -1.31668 3.30971 0
M  V30 12801 O 1244.05 -2.25148 4.97967 0
M  V30 12802 H 1241.14 -0.372786 0.738214 0
M  V30 12803 H 1243.69 -0.0231245 1.69684 0
M  V30 12804 H 1242.46 -0.385302 3.89398 0
M  V30 12805 H 1242.09 -2.03269 3.41713 0
M  V30 12806 N 1243.08 -1.54377 -0.317073 0
M  V30 12807 C 1244.31 -1.76865 -1.07362 0
M  V30 12808 C 1244.73 -0.520354 -1.81488 0
M  V30 12809 O 1244.08 0.509213 -1.75252 0
M  V30 12810 C 1244.13 -2.96598 -2.06668 0
M  V30 12811 O 1243.85 -4.16602 -1.35552 0
M  V30 12812 C 1245.36 -3.31348 -2.94489 0
M  V30 12813 H 1242.58 -0.590277 -0.319083 0
M  V30 12814 H 1245.12 -2.01284 -0.361227 0
M  V30 12815 H 1243.27 -2.74433 -2.73432 0
M  V30 12816 H 1243.69 -4.83996 -2.02108 0
M  V30 12817 H 1245.16 -4.1841 -3.60051 0
M  V30 12818 H 1245.64 -2.48797 -3.61935 0
M  V30 12819 H 1246.25 -3.55614 -2.33278 0
M  V30 12820 N 1244.56 0.579466 -1.4656 0
M  V30 12821 C 1245.49 1.69846 -1.60233 0
M  V30 12822 C 1246.47 1.6397 -0.452533 0
M  V30 12823 O 1247.66 1.81936 -0.679174 0
M  V30 12824 C 1244.79 3.08488 -1.59538 0
M  V30 12825 C 1243.74 3.29197 -2.7352 0
M  V30 12826 C 1243.07 4.684 -2.57887 0
M  V30 12827 C 1244.37 3.16718 -4.15315 0
M  V30 12828 H 1246.06 1.5866 -2.53904 0
M  V30 12829 H 1243.61 0.761873 -1.22194 0
M  V30 12830 H 1245.56 3.86595 -1.67696 0
M  V30 12831 H 1244.28 3.20581 -0.62413 0
M  V30 12832 H 1242.94 2.53491 -2.64836 0
M  V30 12833 H 1242.59 4.77262 -1.58839 0
M  V30 12834 H 1242.29 4.83208 -3.34341 0
M  V30 12835 H 1243.81 5.48671 -2.67942 0
M  V30 12836 H 1245.23 3.84666 -4.25094 0
M  V30 12837 H 1243.63 3.43047 -4.92381 0
M  V30 12838 H 1244.7 2.13755 -4.35244 0
M  V30 12839 N 1246.04 1.3432 0.824371 0
M  V30 12840 C 1247.45 1.23855 1.39703 0
M  V30 12841 C 1247.8 -0.136566 1.95724 0
M  V30 12842 O 1246.93 -1.03683 1.89944 0
M  V30 12843 C 1247.52 2.24249 2.53965 0
M  V30 12844 C 1246.08 2.17578 3.07143 0
M  V30 12845 C 1245.23 2.10933 1.80008 0
M  V30 12846 H 1248.18 1.45707 0.628891 0
M  V30 12847 H 1248.2 1.85864 3.32016 0
M  V30 12848 H 1247.71 3.24321 2.13161 0
M  V30 12849 H 1245.81 1.20858 3.52455 0
M  V30 12850 H 1245.92 3.08769 3.66331 0
M  V30 12851 H 1244.29 1.56631 2.00845 0
M  V30 12852 H 1245.07 3.12836 1.4138 0
M  V30 12853 N 1247.52 -1.0444 1.18026 0
M  V30 12854 C 1248.75 -1.80971 0.996642 0
M  V30 12855 C 1249.15 -1.83568 -0.458192 0
M  V30 12856 O 1248.5 -1.26713 -1.33002 0
M  V30 12857 C 1248.56 -3.28051 1.47048 0
M  V30 12858 C 1248.22 -3.49122 2.94895 0
M  V30 12859 C 1249.22 -3.40621 3.92777 0
M  V30 12860 C 1246.91 -3.7584 3.33241 0
M  V30 12861 C 1248.9 -3.58535 5.27002 0
M  V30 12862 C 1246.59 -3.93402 4.6763 0
M  V30 12863 C 1247.58 -3.84749 5.6432 0
M  V30 12864 O 1247.27 -4.01813 6.96277 0
M  V30 12865 H 1247 -0.576873 0.352411 0
M  V30 12866 H 1249.56 -1.32542 1.56913 0
M  V30 12867 H 1247.79 -3.77431 0.841609 0
M  V30 12868 H 1249.48 -3.8613 1.25135 0
M  V30 12869 H 1250.24 -3.19948 3.64497 0
M  V30 12870 H 1246.12 -3.81674 2.58545 0
M  V30 12871 H 1249.67 -3.51698 6.02457 0
M  V30 12872 H 1245.56 -4.13568 4.95613 0
M  V30 12873 H 1246.33 -4.18995 7.03126 0
M  V30 12874 N 1248.99 -0.981699 -1.2329 0
M  V30 12875 C 1249.9 -0.531296 -2.28505 0
M  V30 12876 C 1250.92 0.414531 -1.6899 0
M  V30 12877 O 1252.1 0.284129 -1.99386 0
M  V30 12878 C 1249.16 0.157864 -3.4634 0
M  V30 12879 C 1248.22 -0.829527 -4.21209 0
M  V30 12880 C 1247.46 -0.17316 -5.33419 0
M  V30 12881 O 1247.68 1.03549 -5.60922 0
M  V30 12882 O 1246.61 -0.872385 -5.95544 0
M  V30 12883 H 1250.44 -1.40633 -2.69177 0
M  V30 12884 H 1248.02 -0.749395 -1.29246 0
M  V30 12885 H 1249.91 0.544394 -4.17869 0
M  V30 12886 H 1248.58 1.00764 -3.07617 0
M  V30 12887 H 1247.49 -1.26678 -3.51999 0
M  V30 12888 H 1248.82 -1.64815 -4.63785 0
M  V30 12889 N 1250.47 1.3842 -0.753509 0
M  V30 12890 C 1251.38 2.34252 -0.127811 0
M  V30 12891 C 1252.4 1.59266 0.700743 0
M  V30 12892 O 1253.57 1.9146 0.624914 0
M  V30 12893 C 1250.64 3.38382 0.754886 0
M  V30 12894 C 1249.7 4.2921 -0.0880312 0
M  V30 12895 C 1248.93 5.28367 0.75263 0
M  V30 12896 O 1249.16 5.34537 1.99064 0
M  V30 12897 O 1248.09 6.01656 0.171475 0
M  V30 12898 H 1251.92 2.89454 -0.91925 0
M  V30 12899 H 1249.5 1.40265 -0.514404 0
M  V30 12900 H 1251.38 4.02141 1.25938 0
M  V30 12901 H 1250.06 2.85536 1.52482 0
M  V30 12902 H 1248.97 3.68611 -0.638468 0
M  V30 12903 H 1250.3 4.85311 -0.82062 0
M  V30 12904 N 1251.95 0.502579 1.49372 0
M  V30 12905 C 1252.88 -0.264307 2.31999 0
M  V30 12906 C 1253.86 -0.96107 1.40348 0
M  V30 12907 O 1255.05 -0.952167 1.69255 0
M  V30 12908 C 1252.18 -1.32822 3.20898 0
M  V30 12909 C 1251.13 -0.751236 4.21355 0
M  V30 12910 C 1250.46 -1.91578 4.99201 0
M  V30 12911 C 1251.76 0.258764 5.21659 0
M  V30 12912 H 1253.45 0.425391 2.96363 0
M  V30 12913 H 1251 0.206022 1.42519 0
M  V30 12914 H 1252.95 -1.87245 3.77515 0
M  V30 12915 H 1251.67 -2.04712 2.54481 0
M  V30 12916 H 1250.33 -0.228743 3.65886 0
M  V30 12917 H 1249.98 -2.62241 4.2923 0
M  V30 12918 H 1249.68 -1.53578 5.67175 0
M  V30 12919 H 1251.2 -2.46432 5.58663 0
M  V30 12920 H 1252.62 -0.197385 5.7296 0
M  V30 12921 H 1251.02 0.554681 5.97531 0
M  V30 12922 H 1252.09 1.1741 4.70471 0
M  V30 12923 N 1253.43 -1.55816 0.23648 0
M  V30 12924 C 1254.36 -2.18248 -0.700024 0
M  V30 12925 C 1255.37 -1.15579 -1.14654 0
M  V30 12926 O 1256.56 -1.42491 -1.07511 0
M  V30 12927 C 1253.66 -2.76338 -1.9619 0
M  V30 12928 C 1252.84 -4.04325 -1.66853 0
M  V30 12929 C 1251.89 -4.46834 -2.77895 0
M  V30 12930 O 1250.92 -5.13427 -2.45725 0
M  V30 12931 N 1252.12 -4.13753 -4.07171 0
M  V30 12932 H 1254.89 -2.99241 -0.16589 0
M  V30 12933 H 1252.45 -1.61803 0.0560383 0
M  V30 12934 H 1254.44 -3.01739 -2.69695 0
M  V30 12935 H 1253.01 -1.99563 -2.4061 0
M  V30 12936 H 1252.23 -3.86623 -0.769164 0
M  V30 12937 H 1253.52 -4.8779 -1.44703 0
M  V30 12938 H 1252.92 -3.60271 -4.36144 0
M  V30 12939 H 1251.47 -4.44014 -4.77174 0
M  V30 12940 N 1254.91 0.036755 -1.57557 0
M  V30 12941 C 1256.15 0.727665 -1.88546 0
M  V30 12942 C 1256.48 1.76304 -0.833179 0
M  V30 12943 O 1255.75 1.9544 0.13414 0
M  V30 12944 H 1254.33 0.271744 -0.695819 0
M  V30 12945 H 1256.99 0.00452915 -1.94899 0
M  V30 12946 H 1256.08 1.22205 -2.8718 0
M  V30 12947 N 1256.39 1.54543 0.308881 0
M  V30 12948 C 1257.32 1.87947 1.38557 0
M  V30 12949 C 1258.3 0.737622 1.53275 0
M  V30 12950 O 1259.48 0.992664 1.66913 0
M  V30 12951 C 1256.61 2.11982 2.75102 0
M  V30 12952 C 1255.57 3.2783 2.75158 0
M  V30 12953 C 1254.89 3.37266 4.14917 0
M  V30 12954 C 1256.19 4.65129 2.37598 0
M  V30 12955 H 1257.89 2.78123 1.1085 0
M  V30 12956 H 1255.43 1.3382 0.531808 0
M  V30 12957 H 1257.38 2.33935 3.50503 0
M  V30 12958 H 1256.11 1.18569 3.04317 0
M  V30 12959 H 1254.77 3.05787 2.02212 0
M  V30 12960 H 1254.42 2.41384 4.41296 0
M  V30 12961 H 1254.12 4.15135 4.15857 0
M  V30 12962 H 1255.64 3.61471 4.92109 0
M  V30 12963 H 1257.05 4.86865 3.02714 0
M  V30 12964 H 1255.45 5.45653 2.49765 0
M  V30 12965 H 1256.52 4.6638 1.32731 0
M  V30 12966 N 1257.86 -0.571685 1.46866 0
M  V30 12967 C 1258.81 -1.67992 1.58263 0
M  V30 12968 C 1259.78 -1.60535 0.426345 0
M  V30 12969 O 1260.97 -1.79584 0.644534 0
M  V30 12970 C 1258.11 -3.06327 1.58927 0
M  V30 12971 C 1257.22 -3.24328 2.85369 0
M  V30 12972 C 1256.35 -4.52976 2.77464 0
M  V30 12973 C 1255.39 -4.64359 3.98795 0
M  V30 12974 N 1254.53 -5.84345 3.89211 0
M  V30 12975 H 1259.37 -1.57589 2.52922 0
M  V30 12976 H 1256.91 -0.767883 1.25467 0
M  V30 12977 H 1258.86 -3.86411 1.57296 0
M  V30 12978 H 1257.49 -3.15601 0.677912 0
M  V30 12979 H 1256.55 -2.37774 2.96931 0
M  V30 12980 H 1257.86 -3.28605 3.7526 0
M  V30 12981 H 1257.01 -5.41303 2.74001 0
M  V30 12982 H 1255.75 -4.51155 1.85231 0
M  V30 12983 H 1254.76 -3.74448 4.02578 0
M  V30 12984 H 1255.98 -4.6795 4.92137 0
M  V30 12985 H 1253.93 -5.835 2.99772 0
M  V30 12986 H 1253.84 -5.89938 4.72768 0
M  V30 12987 H 1255.11 -6.75072 3.89741 0
M  V30 12988 N 1259.34 -1.34755 -0.817236 0
M  V30 12989 C 1260.59 -1.2762 -1.5761 0
M  V30 12990 C 1260.92 0.152017 -1.93604 0
M  V30 12991 O 1260.2 1.09881 -1.60488 0
M  V30 12992 C 1260.48 -2.17251 -2.87183 0
M  V30 12993 C 1260.33 -3.68638 -2.57733 0
M  V30 12994 C 1261.65 -2.06206 -3.88802 0
M  V30 12995 H 1258.77 -0.464933 -0.571845 0
M  V30 12996 H 1261.41 -1.6506 -0.941028 0
M  V30 12997 H 1259.56 -1.85452 -3.41379 0
M  V30 12998 H 1261.23 -4.10829 -2.09802 0
M  V30 12999 H 1259.48 -3.89445 -1.91089 0
M  V30 13000 H 1260.15 -4.26726 -3.50156 0
M  V30 13001 H 1262.62 -2.34137 -3.43975 0
M  V30 13002 H 1261.5 -2.71136 -4.77259 0
M  V30 13003 H 1261.76 -1.04075 -4.29675 0
M  V30 13004 N 1260.82 1.03812 -1.18578 0
M  V30 13005 C 1261.78 2.10049 -0.91718 0
M  V30 13006 C 1262.78 1.60498 0.0985122 0
M  V30 13007 O 1263.97 1.73674 -0.135213 0
M  V30 13008 C 1261.1 3.38813 -0.376599 0
M  V30 13009 H 1262.3 2.3531 -1.85927 0
M  V30 13010 H 1259.85 1.20277 -0.998156 0
M  V30 13011 H 1260.59 3.19216 0.571983 0
M  V30 13012 H 1260.37 3.76096 -1.10881 0
M  V30 13013 H 1261.86 4.17084 -0.207453 0
M  V30 13014 N 1262.3 0.988223 1.22768 0
M  V30 13015 C 1263.52 0.679426 1.95955 0
M  V30 13016 C 1263.95 -0.748483 1.72567 0
M  V30 13017 O 1263.31 -1.51097 1.00197 0
M  V30 13018 C 1263.35 0.985284 3.46878 0
M  V30 13019 O 1262.46 0.0814607 4.1232 0
M  V30 13020 H 1261.8 0.254749 0.613188 0
M  V30 13021 H 1264.33 1.32393 1.55991 0
M  V30 13022 H 1264.34 0.925198 3.97371 0
M  V30 13023 H 1263.01 2.02581 3.63227 0
M  V30 13024 H 1261.59 0.196629 3.72381 0
M  V30 13025 N 1263.78 -1.38018 0.760839 0
M  V30 13026 C 1264.69 -2.34181 0.140232 0
M  V30 13027 C 1265.7 -1.59635 -0.692287 0
M  V30 13028 O 1266.88 -1.91788 -0.614752 0
M  V30 13029 C 1263.94 -3.38778 -0.73693 0
M  V30 13030 C 1263 -4.29157 0.110792 0
M  V30 13031 C 1262.24 -5.28758 -0.724599 0
M  V30 13032 O 1262.46 -5.35585 -1.96226 0
M  V30 13033 O 1261.39 -6.01738 -0.139565 0
M  V30 13034 H 1265.22 -2.88962 0.934588 0
M  V30 13035 H 1262.8 -1.3999 0.521835 0
M  V30 13036 H 1264.69 -4.02804 -1.23803 0
M  V30 13037 H 1263.36 -2.86341 -1.50966 0
M  V30 13038 H 1262.27 -3.68268 0.658007 0
M  V30 13039 H 1263.6 -4.84869 0.846346 0
M  V30 13040 N 1265.25 -0.510493 -1.49103 0
M  V30 13041 C 1266.22 0.251915 -2.27811 0
M  V30 13042 C 1267.22 0.885432 -1.34226 0
M  V30 13043 O 1268.41 0.748494 -1.573 0
M  V30 13044 C 1265.54 1.3624 -3.12492 0
M  V30 13045 H 1266.73 -0.438872 -2.96671 0
M  V30 13046 H 1264.28 -0.265767 -1.54024 0
M  V30 13047 H 1265.02 2.08705 -2.48219 0
M  V30 13048 H 1264.8 0.913485 -3.81311 0
M  V30 13049 H 1266.29 1.89919 -3.71915 0
M  V30 13050 N 1266.73 1.55688 -0.24474 0
M  V30 13051 C 1268.14 1.84897 0.25882 0
M  V30 13052 C 1268.49 1.16653 1.57755 0
M  V30 13053 O 1267.62 0.444162 2.11793 0
M  V30 13054 C 1268.21 3.35434 0.476385 0
M  V30 13055 C 1266.77 3.64877 0.924213 0
M  V30 13056 C 1265.92 2.773 0.00021322 0
M  V30 13057 H 1268.87 1.51662 -0.467358 0
M  V30 13058 H 1268.89 3.56896 1.31929 0
M  V30 13059 H 1268.4 3.85076 -0.483567 0
M  V30 13060 H 1266.5 3.20711 1.89671 0
M  V30 13061 H 1266.62 4.72665 0.78257 0
M  V30 13062 H 1264.98 2.49517 0.511194 0
M  V30 13063 H 1265.76 3.29747 -0.955072 0
M  V30 13064 N 1268.21 -0.0283989 1.57574 0
M  V30 13065 C 1269.14 -1.02828 2.09639 0
M  V30 13066 C 1270.12 -1.37668 0.999076 0
M  V30 13067 O 1271.31 -1.4654 1.27435 0
M  V30 13068 C 1268.44 -2.329 2.57633 0
M  V30 13069 C 1267.39 -2.12301 3.71635 0
M  V30 13070 C 1266.72 -3.48138 4.05837 0
M  V30 13071 C 1268.02 -1.50864 5.00037 0
M  V30 13072 H 1269.71 -0.594876 2.93431 0
M  V30 13073 H 1267.26 -0.284701 1.41158 0
M  V30 13074 H 1269.21 -3.03179 2.92678 0
M  V30 13075 H 1267.93 -2.78302 1.70926 0
M  V30 13076 H 1266.59 -1.44454 3.3694 0
M  V30 13077 H 1266.24 -3.9119 3.16195 0
M  V30 13078 H 1265.94 -3.3518 4.82626 0
M  V30 13079 H 1267.46 -4.19779 4.43417 0
M  V30 13080 H 1268.88 -2.11062 5.33035 0
M  V30 13081 H 1267.27 -1.48479 5.81441 0
M  V30 13082 H 1268.34 -0.474541 4.82572 0
M  V30 13083 N 1269.69 -1.54705 -0.300681 0
M  V30 13084 C 1270.6 -1.88736 -1.39341 0
M  V30 13085 C 1271.61 -0.78155 -1.5546 0
M  V30 13086 O 1272.79 -1.07804 -1.70118 0
M  V30 13087 C 1269.85 -2.12795 -2.73713 0
M  V30 13088 C 1268.92 -3.36504 -2.66577 0
M  V30 13089 C 1268.15 -3.59407 -3.94541 0
M  V30 13090 O 1268.37 -2.85315 -4.93914 0
M  V30 13091 O 1267.31 -4.52923 -3.96415 0
M  V30 13092 H 1271.13 -2.817 -1.13484 0
M  V30 13093 H 1268.72 -1.40899 -0.496771 0
M  V30 13094 H 1270.6 -2.29819 -3.53215 0
M  V30 13095 H 1269.27 -1.23017 -2.99414 0
M  V30 13096 H 1268.18 -3.24844 -1.85546 0
M  V30 13097 H 1269.51 -4.26414 -2.45829 0
M  V30 13098 N 1271.17 0.563888 -1.47167 0
M  V30 13099 C 1272.12 1.66687 -1.55562 0
M  V30 13100 C 1273.1 1.55455 -0.415024 0
M  V30 13101 O 1274.29 1.64051 -0.664557 0
M  V30 13102 C 1271.42 3.05469 -1.56665 0
M  V30 13103 C 1270.51 3.21928 -2.76085 0
M  V30 13104 N 1270.9 3.08477 -4.00844 0
M  V30 13105 C 1269.2 3.52913 -2.72706 0
M  V30 13106 C 1269.9 3.27447 -4.80784 0
M  V30 13107 N 1268.87 3.53474 -4.12986 0
M  V30 13108 H 1272.68 1.54846 -2.498 0
M  V30 13109 H 1270.19 0.76846 -1.43068 0
M  V30 13110 H 1272.19 3.84655 -1.60768 0
M  V30 13111 H 1270.85 3.18427 -0.635174 0
M  V30 13112 H 1271.86 2.85944 -4.31806 0
M  V30 13113 H 1268.53 3.7244 -1.88666 0
M  V30 13114 H 1269.92 3.22072 -5.89677 0
M  V30 13115 N 1272.64 1.35187 0.810078 0
M  V30 13116 C 1273.59 1.27822 1.92173 0
M  V30 13117 C 1274.56 0.150851 1.65414 0
M  V30 13118 O 1275.75 0.333973 1.87854 0
M  V30 13119 C 1272.89 1.05258 3.28656 0
M  V30 13120 C 1272 2.26884 3.67624 0
M  V30 13121 C 1271.13 1.97499 4.9312 0
M  V30 13122 C 1270.17 3.15198 5.24706 0
M  V30 13123 N 1269.31 2.85612 6.41381 0
M  V30 13124 H 1274.15 2.22884 1.97804 0
M  V30 13125 H 1271.69 1.10799 0.967577 0
M  V30 13126 H 1273.65 0.902084 4.07331 0
M  V30 13127 H 1272.28 0.138583 3.22502 0
M  V30 13128 H 1271.33 2.5281 2.84238 0
M  V30 13129 H 1272.64 3.14783 3.86928 0
M  V30 13130 H 1271.79 1.7926 5.79613 0
M  V30 13131 H 1270.53 1.0688 4.75844 0
M  V30 13132 H 1269.54 3.34019 4.36705 0
M  V30 13133 H 1270.76 4.06614 5.43913 0
M  V30 13134 H 1268.71 1.97583 6.25537 0
M  V30 13135 H 1268.63 3.67044 6.60919 0
M  V30 13136 H 1269.89 2.70906 7.3091 0
M  V30 13137 N 1274.12 -1.03182 1.19127 0
M  V30 13138 C 1275.53 -1.57984 0.994888 0
M  V30 13139 C 1275.88 -1.90898 -0.453019 0
M  V30 13140 O 1275.01 -1.70556 -1.33191 0
M  V30 13141 C 1275.6 -2.8705 1.79966 0
M  V30 13142 C 1274.16 -3.38435 1.64737 0
M  V30 13143 C 1273.31 -2.11912 1.78854 0
M  V30 13144 H 1276.26 -0.857458 1.33542 0
M  V30 13145 H 1276.28 -3.57821 1.294 0
M  V30 13146 H 1275.79 -2.63062 2.85341 0
M  V30 13147 H 1273.9 -3.67416 0.619358 0
M  V30 13148 H 1274.01 -4.11665 2.45089 0
M  V30 13149 H 1272.37 -2.23642 1.21886 0
M  V30 13150 H 1273.16 -1.90369 2.85682 0
M  V30 13151 N 1275.6 -0.99472 -1.22242 0
M  V30 13152 C 1276.53 -0.504783 -2.23572 0
M  V30 13153 C 1277.55 0.401105 -1.57781 0
M  V30 13154 O 1278.73 0.202948 -1.77343 0
M  V30 13155 C 1275.83 0.287524 -3.37678 0
M  V30 13156 C 1275.01 -0.614941 -4.33056 0
M  V30 13157 C 1274.07 0.125974 -5.26049 0
M  V30 13158 O 1273.09 -0.489234 -5.67094 0
M  V30 13159 N 1274.29 1.40772 -5.63173 0
M  V30 13160 H 1277.06 -1.37612 -2.66238 0
M  V30 13161 H 1274.62 -0.86965 -1.3656 0
M  V30 13162 H 1276.61 0.791884 -3.96877 0
M  V30 13163 H 1275.18 1.05998 -2.9408 0
M  V30 13164 H 1274.4 -1.29994 -3.72149 0
M  V30 13165 H 1275.69 -1.22947 -4.93722 0
M  V30 13166 H 1275.09 1.92884 -5.31801 0
M  V30 13167 H 1273.65 1.85723 -6.2478 0
M  V30 13168 N 1277.08 1.37613 -0.768148 0
M  V30 13169 C 1278.32 2.00075 -0.331331 0
M  V30 13170 C 1278.66 1.60839 1.08833 0
M  V30 13171 O 1277.93 0.852849 1.74805 0
M  V30 13172 C 1278.22 3.57009 -0.470789 0
M  V30 13173 C 1278.07 4.06166 -1.9326 0
M  V30 13174 C 1279.39 4.39916 0.127111 0
M  V30 13175 H 1276.51 0.726855 -0.121864 0
M  V30 13176 H 1279.15 1.63343 -0.970518 0
M  V30 13177 H 1277.3 3.88431 0.0733688 0
M  V30 13178 H 1278.97 3.85325 -2.53618 0
M  V30 13179 H 1277.21 3.58492 -2.44266 0
M  V30 13180 H 1277.88 5.15219 -1.98125 0
M  V30 13181 H 1280.36 4.14732 -0.337144 0
M  V30 13182 H 1279.24 5.489 -0.000624226 0
M  V30 13183 H 1279.5 4.25018 1.21704 0
M  V30 13184 N 1278.56 0.518393 1.4883 0
M  V30 13185 C 1279.47 -0.254811 2.33212 0
M  V30 13186 C 1280.48 -0.950401 1.45751 0
M  V30 13187 O 1281.66 -0.927932 1.78749 0
M  V30 13188 C 1278.72 -1.29509 3.21603 0
M  V30 13189 C 1277.78 -0.611086 4.24928 0
M  V30 13190 C 1277.02 -1.6018 5.09095 0
M  V30 13191 O 1277.24 -2.83336 4.95052 0
M  V30 13192 O 1276.17 -1.14756 5.90859 0
M  V30 13193 H 1280 0.436329 3.00549 0
M  V30 13194 H 1277.59 0.27947 1.46763 0
M  V30 13195 H 1279.47 -1.89654 3.7631 0
M  V30 13196 H 1278.14 -1.96884 2.5694 0
M  V30 13197 H 1277.05 0.0305638 3.74088 0
M  V30 13198 H 1278.38 0.0205249 4.92196 0
M  V30 13199 N 1280.03 -1.55556 0.252993 0
M  V30 13200 C 1281 -2.20351 -0.630705 0
M  V30 13201 C 1282 -1.17461 -1.09816 0
M  V30 13202 O 1283.19 -1.42505 -1.00189 0
M  V30 13203 C 1280.32 -2.85192 -1.86757 0
M  V30 13204 H 1281.51 -2.99829 -0.0652939 0
M  V30 13205 H 1279.07 -1.563 0.00347982 0
M  V30 13206 H 1279.8 -2.09669 -2.47406 0
M  V30 13207 H 1279.59 -3.60569 -1.54053 0
M  V30 13208 H 1281.08 -3.34762 -2.49648 0
M  V30 13209 N 1281.51 0.0200419 -1.57587 0
M  V30 13210 C 1282.74 0.724241 -1.94344 0
M  V30 13211 C 1283.16 1.67612 -0.853688 0
M  V30 13212 O 1282.52 1.80303 0.189873 0
M  V30 13213 C 1282.57 1.44967 -3.30177 0
M  V30 13214 O 1281.67 2.56326 -3.23064 0
M  V30 13215 H 1281.01 0.194142 -0.634984 0
M  V30 13216 H 1283.54 -0.0271756 -2.04582 0
M  V30 13217 H 1283.55 1.81758 -3.65278 0
M  V30 13218 H 1282.23 0.75161 -4.09052 0
M  V30 13219 H 1280.81 2.22011 -2.99609 0
M  V30 13220 N 1282.99 1.54862 0.292472 0
M  V30 13221 C 1284.22 1.78877 1.04966 0
M  V30 13222 C 1284.64 0.550724 1.79857 0
M  V30 13223 O 1284 -0.499054 1.74296 0
M  V30 13224 C 1284.05 3.00106 1.99922 0
M  V30 13225 O 1283.15 2.73827 3.0837 0
M  V30 13226 H 1282.49 0.591802 0.301108 0
M  V30 13227 H 1285.02 2.01965 0.3273 0
M  V30 13228 H 1285.03 3.28309 2.42233 0
M  V30 13229 H 1283.71 3.89872 1.44821 0
M  V30 13230 H 1282.28 2.56665 2.70513 0
M  V30 13231 N 1284.47 -0.556076 1.47464 0
M  V30 13232 C 1285.88 -1.1382 1.47993 0
M  V30 13233 C 1286.23 -1.94785 0.235249 0
M  V30 13234 O 1285.36 -2.06098 -0.659752 0
M  V30 13235 C 1285.95 -2.07082 2.68146 0
M  V30 13236 C 1284.51 -2.60564 2.71631 0
M  V30 13237 C 1283.66 -1.36967 2.41113 0
M  V30 13238 H 1286.61 -0.34262 1.54957 0
M  V30 13239 H 1286.63 -2.90975 2.45181 0
M  V30 13240 H 1286.14 -1.48127 3.5872 0
M  V30 13241 H 1284.24 -3.23314 1.852 0
M  V30 13242 H 1284.35 -3.0148 3.72353 0
M  V30 13243 H 1282.72 -1.67678 1.91719 0
M  V30 13244 H 1283.5 -0.79803 3.33896 0
M  V30 13245 N 1285.95 -1.35615 -0.802897 0
M  V30 13246 C 1287.36 -1.15733 -1.099 0
M  V30 13247 C 1287.56 0.0277094 -2.01481 0
M  V30 13248 O 1286.62 0.697196 -2.42684 0
M  V30 13249 C 1287.93 -2.46201 -1.72643 0
M  V30 13250 C 1289.48 -2.52442 -1.85046 0
M  V30 13251 C 1289.96 -3.82962 -2.51205 0
M  V30 13252 N 1291.45 -3.84234 -2.58686 0
M  V30 13253 C 1292.18 -4.81956 -3.10654 0
M  V30 13254 N 1291.68 -5.90068 -3.63032 0
M  V30 13255 N 1293.47 -4.69389 -3.09241 0
M  V30 13256 H 1285.62 -2.11511 -0.194177 0
M  V30 13257 H 1287.88 -0.936259 -0.148739 0
M  V30 13258 H 1287.59 -3.33114 -1.12817 0
M  V30 13259 H 1287.46 -2.6102 -2.72302 0
M  V30 13260 H 1289.85 -1.65955 -2.44014 0
M  V30 13261 H 1289.93 -2.41534 -0.842316 0
M  V30 13262 H 1289.58 -4.69848 -1.92885 0
M  V30 13263 H 1289.51 -3.9116 -3.52564 0
M  V30 13264 H 1292 -3.0612 -2.21582 0
M  V30 13265 H 1292.31 -6.60623 -4.00996 0
M  V30 13266 H 1290.66 -5.93755 -3.6122 0
M  V30 13267 H 1293.85 -3.84066 -2.67602 0
M  V30 13268 H 1294.02 -5.4571 -3.49435 0
M  V30 13269 N 1287.43 1.02549 -1.19673 0
M  V30 13270 C 1288.36 2.12794 -0.961289 0
M  V30 13271 C 1289.34 1.69766 0.106575 0
M  V30 13272 O 1290.52 1.94138 -0.0491358 0
M  V30 13273 C 1287.65 3.4364 -0.502868 0
M  V30 13274 C 1286.61 4.00367 -1.51296 0
M  V30 13275 C 1285.93 5.26874 -0.911491 0
M  V30 13276 C 1287.23 4.34782 -2.89416 0
M  V30 13277 H 1288.93 2.32748 -1.88331 0
M  V30 13278 H 1286.47 1.11852 -0.906922 0
M  V30 13279 H 1288.42 4.20141 -0.325436 0
M  V30 13280 H 1287.15 3.23418 0.454764 0
M  V30 13281 H 1285.81 3.25964 -1.67759 0
M  V30 13282 H 1285.46 5.02971 0.0537982 0
M  V30 13283 H 1285.16 5.65791 -1.58602 0
M  V30 13284 H 1286.68 6.06039 -0.74493 0
M  V30 13285 H 1288.09 5.02207 -2.76516 0
M  V30 13286 H 1286.49 4.8479 -3.53693 0
M  V30 13287 H 1287.56 3.43935 -3.41814 0
M  V30 13288 N 1288.9 1.00119 1.21713 0
M  V30 13289 C 1289.85 0.551452 2.25969 0
M  V30 13290 C 1290.85 -0.402075 1.64559 0
M  V30 13291 O 1292.05 -0.273685 1.77907 0
M  V30 13292 H 1288.43 0.159968 0.734789 0
M  V30 13293 H 1290.4 1.44201 2.61244 0
M  V30 13294 C 1289.15 -0.109992 3.47526 0
M  V30 13295 H 1288.47 0.614686 3.95046 0
M  V30 13296 H 1289.91 -0.388007 4.22221 0
M  V30 13297 C 1288.37 -1.34798 3.08757 0
M  V30 13298 O 1288.9 -2.44266 3.189 0
M  V30 13299 N 1287.1 -1.2263 2.63458 0
M  V30 13300 H 1286.65 -0.335571 2.55405 0
M  V30 13301 H 1286.61 -2.05565 2.37887 0
M  V30 13302 N 1290.38 -1.37203 0.775435 0
M  V30 13303 C 1291.79 -1.82224 0.406372 0
M  V30 13304 C 1292.14 -1.64587 -1.06796 0
M  V30 13305 O 1291.27 -1.15903 -1.82744 0
M  V30 13306 C 1291.86 -3.30824 0.730819 0
M  V30 13307 C 1290.42 -3.74108 0.414766 0
M  V30 13308 C 1289.57 -2.59679 0.972747 0
M  V30 13309 H 1292.52 -1.25623 0.969775 0
M  V30 13310 H 1292.54 -3.80496 0.0168066 0
M  V30 13311 H 1292.05 -3.43628 1.80392 0
M  V30 13312 H 1290.15 -3.66871 -0.650866 0
M  V30 13313 H 1290.27 -4.70074 0.925595 0
M  V30 13314 H 1288.63 -2.51591 0.396772 0
M  V30 13315 H 1289.41 -2.75274 2.05132 0
M  V30 13316 N 1291.86 -0.526279 -1.48553 0
M  V30 13317 C 1292.82 0.227739 -2.28066 0
M  V30 13318 C 1293.82 0.871146 -1.35158 0
M  V30 13319 O 1295.01 0.731769 -1.58085 0
M  V30 13320 C 1292.14 1.32918 -3.1392 0
M  V30 13321 H 1293.34 -0.470313 -2.96189 0
M  V30 13322 H 1290.89 -0.282089 -1.53733 0
M  V30 13323 H 1291.63 2.0606 -2.50419 0
M  V30 13324 H 1291.41 0.872991 -3.82258 0
M  V30 13325 H 1292.9 1.85964 -3.73908 0
M  V30 13326 N 1293.34 1.5542 -0.261239 0
M  V30 13327 C 1294.58 1.99579 0.36002 0
M  V30 13328 C 1294.92 1.14933 1.56538 0
M  V30 13329 O 1294.19 0.216082 1.93296 0
M  V30 13330 C 1294.47 3.52078 0.755842 0
M  V30 13331 C 1294.33 4.47484 -0.455896 0
M  V30 13332 C 1295.65 4.10083 1.5975 0
M  V30 13333 H 1292.77 0.725554 0.129385 0
M  V30 13334 H 1295.41 1.86453 -0.365415 0
M  V30 13335 H 1293.56 3.63394 1.37393 0
M  V30 13336 H 1295.23 4.4813 -1.09441 0
M  V30 13337 H 1293.47 4.19714 -1.09646 0
M  V30 13338 H 1294.14 5.51834 -0.13539 0
M  V30 13339 H 1296.62 4.01957 1.07562 0
M  V30 13340 H 1295.5 5.17024 1.84329 0
M  V30 13341 H 1295.76 3.59438 2.57404 0
M  V30 13342 N 1294.82 -0.0116844 1.57596 0
M  V30 13343 C 1296.04 -0.71026 1.94327 0
M  V30 13344 C 1296.46 -1.67952 0.862418 0
M  V30 13345 O 1295.82 -1.818 -0.159698 0
M  V30 13346 C 1295.87 -1.45228 3.31045 0
M  V30 13347 O 1295.59 -0.52191 4.3498 0
M  V30 13348 C 1297.09 -2.24644 3.82165 0
M  V30 13349 H 1294.31 -0.198559 0.640949 0
M  V30 13350 H 1296.85 0.0359615 2.04468 0
M  V30 13351 H 1295.01 -2.15023 3.22248 0
M  V30 13352 H 1295.42 -1.04415 5.14002 0
M  V30 13353 H 1296.9 -2.72078 4.80289 0
M  V30 13354 H 1297.37 -3.06817 3.14261 0
M  V30 13355 H 1297.98 -1.59888 3.94101 0
M  V30 13356 N 1296.29 -1.55015 -0.284256 0
M  V30 13357 C 1297.53 -1.76836 -1.02511 0
M  V30 13358 C 1297.9 -0.551675 -1.83904 0
M  V30 13359 O 1299.1 -0.647919 -2.60874 0
M  V30 13360 C 1297.37 -3.0312 -1.89348 0
M  V30 13361 S 1298.93 -3.46013 -2.69852 0
M  V30 13362 H 1295.75 -0.621436 -0.345453 0
M  V30 13363 H 1298.35 -1.93235 -0.296708 0
M  V30 13364 H 1297.05 -3.89778 -1.28458 0
M  V30 13365 H 1296.58 -2.89355 -2.66528 0
M  V30 13366 H 1298.6 -3.044 -3.91861 0
M  V30 13367 N 1297.77 0.548248 -1.47757 0
M  V30 13368 C 1298.73 1.63666 -1.60456 0
M  V30 13369 C 1299.73 1.53499 -0.479028 0
M  V30 13370 O 1300.92 1.57497 -0.744342 0
M  V30 13371 C 1298.06 3.03239 -1.55754 0
M  V30 13372 H 1299.25 1.53752 -2.57488 0
M  V30 13373 H 1296.8 0.768881 -1.36081 0
M  V30 13374 H 1297.54 3.18677 -0.601303 0
M  V30 13375 H 1297.32 3.12027 -2.37448 0
M  V30 13376 H 1298.81 3.82406 -1.67797 0
M  V30 13377 N 1299.25 1.36039 0.795694 0
M  V30 13378 C 1300.5 1.29663 1.55023 0
M  V30 13379 C 1300.82 -0.125588 1.94595 0
M  V30 13380 O 1300.09 -1.06447 1.64456 0
M  V30 13381 H 1298.67 0.476962 0.574906 0
M  V30 13382 H 1301.33 1.70265 0.948471 0
M  V30 13383 H 1300.43 1.91982 2.46068 0
M  V30 13384 N 1300.73 -1.01913 1.20215 0
M  V30 13385 C 1301.68 -2.104 0.948708 0
M  V30 13386 C 1302.65 -1.65665 -0.120139 0
M  V30 13387 O 1303.83 -1.90785 0.0240547 0
M  V30 13388 C 1300.97 -3.41398 0.504132 0
M  V30 13389 C 1300.08 -3.99625 1.64085 0
M  V30 13390 C 1299.22 -5.18673 1.14683 0
M  V30 13391 C 1298.26 -5.68977 2.2568 0
M  V30 13392 N 1297.39 -6.79289 1.77514 0
M  V30 13393 H 1302.23 -2.31415 1.87753 0
M  V30 13394 H 1299.77 -1.13487 0.935901 0
M  V30 13395 H 1301.73 -4.16578 0.22771 0
M  V30 13396 H 1300.36 -3.20463 -0.387689 0
M  V30 13397 H 1299.41 -3.21565 2.03225 0
M  V30 13398 H 1300.72 -4.32965 2.47674 0
M  V30 13399 H 1299.88 -6.01048 0.826223 0
M  V30 13400 H 1298.62 -4.86891 0.280797 0
M  V30 13401 H 1297.62 -4.85208 2.5856 0
M  V30 13402 H 1298.85 -6.02794 3.12755 0
M  V30 13403 H 1296.79 -6.49341 0.932338 0
M  V30 13404 H 1296.71 -7.11808 2.54686 0
M  V30 13405 H 1297.98 -7.65235 1.48446 0
M  V30 13406 N 1302.21 -1.00763 -1.2118 0
M  V30 13407 C 1303.45 -0.690459 -1.8994 0
M  V30 13408 C 1303.78 0.781464 -1.78656 0
M  V30 13409 O 1303.05 1.56135 -1.18316 0
M  V30 13410 H 1301.63 -0.252397 -0.703068 0
M  V30 13411 H 1304.29 -1.2773 -1.47211 0
M  V30 13412 H 1303.38 -0.96594 -2.96776 0
M  V30 13413 N 1303.68 1.3679 -0.7827 0
M  V30 13414 C 1304.91 2.03678 -0.363734 0
M  V30 13415 C 1305.33 1.59024 1.01768 0
M  V30 13416 O 1304.68 0.776541 1.65155 0
M  V30 13417 C 1304.74 3.59165 -0.410213 0
M  V30 13418 O 1304.46 4.02188 -1.73714 0
M  V30 13419 C 1305.96 4.43296 0.018972 0
M  V30 13420 H 1303.18 0.653828 -0.150829 0
M  V30 13421 H 1305.72 1.74903 -1.05968 0
M  V30 13422 H 1303.88 3.86673 0.237249 0
M  V30 13423 H 1304.29 4.96754 -1.68332 0
M  V30 13424 H 1305.76 5.51962 -0.0646943 0
M  V30 13425 H 1306.24 4.25948 1.07076 0
M  V30 13426 H 1306.85 4.21036 -0.600721 0
M  V30 13427 N 1305.16 0.53415 1.48272 0
M  V30 13428 C 1306.57 0.0947592 1.86459 0
M  V30 13429 C 1306.92 -1.32906 1.44328 0
M  V30 13430 O 1306.05 -1.99605 0.835866 0
M  V30 13431 C 1306.64 0.16519 3.38397 0
M  V30 13432 C 1305.2 -0.219029 3.75762 0
M  V30 13433 C 1304.35 0.523097 2.72321 0
M  V30 13434 H 1307.3 0.74517 1.40117 0
M  V30 13435 H 1307.32 -0.622065 3.75381 0
M  V30 13436 H 1306.83 1.20157 3.69031 0
M  V30 13437 H 1304.94 -1.2574 3.50742 0
M  V30 13438 H 1305.05 0.123482 4.78941 0
M  V30 13439 H 1303.41 -0.0311323 2.54681 0
M  V30 13440 H 1304.2 1.56019 3.05799 0
M  V30 13441 N 1306.64 -1.55279 0.269478 0
M  V30 13442 C 1307.57 -2.25278 -0.614188 0
M  V30 13443 C 1308.55 -1.24092 -1.1634 0
M  V30 13444 O 1309.74 -1.52799 -1.19858 0
M  V30 13445 C 1306.87 -2.96956 -1.80096 0
M  V30 13446 C 1305.82 -4.05021 -1.38353 0
M  V30 13447 C 1305.15 -4.64244 -2.65295 0
M  V30 13448 C 1306.45 -5.19523 -0.537886 0
M  V30 13449 H 1308.14 -2.99385 -0.0304397 0
M  V30 13450 H 1305.69 -1.43994 -0.0132004 0
M  V30 13451 H 1307.64 -3.44633 -2.42499 0
M  V30 13452 H 1306.36 -2.20374 -2.41045 0
M  V30 13453 H 1305.02 -3.58146 -0.78273 0
M  V30 13454 H 1304.67 -3.84337 -3.2449 0
M  V30 13455 H 1304.37 -5.37208 -2.38079 0
M  V30 13456 H 1305.89 -5.14668 -3.28557 0
M  V30 13457 H 1307.31 -5.63287 -1.06677 0
M  V30 13458 H 1305.71 -5.99014 -0.360845 0
M  V30 13459 H 1306.78 -4.82857 0.444672 0
M  V30 13460 N 1308.12 0.00332656 -1.576 0
M  V30 13461 C 1309.35 0.699945 -1.94701 0
M  V30 13462 C 1309.76 1.67492 -0.871312 0
M  V30 13463 O 1309.12 1.81882 0.150054 0
M  V30 13464 C 1309.17 1.43471 -3.31811 0
M  V30 13465 O 1308.89 0.498835 -4.35251 0
M  V30 13466 C 1310.39 2.22614 -3.83351 0
M  V30 13467 H 1307.61 0.195158 -0.641993 0
M  V30 13468 H 1310.16 -0.0468044 -2.04446 0
M  V30 13469 H 1308.31 2.13311 -3.23384 0
M  V30 13470 H 1308.72 1.01688 -5.14548 0
M  V30 13471 H 1310.2 2.69527 -4.81725 0
M  V30 13472 H 1310.68 3.05146 -3.15883 0
M  V30 13473 H 1311.28 1.57796 -3.94944 0
M  V30 13474 N 1309.6 1.55164 0.276031 0
M  V30 13475 C 1311.01 1.66367 0.847293 0
M  V30 13476 C 1311.36 0.588692 1.8716 0
M  V30 13477 O 1310.48 -0.27035 2.14705 0
M  V30 13478 C 1311.08 3.01593 1.5436 0
M  V30 13479 C 1309.64 3.14833 2.06293 0
M  V30 13480 C 1308.78 2.62152 0.903959 0
M  V30 13481 H 1311.74 1.58613 0.0524478 0
M  V30 13482 H 1311.76 2.94412 2.41043 0
M  V30 13483 H 1311.27 3.7981 0.797849 0
M  V30 13484 H 1309.37 2.41384 2.83839 0
M  V30 13485 H 1309.48 4.21353 2.28032 0
M  V30 13486 H 1307.85 2.19233 1.29649 0
M  V30 13487 H 1308.63 3.4287 0.171765 0
M  V30 13488 N 1311.07 -0.540404 1.48045 0
M  V30 13489 C 1312.49 -1.12243 1.49192 0
M  V30 13490 C 1312.84 -1.94524 0.255895 0
M  V30 13491 O 1311.96 -2.06786 -0.637855 0
M  V30 13492 C 1312.56 -2.04227 2.70327 0
M  V30 13493 C 1311.12 -2.57668 2.7438 0
M  V30 13494 C 1310.26 -1.34402 2.42552 0
M  V30 13495 H 1313.21 -0.326165 1.55312 0
M  V30 13496 H 1313.23 -2.88359 2.48253 0
M  V30 13497 H 1312.75 -1.44314 3.60271 0
M  V30 13498 H 1310.85 -3.21331 1.88618 0
M  V30 13499 H 1310.96 -2.97514 3.7553 0
M  V30 13500 H 1309.32 -1.65635 1.93487 0
M  V30 13501 H 1310.11 -0.762571 3.34723 0
M  V30 13502 N 1312.55 -1.36459 -0.788468 0
M  V30 13503 C 1313.52 -1.3071 -1.88275 0
M  V30 13504 C 1314.52 -0.214596 -1.59362 0
M  V30 13505 O 1315.71 -0.469437 -1.67756 0
M  V30 13506 C 1312.84 -1.02648 -3.25079 0
M  V30 13507 H 1314.03 -2.28029 -1.94788 0
M  V30 13508 H 1311.58 -1.21245 -0.986375 0
M  V30 13509 H 1312.32 -0.0578992 -3.24248 0
M  V30 13510 H 1312.1 -1.81708 -3.47454 0
M  V30 13511 H 1313.59 -1.01233 -4.05144 0
M  V30 13512 N 1314.03 1.01274 -1.20754 0
M  V30 13513 C 1315.27 1.7647 -1.03139 0
M  V30 13514 C 1315.63 1.87157 0.428531 0
M  V30 13515 O 1316.84 2.58839 0.724973 0
M  V30 13516 C 1315.11 3.14346 -1.70063 0
M  V30 13517 S 1316.67 4.05531 -1.67602 0
M  V30 13518 H 1313.48 0.60729 -0.369756 0
M  V30 13519 H 1316.09 1.21232 -1.53372 0
M  V30 13520 H 1314.79 3.04197 -2.75486 0
M  V30 13521 H 1314.32 3.74659 -1.19977 0
M  V30 13522 H 1316.34 4.91071 -0.711623 0
M  V30 13523 N 1315.51 1.01404 1.20644 0
M  V30 13524 C 1316.47 0.586941 2.21557 0
M  V30 13525 C 1317.47 -0.341543 1.57131 0
M  V30 13526 O 1318.66 -0.130585 1.7371 0
M  V30 13527 C 1315.79 -0.143248 3.40599 0
M  V30 13528 H 1316.99 1.47964 2.60858 0
M  V30 13529 H 1314.54 0.803551 1.34063 0
M  V30 13530 H 1315.28 -1.05097 3.06798 0
M  V30 13531 H 1315.06 0.523716 3.88587 0
M  V30 13532 H 1316.55 -0.429504 4.15385 0
M  V30 13533 N 1316.99 -1.36373 0.789944 0
M  V30 13534 C 1318.23 -2.0106 0.367995 0
M  V30 13535 C 1318.59 -1.61336 -1.0409 0
M  V30 13536 O 1319.79 -2.18618 -1.56396 0
M  V30 13537 C 1318.06 -3.53492 0.527106 0
M  V30 13538 S 1319.62 -4.38375 0.193113 0
M  V30 13539 H 1316.44 -0.696965 0.140573 0
M  V30 13540 H 1319.04 -1.66256 1.02855 0
M  V30 13541 H 1317.75 -3.7989 1.55279 0
M  V30 13542 H 1317.28 -3.93116 -0.149364 0
M  V30 13543 H 1319.29 -4.85913 -1.00513 0
M  V30 13544 N 1318.47 -0.542005 -1.47987 0
M  V30 13545 C 1319.69 -0.0146835 -2.07395 0
M  V30 13546 C 1320.12 1.26266 -1.39422 0
M  V30 13547 O 1319.47 1.75259 -0.464118 0
M  V30 13548 C 1319.52 0.179937 -3.60151 0
M  V30 13549 O 1318.63 1.24596 -3.93128 0
M  V30 13550 H 1317.97 -0.0445076 -0.662507 0
M  V30 13551 H 1320.5 -0.753352 -1.90226 0
M  V30 13552 H 1320.51 0.398876 -4.06046 0
M  V30 13553 H 1319.18 -0.753093 -4.09025 0
M  V30 13554 H 1317.76 1.00872 -3.58997 0
M  V30 13555 N 1319.94 1.55134 -0.277709 0
M  V30 13556 C 1321.17 2.04519 0.344472 0
M  V30 13557 C 1321.59 1.15466 1.4849 0
M  V30 13558 O 1320.95 0.153798 1.80646 0
M  V30 13559 C 1321 3.51602 0.800527 0
M  V30 13560 O 1320.1 3.65632 1.90754 0
M  V30 13561 H 1319.44 0.660212 0.0708226 0
M  V30 13562 H 1321.97 2.00393 -0.412764 0
M  V30 13563 H 1321.98 3.93015 1.09559 0
M  V30 13564 H 1320.66 4.15886 -0.033838 0
M  V30 13565 H 1319.24 3.36122 1.61481 0
M  V30 13566 N 1321.42 0.00503138 1.57599 0
M  V30 13567 C 1322.35 -0.983586 2.11773 0
M  V30 13568 C 1323.33 -1.35518 1.02805 0
M  V30 13569 O 1324.52 -1.43804 1.30514 0
M  V30 13570 C 1321.65 -2.27383 2.62515 0
M  V30 13571 C 1320.6 -2.0437 3.76054 0
M  V30 13572 C 1319.93 -3.39451 4.1313 0
M  V30 13573 C 1321.23 -1.40223 5.03125 0
M  V30 13574 H 1322.92 -0.532501 2.94627 0
M  V30 13575 H 1320.47 -0.254696 1.4173 0
M  V30 13576 H 1322.42 -2.96903 2.99043 0
M  V30 13577 H 1321.14 -2.74614 1.7679 0
M  V30 13578 H 1319.8 -1.37275 3.39928 0
M  V30 13579 H 1319.45 -3.84395 3.24422 0
M  V30 13580 H 1319.15 -3.24868 4.89627 0
M  V30 13581 H 1320.68 -4.10279 4.52221 0
M  V30 13582 H 1322.09 -1.99708 5.37392 0
M  V30 13583 H 1320.49 -1.36112 5.8446 0
M  V30 13584 H 1321.56 -0.372073 4.8347 0
M  V30 13585 N 1322.9 -1.55308 -0.267798 0
M  V30 13586 C 1323.83 -1.84963 -1.35356 0
M  V30 13587 C 1324.84 -0.73446 -1.45291 0
M  V30 13588 O 1326.03 -1.01237 -1.47015 0
M  V30 13589 C 1323.13 -2.00221 -2.73432 0
M  V30 13590 C 1322.31 -3.30922 -2.86024 0
M  V30 13591 C 1321.37 -3.3618 -4.04808 0
M  V30 13592 O 1320.39 -4.09525 -3.9532 0
M  V30 13593 N 1321.59 -2.63958 -5.17017 0
M  V30 13594 H 1324.36 -2.7868 -1.1026 0
M  V30 13595 H 1321.92 -1.55289 -0.457914 0
M  V30 13596 H 1323.91 -2.01103 -3.51197 0
M  V30 13597 H 1322.48 -1.13346 -2.91327 0
M  V30 13598 H 1321.7 -3.42534 -1.951 0
M  V30 13599 H 1322.99 -4.17109 -2.91371 0
M  V30 13600 H 1322.39 -2.04062 -5.27613 0
M  V30 13601 H 1320.94 -2.70558 -5.92994 0
M  V30 13602 N 1324.38 0.532545 -1.4833 0
M  V30 13603 C 1325.62 1.29042 -1.56448 0
M  V30 13604 C 1325.96 1.92754 -0.236532 0
M  V30 13605 O 1325.23 1.79154 0.757237 0
M  V30 13606 C 1325.51 2.38173 -2.70084 0
M  V30 13607 C 1325.37 1.79169 -4.12576 0
M  V30 13608 C 1326.69 3.39957 -2.79495 0
M  V30 13609 H 1323.81 0.467816 -0.569488 0
M  V30 13610 H 1326.45 0.593517 -1.80492 0
M  V30 13611 H 1324.6 2.97616 -2.49714 0
M  V30 13612 H 1326.27 1.23797 -4.44378 0
M  V30 13613 H 1324.51 1.09716 -4.19696 0
M  V30 13614 H 1325.18 2.58174 -4.87904 0
M  V30 13615 H 1327.66 2.90466 -2.97941 0
M  V30 13616 H 1326.54 4.13714 -3.60739 0
M  V30 13617 H 1326.8 4.00347 -1.87548 0
M  V30 13618 N 1325.86 1.36875 0.78122 0
M  V30 13619 C 1326.77 1.3404 1.92537 0
M  V30 13620 C 1327.78 0.241354 1.72318 0
M  V30 13621 O 1328.96 0.475128 1.95715 0
M  V30 13622 C 1326.02 1.13708 3.27523 0
M  V30 13623 C 1325.08 2.33165 3.60462 0
M  V30 13624 C 1324.32 2.13793 4.89007 0
M  V30 13625 O 1324.54 1.11732 5.5935 0
M  V30 13626 O 1323.47 3.01762 5.20791 0
M  V30 13627 H 1327.3 2.30386 1.97879 0
M  V30 13628 H 1324.88 1.17506 0.922637 0
M  V30 13629 H 1326.77 1.0432 4.08283 0
M  V30 13630 H 1325.44 0.204306 3.23055 0
M  V30 13631 H 1324.35 2.48123 2.79974 0
M  V30 13632 H 1325.68 3.24977 3.69663 0
M  V30 13633 N 1327.33 -1.00632 1.21289 0
M  V30 13634 C 1328.58 -1.74647 1.03084 0
M  V30 13635 C 1328.91 -1.89271 -0.43476 0
M  V30 13636 O 1328.19 -1.42607 -1.32263 0
M  V30 13637 C 1328.47 -3.15981 1.72709 0
M  V30 13638 C 1328.32 -3.09088 3.2678 0
M  V30 13639 C 1329.64 -4.14875 1.46857 0
M  V30 13640 H 1326.76 -0.633938 0.375889 0
M  V30 13641 H 1329.4 -1.17328 1.49446 0
M  V30 13642 H 1327.55 -3.64918 1.33294 0
M  V30 13643 H 1329.23 -2.67875 3.75554 0
M  V30 13644 H 1327.47 -2.46223 3.57151 0
M  V30 13645 H 1328.14 -4.09041 3.70661 0
M  V30 13646 H 1330.62 -3.74637 1.81069 0
M  V30 13647 H 1329.49 -5.1191 1.98088 0
M  V30 13648 H 1329.75 -4.40302 0.398296 0
M  V30 13649 N 1328.81 -1.02043 -1.20104 0
M  V30 13650 C 1329.72 -0.603724 -2.26699 0
M  V30 13651 C 1330.74 0.360558 -1.70223 0
M  V30 13652 O 1331.91 0.220552 -2.00189 0
M  V30 13653 C 1328.98 0.0475988 -3.46667 0
M  V30 13654 C 1328.04 -0.963111 -4.18357 0
M  V30 13655 C 1327.27 -0.342775 -5.32598 0
M  V30 13656 O 1327.5 0.856509 -5.63933 0
M  V30 13657 O 1326.43 -1.06141 -5.92467 0
M  V30 13658 H 1330.26 -1.49125 -2.64566 0
M  V30 13659 H 1327.84 -0.790134 -1.26796 0
M  V30 13660 H 1329.72 0.411177 -4.19389 0
M  V30 13661 H 1328.4 0.909266 -3.10667 0
M  V30 13662 H 1327.3 -1.37813 -3.47791 0
M  V30 13663 H 1328.64 -1.79487 -4.58307 0
M  V30 13664 N 1330.29 1.35952 -0.797165 0
M  V30 13665 C 1331.71 1.52218 -0.479765 0
M  V30 13666 C 1331.91 1.74898 1.00064 0
M  V30 13667 O 1330.96 1.78495 1.78594 0
M  V30 13668 C 1332.28 2.70328 -1.31694 0
M  V30 13669 C 1333.82 2.84202 -1.31142 0
M  V30 13670 C 1334.3 4.05325 -2.13251 0
M  V30 13671 N 1335.79 4.12485 -2.10737 0
M  V30 13672 C 1336.52 5.053 -2.71033 0
M  V30 13673 N 1336.02 6.03509 -3.40219 0
M  V30 13674 N 1337.81 4.97975 -2.60725 0
M  V30 13675 H 1329.96 1.19486 -1.75604 0
M  V30 13676 H 1332.23 0.58383 -0.746892 0
M  V30 13677 H 1331.93 2.60116 -2.36712 0
M  V30 13678 H 1331.81 3.64684 -0.963607 0
M  V30 13679 H 1334.19 2.9387 -0.269131 0
M  V30 13680 H 1334.28 1.9073 -1.70457 0
M  V30 13681 H 1333.92 3.96417 -3.17515 0
M  V30 13682 H 1333.85 4.97959 -1.71302 0
M  V30 13683 H 1336.34 3.42174 -1.6039 0
M  V30 13684 H 1336.65 6.70909 -3.83537 0
M  V30 13685 H 1335 6.03711 -3.44322 0
M  V30 13686 H 1338.19 4.20203 -2.0627 0
M  V30 13687 H 1338.36 5.70119 -3.08007 0
M  V30 13688 N 1331.77 0.549846 1.47697 0
M  V30 13689 C 1332.7 -0.190364 2.32723 0
M  V30 13690 C 1333.68 -0.915933 1.43334 0
M  V30 13691 O 1334.86 -0.897838 1.72199 0
M  V30 13692 C 1331.99 -1.22545 3.24961 0
M  V30 13693 C 1330.95 -0.616805 4.23532 0
M  V30 13694 C 1330.27 -1.75599 5.05044 0
M  V30 13695 C 1331.57 0.424595 5.20571 0
M  V30 13696 H 1333.27 0.519461 2.94859 0
M  V30 13697 H 1330.81 0.251259 1.41791 0
M  V30 13698 H 1332.77 -1.75139 3.83281 0
M  V30 13699 H 1331.49 -1.96512 2.60865 0
M  V30 13700 H 1330.15 -0.112224 3.66428 0
M  V30 13701 H 1329.8 -2.48453 4.37356 0
M  V30 13702 H 1329.5 -1.35456 5.71774 0
M  V30 13703 H 1331.02 -2.28533 5.6622 0
M  V30 13704 H 1332.44 -0.0150025 5.73298 0
M  V30 13705 H 1330.83 0.7445 5.95464 0
M  V30 13706 H 1331.9 1.32318 4.66497 0
M  V30 13707 N 1333.25 -1.54984 0.285932 0
M  V30 13708 C 1334.18 -2.20365 -0.630236 0
M  V30 13709 C 1335.19 -1.19168 -1.10918 0
M  V30 13710 O 1336.38 -1.45839 -1.02923 0
M  V30 13711 C 1333.48 -2.8244 -1.87299 0
M  V30 13712 C 1332.65 -4.09429 -1.53905 0
M  V30 13713 C 1331.71 -4.55449 -2.63538 0
M  V30 13714 O 1330.74 -5.20985 -2.29267 0
M  V30 13715 N 1331.94 -4.26498 -3.93802 0
M  V30 13716 H 1334.71 -2.99617 -0.0706044 0
M  V30 13717 H 1332.27 -1.61543 0.107486 0
M  V30 13718 H 1334.26 -3.10167 -2.59959 0
M  V30 13719 H 1332.83 -2.07117 -2.34139 0
M  V30 13720 H 1332.05 -3.88875 -0.645774 0
M  V30 13721 H 1333.34 -4.92146 -1.29111 0
M  V30 13722 H 1332.73 -3.73964 -4.24461 0
M  V30 13723 H 1331.29 -4.5897 -4.62807 0
M  V30 13724 N 1334.72 -0.0133892 -1.57594 0
M  V30 13725 C 1335.97 0.667313 -1.90765 0
M  V30 13726 C 1336.29 1.73564 -0.888847 0
M  V30 13727 O 1335.56 1.95768 0.0718946 0
M  V30 13728 H 1334.14 0.24947 -0.704112 0
M  V30 13729 H 1336.81 -0.0574789 -1.94815 0
M  V30 13730 H 1335.9 1.13007 -2.90922 0
M  V30 13731 N 1336.2 1.55448 0.259558 0
M  V30 13732 C 1337.13 1.9226 1.32508 0
M  V30 13733 C 1338.11 0.786012 1.5085 0
M  V30 13734 O 1339.3 1.04526 1.6367 0
M  V30 13735 C 1336.43 2.20627 2.68218 0
M  V30 13736 C 1335.38 3.36418 2.64589 0
M  V30 13737 C 1334.71 3.50295 4.03977 0
M  V30 13738 C 1336.01 4.72452 2.2268 0
M  V30 13739 H 1337.7 2.81509 1.01945 0
M  V30 13740 H 1335.25 1.35444 0.488965 0
M  V30 13741 H 1337.2 2.44968 3.42883 0
M  V30 13742 H 1335.93 1.28191 3.00391 0
M  V30 13743 H 1334.58 3.12065 1.92382 0
M  V30 13744 H 1334.23 2.55302 4.33394 0
M  V30 13745 H 1333.93 4.28155 4.02439 0
M  V30 13746 H 1335.46 3.76944 4.8036 0
M  V30 13747 H 1336.87 4.96249 2.87071 0
M  V30 13748 H 1335.27 5.53323 2.32279 0
M  V30 13749 H 1336.34 4.70367 1.17826 0
M  V30 13750 N 1337.68 -0.524672 1.4861 0
M  V30 13751 C 1338.93 -1.28211 1.5713 0
M  V30 13752 C 1339.26 -1.92626 0.246751 0
M  V30 13753 O 1338.53 -1.79553 -0.747725 0
M  V30 13754 C 1338.82 -2.36737 2.71344 0
M  V30 13755 C 1338.67 -1.76978 4.1352 0
M  V30 13756 C 1339.99 -3.3847 2.81294 0
M  V30 13757 H 1337.11 -0.46479 0.571961 0
M  V30 13758 H 1339.75 -0.583937 1.80804 0
M  V30 13759 H 1337.9 -2.96287 2.51289 0
M  V30 13760 H 1339.57 -1.21438 4.45029 0
M  V30 13761 H 1337.82 -1.07488 4.20272 0
M  V30 13762 H 1338.49 -2.55583 4.89266 0
M  V30 13763 H 1340.96 -2.88882 2.99477 0
M  V30 13764 H 1339.84 -4.11795 3.62928 0
M  V30 13765 H 1340.1 -3.99347 1.89669 0
M  V30 13766 N 1339.16 -1.37287 -0.77395 0
M  V30 13767 C 1340.09 -1.35569 -1.90114 0
M  V30 13768 C 1341.07 -0.224658 -1.6861 0
M  V30 13769 O 1342.25 -0.424676 -1.895 0
M  V30 13770 C 1339.38 -1.15971 -3.27365 0
M  V30 13771 C 1338.34 -2.26063 -3.63427 0
M  V30 13772 C 1337.66 -1.9159 -4.99197 0
M  V30 13773 C 1338.96 -3.68236 -3.70405 0
M  V30 13774 H 1340.66 -2.29891 -1.91808 0
M  V30 13775 H 1338.2 -1.10661 -0.92142 0
M  V30 13776 H 1340.16 -1.134 -4.05855 0
M  V30 13777 H 1338.88 -0.181043 -3.26098 0
M  V30 13778 H 1337.54 -2.27786 -2.87244 0
M  V30 13779 H 1337.19 -0.922586 -4.94467 0
M  V30 13780 H 1336.89 -2.65309 -5.24294 0
M  V30 13781 H 1338.41 -1.90602 -5.80089 0
M  V30 13782 H 1339.83 -3.68655 -4.39052 0
M  V30 13783 H 1338.22 -4.4099 -4.06999 0
M  V30 13784 H 1339.29 -4.02021 -2.71122 0
M  V30 13785 N 1340.64 0.999871 -1.21821 0
M  V30 13786 C 1341.58 2.08864 -0.98206 0
M  V30 13787 C 1342.55 1.65835 0.0937677 0
M  V30 13788 O 1343.74 1.90722 -0.0544038 0
M  V30 13789 C 1340.88 3.40553 -0.558382 0
M  V30 13790 C 1339.99 3.96964 -1.70422 0
M  V30 13791 C 1339.13 5.16782 -1.2292 0
M  V30 13792 C 1338.17 5.65315 -2.34703 0
M  V30 13793 N 1337.3 6.76379 -1.88299 0
M  V30 13794 H 1342.14 2.28399 -1.9141 0
M  V30 13795 H 1339.68 1.11984 -0.953837 0
M  V30 13796 H 1341.64 4.16163 -0.293955 0
M  V30 13797 H 1340.27 3.2104 0.336656 0
M  V30 13798 H 1339.32 3.18291 -2.08315 0
M  V30 13799 H 1340.63 4.2897 -2.54531 0
M  V30 13800 H 1339.79 5.99657 -0.92174 0
M  V30 13801 H 1338.52 4.86383 -0.358222 0
M  V30 13802 H 1337.53 4.81033 -2.66246 0
M  V30 13803 H 1338.75 5.97742 -3.22306 0
M  V30 13804 H 1336.7 6.47775 -1.03552 0
M  V30 13805 H 1336.62 7.07666 -2.65978 0
M  V30 13806 H 1337.89 7.62776 -1.60601 0
M  V30 13807 N 1342.11 1.02678 1.19562 0
M  V30 13808 C 1343.35 0.7307 1.90893 0
M  V30 13809 C 1343.72 -0.727166 1.77697 0
M  V30 13810 O 1344.92 -1.13623 2.43605 0
M  V30 13811 C 1343.19 1.16683 3.37816 0
M  V30 13812 S 1344.75 0.994271 4.27387 0
M  V30 13813 H 1341.57 0.266082 0.659334 0
M  V30 13814 H 1344.17 1.31617 1.44558 0
M  V30 13815 H 1342.87 2.22354 3.44945 0
M  V30 13816 H 1342.4 0.574559 3.89182 0
M  V30 13817 H 1344.42 -0.0963871 4.96106 0
M  V30 13818 N 1343.59 -1.35528 0.804364 0
M  V30 13819 C 1344.52 -2.32388 0.227604 0
M  V30 13820 C 1345.5 -1.57368 -0.645709 0
M  V30 13821 O 1346.69 -1.85448 -0.576441 0
M  V30 13822 C 1343.82 -3.41603 -0.62645 0
M  V30 13823 C 1342.77 -4.27743 0.148187 0
M  V30 13824 C 1342.1 -5.28259 -0.827425 0
M  V30 13825 C 1343.4 -5.04661 1.34591 0
M  V30 13826 H 1345.09 -2.80874 1.03684 0
M  V30 13827 H 1342.64 -1.3504 0.500031 0
M  V30 13828 H 1344.59 -4.08365 -1.03999 0
M  V30 13829 H 1343.32 -2.91721 -1.46855 0
M  V30 13830 H 1341.97 -3.62558 0.542874 0
M  V30 13831 H 1341.62 -4.74645 -1.66496 0
M  V30 13832 H 1341.32 -5.86763 -0.313453 0
M  V30 13833 H 1342.85 -5.97893 -1.23921 0
M  V30 13834 H 1344.26 -5.6438 1.00736 0
M  V30 13835 H 1342.66 -5.7265 1.79422 0
M  V30 13836 H 1343.73 -4.35432 2.1337 0
M  V30 13837 N 1345.07 -0.557671 -1.47404 0
M  V30 13838 C 1346.03 0.179311 -2.28498 0
M  V30 13839 C 1347.03 0.842281 -1.36975 0
M  V30 13840 O 1348.22 0.698072 -1.59601 0
M  V30 13841 C 1345.36 1.26229 -3.16668 0
M  V30 13842 H 1346.55 -0.533033 -2.95125 0
M  V30 13843 H 1344.1 -0.314634 -1.531 0
M  V30 13844 H 1344.84 2.00702 -2.54733 0
M  V30 13845 H 1344.62 0.791712 -3.84024 0
M  V30 13846 H 1346.11 1.77991 -3.77768 0
M  V30 13847 N 1346.55 1.54831 -0.294147 0
M  V30 13848 C 1347.46 2.26939 0.594621 0
M  V30 13849 C 1348.48 1.30209 1.15419 0
M  V30 13850 O 1349.65 1.6318 1.18044 0
M  V30 13851 C 1346.72 2.9909 1.75345 0
M  V30 13852 C 1345.78 4.11342 1.22865 0
M  V30 13853 C 1345.01 4.80043 2.33225 0
M  V30 13854 O 1345.23 4.48062 3.52983 0
M  V30 13855 O 1344.17 5.67593 2.00304 0
M  V30 13856 H 1347.99 3.03698 0.00989235 0
M  V30 13857 H 1345.58 1.49276 -0.0608528 0
M  V30 13858 H 1347.46 3.44369 2.42875 0
M  V30 13859 H 1346.14 2.25232 2.32492 0
M  V30 13860 H 1345.04 3.70478 0.519279 0
M  V30 13861 H 1346.38 4.87158 0.702703 0
M  V30 13862 N 1348.03 0.0217466 1.57585 0
M  V30 13863 C 1348.96 -0.99116 2.06661 0
M  V30 13864 C 1349.97 -1.29346 0.988604 0
M  V30 13865 O 1351.16 -1.25941 1.26496 0
M  V30 13866 C 1348.26 -2.32047 2.46997 0
M  V30 13867 C 1347.43 -2.20441 3.77789 0
M  V30 13868 C 1346.49 -3.36243 4.04755 0
M  V30 13869 O 1345.52 -3.13458 4.75114 0
M  V30 13870 N 1346.72 -4.598 3.54351 0
M  V30 13871 H 1349.49 -0.572486 2.94181 0
M  V30 13872 H 1347.05 -0.165175 1.61055 0
M  V30 13873 H 1349.04 -3.0833 2.62135 0
M  V30 13874 H 1347.61 -2.65581 1.64881 0
M  V30 13875 H 1346.83 -1.28931 3.72519 0
M  V30 13876 H 1348.12 -2.09882 4.63494 0
M  V30 13877 H 1347.52 -4.81207 2.97416 0
M  V30 13878 H 1346.07 -5.33276 3.7478 0
M  V30 13879 N 1349.51 -1.55583 -0.251311 0
M  V30 13880 C 1350.44 -1.86388 -1.33387 0
M  V30 13881 C 1351.45 -0.749829 -1.44504 0
M  V30 13882 O 1352.64 -1.0279 -1.45933 0
M  V30 13883 C 1349.74 -2.0311 -2.71293 0
M  V30 13884 C 1348.91 -3.33937 -2.82498 0
M  V30 13885 C 1347.97 -3.40455 -4.01219 0
M  V30 13886 O 1347 -4.13695 -3.90954 0
M  V30 13887 N 1348.2 -2.69427 -5.14188 0
M  V30 13888 H 1350.96 -2.79834 -1.07298 0
M  V30 13889 H 1348.53 -1.55766 -0.441418 0
M  V30 13890 H 1350.52 -2.04817 -3.49045 0
M  V30 13891 H 1349.09 -1.16429 -2.90109 0
M  V30 13892 H 1348.31 -3.44584 -1.91456 0
M  V30 13893 H 1349.6 -4.20176 -2.86931 0
M  V30 13894 H 1348.99 -2.09647 -5.25419 0
M  V30 13895 H 1347.55 -2.76832 -5.90091 0
M  V30 13896 N 1350.98 0.516783 -1.48886 0
M  V30 13897 C 1351.93 1.62003 -1.64389 0
M  V30 13898 C 1352.9 1.58842 -0.485633 0
M  V30 13899 O 1354.09 1.77068 -0.710742 0
M  V30 13900 C 1351.23 3.00218 -1.70186 0
M  V30 13901 C 1350.34 3.13513 -2.97209 0
M  V30 13902 C 1349.47 4.42366 -2.94084 0
M  V30 13903 C 1348.51 4.49238 -4.15754 0
M  V30 13904 N 1347.65 5.69497 -4.10631 0
M  V30 13905 H 1352.49 1.48093 -2.58597 0
M  V30 13906 H 1350.03 0.720788 -1.2823 0
M  V30 13907 H 1351.98 3.80307 -1.71529 0
M  V30 13908 H 1350.61 3.12868 -0.794578 0
M  V30 13909 H 1349.67 2.26589 -3.05551 0
M  V30 13910 H 1350.98 3.14451 -3.87197 0
M  V30 13911 H 1350.13 5.3076 -2.93902 0
M  V30 13912 H 1348.87 4.43969 -2.01847 0
M  V30 13913 H 1347.88 3.59248 -4.16198 0
M  V30 13914 H 1349.1 4.49363 -5.09166 0
M  V30 13915 H 1347.05 5.71973 -3.21222 0
M  V30 13916 H 1346.96 5.71985 -4.94337 0
M  V30 13917 H 1348.23 6.60142 -4.14527 0
M  V30 13918 N 1352.46 1.37696 0.766659 0
M  V30 13919 C 1353.39 1.36576 1.89392 0
M  V30 13920 C 1354.37 0.233597 1.68488 0
M  V30 13921 O 1355.56 0.434719 1.89272 0
M  V30 13922 C 1352.69 1.17705 3.26746 0
M  V30 13923 C 1351.64 2.27987 3.62224 0
M  V30 13924 C 1350.97 1.94235 4.98174 0
M  V30 13925 C 1352.27 3.70195 3.68447 0
M  V30 13926 H 1353.96 2.30905 1.90587 0
M  V30 13927 H 1351.51 1.11148 0.915538 0
M  V30 13928 H 1353.46 1.15551 4.05248 0
M  V30 13929 H 1352.18 0.198334 3.25997 0
M  V30 13930 H 1350.84 2.29306 2.86032 0
M  V30 13931 H 1350.49 0.948796 4.93971 0
M  V30 13932 H 1350.19 2.68086 5.2288 0
M  V30 13933 H 1351.72 1.93676 5.7907 0
M  V30 13934 H 1353.13 3.70978 4.37091 0
M  V30 13935 H 1351.53 4.43142 4.04654 0
M  V30 13936 H 1352.6 4.03453 2.68986 0
M  V30 13937 N 1353.94 -0.993397 1.22349 0
M  V30 13938 C 1354.87 -2.08543 0.950925 0
M  V30 13939 C 1355.88 -1.62648 -0.0702741 0
M  V30 13940 O 1357.07 -1.77748 0.16367 0
M  V30 13941 C 1354.17 -3.36429 0.408466 0
M  V30 13942 C 1353.35 -4.11356 1.48676 0
M  V30 13943 C 1352.41 -5.17526 0.951478 0
M  V30 13944 O 1351.43 -5.45135 1.63757 0
M  V30 13945 N 1352.63 -5.80055 -0.227378 0
M  V30 13946 H 1355.4 -2.32506 1.89106 0
M  V30 13947 H 1352.96 -1.15911 1.13032 0
M  V30 13948 H 1354.95 -4.04684 0.0356968 0
M  V30 13949 H 1353.52 -3.09534 -0.436767 0
M  V30 13950 H 1352.74 -3.37739 2.03288 0
M  V30 13951 H 1354.03 -4.58187 2.21228 0
M  V30 13952 H 1353.43 -5.59992 -0.801601 0
M  V30 13953 H 1351.98 -6.49546 -0.541538 0
M  V30 13954 N 1355.42 -1.03311 -1.19015 0
M  V30 13955 C 1356.35 -0.575655 -2.21853 0
M  V30 13956 C 1357.36 0.350705 -1.58978 0
M  V30 13957 O 1358.55 0.146425 -1.77898 0
M  V30 13958 C 1355.65 0.179949 -3.38422 0
M  V30 13959 C 1354.82 -0.752403 -4.3088 0
M  V30 13960 C 1353.88 -0.0414484 -5.26184 0
M  V30 13961 O 1352.91 -0.669403 -5.6525 0
M  V30 13962 N 1354.11 1.22783 -5.67366 0
M  V30 13963 H 1356.88 -1.46013 -2.61726 0
M  V30 13964 H 1354.44 -0.912655 -1.33724 0
M  V30 13965 H 1356.43 0.66522 -3.99195 0
M  V30 13966 H 1355 0.965879 -2.97304 0
M  V30 13967 H 1354.22 -1.41768 -3.67825 0
M  V30 13968 H 1355.51 -1.38592 -4.89561 0
M  V30 13969 H 1354.91 1.75867 -5.37668 0
M  V30 13970 H 1353.46 1.65752 -6.30372 0
M  V30 13971 N 1356.9 1.35099 -0.81154 0
M  V30 13972 C 1357.81 2.33499 -0.22705 0
M  V30 13973 C 1358.82 1.62095 0.632562 0
M  V30 13974 O 1360 1.93938 0.543147 0
M  V30 13975 C 1357.06 3.41279 0.610687 0
M  V30 13976 C 1356.12 4.2845 -0.269994 0
M  V30 13977 C 1355.36 5.31083 0.527854 0
M  V30 13978 O 1355.58 5.42499 1.76213 0
M  V30 13979 O 1354.51 6.01842 -0.083862 0
M  V30 13980 H 1358.34 2.85294 -1.04119 0
M  V30 13981 H 1355.92 1.37957 -0.573432 0
M  V30 13982 H 1357.81 4.07121 1.08768 0
M  V30 13983 H 1356.48 2.91746 1.40235 0
M  V30 13984 H 1355.39 3.65572 -0.794234 0
M  V30 13985 H 1356.72 4.81394 -1.02572 0
M  V30 13986 N 1358.37 0.56548 1.47106 0
M  V30 13987 C 1359.32 -0.190542 2.31818 0
M  V30 13988 C 1360.32 -0.901279 1.43434 0
M  V30 13989 O 1361.52 -0.821625 1.60154 0
M  V30 13990 H 1357.9 -0.0803183 0.747698 0
M  V30 13991 H 1359.87 0.542999 2.93418 0
M  V30 13992 C 1358.62 -1.20208 3.2626 0
M  V30 13993 H 1357.94 -0.664608 3.94237 0
M  V30 13994 H 1359.38 -1.7018 3.88349 0
M  V30 13995 C 1357.84 -2.25423 2.50372 0
M  V30 13996 O 1358.37 -3.3249 2.25418 0
M  V30 13997 N 1356.57 -1.9957 2.11235 0
M  V30 13998 H 1356.12 -1.12513 2.31729 0
M  V30 13999 H 1356.08 -2.70182 1.60777 0
M  V30 14000 N 1359.85 -1.54672 0.302354 0
M  V30 14001 C 1360.78 -2.2653 -0.566265 0
M  V30 14002 C 1361.76 -1.26532 -1.13682 0
M  V30 14003 O 1362.95 -1.55307 -1.1659 0
M  V30 14004 C 1360.08 -3.00709 -1.73757 0
M  V30 14005 C 1359.03 -4.07865 -1.29731 0
M  V30 14006 C 1358.36 -4.69767 -2.55388 0
M  V30 14007 C 1359.66 -5.20547 -0.427567 0
M  V30 14008 H 1361.35 -2.99382 0.033071 0
M  V30 14009 H 1358.9 -1.4399 0.0173458 0
M  V30 14010 H 1360.85 -3.497 -2.35134 0
M  V30 14011 H 1359.58 -2.25437 -2.36317 0
M  V30 14012 H 1358.23 -3.59726 -0.706586 0
M  V30 14013 H 1357.88 -3.91134 -3.16265 0
M  V30 14014 H 1357.58 -5.42137 -2.26631 0
M  V30 14015 H 1359.11 -5.21521 -3.17566 0
M  V30 14016 H 1360.52 -5.65424 -0.947053 0
M  V30 14017 H 1358.92 -5.99645 -0.233704 0
M  V30 14018 H 1359.99 -4.81805 0.546993 0
M  V30 14019 N 1361.33 -0.0301034 -1.57571 0
M  V30 14020 C 1362.26 0.980187 -2.07183 0
M  V30 14021 C 1363.28 1.2882 -0.995449 0
M  V30 14022 O 1364.46 1.25268 -1.27162 0
M  V30 14023 C 1361.56 2.30734 -2.48224 0
M  V30 14024 C 1360.74 2.18434 -3.78953 0
M  V30 14025 C 1359.8 3.34092 -4.06533 0
M  V30 14026 O 1358.82 3.10934 -4.76769 0
M  V30 14027 N 1360.02 4.57914 -3.56784 0
M  V30 14028 H 1362.79 0.556877 -2.94481 0
M  V30 14029 H 1360.35 0.156632 -1.61141 0
M  V30 14030 H 1362.34 3.06936 -2.63766 0
M  V30 14031 H 1360.91 2.64703 -1.66287 0
M  V30 14032 H 1360.13 1.26953 -3.73198 0
M  V30 14033 H 1361.42 2.07421 -4.64601 0
M  V30 14034 H 1360.82 4.79623 -2.99964 0
M  V30 14035 H 1359.38 5.31281 -3.77603 0
M  V30 14036 N 1362.81 1.55714 0.243056 0
M  V30 14037 C 1364.06 1.76927 0.96849 0
M  V30 14038 C 1364.37 0.594748 1.86339 0
M  V30 14039 O 1365.58 0.689981 2.62586 0
M  V30 14040 C 1364.03 3.13246 1.77214 0
M  V30 14041 C 1363.64 4.38358 0.92444 0
M  V30 14042 C 1365.38 3.43796 2.49007 0
M  V30 14043 C 1363.29 5.65708 1.7242 0
M  V30 14044 H 1362.22 0.659574 0.365346 0
M  V30 14045 H 1364.87 1.8214 0.223026 0
M  V30 14046 H 1363.25 3.02151 2.5597 0
M  V30 14047 H 1364.43 4.60452 0.178936 0
M  V30 14048 H 1362.74 4.15171 0.319653 0
M  V30 14049 H 1365.34 4.3616 3.09303 0
M  V30 14050 H 1365.68 2.65297 3.20817 0
M  V30 14051 H 1366.22 3.56124 1.77259 0
M  V30 14052 H 1362.96 6.47039 1.04978 0
M  V30 14053 H 1362.48 5.4771 2.44488 0
M  V30 14054 H 1364.15 6.05105 2.29036 0
M  V30 14055 N 1364.29 -0.50888 1.49158 0
M  V30 14056 C 1365.53 -1.2635 1.58247 0
M  V30 14057 C 1365.86 -1.92677 0.265654 0
M  V30 14058 O 1365.12 -1.80931 -0.745818 0
M  V30 14059 C 1365.42 -2.35875 2.6851 0
M  V30 14060 C 1365.08 -1.87059 4.10268 0
M  V30 14061 C 1363.74 -1.73464 4.48847 0
M  V30 14062 C 1366.1 -1.50429 4.9902 0
M  V30 14063 C 1363.42 -1.21606 5.73959 0
M  V30 14064 C 1365.78 -1.00026 6.24642 0
M  V30 14065 C 1364.44 -0.850646 6.62058 0
M  V30 14066 H 1363.71 -0.462346 0.579066 0
M  V30 14067 H 1366.36 -0.565528 1.82959 0
M  V30 14068 H 1364.66 -3.11428 2.37739 0
M  V30 14069 H 1366.36 -2.9395 2.72753 0
M  V30 14070 H 1362.95 -1.98597 3.79812 0
M  V30 14071 H 1367.13 -1.59782 4.69876 0
M  V30 14072 H 1362.39 -1.08728 6.01655 0
M  V30 14073 H 1366.56 -0.707608 6.92796 0
M  V30 14074 H 1364.19 -0.446627 7.58887 0
M  V30 14075 N 1365.76 -1.381 -0.759346 0
M  V30 14076 C 1366.99 -1.37213 -1.54855 0
M  V30 14077 C 1367.41 0.0395175 -1.88759 0
M  V30 14078 O 1366.76 1.00462 -1.5236 0
M  V30 14079 C 1366.82 -2.22232 -2.85123 0
M  V30 14080 O 1366.54 -3.57897 -2.52668 0
M  V30 14081 C 1368.04 -2.29461 -3.79292 0
M  V30 14082 H 1365.26 -0.469542 -0.479345 0
M  V30 14083 H 1367.8 -1.81604 -0.940216 0
M  V30 14084 H 1365.96 -1.81317 -3.42349 0
M  V30 14085 H 1366.37 -4.02599 -3.36176 0
M  V30 14086 H 1367.84 -2.93246 -4.67665 0
M  V30 14087 H 1368.32 -1.3066 -4.19315 0
M  V30 14088 H 1368.93 -2.70741 -3.27993 0
M  V30 14089 N 1367.24 0.986894 -1.22875 0
M  V30 14090 C 1368.17 2.08035 -0.961971 0
M  V30 14091 C 1369.19 1.62683 0.0616475 0
M  V30 14092 O 1370.38 1.77659 -0.173094 0
M  V30 14093 C 1367.48 3.36208 -0.426302 0
M  V30 14094 C 1366.65 4.10562 -1.50856 0
M  V30 14095 C 1365.71 5.17014 -0.97891 0
M  V30 14096 O 1364.73 5.44259 -1.66645 0
M  V30 14097 N 1365.94 5.80167 0.196613 0
M  V30 14098 H 1368.7 2.315 -1.90336 0
M  V30 14099 H 1366.26 1.1531 -1.13645 0
M  V30 14100 H 1368.25 4.0466 -0.0571577 0
M  V30 14101 H 1366.82 3.09761 0.420345 0
M  V30 14102 H 1366.04 3.36656 -2.05076 0
M  V30 14103 H 1367.33 4.57007 -2.23655 0
M  V30 14104 H 1366.73 5.60409 0.771892 0
M  V30 14105 H 1365.29 6.49825 0.507083 0
M  V30 14106 N 1368.72 1.0394 1.18466 0
M  V30 14107 C 1369.65 0.650182 2.24265 0
M  V30 14108 C 1370.63 -0.345968 1.66545 0
M  V30 14109 O 1371.82 -0.226348 1.92876 0
M  V30 14110 C 1368.95 0.0110451 3.47298 0
M  V30 14111 C 1367.9 0.930599 4.17761 0
M  V30 14112 C 1367.23 0.156005 5.34472 0
M  V30 14113 C 1368.53 2.24913 4.71393 0
M  V30 14114 H 1370.22 1.53465 2.57078 0
M  V30 14115 H 1367.77 0.739343 1.23571 0
M  V30 14116 H 1369.72 -0.272959 4.20515 0
M  V30 14117 H 1368.44 -0.908288 3.13716 0
M  V30 14118 H 1367.1 1.19897 3.4644 0
M  V30 14119 H 1366.75 -0.765695 4.97138 0
M  V30 14120 H 1366.45 0.768606 5.82551 0
M  V30 14121 H 1367.97 -0.121011 6.1048 0
M  V30 14122 H 1369.39 2.02592 5.36311 0
M  V30 14123 H 1367.79 2.81459 5.30001 0
M  V30 14124 H 1368.86 2.8965 3.88884 0
M  V30 14125 N 1370.2 -1.34667 0.818693 0
M  V30 14126 C 1371.13 -2.28368 0.195126 0
M  V30 14127 C 1372.14 -1.50836 -0.612562 0
M  V30 14128 O 1373.33 -1.72917 -0.442936 0
M  V30 14129 C 1370.43 -3.30601 -0.745411 0
M  V30 14130 C 1369.61 -4.37396 0.0185308 0
M  V30 14131 C 1368.66 -5.19415 -0.842298 0
M  V30 14132 O 1367.69 -5.68467 -0.288821 0
M  V30 14133 N 1368.89 -5.38709 -2.1627 0
M  V30 14134 H 1371.66 -2.8252 1.00013 0
M  V30 14135 H 1369.22 -1.47146 0.675262 0
M  V30 14136 H 1371.21 -3.82367 -1.3258 0
M  V30 14137 H 1369.78 -2.76875 -1.45118 0
M  V30 14138 H 1369 -3.86402 0.780205 0
M  V30 14139 H 1370.29 -5.05877 0.544575 0
M  V30 14140 H 1369.69 -5.00523 -2.63616 0
M  V30 14141 H 1368.24 -5.9361 -2.69204 0
M  V30 14142 N 1371.68 -0.573274 -1.46804 0
M  V30 14143 C 1372.62 0.165358 -2.30207 0
M  V30 14144 C 1373.59 0.89312 -1.40045 0
M  V30 14145 O 1374.78 0.885653 -1.68999 0
M  V30 14146 C 1371.92 1.17915 -3.2433 0
M  V30 14147 C 1371.03 0.455805 -4.29589 0
M  V30 14148 C 1370.17 1.45629 -5.10848 0
M  V30 14149 C 1369.21 0.718822 -6.07865 0
M  V30 14150 N 1368.34 1.66691 -6.82025 0
M  V30 14151 H 1373.18 -0.551947 -2.92844 0
M  V30 14152 H 1370.72 -0.28401 -1.44332 0
M  V30 14153 H 1372.68 1.77969 -3.77337 0
M  V30 14154 H 1371.31 1.86429 -2.63523 0
M  V30 14155 H 1370.36 -0.259584 -3.79513 0
M  V30 14156 H 1371.67 -0.121161 -4.98653 0
M  V30 14157 H 1370.83 2.1299 -5.68084 0
M  V30 14158 H 1369.56 2.06718 -4.41723 0
M  V30 14159 H 1368.57 0.0313773 -5.49791 0
M  V30 14160 H 1369.79 0.113452 -6.79005 0
M  V30 14161 H 1367.74 2.26608 -6.15617 0
M  V30 14162 H 1367.66 1.14251 -7.47317 0
M  V30 14163 H 1368.93 2.33117 -7.43826 0
M  V30 14164 N 1373.15 1.5451 -0.310553 0
M  V30 14165 C 1374.08 2.26827 0.554243 0
M  V30 14166 C 1375.07 1.27133 1.13009 0
M  V30 14167 O 1376.25 1.55923 1.15765 0
M  V30 14168 C 1373.38 3.01626 1.7216 0
M  V30 14169 C 1372.33 4.08547 1.27566 0
M  V30 14170 C 1371.66 4.71115 2.52893 0
M  V30 14171 C 1372.96 5.20766 0.399955 0
M  V30 14172 H 1374.65 2.9936 -0.0489475 0
M  V30 14173 H 1372.2 1.43978 -0.0249817 0
M  V30 14174 H 1374.15 3.50942 2.33276 0
M  V30 14175 H 1372.88 2.26688 2.35118 0
M  V30 14176 H 1371.54 3.60096 0.687499 0
M  V30 14177 H 1371.18 3.92805 3.14186 0
M  V30 14178 H 1370.88 5.43331 2.23752 0
M  V30 14179 H 1372.41 5.23198 3.14796 0
M  V30 14180 H 1373.82 5.65918 0.917054 0
M  V30 14181 H 1372.22 5.9976 0.2019 0
M  V30 14182 H 1373.29 4.81508 -0.572537 0
M  V30 14183 N 1374.63 0.0384594 1.57553 0
M  V30 14184 C 1375.58 -0.958199 2.11946 0
M  V30 14185 C 1376.58 -1.33073 1.04823 0
M  V30 14186 O 1377.78 -1.31187 1.23247 0
M  V30 14187 H 1374.16 -0.326819 0.677269 0
M  V30 14188 H 1376.13 -0.474211 2.94608 0
M  V30 14189 C 1374.88 -2.22821 2.6692 0
M  V30 14190 H 1374.2 -1.95032 3.49002 0
M  V30 14191 H 1375.64 -2.90746 3.08614 0
M  V30 14192 C 1374.1 -2.96429 1.60098 0
M  V30 14193 O 1374.63 -3.88892 1.00628 0
M  V30 14194 N 1372.83 -2.58931 1.3192 0
M  V30 14195 H 1372.38 -1.83818 1.80468 0
M  V30 14196 H 1372.34 -3.0849 0.60674 0
M  V30 14197 N 1376.11 -1.55841 -0.234795 0
M  V30 14198 C 1377.06 -1.91326 -1.29086 0
M  V30 14199 C 1378.03 -0.768868 -1.47233 0
M  V30 14200 O 1379.21 -1.0236 -1.61019 0
M  V30 14201 C 1376.35 -2.22388 -2.6389 0
M  V30 14202 C 1375.47 -3.49693 -2.5365 0
M  V30 14203 C 1374.6 -3.70267 -3.80889 0
M  V30 14204 C 1373.64 -4.91132 -3.65317 0
M  V30 14205 N 1372.78 -5.08163 -4.84474 0
M  V30 14206 H 1377.62 -2.81382 -0.981246 0
M  V30 14207 H 1375.15 -1.3928 -0.47324 0
M  V30 14208 H 1377.11 -2.38404 -3.42373 0
M  V30 14209 H 1375.74 -1.35521 -2.92974 0
M  V30 14210 H 1374.79 -3.41943 -1.66672 0
M  V30 14211 H 1376.11 -4.38326 -2.38059 0
M  V30 14212 H 1375.26 -3.86308 -4.67815 0
M  V30 14213 H 1374 -2.7989 -3.9939 0
M  V30 14214 H 1373 -4.75054 -2.76774 0
M  V30 14215 H 1374.23 -5.8298 -3.48298 0
M  V30 14216 H 1372.18 -4.20726 -5.03314 0
M  V30 14217 H 1372.09 -5.90904 -4.71559 0
M  V30 14218 H 1373.36 -5.28627 -5.72865 0
M  V30 14219 N 1377.59 0.500963 -1.49426 0
M  V30 14220 C 1378.54 1.6025 -1.66098 0
M  V30 14221 C 1379.51 1.58318 -0.502453 0
M  V30 14222 O 1380.69 1.76304 -0.729482 0
M  V30 14223 C 1377.83 2.98396 -1.73361 0
M  V30 14224 C 1376.94 3.10343 -3.00518 0
M  V30 14225 C 1376.08 4.39222 -2.9876 0
M  V30 14226 C 1375.12 4.44803 -4.20496 0
M  V30 14227 N 1374.26 5.6511 -4.16648 0
M  V30 14228 H 1379.1 1.45342 -2.60153 0
M  V30 14229 H 1376.63 0.707147 -1.28988 0
M  V30 14230 H 1378.59 3.78467 -1.75553 0
M  V30 14231 H 1377.22 3.12007 -0.827718 0
M  V30 14232 H 1376.27 2.23336 -3.07937 0
M  V30 14233 H 1377.58 3.10327 -3.90511 0
M  V30 14234 H 1376.74 5.27613 -2.99515 0
M  V30 14235 H 1375.48 4.41804 -2.06545 0
M  V30 14236 H 1374.48 3.54814 -4.19985 0
M  V30 14237 H 1375.71 4.43937 -5.13903 0
M  V30 14238 H 1373.65 5.68533 -3.2727 0
M  V30 14239 H 1373.57 5.6671 -5.00376 0
M  V30 14240 H 1374.84 6.55708 -4.21506 0
M  V30 14241 N 1379.07 1.38501 0.752011 0
M  V30 14242 C 1380 1.38577 1.87933 0
M  V30 14243 C 1380.98 0.251454 1.68231 0
M  V30 14244 O 1382.16 0.45477 1.888 0
M  V30 14245 C 1379.29 1.21164 3.25479 0
M  V30 14246 C 1378.25 2.31816 3.59785 0
M  V30 14247 C 1377.57 1.99508 4.96085 0
M  V30 14248 C 1378.87 3.74082 3.645 0
M  V30 14249 H 1380.57 2.32913 1.88127 0
M  V30 14250 H 1378.11 1.12113 0.903698 0
M  V30 14251 H 1380.07 1.19842 4.04 0
M  V30 14252 H 1378.79 0.232899 3.25769 0
M  V30 14253 H 1377.45 2.32327 2.83584 0
M  V30 14254 H 1377.1 1.00114 4.92936 0
M  V30 14255 H 1376.8 2.73617 5.20007 0
M  V30 14256 H 1378.32 1.99807 5.76983 0
M  V30 14257 H 1379.74 3.75593 4.33131 0
M  V30 14258 H 1378.13 4.47409 3.99931 0
M  V30 14259 H 1379.2 4.06284 2.64692 0
M  V30 14260 N 1380.55 -0.980364 1.23396 0
M  V30 14261 C 1381.46 -2.10688 1.03188 0
M  V30 14262 C 1382.47 -1.73984 -0.0236159 0
M  V30 14263 O 1383.65 -2.00666 0.171841 0
M  V30 14264 C 1380.71 -3.4101 0.625563 0
M  V30 14265 C 1379.77 -3.91739 1.75611 0
M  V30 14266 C 1379.01 -5.15841 1.36908 0
M  V30 14267 O 1379.23 -5.69837 0.253329 0
M  V30 14268 O 1378.16 -5.60638 2.19018 0
M  V30 14269 H 1381.99 -2.30626 1.97599 0
M  V30 14270 H 1379.57 -1.09067 1.02102 0
M  V30 14271 H 1381.46 -4.19402 0.409909 0
M  V30 14272 H 1380.13 -3.22402 -0.28956 0
M  V30 14273 H 1379.04 -3.14464 2.0264 0
M  V30 14274 H 1380.37 -4.14801 2.64955 0
M  V30 14275 N 1382.02 -1.04567 -1.17913 0
M  V30 14276 C 1383.27 -0.750538 -1.87647 0
M  V30 14277 C 1383.59 0.72423 -1.81052 0
M  V30 14278 O 1382.86 1.52292 -1.23223 0
M  V30 14279 H 1381.44 -0.274636 -0.694683 0
M  V30 14280 H 1384.1 -1.32349 -1.43072 0
M  V30 14281 H 1383.2 -1.05987 -2.93553 0
M  V30 14282 N 1383.5 1.34231 -0.825823 0
M  V30 14283 C 1384.75 1.97805 -0.414456 0
M  V30 14284 C 1385.07 1.65786 1.02664 0
M  V30 14285 O 1384.34 0.950069 1.7132 0
M  V30 14286 H 1382.92 0.73173 -0.150265 0
M  V30 14287 H 1385.58 1.63819 -1.05591 0
M  V30 14288 H 1384.68 3.07466 -0.535829 0
M  V30 14289 N 1384.98 0.581051 1.46498 0
M  V30 14290 C 1385.91 -0.19094 2.28403 0
M  V30 14291 C 1386.92 -0.857039 1.38415 0
M  V30 14292 O 1388.11 -0.726881 1.6303 0
M  V30 14293 C 1385.21 -1.28972 3.134 0
M  V30 14294 C 1384.39 -0.715867 4.31502 0
M  V30 14295 C 1383.45 -1.70215 4.97909 0
M  V30 14296 O 1382.47 -1.23885 5.55555 0
M  V30 14297 N 1383.67 -3.0362 4.94768 0
M  V30 14298 H 1386.44 0.511754 2.95298 0
M  V30 14299 H 1384 0.41871 1.56392 0
M  V30 14300 H 1385.99 -1.94877 3.5469 0
M  V30 14301 H 1384.56 -1.8953 2.4859 0
M  V30 14302 H 1383.78 0.120591 3.94016 0
M  V30 14303 H 1385.07 -0.312226 5.07841 0
M  V30 14304 H 1384.47 -3.43885 4.49177 0
M  V30 14305 H 1383.02 -3.65018 5.40005 0
M  V30 14306 N 1386.46 -1.54343 0.318742 0
M  V30 14307 C 1387.39 -2.21652 -0.583351 0
M  V30 14308 C 1388.4 -1.21494 -1.08366 0
M  V30 14309 O 1389.59 -1.4799 -0.998064 0
M  V30 14310 C 1386.69 -2.86349 -1.81266 0
M  V30 14311 C 1385.86 -4.12601 -1.45186 0
M  V30 14312 C 1384.92 -4.60937 -2.53818 0
M  V30 14313 O 1383.95 -5.25731 -2.18164 0
M  V30 14314 N 1385.15 -4.34755 -3.84667 0
M  V30 14315 H 1387.92 -2.99699 -0.00703539 0
M  V30 14316 H 1385.48 -1.61278 0.141728 0
M  V30 14317 H 1387.47 -3.15611 -2.53321 0
M  V30 14318 H 1386.04 -2.12037 -2.29693 0
M  V30 14319 H 1385.26 -3.90157 -0.563143 0
M  V30 14320 H 1386.55 -4.94774 -1.18642 0
M  V30 14321 H 1385.95 -3.82883 -4.16434 0
M  V30 14322 H 1384.5 -4.68683 -4.52967 0
M  V30 14323 N 1387.94 -0.0468143 -1.5753 0
M  V30 14324 C 1389.18 0.628869 -1.92803 0
M  V30 14325 C 1389.51 1.70751 -0.925083 0
M  V30 14326 O 1388.79 1.94437 0.0495821 0
M  V30 14327 C 1389.07 1.22899 -3.38479 0
M  V30 14328 C 1388.93 0.158707 -4.4952 0
M  V30 14329 C 1390.24 2.1419 -3.84461 0
M  V30 14330 H 1387.36 0.227137 -0.701126 0
M  V30 14331 H 1390.01 -0.107689 -1.89695 0
M  V30 14332 H 1388.16 1.85674 -3.41259 0
M  V30 14333 H 1389.83 -0.472963 -4.58869 0
M  V30 14334 H 1388.07 -0.51375 -4.30747 0
M  V30 14335 H 1388.74 0.618545 -5.48523 0
M  V30 14336 H 1391.22 1.61382 -3.8353 0
M  V30 14337 H 1390.09 2.53125 -4.87051 0
M  V30 14338 H 1390.35 3.04024 -3.2097 0
M  V30 14339 N 1389.41 1.55964 0.226527 0
M  V30 14340 C 1390.66 1.78392 0.94977 0
M  V30 14341 C 1390.98 0.614444 1.85066 0
M  V30 14342 O 1390.25 -0.368894 1.92395 0
M  V30 14343 H 1388.83 0.657962 0.353688 0
M  V30 14344 H 1391.5 1.93422 0.239577 0
M  V30 14345 H 1390.59 2.70343 1.55952 0
M  V30 14346 N 1390.89 -0.493031 1.4969 0
M  V30 14347 C 1391.83 -1.61165 1.61558 0
M  V30 14348 C 1392.8 -1.55828 0.464363 0
M  V30 14349 O 1393.99 -1.7577 0.680973 0
M  V30 14350 C 1391.11 -2.997 1.5779 0
M  V30 14351 C 1390.16 -3.2327 2.78207 0
M  V30 14352 S 1390.99 -3.05531 4.39785 0
M  V30 14353 C 1392.15 -4.46447 4.38675 0
M  V30 14354 H 1392.38 -1.50854 2.56185 0
M  V30 14355 H 1389.92 -0.678777 1.38679 0
M  V30 14356 H 1391.87 -3.79579 1.56302 0
M  V30 14357 H 1390.53 -3.07419 0.644379 0
M  V30 14358 H 1389.73 -4.24422 2.71812 0
M  V30 14359 H 1389.33 -2.51126 2.77149 0
M  V30 14360 H 1391.62 -5.38683 4.10886 0
M  V30 14361 H 1392.56 -4.5789 5.40132 0
M  V30 14362 H 1392.97 -4.27499 3.68652 0
M  V30 14363 N 1392.37 -1.38898 -0.744656 0
M  V30 14364 C 1393.32 -1.33342 -1.84943 0
M  V30 14365 C 1394.3 -0.216036 -1.59443 0
M  V30 14366 O 1395.5 -0.452764 -1.71111 0
M  V30 14367 C 1392.63 -1.16966 -3.2276 0
M  V30 14368 C 1391.71 -2.33365 -3.54121 0
M  V30 14369 N 1392.1 -3.58824 -3.56481 0
M  V30 14370 C 1390.4 -2.26112 -3.84434 0
M  V30 14371 C 1391.1 -4.35741 -3.85364 0
M  V30 14372 N 1390.08 -3.65206 -4.02648 0
M  V30 14373 H 1393.88 -2.28321 -1.85059 0
M  V30 14374 H 1391.39 -1.32257 -0.94244 0
M  V30 14375 H 1393.39 -1.11069 -4.01832 0
M  V30 14376 H 1392.05 -0.229288 -3.23889 0
M  V30 14377 H 1393.06 -3.92377 -3.38025 0
M  V30 14378 H 1389.74 -1.40283 -3.93226 0
M  V30 14379 H 1391.13 -5.44445 -3.93738 0
M  V30 14380 N 1393.85 0.973806 -1.23914 0
M  V30 14381 C 1395.07 1.7564 -1.10296 0
M  V30 14382 C 1395.5 1.84984 0.340954 0
M  V30 14383 O 1394.86 1.31629 1.24674 0
M  V30 14384 C 1394.9 3.15809 -1.7406 0
M  V30 14385 O 1394.01 3.99911 -1.00722 0
M  V30 14386 H 1393.35 0.540133 -0.386202 0
M  V30 14387 H 1395.88 1.22197 -1.64101 0
M  V30 14388 H 1395.89 3.66359 -1.79568 0
M  V30 14389 H 1394.56 3.08324 -2.79122 0
M  V30 14390 H 1393.14 3.58405 -1.02956 0
M  V30 14391 N 1395.33 1.05191 1.17357 0
M  V30 14392 C 1396.27 0.652868 2.21374 0
M  V30 14393 C 1397.24 -0.344974 1.62478 0
M  V30 14394 O 1398.43 -0.23639 1.8933 0
M  V30 14395 C 1395.57 0.0337737 3.45083 0
M  V30 14396 C 1394.68 1.08045 4.18271 0
M  V30 14397 C 1393.82 0.428673 5.29468 0
M  V30 14398 C 1392.86 1.45966 5.94441 0
M  V30 14399 N 1391.99 0.832042 6.97152 0
M  V30 14400 H 1396.83 1.54434 2.54861 0
M  V30 14401 H 1394.37 0.772365 1.25192 0
M  V30 14402 H 1396.33 -0.342607 4.15791 0
M  V30 14403 H 1394.96 -0.821159 3.12181 0
M  V30 14404 H 1394.01 1.57466 3.46278 0
M  V30 14405 H 1395.32 1.86305 4.62701 0
M  V30 14406 H 1394.48 -0.00129344 6.067 0
M  V30 14407 H 1393.21 -0.385919 4.86171 0
M  V30 14408 H 1392.22 1.89964 5.1594 0
M  V30 14409 H 1393.44 2.27615 6.39819 0
M  V30 14410 H 1391.39 0.0379612 6.55989 0
M  V30 14411 H 1391.31 1.55219 7.39894 0
M  V30 14412 H 1392.58 0.42685 7.7833 0
M  V30 14413 N 1396.8 -1.33791 0.83293 0
M  V30 14414 C 1398.05 -1.97582 0.42494 0
M  V30 14415 C 1398.37 -1.66328 -1.01784 0
M  V30 14416 O 1397.64 -0.959141 -1.70814 0
M  V30 14417 H 1396.22 -0.730923 0.154143 0
M  V30 14418 H 1398.89 -1.63257 1.06458 0
M  V30 14419 H 1397.98 -3.07177 0.552127 0
M  V30 14420 N 1398.28 -0.588812 -1.46187 0
M  V30 14421 C 1399.51 -0.0825301 -2.06735 0
M  V30 14422 C 1399.93 1.22507 -1.43658 0
M  V30 14423 O 1399.28 1.74203 -0.544022 0
M  V30 14424 C 1399.33 0.083501 -3.61404 0
M  V30 14425 O 1399.05 -1.17235 -4.22123 0
M  V30 14426 C 1400.56 0.623425 -4.38894 0
M  V30 14427 H 1397.78 -0.0602413 -0.66829 0
M  V30 14428 H 1400.32 -0.811215 -1.87722 0
M  V30 14429 H 1398.47 0.762432 -3.79823 0
M  V30 14430 H 1398.89 -0.990047 -5.15071 0
M  V30 14431 H 1400.36 0.688755 -5.47686 0
M  V30 14432 H 1400.84 1.64172 -4.07362 0
M  V30 14433 H 1401.45 -0.0208373 -4.25295 0
M  V30 14434 N 1399.76 1.54172 -0.326923 0
M  V30 14435 C 1400.69 2.21958 0.571588 0
M  V30 14436 C 1401.71 1.22067 1.0772 0
M  V30 14437 O 1402.89 1.48517 0.990202 0
M  V30 14438 C 1399.99 2.87307 1.79744 0
M  V30 14439 C 1399.17 4.13366 1.42995 0
M  V30 14440 C 1398.23 4.62276 2.5137 0
M  V30 14441 O 1397.25 5.2688 2.15373 0
M  V30 14442 N 1398.45 4.36789 3.82355 0
M  V30 14443 H 1401.22 2.99699 -0.00885848 0
M  V30 14444 H 1398.78 1.61201 -0.150279 0
M  V30 14445 H 1400.77 3.1695 2.51644 0
M  V30 14446 H 1399.34 2.13252 2.28566 0
M  V30 14447 H 1398.56 3.9045 0.542444 0
M  V30 14448 H 1399.85 4.95396 1.16017 0
M  V30 14449 H 1399.25 3.85086 4.14397 0
M  V30 14450 H 1397.81 4.71079 4.50475 0
M  V30 14451 N 1401.24 0.0551678 1.57503 0
M  V30 14452 C 1402.47 -0.6272 1.97164 0
M  V30 14453 C 1402.88 -1.64143 0.932876 0
M  V30 14454 O 1402.24 -1.82314 -0.0824465 0
M  V30 14455 C 1402.29 -1.31057 3.36907 0
M  V30 14456 O 1402.01 -0.336951 4.36802 0
M  V30 14457 C 1403.51 -2.08232 3.91349 0
M  V30 14458 H 1400.73 -0.171196 0.648793 0
M  V30 14459 H 1403.28 0.122651 2.04132 0
M  V30 14460 H 1401.43 -2.01162 3.31078 0
M  V30 14461 H 1401.84 -0.825204 5.17968 0
M  V30 14462 H 1403.32 -2.51463 4.91397 0
M  V30 14463 H 1403.8 -2.93212 3.26991 0
M  V30 14464 H 1404.4 -1.43029 4.00528 0
M  V30 14465 N 1402.72 -1.56081 -0.218252 0
M  V30 14466 C 1403.68 -1.91851 -1.25402 0
M  V30 14467 C 1404.68 -0.797399 -1.39636 0
M  V30 14468 O 1405.87 -1.06511 -1.37844 0
M  V30 14469 C 1403 -2.17223 -2.6273 0
M  V30 14470 H 1404.19 -2.84493 -0.948882 0
M  V30 14471 H 1401.75 -1.49414 -0.458809 0
M  V30 14472 H 1402.48 -1.27144 -2.98337 0
M  V30 14473 H 1402.27 -2.98899 -2.53775 0
M  V30 14474 H 1403.76 -2.45981 -3.37466 0
M  V30 14475 N 1404.2 0.485086 -1.49949 0
M  V30 14476 C 1405.14 1.5848 -1.67788 0
M  V30 14477 C 1406.11 1.57776 -0.519216 0
M  V30 14478 O 1407.3 1.75521 -0.748141 0
M  V30 14479 C 1404.44 2.9654 -1.76516 0
M  V30 14480 C 1403.55 3.07139 -3.03792 0
M  V30 14481 C 1402.69 4.36029 -3.03401 0
M  V30 14482 C 1401.72 4.40318 -4.2519 0
M  V30 14483 N 1400.86 5.60659 -4.22618 0
M  V30 14484 H 1405.7 1.42575 -2.6168 0
M  V30 14485 H 1403.24 0.693426 -1.29731 0
M  V30 14486 H 1405.2 3.76583 -1.79557 0
M  V30 14487 H 1403.83 3.11112 -0.860764 0
M  V30 14488 H 1402.88 2.20057 -3.10289 0
M  V30 14489 H 1404.19 3.06167 -3.9378 0
M  V30 14490 H 1403.34 5.24407 -3.05094 0
M  V30 14491 H 1402.08 4.39588 -2.11219 0
M  V30 14492 H 1401.09 3.50339 -4.23725 0
M  V30 14493 H 1402.31 4.38461 -5.18583 0
M  V30 14494 H 1400.26 5.6503 -3.33282 0
M  V30 14495 H 1400.18 5.61371 -5.06359 0
M  V30 14496 H 1401.44 6.51201 -4.28436 0
M  V30 14497 N 1405.67 1.39291 0.737279 0
M  V30 14498 C 1406.58 1.40098 1.88175 0
M  V30 14499 C 1407.6 0.296053 1.71463 0
M  V30 14500 O 1408.78 0.537153 1.94105 0
M  V30 14501 C 1405.84 1.24071 3.2374 0
M  V30 14502 C 1404.9 2.44515 3.52861 0
M  V30 14503 C 1404.13 2.29243 4.81958 0
M  V30 14504 O 1404.36 1.2947 5.55512 0
M  V30 14505 O 1403.29 3.18178 5.10927 0
M  V30 14506 H 1407.12 2.36565 1.90449 0
M  V30 14507 H 1404.7 1.20382 0.884786 0
M  V30 14508 H 1406.58 1.17257 4.04758 0
M  V30 14509 H 1405.26 0.30698 3.22241 0
M  V30 14510 H 1404.17 2.56905 2.71939 0
M  V30 14511 H 1405.5 3.36573 3.59137 0
M  V30 14512 N 1407.15 -0.967221 1.24429 0
M  V30 14513 C 1408.06 -2.09582 1.05417 0
M  V30 14514 C 1409.08 -1.73999 -0.00516127 0
M  V30 14515 O 1410.25 -2.00472 0.193115 0
M  V30 14516 C 1407.32 -3.40327 0.661697 0
M  V30 14517 C 1406.38 -3.89854 1.79756 0
M  V30 14518 C 1405.61 -5.1436 1.42372 0
M  V30 14519 O 1405.84 -5.69536 0.313754 0
M  V30 14520 O 1404.77 -5.58283 2.24952 0
M  V30 14521 H 1408.6 -2.28517 2.00034 0
M  V30 14522 H 1406.18 -1.07978 1.03253 0
M  V30 14523 H 1408.06 -4.18943 0.454369 0
M  V30 14524 H 1406.74 -3.22691 -0.255348 0
M  V30 14525 H 1405.64 -3.12297 2.05964 0
M  V30 14526 H 1406.98 -4.11967 2.69339 0
M  V30 14527 N 1408.63 -1.05812 -1.16797 0
M  V30 14528 C 1409.56 -0.608879 -2.19927 0
M  V30 14529 C 1410.54 0.365798 -1.58432 0
M  V30 14530 O 1411.72 0.27593 -1.8647 0
M  V30 14531 C 1408.85 0.108061 -3.38528 0
M  V30 14532 C 1407.9 -0.822607 -4.18492 0
M  V30 14533 S 1408.73 -2.3152 -4.82865 0
M  V30 14534 C 1409.89 -1.60961 -6.04849 0
M  V30 14535 H 1410.12 -1.48261 -2.57693 0
M  V30 14536 H 1407.65 -0.870648 -1.27511 0
M  V30 14537 H 1409.61 0.515496 -4.0725 0
M  V30 14538 H 1408.27 0.95792 -2.99137 0
M  V30 14539 H 1407.46 -0.267448 -5.0329 0
M  V30 14540 H 1407.07 -1.1697 -3.55238 0
M  V30 14541 H 1409.36 -0.912454 -6.71327 0
M  V30 14542 H 1410.3 -2.43531 -6.64905 0
M  V30 14543 H 1410.71 -1.09431 -5.53792 0
M  V30 14544 N 1410.11 1.33347 -0.840014 0
M  V30 14545 C 1411.02 2.32965 -0.276527 0
M  V30 14546 C 1412.03 1.634 0.598037 0
M  V30 14547 O 1413.21 1.95046 0.501888 0
M  V30 14548 C 1410.27 3.42498 0.53816 0
M  V30 14549 C 1409.34 4.27781 -0.360814 0
M  V30 14550 C 1408.57 5.32083 0.415085 0
M  V30 14551 O 1408.79 5.46115 1.64666 0
M  V30 14552 O 1407.73 6.01528 -0.211503 0
M  V30 14553 H 1411.55 2.83022 -1.10147 0
M  V30 14554 H 1409.14 1.3671 -0.602566 0
M  V30 14555 H 1411.02 4.09336 1.00108 0
M  V30 14556 H 1409.69 2.94655 1.34015 0
M  V30 14557 H 1408.6 3.63805 -0.871598 0
M  V30 14558 H 1409.93 4.7911 -1.1276 0
M  V30 14559 N 1411.59 0.596556 1.45873 0
M  V30 14560 C 1412.52 -0.177354 2.2751 0
M  V30 14561 C 1413.5 -0.883999 1.36471 0
M  V30 14562 O 1414.68 -0.895098 1.65892 0
M  V30 14563 C 1411.81 -1.25567 3.14564 0
M  V30 14564 C 1410.85 -0.653363 4.21466 0
M  V30 14565 S 1411.69 0.53036 5.32867 0
M  V30 14566 C 1412.84 -0.548817 6.23489 0
M  V30 14567 H 1413.08 0.515289 2.928 0
M  V30 14568 H 1410.61 0.383791 1.49554 0
M  V30 14569 H 1412.57 -1.87298 3.6528 0
M  V30 14570 H 1411.23 -1.92033 2.4856 0
M  V30 14571 H 1410.42 -1.46435 4.82258 0
M  V30 14572 H 1410.02 -0.111425 3.73834 0
M  V30 14573 H 1412.31 -1.43085 6.62218 0
M  V30 14574 H 1413.26 0.0226785 7.08096 0
M  V30 14575 H 1413.67 -0.859188 5.57923 0
M  V30 14576 N 1413.06 -1.53996 0.335095 0
M  V30 14577 C 1414.34 -1.92984 -0.318848 0
M  V30 14578 C 1414.72 -1.26585 -1.68936 0
M  V30 14579 O 1414.07 -0.413702 -2.24724 0
M  V30 14580 C 1414.28 -3.46705 -0.399568 0
M  V30 14581 C 1415.63 -4.19527 -0.654411 0
M  V30 14582 O 1416.65 -3.52923 -0.482026 0
M  V30 14583 O 1415.51 -5.37499 -0.987756 0
M  V30 14584 H 1412.6 -0.806202 -0.1843 0
M  V30 14585 H 1415.15 -1.6526 0.385653 0
M  V30 14586 H 1413.92 -3.87235 0.56253 0
M  V30 14587 H 1413.54 -3.8057 -1.15119 0
M  V30 14588 N 1414.54 -0.0635198 -1.57472 0
M  V30 14589 C 1415.95 0.470372 -1.80678 0
M  V30 14590 C 1416.3 1.70158 -0.976771 0
M  V30 14591 O 1415.43 2.15502 -0.196893 0
M  V30 14592 C 1416.02 0.860129 -3.277 0
M  V30 14593 C 1414.58 1.33893 -3.51781 0
M  V30 14594 C 1413.73 0.320078 -2.75447 0
M  V30 14595 H 1416.68 -0.289295 -1.56041 0
M  V30 14596 H 1416.7 1.72216 -3.39296 0
M  V30 14597 H 1416.21 -0.0361525 -3.88083 0
M  V30 14598 H 1414.31 2.25399 -2.96692 0
M  V30 14599 H 1414.43 1.32257 -4.60483 0
M  V30 14600 H 1412.79 0.795601 -2.41955 0
M  V30 14601 H 1413.57 -0.568332 -3.38563 0
M  V30 14602 N 1416.02 1.56195 0.209972 0
M  V30 14603 C 1416.97 1.93355 1.26026 0
M  V30 14604 C 1417.94 0.792195 1.45991 0
M  V30 14605 O 1419.12 1.04909 1.5937 0
M  V30 14606 C 1416.26 2.26558 2.60318 0
M  V30 14607 C 1415.37 3.53685 2.48055 0
M  V30 14608 C 1414.51 3.76279 3.7495 0
M  V30 14609 C 1413.55 4.96881 3.57457 0
M  V30 14610 N 1412.69 5.15806 4.76328 0
M  V30 14611 H 1417.53 2.82907 0.936357 0
M  V30 14612 H 1415.06 1.40015 0.451022 0
M  V30 14613 H 1417.02 2.43821 3.38537 0
M  V30 14614 H 1415.65 1.40165 2.90781 0
M  V30 14615 H 1414.7 3.44551 1.61211 0
M  V30 14616 H 1416.01 4.42057 2.31056 0
M  V30 14617 H 1415.17 3.93702 4.6161 0
M  V30 14618 H 1413.91 2.86209 3.94887 0
M  V30 14619 H 1412.91 4.79397 2.69181 0
M  V30 14620 H 1414.14 5.88447 3.38979 0
M  V30 14621 H 1412.08 4.28681 4.96557 0
M  V30 14622 H 1412 5.98332 4.62099 0
M  V30 14623 H 1413.27 5.37674 5.64382 0
M  V30 14624 N 1417.5 -0.477127 1.50204 0
M  V30 14625 C 1418.91 -1.05815 1.53819 0
M  V30 14626 C 1419.26 -1.93264 0.338169 0
M  V30 14627 O 1418.38 -2.09305 -0.549576 0
M  V30 14628 C 1418.98 -1.92577 2.78746 0
M  V30 14629 C 1417.54 -2.45799 2.85061 0
M  V30 14630 C 1416.69 -1.23994 2.48034 0
M  V30 14631 H 1419.64 -0.259998 1.56556 0
M  V30 14632 H 1419.66 -2.7757 2.6026 0
M  V30 14633 H 1419.17 -1.28904 3.66068 0
M  V30 14634 H 1417.27 -3.13042 2.02077 0
M  V30 14635 H 1417.38 -2.81318 3.8781 0
M  V30 14636 H 1415.75 -1.5728 2.00338 0
M  V30 14637 H 1416.53 -0.619917 3.37657 0
M  V30 14638 N 1418.98 -1.3968 -0.729882 0
M  V30 14639 C 1420.25 -1.27689 -1.48172 0
M  V30 14640 C 1420.63 0.111239 -2.10807 0
M  V30 14641 O 1419.98 1.12289 -1.99006 0
M  V30 14642 C 1420.19 -2.40505 -2.529 0
M  V30 14643 C 1421.54 -2.80064 -3.19138 0
M  V30 14644 O 1422.56 -2.39992 -2.63215 0
M  V30 14645 O 1421.42 -3.49248 -4.20342 0
M  V30 14646 H 1418.52 -0.500674 -0.658221 0
M  V30 14647 H 1421.06 -1.51566 -0.763272 0
M  V30 14648 H 1419.83 -3.33282 -2.05033 0
M  V30 14649 H 1419.46 -2.1832 -3.32298 0
M  V30 14650 N 1420.45 0.960609 -1.2494 0
M  V30 14651 C 1421.38 2.074 -1.07274 0
M  V30 14652 C 1422.37 1.70092 0.0164365 0
M  V30 14653 O 1423.55 1.93604 -0.151975 0
M  V30 14654 C 1420.68 3.40491 -0.684317 0
M  V30 14655 C 1419.63 3.91784 -1.72306 0
M  V30 14656 C 1418.96 5.21301 -1.18949 0
M  V30 14657 C 1420.26 4.18829 -3.12056 0
M  V30 14658 H 1421.95 2.22438 -2.00404 0
M  V30 14659 H 1419.5 1.06888 -0.964937 0
M  V30 14660 H 1421.45 4.17826 -0.547686 0
M  V30 14661 H 1420.18 3.25374 0.282687 0
M  V30 14662 H 1418.84 3.16613 -1.84802 0
M  V30 14663 H 1418.48 5.02549 -0.212892 0
M  V30 14664 H 1418.18 5.56588 -1.8837 0
M  V30 14665 H 1419.71 6.01238 -1.06513 0
M  V30 14666 H 1421.12 4.86844 -3.02748 0
M  V30 14667 H 1419.52 4.6536 -3.78894 0
M  V30 14668 H 1420.59 3.25333 -3.59564 0
M  V30 14669 N 1421.93 1.0643 1.16234 0
M  V30 14670 C 1423.21 0.695256 1.82827 0
M  V30 14671 C 1423.59 -0.823242 1.94386 0
M  V30 14672 O 1422.94 -1.73406 1.48804 0
M  V30 14673 C 1423.15 1.3988 3.19741 0
M  V30 14674 C 1424.5 1.54489 3.95498 0
M  V30 14675 O 1425.52 1.35882 3.29264 0
M  V30 14676 O 1424.38 1.85027 5.14225 0
M  V30 14677 H 1421.47 0.246285 0.789476 0
M  V30 14678 H 1424.02 1.16466 1.23426 0
M  V30 14679 H 1422.79 2.43419 3.06371 0
M  V30 14680 H 1422.41 0.91957 3.8682 0
M  V30 14681 N 1423.41 -1.329 0.847073 0
M  V30 14682 C 1424.64 -2.02244 0.459588 0
M  V30 14683 C 1425.06 -1.63279 -0.933897 0
M  V30 14684 O 1424.42 -0.829551 -1.61208 0
M  V30 14685 C 1424.47 -3.55616 0.59745 0
M  V30 14686 O 1423.57 -4.1071 -0.372919 0
M  V30 14687 H 1422.91 -0.637504 0.1857 0
M  V30 14688 H 1425.44 -1.69617 1.14417 0
M  V30 14689 H 1425.45 -4.05141 0.482145 0
M  V30 14690 H 1424.13 -3.8332 1.61365 0
M  V30 14691 H 1422.7 -3.72283 -0.214487 0
M  V30 14692 N 1424.89 -0.604284 -1.45555 0
M  V30 14693 C 1426.17 -0.0303285 -1.95576 0
M  V30 14694 C 1426.55 1.43661 -1.54676 0
M  V30 14695 O 1425.89 2.13747 -0.807731 0
M  V30 14696 C 1426.1 -0.22497 -3.48274 0
M  V30 14697 C 1427.45 -0.104042 -4.24473 0
M  V30 14698 O 1428.48 -0.154919 -3.55863 0
M  V30 14699 O 1427.33 0.0136297 -5.46498 0
M  V30 14700 H 1424.43 0.0376106 -0.826144 0
M  V30 14701 H 1426.97 -0.674114 -1.55736 0
M  V30 14702 H 1425.75 -1.24391 -3.71002 0
M  V30 14703 H 1425.37 0.454234 -3.94997 0
M  V30 14704 N 1426.37 1.53816 -0.343257 0
M  V30 14705 C 1427.59 2.05796 0.257418 0
M  V30 14706 C 1428.02 1.2166 1.43459 0
M  V30 14707 O 1427.37 0.230278 1.79832 0
M  V30 14708 C 1427.42 3.54681 0.65068 0
M  V30 14709 O 1426.53 3.73394 1.75074 0
M  V30 14710 H 1425.87 0.662622 0.042757 0
M  V30 14711 H 1428.4 1.98462 -0.497386 0
M  V30 14712 H 1428.41 3.97308 0.927914 0
M  V30 14713 H 1427.08 4.15368 -0.210199 0
M  V30 14714 H 1425.66 3.42669 1.4708 0
M  V30 14715 N 1427.84 0.0718701 1.57436 0
M  V30 14716 C 1429.09 -0.592107 1.94591 0
M  V30 14717 C 1429.45 -1.67215 0.951678 0
M  V30 14718 O 1428.74 -1.91582 -0.0260281 0
M  V30 14719 C 1428.93 -1.21336 3.36173 0
M  V30 14720 C 1428.76 -0.195025 4.49277 0
M  V30 14721 C 1427.53 0.220335 5.04819 0
M  V30 14722 C 1429.73 0.567752 5.11157 0
M  V30 14723 N 1427.71 1.22937 6.01465 0
M  V30 14724 C 1429.08 1.42926 6.03301 0
M  V30 14725 C 1431.14 0.623812 4.93977 0
M  V30 14726 C 1429.84 2.34185 6.8011 0
M  V30 14727 C 1431.87 1.52391 5.71429 0
M  V30 14728 C 1431.23 2.3731 6.63222 0
M  V30 14729 H 1427.33 -0.187692 0.759141 0
M  V30 14730 H 1429.91 0.149031 1.94129 0
M  V30 14731 H 1428.08 -1.92442 3.37373 0
M  V30 14732 H 1429.81 -1.83781 3.60564 0
M  V30 14733 H 1426.57 -0.162798 4.7332 0
M  V30 14734 H 1426.99 1.7314 6.54486 0
M  V30 14735 H 1431.64 -0.0185243 4.22796 0
M  V30 14736 H 1429.35 2.99455 7.50568 0
M  V30 14737 H 1432.94 1.57212 5.60157 0
M  V30 14738 H 1431.82 3.05829 7.22107 0
M  V30 14739 N 1429.32 -1.56304 -0.201686 0
M  V30 14740 C 1430.56 -1.82021 -0.929934 0
M  V30 14741 C 1430.93 -0.648382 -1.80721 0
M  V30 14742 O 1432.13 -0.785292 -2.57073 0
M  V30 14743 C 1430.4 -3.12731 -1.73014 0
M  V30 14744 S 1431.96 -3.59831 -2.51131 0
M  V30 14745 H 1428.78 -0.638874 -0.312027 0
M  V30 14746 H 1431.38 -1.94536 -0.193861 0
M  V30 14747 H 1430.08 -3.96039 -1.07616 0
M  V30 14748 H 1429.61 -3.03076 -2.50816 0
M  V30 14749 H 1431.63 -3.24744 -3.75174 0
M  V30 14750 N 1430.8 0.469154 -1.50455 0
M  V30 14751 C 1431.73 1.57493 -1.7239 0
M  V30 14752 C 1432.71 1.60161 -0.572915 0
M  V30 14753 O 1433.9 1.76397 -0.812259 0
M  V30 14754 C 1431.03 2.95804 -1.81981 0
M  V30 14755 C 1429.98 3.08001 -2.97185 0
M  V30 14756 C 1429.31 4.4798 -2.91922 0
M  V30 14757 C 1430.61 2.85039 -4.37665 0
M  V30 14758 H 1432.3 1.39389 -2.64974 0
M  V30 14759 H 1429.85 0.669133 -1.27509 0
M  V30 14760 H 1431.8 3.73091 -1.95911 0
M  V30 14761 H 1430.52 3.15068 -0.86021 0
M  V30 14762 H 1429.18 2.33148 -2.82909 0
M  V30 14763 H 1428.83 4.64165 -1.93803 0
M  V30 14764 H 1428.53 4.57076 -3.69263 0
M  V30 14765 H 1430.05 5.27284 -3.07903 0
M  V30 14766 H 1431.47 3.52074 -4.52456 0
M  V30 14767 H 1429.87 3.05578 -5.16471 0
M  V30 14768 H 1430.94 1.8088 -4.499 0
M  V30 14769 N 1432.28 1.40065 0.722464 0
M  V30 14770 C 1433.21 1.42532 1.84951 0
M  V30 14771 C 1434.19 0.287082 1.6766 0
M  V30 14772 O 1435.37 0.494715 1.87793 0
M  V30 14773 C 1432.5 1.28041 3.22836 0
M  V30 14774 C 1431.46 2.39396 3.54787 0
M  V30 14775 C 1430.78 2.09986 4.91742 0
M  V30 14776 C 1432.08 3.81729 3.56483 0
M  V30 14777 H 1433.78 2.36851 1.83144 0
M  V30 14778 H 1431.32 1.14005 0.879714 0
M  V30 14779 H 1433.28 1.28385 4.01367 0
M  V30 14780 H 1432 0.301947 3.25201 0
M  V30 14781 H 1430.66 2.3829 2.78592 0
M  V30 14782 H 1430.31 1.10547 4.90702 0
M  V30 14783 H 1430.01 2.84586 5.14086 0
M  V30 14784 H 1431.53 2.12 5.72615 0
M  V30 14785 H 1432.95 3.84696 4.25067 0
M  V30 14786 H 1431.34 4.55791 3.90351 0
M  V30 14787 H 1432.41 4.11807 2.56014 0
M  V30 14788 N 1433.76 -0.95397 1.25448 0
M  V30 14789 C 1435.01 -1.6953 1.10018 0
M  V30 14790 C 1435.33 -1.9166 -0.359385 0
M  V30 14791 O 1434.6 -1.50417 -1.25506 0
M  V30 14792 H 1433.18 -0.628238 0.404136 0
M  V30 14793 H 1435.84 -1.14691 1.57581 0
M  V30 14794 H 1434.93 -2.67427 1.60901 0
M  V30 14795 N 1435.24 -1.07045 -1.15668 0
M  V30 14796 C 1436.46 -0.812746 -1.90268 0
M  V30 14797 C 1436.88 0.633722 -1.77847 0
M  V30 14798 O 1436.24 1.43444 -1.12828 0
M  V30 14799 C 1436.29 -1.20793 -3.40722 0
M  V30 14800 O 1436.01 -2.59764 -3.52781 0
M  V30 14801 C 1437.51 -0.979074 -4.32353 0
M  V30 14802 H 1434.73 -0.294093 -0.603117 0
M  V30 14803 H 1437.27 -1.42609 -1.46571 0
M  V30 14804 H 1435.43 -0.638975 -3.82094 0
M  V30 14805 H 1435.84 -2.75801 -4.46133 0
M  V30 14806 H 1437.32 -1.30513 -5.36349 0
M  V30 14807 H 1437.79 0.0847752 -4.39118 0
M  V30 14808 H 1438.4 -1.53278 -3.96719 0
M  V30 14809 N 1436.71 1.32449 -0.85411 0
M  V30 14810 C 1437.99 1.91902 -0.378533 0
M  V30 14811 C 1438.37 1.77811 1.13782 0
M  V30 14812 O 1437.72 1.17588 1.95922 0
M  V30 14813 C 1437.93 3.38683 -0.842299 0
M  V30 14814 C 1439.28 4.15817 -0.859161 0
M  V30 14815 O 1440.3 3.47399 -0.786901 0
M  V30 14816 O 1439.16 5.37985 -0.960933 0
M  V30 14817 H 1436.25 0.819614 -0.110284 0
M  V30 14818 H 1438.8 1.41222 -0.940974 0
M  V30 14819 H 1437.57 3.4288 -1.88544 0
M  V30 14820 H 1437.19 3.96767 -0.257278 0
M  V30 14821 N 1438.19 0.611994 1.45232 0
M  V30 14822 C 1439.42 0.113618 2.07089 0
M  V30 14823 C 1439.84 -1.1947 1.45288 0
M  V30 14824 O 1439.2 -1.72845 0.547207 0
M  V30 14825 C 1439.25 -0.00789978 3.60599 0
M  V30 14826 O 1438.35 -1.05697 3.98625 0
M  V30 14827 H 1437.69 0.076066 0.659629 0
M  V30 14828 H 1440.22 0.843253 1.86415 0
M  V30 14829 H 1440.23 -0.204692 4.07486 0
M  V30 14830 H 1438.91 0.947386 4.04966 0
M  V30 14831 H 1437.48 -0.836291 3.63401 0
M  V30 14832 N 1439.67 -1.53632 0.351409 0
M  V30 14833 C 1440.91 -2.02951 -0.242935 0
M  V30 14834 C 1441.27 -1.23346 -1.47138 0
M  V30 14835 O 1442.47 -1.62602 -2.14042 0
M  V30 14836 C 1440.75 -3.53272 -0.541633 0
M  V30 14837 S 1442.3 -4.24485 -1.11167 0
M  V30 14838 H 1439.12 -0.707367 -0.071784 0
M  V30 14839 H 1441.72 -1.89234 0.490993 0
M  V30 14840 H 1440.43 -4.08817 0.360137 0
M  V30 14841 H 1439.96 -3.71124 -1.30502 0
M  V30 14842 H 1441.97 -4.34469 -2.39689 0
M  V30 14843 N 1441.15 -0.0802183 -1.57396 0
M  V30 14844 C 1442.56 0.276428 -1.57188 0
M  V30 14845 C 1442.76 1.69456 -1.09027 0
M  V30 14846 O 1441.82 2.40792 -0.75997 0
M  V30 14847 C 1443.13 0.0784079 -3.00598 0
M  V30 14848 C 1444.68 0.1473 -3.12653 0
M  V30 14849 C 1445.16 -0.0225423 -4.57994 0
M  V30 14850 N 1446.65 0.0327854 -4.63188 0
M  V30 14851 C 1447.38 -0.0740922 -5.73352 0
M  V30 14852 N 1446.88 -0.234966 -6.92401 0
M  V30 14853 N 1448.67 -0.0164241 -5.62098 0
M  V30 14854 H 1440.82 -1.00695 -1.87014 0
M  V30 14855 H 1443.08 -0.393402 -0.862519 0
M  V30 14856 H 1442.79 -0.900488 -3.39977 0
M  V30 14857 H 1442.66 0.82713 -3.6802 0
M  V30 14858 H 1445.05 1.11669 -2.73156 0
M  V30 14859 H 1445.13 -0.632666 -2.47853 0
M  V30 14860 H 1444.78 -0.988733 -4.98183 0
M  V30 14861 H 1444.71 0.776933 -5.20837 0
M  V30 14862 H 1447.2 0.15519 -3.77581 0
M  V30 14863 H 1447.51 -0.308435 -7.72184 0
M  V30 14864 H 1445.86 -0.270439 -6.94474 0
M  V30 14865 H 1449.05 0.108019 -4.67975 0
M  V30 14866 H 1449.22 -0.10317 -6.47918 0
M  V30 14867 N 1442.63 1.56409 0.193394 0
M  V30 14868 C 1444.04 1.70624 0.757915 0
M  V30 14869 C 1444.39 0.687074 1.83776 0
M  V30 14870 O 1443.51 -0.15616 2.15836 0
M  V30 14871 C 1444.11 3.09352 1.38156 0
M  V30 14872 C 1442.67 3.25326 1.89315 0
M  V30 14873 C 1441.81 2.66576 0.763727 0
M  V30 14874 H 1444.76 1.58668 -0.0317034 0
M  V30 14875 H 1444.79 3.06776 2.25098 0
M  V30 14876 H 1444.3 3.83506 0.595398 0
M  V30 14877 H 1442.4 2.5609 2.70644 0
M  V30 14878 H 1442.51 4.32848 2.05376 0
M  V30 14879 H 1440.88 2.25797 1.17846 0
M  V30 14880 H 1441.66 3.43298 -0.0102243 0
M  V30 14881 N 1444.1 -0.461169 1.50702 0
M  V30 14882 C 1445.33 -1.24019 1.66235 0
M  V30 14883 C 1445.75 -1.84827 0.349388 0
M  V30 14884 O 1445.11 -1.67743 -0.687888 0
M  V30 14885 C 1445.16 -2.31743 2.76274 0
M  V30 14886 O 1444.26 -3.3664 2.38217 0
M  V30 14887 H 1443.6 -0.364424 0.55506 0
M  V30 14888 H 1446.13 -0.547636 1.97135 0
M  V30 14889 H 1446.14 -2.76902 2.99649 0
M  V30 14890 H 1444.82 -1.86858 3.7156 0
M  V30 14891 H 1443.4 -2.97123 2.25327 0
M  V30 14892 N 1445.58 -1.40446 -0.715026 0
M  V30 14893 C 1446.51 -1.43511 -1.84193 0
M  V30 14894 C 1447.49 -0.295969 -1.67505 0
M  V30 14895 O 1448.68 -0.504667 -1.87528 0
M  V30 14896 C 1445.81 -1.29751 -3.22152 0
M  V30 14897 C 1444.76 -2.41274 -3.53512 0
M  V30 14898 C 1444.09 -2.12591 -4.90621 0
M  V30 14899 C 1445.39 -3.83614 -3.54454 0
M  V30 14900 H 1447.08 -2.37819 -1.81885 0
M  V30 14901 H 1444.63 -1.14469 -0.873655 0
M  V30 14902 H 1446.58 -1.30511 -4.0068 0
M  V30 14903 H 1445.3 -0.319189 -3.25037 0
M  V30 14904 H 1443.96 -2.39764 -2.77324 0
M  V30 14905 H 1443.61 -1.13148 -4.90109 0
M  V30 14906 H 1443.31 -2.87308 -5.1257 0
M  V30 14907 H 1444.84 -2.15034 -5.71483 0
M  V30 14908 H 1446.25 -3.86945 -4.23021 0
M  V30 14909 H 1444.65 -4.57855 -3.87929 0
M  V30 14910 H 1445.72 -4.13159 -2.53827 0
M  V30 14911 O 1447.1 0.856651 -1.36908 0
M  V30 14912 H 1447.79 1.49676 -1.22951 0
M  V30 END ATOM
M  V30 BEGIN BOND
M  V30 END BOND
M  V30 END CTAB
M  END
$$$$
