drugbank_target|Q8TDS4 Hydroxycarboxylic acid receptor 2 (DB00257; DB00627; DB08949)
 OpenBabel12092119363D

  0  0  0     0  0            999 V3000
M  V30 BEGIN CTAB
M  V30 COUNTS 5941 6027 0 0 0
M  V30 BEGIN ATOM
M  V30 1 H -0.908 1.98254 -0.117106 0
M  V30 2 N 0 1.576 0 0
M  V30 3 C 0.933 2.03868 1.02534 0
M  V30 4 C 1.911 0.928543 1.3348 0
M  V30 5 O 3.095 1.19667 1.45644 0
M  V30 6 C 0.222 2.43627 2.35294 0
M  V30 7 C -0.732 3.65373 2.2001 0
M  V30 8 S 0.101 5.13292 1.52614 0
M  V30 9 C 1.257 5.56322 2.86805 0
M  V30 10 H 1.49 2.90518 0.631377 0
M  V30 11 H -0.977 1.52953 0.210867 0
M  V30 12 H 0.981 2.67203 3.11629 0
M  V30 13 H -0.358 1.57376 2.7183 0
M  V30 14 H -1.165 3.90944 3.18086 0
M  V30 15 H -1.563 3.418 1.51819 0
M  V30 16 H 0.729 5.58782 3.83104 0
M  V30 17 H 1.672 6.56266 2.65933 0
M  V30 18 H 2.08 4.83886 2.90714 0
M  V30 19 N 1.4781 -0.272755 1.55222 0
M  V30 20 C 2.4261 -1.35705 1.88909 0
M  V30 21 C 3.4201 -1.5112 0.765456 0
M  V30 22 O 4.6261 -1.52901 0.949802 0
M  V30 23 H 1.0011 -0.453868 0.59959 0
M  V30 24 H 2.9721 -1.04544 2.79487 0
M  V30 25 C 1.7211 -2.71049 2.17779 0
M  V30 26 H 1.0441 -2.59979 3.03728 0
M  V30 27 H 2.4841 -3.45858 2.45272 0
M  V30 28 C 0.9431 -3.22165 0.985473 0
M  V30 29 O 1.4731 -4.01096 0.220233 0
M  V30 30 N -0.3209 -2.7985 0.783108 0
M  V30 31 H -0.7739 -2.15775 1.40708 0
M  V30 32 H -0.8159 -3.14397 -0.0130392 0
M  V30 33 N 2.9562 -1.48159 -0.537278 0
M  V30 34 C 4.3722 -1.34118 -0.865129 0
M  V30 35 C 4.5722 -0.346678 -1.98495 0
M  V30 36 O 3.6282 0.234715 -2.51407 0
M  V30 37 C 4.9412 -2.73963 -1.23954 0
M  V30 38 C 6.4892 -2.82397 -1.34984 0
M  V30 39 C 6.9642 -4.22928 -1.75772 0
M  V30 40 N 8.4552 -4.25566 -1.82887 0
M  V30 41 C 9.1902 -5.31235 -2.15817 0
M  V30 42 N 8.6862 -6.47189 -2.47222 0
M  V30 43 N 10.4792 -5.18624 -2.16761 0
M  V30 44 H 2.6302 -2.1144 0.201715 0
M  V30 45 H 4.8932 -0.947598 0.0275949 0
M  V30 46 H 4.5992 -3.48264 -0.490381 0
M  V30 47 H 4.4732 -3.0702 -2.19132 0
M  V30 48 H 6.8602 -2.08356 -2.08978 0
M  V30 49 H 6.9412 -2.5297 -0.379448 0
M  V30 50 H 6.5852 -4.97482 -1.02341 0
M  V30 51 H 6.5152 -4.49794 -2.73848 0
M  V30 52 H 9.0062 -3.41924 -1.60924 0
M  V30 53 H 9.3192 -7.23564 -2.71433 0
M  V30 54 H 7.6642 -6.50476 -2.44757 0
M  V30 55 H 10.8552 -4.27056 -1.91679 0
M  V30 56 H 11.0282 -6.01078 -2.42093 0
M  V30 57 N 4.4343 0.785586 -1.36625 0
M  V30 58 C 5.3843 1.88822 -1.27789 0
M  V30 59 C 6.3683 1.60014 -0.168579 0
M  V30 60 O 7.5603 1.72381 -0.401737 0
M  V30 61 C 4.6893 3.26092 -1.07327 0
M  V30 62 C 3.7753 3.60897 -2.22743 0
M  V30 63 N 4.1663 3.66982 -3.48077 0
M  V30 64 C 2.4643 3.90981 -2.14593 0
M  V30 65 C 3.1653 3.98137 -4.24101 0
M  V30 66 N 2.1413 4.13319 -3.53084 0
M  V30 67 H 5.9433 1.91759 -2.22723 0
M  V30 68 H 3.4573 0.981311 -1.29399 0
M  V30 69 H 5.4543 4.04954 -0.990842 0
M  V30 70 H 4.1143 3.24428 -0.132977 0
M  V30 71 H 5.1253 3.49531 -3.82163 0
M  V30 72 H 1.8023 3.9722 -1.2854 0
M  V30 73 H 3.1923 4.09737 -5.32509 0
M  V30 74 N 5.9124 1.20967 1.01018 0
M  V30 75 C 6.8624 0.93182 2.08089 0
M  V30 76 C 7.8464 -0.110898 1.60517 0
M  V30 77 O 9.0384 0.0973392 1.76732 0
M  V30 78 C 6.1674 0.492719 3.39746 0
M  V30 79 C 5.2534 1.56922 3.94 0
M  V30 80 N 5.6444 2.79312 4.21686 0
M  V30 81 C 3.9424 1.43688 4.2222 0
M  V30 82 C 4.6434 3.48797 4.65527 0
M  V30 83 N 3.6194 2.76224 4.68189 0
M  V30 84 H 7.4214 1.86175 2.27412 0
M  V30 85 H 4.9354 1.10463 1.19045 0
M  V30 86 H 6.9324 0.275044 4.15992 0
M  V30 87 H 5.5924 -0.430509 3.21833 0
M  V30 88 H 6.6034 3.15903 4.10397 0
M  V30 89 H 3.2804 0.578548 4.13472 0
M  V30 90 H 4.6704 4.53561 4.95714 0
M  V30 91 N 7.3905 -1.2043 1.01659 0
M  V30 92 C 8.3205 -2.25466 0.607226 0
M  V30 93 C 9.3015 -1.65853 -0.377716 0
M  V30 94 O 10.4865 -1.92409 -0.263149 0
M  V30 95 C 7.6165 -3.47256 -0.0552949 0
M  V30 96 C 6.5705 -4.19462 0.850632 0
M  V30 97 C 5.8965 -5.34673 0.0538859 0
M  V30 98 C 7.1965 -4.75603 2.15868 0
M  V30 99 H 8.8905 -2.59962 1.48526 0
M  V30 100 H 6.4365 -1.2496 0.715605 0
M  V30 101 H 8.3895 -4.19917 -0.353233 0
M  V30 102 H 7.1135 -3.11924 -0.968045 0
M  V30 103 H 5.7725 -3.48667 1.13257 0
M  V30 104 H 5.4205 -4.95585 -0.860514 0
M  V30 105 H 5.1205 -5.83913 0.657192 0
M  V30 106 H 6.6445 -6.10138 -0.237598 0
M  V30 107 H 8.0585 -5.40083 1.92311 0
M  V30 108 H 6.4555 -5.3528 2.71284 0
M  V30 109 H 7.5255 -3.94346 2.82169 0
M  V30 110 N 8.8686 -0.792821 -1.36206 0
M  V30 111 C 9.8006 -0.151469 -2.28699 0
M  V30 112 C 10.8136 0.641262 -1.49638 0
M  V30 113 O 12.0026 0.475885 -1.72039 0
M  V30 114 C 9.1026 0.808424 -3.29117 0
M  V30 115 C 8.2756 0.0650202 -4.37352 0
M  V30 116 C 7.3346 0.941358 -5.17711 0
M  V30 117 O 6.3606 0.397352 -5.67811 0
M  V30 118 N 7.5626 2.2652 -5.3448 0
M  V30 119 H 10.3276 -0.945982 -2.84379 0
M  V30 120 H 7.8886 -0.647032 -1.48409 0
M  V30 121 H 9.8806 1.3986 -3.79765 0
M  V30 122 H 8.4506 1.5038 -2.74052 0
M  V30 123 H 7.6706 -0.706255 -3.87822 0
M  V30 124 H 8.9586 -0.447847 -5.06825 0
M  V30 125 H 8.3566 2.73128 -4.95396 0
M  V30 126 H 6.9136 2.80493 -5.88359 0
M  V30 127 N 10.3467 1.47872 -0.545128 0
M  V30 128 C 11.6237 1.9554 0.0485222 0
M  V30 129 C 12.0037 1.4876 1.49779 0
M  V30 130 O 11.3517 0.720925 2.16829 0
M  V30 131 C 11.5617 3.48898 -0.084417 0
M  V30 132 C 12.9097 4.24547 0.0671239 0
M  V30 133 O 13.9337 3.56198 -0.0113649 0
M  V30 134 O 12.7927 5.45999 0.233882 0
M  V30 135 H 9.8867 0.823957 0.0708773 0
M  V30 136 H 12.4327 1.58327 -0.610798 0
M  V30 137 H 11.2047 3.75714 -1.09337 0
M  V30 138 H 10.8277 3.92845 0.613066 0
M  V30 139 N 11.8248 0.280983 1.55075 0
M  V30 140 C 12.7748 -0.618585 2.19448 0
M  V30 141 C 13.7588 -1.11401 1.16098 0
M  V30 142 O 14.9508 -1.0581 1.41891 0
M  V30 143 C 12.0798 -1.79951 2.92357 0
M  V30 144 C 11.1658 -1.321 4.03002 0
M  V30 145 N 11.5568 -0.559044 5.02701 0
M  V30 146 C 9.8548 -1.60346 4.16179 0
M  V30 147 C 10.5558 -0.306722 5.80891 0
M  V30 148 N 9.5318 -0.880825 5.36416 0
M  V30 149 H 13.3338 -0.0286638 2.93886 0
M  V30 150 H 10.8478 0.0848104 1.62178 0
M  V30 151 H 12.8448 -2.45531 3.36927 0
M  V30 152 H 11.5048 -2.39333 2.19431 0
M  V30 153 H 12.5158 -0.205827 5.17491 0
M  V30 154 H 9.1928 -2.20621 3.54447 0
M  V30 155 H 10.5828 0.30391 6.71212 0
M  V30 156 N 13.3029 -1.57598 0.00835791 0
M  V30 157 C 14.5499 -1.90928 -0.674732 0
M  V30 158 C 14.8779 -0.88277 -1.73313 0
M  V30 159 O 14.1329 0.111294 -1.95383 0
M  V30 160 C 14.4319 -3.3101 -1.34787 0
M  V30 161 C 14.0979 -4.48922 -0.421861 0
M  V30 162 C 12.7599 -4.8091 -0.166927 0
M  V30 163 C 15.1119 -5.20755 0.215211 0
M  V30 164 C 12.4399 -5.821 0.733232 0
M  V30 165 C 14.7919 -6.22905 1.1033 0
M  V30 166 C 13.4559 -6.53346 1.36733 0
M  V30 167 H 12.7259 -0.698656 -0.246902 0
M  V30 168 H 15.3729 -1.91387 0.0656779 0
M  V30 169 H 13.6779 -3.26714 -2.16253 0
M  V30 170 H 15.3749 -3.54061 -1.8826 0
M  V30 171 H 11.9649 -4.23934 -0.630729 0
M  V30 172 H 16.1489 -4.9629 0.0312829 0
M  V30 173 H 11.4049 -6.04042 0.945712 0
M  V30 174 H 15.5789 -6.77694 1.60325 0
M  V30 175 H 13.2059 -7.31573 2.06652 0
M  V30 176 N 14.781 0.264519 -1.55364 0
M  V30 177 C 15.711 1.33121 -1.91836 0
M  V30 178 C 16.692 1.51101 -0.781192 0
M  V30 179 O 17.877 1.64003 -1.04003 0
M  V30 180 C 15.007 2.68921 -2.19769 0
M  V30 181 C 13.961 2.65661 -3.35571 0
M  V30 182 C 13.287 4.05093 -3.49004 0
M  V30 183 C 14.587 2.24187 -4.71739 0
M  V30 184 H 16.281 1.02844 -2.81182 0
M  V30 185 H 13.827 0.493286 -1.35287 0
M  V30 186 H 15.78 3.43663 -2.43872 0
M  V30 187 H 14.504 3.00799 -1.27231 0
M  V30 188 H 13.163 1.93377 -3.1145 0
M  V30 189 H 12.811 4.34206 -2.53917 0
M  V30 190 H 12.511 4.03804 -4.26868 0
M  V30 191 H 14.035 4.81561 -3.75408 0
M  V30 192 H 15.449 2.88654 -4.9533 0
M  V30 193 H 13.846 2.34044 -5.52579 0
M  V30 194 H 14.916 1.19327 -4.69988 0
M  V30 195 N 16.2591 1.48442 0.529413 0
M  V30 196 C 17.1691 1.6569 1.66084 0
M  V30 197 C 18.1851 0.539432 1.65427 0
M  V30 198 O 19.3611 0.810572 1.84368 0
M  V30 199 C 16.4261 1.69315 3.02545 0
M  V30 200 C 15.4871 2.92694 3.14052 0
M  V30 201 C 14.7201 2.96137 4.44003 0
M  V30 202 O 14.9431 2.07973 5.31134 0
M  V30 203 O 13.8771 3.88312 4.59888 0
M  V30 204 H 17.7031 2.61483 1.54469 0
M  V30 205 H 15.2881 1.3185 0.702567 0
M  V30 206 H 17.1701 1.74217 3.83701 0
M  V30 207 H 15.8451 0.766966 3.14483 0
M  V30 208 H 14.7521 2.93324 2.32189 0
M  V30 209 H 16.0851 3.84699 3.0703 0
M  V30 210 N 17.7372 -0.778329 1.37039 0
M  V30 211 C 18.9862 -1.53189 1.3121 0
M  V30 212 C 19.2992 -1.95328 -0.103095 0
M  V30 213 O 20.5052 -2.70012 -0.283826 0
M  V30 214 C 18.9612 -2.76591 2.30272 0
M  V30 215 C 18.5692 -2.41577 3.77286 0
M  V30 216 C 20.3132 -3.5455 2.33441 0
M  V30 217 C 18.2202 -3.61441 4.68096 0
M  V30 218 H 17.1502 -0.5751 0.487622 0
M  V30 219 H 19.8012 -0.853101 1.62464 0
M  V30 220 H 18.1832 -3.46326 1.92027 0
M  V30 221 H 19.3572 -1.79668 4.2433 0
M  V30 222 H 17.6722 -1.76806 3.76999 0
M  V30 223 H 20.2692 -4.43628 2.98493 0
M  V30 224 H 20.6122 -3.93936 1.34611 0
M  V30 225 H 21.1452 -2.91805 2.7036 0
M  V30 226 H 17.8842 -3.27142 5.6803 0
M  V30 227 H 17.4042 -4.22478 4.25761 0
M  V30 228 H 19.0832 -4.28335 4.8491 0
M  V30 229 N 19.2153 -1.21501 -1.00376 0
M  V30 230 C 20.4923 -0.941745 -1.71437 0
M  V30 231 C 20.8723 0.546114 -2.03914 0
M  V30 232 O 20.2203 1.51128 -1.71384 0
M  V30 233 C 20.4303 -1.82812 -2.97289 0
M  V30 234 C 21.7783 -2.07771 -3.70292 0
M  V30 235 O 22.8023 -1.80171 -3.07273 0
M  V30 236 O 21.6613 -2.54456 -4.83647 0
M  V30 237 H 18.7553 -0.353243 -0.747762 0
M  V30 238 H 21.3013 -1.32436 -1.06108 0
M  V30 239 H 20.0733 -2.83501 -2.69709 0
M  V30 240 H 19.6963 -1.4464 -3.70358 0
M  V30 241 N 20.6934 1.19889 -1.02296 0
M  V30 242 C 21.6404 2.22901 -0.598651 0
M  V30 243 C 22.6104 1.61588 0.384521 0
M  V30 244 O 23.7954 1.88697 0.282522 0
M  V30 245 C 20.9354 3.45063 0.0504476 0
M  V30 246 C 20.0484 4.20783 -0.978053 0
M  V30 247 C 19.1834 5.30356 -0.299338 0
M  V30 248 C 18.2224 5.97826 -1.31416 0
M  V30 249 N 17.3594 6.98975 -0.661667 0
M  V30 250 H 22.1994 2.58554 -1.48169 0
M  V30 251 H 19.7364 1.27039 -0.741584 0
M  V30 252 H 21.6944 4.14831 0.443971 0
M  V30 253 H 20.3244 3.10084 0.897097 0
M  V30 254 H 19.3764 3.50018 -1.48969 0
M  V30 255 H 20.6884 4.67109 -1.74958 0
M  V30 256 H 19.8424 6.06516 0.149347 0
M  V30 257 H 18.5814 4.85084 0.504445 0
M  V30 258 H 17.5864 5.20422 -1.77317 0
M  V30 259 H 18.8114 6.45183 -2.11933 0
M  V30 260 H 16.7574 6.55886 0.122132 0
M  V30 261 H 16.6744 7.43461 -1.37117 0
M  V30 262 H 17.9424 7.7914 -0.236785 0
M  V30 263 N 22.1715 0.800033 1.35784 0
M  V30 264 C 23.1185 0.203848 2.29898 0
M  V30 265 C 24.0885 -0.658375 1.52495 0
M  V30 266 O 25.2735 -0.604832 1.8096 0
M  V30 267 C 22.4135 -0.64688 3.38983 0
M  V30 268 C 21.5265 0.235054 4.3136 0
M  V30 269 C 20.6615 -0.623054 5.27533 0
M  V30 270 C 19.7005 0.259682 6.11549 0
M  V30 271 N 18.8375 -0.558019 6.99879 0
M  V30 272 H 23.6775 1.01186 2.80295 0
M  V30 273 H 21.2145 0.51053 1.37957 0
M  V30 274 H 23.1725 -1.15521 4.00887 0
M  V30 275 H 21.8025 -1.42021 2.89879 0
M  V30 276 H 20.8545 0.861438 3.70518 0
M  V30 277 H 22.1665 0.914768 4.9034 0
M  V30 278 H 21.3205 -1.19678 5.94779 0
M  V30 279 H 20.0595 -1.33636 4.69034 0
M  V30 280 H 19.0645 0.845726 5.43256 0
M  V30 281 H 20.2895 0.970748 6.72126 0
M  V30 282 H 18.2355 -1.25542 6.43875 0
M  V30 283 H 18.1525 0.0637872 7.55973 0
M  V30 284 H 19.4205 -1.11523 7.71481 0
M  V30 285 N 23.6496 -1.47581 0.552962 0
M  V30 286 C 24.5976 -2.31648 -0.21023 0
M  V30 287 C 25.5916 -1.42663 -0.913432 0
M  V30 288 O 26.7976 -1.5945 -0.835201 0
M  V30 289 H 23.1726 -0.746989 -0.0866676 0
M  V30 290 H 25.1436 -2.93869 0.518051 0
M  V30 291 C 23.8926 -3.25226 -1.22976 0
M  V30 292 H 23.2156 -3.93658 -0.698077 0
M  V30 293 H 24.6556 -3.86889 -1.73473 0
M  V30 294 C 23.1146 -2.48448 -2.27542 0
M  V30 295 O 23.6446 -2.22585 -3.34393 0
M  V30 296 N 21.8506 -2.09532 -2.01357 0
M  V30 297 H 21.3976 -2.30765 -1.14478 0
M  V30 298 H 21.3556 -1.58476 -2.71538 0
M  V30 299 N 25.1277 -0.289203 -1.54924 0
M  V30 300 C 26.3677 0.324536 -2.01807 0
M  V30 301 C 26.7317 1.5199 -1.17316 0
M  V30 302 O 27.9327 2.20422 -1.53843 0
M  V30 303 C 26.2037 0.683578 -3.50802 0
M  V30 304 S 27.7627 1.28185 -4.19659 0
M  V30 305 H 24.5807 0.100236 -0.703899 0
M  V30 306 H 27.1827 -0.414325 -1.91059 0
M  V30 307 H 25.8867 -0.195073 -4.09936 0
M  V30 308 H 25.4177 1.45354 -3.65562 0
M  V30 309 H 27.4327 2.57006 -4.24456 0
M  V30 310 N 26.6058 1.57591 -0.0167156 0
M  V30 311 C 27.8458 1.93145 0.668902 0
M  V30 312 C 28.2098 0.892406 1.7 0
M  V30 313 O 29.4108 1.13373 2.43721 0
M  V30 314 C 27.6818 3.33678 1.28039 0
M  V30 315 S 29.2408 3.91142 1.9888 0
M  V30 316 H 26.0588 0.67593 0.220545 0
M  V30 317 H 28.6608 1.95347 -0.0774105 0
M  V30 318 H 27.3648 4.07126 0.517339 0
M  V30 319 H 26.8958 3.3489 2.06427 0
M  V30 320 H 28.9108 3.73571 3.26587 0
M  V30 321 N 28.0839 -0.256276 1.55502 0
M  V30 322 C 29.3299 -0.987079 1.77157 0
M  V30 323 C 29.6629 -1.85327 0.580315 0
M  V30 324 O 28.9379 -1.89874 -0.421686 0
M  V30 325 C 29.2209 -1.85553 3.08613 0
M  V30 326 C 29.0739 -1.01816 4.38125 0
M  V30 327 C 30.3929 -2.8397 3.36228 0
M  V30 328 H 27.5119 -0.357428 0.644526 0
M  V30 329 H 30.1539 -0.258239 1.88237 0
M  V30 330 H 28.3039 -2.47695 2.99298 0
M  V30 331 H 29.9759 -0.416159 4.59419 0
M  V30 332 H 28.2189 -0.322178 4.32602 0
M  V30 333 H 28.8899 -1.65939 5.26468 0
M  V30 334 H 31.3659 -2.31964 3.45445 0
M  V30 335 H 30.2419 -3.41864 4.29442 0
M  V30 336 H 30.5029 -3.59955 2.56681 0
M  V30 337 N 29.562 -1.4872 -0.521534 0
M  V30 338 C 30.809 -1.57168 -1.27689 0
M  V30 339 C 31.137 -0.249275 -1.92896 0
M  V30 340 O 30.392 0.761162 -1.80291 0
M  V30 341 C 30.691 -2.66497 -2.38148 0
M  V30 342 C 30.357 -4.08664 -1.90538 0
M  V30 343 C 29.019 -4.47357 -1.77271 0
M  V30 344 C 31.371 -4.97724 -1.54663 0
M  V30 345 C 28.699 -5.72905 -1.26478 0
M  V30 346 C 31.051 -6.2377 -1.05329 0
M  V30 347 C 29.715 -6.61311 -0.906861 0
M  V30 348 H 28.985 -0.575117 -0.467249 0
M  V30 349 H 31.632 -1.82472 -0.581051 0
M  V30 350 H 29.937 -2.35085 -3.13437 0
M  V30 351 H 31.634 -2.70246 -2.96257 0
M  V30 352 H 28.224 -3.78111 -2.01816 0
M  V30 353 H 32.408 -4.68501 -1.63768 0
M  V30 354 H 27.664 -6.00709 -1.13835 0
M  V30 355 H 31.838 -6.9217 -0.76644 0
M  V30 356 H 29.465 -7.5848 -0.511083 0
M  V30 357 N 31.0401 0.771051 -1.3745 0
M  V30 358 C 32.4561 1.07171 -1.18265 0
M  V30 359 C 32.6561 2.01491 -0.019287 0
M  V30 360 O 31.7121 2.44244 0.640408 0
M  V30 361 C 33.0251 1.66854 -2.50161 0
M  V30 362 C 34.5731 1.79109 -2.56689 0
M  V30 363 C 35.0481 2.42205 -3.88717 0
M  V30 364 N 36.5391 2.49655 -3.90162 0
M  V30 365 C 37.2741 2.9933 -4.8907 0
M  V30 366 N 36.7701 3.49172 -5.98374 0
M  V30 367 N 38.5631 2.9821 -4.76474 0
M  V30 368 H 30.7141 0.144796 -2.11906 0
M  V30 369 H 32.9771 0.126863 -0.939473 0
M  V30 370 H 32.6831 1.05017 -3.35655 0
M  V30 371 H 32.5571 2.6614 -2.673 0
M  V30 372 H 34.9441 2.40077 -1.71601 0
M  V30 373 H 35.0251 0.785757 -2.43433 0
M  V30 374 H 34.6691 1.81875 -4.74219 0
M  V30 375 H 34.5991 3.43345 -3.99276 0
M  V30 376 H 37.0901 2.14383 -3.11205 0
M  V30 377 H 37.4031 3.8548 -6.69795 0
M  V30 378 H 35.7481 3.47275 -6.02018 0
M  V30 379 H 38.9391 2.58572 -3.90203 0
M  V30 380 H 39.1121 3.36613 -5.53711 0
M  V30 381 N 32.5182 1.22032 0.997298 0
M  V30 382 C 33.7952 0.950823 1.70935 0
M  V30 383 C 34.1752 -0.535292 2.042 0
M  V30 384 O 33.5232 -1.50217 1.72183 0
M  V30 385 C 33.7332 1.84386 2.96315 0
M  V30 386 C 35.0812 2.09732 3.69185 0
M  V30 387 O 36.1052 1.81798 3.06314 0
M  V30 388 O 34.9642 2.57018 4.82291 0
M  V30 389 H 32.0582 0.357204 0.745878 0
M  V30 390 H 34.6042 1.32997 1.05404 0
M  V30 391 H 33.3762 2.84928 2.68201 0
M  V30 392 H 32.9992 1.46602 3.69586 0
M  V30 393 N 33.9963 -1.19345 1.0293 0
M  V30 394 C 35.2733 -1.84811 0.640642 0
M  V30 395 C 35.6533 -1.91855 -0.88062 0
M  V30 396 O 35.0013 -1.43587 -1.7775 0
M  V30 397 C 35.2113 -3.23755 1.30321 0
M  V30 398 C 36.5593 -3.99912 1.42673 0
M  V30 399 O 37.5833 -3.33155 1.26041 0
M  V30 400 O 36.4423 -5.19494 1.6967 0
M  V30 401 H 33.5363 -0.796443 0.222726 0
M  V30 402 H 36.0823 -1.26831 1.12748 0
M  V30 403 H 34.8543 -3.13466 2.34211 0
M  V30 404 H 34.4773 -3.89381 0.804261 0
M  V30 405 N 35.4744 -0.807222 -1.35358 0
M  V30 406 C 36.7214 -0.387888 -1.9875 0
M  V30 407 C 37.0494 1.04509 -1.64037 0
M  V30 408 O 36.3044 1.73986 -0.895946 0
M  V30 409 C 36.6034 -0.519036 -3.53611 0
M  V30 410 C 36.2694 -1.91542 -4.08194 0
M  V30 411 C 34.9314 -2.29745 -4.22813 0
M  V30 412 C 37.2834 -2.82896 -4.37744 0
M  V30 413 C 34.6114 -3.58668 -4.643 0
M  V30 414 C 36.9634 -4.11265 -4.8067 0
M  V30 415 C 35.6274 -4.49466 -4.93494 0
M  V30 416 H 34.8974 -0.141938 -0.727279 0
M  V30 417 H 37.5444 -1.02814 -1.6156 0
M  V30 418 H 35.8494 0.204658 -3.91265 0
M  V30 419 H 37.5464 -0.175345 -4.00616 0
M  V30 420 H 34.1364 -1.60862 -3.97268 0
M  V30 421 H 38.3204 -2.54629 -4.26002 0
M  V30 422 H 33.5764 -3.88113 -4.72418 0
M  V30 423 H 37.7504 -4.82153 -5.02496 0
M  V30 424 H 35.3774 -5.49418 -5.25399 0
M  V30 425 N 36.9525 1.47285 -0.560781 0
M  V30 426 C 38.2015 2.01668 -0.035895 0
M  V30 427 C 38.5145 1.44021 1.32353 0
M  V30 428 O 39.7205 1.90088 1.93853 0
M  V30 429 C 38.1765 3.59897 -0.0136659 0
M  V30 430 C 37.7845 4.26536 -1.37006 0
M  V30 431 C 39.5285 4.22017 0.458425 0
M  V30 432 C 37.4355 5.76782 -1.30675 0
M  V30 433 H 36.3655 0.753938 -0.00964879 0
M  V30 434 H 39.0165 1.69243 -0.709166 0
M  V30 435 H 37.3985 3.89301 0.725325 0
M  V30 436 H 38.5725 4.0877 -2.12705 0
M  V30 437 H 36.8875 3.76419 -1.78038 0
M  V30 438 H 39.4845 5.32124 0.524247 0
M  V30 439 H 39.8275 3.89437 1.4712 0
M  V30 440 H 40.3605 3.97159 -0.225818 0
M  V30 441 H 37.0995 6.13988 -2.29564 0
M  V30 442 H 36.6195 5.96875 -0.591622 0
M  V30 443 H 38.2985 6.39063 -1.01033 0
M  V30 444 N 38.4306 0.297415 1.54768 0
M  V30 445 C 39.6766 -0.313376 2.00364 0
M  V30 446 C 40.0096 -1.53815 1.18553 0
M  V30 447 O 39.2846 -1.92739 0.261103 0
M  V30 448 C 39.5676 -0.673525 3.53745 0
M  V30 449 C 39.4206 0.560133 4.46299 0
M  V30 450 C 40.7396 -1.50143 4.13697 0
M  V30 451 H 37.8586 -0.112428 0.728374 0
M  V30 452 H 40.5006 0.4088 1.8555 0
M  V30 453 H 38.6506 -1.28881 3.665 0
M  V30 454 H 40.3226 1.19863 4.45455 0
M  V30 455 H 38.5656 1.19405 4.17043 0
M  V30 456 H 39.2366 0.26405 5.51368 0
M  V30 457 H 41.7126 -0.981588 4.04356 0
M  V30 458 H 40.5886 -1.72221 5.21182 0
M  V30 459 H 40.8496 -2.48952 3.65343 0
M  V30 460 N 39.9087 -1.5758 0.0250728 0
M  V30 461 C 40.8557 -2.09973 -0.958129 0
M  V30 462 C 41.8257 -1.00085 -1.3256 0
M  V30 463 O 43.0107 -1.27481 -1.41962 0
M  V30 464 C 40.1507 -2.62812 -2.2366 0
M  V30 465 C 39.2637 -3.86693 -1.92594 0
M  V30 466 C 38.3987 -4.27941 -3.14707 0
M  V30 467 C 37.4377 -5.44591 -2.79442 0
M  V30 468 N 36.5747 -5.81014 -3.94167 0
M  V30 469 H 41.4147 -2.937 -0.504428 0
M  V30 470 H 38.9517 -1.45172 -0.237392 0
M  V30 471 H 40.9097 -2.91536 -2.98434 0
M  V30 472 H 39.5397 -1.81922 -2.66654 0
M  V30 473 H 38.5917 -3.64723 -1.0808 0
M  V30 474 H 39.9037 -4.71547 -1.62619 0
M  V30 475 H 39.0577 -4.58079 -3.97804 0
M  V30 476 H 37.7967 -3.41845 -3.4784 0
M  V30 477 H 36.8017 -5.1415 -1.94755 0
M  V30 478 H 38.0267 -6.32382 -2.47528 0
M  V30 479 H 35.9727 -4.97874 -4.2715 0
M  V30 480 H 35.8897 -6.60498 -3.67801 0
M  V30 481 H 37.1577 -6.15756 -4.7798 0
M  V30 482 N 41.3868 0.248026 -1.55636 0
M  V30 483 C 42.6328 0.97767 -1.77678 0
M  V30 484 C 42.9658 1.85016 -0.590135 0
M  V30 485 O 42.2408 1.90095 0.411611 0
M  V30 486 C 42.5238 1.83914 -3.09593 0
M  V30 487 C 42.3768 0.99491 -4.38659 0
M  V30 488 C 43.6958 2.82183 -3.37729 0
M  V30 489 H 40.8148 0.354005 -0.646413 0
M  V30 490 H 43.4568 0.248253 -1.88371 0
M  V30 491 H 41.6068 2.46104 -3.00608 0
M  V30 492 H 43.2788 0.391789 -4.59633 0
M  V30 493 H 41.5218 0.299231 -4.32767 0
M  V30 494 H 42.1928 1.63145 -5.2734 0
M  V30 495 H 44.6688 2.30129 -3.4667 0
M  V30 496 H 43.5448 3.39582 -4.31249 0
M  V30 497 H 43.8058 3.58588 -2.58586 0
M  V30 498 N 42.8649 1.48995 0.513639 0
M  V30 499 C 43.7949 1.67636 1.62544 0
M  V30 500 C 44.7759 0.525087 1.61793 0
M  V30 501 O 45.9609 0.759502 1.78732 0
M  V30 502 C 43.0909 1.73114 3.01079 0
M  V30 503 C 42.0449 2.87905 3.16693 0
M  V30 504 C 41.3709 2.78486 4.56453 0
M  V30 505 C 42.6709 4.29005 2.97913 0
M  V30 506 H 44.3649 2.60716 1.47198 0
M  V30 507 H 41.9109 1.25465 0.706714 0
M  V30 508 H 43.8639 1.84742 3.78746 0
M  V30 509 H 42.5879 0.766241 3.17484 0
M  V30 510 H 41.2469 2.75859 2.41448 0
M  V30 511 H 40.8949 1.7993 4.69717 0
M  V30 512 H 40.5949 3.55523 4.67843 0
M  V30 513 H 42.1189 2.92104 5.36197 0
M  V30 514 H 43.5329 4.41798 3.65359 0
M  V30 515 H 41.9299 5.07166 3.20785 0
M  V30 516 H 42.9999 4.44329 1.94165 0
M  V30 517 N 44.343 -0.763751 1.37857 0
M  V30 518 C 45.754 -1.3405 1.29952 0
M  V30 519 C 46.105 -1.96138 -0.0492898 0
M  V30 520 O 45.23 -1.94372 -0.951239 0
M  V30 521 C 45.825 -2.43729 2.35333 0
M  V30 522 C 44.384 -2.97151 2.31037 0
M  V30 523 C 43.531 -1.70438 2.18738 0
M  V30 524 H 46.482 -0.563396 1.48363 0
M  V30 525 H 46.503 -3.23412 2.00462 0
M  V30 526 H 46.015 -1.9851 3.33489 0
M  V30 527 H 44.116 -3.46724 1.3643 0
M  V30 528 H 44.229 -3.52221 3.24772 0
M  V30 529 H 42.593 -1.93673 1.65418 0
M  V30 530 H 43.376 -1.27312 3.18821 0
M  V30 531 N 45.8211 -1.22559 -0.990812 0
M  V30 532 C 47.2321 -1.04791 -1.54518 0
M  V30 533 C 47.5831 0.387998 -1.92325 0
M  V30 534 O 46.7081 1.27328 -1.74976 0
M  V30 535 C 47.3031 -1.896 -2.80779 0
M  V30 536 C 45.8621 -1.76124 -3.32652 0
M  V30 537 C 45.0091 -1.8594 -2.05722 0
M  V30 538 H 47.9601 -1.36374 -0.811662 0
M  V30 539 H 47.9811 -1.41464 -3.53225 0
M  V30 540 H 47.4931 -2.94101 -2.53231 0
M  V30 541 H 45.5941 -0.743643 -3.65104 0
M  V30 542 H 45.7071 -2.58913 -4.03114 0
M  V30 543 H 44.0711 -1.29403 -2.19379 0
M  V30 544 H 44.8541 -2.91976 -1.80568 0
M  V30 545 N 47.2992 1.18797 -1.03562 0
M  V30 546 C 48.5452 1.8893 -0.737113 0
M  V30 547 C 48.8782 1.79837 0.732956 0
M  V30 548 O 48.1532 1.19525 1.5344 0
M  V30 549 C 48.4362 3.39607 -1.19745 0
M  V30 550 C 48.2892 3.57537 -2.72924 0
M  V30 551 C 49.6082 4.33069 -0.783526 0
M  V30 552 H 46.7272 0.686057 -0.269249 0
M  V30 553 H 49.3692 1.39797 -1.28673 0
M  V30 554 H 47.5192 3.81583 -0.729855 0
M  V30 555 H 49.1912 3.24688 -3.27682 0
M  V30 556 H 47.4342 3.00363 -3.12993 0
M  V30 557 H 48.1052 4.63238 -3.00191 0
M  V30 558 H 50.5812 3.98846 -1.18581 0
M  V30 559 H 49.4572 5.3707 -1.13343 0
M  V30 560 H 49.7182 4.40986 0.313681 0
M  V30 561 N 48.7773 0.814389 1.34928 0
M  V30 562 C 49.7073 0.244827 2.32213 0
M  V30 563 C 50.6883 -0.634024 1.57842 0
M  V30 564 O 51.8733 -0.562676 1.8587 0
M  V30 565 C 49.0033 -0.601106 3.42058 0
M  V30 566 C 47.9573 0.179896 4.27622 0
M  V30 567 C 47.2833 -0.788237 5.28858 0
M  V30 568 C 48.5833 1.38329 5.03649 0
M  V30 569 H 50.2773 1.05763 2.80097 0
M  V30 570 H 47.8233 0.510029 1.34665 0
M  V30 571 H 49.7763 -1.00968 4.09125 0
M  V30 572 H 48.5003 -1.44688 2.92802 0
M  V30 573 H 47.1593 0.569739 3.62146 0
M  V30 574 H 46.8073 -1.62973 4.75866 0
M  V30 575 H 46.5073 -0.269942 5.8698 0
M  V30 576 H 48.0313 -1.19485 5.98795 0
M  V30 577 H 49.4453 1.04918 5.63618 0
M  V30 578 H 47.8423 1.83662 5.71304 0
M  V30 579 H 48.9123 2.16592 4.33839 0
M  V30 580 N 50.2554 -1.46986 0.568584 0
M  V30 581 C 51.5034 -2.02041 0.0487022 0
M  V30 582 C 51.8244 -1.44408 -1.31039 0
M  V30 583 O 51.0944 -0.623477 -1.85714 0
M  V30 584 H 49.6744 -0.746849 0.015014 0
M  V30 585 H 52.3364 -1.80257 0.741168 0
M  V30 586 H 51.4324 -3.12085 -0.0308961 0
M  V30 587 N 51.7335 -0.305618 -1.54608 0
M  V30 588 C 52.6635 0.561482 -2.26649 0
M  V30 589 C 53.6445 1.13415 -1.26772 0
M  V30 590 O 54.8295 1.16262 -1.55553 0
M  V30 591 C 51.9595 1.73122 -3.01075 0
M  V30 592 C 50.9135 1.2887 -4.08138 0
M  V30 593 C 50.2395 2.54396 -4.70305 0
M  V30 594 C 51.5395 0.416578 -5.20636 0
M  V30 595 H 53.2335 -0.0393902 -2.99374 0
M  V30 596 H 50.7795 -0.020385 -1.43986 0
M  V30 597 H 52.7325 2.34396 -3.50195 0
M  V30 598 H 51.4565 2.3584 -2.25936 0
M  V30 599 H 50.1155 0.698991 -3.59875 0
M  V30 600 H 49.7635 3.15439 -3.918 0
M  V30 601 H 49.4635 2.25486 -5.42614 0
M  V30 602 H 50.9875 3.16464 -5.2219 0
M  V30 603 H 52.4015 0.935116 -5.65622 0
M  V30 604 H 50.7985 0.221046 -5.99693 0
M  V30 605 H 51.8685 -0.557162 -4.81688 0
M  V30 606 N 53.2116 1.57565 -0.0334293 0
M  V30 607 C 54.1216 2.13943 0.962572 0
M  V30 608 C 55.1376 1.09276 1.35406 0
M  V30 609 O 56.3136 1.41355 1.4346 0
M  V30 610 C 53.3786 2.65887 2.22497 0
M  V30 611 C 52.4396 3.85286 1.8935 0
M  V30 612 C 51.6726 4.34743 3.09571 0
M  V30 613 O 51.8956 3.83352 4.22371 0
M  V30 614 O 50.8296 5.26538 2.91618 0
M  V30 615 H 54.6556 2.99333 0.513169 0
M  V30 616 H 52.2406 1.4822 0.18743 0
M  V30 617 H 54.1226 2.99346 2.96598 0
M  V30 618 H 52.7976 1.83578 2.6661 0
M  V30 619 H 51.7046 3.56746 1.1262 0
M  V30 620 H 53.0376 4.68771 1.5005 0
M  V30 621 N 54.6897 -0.239769 1.55765 0
M  V30 622 C 55.9367 -0.966801 1.7793 0
M  V30 623 C 56.2647 -1.85046 0.599015 0
M  V30 624 O 55.5197 -1.91197 -0.417395 0
M  V30 625 C 55.8187 -1.852 3.05672 0
M  V30 626 C 55.4847 -1.1231 4.36689 0
M  V30 627 C 54.1467 -0.921689 4.72291 0
M  V30 628 C 56.4987 -0.607019 5.17653 0
M  V30 629 C 53.8267 -0.191996 5.86386 0
M  V30 630 C 56.1787 0.109241 6.32506 0
M  V30 631 C 54.8427 0.322073 6.66723 0
M  V30 632 H 54.1127 -0.353778 0.651093 0
M  V30 633 H 56.7597 -0.23634 1.90036 0
M  V30 634 H 55.0647 -2.64975 2.8861 0
M  V30 635 H 56.7617 -2.41635 3.20021 0
M  V30 636 H 53.3517 -1.29004 4.08725 0
M  V30 637 H 57.5357 -0.750153 4.90598 0
M  V30 638 H 52.7917 -0.0166949 6.11398 0
M  V30 639 H 56.9657 0.516737 6.9448 0
M  V30 640 H 54.5927 0.88944 7.54979 0
M  V30 641 N 56.1678 -1.49265 -0.50573 0
M  V30 642 C 57.4168 -1.57761 -1.25675 0
M  V30 643 C 57.7298 -0.267371 -1.93764 0
M  V30 644 O 58.9358 -0.230827 -2.70517 0
M  V30 645 C 57.3918 -2.78332 -2.28165 0
M  V30 646 C 56.9998 -4.16096 -1.66037 0
M  V30 647 C 58.7438 -2.96155 -3.04125 0
M  V30 648 C 56.6508 -5.27895 -2.6661 0
M  V30 649 H 55.5808 -0.587391 -0.472745 0
M  V30 650 H 58.2318 -1.75644 -0.53118 0
M  V30 651 H 56.6138 -2.53934 -3.03865 0
M  V30 652 H 57.7878 -4.50612 -0.963622 0
M  V30 653 H 56.1028 -4.03591 -1.02484 0
M  V30 654 H 58.6998 -3.76849 -3.79327 0
M  V30 655 H 59.0428 -2.06534 -3.61455 0
M  V30 656 H 59.5758 -3.2057 -2.35541 0
M  V30 657 H 56.3148 -6.1956 -2.14068 0
M  V30 658 H 55.8348 -4.97839 -3.34539 0
M  V30 659 H 57.5138 -5.57031 -3.29129 0
M  V30 660 N 57.6459 0.756429 -1.3826 0
M  V30 661 C 58.8929 1.51547 -1.34312 0
M  V30 662 C 59.2209 1.94382 0.0677144 0
M  V30 663 O 58.4759 1.65514 1.04421 0
M  V30 664 C 58.7749 2.78313 -2.24224 0
M  V30 665 C 58.4409 2.54455 -3.72241 0
M  V30 666 C 57.1029 2.47657 -4.12576 0
M  V30 667 C 59.4549 2.3354 -4.65949 0
M  V30 668 C 56.7829 2.17956 -5.44713 0
M  V30 669 C 59.1349 2.05359 -5.9834 0
M  V30 670 C 57.7989 1.97016 -6.37762 0
M  V30 671 H 57.0689 0.55455 -0.491482 0
M  V30 672 H 59.7159 0.870039 -1.70595 0
M  V30 673 H 58.0209 3.47492 -1.80987 0
M  V30 674 H 59.7179 3.36259 -2.18474 0
M  V30 675 H 56.3079 2.60616 -3.40261 0
M  V30 676 H 60.4919 2.37772 -4.35635 0
M  V30 677 H 55.7479 2.10003 -5.74203 0
M  V30 678 H 59.9219 1.88179 -6.70494 0
M  V30 679 H 57.5489 1.73766 -7.40074 0
M  V30 680 N 59.124 1.23083 0.984299 0
M  V30 681 C 60.372 1.05848 1.72165 0
M  V30 682 C 60.693 -0.406049 1.90726 0
M  V30 683 O 59.963 -1.29139 1.47309 0
M  V30 684 H 58.543 0.388685 0.637913 0
M  V30 685 H 61.205 1.54736 1.18503 0
M  V30 686 H 60.301 1.54327 2.71274 0
M  V30 687 N 60.6021 -1.18246 1.0419 0
M  V30 688 C 61.5321 -2.24127 0.654914 0
M  V30 689 C 62.5131 -1.66617 -0.342451 0
M  V30 690 O 63.6981 -1.92924 -0.222277 0
M  V30 691 C 60.8281 -3.47295 0.0183757 0
M  V30 692 C 59.7821 -4.17563 0.939414 0
M  V30 693 C 59.1081 -5.34438 0.167286 0
M  V30 694 C 60.4081 -4.70917 2.25908 0
M  V30 695 H 62.1021 -2.56753 1.54007 0
M  V30 696 H 59.6481 -1.23414 0.74195 0
M  V30 697 H 61.6011 -4.20572 -0.264082 0
M  V30 698 H 60.3251 -3.13907 -0.901664 0
M  V30 699 H 58.9841 -3.46186 1.20628 0
M  V30 700 H 58.6321 -4.97298 -0.7552 0
M  V30 701 H 58.3321 -5.82388 0.780901 0
M  V30 702 H 59.8561 -6.10504 -0.108125 0
M  V30 703 H 61.2701 -5.35882 2.03724 0
M  V30 704 H 59.6671 -5.29406 2.82577 0
M  V30 705 H 60.7371 -3.88272 2.9047 0
M  V30 706 N 62.0802 -0.821533 -1.34494 0
M  V30 707 C 63.0102 -0.257138 -2.3208 0
M  V30 708 C 63.9912 0.625645 -1.58176 0
M  V30 709 O 65.1762 0.552811 -1.86166 0
M  V30 710 C 62.3062 0.582958 -3.42372 0
M  V30 711 C 61.2602 -0.202571 -4.2752 0
M  V30 712 C 60.5862 0.760179 -5.29269 0
M  V30 713 C 61.8862 -1.40998 -5.02908 0
M  V30 714 H 63.5802 -1.07247 -2.79532 0
M  V30 715 H 61.1262 -0.517163 -1.34393 0
M  V30 716 H 63.0792 0.987972 -4.09655 0
M  V30 717 H 61.8032 1.43133 -2.93565 0
M  V30 718 H 60.4622 -0.588936 -3.61838 0
M  V30 719 H 60.1102 1.60447 -4.76724 0
M  V30 720 H 59.8102 0.238809 -5.87115 0
M  V30 721 H 61.3342 1.16308 -5.9942 0
M  V30 722 H 62.7482 -1.07905 -5.63054 0
M  V30 723 H 61.1452 -1.86689 -5.70322 0
M  V30 724 H 62.2152 -2.1889 -4.32684 0
M  V30 725 N 63.5583 1.46682 -0.576371 0
M  V30 726 C 64.8063 2.02013 -0.0594163 0
M  V30 727 C 65.1273 1.45101 1.30271 0
M  V30 728 O 64.3973 0.633317 1.8538 0
M  V30 729 H 62.9773 0.746759 -0.0189745 0
M  V30 730 H 65.6393 1.79862 -0.750717 0
M  V30 731 H 64.7353 3.12097 0.014345 0
M  V30 732 N 65.0364 0.313813 1.54444 0
M  V30 733 C 65.9844 -0.572171 2.25453 0
M  V30 734 C 66.9784 -1.12657 1.2651 0
M  V30 735 O 68.1844 -1.07573 1.44319 0
M  V30 736 H 64.5594 -0.203146 0.724041 0
M  V30 737 H 66.5304 0.0491145 2.9836 0
M  V30 738 C 65.2794 -1.72626 3.0182 0
M  V30 739 H 64.6024 -1.30891 3.77767 0
M  V30 740 H 66.0424 -2.32199 3.54767 0
M  V30 741 C 64.5014 -2.63806 2.09542 0
M  V30 742 O 65.0314 -3.65256 1.67185 0
M  V30 743 N 63.2374 -2.31824 1.75232 0
M  V30 744 H 62.7844 -1.49368 2.09873 0
M  V30 745 H 62.7424 -2.93095 1.13767 0
M  V30 746 N 66.5145 -1.57545 0.0417849 0
M  V30 747 C 67.7625 -1.91937 -0.632829 0
M  V30 748 C 68.0835 -0.919978 -1.71934 0
M  V30 749 O 67.3535 0.0366064 -1.95866 0
M  V30 750 H 65.9335 -0.708493 -0.236742 0
M  V30 751 H 68.5955 -1.9468 0.0925745 0
M  V30 752 H 67.6915 -2.92912 -1.07746 0
M  V30 753 N 67.9926 0.231505 -1.5589 0
M  V30 754 C 68.9226 1.29022 -1.94617 0
M  V30 755 C 69.9036 1.4941 -0.813067 0
M  V30 756 O 71.0886 1.6176 -1.07459 0
M  V30 757 C 68.2186 2.64199 -2.25424 0
M  V30 758 C 67.1726 2.58484 -3.41131 0
M  V30 759 C 66.4986 3.97599 -3.57518 0
M  V30 760 C 67.7986 2.1413 -4.76388 0
M  V30 761 H 69.4926 0.968563 -2.83301 0
M  V30 762 H 67.0386 0.464479 -1.36303 0
M  V30 763 H 68.9916 3.38413 -2.51107 0
M  V30 764 H 67.7156 2.98032 -1.33583 0
M  V30 765 H 66.3746 1.86727 -3.15481 0
M  V30 766 H 66.0226 4.28723 -2.6307 0
M  V30 767 H 65.7226 3.94659 -4.35337 0
M  V30 768 H 67.2466 4.7349 -3.85538 0
M  V30 769 H 68.6606 2.78083 -5.01341 0
M  V30 770 H 67.0576 2.2227 -5.57419 0
M  V30 771 H 68.1276 1.09331 -4.72414 0
M  V30 772 N 69.4707 1.49531 0.497807 0
M  V30 773 C 70.4337 1.65916 1.58128 0
M  V30 774 C 71.4337 0.530825 1.51786 0
M  V30 775 O 72.6237 0.797342 1.54881 0
M  V30 776 C 69.7557 1.65951 2.9778 0
M  V30 777 H 70.9487 2.62556 1.44929 0
M  V30 778 H 68.5017 1.38611 0.722275 0
M  V30 779 H 69.2367 0.709065 3.16453 0
M  V30 780 H 69.0217 2.47897 3.03792 0
M  V30 781 H 70.5117 1.80673 3.76493 0
M  V30 782 N 70.9488 -0.749086 1.3866 0
M  V30 783 C 71.8788 -1.8764 1.38973 0
M  V30 784 C 72.8598 -1.68178 0.255004 0
M  V30 785 O 74.0448 -1.88704 0.458754 0
M  V30 786 C 71.1748 -3.25222 1.21851 0
M  V30 787 C 70.1288 -3.59295 2.32575 0
M  V30 788 C 69.4548 -4.95663 2.00555 0
M  V30 789 C 70.7548 -3.63709 3.7485 0
M  V30 790 H 72.4488 -1.87635 2.3331 0
M  V30 791 H 69.9948 -0.901329 1.12303 0
M  V30 792 H 71.9478 -4.03746 1.20695 0
M  V30 793 H 70.6718 -3.25719 0.239775 0
M  V30 794 H 69.3308 -2.83093 2.32925 0
M  V30 795 H 68.9788 -4.92724 1.01154 0
M  V30 796 H 68.6788 -5.19429 2.74714 0
M  V30 797 H 70.2028 -5.7656 2.01024 0
M  V30 798 H 71.6168 -4.32338 3.76506 0
M  V30 799 H 70.0138 -3.98986 4.48252 0
M  V30 800 H 71.0838 -2.63834 4.06841 0
M  V30 801 N 72.4269 -1.23603 -0.977757 0
M  V30 802 C 73.6729 -1.08136 -1.72274 0
M  V30 803 C 74.0279 0.377453 -1.88661 0
M  V30 804 O 73.3209 1.27552 -1.42972 0
M  V30 805 C 73.5149 -1.7433 -3.11999 0
M  V30 806 C 73.3439 -3.26498 -3.0924 0
M  V30 807 C 72.1139 -3.9567 -3.14282 0
M  V30 808 C 74.3119 -4.2323 -2.92201 0
M  V30 809 N 72.2939 -5.34799 -3.01436 0
M  V30 810 C 73.6649 -5.49289 -2.87544 0
M  V30 811 C 75.7199 -4.13931 -2.76705 0
M  V30 812 C 74.4229 -6.67116 -2.68978 0
M  V30 813 C 76.4489 -5.31424 -2.59504 0
M  V30 814 C 75.8109 -6.5641 -2.55548 0
M  V30 815 H 71.9099 -0.450247 -0.639376 0
M  V30 816 H 74.4939 -1.5637 -1.16002 0
M  V30 817 H 72.6649 -1.28624 -3.66484 0
M  V30 818 H 74.3969 -1.51815 -3.75146 0
M  V30 819 H 71.1519 -3.46767 -3.22567 0
M  V30 820 H 71.5759 -6.07748 -2.98281 0
M  V30 821 H 76.2179 -3.1807 -2.78552 0
M  V30 822 H 73.9359 -7.63109 -2.65876 0
M  V30 823 H 77.5219 -5.26072 -2.48474 0
M  V30 824 H 76.4019 -7.45795 -2.42405 0
M  V30 825 N 73.905 1.17692 -1.04816 0
M  V30 826 C 75.154 1.87192 -0.751132 0
M  V30 827 C 75.467 1.8169 0.724441 0
M  V30 828 O 76.673 2.46625 1.13527 0
M  V30 829 C 75.129 3.35857 -1.29338 0
M  V30 830 C 74.737 3.4987 -2.79812 0
M  V30 831 C 76.481 4.10709 -1.07322 0
M  V30 832 C 74.388 4.92536 -3.27356 0
M  V30 833 H 73.318 0.701162 -0.277288 0
M  V30 834 H 75.969 1.32932 -1.26496 0
M  V30 835 H 74.351 3.89631 -0.707376 0
M  V30 836 H 75.525 3.06332 -3.44235 0
M  V30 837 H 73.84 2.88433 -3.00325 0
M  V30 838 H 76.437 5.15952 -1.4035 0
M  V30 839 H 76.78 4.16299 -0.0108001 0
M  V30 840 H 77.313 3.6313 -1.62423 0
M  V30 841 H 74.052 4.92119 -4.33012 0
M  V30 842 H 73.572 5.3676 -2.67673 0
M  V30 843 H 75.251 5.61288 -3.21815 0
M  V30 844 N 75.3831 0.828654 1.34056 0
M  V30 845 C 76.6301 0.419458 1.98108 0
M  V30 846 C 76.9581 -1.01886 1.65679 0
M  V30 847 O 76.2131 -1.72539 0.923512 0
M  V30 848 C 76.5121 0.575226 3.52741 0
M  V30 849 C 76.1781 1.98012 4.05095 0
M  V30 850 C 74.8401 2.36442 4.19104 0
M  V30 851 C 77.1921 2.89824 4.33188 0
M  V30 852 C 74.5201 3.66009 4.58535 0
M  V30 853 C 76.8721 4.1886 4.74066 0
M  V30 854 C 75.5361 4.5726 4.86281 0
M  V30 855 H 74.8061 0.153491 0.724929 0
M  V30 856 H 77.4531 1.05371 1.59904 0
M  V30 857 H 75.7581 -0.142385 3.91541 0
M  V30 858 H 77.4551 0.239057 4.00287 0
M  V30 859 H 74.0451 1.67162 3.94658 0
M  V30 860 H 78.2291 2.61375 4.21897 0
M  V30 861 H 73.4851 3.95579 4.66184 0
M  V30 862 H 77.6591 4.90086 4.94761 0
M  V30 863 H 75.2861 5.57707 5.16592 0
M  V30 864 N 76.8612 -1.46375 0.584142 0
M  V30 865 C 78.1012 -2.0427 0.0729695 0
M  V30 866 C 78.4652 -1.44563 -1.26355 0
M  V30 867 O 79.6662 -1.93667 -1.86405 0
M  V30 868 C 77.9372 -3.57399 0.00967464 0
M  V30 869 S 79.4962 -4.36551 -0.443714 0
M  V30 870 H 76.3142 -0.709975 0.0381673 0
M  V30 871 H 78.9162 -1.79398 0.776962 0
M  V30 872 H 77.6202 -3.98372 0.986319 0
M  V30 873 H 77.1512 -3.8681 -0.717044 0
M  V30 874 H 79.1662 -4.66237 -1.69816 0
M  V30 875 N 78.3393 -0.321999 -1.54275 0
M  V30 876 C 79.5863 0.281044 -2.0054 0
M  V30 877 C 79.9143 1.52265 -1.21019 0
M  V30 878 O 79.1693 1.93687 -0.279982 0
M  V30 879 C 79.4683 0.661769 -3.5122 0
M  V30 880 C 79.1343 -0.480482 -4.48333 0
M  V30 881 C 77.7963 -0.794005 -4.74604 0
M  V30 882 C 80.1483 -1.24783 -5.06042 0
M  V30 883 C 77.4763 -1.87763 -5.55844 0
M  V30 884 C 79.8283 -2.32153 -5.88462 0
M  V30 885 C 78.4923 -2.64089 -6.13036 0
M  V30 886 H 77.7623 0.102841 -0.733829 0
M  V30 887 H 80.4093 -0.445453 -1.86247 0
M  V30 888 H 78.7143 1.46867 -3.63232 0
M  V30 889 H 80.4113 1.13989 -3.84457 0
M  V30 890 H 77.0013 -0.226039 -4.28004 0
M  V30 891 H 81.1853 -1.01887 -4.85729 0
M  V30 892 H 76.4413 -2.12954 -5.73115 0
M  V30 893 H 80.6153 -2.92057 -6.32199 0
M  V30 894 H 78.2423 -3.48185 -6.75775 0
M  V30 895 N 79.8174 1.5752 -0.0501392 0
M  V30 896 C 80.7674 2.07981 0.934231 0
M  V30 897 C 81.7514 0.984745 1.27246 0
M  V30 898 O 82.9434 1.24809 1.25506 0
M  V30 899 C 80.0724 2.62751 2.20945 0
M  V30 900 C 79.1584 3.79225 1.89865 0
M  V30 901 N 79.5494 4.89036 1.29142 0
M  V30 902 C 77.8474 3.88111 2.19741 0
M  V30 903 C 78.5484 5.70084 1.15669 0
M  V30 904 N 77.5244 5.17659 1.65923 0
M  V30 905 H 81.3264 2.90277 0.460053 0
M  V30 906 H 78.8404 1.61665 0.15434 0
M  V30 907 H 80.8374 2.97205 2.9236 0
M  V30 908 H 79.4974 1.81894 2.6897 0
M  V30 909 H 80.5084 5.08854 0.963756 0
M  V30 910 H 77.1854 3.18194 2.70293 0
M  V30 911 H 78.5754 6.68395 0.685356 0
M  V30 912 N 81.2955 -0.223234 1.56011 0
M  V30 913 C 82.2255 -1.27988 1.95298 0
M  V30 914 C 83.2065 -1.48976 0.820979 0
M  V30 915 O 84.3915 -1.61188 1.08315 0
M  V30 916 C 81.5215 -2.63 2.26822 0
M  V30 917 C 80.4755 -2.56671 3.42497 0
M  V30 918 C 79.8015 -3.95697 3.59622 0
M  V30 919 C 81.1015 -2.11601 4.77517 0
M  V30 920 H 82.7955 -0.953525 2.8381 0
M  V30 921 H 80.3415 -0.457244 1.36548 0
M  V30 922 H 82.2945 -3.37077 2.52898 0
M  V30 923 H 81.0185 -2.9732 1.35161 0
M  V30 924 H 79.6775 -1.85051 3.16467 0
M  V30 925 H 79.3255 -4.27322 2.6534 0
M  V30 926 H 79.0255 -3.92345 4.37424 0
M  V30 927 H 80.5495 -4.71438 3.88044 0
M  V30 928 H 81.9635 -2.7542 5.02809 0
M  V30 929 H 80.3605 -2.19311 5.5859 0
M  V30 930 H 81.4305 -1.06824 4.72987 0
M  V30 931 N 82.7736 -1.49793 -0.48987 0
M  V30 932 C 83.7206 -1.67281 -1.59014 0
M  V30 933 C 84.6906 -0.514177 -1.57941 0
M  V30 934 O 85.8756 -0.742533 -1.75759 0
M  V30 935 C 83.0156 -1.75569 -2.97102 0
M  V30 936 C 82.1286 -3.0281 -3.08107 0
M  V30 937 C 81.2636 -3.02008 -4.36995 0
M  V30 938 C 80.3026 -4.23782 -4.41673 0
M  V30 939 N 79.4396 -4.20826 -5.62005 0
M  V30 940 H 84.2796 -2.61224 -1.43409 0
M  V30 941 H 81.8166 -1.29508 -0.697565 0
M  V30 942 H 83.7746 -1.78354 -3.77155 0
M  V30 943 H 82.4046 -0.850827 -3.11385 0
M  V30 944 H 81.4566 -3.09584 -2.21047 0
M  V30 945 H 82.7686 -3.92801 -3.07423 0
M  V30 946 H 81.9226 -3.03418 -5.25378 0
M  V30 947 H 80.6616 -2.09815 -4.4026 0
M  V30 948 H 79.6666 -4.22604 -3.5169 0
M  V30 949 H 80.8916 -5.17181 -4.40115 0
M  V30 950 H 78.8376 -3.31476 -5.66091 0
M  V30 951 H 78.7546 -5.04564 -5.62984 0
M  V30 952 H 80.0226 -4.26355 -6.52565 0
M  V30 953 N 84.2517 0.741722 -1.39055 0
M  V30 954 C 85.4767 1.53607 -1.39354 0
M  V30 955 C 85.9017 1.88096 0.0116905 0
M  V30 956 O 85.2597 1.5143 0.996924 0
M  V30 957 C 85.3077 2.80441 -2.26682 0
M  V30 958 O 84.4117 3.76088 -1.69208 0
M  V30 959 H 83.7527 0.464142 -0.474835 0
M  V30 960 H 86.2827 0.915665 -1.82967 0
M  V30 961 H 86.2927 3.29246 -2.40959 0
M  V30 962 H 84.9677 2.5467 -3.2881 0
M  V30 963 H 83.5447 3.34833 -1.64138 0
M  V30 964 N 85.7298 1.2412 0.971189 0
M  V30 965 C 86.9758 1.09048 1.71698 0
M  V30 966 C 87.3308 -0.367442 1.88859 0
M  V30 967 O 86.6238 -1.26792 1.43646 0
M  V30 968 C 86.8178 1.75983 3.11071 0
M  V30 969 C 86.6468 3.28133 3.07504 0
M  V30 970 C 85.4168 3.97331 3.1218 0
M  V30 971 C 87.6148 4.24773 2.89952 0
M  V30 972 N 85.5968 5.3639 2.98596 0
M  V30 973 C 86.9678 5.50806 2.84627 0
M  V30 974 C 89.0228 4.15392 2.74506 0
M  V30 975 C 87.7258 6.68533 2.65437 0
M  V30 976 C 89.7518 5.32793 2.56682 0
M  V30 977 C 89.1138 6.57756 2.52063 0
M  V30 978 H 85.2128 0.453632 0.636979 0
M  V30 979 H 87.7968 1.56983 1.15171 0
M  V30 980 H 85.9678 1.30566 3.65796 0
M  V30 981 H 87.6998 1.53803 3.74335 0
M  V30 982 H 84.4548 3.48473 3.20724 0
M  V30 983 H 84.8788 6.09321 2.95054 0
M  V30 984 H 89.5208 3.19543 2.76861 0
M  V30 985 H 87.2388 7.64509 2.61825 0
M  V30 986 H 90.8248 5.27383 2.4568 0
M  V30 987 H 89.7048 7.4707 2.38446 0
M  V30 988 N 87.2079 -1.17134 1.05439 0
M  V30 989 C 88.1549 -2.21235 0.657539 0
M  V30 990 C 89.1249 -1.62551 -0.341543 0
M  V30 991 O 90.3099 -1.89379 -0.232393 0
M  V30 992 C 87.4499 -3.45076 0.0410575 0
M  V30 993 C 86.5629 -4.18042 1.08927 0
M  V30 994 C 85.6979 -5.29376 0.439848 0
M  V30 995 C 84.7369 -5.94132 1.4722 0
M  V30 996 N 83.8739 -6.96975 0.846756 0
M  V30 997 H 88.7139 -2.54534 1.54972 0
M  V30 998 H 86.2509 -1.25028 0.775006 0
M  V30 999 H 88.2089 -4.15862 -0.33383 0
M  V30 1000 H 86.8389 -3.12353 -0.814568 0
M  V30 1001 H 85.8909 -3.45945 1.58196 0
M  V30 1002 H 87.2029 -4.62306 1.87282 0
M  V30 1003 H 86.3569 -6.06699 0.0115125 0
M  V30 1004 H 85.0959 -4.86251 -0.375656 0
M  V30 1005 H 84.1009 -5.15538 1.91052 0
M  V30 1006 H 85.3259 -6.39337 2.28965 0
M  V30 1007 H 83.2719 -6.5598 0.0518075 0
M  V30 1008 H 83.1889 -7.39565 1.5678 0
M  V30 1009 H 84.4569 -7.78239 0.443277 0
M  V30 1010 N 88.686 -0.835752 -1.33615 0
M  V30 1011 C 89.911 -0.442389 -2.02627 0
M  V30 1012 C 90.336 0.947735 -1.62479 0
M  V30 1013 O 89.694 1.61907 -0.815826 0
M  V30 1014 C 89.742 -0.567216 -3.56111 0
M  V30 1015 O 88.846 0.407799 -4.10379 0
M  V30 1016 H 88.187 -0.180278 -0.639059 0
M  V30 1017 H 90.717 -1.12972 -1.70583 0
M  V30 1018 H 90.727 -0.447708 -4.05536 0
M  V30 1019 H 89.402 -1.58103 -3.84677 0
M  V30 1020 H 87.979 0.246107 -3.72087 0
M  V30 1021 N 90.1641 1.46063 -0.591896 0
M  V30 1022 C 91.3891 2.07226 -0.0850314 0
M  V30 1023 C 91.8141 1.43625 1.21463 0
M  V30 1024 O 91.1721 0.523305 1.73583 0
M  V30 1025 C 91.2201 3.60554 0.0576567 0
M  V30 1026 O 90.3241 3.97128 1.11188 0
M  V30 1027 H 89.6651 0.660615 -0.0669568 0
M  V30 1028 H 92.1951 1.8756 -0.81745 0
M  V30 1029 H 92.2051 4.07165 0.2609 0
M  V30 1030 H 90.8801 4.06235 -0.891416 0
M  V30 1031 H 89.4571 3.62213 0.886356 0
M  V30 1032 N 91.6422 0.330177 1.54103 0
M  V30 1033 C 93.0582 -0.0222371 1.59585 0
M  V30 1034 C 93.2582 -1.49902 1.34654 0
M  V30 1035 O 92.3142 -2.25592 1.13421 0
M  V30 1036 C 93.6272 0.401932 2.98002 0
M  V30 1037 C 95.1752 0.353145 3.11001 0
M  V30 1038 C 95.6502 0.752576 4.51775 0
M  V30 1039 N 97.1412 0.706239 4.57784 0
M  V30 1040 C 97.8762 0.987417 5.64834 0
M  V30 1041 N 97.3722 1.33607 6.79795 0
M  V30 1042 N 99.1652 0.91254 5.54643 0
M  V30 1043 H 91.3162 1.29228 1.68564 0
M  V30 1044 H 93.5792 0.525906 0.78875 0
M  V30 1045 H 93.2852 1.4311 3.21267 0
M  V30 1046 H 93.1592 -0.229699 3.765 0
M  V30 1047 H 95.5462 -0.666822 2.87467 0
M  V30 1048 H 95.6272 1.0198 2.34593 0
M  V30 1049 H 95.2712 1.77049 4.76042 0
M  V30 1050 H 95.2012 0.0635409 5.26562 0
M  V30 1051 H 97.6922 0.44889 3.75224 0
M  V30 1052 H 98.0052 1.53582 7.57385 0
M  V30 1053 H 96.3502 1.37439 6.81275 0
M  V30 1054 H 99.5412 0.639601 4.6371 0
M  V30 1055 H 99.7142 1.13503 6.37982 0
M  V30 1056 N 93.1203 -1.57491 0.0584922 0
M  V30 1057 C 94.3693 -1.92155 -0.613146 0
M  V30 1058 C 94.6823 -0.939334 -1.71569 0
M  V30 1059 O 95.8883 -1.17829 -2.44599 0
M  V30 1060 C 94.3443 -3.41303 -1.14195 0
M  V30 1061 C 93.9523 -4.47944 -0.0711265 0
M  V30 1062 C 95.6963 -3.84988 -1.78841 0
M  V30 1063 C 93.6033 -5.88212 -0.613225 0
M  V30 1064 H 92.5333 -0.717162 -0.232796 0
M  V30 1065 H 95.1843 -1.83049 0.12857 0
M  V30 1066 H 93.5663 -3.45437 -1.93621 0
M  V30 1067 H 94.7403 -4.55408 0.702836 0
M  V30 1068 H 93.0553 -4.13644 0.478313 0
M  V30 1069 H 95.6523 -4.87159 -2.20408 0
M  V30 1070 H 95.9953 -3.21632 -2.64308 0
M  V30 1071 H 96.5283 -3.83401 -1.06059 0
M  V30 1072 H 93.2673 -6.55183 0.203978 0
M  V30 1073 H 92.7873 -5.84294 -1.35501 0
M  V30 1074 H 94.4663 -6.37687 -1.09383 0
M  V30 1075 N 94.5984 0.214957 -1.56127 0
M  V30 1076 C 95.8454 0.938372 -1.79446 0
M  V30 1077 C 96.1734 1.8407 -0.628378 0
M  V30 1078 O 95.4284 1.91837 0.386925 0
M  V30 1079 C 95.7274 1.80314 -3.0858 0
M  V30 1080 C 95.3934 1.05349 -4.3842 0
M  V30 1081 C 94.0554 0.846435 -4.73697 0
M  V30 1082 C 96.4074 0.524588 -5.18553 0
M  V30 1083 C 93.7354 0.098683 -5.86617 0
M  V30 1084 C 96.0874 -0.209853 -6.32252 0
M  V30 1085 C 94.7514 -0.428102 -6.66126 0
M  V30 1086 H 94.0214 0.343375 -0.656639 0
M  V30 1087 H 96.6684 0.206077 -1.90388 0
M  V30 1088 H 94.9734 2.6035 -2.92789 0
M  V30 1089 H 96.6704 2.36513 -3.23825 0
M  V30 1090 H 93.2604 1.22486 -4.10725 0
M  V30 1091 H 97.4444 0.672008 -4.91729 0
M  V30 1092 H 92.7004 -0.0805753 -6.11347 0
M  V30 1093 H 96.8744 -0.627157 -6.9357 0
M  V30 1094 H 94.5014 -1.00944 -7.53468 0
M  V30 1095 N 96.0765 1.50051 0.48192 0
M  V30 1096 C 97.0065 1.71046 1.58951 0
M  V30 1097 C 97.9875 0.559288 1.60642 0
M  V30 1098 O 99.1725 0.797243 1.77081 0
M  V30 1099 C 96.3025 1.79462 2.97339 0
M  V30 1100 C 95.2565 2.94558 3.10515 0
M  V30 1101 C 94.5825 2.88105 4.50444 0
M  V30 1102 C 95.8825 4.35227 2.88747 0
M  V30 1103 H 97.5765 2.6378 1.41635 0
M  V30 1104 H 95.1225 1.26936 0.679942 0
M  V30 1105 H 97.0755 1.92734 3.74742 0
M  V30 1106 H 95.7995 0.833412 3.15788 0
M  V30 1107 H 94.4585 2.80918 2.35543 0
M  V30 1108 H 94.1065 1.89853 4.65795 0
M  V30 1109 H 93.8065 3.65366 4.60197 0
M  V30 1110 H 95.3305 3.03412 5.29881 0
M  V30 1111 H 96.7445 4.49449 3.55905 0
M  V30 1112 H 95.1415 5.13856 3.09955 0
M  V30 1113 H 96.2115 4.48347 1.84696 0
M  V30 1114 N 97.5546 -0.734337 1.39446 0
M  V30 1115 C 98.8016 -1.49391 1.36706 0
M  V30 1116 C 99.1296 -1.94465 -0.0367813 0
M  V30 1117 O 98.3846 -1.67154 -1.01774 0
M  V30 1118 C 98.6836 -2.74711 2.28623 0
M  V30 1119 C 98.3496 -2.48501 3.76242 0
M  V30 1120 C 97.0116 -2.41062 4.16464 0
M  V30 1121 C 99.3636 -2.26098 4.69606 0
M  V30 1122 C 96.6916 -2.09262 5.48112 0
M  V30 1123 C 99.0436 -1.95814 6.01531 0
M  V30 1124 C 97.7076 -1.86845 6.40816 0
M  V30 1125 H 96.9776 -0.546661 0.500243 0
M  V30 1126 H 99.6246 -0.842788 1.71957 0
M  V30 1127 H 97.9296 -3.44569 1.86492 0
M  V30 1128 H 99.6266 -3.32741 2.23796 0
M  V30 1129 H 96.2166 -2.55169 3.44364 0
M  V30 1130 H 100.401 -2.30812 4.39363 0
M  V30 1131 H 95.6566 -2.00841 5.77471 0
M  V30 1132 H 99.8306 -1.77488 6.73403 0
M  V30 1133 H 97.4576 -1.6197 7.42745 0
M  V30 1134 N 99.0327 -1.24633 -0.964593 0
M  V30 1135 C 99.9807 -1.03917 -2.08096 0
M  V30 1136 C 100.975 0.0268581 -1.69379 0
M  V30 1137 O 102.181 -0.127952 -1.79545 0
M  V30 1138 H 98.5557 -0.319044 -0.680966 0
M  V30 1139 H 100.527 -1.98581 -2.22729 0
M  V30 1140 C 99.2757 -0.663983 -3.41301 0
M  V30 1141 H 98.5987 -1.47605 -3.71555 0
M  V30 1142 H 100.039 -0.558663 -4.20303 0
M  V30 1143 C 98.4977 0.629169 -3.30973 0
M  V30 1144 O 99.0277 1.67404 -3.65156 0
M  V30 1145 N 97.2337 0.611057 -2.84103 0
M  V30 1146 H 96.7807 -0.239593 -2.56483 0
M  V30 1147 H 96.7387 1.47647 -2.77575 0
M  V30 1148 N 100.511 1.16574 -1.06058 0
M  V30 1149 C 101.441 2.23057 -0.690488 0
M  V30 1150 C 102.422 1.67141 0.315901 0
M  V30 1151 O 103.607 1.93253 0.191556 0
M  V30 1152 C 100.737 3.47222 -0.073625 0
M  V30 1153 C 99.6908 4.16016 -1.00573 0
M  V30 1154 C 99.0168 5.34104 -0.252289 0
M  V30 1155 C 100.317 4.67264 -2.33371 0
M  V30 1156 H 102.011 2.54271 -1.58072 0
M  V30 1157 H 99.5568 1.22218 -0.76149 0
M  V30 1158 H 101.51 4.20939 0.19714 0
M  V30 1159 H 100.234 3.15302 0.85161 0
M  V30 1160 H 98.8928 3.44223 -1.2612 0
M  V30 1161 H 98.5408 4.98437 0.675988 0
M  V30 1162 H 98.2408 5.81072 -0.873455 0
M  V30 1163 H 99.7648 6.10599 0.0109857 0
M  V30 1164 H 101.179 5.32573 -2.12223 0
M  V30 1165 H 99.5758 5.24843 -2.90963 0
M  V30 1166 H 100.646 3.83602 -2.96611 0
M  V30 1167 N 101.989 0.842826 1.3317 0
M  V30 1168 C 102.952 0.284065 2.27433 0
M  V30 1169 C 103.952 -0.54948 1.5112 0
M  V30 1170 O 105.142 -0.362699 1.70382 0
M  V30 1171 C 102.274 -0.599384 3.35589 0
M  V30 1172 H 103.467 1.11589 2.78366 0
M  V30 1173 H 101.02 0.616221 1.4364 0
M  V30 1174 H 101.755 -1.45349 2.89904 0
M  V30 1175 H 101.54 -0.00291266 3.921 0
M  V30 1176 H 103.03 -0.983488 4.05854 0
M  V30 1177 N 103.467 -1.45747 0.599634 0
M  V30 1178 C 104.713 -2.02592 0.0918643 0
M  V30 1179 C 105.046 -1.46806 -1.27128 0
M  V30 1180 O 104.321 -0.639658 -1.83681 0
M  V30 1181 C 104.604 -3.60073 0.0443398 0
M  V30 1182 C 104.457 -4.26208 1.43759 0
M  V30 1183 C 105.776 -4.35309 -0.647608 0
M  V30 1184 H 102.895 -0.736175 0.034857 0
M  V30 1185 H 105.537 -1.73694 0.770081 0
M  V30 1186 H 103.687 -3.84823 -0.533224 0
M  V30 1187 H 105.359 -4.12668 2.06162 0
M  V30 1188 H 103.602 -3.84916 2.00056 0
M  V30 1189 H 104.273 -5.35069 1.35665 0
M  V30 1190 H 106.749 -4.15805 -0.156776 0
M  V30 1191 H 105.625 -5.45038 -0.649942 0
M  V30 1192 H 105.886 -4.07598 -1.71219 0
M  V30 1193 N 104.945 -0.338344 -1.53925 0
M  V30 1194 C 105.908 0.508299 -2.23493 0
M  V30 1195 C 106.908 1.03175 -1.23335 0
M  V30 1196 O 108.098 0.921826 -1.47811 0
M  V30 1197 C 105.23 1.70754 -2.95052 0
M  V30 1198 H 106.423 -0.100058 -2.99733 0
M  V30 1199 H 103.976 -0.0896198 -1.56043 0
M  V30 1200 H 104.711 2.35474 -2.22986 0
M  V30 1201 H 104.496 1.33946 -3.68512 0
M  V30 1202 H 105.986 2.30818 -3.48013 0
M  V30 1203 N 106.423 1.57458 -0.0668435 0
M  V30 1204 C 107.7 1.8469 0.644132 0
M  V30 1205 C 108.08 0.958343 1.88093 0
M  V30 1206 O 107.428 0.0233579 2.28488 0
M  V30 1207 C 107.638 3.34767 0.986509 0
M  V30 1208 C 108.986 4.02159 1.36212 0
M  V30 1209 O 110.01 3.39484 1.07839 0
M  V30 1210 O 108.869 5.12694 1.89227 0
M  V30 1211 H 105.963 0.762816 0.319437 0
M  V30 1212 H 108.509 1.6942 -0.0973986 0
M  V30 1213 H 107.281 3.91151 0.107883 0
M  V30 1214 H 106.904 3.55281 1.78497 0
M  V30 1215 N 107.901 -0.206675 1.56239 0
M  V30 1216 C 109.148 -0.928842 1.79941 0
M  V30 1217 C 109.476 -1.83734 0.638131 0
M  V30 1218 O 108.731 -1.92039 -0.376746 0
M  V30 1219 C 109.03 -1.78675 3.09532 0
M  V30 1220 C 108.696 -1.03022 4.38973 0
M  V30 1221 C 107.358 -0.821302 4.74139 0
M  V30 1222 C 109.71 -0.497081 5.18824 0
M  V30 1223 C 107.038 -0.0675719 5.86661 0
M  V30 1224 C 109.39 0.24338 6.32132 0
M  V30 1225 C 108.054 0.463422 6.65889 0
M  V30 1226 H 107.324 -0.339887 0.658451 0
M  V30 1227 H 109.971 -0.195977 1.90495 0
M  V30 1228 H 108.276 -2.58794 2.94165 0
M  V30 1229 H 109.973 -2.34792 3.25075 0
M  V30 1230 H 106.563 -1.20306 4.11369 0
M  V30 1231 H 110.747 -0.645921 4.92079 0
M  V30 1232 H 106.003 0.112995 6.11296 0
M  V30 1233 H 110.177 0.66393 6.93228 0
M  V30 1234 H 107.804 1.04938 7.52922 0
M  V30 1235 N 109.379 -1.50304 -0.473955 0
M  V30 1236 C 110.309 -1.71886 -1.58042 0
M  V30 1237 C 111.29 -0.567799 -1.60344 0
M  V30 1238 O 112.475 -0.806623 -1.76656 0
M  V30 1239 C 109.605 -1.81036 -2.96384 0
M  V30 1240 C 108.559 -2.962 -3.08949 0
M  V30 1241 C 107.885 -2.9049 -4.48909 0
M  V30 1242 C 109.185 -4.36752 -2.86434 0
M  V30 1243 H 110.879 -2.64527 -1.40234 0
M  V30 1244 H 108.425 -1.27295 -0.673201 0
M  V30 1245 H 110.378 -1.94719 -3.73714 0
M  V30 1246 H 109.102 -0.850147 -3.15341 0
M  V30 1247 H 107.761 -2.82164 -2.3405 0
M  V30 1248 H 107.409 -1.92321 -4.64781 0
M  V30 1249 H 107.109 -3.67802 -4.58253 0
M  V30 1250 H 108.633 -3.06218 -5.28264 0
M  V30 1251 H 110.047 -4.5133 -3.53517 0
M  V30 1252 H 108.444 -5.15493 -3.07225 0
M  V30 1253 H 109.514 -4.49321 -1.82316 0
M  V30 1254 N 110.857 0.726932 -1.39834 0
M  V30 1255 C 111.787 1.85405 -1.41941 0
M  V30 1256 C 112.768 1.67751 -0.281728 0
M  V30 1257 O 113.953 1.8795 -0.488717 0
M  V30 1258 C 111.083 3.23243 -1.2701 0
M  V30 1259 C 110.037 3.55549 -2.38262 0
M  V30 1260 C 109.363 4.9241 -2.08415 0
M  V30 1261 C 110.663 3.577 -3.80589 0
M  V30 1262 H 112.357 1.83899 -2.36266 0
M  V30 1263 H 109.903 0.883349 -1.13723 0
M  V30 1264 H 111.856 4.01775 -1.27103 0
M  V30 1265 H 110.58 3.25296 -0.291564 0
M  V30 1266 H 109.239 2.79351 -2.37399 0
M  V30 1267 H 108.887 4.91052 -1.0898 0
M  V30 1268 H 108.587 5.14992 -2.82943 0
M  V30 1269 H 110.111 5.73289 -2.10171 0
M  V30 1270 H 111.525 4.26293 -3.83337 0
M  V30 1271 H 109.922 3.91804 -4.54543 0
M  V30 1272 H 110.992 2.57328 -4.10987 0
M  V30 1273 N 112.336 1.25143 0.95797 0
M  V30 1274 C 113.585 1.0909 1.69654 0
M  V30 1275 C 113.898 -0.368548 1.92097 0
M  V30 1276 O 115.104 -0.649455 2.63618 0
M  V30 1277 C 113.56 1.90395 3.05414 0
M  V30 1278 C 113.168 3.4081 2.90779 0
M  V30 1279 C 114.912 1.82901 3.83076 0
M  V30 1280 C 112.819 4.14423 4.21909 0
M  V30 1281 H 111.749 0.404625 0.636235 0
M  V30 1282 H 114.4 1.4931 1.06672 0
M  V30 1283 H 112.782 1.42996 3.69281 0
M  V30 1284 H 113.956 3.95859 2.35865 0
M  V30 1285 H 112.271 3.49361 2.26575 0
M  V30 1286 H 114.868 2.35196 4.80195 0
M  V30 1287 H 115.211 0.796224 4.08615 0
M  V30 1288 H 115.744 2.28033 3.25954 0
M  V30 1289 H 112.483 5.18102 4.01561 0
M  V30 1290 H 112.003 3.64159 4.76601 0
M  V30 1291 H 113.682 4.21956 4.90471 0
M  V30 1292 N 113.814 -1.1601 1.06675 0
M  V30 1293 C 115.063 -1.85973 0.780818 0
M  V30 1294 C 115.376 -1.82819 -0.695444 0
M  V30 1295 O 116.582 -2.484 -1.09589 0
M  V30 1296 C 115.038 -3.33757 1.34665 0
M  V30 1297 C 114.646 -3.45374 2.85343 0
M  V30 1298 C 116.39 -4.0895 1.13843 0
M  V30 1299 C 114.297 -4.87266 3.35151 0
M  V30 1300 H 113.227 -0.696661 0.288407 0
M  V30 1301 H 115.878 -1.30903 1.28595 0
M  V30 1302 H 114.26 -3.88456 0.769274 0
M  V30 1303 H 115.434 -3.00816 3.49065 0
M  V30 1304 H 113.749 -2.83619 3.04876 0
M  V30 1305 H 116.346 -5.13654 1.4854 0
M  V30 1306 H 116.689 -4.16229 0.0770282 0
M  V30 1307 H 117.222 -3.605 1.68179 0
M  V30 1308 H 113.961 -4.85168 4.40786 0
M  V30 1309 H 113.481 -5.32433 2.76179 0
M  V30 1310 H 115.16 -5.56097 3.30704 0
M  V30 1311 N 115.292 -0.849877 -1.32721 0
M  V30 1312 C 116.532 -0.457146 -1.99222 0
M  V30 1313 C 116.896 0.968038 -1.6581 0
M  V30 1314 O 118.097 1.46507 -2.25364 0
M  V30 1315 C 116.368 -0.683966 -3.50794 0
M  V30 1316 S 117.927 -0.388095 -4.3708 0
M  V30 1317 H 114.745 -0.171464 -0.690015 0
M  V30 1318 H 117.347 -1.10155 -1.61512 0
M  V30 1319 H 116.051 -1.72038 -3.726 0
M  V30 1320 H 115.582 -0.0258086 -3.93392 0
M  V30 1321 H 117.597 0.787791 -4.89906 0
M  V30 1322 N 116.77 1.45427 -0.607355 0
M  V30 1323 C 117.7 2.3329 0.0989352 0
M  V30 1324 C 118.681 1.46816 0.859007 0
M  V30 1325 O 119.866 1.75588 0.829604 0
M  V30 1326 C 116.996 3.29518 1.09705 0
M  V30 1327 C 115.95 4.25626 0.450206 0
M  V30 1328 C 115.276 5.11542 1.55655 0
M  V30 1329 C 116.576 5.18505 -0.628455 0
M  V30 1330 H 118.27 2.92595 -0.634716 0
M  V30 1331 H 115.816 1.40696 -0.306681 0
M  V30 1332 H 117.769 3.89855 1.59971 0
M  V30 1333 H 116.493 2.68372 1.86129 0
M  V30 1334 H 115.152 3.66586 -0.0315886 0
M  V30 1335 H 114.8 4.46765 2.31107 0
M  V30 1336 H 114.5 5.76647 1.12925 0
M  V30 1337 H 116.024 5.74748 2.06148 0
M  V30 1338 H 117.438 5.72916 -0.209877 0
M  V30 1339 H 115.835 5.92085 -0.977489 0
M  V30 1340 H 116.905 4.60948 -1.50514 0
M  V30 1341 N 118.248 0.346503 1.53744 0
M  V30 1342 C 119.659 -0.136779 1.86198 0
M  V30 1343 C 120.01 -1.49749 1.26766 0
M  V30 1344 O 119.135 -2.08417 0.582355 0
M  V30 1345 C 119.73 -0.254966 3.37839 0
M  V30 1346 C 118.289 -0.682482 3.70161 0
M  V30 1347 C 117.436 0.181981 2.76702 0
M  V30 1348 H 120.387 0.565994 1.48264 0
M  V30 1349 H 120.408 -1.08195 3.64793 0
M  V30 1350 H 119.92 0.735526 3.81066 0
M  V30 1351 H 118.021 -1.68189 3.3248 0
M  V30 1352 H 118.134 -0.470326 4.76786 0
M  V30 1353 H 116.498 -0.34615 2.52337 0
M  V30 1354 H 117.281 1.16966 3.2276 0
M  V30 1355 N 119.726 -1.57421 0.075193 0
M  V30 1356 C 120.973 -1.93618 -0.593146 0
M  V30 1357 C 121.301 -0.955484 -1.69413 0
M  V30 1358 O 120.556 0.0283251 -1.9568 0
M  V30 1359 C 120.855 -3.36428 -1.20626 0
M  V30 1360 C 120.521 -4.50307 -0.231078 0
M  V30 1361 C 119.183 -4.81186 0.0371936 0
M  V30 1362 C 121.535 -5.19374 0.435888 0
M  V30 1363 C 118.863 -5.78466 0.979461 0
M  V30 1364 C 121.215 -6.17665 1.3665 0
M  V30 1365 C 119.879 -6.46958 1.6432 0
M  V30 1366 H 119.149 -0.708499 -0.217047 0
M  V30 1367 H 121.796 -1.90937 0.146793 0
M  V30 1368 H 120.101 -3.35592 -2.02201 0
M  V30 1369 H 121.798 -3.61727 -1.73073 0
M  V30 1370 H 118.388 -4.26227 -0.450357 0
M  V30 1371 H 122.572 -4.95711 0.241748 0
M  V30 1372 H 117.828 -5.99487 1.20106 0
M  V30 1373 H 122.002 -6.70284 1.88924 0
M  V30 1374 H 119.629 -7.2215 2.37494 0
M  V30 1375 N 121.204 0.198386 -1.56346 0
M  V30 1376 C 122.134 1.24865 -1.9731 0
M  V30 1377 C 123.115 1.47651 -0.844576 0
M  V30 1378 O 124.3 1.59444 -1.10866 0
M  V30 1379 C 121.43 2.59358 -2.30977 0
M  V30 1380 C 120.384 2.5119 -3.46537 0
M  V30 1381 C 119.71 3.89926 -3.65871 0
M  V30 1382 C 121.01 2.03977 -4.80823 0
M  V30 1383 H 122.704 0.908252 -2.85291 0
M  V30 1384 H 120.25 0.435462 -1.37258 0
M  V30 1385 H 122.203 3.33011 -2.58228 0
M  V30 1386 H 120.927 2.95132 -1.39874 0
M  V30 1387 H 119.586 1.79993 -3.19371 0
M  V30 1388 H 119.234 4.23046 -2.72105 0
M  V30 1389 H 118.934 3.85336 -4.4361 0
M  V30 1390 H 120.458 4.65205 -3.95495 0
M  V30 1391 H 121.872 2.67386 -5.07127 0
M  V30 1392 H 120.269 2.10397 -5.62008 0
M  V30 1393 H 121.339 0.992861 -4.74626 0
M  V30 1394 N 122.682 1.50554 0.465978 0
M  V30 1395 C 123.615 1.64436 1.58227 0
M  V30 1396 C 124.593 0.492367 1.54966 0
M  V30 1397 O 125.777 0.712536 1.74514 0
M  V30 1398 C 122.904 1.63165 2.96808 0
M  V30 1399 C 121.95 2.83987 3.18204 0
M  V30 1400 S 122.783 4.45219 2.97557 0
M  V30 1401 C 123.939 4.46649 4.3847 0
M  V30 1402 H 124.172 2.58861 1.46213 0
M  V30 1403 H 121.705 1.3988 0.653678 0
M  V30 1404 H 123.663 1.63116 3.76701 0
M  V30 1405 H 122.324 0.69967 3.06208 0
M  V30 1406 H 121.517 2.79416 4.19455 0
M  V30 1407 H 121.119 2.81629 2.46092 0
M  V30 1408 H 123.411 4.20526 5.31191 0
M  V30 1409 H 124.354 5.48295 4.48082 0
M  V30 1410 H 124.762 3.76296 4.20787 0
M  V30 1411 N 124.16 -0.719506 1.40217 0
M  V30 1412 C 125.437 -1.47221 1.28784 0
M  V30 1413 C 125.817 -2.10883 -0.0956067 0
M  V30 1414 O 125.165 -1.99833 -1.10811 0
M  V30 1415 C 125.375 -2.5111 2.42373 0
M  V30 1416 C 126.723 -3.17053 2.82423 0
M  V30 1417 O 127.747 -2.61429 2.41937 0
M  V30 1418 O 126.606 -4.17742 3.52355 0
M  V30 1419 H 123.7 -0.654491 0.50554 0
M  V30 1420 H 126.246 -0.752014 1.52128 0
M  V30 1421 H 125.018 -2.02556 3.34793 0
M  V30 1422 H 124.641 -3.3067 2.20778 0
M  V30 1423 N 125.638 -1.25649 -0.95132 0
M  V30 1424 C 126.586 -1.06118 -2.06982 0
M  V30 1425 C 127.58 0.00889169 -1.69398 0
M  V30 1426 O 128.786 -0.146988 -1.79399 0
M  V30 1427 H 125.161 -0.326248 -0.677544 0
M  V30 1428 H 127.132 -2.00932 -2.2061 0
M  V30 1429 C 125.881 -0.700145 -3.40578 0
M  V30 1430 H 125.204 -1.51537 -3.69968 0
M  V30 1431 H 126.644 -0.603211 -4.19687 0
M  V30 1432 C 125.103 0.59403 -3.31622 0
M  V30 1433 O 125.633 1.63522 -3.66911 0
M  V30 1434 N 123.839 0.58089 -2.84735 0
M  V30 1435 H 123.386 -0.266783 -2.56215 0
M  V30 1436 H 123.344 1.44695 -2.79125 0
M  V30 1437 N 127.117 1.15442 -1.07289 0
M  V30 1438 C 128.347 1.89821 -0.815576 0
M  V30 1439 C 128.755 1.7823 0.634867 0
M  V30 1440 O 128.098 1.13152 1.44715 0
M  V30 1441 C 128.16 3.40817 -1.14385 0
M  V30 1442 C 127.824 3.76193 -2.59476 0
M  V30 1443 C 128.821 3.77269 -3.57721 0
M  V30 1444 C 126.506 4.0652 -2.95037 0
M  V30 1445 C 128.5 4.08176 -4.89562 0
M  V30 1446 C 126.187 4.37092 -4.27076 0
M  V30 1447 C 127.185 4.37902 -5.24148 0
M  V30 1448 O 126.873 4.67741 -6.53815 0
M  V30 1449 H 126.605 0.608465 -0.294528 0
M  V30 1450 H 129.159 1.472 -1.43252 0
M  V30 1451 H 127.389 3.83835 -0.469865 0
M  V30 1452 H 129.078 3.96485 -0.869179 0
M  V30 1453 H 129.844 3.5394 -3.3159 0
M  V30 1454 H 125.723 4.05049 -2.20128 0
M  V30 1455 H 129.267 4.08723 -5.65324 0
M  V30 1456 H 125.164 4.59889 -4.5296 0
M  V30 1457 H 125.932 4.85509 -6.58957 0
M  V30 1458 N 128.595 0.856903 1.32268 0
M  V30 1459 C 129.841 0.462069 1.97466 0
M  V30 1460 C 130.174 -0.980298 1.67642 0
M  V30 1461 O 129.449 -1.68824 0.965858 0
M  V30 1462 C 129.732 0.704336 3.53145 0
M  V30 1463 C 129.585 2.19529 3.9259 0
M  V30 1464 C 130.904 0.1622 4.39801 0
M  V30 1465 H 128.023 0.169357 0.717278 0
M  V30 1466 H 130.665 1.07574 1.56614 0
M  V30 1467 H 128.815 0.181999 3.88073 0
M  V30 1468 H 130.487 2.78387 3.67829 0
M  V30 1469 H 128.73 2.67292 3.41668 0
M  V30 1470 H 129.401 2.31549 5.01088 0
M  V30 1471 H 131.877 0.608905 4.11621 0
M  V30 1472 H 130.753 0.361265 5.4771 0
M  V30 1473 H 131.014 -0.935158 4.32096 0
M  V30 1474 N 130.073 -1.45103 0.615059 0
M  V30 1475 C 131.489 -1.57137 0.279322 0
M  V30 1476 C 131.689 -1.60523 -1.21797 0
M  V30 1477 O 130.745 -1.53956 -2.00134 0
M  V30 1478 C 132.058 -2.85062 0.957083 0
M  V30 1479 C 133.606 -2.98749 0.933706 0
M  V30 1480 C 134.081 -4.29455 1.59162 0
M  V30 1481 N 135.572 -4.36231 1.55746 0
M  V30 1482 C 136.307 -5.36051 2.0356 0
M  V30 1483 N 135.803 -6.42367 2.59494 0
M  V30 1484 N 137.596 -5.27456 1.94284 0
M  V30 1485 H 129.747 -1.41148 1.58717 0
M  V30 1486 H 132.01 -0.675331 0.665306 0
M  V30 1487 H 131.716 -2.88488 2.01166 0
M  V30 1488 H 131.59 -3.7407 0.48494 0
M  V30 1489 H 133.977 -2.94886 -0.112347 0
M  V30 1490 H 134.058 -2.11132 1.44419 0
M  V30 1491 H 133.702 -4.34077 2.63704 0
M  V30 1492 H 133.632 -5.15901 1.0561 0
M  V30 1493 H 136.123 -3.60011 1.14893 0
M  V30 1494 H 136.436 -7.14793 2.93752 0
M  V30 1495 H 134.781 -6.43097 2.63537 0
M  V30 1496 H 137.972 -4.43308 1.5032 0
M  V30 1497 H 138.145 -6.05099 2.3186 0
M  V30 1498 N 131.551 -0.354651 -1.53558 0
M  V30 1499 C 132.967 -0.00315426 -1.596 0
M  V30 1500 C 133.167 1.47741 -1.37021 0
M  V30 1501 O 132.223 2.23759 -1.16996 0
M  V30 1502 C 133.536 -0.44929 -2.97325 0
M  V30 1503 C 135.084 -0.402578 -3.104 0
M  V30 1504 C 135.559 -0.824355 -4.5052 0
M  V30 1505 N 137.05 -0.778979 -4.56603 0
M  V30 1506 C 137.785 -1.07715 -5.63192 0
M  V30 1507 N 137.281 -1.44405 -6.77583 0
M  V30 1508 N 139.074 -1.00066 -5.53121 0
M  V30 1509 H 131.225 -1.31893 -1.66487 0
M  V30 1510 H 133.488 -0.538388 -0.780284 0
M  V30 1511 H 133.194 -1.48202 -3.1895 0
M  V30 1512 H 133.068 0.169772 -3.76818 0
M  V30 1513 H 135.455 0.621004 -2.88492 0
M  V30 1514 H 135.536 -1.05699 -2.32941 0
M  V30 1515 H 135.18 -1.846 -4.73165 0
M  V30 1516 H 135.11 -0.147304 -5.26394 0
M  V30 1517 H 137.601 -0.508528 -3.74463 0
M  V30 1518 H 137.914 -1.65612 -7.54846 0
M  V30 1519 H 136.259 -1.4826 -6.79002 0
M  V30 1520 H 139.45 -0.713293 -4.62633 0
M  V30 1521 H 139.623 -1.23638 -6.36096 0
M  V30 1522 N 133.029 1.57378 -0.0835403 0
M  V30 1523 C 134.275 1.95025 0.577664 0
M  V30 1524 C 134.63 0.964049 1.66505 0
M  V30 1525 O 133.923 -0.0118235 1.91596 0
M  V30 1526 C 134.117 3.37063 1.1884 0
M  V30 1527 C 133.946 4.49409 0.16171 0
M  V30 1528 C 132.716 5.04642 -0.257756 0
M  V30 1529 C 134.914 5.10722 -0.605634 0
M  V30 1530 N 132.896 6.00537 -1.27393 0
M  V30 1531 C 134.267 6.02225 -1.47395 0
M  V30 1532 C 136.322 4.93501 -0.660418 0
M  V30 1533 C 135.025 6.78355 -2.39221 0
M  V30 1534 C 137.051 5.70283 -1.56623 0
M  V30 1535 C 136.413 6.61444 -2.4222 0
M  V30 1536 H 132.512 0.760512 0.182058 0
M  V30 1537 H 135.096 1.94013 -0.163419 0
M  V30 1538 H 133.267 3.3879 1.89936 0
M  V30 1539 H 134.999 3.61917 1.81103 0
M  V30 1540 H 131.754 4.73428 0.127702 0
M  V30 1541 H 132.178 6.53184 -1.77987 0
M  V30 1542 H 136.82 4.22798 -0.0128221 0
M  V30 1543 H 134.538 7.48327 -3.05011 0
M  V30 1544 H 138.124 5.58976 -1.61361 0
M  V30 1545 H 137.004 7.1982 -3.11174 0
M  V30 1546 N 134.507 -0.190092 1.56449 0
M  V30 1547 C 135.784 -0.935886 1.71757 0
M  V30 1548 C 136.164 -2.01173 0.639726 0
M  V30 1549 O 135.512 -2.25827 -0.348502 0
M  V30 1550 C 135.722 -1.51775 3.1427 0
M  V30 1551 C 137.07 -1.99794 3.74656 0
M  V30 1552 O 138.094 -1.61607 3.1743 0
M  V30 1553 O 136.953 -2.70079 4.751 0
M  V30 1554 H 134.047 -0.439229 0.700719 0
M  V30 1555 H 136.593 -0.179395 1.68749 0
M  V30 1556 H 135.365 -0.742505 3.84191 0
M  V30 1557 H 134.988 -2.33894 3.21527 0
M  V30 1558 N 135.985 -1.50799 -0.457987 0
M  V30 1559 C 137.231 -1.63648 -1.20792 0
M  V30 1560 C 137.586 -0.338662 -1.89396 0
M  V30 1561 O 136.879 0.664291 -1.79716 0
M  V30 1562 C 137.073 -2.76358 -2.2663 0
M  V30 1563 C 136.902 -4.16974 -1.68411 0
M  V30 1564 C 135.672 -4.83199 -1.47807 0
M  V30 1565 C 137.87 -5.00774 -1.17176 0
M  V30 1566 N 135.852 -6.07991 -0.849692 0
M  V30 1567 C 137.223 -6.16397 -0.667403 0
M  V30 1568 C 139.278 -4.86452 -1.06155 0
M  V30 1569 C 137.981 -7.19272 -0.0636908 0
M  V30 1570 C 140.007 -5.89515 -0.471759 0
M  V30 1571 C 139.369 -7.04397 0.0221557 0
M  V30 1572 H 135.468 -0.652888 -0.43042 0
M  V30 1573 H 138.052 -1.87962 -0.507785 0
M  V30 1574 H 136.223 -2.53744 -2.94056 0
M  V30 1575 H 137.955 -2.78496 -2.93636 0
M  V30 1576 H 134.71 -4.40714 -1.73403 0
M  V30 1577 H 135.134 -6.74733 -0.553537 0
M  V30 1578 H 139.776 -3.97907 -1.42932 0
M  V30 1579 H 137.494 -8.07481 0.316253 0
M  V30 1580 H 141.08 -5.805 -0.388671 0
M  V30 1581 H 139.96 -7.82782 0.471375 0
M  V30 1582 N 137.463 0.71206 -1.40597 0
M  V30 1583 C 138.41 1.82613 -1.41142 0
M  V30 1584 C 139.38 1.63925 -0.267903 0
M  V30 1585 O 140.565 1.85009 -0.466495 0
M  V30 1586 C 137.705 3.20354 -1.28324 0
M  V30 1587 C 136.818 3.50589 -2.52411 0
M  V30 1588 C 135.953 4.77855 -2.32009 0
M  V30 1589 C 134.992 5.01005 -3.51654 0
M  V30 1590 N 134.129 6.19487 -3.30425 0
M  V30 1591 H 138.969 1.81482 -2.36365 0
M  V30 1592 H 136.506 0.886475 -1.17388 0
M  V30 1593 H 138.464 3.99899 -1.18899 0
M  V30 1594 H 137.094 3.20705 -0.367189 0
M  V30 1595 H 136.146 2.65573 -2.72351 0
M  V30 1596 H 137.458 3.63604 -3.41458 0
M  V30 1597 H 136.612 5.65424 -2.19956 0
M  V30 1598 H 135.351 4.67056 -1.40392 0
M  V30 1599 H 134.356 4.1189 -3.64179 0
M  V30 1600 H 135.581 5.13674 -4.44202 0
M  V30 1601 H 133.527 6.09932 -2.41494 0
M  V30 1602 H 133.444 6.33194 -4.13039 0
M  V30 1603 H 134.712 7.09834 -3.22113 0
M  V30 1604 N 138.941 1.26152 0.944643 0
M  V30 1605 C 140.188 1.11492 1.69044 0
M  V30 1606 C 140.516 -0.342366 1.91463 0
M  V30 1607 O 139.771 -1.26812 1.49054 0
M  V30 1608 C 140.07 1.82541 3.07268 0
M  V30 1609 C 139.736 3.32445 3.04616 0
M  V30 1610 C 138.398 3.73337 3.036 0
M  V30 1611 C 140.75 4.28171 2.97185 0
M  V30 1612 C 138.078 5.08348 2.92915 0
M  V30 1613 C 140.43 5.63218 2.88041 0
M  V30 1614 C 139.094 6.03426 2.85366 0
M  V30 1615 H 138.364 0.407977 0.618576 0
M  V30 1616 H 141.011 1.56551 1.10291 0
M  V30 1617 H 139.316 1.29941 3.69625 0
M  V30 1618 H 141.013 1.68642 3.63815 0
M  V30 1619 H 137.603 2.99915 3.06185 0
M  V30 1620 H 141.787 3.97563 2.97081 0
M  V30 1621 H 137.043 5.38667 2.89219 0
M  V30 1622 H 141.217 6.37078 2.81254 0
M  V30 1623 H 138.844 7.07999 2.76842 0
M  V30 1624 N 140.419 -1.14872 1.07899 0
M  V30 1625 C 141.667 -1.85422 0.803941 0
M  V30 1626 C 141.988 -1.83051 -0.67211 0
M  V30 1627 O 141.258 -1.27532 -1.48703 0
M  V30 1628 H 139.838 -0.686537 0.294408 0
M  V30 1629 H 142.5 -1.39226 1.3639 0
M  V30 1630 H 141.596 -2.90399 1.14346 0
M  V30 1631 N 141.898 -0.863906 -1.31812 0
M  V30 1632 C 143.175 -0.39275 -1.91616 0
M  V30 1633 C 143.555 1.12461 -1.7865 0
M  V30 1634 O 142.903 1.95045 -1.19037 0
M  V30 1635 C 143.113 -0.867385 -3.38049 0
M  V30 1636 C 144.461 -0.889966 -4.15168 0
M  V30 1637 O 145.485 -0.812635 -3.46806 0
M  V30 1638 O 144.344 -1.00079 -5.37258 0
M  V30 1639 H 141.438 -0.116358 -0.818773 0
M  V30 1640 H 143.984 -0.951418 -1.40521 0
M  V30 1641 H 142.756 -1.91081 -3.41473 0
M  V30 1642 H 142.379 -0.286687 -3.96565 0
M  V30 1643 N 143.376 1.44774 -0.622745 0
M  V30 1644 C 144.625 2.01334 -0.121397 0
M  V30 1645 C 144.938 1.49505 1.26125 0
M  V30 1646 O 146.144 1.98139 1.85616 0
M  V30 1647 C 144.6 3.59516 -0.166298 0
M  V30 1648 C 144.208 4.20342 -1.54974 0
M  V30 1649 C 145.952 4.23582 0.279021 0
M  V30 1650 C 143.859 5.70721 -1.55021 0
M  V30 1651 H 142.789 0.752851 -0.0416172 0
M  V30 1652 H 145.44 1.66083 -0.780309 0
M  V30 1653 H 143.822 3.92027 0.559557 0
M  V30 1654 H 144.996 3.99381 -2.29851 0
M  V30 1655 H 143.311 3.68529 -1.93843 0
M  V30 1656 H 145.908 5.33868 0.298083 0
M  V30 1657 H 146.251 3.95327 1.30471 0
M  V30 1658 H 146.784 3.95843 -0.394063 0
M  V30 1659 H 143.523 6.03698 -2.55399 0
M  V30 1660 H 143.043 5.93829 -0.844245 0
M  V30 1661 H 144.722 6.34203 -1.28047 0
M  V30 1662 N 144.854 0.36279 1.53368 0
M  V30 1663 C 146.265 -0.117022 1.86333 0
M  V30 1664 C 146.616 -1.48397 1.28347 0
M  V30 1665 O 145.741 -2.07787 0.604428 0
M  V30 1666 C 146.336 -0.21912 3.38091 0
M  V30 1667 C 144.895 -0.643184 3.70864 0
M  V30 1668 C 144.042 0.211318 2.76494 0
M  V30 1669 H 146.993 0.581687 1.47655 0
M  V30 1670 H 147.014 -1.04319 3.6592 0
M  V30 1671 H 146.526 0.775902 3.80265 0
M  V30 1672 H 144.627 -1.64654 3.34245 0
M  V30 1673 H 144.74 -0.41973 4.77258 0
M  V30 1674 H 143.104 -0.319367 2.5269 0
M  V30 1675 H 143.887 1.20383 3.21501 0
M  V30 1676 N 146.332 -1.57332 0.0918853 0
M  V30 1677 C 147.572 -1.96117 -0.575988 0
M  V30 1678 C 147.936 -0.972499 -1.65549 0
M  V30 1679 O 149.137 -1.24872 -2.38034 0
M  V30 1680 C 147.408 -3.39407 -1.11973 0
M  V30 1681 S 148.967 -4.00185 -1.79992 0
M  V30 1682 H 145.785 -0.685682 -0.188045 0
M  V30 1683 H 148.387 -1.94755 0.170525 0
M  V30 1684 H 147.091 -4.09131 -0.322504 0
M  V30 1685 H 146.622 -3.44358 -1.90214 0
M  V30 1686 H 148.637 -3.88728 -3.08391 0
M  V30 1687 N 147.81 0.181792 -1.56548 0
M  V30 1688 C 149.226 0.53316 -1.50431 0
M  V30 1689 C 149.426 1.85184 -0.794297 0
M  V30 1690 O 148.482 2.50058 -0.350318 0
M  V30 1691 C 149.795 0.575597 -2.9514 0
M  V30 1692 C 151.343 0.663519 -3.05886 0
M  V30 1693 C 151.818 0.736946 -4.52032 0
M  V30 1694 N 153.309 0.800118 -4.56237 0
M  V30 1695 C 154.044 0.877327 -5.66649 0
M  V30 1696 N 153.54 0.916016 -6.86718 0
M  V30 1697 N 155.333 0.915542 -5.54594 0
M  V30 1698 H 147.484 -0.683025 -2.01118 0
M  V30 1699 H 149.747 -0.244988 -0.915797 0
M  V30 1700 H 149.453 -0.324482 -3.502 0
M  V30 1701 H 149.327 1.42572 -3.49218 0
M  V30 1702 H 151.714 1.55403 -2.50867 0
M  V30 1703 H 151.795 -0.21307 -2.54911 0
M  V30 1704 H 151.439 -0.149262 -5.07681 0
M  V30 1705 H 151.369 1.62953 -5.00753 0
M  V30 1706 H 153.86 0.778926 -3.69785 0
M  V30 1707 H 154.173 0.975813 -7.66614 0
M  V30 1708 H 152.518 0.884469 -6.89349 0
M  V30 1709 H 155.709 0.882245 -4.59711 0
M  V30 1710 H 155.882 0.972253 -6.40665 0
M  V30 1711 N 149.288 1.51039 0.449983 0
M  V30 1712 C 150.218 1.74379 1.55288 0
M  V30 1713 C 151.199 0.593236 1.5942 0
M  V30 1714 O 152.384 0.834625 1.7535 0
M  V30 1715 C 149.514 1.85728 2.93466 0
M  V30 1716 C 148.468 3.01078 3.04197 0
M  V30 1717 C 147.794 2.97595 4.44231 0
M  V30 1718 C 149.094 4.41254 2.7945 0
M  V30 1719 H 150.788 2.66725 1.36008 0
M  V30 1720 H 148.334 1.2835 0.652864 0
M  V30 1721 H 150.287 2.0064 3.70569 0
M  V30 1722 H 149.011 0.900207 3.13949 0
M  V30 1723 H 147.67 2.85851 2.29531 0
M  V30 1724 H 147.318 1.99691 4.61663 0
M  V30 1725 H 147.018 3.75046 4.52343 0
M  V30 1726 H 148.542 3.14583 5.23326 0
M  V30 1727 H 149.956 4.56897 3.46292 0
M  V30 1728 H 148.353 5.20315 2.98985 0
M  V30 1729 H 149.423 4.52164 1.75144 0
M  V30 1730 N 150.766 -0.704594 1.40972 0
M  V30 1731 C 151.699 -1.82861 1.36518 0
M  V30 1732 C 152.677 -1.6091 0.23382 0
M  V30 1733 O 153.861 -1.83778 0.419271 0
M  V30 1734 C 150.988 -3.1939 1.12729 0
M  V30 1735 C 150.034 -3.60148 2.28463 0
M  V30 1736 S 150.867 -3.65994 3.90907 0
M  V30 1737 C 152.023 -5.05264 3.69403 0
M  V30 1738 H 152.256 -1.86361 2.3164 0
M  V30 1739 H 149.789 -0.872439 1.27389 0
M  V30 1740 H 151.747 -3.98211 0.996893 0
M  V30 1741 H 150.408 -3.1351 0.192427 0
M  V30 1742 H 149.601 -4.59309 2.07489 0
M  V30 1743 H 149.203 -2.88612 2.37863 0
M  V30 1744 H 151.495 -5.92504 3.28551 0
M  V30 1745 H 152.438 -5.31278 4.68134 0
M  V30 1746 H 152.846 -4.76377 3.02862 0
M  V30 1747 N 152.244 -1.26651 -0.937939 0
M  V30 1748 C 153.174 -1.10993 -2.05433 0
M  V30 1749 C 154.155 -0.0142161 -1.70094 0
M  V30 1750 O 155.34 -0.186837 -1.93299 0
M  V30 1751 C 152.47 -0.745561 -3.39203 0
M  V30 1752 C 151.424 -1.79337 -3.88616 0
M  V30 1753 C 150.75 -1.28324 -5.19073 0
M  V30 1754 C 152.05 -3.19553 -4.13138 0
M  V30 1755 H 153.744 -2.0438 -2.1879 0
M  V30 1756 H 151.29 -0.984041 -1.05131 0
M  V30 1757 H 153.243 -0.622888 -4.16771 0
M  V30 1758 H 151.967 0.22401 -3.25831 0
M  V30 1759 H 150.626 -1.90477 -3.13231 0
M  V30 1760 H 150.274 -0.303414 -5.02084 0
M  V30 1761 H 149.974 -1.98369 -5.53103 0
M  V30 1762 H 151.498 -1.1733 -5.99221 0
M  V30 1763 H 152.912 -3.11471 -4.81309 0
M  V30 1764 H 151.309 -3.87218 -4.58457 0
M  V30 1765 H 152.379 -3.65368 -3.18801 0
M  V30 1766 N 153.722 1.14298 -1.08507 0
M  V30 1767 C 154.969 1.85359 -0.815373 0
M  V30 1768 C 155.297 1.83001 0.658865 0
M  V30 1769 O 154.552 1.25655 1.50031 0
M  V30 1770 C 154.851 3.33547 -1.28379 0
M  V30 1771 C 154.517 3.56093 -2.76602 0
M  V30 1772 C 153.179 3.61955 -3.17084 0
M  V30 1773 C 155.531 3.64834 -3.72217 0
M  V30 1774 C 152.859 3.74082 -4.51973 0
M  V30 1775 C 155.211 3.78487 -5.06883 0
M  V30 1776 C 153.875 3.82598 -5.46969 0
M  V30 1777 H 153.145 0.678276 -0.298366 0
M  V30 1778 H 155.792 1.35002 -1.35819 0
M  V30 1779 H 154.097 3.86191 -0.660593 0
M  V30 1780 H 155.794 3.86959 -1.05186 0
M  V30 1781 H 152.384 3.52179 -2.4427 0
M  V30 1782 H 156.568 3.59595 -3.42061 0
M  V30 1783 H 151.824 3.75527 -4.82483 0
M  V30 1784 H 155.998 3.84193 -5.80834 0
M  V30 1785 H 153.625 3.91747 -6.51489 0
M  V30 1786 N 155.201 0.870884 1.31352 0
M  V30 1787 C 156.134 0.271983 2.26573 0
M  V30 1788 C 157.112 -0.599385 1.51149 0
M  V30 1789 O 158.296 -0.552605 1.80218 0
M  V30 1790 C 155.423 -0.614801 3.33073 0
M  V30 1791 C 154.469 0.185342 4.26097 0
M  V30 1792 S 155.302 1.56444 5.12138 0
M  V30 1793 C 156.458 0.683807 6.22153 0
M  V30 1794 H 156.691 1.07916 2.77023 0
M  V30 1795 H 154.224 0.669459 1.39132 0
M  V30 1796 H 156.182 -1.12074 3.94905 0
M  V30 1797 H 154.843 -1.39593 2.81376 0
M  V30 1798 H 154.036 -0.490771 5.01605 0
M  V30 1799 H 153.638 0.623415 3.68768 0
M  V30 1800 H 155.93 -0.10521 6.77418 0
M  V30 1801 H 156.873 1.41004 6.93919 0
M  V30 1802 H 157.281 0.250952 5.63942 0
M  V30 1803 N 156.679 -1.44442 0.630414 0
M  V30 1804 C 157.609 -2.33418 -0.0618083 0
M  V30 1805 C 158.59 -1.48165 -0.835541 0
M  V30 1806 O 159.775 -1.76886 -0.801564 0
M  V30 1807 C 156.905 -3.31222 -1.04449 0
M  V30 1808 C 155.859 -4.26288 -0.382436 0
M  V30 1809 C 155.185 -5.13954 -1.47497 0
M  V30 1810 C 156.485 -5.1744 0.710865 0
M  V30 1811 H 158.179 -2.91548 0.681184 0
M  V30 1812 H 155.725 -1.40191 0.329026 0
M  V30 1813 H 157.678 -3.92351 -1.53748 0
M  V30 1814 H 156.402 -2.71299 -1.81836 0
M  V30 1815 H 155.061 -3.6649 0.0899054 0
M  V30 1816 H 154.709 -4.50385 -2.2397 0
M  V30 1817 H 154.409 -5.7837 -1.03737 0
M  V30 1818 H 155.933 -5.77955 -1.96979 0
M  V30 1819 H 157.347 -5.72509 0.300996 0
M  V30 1820 H 155.744 -5.90455 1.07156 0
M  V30 1821 H 156.814 -4.58496 1.57829 0
M  V30 1822 N 158.157 -0.370918 -1.53173 0
M  V30 1823 C 159.12 0.460778 -2.24521 0
M  V30 1824 C 160.12 1.00536 -1.25496 0
M  V30 1825 O 161.31 0.890266 -1.49733 0
M  V30 1826 C 158.442 1.64457 -2.98608 0
M  V30 1827 H 159.635 -0.163613 -2.99453 0
M  V30 1828 H 157.188 -0.122699 -1.55818 0
M  V30 1829 H 157.923 2.30691 -2.2793 0
M  V30 1830 H 157.708 1.26099 -3.7127 0
M  V30 1831 H 159.198 2.23384 -3.5283 0
M  V30 1832 N 159.635 1.57281 -0.100228 0
M  V30 1833 C 160.568 2.09976 0.893612 0
M  V30 1834 C 161.546 1.01155 1.27304 0
M  V30 1835 O 162.73 1.28687 1.37739 0
M  V30 1836 C 159.857 2.58098 2.19324 0
M  V30 1837 C 158.903 3.78626 1.96328 0
M  V30 1838 S 159.736 5.21959 1.19662 0
M  V30 1839 C 160.892 5.73435 2.50844 0
M  V30 1840 H 161.125 2.93946 0.44534 0
M  V30 1841 H 158.658 1.53985 0.113167 0
M  V30 1842 H 160.616 2.8648 2.94005 0
M  V30 1843 H 159.277 1.74344 2.61272 0
M  V30 1844 H 158.47 4.10382 2.92579 0
M  V30 1845 H 158.072 3.50763 1.29775 0
M  V30 1846 H 160.364 5.82015 3.46792 0
M  V30 1847 H 161.307 6.7185 2.23659 0
M  V30 1848 H 161.715 5.01395 2.59352 0
M  V30 1849 N 161.113 -0.173488 1.56642 0
M  V30 1850 C 162.061 -1.23417 1.97157 0
M  V30 1851 C 163.055 -1.45946 0.860013 0
M  V30 1852 O 164.261 -1.46551 1.04512 0
M  V30 1853 H 160.636 -0.414818 0.62724 0
M  V30 1854 H 162.607 -0.865582 2.8557 0
M  V30 1855 C 161.356 -2.5665 2.34576 0
M  V30 1856 H 160.679 -2.40137 3.19647 0
M  V30 1857 H 162.119 -3.2956 2.6677 0
M  V30 1858 C 160.578 -3.15245 1.18836 0
M  V30 1859 O 161.108 -3.98883 0.474869 0
M  V30 1860 N 159.314 -2.74303 0.959497 0
M  V30 1861 H 158.861 -2.0639 1.54146 0
M  V30 1862 H 158.819 -3.13844 0.186932 0
M  V30 1863 N 162.591 -1.51276 -0.441967 0
M  V30 1864 C 164.007 -1.39349 -0.778083 0
M  V30 1865 C 164.207 -0.472212 -1.95889 0
M  V30 1866 O 163.263 0.0743551 -2.5239 0
M  V30 1867 C 164.576 -2.81292 -1.0628 0
M  V30 1868 C 166.124 -2.9041 -1.16751 0
M  V30 1869 C 166.599 -4.33251 -1.48519 0
M  V30 1870 N 168.09 -4.36336 -1.55453 0
M  V30 1871 C 168.825 -5.43885 -1.81596 0
M  V30 1872 N 168.321 -6.61601 -2.05562 0
M  V30 1873 N 170.114 -5.3136 -1.8334 0
M  V30 1874 H 162.265 -2.09729 0.335774 0
M  V30 1875 H 164.528 -0.943925 0.0878028 0
M  V30 1876 H 164.234 -3.50678 -0.267905 0
M  V30 1877 H 164.108 -3.20334 -1.99163 0
M  V30 1878 H 166.495 -2.21225 -1.95304 0
M  V30 1879 H 166.576 -2.54871 -0.217801 0
M  V30 1880 H 166.22 -5.02984 -0.704958 0
M  V30 1881 H 166.15 -4.66299 -2.44689 0
M  V30 1882 H 168.641 -3.51466 -1.38853 0
M  V30 1883 H 168.954 -7.39361 -2.24867 0
M  V30 1884 H 167.299 -6.64725 -2.02894 0
M  V30 1885 H 170.49 -4.38382 -1.64132 0
M  V30 1886 H 170.663 -6.15258 -2.03377 0
M  V30 1887 N 164.069 0.697108 -1.41344 0
M  V30 1888 C 165.001 1.8224 -1.39001 0
M  V30 1889 C 166.014 1.60152 -0.292428 0
M  V30 1890 O 167.203 1.69684 -0.554048 0
M  V30 1891 C 164.303 3.18976 -1.14489 0
M  V30 1892 C 163.476 3.68105 -2.36258 0
M  V30 1893 C 162.535 4.83506 -2.07625 0
M  V30 1894 O 161.561 4.95201 -2.8065 0
M  V30 1895 N 162.763 5.70637 -1.06555 0
M  V30 1896 H 165.528 1.84742 -2.35988 0
M  V30 1897 H 163.089 0.87937 -1.35936 0
M  V30 1898 H 165.081 3.93801 -0.932885 0
M  V30 1899 H 163.651 3.11508 -0.261043 0
M  V30 1900 H 162.871 2.84204 -2.7317 0
M  V30 1901 H 164.159 3.97667 -3.17393 0
M  V30 1902 H 163.557 5.63817 -0.461125 0
M  V30 1903 H 162.114 6.45368 -0.913444 0
M  V30 1904 N 165.547 1.27147 0.931209 0
M  V30 1905 C 166.795 1.13055 1.6752 0
M  V30 1906 C 167.116 -0.324791 1.92276 0
M  V30 1907 O 166.386 -1.22775 1.52654 0
M  V30 1908 H 164.966 0.415391 0.620854 0
M  V30 1909 H 167.628 1.59623 1.11833 0
M  V30 1910 H 166.724 1.65694 2.64485 0
M  V30 1911 N 167.025 -1.13721 1.09112 0
M  V30 1912 C 168.25 -1.89314 0.847053 0
M  V30 1913 C 168.675 -1.78416 -0.595774 0
M  V30 1914 O 168.033 -1.12942 -1.41823 0
M  V30 1915 C 168.081 -3.3701 1.28284 0
M  V30 1916 O 167.185 -4.10054 0.439267 0
M  V30 1917 H 166.526 -0.588745 0.307044 0
M  V30 1918 H 169.056 -1.43902 1.45442 0
M  V30 1919 H 169.066 -3.87834 1.26683 0
M  V30 1920 H 167.741 -3.4426 2.33363 0
M  V30 1921 H 166.318 -3.69266 0.519312 0
M  V30 1922 N 168.503 -0.877838 -1.30888 0
M  V30 1923 C 169.752 -0.488793 -1.95688 0
M  V30 1924 C 170.065 0.965485 -1.70111 0
M  V30 1925 O 171.271 1.46104 -2.28836 0
M  V30 1926 C 169.727 -0.823201 -3.50359 0
M  V30 1927 C 169.335 -2.29477 -3.84765 0
M  V30 1928 C 171.079 -0.503009 -4.21509 0
M  V30 1929 C 168.986 -2.57118 -5.32583 0
M  V30 1930 H 167.916 -0.179062 -0.732429 0
M  V30 1931 H 170.567 -1.07183 -1.48943 0
M  V30 1932 H 168.949 -0.169331 -3.95638 0
M  V30 1933 H 170.123 -2.99236 -3.5042 0
M  V30 1934 H 168.438 -2.58178 -3.267 0
M  V30 1935 H 171.035 -0.68665 -5.30273 0
M  V30 1936 H 171.378 0.557109 -4.12555 0
M  V30 1937 H 171.911 -1.11376 -3.8189 0
M  V30 1938 H 168.65 -3.61843 -5.4658 0
M  V30 1939 H 168.17 -1.91961 -5.68253 0
M  V30 1940 H 169.849 -2.42251 -5.99936 0
M  V30 1941 N 169.982 1.44106 -0.638065 0
M  V30 1942 C 171.231 2.01194 -0.142744 0
M  V30 1943 C 171.544 1.50835 1.24532 0
M  V30 1944 O 172.75 2.00096 1.83504 0
M  V30 1945 C 171.206 3.59319 -0.20442 0
M  V30 1946 C 170.814 4.18674 -1.59423 0
M  V30 1947 C 172.558 4.23854 0.234079 0
M  V30 1948 C 170.465 5.69045 -1.61065 0
M  V30 1949 H 169.395 0.752367 -0.0495998 0
M  V30 1950 H 172.046 1.65246 -0.797881 0
M  V30 1951 H 170.428 3.92598 0.517946 0
M  V30 1952 H 171.602 3.96921 -2.34074 0
M  V30 1953 H 169.917 3.66453 -1.97741 0
M  V30 1954 H 172.514 5.34155 0.241443 0
M  V30 1955 H 172.857 3.96688 1.2627 0
M  V30 1956 H 173.39 3.95403 -0.436025 0
M  V30 1957 H 170.129 6.00956 -2.61787 0
M  V30 1958 H 169.649 5.929 -0.90718 0
M  V30 1959 H 171.328 6.32809 -1.34766 0
M  V30 1960 N 171.46 0.379036 1.52974 0
M  V30 1961 C 172.707 -0.206421 2.01445 0
M  V30 1962 C 173.035 -1.47668 1.26587 0
M  V30 1963 O 172.29 -1.92514 0.351675 0
M  V30 1964 C 172.589 -0.53096 3.53434 0
M  V30 1965 C 172.255 0.646546 4.46241 0
M  V30 1966 C 170.917 0.969604 4.7133 0
M  V30 1967 C 173.269 1.43479 5.01062 0
M  V30 1968 C 170.597 2.08263 5.48492 0
M  V30 1969 C 172.949 2.53834 5.7944 0
M  V30 1970 C 171.613 2.86659 6.02812 0
M  V30 1971 H 170.883 -0.0755349 0.73714 0
M  V30 1972 H 173.53 0.514271 1.84465 0
M  V30 1973 H 171.835 -1.33285 3.68432 0
M  V30 1974 H 173.532 -0.996417 3.88423 0
M  V30 1975 H 170.122 0.384734 4.2687 0
M  V30 1976 H 174.306 1.19844 4.81613 0
M  V30 1977 H 169.562 2.34078 5.64816 0
M  V30 1978 H 173.736 3.15319 6.20924 0
M  V30 1979 H 171.363 3.73026 6.62387 0
M  V30 1980 N 172.938 -1.57226 0.108567 0
M  V30 1981 C 173.868 -2.17778 -0.84232 0
M  V30 1982 C 174.849 -1.11487 -1.2847 0
M  V30 1983 O 176.034 -1.39681 -1.34918 0
M  V30 1984 C 173.164 -2.76888 -2.09644 0
M  V30 1985 C 172.118 -3.88669 -1.79221 0
M  V30 1986 C 171.444 -4.34541 -3.11574 0
M  V30 1987 C 172.744 -5.11251 -1.06864 0
M  V30 1988 H 174.438 -2.97489 -0.337774 0
M  V30 1989 H 171.984 -1.43097 -0.161025 0
M  V30 1990 H 173.937 -3.17904 -2.76614 0
M  V30 1991 H 172.661 -1.94451 -2.62405 0
M  V30 1992 H 171.32 -3.48213 -1.14644 0
M  V30 1993 H 170.968 -3.48977 -3.62249 0
M  V30 1994 H 170.668 -5.09914 -2.91996 0
M  V30 1995 H 172.192 -4.782 -3.7968 0
M  V30 1996 H 173.606 -5.49352 -1.63968 0
M  V30 1997 H 172.003 -5.9214 -0.974178 0
M  V30 1998 H 173.073 -4.8487 -0.0536168 0
M  V30 1999 N 174.416 0.165178 -1.56732 0
M  V30 2000 C 175.644 0.896218 -1.86482 0
M  V30 2001 C 176.059 1.75555 -0.694675 0
M  V30 2002 O 175.416 1.79379 0.33607 0
M  V30 2003 C 175.467 1.76792 -3.1532 0
M  V30 2004 O 175.188 0.943239 -4.27825 0
M  V30 2005 C 176.689 2.6081 -3.58459 0
M  V30 2006 H 173.909 0.260064 -0.618553 0
M  V30 2007 H 176.453 0.163428 -2.03846 0
M  V30 2008 H 174.608 2.45398 -2.99764 0
M  V30 2009 H 175.022 1.53998 -5.01383 0
M  V30 2010 H 176.496 3.17579 -4.51495 0
M  V30 2011 H 176.973 3.35977 -2.82872 0
M  V30 2012 H 177.579 1.97526 -3.76648 0
M  V30 2013 N 175.894 1.51508 0.433938 0
M  V30 2014 C 177.14 1.64588 1.18484 0
M  V30 2015 C 177.473 0.362666 1.90784 0
M  V30 2016 O 176.748 -0.637892 1.83742 0
M  V30 2017 C 177.031 2.85149 2.19913 0
M  V30 2018 C 176.884 4.23456 1.51674 0
M  V30 2019 C 178.203 3.01227 3.20858 0
M  V30 2020 H 175.322 0.598994 0.429389 0
M  V30 2021 H 177.964 1.84002 0.473647 0
M  V30 2022 H 176.114 2.68729 2.80566 0
M  V30 2023 H 177.786 4.51552 0.943322 0
M  V30 2024 H 176.029 4.25998 0.819035 0
M  V30 2025 H 176.7 5.03812 2.2556 0
M  V30 2026 H 179.176 3.16382 2.70263 0
M  V30 2027 H 178.052 3.87141 3.89118 0
M  V30 2028 H 178.313 2.13447 3.8716 0
M  V30 2029 N 177.372 -0.689602 1.41712 0
M  V30 2030 C 178.618 -1.45181 1.41599 0
M  V30 2031 C 178.951 -1.94181 0.0270081 0
M  V30 2032 O 178.226 -1.6993 -0.946265 0
M  V30 2033 C 178.509 -2.65945 2.42787 0
M  V30 2034 C 178.362 -2.22672 3.90816 0
M  V30 2035 C 179.681 -3.68149 2.41151 0
M  V30 2036 H 176.8 -0.526576 0.515642 0
M  V30 2037 H 179.442 -0.784947 1.73028 0
M  V30 2038 H 177.592 -3.2284 2.16116 0
M  V30 2039 H 179.264 -1.71058 4.28412 0
M  V30 2040 H 177.507 -1.54394 4.05395 0
M  V30 2041 H 178.178 -3.0935 4.57172 0
M  V30 2042 H 180.654 -3.2094 2.64834 0
M  V30 2043 H 179.53 -4.50248 3.13955 0
M  V30 2044 H 179.791 -4.18259 1.43221 0
M  V30 2045 N 178.85 -1.27639 -0.924453 0
M  V30 2046 C 179.813 -1.10681 -2.00705 0
M  V30 2047 C 180.813 -0.0497823 -1.60723 0
M  V30 2048 O 182.003 -0.294654 -1.7169 0
M  V30 2049 C 179.135 -0.687164 -3.33902 0
M  V30 2050 H 180.328 -2.06817 -2.17179 0
M  V30 2051 H 177.881 -1.10473 -1.10569 0
M  V30 2052 H 178.616 0.275439 -3.23128 0
M  V30 2053 H 178.401 -1.45061 -3.6428 0
M  V30 2054 H 179.891 -0.590853 -4.13399 0
M  V30 2055 N 180.328 1.1314 -1.09713 0
M  V30 2056 C 181.574 1.84757 -0.836224 0
M  V30 2057 C 181.907 1.8347 0.636598 0
M  V30 2058 O 181.182 1.27491 1.46889 0
M  V30 2059 C 181.465 3.32782 -1.37578 0
M  V30 2060 C 181.318 3.42567 -2.91493 0
M  V30 2061 C 182.637 4.28307 -1.01198 0
M  V30 2062 H 179.756 0.67082 -0.305236 0
M  V30 2063 H 182.398 1.3278 -1.35903 0
M  V30 2064 H 180.548 3.77177 -0.931097 0
M  V30 2065 H 182.22 3.06862 -3.44432 0
M  V30 2066 H 180.463 2.83349 -3.28475 0
M  V30 2067 H 181.134 4.46674 -3.24324 0
M  V30 2068 H 183.61 3.91999 -1.39556 0
M  V30 2069 H 182.486 5.30307 -1.41653 0
M  V30 2070 H 182.747 4.42029 0.0794833 0
M  V30 2071 N 181.806 0.884767 1.30421 0
M  V30 2072 C 183.083 0.423185 1.90967 0
M  V30 2073 C 183.463 -1.09605 1.80416 0
M  V30 2074 O 182.811 -1.93126 1.22125 0
M  V30 2075 C 183.021 0.921056 3.36627 0
M  V30 2076 C 184.369 0.955903 4.137 0
M  V30 2077 O 185.393 0.867706 3.4547 0
M  V30 2078 O 184.252 1.08614 5.35598 0
M  V30 2079 H 181.346 0.129369 0.816819 0
M  V30 2080 H 183.892 0.973653 1.3899 0
M  V30 2081 H 182.664 1.96489 3.3839 0
M  V30 2082 H 182.287 0.349741 3.96059 0
M  V30 2083 N 183.284 -1.43765 0.645699 0
M  V30 2084 C 184.7 -1.56509 0.312591 0
M  V30 2085 C 184.9 -1.6307 -1.18365 0
M  V30 2086 O 183.956 -1.58167 -1.96824 0
M  V30 2087 C 185.269 -2.82968 1.01733 0
M  V30 2088 C 186.817 -2.96701 0.996865 0
M  V30 2089 C 187.292 -4.25982 1.68236 0
M  V30 2090 N 188.783 -4.32829 1.64964 0
M  V30 2091 C 189.518 -5.31613 2.14885 0
M  V30 2092 N 189.014 -6.36718 2.73061 0
M  V30 2093 N 190.807 -5.23217 2.05428 0
M  V30 2094 H 182.958 -1.3775 1.61675 0
M  V30 2095 H 185.221 -0.661067 0.679481 0
M  V30 2096 H 184.927 -2.84156 2.0724 0
M  V30 2097 H 184.801 -3.72957 0.564177 0
M  V30 2098 H 187.188 -2.95058 -0.0497719 0
M  V30 2099 H 187.269 -2.08022 1.48865 0
M  V30 2100 H 186.913 -4.28386 2.72852 0
M  V30 2101 H 186.843 -5.13545 1.16529 0
M  V30 2102 H 189.334 -3.57493 1.22503 0
M  V30 2103 H 189.647 -7.08401 3.08848 0
M  V30 2104 H 187.992 -6.37362 2.77118 0
M  V30 2105 H 191.183 -4.40019 1.59689 0
M  V30 2106 H 191.356 -6.00045 2.44643 0
M  V30 2107 N 184.763 -0.387143 -1.52771 0
M  V30 2108 C 185.993 0.195585 -2.05672 0
M  V30 2109 C 186.401 1.41241 -1.25887 0
M  V30 2110 O 185.744 1.81265 -0.298081 0
M  V30 2111 C 185.806 0.632327 -3.53895 0
M  V30 2112 C 185.47 -0.470739 -4.54569 0
M  V30 2113 C 186.467 -1.32746 -5.02667 0
M  V30 2114 C 184.152 -0.637151 -4.98243 0
M  V30 2115 C 186.146 -2.33574 -5.93061 0
M  V30 2116 C 183.833 -1.64877 -5.88438 0
M  V30 2117 C 184.831 -2.49649 -6.35739 0
M  V30 2118 O 184.519 -3.49082 -7.24153 0
M  V30 2119 H 184.251 0.033658 -0.675162 0
M  V30 2120 H 186.805 -0.550221 -1.97893 0
M  V30 2121 H 185.035 1.43008 -3.59285 0
M  V30 2122 H 186.724 1.14048 -3.89548 0
M  V30 2123 H 187.49 -1.21019 -4.69659 0
M  V30 2124 H 183.369 0.0129567 -4.60998 0
M  V30 2125 H 186.913 -2.99777 -6.29904 0
M  V30 2126 H 182.81 -1.76643 -6.2086 0
M  V30 2127 H 183.578 -3.45065 -7.42208 0
M  V30 2128 N 186.241 1.57166 -0.116904 0
M  V30 2129 C 187.488 1.95123 0.541603 0
M  V30 2130 C 187.816 1.00006 1.6682 0
M  V30 2131 O 187.071 0.0235658 1.95686 0
M  V30 2132 C 187.37 3.39508 1.11664 0
M  V30 2133 C 187.036 4.50762 0.111606 0
M  V30 2134 C 185.698 4.80918 -0.164758 0
M  V30 2135 C 188.05 5.18036 -0.573438 0
M  V30 2136 C 185.378 5.75666 -1.13249 0
M  V30 2137 C 187.73 6.13824 -1.52978 0
M  V30 2138 C 186.394 6.42374 -1.81415 0
M  V30 2139 H 185.664 0.714005 0.198187 0
M  V30 2140 H 188.311 1.9048 -0.197365 0
M  V30 2141 H 186.616 3.40835 1.93232 0
M  V30 2142 H 188.313 3.66189 1.63422 0
M  V30 2143 H 184.903 4.27272 0.337192 0
M  V30 2144 H 189.087 4.94896 -0.373092 0
M  V30 2145 H 184.343 5.96092 -1.35958 0
M  V30 2146 H 188.517 6.65039 -2.06629 0
M  V30 2147 H 186.144 7.15599 -2.56557 0
M  V30 2148 N 187.719 -0.156864 1.56817 0
M  V30 2149 C 189.135 -0.50916 1.5126 0
M  V30 2150 C 189.335 -1.83897 0.823658 0
M  V30 2151 O 188.391 -2.49469 0.390055 0
M  V30 2152 C 189.704 -0.52857 2.96018 0
M  V30 2153 C 191.252 -0.614771 3.06903 0
M  V30 2154 C 191.727 -0.664938 4.53147 0
M  V30 2155 N 193.218 -0.727433 4.57452 0
M  V30 2156 C 193.953 -0.787067 5.67973 0
M  V30 2157 N 193.449 -0.806649 6.88088 0
M  V30 2158 N 195.242 -0.827195 5.5598 0
M  V30 2159 H 187.393 0.714935 2.00006 0
M  V30 2160 H 189.656 0.259526 0.911784 0
M  V30 2161 H 189.362 0.380154 3.49639 0
M  V30 2162 H 189.236 -1.36998 3.51442 0
M  V30 2163 H 191.623 -1.51392 2.53307 0
M  V30 2164 H 191.704 0.253597 2.5454 0
M  V30 2165 H 191.348 0.230011 5.07379 0
M  V30 2166 H 191.278 -1.54966 5.03282 0
M  V30 2167 H 193.769 -0.719998 3.70978 0
M  V30 2168 H 194.082 -0.853727 7.6807 0
M  V30 2169 H 192.427 -0.774687 6.90669 0
M  V30 2170 H 195.618 -0.808998 4.61056 0
M  V30 2171 H 195.791 -0.870206 6.4213 0
M  V30 2172 N 189.197 -1.51736 -0.425897 0
M  V30 2173 C 190.443 -1.65214 -1.1761 0
M  V30 2174 C 190.776 -0.372778 -1.90589 0
M  V30 2175 O 190.051 0.628139 -1.84078 0
M  V30 2176 C 190.334 -2.86312 -2.18398 0
M  V30 2177 C 190.187 -4.24254 -1.49426 0
M  V30 2178 C 191.506 -3.02925 -3.19256 0
M  V30 2179 H 188.625 -0.601263 -0.426206 0
M  V30 2180 H 191.267 -1.8425 -0.463882 0
M  V30 2181 H 189.417 -2.70213 -2.79137 0
M  V30 2182 H 191.089 -4.52046 -0.919362 0
M  V30 2183 H 189.332 -4.26426 -0.796432 0
M  V30 2184 H 190.003 -5.05001 -2.22885 0
M  V30 2185 H 192.479 -3.1781 -2.68581 0
M  V30 2186 H 191.355 -3.89199 -3.8706 0
M  V30 2187 H 191.616 -2.15497 -3.86023 0
M  V30 2188 N 190.675 0.682077 -1.42076 0
M  V30 2189 C 191.921 1.44428 -1.42367 0
M  V30 2190 C 192.254 1.94164 -0.0373056 0
M  V30 2191 O 191.529 1.70429 0.937239 0
M  V30 2192 C 191.812 2.64654 -2.44194 0
M  V30 2193 C 191.665 2.20596 -3.91991 0
M  V30 2194 C 192.984 3.66865 -2.431 0
M  V30 2195 H 190.103 0.523834 -0.518428 0
M  V30 2196 H 192.745 0.77576 -1.73442 0
M  V30 2197 H 190.895 3.2169 -2.17826 0
M  V30 2198 H 192.567 1.68783 -4.29313 0
M  V30 2199 H 190.81 1.52242 -4.06208 0
M  V30 2200 H 191.481 3.06921 -4.58807 0
M  V30 2201 H 193.957 3.19531 -2.66532 0
M  V30 2202 H 192.833 4.48577 -3.16339 0
M  V30 2203 H 193.094 4.17493 -1.45437 0
M  V30 2204 N 192.153 1.28127 0.917671 0
M  V30 2205 C 193.103 1.08361 2.00604 0
M  V30 2206 C 194.087 0.00847518 1.60898 0
M  V30 2207 O 195.279 0.228167 1.75523 0
M  V30 2208 C 192.408 0.743376 3.35155 0
M  V30 2209 C 191.494 1.85716 3.81275 0
M  V30 2210 N 191.885 3.09822 3.99805 0
M  V30 2211 C 190.183 1.74612 4.10398 0
M  V30 2212 C 190.884 3.82368 4.38372 0
M  V30 2213 N 189.86 3.10192 4.4641 0
M  V30 2214 H 193.662 2.02531 2.12975 0
M  V30 2215 H 191.176 1.18989 1.10523 0
M  V30 2216 H 193.173 0.582859 4.12805 0
M  V30 2217 H 191.833 -0.190595 3.2414 0
M  V30 2218 H 192.844 3.45475 3.85833 0
M  V30 2219 H 189.521 0.883657 4.08041 0
M  V30 2220 H 190.911 4.89082 4.60704 0
M  V30 2221 N 193.631 -1.12557 1.10312 0
M  V30 2222 C 195.042 -1.65574 0.862678 0
M  V30 2223 C 195.393 -1.86566 -0.607256 0
M  V30 2224 O 194.518 -1.59121 -1.46662 0
M  V30 2225 C 195.113 -3.00776 1.55947 0
M  V30 2226 C 193.672 -3.50748 1.36576 0
M  V30 2227 C 192.819 -2.25797 1.60968 0
M  V30 2228 H 195.77 -0.963552 1.26101 0
M  V30 2229 H 195.791 -3.67185 0.997753 0
M  V30 2230 H 195.303 -2.85465 2.62928 0
M  V30 2231 H 193.404 -3.71245 0.317531 0
M  V30 2232 H 193.517 -4.30289 2.10686 0
M  V30 2233 H 191.881 -2.32841 1.03234 0
M  V30 2234 H 192.664 -2.13043 2.69198 0
M  V30 2235 N 195.109 -0.891671 -1.2995 0
M  V30 2236 C 196.059 -0.334811 -2.25528 0
M  V30 2237 C 197.043 0.540553 -1.51548 0
M  V30 2238 O 198.235 0.383882 -1.72787 0
M  V30 2239 C 195.364 0.44374 -3.4042 0
M  V30 2240 C 194.45 -0.44609 -4.21747 0
M  V30 2241 N 194.841 -1.54963 -4.81477 0
M  V30 2242 C 193.139 -0.242415 -4.45341 0
M  V30 2243 C 193.84 -2.10015 -5.42465 0
M  V30 2244 N 192.816 -1.39423 -5.25416 0
M  V30 2245 H 196.618 -1.17792 -2.69262 0
M  V30 2246 H 194.132 -0.741822 -1.44467 0
M  V30 2247 H 196.129 0.859362 -4.07947 0
M  V30 2248 H 194.789 1.28421 -2.98225 0
M  V30 2249 H 195.8 -1.93244 -4.80497 0
M  V30 2250 H 192.477 0.560342 -4.13723 0
M  V30 2251 H 193.867 -3.02724 -5.9984 0
M  V30 2252 N 196.587 1.43421 -0.653314 0
M  V30 2253 C 197.537 2.2792 0.060558 0
M  V30 2254 C 198.521 1.39906 0.794677 0
M  V30 2255 O 199.713 1.63536 0.677128 0
M  V30 2256 C 196.842 3.27603 1.0262 0
M  V30 2257 C 195.928 4.23104 0.290551 0
M  V30 2258 N 196.319 5.01031 -0.692967 0
M  V30 2259 C 194.617 4.42816 0.531984 0
M  V30 2260 C 195.318 5.70626 -1.12963 0
M  V30 2261 N 194.294 5.41617 -0.463867 0
M  V30 2262 H 198.096 2.85585 -0.694143 0
M  V30 2263 H 195.61 1.55126 -0.480602 0
M  V30 2264 H 197.607 3.86918 1.55242 0
M  V30 2265 H 196.267 2.71499 1.78096 0
M  V30 2266 H 197.278 5.0669 -1.07169 0
M  V30 2267 H 193.955 3.97782 1.26791 0
M  V30 2268 H 195.345 6.4318 -1.94343 0
M  V30 2269 N 198.065 0.39524 1.52563 0
M  V30 2270 C 199.028 -0.425001 2.25225 0
M  V30 2271 C 200.028 -0.985266 1.27079 0
M  V30 2272 O 201.218 -0.866332 1.5113 0
M  V30 2273 C 198.35 -1.59686 3.01186 0
M  V30 2274 H 199.543 0.211233 2.99155 0
M  V30 2275 H 197.096 0.147472 1.55603 0
M  V30 2276 H 197.831 -2.27035 2.31572 0
M  V30 2277 H 197.616 -1.20176 3.73229 0
M  V30 2278 H 199.106 -2.17743 3.5634 0
M  V30 2279 N 199.544 -1.57102 0.125237 0
M  V30 2280 C 200.474 -2.18659 -0.819174 0
M  V30 2281 C 201.455 -1.12843 -1.27281 0
M  V30 2282 O 202.64 -1.41104 -1.33429 0
M  V30 2283 C 199.77 -2.79096 -2.06695 0
M  V30 2284 C 198.724 -3.90548 -1.75088 0
M  V30 2285 C 198.05 -4.37821 -3.06948 0
M  V30 2286 C 199.35 -5.12356 -1.01435 0
M  V30 2287 H 201.044 -2.9783 -0.306202 0
M  V30 2288 H 198.59 -1.4326 -0.145839 0
M  V30 2289 H 200.543 -3.2082 -2.73226 0
M  V30 2290 H 199.267 -1.97223 -2.60328 0
M  V30 2291 H 197.926 -3.49409 -1.10944 0
M  V30 2292 H 197.574 -3.52799 -3.58527 0
M  V30 2293 H 197.274 -5.12982 -2.86571 0
M  V30 2294 H 198.798 -4.822 -3.74587 0
M  V30 2295 H 200.212 -5.5106 -1.58132 0
M  V30 2296 H 198.609 -5.9314 -0.911319 0
M  V30 2297 H 199.679 -4.849 -0.00218681 0
M  V30 2298 N 201.022 0.148545 -1.56898 0
M  V30 2299 C 201.97 1.20265 -1.99096 0
M  V30 2300 C 202.964 1.44559 -0.883123 0
M  V30 2301 O 204.17 1.4487 -1.0683 0
M  V30 2302 H 200.545 0.404786 -0.63376 0
M  V30 2303 H 202.516 0.82004 -2.86911 0
M  V30 2304 C 201.265 2.52886 -2.3863 0
M  V30 2305 H 200.588 2.35021 -3.23427 0
M  V30 2306 H 202.028 3.25274 -2.7198 0
M  V30 2307 C 200.487 3.13315 -1.23837 0
M  V30 2308 O 201.017 3.98077 -0.538268 0
M  V30 2309 N 199.223 2.72742 -1.00301 0
M  V30 2310 H 198.77 2.03912 -1.5741 0
M  V30 2311 H 198.728 3.13507 -0.236838 0
M  V30 2312 N 202.5 1.5196 0.417844 0
M  V30 2313 C 203.447 1.74678 1.50852 0
M  V30 2314 C 204.417 0.588947 1.55308 0
M  V30 2315 O 205.602 0.825544 1.72016 0
M  V30 2316 C 202.742 1.89544 2.88387 0
M  V30 2317 C 201.855 3.17166 2.93309 0
M  V30 2318 C 200.99 3.22513 4.22088 0
M  V30 2319 C 200.029 4.44372 4.20951 0
M  V30 2320 N 199.166 4.47161 5.41287 0
M  V30 2321 H 204.006 2.67768 1.30783 0
M  V30 2322 H 201.543 1.32689 0.63498 0
M  V30 2323 H 203.501 1.96146 3.68216 0
M  V30 2324 H 202.131 0.998424 3.06971 0
M  V30 2325 H 201.183 3.19778 2.06024 0
M  V30 2326 H 202.495 4.07021 2.88332 0
M  V30 2327 H 201.649 3.28139 5.10303 0
M  V30 2328 H 200.388 2.30581 4.29748 0
M  V30 2329 H 199.393 4.38902 3.31127 0
M  V30 2330 H 200.618 5.3759 4.14938 0
M  V30 2331 H 198.564 3.58108 5.49632 0
M  V30 2332 H 198.481 5.3085 5.3827 0
M  V30 2333 H 199.749 4.57005 6.3148 0
M  V30 2334 N 203.978 -0.674533 1.42435 0
M  V30 2335 C 205.227 -1.43034 1.42212 0
M  V30 2336 C 205.54 -1.95555 0.0420788 0
M  V30 2337 O 206.746 -2.71374 -0.0827558 0
M  V30 2338 C 205.202 -2.58748 2.50155 0
M  V30 2339 C 204.81 -2.12925 3.94166 0
M  V30 2340 C 206.554 -3.36257 2.59098 0
M  V30 2341 C 204.461 -3.25723 4.93618 0
M  V30 2342 H 203.391 -0.537345 0.528939 0
M  V30 2343 H 206.042 -0.73024 1.68344 0
M  V30 2344 H 204.424 -3.31128 2.17188 0
M  V30 2345 H 205.598 -1.47697 4.36488 0
M  V30 2346 H 203.913 -1.48354 3.89076 0
M  V30 2347 H 206.51 -4.20264 3.30578 0
M  V30 2348 H 206.853 -3.82866 1.63461 0
M  V30 2349 H 207.386 -2.70947 2.9126 0
M  V30 2350 H 204.125 -2.84105 5.90732 0
M  V30 2351 H 203.645 -3.89732 4.55926 0
M  V30 2352 H 205.324 -3.91186 5.15347 0
M  V30 2353 N 205.456 -1.28612 -0.910864 0
M  V30 2354 C 206.681 -1.1891 -1.69927 0
M  V30 2355 C 207.106 0.248372 -1.86453 0
M  V30 2356 O 206.464 1.17961 -1.37676 0
M  V30 2357 C 206.512 -1.89578 -3.06745 0
M  V30 2358 O 205.616 -1.20521 -3.94396 0
M  V30 2359 H 204.957 -0.412632 -0.520222 0
M  V30 2360 H 207.487 -1.69985 -1.1387 0
M  V30 2361 H 207.497 -1.97597 -3.56958 0
M  V30 2362 H 206.172 -2.94136 -2.94035 0
M  V30 2363 H 204.749 -1.20684 -3.52831 0
M  V30 2364 N 206.934 1.1197 -1.10907 0
M  V30 2365 C 207.882 2.19927 -0.757303 0
M  V30 2366 C 208.876 1.67564 0.248747 0
M  V30 2367 O 210.082 1.79672 0.108605 0
M  V30 2368 H 206.457 0.716925 -0.226987 0
M  V30 2369 H 208.428 2.46847 -1.67658 0
M  V30 2370 C 207.177 3.47061 -0.210671 0
M  V30 2371 H 206.5 3.87703 -0.976049 0
M  V30 2372 H 207.94 4.24 -0.0026584 0
M  V30 2373 C 206.399 3.19864 1.05777 0
M  V30 2374 O 206.929 3.40049 2.13845 0
M  V30 2375 N 205.135 2.73636 0.978349 0
M  V30 2376 H 204.682 2.5741 0.0988246 0
M  V30 2377 H 204.64 2.55815 1.82773 0
M  V30 2378 N 208.412 0.89855 1.29475 0
M  V30 2379 C 209.828 0.594483 1.48115 0
M  V30 2380 C 210.028 -0.86431 1.82022 0
M  V30 2381 O 209.084 -1.64457 1.91599 0
M  V30 2382 C 210.397 1.51932 2.59494 0
M  V30 2383 C 211.945 1.5244 2.7337 0
M  V30 2384 C 212.42 2.43548 3.87877 0
M  V30 2385 N 213.911 2.41589 3.95208 0
M  V30 2386 C 214.646 3.08789 4.83153 0
M  V30 2387 N 214.142 3.85265 5.75798 0
M  V30 2388 N 215.935 2.97952 4.76635 0
M  V30 2389 H 208.086 1.84207 1.05742 0
M  V30 2390 H 210.349 0.789251 0.525154 0
M  V30 2391 H 210.055 2.55865 2.41301 0
M  V30 2392 H 209.929 1.23899 3.56271 0
M  V30 2393 H 212.316 0.492518 2.90961 0
M  V30 2394 H 212.397 1.8451 1.77172 0
M  V30 2395 H 212.041 3.46829 3.71041 0
M  V30 2396 H 211.971 2.08788 4.83441 0
M  V30 2397 H 214.462 1.86025 3.28943 0
M  V30 2398 H 214.775 4.33598 6.39697 0
M  V30 2399 H 213.12 3.89371 5.75687 0
M  V30 2400 H 216.311 2.37723 4.03244 0
M  V30 2401 H 216.484 3.50599 5.44962 0
M  V30 2402 N 209.89 -1.43072 0.660911 0
M  V30 2403 C 211.118 -2.06067 0.185422 0
M  V30 2404 C 211.533 -1.49582 -1.15198 0
M  V30 2405 O 210.89 -0.630134 -1.71276 0
M  V30 2406 C 210.941 -3.61371 0.0966523 0
M  V30 2407 O 210.662 -4.15758 1.38119 0
M  V30 2408 C 212.163 -4.41455 -0.403996 0
M  V30 2409 H 209.383 -0.664459 0.0934604 0
M  V30 2410 H 211.927 -1.83447 0.90373 0
M  V30 2411 H 210.082 -3.8315 -0.572259 0
M  V30 2412 H 210.496 -5.09499 1.24542 0
M  V30 2413 H 211.97 -5.50437 -0.415045 0
M  V30 2414 H 212.447 -4.15036 -1.43674 0
M  V30 2415 H 213.053 -4.24663 0.232691 0
M  V30 2416 N 211.368 -0.403325 -1.52352 0
M  V30 2417 C 212.331 0.413051 -2.25447 0
M  V30 2418 C 213.331 0.978513 -1.276 0
M  V30 2419 O 214.521 0.858305 -1.51587 0
M  V30 2420 C 211.653 1.58087 -3.02029 0
M  V30 2421 H 212.846 -0.227094 -2.99039 0
M  V30 2422 H 210.399 -0.155722 -1.55522 0
M  V30 2423 H 211.134 2.25804 -2.32772 0
M  V30 2424 H 210.919 1.18195 -3.73861 0
M  V30 2425 H 212.409 2.1585 -3.57489 0
M  V30 2426 N 212.846 1.57033 -0.133567 0
M  V30 2427 C 213.809 2.14897 0.796995 0
M  V30 2428 C 214.809 1.0874 1.18458 0
M  V30 2429 O 215.999 1.34446 1.1077 0
M  V30 2430 C 213.131 2.70112 2.07973 0
M  V30 2431 H 214.324 2.98457 0.293873 0
M  V30 2432 H 211.877 1.55871 0.115787 0
M  V30 2433 H 212.612 1.9018 2.62682 0
M  V30 2434 H 212.397 3.47764 1.81115 0
M  V30 2435 H 213.887 3.14738 2.74462 0
M  V30 2436 N 214.325 -0.140222 1.56975 0
M  V30 2437 C 215.574 -0.850152 1.82908 0
M  V30 2438 C 215.887 -1.82028 0.715892 0
M  V30 2439 O 217.093 -2.57485 0.861016 0
M  V30 2440 C 215.549 -1.5625 3.24213 0
M  V30 2441 C 215.157 -0.63443 4.43485 0
M  V30 2442 C 216.901 -2.25881 3.59413 0
M  V30 2443 C 214.808 -1.34879 5.75814 0
M  V30 2444 H 213.738 -0.321221 0.682153 0
M  V30 2445 H 216.389 -0.102874 1.83211 0
M  V30 2446 H 214.771 -2.35565 3.18316 0
M  V30 2447 H 215.945 0.12398 4.60633 0
M  V30 2448 H 214.26 -0.0461836 4.16374 0
M  V30 2449 H 216.857 -2.79978 4.5554 0
M  V30 2450 H 217.2 -3.02693 2.85802 0
M  V30 2451 H 217.733 -1.53477 3.67001 0
M  V30 2452 H 214.472 -0.622385 6.52539 0
M  V30 2453 H 213.992 -2.07974 5.6259 0
M  V30 2454 H 215.671 -1.88784 6.18845 0
M  V30 2455 N 215.803 -1.52179 -0.40978 0
M  V30 2456 C 217.052 -1.65434 -1.15388 0
M  V30 2457 C 217.365 -0.390056 -1.91671 0
M  V30 2458 O 218.571 -0.402399 -2.68501 0
M  V30 2459 C 217.027 -2.92279 -2.10003 0
M  V30 2460 C 216.635 -4.25813 -1.39239 0
M  V30 2461 C 218.379 -3.14897 -2.84675 0
M  V30 2462 C 216.286 -5.43782 -2.32498 0
M  V30 2463 H 215.216 -0.616267 -0.434432 0
M  V30 2464 H 217.867 -1.78666 -0.418401 0
M  V30 2465 H 216.249 -2.72744 -2.871 0
M  V30 2466 H 217.423 -4.55828 -0.675099 0
M  V30 2467 H 215.738 -4.09292 -0.766097 0
M  V30 2468 H 218.335 -4.0021 -3.54593 0
M  V30 2469 H 218.678 -2.29103 -3.47588 0
M  V30 2470 H 219.211 -3.34901 -2.14677 0
M  V30 2471 H 215.95 -6.3192 -1.74233 0
M  V30 2472 H 215.47 -5.18106 -3.02201 0
M  V30 2473 H 217.149 -5.76834 -2.93038 0
M  V30 2474 N 217.281 0.66697 -1.42791 0
M  V30 2475 C 218.506 1.46004 -1.47301 0
M  V30 2476 C 218.931 1.87894 -0.0880317 0
M  V30 2477 O 218.289 1.56502 0.915253 0
M  V30 2478 C 218.337 2.68031 -2.41229 0
M  V30 2479 O 217.441 3.6659 -1.88906 0
M  V30 2480 H 216.782 0.43832 -0.49877 0
M  V30 2481 H 219.312 0.817391 -1.87563 0
M  V30 2482 H 219.322 3.1601 -2.58073 0
M  V30 2483 H 217.997 2.36883 -3.41847 0
M  V30 2484 H 216.574 3.25661 -1.81656 0
M  V30 2485 N 218.759 1.29093 0.90403 0
M  V30 2486 C 219.999 1.18076 1.66845 0
M  V30 2487 C 220.363 -0.26436 1.90171 0
M  V30 2488 O 221.564 -0.497423 2.64157 0
M  V30 2489 C 219.835 1.96722 2.98388 0
M  V30 2490 S 221.394 2.0219 3.89441 0
M  V30 2491 H 218.212 0.421104 0.572881 0
M  V30 2492 H 220.814 1.63322 1.07453 0
M  V30 2493 H 219.518 3.00866 2.7912 0
M  V30 2494 H 219.049 1.52064 3.62823 0
M  V30 2495 H 221.064 1.13545 4.83034 0
M  V30 2496 N 220.237 -1.11381 1.11499 0
M  V30 2497 C 221.167 -2.19509 0.796125 0
M  V30 2498 C 222.148 -1.68458 -0.235796 0
M  V30 2499 O 223.333 -1.93947 -0.0991344 0
M  V30 2500 C 220.463 -3.46475 0.239205 0
M  V30 2501 C 219.417 -4.10744 1.20307 0
M  V30 2502 C 218.743 -5.32293 0.50683 0
M  V30 2503 C 220.043 -4.55597 2.55399 0
M  V30 2504 H 221.737 -2.46439 1.70024 0
M  V30 2505 H 219.283 -1.18446 0.818935 0
M  V30 2506 H 221.236 -4.214 0.00392006 0
M  V30 2507 H 219.96 -3.19006 -0.700206 0
M  V30 2508 H 218.619 -3.37813 1.42399 0
M  V30 2509 H 218.267 -5.01095 -0.437408 0
M  V30 2510 H 217.967 -5.76243 1.1497 0
M  V30 2511 H 219.491 -6.09956 0.280351 0
M  V30 2512 H 220.905 -5.21841 2.37391 0
M  V30 2513 H 219.302 -5.10363 3.15673 0
M  V30 2514 H 220.372 -3.69013 3.14575 0
M  V30 2515 N 221.715 -0.905404 -1.28997 0
M  V30 2516 C 222.645 -0.404212 -2.29975 0
M  V30 2517 C 223.626 0.523784 -1.61835 0
M  V30 2518 O 224.811 0.433298 -1.89304 0
M  V30 2519 C 221.941 0.364042 -3.45387 0
M  V30 2520 C 220.895 -0.474048 -4.25367 0
M  V30 2521 C 220.221 0.422045 -5.33032 0
M  V30 2522 C 221.521 -1.72696 -4.92923 0
M  V30 2523 H 223.215 -1.24807 -2.72146 0
M  V30 2524 H 220.761 -0.601585 -1.30832 0
M  V30 2525 H 222.714 0.725447 -4.15109 0
M  V30 2526 H 221.438 1.24174 -3.02074 0
M  V30 2527 H 220.097 -0.81786 -3.57361 0
M  V30 2528 H 219.745 1.29804 -4.85963 0
M  V30 2529 H 219.445 -0.135057 -5.87445 0
M  V30 2530 H 220.969 0.779517 -6.05604 0
M  V30 2531 H 222.383 -1.43495 -5.55051 0
M  V30 2532 H 220.78 -2.22582 -5.57295 0
M  V30 2533 H 221.85 -2.45964 -4.17887 0
M  V30 2534 N 223.193 1.4272 -0.668489 0
M  V30 2535 C 224.439 2.02443 -0.197076 0
M  V30 2536 C 224.794 1.51882 1.18109 0
M  V30 2537 O 224.087 0.708618 1.78015 0
M  V30 2538 C 224.281 3.57021 -0.164499 0
M  V30 2539 C 224.11 4.22583 -1.53797 0
M  V30 2540 C 222.88 4.58019 -2.13416 0
M  V30 2541 C 225.078 4.50588 -2.47941 0
M  V30 2542 N 223.06 5.08729 -3.4361 0
M  V30 2543 C 224.431 5.02782 -3.62782 0
M  V30 2544 C 226.486 4.32571 -2.46551 0
M  V30 2545 C 225.189 5.38852 -4.76478 0
M  V30 2546 C 227.215 4.69713 -3.59338 0
M  V30 2547 C 226.577 5.22053 -4.72906 0
M  V30 2548 H 222.676 0.773214 -0.116894 0
M  V30 2549 H 225.26 1.73673 -0.880108 0
M  V30 2550 H 223.431 3.85323 0.487925 0
M  V30 2551 H 225.163 4.03439 0.319207 0
M  V30 2552 H 221.918 4.43566 -1.65969 0
M  V30 2553 H 222.342 5.38521 -4.10273 0
M  V30 2554 H 226.984 3.91365 -1.59978 0
M  V30 2555 H 224.702 5.78993 -5.63731 0
M  V30 2556 H 228.288 4.57454 -3.59482 0
M  V30 2557 H 227.168 5.50258 -5.58736 0
M  V30 2558 N 224.671 0.411399 1.52136 0
M  V30 2559 C 225.919 -0.163322 2.01439 0
M  V30 2560 C 226.24 -1.45453 1.29879 0
M  V30 2561 O 225.51 -1.91225 0.4254 0
M  V30 2562 H 224.09 -0.0633447 0.744309 0
M  V30 2563 H 226.752 0.548161 1.87033 0
M  V30 2564 H 225.848 -0.357817 3.10042 0
M  V30 2565 N 226.149 -1.5696 0.141893 0
M  V30 2566 C 227.398 -1.95135 -0.510427 0
M  V30 2567 C 227.711 -1.02896 -1.66348 0
M  V30 2568 O 228.917 -1.30629 -2.38009 0
M  V30 2569 C 227.373 -3.46876 -0.959427 0
M  V30 2570 C 226.981 -4.47691 0.166419 0
M  V30 2571 C 228.725 -3.93927 -1.58183 0
M  V30 2572 C 226.632 -5.90636 -0.300565 0
M  V30 2573 H 225.562 -0.728494 -0.194454 0
M  V30 2574 H 228.213 -1.8211 0.22542 0
M  V30 2575 H 226.595 -3.55215 -1.75038 0
M  V30 2576 H 227.769 -4.51043 0.94325 0
M  V30 2577 H 226.084 -4.10527 0.696905 0
M  V30 2578 H 228.681 -4.98158 -1.94275 0
M  V30 2579 H 229.024 -3.3519 -2.46888 0
M  V30 2580 H 229.557 -3.88484 -0.855863 0
M  V30 2581 H 226.296 -6.5318 0.550989 0
M  V30 2582 H 225.816 -5.90655 -1.04338 0
M  V30 2583 H 227.495 -6.42588 -0.754265 0
M  V30 2584 N 227.627 0.131896 -1.57047 0
M  V30 2585 C 228.855 0.856461 -1.88341 0
M  V30 2586 C 229.27 1.74042 -0.731757 0
M  V30 2587 O 228.627 1.80051 0.297945 0
M  V30 2588 C 228.678 1.70064 -3.18999 0
M  V30 2589 O 228.399 0.852278 -4.2973 0
M  V30 2590 C 229.9 2.53148 -3.63911 0
M  V30 2591 H 227.12 0.246885 -0.62393 0
M  V30 2592 H 229.664 0.120152 -2.04147 0
M  V30 2593 H 227.819 2.38984 -3.04902 0
M  V30 2594 H 228.233 1.43329 -5.04537 0
M  V30 2595 H 229.707 3.07931 -4.58129 0
M  V30 2596 H 230.184 3.29901 -2.89935 0
M  V30 2597 H 230.79 1.89492 -3.80753 0
M  V30 2598 N 229.106 1.52395 0.401703 0
M  V30 2599 C 230.355 1.66044 1.14509 0
M  V30 2600 C 230.668 0.400216 1.91462 0
M  V30 2601 O 231.874 0.416632 2.68284 0
M  V30 2602 C 230.33 2.93388 2.0845 0
M  V30 2603 C 229.938 4.26545 1.36978 0
M  V30 2604 C 231.682 3.16402 2.83001 0
M  V30 2605 C 229.589 5.45007 2.29611 0
M  V30 2606 H 228.519 0.618562 0.431158 0
M  V30 2607 H 231.17 1.78886 0.40892 0
M  V30 2608 H 229.552 2.74263 2.8565 0
M  V30 2609 H 230.726 4.56179 0.650916 0
M  V30 2610 H 229.041 4.09692 0.74438 0
M  V30 2611 H 231.638 4.02085 3.52465 0
M  V30 2612 H 231.981 2.30943 3.46368 0
M  V30 2613 H 232.514 3.36034 2.12898 0
M  V30 2614 H 229.253 6.32835 1.70879 0
M  V30 2615 H 228.773 5.19702 2.9945 0
M  V30 2616 H 230.452 5.7838 2.89974 0
M  V30 2617 N 230.584 -0.659388 1.43143 0
M  V30 2618 C 231.832 -1.41654 1.44147 0
M  V30 2619 C 232.153 -1.94893 0.0645739 0
M  V30 2620 O 231.423 -1.74044 -0.899198 0
M  V30 2621 H 230.003 -0.525708 0.530697 0
M  V30 2622 H 232.665 -0.778097 1.78694 0
M  V30 2623 H 231.761 -2.26195 2.1504 0
M  V30 2624 N 232.062 -1.29571 -0.897171 0
M  V30 2625 C 232.992 -1.17473 -2.01798 0
M  V30 2626 C 233.973 -0.068323 -1.69963 0
M  V30 2627 O 235.158 -0.248239 -1.92607 0
M  V30 2628 C 232.288 -0.853099 -3.36659 0
M  V30 2629 C 231.242 -1.9161 -3.82713 0
M  V30 2630 C 230.568 -1.44773 -5.14728 0
M  V30 2631 C 231.868 -3.32535 -4.02763 0
M  V30 2632 H 233.562 -2.11237 -2.12177 0
M  V30 2633 H 231.108 -1.01699 -1.01948 0
M  V30 2634 H 233.061 -0.755165 -4.14578 0
M  V30 2635 H 231.785 0.120236 -3.26379 0
M  V30 2636 H 230.444 -2.00346 -3.07013 0
M  V30 2637 H 230.092 -0.462995 -5.00865 0
M  V30 2638 H 229.792 -2.15865 -5.46513 0
M  V30 2639 H 231.316 -1.36334 -5.95185 0
M  V30 2640 H 232.73 -3.26626 -4.71156 0
M  V30 2641 H 231.127 -4.01607 -4.45905 0
M  V30 2642 H 232.197 -3.75326 -3.07016 0
M  V30 2643 N 233.54 1.10788 -1.12088 0
M  V30 2644 C 234.768 1.86461 -0.896651 0
M  V30 2645 C 235.183 1.80492 0.553912 0
M  V30 2646 O 234.54 1.19102 1.38278 0
M  V30 2647 C 234.591 3.35006 -1.35843 0
M  V30 2648 O 234.312 3.40866 -2.75213 0
M  V30 2649 C 235.813 4.27565 -1.1706 0
M  V30 2650 H 233.033 0.589425 -0.320654 0
M  V30 2651 H 235.577 1.40076 -1.48993 0
M  V30 2652 H 233.732 3.7887 -0.808458 0
M  V30 2653 H 234.146 4.33411 -2.9539 0
M  V30 2654 H 235.62 5.30007 -1.54263 0
M  V30 2655 H 236.097 4.3906 -0.110814 0
M  V30 2656 H 236.703 3.89501 -1.70789 0
M  V30 2657 N 235.018 0.912232 1.28515 0
M  V30 2658 C 236.264 0.545405 1.95328 0
M  V30 2659 C 236.597 -0.908313 1.71649 0
M  V30 2660 O 235.872 -1.64575 1.03659 0
M  V30 2661 C 236.155 0.853483 3.4984 0
M  V30 2662 C 236.008 2.35982 3.82926 0
M  V30 2663 C 237.327 0.348589 4.38717 0
M  V30 2664 H 234.446 0.199626 0.709449 0
M  V30 2665 H 237.088 1.1412 1.5191 0
M  V30 2666 H 235.238 0.34643 3.86952 0
M  V30 2667 H 236.91 2.93738 3.55691 0
M  V30 2668 H 235.153 2.81543 3.30024 0
M  V30 2669 H 235.824 2.52593 4.90816 0
M  V30 2670 H 238.3 0.78294 4.08668 0
M  V30 2671 H 237.176 0.593242 5.45685 0
M  V30 2672 H 237.437 -0.751049 4.35674 0
M  V30 2673 N 236.496 -1.42363 0.676048 0
M  V30 2674 C 237.446 -2.27987 -0.0242903 0
M  V30 2675 C 238.43 -1.41153 -0.772319 0
M  V30 2676 O 239.622 -1.64592 -0.651025 0
M  V30 2677 C 236.751 -3.29195 -0.973953 0
M  V30 2678 C 235.837 -4.23512 -0.223202 0
M  V30 2679 N 236.228 -4.99865 0.772589 0
M  V30 2680 C 234.526 -4.43606 -0.461469 0
M  V30 2681 C 235.227 -5.68757 1.22027 0
M  V30 2682 N 234.203 -5.40811 0.549975 0
M  V30 2683 H 238.005 -2.84445 0.73949 0
M  V30 2684 H 235.519 -1.54341 0.50522 0
M  V30 2685 H 237.516 -3.89339 -1.49067 0
M  V30 2686 H 236.176 -2.74298 -1.73755 0
M  V30 2687 H 237.187 -5.04921 1.15217 0
M  V30 2688 H 233.864 -3.99749 -1.20446 0
M  V30 2689 H 235.254 -6.40007 2.0455 0
M  V30 2690 N 237.974 -0.419461 -1.51915 0
M  V30 2691 C 238.904 0.391813 -2.30189 0
M  V30 2692 C 239.885 1.03699 -1.34836 0
M  V30 2693 O 241.07 1.04403 -1.63748 0
M  V30 2694 C 238.2 1.50312 -3.13087 0
M  V30 2695 C 237.154 0.9824 -4.16573 0
M  V30 2696 C 236.48 2.18809 -4.8788 0
M  V30 2697 C 237.78 0.0292356 -5.22292 0
M  V30 2698 H 239.474 -0.26135 -2.98257 0
M  V30 2699 H 237.02 -0.127134 -1.43438 0
M  V30 2700 H 238.973 2.07773 -3.66617 0
M  V30 2701 H 237.697 2.18431 -2.42807 0
M  V30 2702 H 236.356 0.430119 -3.64068 0
M  V30 2703 H 236.004 2.85507 -4.14119 0
M  V30 2704 H 235.704 1.84615 -5.57845 0
M  V30 2705 H 237.228 2.76858 -5.44226 0
M  V30 2706 H 238.642 0.512976 -5.71 0
M  V30 2707 H 237.039 -0.2244 -5.9968 0
M  V30 2708 H 238.109 -0.912931 -4.76228 0
M  V30 2709 N 239.452 1.56882 -0.150215 0
M  V30 2710 C 240.382 2.19935 0.784284 0
M  V30 2711 C 241.363 1.14854 1.25469 0
M  V30 2712 O 242.548 1.43209 1.31168 0
M  V30 2713 C 239.678 2.82349 2.02229 0
M  V30 2714 C 238.632 3.93285 1.68853 0
M  V30 2715 C 237.958 4.42649 2.99944 0
M  V30 2716 C 239.258 5.13904 0.932714 0
M  V30 2717 H 240.952 2.9828 0.258781 0
M  V30 2718 H 238.498 1.43473 0.123029 0
M  V30 2719 H 240.451 3.25126 2.68088 0
M  V30 2720 H 239.175 2.0134 2.57157 0
M  V30 2721 H 237.834 3.5113 1.05371 0
M  V30 2722 H 237.482 3.58458 3.52869 0
M  V30 2723 H 237.182 5.17476 2.78374 0
M  V30 2724 H 238.706 4.88099 3.66868 0
M  V30 2725 H 240.12 5.53506 1.49345 0
M  V30 2726 H 238.517 5.94515 0.81684 0
M  V30 2727 H 239.587 4.84842 -0.0749568 0
M  V30 2728 N 240.93 -0.123565 1.57115 0
M  V30 2729 C 241.877 -1.15177 2.00007 0
M  V30 2730 C 242.847 -1.41403 0.871454 0
M  V30 2731 O 244.032 -1.53346 1.13533 0
M  V30 2732 C 241.172 -2.47436 2.40561 0
M  V30 2733 C 240.285 -2.28184 3.66819 0
M  V30 2734 C 239.42 -3.53641 3.96373 0
M  V30 2735 C 238.459 -3.29528 5.15827 0
M  V30 2736 N 237.596 -4.47175 5.41275 0
M  V30 2737 H 242.436 -0.779008 2.87638 0
M  V30 2738 H 239.973 -0.373166 1.42288 0
M  V30 2739 H 241.931 -3.24584 2.62109 0
M  V30 2740 H 240.561 -2.82614 1.55978 0
M  V30 2741 H 239.613 -1.41976 3.52912 0
M  V30 2742 H 240.925 -2.0634 4.5412 0
M  V30 2743 H 240.079 -4.39209 4.18545 0
M  V30 2744 H 238.818 -3.78512 3.07538 0
M  V30 2745 H 237.823 -2.42349 4.93505 0
M  V30 2746 H 239.048 -3.06031 6.06236 0
M  V30 2747 H 236.994 -4.72175 4.55397 0
M  V30 2748 H 236.911 -4.28419 6.22891 0
M  V30 2749 H 238.179 -5.3389 5.67963 0
M  V30 2750 N 242.408 -1.52605 -0.393616 0
M  V30 2751 C 243.355 -1.77055 -1.48054 0
M  V30 2752 C 244.325 -0.61358 -1.54352 0
M  V30 2753 O 245.51 -0.852806 -1.70681 0
M  V30 2754 C 242.65 -1.94108 -2.85335 0
M  V30 2755 C 241.763 -3.21792 -2.88226 0
M  V30 2756 C 240.898 -3.29188 -4.16904 0
M  V30 2757 C 239.937 -4.51013 -4.13828 0
M  V30 2758 N 239.074 -4.55716 -5.34105 0
M  V30 2759 H 243.914 -2.69815 -1.26506 0
M  V30 2760 H 241.451 -1.33683 -0.61379 0
M  V30 2761 H 243.409 -2.01979 -3.65049 0
M  V30 2762 H 242.039 -1.04713 -3.05344 0
M  V30 2763 H 241.091 -3.23015 -2.00911 0
M  V30 2764 H 242.403 -4.11557 -2.8182 0
M  V30 2765 H 241.557 -3.36216 -5.05018 0
M  V30 2766 H 240.296 -2.37389 -4.26026 0
M  V30 2767 H 239.301 -4.44115 -3.24102 0
M  V30 2768 H 240.526 -5.44123 -4.06333 0
M  V30 2769 H 238.472 -3.66807 -5.43865 0
M  V30 2770 H 238.389 -5.39346 -5.29756 0
M  V30 2771 H 239.657 -4.66993 -6.2413 0
M  V30 2772 N 243.887 0.651787 -1.4349 0
M  V30 2773 C 244.834 1.76462 -1.4876 0
M  V30 2774 C 245.804 1.62641 -0.337189 0
M  V30 2775 O 246.989 1.82864 -0.544544 0
M  V30 2776 C 244.129 3.14623 -1.41796 0
M  V30 2777 C 243.242 3.39568 -2.67053 0
M  V30 2778 C 242.377 4.67585 -2.52068 0
M  V30 2779 C 241.416 4.85639 -3.72587 0
M  V30 2780 N 240.553 6.04915 -3.56402 0
M  V30 2781 H 245.393 1.71293 -2.43849 0
M  V30 2782 H 242.93 0.835889 -1.21043 0
M  V30 2783 H 244.888 3.94496 -1.35753 0
M  V30 2784 H 243.518 3.18859 -0.50288 0
M  V30 2785 H 242.57 2.53783 -2.8337 0
M  V30 2786 H 243.882 3.48795 -3.56572 0
M  V30 2787 H 243.036 5.55586 -2.4374 0
M  V30 2788 H 241.775 4.60681 -1.60075 0
M  V30 2789 H 240.78 3.96073 -3.81321 0
M  V30 2790 H 242.005 4.94372 -4.65589 0
M  V30 2791 H 239.951 5.9914 -2.67146 0
M  V30 2792 H 239.868 6.15106 -4.39524 0
M  V30 2793 H 241.136 6.95533 -3.51929 0
M  V30 2794 N 245.365 1.30045 0.890287 0
M  V30 2795 C 246.298 1.10301 1.99772 0
M  V30 2796 C 247.276 0.0121631 1.62595 0
M  V30 2797 O 248.46 0.16469 1.87779 0
M  V30 2798 C 245.587 0.681125 3.31781 0
M  V30 2799 C 244.633 1.77206 3.87944 0
M  V30 2800 S 245.466 3.37335 4.15891 0
M  V30 2801 C 246.622 2.97036 5.50927 0
M  V30 2802 H 246.855 2.04057 2.16213 0
M  V30 2803 H 244.388 1.14299 1.03804 0
M  V30 2804 H 246.346 0.444439 4.08087 0
M  V30 2805 H 245.007 -0.236981 3.13205 0
M  V30 2806 H 244.2 1.42903 4.83316 0
M  V30 2807 H 243.802 1.96275 3.18358 0
M  V30 2808 H 246.094 2.44666 6.31779 0
M  V30 2809 H 247.037 3.91296 5.90164 0
M  V30 2810 H 247.445 2.35057 5.13233 0
M  V30 2811 N 246.843 -1.10192 1.12674 0
M  V30 2812 C 248.254 -1.63707 0.897604 0
M  V30 2813 C 248.605 -1.87812 -0.567546 0
M  V30 2814 O 247.73 -1.62196 -1.43253 0
M  V30 2815 C 248.325 -2.974 1.62292 0
M  V30 2816 C 246.884 -3.47772 1.43986 0
M  V30 2817 C 246.031 -2.22332 1.65722 0
M  V30 2818 H 248.982 -0.936587 1.28116 0
M  V30 2819 H 249.003 -3.64986 1.07541 0
M  V30 2820 H 248.515 -2.79824 2.68924 0
M  V30 2821 H 246.616 -3.70487 0.396206 0
M  V30 2822 H 246.729 -4.25723 2.19765 0
M  V30 2823 H 245.093 -2.30599 1.08149 0
M  V30 2824 H 245.876 -2.07285 2.73657 0
M  V30 2825 N 248.321 -0.919034 -1.28029 0
M  V30 2826 C 249.57 -0.550802 -1.94034 0
M  V30 2827 C 249.883 0.910877 -1.73096 0
M  V30 2828 O 251.089 1.3875 -2.33368 0
M  V30 2829 C 249.545 -0.934249 -3.47563 0
M  V30 2830 C 249.153 -2.41602 -3.7727 0
M  V30 2831 C 250.897 -0.636854 -4.19696 0
M  V30 2832 C 248.804 -2.73932 -5.24133 0
M  V30 2833 H 247.734 -0.202273 -0.726362 0
M  V30 2834 H 250.385 -1.11867 -1.45458 0
M  V30 2835 H 248.767 -0.295115 -3.94899 0
M  V30 2836 H 249.941 -3.10233 -3.40723 0
M  V30 2837 H 248.256 -2.68441 -3.18321 0
M  V30 2838 H 250.853 -0.855005 -5.2782 0
M  V30 2839 H 251.196 0.425575 -4.14119 0
M  V30 2840 H 251.729 -1.23469 -3.78154 0
M  V30 2841 H 248.468 -3.79049 -5.34792 0
M  V30 2842 H 247.988 -2.09942 -5.61858 0
M  V30 2843 H 249.667 -2.61215 -5.91925 0
M  V30 2844 N 249.799 1.42003 -0.683588 0
M  V30 2845 C 250.731 2.29183 0.0283068 0
M  V30 2846 C 251.744 1.4415 0.756611 0
M  V30 2847 O 252.933 1.67779 0.609306 0
M  V30 2848 C 250.033 3.21765 1.06398 0
M  V30 2849 C 249.206 4.35496 0.407723 0
M  V30 2850 C 248.265 5.08737 1.34437 0
M  V30 2851 O 247.291 5.62948 0.841318 0
M  V30 2852 N 248.493 5.15075 2.67728 0
M  V30 2853 H 251.258 2.9092 -0.720105 0
M  V30 2854 H 248.819 1.53025 -0.528682 0
M  V30 2855 H 250.811 3.6763 1.69204 0
M  V30 2856 H 249.381 2.61418 1.71404 0
M  V30 2857 H 248.601 3.92165 -0.400012 0
M  V30 2858 H 249.889 5.08776 -0.0490956 0
M  V30 2859 H 249.287 4.72457 3.11129 0
M  V30 2860 H 247.844 5.64556 3.2576 0
M  V30 2861 N 251.277 0.427512 1.51691 0
M  V30 2862 C 252.225 -0.403359 2.29076 0
M  V30 2863 C 253.219 -1.02962 1.34518 0
M  V30 2864 O 254.425 -0.965715 1.51901 0
M  V30 2865 H 250.8 -0.148879 0.737115 0
M  V30 2866 H 252.771 0.270295 2.97173 0
M  V30 2867 C 251.52 -1.49763 3.13794 0
M  V30 2868 H 250.843 -1.02508 3.86435 0
M  V30 2869 H 252.283 -2.05244 3.71014 0
M  V30 2870 C 250.742 -2.47536 2.28533 0
M  V30 2871 O 251.272 -3.51848 1.93819 0
M  V30 2872 N 249.478 -2.18187 1.91945 0
M  V30 2873 H 249.025 -1.33389 2.20375 0
M  V30 2874 H 248.983 -2.83848 1.35195 0
M  V30 2875 N 252.755 -1.56801 0.158532 0
M  V30 2876 C 254.003 -1.96102 -0.488712 0
M  V30 2877 C 254.324 -1.04498 -1.64636 0
M  V30 2878 O 253.594 -0.108783 -1.95598 0
M  V30 2879 H 252.174 -0.724102 -0.183535 0
M  V30 2880 H 254.836 -1.93457 0.236728 0
M  V30 2881 H 253.932 -3.00097 -0.857219 0
M  V30 2882 N 254.233 0.115231 -1.57178 0
M  V30 2883 C 255.481 0.820727 -1.84685 0
M  V30 2884 C 255.802 1.80237 -0.744279 0
M  V30 2885 O 255.072 1.94529 0.231375 0
M  V30 2886 H 253.652 0.306084 -0.681411 0
M  V30 2887 H 256.314 0.101656 -1.94635 0
M  V30 2888 H 255.41 1.36366 -2.80733 0
M  V30 2889 N 255.711 1.52812 0.385517 0
M  V30 2890 C 256.674 1.77188 1.45386 0
M  V30 2891 C 257.674 0.641953 1.4743 0
M  V30 2892 O 258.864 0.910033 1.4854 0
M  V30 2893 C 255.996 1.87582 2.8465 0
M  V30 2894 H 257.189 2.72583 1.25054 0
M  V30 2895 H 254.742 1.43586 0.617467 0
M  V30 2896 H 255.477 0.941849 3.10322 0
M  V30 2897 H 255.262 2.69748 2.84567 0
M  V30 2898 H 256.752 2.08102 3.62054 0
M  V30 2899 N 257.189 -0.644168 1.43834 0
M  V30 2900 C 258.137 -1.77793 1.49974 0
M  V30 2901 C 259.131 -1.65253 0.372536 0
M  V30 2902 O 260.337 -1.7149 0.546924 0
M  V30 2903 H 256.712 -0.58675 0.47035 0
M  V30 2904 H 258.683 -1.69736 2.45423 0
M  V30 2905 C 257.432 -3.16087 1.4486 0
M  V30 2906 H 256.755 -3.26378 2.30905 0
M  V30 2907 H 258.195 -3.95349 1.53217 0
M  V30 2908 C 256.654 -3.36484 0.167463 0
M  V30 2909 O 257.184 -3.94298 -0.767609 0
M  V30 2910 N 255.39 -2.90504 0.0747556 0
M  V30 2911 H 254.937 -2.4364 0.836507 0
M  V30 2912 H 254.895 -3.04527 -0.781714 0
M  V30 2913 N 258.668 -1.30515 -0.883378 0
M  V30 2914 C 259.598 -1.19607 -2.00541 0
M  V30 2915 C 260.579 -0.086346 -1.69881 0
M  V30 2916 O 261.764 -0.268654 -1.92333 0
M  V30 2917 C 258.894 -0.888758 -3.35736 0
M  V30 2918 C 257.848 -1.95659 -3.8066 0
M  V30 2919 C 257.174 -1.50224 -5.13164 0
M  V30 2920 C 258.474 -3.36788 -3.99213 0
M  V30 2921 H 260.168 -2.13476 -2.09925 0
M  V30 2922 H 257.714 -1.02775 -1.00863 0
M  V30 2923 H 259.667 -0.799094 -4.13754 0
M  V30 2924 H 258.391 0.0856125 -3.26488 0
M  V30 2925 H 257.05 -2.03591 -3.04871 0
M  V30 2926 H 256.698 -0.516092 -5.00345 0
M  V30 2927 H 256.398 -2.2165 -5.44192 0
M  V30 2928 H 257.922 -1.42639 -5.93706 0
M  V30 2929 H 259.336 -3.31605 -4.67665 0
M  V30 2930 H 257.733 -4.06314 -4.41621 0
M  V30 2931 H 258.803 -3.78561 -3.03017 0
M  V30 2932 N 260.146 1.09593 -1.13257 0
M  V30 2933 C 261.386 1.83349 -0.903472 0
M  V30 2934 C 261.75 1.83641 0.560351 0
M  V30 2935 O 262.951 2.53037 0.906947 0
M  V30 2936 C 261.222 3.25629 -1.47311 0
M  V30 2937 S 262.781 4.16408 -1.38382 0
M  V30 2938 H 259.599 0.632014 -0.325699 0
M  V30 2939 H 262.201 1.31817 -1.44376 0
M  V30 2940 H 260.905 3.22991 -2.53189 0
M  V30 2941 H 260.436 3.82233 -0.930689 0
M  V30 2942 H 262.451 4.94884 -0.361113 0
M  V30 2943 N 261.624 0.925811 1.2754 0
M  V30 2944 C 262.849 0.580924 1.99098 0
M  V30 2945 C 263.274 -0.833555 1.68622 0
M  V30 2946 O 262.632 -1.55903 0.925422 0
M  V30 2947 C 262.68 0.811186 3.51358 0
M  V30 2948 O 261.784 -0.124129 4.12213 0
M  V30 2949 H 261.125 0.223873 0.625122 0
M  V30 2950 H 263.655 1.24455 1.62395 0
M  V30 2951 H 263.665 0.72601 4.01489 0
M  V30 2952 H 262.34 1.84227 3.72872 0
M  V30 2953 H 260.917 0.0108006 3.72898 0
M  V30 2954 N 263.102 -1.41638 0.69111 0
M  V30 2955 C 264.327 -2.06148 0.227583 0
M  V30 2956 C 264.752 -1.51652 -1.11281 0
M  V30 2957 O 264.11 -0.64164 -1.69566 0
M  V30 2958 C 264.158 -3.60095 0.190858 0
M  V30 2959 O 263.262 -4.03845 -0.835664 0
M  V30 2960 H 262.603 -0.654434 0.112306 0
M  V30 2961 H 265.133 -1.81484 0.944714 0
M  V30 2962 H 265.143 -4.07995 0.020207 0
M  V30 2963 H 263.818 -3.99129 1.16915 0
M  V30 2964 H 262.395 -3.67458 -0.63473 0
M  V30 2965 N 264.58 -0.43555 -1.51462 0
M  V30 2966 C 265.827 0.131514 -2.02072 0
M  V30 2967 C 266.155 1.42868 -1.31981 0
M  V30 2968 O 265.41 1.91076 -0.422883 0
M  V30 2969 C 265.709 0.39942 -3.55161 0
M  V30 2970 C 265.375 -0.81172 -4.43533 0
M  V30 2971 C 264.037 -1.14387 -4.67407 0
M  V30 2972 C 266.389 -1.61976 -4.95392 0
M  V30 2973 C 263.717 -2.28477 -5.40384 0
M  V30 2974 C 266.069 -2.75164 -5.6962 0
M  V30 2975 C 264.733 -3.08835 -5.91758 0
M  V30 2976 H 264.003 0.0481244 -0.739436 0
M  V30 2977 H 266.65 -0.58238 -1.8243 0
M  V30 2978 H 264.955 1.19519 -3.73125 0
M  V30 2979 H 266.652 0.85157 -3.91854 0
M  V30 2980 H 263.242 -0.542898 -4.25148 0
M  V30 2981 H 267.426 -1.37637 -4.76833 0
M  V30 2982 H 262.682 -2.5488 -5.55739 0
M  V30 2983 H 266.856 -3.38147 -6.08793 0
M  V30 2984 H 264.483 -3.97353 -6.48086 0
M  V30 2985 N 266.058 1.56714 -0.166846 0
M  V30 2986 C 267.283 2.01557 0.488833 0
M  V30 2987 C 267.708 1.0463 1.56314 0
M  V30 2988 O 267.066 0.0251304 1.81283 0
M  V30 2989 C 267.114 3.4503 1.04818 0
M  V30 2990 O 266.218 3.51163 2.16236 0
M  V30 2991 H 265.559 0.653516 0.117526 0
M  V30 2992 H 268.089 2.02818 -0.269421 0
M  V30 2993 H 268.099 3.84243 1.37191 0
M  V30 2994 H 266.774 4.15077 0.261572 0
M  V30 2995 H 265.351 3.23807 1.84942 0
M  V30 2996 N 267.536 -0.106894 1.57237 0
M  V30 2997 C 268.785 -0.811163 1.8467 0
M  V30 2998 C 269.098 -1.80469 0.754342 0
M  V30 2999 O 270.304 -2.55601 0.915439 0
M  V30 3000 C 268.76 -1.49337 3.27454 0
M  V30 3001 C 268.368 -0.540217 4.44731 0
M  V30 3002 C 270.112 -2.18206 3.64124 0
M  V30 3003 C 268.019 -1.22634 5.78545 0
M  V30 3004 H 266.949 -0.306679 0.688813 0
M  V30 3005 H 269.6 -0.0639887 1.83388 0
M  V30 3006 H 267.982 -2.2876 3.23241 0
M  V30 3007 H 269.156 0.221659 4.60267 0
M  V30 3008 H 267.471 0.042146 4.16379 0
M  V30 3009 H 270.068 -2.70253 4.61376 0
M  V30 3010 H 270.411 -2.96562 2.92158 0
M  V30 3011 H 270.944 -1.45658 3.70174 0
M  V30 3012 H 267.683 -0.483832 6.53712 0
M  V30 3013 H 267.203 -1.95993 5.66874 0
M  V30 3014 H 268.882 -1.75615 6.2271 0
M  V30 3015 N 269.014 -1.53014 -0.377408 0
M  V30 3016 C 270.254 -1.70318 -1.1301 0
M  V30 3017 C 270.618 -0.439538 -1.86901 0
M  V30 3018 O 271.819 -0.489095 -2.64313 0
M  V30 3019 C 270.09 -2.91125 -2.07319 0
M  V30 3020 S 271.649 -3.29075 -2.90268 0
M  V30 3021 H 268.467 -0.599426 -0.382374 0
M  V30 3022 H 271.069 -1.91089 -0.412933 0
M  V30 3023 H 269.773 -3.81303 -1.51777 0
M  V30 3024 H 269.304 -2.7272 -2.83526 0
M  V30 3025 H 271.319 -2.80165 -4.09539 0
M  V30 3026 N 270.492 0.636531 -1.44174 0
M  V30 3027 C 271.442 1.74233 -1.47061 0
M  V30 3028 C 272.426 1.57331 -0.337034 0
M  V30 3029 O 273.618 1.67159 -0.581973 0
M  V30 3030 C 270.747 3.12897 -1.41246 0
M  V30 3031 C 269.833 3.35288 -2.59698 0
M  V30 3032 N 270.224 3.2807 -3.84972 0
M  V30 3033 C 268.522 3.66065 -2.54778 0
M  V30 3034 C 269.223 3.51001 -4.63867 0
M  V30 3035 N 268.199 3.73616 -3.94857 0
M  V30 3036 H 272.001 1.67103 -2.41773 0
M  V30 3037 H 269.515 0.838806 -1.3906 0
M  V30 3038 H 271.512 3.92189 -1.41398 0
M  V30 3039 H 270.172 3.21197 -0.47569 0
M  V30 3040 H 271.183 3.07109 -4.17019 0
M  V30 3041 H 267.86 3.81379 -1.6987 0
M  V30 3042 H 269.25 3.51059 -5.72894 0
M  V30 3043 N 271.97 1.30982 0.876444 0
M  V30 3044 C 273.198 1.23242 1.6619 0
M  V30 3045 C 273.613 -0.203345 1.87702 0
M  V30 3046 O 272.97 -1.13317 1.43057 0
M  V30 3047 C 273.021 1.96623 3.03351 0
M  V30 3048 O 272.742 3.34594 2.82804 0
M  V30 3049 C 274.243 1.95644 3.97792 0
M  V30 3050 H 271.463 0.426126 0.518322 0
M  V30 3051 H 274.007 1.7275 1.09442 0
M  V30 3052 H 272.162 1.50892 3.56806 0
M  V30 3053 H 272.576 3.71873 3.69879 0
M  V30 3054 H 274.05 2.51511 4.91372 0
M  V30 3055 H 274.527 0.937395 4.2908 0
M  V30 3056 H 275.133 2.41225 3.50272 0
M  V30 3057 N 273.449 -1.08991 1.13837 0
M  V30 3058 C 274.696 -1.81258 0.902882 0
M  V30 3059 C 275.024 -1.85936 -0.570803 0
M  V30 3060 O 274.279 -1.3267 -1.43865 0
M  V30 3061 C 274.578 -3.27042 1.44147 0
M  V30 3062 C 274.244 -3.4249 2.93276 0
M  V30 3063 C 272.906 -3.46414 3.33992 0
M  V30 3064 C 275.258 -3.4666 3.892 0
M  V30 3065 C 272.586 -3.52091 4.69307 0
M  V30 3066 C 274.938 -3.53872 5.24364 0
M  V30 3067 C 273.602 -3.56066 5.646 0
M  V30 3068 H 272.872 -0.663268 0.330388 0
M  V30 3069 H 275.519 -1.28368 1.42105 0
M  V30 3070 H 273.824 -3.82599 0.844097 0
M  V30 3071 H 275.521 -3.81499 1.23528 0
M  V30 3072 H 272.111 -3.40124 2.60794 0
M  V30 3073 H 276.295 -3.42865 3.58828 0
M  V30 3074 H 271.551 -3.52079 4.9985 0
M  V30 3075 H 275.725 -3.56043 5.98503 0
M  V30 3076 H 273.352 -3.60218 6.69438 0
M  V30 3077 N 274.927 -0.932562 -1.27047 0
M  V30 3078 C 275.859 -0.392734 -2.2581 0
M  V30 3079 C 276.872 0.479241 -1.55586 0
M  V30 3080 O 278.061 0.291078 -1.76111 0
M  V30 3081 C 275.161 0.455456 -3.35826 0
M  V30 3082 C 274.334 -0.398355 -4.35582 0
M  V30 3083 C 273.393 0.387985 -5.24768 0
M  V30 3084 O 272.419 -0.206003 -5.68827 0
M  V30 3085 N 273.621 1.68664 -5.55457 0
M  V30 3086 H 276.386 -1.24173 -2.72766 0
M  V30 3087 H 273.947 -0.800511 -1.40725 0
M  V30 3088 H 275.939 0.988692 -3.92437 0
M  V30 3089 H 274.509 1.20522 -2.88432 0
M  V30 3090 H 273.729 -1.11286 -3.78165 0
M  V30 3091 H 275.017 -0.981889 -4.99236 0
M  V30 3092 H 274.415 2.19147 -5.21528 0
M  V30 3093 H 272.972 2.1663 -6.14748 0
M  V30 3094 N 276.405 1.4127 -0.698611 0
M  V30 3095 C 277.651 2.01979 -0.239972 0
M  V30 3096 C 278.006 1.54353 1.14861 0
M  V30 3097 O 277.299 0.746218 1.76471 0
M  V30 3098 C 277.493 3.56592 -0.240192 0
M  V30 3099 C 277.322 4.19226 -1.62726 0
M  V30 3100 C 276.092 4.53389 -2.23084 0
M  V30 3101 C 278.29 4.45228 -2.57443 0
M  V30 3102 N 276.272 5.01327 -3.54323 0
M  V30 3103 C 277.643 4.94973 -3.73365 0
M  V30 3104 C 279.698 4.27243 -2.55671 0
M  V30 3105 C 278.401 5.28624 -4.878 0
M  V30 3106 C 280.427 4.61985 -3.69221 0
M  V30 3107 C 279.789 5.11904 -4.83873 0
M  V30 3108 H 275.888 0.770561 -0.133269 0
M  V30 3109 H 278.472 1.71767 -0.916748 0
M  V30 3110 H 276.643 3.86271 0.406082 0
M  V30 3111 H 278.375 4.04025 0.23356 0
M  V30 3112 H 275.13 4.39946 -1.75341 0
M  V30 3113 H 275.554 5.29697 -4.21604 0
M  V30 3114 H 280.196 3.87884 -1.68243 0
M  V30 3115 H 277.914 5.66905 -5.75885 0
M  V30 3116 H 281.5 4.49725 -3.69105 0
M  V30 3117 H 280.38 5.38282 -5.70282 0
M  V30 3118 N 277.883 0.443576 1.51229 0
M  V30 3119 C 278.833 -0.382787 2.24764 0
M  V30 3120 C 279.817 -0.984836 1.27239 0
M  V30 3121 O 281.009 -0.901943 1.52296 0
M  V30 3122 C 278.138 -1.47989 3.09765 0
M  V30 3123 C 277.224 -0.886931 4.14722 0
M  V30 3124 N 277.615 -0.0237103 5.05794 0
M  V30 3125 C 275.913 -1.15385 4.30816 0
M  V30 3126 C 276.614 0.309971 5.80874 0
M  V30 3127 N 275.59 -0.307989 5.42727 0
M  V30 3128 H 279.392 0.282624 2.92538 0
M  V30 3129 H 276.906 0.256027 1.60369 0
M  V30 3130 H 278.903 -2.08482 3.61027 0
M  V30 3131 H 277.563 -2.14758 2.43535 0
M  V30 3132 H 278.574 0.34318 5.16762 0
M  V30 3133 H 275.251 -1.81857 3.75812 0
M  V30 3134 H 276.641 1.01279 6.64223 0
M  V30 3135 N 279.361 -1.56624 0.175154 0
M  V30 3136 C 280.271 -2.21741 -0.766042 0
M  V30 3137 C 281.287 -1.21023 -1.25018 0
M  V30 3138 O 282.463 -1.53697 -1.3015 0
M  V30 3139 C 279.528 -2.84839 -1.97655 0
M  V30 3140 C 278.589 -4.00769 -1.53892 0
M  V30 3141 C 277.822 -4.60849 -2.69173 0
M  V30 3142 O 278.045 -4.19823 -3.86141 0
M  V30 3143 O 276.979 -5.50655 -2.43028 0
M  V30 3144 H 280.805 -3.02738 -0.241585 0
M  V30 3145 H 278.39 -1.49305 -0.053222 0
M  V30 3146 H 280.272 -3.24834 -2.68442 0
M  V30 3147 H 278.947 -2.06836 -2.48999 0
M  V30 3148 H 277.854 -3.65436 -0.80044 0
M  V30 3149 H 279.187 -4.80376 -1.07236 0
M  V30 3150 N 280.839 0.0985539 -1.57292 0
M  V30 3151 C 281.802 1.10402 -2.00858 0
M  V30 3152 C 282.802 1.33146 -0.901593 0
M  V30 3153 O 283.992 1.29318 -1.16716 0
M  V30 3154 C 281.124 2.45394 -2.36632 0
M  V30 3155 H 282.317 0.729099 -2.90902 0
M  V30 3156 H 279.87 0.343495 -1.52479 0
M  V30 3157 H 280.605 2.87769 -1.49531 0
M  V30 3158 H 280.39 2.30235 -3.17387 0
M  V30 3159 H 281.88 3.17718 -2.71007 0
M  V30 3160 N 282.317 1.53212 0.369288 0
M  V30 3161 C 283.25 1.74166 1.4745 0
M  V30 3162 C 284.228 0.589923 1.51521 0
M  V30 3163 O 285.412 0.822078 1.69629 0
M  V30 3164 C 282.539 1.81711 2.8583 0
M  V30 3165 C 281.585 3.03649 2.99499 0
M  V30 3166 S 282.418 4.63242 2.6864 0
M  V30 3167 C 283.574 4.7363 4.09177 0
M  V30 3168 H 283.807 2.67636 1.29454 0
M  V30 3169 H 281.34 1.43754 0.563396 0
M  V30 3170 H 283.298 1.86743 3.65564 0
M  V30 3171 H 281.959 0.89299 3.01139 0
M  V30 3172 H 281.152 3.05526 4.00836 0
M  V30 3173 H 280.754 2.9671 2.27683 0
M  V30 3174 H 283.046 4.53456 5.03372 0
M  V30 3175 H 283.989 5.75682 4.12306 0
M  V30 3176 H 284.397 4.02295 3.96004 0
M  V30 3177 N 283.795 -0.628877 1.44509 0
M  V30 3178 C 285.042 -1.38839 1.47411 0
M  V30 3179 C 285.37 -1.94202 0.10757 0
M  V30 3180 O 284.625 -1.74243 -0.890947 0
M  V30 3181 C 284.924 -2.56995 2.48371 0
M  V30 3182 C 284.59 -2.19908 3.93639 0
M  V30 3183 C 283.252 -2.09506 4.33198 0
M  V30 3184 C 285.604 -1.9064 4.85083 0
M  V30 3185 C 282.932 -1.68028 5.62124 0
M  V30 3186 C 285.284 -1.50655 6.14399 0
M  V30 3187 C 283.948 -1.38796 6.5291 0
M  V30 3188 H 283.218 -0.508048 0.539414 0
M  V30 3189 H 285.865 -0.712913 1.77735 0
M  V30 3190 H 284.17 -3.29786 2.11538 0
M  V30 3191 H 285.867 -3.15223 2.47861 0
M  V30 3192 H 282.457 -2.28922 3.62343 0
M  V30 3193 H 286.641 -1.97585 4.55273 0
M  V30 3194 H 281.897 -1.57452 5.90778 0
M  V30 3195 H 286.071 -1.27048 6.84713 0
M  V30 3196 H 283.698 -1.06429 7.52713 0
M  V30 3197 N 285.273 -1.31445 -0.869486 0
M  V30 3198 C 286.203 -1.21727 -1.99261 0
M  V30 3199 C 287.184 -0.104359 -1.6978 0
M  V30 3200 O 288.369 -0.289038 -1.92037 0
M  V30 3201 C 285.499 -0.924317 -3.34774 0
M  V30 3202 C 284.453 -1.99685 -3.78563 0
M  V30 3203 C 283.779 -1.55658 -5.11541 0
M  V30 3204 C 285.079 -3.41003 -3.95619 0
M  V30 3205 H 286.773 -2.1569 -2.07649 0
M  V30 3206 H 284.319 -1.03839 -0.997675 0
M  V30 3207 H 286.272 -0.842934 -4.12883 0
M  V30 3208 H 284.996 0.0509793 -3.2656 0
M  V30 3209 H 283.655 -2.06813 -3.02694 0
M  V30 3210 H 283.303 -0.569132 -4.9977 0
M  V30 3211 H 283.003 -2.27409 -5.41811 0
M  V30 3212 H 284.527 -1.48928 -5.92159 0
M  V30 3213 H 285.941 -3.36547 -4.64122 0
M  V30 3214 H 284.338 -4.10975 -4.37286 0
M  V30 3215 H 285.408 -3.81754 -2.98985 0
M  V30 3216 N 286.751 1.08385 -1.14413 0
M  V30 3217 C 287.681 2.17321 -0.854044 0
M  V30 3218 C 288.662 1.69024 0.191049 0
M  V30 3219 O 289.847 1.94141 0.0476779 0
M  V30 3220 C 286.977 3.45719 -0.330983 0
M  V30 3221 C 285.931 4.07409 -1.31155 0
M  V30 3222 C 285.257 5.30762 -0.64778 0
M  V30 3223 C 286.557 4.48665 -2.67388 0
M  V30 3224 H 288.251 2.41845 -1.76498 0
M  V30 3225 H 285.797 1.16233 -0.850051 0
M  V30 3226 H 287.75 4.21241 -0.115645 0
M  V30 3227 H 286.474 3.2075 0.615381 0
M  V30 3228 H 285.133 3.33919 -1.51306 0
M  V30 3229 H 284.781 5.02078 0.304398 0
M  V30 3230 H 284.481 5.72992 -1.30207 0
M  V30 3231 H 286.005 6.08998 -0.441972 0
M  V30 3232 H 287.419 5.15364 -2.51143 0
M  V30 3233 H 285.816 5.01814 -3.29093 0
M  V30 3234 H 286.886 3.60543 -3.24248 0
M  V30 3235 N 288.23 0.939286 1.26551 0
M  V30 3236 C 289.14 0.453432 2.30176 0
M  V30 3237 C 290.156 -0.471649 1.67486 0
M  V30 3238 O 291.332 -0.35164 1.98306 0
M  V30 3239 C 288.397 -0.275326 3.45605 0
M  V30 3240 C 287.458 0.686084 4.23782 0
M  V30 3241 C 286.691 -0.00798994 5.33699 0
M  V30 3242 O 286.914 -1.22528 5.57085 0
M  V30 3243 O 285.848 0.669746 5.98162 0
M  V30 3244 H 289.674 1.31416 2.73795 0
M  V30 3245 H 287.259 0.705095 1.31715 0
M  V30 3246 H 289.141 -0.685911 4.1578 0
M  V30 3247 H 287.816 -1.11147 3.0402 0
M  V30 3248 H 286.723 1.14658 3.56096 0
M  V30 3249 H 288.056 1.48979 4.69112 0
M  V30 3250 N 289.708 -1.40897 0.706093 0
M  V30 3251 C 290.955 -2.01054 0.241531 0
M  V30 3252 C 291.283 -1.55956 -1.16223 0
M  V30 3253 O 290.538 -0.766336 -1.80072 0
M  V30 3254 C 290.837 -3.5646 0.259099 0
M  V30 3255 C 290.503 -4.21106 1.61184 0
M  V30 3256 C 289.165 -4.38479 1.98216 0
M  V30 3257 C 291.517 -4.57256 2.50132 0
M  V30 3258 C 288.845 -4.89282 3.2376 0
M  V30 3259 C 291.197 -5.09454 3.7502 0
M  V30 3260 C 289.861 -5.25037 4.12181 0
M  V30 3261 H 289.131 -0.73571 0.0883825 0
M  V30 3262 H 291.778 -1.68645 0.907257 0
M  V30 3263 H 290.083 -3.88721 -0.490189 0
M  V30 3264 H 291.78 -4.00826 -0.11804 0
M  V30 3265 H 288.37 -4.07966 1.31384 0
M  V30 3266 H 292.554 -4.43479 2.228 0
M  V30 3267 H 287.81 -4.99531 3.52532 0
M  V30 3268 H 291.984 -5.36404 4.44121 0
M  V30 3269 H 289.611 -5.64164 5.09532 0
M  V30 3270 N 291.186 -0.45159 -1.50991 0
M  V30 3271 C 292.433 0.110074 -2.02201 0
M  V30 3272 C 292.761 1.4146 -1.33489 0
M  V30 3273 O 292.016 1.90617 -0.443125 0
M  V30 3274 C 292.315 0.361728 -3.55565 0
M  V30 3275 C 291.981 -0.858717 -4.42648 0
M  V30 3276 C 290.643 -1.19338 -4.66167 0
M  V30 3277 C 292.995 -1.67221 -4.93646 0
M  V30 3278 C 290.323 -2.34195 -5.37931 0
M  V30 3279 C 292.675 -2.8119 -5.6667 0
M  V30 3280 C 291.339 -3.15094 -5.88449 0
M  V30 3281 H 290.609 0.040279 -0.739904 0
M  V30 3282 H 293.256 -0.601696 -1.81802 0
M  V30 3283 H 291.561 1.15554 -3.74372 0
M  V30 3284 H 293.258 0.80996 -3.92735 0
M  V30 3285 H 289.848 -0.58796 -4.24548 0
M  V30 3286 H 294.032 -1.42686 -4.75347 0
M  V30 3287 H 289.288 -2.6076 -5.53005 0
M  V30 3288 H 293.462 -3.44585 -6.05173 0
M  V30 3289 H 291.089 -4.04204 -6.43835 0
M  V30 3290 N 292.664 1.56529 -0.183458 0
M  V30 3291 C 293.594 2.21549 0.737456 0
M  V30 3292 C 294.575 1.17489 1.23005 0
M  V30 3293 O 295.76 1.45959 1.281 0
M  V30 3294 C 292.89 2.86575 1.96194 0
M  V30 3295 C 291.844 3.96778 1.60473 0
M  V30 3296 C 291.17 4.48911 2.90487 0
M  V30 3297 C 292.47 5.15767 0.823497 0
M  V30 3298 H 294.164 2.98761 0.195453 0
M  V30 3299 H 291.71 1.43702 0.0925686 0
M  V30 3300 H 293.663 3.30739 2.61131 0
M  V30 3301 H 292.387 2.06749 2.52828 0
M  V30 3302 H 291.046 3.53286 0.978997 0
M  V30 3303 H 290.694 3.65862 3.45186 0
M  V30 3304 H 290.394 5.23265 2.67335 0
M  V30 3305 H 291.918 4.95771 3.56432 0
M  V30 3306 H 293.332 5.56549 1.37571 0
M  V30 3307 H 291.729 5.96114 0.690551 0
M  V30 3308 H 292.799 4.84574 -0.177782 0
M  V30 3309 N 294.142 -0.090211 1.57342 0
M  V30 3310 C 295.553 -0.644173 1.75235 0
M  V30 3311 C 295.904 -1.78865 0.806335 0
M  V30 3312 O 295.029 -2.16395 -0.0140128 0
M  V30 3313 C 295.624 -1.17532 3.1776 0
M  V30 3314 C 294.183 -1.67531 3.37061 0
M  V30 3315 C 293.33 -0.58693 2.71017 0
M  V30 3316 H 296.281 0.135884 1.58117 0
M  V30 3317 H 296.302 -2.04455 3.20902 0
M  V30 3318 H 295.814 -0.342138 3.86589 0
M  V30 3319 H 293.915 -2.53234 2.73319 0
M  V30 3320 H 294.028 -1.76493 4.45406 0
M  V30 3321 H 292.392 -1.02756 2.33052 0
M  V30 3322 H 293.175 0.235758 3.4249 0
M  V30 3323 N 295.62 -1.53406 -0.361157 0
M  V30 3324 C 296.55 -1.83136 -1.44857 0
M  V30 3325 C 297.531 -0.685174 -1.5569 0
M  V30 3326 O 298.716 -0.93544 -1.70186 0
M  V30 3327 C 295.846 -2.02522 -2.82138 0
M  V30 3328 C 294.8 -3.18302 -2.86126 0
M  V30 3329 C 294.126 -3.22989 -4.26125 0
M  V30 3330 C 295.426 -4.56796 -2.53248 0
M  V30 3331 H 297.12 -2.74201 -1.20226 0
M  V30 3332 H 294.666 -1.31938 -0.576922 0
M  V30 3333 H 296.619 -2.21904 -3.58241 0
M  V30 3334 H 295.343 -1.08172 -3.08166 0
M  V30 3335 H 294.002 -2.98747 -2.12475 0
M  V30 3336 H 293.65 -2.26267 -4.49235 0
M  V30 3337 H 293.35 -4.00781 -4.29708 0
M  V30 3338 H 294.874 -3.44559 -5.04094 0
M  V30 3339 H 296.288 -4.7631 -3.19064 0
M  V30 3340 H 294.685 -5.36862 -2.68141 0
M  V30 3341 H 295.755 -4.61606 -1.48484 0
M  V30 3342 N 297.098 0.621204 -1.44841 0
M  V30 3343 C 298.346 1.37783 -1.47852 0
M  V30 3344 C 298.667 1.94653 -0.116224 0
M  V30 3345 O 297.937 1.76367 0.852737 0
M  V30 3346 H 296.517 0.511453 -0.544449 0
M  V30 3347 H 299.179 0.730446 -1.80694 0
M  V30 3348 H 298.275 2.20414 -2.20961 0
M  V30 3349 N 298.576 1.31904 0.862503 0
M  V30 3350 C 299.825 1.21373 1.61094 0
M  V30 3351 C 300.138 -0.22504 1.94301 0
M  V30 3352 O 301.344 -0.452121 2.67709 0
M  V30 3353 C 299.8 2.12525 2.9045 0
M  V30 3354 C 299.408 3.61441 2.64697 0
M  V30 3355 C 301.152 2.10813 3.68454 0
M  V30 3356 C 299.059 4.44578 3.90006 0
M  V30 3357 H 297.989 0.450705 0.604468 0
M  V30 3358 H 300.64 1.56811 0.953027 0
M  V30 3359 H 299.022 1.69994 3.57656 0
M  V30 3360 H 300.196 4.12264 2.05851 0
M  V30 3361 H 298.511 3.65205 2.00036 0
M  V30 3362 H 301.108 2.70167 4.61426 0
M  V30 3363 H 301.451 1.09713 4.01583 0
M  V30 3364 H 301.984 2.51583 3.08141 0
M  V30 3365 H 298.723 5.46461 3.62023 0
M  V30 3366 H 298.243 3.98508 4.48276 0
M  V30 3367 H 299.922 4.57176 4.5782 0
M  V30 3368 N 300.054 -1.07777 1.14986 0
M  V30 3369 C 301.303 -1.79669 0.916617 0
M  V30 3370 C 301.616 -1.87474 -0.557917 0
M  V30 3371 O 302.822 -2.55845 -0.908617 0
M  V30 3372 C 301.278 -3.22848 1.59051 0
M  V30 3373 C 300.886 -3.23257 3.10176 0
M  V30 3374 C 302.63 -3.99379 1.43864 0
M  V30 3375 C 300.537 -4.61063 3.70372 0
M  V30 3376 H 299.467 -0.673349 0.33929 0
M  V30 3377 H 302.118 -1.21003 1.37951 0
M  V30 3378 H 300.5 -3.8168 1.0553 0
M  V30 3379 H 301.674 -2.74095 3.70417 0
M  V30 3380 H 299.989 -2.60222 3.25074 0
M  V30 3381 H 302.586 -5.0122 1.86232 0
M  V30 3382 H 302.929 -4.14511 0.385564 0
M  V30 3383 H 303.462 -3.47032 1.94457 0
M  V30 3384 H 300.201 -4.51135 4.7556 0
M  V30 3385 H 299.721 -5.1048 3.14913 0
M  V30 3386 H 301.4 -5.30034 3.71043 0
M  V30 3387 N 301.532 -0.945985 -1.26051 0
M  V30 3388 C 302.462 -0.477172 -2.28572 0
M  V30 3389 C 303.443 0.472032 -1.63419 0
M  V30 3390 O 304.628 0.372853 -1.90587 0
M  V30 3391 C 301.758 0.253975 -3.4637 0
M  V30 3392 C 300.712 -0.609135 -4.23643 0
M  V30 3393 C 300.038 0.252252 -5.34105 0
M  V30 3394 C 301.338 -1.8829 -4.8718 0
M  V30 3395 H 303.032 -1.33402 -2.68038 0
M  V30 3396 H 300.578 -0.642904 -1.28852 0
M  V30 3397 H 302.531 0.593016 -4.17207 0
M  V30 3398 H 301.255 1.145 -3.05871 0
M  V30 3399 H 299.914 -0.931138 -3.54578 0
M  V30 3400 H 299.562 1.14278 -4.89846 0
M  V30 3401 H 299.262 -0.32188 -5.86718 0
M  V30 3402 H 300.786 0.586454 -6.07777 0
M  V30 3403 H 302.2 -1.61081 -5.50205 0
M  V30 3404 H 300.597 -2.40199 -5.49931 0
M  V30 3405 H 301.667 -2.59134 -4.09851 0
M  V30 3406 N 303.011 1.40521 -0.713556 0
M  V30 3407 C 304.258 2.00923 -0.25219 0
M  V30 3408 C 304.586 1.56571 1.15395 0
M  V30 3409 O 303.841 0.775874 1.79663 0
M  V30 3410 C 304.14 3.56317 -0.278 0
M  V30 3411 C 303.806 4.20246 -1.63415 0
M  V30 3412 C 302.468 4.37422 -2.00538 0
M  V30 3413 C 304.82 4.55923 -2.52554 0
M  V30 3414 C 302.148 4.87558 -3.2635 0
M  V30 3415 C 304.5 5.07458 -3.77716 0
M  V30 3416 C 303.164 5.22843 -4.14959 0
M  V30 3417 H 302.434 0.735231 -0.0922829 0
M  V30 3418 H 305.081 1.68161 -0.916188 0
M  V30 3419 H 303.386 3.88976 0.469567 0
M  V30 3420 H 305.083 4.00883 0.0967819 0
M  V30 3421 H 301.673 4.07263 -1.33546 0
M  V30 3422 H 305.857 4.42291 -2.25149 0
M  V30 3423 H 301.113 4.97654 -3.55176 0
M  V30 3424 H 305.287 5.34041 -4.4696 0
M  V30 3425 H 302.914 5.61454 -5.12516 0
M  V30 3426 N 304.489 0.459591 1.5075 0
M  V30 3427 C 305.729 -0.09824 2.04164 0
M  V30 3428 C 306.093 -1.3801 1.33481 0
M  V30 3429 O 307.294 -2.01959 1.77387 0
M  V30 3430 C 305.565 -0.289467 3.56226 0
M  V30 3431 S 307.124 -0.807507 4.31306 0
M  V30 3432 H 303.942 -0.0213845 0.710678 0
M  V30 3433 H 306.544 0.624098 1.85271 0
M  V30 3434 H 305.248 0.649461 4.05229 0
M  V30 3435 H 304.779 -1.03825 3.79452 0
M  V30 3436 H 306.794 -2.0824 4.50389 0
M  V30 3437 N 305.967 -1.56429 0.191757 0
M  V30 3438 C 307.192 -2.02309 -0.456706 0
M  V30 3439 C 307.617 -1.07103 -1.5463 0
M  V30 3440 O 306.975 -0.0539677 -1.8122 0
M  V30 3441 C 307.023 -3.46654 -0.993159 0
M  V30 3442 O 306.127 -3.54559 -2.10622 0
M  V30 3443 H 305.468 -0.655303 -0.107114 0
M  V30 3444 H 307.998 -2.02364 0.301653 0
M  V30 3445 H 308.008 -3.86377 -1.31061 0
M  V30 3446 H 306.683 -4.1544 -0.195504 0
M  V30 3447 H 305.26 -3.26708 -1.79767 0
M  V30 3448 N 307.445 0.0818655 -1.57387 0
M  V30 3449 C 308.408 1.08265 -2.02018 0
M  V30 3450 C 309.408 1.32183 -0.915664 0
M  V30 3451 O 310.598 1.28073 -1.18081 0
M  V30 3452 C 307.73 2.42871 -2.39221 0
M  V30 3453 H 308.923 0.698204 -2.91659 0
M  V30 3454 H 306.476 0.327303 -1.52835 0
M  V30 3455 H 307.211 2.86167 -1.52575 0
M  V30 3456 H 306.996 2.26855 -3.19811 0
M  V30 3457 H 308.486 3.14826 -2.74362 0
M  V30 3458 N 308.923 1.53595 0.353017 0
M  V30 3459 C 310.339 1.43648 0.695516 0
M  V30 3460 C 310.539 0.585617 1.92802 0
M  V30 3461 O 309.595 0.0729223 2.52395 0
M  V30 3462 C 310.908 2.8701 0.896991 0
M  V30 3463 C 312.456 2.96723 0.996209 0
M  V30 3464 C 312.931 4.41173 1.23007 0
M  V30 3465 N 314.422 4.44657 1.29749 0
M  V30 3466 C 315.157 5.53547 1.49577 0
M  V30 3467 N 314.653 6.72461 1.66639 0
M  V30 3468 N 316.446 5.41145 1.52048 0
M  V30 3469 H 308.597 2.07415 -0.457481 0
M  V30 3470 H 310.86 0.9372 -0.142687 0
M  V30 3471 H 310.566 3.51644 0.0629938 0
M  V30 3472 H 310.44 3.31401 1.80148 0
M  V30 3473 H 312.827 2.32235 1.82074 0
M  V30 3474 H 312.908 2.55707 0.0688331 0
M  V30 3475 H 312.552 5.06238 0.410505 0
M  V30 3476 H 312.482 4.79772 2.17086 0
M  V30 3477 H 314.973 3.58963 1.18126 0
M  V30 3478 H 315.286 7.51214 1.81378 0
M  V30 3479 H 313.631 6.75423 1.63794 0
M  V30 3480 H 316.822 4.47205 1.38294 0
M  V30 3481 H 316.995 6.26068 1.67159 0
M  V30 3482 N 310.401 -0.613514 1.45168 0
M  V30 3483 C 311.65 -1.36874 1.4815 0
M  V30 3484 C 311.963 -1.952 0.124982 0
M  V30 3485 O 313.169 -2.71481 0.0324176 0
M  V30 3486 C 311.625 -2.47905 2.60904 0
M  V30 3487 C 311.233 -1.96016 4.02842 0
M  V30 3488 C 312.977 -3.24965 2.73126 0
M  V30 3489 C 310.884 -3.04494 5.06988 0
M  V30 3490 H 309.814 -0.514428 0.551253 0
M  V30 3491 H 312.465 -0.658182 1.7129 0
M  V30 3492 H 310.847 -3.21618 2.31037 0
M  V30 3493 H 312.021 -1.29051 4.4236 0
M  V30 3494 H 310.336 -1.31719 3.95018 0
M  V30 3495 H 312.933 -4.05865 3.48106 0
M  V30 3496 H 313.276 -3.75588 1.79553 0
M  V30 3497 H 313.809 -2.5835 3.0249 0
M  V30 3498 H 310.548 -2.58795 6.0225 0
M  V30 3499 H 310.068 -3.70044 4.72046 0
M  V30 3500 H 311.747 -3.68976 5.31475 0
M  V30 3501 N 311.879 -1.3236 -0.855495 0
M  V30 3502 C 313.128 -1.22226 -1.60448 0
M  V30 3503 C 313.441 0.214733 -1.94418 0
M  V30 3504 O 314.647 0.437917 -2.67945 0
M  V30 3505 C 313.103 -2.14063 -2.89318 0
M  V30 3506 C 312.711 -3.62839 -2.62777 0
M  V30 3507 C 314.455 -2.12764 -3.67331 0
M  V30 3508 C 312.362 -4.4664 -3.87643 0
M  V30 3509 H 311.292 -0.453904 -0.602069 0
M  V30 3510 H 313.943 -1.57314 -0.944698 0
M  V30 3511 H 312.325 -1.71889 -3.5675 0
M  V30 3512 H 313.499 -4.1335 -2.03662 0
M  V30 3513 H 311.814 -3.66261 -1.98096 0
M  V30 3514 H 314.411 -2.72611 -4.59987 0
M  V30 3515 H 314.754 -1.11841 -4.00995 0
M  V30 3516 H 315.287 -2.53214 -3.06802 0
M  V30 3517 H 312.026 -5.48373 -3.5912 0
M  V30 3518 H 311.546 -4.0088 -4.46156 0
M  V30 3519 H 313.225 -4.59597 -4.55389 0
M  V30 3520 N 313.357 1.07166 -1.15556 0
M  V30 3521 C 314.603 1.80222 -0.942961 0
M  V30 3522 C 314.958 1.85121 0.524209 0
M  V30 3523 O 314.251 1.32531 1.38369 0
M  V30 3524 C 314.445 3.24707 -1.49332 0
M  V30 3525 C 314.274 3.33887 -3.01247 0
M  V30 3526 C 313.044 3.44337 -3.69811 0
M  V30 3527 C 315.242 3.24484 -3.99017 0
M  V30 3528 N 313.224 3.42439 -5.09518 0
M  V30 3529 C 314.595 3.29726 -5.25053 0
M  V30 3530 C 316.65 3.08307 -3.90962 0
M  V30 3531 C 315.353 3.20455 -6.43973 0
M  V30 3532 C 317.379 3.00371 -5.09442 0
M  V30 3533 C 316.741 3.06227 -6.34354 0
M  V30 3534 H 312.84 0.672709 -0.398731 0
M  V30 3535 H 315.424 1.27905 -1.46794 0
M  V30 3536 H 313.595 3.7544 -0.994946 0
M  V30 3537 H 315.327 3.85894 -1.21935 0
M  V30 3538 H 312.082 3.48762 -3.20409 0
M  V30 3539 H 312.506 3.45013 -5.8249 0
M  V30 3540 H 317.148 3.02633 -2.95251 0
M  V30 3541 H 314.866 3.24888 -7.39914 0
M  V30 3542 H 318.452 2.88955 -5.04971 0
M  V30 3543 H 317.332 3.00132 -7.24493 0
M  V30 3544 N 314.835 0.952656 1.25548 0
M  V30 3545 C 316.06 0.623025 1.97821 0
M  V30 3546 C 316.485 -0.7976 1.70352 0
M  V30 3547 O 315.843 -1.53905 0.958283 0
M  V30 3548 C 315.891 0.885532 3.49558 0
M  V30 3549 O 314.995 -0.0366641 4.12384 0
M  V30 3550 H 314.336 0.237082 0.620232 0
M  V30 3551 H 316.866 1.27871 1.59719 0
M  V30 3552 H 316.876 0.811009 3.99858 0
M  V30 3553 H 315.551 1.92094 3.6888 0
M  V30 3554 H 314.128 0.0898954 3.72792 0
M  V30 3555 N 316.313 -1.40141 0.720998 0
M  V30 3556 C 317.243 -2.33339 0.0867621 0
M  V30 3557 C 318.224 -1.53178 -0.739622 0
M  V30 3558 O 319.409 -1.81625 -0.687449 0
M  V30 3559 C 316.539 -3.37194 -0.831728 0
M  V30 3560 C 315.493 -4.27857 -0.110558 0
M  V30 3561 C 314.819 -5.22294 -1.14513 0
M  V30 3562 C 316.119 -5.11872 1.0385 0
M  V30 3563 H 317.813 -2.86626 0.865219 0
M  V30 3564 H 315.359 -1.37814 0.417516 0
M  V30 3565 H 317.312 -4.01335 -1.28485 0
M  V30 3566 H 316.036 -2.82314 -1.64214 0
M  V30 3567 H 314.695 -3.65176 0.322797 0
M  V30 3568 H 314.343 -4.63717 -1.94874 0
M  V30 3569 H 314.043 -5.83797 -0.667446 0
M  V30 3570 H 315.567 -5.89312 -1.59824 0
M  V30 3571 H 316.981 -5.69436 0.664482 0
M  V30 3572 H 315.378 -5.82445 1.4449 0
M  V30 3573 H 316.448 -4.4753 1.86668 0
M  V30 3574 N 317.792 -0.46758 -1.50504 0
M  V30 3575 C 319.208 -0.121533 -1.59137 0
M  V30 3576 C 319.408 1.3717 -1.47603 0
M  V30 3577 O 318.464 2.14464 -1.33272 0
M  V30 3578 C 319.777 -0.6686 -2.93173 0
M  V30 3579 C 321.325 -0.631716 -3.06559 0
M  V30 3580 C 321.8 -1.15627 -4.43164 0
M  V30 3581 N 323.291 -1.11553 -4.49567 0
M  V30 3582 C 324.026 -1.49195 -5.5365 0
M  V30 3583 N 323.522 -1.94269 -6.65005 0
M  V30 3584 N 325.315 -1.4082 -5.44175 0
M  V30 3585 H 317.466 -1.4388 -1.56245 0
M  V30 3586 H 319.729 -0.594784 -0.738198 0
M  V30 3587 H 319.435 -1.71453 -3.07078 0
M  V30 3588 H 319.309 -0.11021 -3.77039 0
M  V30 3589 H 321.696 0.405297 -2.92304 0
M  V30 3590 H 321.777 -1.22687 -2.24458 0
M  V30 3591 H 321.421 -2.1919 -4.58168 0
M  V30 3592 H 321.351 -0.537365 -5.23851 0
M  V30 3593 H 323.842 -0.784895 -3.69659 0
M  V30 3594 H 324.155 -2.21148 -7.40482 0
M  V30 3595 H 322.5 -1.98219 -6.66134 0
M  V30 3596 H 325.691 -1.0545 -4.56068 0
M  V30 3597 H 325.864 -1.70481 -6.25172 0
M  V30 3598 N 319.27 1.56325 -0.20005 0
M  V30 3599 C 320.202 2.16555 0.750771 0
M  V30 3600 C 321.215 1.12871 1.1732 0
M  V30 3601 O 322.404 1.39943 1.10807 0
M  V30 3602 C 319.504 2.71684 2.02586 0
M  V30 3603 C 318.677 4.00321 1.76244 0
M  V30 3604 C 317.736 4.40227 2.88248 0
M  V30 3605 O 316.762 5.07552 2.57642 0
M  V30 3606 N 317.964 4.04138 4.16717 0
M  V30 3607 H 320.729 2.98772 0.235685 0
M  V30 3608 H 318.29 1.6189 -0.0182594 0
M  V30 3609 H 320.282 2.95363 2.76664 0
M  V30 3610 H 318.852 1.93893 2.45202 0
M  V30 3611 H 318.072 3.84723 0.85919 0
M  V30 3612 H 319.36 4.84279 1.56048 0
M  V30 3613 H 318.758 3.49993 4.44434 0
M  V30 3614 H 317.315 4.32756 4.87407 0
M  V30 3615 N 320.748 -0.0735177 1.57428 0
M  V30 3616 C 322.164 -0.428264 1.53747 0
M  V30 3617 C 322.364 -1.79272 0.91998 0
M  V30 3618 O 321.42 -2.47051 0.521745 0
M  V30 3619 C 322.733 -0.370914 2.98404 0
M  V30 3620 C 324.281 -0.451224 3.0973 0
M  V30 3621 C 324.756 -0.4238 4.56035 0
M  V30 3622 N 326.247 -0.483925 4.60665 0
M  V30 3623 C 326.982 -0.484891 5.71346 0
M  V30 3624 N 326.478 -0.440775 6.91396 0
M  V30 3625 N 328.271 -0.531319 5.59583 0
M  V30 3626 H 320.422 0.819949 1.95935 0
M  V30 3627 H 322.685 0.307493 0.896745 0
M  V30 3628 H 322.391 0.564956 3.47133 0
M  V30 3629 H 322.265 -1.18176 3.5821 0
M  V30 3630 H 324.652 -1.37752 2.60976 0
M  V30 3631 H 324.733 0.388167 2.52838 0
M  V30 3632 H 324.377 0.498638 5.05446 0
M  V30 3633 H 324.307 -1.2807 5.10789 0
M  V30 3634 H 326.798 -0.522338 3.74273 0
M  V30 3635 H 327.111 -0.44539 7.71515 0
M  V30 3636 H 325.456 -0.40749 6.93804 0
M  V30 3637 H 328.647 -0.563464 4.64696 0
M  V30 3638 H 328.82 -0.528603 6.4584 0
M  V30 3639 N 322.226 -1.5378 -0.344866 0
M  V30 3640 C 323.158 -1.77988 -1.44406 0
M  V30 3641 C 324.171 -0.661138 -1.48771 0
M  V30 3642 O 325.36 -0.937842 -1.51877 0
M  V30 3643 C 322.46 -1.86345 -2.8307 0
M  V30 3644 C 321.633 -3.16256 -3.0216 0
M  V30 3645 C 320.692 -3.15588 -4.21059 0
M  V30 3646 O 319.718 -3.89314 -4.15239 0
M  V30 3647 N 320.92 -2.37864 -5.29529 0
M  V30 3648 H 323.685 -2.72839 -1.24012 0
M  V30 3649 H 321.246 -1.52814 -0.534737 0
M  V30 3650 H 323.238 -1.83351 -3.60783 0
M  V30 3651 H 321.808 -0.986858 -2.96614 0
M  V30 3652 H 321.028 -3.32385 -2.11929 0
M  V30 3653 H 322.316 -4.0207 -3.11797 0
M  V30 3654 H 321.714 -1.77514 -5.37127 0
M  V30 3655 H 320.271 -2.40668 -6.05741 0
M  V30 3656 N 323.704 0.605807 -1.45491 0
M  V30 3657 C 324.637 1.73022 -1.48791 0
M  V30 3658 C 325.615 1.58917 -0.344112 0
M  V30 3659 O 326.799 1.80453 -0.544876 0
M  V30 3660 C 323.926 3.10865 -1.34463 0
M  V30 3661 C 322.972 3.43554 -2.5273 0
M  V30 3662 S 323.805 3.38196 -4.15191 0
M  V30 3663 C 324.961 4.78616 -4.03333 0
M  V30 3664 H 325.194 1.69961 -2.43928 0
M  V30 3665 H 322.727 0.782611 -1.33096 0
M  V30 3666 H 324.685 3.90398 -1.26884 0
M  V30 3667 H 323.346 3.1144 -0.40794 0
M  V30 3668 H 322.539 4.43924 -2.38637 0
M  V30 3669 H 322.141 2.71541 -2.5718 0
M  V30 3670 H 324.433 5.68463 -3.68587 0
M  V30 3671 H 325.376 4.97767 -5.03621 0
M  V30 3672 H 325.784 4.54381 -3.34959 0
M  V30 3673 N 325.182 1.32811 0.848464 0
M  V30 3674 C 326.459 1.14334 1.58704 0
M  V30 3675 C 326.839 -0.293948 2.09043 0
M  V30 3676 O 326.187 -1.29153 1.88499 0
M  V30 3677 C 326.397 2.17626 2.72837 0
M  V30 3678 C 327.745 2.51282 3.42261 0
M  V30 3679 O 328.769 2.16219 2.83068 0
M  V30 3680 O 327.628 3.11413 4.49093 0
M  V30 3681 H 324.722 0.441601 0.699226 0
M  V30 3682 H 327.268 1.44362 0.892053 0
M  V30 3683 H 326.04 3.14211 2.3321 0
M  V30 3684 H 325.663 1.88628 3.50008 0
M  V30 3685 N 326.66 -1.06551 1.16123 0
M  V30 3686 C 328.076 -1.3142 0.905585 0
M  V30 3687 C 328.276 -1.96571 -0.442964 0
M  V30 3688 O 327.332 -2.23068 -1.18308 0
M  V30 3689 C 328.645 -2.19741 2.05267 0
M  V30 3690 C 330.193 -2.33165 2.08813 0
M  V30 3691 C 330.668 -3.24838 3.22868 0
M  V30 3692 N 332.159 -3.32421 3.22568 0
M  V30 3693 C 332.894 -4.0344 4.0746 0
M  V30 3694 N 332.39 -4.77003 5.02434 0
M  V30 3695 N 334.183 -3.99464 3.95456 0
M  V30 3696 H 326.334 -0.626548 2.02949 0
M  V30 3697 H 328.597 -0.338777 0.8854 0
M  V30 3698 H 328.303 -1.79142 3.02657 0
M  V30 3699 H 328.177 -3.20313 1.99198 0
M  V30 3700 H 330.564 -2.73013 1.12018 0
M  V30 3701 H 330.645 -1.3227 2.18948 0
M  V30 3702 H 330.289 -2.85708 4.19921 0
M  V30 3703 H 330.219 -4.25707 3.0997 0
M  V30 3704 H 332.71 -2.79994 2.53795 0
M  V30 3705 H 333.023 -5.28712 5.63634 0
M  V30 3706 H 331.368 -4.75992 5.06415 0
M  V30 3707 H 334.559 -3.4111 3.20564 0
M  V30 3708 H 334.732 -4.54544 4.61837 0
M  V30 3709 N 328.138 -0.959301 -1.25041 0
M  V30 3710 C 329.088 -0.453888 -2.23436 0
M  V30 3711 C 330.072 0.459461 -1.542 0
M  V30 3712 O 331.264 0.291752 -1.74579 0
M  V30 3713 C 328.393 0.262667 -3.42294 0
M  V30 3714 C 327.479 -0.669022 -4.1879 0
M  V30 3715 N 327.87 -1.80267 -4.72586 0
M  V30 3716 C 326.168 -0.47814 -4.4343 0
M  V30 3717 C 326.869 -2.38475 -5.3057 0
M  V30 3718 N 325.845 -1.67078 -5.17287 0
M  V30 3719 H 329.647 -1.319 -2.6264 0
M  V30 3720 H 327.161 -0.817358 -1.40332 0
M  V30 3721 H 329.158 0.641911 -4.11929 0
M  V30 3722 H 327.818 1.12432 -3.04613 0
M  V30 3723 H 328.829 -2.18442 -4.69578 0
M  V30 3724 H 325.506 0.340249 -4.16111 0
M  V30 3725 H 326.896 -3.34094 -5.8295 0
M  V30 3726 N 329.616 1.39756 -0.72842 0
M  V30 3727 C 330.579 2.29012 -0.0927297 0
M  V30 3728 C 331.579 1.45992 0.674025 0
M  V30 3729 O 332.769 1.66749 0.50402 0
M  V30 3730 C 329.901 3.29396 0.878137 0
M  V30 3731 H 331.094 2.86729 -0.879011 0
M  V30 3732 H 328.647 1.48293 -0.493847 0
M  V30 3733 H 329.382 2.76722 1.69101 0
M  V30 3734 H 329.167 3.907 0.331051 0
M  V30 3735 H 330.657 3.96199 1.3197 0
M  V30 3736 N 331.094 0.475555 1.50254 0
M  V30 3737 C 332.041 -0.316293 2.28622 0
M  V30 3738 C 333.011 -0.983227 1.33873 0
M  V30 3739 O 334.196 -0.994805 1.62814 0
M  V30 3740 C 331.336 -1.38975 3.1588 0
M  V30 3741 C 330.449 -0.737146 4.25664 0
M  V30 3742 C 329.584 -1.78887 5.00173 0
M  V30 3743 C 328.623 -1.11676 6.01826 0
M  V30 3744 N 327.76 -2.11154 6.69596 0
M  V30 3745 H 332.6 0.358297 2.95838 0
M  V30 3746 H 330.137 0.188541 1.45887 0
M  V30 3747 H 332.095 -2.02383 3.64825 0
M  V30 3748 H 330.725 -2.03344 2.50701 0
M  V30 3749 H 329.777 0.0096065 3.80399 0
M  V30 3750 H 331.089 -0.206816 4.98371 0
M  V30 3751 H 330.243 -2.49865 5.52859 0
M  V30 3752 H 328.982 -2.35302 4.27182 0
M  V30 3753 H 327.987 -0.392633 5.48396 0
M  V30 3754 H 329.212 -0.55945 6.76792 0
M  V30 3755 H 327.158 -2.66577 5.99394 0
M  V30 3756 H 327.075 -1.63118 7.38193 0
M  V30 3757 H 328.343 -2.81497 7.26897 0
M  V30 3758 N 332.573 -1.56217 0.208337 0
M  V30 3759 C 333.822 -1.97124 -0.427204 0
M  V30 3760 C 334.135 -1.09859 -1.61835 0
M  V30 3761 O 335.341 -1.40606 -2.32255 0
M  V30 3762 C 333.797 -3.50633 -0.811442 0
M  V30 3763 C 333.405 -4.46582 0.35615 0
M  V30 3764 C 335.149 -4.00282 -1.41332 0
M  V30 3765 C 333.056 -5.91379 -0.0497852 0
M  V30 3766 H 331.986 -0.736086 -0.163381 0
M  V30 3767 H 334.637 -1.8099 0.302456 0
M  V30 3768 H 333.019 -3.62319 -1.59815 0
M  V30 3769 H 334.193 -4.46636 1.1337 0
M  V30 3770 H 332.508 -4.07202 0.870396 0
M  V30 3771 H 335.105 -5.0595 -1.72972 0
M  V30 3772 H 335.448 -3.45359 -2.32449 0
M  V30 3773 H 335.981 -3.91764 -0.690323 0
M  V30 3774 H 332.72 -6.50255 0.827529 0
M  V30 3775 H 332.24 -5.94549 -0.791926 0
M  V30 3776 H 333.919 -6.45209 -0.481042 0
M  V30 3777 N 334.051 0.0651679 -1.57465 0
M  V30 3778 C 334.998 1.07675 -2.04144 0
M  V30 3779 C 335.968 1.38071 -0.923335 0
M  V30 3780 O 337.153 1.49026 -1.19146 0
M  V30 3781 C 334.293 2.38337 -2.49579 0
M  V30 3782 C 333.406 2.14413 -3.75035 0
M  V30 3783 C 332.541 3.38686 -4.09225 0
M  V30 3784 C 331.58 3.10156 -5.27702 0
M  V30 3785 N 330.717 4.26778 -5.57499 0
M  V30 3786 H 335.557 0.671716 -2.90331 0
M  V30 3787 H 333.094 0.3201 -1.43575 0
M  V30 3788 H 335.052 3.14632 -2.73975 0
M  V30 3789 H 333.682 2.7663 -1.6636 0
M  V30 3790 H 332.734 1.2878 -3.57939 0
M  V30 3791 H 334.046 1.89344 -4.61466 0
M  V30 3792 H 333.2 4.23373 -4.34558 0
M  V30 3793 H 331.939 3.66837 -3.21374 0
M  V30 3794 H 330.944 2.23866 -5.02159 0
M  V30 3795 H 332.169 2.8332 -6.17176 0
M  V30 3796 H 330.115 4.54948 -4.72608 0
M  V30 3797 H 330.032 4.05005 -6.38362 0
M  V30 3798 H 331.3 5.12443 -5.87386 0
M  V30 3799 N 335.529 1.53961 0.336706 0
M  V30 3800 C 336.945 1.44378 0.680241 0
M  V30 3801 C 337.145 0.606034 1.9217 0
M  V30 3802 O 336.201 0.099688 2.52303 0
M  V30 3803 C 337.514 2.87945 0.8665 0
M  V30 3804 C 339.062 2.97763 0.964682 0
M  V30 3805 C 339.537 4.42453 1.18321 0
M  V30 3806 N 341.028 4.46008 1.25025 0
M  V30 3807 C 341.763 5.55102 1.43697 0
M  V30 3808 N 341.259 6.7419 1.59498 0
M  V30 3809 N 343.052 5.42727 1.463 0
M  V30 3810 H 335.203 2.06918 -0.479455 0
M  V30 3811 H 337.466 0.935634 -0.152619 0
M  V30 3812 H 337.172 3.51691 0.0256937 0
M  V30 3813 H 337.046 3.33293 1.76623 0
M  V30 3814 H 339.433 2.34153 1.796 0
M  V30 3815 H 339.514 2.55766 0.041708 0
M  V30 3816 H 339.158 5.06645 0.356788 0
M  V30 3817 H 339.088 4.82048 2.11985 0
M  V30 3818 H 341.579 3.60196 1.14312 0
M  V30 3819 H 341.892 7.53095 1.734 0
M  V30 3820 H 340.237 6.77123 1.56621 0
M  V30 3821 H 343.428 4.48647 1.33543 0
M  V30 3822 H 343.601 6.27806 1.6051 0
M  V30 3823 N 337.007 -0.598083 1.45811 0
M  V30 3824 C 337.97 -1.69018 1.54808 0
M  V30 3825 C 338.97 -1.55037 0.426652 0
M  V30 3826 O 340.16 -1.59932 0.690456 0
M  V30 3827 C 337.292 -3.0835 1.45371 0
M  V30 3828 H 338.485 -1.62403 2.52121 0
M  V30 3829 H 336.038 -0.814626 1.33392 0
M  V30 3830 H 336.773 -3.20534 0.492793 0
M  V30 3831 H 336.558 -3.19907 2.26721 0
M  V30 3832 H 338.048 -3.8788 1.54721 0
M  V30 3833 N 338.485 -1.33259 -0.841409 0
M  V30 3834 C 339.734 -1.23921 -1.59143 0
M  V30 3835 C 340.047 0.1941 -1.94635 0
M  V30 3836 O 341.253 0.409474 -2.68394 0
M  V30 3837 C 339.709 -2.17119 -2.87032 0
M  V30 3838 C 339.317 -3.65606 -2.58914 0
M  V30 3839 C 341.061 -2.16648 -3.65053 0
M  V30 3840 C 338.968 -4.50726 -3.82884 0
M  V30 3841 H 337.898 -0.460264 -0.597221 0
M  V30 3842 H 340.549 -1.58307 -0.927959 0
M  V30 3843 H 338.931 -1.75663 -3.54906 0
M  V30 3844 H 340.105 -4.15487 -1.99267 0
M  V30 3845 H 338.42 -3.68341 -1.942 0
M  V30 3846 H 341.017 -2.77474 -4.57069 0
M  V30 3847 H 341.36 -1.16088 -3.99787 0
M  V30 3848 H 341.893 -2.56453 -3.041 0
M  V30 3849 H 338.632 -5.52151 -3.53283 0
M  V30 3850 H 338.152 -4.0559 -4.41879 0
M  V30 3851 H 339.831 -4.64401 -4.50489 0
M  V30 3852 N 339.963 1.05934 -1.16686 0
M  V30 3853 C 341.191 1.8249 -0.974929 0
M  V30 3854 C 341.606 1.82679 0.476861 0
M  V30 3855 O 340.963 1.2486 1.33103 0
M  V30 3856 C 341.014 3.28943 -1.49929 0
M  V30 3857 O 340.735 3.28886 -2.89423 0
M  V30 3858 C 342.236 4.22215 -1.35089 0
M  V30 3859 H 339.456 0.575295 -0.345365 0
M  V30 3860 H 342 1.33631 -1.548 0
M  V30 3861 H 340.155 3.751 -0.968423 0
M  V30 3862 H 340.569 4.20493 -3.13506 0
M  V30 3863 H 342.043 5.22987 -1.76603 0
M  V30 3864 H 342.52 4.38195 -0.296935 0
M  V30 3865 H 343.126 3.81907 -1.87155 0
M  V30 3866 N 341.441 0.965919 1.2453 0
M  V30 3867 C 342.688 0.626831 1.92554 0
M  V30 3868 C 343.016 -0.837739 1.75534 0
M  V30 3869 O 342.271 -1.61793 1.10098 0
M  V30 3870 C 342.57 0.945428 3.44669 0
M  V30 3871 C 342.236 2.39785 3.81856 0
M  V30 3872 C 340.898 2.79483 3.91718 0
M  V30 3873 C 343.25 3.34055 4.00071 0
M  V30 3874 C 340.578 4.12496 4.1721 0
M  V30 3875 C 342.93 4.66694 4.27059 0
M  V30 3876 C 341.594 5.06172 4.3514 0
M  V30 3877 H 340.864 0.229374 0.704605 0
M  V30 3878 H 343.511 1.21707 1.4785 0
M  V30 3879 H 341.816 0.272926 3.90848 0
M  V30 3880 H 343.513 0.661484 3.95507 0
M  V30 3881 H 340.103 2.08003 3.74743 0
M  V30 3882 H 344.287 3.04571 3.91855 0
M  V30 3883 H 339.543 4.42709 4.21685 0
M  V30 3884 H 343.717 5.3971 4.40097 0
M  V30 3885 H 341.344 6.09262 4.54646 0
M  V30 3886 N 342.919 -1.39368 0.735821 0
M  V30 3887 C 344.168 -1.99733 0.281004 0
M  V30 3888 C 344.481 -1.59055 -1.13846 0
M  V30 3889 O 345.687 -2.12262 -1.69284 0
M  V30 3890 C 344.143 -3.57057 0.451462 0
M  V30 3891 C 343.751 -4.06697 1.87886 0
M  V30 3892 C 345.495 -4.2446 0.0584616 0
M  V30 3893 C 343.402 -5.56598 1.99883 0
M  V30 3894 H 342.332 -0.747163 0.101311 0
M  V30 3895 H 344.983 -1.59357 0.909819 0
M  V30 3896 H 343.365 -3.95234 -0.246263 0
M  V30 3897 H 344.539 -3.79853 2.60861 0
M  V30 3898 H 342.854 -3.5196 2.22515 0
M  V30 3899 H 345.451 -5.34549 0.127099 0
M  V30 3900 H 345.794 -4.04444 -0.986433 0
M  V30 3901 H 346.327 -3.9146 0.707374 0
M  V30 3902 H 343.066 -5.81494 3.02564 0
M  V30 3903 H 342.586 -5.85242 1.31346 0
M  V30 3904 H 344.265 -6.22022 1.78039 0
M  V30 3905 N 344.397 -0.483516 -1.5 0
M  V30 3906 C 345.33 0.350427 -2.25493 0
M  V30 3907 C 346.308 0.985549 -1.29328 0
M  V30 3908 O 347.492 1.01906 -1.58579 0
M  V30 3909 C 344.619 1.49202 -3.04066 0
M  V30 3910 C 343.665 0.973036 -4.15252 0
M  V30 3911 S 344.498 -0.122237 -5.3536 0
M  V30 3912 C 345.654 1.02294 -6.17484 0
M  V30 3913 H 345.887 -0.290381 -2.95878 0
M  V30 3914 H 343.42 -0.268562 -1.52046 0
M  V30 3915 H 345.378 2.14623 -3.49925 0
M  V30 3916 H 344.039 2.10438 -2.33183 0
M  V30 3917 H 343.232 1.82804 -4.69679 0
M  V30 3918 H 342.834 0.396335 -3.71894 0
M  V30 3919 H 345.126 1.93195 -6.49371 0
M  V30 3920 H 346.069 0.517664 -7.06205 0
M  V30 3921 H 346.477 1.28238 -5.49741 0
M  V30 3922 N 345.875 1.56104 -0.216619 0
M  V30 3923 C 347.121 1.98466 0.417033 0
M  V30 3924 C 347.454 1.10403 1.59765 0
M  V30 3925 O 346.729 0.160632 1.93836 0
M  V30 3926 C 347.012 3.49769 0.85637 0
M  V30 3927 C 346.865 4.48606 -0.327546 0
M  V30 3928 C 348.184 4.05339 1.7143 0
M  V30 3929 H 345.303 0.721551 0.150112 0
M  V30 3930 H 347.945 1.87423 -0.311864 0
M  V30 3931 H 346.095 3.5931 1.47745 0
M  V30 3932 H 347.767 4.5108 -0.965618 0
M  V30 3933 H 346.01 4.22682 -0.975805 0
M  V30 3934 H 346.681 5.51995 0.0227149 0
M  V30 3935 H 349.157 3.98712 1.19031 0
M  V30 3936 H 348.033 5.11533 1.99061 0
M  V30 3937 H 348.294 3.51918 2.67593 0
M  V30 3938 N 347.353 -0.0568162 1.57498 0
M  V30 3939 C 348.599 -0.75422 1.88253 0
M  V30 3940 C 348.932 -1.76461 0.810865 0
M  V30 3941 O 348.207 -1.93691 -0.177259 0
M  V30 3942 C 348.49 -1.44878 3.2967 0
M  V30 3943 C 348.343 -0.453789 4.47505 0
M  V30 3944 C 349.662 -2.38994 3.69554 0
M  V30 3945 H 346.781 -0.272724 0.684683 0
M  V30 3946 H 349.423 -0.0172113 1.89992 0
M  V30 3947 H 347.573 -2.077 3.28318 0
M  V30 3948 H 349.245 0.170371 4.60985 0
M  V30 3949 H 347.488 0.229552 4.33192 0
M  V30 3950 H 348.159 -0.977699 5.43273 0
M  V30 3951 H 350.635 -1.86239 3.72095 0
M  V30 3952 H 349.511 -2.84587 4.69363 0
M  V30 3953 H 349.772 -3.24461 3.00296 0
M  V30 3954 N 348.832 -1.54138 -0.328536 0
M  V30 3955 C 349.795 -1.82462 -1.38709 0
M  V30 3956 C 350.795 -0.696229 -1.44946 0
M  V30 3957 O 351.985 -0.964535 -1.4506 0
M  V30 3958 C 349.117 -1.98018 -2.77492 0
M  V30 3959 H 350.31 -2.77037 -1.14851 0
M  V30 3960 H 347.863 -1.45779 -0.563751 0
M  V30 3961 H 348.598 -1.05637 -3.06613 0
M  V30 3962 H 348.383 -2.80124 -2.74359 0
M  V30 3963 H 349.873 -2.21396 -3.54081 0
M  V30 3964 N 350.31 0.590341 -1.46126 0
M  V30 3965 C 351.559 1.34499 -1.50309 0
M  V30 3966 C 351.872 1.94977 -0.156021 0
M  V30 3967 O 353.078 2.71395 -0.0756037 0
M  V30 3968 C 351.534 2.43723 -2.64815 0
M  V30 3969 C 351.142 1.89582 -4.0591 0
M  V30 3970 C 352.886 3.20579 -2.78262 0
M  V30 3971 C 350.793 2.9639 -5.11769 0
M  V30 3972 H 349.723 0.505593 -0.559368 0
M  V30 3973 H 352.374 0.630848 -1.72315 0
M  V30 3974 H 350.756 3.17902 -2.36124 0
M  V30 3975 H 351.93 1.21997 -4.44357 0
M  V30 3976 H 350.245 1.25418 -3.97063 0
M  V30 3977 H 352.842 4.00276 -3.54519 0
M  V30 3978 H 353.185 3.72684 -1.85505 0
M  V30 3979 H 353.718 2.53505 -3.06562 0
M  V30 3980 H 350.457 2.49181 -6.06291 0
M  V30 3981 H 349.977 3.62487 -4.77873 0
M  V30 3982 H 351.656 3.60474 -5.37278 0
M  V30 3983 N 351.788 1.33704 0.83433 0
M  V30 3984 C 353.034 1.25603 1.59222 0
M  V30 3985 C 353.367 -0.176659 1.93395 0
M  V30 3986 O 352.642 -1.11915 1.59076 0
M  V30 3987 C 352.925 2.13576 2.89926 0
M  V30 3988 C 352.778 3.65326 2.62406 0
M  V30 3989 C 354.097 2.01238 3.91397 0
M  V30 3990 H 351.216 0.457613 0.577719 0
M  V30 3991 H 353.858 1.63848 0.961972 0
M  V30 3992 H 352.008 1.8109 3.43713 0
M  V30 3993 H 353.68 4.08124 2.15017 0
M  V30 3994 H 351.923 3.8698 1.96033 0
M  V30 3995 H 352.594 4.22232 3.55562 0
M  V30 3996 H 355.07 2.29738 3.46929 0
M  V30 3997 H 353.946 2.65036 4.80673 0
M  V30 3998 H 354.207 0.985951 4.30966 0
M  V30 3999 N 353.266 -1.05314 1.17247 0
M  V30 4000 C 354.513 -1.78293 0.960091 0
M  V30 4001 C 354.841 -1.87658 -0.51136 0
M  V30 4002 O 354.096 -1.3718 -1.39571 0
M  V30 4003 C 354.395 -3.2229 1.54479 0
M  V30 4004 C 354.061 -3.32987 3.04024 0
M  V30 4005 C 352.723 -3.35613 3.44844 0
M  V30 4006 C 355.075 -3.34102 4.00031 0
M  V30 4007 C 352.403 -3.36982 4.8027 0
M  V30 4008 C 354.755 -3.3701 5.35357 0
M  V30 4009 C 353.419 -3.37923 5.75642 0
M  V30 4010 H 352.689 -0.652422 0.351322 0
M  V30 4011 H 355.336 -1.23782 1.46117 0
M  V30 4012 H 353.641 -3.7972 0.965391 0
M  V30 4013 H 355.338 -3.77376 1.35603 0
M  V30 4014 H 351.928 -3.31655 2.71483 0
M  V30 4015 H 356.112 -3.31276 3.69554 0
M  V30 4016 H 351.368 -3.35999 5.10798 0
M  V30 4017 H 355.542 -3.36822 6.09528 0
M  V30 4018 H 353.169 -3.38738 6.80559 0
M  V30 4019 N 354.744 -0.972509 -1.24016 0
M  V30 4020 C 355.99 -0.637978 -1.92504 0
M  V30 4021 C 356.323 0.825383 -1.75787 0
M  V30 4022 O 355.598 1.59442 -1.11393 0
M  V30 4023 C 355.881 -1.01942 -3.45369 0
M  V30 4024 C 355.734 -2.53983 -3.71231 0
M  V30 4025 C 357.053 -0.55751 -4.36555 0
M  V30 4026 H 354.172 -0.233248 -0.699117 0
M  V30 4027 H 356.814 -1.21238 -1.46292 0
M  V30 4028 H 354.964 -0.530656 -3.84859 0
M  V30 4029 H 356.636 -3.10374 -3.41271 0
M  V30 4030 H 354.879 -2.96968 -3.16216 0
M  V30 4031 H 355.55 -2.75723 -4.78206 0
M  V30 4032 H 358.026 -0.977029 -4.04467 0
M  V30 4033 H 356.902 -0.85292 -5.42233 0
M  V30 4034 H 357.163 0.542328 -4.38761 0
M  V30 4035 N 356.222 1.38976 -0.743202 0
M  V30 4036 C 357.471 1.99581 -0.291592 0
M  V30 4037 C 357.784 1.59656 1.13001 0
M  V30 4038 O 358.99 2.13157 1.68156 0
M  V30 4039 C 357.446 3.56813 -0.470391 0
M  V30 4040 C 357.054 4.05695 -1.90041 0
M  V30 4041 C 358.798 4.24423 -0.0809709 0
M  V30 4042 C 356.705 5.5553 -2.02832 0
M  V30 4043 H 355.635 0.746615 -0.105272 0
M  V30 4044 H 358.286 1.58872 -0.918258 0
M  V30 4045 H 356.668 3.95359 0.225299 0
M  V30 4046 H 357.842 3.78464 -2.62872 0
M  V30 4047 H 356.157 3.50775 -2.24379 0
M  V30 4048 H 358.754 5.34474 -0.155445 0
M  V30 4049 H 359.097 4.04962 0.96497 0
M  V30 4050 H 359.63 3.9108 -0.728124 0
M  V30 4051 H 356.369 5.79881 -3.05643 0
M  V30 4052 H 355.889 5.84537 -1.34448 0
M  V30 4053 H 357.568 6.21069 -1.81335 0
M  V30 4054 N 357.7 0.491464 1.49741 0
M  V30 4055 C 358.94 -0.0549118 2.04326 0
M  V30 4056 C 359.304 -1.35148 1.36378 0
M  V30 4057 O 360.505 -1.9815 1.81631 0
M  V30 4058 C 358.776 -0.213841 3.5676 0
M  V30 4059 S 360.335 -0.715839 4.32922 0
M  V30 4060 H 357.153 -0.00630513 0.710972 0
M  V30 4061 H 359.755 0.663257 1.83905 0
M  V30 4062 H 358.459 0.73527 4.0376 0
M  V30 4063 H 357.99 -0.957529 3.81569 0
M  V30 4064 H 360.005 -1.9864 4.54705 0
M  V30 4065 N 359.178 -1.55987 0.224894 0
M  V30 4066 C 360.425 -1.9839 -0.4059 0
M  V30 4067 C 360.753 -1.11261 -1.59535 0
M  V30 4068 O 360.008 -0.158314 -1.95059 0
M  V30 4069 C 360.307 -3.46394 -0.880106 0
M  V30 4070 C 359.973 -4.5046 0.19918 0
M  V30 4071 C 358.635 -4.7864 0.495661 0
M  V30 4072 C 360.987 -5.12855 0.928939 0
M  V30 4073 C 358.315 -5.66497 1.52636 0
M  V30 4074 C 360.667 -6.01828 1.949 0
M  V30 4075 C 359.331 -6.28351 2.25236 0
M  V30 4076 H 358.601 -0.725961 -0.148529 0
M  V30 4077 H 361.248 -1.88668 0.328113 0
M  V30 4078 H 359.553 -3.53337 -1.69294 0
M  V30 4079 H 361.25 -3.76577 -1.37808 0
M  V30 4080 H 357.84 -4.28579 -0.0420526 0
M  V30 4081 H 362.024 -4.9115 0.713129 0
M  V30 4082 H 357.28 -5.8531 1.76698 0
M  V30 4083 H 361.454 -6.49225 2.51951 0
M  V30 4084 H 359.081 -6.96226 3.05244 0
M  V30 4085 N 360.656 0.0484629 -1.57525 0
M  V30 4086 C 361.586 1.0549 -2.08313 0
M  V30 4087 C 362.567 1.38929 -0.981463 0
M  V30 4088 O 363.752 1.48151 -1.25558 0
M  V30 4089 C 360.882 2.36162 -2.54646 0
M  V30 4090 C 359.836 2.17016 -3.68901 0
M  V30 4091 C 359.162 3.53278 -4.01371 0
M  V30 4092 C 360.462 1.57219 -4.98076 0
M  V30 4093 H 362.156 0.632195 -2.92649 0
M  V30 4094 H 359.702 0.302654 -1.40784 0
M  V30 4095 H 361.655 3.06882 -2.88793 0
M  V30 4096 H 360.379 2.80456 -1.67368 0
M  V30 4097 H 359.038 1.48733 -3.35073 0
M  V30 4098 H 358.686 3.95185 -3.11188 0
M  V30 4099 H 358.386 3.41299 -4.78318 0
M  V30 4100 H 359.91 4.25391 -4.38035 0
M  V30 4101 H 361.324 2.17832 -5.30304 0
M  V30 4102 H 359.721 1.55871 -5.79503 0
M  V30 4103 H 360.791 0.535956 -4.81929 0
M  V30 4104 N 362.134 1.5431 0.320358 0
M  V30 4105 C 363.545 1.63872 0.894594 0
M  V30 4106 C 363.896 0.534847 1.88769 0
M  V30 4107 O 363.021 -0.331732 2.13842 0
M  V30 4108 C 363.616 2.97049 1.62934 0
M  V30 4109 C 362.175 3.08796 2.15226 0
M  V30 4110 C 361.322 2.59456 0.978671 0
M  V30 4111 H 364.273 1.58398 0.0978544 0
M  V30 4112 H 364.294 2.87388 2.49376 0
M  V30 4113 H 363.806 3.7737 0.906302 0
M  V30 4114 H 361.907 2.33156 2.90636 0
M  V30 4115 H 362.02 4.14649 2.40006 0
M  V30 4116 H 360.384 2.1543 1.35875 0
M  V30 4117 H 361.167 3.42237 0.269895 0
M  V30 4118 N 363.613 -0.582584 1.46437 0
M  V30 4119 C 364.838 -1.37168 1.55563 0
M  V30 4120 C 365.263 -1.87061 0.19743 0
M  V30 4121 O 364.621 -1.61572 -0.822451 0
M  V30 4122 C 364.669 -2.53511 2.56446 0
M  V30 4123 O 363.773 -3.54953 2.09958 0
M  V30 4124 H 363.114 -0.408494 0.523477 0
M  V30 4125 H 365.644 -0.706646 1.9201 0
M  V30 4126 H 365.654 -3.00426 2.76058 0
M  V30 4127 H 364.329 -2.16549 3.55076 0
M  V30 4128 H 362.906 -3.14516 2.00334 0
M  V30 4129 N 365.091 -1.34144 -0.827227 0
M  V30 4130 C 366.337 -1.26446 -1.58554 0
M  V30 4131 C 366.67 0.1664 -1.93486 0
M  V30 4132 O 365.945 1.1107 -1.59667 0
M  V30 4133 C 366.228 -2.15111 -2.8879 0
M  V30 4134 C 366.081 -3.66712 -2.60465 0
M  V30 4135 C 367.4 -2.03311 -3.90324 0
M  V30 4136 H 364.519 -0.46067 -0.575284 0
M  V30 4137 H 367.161 -1.64356 -0.953269 0
M  V30 4138 H 365.311 -1.8291 -3.42748 0
M  V30 4139 H 366.983 -4.09259 -2.1285 0
M  V30 4140 H 365.226 -3.88014 -1.93978 0
M  V30 4141 H 365.897 -4.24112 -3.53317 0
M  V30 4142 H 368.373 -2.31574 -3.45706 0
M  V30 4143 H 367.249 -2.67582 -4.79261 0
M  V30 4144 H 367.51 -1.00879 -4.30437 0
M  V30 4145 N 366.569 1.04691 -1.17803 0
M  V30 4146 C 367.815 1.78045 -0.970969 0
M  V30 4147 C 368.148 1.87686 0.498751 0
M  V30 4148 O 367.423 1.38035 1.37027 0
M  V30 4149 C 367.706 3.2166 -1.61884 0
M  V30 4150 C 367.559 3.20001 -3.161 0
M  V30 4151 C 368.878 4.1962 -1.3269 0
M  V30 4152 H 365.997 0.64633 -0.354155 0
M  V30 4153 H 368.639 1.22333 -1.45378 0
M  V30 4154 H 366.789 3.69232 -1.20831 0
M  V30 4155 H 368.461 2.80467 -3.66246 0
M  V30 4156 H 366.704 2.58203 -3.48588 0
M  V30 4157 H 367.375 4.21386 -3.56564 0
M  V30 4158 H 369.851 3.80567 -1.68249 0
M  V30 4159 H 368.727 5.18339 -1.80599 0
M  V30 4160 H 368.988 4.414 -0.248622 0
M  V30 4161 N 368.047 0.979072 1.23499 0
M  V30 4162 C 369.293 0.648178 1.92163 0
M  V30 4163 C 369.626 -0.816049 1.76222 0
M  V30 4164 O 368.901 -1.58849 1.12237 0
M  V30 4165 C 369.184 1.03773 3.44824 0
M  V30 4166 C 369.037 2.55948 3.69879 0
M  V30 4167 C 370.356 0.580653 4.36253 0
M  V30 4168 H 367.475 0.236952 0.69787 0
M  V30 4169 H 370.117 1.22012 1.45647 0
M  V30 4170 H 368.267 0.551058 3.84572 0
M  V30 4171 H 369.939 3.12179 3.3962 0
M  V30 4172 H 368.182 2.98641 3.14636 0
M  V30 4173 H 368.853 2.78255 4.76737 0
M  V30 4174 H 371.329 0.998465 4.03943 0
M  V30 4175 H 370.205 0.881663 5.41773 0
M  V30 4176 H 370.466 -0.519052 4.39042 0
M  V30 4177 N 369.525 -1.3858 0.750561 0
M  V30 4178 C 370.941 -1.53759 0.427824 0
M  V30 4179 C 371.141 -1.71401 -1.05943 0
M  V30 4180 O 370.197 -1.72331 -1.84549 0
M  V30 4181 C 371.51 -2.74642 1.22443 0
M  V30 4182 C 373.058 -2.88489 1.2142 0
M  V30 4183 C 373.533 -4.12329 1.9937 0
M  V30 4184 N 375.024 -4.194 1.96616 0
M  V30 4185 C 375.759 -5.14209 2.53727 0
M  V30 4186 N 375.255 -6.14709 3.19539 0
M  V30 4187 N 377.048 -5.06537 2.43673 0
M  V30 4188 H 369.199 -1.25377 1.71447 0
M  V30 4189 H 371.462 -0.608844 0.726645 0
M  V30 4190 H 371.168 -2.68 2.27747 0
M  V30 4191 H 371.042 -3.67745 0.839273 0
M  V30 4192 H 373.429 -2.94614 0.169232 0
M  V30 4193 H 373.51 -1.96406 1.63885 0
M  V30 4194 H 373.154 -4.06966 3.03877 0
M  V30 4195 H 373.084 -5.03486 1.54302 0
M  V30 4196 H 375.575 -3.47421 1.48684 0
M  V30 4197 H 375.888 -6.8354 3.60545 0
M  V30 4198 H 374.233 -6.1505 3.23633 0
M  V30 4199 H 377.424 -4.26962 1.91889 0
M  V30 4200 H 377.597 -5.80245 2.88479 0
M  V30 4201 N 371.003 -0.499398 -1.49478 0
M  V30 4202 C 372.252 0.0475259 -2.01644 0
M  V30 4203 C 372.565 1.38195 -1.38425 0
M  V30 4204 O 373.771 2.01547 -1.8191 0
M  V30 4205 C 372.227 0.135164 -3.59646 0
M  V30 4206 C 371.835 -1.19252 -4.31837 0
M  V30 4207 C 373.579 0.632538 -4.19761 0
M  V30 4208 C 371.486 -1.06713 -5.81693 0
M  V30 4209 H 370.416 0.0215349 -0.753692 0
M  V30 4210 H 373.067 -0.638577 -1.7203 0
M  V30 4211 H 371.449 0.885681 -3.85969 0
M  V30 4212 H 372.623 -1.9562 -4.17216 0
M  V30 4213 H 370.938 -1.62321 -3.83459 0
M  V30 4214 H 373.535 0.743833 -5.29501 0
M  V30 4215 H 373.878 1.63098 -3.83021 0
M  V30 4216 H 374.411 -0.0613987 -3.97753 0
M  V30 4217 H 371.15 -2.03979 -6.22955 0
M  V30 4218 H 370.67 -0.344307 -5.98811 0
M  V30 4219 H 372.349 -0.745208 -6.42694 0
M  V30 4220 N 372.481 1.55866 -0.233164 0
M  V30 4221 C 373.897 1.59133 0.121988 0
M  V30 4222 C 374.097 1.25016 1.58029 0
M  V30 4223 O 373.153 0.990922 2.32243 0
M  V30 4224 C 374.466 2.99932 -0.214792 0
M  V30 4225 C 376.014 3.12601 -0.157971 0
M  V30 4226 C 376.489 4.55597 -0.46859 0
M  V30 4227 N 377.98 4.61305 -0.418585 0
M  V30 4228 C 378.715 5.69903 -0.63227 0
M  V30 4229 N 378.211 6.86819 -0.90835 0
M  V30 4230 N 380.004 5.59264 -0.563913 0
M  V30 4231 H 372.155 1.76315 -1.18434 0
M  V30 4232 H 374.418 0.820093 -0.475553 0
M  V30 4233 H 374.124 3.29588 -1.22739 0
M  V30 4234 H 373.998 3.74327 0.464691 0
M  V30 4235 H 376.385 2.82735 0.845283 0
M  V30 4236 H 376.466 2.40511 -0.871102 0
M  V30 4237 H 376.11 4.86182 -1.46934 0
M  V30 4238 H 376.04 5.25928 0.265865 0
M  V30 4239 H 378.531 3.77297 -0.213368 0
M  V30 4240 H 378.844 7.65507 -1.05919 0
M  V30 4241 H 377.189 6.88536 -0.945673 0
M  V30 4242 H 380.38 4.66802 -0.348372 0
M  V30 4243 H 380.553 6.43831 -0.733847 0
M  V30 4244 N 373.959 -0.0401083 1.57549 0
M  V30 4245 C 375.208 -0.732108 1.87944 0
M  V30 4246 C 375.521 -1.77107 0.830206 0
M  V30 4247 O 376.727 -2.51488 1.02302 0
M  V30 4248 C 375.183 -1.35315 3.33494 0
M  V30 4249 C 374.791 -0.351105 4.46622 0
M  V30 4250 C 376.535 -2.02566 3.73051 0
M  V30 4251 C 374.442 -0.979859 5.83226 0
M  V30 4252 H 373.372 -0.277188 0.701201 0
M  V30 4253 H 376.023 0.0138501 1.83495 0
M  V30 4254 H 374.405 -2.14844 3.32653 0
M  V30 4255 H 375.579 0.416674 4.58912 0
M  V30 4256 H 373.894 0.218708 4.15825 0
M  V30 4257 H 376.491 -2.50441 4.72423 0
M  V30 4258 H 376.834 -2.83904 3.04474 0
M  V30 4259 H 377.367 -1.29827 3.76018 0
M  V30 4260 H 374.106 -0.206135 6.55176 0
M  V30 4261 H 373.626 -1.71774 5.74677 0
M  V30 4262 H 375.305 -1.49046 6.29599 0
M  V30 4263 N 375.437 -1.54477 -0.31217 0
M  V30 4264 C 376.684 -1.73227 -1.04875 0
M  V30 4265 C 377.012 -0.512042 -1.87639 0
M  V30 4266 O 376.267 0.506131 -1.89042 0
M  V30 4267 C 376.566 -2.967 -1.99258 0
M  V30 4268 C 376.232 -4.30974 -1.32559 0
M  V30 4269 C 374.894 -4.67477 -1.141 0
M  V30 4270 C 377.246 -5.14258 -0.847835 0
M  V30 4271 C 374.574 -5.84852 -0.465326 0
M  V30 4272 C 376.926 -6.32327 -0.185931 0
M  V30 4273 C 375.59 -6.67499 0.0107077 0
M  V30 4274 H 374.86 -0.633881 -0.383765 0
M  V30 4275 H 377.507 -1.88727 -0.324731 0
M  V30 4276 H 375.812 -2.75935 -2.7815 0
M  V30 4277 H 377.509 -3.08401 -2.563 0
M  V30 4278 H 374.099 -4.02262 -1.4793 0
M  V30 4279 H 378.283 -4.86565 -0.978192 0
M  V30 4280 H 373.539 -6.10654 -0.301883 0
M  V30 4281 H 377.713 -6.96135 0.192211 0
M  V30 4282 H 375.34 -7.58306 0.536287 0
M  V30 4283 N 376.915 0.57481 -1.46744 0
M  V30 4284 C 378.161 1.33251 -1.53674 0
M  V30 4285 C 378.516 1.91468 -0.189125 0
M  V30 4286 O 377.809 1.73954 0.803151 0
M  V30 4287 C 378.003 2.476 -2.57738 0
M  V30 4288 C 377.832 2.00586 -4.02487 0
M  V30 4289 C 376.602 1.85237 -4.70123 0
M  V30 4290 C 378.8 1.56078 -4.90045 0
M  V30 4291 N 376.782 1.32377 -5.99458 0
M  V30 4292 C 378.153 1.14863 -6.09267 0
M  V30 4293 C 380.208 1.43968 -4.76632 0
M  V30 4294 C 378.911 0.627435 -7.16558 0
M  V30 4295 C 380.937 0.932512 -5.84002 0
M  V30 4296 C 380.299 0.53019 -7.02402 0
M  V30 4297 H 376.398 0.480284 -0.617131 0
M  V30 4298 H 378.982 0.653592 -1.83402 0
M  V30 4299 H 377.153 3.13045 -2.29907 0
M  V30 4300 H 378.885 3.14567 -2.54616 0
M  V30 4301 H 375.64 2.07423 -4.25761 0
M  V30 4302 H 376.064 1.08085 -6.68316 0
M  V30 4303 H 380.706 1.73689 -3.85476 0
M  V30 4304 H 378.424 0.317821 -8.07475 0
M  V30 4305 H 382.01 0.842611 -5.75666 0
M  V30 4306 H 380.89 0.14381 -7.84068 0
M  V30 4307 N 378.394 1.34581 0.820102 0
M  V30 4308 C 379.324 1.29038 1.94606 0
M  V30 4309 C 380.305 0.1673 1.69275 0
M  V30 4310 O 381.49 0.360112 1.90832 0
M  V30 4311 C 378.62 1.04793 3.31113 0
M  V30 4312 C 377.574 2.13597 3.70891 0
M  V30 4313 C 376.9 1.74537 5.05412 0
M  V30 4314 C 378.2 3.55451 3.8269 0
M  V30 4315 H 379.894 2.23248 1.99501 0
M  V30 4316 H 377.44 1.0747 0.958449 0
M  V30 4317 H 379.393 0.995592 4.0947 0
M  V30 4318 H 378.117 0.0702565 3.26524 0
M  V30 4319 H 376.776 2.17905 2.9481 0
M  V30 4320 H 376.424 0.754226 4.97313 0
M  V30 4321 H 376.124 2.47361 5.32997 0
M  V30 4322 H 377.648 1.70803 5.86224 0
M  V30 4323 H 379.062 3.5354 4.51312 0
M  V30 4324 H 377.459 4.26922 4.21732 0
M  V30 4325 H 378.529 3.92587 2.84611 0
M  V30 4326 N 379.872 -1.04064 1.18357 0
M  V30 4327 C 380.802 -2.14001 0.934113 0
M  V30 4328 C 381.783 -1.69616 -0.128186 0
M  V30 4329 O 382.968 -1.94185 0.0244093 0
M  V30 4330 C 380.098 -3.44253 0.459066 0
M  V30 4331 C 379.052 -4.02261 1.46185 0
M  V30 4332 C 378.378 -5.27992 0.844322 0
M  V30 4333 C 379.678 -4.38432 2.83856 0
M  V30 4334 H 381.372 -2.35127 1.85352 0
M  V30 4335 H 378.918 -1.12998 0.892604 0
M  V30 4336 H 380.871 -4.20522 0.271907 0
M  V30 4337 H 379.595 -3.22813 -0.495912 0
M  V30 4338 H 378.254 -3.28074 1.63595 0
M  V30 4339 H 377.902 -5.02862 -0.117845 0
M  V30 4340 H 377.602 -5.67765 1.51384 0
M  V30 4341 H 379.126 -6.06938 0.667693 0
M  V30 4342 H 380.54 -5.05688 2.70098 0
M  V30 4343 H 378.937 -4.89254 3.47491 0
M  V30 4344 H 380.007 -3.4826 3.37406 0
M  V30 4345 N 381.35 -0.985608 -1.22978 0
M  V30 4346 C 382.3 -0.50118 -2.22423 0
M  V30 4347 C 383.284 0.426649 -1.5514 0
M  V30 4348 O 384.476 0.254656 -1.75159 0
M  V30 4349 C 381.605 0.190003 -3.42774 0
M  V30 4350 C 380.691 -0.757703 -4.17276 0
M  V30 4351 N 381.082 -1.90251 -4.68656 0
M  V30 4352 C 379.38 -0.57209 -4.42316 0
M  V30 4353 C 380.081 -2.49676 -5.25392 0
M  V30 4354 N 379.057 -1.78013 -5.13627 0
M  V30 4355 H 382.859 -1.37441 -2.59783 0
M  V30 4356 H 380.373 -0.846941 -1.38567 0
M  V30 4357 H 382.37 0.55439 -4.13197 0
M  V30 4358 H 381.03 1.05946 -3.06929 0
M  V30 4359 H 382.041 -2.28354 -4.64839 0
M  V30 4360 H 378.718 0.251909 -4.16739 0
M  V30 4361 H 380.108 -3.46384 -5.75732 0
M  V30 4362 N 382.828 1.3818 -0.7579 0
M  V30 4363 C 384.056 2.04301 -0.326937 0
M  V30 4364 C 384.471 1.57163 1.0462 0
M  V30 4365 O 383.828 0.746626 1.66529 0
M  V30 4366 C 383.879 3.59846 -0.345363 0
M  V30 4367 O 383.6 4.05256 -1.66432 0
M  V30 4368 C 385.101 4.4319 0.098927 0
M  V30 4369 H 382.321 0.656443 -0.139012 0
M  V30 4370 H 384.865 1.76786 -1.02796 0
M  V30 4371 H 383.02 3.86182 0.306955 0
M  V30 4372 H 383.434 4.99709 -1.59345 0
M  V30 4373 H 384.908 5.51989 0.0348745 0
M  V30 4374 H 385.385 4.23947 1.14741 0
M  V30 4375 H 385.991 4.22051 -0.52468 0
M  V30 4376 N 384.306 0.507319 1.49211 0
M  V30 4377 C 385.531 -0.033725 2.07373 0
M  V30 4378 C 385.956 -1.29485 1.36437 0
M  V30 4379 O 385.314 -1.76294 0.423087 0
M  V30 4380 C 385.362 -0.263945 3.59633 0
M  V30 4381 O 384.466 -1.33737 3.90113 0
M  V30 4382 H 383.807 0.0290331 0.663365 0
M  V30 4383 H 386.337 0.708749 1.91932 0
M  V30 4384 H 386.347 -0.493536 4.05004 0
M  V30 4385 H 385.022 0.657424 4.10671 0
M  V30 4386 H 383.599 -1.09224 3.56545 0
M  V30 4387 N 385.784 -1.5574 0.241426 0
M  V30 4388 C 387.032 -1.98417 -0.384075 0
M  V30 4389 C 387.353 -1.13078 -1.58866 0
M  V30 4390 O 386.623 -0.212312 -1.94746 0
M  V30 4391 H 385.203 -0.732813 -0.144894 0
M  V30 4392 H 387.865 -1.9193 0.338943 0
M  V30 4393 H 386.961 -3.04219 -0.696939 0
M  V30 4394 N 387.262 0.0317525 -1.57568 0
M  V30 4395 C 388.49 0.734949 -1.93407 0
M  V30 4396 C 388.905 1.69036 -0.84096 0
M  V30 4397 O 388.262 1.81582 0.182836 0
M  V30 4398 C 388.313 1.49432 -3.29169 0
M  V30 4399 O 388.034 0.577261 -4.3428 0
M  V30 4400 C 389.535 2.29492 -3.79273 0
M  V30 4401 H 386.755 0.206706 -0.638368 0
M  V30 4402 H 389.299 -0.00992046 -2.04498 0
M  V30 4403 H 387.454 2.1911 -3.19483 0
M  V30 4404 H 387.868 1.10952 -5.1263 0
M  V30 4405 H 389.342 2.78172 -4.76785 0
M  V30 4406 H 389.819 3.10794 -3.10328 0
M  V30 4407 H 390.425 1.64894 -3.92033 0
M  V30 4408 N 388.74 1.54641 0.303973 0
M  V30 4409 C 389.672 1.81754 1.39636 0
M  V30 4410 C 390.685 0.70035 1.46966 0
M  V30 4411 O 391.874 0.97778 1.49338 0
M  V30 4412 C 388.974 1.93785 2.7803 0
M  V30 4413 C 388.147 3.24156 2.93669 0
M  V30 4414 C 387.206 3.26641 4.12544 0
M  V30 4415 O 386.232 4.00187 4.04771 0
M  V30 4416 N 387.434 2.5182 5.23036 0
M  V30 4417 H 390.199 2.76031 1.16734 0
M  V30 4418 H 387.76 1.54178 0.494033 0
M  V30 4419 H 389.752 1.92852 3.55795 0
M  V30 4420 H 388.322 1.06515 2.93893 0
M  V30 4421 H 387.542 3.37887 2.03042 0
M  V30 4422 H 388.83 4.10195 3.01027 0
M  V30 4423 H 388.228 1.91692 5.32232 0
M  V30 4424 H 386.785 2.56644 5.99147 0
M  V30 4425 N 390.218 -0.567019 1.47046 0
M  V30 4426 C 391.166 -1.69593 1.59188 0
M  V30 4427 C 392.16 -1.63046 0.459609 0
M  V30 4428 O 393.366 -1.6835 0.637058 0
M  V30 4429 H 389.741 -0.560993 0.500791 0
M  V30 4430 H 391.712 -1.56488 2.54075 0
M  V30 4431 C 390.461 -3.07964 1.61411 0
M  V30 4432 H 389.784 -3.13679 2.47881 0
M  V30 4433 H 391.224 -3.86671 1.73958 0
M  V30 4434 C 389.683 -3.35123 0.34559 0
M  V30 4435 O 390.213 -3.97812 -0.557521 0
M  V30 4436 N 388.419 -2.89699 0.22864 0
M  V30 4437 H 387.966 -2.38863 0.964479 0
M  V30 4438 H 387.924 -3.08242 -0.619192 0
M  V30 4439 N 391.696 -1.35014 -0.812953 0
M  V30 4440 C 392.936 -1.29289 -1.58315 0
M  V30 4441 C 393.3 0.132727 -1.91541 0
M  V30 4442 O 394.501 0.314269 -2.66957 0
M  V30 4443 C 392.772 -2.1681 -2.84127 0
M  V30 4444 S 394.331 -2.28538 -3.74588 0
M  V30 4445 H 391.149 -0.459569 -0.542511 0
M  V30 4446 H 393.751 -1.70336 -0.959467 0
M  V30 4447 H 392.455 -3.19379 -2.57731 0
M  V30 4448 H 391.986 -1.76697 -3.51485 0
M  V30 4449 H 394.001 -1.4655 -4.74065 0
M  V30 4450 N 393.175 1.03435 -1.18907 0
M  V30 4451 C 394.085 2.15075 -0.937015 0
M  V30 4452 C 395.101 1.73706 0.101085 0
M  V30 4453 O 396.277 2.01232 -0.0822948 0
M  V30 4454 C 393.342 3.43458 -0.473057 0
M  V30 4455 C 392.403 3.99172 -1.57989 0
M  V30 4456 C 391.636 5.21427 -1.13797 0
M  V30 4457 O 391.859 5.704 0.000725941 0
M  V30 4458 O 390.793 5.69837 -1.9383 0
M  V30 4459 H 394.619 2.39198 -1.87131 0
M  V30 4460 H 392.204 1.13506 -0.971427 0
M  V30 4461 H 394.086 4.20811 -0.222702 0
M  V30 4462 H 392.761 3.20793 0.432869 0
M  V30 4463 H 391.668 3.23178 -1.88433 0
M  V30 4464 H 393.001 4.2619 -2.46217 0
M  V30 4465 N 394.653 0.992116 1.22453 0
M  V30 4466 C 395.899 0.668523 1.91464 0
M  V30 4467 C 396.232 -0.797313 1.77078 0
M  V30 4468 O 395.507 -1.5765 1.13916 0
M  V30 4469 C 395.79 1.07424 3.43703 0
M  V30 4470 C 395.643 2.59857 3.67143 0
M  V30 4471 C 396.962 0.626891 4.35612 0
M  V30 4472 H 394.081 0.244341 0.695318 0
M  V30 4473 H 396.723 1.2355 1.44345 0
M  V30 4474 H 394.873 0.591816 3.83966 0
M  V30 4475 H 396.545 3.15764 3.3629 0
M  V30 4476 H 394.788 3.01961 3.11451 0
M  V30 4477 H 395.459 2.83296 4.73759 0
M  V30 4478 H 397.935 1.04125 4.02861 0
M  V30 4479 H 396.811 0.939076 5.40807 0
M  V30 4480 H 397.072 -0.472457 4.39568 0
M  V30 4481 N 396.131 -1.37776 0.765217 0
M  V30 4482 C 397.361 -2.03828 0.337277 0
M  V30 4483 C 397.769 -1.57841 -1.04321 0
M  V30 4484 O 397.112 -0.752043 -1.67601 0
M  V30 4485 C 397.174 -3.58292 0.294407 0
M  V30 4486 C 396.838 -4.27384 1.61838 0
M  V30 4487 C 397.835 -4.51956 2.56967 0
M  V30 4488 C 395.52 -4.65345 1.89102 0
M  V30 4489 C 397.514 -5.13536 3.77571 0
M  V30 4490 C 395.201 -5.26647 3.09978 0
M  V30 4491 C 396.199 -5.50679 4.04032 0
M  V30 4492 O 395.887 -6.10702 5.2278 0
M  V30 4493 H 395.619 -0.661292 0.140248 0
M  V30 4494 H 398.173 -1.77222 1.03834 0
M  V30 4495 H 396.403 -3.83918 -0.462983 0
M  V30 4496 H 398.092 -4.05763 -0.105581 0
M  V30 4497 H 398.858 -4.23048 2.37183 0
M  V30 4498 H 394.737 -4.45978 1.16725 0
M  V30 4499 H 398.281 -5.3221 4.50997 0
M  V30 4500 H 394.178 -5.54979 3.29649 0
M  V30 4501 H 394.946 -6.29183 5.23517 0
M  V30 4502 N 397.609 -0.515225 -1.4894 0
M  V30 4503 C 399.025 -0.172099 -1.58669 0
M  V30 4504 C 399.225 1.32405 -1.51892 0
M  V30 4505 O 398.281 2.10116 -1.40027 0
M  V30 4506 C 399.594 -0.761533 -2.90897 0
M  V30 4507 C 401.142 -0.728926 -3.04394 0
M  V30 4508 C 401.617 -1.29667 -4.39261 0
M  V30 4509 N 403.108 -1.25799 -4.4579 0
M  V30 4510 C 403.843 -1.66733 -5.48623 0
M  V30 4511 N 403.339 -2.15327 -6.58488 0
M  V30 4512 N 405.132 -1.58061 -5.39419 0
M  V30 4513 H 397.283 -1.48778 -1.51588 0
M  V30 4514 H 399.546 -0.617968 -0.718901 0
M  V30 4515 H 399.252 -1.81136 -3.01468 0
M  V30 4516 H 399.126 -0.230106 -3.76497 0
M  V30 4517 H 401.513 0.312098 -2.93445 0
M  V30 4518 H 401.594 -1.29766 -2.20442 0
M  V30 4519 H 401.238 -2.33655 -4.50963 0
M  V30 4520 H 401.168 -0.703752 -5.21876 0
M  V30 4521 H 403.659 -0.902102 -3.66975 0
M  V30 4522 H 403.972 -2.44594 -7.33071 0
M  V30 4523 H 402.317 -2.19311 -6.59491 0
M  V30 4524 H 405.508 -1.19906 -4.52482 0
M  V30 4525 H 405.681 -1.90284 -6.19432 0
M  V30 4526 N 399.087 1.5561 -0.249682 0
M  V30 4527 C 400.312 2.03865 0.381305 0
M  V30 4528 C 400.737 1.12769 1.50548 0
M  V30 4529 O 400.095 0.121189 1.80895 0
M  V30 4530 C 400.143 3.50101 0.863816 0
M  V30 4531 O 399.247 3.62132 1.97318 0
M  V30 4532 H 398.588 0.658827 0.0827194 0
M  V30 4533 H 401.118 2.01105 -0.376552 0
M  V30 4534 H 401.128 3.90975 1.1663 0
M  V30 4535 H 399.803 4.1588 0.0411816 0
M  V30 4536 H 398.38 3.33155 1.67517 0
M  V30 4537 N 400.565 -0.0233959 1.57583 0
M  V30 4538 C 401.811 -0.714119 1.89811 0
M  V30 4539 C 402.144 -1.74702 0.848113 0
M  V30 4540 O 401.419 -1.94023 -0.136135 0
M  V30 4541 C 401.702 -1.37853 3.32669 0
M  V30 4542 C 401.555 -0.358764 4.48367 0
M  V30 4543 C 402.874 -2.31101 3.7454 0
M  V30 4544 H 399.993 -0.25814 0.690314 0
M  V30 4545 H 402.635 0.0230927 1.89986 0
M  V30 4546 H 400.785 -2.00689 3.3265 0
M  V30 4547 H 402.457 0.268115 4.6052 0
M  V30 4548 H 400.7 0.321387 4.32608 0
M  V30 4549 H 401.371 -0.862242 5.45224 0
M  V30 4550 H 403.847 -1.78304 3.75961 0
M  V30 4551 H 402.723 -2.74567 4.75294 0
M  V30 4552 H 402.984 -3.18018 3.0711 0
M  V30 4553 N 402.043 -1.548 -0.295768 0
M  V30 4554 C 403.32 -1.65014 -1.05023 0
M  V30 4555 C 403.7 -0.501805 -2.05049 0
M  V30 4556 O 403.048 0.500869 -2.22943 0
M  V30 4557 C 403.258 -3.03252 -1.72741 0
M  V30 4558 C 404.606 -3.60242 -2.24746 0
M  V30 4559 O 405.63 -3.05737 -1.82765 0
M  V30 4560 O 404.489 -4.55687 -3.01681 0
M  V30 4561 H 401.583 -0.669314 -0.485744 0
M  V30 4562 H 404.129 -1.67144 -0.293438 0
M  V30 4563 H 402.901 -3.7827 -1.00138 0
M  V30 4564 H 402.524 -3.04922 -2.55163 0
M  V30 4565 N 403.521 0.559213 -1.47345 0
M  V30 4566 C 404.451 1.67622 -1.62558 0
M  V30 4567 C 405.432 1.63331 -0.475087 0
M  V30 4568 O 406.617 1.80983 -0.704182 0
M  V30 4569 C 403.747 3.0626 -1.63774 0
M  V30 4570 C 402.701 3.25397 -2.7803 0
M  V30 4571 C 402.027 4.64801 -2.64318 0
M  V30 4572 C 403.327 3.10965 -4.19641 0
M  V30 4573 H 405.021 1.55146 -2.56067 0
M  V30 4574 H 402.567 0.744961 -1.23233 0
M  V30 4575 H 404.52 3.84247 -1.73008 0
M  V30 4576 H 403.244 3.1969 -0.66825 0
M  V30 4577 H 401.903 2.49817 -2.68304 0
M  V30 4578 H 401.551 4.75028 -1.65401 0
M  V30 4579 H 401.251 4.78555 -3.40968 0
M  V30 4580 H 402.775 5.44926 -2.75478 0
M  V30 4581 H 404.189 3.78772 -4.30354 0
M  V30 4582 H 402.586 3.36229 -4.97062 0
M  V30 4583 H 403.656 2.07736 -4.38148 0
M  V30 4584 N 404.999 1.35443 0.805782 0
M  V30 4585 C 405.962 1.28301 1.89925 0
M  V30 4586 C 406.962 0.194285 1.59622 0
M  V30 4587 O 408.152 0.448036 1.6834 0
M  V30 4588 C 405.284 0.984997 3.2636 0
M  V30 4589 H 406.477 2.2553 1.97677 0
M  V30 4590 H 404.03 1.19979 1.00173 0
M  V30 4591 H 404.765 0.016603 3.24296 0
M  V30 4592 H 404.55 1.77269 3.4974 0
M  V30 4593 H 406.04 0.960651 4.064 0
M  V30 4594 N 406.477 -1.02803 1.19454 0
M  V30 4595 C 407.724 -1.76217 0.997693 0
M  V30 4596 C 408.052 -1.887 -0.47144 0
M  V30 4597 O 407.307 -1.4011 -1.3663 0
M  V30 4598 C 407.606 -3.18941 1.6128 0
M  V30 4599 C 407.272 -3.26463 3.11019 0
M  V30 4600 C 405.934 -3.28223 3.51885 0
M  V30 4601 C 408.286 -3.25542 4.07028 0
M  V30 4602 C 405.614 -3.26719 4.8731 0
M  V30 4603 C 407.966 -3.25579 5.42385 0
M  V30 4604 C 406.63 -3.25637 5.82681 0
M  V30 4605 H 405.9 -0.644823 0.365082 0
M  V30 4606 H 408.547 -1.20655 1.4871 0
M  V30 4607 H 406.852 -3.77587 1.04572 0
M  V30 4608 H 408.549 -3.74415 1.43577 0
M  V30 4609 H 405.139 -3.25822 2.78457 0
M  V30 4610 H 409.323 -3.23362 3.76498 0
M  V30 4611 H 404.579 -3.25089 5.1781 0
M  V30 4612 H 408.753 -3.23817 6.16535 0
M  V30 4613 H 406.38 -3.24226 6.87591 0
M  V30 4614 N 407.956 -0.998596 -1.21925 0
M  V30 4615 C 409.203 -0.677663 -1.90824 0
M  V30 4616 C 409.531 0.790905 -1.77693 0
M  V30 4617 O 408.786 1.58817 -1.14349 0
M  V30 4618 C 409.085 -1.03648 -3.42041 0
M  V30 4619 C 408.751 -2.49825 -3.75364 0
M  V30 4620 C 407.413 -2.8977 -3.8417 0
M  V30 4621 C 409.765 -3.44545 -3.91073 0
M  V30 4622 C 407.093 -4.23412 -4.06127 0
M  V30 4623 C 409.445 -4.77853 -4.14535 0
M  V30 4624 C 408.109 -5.17531 -4.21566 0
M  V30 4625 H 407.379 -0.247975 -0.698276 0
M  V30 4626 H 410.026 -1.25584 -1.44571 0
M  V30 4627 H 408.331 -0.376457 -3.89987 0
M  V30 4628 H 410.028 -0.766113 -3.93614 0
M  V30 4629 H 406.618 -2.17866 -3.69097 0
M  V30 4630 H 410.802 -3.14853 -3.83642 0
M  V30 4631 H 406.058 -4.53734 -4.09799 0
M  V30 4632 H 410.232 -5.51189 -4.25633 0
M  V30 4633 H 407.859 -6.21102 -4.38333 0
M  V30 4634 N 409.434 1.37368 -0.772513 0
M  V30 4635 C 410.683 1.98918 -0.333861 0
M  V30 4636 C 410.996 1.62017 1.09589 0
M  V30 4637 O 412.202 2.16676 1.63596 0
M  V30 4638 C 410.658 3.55735 -0.545971 0
M  V30 4639 C 410.266 4.01573 -1.98603 0
M  V30 4640 C 412.01 4.24156 -0.170979 0
M  V30 4641 C 409.917 5.51102 -2.1457 0
M  V30 4642 H 408.847 0.744214 -0.121085 0
M  V30 4643 H 411.498 1.56888 -0.95175 0
M  V30 4644 H 409.88 3.95748 0.141387 0
M  V30 4645 H 411.054 3.72803 -2.7084 0
M  V30 4646 H 409.369 3.45937 -2.31769 0
M  V30 4647 H 411.966 5.34024 -0.26878 0
M  V30 4648 H 412.309 4.06917 0.878855 0
M  V30 4649 H 412.842 3.89447 -0.810914 0
M  V30 4650 H 409.581 5.73268 -3.17875 0
M  V30 4651 H 409.101 5.81554 -1.46817 0
M  V30 4652 H 410.78 6.17083 -1.94468 0
M  V30 4653 N 410.912 0.523116 1.48665 0
M  V30 4654 C 412.14 -0.0096312 2.06898 0
M  V30 4655 C 412.555 -1.28784 1.38059 0
M  V30 4656 O 411.912 -1.76453 0.465893 0
M  V30 4657 C 411.963 -0.244386 3.60673 0
M  V30 4658 O 411.684 0.983172 4.26925 0
M  V30 4659 C 413.185 -0.818289 4.35682 0
M  V30 4660 H 410.405 0.0304161 0.67031 0
M  V30 4661 H 412.949 0.726799 1.91149 0
M  V30 4662 H 411.104 -0.930847 3.76051 0
M  V30 4663 H 411.518 0.759653 5.1897 0
M  V30 4664 H 412.992 -0.93201 5.44075 0
M  V30 4665 H 413.469 -1.82153 3.99646 0
M  V30 4666 H 414.075 -0.168609 4.24966 0
M  V30 4667 N 412.39 -1.55475 0.257931 0
M  V30 4668 C 413.32 -2.24815 -0.630912 0
M  V30 4669 C 414.301 -1.23224 -1.17259 0
M  V30 4670 O 415.486 -1.51904 -1.20991 0
M  V30 4671 C 412.616 -2.95609 -1.82298 0
M  V30 4672 C 411.57 -4.03982 -1.41359 0
M  V30 4673 C 410.896 -4.6226 -2.68738 0
M  V30 4674 C 412.196 -5.19109 -0.57648 0
M  V30 4675 H 413.89 -2.99354 -0.0526878 0
M  V30 4676 H 411.436 -1.4398 -0.023901 0
M  V30 4677 H 413.389 -3.42822 -2.45054 0
M  V30 4678 H 412.113 -2.18577 -2.42676 0
M  V30 4679 H 410.772 -3.57555 -0.809324 0
M  V30 4680 H 410.42 -3.81915 -3.27338 0
M  V30 4681 H 410.12 -5.35424 -2.42065 0
M  V30 4682 H 411.644 -5.12212 -3.32372 0
M  V30 4683 H 413.058 -5.62479 -1.10861 0
M  V30 4684 H 411.455 -5.98729 -0.405351 0
M  V30 4685 H 412.525 -4.83174 0.408776 0
M  V30 4686 N 413.868 0.0150385 -1.57593 0
M  V30 4687 C 415.093 0.718067 -1.94573 0
M  V30 4688 C 415.518 1.6734 -0.859005 0
M  V30 4689 O 414.876 1.80362 0.184147 0
M  V30 4690 C 414.924 1.43918 -3.30636 0
M  V30 4691 O 414.028 2.55299 -3.23876 0
M  V30 4692 H 413.369 0.192125 -0.635597 0
M  V30 4693 H 415.899 -0.0336708 -2.04572 0
M  V30 4694 H 415.909 1.80598 -3.65853 0
M  V30 4695 H 414.584 0.738619 -4.09289 0
M  V30 4696 H 413.161 2.21058 -3.00312 0
M  V30 4697 N 415.346 1.54954 0.287554 0
M  V30 4698 C 416.593 1.74873 1.02106 0
M  V30 4699 C 416.921 0.541829 1.86801 0
M  V30 4700 O 416.176 -0.475992 1.89823 0
M  V30 4701 C 416.475 2.99833 1.94512 0
M  V30 4702 C 416.141 4.33029 1.25686 0
M  V30 4703 C 414.803 4.69233 1.06649 0
M  V30 4704 C 417.155 5.15542 0.765913 0
M  V30 4705 C 414.483 5.85518 0.372222 0
M  V30 4706 C 416.835 6.32542 0.0853101 0
M  V30 4707 C 415.499 6.67398 -0.1169 0
M  V30 4708 H 414.769 0.639906 0.373632 0
M  V30 4709 H 417.416 1.89219 0.294665 0
M  V30 4710 H 415.721 2.80325 2.73725 0
M  V30 4711 H 417.418 3.1244 2.51361 0
M  V30 4712 H 414.008 4.04564 1.41512 0
M  V30 4713 H 418.192 4.88059 0.90066 0
M  V30 4714 H 413.448 6.11057 0.204695 0
M  V30 4715 H 417.622 6.95741 -0.302936 0
M  V30 4716 H 415.249 7.57357 -0.656859 0
M  V30 4717 N 416.824 -0.551391 1.4764 0
M  V30 4718 C 418.052 -1.33357 1.58189 0
M  V30 4719 C 418.467 -1.87342 0.234199 0
M  V30 4720 O 417.824 -1.65301 -0.77343 0
M  V30 4721 C 417.875 -2.49942 2.61173 0
M  V30 4722 O 417.596 -1.98187 3.90709 0
M  V30 4723 C 419.097 -3.42072 2.8196 0
M  V30 4724 H 416.317 -0.40631 0.533998 0
M  V30 4725 H 418.861 -0.667367 1.93304 0
M  V30 4726 H 417.016 -3.12489 2.28975 0
M  V30 4727 H 417.43 -2.74342 4.47031 0
M  V30 4728 H 418.904 -4.20278 3.57869 0
M  V30 4729 H 419.381 -3.95978 1.89995 0
M  V30 4730 H 419.987 -2.85336 3.15378 0
M  V30 4731 N 418.302 -1.35869 -0.798587 0
M  V30 4732 C 419.532 -1.32529 -1.58491 0
M  V30 4733 C 419.94 0.0975405 -1.88948 0
M  V30 4734 O 419.283 1.06224 -1.49874 0
M  V30 4735 C 419.345 -2.07247 -2.9375 0
M  V30 4736 C 419.009 -3.56391 -2.86068 0
M  V30 4737 C 420.006 -4.50824 -2.58947 0
M  V30 4738 C 417.691 -3.9915 -3.04933 0
M  V30 4739 C 419.685 -5.85993 -2.5078 0
M  V30 4740 C 417.372 -5.34413 -2.96389 0
M  V30 4741 C 418.37 -6.27646 -2.69349 0
M  V30 4742 O 418.058 -7.60426 -2.60782 0
M  V30 4743 H 417.79 -0.456529 -0.498556 0
M  V30 4744 H 420.344 -1.79425 -0.999799 0
M  V30 4745 H 418.574 -1.55001 -3.54276 0
M  V30 4746 H 420.263 -1.96883 -3.54954 0
M  V30 4747 H 421.029 -4.19104 -2.44084 0
M  V30 4748 H 416.908 -3.26961 -3.24989 0
M  V30 4749 H 420.452 -6.58735 -2.29595 0
M  V30 4750 H 416.349 -5.65743 -3.10813 0
M  V30 4751 H 417.117 -7.70444 -2.76331 0
M  V30 4752 N 419.78 1.02168 -1.19998 0
M  V30 4753 C 420.713 2.10232 -0.887558 0
M  V30 4754 C 421.691 1.61827 0.158317 0
M  V30 4755 O 422.875 1.88471 0.0330249 0
M  V30 4756 C 420.002 3.37092 -0.32964 0
M  V30 4757 C 419.048 4.0438 -1.3557 0
M  V30 4758 S 419.881 4.48956 -2.91888 0
M  V30 4759 C 421.037 5.79024 -2.37658 0
M  V30 4760 H 421.27 2.36409 -1.80272 0
M  V30 4761 H 418.803 1.15211 -1.0279 0
M  V30 4762 H 420.761 4.10498 -0.0142824 0
M  V30 4763 H 419.422 3.08996 0.563941 0
M  V30 4764 H 418.615 4.95632 -0.9146 0
M  V30 4765 H 418.217 3.37176 -1.61828 0
M  V30 4766 H 420.509 6.53942 -1.77103 0
M  V30 4767 H 421.452 6.27924 -3.27287 0
M  V30 4768 H 421.86 5.35043 -1.79971 0
M  V30 4769 N 421.258 1.00505 1.21394 0
M  V30 4770 C 422.206 0.558623 2.25792 0
M  V30 4771 C 423.2 -0.396848 1.64686 0
M  V30 4772 O 424.406 -0.268035 1.77993 0
M  V30 4773 H 420.781 0.1623 0.734277 0
M  V30 4774 H 422.752 1.4503 2.60785 0
M  V30 4775 C 421.501 -0.0989574 3.47559 0
M  V30 4776 H 420.824 0.627225 3.94849 0
M  V30 4777 H 422.264 -0.3746 4.22342 0
M  V30 4778 C 420.723 -1.33817 3.09184 0
M  V30 4779 O 421.253 -2.43252 3.19674 0
M  V30 4780 N 419.459 -1.21793 2.63846 0
M  V30 4781 H 419.006 -0.32746 2.5551 0
M  V30 4782 H 418.964 -2.04809 2.38539 0
M  V30 4783 N 422.737 -1.36956 0.779787 0
M  V30 4784 C 423.962 -2.04283 0.358224 0
M  V30 4785 C 424.387 -1.58422 -1.01411 0
M  V30 4786 O 423.745 -0.748179 -1.65142 0
M  V30 4787 C 423.793 -3.58152 0.419479 0
M  V30 4788 O 422.897 -4.08342 -0.577142 0
M  V30 4789 H 422.238 -0.645967 0.153698 0
M  V30 4790 H 424.768 -1.75108 1.05822 0
M  V30 4791 H 424.778 -4.07041 0.279636 0
M  V30 4792 H 423.453 -3.90886 1.42061 0
M  V30 4793 H 422.03 -3.70751 -0.399755 0
M  V30 4794 N 424.215 -0.530993 -1.48385 0
M  V30 4795 C 425.148 0.278511 -2.26494 0
M  V30 4796 C 426.126 0.943905 -1.32398 0
M  V30 4797 O 427.31 0.968098 -1.61741 0
M  V30 4798 C 424.437 1.39453 -3.08659 0
M  V30 4799 C 423.483 0.840434 -4.18137 0
M  V30 4800 S 424.316 -0.292496 -5.34701 0
M  V30 4801 C 425.472 0.825973 -6.20426 0
M  V30 4802 H 425.705 -0.384365 -2.94805 0
M  V30 4803 H 423.238 -0.316799 -1.51115 0
M  V30 4804 H 425.196 2.03382 -3.56575 0
M  V30 4805 H 423.857 2.02913 -2.3976 0
M  V30 4806 H 423.05 1.67769 -4.75257 0
M  V30 4807 H 422.652 0.277819 -3.72967 0
M  V30 4808 H 424.944 1.72438 -6.55188 0
M  V30 4809 H 425.887 0.292728 -7.07495 0
M  V30 4810 H 426.295 1.10683 -5.53543 0
M  V30 4811 N 425.693 1.55336 -0.266172 0
M  V30 4812 C 426.623 2.25146 0.618981 0
M  V30 4813 C 427.604 1.23845 1.16604 0
M  V30 4814 O 428.789 1.52544 1.20183 0
M  V30 4815 C 425.919 2.96572 1.80728 0
M  V30 4816 C 424.873 4.04726 1.39215 0
M  V30 4817 C 424.199 4.63678 2.66283 0
M  V30 4818 C 425.499 5.19407 0.548942 0
M  V30 4819 H 427.193 2.99377 0.0368116 0
M  V30 4820 H 424.739 1.43991 0.0162651 0
M  V30 4821 H 426.692 3.44116 2.43232 0
M  V30 4822 H 425.416 2.19861 2.41514 0
M  V30 4823 H 424.075 3.57979 0.790351 0
M  V30 4824 H 423.723 3.83646 3.25308 0
M  V30 4825 H 423.423 5.367 2.39222 0
M  V30 4826 H 424.947 5.13967 3.29651 0
M  V30 4827 H 426.361 5.63059 1.07876 0
M  V30 4828 H 424.758 5.98936 0.373593 0
M  V30 4829 H 425.828 4.8295 -0.434394 0
M  V30 4830 N 427.171 -0.0066808 1.57599 0
M  V30 4831 C 428.448 -0.729586 1.81484 0
M  V30 4832 C 428.828 -1.92359 0.869558 0
M  V30 4833 O 428.176 -2.28348 -0.0832533 0
M  V30 4834 C 428.386 -1.1416 3.29801 0
M  V30 4835 C 429.734 -1.54823 3.95367 0
M  V30 4836 O 430.758 -1.23558 3.34084 0
M  V30 4837 O 429.617 -2.12937 5.03309 0
M  V30 4838 H 426.711 -0.354674 0.747085 0
M  V30 4839 H 429.257 0.0182609 1.6969 0
M  V30 4840 H 428.029 -0.290231 3.90222 0
M  V30 4841 H 427.652 -1.94876 3.46568 0
M  V30 4842 N 428.649 -1.55105 -0.279332 0
M  V30 4843 C 430.06 -1.66186 -0.850832 0
M  V30 4844 C 430.411 -0.584707 -1.87285 0
M  V30 4845 O 429.536 0.274919 -2.14647 0
M  V30 4846 C 430.131 -3.01264 -1.55001 0
M  V30 4847 C 428.69 -3.14394 -2.06963 0
M  V30 4848 C 427.837 -2.61959 -0.909536 0
M  V30 4849 H 430.788 -1.58602 -0.0558235 0
M  V30 4850 H 430.809 -2.93899 -2.41669 0
M  V30 4851 H 430.321 -3.7964 -0.805931 0
M  V30 4852 H 428.422 -2.4078 -2.84352 0
M  V30 4853 H 428.535 -4.20867 -2.28928 0
M  V30 4854 H 426.899 -2.18957 -1.30116 0
M  V30 4855 H 427.682 -3.42833 -0.179062 0
M  V30 4856 N 430.127 0.543554 -1.4793 0
M  V30 4857 C 431.373 1.30201 -1.55485 0
M  V30 4858 C 431.706 1.92925 -0.222201 0
M  V30 4859 O 430.981 1.78586 0.77053 0
M  V30 4860 C 431.264 2.40174 -2.68307 0
M  V30 4861 C 431.117 1.8223 -4.11233 0
M  V30 4862 C 432.436 3.42024 -2.76961 0
M  V30 4863 H 429.555 0.472036 -0.565996 0
M  V30 4864 H 432.197 0.606914 -1.80046 0
M  V30 4865 H 430.347 2.99463 -2.47495 0
M  V30 4866 H 432.019 1.27096 -4.43446 0
M  V30 4867 H 430.262 1.12832 -4.18869 0
M  V30 4868 H 430.933 2.61793 -4.85972 0
M  V30 4869 H 433.409 2.92672 -2.95774 0
M  V30 4870 H 432.285 4.16383 -3.57654 0
M  V30 4871 H 432.546 4.0173 -1.84568 0
M  V30 4872 N 431.605 1.3629 0.791371 0
M  V30 4873 C 432.851 1.30605 1.55146 0
M  V30 4874 C 433.184 -0.115042 1.93859 0
M  V30 4875 O 432.459 -1.06798 1.62556 0
M  V30 4876 C 432.742 2.22692 2.82985 0
M  V30 4877 C 432.595 3.73489 2.50651 0
M  V30 4878 C 433.914 2.13588 3.84796 0
M  V30 4879 H 431.033 0.475761 0.562868 0
M  V30 4880 H 433.675 1.66825 0.909358 0
M  V30 4881 H 431.825 1.91933 3.37778 0
M  V30 4882 H 433.497 4.14758 2.01924 0
M  V30 4883 H 431.74 3.93021 1.83622 0
M  V30 4884 H 432.411 4.3333 3.41949 0
M  V30 4885 H 434.887 2.40659 3.39445 0
M  V30 4886 H 433.763 2.80195 4.71998 0
M  V30 4887 H 434.024 1.12256 4.27611 0
M  V30 4888 N 433.083 -1.0153 1.20538 0
M  V30 4889 C 434.313 -1.78487 1.04048 0
M  V30 4890 C 434.721 -1.84631 -0.413292 0
M  V30 4891 O 434.064 -1.29919 -1.29872 0
M  V30 4892 C 434.126 -3.24367 1.55003 0
M  V30 4893 C 433.79 -3.41827 3.0332 0
M  V30 4894 C 434.787 -3.30941 4.00966 0
M  V30 4895 C 432.472 -3.67602 3.42307 0
M  V30 4896 C 434.466 -3.45577 5.35589 0
M  V30 4897 C 432.153 -3.81881 4.77085 0
M  V30 4898 C 433.151 -3.70874 5.73534 0
M  V30 4899 O 432.839 -3.84714 7.05868 0
M  V30 4900 H 432.571 -0.568108 0.366373 0
M  V30 4901 H 435.125 -1.28677 1.60098 0
M  V30 4902 H 433.355 -3.75266 0.933397 0
M  V30 4903 H 435.044 -3.82963 1.34514 0
M  V30 4904 H 435.81 -3.10964 3.72191 0
M  V30 4905 H 431.689 -3.75256 2.67776 0
M  V30 4906 H 435.233 -3.36902 6.10854 0
M  V30 4907 H 431.13 -4.01359 5.0555 0
M  V30 4908 H 431.898 -4.01724 7.13134 0
M  V30 4909 N 434.561 -1.01147 -1.20859 0
M  V30 4910 C 435.791 -0.715872 -1.93801 0
M  V30 4911 C 436.199 0.726592 -1.74692 0
M  V30 4912 O 435.542 1.50397 -1.05482 0
M  V30 4913 C 435.604 -0.965269 -3.46299 0
M  V30 4914 C 435.268 -2.39584 -3.89164 0
M  V30 4915 C 436.265 -3.3764 -3.95342 0
M  V30 4916 C 433.95 -2.73522 -4.21297 0
M  V30 4917 C 435.944 -4.67698 -4.33056 0
M  V30 4918 C 433.631 -4.03794 -4.58687 0
M  V30 4919 C 434.629 -5.00693 -4.64538 0
M  V30 4920 O 434.317 -6.28635 -5.01072 0
M  V30 4921 H 434.049 -0.262524 -0.622942 0
M  V30 4922 H 436.603 -1.35413 -1.54443 0
M  V30 4923 H 434.833 -0.269847 -3.85757 0
M  V30 4924 H 436.522 -0.662051 -4.00464 0
M  V30 4925 H 437.288 -3.12757 -3.70686 0
M  V30 4926 H 433.167 -1.9879 -4.15937 0
M  V30 4927 H 436.711 -5.4333 -4.37537 0
M  V30 4928 H 432.608 -4.28459 -4.82797 0
M  V30 4929 H 433.376 -6.32847 -5.19083 0
M  V30 4930 N 436.039 1.36541 -0.78704 0
M  V30 4931 C 437.286 1.99304 -0.358341 0
M  V30 4932 C 437.614 1.62467 1.06933 0
M  V30 4933 O 436.869 0.870019 1.75297 0
M  V30 4934 C 437.168 3.54343 -0.466485 0
M  V30 4935 C 436.834 4.10993 -1.85461 0
M  V30 4936 C 435.496 4.26177 -2.23443 0
M  V30 4937 C 437.848 4.41895 -2.76366 0
M  V30 4938 C 435.176 4.69573 -3.51736 0
M  V30 4939 C 437.528 4.86722 -4.04084 0
M  V30 4940 C 436.192 5.00112 -4.42091 0
M  V30 4941 H 435.462 0.729306 -0.131126 0
M  V30 4942 H 438.109 1.63068 -1.00404 0
M  V30 4943 H 436.414 3.90918 0.262719 0
M  V30 4944 H 438.111 4.00833 -0.115854 0
M  V30 4945 H 434.701 3.99612 -1.54946 0
M  V30 4946 H 438.885 4.29735 -2.48277 0
M  V30 4947 H 434.141 4.78127 -3.81057 0
M  V30 4948 H 438.315 5.09598 -4.7464 0
M  V30 4949 H 435.942 5.33498 -5.41557 0
M  V30 4950 N 437.518 0.538854 1.48102 0
M  V30 4951 C 438.743 0.0102694 2.07397 0
M  V30 4952 C 439.168 -1.26562 1.39153 0
M  V30 4953 O 438.526 -1.75357 0.460387 0
M  V30 4954 C 438.574 -0.187602 3.60112 0
M  V30 4955 O 437.678 -1.25432 3.92862 0
M  V30 4956 H 437.019 0.0430975 0.6626 0
M  V30 4957 H 439.549 0.749301 1.90385 0
M  V30 4958 H 439.559 -0.407517 4.0596 0
M  V30 4959 H 438.234 0.744386 4.09184 0
M  V30 4960 H 436.811 -1.01636 3.58782 0
M  V30 4961 N 438.996 -1.55193 0.274407 0
M  V30 4962 C 440.221 -2.04446 -0.348824 0
M  V30 4963 C 440.646 -1.15149 -1.48735 0
M  V30 4964 O 440.004 -0.149952 -1.80679 0
M  V30 4965 C 440.052 -3.51431 -0.808009 0
M  V30 4966 O 439.156 -3.65225 -1.91531 0
M  V30 4967 H 438.497 -0.66006 -0.0722276 0
M  V30 4968 H 441.027 -2.00481 0.408498 0
M  V30 4969 H 441.037 -3.92781 -1.10395 0
M  V30 4970 H 439.712 -4.15892 0.0249865 0
M  V30 4971 H 438.289 -3.35778 -1.62196 0
M  V30 4972 N 440.474 -0.00167713 -1.576 0
M  V30 4973 C 441.885 0.54091 -1.78693 0
M  V30 4974 C 442.236 1.7386 -0.909247 0
M  V30 4975 O 441.361 2.16109 -0.112176 0
M  V30 4976 C 441.956 0.98806 -3.24072 0
M  V30 4977 C 440.515 1.47594 -3.46256 0
M  V30 4978 C 439.662 0.42792 -2.73978 0
M  V30 4979 H 442.613 -0.22784 -1.57056 0
M  V30 4980 H 442.634 1.85398 -3.32277 0
M  V30 4981 H 442.146 0.116164 -3.87926 0
M  V30 4982 H 440.247 2.36868 -2.87618 0
M  V30 4983 H 440.36 1.50225 -4.54939 0
M  V30 4984 H 438.724 0.889934 -2.38647 0
M  V30 4985 H 439.507 -0.435038 -3.40532 0
M  V30 4986 N 441.952 1.55251 0.271103 0
M  V30 4987 C 443.177 1.80306 1.02491 0
M  V30 4988 C 443.602 0.575457 1.79081 0
M  V30 4989 O 442.96 -0.474987 1.74967 0
M  V30 4990 C 443.008 3.02832 1.95768 0
M  V30 4991 O 442.112 2.78051 3.04568 0
M  V30 4992 H 441.453 0.595896 0.292923 0
M  V30 4993 H 443.983 2.02397 0.299436 0
M  V30 4994 H 443.993 3.31616 2.37686 0
M  V30 4995 H 442.668 3.9183 1.39434 0
M  V30 4996 H 441.245 2.60369 2.66951 0
M  V30 4997 N 443.43 -0.535701 1.48216 0
M  V30 4998 C 444.677 -1.29183 1.55942 0
M  V30 4999 C 445.005 -1.93125 0.230857 0
M  V30 5000 O 444.26 -1.79556 -0.778331 0
M  V30 5001 C 444.559 -2.4068 2.64212 0
M  V30 5002 C 444.225 -1.94428 4.06827 0
M  V30 5003 C 442.887 -1.81532 4.45645 0
M  V30 5004 C 445.239 -1.59405 4.96225 0
M  V30 5005 C 442.567 -1.31939 5.71672 0
M  V30 5006 C 444.919 -1.11276 6.22736 0
M  V30 5007 C 443.583 -0.969924 6.60416 0
M  V30 5008 H 442.853 -0.472715 0.570632 0
M  V30 5009 H 445.5 -0.598437 1.81909 0
M  V30 5010 H 443.805 -3.15666 2.32083 0
M  V30 5011 H 445.502 -2.98822 2.67407 0
M  V30 5012 H 442.092 -2.05415 3.76168 0
M  V30 5013 H 446.276 -1.68231 4.66917 0
M  V30 5014 H 441.532 -1.19562 5.99596 0
M  V30 5015 H 445.706 -0.832453 6.91407 0
M  V30 5016 H 443.333 -0.583436 7.57958 0
M  V30 5017 N 444.908 -1.36708 -0.784132 0
M  V30 5018 C 446.319 -1.27947 -1.35965 0
M  V30 5019 C 446.67 0.0784013 -1.96043 0
M  V30 5020 O 445.795 0.979989 -1.92938 0
M  V30 5021 C 446.39 -2.31689 -2.47195 0
M  V30 5022 C 444.949 -2.26601 -3.00548 0
M  V30 5023 C 444.096 -2.16184 -1.73666 0
M  V30 5024 H 447.047 -1.4751 -0.585358 0
M  V30 5025 H 447.068 -1.95638 -3.26352 0
M  V30 5026 H 446.58 -3.30506 -2.03439 0
M  V30 5027 H 444.681 -1.31268 -3.48711 0
M  V30 5028 H 444.794 -3.19508 -3.57004 0
M  V30 5029 H 443.158 -1.62524 -1.96107 0
M  V30 5030 H 443.941 -3.16896 -1.32031 0
M  V30 5031 N 446.386 1.0089 -1.21074 0
M  V30 5032 C 447.334 2.11707 -0.963476 0
M  V30 5033 C 448.328 1.69172 0.0879032 0
M  V30 5034 O 449.534 1.79889 -0.0631415 0
M  V30 5035 H 445.909 0.692026 -0.294287 0
M  V30 5036 H 447.88 2.29743 -1.90422 0
M  V30 5037 C 446.629 3.43473 -0.540509 0
M  V30 5038 H 445.952 3.76634 -1.34114 0
M  V30 5039 H 447.392 4.22044 -0.406777 0
M  V30 5040 C 445.851 3.2849 0.748079 0
M  V30 5041 O 446.381 3.58883 1.8046 0
M  V30 5042 N 444.587 2.81715 0.713081 0
M  V30 5043 H 444.134 2.5718 -0.146973 0
M  V30 5044 H 444.092 2.72071 1.57558 0
M  V30 5045 N 447.864 1.01787 1.20321 0
M  V30 5046 C 449.111 0.707936 1.89722 0
M  V30 5047 C 449.439 -0.762535 1.78929 0
M  V30 5048 O 448.694 -1.56977 1.16861 0
M  V30 5049 C 448.993 1.09076 3.40349 0
M  V30 5050 C 448.659 2.55765 3.71342 0
M  V30 5051 C 447.321 2.95845 3.79511 0
M  V30 5052 C 449.673 3.50723 3.85542 0
M  V30 5053 C 447.001 4.2982 3.99339 0
M  V30 5054 C 449.353 4.84387 4.06881 0
M  V30 5055 C 448.017 5.24172 4.1328 0
M  V30 5056 H 447.287 0.259052 0.694243 0
M  V30 5057 H 449.934 1.27868 1.42555 0
M  V30 5058 H 448.239 0.438453 3.89339 0
M  V30 5059 H 449.936 0.828636 3.92345 0
M  V30 5060 H 446.526 2.2371 3.65584 0
M  V30 5061 H 450.71 3.20916 3.78585 0
M  V30 5062 H 445.966 4.60196 4.02529 0
M  V30 5063 H 450.14 5.57891 4.1681 0
M  V30 5064 H 447.767 6.27997 4.28396 0
M  V30 5065 N 449.342 -1.36122 0.79427 0
M  V30 5066 C 450.589 -1.99111 0.368905 0
M  V30 5067 C 450.917 -1.63032 -1.0607 0
M  V30 5068 O 450.172 -0.879303 -1.74833 0
M  V30 5069 C 450.471 -3.5409 0.48527 0
M  V30 5070 C 450.137 -4.10003 1.87638 0
M  V30 5071 C 448.799 -4.24986 2.257 0
M  V30 5072 C 451.151 -4.40423 2.78706 0
M  V30 5073 C 448.479 -4.67701 3.54221 0
M  V30 5074 C 450.831 -4.84573 4.0666 0
M  V30 5075 C 449.495 -4.97761 4.44737 0
M  V30 5076 H 448.765 -0.7286 0.134992 0
M  V30 5077 H 451.412 -1.62534 1.01267 0
M  V30 5078 H 449.717 -3.91052 -0.241984 0
M  V30 5079 H 451.414 -4.00766 0.137109 0
M  V30 5080 H 448.004 -3.98784 1.57064 0
M  V30 5081 H 452.188 -4.28412 2.50553 0
M  V30 5082 H 447.444 -4.761 3.83587 0
M  V30 5083 H 451.618 -5.07074 4.77336 0
M  V30 5084 H 449.245 -5.30618 5.44379 0
M  V30 5085 N 450.82 -0.546701 -1.47814 0
M  V30 5086 C 452.045 -0.021268 -2.07389 0
M  V30 5087 C 452.47 1.25822 -1.39822 0
M  V30 5088 O 451.828 1.75111 -0.46968 0
M  V30 5089 C 451.876 0.168502 -3.60206 0
M  V30 5090 O 450.98 1.23347 -3.93522 0
M  V30 5091 H 450.321 -0.0466108 -0.662362 0
M  V30 5092 H 452.851 -0.759387 -1.89985 0
M  V30 5093 H 452.861 0.385982 -4.0617 0
M  V30 5094 H 451.536 -0.766075 -4.08784 0
M  V30 5095 H 450.113 0.997319 -3.59316 0
M  V30 5096 N 452.299 1.55045 -0.282633 0
M  V30 5097 C 453.527 2.04168 0.33512 0
M  V30 5098 C 453.942 1.16071 1.48906 0
M  V30 5099 O 453.299 0.182391 1.81586 0
M  V30 5100 C 453.35 3.52332 0.808957 0
M  V30 5101 O 453.071 4.37078 -0.299038 0
M  V30 5102 C 454.572 4.17375 1.49375 0
M  V30 5103 H 451.792 0.666744 0.0754543 0
M  V30 5104 H 454.336 2.00205 -0.416918 0
M  V30 5105 H 452.491 3.56715 1.51106 0
M  V30 5106 H 452.905 5.24458 0.0665514 0
M  V30 5107 H 454.379 5.22627 1.77664 0
M  V30 5108 H 454.856 3.65999 2.42778 0
M  V30 5109 H 455.462 4.17016 0.835305 0
M  V30 5110 N 453.777 0.010035 1.57597 0
M  V30 5111 C 454.707 -0.976857 2.12084 0
M  V30 5112 C 455.688 -1.35191 1.03235 0
M  V30 5113 O 456.873 -1.43389 1.3097 0
M  V30 5114 C 454.003 -2.26548 2.63236 0
M  V30 5115 C 452.957 -2.03175 3.76701 0
M  V30 5116 C 452.283 -3.38138 4.14206 0
M  V30 5117 C 453.583 -1.38625 5.03568 0
M  V30 5118 H 455.277 -0.523145 2.94794 0
M  V30 5119 H 452.823 -0.250195 1.4181 0
M  V30 5120 H 454.776 -2.95952 2.99984 0
M  V30 5121 H 453.5 -2.74051 1.77661 0
M  V30 5122 H 452.159 -1.36195 3.40362 0
M  V30 5123 H 451.807 -3.83363 3.25641 0
M  V30 5124 H 451.507 -3.23312 4.90656 0
M  V30 5125 H 453.031 -4.08841 4.53521 0
M  V30 5126 H 454.445 -1.98 5.38023 0
M  V30 5127 H 452.842 -1.34256 5.84889 0
M  V30 5128 H 453.912 -0.356722 4.83586 0
M  V30 5129 N 455.255 -1.55392 -0.262866 0
M  V30 5130 C 456.504 -1.75679 -0.990943 0
M  V30 5131 C 456.817 -0.57097 -1.87081 0
M  V30 5132 O 458.023 -0.656486 -2.63444 0
M  V30 5133 C 456.479 -3.10964 -1.81188 0
M  V30 5134 C 456.087 -4.37146 -0.980188 0
M  V30 5135 C 457.831 -3.40597 -2.53365 0
M  V30 5136 C 455.738 -5.63466 -1.7961 0
M  V30 5137 H 454.668 -0.654868 -0.373716 0
M  V30 5138 H 457.319 -1.81841 -0.246203 0
M  V30 5139 H 455.701 -2.98867 -2.59797 0
M  V30 5140 H 456.875 -4.60187 -0.237558 0
M  V30 5141 H 455.19 -4.14731 -0.372497 0
M  V30 5142 H 457.787 -4.32186 -3.14833 0
M  V30 5143 H 458.13 -2.6119 -3.24169 0
M  V30 5144 H 458.663 -3.53838 -1.81779 0
M  V30 5145 H 455.402 -6.4565 -1.13209 0
M  V30 5146 H 454.922 -5.44552 -2.51443 0
M  V30 5147 H 456.601 -6.02139 -2.36723 0
M  V30 5148 N 456.733 0.527833 -1.48498 0
M  V30 5149 C 457.681 1.65313 -1.63628 0
M  V30 5150 C 458.675 1.6177 -0.502676 0
M  V30 5151 O 459.881 1.66601 -0.681469 0
M  V30 5152 H 456.256 0.547518 -0.515488 0
M  V30 5153 H 458.227 1.49696 -2.58135 0
M  V30 5154 C 456.976 3.03576 -1.6952 0
M  V30 5155 H 456.299 3.06997 -2.56111 0
M  V30 5156 H 457.739 3.81923 -1.84149 0
M  V30 5157 C 456.198 3.34089 -0.43432 0
M  V30 5158 O 456.728 3.99151 0.451852 0
M  V30 5159 N 454.934 2.88991 -0.305368 0
M  V30 5160 H 454.481 2.36222 -1.02747 0
M  V30 5161 H 454.439 3.09776 0.537249 0
M  V30 5162 N 458.211 1.37122 0.776871 0
M  V30 5163 C 459.627 1.1781 1.07671 0
M  V30 5164 C 459.827 0.0107454 2.01497 0
M  V30 5165 O 458.883 -0.650756 2.4397 0
M  V30 5166 C 460.196 2.49451 1.67913 0
M  V30 5167 C 461.744 2.55927 1.80195 0
M  V30 5168 C 462.219 3.87686 2.43851 0
M  V30 5169 N 463.71 3.891 2.51307 0
M  V30 5170 C 464.445 4.87797 3.014 0
M  V30 5171 N 463.941 5.96888 3.51705 0
M  V30 5172 N 465.734 4.75205 3.00227 0
M  V30 5173 H 457.885 2.11843 0.153778 0
M  V30 5174 H 460.148 0.938927 0.130844 0
M  V30 5175 H 459.854 3.35207 1.06439 0
M  V30 5176 H 459.728 2.66169 2.67271 0
M  V30 5177 H 462.115 1.70582 2.40803 0
M  V30 5178 H 462.196 2.43097 0.796069 0
M  V30 5179 H 461.84 4.73444 1.83884 0
M  V30 5180 H 461.77 3.97817 3.45035 0
M  V30 5181 H 464.261 3.10293 2.157 0
M  V30 5182 H 464.574 6.68155 3.88316 0
M  V30 5183 H 462.919 6.0054 3.49824 0
M  V30 5184 H 466.11 3.89103 2.60224 0
M  V30 5185 H 466.283 5.52279 3.38957 0
M  V30 5186 N 459.689 -1.00246 1.21608 0
M  V30 5187 C 460.929 -1.75589 1.04631 0
M  V30 5188 C 461.293 -1.87513 -0.412648 0
M  V30 5189 O 462.494 -2.59444 -0.703003 0
M  V30 5190 C 460.765 -3.12893 1.72722 0
M  V30 5191 S 462.324 -4.04095 1.71034 0
M  V30 5192 H 459.142 -0.604133 0.374892 0
M  V30 5193 H 461.744 -1.19927 1.54395 0
M  V30 5194 H 460.448 -3.0185 2.78055 0
M  V30 5195 H 459.979 -3.73628 1.23149 0
M  V30 5196 H 461.994 -4.9045 0.753231 0
M  V30 5197 N 461.167 -1.02423 -1.1978 0
M  V30 5198 C 462.097 -0.62157 -2.25075 0
M  V30 5199 C 463.078 0.367148 -1.6609 0
M  V30 5200 O 464.263 0.250892 -1.92573 0
M  V30 5201 C 461.393 0.0331826 -3.47284 0
M  V30 5202 C 460.347 -0.877323 -4.18912 0
M  V30 5203 C 459.673 -0.0879296 -5.34628 0
M  V30 5204 C 460.973 -2.18892 -4.74219 0
M  V30 5205 H 462.667 -1.50179 -2.59011 0
M  V30 5206 H 460.213 -0.723547 -1.24502 0
M  V30 5207 H 462.166 0.326488 -4.20133 0
M  V30 5208 H 460.89 0.948164 -3.12534 0
M  V30 5209 H 459.549 -1.15475 -3.47938 0
M  V30 5210 H 459.197 0.828941 -4.96123 0
M  V30 5211 H 458.897 -0.694359 -5.83483 0
M  V30 5212 H 460.421 0.198743 -6.10276 0
M  V30 5213 H 461.835 -1.95746 -5.38847 0
M  V30 5214 H 460.232 -2.74686 -5.33542 0
M  V30 5215 H 461.302 -2.84674 -3.92541 0
M  V30 5216 N 462.645 1.35699 -0.801477 0
M  V30 5217 C 463.577 2.28598 -0.166028 0
M  V30 5218 C 464.59 1.50044 0.631721 0
M  V30 5219 O 465.779 1.72339 0.464921 0
M  V30 5220 C 462.879 3.29625 0.787451 0
M  V30 5221 C 462.052 4.37384 0.037171 0
M  V30 5222 C 461.111 5.183 0.908375 0
M  V30 5223 O 460.137 5.68053 0.361189 0
M  V30 5224 N 461.339 5.35912 2.23112 0
M  V30 5225 H 464.104 2.83771 -0.964071 0
M  V30 5226 H 461.665 1.47994 -0.656469 0
M  V30 5227 H 463.657 3.80648 1.37439 0
M  V30 5228 H 462.227 2.75004 1.48632 0
M  V30 5229 H 461.447 3.87364 -0.730935 0
M  V30 5230 H 462.735 5.0653 -0.480109 0
M  V30 5231 H 462.133 4.97125 2.69968 0
M  V30 5232 H 460.69 5.90133 2.76741 0
M  V30 5233 N 464.123 0.554532 1.47522 0
M  V30 5234 C 465.539 0.214107 1.58157 0
M  V30 5235 C 465.739 -1.28331 1.55349 0
M  V30 5236 O 464.795 -2.06329 1.45549 0
M  V30 5237 C 466.108 0.838391 2.88776 0
M  V30 5238 C 467.656 0.809374 3.02354 0
M  V30 5239 C 468.131 1.41268 4.35669 0
M  V30 5240 N 469.622 1.37574 4.42298 0
M  V30 5241 C 470.357 1.8122 5.4401 0
M  V30 5242 N 469.853 2.3271 6.52547 0
M  V30 5243 N 471.646 1.72307 5.35039 0
M  V30 5244 H 463.797 1.52744 1.4759 0
M  V30 5245 H 466.06 0.636812 0.702264 0
M  V30 5246 H 465.766 1.89065 2.96559 0
M  V30 5247 H 465.64 0.329847 3.75755 0
M  V30 5248 H 468.027 -0.234187 2.94169 0
M  V30 5249 H 468.108 1.35565 2.16924 0
M  V30 5250 H 467.752 2.45529 4.4461 0
M  V30 5251 H 467.682 0.841871 5.19827 0
M  V30 5252 H 470.173 0.999081 3.64454 0
M  V30 5253 H 470.486 2.63944 7.26329 0
M  V30 5254 H 468.831 2.36719 6.53444 0
M  V30 5255 H 472.022 1.3186 4.49144 0
M  V30 5256 H 472.195 2.06641 6.14169 0
M  V30 5257 N 465.601 -1.54893 0.290851 0
M  V30 5258 C 466.548 -2.23138 -0.58974 0
M  V30 5259 C 467.518 -1.21036 -1.13752 0
M  V30 5260 O 468.703 -1.49626 -1.18392 0
M  V30 5261 C 465.843 -2.96811 -1.76061 0
M  V30 5262 C 464.956 -4.13665 -1.24519 0
M  V30 5263 C 464.091 -4.74944 -2.3791 0
M  V30 5264 C 463.13 -5.83963 -1.83451 0
M  V30 5265 N 462.267 -6.39239 -2.90376 0
M  V30 5266 H 467.107 -2.98 -0.00114915 0
M  V30 5267 H 464.644 -1.47096 0.0112006 0
M  V30 5268 H 466.602 -3.37751 -2.44909 0
M  V30 5269 H 465.232 -2.24344 -2.32098 0
M  V30 5270 H 464.284 -3.77737 -0.449288 0
M  V30 5271 H 465.596 -4.92238 -0.806424 0
M  V30 5272 H 464.75 -5.18684 -3.14724 0
M  V30 5273 H 463.489 -3.95682 -2.85109 0
M  V30 5274 H 462.494 -5.39657 -1.05122 0
M  V30 5275 H 463.719 -6.65103 -1.37169 0
M  V30 5276 H 461.665 -5.62864 -3.36927 0
M  V30 5277 H 461.582 -7.13129 -2.50965 0
M  V30 5278 H 462.85 -6.87637 -3.67118 0
M  V30 5279 N 467.08 -0.0183926 -1.57589 0
M  V30 5280 C 468.013 1.00148 -2.0505 0
M  V30 5281 C 468.991 1.32387 -0.944058 0
M  V30 5282 O 470.175 1.44237 -1.21358 0
M  V30 5283 C 467.302 2.32435 -2.46357 0
M  V30 5284 C 466.348 2.15731 -3.67916 0
M  V30 5285 S 467.181 1.46613 -5.15039 0
M  V30 5286 C 468.337 2.80293 -5.59631 0
M  V30 5287 H 468.57 0.597429 -2.91235 0
M  V30 5288 H 466.103 0.193002 -1.53189 0
M  V30 5289 H 468.061 3.0849 -2.70822 0
M  V30 5290 H 466.722 2.69975 -1.60537 0
M  V30 5291 H 465.915 3.13502 -3.9463 0
M  V30 5292 H 465.517 1.4782 -3.43548 0
M  V30 5293 H 467.809 3.76557 -5.63215 0
M  V30 5294 H 468.752 2.58256 -6.59325 0
M  V30 5295 H 469.16 2.85047 -4.87246 0
M  V30 5296 N 468.558 1.5553 0.254621 0
M  V30 5297 C 469.786 1.81046 1.00149 0
M  V30 5298 C 470.201 0.593047 1.79244 0
M  V30 5299 O 469.558 -0.438196 1.77161 0
M  V30 5300 C 469.609 3.04684 1.94551 0
M  V30 5301 O 469.33 4.21725 1.18658 0
M  V30 5302 C 470.831 3.42943 2.80901 0
M  V30 5303 H 468.051 0.602653 0.295044 0
M  V30 5304 H 470.595 2.02576 0.279842 0
M  V30 5305 H 468.75 2.85226 2.62154 0
M  V30 5306 H 469.164 4.91746 1.82445 0
M  V30 5307 H 470.638 4.32576 3.42902 0
M  V30 5308 H 471.115 2.63176 3.51617 0
M  V30 5309 H 471.721 3.64724 2.18762 0
M  V30 5310 N 470.036 -0.519951 1.48776 0
M  V30 5311 C 471.284 -1.2727 1.56993 0
M  V30 5312 C 471.605 -1.9339 0.25004 0
M  V30 5313 O 470.875 -1.81822 -0.729216 0
M  V30 5314 H 469.455 -0.472732 0.578389 0
M  V30 5315 H 472.117 -0.604234 1.85297 0
M  V30 5316 H 471.213 -2.04669 2.3562 0
M  V30 5317 N 471.514 -1.37532 -0.769588 0
M  V30 5318 C 472.424 -1.35668 -1.91393 0
M  V30 5319 C 473.44 -0.255954 -1.72107 0
M  V30 5320 O 474.616 -0.491704 -1.95305 0
M  V30 5321 C 471.681 -1.16481 -3.26547 0
M  V30 5322 C 470.742 -2.36212 -3.58472 0
M  V30 5323 C 469.975 -2.17932 -4.87177 0
M  V30 5324 O 470.198 -1.1647 -5.58382 0
M  V30 5325 O 469.132 -3.06167 -5.18214 0
M  V30 5326 H 472.958 -2.32055 -1.95918 0
M  V30 5327 H 470.543 -1.18284 -0.912641 0
M  V30 5328 H 472.425 -1.07778 -4.07384 0
M  V30 5329 H 471.1 -0.231687 -3.2287 0
M  V30 5330 H 470.007 -2.50488 -2.77861 0
M  V30 5331 H 471.34 -3.281 -3.66894 0
M  V30 5332 N 472.992 0.995999 -1.22138 0
M  V30 5333 C 474.403 1.54961 -1.04135 0
M  V30 5334 C 474.754 1.92159 0.396147 0
M  V30 5335 O 473.879 1.74435 1.28069 0
M  V30 5336 C 474.474 2.81581 -1.88408 0
M  V30 5337 C 473.033 3.33396 -1.74712 0
M  V30 5338 C 472.18 2.06509 -1.85066 0
M  V30 5339 H 475.131 0.817436 -1.36028 0
M  V30 5340 H 475.152 3.53822 -1.39966 0
M  V30 5341 H 474.664 2.54476 -2.93025 0
M  V30 5342 H 472.765 3.65416 -0.728159 0
M  V30 5343 H 472.878 4.04208 -2.57202 0
M  V30 5344 H 471.242 2.19925 -1.28472 0
M  V30 5345 H 472.025 1.81804 -2.91208 0
M  V30 5346 N 474.47 1.03057 1.19235 0
M  V30 5347 C 475.747 0.642608 1.84743 0
M  V30 5348 C 476.127 -0.878577 1.91948 0
M  V30 5349 O 475.475 -1.77597 1.43776 0
M  V30 5350 C 475.685 1.30665 3.23616 0
M  V30 5351 C 477.033 1.43098 3.9976 0
M  V30 5352 O 478.057 1.26396 3.3302 0
M  V30 5353 O 476.916 1.70223 5.19313 0
M  V30 5354 H 474.01 0.223573 0.796206 0
M  V30 5355 H 476.556 1.12883 1.26711 0
M  V30 5356 H 475.328 2.34544 3.13217 0
M  V30 5357 H 474.951 0.808405 3.89295 0
M  V30 5358 N 475.948 -1.35272 0.808662 0
M  V30 5359 C 476.896 -2.31663 0.208606 0
M  V30 5360 C 477.89 -1.56731 -0.642778 0
M  V30 5361 O 479.096 -1.71843 -0.53571 0
M  V30 5362 H 475.471 -0.750421 0.0486993 0
M  V30 5363 H 477.442 -2.79814 1.03666 0
M  V30 5364 C 476.191 -3.42008 -0.626573 0
M  V30 5365 H 475.514 -3.99795 0.0192103 0
M  V30 5366 H 476.954 -4.11727 -1.01278 0
M  V30 5367 C 475.413 -2.85226 -1.79298 0
M  V30 5368 O 475.943 -2.78945 -2.89055 0
M  V30 5369 N 474.149 -2.42245 -1.60516 0
M  V30 5370 H 473.696 -2.47554 -0.712375 0
M  V30 5371 H 473.654 -2.04603 -2.38715 0
M  V30 5372 N 477.426 -0.562348 -1.47226 0
M  V30 5373 C 478.374 0.195476 -2.31777 0
M  V30 5374 C 479.368 0.90433 -1.43242 0
M  V30 5375 O 480.574 0.825031 -1.59979 0
M  V30 5376 H 476.949 0.0819095 -0.747526 0
M  V30 5377 H 478.92 -0.536753 -2.93533 0
M  V30 5378 C 477.669 1.20902 -3.26003 0
M  V30 5379 H 476.992 0.672997 -3.94095 0
M  V30 5380 H 478.432 1.71006 -3.87986 0
M  V30 5381 C 476.891 2.25955 -2.49891 0
M  V30 5382 O 477.421 3.32969 -2.2471 0
M  V30 5383 N 475.627 2.00019 -2.1081 0
M  V30 5384 H 475.174 1.13006 -2.31489 0
M  V30 5385 H 475.132 2.70523 -1.60201 0
M  V30 5386 N 478.904 1.54736 -0.299062 0
M  V30 5387 C 480.32 1.59507 0.0543849 0
M  V30 5388 C 480.52 1.31606 1.52585 0
M  V30 5389 O 479.576 1.08853 2.27832 0
M  V30 5390 C 480.889 2.98751 -0.34181 0
M  V30 5391 C 482.437 3.1165 -0.290414 0
M  V30 5392 C 482.912 4.53199 -0.661402 0
M  V30 5393 N 484.403 4.59114 -0.613863 0
M  V30 5394 C 485.138 5.66709 -0.873417 0
M  V30 5395 N 484.634 6.82349 -1.19884 0
M  V30 5396 N 486.427 5.56369 -0.800608 0
M  V30 5397 H 478.578 1.71133 -1.25806 0
M  V30 5398 H 480.841 0.799186 -0.509908 0
M  V30 5399 H 480.547 3.24085 -1.36608 0
M  V30 5400 H 480.421 3.75961 0.305508 0
M  V30 5401 H 482.808 2.86066 0.724605 0
M  V30 5402 H 482.889 2.366 -0.972327 0
M  V30 5403 H 482.533 4.79513 -1.67422 0
M  V30 5404 H 482.463 5.26583 0.0425612 0
M  V30 5405 H 484.954 3.76053 -0.3732 0
M  V30 5406 H 485.267 7.60326 -1.38291 0
M  V30 5407 H 483.612 6.83906 -1.23685 0
M  V30 5408 H 486.803 4.64904 -0.546045 0
M  V30 5409 H 486.976 6.40139 -1.00626 0
M  V30 5410 N 480.382 0.0267497 1.57577 0
M  V30 5411 C 481.607 -0.666227 1.96408 0
M  V30 5412 C 482.032 -1.65004 0.903071 0
M  V30 5413 O 481.39 -1.80787 -0.136263 0
M  V30 5414 C 481.438 -1.35101 3.34335 0
M  V30 5415 O 480.542 -2.46623 3.30531 0
M  V30 5416 H 479.883 -0.175206 0.640468 0
M  V30 5417 H 482.413 0.0878977 2.04411 0
M  V30 5418 H 482.423 -1.70834 3.70513 0
M  V30 5419 H 481.098 -0.629844 4.11103 0
M  V30 5420 H 479.675 -2.13019 3.06068 0
M  V30 5421 N 481.861 -1.55662 -0.24637 0
M  V30 5422 C 483.089 -1.81575 -0.991876 0
M  V30 5423 C 483.504 -0.602545 -1.78927 0
M  V30 5424 O 482.861 0.428795 -1.77391 0
M  V30 5425 C 482.912 -3.05711 -1.92933 0
M  V30 5426 O 482.633 -4.22348 -1.1642 0
M  V30 5427 C 484.134 -3.44428 -2.79078 0
M  V30 5428 H 481.354 -0.604209 -0.291844 0
M  V30 5429 H 483.898 -2.02722 -0.269095 0
M  V30 5430 H 482.053 -2.86612 -2.60638 0
M  V30 5431 H 482.467 -4.92706 -1.79835 0
M  V30 5432 H 483.941 -4.34388 -3.40603 0
M  V30 5433 H 484.418 -2.65037 -3.50217 0
M  V30 5434 H 485.024 -3.65879 -2.16824 0
M  V30 5435 N 483.339 0.512053 -1.4905 0
M  V30 5436 C 484.564 1.2959 -1.6193 0
M  V30 5437 C 484.989 1.85906 -0.286454 0
M  V30 5438 O 484.347 1.65312 0.744426 0
M  V30 5439 C 484.395 2.40987 -2.68249 0
M  V30 5440 O 483.499 3.44531 -2.26654 0
M  V30 5441 H 482.84 0.383053 -0.542371 0
M  V30 5442 H 485.37 0.614231 -1.95162 0
M  V30 5443 H 485.38 2.86913 -2.90078 0
M  V30 5444 H 484.055 1.99361 -3.65004 0
M  V30 5445 H 482.632 3.046 -2.15112 0
M  V30 5446 N 484.817 1.37938 0.762283 0
M  V30 5447 C 486.063 1.33866 1.52341 0
M  V30 5448 C 486.396 -0.0738961 1.94059 0
M  V30 5449 O 485.671 -1.03326 1.64785 0
M  V30 5450 C 485.954 2.28644 2.78197 0
M  V30 5451 C 485.807 3.78722 2.42672 0
M  V30 5452 C 487.126 2.21702 3.80179 0
M  V30 5453 H 484.245 0.487593 0.55265 0
M  V30 5454 H 486.887 1.68717 0.873767 0
M  V30 5455 H 485.037 1.99055 3.33631 0
M  V30 5456 H 486.709 4.18948 1.93081 0
M  V30 5457 H 484.952 3.96827 1.75244 0
M  V30 5458 H 485.623 4.40486 3.3268 0
M  V30 5459 H 488.099 2.47805 3.34263 0
M  V30 5460 H 486.975 2.90143 4.65949 0
M  V30 5461 H 487.236 1.21301 4.25133 0
M  V30 5462 N 486.295 -0.989507 1.22664 0
M  V30 5463 C 487.205 -2.11449 1.01619 0
M  V30 5464 C 488.221 -1.73962 -0.036545 0
M  V30 5465 O 489.397 -2.00788 0.156924 0
M  V30 5466 C 486.462 -3.41465 0.600204 0
M  V30 5467 C 485.523 -3.93033 1.72695 0
M  V30 5468 C 484.756 -5.16844 1.33071 0
M  V30 5469 O 484.979 -5.7001 0.210975 0
M  V30 5470 O 483.913 -5.6225 2.14845 0
M  V30 5471 H 487.739 -2.32088 1.9588 0
M  V30 5472 H 485.324 -1.09823 1.01289 0
M  V30 5473 H 487.206 -4.19695 0.37873 0
M  V30 5474 H 485.881 -3.22178 -0.313511 0
M  V30 5475 H 484.788 -3.15961 2.00298 0
M  V30 5476 H 486.121 -4.16758 2.61865 0
M  V30 5477 N 487.773 -1.03688 -1.18687 0
M  V30 5478 C 488.703 -0.645407 -2.24403 0
M  V30 5479 C 489.684 0.349511 -1.66471 0
M  V30 5480 O 490.869 0.230453 -1.92828 0
M  V30 5481 C 487.999 -0.00365337 -3.473 0
M  V30 5482 C 486.953 -0.921705 -4.17958 0
M  V30 5483 C 486.279 -0.144629 -5.34504 0
M  V30 5484 C 487.579 -2.23909 -4.71871 0
M  V30 5485 H 489.273 -1.52917 -2.57404 0
M  V30 5486 H 486.819 -0.736711 -1.23728 0
M  V30 5487 H 488.772 0.281908 -4.20456 0
M  V30 5488 H 487.496 0.914963 -3.13522 0
M  V30 5489 H 486.155 -1.19159 -3.46694 0
M  V30 5490 H 485.803 0.776274 -4.96974 0
M  V30 5491 H 485.503 -0.756206 -5.82714 0
M  V30 5492 H 487.027 0.134004 -6.10453 0
M  V30 5493 H 488.441 -2.0145 -5.36741 0
M  V30 5494 H 486.838 -2.8033 -5.30599 0
M  V30 5495 H 487.908 -2.88822 -3.895 0
M  V30 5496 N 489.251 1.34841 -0.815825 0
M  V30 5497 C 490.479 2.0273 -0.413294 0
M  V30 5498 C 490.894 1.61459 0.978599 0
M  V30 5499 O 490.251 0.816584 1.63212 0
M  V30 5500 C 490.302 3.58058 -0.497676 0
M  V30 5501 O 490.023 3.97832 -1.8347 0
M  V30 5502 C 491.524 4.4321 -0.0891339 0
M  V30 5503 H 488.744 0.649956 -0.166728 0
M  V30 5504 H 491.288 1.72267 -1.10201 0
M  V30 5505 H 489.443 3.87136 0.142886 0
M  V30 5506 H 489.857 4.92501 -1.80396 0
M  V30 5507 H 491.331 5.5164 -0.199274 0
M  V30 5508 H 491.808 4.28432 0.966571 0
M  V30 5509 H 492.414 4.19446 -0.703214 0
M  V30 5510 N 490.729 0.570148 1.46925 0
M  V30 5511 C 491.977 0.0508523 2.02036 0
M  V30 5512 C 492.298 -1.30885 1.44548 0
M  V30 5513 O 491.568 -1.85647 0.625453 0
M  V30 5514 H 490.148 0.0158088 0.746833 0
M  V30 5515 H 492.81 0.743086 1.80178 0
M  V30 5516 H 491.906 -0.027575 3.12088 0
M  V30 5517 N 492.207 -1.54576 0.307264 0
M  V30 5518 C 493.484 -1.92377 -0.353605 0
M  V30 5519 C 493.864 -1.23517 -1.71192 0
M  V30 5520 O 493.212 -0.373101 -2.25433 0
M  V30 5521 C 493.422 -3.45928 -0.462039 0
M  V30 5522 C 494.77 -4.18278 -0.729975 0
M  V30 5523 O 495.794 -3.51997 -0.545605 0
M  V30 5524 O 494.653 -5.3563 -1.08454 0
M  V30 5525 H 491.747 -0.802747 -0.198812 0
M  V30 5526 H 494.293 -1.65929 0.355783 0
M  V30 5527 H 493.065 -3.88187 0.492592 0
M  V30 5528 H 492.688 -3.78431 -1.21965 0
M  V30 5529 N 493.685 -0.035106 -1.57561 0
M  V30 5530 C 495.096 0.502885 -1.798 0
M  V30 5531 C 495.447 1.71892 -0.945921 0
M  V30 5532 O 494.572 2.15822 -0.157991 0
M  V30 5533 C 495.167 0.919097 -3.26095 0
M  V30 5534 C 493.726 1.40216 -3.49308 0
M  V30 5535 C 492.873 0.369709 -2.74824 0
M  V30 5536 H 495.824 -0.261102 -1.56537 0
M  V30 5537 H 495.845 1.78308 -3.36135 0
M  V30 5538 H 495.357 0.0338526 -3.88085 0
M  V30 5539 H 493.458 2.30714 -2.92578 0
M  V30 5540 H 493.571 1.40541 -4.58023 0
M  V30 5541 H 491.935 0.839113 -2.40481 0
M  V30 5542 H 492.718 -0.507173 -3.39533 0
M  V30 5543 N 495.163 1.55791 0.238111 0
M  V30 5544 C 496.111 1.91885 1.31464 0
M  V30 5545 C 497.105 0.798929 1.49377 0
M  V30 5546 O 498.311 0.983626 1.50747 0
M  V30 5547 H 494.686 0.609551 0.440399 0
M  V30 5548 H 496.657 2.81747 0.982925 0
M  V30 5549 C 495.406 2.23763 2.6613 0
M  V30 5550 H 494.729 3.09444 2.53149 0
M  V30 5551 H 496.169 2.52915 3.40309 0
M  V30 5552 C 494.628 1.05699 3.1989 0
M  V30 5553 O 495.158 0.309524 4.00506 0
M  V30 5554 N 493.364 0.845251 2.78036 0
M  V30 5555 H 492.911 1.4548 2.12588 0
M  V30 5556 H 492.869 0.0569973 3.14348 0
M  V30 5557 N 496.642 -0.504142 1.49319 0
M  V30 5558 C 497.589 -1.60603 1.65756 0
M  V30 5559 C 498.559 -1.58425 0.499082 0
M  V30 5560 O 499.744 -1.76459 0.725728 0
M  V30 5561 C 496.884 -2.98764 1.72726 0
M  V30 5562 C 495.997 -3.10982 2.99857 0
M  V30 5563 C 495.132 -4.39857 2.97824 0
M  V30 5564 C 494.171 -4.45697 4.19548 0
M  V30 5565 N 493.308 -5.65995 4.15444 0
M  V30 5566 H 498.148 -1.45895 2.59843 0
M  V30 5567 H 495.685 -0.709891 1.28837 0
M  V30 5568 H 497.643 -3.78839 1.74747 0
M  V30 5569 H 496.273 -3.12183 0.821075 0
M  V30 5570 H 495.325 -2.23991 3.07461 0
M  V30 5571 H 496.637 -3.11157 3.89849 0
M  V30 5572 H 495.791 -5.2825 2.98391 0
M  V30 5573 H 494.53 -4.42242 2.05604 0
M  V30 5574 H 493.535 -3.55707 4.19229 0
M  V30 5575 H 494.76 -4.4503 5.12957 0
M  V30 5576 H 492.706 -5.69229 3.26059 0
M  V30 5577 H 492.623 -5.67773 4.99169 0
M  V30 5578 H 493.891 -6.56604 4.20109 0
M  V30 5579 N 498.12 -1.38341 -0.754957 0
M  V30 5580 C 499.348 -1.37704 -1.54419 0
M  V30 5581 C 499.763 0.0335243 -1.8877 0
M  V30 5582 O 499.12 0.999773 -1.52679 0
M  V30 5583 C 499.171 -2.23136 -2.84416 0
M  V30 5584 O 498.892 -3.58697 -2.51531 0
M  V30 5585 C 500.393 -2.30664 -3.78562 0
M  V30 5586 H 497.613 -0.471061 -0.477852 0
M  V30 5587 H 500.157 -1.81902 -0.934446 0
M  V30 5588 H 498.312 -1.82403 -3.41772 0
M  V30 5589 H 498.726 -4.03665 -3.34896 0
M  V30 5590 H 500.2 -2.9473 -4.66732 0
M  V30 5591 H 500.677 -1.3199 -4.18898 0
M  V30 5592 H 501.283 -2.71781 -3.27131 0
M  V30 5593 N 499.598 0.982988 -1.23187 0
M  V30 5594 C 501.014 1.2487 -0.993967 0
M  V30 5595 C 501.214 1.99155 0.306498 0
M  V30 5596 O 500.27 2.30688 1.0266 0
M  V30 5597 C 501.583 2.05078 -2.19917 0
M  V30 5598 C 503.131 2.18227 -2.2438 0
M  V30 5599 C 503.606 3.01825 -3.44479 0
M  V30 5600 N 505.097 3.09411 -3.44702 0
M  V30 5601 C 505.832 3.74412 -4.34285 0
M  V30 5602 N 505.328 4.41259 -5.341 0
M  V30 5603 N 507.121 3.71273 -4.22035 0
M  V30 5604 H 499.272 0.485253 -2.06783 0
M  V30 5605 H 501.535 0.276979 -0.906635 0
M  V30 5606 H 501.241 1.57867 -3.14279 0
M  V30 5607 H 501.115 3.05829 -2.2079 0
M  V30 5608 H 503.502 2.64648 -1.30559 0
M  V30 5609 H 503.583 1.16873 -2.2754 0
M  V30 5610 H 503.227 2.56102 -4.38605 0
M  V30 5611 H 503.157 4.03342 -3.38559 0
M  V30 5612 H 505.648 2.61845 -2.7248 0
M  V30 5613 H 505.961 4.88629 -5.98717 0
M  V30 5614 H 504.306 4.39975 -5.38002 0
M  V30 5615 H 507.497 3.18217 -3.43301 0
M  V30 5616 H 507.67 4.21649 -4.92053 0
M  V30 5617 N 501.076 1.04316 1.18135 0
M  V30 5618 C 502.324 0.746542 1.87806 0
M  V30 5619 C 502.645 -0.728082 1.80898 0
M  V30 5620 O 501.915 -1.52554 1.22899 0
M  V30 5621 H 500.495 0.273157 0.695265 0
M  V30 5622 H 503.157 1.32044 1.43354 0
M  V30 5623 H 502.253 1.05362 2.93778 0
M  V30 5624 N 502.554 -1.34406 0.822964 0
M  V30 5625 C 503.517 -2.2783 0.250271 0
M  V30 5626 C 504.517 -1.50288 -0.571854 0
M  V30 5627 O 505.707 -1.69825 -0.387952 0
M  V30 5628 C 502.839 -3.34663 -0.649137 0
M  V30 5629 H 504.032 -2.79992 1.07444 0
M  V30 5630 H 501.585 -1.44539 0.594829 0
M  V30 5631 H 502.32 -2.87714 -1.49637 0
M  V30 5632 H 502.105 -3.92052 -0.0611199 0
M  V30 5633 H 503.595 -4.04349 -1.04363 0
M  V30 5634 N 504.032 -0.577932 -1.46621 0
M  V30 5635 C 505.443 -0.150071 -1.86096 0
M  V30 5636 C 505.794 1.28563 -1.48209 0
M  V30 5637 O 504.919 1.97036 -0.894754 0
M  V30 5638 C 505.514 -0.265576 -3.37758 0
M  V30 5639 C 504.073 0.10738 -3.76247 0
M  V30 5640 C 503.22 -0.603711 -2.70649 0
M  V30 5641 H 506.171 -0.786438 -1.37844 0
M  V30 5642 H 506.192 0.510352 -3.77062 0
M  V30 5643 H 505.704 -1.3106 -3.65301 0
M  V30 5644 H 503.805 1.15272 -3.54321 0
M  V30 5645 H 503.918 -0.26561 -4.78363 0
M  V30 5646 H 502.282 -0.0444884 -2.54661 0
M  V30 5647 H 503.065 -1.65029 -3.01032 0
M  V30 5648 N 505.51 1.54411 -0.315457 0
M  V30 5649 C 506.42 2.27737 0.56329 0
M  V30 5650 C 507.436 1.31787 1.13614 0
M  V30 5651 O 508.612 1.64791 1.15784 0
M  V30 5652 C 505.677 3.01478 1.71207 0
M  V30 5653 C 504.738 4.12997 1.17185 0
M  V30 5654 C 503.971 4.83212 2.26588 0
M  V30 5655 O 504.194 4.52884 3.46775 0
M  V30 5656 O 503.128 5.70299 1.92463 0
M  V30 5657 H 506.954 3.03683 -0.0319614 0
M  V30 5658 H 504.539 1.49178 -0.0814188 0
M  V30 5659 H 506.421 3.47683 2.38106 0
M  V30 5660 H 505.096 2.28414 2.29366 0
M  V30 5661 H 504.003 3.71159 0.468174 0
M  V30 5662 H 505.336 4.8808 0.635501 0
M  V30 5663 N 506.988 0.0434614 1.5754 0
M  V30 5664 C 507.951 -0.918696 2.09982 0
M  V30 5665 C 508.951 -1.24488 1.01781 0
M  V30 5666 O 510.141 -1.18284 1.27885 0
M  V30 5667 C 507.273 -2.23093 2.57764 0
M  V30 5668 H 508.466 -0.464229 2.96285 0
M  V30 5669 H 506.019 -0.204818 1.54952 0
M  V30 5670 H 506.754 -2.73137 1.74832 0
M  V30 5671 H 506.539 -2.00724 3.36827 0
M  V30 5672 H 508.029 -2.92028 2.98512 0
M  V30 5673 N 508.466 -1.55915 -0.229846 0
M  V30 5674 C 509.396 -1.94754 -1.28815 0
M  V30 5675 C 510.377 -0.814657 -1.49323 0
M  V30 5676 O 511.562 -1.07631 -1.61645 0
M  V30 5677 C 508.692 -2.25705 -2.63959 0
M  V30 5678 C 507.646 -3.41406 -2.5812 0
M  V30 5679 C 506.972 -3.57941 -3.97218 0
M  V30 5680 C 508.272 -4.76616 -2.13623 0
M  V30 5681 H 509.966 -2.83404 -0.965547 0
M  V30 5682 H 507.512 -1.36353 -0.463028 0
M  V30 5683 H 509.465 -2.51467 -3.38146 0
M  V30 5684 H 508.189 -1.339 -2.9789 0
M  V30 5685 H 506.848 -3.1568 -1.86391 0
M  V30 5686 H 506.496 -2.63526 -4.28443 0
M  V30 5687 H 506.196 -4.35757 -3.94195 0
M  V30 5688 H 507.72 -3.86042 -4.73079 0
M  V30 5689 H 509.134 -5.01637 -2.77549 0
M  V30 5690 H 507.531 -5.57655 -2.21677 0
M  V30 5691 H 508.601 -4.7253 -1.08829 0
M  V30 5692 N 509.944 0.496216 -1.49584 0
M  V30 5693 C 510.877 1.61508 -1.61215 0
M  V30 5694 C 511.855 1.55927 -0.461045 0
M  V30 5695 O 513.039 1.75914 -0.677231 0
M  V30 5696 C 510.166 3.00035 -1.57152 0
M  V30 5697 C 509.212 3.23861 -2.77518 0
M  V30 5698 S 510.045 3.06466 -4.39134 0
M  V30 5699 C 511.201 4.4738 -4.37724 0
M  V30 5700 H 511.434 1.51398 -2.55863 0
M  V30 5701 H 508.967 0.681727 -1.38535 0
M  V30 5702 H 510.925 3.7991 -1.55494 0
M  V30 5703 H 509.586 3.07556 -0.637834 0
M  V30 5704 H 508.779 4.25 -2.70908 0
M  V30 5705 H 508.381 2.51716 -2.76614 0
M  V30 5706 H 510.673 5.39556 -4.09738 0
M  V30 5707 H 511.616 4.59038 -5.39156 0
M  V30 5708 H 512.024 4.28283 -3.67742 0
M  V30 5709 N 511.423 1.38739 0.74761 0
M  V30 5710 C 512.386 1.36241 1.84312 0
M  V30 5711 C 513.386 0.261811 1.58654 0
M  V30 5712 O 514.576 0.519031 1.66288 0
M  V30 5713 C 511.708 1.12253 3.21888 0
M  V30 5714 H 512.901 2.33712 1.87933 0
M  V30 5715 H 510.454 1.2412 0.949946 0
M  V30 5716 H 511.189 0.154133 3.23934 0
M  V30 5717 H 510.974 1.91943 3.41907 0
M  V30 5718 H 512.464 1.13215 4.0196 0
M  V30 5719 N 512.901 -0.976442 1.23707 0
M  V30 5720 C 513.849 -2.09078 1.01927 0
M  V30 5721 C 514.843 -1.69345 -0.0430193 0
M  V30 5722 O 516.049 -1.79659 0.110814 0
M  V30 5723 H 512.424 -0.68398 0.312531 0
M  V30 5724 H 514.395 -2.24614 1.96447 0
M  V30 5725 C 513.144 -3.41919 0.631385 0
M  V30 5726 H 512.467 -3.72946 1.44053 0
M  V30 5727 H 513.907 -4.20817 0.518532 0
M  V30 5728 C 512.366 -3.30357 -0.660723 0
M  V30 5729 O 512.896 -3.63542 -1.70881 0
M  V30 5730 N 511.102 -2.83507 -0.638139 0
M  V30 5731 H 510.649 -2.567 0.215108 0
M  V30 5732 H 510.607 -2.76153 -1.50289 0
M  V30 5733 N 514.379 -1.04941 -1.1758 0
M  V30 5734 C 515.604 -0.778253 -1.92245 0
M  V30 5735 C 516.029 0.659707 -1.76152 0
M  V30 5736 O 515.387 1.45803 -1.07755 0
M  V30 5737 C 515.435 -1.16051 -3.41416 0
M  V30 5738 O 514.539 -0.291153 -4.11371 0
M  V30 5739 H 513.88 -0.285619 -0.599431 0
M  V30 5740 H 516.41 -1.40159 -1.49052 0
M  V30 5741 H 516.42 -1.12619 -3.92149 0
M  V30 5742 H 515.095 -2.208 -3.52449 0
M  V30 5743 H 513.672 -0.385851 -3.70898 0
M  V30 5744 N 515.857 1.33968 -0.830081 0
M  V30 5745 C 517.105 1.97672 -0.420734 0
M  V30 5746 C 517.426 1.66111 1.02138 0
M  V30 5747 O 516.696 0.955503 1.71017 0
M  V30 5748 H 515.276 0.73125 -0.152587 0
M  V30 5749 H 517.938 1.63483 -1.0611 0
M  V30 5750 H 517.034 3.07294 -0.545588 0
M  V30 5751 N 517.335 0.585699 1.46312 0
M  V30 5752 C 518.245 -0.148236 2.34131 0
M  V30 5753 C 519.261 -0.882972 1.49932 0
M  V30 5754 O 520.437 -0.845484 1.82794 0
M  V30 5755 C 517.502 -1.14714 3.27172 0
M  V30 5756 C 516.563 -0.416746 4.27272 0
M  V30 5757 C 515.796 -1.36806 5.15868 0
M  V30 5758 O 516.019 -2.60475 5.07454 0
M  V30 5759 O 514.953 -0.877018 5.95476 0
M  V30 5760 H 518.779 0.572882 2.98248 0
M  V30 5761 H 516.364 0.346082 1.45336 0
M  V30 5762 H 518.246 -1.72303 3.84564 0
M  V30 5763 H 516.921 -1.84967 2.65648 0
M  V30 5764 H 515.828 0.201061 3.73559 0
M  V30 5765 H 517.161 0.244872 4.9159 0
M  V30 5766 N 518.813 -1.54241 0.323641 0
M  V30 5767 C 520.224 -1.85975 -0.164405 0
M  V30 5768 C 520.575 -1.24529 -1.51615 0
M  V30 5769 O 519.7 -0.551351 -2.09258 0
M  V30 5770 C 520.295 -3.37424 -0.305091 0
M  V30 5771 C 518.854 -3.69107 -0.737358 0
M  V30 5772 C 518.001 -2.76942 0.140884 0
M  V30 5773 H 520.952 -1.49088 0.543922 0
M  V30 5774 H 520.973 -3.63147 -1.13598 0
M  V30 5775 H 520.485 -3.82116 0.678876 0
M  V30 5776 H 518.586 -3.29947 -1.73107 0
M  V30 5777 H 518.699 -4.76035 -0.541053 0
M  V30 5778 H 517.063 -2.51795 -0.383572 0
M  V30 5779 H 517.846 -3.24461 1.12162 0
M  V30 5780 N 520.291 -0.0518155 -1.57515 0
M  V30 5781 C 521.537 0.616839 -1.93821 0
M  V30 5782 C 521.892 1.68413 -0.930307 0
M  V30 5783 O 521.185 1.91534 0.0504231 0
M  V30 5784 C 521.379 1.25607 -3.34601 0
M  V30 5785 C 521.208 0.252222 -4.48992 0
M  V30 5786 C 519.978 -0.156031 -5.05059 0
M  V30 5787 C 522.176 -0.502613 -5.11838 0
M  V30 5788 N 520.158 -1.15267 -6.02981 0
M  V30 5789 C 521.529 -1.35232 -6.05072 0
M  V30 5790 C 523.584 -0.560855 -4.94731 0
M  V30 5791 C 522.287 -2.25505 -6.83037 0
M  V30 5792 C 524.313 -1.45102 -5.73323 0
M  V30 5793 C 523.675 -2.28845 -6.6619 0
M  V30 5794 H 519.774 0.197344 -0.75669 0
M  V30 5795 H 522.358 -0.124297 -1.94303 0
M  V30 5796 H 520.529 1.96723 -3.34895 0
M  V30 5797 H 522.261 1.88358 -3.58195 0
M  V30 5798 H 519.016 0.22306 -4.73074 0
M  V30 5799 H 519.44 -1.64791 -6.56638 0
M  V30 5800 H 524.082 0.0723639 -4.22738 0
M  V30 5801 H 521.8 -2.89872 -7.54321 0
M  V30 5802 H 525.386 -1.50066 -5.62113 0
M  V30 5803 H 524.266 -2.96608 -7.25943 0
M  V30 5804 N 521.769 1.56035 0.221574 0
M  V30 5805 C 522.994 1.83476 0.967026 0
M  V30 5806 C 523.419 0.632139 1.7716 0
M  V30 5807 O 522.777 -0.419082 1.7639 0
M  V30 5808 C 522.825 3.08907 1.86034 0
M  V30 5809 O 521.929 2.876 2.95567 0
M  V30 5810 H 521.27 0.604913 0.273817 0
M  V30 5811 H 523.8 2.03247 0.234893 0
M  V30 5812 H 523.81 3.3901 2.27016 0
M  V30 5813 H 522.485 3.96068 1.26898 0
M  V30 5814 H 521.062 2.6873 2.58532 0
M  V30 5815 N 523.247 -0.488276 1.49845 0
M  V30 5816 C 524.658 -1.06955 1.53028 0
M  V30 5817 C 525.009 -1.9351 0.323797 0
M  V30 5818 O 524.134 -2.08891 -0.565116 0
M  V30 5819 C 524.729 -1.94643 2.77307 0
M  V30 5820 C 523.288 -2.4791 2.83227 0
M  V30 5821 C 522.435 -1.25833 2.47106 0
M  V30 5822 H 525.386 -0.271626 1.56358 0
M  V30 5823 H 525.407 -2.79496 2.5819 0
M  V30 5824 H 524.919 -1.31621 3.65099 0
M  V30 5825 H 523.02 -3.14535 1.99745 0
M  V30 5826 H 523.133 -2.84193 3.85709 0
M  V30 5827 H 521.497 -1.58764 1.99163 0
M  V30 5828 H 522.28 -0.644993 3.37186 0
M  V30 5829 N 524.725 -1.39134 -0.740242 0
M  V30 5830 C 525.95 -1.39518 -1.53459 0
M  V30 5831 C 526.375 0.00968883 -1.88098 0
M  V30 5832 O 525.733 0.995312 -1.51536 0
M  V30 5833 C 525.781 -2.26981 -2.802 0
M  V30 5834 O 524.885 -1.69609 -3.75908 0
M  V30 5835 H 524.226 -0.475328 -0.463637 0
M  V30 5836 H 526.756 -1.83064 -0.913717 0
M  V30 5837 H 526.766 -2.41309 -3.28989 0
M  V30 5838 H 525.441 -3.29081 -2.5432 0
M  V30 5839 H 524.018 -1.64495 -3.34658 0
M  V30 5840 N 526.204 0.969867 -1.24223 0
M  V30 5841 C 527.434 1.74502 -1.106 0
M  V30 5842 C 527.842 1.86038 0.344483 0
M  V30 5843 O 527.185 1.3465 1.24961 0
M  V30 5844 C 527.247 3.18391 -1.66935 0
M  V30 5845 C 526.911 3.30334 -3.15798 0
M  V30 5846 C 527.908 3.15832 -4.12973 0
M  V30 5847 C 525.593 3.54644 -3.55715 0
M  V30 5848 C 527.587 3.25461 -5.48045 0
M  V30 5849 C 525.274 3.63912 -4.90929 0
M  V30 5850 C 526.272 3.49332 -5.86904 0
M  V30 5851 O 525.96 3.58251 -7.1966 0
M  V30 5852 H 525.692 0.554119 -0.387206 0
M  V30 5853 H 528.246 1.22646 -1.64764 0
M  V30 5854 H 526.476 3.71543 -1.07203 0
M  V30 5855 H 528.165 3.77707 -1.48634 0
M  V30 5856 H 528.931 2.96937 -3.83476 0
M  V30 5857 H 524.81 3.65059 -2.81519 0
M  V30 5858 H 528.354 3.13998 -6.22937 0
M  V30 5859 H 524.251 3.82319 -5.20098 0
M  V30 5860 H 525.019 3.7498 -7.27552 0
M  V30 5861 N 527.682 1.05563 1.17022 0
M  V30 5862 C 528.612 0.681026 2.23348 0
M  V30 5863 C 529.593 -0.322983 1.67005 0
M  V30 5864 O 530.778 -0.199746 1.9317 0
M  V30 5865 C 527.908 0.0589053 3.4725 0
M  V30 5866 C 526.862 0.988082 4.16438 0
M  V30 5867 C 526.188 0.229646 5.34207 0
M  V30 5868 C 527.488 2.31388 4.68249 0
M  V30 5869 H 529.182 1.56993 2.54938 0
M  V30 5870 H 526.728 0.756302 1.2254 0
M  V30 5871 H 528.681 -0.214982 4.20851 0
M  V30 5872 H 527.405 -0.864968 3.14938 0
M  V30 5873 H 526.064 1.24659 3.44754 0
M  V30 5874 H 525.712 -0.697111 4.98146 0
M  V30 5875 H 525.412 0.848815 5.81437 0
M  V30 5876 H 526.936 -0.0368694 6.10589 0
M  V30 5877 H 528.35 2.09964 5.33468 0
M  V30 5878 H 526.747 2.88736 5.26072 0
M  V30 5879 H 527.817 2.94982 3.84855 0
M  V30 5880 N 529.16 -1.33526 0.837174 0
M  V30 5881 C 530.408 -1.97446 0.431211 0
M  V30 5882 C 530.729 -1.6665 -1.01255 0
M  V30 5883 O 529.999 -0.964559 -1.70508 0
M  V30 5884 H 528.579 -0.73043 0.156463 0
M  V30 5885 H 531.241 -1.62918 1.06976 0
M  V30 5886 H 530.337 -3.07001 0.561877 0
M  V30 5887 N 530.638 -0.59345 -1.46 0
M  V30 5888 C 532.049 -0.169801 -1.85926 0
M  V30 5889 C 532.4 1.26984 -1.49565 0
M  V30 5890 O 531.525 1.96076 -0.915602 0
M  V30 5891 C 532.12 -0.301385 -3.37457 0
M  V30 5892 C 530.679 0.0674684 -3.7634 0
M  V30 5893 C 529.826 -0.632383 -2.69993 0
M  V30 5894 H 532.777 -0.801014 -1.37002 0
M  V30 5895 H 532.798 0.470331 -3.77582 0
M  V30 5896 H 532.31 -1.34927 -3.63891 0
M  V30 5897 H 530.411 1.11507 -3.55523 0
M  V30 5898 H 530.524 -0.316332 -4.78055 0
M  V30 5899 H 528.888 -0.0714961 -2.546 0
M  V30 5900 H 529.671 -1.68212 -2.99265 0
M  V30 5901 N 532.116 1.54067 -0.331816 0
M  V30 5902 C 533.344 2.05131 0.269996 0
M  V30 5903 C 533.759 1.20749 1.45138 0
M  V30 5904 O 533.116 0.240069 1.80914 0
M  V30 5905 C 533.167 3.54728 0.696456 0
M  V30 5906 O 532.888 4.35906 -0.43794 0
M  V30 5907 C 534.389 4.21916 1.36021 0
M  V30 5908 H 531.609 0.668807 0.0542042 0
M  V30 5909 H 534.153 1.98777 -0.4804 0
M  V30 5910 H 532.308 3.61342 1.39681 0
M  V30 5911 H 532.722 5.24404 -0.100334 0
M  V30 5912 H 534.196 5.28015 1.60947 0
M  V30 5913 H 534.673 3.73538 2.31011 0
M  V30 5914 H 535.279 4.19463 0.702212 0
M  V30 5915 N 533.594 0.0601682 1.57485 0
M  V30 5916 C 534.819 -0.624416 1.97777 0
M  V30 5917 C 535.244 -1.63051 0.937867 0
M  V30 5918 O 534.602 -1.81036 -0.0978845 0
M  V30 5919 C 534.65 -1.27979 3.37126 0
M  V30 5920 O 533.754 -2.39556 3.35688 0
M  V30 5921 H 533.095 -0.161581 0.64404 0
M  V30 5922 H 535.625 0.131237 2.04179 0
M  V30 5923 H 535.635 -1.62937 3.74053 0
M  V30 5924 H 534.31 -0.542501 4.12347 0
M  V30 5925 H 532.887 -2.06478 3.10517 0
M  V30 5926 N 535.072 -1.5615 -0.213296 0
M  V30 5927 C 536.483 -1.69645 -0.779582 0
M  V30 5928 C 536.834 -0.663615 -1.84636 0
M  V30 5929 O 535.959 0.183633 -2.15619 0
M  V30 5930 C 536.554 -3.07567 -1.42084 0
M  V30 5931 C 535.113 -3.22889 -1.93442 0
M  V30 5932 C 534.26 -2.65581 -0.797612 0
M  V30 5933 H 537.211 -1.58696 0.0114951 0
M  V30 5934 H 537.232 -3.03884 -2.28986 0
M  V30 5935 H 536.744 -3.82716 -0.644187 0
M  V30 5936 H 534.845 -2.52623 -2.73884 0
M  V30 5937 H 534.958 -4.30197 -2.10872 0
M  V30 5938 H 533.322 -2.24278 -1.20712 0
M  V30 5939 H 534.105 -3.43284 -0.033494 0
M  V30 5940 O 536.589 0.35868 -1.57467 0
M  V30 5941 H 537.28 1.00907 -1.6534 0
M  V30 END ATOM
M  V30 BEGIN BOND
M  V30 END BOND
M  V30 END CTAB
M  END
$$$$
