drugbank_target|Q8TDV5 Glucose-dependent insulinotropic receptor (DB05166)
 OpenBabel12092120313D

  0  0  0     0  0            999 V3000
M  V30 BEGIN CTAB
M  V30 COUNTS 5274 5337 0 0 0
M  V30 BEGIN ATOM
M  V30 1 H -0.908 1.98254 -0.117106 0
M  V30 2 N 0 1.576 0 0
M  V30 3 C 0.933 2.03868 1.02534 0
M  V30 4 C 1.911 0.928543 1.3348 0
M  V30 5 O 3.095 1.19667 1.45644 0
M  V30 6 C 0.222 2.43627 2.35294 0
M  V30 7 C -0.732 3.65373 2.2001 0
M  V30 8 S 0.101 5.13292 1.52614 0
M  V30 9 C 1.257 5.56322 2.86805 0
M  V30 10 H 1.49 2.90518 0.631377 0
M  V30 11 H -0.977 1.52953 0.210867 0
M  V30 12 H 0.981 2.67203 3.11629 0
M  V30 13 H -0.358 1.57376 2.7183 0
M  V30 14 H -1.165 3.90944 3.18086 0
M  V30 15 H -1.563 3.418 1.51819 0
M  V30 16 H 0.729 5.58782 3.83104 0
M  V30 17 H 1.672 6.56266 2.65933 0
M  V30 18 H 2.08 4.83886 2.90714 0
M  V30 19 N 1.4781 -0.272755 1.55222 0
M  V30 20 C 2.3881 -1.35918 1.91216 0
M  V30 21 C 3.4041 -1.54026 0.809436 0
M  V30 22 O 4.5801 -1.68148 1.10852 0
M  V30 23 C 1.6451 -2.69834 2.17693 0
M  V30 24 C 0.7061 -2.6047 3.41253 0
M  V30 25 C -0.0609 -3.88 3.66458 0
M  V30 26 O 0.1621 -4.88693 2.94169 0
M  V30 27 O -0.9039 -3.88189 4.59992 0
M  V30 28 H 2.9221 -1.0839 2.83699 0
M  V30 29 H 0.5071 -0.471301 1.41771 0
M  V30 30 H 2.3891 -3.49017 2.36147 0
M  V30 31 H 1.0641 -2.97148 1.28392 0
M  V30 32 H -0.0289 -1.79663 3.28134 0
M  V30 33 H 1.3041 -2.38106 4.30774 0
M  V30 34 N 2.9562 -1.48159 -0.537278 0
M  V30 35 C 4.1812 -1.59707 -1.32319 0
M  V30 36 C 4.6062 -0.254859 -1.86365 0
M  V30 37 O 3.9642 0.772378 -1.64024 0
M  V30 38 C 4.0122 -2.6412 -2.45505 0
M  V30 39 O 3.1162 -2.20774 -3.48328 0
M  V30 40 H 2.4572 -0.535791 -0.392204 0
M  V30 41 H 4.9872 -1.94092 -0.647268 0
M  V30 42 H 4.9972 -2.85166 -2.91795 0
M  V30 43 H 3.6722 -3.61567 -2.05528 0
M  V30 44 H 2.2492 -2.09911 -3.08207 0
M  V30 45 N 4.4343 0.785586 -1.36625 0
M  V30 46 C 5.6593 1.57963 -1.34397 0
M  V30 47 C 6.0843 1.87964 0.071526 0
M  V30 48 O 5.4423 1.48182 1.0446 0
M  V30 49 C 5.4903 2.87511 -2.17646 0
M  V30 50 O 4.5943 3.81281 -1.57158 0
M  V30 51 H 3.9353 0.479014 -0.459828 0
M  V30 52 H 6.4653 0.973411 -1.79961 0
M  V30 53 H 6.4753 3.36745 -2.30362 0
M  V30 54 H 5.1503 2.65002 -3.20541 0
M  V30 55 H 3.7273 3.39885 -1.53403 0
M  V30 56 N 5.9124 1.20967 1.01018 0
M  V30 57 C 7.1594 1.02374 1.74716 0
M  V30 58 C 7.4874 -0.443375 1.89379 0
M  V30 59 O 6.7424 -1.34535 1.42123 0
M  V30 60 C 7.0414 1.65997 3.16512 0
M  V30 61 C 6.7074 3.15831 3.2181 0
M  V30 62 C 5.3694 3.56719 3.22963 0
M  V30 63 C 7.7214 4.11816 3.19464 0
M  V30 64 C 5.0494 4.92107 3.19449 0
M  V30 65 C 7.4014 5.47158 3.17491 0
M  V30 66 C 6.0654 5.87451 3.16951 0
M  V30 67 H 5.3354 0.374614 0.639332 0
M  V30 68 H 7.9824 1.50485 1.18434 0
M  V30 69 H 6.2874 1.10166 3.75993 0
M  V30 70 H 7.9844 1.49119 3.72242 0
M  V30 71 H 4.5744 2.83263 3.21652 0
M  V30 72 H 8.7584 3.81257 3.17737 0
M  V30 73 H 4.0144 5.22579 3.17366 0
M  V30 74 H 8.1884 6.21274 3.14629 0
M  V30 75 H 5.8154 6.92329 3.13983 0
M  V30 76 N 7.3905 -1.2043 1.01659 0
M  V30 77 C 8.6155 -1.94318 0.724942 0
M  V30 78 C 9.0405 -1.74266 -0.708034 0
M  V30 79 O 8.3985 -1.03694 -1.48719 0
M  V30 80 C 8.4465 -3.44486 1.06591 0
M  V30 81 O 7.5505 -4.12017 0.177599 0
M  V30 82 H 6.8915 -0.60708 0.26898 0
M  V30 83 H 9.4215 -1.52861 1.35995 0
M  V30 84 H 9.4315 -3.95106 1.01762 0
M  V30 85 H 8.1065 -3.58404 2.10997 0
M  V30 86 H 6.6835 -3.71821 0.283421 0
M  V30 87 N 8.8686 -0.792821 -1.36206 0
M  V30 88 C 10.1156 -0.366786 -1.99151 0
M  V30 89 C 10.4436 1.06243 -1.62919 0
M  V30 90 O 9.6986 1.74927 -0.877442 0
M  V30 91 C 9.9976 -0.481501 -3.54142 0
M  V30 92 C 9.6636 -1.87202 -4.10203 0
M  V30 93 C 8.3256 -2.25248 -4.25226 0
M  V30 94 C 10.6776 -2.78237 -4.40719 0
M  V30 95 C 8.0056 -3.53723 -4.68078 0
M  V30 96 C 10.3576 -4.06144 -4.85005 0
M  V30 97 C 9.0216 -4.44207 -4.98234 0
M  V30 98 H 8.2916 -0.134217 -0.728743 0
M  V30 99 H 10.9386 -1.01094 -1.62641 0
M  V30 100 H 9.2436 0.246146 -3.91026 0
M  V30 101 H 10.9406 -0.132844 -4.0078 0
M  V30 102 H 7.5306 -1.56639 -3.98951 0
M  V30 103 H 11.7146 -2.50097 -4.28679 0
M  V30 104 H 6.9706 -3.8308 -4.76508 0
M  V30 105 H 11.1446 -4.76796 -5.07581 0
M  V30 106 H 8.7716 -5.43814 -5.31197 0
M  V30 107 N 10.3467 1.47872 -0.545128 0
M  V30 108 C 11.5947 2.02093 -0.016553 0
M  V30 109 C 11.9157 1.42305 1.3332 0
M  V30 110 O 11.1857 0.593853 1.86682 0
M  V30 111 H 9.7657 0.746993 -0.00313038 0
M  V30 112 H 12.4277 1.81414 -0.712397 0
M  V30 113 H 11.5237 3.11996 0.0805422 0
M  V30 114 N 11.8248 0.280983 1.55075 0
M  V30 115 C 13.0708 -0.33461 2.00021 0
M  V30 116 C 13.4038 -1.55063 1.16915 0
M  V30 117 O 12.6788 -1.93006 0.240646 0
M  V30 118 C 12.9618 -0.711007 3.53011 0
M  V30 119 C 12.8148 0.512766 4.46868 0
M  V30 120 C 14.1338 -1.54522 4.12081 0
M  V30 121 H 11.2528 -0.120147 0.727141 0
M  V30 122 H 13.8948 0.389097 1.85973 0
M  V30 123 H 12.0448 -1.32761 3.65112 0
M  V30 124 H 13.7168 1.15131 4.46702 0
M  V30 125 H 11.9598 1.14975 4.18286 0
M  V30 126 H 12.6308 0.205556 5.51617 0
M  V30 127 H 15.1068 -1.02442 4.03293 0
M  V30 128 H 13.9828 -1.77739 5.19327 0
M  V30 129 H 14.2438 -2.52813 3.62682 0
M  V30 130 N 13.3029 -1.57598 0.00835791 0
M  V30 131 C 14.5519 -1.90107 -0.673968 0
M  V30 132 C 14.8649 -0.884275 -1.7447 0
M  V30 133 O 16.0709 -1.09987 -2.48224 0
M  V30 134 C 14.5269 -3.37497 -1.24995 0
M  V30 135 C 14.1349 -4.47491 -0.2136 0
M  V30 136 C 15.8789 -3.79104 -1.90999 0
M  V30 137 C 13.7859 -5.85963 -0.80005 0
M  V30 138 H 12.7159 -0.709393 -0.255495 0
M  V30 139 H 15.3669 -1.83365 0.0702693 0
M  V30 140 H 13.7489 -3.39102 -2.04513 0
M  V30 141 H 14.9229 -4.57414 0.557596 0
M  V30 142 H 13.2379 -4.14956 0.346474 0
M  V30 143 H 15.8349 -4.79901 -2.35795 0
M  V30 144 H 16.1779 -3.1306 -2.74407 0
M  V30 145 H 16.7109 -3.79833 -1.18203 0
M  V30 146 H 13.4499 -6.555 -0.00456708 0
M  V30 147 H 12.9699 -5.79687 -1.54021 0
M  V30 148 H 14.6489 -6.33884 -1.29615 0
M  V30 149 N 14.781 0.264519 -1.55364 0
M  V30 150 C 15.711 1.33121 -1.91836 0
M  V30 151 C 16.692 1.51101 -0.781192 0
M  V30 152 O 17.877 1.64003 -1.04003 0
M  V30 153 C 15.007 2.68921 -2.19769 0
M  V30 154 C 13.961 2.65661 -3.35571 0
M  V30 155 C 13.287 4.05093 -3.49004 0
M  V30 156 C 14.587 2.24187 -4.71739 0
M  V30 157 H 16.281 1.02844 -2.81182 0
M  V30 158 H 13.827 0.493286 -1.35287 0
M  V30 159 H 15.78 3.43663 -2.43872 0
M  V30 160 H 14.504 3.00799 -1.27231 0
M  V30 161 H 13.163 1.93377 -3.1145 0
M  V30 162 H 12.811 4.34206 -2.53917 0
M  V30 163 H 12.511 4.03804 -4.26868 0
M  V30 164 H 14.035 4.81561 -3.75408 0
M  V30 165 H 15.449 2.88654 -4.9533 0
M  V30 166 H 13.846 2.34044 -5.52579 0
M  V30 167 H 14.916 1.19327 -4.69988 0
M  V30 168 N 16.2591 1.48442 0.529413 0
M  V30 169 C 17.2221 1.62524 1.61612 0
M  V30 170 C 18.2221 0.498509 1.52877 0
M  V30 171 O 19.4121 0.76431 1.56537 0
M  V30 172 C 16.5441 1.59597 3.01233 0
M  V30 173 H 17.7371 2.59423 1.50465 0
M  V30 174 H 15.2901 1.37047 0.751514 0
M  V30 175 H 16.0251 0.641781 3.17886 0
M  V30 176 H 15.8101 2.41397 3.08982 0
M  V30 177 H 17.3001 1.72646 3.80241 0
M  V30 178 N 17.7372 -0.778329 1.37039 0
M  V30 179 C 18.9832 -1.53892 1.32079 0
M  V30 180 C 19.3162 -1.9396 -0.0965386 0
M  V30 181 O 18.5912 -1.63568 -1.05242 0
M  V30 182 C 18.8742 -2.80847 2.25382 0
M  V30 183 C 18.7272 -2.47076 3.75864 0
M  V30 184 C 20.0462 -3.82741 2.1725 0
M  V30 185 H 17.1652 -0.558303 0.48111 0
M  V30 186 H 19.8072 -0.893397 1.67685 0
M  V30 187 H 17.9572 -3.35931 1.95148 0
M  V30 188 H 19.6292 -1.97957 4.16666 0
M  V30 189 H 17.8722 -1.79863 3.94755 0
M  V30 190 H 18.5432 -3.37798 4.36574 0
M  V30 191 H 21.0192 -3.37133 2.43887 0
M  V30 192 H 19.8952 -4.69303 2.84686 0
M  V30 193 H 20.1562 -4.2652 1.16331 0
M  V30 194 N 19.2153 -1.21501 -1.00376 0
M  V30 195 C 20.1453 -0.999478 -2.11028 0
M  V30 196 C 21.1263 0.0759671 -1.6993 0
M  V30 197 O 22.3113 -0.0841106 -1.94018 0
M  V30 198 C 19.4413 -0.564709 -3.42678 0
M  V30 199 C 18.3953 -1.58486 -3.97576 0
M  V30 200 C 17.7213 -1.00628 -5.25146 0
M  V30 201 C 19.0213 -2.97204 -4.29496 0
M  V30 202 H 20.7153 -1.92495 -2.29317 0
M  V30 203 H 18.2613 -0.92693 -1.102 0
M  V30 204 H 20.2143 -0.401091 -4.19487 0
M  V30 205 H 18.9383 0.396411 -3.24185 0
M  V30 206 H 17.5973 -1.73606 -3.22888 0
M  V30 207 H 17.2453 -0.0368439 -5.02987 0
M  V30 208 H 16.9453 -1.68771 -5.62841 0
M  V30 209 H 18.4693 -0.854015 -6.04598 0
M  V30 210 H 19.8833 -2.8552 -4.97143 0
M  V30 211 H 18.2803 -3.62372 -4.78338 0
M  V30 212 H 19.3503 -3.47956 -3.3772 0
M  V30 213 N 20.6934 1.19889 -1.02296 0
M  V30 214 C 21.6564 2.21116 -0.603351 0
M  V30 215 C 22.6564 1.5738 0.329884 0
M  V30 216 O 23.8464 1.73802 0.117702 0
M  V30 217 C 20.9784 3.40696 0.117992 0
M  V30 218 H 22.1714 2.59754 -1.49893 0
M  V30 219 H 19.7244 1.33463 -0.813468 0
M  V30 220 H 20.4594 3.07569 1.0282 0
M  V30 221 H 20.2444 3.88188 -0.552511 0
M  V30 222 H 21.7344 4.15692 0.398696 0
M  V30 223 N 22.1715 0.800033 1.35784 0
M  V30 224 C 23.3965 0.388511 2.03729 0
M  V30 225 C 23.8215 -0.990481 1.5991 0
M  V30 226 O 23.1795 -1.64013 0.772612 0
M  V30 227 C 23.2275 0.4726 3.5749 0
M  V30 228 O 22.3315 -0.51646 4.09153 0
M  V30 229 H 21.6725 0.163271 0.643614 0
M  V30 230 H 24.2025 1.0841 1.73518 0
M  V30 231 H 24.2125 0.34003 4.06581 0
M  V30 232 H 22.8875 1.47848 3.88734 0
M  V30 233 H 21.4645 -0.344673 3.71304 0
M  V30 234 N 23.6496 -1.47581 0.552962 0
M  V30 235 C 24.5796 -2.32762 -0.185451 0
M  V30 236 C 25.5606 -1.43527 -0.912905 0
M  V30 237 O 26.7456 -1.72388 -0.894201 0
M  V30 238 C 23.8756 -3.25219 -1.21859 0
M  V30 239 C 22.8296 -4.23661 -0.607864 0
M  V30 240 C 22.1556 -5.05413 -1.74533 0
M  V30 241 C 23.4556 -5.20481 0.435582 0
M  V30 242 H 25.1496 -2.94749 0.525684 0
M  V30 243 H 22.6956 -1.41738 0.254251 0
M  V30 244 H 24.6486 -3.8365 -1.7433 0
M  V30 245 H 23.3726 -2.61279 -1.95961 0
M  V30 246 H 22.0316 -3.66451 -0.104489 0
M  V30 247 H 21.6796 -4.3788 -2.47529 0
M  V30 248 H 21.3796 -5.72059 -1.34249 0
M  V30 249 H 22.9036 -5.66701 -2.27338 0
M  V30 250 H 24.3176 -5.733 -0.00290157 0
M  V30 251 H 22.7146 -5.95305 0.757067 0
M  V30 252 H 23.7846 -4.66217 1.33303 0
M  V30 253 N 25.1277 -0.289203 -1.54924 0
M  V30 254 C 26.3767 0.324231 -1.99077 0
M  V30 255 C 26.6897 1.5591 -1.18117 0
M  V30 256 O 27.8957 2.24637 -1.52481 0
M  V30 257 C 26.3517 0.628209 -3.54375 0
M  V30 258 C 25.9597 -0.587647 -4.44129 0
M  V30 259 C 27.7037 1.20349 -4.07083 0
M  V30 260 C 25.6107 -0.257475 -5.90839 0
M  V30 261 H 24.5407 0.124924 -0.743579 0
M  V30 262 H 27.1917 -0.396063 -1.79175 0
M  V30 263 H 25.5737 1.40778 -3.70132 0
M  V30 264 H 26.7477 -1.36418 -4.40144 0
M  V30 265 H 25.0627 -1.08074 -4.0213 0
M  V30 266 H 27.6597 1.46456 -5.14252 0
M  V30 267 H 28.0027 2.14195 -3.56968 0
M  V30 268 H 28.5357 0.485889 -3.94821 0
M  V30 269 H 25.2747 -1.16419 -6.45079 0
M  V30 270 H 24.7947 0.482018 -5.9786 0
M  V30 271 H 26.4737 0.145238 -6.46837 0
M  V30 272 N 26.6058 1.57591 -0.0167156 0
M  V30 273 C 27.8548 1.90461 0.663877 0
M  V30 274 C 28.1678 0.893515 1.73999 0
M  V30 275 O 29.3738 1.11302 2.47637 0
M  V30 276 C 27.8298 3.38155 1.23204 0
M  V30 277 C 27.4378 4.47597 0.189866 0
M  V30 278 C 29.1818 3.80111 1.88986 0
M  V30 279 C 27.0888 5.86379 0.768964 0
M  V30 280 H 26.0188 0.710738 0.251729 0
M  V30 281 H 28.6698 1.83326 -0.0799926 0
M  V30 282 H 27.0518 3.40182 2.02712 0
M  V30 283 H 28.2258 4.57112 -0.581846 0
M  V30 284 H 26.5408 4.14766 -0.368475 0
M  V30 285 H 29.1378 4.81145 2.33247 0
M  V30 286 H 29.4808 3.14511 2.72743 0
M  V30 287 H 30.0138 3.80454 1.16187 0
M  V30 288 H 26.7528 6.55493 -0.0301957 0
M  V30 289 H 26.2728 5.80496 1.50945 0
M  V30 290 H 27.9518 6.34563 1.26251 0
M  V30 291 N 28.0839 -0.256276 1.55502 0
M  V30 292 C 29.0469 -1.30047 1.88734 0
M  V30 293 C 30.0469 -1.4154 0.763086 0
M  V30 294 O 31.2369 -1.40403 1.03115 0
M  V30 295 C 28.3689 -2.67953 2.10747 0
M  V30 296 H 29.5619 -1.01802 2.82093 0
M  V30 297 H 27.1149 -0.495134 1.4825 0
M  V30 298 H 27.8499 -3.01351 1.19825 0
M  V30 299 H 27.6349 -2.60993 2.92617 0
M  V30 300 H 29.1249 -3.43368 2.37673 0
M  V30 301 N 29.562 -1.4872 -0.521534 0
M  V30 302 C 30.79 -1.60843 -1.30142 0
M  V30 303 C 31.205 -0.271897 -1.86832 0
M  V30 304 O 30.562 0.739969 -1.66825 0
M  V30 305 C 30.613 -2.66155 -2.4463 0
M  V30 306 O 30.334 -3.94623 -1.90275 0
M  V30 307 C 31.835 -2.88795 -3.36322 0
M  V30 308 H 29.055 -0.542075 -0.395468 0
M  V30 309 H 31.599 -1.94609 -0.628285 0
M  V30 310 H 29.754 -2.35224 -3.07812 0
M  V30 311 H 30.168 -4.52468 -2.65279 0
M  V30 312 H 31.642 -3.66264 -4.12983 0
M  V30 313 H 32.119 -1.97934 -3.9207 0
M  V30 314 H 32.725 -3.21063 -2.78924 0
M  V30 315 N 31.0401 0.771051 -1.3745 0
M  V30 316 C 31.9881 1.90574 -1.33358 0
M  V30 317 C 32.9821 1.67936 -0.22224 0
M  V30 318 O 34.1881 1.75717 -0.390304 0
M  V30 319 H 30.5631 0.626714 -0.415612 0
M  V30 320 H 32.5341 1.91142 -2.29144 0
M  V30 321 C 31.2831 3.27845 -1.15813 0
M  V30 322 H 30.6061 3.45842 -2.00583 0
M  V30 323 H 32.0461 4.07538 -1.17 0
M  V30 324 C 30.5051 3.36625 0.136165 0
M  V30 325 O 31.0351 3.85785 1.11949 0
M  V30 326 N 29.2411 2.89997 0.187099 0
M  V30 327 H 28.7881 2.50182 -0.613753 0
M  V30 328 H 28.7461 2.96252 1.05272 0
M  V30 329 N 32.5182 1.22032 0.997298 0
M  V30 330 C 33.7462 1.06841 1.7718 0
M  V30 331 C 34.1612 -0.381325 1.84909 0
M  V30 332 O 33.5182 -1.26437 1.31605 0
M  V30 333 C 33.5692 1.66814 3.20711 0
M  V30 334 O 33.2902 3.06116 3.13408 0
M  V30 335 C 34.7912 1.56838 4.14628 0
M  V30 336 H 32.0112 0.374782 0.556578 0
M  V30 337 H 34.5552 1.61532 1.2541 0
M  V30 338 H 32.7102 1.16196 3.69564 0
M  V30 339 H 33.1242 3.34926 4.0364 0
M  V30 340 H 34.5982 2.03532 5.13107 0
M  V30 341 H 35.0752 0.524155 4.36061 0
M  V30 342 H 35.6812 2.06741 3.7167 0
M  V30 343 N 33.9963 -1.19345 1.0293 0
M  V30 344 C 34.9263 -2.2481 0.631105 0
M  V30 345 C 35.9073 -1.66245 -0.360104 0
M  V30 346 O 37.0923 -1.92677 -0.242726 0
M  V30 347 C 34.2223 -3.47295 -0.0184607 0
M  V30 348 C 33.1763 -4.18536 0.895073 0
M  V30 349 C 32.5023 -5.34586 0.110592 0
M  V30 350 C 33.8023 -4.73287 2.209 0
M  V30 351 H 35.4963 -2.58372 1.51275 0
M  V30 352 H 33.0423 -1.24194 0.728818 0
M  V30 353 H 34.9953 -4.20268 -0.308675 0
M  V30 354 H 33.7193 -3.12933 -0.934907 0
M  V30 355 H 32.3783 -3.47446 1.16949 0
M  V30 356 H 32.0263 -4.96469 -0.807902 0
M  V30 357 H 31.7263 -5.83183 0.719087 0
M  V30 358 H 33.2503 -6.10355 -0.172871 0
M  V30 359 H 34.6643 -5.38013 1.98028 0
M  V30 360 H 33.0613 -5.32373 2.76946 0
M  V30 361 H 34.1313 -3.91331 2.86336 0
M  V30 362 N 35.4744 -0.807222 -1.35358 0
M  V30 363 C 36.7204 -0.388463 -1.99045 0
M  V30 364 C 37.0534 1.04184 -1.63888 0
M  V30 365 O 36.3284 1.72292 -0.902535 0
M  V30 366 C 36.6114 -0.572783 -3.55515 0
M  V30 367 C 36.4644 -2.04807 -4.00468 0
M  V30 368 C 37.7834 0.00114064 -4.401 0
M  V30 369 H 34.9024 -0.142619 -0.723069 0
M  V30 370 H 37.5444 -1.01687 -1.60498 0
M  V30 371 H 35.6944 -0.0378425 -3.88482 0
M  V30 372 H 37.3664 -2.64544 -3.77908 0
M  V30 373 H 35.6094 -2.54427 -3.51353 0
M  V30 374 H 36.2804 -2.12792 -5.09337 0
M  V30 375 H 38.7564 -0.455716 -4.13597 0
M  V30 376 H 37.6324 -0.157737 -5.48673 0
M  V30 377 H 37.8934 1.09488 -4.28328 0
M  V30 378 N 36.9525 1.47285 -0.560781 0
M  V30 379 C 37.9155 2.28535 0.174488 0
M  V30 380 C 38.9155 1.37153 0.839388 0
M  V30 381 O 40.1055 1.59748 0.694702 0
M  V30 382 C 37.2375 3.16934 1.25561 0
M  V30 383 H 38.4305 2.95012 -0.539262 0
M  V30 384 H 35.9835 1.53034 -0.317865 0
M  V30 385 H 36.7185 2.55157 2.00164 0
M  V30 386 H 36.5035 3.8419 0.783604 0
M  V30 387 H 37.9935 3.78143 1.77193 0
M  V30 388 N 38.4306 0.297415 1.54768 0
M  V30 389 C 39.6766 -0.313376 2.00364 0
M  V30 390 C 40.0096 -1.53815 1.18553 0
M  V30 391 O 39.2846 -1.92739 0.261103 0
M  V30 392 C 39.5676 -0.673525 3.53745 0
M  V30 393 C 39.4206 0.560133 4.46299 0
M  V30 394 C 40.7396 -1.50143 4.13697 0
M  V30 395 H 37.8586 -0.112428 0.728374 0
M  V30 396 H 40.5006 0.4088 1.8555 0
M  V30 397 H 38.6506 -1.28881 3.665 0
M  V30 398 H 40.3226 1.19863 4.45455 0
M  V30 399 H 38.5656 1.19405 4.17043 0
M  V30 400 H 39.2366 0.26405 5.51368 0
M  V30 401 H 41.7126 -0.981588 4.04356 0
M  V30 402 H 40.5886 -1.72221 5.21182 0
M  V30 403 H 40.8496 -2.48952 3.65343 0
M  V30 404 N 39.9087 -1.5758 0.0250728 0
M  V30 405 C 40.8717 -2.08896 -0.943139 0
M  V30 406 C 41.8717 -1.00321 -1.25668 0
M  V30 407 O 43.0617 -1.26495 -1.19769 0
M  V30 408 C 40.1937 -2.55143 -2.26086 0
M  V30 409 H 41.3867 -2.95723 -0.498775 0
M  V30 410 H 38.9397 -1.54703 -0.222888 0
M  V30 411 H 39.6747 -1.71633 -2.75159 0
M  V30 412 H 39.4597 -3.34461 -2.04641 0
M  V30 413 H 40.9497 -2.95083 -2.95492 0
M  V30 414 N 41.3868 0.248026 -1.55636 0
M  V30 415 C 42.6328 0.97767 -1.77678 0
M  V30 416 C 42.9658 1.85016 -0.590135 0
M  V30 417 O 42.2408 1.90095 0.411611 0
M  V30 418 C 42.5238 1.83914 -3.09593 0
M  V30 419 C 42.3768 0.99491 -4.38659 0
M  V30 420 C 43.6958 2.82183 -3.37729 0
M  V30 421 H 40.8148 0.354005 -0.646413 0
M  V30 422 H 43.4568 0.248253 -1.88371 0
M  V30 423 H 41.6068 2.46104 -3.00608 0
M  V30 424 H 43.2788 0.391789 -4.59633 0
M  V30 425 H 41.5218 0.299231 -4.32767 0
M  V30 426 H 42.1928 1.63145 -5.2734 0
M  V30 427 H 44.6688 2.30129 -3.4667 0
M  V30 428 H 43.5448 3.39582 -4.31249 0
M  V30 429 H 43.8058 3.58588 -2.58586 0
M  V30 430 N 42.8649 1.48995 0.513639 0
M  V30 431 C 43.7949 1.67636 1.62544 0
M  V30 432 C 44.7759 0.525087 1.61793 0
M  V30 433 O 45.9609 0.759502 1.78732 0
M  V30 434 C 43.0909 1.73114 3.01079 0
M  V30 435 C 42.0449 2.87905 3.16693 0
M  V30 436 C 41.3709 2.78486 4.56453 0
M  V30 437 C 42.6709 4.29005 2.97913 0
M  V30 438 H 44.3649 2.60716 1.47198 0
M  V30 439 H 41.9109 1.25465 0.706714 0
M  V30 440 H 43.8639 1.84742 3.78746 0
M  V30 441 H 42.5879 0.766241 3.17484 0
M  V30 442 H 41.2469 2.75859 2.41448 0
M  V30 443 H 40.8949 1.7993 4.69717 0
M  V30 444 H 40.5949 3.55523 4.67843 0
M  V30 445 H 42.1189 2.92104 5.36197 0
M  V30 446 H 43.5329 4.41798 3.65359 0
M  V30 447 H 41.9299 5.07166 3.20785 0
M  V30 448 H 42.9999 4.44329 1.94165 0
M  V30 449 N 44.343 -0.763751 1.37857 0
M  V30 450 C 45.273 -1.89103 1.36975 0
M  V30 451 C 46.254 -1.68439 0.237152 0
M  V30 452 O 47.439 -1.8918 0.438713 0
M  V30 453 C 44.569 -3.26496 1.18395 0
M  V30 454 C 43.523 -3.61741 2.28751 0
M  V30 455 C 42.849 -4.97762 1.95286 0
M  V30 456 C 44.149 -3.67665 3.70972 0
M  V30 457 H 45.843 -1.90099 2.31307 0
M  V30 458 H 43.389 -0.91319 1.11341 0
M  V30 459 H 45.342 -4.05003 1.16406 0
M  V30 460 H 44.066 -3.25955 0.205215 0
M  V30 461 H 42.725 -2.85547 2.29909 0
M  V30 462 H 42.373 -4.93769 0.959221 0
M  V30 463 H 42.073 -5.22313 2.69189 0
M  V30 464 H 43.597 -5.7866 1.94898 0
M  V30 465 H 45.011 -4.36307 3.719 0
M  V30 466 H 43.408 -4.03718 4.43995 0
M  V30 467 H 44.478 -2.68134 4.0402 0
M  V30 468 N 45.8211 -1.22559 -0.990812 0
M  V30 469 C 46.7511 -1.0218 -2.09956 0
M  V30 470 C 47.7321 0.0579394 -1.70001 0
M  V30 471 O 48.9171 -0.104684 -1.93918 0
M  V30 472 C 46.0471 -0.601023 -3.4206 0
M  V30 473 C 45.0011 -1.62694 -3.95872 0
M  V30 474 C 44.3271 -1.06193 -5.24049 0
M  V30 475 C 45.6271 -3.01743 -4.2632 0
M  V30 476 H 47.3211 -1.94916 -2.27262 0
M  V30 477 H 44.8671 -0.938566 -1.09211 0
M  V30 478 H 46.8201 -0.445561 -4.19038 0
M  V30 479 H 45.5441 0.362005 -3.24588 0
M  V30 480 H 44.2031 -1.77021 -3.21028 0
M  V30 481 H 43.8511 -0.0901903 -5.02919 0
M  V30 482 H 43.5511 -1.74732 -5.61019 0
M  V30 483 H 45.0751 -0.918092 -6.03658 0
M  V30 484 H 46.4891 -2.90777 -4.94087 0
M  V30 485 H 44.8861 -3.67425 -4.74467 0
M  V30 486 H 45.9561 -3.51518 -3.34011 0
M  V30 487 N 47.2992 1.18797 -1.03562 0
M  V30 488 C 48.5482 1.87978 -0.731235 0
M  V30 489 C 48.8612 1.80911 0.743671 0
M  V30 490 O 50.0672 2.45407 1.16137 0
M  V30 491 C 48.5232 3.3721 -1.25768 0
M  V30 492 C 48.1312 3.52818 -2.76085 0
M  V30 493 C 49.8752 4.11825 -1.0296 0
M  V30 494 C 47.7822 4.9598 -3.22114 0
M  V30 495 H 46.7122 0.704063 -0.269835 0
M  V30 496 H 49.3632 1.34266 -1.25079 0
M  V30 497 H 47.7452 3.90359 -0.666011 0
M  V30 498 H 48.9192 3.09965 -3.40966 0
M  V30 499 H 47.2342 2.91602 -2.97249 0
M  V30 500 H 49.8312 5.17411 -1.34869 0
M  V30 501 H 50.1742 4.16287 0.0333546 0
M  V30 502 H 50.7072 3.64833 -1.58562 0
M  V30 503 H 47.4462 4.96684 -4.27768 0
M  V30 504 H 46.9662 5.39569 -2.61965 0
M  V30 505 H 48.6452 5.6467 -3.15844 0
M  V30 506 N 48.7773 0.814389 1.34928 0
M  V30 507 C 49.7273 0.202752 2.27097 0
M  V30 508 C 50.7113 -0.62799 1.48139 0
M  V30 509 O 51.9033 -0.483969 1.70255 0
M  V30 510 C 49.0323 -0.64146 3.37254 0
M  V30 511 C 48.1183 0.19944 4.23631 0
M  V30 512 N 48.5093 1.26628 4.89693 0
M  V30 513 C 46.8073 -0.0176433 4.45997 0
M  V30 514 C 47.5083 1.78031 5.53787 0
M  V30 515 N 46.4843 1.08553 5.32651 0
M  V30 516 H 50.2863 1.01893 2.75672 0
M  V30 517 H 47.8003 0.656332 1.48546 0
M  V30 518 H 49.7973 -1.09575 4.02243 0
M  V30 519 H 48.4573 -1.4559 2.9023 0
M  V30 520 H 49.4683 1.64901 4.90946 0
M  V30 521 H 46.1453 -0.800601 4.09752 0
M  V30 522 H 47.5353 2.67236 6.16469 0
M  V30 523 N 50.2554 -1.46986 0.568584 0
M  V30 524 C 51.2024 -2.30153 -0.172707 0
M  V30 525 C 52.1724 -1.39759 -0.897586 0
M  V30 526 O 53.3574 -1.68716 -0.891044 0
M  V30 527 C 50.4974 -3.23952 -1.1895 0
M  V30 528 C 49.6104 -4.29441 -0.469517 0
M  V30 529 C 48.7454 -5.1038 -1.47259 0
M  V30 530 C 47.7844 -6.07632 -0.738225 0
M  V30 531 N 46.9214 -6.8149 -1.68868 0
M  V30 532 H 51.7614 -2.93019 0.542596 0
M  V30 533 H 49.2984 -1.44422 0.279401 0
M  V30 534 H 51.2564 -3.76767 -1.79173 0
M  V30 535 H 49.8864 -2.62926 -1.87269 0
M  V30 536 H 48.9384 -3.79594 0.247467 0
M  V30 537 H 50.2504 -4.98689 0.105241 0
M  V30 538 H 49.4044 -5.67402 -2.14803 0
M  V30 539 H 48.1434 -4.4106 -2.08128 0
M  V30 540 H 47.1484 -5.49778 -0.0489293 0
M  V30 541 H 48.3734 -6.78966 -0.135129 0
M  V30 542 H 46.3194 -6.14891 -2.28573 0
M  V30 543 H 46.2364 -7.46948 -1.16636 0
M  V30 544 H 47.5044 -7.43078 -2.3549 0
M  V30 545 N 51.7335 -0.305618 -1.54608 0
M  V30 546 C 52.6815 0.584119 -2.25146 0
M  V30 547 C 53.6755 1.13326 -1.25911 0
M  V30 548 O 54.8815 1.08337 -1.43747 0
M  V30 549 H 51.2565 0.206983 -0.722954 0
M  V30 550 H 53.2275 -0.033291 -2.98381 0
M  V30 551 C 51.9765 1.74225 -3.009 0
M  V30 552 H 51.2995 1.32892 -3.77067 0
M  V30 553 H 52.7395 2.34077 -3.53531 0
M  V30 554 C 51.1985 2.64914 -2.0814 0
M  V30 555 O 51.7285 3.66137 -1.65246 0
M  V30 556 N 49.9345 2.3275 -1.74 0
M  V30 557 H 49.4815 1.50479 -2.09078 0
M  V30 558 H 49.4395 2.93694 -1.12211 0
M  V30 559 N 53.2116 1.57565 -0.0334293 0
M  V30 560 C 54.4886 1.83282 0.683163 0
M  V30 561 C 54.8686 0.91823 1.90084 0
M  V30 562 O 54.2166 -0.025113 2.28486 0
M  V30 563 C 54.4266 3.32599 1.0573 0
M  V30 564 C 55.7746 3.99179 1.44711 0
M  V30 565 O 56.7986 3.3712 1.15015 0
M  V30 566 O 55.6576 5.08565 2.0006 0
M  V30 567 H 52.7516 0.755869 0.335546 0
M  V30 568 H 55.2976 1.69589 -0.0614402 0
M  V30 569 H 54.0696 3.90834 0.190828 0
M  V30 570 H 53.6926 3.51415 1.85993 0
M  V30 571 N 54.6897 -0.239769 1.55765 0
M  V30 572 C 55.9377 -0.964892 1.77579 0
M  V30 573 C 56.2587 -1.85582 0.598699 0
M  V30 574 O 55.5287 -1.92075 -0.385226 0
M  V30 575 H 54.1087 -0.359265 0.654933 0
M  V30 576 H 56.7707 -0.256001 1.93211 0
M  V30 577 H 55.8667 -1.58243 2.69009 0
M  V30 578 N 56.1678 -1.49265 -0.50573 0
M  V30 579 C 57.4138 -1.58748 -1.26202 0
M  V30 580 C 57.7468 -0.271227 -1.92297 0
M  V30 581 O 57.0218 0.724831 -1.80489 0
M  V30 582 C 57.3048 -2.74332 -2.33268 0
M  V30 583 C 57.1578 -4.15737 -1.71705 0
M  V30 584 C 58.4768 -2.85576 -3.34865 0
M  V30 585 H 55.5958 -0.577826 -0.457478 0
M  V30 586 H 58.2378 -1.81532 -0.560897 0
M  V30 587 H 56.3878 -2.55036 -2.93068 0
M  V30 588 H 58.0598 -4.46537 -1.15769 0
M  V30 589 H 56.3028 -4.21605 -1.02135 0
M  V30 590 H 56.9738 -4.92477 -2.49341 0
M  V30 591 H 59.4498 -3.03127 -2.8505 0
M  V30 592 H 58.3258 -3.68135 -4.07146 0
M  V30 593 H 58.5868 -1.94732 -3.96903 0
M  V30 594 N 57.6459 0.756429 -1.3826 0
M  V30 595 C 58.8709 1.55077 -1.37717 0
M  V30 596 C 59.2959 1.88073 0.03164 0
M  V30 597 O 58.6539 1.50364 1.01293 0
M  V30 598 C 58.7019 2.8283 -2.23695 0
M  V30 599 O 57.8059 3.77862 -1.6521 0
M  V30 600 H 57.1469 0.469152 -0.469885 0
M  V30 601 H 59.6769 0.935019 -1.81985 0
M  V30 602 H 59.6869 3.31783 -2.37453 0
M  V30 603 H 58.3619 2.58144 -3.2609 0
M  V30 604 H 56.9389 3.36555 -1.60578 0
M  V30 605 N 59.124 1.23083 0.984299 0
M  V30 606 C 60.054 1.03292 2.09411 0
M  V30 607 C 61.035 -0.048923 1.7003 0
M  V30 608 O 62.22 0.114967 1.93859 0
M  V30 609 C 59.35 0.619155 3.41736 0
M  V30 610 C 58.304 1.64791 3.95004 0
M  V30 611 C 57.63 1.0897 5.23478 0
M  V30 612 C 58.93 3.03999 4.24714 0
M  V30 613 H 60.624 1.96119 2.26225 0
M  V30 614 H 58.17 0.944344 1.08711 0
M  V30 615 H 60.123 0.467777 4.18796 0
M  V30 616 H 58.847 -0.344786 3.24775 0
M  V30 617 H 57.506 1.78721 3.20085 0
M  V30 618 H 57.154 0.11686 5.02864 0
M  V30 619 H 56.854 1.77704 5.60085 0
M  V30 620 H 58.378 0.950093 6.03163 0
M  V30 621 H 59.792 2.93393 4.92538 0
M  V30 622 H 58.189 3.69936 4.72512 0
M  V30 623 H 59.259 3.53285 3.32142 0
M  V30 624 N 60.6021 -1.18246 1.0419 0
M  V30 625 C 61.8421 -1.89948 0.754916 0
M  V30 626 C 62.2061 -1.78608 -0.70451 0
M  V30 627 O 63.4071 -2.4503 -1.10516 0
M  V30 628 C 61.6781 -3.36305 1.20969 0
M  V30 629 S 63.2371 -4.26088 1.04854 0
M  V30 630 H 60.0551 -0.655897 0.274446 0
M  V30 631 H 62.6571 -1.42873 1.33445 0
M  V30 632 H 61.3611 -3.42089 2.26722 0
M  V30 633 H 60.8921 -3.8842 0.624004 0
M  V30 634 H 62.9071 -4.96189 -0.0332896 0
M  V30 635 N 62.0802 -0.821533 -1.34494 0
M  V30 636 C 63.3272 -0.408946 -1.98328 0
M  V30 637 C 63.6552 1.02764 -1.65136 0
M  V30 638 O 62.9102 1.73026 -0.914349 0
M  V30 639 C 63.2092 -0.556512 -3.53041 0
M  V30 640 C 62.8752 -1.95861 -4.0614 0
M  V30 641 C 61.5372 -2.34217 -4.20352 0
M  V30 642 C 63.8892 -2.87523 -4.34718 0
M  V30 643 C 61.2172 -3.63572 -4.6047 0
M  V30 644 C 63.5692 -4.1634 -4.76281 0
M  V30 645 C 62.2332 -4.54675 -4.88699 0
M  V30 646 H 61.5032 -0.149644 -0.725732 0
M  V30 647 H 64.1502 -1.04521 -1.6046 0
M  V30 648 H 62.4552 0.163148 -3.9146 0
M  V30 649 H 64.1522 -0.217826 -4.00408 0
M  V30 650 H 60.7422 -1.65066 -3.95539 0
M  V30 651 H 64.9262 -2.59133 -4.23277 0
M  V30 652 H 60.1822 -3.93101 -4.68275 0
M  V30 653 H 64.3562 -4.87455 -4.97354 0
M  V30 654 H 61.9832 -5.54959 -5.19542 0
M  V30 655 N 63.5583 1.46682 -0.576371 0
M  V30 656 C 64.7863 2.06798 -0.0649635 0
M  V30 657 C 65.2013 1.42612 1.23723 0
M  V30 658 O 64.5583 0.529203 1.74659 0
M  V30 659 C 64.6093 3.6132 0.114202 0
M  V30 660 O 64.3303 4.23104 -1.13644 0
M  V30 661 C 65.8313 4.38349 0.66069 0
M  V30 662 H 63.0513 0.668778 -0.0545616 0
M  V30 663 H 65.5953 1.88404 -0.795237 0
M  V30 664 H 63.7503 3.79162 0.794673 0
M  V30 665 H 64.1643 5.15894 -0.946253 0
M  V30 666 H 65.6383 5.47081 0.73526 0
M  V30 667 H 66.1153 4.05953 1.67627 0
M  V30 668 H 66.7213 4.25297 0.0152951 0
M  V30 669 N 65.0364 0.313813 1.54444 0
M  V30 670 C 65.9664 -0.549454 2.26943 0
M  V30 671 C 66.9474 -1.12741 1.27372 0
M  V30 672 O 68.1324 -1.15436 1.56167 0
M  V30 673 C 65.2624 -1.71523 3.01989 0
M  V30 674 C 64.2164 -1.26703 4.08816 0
M  V30 675 C 63.5424 -2.51898 4.71647 0
M  V30 676 C 64.8424 -0.388962 5.2085 0
M  V30 677 H 66.5364 0.0552661 2.99349 0
M  V30 678 H 64.0824 0.0280207 1.43973 0
M  V30 679 H 66.0354 -2.32535 3.51433 0
M  V30 680 H 64.7594 -2.34639 2.27183 0
M  V30 681 H 63.4184 -0.679896 3.6024 0
M  V30 682 H 63.0664 -3.13356 3.93468 0
M  V30 683 H 62.7664 -2.22605 5.43802 0
M  V30 684 H 64.2904 -3.1369 5.23861 0
M  V30 685 H 65.7044 -0.905107 5.6611 0
M  V30 686 H 64.1014 -0.18924 5.99802 0
M  V30 687 H 65.1714 0.582699 4.81386 0
M  V30 688 N 66.5145 -1.57545 0.0417849 0
M  V30 689 C 67.4625 -2.12148 -0.953723 0
M  V30 690 C 68.4565 -1.05104 -1.32852 0
M  V30 691 O 69.6625 -1.23524 -1.30927 0
M  V30 692 H 66.0375 -0.677957 -0.325389 0
M  V30 693 H 68.0085 -2.94707 -0.467991 0
M  V30 694 C 66.7575 -2.6739 -2.22257 0
M  V30 695 H 66.0805 -3.49413 -1.94295 0
M  V30 696 H 67.5205 -3.09227 -2.90094 0
M  V30 697 C 65.9795 -1.60723 -2.96091 0
M  V30 698 O 66.5095 -1.01449 -3.88679 0
M  V30 699 N 64.7155 -1.32466 -2.58652 0
M  V30 700 H 64.2625 -1.80856 -1.83437 0
M  V30 701 H 64.2205 -0.61325 -3.08361 0
M  V30 702 N 67.9926 0.231505 -1.5589 0
M  V30 703 C 68.9226 1.29022 -1.94617 0
M  V30 704 C 69.9036 1.4941 -0.813067 0
M  V30 705 O 71.0886 1.6176 -1.07459 0
M  V30 706 C 68.2186 2.64199 -2.25424 0
M  V30 707 C 67.1726 2.58484 -3.41131 0
M  V30 708 C 66.4986 3.97599 -3.57518 0
M  V30 709 C 67.7986 2.1413 -4.76388 0
M  V30 710 H 69.4926 0.968563 -2.83301 0
M  V30 711 H 67.0386 0.464479 -1.36303 0
M  V30 712 H 68.9916 3.38413 -2.51107 0
M  V30 713 H 67.7156 2.98032 -1.33583 0
M  V30 714 H 66.3746 1.86727 -3.15481 0
M  V30 715 H 66.0226 4.28723 -2.6307 0
M  V30 716 H 65.7226 3.94659 -4.35337 0
M  V30 717 H 67.2466 4.7349 -3.85538 0
M  V30 718 H 68.6606 2.78083 -5.01341 0
M  V30 719 H 67.0576 2.2227 -5.57419 0
M  V30 720 H 68.1276 1.09331 -4.72414 0
M  V30 721 N 69.4707 1.49531 0.497807 0
M  V30 722 C 70.4337 1.65916 1.58128 0
M  V30 723 C 71.4337 0.530825 1.51786 0
M  V30 724 O 72.6237 0.797342 1.54881 0
M  V30 725 C 69.7557 1.65951 2.9778 0
M  V30 726 H 70.9487 2.62556 1.44929 0
M  V30 727 H 68.5017 1.38611 0.722275 0
M  V30 728 H 69.2367 0.709065 3.16453 0
M  V30 729 H 69.0217 2.47897 3.03792 0
M  V30 730 H 70.5117 1.80673 3.76493 0
M  V30 731 N 70.9488 -0.749086 1.3866 0
M  V30 732 C 72.1948 -1.51056 1.35314 0
M  V30 733 C 72.5278 -1.94121 -0.0553751 0
M  V30 734 O 71.8028 -1.65763 -1.01749 0
M  V30 735 C 72.0858 -2.76003 2.31288 0
M  V30 736 C 71.9388 -2.39047 3.8102 0
M  V30 737 C 73.2578 -3.78046 2.2532 0
M  V30 738 H 70.3768 -0.547972 0.492844 0
M  V30 739 H 73.0188 -0.857628 1.69543 0
M  V30 740 H 71.1688 -3.31716 2.02229 0
M  V30 741 H 72.8408 -1.89074 4.20771 0
M  V30 742 H 71.0838 -1.71449 3.98482 0
M  V30 743 H 71.7548 -3.28462 4.4364 0
M  V30 744 H 74.2308 -3.31884 2.50983 0
M  V30 745 H 73.1068 -4.63159 2.94576 0
M  V30 746 H 73.3678 -4.23957 1.25352 0
M  V30 747 N 72.4269 -1.23603 -0.977757 0
M  V30 748 C 73.3899 -1.02069 -2.05218 0
M  V30 749 C 74.3899 0.0184305 -1.60789 0
M  V30 750 O 75.5799 -0.221569 -1.72785 0
M  V30 751 C 72.7119 -0.544926 -3.36517 0
M  V30 752 H 73.9049 -1.9742 -2.25755 0
M  V30 753 H 71.4579 -1.05684 -1.15155 0
M  V30 754 H 72.1929 0.412241 -3.21669 0
M  V30 755 H 71.9779 -1.2948 -3.70105 0
M  V30 756 H 73.4679 -0.414985 -4.15533 0
M  V30 757 N 73.905 1.17692 -1.04816 0
M  V30 758 C 75.182 1.83768 -0.669963 0
M  V30 759 C 75.562 1.93232 0.849986 0
M  V30 760 O 74.91 1.46397 1.75443 0
M  V30 761 C 75.12 3.21641 -1.35455 0
M  V30 762 C 76.468 3.97592 -1.49017 0
M  V30 763 O 77.492 3.31107 -1.31326 0
M  V30 764 O 76.351 5.16729 -1.77914 0
M  V30 765 H 73.445 0.792799 -0.235368 0
M  V30 766 H 75.991 1.25021 -1.14751 0
M  V30 767 H 74.763 3.097 -2.39168 0
M  V30 768 H 74.386 3.88052 -0.866107 0
M  V30 769 N 75.3831 0.828654 1.34056 0
M  V30 770 C 76.6111 0.43262 2.02326 0
M  V30 771 C 77.0261 -0.963147 1.62385 0
M  V30 772 O 76.3831 -1.62425 0.832121 0
M  V30 773 C 76.4341 0.53182 3.57567 0
M  V30 774 O 76.1551 1.87258 3.96063 0
M  V30 775 C 77.6561 0.131422 4.43105 0
M  V30 776 H 74.8761 0.172923 0.648335 0
M  V30 777 H 77.4201 1.1184 1.71208 0
M  V30 778 H 75.5751 -0.105938 3.87255 0
M  V30 779 H 75.9891 1.85087 4.90758 0
M  V30 780 H 77.4631 0.251904 5.51425 0
M  V30 781 H 77.9401 -0.925645 4.29335 0
M  V30 782 H 78.5461 0.743207 4.18756 0
M  V30 783 N 76.8612 -1.46375 0.584142 0
M  V30 784 C 77.7912 -2.33103 -0.136037 0
M  V30 785 C 78.7722 -1.45431 -0.882255 0
M  V30 786 O 79.9572 -1.74246 -0.857434 0
M  V30 787 C 77.0872 -3.27731 -1.14933 0
M  V30 788 C 76.0412 -4.24855 -0.517862 0
M  V30 789 C 75.3672 -5.09001 -1.63773 0
M  V30 790 C 76.6672 -5.19439 0.545886 0
M  V30 791 H 78.3612 -2.93568 0.588086 0
M  V30 792 H 75.9072 -1.41166 0.284259 0
M  V30 793 H 77.8602 -3.87261 -1.66153 0
M  V30 794 H 76.5842 -2.65377 -1.90375 0
M  V30 795 H 75.2432 -3.6659 -0.0267361 0
M  V30 796 H 74.8912 -4.43031 -2.38185 0
M  V30 797 H 74.5912 -5.74777 -1.22085 0
M  V30 798 H 76.1152 -5.71396 -2.15266 0
M  V30 799 H 77.5292 -5.73177 0.118704 0
M  V30 800 H 75.9262 -5.93566 0.88317 0
M  V30 801 H 76.9962 -4.63285 1.43162 0
M  V30 802 N 78.3393 -0.321999 -1.54275 0
M  V30 803 C 79.5883 0.281931 -1.9972 0
M  V30 804 C 79.9013 1.53369 -1.21397 0
M  V30 805 O 81.1073 2.21352 -1.57211 0
M  V30 806 C 79.5633 0.5529 -3.55628 0
M  V30 807 C 79.1713 -0.681721 -4.42783 0
M  V30 808 C 80.9153 1.11687 -4.09544 0
M  V30 809 C 78.8223 -0.382742 -5.9016 0
M  V30 810 H 77.7523 0.109124 -0.746062 0
M  V30 811 H 80.4033 -0.43398 -1.78294 0
M  V30 812 H 78.7853 1.32896 -3.73035 0
M  V30 813 H 79.9593 -1.45723 -4.37151 0
M  V30 814 H 78.2743 -1.1658 -3.99748 0
M  V30 815 H 80.8713 1.35515 -5.17242 0
M  V30 816 H 81.2143 2.06575 -3.61431 0
M  V30 817 H 81.7473 0.402032 -3.95763 0
M  V30 818 H 78.4863 -1.30076 -6.42464 0
M  V30 819 H 78.0063 0.355094 -5.98748 0
M  V30 820 H 79.6853 0.00800157 -6.47 0
M  V30 821 N 79.8174 1.5752 -0.0501392 0
M  V30 822 C 81.0654 1.9227 0.622642 0
M  V30 823 C 81.3864 0.929083 1.71444 0
M  V30 824 O 80.6564 -0.0262186 1.95882 0
M  V30 825 H 79.2364 0.709739 0.232981 0
M  V30 826 H 81.8984 1.94628 -0.102898 0
M  V30 827 H 80.9944 2.93479 1.06191 0
M  V30 828 N 81.2955 -0.223234 1.56011 0
M  V30 829 C 82.5415 -0.949279 1.79211 0
M  V30 830 C 82.8745 -1.84054 0.619494 0
M  V30 831 O 82.1495 -1.90726 -0.381317 0
M  V30 832 C 82.4325 -1.78965 3.12479 0
M  V30 833 C 82.2855 -0.924997 4.40186 0
M  V30 834 C 83.6045 -2.76774 3.42175 0
M  V30 835 H 80.7235 -0.343676 0.651963 0
M  V30 836 H 83.3655 -0.218253 1.88742 0
M  V30 837 H 81.5155 -2.41291 3.04485 0
M  V30 838 H 83.1875 -0.318615 4.60198 0
M  V30 839 H 81.4305 -0.230344 4.33188 0
M  V30 840 H 82.1015 -1.54735 5.29869 0
M  V30 841 H 84.5775 -2.24584 3.50287 0
M  V30 842 H 83.4535 -3.32678 4.36597 0
M  V30 843 H 83.7145 -3.54429 2.64258 0
M  V30 844 N 82.7736 -1.49793 -0.48987 0
M  V30 845 C 83.7366 -1.66752 -1.57246 0
M  V30 846 C 84.7366 -0.538867 -1.51502 0
M  V30 847 O 85.9266 -0.805545 -1.54456 0
M  V30 848 C 83.0586 -1.67528 -2.96896 0
M  V30 849 H 84.2516 -2.63321 -1.43534 0
M  V30 850 H 81.8046 -1.38992 -0.714914 0
M  V30 851 H 82.5396 -0.725837 -3.16073 0
M  V30 852 H 82.3246 -2.49504 -3.02473 0
M  V30 853 H 83.8146 -1.82667 -3.7553 0
M  V30 854 N 84.2517 0.741722 -1.39055 0
M  V30 855 C 85.5007 1.49656 -1.35225 0
M  V30 856 C 85.8137 1.95533 0.0512708 0
M  V30 857 O 87.0197 2.7067 0.212138 0
M  V30 858 C 85.4757 2.70389 -2.37525 0
M  V30 859 C 85.0837 2.31489 -3.83558 0
M  V30 860 C 86.8277 3.48236 -2.42759 0
M  V30 861 C 84.7347 3.48903 -4.77515 0
M  V30 862 H 83.6647 0.56197 -0.502699 0
M  V30 863 H 86.3157 0.809727 -1.64668 0
M  V30 864 H 84.6977 3.41113 -2.01142 0
M  V30 865 H 85.8717 1.68354 -4.28945 0
M  V30 866 H 84.1867 1.66749 -3.81554 0
M  V30 867 H 86.7837 4.35558 -3.1015 0
M  V30 868 H 87.1267 3.90229 -1.45008 0
M  V30 869 H 87.6597 2.84535 -2.78002 0
M  V30 870 H 84.3987 3.11966 -5.76504 0
M  V30 871 H 83.9187 4.11041 -4.36813 0
M  V30 872 H 85.5977 4.15328 -4.96096 0
M  V30 873 N 85.7298 1.2412 0.971189 0
M  V30 874 C 86.9548 1.10667 1.75407 0
M  V30 875 C 87.3798 -0.337048 1.85056 0
M  V30 876 O 86.7378 -1.24396 1.31892 0
M  V30 877 C 86.7858 1.74726 3.15441 0
M  V30 878 O 85.8898 1.01566 3.99697 0
M  V30 879 H 85.2308 0.387341 0.539317 0
M  V30 880 H 87.7608 1.64358 1.2185 0
M  V30 881 H 87.7708 1.80341 3.6598 0
M  V30 882 H 86.4458 2.79773 3.07734 0
M  V30 883 H 85.0228 1.03713 3.58187 0
M  V30 884 N 87.2079 -1.17134 1.05439 0
M  V30 885 C 88.4559 -1.87085 0.764429 0
M  V30 886 C 88.7769 -1.81584 -0.710787 0
M  V30 887 O 88.0469 -1.24349 -1.51374 0
M  V30 888 H 86.6269 -0.692627 0.279779 0
M  V30 889 H 89.2889 -1.42087 1.33406 0
M  V30 890 H 88.3849 -2.92759 1.0816 0
M  V30 891 N 88.686 -0.835752 -1.33615 0
M  V30 892 C 89.616 -0.281739 -2.31794 0
M  V30 893 C 90.597 0.608833 -1.58831 0
M  V30 894 O 91.782 0.533035 -1.86741 0
M  V30 895 C 88.912 0.546612 -3.42971 0
M  V30 896 C 87.866 -0.247904 -4.27281 0
M  V30 897 C 87.192 0.704001 -5.30045 0
M  V30 898 C 88.492 -1.46324 -5.01385 0
M  V30 899 H 90.186 -1.10206 -2.78379 0
M  V30 900 H 87.732 -0.531388 -1.33837 0
M  V30 901 H 89.685 0.944467 -4.1068 0
M  V30 902 H 88.409 1.40011 -2.95067 0
M  V30 903 H 87.068 -0.627281 -3.61194 0
M  V30 904 H 86.716 1.55381 -4.78399 0
M  V30 905 H 86.416 0.176524 -5.87335 0
M  V30 906 H 87.94 1.09944 -6.0062 0
M  V30 907 H 89.354 -1.13871 -5.61877 0
M  V30 908 H 87.751 -1.92728 -5.6831 0
M  V30 909 H 88.821 -2.23467 -4.30338 0
M  V30 910 N 90.1641 1.46063 -0.591896 0
M  V30 911 C 91.0941 2.33172 0.123673 0
M  V30 912 C 92.0751 1.45897 0.87453 0
M  V30 913 O 93.2601 1.74698 0.848181 0
M  V30 914 C 90.3901 3.28336 1.13194 0
M  V30 915 C 89.3441 4.25124 0.495324 0
M  V30 916 C 88.6701 5.09863 1.61071 0
M  V30 917 C 89.9701 5.19143 -0.573425 0
M  V30 918 H 91.6641 2.93252 -0.603646 0
M  V30 919 H 89.2101 1.41014 -0.291741 0
M  V30 920 H 91.1631 3.88137 1.64097 0
M  V30 921 H 89.8871 2.66383 1.88965 0
M  V30 922 H 88.5461 3.66599 0.00729452 0
M  V30 923 H 88.1941 4.44288 2.35832 0
M  V30 924 H 87.8941 5.75417 1.19035 0
M  V30 925 H 89.4181 5.72529 2.12233 0
M  V30 926 H 90.8321 5.73106 -0.1491 0
M  V30 927 H 89.2291 5.93089 -0.914636 0
M  V30 928 H 90.2991 4.62519 -1.45617 0
M  V30 929 N 91.6422 0.330177 1.54103 0
M  V30 930 C 92.8702 -0.272179 2.05102 0
M  V30 931 C 93.2852 -1.45267 1.20595 0
M  V30 932 O 92.6422 -1.8094 0.238144 0
M  V30 933 C 92.6932 -0.70023 3.54653 0
M  V30 934 O 92.4142 0.433301 4.35952 0
M  V30 935 C 93.9152 -1.3647 4.21771 0
M  V30 936 H 91.1352 -0.0549159 0.668749 0
M  V30 937 H 93.6792 0.478285 1.98828 0
M  V30 938 H 91.8342 -1.40066 3.61193 0
M  V30 939 H 92.2482 0.0947539 5.24414 0
M  V30 940 H 93.7222 -1.61509 5.27843 0
M  V30 941 H 94.1992 -2.31409 3.73292 0
M  V30 942 H 94.8052 -0.706675 4.19388 0
M  V30 943 N 93.1203 -1.57491 0.0584922 0
M  V30 944 C 94.3973 -1.84346 -0.653918 0
M  V30 945 C 94.7773 -0.948355 -1.88599 0
M  V30 946 O 94.1253 -0.0112403 -2.28497 0
M  V30 947 C 94.3353 -3.34239 -1.00425 0
M  V30 948 C 95.6833 -4.01431 -1.38342 0
M  V30 949 O 96.7073 -3.38907 -1.09637 0
M  V30 950 O 95.5663 -5.11683 -1.91943 0
M  V30 951 H 92.6603 -0.761112 -0.323478 0
M  V30 952 H 95.2063 -1.6947 0.0884125 0
M  V30 953 H 93.9783 -3.91089 -0.128625 0
M  V30 954 H 93.6013 -3.54329 -1.80378 0
M  V30 955 N 94.5984 0.214957 -1.56127 0
M  V30 956 C 95.5304 1.29004 -1.89448 0
M  V30 957 C 96.5434 1.42716 -0.783326 0
M  V30 958 O 97.7324 1.43496 -1.06166 0
M  V30 959 C 94.8324 2.66482 -2.09381 0
M  V30 960 C 94.0054 2.74633 -3.40434 0
M  V30 961 C 93.0644 3.9317 -3.49719 0
M  V30 962 O 92.0904 3.812 -4.227 0
M  V30 963 N 93.2924 5.07765 -2.81346 0
M  V30 964 H 96.0574 1.00743 -2.82261 0
M  V30 965 H 93.6184 0.40497 -1.56753 0
M  V30 966 H 95.6104 3.44173 -2.12901 0
M  V30 967 H 94.1804 2.87314 -1.23163 0
M  V30 968 H 93.4004 1.83368 -3.48955 0
M  V30 969 H 94.6884 2.77054 -4.26754 0
M  V30 970 H 94.0864 5.20386 -2.21843 0
M  V30 971 H 92.6434 5.83474 -2.90519 0
M  V30 972 N 96.0765 1.50051 0.48192 0
M  V30 973 C 97.0065 1.71046 1.58951 0
M  V30 974 C 97.9875 0.559288 1.60642 0
M  V30 975 O 99.1725 0.797243 1.77081 0
M  V30 976 C 96.3025 1.79462 2.97339 0
M  V30 977 C 95.2565 2.94558 3.10515 0
M  V30 978 C 94.5825 2.88105 4.50444 0
M  V30 979 C 95.8825 4.35227 2.88747 0
M  V30 980 H 97.5765 2.6378 1.41635 0
M  V30 981 H 95.1225 1.26936 0.679942 0
M  V30 982 H 97.0755 1.92734 3.74742 0
M  V30 983 H 95.7995 0.833412 3.15788 0
M  V30 984 H 94.4585 2.80918 2.35543 0
M  V30 985 H 94.1065 1.89853 4.65795 0
M  V30 986 H 93.8065 3.65366 4.60197 0
M  V30 987 H 95.3305 3.03412 5.29881 0
M  V30 988 H 96.7445 4.49449 3.55905 0
M  V30 989 H 95.1415 5.13856 3.09955 0
M  V30 990 H 96.2115 4.48347 1.84696 0
M  V30 991 N 97.5546 -0.734337 1.39446 0
M  V30 992 C 98.7796 -1.52866 1.40167 0
M  V30 993 C 99.2046 -1.881 -0.00171513 0
M  V30 994 O 98.5626 -1.51957 -0.988879 0
M  V30 995 C 98.6106 -2.79235 2.28167 0
M  V30 996 O 97.7146 -3.75185 1.71201 0
M  V30 997 H 97.0556 -0.461618 0.477289 0
M  V30 998 H 99.5856 -0.905949 1.8345 0
M  V30 999 H 99.5956 -3.27963 2.42702 0
M  V30 1000 H 98.2706 -2.52923 3.30156 0
M  V30 1001 H 96.8476 -3.33958 1.65912 0
M  V30 1002 N 99.0327 -1.24633 -0.964593 0
M  V30 1003 C 100.258 -1.11596 -1.74818 0
M  V30 1004 C 100.683 0.32723 -1.85232 0
M  V30 1005 O 100.041 1.23695 -1.32549 0
M  V30 1006 C 100.089 -1.76397 -3.1451 0
M  V30 1007 O 99.1927 -1.03685 -3.99153 0
M  V30 1008 H 98.5337 -0.390196 -0.537255 0
M  V30 1009 H 101.064 -1.65002 -1.20977 0
M  V30 1010 H 101.074 -1.8228 -3.65018 0
M  V30 1011 H 99.7487 -2.81401 -3.06246 0
M  V30 1012 H 98.3257 -1.05611 -3.57632 0
M  V30 1013 N 100.511 1.16574 -1.06058 0
M  V30 1014 C 101.922 1.68662 -0.800632 0
M  V30 1015 C 102.273 1.84184 0.67608 0
M  V30 1016 O 101.398 1.53568 1.52466 0
M  V30 1017 C 101.993 3.06356 -1.44676 0
M  V30 1018 C 100.552 3.55575 -1.23465 0
M  V30 1019 C 99.6988 2.31616 -1.52477 0
M  V30 1020 H 102.65 1.00969 -1.22438 0
M  V30 1021 H 102.671 3.70636 -0.860788 0
M  V30 1022 H 102.183 2.95027 -2.52152 0
M  V30 1023 H 100.284 3.72167 -0.179527 0
M  V30 1024 H 100.397 4.37812 -1.94571 0
M  V30 1025 H 98.7608 2.36512 -0.945209 0
M  V30 1026 H 99.5438 2.22887 -2.61106 0
M  V30 1027 N 101.989 0.842826 1.3317 0
M  V30 1028 C 103.214 0.453129 2.02389 0
M  V30 1029 C 103.639 -0.939105 1.6298 0
M  V30 1030 O 102.997 -1.61472 0.8244 0
M  V30 1031 C 103.045 0.586094 3.55805 0
M  V30 1032 O 102.149 -0.386029 4.10589 0
M  V30 1033 H 101.49 0.183664 0.638094 0
M  V30 1034 H 104.02 1.13875 1.69981 0
M  V30 1035 H 104.03 0.469209 4.05293 0
M  V30 1036 H 102.705 1.6014 3.83833 0
M  V30 1037 H 101.282 -0.226371 3.72212 0
M  V30 1038 N 103.467 -1.45747 0.599634 0
M  V30 1039 C 104.883 -1.57424 0.26264 0
M  V30 1040 C 105.083 -1.59222 -1.23493 0
M  V30 1041 O 104.139 -1.51825 -2.01756 0
M  V30 1042 C 105.452 -2.86061 0.926795 0
M  V30 1043 C 107 -2.99722 0.901967 0
M  V30 1044 C 107.475 -4.31119 1.54598 0
M  V30 1045 N 108.966 -4.37858 1.5111 0
M  V30 1046 C 109.701 -5.3818 1.97863 0
M  V30 1047 N 109.197 -6.45083 2.52666 0
M  V30 1048 N 110.99 -5.29487 1.88679 0
M  V30 1049 H 103.141 -1.42823 1.57211 0
M  V30 1050 H 105.404 -0.68235 0.658105 0
M  V30 1051 H 105.11 -2.90605 1.98095 0
M  V30 1052 H 104.984 -3.74563 0.445238 0
M  V30 1053 H 107.371 -2.9475 -0.143617 0
M  V30 1054 H 107.452 -2.12652 1.42171 0
M  V30 1055 H 107.096 -4.36849 2.59085 0
M  V30 1056 H 107.026 -5.16992 1.00132 0
M  V30 1057 H 109.517 -3.61209 1.11068 0
M  V30 1058 H 109.83 -7.17869 2.86155 0
M  V30 1059 H 108.175 -6.45856 2.56701 0
M  V30 1060 H 111.366 -4.44877 1.4561 0
M  V30 1061 H 111.539 -6.07524 2.25429 0
M  V30 1062 N 104.945 -0.338344 -1.53925 0
M  V30 1063 C 106.356 0.146651 -1.86123 0
M  V30 1064 C 106.707 1.5042 -1.2597 0
M  V30 1065 O 105.832 2.08723 -0.571294 0
M  V30 1066 C 106.427 0.272879 -3.37699 0
M  V30 1067 C 104.986 0.702103 -3.69794 0
M  V30 1068 C 104.133 -0.167304 -2.76795 0
M  V30 1069 H 107.084 -0.558123 -1.48562 0
M  V30 1070 H 107.105 1.10128 -3.64214 0
M  V30 1071 H 106.617 -0.715307 -3.81451 0
M  V30 1072 H 104.718 1.6995 -3.31584 0
M  V30 1073 H 104.831 0.495604 -4.7653 0
M  V30 1074 H 103.195 0.359527 -2.5215 0
M  V30 1075 H 103.978 -1.15253 -3.23375 0
M  V30 1076 N 106.423 1.57458 -0.0668435 0
M  V30 1077 C 107.651 1.97624 0.612565 0
M  V30 1078 C 108.066 0.94502 1.63447 0
M  V30 1079 O 107.423 -0.0689276 1.8237 0
M  V30 1080 C 107.474 3.37869 1.28555 0
M  V30 1081 O 107.195 4.3704 0.304557 0
M  V30 1082 C 108.696 3.92882 2.05325 0
M  V30 1083 H 105.916 0.650045 0.166381 0
M  V30 1084 H 108.46 2.04035 -0.137782 0
M  V30 1085 H 106.615 3.3256 1.98702 0
M  V30 1086 H 107.029 5.18565 0.786779 0
M  V30 1087 H 108.503 4.93247 2.47812 0
M  V30 1088 H 108.98 3.29156 2.9078 0
M  V30 1089 H 109.586 4.01577 1.40056 0
M  V30 1090 N 107.901 -0.206675 1.56239 0
M  V30 1091 C 108.833 -1.27997 1.9013 0
M  V30 1092 C 109.846 -1.42299 0.790883 0
M  V30 1093 O 111.035 -1.42931 1.06925 0
M  V30 1094 C 108.135 -2.65368 2.10792 0
M  V30 1095 C 107.308 -2.72824 3.41886 0
M  V30 1096 C 106.367 -3.9131 3.51799 0
M  V30 1097 O 105.393 -3.78953 4.24716 0
M  V30 1098 N 106.595 -5.06265 2.84035 0
M  V30 1099 H 109.36 -0.992444 2.82791 0
M  V30 1100 H 106.921 -0.396652 1.56966 0
M  V30 1101 H 108.913 -3.43039 2.14724 0
M  V30 1102 H 107.483 -2.86657 1.24685 0
M  V30 1103 H 106.703 -1.81515 3.49923 0
M  V30 1104 H 107.991 -2.74786 4.28217 0
M  V30 1105 H 107.389 -5.19203 2.246 0
M  V30 1106 H 105.946 -5.81925 2.93609 0
M  V30 1107 N 109.379 -1.50304 -0.473955 0
M  V30 1108 C 110.326 -1.68959 -1.57231 0
M  V30 1109 C 111.296 -0.530899 -1.57387 0
M  V30 1110 O 112.481 -0.761133 -1.74961 0
M  V30 1111 C 109.621 -1.7871 -2.95223 0
M  V30 1112 C 108.734 -3.06061 -3.04878 0
M  V30 1113 C 107.869 -3.06626 -4.33767 0
M  V30 1114 C 106.908 -4.28443 -4.37154 0
M  V30 1115 N 106.045 -4.26763 -5.5751 0
M  V30 1116 H 110.885 -2.6273 -1.40631 0
M  V30 1117 H 108.422 -1.30241 -0.683789 0
M  V30 1118 H 110.38 -1.82344 -3.75242 0
M  V30 1119 H 109.01 -0.883806 -3.10465 0
M  V30 1120 H 108.062 -3.11911 -2.17751 0
M  V30 1121 H 109.374 -3.96039 -3.0324 0
M  V30 1122 H 108.528 -3.08973 -5.22131 0
M  V30 1123 H 107.267 -2.14473 -4.3801 0
M  V30 1124 H 106.272 -4.2631 -3.47188 0
M  V30 1125 H 107.497 -5.2182 -4.34605 0
M  V30 1126 H 105.443 -3.37462 -5.62544 0
M  V30 1127 H 105.36 -5.10507 -5.57601 0
M  V30 1128 H 106.628 -4.33253 -6.48006 0
M  V30 1129 N 110.857 0.726932 -1.39834 0
M  V30 1130 C 112.085 1.51613 -1.40787 0
M  V30 1131 C 112.5 1.88799 -0.00451505 0
M  V30 1132 O 111.857 1.54662 0.968809 0
M  V30 1133 C 111.908 2.79863 -2.28821 0
M  V30 1134 O 111.629 2.44253 -3.63692 0
M  V30 1135 C 113.13 3.73837 -2.38245 0
M  V30 1136 H 110.35 0.468264 -0.480593 0
M  V30 1137 H 112.894 0.897607 -1.83748 0
M  V30 1138 H 111.049 3.38027 -1.89252 0
M  V30 1139 H 111.463 3.26695 -4.1033 0
M  V30 1140 H 112.937 4.60699 -3.04073 0
M  V30 1141 H 113.414 4.16153 -1.40403 0
M  V30 1142 H 114.02 3.21589 -2.78317 0
M  V30 1143 N 112.336 1.25143 0.95797 0
M  V30 1144 C 113.266 1.07711 2.07173 0
M  V30 1145 C 114.247 -0.0128462 1.70095 0
M  V30 1146 O 115.432 0.156061 1.93572 0
M  V30 1147 C 112.562 0.691503 3.40346 0
M  V30 1148 C 111.516 1.73132 3.9142 0
M  V30 1149 C 110.842 1.20049 5.21049 0
M  V30 1150 C 112.142 3.1294 4.1817 0
M  V30 1151 H 113.836 2.00873 2.22014 0
M  V30 1152 H 111.382 0.967191 1.06684 0
M  V30 1153 H 113.335 0.556505 4.17709 0
M  V30 1154 H 112.059 -0.275819 3.25433 0
M  V30 1155 H 110.718 1.8547 3.16222 0
M  V30 1156 H 110.366 0.223499 5.02503 0
M  V30 1157 H 110.066 1.89545 5.56189 0
M  V30 1158 H 111.59 1.07782 6.01012 0
M  V30 1159 H 113.004 3.03775 4.86203 0
M  V30 1160 H 111.401 3.79875 4.64559 0
M  V30 1161 H 112.471 3.6025 3.24573 0
M  V30 1162 N 113.814 -1.1601 1.06675 0
M  V30 1163 C 115.054 -1.88304 0.795037 0
M  V30 1164 C 115.418 -1.80062 -0.666466 0
M  V30 1165 O 116.619 -2.47319 -1.05293 0
M  V30 1166 C 114.89 -3.33664 1.28076 0
M  V30 1167 S 116.449 -4.23768 1.13868 0
M  V30 1168 H 113.267 -0.649928 0.288296 0
M  V30 1169 H 115.869 -1.4001 1.36445 0
M  V30 1170 H 114.573 -3.37203 2.33927 0
M  V30 1171 H 114.104 -3.87009 0.706253 0
M  V30 1172 H 116.119 -4.96148 0.0719668 0
M  V30 1173 N 115.292 -0.849877 -1.32721 0
M  V30 1174 C 116.517 -0.463856 -2.02146 0
M  V30 1175 C 116.942 0.930449 -1.63476 0
M  V30 1176 O 116.3 1.61033 -0.832952 0
M  V30 1177 C 116.348 -0.604955 -3.55489 0
M  V30 1178 O 115.452 0.36425 -4.10788 0
M  V30 1179 H 114.793 -0.187046 -0.637111 0
M  V30 1180 H 117.323 -1.14775 -1.69375 0
M  V30 1181 H 117.333 -0.490696 -4.05038 0
M  V30 1182 H 116.008 -1.62174 -3.82978 0
M  V30 1183 H 114.585 0.206628 -3.72327 0
M  V30 1184 N 116.77 1.45427 -0.607355 0
M  V30 1185 C 117.7 2.3329 0.0989352 0
M  V30 1186 C 118.681 1.46816 0.859007 0
M  V30 1187 O 119.866 1.75588 0.829604 0
M  V30 1188 C 116.996 3.29518 1.09705 0
M  V30 1189 C 115.95 4.25626 0.450206 0
M  V30 1190 C 115.276 5.11542 1.55655 0
M  V30 1191 C 116.576 5.18505 -0.628455 0
M  V30 1192 H 118.27 2.92595 -0.634716 0
M  V30 1193 H 115.816 1.40696 -0.306681 0
M  V30 1194 H 117.769 3.89855 1.59971 0
M  V30 1195 H 116.493 2.68372 1.86129 0
M  V30 1196 H 115.152 3.66586 -0.0315886 0
M  V30 1197 H 114.8 4.46765 2.31107 0
M  V30 1198 H 114.5 5.76647 1.12925 0
M  V30 1199 H 116.024 5.74748 2.06148 0
M  V30 1200 H 117.438 5.72916 -0.209877 0
M  V30 1201 H 115.835 5.92085 -0.977489 0
M  V30 1202 H 116.905 4.60948 -1.50514 0
M  V30 1203 N 118.248 0.346503 1.53744 0
M  V30 1204 C 119.664 -0.00530975 1.59599 0
M  V30 1205 C 119.864 -1.48465 1.36236 0
M  V30 1206 O 118.92 -2.24376 1.15808 0
M  V30 1207 C 120.233 0.433516 2.97559 0
M  V30 1208 C 121.781 0.386111 3.10609 0
M  V30 1209 C 122.256 0.800451 4.50951 0
M  V30 1210 N 123.747 0.754753 4.5701 0
M  V30 1211 C 124.482 1.04727 5.63755 0
M  V30 1212 N 123.978 1.4081 6.7834 0
M  V30 1213 N 125.771 0.971316 5.53644 0
M  V30 1214 H 117.922 1.31009 1.67184 0
M  V30 1215 H 120.185 0.534242 0.783128 0
M  V30 1216 H 119.891 1.46509 3.19731 0
M  V30 1217 H 119.765 -0.189753 3.76722 0
M  V30 1218 H 122.152 -0.636295 2.88158 0
M  V30 1219 H 122.233 1.04462 2.33498 0
M  V30 1220 H 121.877 1.82088 4.74137 0
M  V30 1221 H 121.807 0.119386 5.26465 0
M  V30 1222 H 124.298 0.488662 3.74727 0
M  V30 1223 H 124.611 1.61607 7.55714 0
M  V30 1224 H 122.956 1.44657 6.79779 0
M  V30 1225 H 126.147 0.688748 4.63005 0
M  V30 1226 H 126.32 1.20263 6.36742 0
M  V30 1227 N 119.726 -1.57421 0.075193 0
M  V30 1228 C 120.659 -2.08528 -0.926904 0
M  V30 1229 C 121.637 -0.991171 -1.28898 0
M  V30 1230 O 122.821 -1.26479 -1.39769 0
M  V30 1231 C 119.948 -2.54576 -2.23402 0
M  V30 1232 C 118.994 -3.75454 -2.02327 0
M  V30 1233 S 119.827 -5.19989 -1.27951 0
M  V30 1234 C 120.983 -5.69372 -2.59935 0
M  V30 1235 H 121.216 -2.932 -0.492048 0
M  V30 1236 H 118.749 -1.53785 -0.137651 0
M  V30 1237 H 120.707 -2.81767 -2.98526 0
M  V30 1238 H 119.368 -1.70166 -2.64012 0
M  V30 1239 H 118.561 -4.05675 -2.99071 0
M  V30 1240 H 118.163 -3.48654 -1.35339 0
M  V30 1241 H 120.455 -5.76424 -3.56008 0
M  V30 1242 H 121.398 -6.68207 -2.34319 0
M  V30 1243 H 121.806 -4.97205 -2.67296 0
M  V30 1244 N 121.204 0.198386 -1.56346 0
M  V30 1245 C 122.167 1.22952 -1.93431 0
M  V30 1246 C 123.167 1.38611 -0.815092 0
M  V30 1247 O 124.357 1.36479 -1.08255 0
M  V30 1248 C 121.489 2.59946 -2.20546 0
M  V30 1249 H 122.682 0.912626 -2.85677 0
M  V30 1250 H 120.235 0.43977 -1.49986 0
M  V30 1251 H 120.97 2.96696 -1.30927 0
M  V30 1252 H 120.755 2.49953 -3.02102 0
M  V30 1253 H 122.245 3.3431 -2.50253 0
M  V30 1254 N 122.682 1.50554 0.465978 0
M  V30 1255 C 123.929 1.61798 1.21768 0
M  V30 1256 C 124.257 0.320696 1.91838 0
M  V30 1257 O 123.512 -0.693724 1.82992 0
M  V30 1258 C 123.811 2.75152 2.28093 0
M  V30 1259 C 123.477 4.15454 1.75239 0
M  V30 1260 C 122.139 4.53628 1.60546 0
M  V30 1261 C 124.491 5.03121 1.36083 0
M  V30 1262 C 121.819 5.77204 1.05128 0
M  V30 1263 C 124.171 6.27249 0.821056 0
M  V30 1264 C 122.835 6.64221 0.660795 0
M  V30 1265 H 122.105 0.592063 0.445582 0
M  V30 1266 H 124.752 1.84503 0.512927 0
M  V30 1267 H 123.057 2.46556 3.04496 0
M  V30 1268 H 124.754 2.81055 2.86023 0
M  V30 1269 H 121.344 3.85341 1.87644 0
M  V30 1270 H 125.528 4.74257 1.46267 0
M  V30 1271 H 120.784 6.0452 0.91462 0
M  V30 1272 H 124.958 6.94537 0.509018 0
M  V30 1273 H 122.585 7.59854 0.229226 0
M  V30 1274 N 124.16 -0.719506 1.40217 0
M  V30 1275 C 125.406 -1.48152 1.38488 0
M  V30 1276 C 125.739 -1.94195 -0.0141867 0
M  V30 1277 O 125.014 -1.67884 -0.982096 0
M  V30 1278 C 125.297 -2.71035 2.37091 0
M  V30 1279 C 125.15 -2.30912 3.86005 0
M  V30 1280 C 126.469 -3.73182 2.33288 0
M  V30 1281 H 123.588 -0.537395 0.504357 0
M  V30 1282 H 126.23 -0.821472 1.71324 0
M  V30 1283 H 124.38 -3.27352 2.0922 0
M  V30 1284 H 126.052 -1.80107 4.24687 0
M  V30 1285 H 124.295 -1.62958 4.02029 0
M  V30 1286 H 124.966 -3.18978 4.50508 0
M  V30 1287 H 127.442 -3.26485 2.57966 0
M  V30 1288 H 126.318 -4.56806 3.04334 0
M  V30 1289 H 126.579 -4.21202 1.34317 0
M  V30 1290 N 125.638 -1.25649 -0.95132 0
M  V30 1291 C 126.866 -1.13343 -1.73092 0
M  V30 1292 C 127.281 0.312434 -1.86197 0
M  V30 1293 O 126.638 1.21465 -1.36207 0
M  V30 1294 C 126.689 -1.78602 -3.14299 0
M  V30 1295 O 126.41 -3.17537 -3.01831 0
M  V30 1296 C 127.911 -1.72119 -4.08522 0
M  V30 1297 H 125.131 -0.395181 -0.542285 0
M  V30 1298 H 127.675 -1.66076 -1.19328 0
M  V30 1299 H 125.83 -1.29832 -3.64996 0
M  V30 1300 H 126.244 -3.49676 -3.90931 0
M  V30 1301 H 127.718 -2.22435 -5.052 0
M  V30 1302 H 128.195 -0.685635 -4.33815 0
M  V30 1303 H 128.801 -2.20393 -3.63741 0
M  V30 1304 N 127.117 1.15442 -1.07289 0
M  V30 1305 C 128.342 1.90638 -0.816828 0
M  V30 1306 C 128.767 1.77445 0.624083 0
M  V30 1307 O 128.125 1.10671 1.43602 0
M  V30 1308 C 128.173 3.39008 -1.22906 0
M  V30 1309 O 127.277 4.10701 -0.373975 0
M  V30 1310 H 126.618 0.593555 -0.297638 0
M  V30 1311 H 129.148 1.46198 -1.43134 0
M  V30 1312 H 129.158 3.89801 -1.20497 0
M  V30 1313 H 127.833 3.47929 -2.27856 0
M  V30 1314 H 126.41 3.70046 -0.460499 0
M  V30 1315 N 128.595 0.856903 1.32268 0
M  V30 1316 C 129.82 0.474569 2.01897 0
M  V30 1317 C 130.245 -0.921766 1.63967 0
M  V30 1318 O 129.603 -1.60589 0.84148 0
M  V30 1319 C 129.651 0.623799 3.55164 0
M  V30 1320 O 128.755 -0.342459 4.10976 0
M  V30 1321 H 128.096 0.190422 0.63611 0
M  V30 1322 H 130.626 1.15672 1.68764 0
M  V30 1323 H 130.636 0.512169 4.04773 0
M  V30 1324 H 129.311 1.64202 3.82113 0
M  V30 1325 H 127.888 -0.18688 3.72431 0
M  V30 1326 N 130.073 -1.45103 0.615059 0
M  V30 1327 C 131.036 -2.29025 -0.0895485 0
M  V30 1328 C 132.036 -1.40174 -0.787906 0
M  V30 1329 O 133.226 -1.62217 -0.634933 0
M  V30 1330 C 130.358 -3.21376 -1.13711 0
M  V30 1331 H 131.551 -2.92807 0.648382 0
M  V30 1332 H 129.104 -1.51749 0.374444 0
M  V30 1333 H 129.839 -2.6241 -1.90556 0
M  V30 1334 H 129.624 -3.86834 -0.640475 0
M  V30 1335 H 131.114 -3.84459 -1.63036 0
M  V30 1336 N 131.551 -0.354651 -1.53558 0
M  V30 1337 C 132.514 0.484566 -2.24019 0
M  V30 1338 C 133.514 1.01861 -1.24422 0
M  V30 1339 O 134.704 0.906097 -1.4878 0
M  V30 1340 C 131.836 1.67615 -2.96847 0
M  V30 1341 H 133.029 -0.131843 -2.9961 0
M  V30 1342 H 130.582 -0.106165 -1.55939 0
M  V30 1343 H 131.317 2.33095 -2.25471 0
M  V30 1344 H 131.102 1.30029 -3.69912 0
M  V30 1345 H 132.592 2.27114 -3.50441 0
M  V30 1346 N 133.029 1.57378 -0.0835403 0
M  V30 1347 C 133.992 2.12252 0.864959 0
M  V30 1348 C 134.992 1.04916 1.21858 0
M  V30 1349 O 136.182 1.30853 1.14991 0
M  V30 1350 C 133.314 2.63358 2.16461 0
M  V30 1351 H 134.507 2.97371 0.388676 0
M  V30 1352 H 132.06 1.55423 0.165317 0
M  V30 1353 H 132.795 1.81727 2.686 0
M  V30 1354 H 132.58 3.41826 1.92087 0
M  V30 1355 H 134.07 3.05847 2.84337 0
M  V30 1356 N 134.507 -0.190092 1.56449 0
M  V30 1357 C 135.732 -0.929864 1.85387 0
M  V30 1358 C 136.157 -1.7585 0.667704 0
M  V30 1359 O 135.515 -1.77198 -0.383459 0
M  V30 1360 C 135.563 -1.79773 3.12593 0
M  V30 1361 O 134.667 -2.89713 2.93496 0
M  V30 1362 H 134.008 -0.261574 0.610307 0
M  V30 1363 H 136.538 -0.193896 2.03679 0
M  V30 1364 H 136.548 -2.20139 3.43515 0
M  V30 1365 H 135.223 -1.18892 3.98544 0
M  V30 1366 H 133.8 -2.53065 2.73884 0
M  V30 1367 N 135.985 -1.50799 -0.457987 0
M  V30 1368 C 137.231 -1.62683 -1.21088 0
M  V30 1369 C 137.564 -0.332268 -1.91336 0
M  V30 1370 O 136.839 0.667043 -1.82704 0
M  V30 1371 C 137.122 -2.81615 -2.24422 0
M  V30 1372 C 136.975 -4.20989 -1.58392 0
M  V30 1373 C 138.294 -2.96085 -3.2561 0
M  V30 1374 H 135.413 -0.592087 -0.438864 0
M  V30 1375 H 138.055 -1.83225 -0.50286 0
M  V30 1376 H 136.205 -2.64231 -2.84806 0
M  V30 1377 H 137.877 -4.49994 -1.01504 0
M  V30 1378 H 136.12 -4.24641 -0.886704 0
M  V30 1379 H 136.791 -5.0016 -2.33547 0
M  V30 1380 H 139.267 -3.12042 -2.75262 0
M  V30 1381 H 138.143 -3.80902 -3.95228 0
M  V30 1382 H 138.404 -2.0726 -3.90507 0
M  V30 1383 N 137.463 0.71206 -1.40597 0
M  V30 1384 C 138.393 1.83889 -1.43899 0
M  V30 1385 C 139.374 1.67442 -0.299504 0
M  V30 1386 O 140.559 1.87421 -0.508624 0
M  V30 1387 C 137.689 3.21877 -1.30431 0
M  V30 1388 C 136.643 3.53002 -2.42019 0
M  V30 1389 C 135.969 4.90172 -2.13626 0
M  V30 1390 C 137.269 3.53643 -3.84362 0
M  V30 1391 H 138.963 1.81383 -2.38203 0
M  V30 1392 H 136.509 0.871237 -1.14654 0
M  V30 1393 H 138.462 4.00404 -1.31357 0
M  V30 1394 H 137.186 3.24968 -0.326049 0
M  V30 1395 H 135.845 2.76818 -2.40349 0
M  V30 1396 H 135.493 4.89869 -1.14182 0
M  V30 1397 H 135.193 5.11962 -2.88389 0
M  V30 1398 H 136.717 5.71028 -2.1624 0
M  V30 1399 H 138.131 4.22203 -3.87837 0
M  V30 1400 H 136.528 3.86961 -4.58673 0
M  V30 1401 H 137.598 2.52954 -4.13693 0
M  V30 1402 N 138.941 1.26152 0.944643 0
M  V30 1403 C 140.169 1.14259 1.72489 0
M  V30 1404 C 140.584 -0.302555 1.8636 0
M  V30 1405 O 139.941 -1.20741 1.36849 0
M  V30 1406 C 139.992 1.80266 3.13347 0
M  V30 1407 O 139.713 3.19133 3.00143 0
M  V30 1408 C 141.214 1.74283 4.07603 0
M  V30 1409 H 138.434 0.398051 0.540181 0
M  V30 1410 H 140.978 1.66706 1.18446 0
M  V30 1411 H 139.133 1.31766 3.64303 0
M  V30 1412 H 139.547 3.51744 3.89071 0
M  V30 1413 H 141.021 2.25111 5.04013 0
M  V30 1414 H 141.498 0.708631 4.33446 0
M  V30 1415 H 142.104 2.22319 3.62567 0
M  V30 1416 N 140.419 -1.14872 1.07899 0
M  V30 1417 C 141.665 -1.86064 0.806725 0
M  V30 1418 C 141.998 -1.82434 -0.665706 0
M  V30 1419 O 141.273 -1.25138 -1.48899 0
M  V30 1420 C 141.556 -3.34929 1.32267 0
M  V30 1421 C 141.409 -3.47161 2.86006 0
M  V30 1422 C 142.728 -4.29863 0.943717 0
M  V30 1423 H 139.847 -0.675591 0.294526 0
M  V30 1424 H 142.489 -1.34925 1.33773 0
M  V30 1425 H 140.639 -3.78611 0.870974 0
M  V30 1426 H 142.311 -3.12302 3.39507 0
M  V30 1427 H 140.554 -2.88539 3.23925 0
M  V30 1428 H 141.225 -4.51777 3.17177 0
M  V30 1429 H 143.701 -3.9417 1.33302 0
M  V30 1430 H 142.577 -5.32494 1.33198 0
M  V30 1431 H 142.838 -4.41846 -0.149796 0
M  V30 1432 N 141.898 -0.863906 -1.31812 0
M  V30 1433 C 142.831 -0.259963 -2.26714 0
M  V30 1434 C 143.809 0.607392 -1.50829 0
M  V30 1435 O 144.993 0.562155 -1.79922 0
M  V30 1436 C 142.12 0.632456 -3.32743 0
M  V30 1437 C 141.166 -0.162743 -4.26189 0
M  V30 1438 S 141.999 -1.53726 -5.12961 0
M  V30 1439 C 143.155 -0.650803 -6.22507 0
M  V30 1440 H 143.388 -1.06445 -2.77591 0
M  V30 1441 H 140.921 -0.662071 -1.39485 0
M  V30 1442 H 142.879 1.14167 -3.94305 0
M  V30 1443 H 141.54 1.41083 -2.80632 0
M  V30 1444 H 140.733 0.517366 -5.01338 0
M  V30 1445 H 140.335 -0.60385 -3.69093 0
M  V30 1446 H 142.627 0.141134 -6.77353 0
M  V30 1447 H 143.57 -1.37322 -6.94657 0
M  V30 1448 H 143.978 -0.221041 -5.64067 0
M  V30 1449 N 143.376 1.44774 -0.622745 0
M  V30 1450 C 144.306 2.33382 0.0741861 0
M  V30 1451 C 145.287 1.47719 0.843387 0
M  V30 1452 O 146.472 1.76458 0.810934 0
M  V30 1453 C 143.602 3.30663 1.06204 0
M  V30 1454 C 142.556 4.26079 0.405037 0
M  V30 1455 C 141.882 5.13165 1.5022 0
M  V30 1456 C 143.182 5.1781 -0.683414 0
M  V30 1457 H 144.876 2.91905 -0.665713 0
M  V30 1458 H 142.422 1.40363 -0.321587 0
M  V30 1459 H 144.375 3.9153 1.55827 0
M  V30 1460 H 143.099 2.70331 1.83272 0
M  V30 1461 H 141.758 3.66532 -0.0704683 0
M  V30 1462 H 141.406 4.49191 2.26355 0
M  V30 1463 H 141.106 5.77812 1.06803 0
M  V30 1464 H 142.63 5.76902 2.00041 0
M  V30 1465 H 144.044 5.72661 -0.270631 0
M  V30 1466 H 142.441 5.91015 -1.04023 0
M  V30 1467 H 143.511 4.59326 -1.55395 0
M  V30 1468 N 144.854 0.36279 1.53368 0
M  V30 1469 C 146.103 -0.22888 2.00397 0
M  V30 1470 C 146.416 -1.50096 1.25421 0
M  V30 1471 O 147.622 -2.17106 1.63025 0
M  V30 1472 C 146.078 -0.458417 3.56969 0
M  V30 1473 C 145.686 0.798877 4.4082 0
M  V30 1474 C 147.43 -1.00789 4.12361 0
M  V30 1475 C 145.337 0.539078 5.88938 0
M  V30 1476 H 144.267 -0.089305 0.748693 0
M  V30 1477 H 146.918 0.481099 1.77081 0
M  V30 1478 H 145.3 -1.22959 3.76427 0
M  V30 1479 H 146.474 1.57262 4.33134 0
M  V30 1480 H 144.789 1.27137 3.96516 0
M  V30 1481 H 147.386 -1.21754 5.20653 0
M  V30 1482 H 147.729 -1.9692 3.66781 0
M  V30 1483 H 148.262 -0.296961 3.9669 0
M  V30 1484 H 145.001 1.47064 6.3879 0
M  V30 1485 H 144.521 -0.196222 5.99479 0
M  V30 1486 H 146.2 0.163542 6.46793 0
M  V30 1487 N 146.332 -1.57332 0.0918853 0
M  V30 1488 C 147.56 -1.98574 -0.581048 0
M  V30 1489 C 147.975 -0.970903 -1.61923 0
M  V30 1490 O 147.332 0.0399054 -1.82456 0
M  V30 1491 C 147.383 -3.39872 -1.23164 0
M  V30 1492 O 147.104 -4.37469 -0.234989 0
M  V30 1493 C 148.605 -3.96099 -1.99049 0
M  V30 1494 H 145.825 -0.65261 -0.156018 0
M  V30 1495 H 148.369 -2.0379 0.170225 0
M  V30 1496 H 146.524 -3.35679 -1.93386 0
M  V30 1497 H 146.938 -5.19751 -0.70418 0
M  V30 1498 H 148.412 -4.97127 -2.39934 0
M  V30 1499 H 148.889 -3.3374 -2.85507 0
M  V30 1500 H 149.495 -4.03755 -1.3365 0
M  V30 1501 N 147.81 0.181792 -1.56548 0
M  V30 1502 C 149.057 0.900097 -1.81396 0
M  V30 1503 C 149.385 1.82695 -0.667281 0
M  V30 1504 O 148.64 1.92614 0.346146 0
M  V30 1505 C 148.939 1.73728 -3.12335 0
M  V30 1506 C 148.605 0.960255 -4.40556 0
M  V30 1507 C 147.267 0.745766 -4.75386 0
M  V30 1508 C 149.619 0.414477 -5.19549 0
M  V30 1509 C 146.947 -0.0257694 -5.86694 0
M  V30 1510 C 149.299 -0.343916 -6.31664 0
M  V30 1511 C 147.963 -0.569301 -6.65068 0
M  V30 1512 H 147.233 0.329369 -0.663775 0
M  V30 1513 H 149.88 0.165647 -1.90782 0
M  V30 1514 H 148.185 2.54081 -2.98245 0
M  V30 1515 H 149.882 2.29591 -3.28769 0
M  V30 1516 H 146.472 1.13746 -4.13231 0
M  V30 1517 H 150.656 0.567554 -4.93044 0
M  V30 1518 H 145.912 -0.210233 -6.11038 0
M  V30 1519 H 150.086 -0.774133 -6.92084 0
M  V30 1520 H 147.713 -1.16903 -7.51158 0
M  V30 1521 N 149.288 1.51039 0.449983 0
M  V30 1522 C 150.565 1.53612 1.21089 0
M  V30 1523 C 150.945 0.292997 2.09057 0
M  V30 1524 O 150.293 -0.72259 2.16774 0
M  V30 1525 C 150.503 2.84337 2.0237 0
M  V30 1526 C 151.851 3.35807 2.59843 0
M  V30 1527 O 152.875 2.85802 2.12593 0
M  V30 1528 O 151.734 4.23029 3.45989 0
M  V30 1529 H 148.828 0.617057 0.550608 0
M  V30 1530 H 151.374 1.63344 0.460082 0
M  V30 1531 H 150.146 3.66278 1.37681 0
M  V30 1532 H 149.769 2.77708 2.84542 0
M  V30 1533 N 150.766 -0.704594 1.40972 0
M  V30 1534 C 152.182 -1.01406 1.23244 0
M  V30 1535 C 152.382 -2.01169 0.115399 0
M  V30 1536 O 151.438 -2.47021 -0.523147 0
M  V30 1537 C 152.751 -1.54728 2.57836 0
M  V30 1538 C 154.299 -1.66658 2.64942 0
M  V30 1539 C 154.774 -2.23383 3.9983 0
M  V30 1540 N 156.265 -2.30756 4.01629 0
M  V30 1541 C 157 -2.75655 5.02794 0
M  V30 1542 N 156.496 -3.20225 6.14352 0
M  V30 1543 N 158.289 -2.75138 4.90159 0
M  V30 1544 H 150.44 -0.0435285 2.12355 0
M  V30 1545 H 152.703 -0.0818951 0.944456 0
M  V30 1546 H 152.409 -0.888832 3.40283 0
M  V30 1547 H 152.283 -2.53084 2.79693 0
M  V30 1548 H 154.67 -2.31617 1.8286 0
M  V30 1549 H 154.751 -0.668717 2.46904 0
M  V30 1550 H 154.395 -1.59043 4.82357 0
M  V30 1551 H 154.325 -3.23904 4.15203 0
M  V30 1552 H 156.816 -1.99291 3.21079 0
M  V30 1553 H 157.129 -3.53084 6.87424 0
M  V30 1554 H 155.474 -3.18156 6.17901 0
M  V30 1555 H 158.665 -2.39661 4.02095 0
M  V30 1556 H 158.838 -3.09812 5.6914 0
M  V30 1557 N 152.244 -1.26651 -0.937939 0
M  V30 1558 C 153.474 -1.15006 -1.71631 0
M  V30 1559 C 153.882 0.297026 -1.86854 0
M  V30 1560 O 153.225 1.21493 -1.37786 0
M  V30 1561 C 153.287 -1.74984 -3.14039 0
M  V30 1562 C 152.951 -3.24103 -3.2219 0
M  V30 1563 C 153.948 -4.20877 -3.05219 0
M  V30 1564 C 151.633 -3.64625 -3.45476 0
M  V30 1565 C 153.627 -5.56151 -3.11408 0
M  V30 1566 C 151.314 -5.00032 -3.513 0
M  V30 1567 C 152.312 -5.95604 -3.34282 0
M  V30 1568 O 152 -7.28545 -3.3982 0
M  V30 1569 H 151.732 -0.401183 -0.544085 0
M  V30 1570 H 154.286 -1.67832 -1.18413 0
M  V30 1571 H 152.516 -1.16624 -3.68695 0
M  V30 1572 H 154.205 -1.58199 -3.73802 0
M  V30 1573 H 154.971 -3.90908 -2.87081 0
M  V30 1574 H 150.85 -2.90718 -3.57777 0
M  V30 1575 H 154.394 -6.30727 -2.98043 0
M  V30 1576 H 150.291 -5.29659 -3.68959 0
M  V30 1577 H 151.059 -7.3686 -3.56343 0
M  V30 1578 N 153.722 1.14298 -1.08507 0
M  V30 1579 C 154.652 2.21542 -0.737646 0
M  V30 1580 C 155.633 1.67773 0.280377 0
M  V30 1581 O 156.818 1.93616 0.150521 0
M  V30 1582 C 153.948 3.46988 -0.147259 0
M  V30 1583 C 152.902 4.13789 -1.09374 0
M  V30 1584 C 152.228 5.33449 -0.365524 0
M  V30 1585 C 153.528 4.62208 -2.4323 0
M  V30 1586 H 155.222 2.5086 -1.6343 0
M  V30 1587 H 152.768 1.20576 -0.787243 0
M  V30 1588 H 154.721 4.21262 0.107808 0
M  V30 1589 H 153.445 3.17037 0.784538 0
M  V30 1590 H 152.104 3.4147 -1.33393 0
M  V30 1591 H 151.752 4.99759 0.57011 0
M  V30 1592 H 151.452 5.79088 -0.996512 0
M  V30 1593 H 152.976 6.10485 -0.118534 0
M  V30 1594 H 154.39 5.27952 -2.23472 0
M  V30 1595 H 152.787 5.18553 -3.02031 0
M  V30 1596 H 153.857 3.77224 -3.04681 0
M  V30 1597 N 155.201 0.870884 1.31352 0
M  V30 1598 C 156.164 0.332243 2.26779 0
M  V30 1599 C 157.164 -0.517302 1.52252 0
M  V30 1600 O 158.354 -0.326477 1.71113 0
M  V30 1601 C 155.486 -0.528066 3.36785 0
M  V30 1602 H 156.679 1.17469 2.75937 0
M  V30 1603 H 154.232 0.64655 1.423 0
M  V30 1604 H 154.967 -1.39167 2.92922 0
M  V30 1605 H 154.752 0.0802582 3.92018 0
M  V30 1606 H 156.242 -0.897179 4.07849 0
M  V30 1607 N 156.679 -1.44442 0.630414 0
M  V30 1608 C 157.928 -2.01267 0.132073 0
M  V30 1609 C 158.241 -1.50172 -1.25331 0
M  V30 1610 O 159.447 -1.9912 -1.84562 0
M  V30 1611 C 157.903 -3.59422 0.185362 0
M  V30 1612 C 157.511 -4.19514 1.57201 0
M  V30 1613 C 159.255 -4.23724 -0.256553 0
M  V30 1614 C 157.162 -5.69891 1.58045 0
M  V30 1615 H 156.092 -0.752619 0.0456092 0
M  V30 1616 H 158.743 -1.65666 0.789106 0
M  V30 1617 H 157.125 -3.92318 -0.538759 0
M  V30 1618 H 158.299 -3.98156 2.31966 0
M  V30 1619 H 156.614 -3.67496 1.95795 0
M  V30 1620 H 159.211 -5.34019 -0.269767 0
M  V30 1621 H 159.554 -3.96013 -1.28372 0
M  V30 1622 H 160.087 -3.95629 0.41505 0
M  V30 1623 H 156.826 -6.02336 2.58597 0
M  V30 1624 H 156.346 -5.93373 0.875725 0
M  V30 1625 H 158.025 -6.33515 1.31408 0
M  V30 1626 N 158.157 -0.370918 -1.53173 0
M  V30 1627 C 159.104 0.473035 -2.259 0
M  V30 1628 C 160.074 1.07311 -1.26781 0
M  V30 1629 O 161.259 1.1046 -1.55574 0
M  V30 1630 C 158.399 1.60405 -3.05556 0
M  V30 1631 C 157.512 1.02863 -4.19575 0
M  V30 1632 C 156.647 2.12918 -4.86661 0
M  V30 1633 C 155.686 1.52869 -5.92704 0
M  V30 1634 N 154.823 2.56779 -6.53459 0
M  V30 1635 H 159.663 -0.153649 -2.97604 0
M  V30 1636 H 157.2 -0.0875946 -1.46839 0
M  V30 1637 H 159.158 2.27034 -3.50016 0
M  V30 1638 H 157.788 2.20131 -2.36097 0
M  V30 1639 H 156.84 0.252465 -3.79561 0
M  V30 1640 H 158.152 0.549642 -4.95762 0
M  V30 1641 H 157.306 2.87356 -5.34333 0
M  V30 1642 H 156.045 2.6417 -4.09958 0
M  V30 1643 H 155.05 0.769479 -5.44389 0
M  V30 1644 H 156.275 1.02435 -6.7133 0
M  V30 1645 H 154.221 3.07235 -5.79606 0
M  V30 1646 H 154.138 2.13583 -7.25202 0
M  V30 1647 H 155.406 3.30903 -7.05779 0
M  V30 1648 N 159.635 1.57281 -0.100228 0
M  V30 1649 C 160.567 2.11342 0.886972 0
M  V30 1650 C 161.58 1.05182 1.24261 0
M  V30 1651 O 162.769 1.32613 1.19483 0
M  V30 1652 C 159.869 2.5825 2.19454 0
M  V30 1653 C 159.042 3.88302 2.01346 0
M  V30 1654 C 158.101 4.21004 3.15661 0
M  V30 1655 O 157.127 4.9014 2.89398 0
M  V30 1656 N 158.329 3.76818 4.41575 0
M  V30 1657 H 161.094 2.96668 0.425216 0
M  V30 1658 H 158.655 1.61678 0.0847334 0
M  V30 1659 H 160.647 2.7717 2.94888 0
M  V30 1660 H 159.217 1.77907 2.57037 0
M  V30 1661 H 158.437 3.7848 1.10212 0
M  V30 1662 H 159.725 4.73375 1.8653 0
M  V30 1663 H 159.123 3.2102 4.65792 0
M  V30 1664 H 157.68 4.00882 5.13942 0
M  V30 1665 N 161.113 -0.173488 1.56642 0
M  V30 1666 C 162.524 -0.736155 1.71574 0
M  V30 1667 C 162.875 -1.82888 0.710389 0
M  V30 1668 O 162 -2.16017 -0.1287 0
M  V30 1669 C 162.595 -1.34211 3.11083 0
M  V30 1670 C 161.154 -1.85162 3.27707 0
M  V30 1671 C 160.301 -0.729765 2.67525 0
M  V30 1672 H 163.252 0.0518786 1.58615 0
M  V30 1673 H 163.273 -2.21178 3.09613 0
M  V30 1674 H 162.785 -0.546579 3.84232 0
M  V30 1675 H 160.886 -2.67366 2.59512 0
M  V30 1676 H 160.999 -1.99855 4.35425 0
M  V30 1677 H 159.363 -1.14965 2.27278 0
M  V30 1678 H 160.146 0.0538806 3.43258 0
M  V30 1679 N 162.591 -1.51276 -0.441967 0
M  V30 1680 C 163.838 -1.63715 -1.19179 0
M  V30 1681 C 164.166 -0.351175 -1.91303 0
M  V30 1682 O 163.421 0.664524 -1.84072 0
M  V30 1683 C 163.72 -2.78746 -2.23686 0
M  V30 1684 C 163.386 -4.18189 -1.68607 0
M  V30 1685 C 162.048 -4.56125 -1.53308 0
M  V30 1686 C 164.4 -5.05222 -1.28062 0
M  V30 1687 C 161.728 -5.78804 -0.959317 0
M  V30 1688 C 164.08 -6.28476 -0.721162 0
M  V30 1689 C 162.744 -6.65188 -0.55504 0
M  V30 1690 H 162.014 -0.599076 -0.436106 0
M  V30 1691 H 164.661 -1.85296 -0.48351 0
M  V30 1692 H 162.966 -2.51369 -3.00535 0
M  V30 1693 H 164.663 -2.8557 -2.81515 0
M  V30 1694 H 161.253 -3.88277 -1.8149 0
M  V30 1695 H 165.437 -4.76524 -1.38704 0
M  V30 1696 H 160.693 -6.05899 -0.81833 0
M  V30 1697 H 164.867 -6.95259 -0.398458 0
M  V30 1698 H 162.494 -7.60123 -0.108311 0
M  V30 1699 N 164.069 0.697108 -1.41344 0
M  V30 1700 C 165.485 1.00751 -1.2378 0
M  V30 1701 C 165.685 2.01105 -0.126066 0
M  V30 1702 O 164.741 2.47295 0.51004 0
M  V30 1703 C 166.054 1.53359 -2.58653 0
M  V30 1704 C 167.602 1.6525 -2.65822 0
M  V30 1705 C 168.077 2.2126 -4.01009 0
M  V30 1706 N 169.568 2.28622 -4.02847 0
M  V30 1707 C 170.303 2.72984 -5.04249 0
M  V30 1708 N 169.799 3.16962 -6.16041 0
M  V30 1709 N 171.592 2.72534 -4.91611 0
M  V30 1710 H 163.743 0.0322662 -2.12375 0
M  V30 1711 H 166.006 0.0768853 -0.944877 0
M  V30 1712 H 165.712 0.870773 -3.4075 0
M  V30 1713 H 165.586 2.51597 -2.81032 0
M  V30 1714 H 167.973 2.30644 -1.84086 0
M  V30 1715 H 168.054 0.655614 -2.47256 0
M  V30 1716 H 167.698 1.56482 -4.83193 0
M  V30 1717 H 167.628 3.21698 -4.16915 0
M  V30 1718 H 170.119 1.97585 -3.22131 0
M  V30 1719 H 170.432 3.49434 -6.89287 0
M  V30 1720 H 168.777 3.14875 -6.1958 0
M  V30 1721 H 171.968 2.37525 -4.0336 0
M  V30 1722 H 172.141 3.06789 -5.70775 0
M  V30 1723 N 165.547 1.27147 0.931209 0
M  V30 1724 C 166.777 1.15914 1.71019 0
M  V30 1725 C 167.185 -0.287112 1.87009 0
M  V30 1726 O 166.528 -1.20761 1.38429 0
M  V30 1727 C 166.59 1.76647 3.13107 0
M  V30 1728 C 166.254 3.25807 3.20467 0
M  V30 1729 C 167.251 4.22489 3.02983 0
M  V30 1730 C 164.936 3.66452 3.43538 0
M  V30 1731 C 166.93 5.57794 3.08454 0
M  V30 1732 C 164.617 5.01888 3.48643 0
M  V30 1733 C 165.615 5.97369 3.31119 0
M  V30 1734 O 165.303 7.30337 3.35952 0
M  V30 1735 H 165.035 0.404062 0.54195 0
M  V30 1736 H 167.589 1.68457 1.17521 0
M  V30 1737 H 165.819 1.18578 3.68071 0
M  V30 1738 H 167.508 1.60179 3.72958 0
M  V30 1739 H 168.274 3.92425 2.85004 0
M  V30 1740 H 164.153 2.92611 3.5623 0
M  V30 1741 H 167.697 6.32298 2.94694 0
M  V30 1742 H 163.594 5.31609 3.66145 0
M  V30 1743 H 164.362 7.38739 3.5243 0
M  V30 1744 N 167.025 -1.13721 1.09112 0
M  V30 1745 C 167.955 -2.21148 0.749385 0
M  V30 1746 C 168.936 -1.6792 -0.271475 0
M  V30 1747 O 170.121 -1.93693 -0.140251 0
M  V30 1748 C 167.251 -3.46905 0.165659 0
M  V30 1749 C 166.205 -4.13203 1.11567 0
M  V30 1750 C 165.531 -5.33248 0.393809 0
M  V30 1751 C 166.831 -4.60912 2.45678 0
M  V30 1752 H 168.525 -2.4999 1.64758 0
M  V30 1753 H 166.071 -1.20156 0.793626 0
M  V30 1754 H 168.024 -4.21313 -0.085466 0
M  V30 1755 H 166.748 -3.17449 -0.767714 0
M  V30 1756 H 165.407 -3.40758 1.35202 0
M  V30 1757 H 165.055 -5.00054 -0.543599 0
M  V30 1758 H 164.755 -5.78552 1.02721 0
M  V30 1759 H 166.279 -6.10413 0.150908 0
M  V30 1760 H 167.693 -5.26759 2.26269 0
M  V30 1761 H 166.09 -5.16944 3.04776 0
M  V30 1762 H 167.16 -3.75603 3.06677 0
M  V30 1763 N 168.503 -0.877838 -1.30888 0
M  V30 1764 C 169.45 -0.337538 -2.28318 0
M  V30 1765 C 170.42 0.568346 -1.56074 0
M  V30 1766 O 171.605 0.498298 -1.84178 0
M  V30 1767 C 168.745 0.448142 -3.42178 0
M  V30 1768 C 167.858 -0.48615 -4.29256 0
M  V30 1769 C 166.993 0.314427 -5.30269 0
M  V30 1770 C 166.032 -0.615791 -6.08995 0
M  V30 1771 N 165.169 0.14902 -7.01942 0
M  V30 1772 H 170.009 -1.17356 -2.73919 0
M  V30 1773 H 167.546 -0.590094 -1.34745 0
M  V30 1774 H 169.504 0.919517 -4.06941 0
M  V30 1775 H 168.134 1.24879 -2.97666 0
M  V30 1776 H 167.186 -1.076 -3.64865 0
M  V30 1777 H 168.498 -1.19909 -4.84173 0
M  V30 1778 H 167.652 0.847969 -6.00745 0
M  V30 1779 H 166.391 1.06062 -4.76027 0
M  V30 1780 H 165.396 -1.16102 -5.37401 0
M  V30 1781 H 166.621 -1.36097 -6.65323 0
M  V30 1782 H 164.567 0.877884 -6.50099 0
M  V30 1783 H 164.484 -0.504433 -7.54315 0
M  V30 1784 H 165.752 0.663537 -7.76671 0
M  V30 1785 N 169.982 1.44106 -0.638065 0
M  V30 1786 C 171.231 2.01194 -0.142744 0
M  V30 1787 C 171.544 1.50835 1.24532 0
M  V30 1788 O 172.75 2.00096 1.83504 0
M  V30 1789 C 171.206 3.59319 -0.20442 0
M  V30 1790 C 170.814 4.18674 -1.59423 0
M  V30 1791 C 172.558 4.23854 0.234079 0
M  V30 1792 C 170.465 5.69045 -1.61065 0
M  V30 1793 H 169.395 0.752367 -0.0495998 0
M  V30 1794 H 172.046 1.65246 -0.797881 0
M  V30 1795 H 170.428 3.92598 0.517946 0
M  V30 1796 H 171.602 3.96921 -2.34074 0
M  V30 1797 H 169.917 3.66453 -1.97741 0
M  V30 1798 H 172.514 5.34155 0.241443 0
M  V30 1799 H 172.857 3.96688 1.2627 0
M  V30 1800 H 173.39 3.95403 -0.436025 0
M  V30 1801 H 170.129 6.00956 -2.61787 0
M  V30 1802 H 169.649 5.929 -0.90718 0
M  V30 1803 H 171.328 6.32809 -1.34766 0
M  V30 1804 N 171.46 0.379036 1.52974 0
M  V30 1805 C 172.393 -0.504932 2.22544 0
M  V30 1806 C 173.371 -1.0723 1.22231 0
M  V30 1807 O 174.555 -1.12589 1.51182 0
M  V30 1808 C 171.682 -1.69794 2.93066 0
M  V30 1809 C 170.728 -1.25678 4.07563 0
M  V30 1810 S 171.561 -0.246852 5.34931 0
M  V30 1811 C 172.717 -1.44588 6.08971 0
M  V30 1812 H 172.95 0.0858666 2.97176 0
M  V30 1813 H 170.483 0.163183 1.53535 0
M  V30 1814 H 172.441 -2.38219 3.34308 0
M  V30 1815 H 171.102 -2.26002 2.18133 0
M  V30 1816 H 170.295 -2.14725 4.5597 0
M  V30 1817 H 169.897 -0.651584 3.6828 0
M  V30 1818 H 172.189 -2.37469 6.34519 0
M  V30 1819 H 173.132 -1.00292 7.00962 0
M  V30 1820 H 173.54 -1.65804 5.39601 0
M  V30 1821 N 172.938 -1.57226 0.108567 0
M  V30 1822 C 174.163 -1.99604 -0.563303 0
M  V30 1823 C 174.588 -0.987563 -1.6009 0
M  V30 1824 O 173.946 0.0421687 -1.81251 0
M  V30 1825 C 173.994 -3.40902 -1.17552 0
M  V30 1826 O 173.098 -3.42896 -2.2912 0
M  V30 1827 H 172.439 -0.648704 -0.1417 0
M  V30 1828 H 174.969 -2.03679 0.193961 0
M  V30 1829 H 174.979 -3.78886 -1.51357 0
M  V30 1830 H 173.654 -4.1382 -0.415445 0
M  V30 1831 H 172.231 -3.1672 -1.96832 0
M  V30 1832 N 174.416 0.165178 -1.56732 0
M  V30 1833 C 175.664 0.879068 -1.8198 0
M  V30 1834 C 175.985 1.82514 -0.686561 0
M  V30 1835 O 175.255 1.93694 0.293146 0
M  V30 1836 H 173.835 0.327608 -0.671329 0
M  V30 1837 H 176.497 0.163526 -1.94213 0
M  V30 1838 H 175.593 1.45228 -2.76252 0
M  V30 1839 N 175.894 1.51508 0.433938 0
M  V30 1840 C 177.141 1.64345 1.18309 0
M  V30 1841 C 177.469 0.361315 1.91115 0
M  V30 1842 O 176.724 -0.654753 1.84422 0
M  V30 1843 C 177.023 2.79928 2.22205 0
M  V30 1844 C 176.689 4.19078 1.66387 0
M  V30 1845 C 175.351 4.56932 1.50887 0
M  V30 1846 C 177.703 5.05894 1.25381 0
M  V30 1847 C 175.031 5.79305 0.928608 0
M  V30 1848 C 177.383 6.2885 0.687823 0
M  V30 1849 C 176.047 6.65473 0.519755 0
M  V30 1850 H 175.317 0.601381 0.432923 0
M  V30 1851 H 177.964 1.85549 0.473676 0
M  V30 1852 H 176.269 2.52959 2.99197 0
M  V30 1853 H 177.966 2.87059 2.79997 0
M  V30 1854 H 174.556 3.89234 1.79428 0
M  V30 1855 H 178.74 4.77253 1.36175 0
M  V30 1856 H 173.996 6.06324 0.786186 0
M  V30 1857 H 178.17 6.95461 0.361581 0
M  V30 1858 H 175.797 7.6017 0.0679979 0
M  V30 1859 N 177.372 -0.689602 1.41712 0
M  V30 1860 C 178.618 -1.45181 1.41599 0
M  V30 1861 C 178.951 -1.94181 0.0270081 0
M  V30 1862 O 178.226 -1.6993 -0.946265 0
M  V30 1863 C 178.509 -2.65945 2.42787 0
M  V30 1864 C 178.362 -2.22672 3.90816 0
M  V30 1865 C 179.681 -3.68149 2.41151 0
M  V30 1866 H 176.8 -0.526576 0.515642 0
M  V30 1867 H 179.442 -0.784947 1.73028 0
M  V30 1868 H 177.592 -3.2284 2.16116 0
M  V30 1869 H 179.264 -1.71058 4.28412 0
M  V30 1870 H 177.507 -1.54394 4.05395 0
M  V30 1871 H 178.178 -3.0935 4.57172 0
M  V30 1872 H 180.654 -3.2094 2.64834 0
M  V30 1873 H 179.53 -4.50248 3.13955 0
M  V30 1874 H 179.791 -4.18259 1.43221 0
M  V30 1875 N 178.85 -1.27639 -0.924453 0
M  V30 1876 C 179.813 -1.10681 -2.00705 0
M  V30 1877 C 180.813 -0.0497823 -1.60723 0
M  V30 1878 O 182.003 -0.294654 -1.7169 0
M  V30 1879 C 179.135 -0.687164 -3.33902 0
M  V30 1880 H 180.328 -2.06817 -2.17179 0
M  V30 1881 H 177.881 -1.10473 -1.10569 0
M  V30 1882 H 178.616 0.275439 -3.23128 0
M  V30 1883 H 178.401 -1.45061 -3.6428 0
M  V30 1884 H 179.891 -0.590853 -4.13399 0
M  V30 1885 N 180.328 1.1314 -1.09713 0
M  V30 1886 C 181.576 1.84119 -0.833338 0
M  V30 1887 C 181.897 1.84097 0.642904 0
M  V30 1888 O 181.167 1.29881 1.46655 0
M  V30 1889 H 179.747 0.681766 -0.305293 0
M  V30 1890 H 182.409 1.37038 -1.38588 0
M  V30 1891 H 181.505 2.88543 -1.18951 0
M  V30 1892 N 181.806 0.884767 1.30421 0
M  V30 1893 C 182.769 0.356277 2.26414 0
M  V30 1894 C 183.769 -0.501124 1.52792 0
M  V30 1895 O 184.959 -0.30831 1.7145 0
M  V30 1896 C 182.091 -0.492316 3.37326 0
M  V30 1897 H 183.284 1.20389 2.74675 0
M  V30 1898 H 180.837 0.661607 1.41607 0
M  V30 1899 H 181.572 -1.36052 2.94381 0
M  V30 1900 H 181.357 0.121832 3.91911 0
M  V30 1901 H 182.847 -0.853871 4.08777 0
M  V30 1902 N 183.284 -1.43765 0.645699 0
M  V30 1903 C 184.524 -2.03776 0.159542 0
M  V30 1904 C 184.888 -1.49792 -1.2011 0
M  V30 1905 O 186.089 -2.01398 -1.78023 0
M  V30 1906 C 184.36 -3.57036 0.161251 0
M  V30 1907 S 185.919 -4.3804 -0.258159 0
M  V30 1908 H 182.737 -0.707717 0.0682454 0
M  V30 1909 H 185.339 -1.75941 0.852352 0
M  V30 1910 H 184.043 -3.9383 1.15439 0
M  V30 1911 H 183.574 -3.89503 -0.552339 0
M  V30 1912 H 185.589 -4.7302 -1.49889 0
M  V30 1913 N 184.763 -0.387143 -1.52771 0
M  V30 1914 C 186.012 0.19697 -2.00736 0
M  V30 1915 C 186.325 1.48082 -1.27793 0
M  V30 1916 O 187.531 2.14485 -1.66458 0
M  V30 1917 C 185.987 0.401568 -3.57653 0
M  V30 1918 C 185.595 -0.868907 -4.39493 0
M  V30 1919 C 187.339 0.942164 -4.13912 0
M  V30 1920 C 185.246 -0.632705 -5.88006 0
M  V30 1921 H 184.176 0.0773827 -0.750019 0
M  V30 1922 H 186.827 -0.50921 -1.76293 0
M  V30 1923 H 185.209 1.16954 -3.78335 0
M  V30 1924 H 186.383 -1.64133 -4.30577 0
M  V30 1925 H 184.698 -1.33429 -3.94443 0
M  V30 1926 H 187.295 1.13455 -5.22525 0
M  V30 1927 H 187.638 1.9106 -3.69867 0
M  V30 1928 H 188.171 0.233814 -3.97112 0
M  V30 1929 H 184.91 -1.57208 -6.36369 0
M  V30 1930 H 184.43 0.100825 -5.99715 0
M  V30 1931 H 186.109 -0.26642 -6.46451 0
M  V30 1932 N 186.241 1.57166 -0.116904 0
M  V30 1933 C 187.204 2.14039 0.819742 0
M  V30 1934 C 188.204 1.07477 1.19605 0
M  V30 1935 O 189.394 1.33263 1.1219 0
M  V30 1936 C 186.526 2.67891 2.10826 0
M  V30 1937 H 187.719 2.98128 0.325511 0
M  V30 1938 H 185.272 1.55739 0.132312 0
M  V30 1939 H 186.007 1.87384 2.64685 0
M  V30 1940 H 185.792 3.45823 1.84793 0
M  V30 1941 H 187.282 3.11809 2.77785 0
M  V30 1942 N 187.719 -0.156864 1.56817 0
M  V30 1943 C 188.967 -0.869404 1.82444 0
M  V30 1944 C 189.288 -1.82147 0.69623 0
M  V30 1945 O 188.558 -1.93847 -0.28287 0
M  V30 1946 H 187.138 -0.324043 0.673056 0
M  V30 1947 H 189.8 -0.153224 1.94297 0
M  V30 1948 H 188.896 -1.43761 2.77019 0
M  V30 1949 N 189.197 -1.51736 -0.425897 0
M  V30 1950 C 190.127 -1.76827 -1.52494 0
M  V30 1951 C 191.108 -0.618524 -1.58456 0
M  V30 1952 O 192.293 -0.862416 -1.74 0
M  V30 1953 C 189.423 -1.90374 -2.90474 0
M  V30 1954 C 188.377 -3.0588 -2.99369 0
M  V30 1955 C 187.703 -3.04625 -4.3944 0
M  V30 1956 C 189.003 -4.45644 -2.72394 0
M  V30 1957 H 190.697 -2.68855 -1.31748 0
M  V30 1958 H 188.243 -1.29372 -0.632362 0
M  V30 1959 H 190.196 -2.0651 -3.6733 0
M  V30 1960 H 188.92 -0.95004 -3.12477 0
M  V30 1961 H 187.579 -2.89467 -2.24954 0
M  V30 1962 H 187.227 -2.0701 -4.58428 0
M  V30 1963 H 186.927 -3.82195 -4.46319 0
M  V30 1964 H 188.451 -3.22869 -5.18255 0
M  V30 1965 H 189.865 -4.62348 -3.38979 0
M  V30 1966 H 188.262 -5.25006 -2.9067 0
M  V30 1967 H 189.332 -4.54893 -1.67929 0
M  V30 1968 N 190.675 0.682077 -1.42076 0
M  V30 1969 C 191.921 1.44283 -1.43366 0
M  V30 1970 C 192.276 1.92344 -0.0465775 0
M  V30 1971 O 191.569 1.67517 0.929973 0
M  V30 1972 C 191.763 2.66036 -2.38662 0
M  V30 1973 C 191.592 2.29889 -3.86499 0
M  V30 1974 C 190.362 2.19599 -4.55087 0
M  V30 1975 C 192.56 1.91999 -4.77117 0
M  V30 1976 N 190.542 1.76478 -5.87987 0
M  V30 1977 C 191.913 1.59741 -5.99068 0
M  V30 1978 C 193.968 1.78927 -4.64639 0
M  V30 1979 C 192.671 1.15723 -7.0993 0
M  V30 1980 C 194.697 1.36314 -5.75476 0
M  V30 1981 C 194.059 1.04975 -6.96534 0
M  V30 1982 H 190.158 0.524739 -0.579805 0
M  V30 1983 H 192.742 0.787834 -1.78048 0
M  V30 1984 H 190.913 3.29237 -2.06053 0
M  V30 1985 H 192.645 3.32588 -2.30581 0
M  V30 1986 H 189.4 2.38433 -4.09202 0
M  V30 1987 H 189.824 1.57362 -6.58458 0
M  V30 1988 H 194.466 2.01805 -3.7153 0
M  V30 1989 H 192.184 0.91591 -8.02893 0
M  V30 1990 H 195.77 1.26731 -5.6783 0
M  V30 1991 H 194.65 0.725017 -7.80841 0
M  V30 1992 N 192.153 1.28127 0.917671 0
M  V30 1993 C 193.083 1.14248 2.03641 0
M  V30 1994 C 194.064 0.0412748 1.7005 0
M  V30 1995 O 195.249 0.217566 1.92977 0
M  V30 1996 C 192.379 0.799431 3.37974 0
M  V30 1997 C 191.333 1.85497 3.85713 0
M  V30 1998 C 190.659 1.36565 5.16966 0
M  V30 1999 C 191.959 3.26085 4.08002 0
M  V30 2000 H 193.653 2.07835 2.15511 0
M  V30 2001 H 191.199 1.00064 1.03553 0
M  V30 2002 H 193.152 0.689114 4.15727 0
M  V30 2003 H 191.876 -0.172145 3.26146 0
M  V30 2004 H 190.535 1.95437 3.10161 0
M  V30 2005 H 190.183 0.383253 5.01538 0
M  V30 2006 H 189.883 2.07143 5.49878 0
M  V30 2007 H 191.407 1.26848 5.97279 0
M  V30 2008 H 192.821 3.19089 4.76293 0
M  V30 2009 H 191.218 3.94462 4.52238 0
M  V30 2010 H 192.288 3.70394 3.12948 0
M  V30 2011 N 193.631 -1.12557 1.10312 0
M  V30 2012 C 194.877 -1.84311 0.846011 0
M  V30 2013 C 195.21 -1.83805 -0.626859 0
M  V30 2014 O 194.485 -1.28268 -1.46211 0
M  V30 2015 C 194.768 -3.32048 1.39341 0
M  V30 2016 C 194.621 -3.41016 2.93305 0
M  V30 2017 C 195.94 -4.27764 1.03468 0
M  V30 2018 H 193.059 -0.669192 0.30879 0
M  V30 2019 H 195.701 -1.32057 1.36605 0
M  V30 2020 H 193.851 -3.76678 0.951087 0
M  V30 2021 H 195.523 -3.05031 3.46055 0
M  V30 2022 H 193.766 -2.81603 3.29973 0
M  V30 2023 H 194.437 -4.44948 3.26689 0
M  V30 2024 H 196.913 -3.91253 1.41633 0
M  V30 2025 H 195.789 -5.29549 1.44463 0
M  V30 2026 H 196.05 -4.42064 -0.0560404 0
M  V30 2027 N 195.109 -0.891671 -1.2995 0
M  V30 2028 C 196.334 -0.527932 -2.00568 0
M  V30 2029 C 196.759 0.877969 -1.66353 0
M  V30 2030 O 196.117 1.58301 -0.883762 0
M  V30 2031 C 196.165 -0.717745 -3.53385 0
M  V30 2032 O 195.269 0.233376 -4.11739 0
M  V30 2033 H 194.61 -0.20722 -0.630837 0
M  V30 2034 H 197.14 -1.20105 -1.65638 0
M  V30 2035 H 197.15 -0.619307 -4.03272 0
M  V30 2036 H 195.825 -1.74276 -3.77625 0
M  V30 2037 H 194.402 0.0880706 -3.72796 0
M  V30 2038 N 196.587 1.43421 -0.653314 0
M  V30 2039 C 197.817 2.05864 -0.174238 0
M  V30 2040 C 198.225 1.49052 1.16534 0
M  V30 2041 O 197.568 0.616481 1.73047 0
M  V30 2042 C 197.63 3.59499 -0.00875873 0
M  V30 2043 C 197.294 4.38893 -1.27364 0
M  V30 2044 C 198.291 4.70947 -2.20239 0
M  V30 2045 C 195.976 4.789 -1.51525 0
M  V30 2046 C 197.97 5.41916 -3.35568 0
M  V30 2047 C 195.657 5.49614 -2.67147 0
M  V30 2048 C 196.655 5.81044 -3.58994 0
M  V30 2049 O 196.343 6.50313 -4.72597 0
M  V30 2050 H 196.075 0.670345 -0.0872549 0
M  V30 2051 H 198.629 1.84913 -0.894226 0
M  V30 2052 H 196.859 3.79025 0.7666 0
M  V30 2053 H 198.548 4.0364 0.427687 0
M  V30 2054 H 199.314 4.40558 -2.02815 0
M  V30 2055 H 195.193 4.53843 -0.809158 0
M  V30 2056 H 198.737 5.66365 -4.07279 0
M  V30 2057 H 194.634 5.79419 -2.84505 0
M  V30 2058 H 195.402 6.68795 -4.71864 0
M  V30 2059 N 198.065 0.39524 1.52563 0
M  V30 2060 C 198.995 -0.428384 2.29537 0
M  V30 2061 C 199.976 -1.05831 1.33169 0
M  V30 2062 O 201.161 -1.06995 1.62067 0
M  V30 2063 C 198.291 -1.55274 3.10656 0
M  V30 2064 C 197.245 -1.04855 4.14957 0
M  V30 2065 C 196.571 -2.26543 4.84337 0
M  V30 2066 C 197.871 -0.112324 5.22179 0
M  V30 2067 H 199.565 0.213867 2.98635 0
M  V30 2068 H 197.111 0.104298 1.43622 0
M  V30 2069 H 199.064 -2.1358 3.63265 0
M  V30 2070 H 197.788 -2.22266 2.39302 0
M  V30 2071 H 196.447 -0.487985 3.63338 0
M  V30 2072 H 196.095 -2.92059 4.09525 0
M  V30 2073 H 195.795 -1.93466 5.54837 0
M  V30 2074 H 197.319 -2.85481 5.39753 0
M  V30 2075 H 198.733 -0.603752 5.70112 0
M  V30 2076 H 197.13 0.128968 5.99961 0
M  V30 2077 H 198.2 0.837052 4.77621 0
M  V30 2078 N 199.544 -1.57102 0.125237 0
M  V30 2079 C 200.793 -1.94582 -0.531095 0
M  V30 2080 C 201.106 -1.01126 -1.6743 0
M  V30 2081 O 202.312 -1.28097 -2.39381 0
M  V30 2082 C 200.768 -3.45839 -0.996164 0
M  V30 2083 C 200.376 -4.47842 0.118926 0
M  V30 2084 C 202.12 -3.92227 -1.62352 0
M  V30 2085 C 200.027 -5.90284 -0.363192 0
M  V30 2086 H 198.957 -0.726391 -0.20217 0
M  V30 2087 H 201.608 -1.82339 0.206092 0
M  V30 2088 H 199.99 -3.53338 -1.78796 0
M  V30 2089 H 201.164 -4.52018 0.895358 0
M  V30 2090 H 199.479 -4.11243 0.653324 0
M  V30 2091 H 202.076 -4.96069 -1.99548 0
M  V30 2092 H 202.419 -3.32552 -2.50429 0
M  V30 2093 H 202.952 -3.87554 -0.897019 0
M  V30 2094 H 199.691 -6.53728 0.481679 0
M  V30 2095 H 199.211 -5.89515 -1.10597 0
M  V30 2096 H 200.89 -6.41752 -0.822377 0
M  V30 2097 N 201.022 0.148545 -1.56898 0
M  V30 2098 C 202.27 0.859717 -1.82902 0
M  V30 2099 C 202.591 1.81775 -0.70588 0
M  V30 2100 O 201.861 1.93994 0.272586 0
M  V30 2101 H 200.441 0.320469 -0.674766 0
M  V30 2102 H 203.103 0.142918 -1.94375 0
M  V30 2103 H 202.199 1.4229 -2.77777 0
M  V30 2104 N 202.5 1.5196 0.417844 0
M  V30 2105 C 203.747 1.65591 1.16559 0
M  V30 2106 C 204.075 0.381565 1.90721 0
M  V30 2107 O 203.33 -0.635156 1.85106 0
M  V30 2108 C 203.629 2.82269 2.19223 0
M  V30 2109 C 203.295 4.20819 1.61933 0
M  V30 2110 C 201.957 4.58506 1.46033 0
M  V30 2111 C 204.309 5.07196 1.20008 0
M  V30 2112 C 201.637 5.80257 0.867113 0
M  V30 2113 C 203.989 6.29544 0.621086 0
M  V30 2114 C 202.653 6.65987 0.449144 0
M  V30 2115 H 201.923 0.605939 0.42652 0
M  V30 2116 H 204.57 1.86041 0.45397 0
M  V30 2117 H 202.875 2.56118 2.96498 0
M  V30 2118 H 204.572 2.90012 2.76936 0
M  V30 2119 H 201.162 3.91116 1.7529 0
M  V30 2120 H 205.346 4.7867 1.31105 0
M  V30 2121 H 200.602 6.07124 0.721833 0
M  V30 2122 H 204.776 6.95805 0.287798 0
M  V30 2123 H 202.403 7.60199 -0.012632 0
M  V30 2124 N 203.978 -0.674533 1.42435 0
M  V30 2125 C 204.908 -1.80009 1.48724 0
M  V30 2126 C 205.889 -1.6659 0.343793 0
M  V30 2127 O 207.074 -1.86007 0.558137 0
M  V30 2128 C 204.204 -3.18306 1.38919 0
M  V30 2129 C 203.158 -3.46461 2.51294 0
M  V30 2130 C 202.484 -4.84335 2.26547 0
M  V30 2131 C 203.784 -3.43328 3.93603 0
M  V30 2132 H 205.478 -1.75004 2.42928 0
M  V30 2133 H 203.024 -0.840533 1.16923 0
M  V30 2134 H 204.977 -3.9678 1.41927 0
M  V30 2135 H 203.701 -3.2399 0.412094 0
M  V30 2136 H 202.36 -2.70348 2.47604 0
M  V30 2137 H 202.008 -4.86669 1.2713 0
M  V30 2138 H 201.708 -5.04136 3.01861 0
M  V30 2139 H 203.232 -5.65094 2.31304 0
M  V30 2140 H 204.646 -4.11772 3.98894 0
M  V30 2141 H 203.043 -3.74664 4.68771 0
M  V30 2142 H 204.113 -2.41897 4.20255 0
M  V30 2143 N 205.456 -1.28612 -0.910864 0
M  V30 2144 C 206.867 -1.14406 -1.47541 0
M  V30 2145 C 207.218 0.264901 -1.94403 0
M  V30 2146 O 206.343 1.15942 -1.82719 0
M  V30 2147 C 206.938 -2.07073 -2.68153 0
M  V30 2148 C 205.497 -1.96923 -3.20778 0
M  V30 2149 C 204.644 -1.98646 -1.93481 0
M  V30 2150 H 207.595 -1.41259 -0.723291 0
M  V30 2151 H 207.616 -1.63642 -3.43514 0
M  V30 2152 H 207.128 -3.09611 -2.34015 0
M  V30 2153 H 205.229 -0.97433 -3.59635 0
M  V30 2154 H 205.342 -2.84026 -3.85832 0
M  V30 2155 H 203.706 -1.43093 -2.10705 0
M  V30 2156 H 204.489 -3.02868 -1.61634 0
M  V30 2157 N 206.934 1.1197 -1.10907 0
M  V30 2158 C 207.864 2.19928 -0.784473 0
M  V30 2159 C 208.845 1.6833 0.244726 0
M  V30 2160 O 210.03 1.93892 0.109418 0
M  V30 2161 C 207.16 3.46597 -0.220827 0
M  V30 2162 C 206.114 4.11376 -1.18127 0
M  V30 2163 C 205.44 5.32554 -0.478594 0
M  V30 2164 C 206.74 4.56945 -2.52979 0
M  V30 2165 H 208.434 2.47337 -1.68715 0
M  V30 2166 H 205.98 1.18879 -0.812642 0
M  V30 2167 H 207.933 4.21396 0.0184278 0
M  V30 2168 H 206.657 3.1863 0.717113 0
M  V30 2169 H 205.316 3.38564 -1.40606 0
M  V30 2170 H 204.964 5.00856 0.463976 0
M  V30 2171 H 204.664 5.76844 -1.11912 0
M  V30 2172 H 206.188 6.10096 -0.248 0
M  V30 2173 H 207.602 5.23093 -2.3462 0
M  V30 2174 H 205.999 5.1203 -3.12962 0
M  V30 2175 H 207.069 3.70676 -3.12614 0
M  V30 2176 N 208.412 0.89855 1.29475 0
M  V30 2177 C 209.66 0.522847 1.9522 0
M  V30 2178 C 209.981 -0.93371 1.71192 0
M  V30 2179 O 209.251 -1.65823 1.04305 0
M  V30 2180 H 207.831 0.190366 0.722336 0
M  V30 2181 H 210.493 1.14459 1.5775 0
M  V30 2182 H 209.589 0.704476 3.04045 0
M  V30 2183 N 209.89 -1.43072 0.660911 0
M  V30 2184 C 211.139 -2.00942 0.174735 0
M  V30 2185 C 211.452 -1.52797 -1.22117 0
M  V30 2186 O 212.658 -2.02991 -1.80297 0
M  V30 2187 C 211.114 -3.58948 0.261559 0
M  V30 2188 C 210.722 -4.16085 1.66064 0
M  V30 2189 C 212.466 -4.24173 -0.166617 0
M  V30 2190 C 210.373 -5.6641 1.70098 0
M  V30 2191 H 209.303 -0.751483 0.0615631 0
M  V30 2192 H 211.954 -1.63955 0.824069 0
M  V30 2193 H 210.336 -3.93372 -0.455421 0
M  V30 2194 H 211.51 -3.93147 2.40359 0
M  V30 2195 H 209.825 -3.6326 2.03546 0
M  V30 2196 H 212.422 -5.34471 -0.156433 0
M  V30 2197 H 212.765 -3.98647 -1.19943 0
M  V30 2198 H 213.298 -3.94659 0.498875 0
M  V30 2199 H 210.037 -5.96715 2.71315 0
M  V30 2200 H 209.557 -5.91382 1.00139 0
M  V30 2201 H 211.236 -6.30585 1.44816 0
M  V30 2202 N 211.368 -0.403325 -1.52352 0
M  V30 2203 C 212.779 0.0675782 -1.86578 0
M  V30 2204 C 213.13 1.44941 -1.32236 0
M  V30 2205 O 212.255 2.06112 -0.659307 0
M  V30 2206 C 212.85 0.129404 -3.38553 0
M  V30 2207 C 211.409 0.544629 -3.72439 0
M  V30 2208 C 210.556 -0.284551 -2.75836 0
M  V30 2209 H 213.507 -0.620631 -1.46061 0
M  V30 2210 H 213.528 0.94581 -3.68558 0
M  V30 2211 H 213.04 -0.87645 -3.78074 0
M  V30 2212 H 211.141 1.55734 -3.38493 0
M  V30 2213 H 211.254 0.293046 -4.78203 0
M  V30 2214 H 209.618 0.252258 -2.53448 0
M  V30 2215 H 210.401 -1.28865 -3.18196 0
M  V30 2216 N 212.846 1.57033 -0.133567 0
M  V30 2217 C 213.779 2.11824 0.848872 0
M  V30 2218 C 214.757 1.03833 1.2513 0
M  V30 2219 O 215.941 1.31579 1.34978 0
M  V30 2220 C 213.068 2.62692 2.138 0
M  V30 2221 C 212.114 3.82705 1.88253 0
M  V30 2222 S 212.947 5.2438 1.08563 0
M  V30 2223 C 214.103 5.78627 2.38624 0
M  V30 2224 H 214.336 2.94824 0.38289 0
M  V30 2225 H 211.869 1.5419 0.0804796 0
M  V30 2226 H 213.827 2.92652 2.87863 0
M  V30 2227 H 212.488 1.79847 2.57515 0
M  V30 2228 H 211.681 4.16496 2.83809 0
M  V30 2229 H 211.283 3.53437 1.22305 0
M  V30 2230 H 213.575 5.8924 3.34369 0
M  V30 2231 H 214.518 6.76443 2.09358 0
M  V30 2232 H 214.926 5.06783 2.48658 0
M  V30 2233 N 214.325 -0.140222 1.56975 0
M  V30 2234 C 215.572 -0.851687 1.83719 0
M  V30 2235 C 215.9 -1.80862 0.715485 0
M  V30 2236 O 215.155 -1.93464 -0.294956 0
M  V30 2237 C 215.454 -1.65386 3.16832 0
M  V30 2238 C 215.12 -0.843112 4.42947 0
M  V30 2239 C 213.782 -0.619464 4.77196 0
M  V30 2240 C 216.134 -0.276582 5.20466 0
M  V30 2241 C 213.462 0.181312 5.8642 0
M  V30 2242 C 215.814 0.51127 6.30531 0
M  V30 2243 C 214.478 0.745432 6.63325 0
M  V30 2244 H 213.748 -0.311654 0.672274 0
M  V30 2245 H 216.395 -0.115006 1.91154 0
M  V30 2246 H 214.7 -2.46084 3.04877 0
M  V30 2247 H 216.397 -2.20793 3.34741 0
M  V30 2248 H 212.987 -1.0275 4.16101 0
M  V30 2249 H 217.171 -0.436632 4.94376 0
M  V30 2250 H 212.427 0.372165 6.10266 0
M  V30 2251 H 216.601 0.957354 6.89788 0
M  V30 2252 H 214.228 1.36778 7.47794 0
M  V30 2253 N 215.803 -1.52179 -0.40978 0
M  V30 2254 C 216.735 -1.71703 -1.51825 0
M  V30 2255 C 217.748 -0.597445 -1.51441 0
M  V30 2256 O 218.937 -0.872582 -1.55719 0
M  V30 2257 C 216.037 -1.74171 -2.90719 0
M  V30 2258 C 215.21 -3.03156 -3.15302 0
M  V30 2259 C 214.269 -2.97445 -4.34065 0
M  V30 2260 O 213.295 -3.71352 -4.31377 0
M  V30 2261 N 214.497 -2.15191 -5.39141 0
M  V30 2262 H 217.262 -2.67334 -1.35472 0
M  V30 2263 H 214.823 -1.50409 -0.599069 0
M  V30 2264 H 216.815 -1.67884 -3.68235 0
M  V30 2265 H 215.385 -0.860166 -3.00533 0
M  V30 2266 H 214.605 -3.23097 -2.25836 0
M  V30 2267 H 215.893 -3.88484 -3.28569 0
M  V30 2268 H 215.291 -1.54573 -5.44173 0
M  V30 2269 H 213.848 -2.1476 -6.15403 0
M  V30 2270 N 217.281 0.66697 -1.42791 0
M  V30 2271 C 218.213 1.7925 -1.42836 0
M  V30 2272 C 219.226 1.59496 -0.326333 0
M  V30 2273 O 220.415 1.6847 -0.589916 0
M  V30 2274 C 217.515 3.16476 -1.21229 0
M  V30 2275 C 216.688 3.63011 -2.44013 0
M  V30 2276 C 215.747 4.78993 -2.17834 0
M  V30 2277 O 214.773 4.89137 -2.91091 0
M  V30 2278 N 215.975 5.68248 -1.18635 0
M  V30 2279 H 218.74 1.79695 -2.39854 0
M  V30 2280 H 216.301 0.850338 -1.37771 0
M  V30 2281 H 218.293 3.91734 -1.01621 0
M  V30 2282 H 216.863 3.10884 -0.32706 0
M  V30 2283 H 216.083 2.78346 -2.79137 0
M  V30 2284 H 217.371 3.90845 -3.25757 0
M  V30 2285 H 216.769 5.62712 -0.580615 0
M  V30 2286 H 215.326 6.43285 -1.05013 0
M  V30 2287 N 218.759 1.29093 0.90403 0
M  V30 2288 C 219.987 1.19689 1.68766 0
M  V30 2289 C 220.402 -0.243113 1.87228 0
M  V30 2290 O 219.759 -1.16326 1.40621 0
M  V30 2291 C 219.81 1.90144 3.07453 0
M  V30 2292 O 219.531 3.2852 2.89838 0
M  V30 2293 C 221.032 1.87162 4.01852 0
M  V30 2294 H 218.252 0.415035 0.527244 0
M  V30 2295 H 220.796 1.7039 1.13082 0
M  V30 2296 H 218.951 1.43289 3.59926 0
M  V30 2297 H 219.365 3.63944 3.77684 0
M  V30 2298 H 220.839 2.41032 4.96596 0
M  V30 2299 H 221.316 0.84617 4.30972 0
M  V30 2300 H 221.922 2.33741 3.5531 0
M  V30 2301 N 220.237 -1.11381 1.11499 0
M  V30 2302 C 221.2 -2.15622 0.777153 0
M  V30 2303 C 222.2 -1.59504 -0.203779 0
M  V30 2304 O 223.39 -1.74188 0.020782 0
M  V30 2305 C 220.522 -3.40556 0.153116 0
M  V30 2306 H 221.715 -2.47021 1.70061 0
M  V30 2307 H 219.268 -1.26577 0.916952 0
M  V30 2308 H 220.003 -3.14767 -0.780536 0
M  V30 2309 H 219.788 -3.8257 0.859238 0
M  V30 2310 H 221.278 -4.17546 -0.0671044 0
M  V30 2311 N 221.715 -0.905404 -1.28997 0
M  V30 2312 C 222.945 -0.549049 -1.99171 0
M  V30 2313 C 223.353 0.87203 -1.67906 0
M  V30 2314 O 222.696 1.58796 -0.923561 0
M  V30 2315 C 222.758 -0.668306 -3.53234 0
M  V30 2316 C 222.422 -2.0574 -4.08069 0
M  V30 2317 C 223.419 -3.0292 -4.22534 0
M  V30 2318 C 221.104 -2.36833 -4.42962 0
M  V30 2319 C 223.098 -4.29314 -4.71135 0
M  V30 2320 C 220.785 -3.63467 -4.91258 0
M  V30 2321 C 221.783 -4.59522 -5.053 0
M  V30 2322 O 221.471 -5.83907 -5.52546 0
M  V30 2323 H 221.203 -0.208784 -0.64295 0
M  V30 2324 H 223.757 -1.21836 -1.65363 0
M  V30 2325 H 221.987 0.0580547 -3.86656 0
M  V30 2326 H 223.676 -0.320273 -4.04634 0
M  V30 2327 H 224.442 -2.80216 -3.95859 0
M  V30 2328 H 220.321 -1.62824 -4.31288 0
M  V30 2329 H 223.865 -5.04293 -4.8201 0
M  V30 2330 H 219.762 -3.86 -5.17372 0
M  V30 2331 H 220.53 -5.86578 -5.70849 0
M  V30 2332 N 223.193 1.4272 -0.668489 0
M  V30 2333 C 224.14 2.30796 0.0137489 0
M  V30 2334 C 225.11 1.4561 0.799177 0
M  V30 2335 O 226.295 1.74453 0.772702 0
M  V30 2336 C 223.435 3.31377 0.963507 0
M  V30 2337 C 222.548 4.31655 0.172569 0
M  V30 2338 C 221.683 5.19312 1.1175 0
M  V30 2339 C 220.722 6.11274 0.317886 0
M  V30 2340 N 219.859 6.91504 1.2152 0
M  V30 2341 H 224.699 2.88585 -0.743161 0
M  V30 2342 H 222.236 1.42154 -0.378226 0
M  V30 2343 H 224.194 3.88214 1.52792 0
M  V30 2344 H 222.824 2.75202 1.68712 0
M  V30 2345 H 221.876 3.76988 -0.508374 0
M  V30 2346 H 223.188 4.96779 -0.448527 0
M  V30 2347 H 222.342 5.80851 1.75206 0
M  V30 2348 H 221.081 4.5435 1.77249 0
M  V30 2349 H 220.086 5.48809 -0.329918 0
M  V30 2350 H 221.311 6.78283 -0.332917 0
M  V30 2351 H 219.257 6.29176 1.85671 0
M  V30 2352 H 219.174 7.53209 0.649036 0
M  V30 2353 H 220.442 7.57535 1.83742 0
M  V30 2354 N 224.671 0.411399 1.52136 0
M  V30 2355 C 225.919 -0.163322 2.01439 0
M  V30 2356 C 226.24 -1.45453 1.29879 0
M  V30 2357 O 225.51 -1.91225 0.4254 0
M  V30 2358 H 224.09 -0.0633447 0.744309 0
M  V30 2359 H 226.752 0.548161 1.87033 0
M  V30 2360 H 225.848 -0.357817 3.10042 0
M  V30 2361 N 226.149 -1.5696 0.141893 0
M  V30 2362 C 227.081 -2.13619 -0.830627 0
M  V30 2363 C 228.094 -1.08439 -1.21428 0
M  V30 2364 O 229.283 -1.35734 -1.15925 0
M  V30 2365 C 226.383 -2.63978 -2.12529 0
M  V30 2366 C 225.556 -3.93504 -1.9098 0
M  V30 2367 C 224.615 -4.29225 -3.04388 0
M  V30 2368 O 223.641 -4.97641 -2.76302 0
M  V30 2369 N 224.843 -3.88393 -4.31429 0
M  V30 2370 H 227.608 -2.97691 -0.34641 0
M  V30 2371 H 225.169 -1.61846 -0.0418375 0
M  V30 2372 H 227.161 -2.84891 -2.87436 0
M  V30 2373 H 225.731 -1.84659 -2.52229 0
M  V30 2374 H 224.951 -3.81269 -1.00139 0
M  V30 2375 H 226.239 -4.78154 -1.73914 0
M  V30 2376 H 225.637 -3.33257 -4.57117 0
M  V30 2377 H 224.194 -4.14368 -5.03133 0
M  V30 2378 N 227.627 0.131896 -1.57047 0
M  V30 2379 C 228.867 0.847972 -1.85981 0
M  V30 2380 C 229.231 1.77655 -0.7282 0
M  V30 2381 O 230.432 2.53322 -0.898968 0
M  V30 2382 C 228.703 1.58919 -3.20124 0
M  V30 2383 S 230.262 2.34862 -3.70655 0
M  V30 2384 H 227.08 0.283273 -0.652133 0
M  V30 2385 H 229.682 0.107057 -1.95207 0
M  V30 2386 H 228.386 0.898771 -4.00438 0
M  V30 2387 H 227.917 2.37073 -3.13942 0
M  V30 2388 H 229.932 3.60344 -3.41126 0
M  V30 2389 N 229.106 1.52395 0.401703 0
M  V30 2390 C 230.331 1.70972 1.17403 0
M  V30 2391 C 230.756 0.421615 1.83314 0
M  V30 2392 O 230.114 -0.621564 1.70312 0
M  V30 2393 C 230.162 2.85151 2.20728 0
M  V30 2394 O 229.266 2.51238 3.27037 0
M  V30 2395 H 228.607 0.568927 0.342372 0
M  V30 2396 H 231.137 1.99131 0.469891 0
M  V30 2397 H 231.147 3.10279 2.64936 0
M  V30 2398 H 229.822 3.78603 1.7214 0
M  V30 2399 H 228.399 2.36808 2.88057 0
M  V30 2400 N 230.584 -0.659388 1.43143 0
M  V30 2401 C 231.831 -1.41935 1.44433 0
M  V30 2402 C 232.159 -1.94387 0.0663522 0
M  V30 2403 O 231.414 -1.72314 -0.927706 0
M  V30 2404 C 231.713 -2.62206 2.42864 0
M  V30 2405 C 231.379 -2.28208 3.88886 0
M  V30 2406 C 230.041 -2.18647 4.28657 0
M  V30 2407 C 232.393 -2.00887 4.8093 0
M  V30 2408 C 229.721 -1.79914 5.58433 0
M  V30 2409 C 232.073 -1.63653 6.11065 0
M  V30 2410 C 230.737 -1.52614 6.49819 0
M  V30 2411 H 230.007 -0.519376 0.528517 0
M  V30 2412 H 232.654 -0.750453 1.76183 0
M  V30 2413 H 230.959 -3.34199 2.04495 0
M  V30 2414 H 232.656 -3.2041 2.41119 0
M  V30 2415 H 229.246 -2.36557 3.57406 0
M  V30 2416 H 233.43 -2.07198 4.5098 0
M  V30 2417 H 228.686 -1.69948 5.87305 0
M  V30 2418 H 232.86 -1.41543 6.81864 0
M  V30 2419 H 230.487 -1.22371 7.50286 0
M  V30 2420 N 232.062 -1.29571 -0.897171 0
M  V30 2421 C 233.309 -1.17689 -1.6479 0
M  V30 2422 C 233.637 0.27107 -1.92602 0
M  V30 2423 O 232.892 1.21193 -1.53658 0
M  V30 2424 C 233.191 -1.9382 -3.00281 0
M  V30 2425 C 232.857 -3.43522 -2.92068 0
M  V30 2426 C 231.519 -3.84348 -2.89535 0
M  V30 2427 C 233.871 -4.38906 -2.81089 0
M  V30 2428 C 231.199 -5.18869 -2.73846 0
M  V30 2429 C 233.551 -5.73521 -2.66939 0
M  V30 2430 C 232.215 -6.13601 -2.62774 0
M  V30 2431 H 231.485 -0.430654 -0.603008 0
M  V30 2432 H 234.132 -1.60536 -1.04404 0
M  V30 2433 H 232.437 -1.4357 -3.64547 0
M  V30 2434 H 234.134 -1.82028 -3.57305 0
M  V30 2435 H 230.724 -3.11072 -2.94842 0
M  V30 2436 H 234.908 -4.08315 -2.82121 0
M  V30 2437 H 230.164 -5.4903 -2.69027 0
M  V30 2438 H 234.338 -6.47078 -2.57416 0
M  V30 2439 H 231.965 -7.17786 -2.50375 0
M  V30 2440 N 233.54 1.10788 -1.12088 0
M  V30 2441 C 234.503 2.15207 -0.788577 0
M  V30 2442 C 235.503 1.59609 0.195317 0
M  V30 2443 O 236.693 1.74174 -0.0300193 0
M  V30 2444 C 233.825 3.4047 -0.171174 0
M  V30 2445 H 235.018 2.46116 -1.71368 0
M  V30 2446 H 232.571 1.26089 -0.923652 0
M  V30 2447 H 233.306 3.15176 0.763832 0
M  V30 2448 H 233.091 3.82109 -0.879514 0
M  V30 2449 H 234.581 4.17576 0.04496 0
M  V30 2450 N 235.018 0.912232 1.28515 0
M  V30 2451 C 236.264 0.545405 1.95328 0
M  V30 2452 C 236.597 -0.908313 1.71649 0
M  V30 2453 O 235.872 -1.64575 1.03659 0
M  V30 2454 C 236.155 0.853483 3.4984 0
M  V30 2455 C 236.008 2.35982 3.82926 0
M  V30 2456 C 237.327 0.348589 4.38717 0
M  V30 2457 H 234.446 0.199626 0.709449 0
M  V30 2458 H 237.088 1.1412 1.5191 0
M  V30 2459 H 235.238 0.34643 3.86952 0
M  V30 2460 H 236.91 2.93738 3.55691 0
M  V30 2461 H 235.153 2.81543 3.30024 0
M  V30 2462 H 235.824 2.52593 4.90816 0
M  V30 2463 H 238.3 0.78294 4.08668 0
M  V30 2464 H 237.176 0.593242 5.45685 0
M  V30 2465 H 237.437 -0.751049 4.35674 0
M  V30 2466 N 236.496 -1.42363 0.676048 0
M  V30 2467 C 237.743 -2.01522 0.19883 0
M  V30 2468 C 238.071 -1.53456 -1.19505 0
M  V30 2469 O 237.326 -0.727967 -1.81657 0
M  V30 2470 C 237.625 -3.56929 0.183431 0
M  V30 2471 C 237.291 -4.24431 1.52215 0
M  V30 2472 C 235.953 -4.42585 1.8887 0
M  V30 2473 C 238.305 -4.62459 2.40377 0
M  V30 2474 C 235.633 -4.96039 3.13309 0
M  V30 2475 C 237.985 -5.17294 3.64129 0
M  V30 2476 C 236.649 -5.33661 4.00951 0
M  V30 2477 H 235.919 -0.737419 0.0727571 0
M  V30 2478 H 238.566 -1.70531 0.871281 0
M  V30 2479 H 236.871 -3.87594 -0.572532 0
M  V30 2480 H 238.568 -4.00486 -0.203035 0
M  V30 2481 H 235.158 -4.10661 1.22701 0
M  V30 2482 H 239.342 -4.48105 2.13343 0
M  V30 2483 H 234.598 -5.06896 3.41857 0
M  V30 2484 H 238.772 -5.45704 4.32644 0
M  V30 2485 H 236.399 -5.74845 4.9745 0
M  V30 2486 N 237.974 -0.419461 -1.51915 0
M  V30 2487 C 238.924 0.418496 -2.24126 0
M  V30 2488 C 239.908 1.00495 -1.25656 0
M  V30 2489 O 241.1 0.926058 -1.50842 0
M  V30 2490 C 238.229 1.52899 -3.07371 0
M  V30 2491 C 237.315 0.952797 -4.13258 0
M  V30 2492 N 237.706 0.104175 -5.05693 0
M  V30 2493 C 236.004 1.22224 -4.28926 0
M  V30 2494 C 236.705 -0.21752 -5.81293 0
M  V30 2495 N 235.681 0.394293 -5.42168 0
M  V30 2496 H 239.483 -0.236048 -2.92951 0
M  V30 2497 H 236.997 -0.230481 -1.60756 0
M  V30 2498 H 238.994 2.14199 -3.57665 0
M  V30 2499 H 237.654 2.18605 -2.40088 0
M  V30 2500 H 238.665 -0.260924 -5.17242 0
M  V30 2501 H 235.342 1.87812 -3.72871 0
M  V30 2502 H 236.732 -0.906992 -6.6575 0
M  V30 2503 N 239.452 1.56882 -0.150215 0
M  V30 2504 C 240.863 1.82995 0.370076 0
M  V30 2505 C 241.214 1.06907 1.64515 0
M  V30 2506 O 240.339 0.315369 2.1409 0
M  V30 2507 C 240.934 3.31942 0.678208 0
M  V30 2508 C 239.493 3.58625 1.14301 0
M  V30 2509 C 238.64 2.76792 0.167778 0
M  V30 2510 H 241.591 1.54209 -0.374858 0
M  V30 2511 H 241.612 3.48272 1.53254 0
M  V30 2512 H 241.124 3.87294 -0.249991 0
M  V30 2513 H 239.225 3.08664 2.08704 0
M  V30 2514 H 239.338 4.67073 1.06676 0
M  V30 2515 H 237.702 2.45972 0.661037 0
M  V30 2516 H 238.485 3.34916 -0.754069 0
M  V30 2517 N 240.93 -0.123565 1.57115 0
M  V30 2518 C 241.88 -1.1575 1.96433 0
M  V30 2519 C 242.864 -1.37313 0.838686 0
M  V30 2520 O 244.056 -1.38482 1.10235 0
M  V30 2521 C 241.185 -2.48526 2.36833 0
M  V30 2522 C 240.271 -2.30457 3.5602 0
M  V30 2523 N 240.662 -1.8219 4.71848 0
M  V30 2524 C 238.96 -2.61129 3.61563 0
M  V30 2525 C 239.661 -1.77721 5.53886 0
M  V30 2526 N 238.637 -2.21899 4.96248 0
M  V30 2527 H 242.439 -0.776797 2.83449 0
M  V30 2528 H 239.953 -0.331364 1.58983 0
M  V30 2529 H 241.95 -3.233 2.63216 0
M  V30 2530 H 240.61 -2.87358 1.5118 0
M  V30 2531 H 241.621 -1.51805 4.95152 0
M  V30 2532 H 238.298 -3.03678 2.86507 0
M  V30 2533 H 239.688 -1.41697 6.56789 0
M  V30 2534 N 242.408 -1.52605 -0.393616 0
M  V30 2535 C 243.655 -1.67424 -1.1391 0
M  V30 2536 C 243.983 -0.411859 -1.90089 0
M  V30 2537 O 243.238 0.605626 -1.86093 0
M  V30 2538 C 243.537 -2.85721 -2.14705 0
M  V30 2539 C 243.203 -4.23342 -1.55218 0
M  V30 2540 C 241.865 -4.60771 -1.3872 0
M  V30 2541 C 244.217 -5.09041 -1.11924 0
M  V30 2542 C 241.545 -5.81563 -0.774689 0
M  V30 2543 C 243.897 -6.30452 -0.520853 0
M  V30 2544 C 242.561 -6.66617 -0.343134 0
M  V30 2545 H 241.831 -0.612648 -0.416826 0
M  V30 2546 H 244.478 -1.8674 -0.424315 0
M  V30 2547 H 242.783 -2.60803 -2.92385 0
M  V30 2548 H 244.48 -2.94382 -2.72288 0
M  V30 2549 H 241.07 -3.93855 -1.69045 0
M  V30 2550 H 245.254 -4.80695 -1.23473 0
M  V30 2551 H 240.51 -6.08196 -0.625154 0
M  V30 2552 H 244.684 -6.96175 -0.177065 0
M  V30 2553 H 242.311 -7.60083 0.133571 0
M  V30 2554 N 243.887 0.651787 -1.4349 0
M  V30 2555 C 245.133 1.41376 -1.45398 0
M  V30 2556 C 245.466 1.94041 -0.0784823 0
M  V30 2557 O 244.741 1.72379 0.900878 0
M  V30 2558 C 245.024 2.59414 -2.49752 0
M  V30 2559 C 244.877 2.12232 -3.96582 0
M  V30 2560 C 246.196 3.61626 -2.50827 0
M  V30 2561 H 243.315 0.512719 -0.529422 0
M  V30 2562 H 245.957 0.738796 -1.75048 0
M  V30 2563 H 244.107 3.16997 -2.246 0
M  V30 2564 H 245.779 1.59639 -4.32797 0
M  V30 2565 H 244.022 1.43592 -4.09346 0
M  V30 2566 H 244.693 2.9712 -4.65214 0
M  V30 2567 H 247.169 3.13805 -2.7325 0
M  V30 2568 H 246.045 4.41766 -3.25783 0
M  V30 2569 H 246.306 4.14314 -1.5426 0
M  V30 2570 N 245.365 1.30045 0.890287 0
M  V30 2571 C 246.295 1.18541 2.01172 0
M  V30 2572 C 247.276 0.0773356 1.69924 0
M  V30 2573 O 248.461 0.25845 1.92473 0
M  V30 2574 C 245.591 0.870941 3.36202 0
M  V30 2575 C 244.545 1.93637 3.81692 0
M  V30 2576 C 243.871 1.475 5.13953 0
M  V30 2577 C 245.171 3.34666 4.00994 0
M  V30 2578 H 246.865 2.12359 2.11054 0
M  V30 2579 H 244.411 1.02238 1.01407 0
M  V30 2580 H 246.364 0.777141 4.14172 0
M  V30 2581 H 245.088 -0.102926 3.26438 0
M  V30 2582 H 243.747 2.01972 3.05946 0
M  V30 2583 H 243.395 0.489551 5.00612 0
M  V30 2584 H 243.095 2.1876 5.4536 0
M  V30 2585 H 244.619 1.39489 5.94454 0
M  V30 2586 H 246.033 3.2912 4.69417 0
M  V30 2587 H 244.43 4.03966 4.43769 0
M  V30 2588 H 245.5 3.76949 3.05021 0
M  V30 2589 N 246.843 -1.10192 1.12674 0
M  V30 2590 C 248.071 -1.85983 0.906527 0
M  V30 2591 C 248.486 -1.80783 -0.544333 0
M  V30 2592 O 247.843 -1.19834 -1.37645 0
M  V30 2593 C 247.894 -3.34281 1.37618 0
M  V30 2594 O 247.615 -3.39401 2.77017 0
M  V30 2595 C 249.116 -4.26938 1.19325 0
M  V30 2596 H 246.336 -0.587716 0.323775 0
M  V30 2597 H 248.88 -1.39284 1.49734 0
M  V30 2598 H 247.035 -3.78436 0.828539 0
M  V30 2599 H 247.449 -4.31838 2.97684 0
M  V30 2600 H 248.923 -5.29181 1.57071 0
M  V30 2601 H 249.4 -4.38995 0.134097 0
M  V30 2602 H 250.006 -3.8859 1.72852 0
M  V30 2603 N 248.321 -0.919034 -1.28029 0
M  V30 2604 C 249.251 -0.428581 -2.29533 0
M  V30 2605 C 250.232 0.50659 -1.62381 0
M  V30 2606 O 251.417 0.413195 -1.89753 0
M  V30 2607 C 248.547 0.327388 -3.45753 0
M  V30 2608 C 247.501 -0.519137 -4.2484 0
M  V30 2609 C 246.827 0.365486 -5.33449 0
M  V30 2610 C 248.127 -1.77914 -4.91064 0
M  V30 2611 H 249.821 -1.27687 -2.70807 0
M  V30 2612 H 247.367 -0.615428 -1.30186 0
M  V30 2613 H 249.32 0.681378 -4.15855 0
M  V30 2614 H 248.044 1.20963 -3.03374 0
M  V30 2615 H 246.703 -0.855717 -3.56473 0
M  V30 2616 H 246.351 1.24642 -4.87312 0
M  V30 2617 H 246.051 -0.197356 -5.87268 0
M  V30 2618 H 247.575 0.715241 -6.06396 0
M  V30 2619 H 248.989 -1.49374 -5.53498 0
M  V30 2620 H 247.386 -2.2848 -5.54903 0
M  V30 2621 H 248.456 -2.50382 -4.15255 0
M  V30 2622 N 249.799 1.42003 -0.683588 0
M  V30 2623 C 251.024 2.06265 -0.216647 0
M  V30 2624 C 251.449 1.51059 1.12083 0
M  V30 2625 O 250.807 0.632638 1.69904 0
M  V30 2626 C 250.855 3.60191 -0.171759 0
M  V30 2627 O 249.959 4.03396 0.857069 0
M  V30 2628 H 249.3 0.65502 -0.108834 0
M  V30 2629 H 251.83 1.81982 -0.935077 0
M  V30 2630 H 251.84 4.08 0.0014303 0
M  V30 2631 H 250.515 3.99743 -1.14796 0
M  V30 2632 H 249.092 3.67117 0.654208 0
M  V30 2633 N 251.277 0.427512 1.51691 0
M  V30 2634 C 252.517 -0.141524 2.03909 0
M  V30 2635 C 252.881 -1.40811 1.30523 0
M  V30 2636 O 254.082 -2.05676 1.73063 0
M  V30 2637 C 252.353 -0.364962 3.55532 0
M  V30 2638 S 253.912 -0.898812 4.29496 0
M  V30 2639 H 250.73 -0.0364542 0.710065 0
M  V30 2640 H 253.332 0.584659 1.86553 0
M  V30 2641 H 252.036 0.56336 4.06515 0
M  V30 2642 H 251.567 -1.1185 3.77164 0
M  V30 2643 H 253.582 -2.17747 4.45871 0
M  V30 2644 N 252.755 -1.56801 0.158532 0
M  V30 2645 C 254.001 -1.96781 -0.490405 0
M  V30 2646 C 254.334 -1.04397 -1.63753 0
M  V30 2647 O 253.609 -0.0885805 -1.94298 0
M  V30 2648 C 253.892 -3.4635 -0.985594 0
M  V30 2649 C 253.745 -4.49512 0.160824 0
M  V30 2650 C 255.064 -3.98697 -1.86355 0
M  V30 2651 H 252.183 -0.715482 -0.176788 0
M  V30 2652 H 254.825 -1.88451 0.242088 0
M  V30 2653 H 252.975 -3.53579 -1.60978 0
M  V30 2654 H 254.647 -4.54353 0.797537 0
M  V30 2655 H 252.89 -4.26013 0.818256 0
M  V30 2656 H 253.561 -5.51531 -0.227569 0
M  V30 2657 H 256.037 -3.94019 -1.33746 0
M  V30 2658 H 254.913 -5.03792 -2.17909 0
M  V30 2659 H 255.174 -3.41744 -2.8047 0
M  V30 2660 N 254.233 0.115231 -1.57178 0
M  V30 2661 C 255.481 0.820727 -1.84685 0
M  V30 2662 C 255.802 1.80237 -0.744279 0
M  V30 2663 O 255.072 1.94529 0.231375 0
M  V30 2664 H 253.652 0.306084 -0.681411 0
M  V30 2665 H 256.314 0.101656 -1.94635 0
M  V30 2666 H 255.41 1.36366 -2.80733 0
M  V30 2667 N 255.711 1.52812 0.385517 0
M  V30 2668 C 256.958 1.68026 1.1302 0
M  V30 2669 C 257.286 0.421934 1.89868 0
M  V30 2670 O 256.541 -0.595749 1.86412 0
M  V30 2671 C 256.84 2.86856 2.13187 0
M  V30 2672 C 256.506 4.24159 1.5297 0
M  V30 2673 C 255.168 4.61501 1.36274 0
M  V30 2674 C 257.52 5.09627 1.09223 0
M  V30 2675 C 254.848 5.81966 0.743837 0
M  V30 2676 C 257.2 6.30719 0.487411 0
M  V30 2677 C 255.864 6.6679 0.307777 0
M  V30 2678 H 255.134 0.614849 0.413571 0
M  V30 2679 H 257.781 1.86962 0.414405 0
M  V30 2680 H 256.086 2.6235 2.90998 0
M  V30 2681 H 257.783 2.95821 2.70722 0
M  V30 2682 H 254.373 3.94746 1.66954 0
M  V30 2683 H 258.557 4.81343 1.20922 0
M  V30 2684 H 253.813 6.08519 0.592891 0
M  V30 2685 H 257.987 6.96259 0.140143 0
M  V30 2686 H 255.614 7.60001 -0.173879 0
M  V30 2687 N 257.189 -0.644168 1.43834 0
M  V30 2688 C 258.436 -1.40395 1.4593 0
M  V30 2689 C 258.764 -1.94305 0.0869658 0
M  V30 2690 O 258.019 -1.73288 -0.909378 0
M  V30 2691 C 258.318 -2.59615 2.45631 0
M  V30 2692 C 257.984 -2.2407 3.91284 0
M  V30 2693 C 256.646 -2.14089 4.30952 0
M  V30 2694 C 258.998 -1.95775 4.83034 0
M  V30 2695 C 256.326 -1.73981 5.6031 0
M  V30 2696 C 258.678 -1.57163 6.12766 0
M  V30 2697 C 257.342 -1.45713 6.51402 0
M  V30 2698 H 256.612 -0.513741 0.533995 0
M  V30 2699 H 259.259 -0.731724 1.76969 0
M  V30 2700 H 257.564 -3.32011 2.08028 0
M  V30 2701 H 259.261 -3.17834 2.44504 0
M  V30 2702 H 255.851 -2.32753 3.59895 0
M  V30 2703 H 260.035 -2.02403 4.53152 0
M  V30 2704 H 255.291 -1.63709 5.89075 0
M  V30 2705 H 259.465 -1.34303 6.83327 0
M  V30 2706 H 257.092 -1.14406 7.51542 0
M  V30 2707 N 258.668 -1.30515 -0.883378 0
M  V30 2708 C 260.079 -1.17509 -1.45081 0
M  V30 2709 C 260.43 0.223605 -1.94922 0
M  V30 2710 O 259.555 1.12041 -1.85137 0
M  V30 2711 C 260.15 -2.12715 -2.63701 0
M  V30 2712 C 258.709 -2.03682 -3.16529 0
M  V30 2713 C 257.856 -2.02706 -1.89224 0
M  V30 2714 H 260.807 -1.42762 -0.693165 0
M  V30 2715 H 260.828 -1.70891 -3.39965 0
M  V30 2716 H 260.34 -3.14505 -2.27395 0
M  V30 2717 H 258.441 -1.05039 -3.57488 0
M  V30 2718 H 258.554 -2.92146 -3.7972 0
M  V30 2719 H 256.918 -1.4753 -2.07622 0
M  V30 2720 H 257.701 -3.06229 -1.55174 0
M  V30 2721 N 260.146 1.09593 -1.13257 0
M  V30 2722 C 261.109 2.14359 -0.811358 0
M  V30 2723 C 262.109 1.59808 0.178377 0
M  V30 2724 O 263.299 1.74132 -0.0484911 0
M  V30 2725 C 260.431 3.40269 -0.207276 0
M  V30 2726 H 261.624 2.44284 -1.73969 0
M  V30 2727 H 259.177 1.25102 -0.936973 0
M  V30 2728 H 259.912 3.15969 0.73036 0
M  V30 2729 H 259.697 3.81154 -0.919992 0
M  V30 2730 H 261.187 4.176 0.000667944 0
M  V30 2731 N 261.624 0.925811 1.2754 0
M  V30 2732 C 262.557 0.367836 2.25216 0
M  V30 2733 C 263.535 -0.534738 1.53556 0
M  V30 2734 O 264.719 -0.475672 1.824 0
M  V30 2735 C 261.846 -0.47298 3.35381 0
M  V30 2736 C 260.892 0.365898 4.24928 0
M  V30 2737 S 261.725 1.78025 5.05042 0
M  V30 2738 C 262.881 0.947068 6.18693 0
M  V30 2739 H 263.114 1.19568 2.72196 0
M  V30 2740 H 260.647 0.727867 1.36167 0
M  V30 2741 H 262.605 -0.952242 3.99303 0
M  V30 2742 H 261.266 -1.27533 2.87044 0
M  V30 2743 H 260.459 -0.277582 5.03235 0
M  V30 2744 H 260.061 0.779261 3.65792 0
M  V30 2745 H 262.353 0.182201 6.77255 0
M  V30 2746 H 263.296 1.70309 6.87314 0
M  V30 2747 H 263.704 0.489913 5.6237 0
M  V30 2748 N 263.102 -1.41638 0.69111 0
M  V30 2749 C 264.032 -2.3347 0.037248 0
M  V30 2750 C 265.013 -1.51575 -0.771947 0
M  V30 2751 O 266.198 -1.80126 -0.72582 0
M  V30 2752 C 263.328 -3.35354 -0.903064 0
M  V30 2753 C 262.282 -4.27526 -0.201288 0
M  V30 2754 C 261.608 -5.19747 -1.25565 0
M  V30 2755 C 262.908 -5.13959 0.929689 0
M  V30 2756 H 264.602 -2.88397 0.804227 0
M  V30 2757 H 262.148 -1.38669 0.388189 0
M  V30 2758 H 264.101 -3.98519 -1.36969 0
M  V30 2759 H 262.825 -2.78767 -1.70166 0
M  V30 2760 H 261.484 -3.65779 0.245265 0
M  V30 2761 H 261.132 -4.59479 -2.04666 0
M  V30 2762 H 260.832 -5.8225 -0.791128 0
M  V30 2763 H 262.356 -5.85789 -1.72288 0
M  V30 2764 H 263.77 -5.70718 0.543546 0
M  V30 2765 H 262.167 -5.85379 1.32103 0
M  V30 2766 H 263.237 -4.51389 1.77133 0
M  V30 2767 N 264.58 -0.43555 -1.51462 0
M  V30 2768 C 265.51 0.367376 -2.30592 0
M  V30 2769 C 266.491 1.02263 -1.35928 0
M  V30 2770 O 267.676 1.02661 -1.64847 0
M  V30 2771 C 264.806 1.46983 -3.14664 0
M  V30 2772 C 263.76 0.938161 -4.17591 0
M  V30 2773 C 263.086 2.13622 -4.90173 0
M  V30 2774 C 264.386 -0.0261621 -5.22293 0
M  V30 2775 H 266.08 -0.292969 -2.97963 0
M  V30 2776 H 263.626 -0.14234 -1.43295 0
M  V30 2777 H 265.579 2.03873 -3.688 0
M  V30 2778 H 264.303 2.15843 -2.4511 0
M  V30 2779 H 262.962 0.391481 -3.64504 0
M  V30 2780 H 262.61 2.81098 -4.17124 0
M  V30 2781 H 262.31 1.78688 -5.59772 0
M  V30 2782 H 263.834 2.7107 -5.47132 0
M  V30 2783 H 265.248 0.452384 -5.71512 0
M  V30 2784 H 263.645 -0.287992 -5.99409 0
M  V30 2785 H 264.715 -0.963391 -4.75233 0
M  V30 2786 N 266.058 1.56714 -0.166846 0
M  V30 2787 C 267.305 1.96747 0.479252 0
M  V30 2788 C 267.633 1.05263 1.63554 0
M  V30 2789 O 266.888 0.0858098 1.95512 0
M  V30 2790 C 267.187 3.42889 1.00806 0
M  V30 2791 C 266.853 4.50889 -0.0318574 0
M  V30 2792 C 265.515 4.8015 -0.317675 0
M  V30 2793 C 267.867 5.15949 -0.737956 0
M  V30 2794 C 265.195 5.71772 -1.31506 0
M  V30 2795 C 267.547 6.08647 -1.72429 0
M  V30 2796 C 266.211 6.36277 -2.0176 0
M  V30 2797 H 265.481 0.719949 0.175371 0
M  V30 2798 H 268.128 1.89756 -0.257864 0
M  V30 2799 H 266.433 3.4681 1.82291 0
M  V30 2800 H 268.13 3.71203 1.51689 0
M  V30 2801 H 264.72 4.28128 0.201088 0
M  V30 2802 H 268.904 4.93458 -0.530351 0
M  V30 2803 H 264.16 5.91465 -1.54853 0
M  V30 2804 H 268.334 6.58129 -2.27682 0
M  V30 2805 H 265.961 7.07075 -2.79194 0
M  V30 2806 N 267.536 -0.106894 1.57237 0
M  V30 2807 C 268.782 -0.81373 1.85759 0
M  V30 2808 C 269.115 -1.78952 0.754315 0
M  V30 2809 O 268.39 -1.93029 -0.23879 0
M  V30 2810 C 268.673 -1.55293 3.24894 0
M  V30 2811 C 268.526 -0.595929 4.45835 0
M  V30 2812 C 269.845 -2.5063 3.61763 0
M  V30 2813 H 266.964 -0.294369 0.67566 0
M  V30 2814 H 269.606 -0.0776472 1.89841 0
M  V30 2815 H 267.756 -2.1804 3.21544 0
M  V30 2816 H 269.428 0.0236262 4.61294 0
M  V30 2817 H 267.671 0.0916191 4.33703 0
M  V30 2818 H 268.342 -1.15004 5.39887 0
M  V30 2819 H 270.818 -1.97982 3.65981 0
M  V30 2820 H 269.694 -2.99376 4.60071 0
M  V30 2821 H 269.955 -3.3385 2.89821 0
M  V30 2822 N 269.014 -1.53014 -0.377408 0
M  V30 2823 C 270.261 -1.68623 -1.12128 0
M  V30 2824 C 270.589 -0.431997 -1.89642 0
M  V30 2825 O 269.844 0.585855 -1.86725 0
M  V30 2826 C 270.143 -2.87982 -2.11663 0
M  V30 2827 C 269.809 -4.24964 -1.50719 0
M  V30 2828 C 268.471 -4.62217 -1.33825 0
M  V30 2829 C 270.823 -5.10199 -1.06519 0
M  V30 2830 C 268.151 -5.82352 -0.712963 0
M  V30 2831 C 270.503 -6.30969 -0.453955 0
M  V30 2832 C 269.167 -6.66944 -0.272411 0
M  V30 2833 H 268.437 -0.617034 -0.410305 0
M  V30 2834 H 271.084 -1.8718 -0.404484 0
M  V30 2835 H 269.389 -2.63889 -2.89603 0
M  V30 2836 H 271.086 -2.97253 -2.6915 0
M  V30 2837 H 267.676 -3.95626 -1.64858 0
M  V30 2838 H 271.86 -4.81978 -1.18368 0
M  V30 2839 H 267.116 -6.08824 -0.560611 0
M  V30 2840 H 271.29 -6.96324 -0.103217 0
M  V30 2841 H 268.917 -7.59898 0.214181 0
M  V30 2842 N 270.492 0.636531 -1.44174 0
M  V30 2843 C 271.739 1.39619 -1.46672 0
M  V30 2844 C 272.067 1.94257 -0.0972691 0
M  V30 2845 O 271.322 1.73768 0.900175 0
M  V30 2846 C 271.621 2.58309 -2.47005 0
M  V30 2847 C 271.287 2.21992 -3.92467 0
M  V30 2848 C 269.949 2.118 -4.32081 0
M  V30 2849 C 272.301 1.9321 -4.84065 0
M  V30 2850 C 269.629 1.71007 -5.61225 0
M  V30 2851 C 271.981 1.53911 -6.13591 0
M  V30 2852 C 270.645 1.42257 -6.52165 0
M  V30 2853 H 269.915 0.510902 -0.536712 0
M  V30 2854 H 272.562 0.722328 -1.77355 0
M  V30 2855 H 270.867 3.30903 -2.09786 0
M  V30 2856 H 272.564 3.16533 -2.46186 0
M  V30 2857 H 269.154 2.30841 -3.61124 0
M  V30 2858 H 273.338 1.99997 -4.54219 0
M  V30 2859 H 268.594 1.60583 -5.89935 0
M  V30 2860 H 272.768 1.30677 -6.8403 0
M  V30 2861 H 270.395 1.10419 -7.52138 0
M  V30 2862 N 271.97 1.30982 0.876444 0
M  V30 2863 C 273.2 1.23063 1.65949 0
M  V30 2864 C 273.608 -0.207537 1.88058 0
M  V30 2865 O 272.951 -1.14781 1.43426 0
M  V30 2866 C 273.013 1.89768 3.05333 0
M  V30 2867 C 272.677 3.39106 3.0636 0
M  V30 2868 C 273.674 4.3496 2.84791 0
M  V30 2869 C 271.359 3.80693 3.27686 0
M  V30 2870 C 273.353 5.70375 2.84519 0
M  V30 2871 C 271.04 5.16223 3.27043 0
M  V30 2872 C 272.038 6.10875 3.05485 0
M  V30 2873 O 271.726 7.43928 3.04674 0
M  V30 2874 H 271.458 0.426685 0.524324 0
M  V30 2875 H 274.012 1.7329 1.10271 0
M  V30 2876 H 272.242 1.34082 3.6271 0
M  V30 2877 H 273.931 1.75853 3.65829 0
M  V30 2878 H 274.697 4.0416 2.68103 0
M  V30 2879 H 270.576 3.07457 3.43499 0
M  V30 2880 H 274.12 6.44228 2.67611 0
M  V30 2881 H 270.017 5.4666 3.43269 0
M  V30 2882 H 270.785 7.53022 3.2078 0
M  V30 2883 N 273.449 -1.08991 1.13837 0
M  V30 2884 C 274.689 -1.82867 0.913183 0
M  V30 2885 C 275.053 -1.83936 -0.550604 0
M  V30 2886 O 276.254 -2.53515 -0.893515 0
M  V30 2887 C 274.525 -3.24843 1.49036 0
M  V30 2888 S 276.084 -4.15669 1.40588 0
M  V30 2889 H 272.902 -0.630278 0.329046 0
M  V30 2890 H 275.504 -1.31049 1.45073 0
M  V30 2891 H 274.208 -3.21644 2.54899 0
M  V30 2892 H 273.739 -3.81734 0.950947 0
M  V30 2893 H 275.754 -4.94686 0.387353 0
M  V30 2894 N 274.927 -0.932562 -1.27047 0
M  V30 2895 C 276.204 -0.49377 -1.89265 0
M  V30 2896 C 276.584 1.02833 -1.8436 0
M  V30 2897 O 275.932 1.88461 -1.29209 0
M  V30 2898 C 276.142 -1.04536 -3.32976 0
M  V30 2899 C 277.49 -1.10879 -4.09867 0
M  V30 2900 O 278.514 -0.995327 -3.42011 0
M  V30 2901 O 277.373 -1.28417 -5.31198 0
M  V30 2902 H 274.467 -0.159596 -0.811454 0
M  V30 2903 H 277.013 -1.02457 -1.3528 0
M  V30 2904 H 275.785 -2.08913 -3.30864 0
M  V30 2905 H 275.408 -0.496494 -3.94488 0
M  V30 2906 N 276.405 1.4127 -0.698611 0
M  V30 2907 C 277.338 2.28195 0.0153898 0
M  V30 2908 C 278.316 1.42402 0.784883 0
M  V30 2909 O 279.5 1.71828 0.775067 0
M  V30 2910 C 276.627 3.22685 1.02918 0
M  V30 2911 C 275.673 4.25041 0.352501 0
M  V30 2912 S 276.506 5.27757 -0.907322 0
M  V30 2913 C 277.662 6.25812 0.104796 0
M  V30 2914 H 277.895 2.88403 -0.721858 0
M  V30 2915 H 275.428 1.46452 -0.488996 0
M  V30 2916 H 277.386 3.77655 1.60893 0
M  V30 2917 H 276.047 2.61566 1.73902 0
M  V30 2918 H 275.24 4.91437 1.11828 0
M  V30 2919 H 274.842 3.73682 -0.154254 0
M  V30 2920 H 277.134 6.70705 0.957103 0
M  V30 2921 H 278.077 7.06149 -0.525323 0
M  V30 2922 H 278.485 5.62615 0.460931 0
M  V30 2923 N 277.883 0.443576 1.51229 0
M  V30 2924 C 278.813 -0.355142 2.30783 0
M  V30 2925 C 279.794 -1.0154 1.36468 0
M  V30 2926 O 280.979 -1.01785 1.65389 0
M  V30 2927 C 278.109 -1.45312 3.15439 0
M  V30 2928 C 277.063 -0.916002 4.18083 0
M  V30 2929 C 276.389 -2.1102 4.91299 0
M  V30 2930 C 277.689 0.0538602 5.22272 0
M  V30 2931 H 279.383 0.308767 2.97804 0
M  V30 2932 H 276.929 0.149937 1.43217 0
M  V30 2933 H 278.882 -2.01914 3.69876 0
M  V30 2934 H 277.606 -2.14541 2.46252 0
M  V30 2935 H 276.265 -0.372145 3.64706 0
M  V30 2936 H 275.913 -2.78882 4.18609 0
M  V30 2937 H 275.613 -1.75717 5.60712 0
M  V30 2938 H 277.137 -2.68164 5.48562 0
M  V30 2939 H 278.551 -0.422069 5.71744 0
M  V30 2940 H 276.948 0.319776 5.99247 0
M  V30 2941 H 278.018 0.98858 4.74716 0
M  V30 2942 N 279.361 -1.56624 0.175154 0
M  V30 2943 C 280.308 -2.18149 -0.753634 0
M  V30 2944 C 281.278 -1.12265 -1.22417 0
M  V30 2945 O 282.463 -1.40432 -1.29165 0
M  V30 2946 C 279.603 -2.82933 -1.97592 0
M  V30 2947 C 278.716 -4.03289 -1.5486 0
M  V30 2948 C 277.851 -4.55988 -2.72485 0
M  V30 2949 C 276.89 -5.68746 -2.26262 0
M  V30 2950 N 276.027 -6.15938 -3.36994 0
M  V30 2951 H 280.867 -2.9717 -0.222195 0
M  V30 2952 H 278.404 -1.46774 -0.0979422 0
M  V30 2953 H 280.362 -3.18653 -2.69288 0
M  V30 2954 H 278.992 -2.06509 -2.481 0
M  V30 2955 H 278.044 -3.73364 -0.728246 0
M  V30 2956 H 279.356 -4.849 -1.16933 0
M  V30 2957 H 278.51 -4.9391 -3.52332 0
M  V30 2958 H 277.249 -3.73443 -3.13674 0
M  V30 2959 H 276.254 -5.30372 -1.44863 0
M  V30 2960 H 277.479 -6.53095 -1.86127 0
M  V30 2961 H 275.425 -5.36321 -3.77751 0
M  V30 2962 H 275.342 -6.92548 -3.03172 0
M  V30 2963 H 276.61 -6.58511 -4.17114 0
M  V30 2964 N 280.839 0.0985539 -1.57292 0
M  V30 2965 C 282.088 0.801358 -1.85098 0
M  V30 2966 C 282.401 1.80066 -0.763902 0
M  V30 2967 O 283.607 2.55112 -0.928981 0
M  V30 2968 C 282.063 1.47599 -3.28242 0
M  V30 2969 C 281.671 0.516624 -4.45011 0
M  V30 2970 C 283.415 2.16272 -3.65276 0
M  V30 2971 C 281.322 1.19564 -5.79188 0
M  V30 2972 H 280.252 0.303022 -0.69043 0
M  V30 2973 H 282.903 0.0542623 -1.8342 0
M  V30 2974 H 281.285 2.27042 -3.2445 0
M  V30 2975 H 282.459 -0.246065 -4.60143 0
M  V30 2976 H 280.774 -0.064227 -4.1635 0
M  V30 2977 H 283.371 2.67802 -4.62803 0
M  V30 2978 H 283.714 2.95009 -2.93727 0
M  V30 2979 H 284.247 1.43693 -3.70941 0
M  V30 2980 H 280.986 0.449157 -6.53959 0
M  V30 2981 H 280.506 1.92984 -5.67906 0
M  V30 2982 H 282.185 1.7231 -6.23633 0
M  V30 2983 N 282.317 1.53212 0.369288 0
M  V30 2984 C 283.28 1.7872 1.43498 0
M  V30 2985 C 284.28 0.657554 1.46741 0
M  V30 2986 O 285.47 0.925736 1.47566 0
M  V30 2987 C 282.602 1.90591 2.82645 0
M  V30 2988 H 283.795 2.73894 1.22156 0
M  V30 2989 H 281.348 1.44233 0.602203 0
M  V30 2990 H 282.083 0.974709 3.09306 0
M  V30 2991 H 281.868 2.72751 2.8169 0
M  V30 2992 H 283.358 2.11931 3.59826 0
M  V30 2993 N 283.795 -0.628877 1.44509 0
M  V30 2994 C 285.02 -1.42048 1.5112 0
M  V30 2995 C 285.445 -1.87594 0.137818 0
M  V30 2996 O 284.803 -1.58873 -0.873437 0
M  V30 2997 C 284.851 -2.61541 2.48251 0
M  V30 2998 O 283.955 -3.61453 1.98559 0
M  V30 2999 H 283.296 -0.424942 0.510216 0
M  V30 3000 H 285.826 -0.767374 1.89664 0
M  V30 3001 H 285.836 -3.09057 2.66361 0
M  V30 3002 H 284.511 -2.27736 3.48007 0
M  V30 3003 H 283.088 -3.20731 1.90227 0
M  V30 3004 N 285.273 -1.31445 -0.869486 0
M  V30 3005 C 286.206 -1.13465 -1.97992 0
M  V30 3006 C 287.184 -0.0380291 -1.62556 0
M  V30 3007 O 288.368 -0.194544 -1.87493 0
M  V30 3008 C 285.495 -0.733822 -3.30655 0
M  V30 3009 C 284.541 -1.83356 -3.85075 0
M  V30 3010 S 285.374 -3.43909 -4.10472 0
M  V30 3011 C 286.53 -3.05763 -5.46132 0
M  V30 3012 H 286.763 -2.07471 -2.1294 0
M  V30 3013 H 284.296 -1.15936 -1.01972 0
M  V30 3014 H 286.254 -0.509306 -4.07328 0
M  V30 3015 H 284.915 0.187123 -3.13542 0
M  V30 3016 H 284.108 -1.50574 -4.80982 0
M  V30 3017 H 283.71 -2.01315 -3.15195 0
M  V30 3018 H 286.002 -2.54686 -6.27807 0
M  V30 3019 H 286.945 -4.00635 -5.83864 0
M  V30 3020 H 287.353 -2.43192 -5.09429 0
M  V30 3021 N 286.751 1.08385 -1.14413 0
M  V30 3022 C 287.701 2.13509 -0.79987 0
M  V30 3023 C 288.685 1.5951 0.211059 0
M  V30 3024 O 289.877 1.76995 0.0133694 0
M  V30 3025 C 287.006 3.42162 -0.279297 0
M  V30 3026 C 286.092 4.03042 -1.31976 0
M  V30 3027 N 286.483 4.38327 -2.52395 0
M  V30 3028 C 284.781 4.30379 -1.17004 0
M  V30 3029 C 285.482 4.86428 -3.19003 0
M  V30 3030 N 284.458 4.84547 -2.46405 0
M  V30 3031 H 288.26 2.38609 -1.7159 0
M  V30 3032 H 285.774 1.2572 -1.02802 0
M  V30 3033 H 287.771 4.16898 -0.0143688 0
M  V30 3034 H 286.431 3.18511 0.630923 0
M  V30 3035 H 287.442 4.29349 -2.89621 0
M  V30 3036 H 284.119 4.16281 -0.318854 0
M  V30 3037 H 285.509 5.23107 -4.21674 0
M  V30 3038 N 288.23 0.939286 1.26551 0
M  V30 3039 C 289.455 0.602008 1.98471 0
M  V30 3040 C 289.88 -0.815624 1.69497 0
M  V30 3041 O 289.238 -1.54912 0.941905 0
M  V30 3042 C 289.286 0.848407 3.50477 0
M  V30 3043 O 288.39 -0.0804009 4.12322 0
M  V30 3044 H 287.731 0.23049 0.622712 0
M  V30 3045 H 290.261 1.2617 1.61066 0
M  V30 3046 H 290.271 0.768553 4.00696 0
M  V30 3047 H 288.946 1.88171 3.70897 0
M  V30 3048 H 287.523 0.0503508 3.72866 0
M  V30 3049 N 289.708 -1.40897 0.706093 0
M  V30 3050 C 290.64 -2.29199 0.00815776 0
M  V30 3051 C 291.653 -1.45336 -0.733582 0
M  V30 3052 O 292.842 -1.68727 -0.582537 0
M  V30 3053 C 289.942 -3.23417 -1.01265 0
M  V30 3054 C 289.115 -4.36089 -0.338387 0
M  V30 3055 C 288.174 -5.10811 -1.26326 0
M  V30 3056 O 287.2 -5.64215 -0.751651 0
M  V30 3057 N 288.402 -5.19269 -2.595 0
M  V30 3058 H 291.167 -2.89738 0.766297 0
M  V30 3059 H 288.728 -1.52164 0.55296 0
M  V30 3060 H 290.72 -3.70276 -1.63334 0
M  V30 3061 H 289.29 -2.64112 -1.67223 0
M  V30 3062 H 288.51 -3.91479 0.462352 0
M  V30 3063 H 289.798 -5.08634 0.130031 0
M  V30 3064 H 289.196 -4.77347 -3.03573 0
M  V30 3065 H 287.753 -5.69667 -3.16737 0
M  V30 3066 N 291.186 -0.45159 -1.50991 0
M  V30 3067 C 292.118 0.388634 -2.25881 0
M  V30 3068 C 293.131 0.974041 -1.30446 0
M  V30 3069 O 294.32 0.865758 -1.56099 0
M  V30 3070 C 291.42 1.5571 -3.01011 0
M  V30 3071 C 290.593 1.08801 -4.23652 0
M  V30 3072 C 289.652 2.12825 -4.8124 0
M  V30 3073 O 288.678 1.71678 -5.42693 0
M  V30 3074 N 289.88 3.45453 -4.66522 0
M  V30 3075 H 292.645 -0.25329 -2.98628 0
M  V30 3076 H 290.206 -0.281268 -1.59438 0
M  V30 3077 H 292.198 2.24952 -3.3642 0
M  V30 3078 H 290.768 2.10409 -2.31186 0
M  V30 3079 H 289.988 0.22215 -3.93574 0
M  V30 3080 H 291.276 0.752213 -5.03209 0
M  V30 3081 H 290.674 3.81605 -4.17605 0
M  V30 3082 H 289.231 4.10549 -5.06254 0
M  V30 3083 N 292.664 1.56529 -0.183458 0
M  V30 3084 C 293.913 1.96419 0.458511 0
M  V30 3085 C 294.226 1.0727 1.63562 0
M  V30 3086 O 295.432 1.36893 2.34462 0
M  V30 3087 C 293.888 3.49298 0.867122 0
M  V30 3088 C 293.496 4.47092 -0.285057 0
M  V30 3089 C 295.24 3.97983 1.47683 0
M  V30 3090 C 293.147 5.91225 0.143862 0
M  V30 3091 H 292.077 0.733394 0.175071 0
M  V30 3092 H 294.728 1.81448 -0.273624 0
M  V30 3093 H 293.11 3.59731 1.65559 0
M  V30 3094 H 294.284 4.48383 -1.0625 0
M  V30 3095 H 292.599 4.08535 -0.805503 0
M  V30 3096 H 295.196 5.03134 1.80999 0
M  V30 3097 H 295.539 3.41618 2.37914 0
M  V30 3098 H 296.072 3.90617 0.752562 0
M  V30 3099 H 292.811 6.5149 -0.723974 0
M  V30 3100 H 292.331 5.93214 0.886413 0
M  V30 3101 H 294.01 6.44362 0.583628 0
M  V30 3102 N 294.142 -0.090211 1.57342 0
M  V30 3103 C 295.558 -0.444547 1.53284 0
M  V30 3104 C 295.758 -1.80238 0.900914 0
M  V30 3105 O 294.814 -2.4759 0.495513 0
M  V30 3106 C 296.127 -0.402543 2.97993 0
M  V30 3107 C 297.675 -0.48405 3.09234 0
M  V30 3108 C 298.15 -0.472144 4.5556 0
M  V30 3109 N 299.641 -0.532757 4.60126 0
M  V30 3110 C 300.376 -0.545462 5.708 0
M  V30 3111 N 299.872 -0.514082 6.9089 0
M  V30 3112 N 301.665 -0.59064 5.58988 0
M  V30 3113 H 293.816 0.799121 1.96794 0
M  V30 3114 H 296.079 0.297965 0.899956 0
M  V30 3115 H 295.785 0.528106 3.47712 0
M  V30 3116 H 295.659 -1.21969 3.56936 0
M  V30 3117 H 298.046 -1.40512 2.595 0
M  V30 3118 H 298.127 0.361328 2.53235 0
M  V30 3119 H 297.771 0.445 5.05947 0
M  V30 3120 H 297.701 -1.3348 5.09402 0
M  V30 3121 H 300.192 -0.562006 3.73698 0
M  V30 3122 H 300.505 -0.527195 7.71 0
M  V30 3123 H 298.85 -0.481054 6.93333 0
M  V30 3124 H 302.041 -0.61272 4.64073 0
M  V30 3125 H 302.214 -0.597073 6.45243 0
M  V30 3126 N 295.62 -1.53406 -0.361157 0
M  V30 3127 C 296.567 -1.80156 -1.44265 0
M  V30 3128 C 297.537 -0.646183 -1.53015 0
M  V30 3129 O 298.722 -0.888818 -1.68833 0
M  V30 3130 C 295.862 -2.00116 -2.81154 0
M  V30 3131 C 294.975 -3.27833 -2.81335 0
M  V30 3132 C 294.11 -3.37957 -4.09828 0
M  V30 3133 C 293.149 -4.59689 -4.04168 0
M  V30 3134 N 292.286 -4.66942 -5.24318 0
M  V30 3135 H 297.126 -2.72438 -1.20754 0
M  V30 3136 H 294.663 -1.34954 -0.585296 0
M  V30 3137 H 296.621 -2.09677 -3.60682 0
M  V30 3138 H 295.251 -1.11167 -3.03054 0
M  V30 3139 H 294.303 -3.27204 -1.94014 0
M  V30 3140 H 295.615 -4.17442 -2.73027 0
M  V30 3141 H 294.769 -3.46853 -4.97773 0
M  V30 3142 H 293.508 -2.46372 -4.20894 0
M  V30 3143 H 292.513 -4.50889 -3.14609 0
M  V30 3144 H 293.738 -5.5262 -3.947 0
M  V30 3145 H 291.684 -3.7826 -5.35962 0
M  V30 3146 H 291.601 -5.50462 -5.18197 0
M  V30 3147 H 292.869 -4.80127 -6.14084 0
M  V30 3148 N 297.098 0.621204 -1.44841 0
M  V30 3149 C 298.031 1.7459 -1.46947 0
M  V30 3150 C 299.009 1.59273 -0.327238 0
M  V30 3151 O 300.193 1.81021 -0.525706 0
M  V30 3152 C 297.32 3.12274 -1.31159 0
M  V30 3153 C 296.366 3.46216 -2.49072 0
M  V30 3154 S 297.199 3.4258 -4.11581 0
M  V30 3155 C 298.355 4.82867 -3.98233 0
M  V30 3156 H 298.588 1.72538 -2.42111 0
M  V30 3157 H 296.121 0.796683 -1.32259 0
M  V30 3158 H 298.079 3.91722 -1.22737 0
M  V30 3159 H 296.74 3.11855 -0.374885 0
M  V30 3160 H 295.933 4.4643 -2.33915 0
M  V30 3161 H 295.535 2.74253 -2.54286 0
M  V30 3162 H 297.827 5.7234 -3.62537 0
M  V30 3163 H 298.77 5.0308 -4.98313 0
M  V30 3164 H 299.178 4.57908 -3.30121 0
M  V30 3165 N 298.576 1.31904 0.862503 0
M  V30 3166 C 299.486 1.22161 2.00285 0
M  V30 3167 C 300.502 0.136785 1.73462 0
M  V30 3168 O 301.678 0.355994 1.98229 0
M  V30 3169 C 298.743 0.937093 3.33796 0
M  V30 3170 C 297.804 2.10957 3.73893 0
M  V30 3171 C 297.037 1.83853 5.01033 0
M  V30 3172 O 297.26 0.777274 5.65079 0
M  V30 3173 O 296.194 2.69741 5.38074 0
M  V30 3174 H 300.02 2.18008 2.11439 0
M  V30 3175 H 297.605 1.11716 0.991957 0
M  V30 3176 H 299.487 0.794583 4.13841 0
M  V30 3177 H 298.162 0.00871894 3.23699 0
M  V30 3178 H 297.069 2.30752 2.94456 0
M  V30 3179 H 298.402 3.02046 3.88625 0
M  V30 3180 N 300.054 -1.07777 1.14986 0
M  V30 3181 C 301.004 -2.13082 0.811181 0
M  V30 3182 C 301.988 -1.59619 -0.202597 0
M  V30 3183 O 303.18 -1.77 -0.00398275 0
M  V30 3184 C 300.309 -3.42009 0.297439 0
M  V30 3185 C 299.395 -4.02337 1.34112 0
M  V30 3186 N 299.786 -4.36982 2.54716 0
M  V30 3187 C 298.084 -4.29752 1.19285 0
M  V30 3188 C 298.785 -4.84729 3.21578 0
M  V30 3189 N 297.761 -4.83233 2.48972 0
M  V30 3190 H 301.563 -2.37696 1.72853 0
M  V30 3191 H 299.077 -1.25173 1.03468 0
M  V30 3192 H 301.074 -4.16884 0.0364777 0
M  V30 3193 H 299.734 -3.18841 -0.614022 0
M  V30 3194 H 300.745 -4.27807 2.91894 0
M  V30 3195 H 297.422 -4.16106 0.340926 0
M  V30 3196 H 298.812 -5.20863 4.24442 0
M  V30 3197 N 301.532 -0.945985 -1.26051 0
M  V30 3198 C 302.495 -0.463897 -2.24456 0
M  V30 3199 C 303.495 0.427655 -1.55009 0
M  V30 3200 O 304.685 0.226157 -1.72726 0
M  V30 3201 C 301.817 0.330812 -3.39291 0
M  V30 3202 H 303.01 -1.33357 -2.68619 0
M  V30 3203 H 300.563 -0.728416 -1.38289 0
M  V30 3204 H 301.298 1.21852 -3.00537 0
M  V30 3205 H 301.083 -0.308679 -3.90883 0
M  V30 3206 H 302.573 0.657865 -4.12386 0
M  V30 3207 N 303.011 1.40521 -0.713556 0
M  V30 3208 C 304.259 2.00527 -0.251692 0
M  V30 3209 C 304.58 1.56857 1.15848 0
M  V30 3210 O 303.85 0.807127 1.785 0
M  V30 3211 H 302.43 0.741551 -0.0900646 0
M  V30 3212 H 305.092 1.71887 -0.918733 0
M  V30 3213 H 304.188 3.10813 -0.283192 0
M  V30 3214 N 304.489 0.459591 1.5075 0
M  V30 3215 C 305.452 -0.329093 2.26825 0
M  V30 3216 C 306.452 -0.930481 1.31144 0
M  V30 3217 O 307.642 -0.801453 1.54669 0
M  V30 3218 C 304.774 -1.46768 3.07688 0
M  V30 3219 H 305.967 0.337924 2.9799 0
M  V30 3220 H 303.52 0.213336 1.54837 0
M  V30 3221 H 304.255 -2.17009 2.40993 0
M  V30 3222 H 304.04 -1.04238 3.77991 0
M  V30 3223 H 305.53 -2.02433 3.65254 0
M  V30 3224 N 305.967 -1.56429 0.191757 0
M  V30 3225 C 306.9 -2.14829 -0.76967 0
M  V30 3226 C 307.878 -1.08405 -1.2119 0
M  V30 3227 O 309.062 -1.36498 -1.30002 0
M  V30 3228 C 306.189 -2.70446 -2.03903 0
M  V30 3229 C 305.235 -3.89428 -1.7392 0
M  V30 3230 S 306.068 -5.28048 -0.890265 0
M  V30 3231 C 307.224 -5.87085 -2.16984 0
M  V30 3232 H 307.457 -2.96042 -0.273204 0
M  V30 3233 H 304.99 -1.54383 -0.0231975 0
M  V30 3234 H 306.948 -3.03134 -2.76803 0
M  V30 3235 H 305.609 -1.89281 -2.50662 0
M  V30 3236 H 304.802 -4.26742 -2.68155 0
M  V30 3237 H 304.404 -3.57732 -1.09103 0
M  V30 3238 H 306.696 -6.01244 -3.12269 0
M  V30 3239 H 307.639 -6.83747 -1.84108 0
M  V30 3240 H 308.047 -5.15663 -2.29678 0
M  V30 3241 N 307.445 0.0818655 -1.57387 0
M  V30 3242 C 308.408 1.08265 -2.02018 0
M  V30 3243 C 309.408 1.32183 -0.915664 0
M  V30 3244 O 310.598 1.28073 -1.18081 0
M  V30 3245 C 307.73 2.42871 -2.39221 0
M  V30 3246 H 308.923 0.698204 -2.91659 0
M  V30 3247 H 306.476 0.327303 -1.52835 0
M  V30 3248 H 307.211 2.86167 -1.52575 0
M  V30 3249 H 306.996 2.26855 -3.19811 0
M  V30 3250 H 308.486 3.14826 -2.74362 0
M  V30 3251 N 308.923 1.53595 0.353017 0
M  V30 3252 C 310.171 1.70049 1.09215 0
M  V30 3253 C 310.492 0.461406 1.89463 0
M  V30 3254 O 309.762 -0.524633 1.88744 0
M  V30 3255 H 308.342 0.626912 0.40619 0
M  V30 3256 H 311.004 1.90822 0.396585 0
M  V30 3257 H 310.1 2.56718 1.77488 0
M  V30 3258 N 310.401 -0.613514 1.45168 0
M  V30 3259 C 311.649 -1.36997 1.48581 0
M  V30 3260 C 311.97 -1.94589 0.126545 0
M  V30 3261 O 311.24 -1.76816 -0.843372 0
M  V30 3262 H 309.82 -0.508558 0.547154 0
M  V30 3263 H 312.482 -0.720853 1.81079 0
M  V30 3264 H 311.578 -2.1924 2.22127 0
M  V30 3265 N 311.879 -1.3236 -0.855495 0
M  V30 3266 C 313.109 -1.25688 -1.6397 0
M  V30 3267 C 313.517 0.177592 -1.88365 0
M  V30 3268 O 312.86 1.12485 -1.45234 0
M  V30 3269 C 312.922 -1.94602 -3.02275 0
M  V30 3270 C 312.586 -3.43937 -3.00926 0
M  V30 3271 C 313.583 -4.39435 -2.77835 0
M  V30 3272 C 311.268 -3.85858 -3.21588 0
M  V30 3273 C 313.262 -5.74829 -2.75409 0
M  V30 3274 C 310.949 -5.21361 -3.18789 0
M  V30 3275 C 311.947 -6.15658 -2.95727 0
M  V30 3276 O 311.635 -7.48681 -2.928 0
M  V30 3277 H 311.367 -0.434972 -0.51747 0
M  V30 3278 H 313.921 -1.75023 -1.075 0
M  V30 3279 H 312.151 -1.39836 -3.60531 0
M  V30 3280 H 313.84 -1.81651 -3.62985 0
M  V30 3281 H 314.606 -4.08374 -2.6164 0
M  V30 3282 H 310.485 -3.12883 -3.38564 0
M  V30 3283 H 314.029 -6.48404 -2.57328 0
M  V30 3284 H 309.926 -5.52052 -3.34528 0
M  V30 3285 H 310.694 -7.5803 -3.0876 0
M  V30 3286 N 313.357 1.07166 -1.15556 0
M  V30 3287 C 314.773 1.31899 -0.898603 0
M  V30 3288 C 314.973 1.96333 0.453383 0
M  V30 3289 O 314.029 2.22438 1.19489 0
M  V30 3290 C 315.342 2.20826 -2.04099 0
M  V30 3291 C 316.89 2.34269 -2.07574 0
M  V30 3292 C 317.365 3.26546 -3.21141 0
M  V30 3293 N 318.856 3.34127 -3.20801 0
M  V30 3294 C 319.591 4.05595 -4.05315 0
M  V30 3295 N 319.087 4.79661 -4.99897 0
M  V30 3296 N 320.88 4.01555 -3.93332 0
M  V30 3297 H 313.031 0.637302 -2.02613 0
M  V30 3298 H 315.294 0.343468 -0.883591 0
M  V30 3299 H 315 1.80744 -3.01703 0
M  V30 3300 H 314.874 3.21364 -1.97496 0
M  V30 3301 H 317.261 2.73603 -1.10568 0
M  V30 3302 H 317.342 1.33429 -2.18244 0
M  V30 3303 H 316.986 2.87931 -4.184 0
M  V30 3304 H 316.916 4.27345 -3.07708 0
M  V30 3305 H 319.407 2.81336 -2.52306 0
M  V30 3306 H 319.72 5.31694 -5.60822 0
M  V30 3307 H 318.065 4.78671 -5.03884 0
M  V30 3308 H 321.256 3.42806 -3.18751 0
M  V30 3309 H 321.429 4.56987 -4.5942 0
M  V30 3310 N 314.835 0.952656 1.25548 0
M  V30 3311 C 316.06 0.623025 1.97821 0
M  V30 3312 C 316.485 -0.7976 1.70352 0
M  V30 3313 O 315.843 -1.53905 0.958283 0
M  V30 3314 C 315.891 0.885532 3.49558 0
M  V30 3315 O 314.995 -0.0366641 4.12384 0
M  V30 3316 H 314.336 0.237082 0.620232 0
M  V30 3317 H 316.866 1.27871 1.59719 0
M  V30 3318 H 316.876 0.811009 3.99858 0
M  V30 3319 H 315.551 1.92094 3.6888 0
M  V30 3320 H 314.128 0.0898954 3.72792 0
M  V30 3321 N 316.313 -1.40141 0.720998 0
M  V30 3322 C 317.724 -1.83678 0.334553 0
M  V30 3323 C 318.075 -1.6027 -1.13173 0
M  V30 3324 O 317.2 -1.08643 -1.87152 0
M  V30 3325 C 317.795 -3.33437 0.600437 0
M  V30 3326 C 316.354 -3.75447 0.267642 0
M  V30 3327 C 315.501 -2.63296 0.870097 0
M  V30 3328 H 318.452 -1.29331 0.919732 0
M  V30 3329 H 318.473 -3.80269 -0.132517 0
M  V30 3330 H 317.985 -3.50442 1.66768 0
M  V30 3331 H 316.086 -3.64035 -0.794329 0
M  V30 3332 H 316.199 -4.73344 0.74042 0
M  V30 3333 H 314.563 -2.52954 0.297739 0
M  V30 3334 H 315.346 -2.83112 1.94172 0
M  V30 3335 N 317.792 -0.46758 -1.50504 0
M  V30 3336 C 319.208 -0.121533 -1.59137 0
M  V30 3337 C 319.408 1.3717 -1.47603 0
M  V30 3338 O 318.464 2.14464 -1.33272 0
M  V30 3339 C 319.777 -0.6686 -2.93173 0
M  V30 3340 C 321.325 -0.631716 -3.06559 0
M  V30 3341 C 321.8 -1.15627 -4.43164 0
M  V30 3342 N 323.291 -1.11553 -4.49567 0
M  V30 3343 C 324.026 -1.49195 -5.5365 0
M  V30 3344 N 323.522 -1.94269 -6.65005 0
M  V30 3345 N 325.315 -1.4082 -5.44175 0
M  V30 3346 H 317.466 -1.4388 -1.56245 0
M  V30 3347 H 319.729 -0.594784 -0.738198 0
M  V30 3348 H 319.435 -1.71453 -3.07078 0
M  V30 3349 H 319.309 -0.11021 -3.77039 0
M  V30 3350 H 321.696 0.405297 -2.92304 0
M  V30 3351 H 321.777 -1.22687 -2.24458 0
M  V30 3352 H 321.421 -2.1919 -4.58168 0
M  V30 3353 H 321.351 -0.537365 -5.23851 0
M  V30 3354 H 323.842 -0.784895 -3.69659 0
M  V30 3355 H 324.155 -2.21148 -7.40482 0
M  V30 3356 H 322.5 -1.98219 -6.66134 0
M  V30 3357 H 325.691 -1.0545 -4.56068 0
M  V30 3358 H 325.864 -1.70481 -6.25172 0
M  V30 3359 N 319.27 1.56325 -0.20005 0
M  V30 3360 C 320.498 2.02105 0.442874 0
M  V30 3361 C 320.913 1.08014 1.5485 0
M  V30 3362 O 320.27 0.0858797 1.82298 0
M  V30 3363 C 320.321 3.47549 0.994583 0
M  V30 3364 O 320.042 4.38049 -0.0669322 0
M  V30 3365 C 321.543 4.0887 1.7129 0
M  V30 3366 H 318.763 0.661807 0.110691 0
M  V30 3367 H 321.307 2.02134 -0.310207 0
M  V30 3368 H 319.462 3.48204 1.69803 0
M  V30 3369 H 319.876 5.23368 0.344462 0
M  V30 3370 H 321.35 5.12475 2.05118 0
M  V30 3371 H 321.827 3.52615 2.61838 0
M  V30 3372 H 322.433 4.12002 1.05518 0
M  V30 3373 N 320.748 -0.0735177 1.57428 0
M  V30 3374 C 322.159 -0.625551 1.75908 0
M  V30 3375 C 322.51 -1.78 0.825261 0
M  V30 3376 O 321.635 -2.16398 0.00893964 0
M  V30 3377 C 322.23 -1.14155 3.18989 0
M  V30 3378 C 320.789 -1.63946 3.38819 0
M  V30 3379 C 319.936 -0.558151 2.71625 0
M  V30 3380 H 322.887 0.152647 1.57964 0
M  V30 3381 H 322.908 -2.0104 3.23053 0
M  V30 3382 H 322.42 -0.301116 3.8693 0
M  V30 3383 H 320.521 -2.50321 2.7599 0
M  V30 3384 H 320.634 -1.71759 4.47253 0
M  V30 3385 H 318.998 -1.00278 2.34129 0
M  V30 3386 H 319.781 0.272071 3.4222 0
M  V30 3387 N 322.226 -1.5378 -0.344866 0
M  V30 3388 C 323.451 -1.75211 -1.10977 0
M  V30 3389 C 323.876 -0.48936 -1.81623 0
M  V30 3390 O 323.234 0.557925 -1.72502 0
M  V30 3391 C 323.282 -2.93147 -2.09993 0
M  V30 3392 O 322.386 -2.63203 -3.17487 0
M  V30 3393 H 321.727 -0.581241 -0.321021 0
M  V30 3394 H 324.257 -2.00738 -0.395661 0
M  V30 3395 H 324.267 -3.19898 -2.53237 0
M  V30 3396 H 322.942 -3.84731 -1.5797 0
M  V30 3397 H 321.519 -2.47336 -2.79069 0
M  V30 3398 N 323.704 0.605807 -1.45491 0
M  V30 3399 C 324.981 1.36522 -1.40075 0
M  V30 3400 C 325.361 2.10976 -0.0722744 0
M  V30 3401 O 324.709 2.08007 0.945808 0
M  V30 3402 C 324.919 2.31056 -2.61561 0
M  V30 3403 C 326.267 2.93608 -3.06724 0
M  V30 3404 O 327.291 2.41376 -2.61946 0
M  V30 3405 O 326.15 3.88421 -3.84437 0
M  V30 3406 H 323.244 0.612248 -0.555951 0
M  V30 3407 H 325.79 0.628747 -1.57623 0
M  V30 3408 H 324.562 1.75311 -3.49831 0
M  V30 3409 H 324.185 3.12081 -2.46356 0
M  V30 3410 N 325.182 1.32811 0.848464 0
M  V30 3411 C 326.429 1.23724 1.60308 0
M  V30 3412 C 326.757 -0.1994 1.93475 0
M  V30 3413 O 326.012 -1.15406 1.5805 0
M  V30 3414 C 326.311 2.04831 2.92881 0
M  V30 3415 C 325.977 3.54125 2.79117 0
M  V30 3416 C 324.639 3.94829 2.7507 0
M  V30 3417 C 326.991 4.49036 2.64606 0
M  V30 3418 C 324.319 5.28675 2.544 0
M  V30 3419 C 326.671 5.83033 2.4547 0
M  V30 3420 C 325.335 6.22931 2.39819 0
M  V30 3421 H 324.605 0.452737 0.586609 0
M  V30 3422 H 327.252 1.64301 0.983743 0
M  V30 3423 H 325.557 1.57001 3.58968 0
M  V30 3424 H 327.254 1.95164 3.50303 0
M  V30 3425 H 323.844 3.21801 2.83094 0
M  V30 3426 H 328.028 4.18505 2.66772 0
M  V30 3427 H 323.284 5.58637 2.48465 0
M  V30 3428 H 327.458 6.56186 2.33222 0
M  V30 3429 H 325.085 7.26584 2.23562 0
M  V30 3430 N 326.66 -1.06551 1.16123 0
M  V30 3431 C 327.607 -2.13961 0.865414 0
M  V30 3432 C 328.577 -1.65066 -0.185055 0
M  V30 3433 O 329.762 -1.90732 -0.05083 0
M  V30 3434 C 326.902 -3.43113 0.369776 0
M  V30 3435 C 326.015 -4.05756 1.48276 0
M  V30 3436 C 325.15 -5.22773 0.942414 0
M  V30 3437 C 324.189 -5.77395 2.03179 0
M  V30 3438 N 323.326 -6.85731 1.50721 0
M  V30 3439 H 328.166 -2.38605 1.78527 0
M  V30 3440 H 325.703 -1.17072 0.890646 0
M  V30 3441 H 327.661 -4.17151 0.0640643 0
M  V30 3442 H 326.291 -3.18695 -0.513143 0
M  V30 3443 H 325.343 -3.29292 1.9045 0
M  V30 3444 H 326.655 -4.42351 2.30493 0
M  V30 3445 H 325.809 -6.03827 0.589729 0
M  V30 3446 H 324.548 -4.87618 0.0895191 0
M  V30 3447 H 323.553 -4.94981 2.3932 0
M  V30 3448 H 324.778 -6.14603 2.8886 0
M  V30 3449 H 322.724 -6.52499 0.676811 0
M  V30 3450 H 322.641 -7.21254 2.26557 0
M  V30 3451 H 323.909 -7.7047 1.18303 0
M  V30 3452 N 328.138 -0.959301 -1.25041 0
M  V30 3453 C 329.101 -0.487677 -2.23952 0
M  V30 3454 C 330.101 0.41119 -1.55454 0
M  V30 3455 O 331.291 0.207825 -1.72956 0
M  V30 3456 C 328.423 0.294807 -3.39623 0
M  V30 3457 H 329.616 -1.36198 -2.67189 0
M  V30 3458 H 327.169 -0.743042 -1.37508 0
M  V30 3459 H 327.904 1.18658 -3.01813 0
M  V30 3460 H 327.689 -0.35012 -3.90534 0
M  V30 3461 H 329.179 0.614089 -4.1306 0
M  V30 3462 N 329.616 1.39756 -0.72842 0
M  V30 3463 C 330.546 2.33289 -0.0991354 0
M  V30 3464 C 331.527 1.53568 0.731489 0
M  V30 3465 O 332.712 1.81987 0.677807 0
M  V30 3466 C 329.842 3.3763 0.813834 0
M  V30 3467 C 328.796 4.2791 0.0878663 0
M  V30 3468 C 328.122 5.22894 1.11741 0
M  V30 3469 C 329.422 5.11314 -1.06563 0
M  V30 3470 H 331.116 2.86163 -0.880408 0
M  V30 3471 H 328.662 1.37591 -0.424819 0
M  V30 3472 H 330.615 4.0201 1.26355 0
M  V30 3473 H 329.339 2.83181 1.62715 0
M  V30 3474 H 327.998 3.65 -0.342159 0
M  V30 3475 H 327.646 4.64744 1.92412 0
M  V30 3476 H 327.346 5.84143 0.636477 0
M  V30 3477 H 328.87 5.90151 1.56697 0
M  V30 3478 H 330.284 5.69076 -0.694671 0
M  V30 3479 H 328.681 5.81671 -1.47577 0
M  V30 3480 H 329.751 4.46534 -1.89038 0
M  V30 3481 N 331.094 0.475555 1.50254 0
M  V30 3482 C 332.51 0.12997 1.5907 0
M  V30 3483 C 332.71 -1.36385 1.48328 0
M  V30 3484 O 331.766 -2.13754 1.34407 0
M  V30 3485 C 333.079 0.684139 2.92814 0
M  V30 3486 C 334.627 0.647965 3.0622 0
M  V30 3487 C 335.102 1.17975 4.42545 0
M  V30 3488 N 336.593 1.13936 4.48969 0
M  V30 3489 C 337.328 1.52129 5.52851 0
M  V30 3490 N 336.824 1.97793 6.63965 0
M  V30 3491 N 338.617 1.43704 5.4342 0
M  V30 3492 H 330.768 1.44706 1.55479 0
M  V30 3493 H 333.031 0.598691 0.735033 0
M  V30 3494 H 332.737 1.73079 3.06164 0
M  V30 3495 H 332.611 0.130204 3.76975 0
M  V30 3496 H 334.998 -0.38979 2.92514 0
M  V30 3497 H 335.079 1.23876 2.23805 0
M  V30 3498 H 334.723 2.21616 4.57 0
M  V30 3499 H 334.653 0.565138 5.23559 0
M  V30 3500 H 337.144 0.804488 3.69238 0
M  V30 3501 H 337.457 2.25072 7.39299 0
M  V30 3502 H 335.802 2.01749 6.65073 0
M  V30 3503 H 338.993 1.07867 4.55502 0
M  V30 3504 H 339.166 1.73794 6.24259 0
M  V30 3505 N 332.573 -1.56217 0.208337 0
M  V30 3506 C 333.801 -2.02337 -0.43215 0
M  V30 3507 C 334.216 -1.08834 -1.54275 0
M  V30 3508 O 333.573 -0.0955462 -1.8225 0
M  V30 3509 C 333.624 -3.48072 -0.976138 0
M  V30 3510 O 333.345 -4.38007 0.0901621 0
M  V30 3511 C 334.846 -4.09773 -1.69119 0
M  V30 3512 H 332.066 -0.662385 -0.10718 0
M  V30 3513 H 334.61 -2.01966 0.320923 0
M  V30 3514 H 332.765 -3.49099 -1.67954 0
M  V30 3515 H 333.179 -5.23543 -0.316701 0
M  V30 3516 H 334.653 -5.13556 -2.02397 0
M  V30 3517 H 335.13 -3.53999 -2.59964 0
M  V30 3518 H 335.736 -4.12556 -1.03332 0
M  V30 3519 N 334.051 0.0651679 -1.57465 0
M  V30 3520 C 335.297 0.764193 -1.87851 0
M  V30 3521 C 335.63 1.76889 -0.801495 0
M  V30 3522 O 334.905 1.93594 0.187528 0
M  V30 3523 C 335.188 1.46625 -3.28897 0
M  V30 3524 C 335.041 0.477515 -4.47258 0
M  V30 3525 C 336.36 2.4095 -3.68281 0
M  V30 3526 H 333.479 0.276351 -0.683227 0
M  V30 3527 H 336.121 0.0272868 -1.8998 0
M  V30 3528 H 334.271 2.09438 -3.27212 0
M  V30 3529 H 335.943 -0.145922 -4.61069 0
M  V30 3530 H 334.186 -0.206576 -4.33308 0
M  V30 3531 H 334.857 1.0065 -5.42746 0
M  V30 3532 H 337.333 1.88209 -3.71102 0
M  V30 3533 H 336.209 2.87072 -4.67847 0
M  V30 3534 H 336.47 3.26049 -2.98571 0
M  V30 3535 N 335.529 1.53961 0.336706 0
M  V30 3536 C 336.754 1.75797 1.10046 0
M  V30 3537 C 337.179 0.498985 1.81361 0
M  V30 3538 O 336.537 -0.548769 1.72795 0
M  V30 3539 C 336.585 2.94257 2.08436 0
M  V30 3540 O 335.689 2.64883 3.16087 0
M  V30 3541 H 335.03 0.582936 0.317934 0
M  V30 3542 H 337.56 2.00945 0.38501 0
M  V30 3543 H 337.57 3.21237 2.51537 0
M  V30 3544 H 336.245 3.85564 1.55927 0
M  V30 3545 H 334.822 2.48812 2.77753 0
M  V30 3546 N 337.007 -0.598083 1.45811 0
M  V30 3547 C 338.253 -1.35882 1.50545 0
M  V30 3548 C 338.586 -1.93616 0.150445 0
M  V30 3549 O 337.861 -1.75604 -0.83628 0
M  V30 3550 C 338.144 -2.49966 2.59208 0
M  V30 3551 C 337.997 -1.97367 4.04186 0
M  V30 3552 C 339.316 -3.52068 2.64076 0
M  V30 3553 H 336.435 -0.492717 0.548087 0
M  V30 3554 H 339.077 -0.673319 1.77669 0
M  V30 3555 H 337.227 -3.08443 2.3621 0
M  V30 3556 H 338.899 -1.43466 4.38423 0
M  V30 3557 H 337.142 -1.283 4.14393 0
M  V30 3558 H 337.813 -2.79649 4.75921 0
M  V30 3559 H 340.289 -3.03448 2.84708 0
M  V30 3560 H 339.165 -4.2937 3.41954 0
M  V30 3561 H 339.426 -4.08304 1.69531 0
M  V30 3562 N 338.485 -1.33259 -0.841409 0
M  V30 3563 C 339.415 -1.25926 -1.96634 0
M  V30 3564 C 340.396 -0.140349 -1.6952 0
M  V30 3565 O 341.581 -0.329707 -1.91381 0
M  V30 3566 C 338.711 -0.99512 -3.32738 0
M  V30 3567 C 337.665 -2.0767 -3.74242 0
M  V30 3568 C 336.991 -1.66474 -5.08125 0
M  V30 3569 C 338.291 -3.49318 -3.88297 0
M  V30 3570 H 339.985 -2.20046 -2.03027 0
M  V30 3571 H 337.531 -1.05931 -0.975425 0
M  V30 3572 H 339.484 -0.930323 -4.11002 0
M  V30 3573 H 338.208 -0.0183004 -3.26595 0
M  V30 3574 H 336.867 -2.13187 -2.98239 0
M  V30 3575 H 336.515 -0.675012 -4.9845 0
M  V30 3576 H 336.215 -2.3885 -5.36865 0
M  V30 3577 H 337.739 -1.61455 -5.88867 0
M  V30 3578 H 339.153 -3.46316 -4.56879 0
M  V30 3579 H 337.55 -4.20158 -4.28471 0
M  V30 3580 H 338.62 -3.8801 -2.9082 0
M  V30 3581 N 339.963 1.05934 -1.16686 0
M  V30 3582 C 341.212 1.78188 -0.945085 0
M  V30 3583 C 341.525 1.88338 0.528021 0
M  V30 3584 O 342.731 2.57258 0.867799 0
M  V30 3585 C 341.187 3.20277 -1.64167 0
M  V30 3586 C 340.795 3.18281 -3.15279 0
M  V30 3587 C 342.539 3.97039 -1.502 0
M  V30 3588 C 340.446 4.55112 -3.7766 0
M  V30 3589 H 339.376 0.667866 -0.349959 0
M  V30 3590 H 342.027 1.18794 -1.39858 0
M  V30 3591 H 340.409 3.79952 -1.11589 0
M  V30 3592 H 341.583 2.68167 -3.74731 0
M  V30 3593 H 339.898 2.55018 -3.29173 0
M  V30 3594 H 342.495 4.98194 -1.94183 0
M  V30 3595 H 342.838 4.13845 -0.451461 0
M  V30 3596 H 343.371 3.43894 -1.99954 0
M  V30 3597 H 340.11 4.43512 -4.82677 0
M  V30 3598 H 339.63 5.05406 -3.22994 0
M  V30 3599 H 341.309 5.24064 -3.79428 0
M  V30 3600 N 341.441 0.965919 1.2453 0
M  V30 3601 C 342.689 0.625593 1.92174 0
M  V30 3602 C 343.01 -0.841652 1.75901 0
M  V30 3603 O 342.28 -1.60061 1.12948 0
M  V30 3604 H 340.86 0.228388 0.71123 0
M  V30 3605 H 343.522 1.2266 1.51461 0
M  V30 3606 H 342.618 0.864653 2.99884 0
M  V30 3607 N 342.919 -1.39368 0.735821 0
M  V30 3608 C 344.144 -2.05319 0.293052 0
M  V30 3609 C 344.569 -1.55115 -1.064 0
M  V30 3610 O 343.927 -0.695261 -1.67439 0
M  V30 3611 C 343.975 -3.59305 0.305323 0
M  V30 3612 O 343.079 -4.06299 -0.706761 0
M  V30 3613 H 342.42 -0.650529 0.13307 0
M  V30 3614 H 344.95 -1.78386 1.00197 0
M  V30 3615 H 344.96 -4.07724 0.149997 0
M  V30 3616 H 343.635 -3.95207 1.29553 0
M  V30 3617 H 342.212 -3.69292 -0.517504 0
M  V30 3618 N 344.397 -0.483516 -1.5 0
M  V30 3619 C 345.644 0.0671597 -2.02389 0
M  V30 3620 C 345.972 1.38597 -1.36459 0
M  V30 3621 O 345.227 1.89634 -0.483458 0
M  V30 3622 C 345.526 0.286226 -3.56252 0
M  V30 3623 C 345.192 -0.952416 -4.40726 0
M  V30 3624 C 343.854 -1.29199 -4.63531 0
M  V30 3625 C 346.206 -1.77655 -4.89988 0
M  V30 3626 C 343.534 -2.45553 -5.32842 0
M  V30 3627 C 345.886 -2.93147 -5.60578 0
M  V30 3628 C 344.55 -3.27505 -5.81633 0
M  V30 3629 H 343.82 0.0245755 -0.740592 0
M  V30 3630 H 346.467 -0.640124 -1.80485 0
M  V30 3631 H 344.772 1.07587 -3.76739 0
M  V30 3632 H 346.469 0.726473 -3.94365 0
M  V30 3633 H 343.059 -0.677881 -4.23205 0
M  V30 3634 H 347.243 -1.52737 -4.72213 0
M  V30 3635 H 342.499 -2.72431 -5.47349 0
M  V30 3636 H 346.673 -3.57344 -5.97727 0
M  V30 3637 H 344.3 -4.1777 -6.35116 0
M  V30 3638 N 345.875 1.56104 -0.216619 0
M  V30 3639 C 346.838 2.18819 0.681962 0
M  V30 3640 C 347.838 1.14866 1.12528 0
M  V30 3641 O 349.028 1.40128 1.03488 0
M  V30 3642 C 346.16 2.80756 1.93362 0
M  V30 3643 H 347.353 2.99595 0.135254 0
M  V30 3644 H 344.906 1.56265 0.0330003 0
M  V30 3645 H 345.641 2.03837 2.52232 0
M  V30 3646 H 345.426 3.56876 1.62426 0
M  V30 3647 H 346.916 3.28844 2.57393 0
M  V30 3648 N 347.353 -0.0568162 1.57498 0
M  V30 3649 C 348.283 -1.06593 2.0775 0
M  V30 3650 C 349.264 -1.39448 0.974082 0
M  V30 3651 O 350.449 -1.48815 1.24771 0
M  V30 3652 C 347.579 -2.37509 2.5339 0
M  V30 3653 C 346.533 -2.1897 3.67745 0
M  V30 3654 C 345.859 -3.55402 3.99492 0
M  V30 3655 C 347.159 -1.59859 4.97235 0
M  V30 3656 H 348.853 -0.647706 2.9231 0
M  V30 3657 H 346.399 -0.310116 1.40621 0
M  V30 3658 H 348.352 -3.08409 2.87162 0
M  V30 3659 H 347.076 -2.8134 1.65878 0
M  V30 3660 H 345.735 -1.50508 3.3428 0
M  V30 3661 H 345.383 -3.9683 3.09088 0
M  V30 3662 H 345.083 -3.43831 4.76502 0
M  V30 3663 H 346.607 -4.27708 4.35773 0
M  V30 3664 H 348.021 -2.20642 5.29141 0
M  V30 3665 H 346.418 -1.58942 5.78669 0
M  V30 3666 H 347.488 -0.561506 4.81638 0
M  V30 3667 N 348.832 -1.54138 -0.328536 0
M  V30 3668 C 350.057 -1.76378 -1.09112 0
M  V30 3669 C 350.482 -0.508596 -1.81094 0
M  V30 3670 O 349.84 0.539598 -1.73084 0
M  V30 3671 C 349.888 -2.95358 -2.06872 0
M  V30 3672 O 348.992 -2.66556 -3.14677 0
M  V30 3673 H 348.333 -0.584614 -0.314838 0
M  V30 3674 H 350.863 -2.01146 -0.374348 0
M  V30 3675 H 350.873 -3.22566 -2.4983 0
M  V30 3676 H 349.548 -3.86385 -1.5388 0
M  V30 3677 H 348.125 -2.50282 -2.7643 0
M  V30 3678 N 350.31 0.590341 -1.46126 0
M  V30 3679 C 351.556 1.34874 -1.52252 0
M  V30 3680 C 351.911 1.91658 -0.168807 0
M  V30 3681 O 351.204 1.73093 0.821556 0
M  V30 3682 C 351.398 2.5032 -2.55097 0
M  V30 3683 C 351.227 2.04843 -4.00337 0
M  V30 3684 C 349.997 1.90213 -4.68132 0
M  V30 3685 C 352.195 1.61267 -4.88362 0
M  V30 3686 N 350.177 1.38727 -5.9802 0
M  V30 3687 C 351.548 1.21319 -6.08015 0
M  V30 3688 C 353.603 1.49015 -4.75078 0
M  V30 3689 C 352.306 0.7034 -7.15852 0
M  V30 3690 C 354.332 0.994401 -5.8298 0
M  V30 3691 C 353.694 0.604659 -7.018 0
M  V30 3692 H 349.793 0.486803 -0.612002 0
M  V30 3693 H 352.377 0.673007 -1.82698 0
M  V30 3694 H 350.548 3.15466 -2.26574 0
M  V30 3695 H 352.28 3.1725 -2.51266 0
M  V30 3696 H 349.035 2.11927 -4.23537 0
M  V30 3697 H 349.459 1.15168 -6.67132 0
M  V30 3698 H 354.101 1.77768 -3.83612 0
M  V30 3699 H 351.819 0.403446 -8.07092 0
M  V30 3700 H 355.405 0.903621 -5.7474 0
M  V30 3701 H 354.285 0.226963 -7.83871 0
M  V30 3702 N 351.788 1.33704 0.83433 0
M  V30 3703 C 353.016 1.28467 1.62185 0
M  V30 3704 C 353.431 -0.143526 1.88254 0
M  V30 3705 O 352.788 -1.08709 1.4659 0
M  V30 3706 C 352.839 2.06174 2.96942 0
M  V30 3707 O 352.56 3.43422 2.72016 0
M  V30 3708 C 354.061 2.08201 3.91366 0
M  V30 3709 H 351.281 0.4424 0.504503 0
M  V30 3710 H 353.825 1.76145 1.03891 0
M  V30 3711 H 351.98 1.62167 3.51825 0
M  V30 3712 H 352.394 3.83453 3.57861 0
M  V30 3713 H 353.868 2.67017 4.83121 0
M  V30 3714 H 354.345 1.07343 4.2588 0
M  V30 3715 H 354.951 2.52246 3.42421 0
M  V30 3716 N 353.266 -1.05314 1.17247 0
M  V30 3717 C 354.677 -1.59753 0.96623 0
M  V30 3718 C 355.028 -1.9005 -0.487378 0
M  V30 3719 O 354.153 -1.68126 -1.36245 0
M  V30 3720 C 354.748 -2.90249 1.74759 0
M  V30 3721 C 353.307 -3.41352 1.58606 0
M  V30 3722 C 352.454 -2.15103 1.75002 0
M  V30 3723 H 355.405 -0.881406 1.31973 0
M  V30 3724 H 355.426 -3.60097 1.22925 0
M  V30 3725 H 354.938 -2.68166 2.8055 0
M  V30 3726 H 353.039 -3.68474 0.552985 0
M  V30 3727 H 353.152 -4.16019 2.37624 0
M  V30 3728 H 351.516 -2.25804 1.17833 0
M  V30 3729 H 352.299 -1.95491 2.82202 0
M  V30 3730 N 354.744 -0.972509 -1.24016 0
M  V30 3731 C 355.991 -0.637034 -1.92219 0
M  V30 3732 C 356.319 0.828418 -1.75976 0
M  V30 3733 O 355.574 1.61206 -1.10955 0
M  V30 3734 C 355.873 -0.963694 -3.44162 0
M  V30 3735 C 355.539 -2.41807 -3.80579 0
M  V30 3736 C 354.201 -2.81556 -3.9023 0
M  V30 3737 C 356.553 -3.36172 -3.98293 0
M  V30 3738 C 353.881 -4.14702 -4.15017 0
M  V30 3739 C 356.233 -4.68952 -4.24578 0
M  V30 3740 C 354.897 -5.08472 -4.32449 0
M  V30 3741 H 354.167 -0.233107 -0.703379 0
M  V30 3742 H 356.814 -1.2249 -1.47202 0
M  V30 3743 H 355.119 -0.29365 -3.90698 0
M  V30 3744 H 356.816 -0.682449 -3.9515 0
M  V30 3745 H 353.406 -2.09988 -3.73635 0
M  V30 3746 H 357.59 -3.06644 -3.90234 0
M  V30 3747 H 352.846 -4.4494 -4.19331 0
M  V30 3748 H 357.02 -5.42037 -4.37229 0
M  V30 3749 H 354.647 -6.11665 -4.51409 0
M  V30 3750 N 356.222 1.38976 -0.743202 0
M  V30 3751 C 357.152 2.33171 -0.123873 0
M  V30 3752 C 358.133 1.54336 0.71516 0
M  V30 3753 O 359.318 1.82696 0.658467 0
M  V30 3754 C 356.448 3.38474 0.777978 0
M  V30 3755 C 355.402 4.27979 0.0424758 0
M  V30 3756 C 354.728 5.2405 1.06189 0
M  V30 3757 C 356.028 5.10155 -1.1198 0
M  V30 3758 H 357.722 2.85213 -0.910709 0
M  V30 3759 H 355.268 1.37133 -0.439388 0
M  V30 3760 H 357.221 4.03328 1.22084 0
M  V30 3761 H 355.945 2.84891 1.59702 0
M  V30 3762 H 354.604 3.64616 -0.380853 0
M  V30 3763 H 354.252 4.66758 1.87472 0
M  V30 3764 H 353.952 5.84785 0.574485 0
M  V30 3765 H 355.476 5.9178 1.50428 0
M  V30 3766 H 356.89 5.68307 -0.75499 0
M  V30 3767 H 355.287 5.80073 -1.53738 0
M  V30 3768 H 356.357 4.44504 -1.93764 0
M  V30 3769 N 357.7 0.491464 1.49741 0
M  V30 3770 C 358.949 -0.0582189 2.01616 0
M  V30 3771 C 359.262 -1.38927 1.3769 0
M  V30 3772 O 360.468 -2.02509 1.80838 0
M  V30 3773 C 358.924 -0.154235 3.59569 0
M  V30 3774 C 358.532 1.1696 4.32463 0
M  V30 3775 C 360.276 -0.65479 4.1942 0
M  V30 3776 C 358.183 1.03627 5.8225 0
M  V30 3777 H 357.113 -0.0255317 0.753568 0
M  V30 3778 H 359.764 0.629445 1.72367 0
M  V30 3779 H 358.146 -0.906138 3.85493 0
M  V30 3780 H 359.32 1.93405 4.18248 0
M  V30 3781 H 357.635 1.60285 3.84315 0
M  V30 3782 H 360.232 -0.771903 5.29099 0
M  V30 3783 H 360.575 -1.65127 3.8215 0
M  V30 3784 H 361.108 0.040304 3.9778 0
M  V30 3785 H 357.847 2.00672 6.24028 0
M  V30 3786 H 357.367 0.312546 5.98985 0
M  V30 3787 H 359.046 0.711114 6.4308 0
M  V30 3788 N 359.178 -1.55987 0.224894 0
M  V30 3789 C 360.406 -2.02784 -0.410665 0
M  V30 3790 C 360.821 -1.10464 -1.53112 0
M  V30 3791 O 360.178 -0.114871 -1.82138 0
M  V30 3792 C 360.229 -3.49087 -0.939165 0
M  V30 3793 O 359.95 -4.37887 0.136614 0
M  V30 3794 C 361.451 -4.11543 -1.64763 0
M  V30 3795 H 358.671 -0.663484 -0.100148 0
M  V30 3796 H 361.215 -2.01614 0.342326 0
M  V30 3797 H 359.37 -3.50861 -1.64242 0
M  V30 3798 H 359.784 -5.23849 -0.261155 0
M  V30 3799 H 361.258 -5.15673 -1.96939 0
M  V30 3800 H 361.735 -3.56736 -2.56195 0
M  V30 3801 H 362.341 -4.13629 -0.989503 0
M  V30 3802 N 360.656 0.0484629 -1.57525 0
M  V30 3803 C 361.904 0.741657 -1.88 0
M  V30 3804 C 362.225 1.76918 -0.820054 0
M  V30 3805 O 361.495 1.95335 0.148661 0
M  V30 3806 H 360.075 0.276908 -0.69378 0
M  V30 3807 H 362.737 0.019013 -1.94891 0
M  V30 3808 H 361.833 1.24336 -2.86264 0
M  V30 3809 N 362.134 1.5431 0.320358 0
M  V30 3810 C 363.383 1.7188 1.05546 0
M  V30 3811 C 363.696 0.501143 1.89071 0
M  V30 3812 O 364.902 0.558258 2.65699 0
M  V30 3813 C 363.358 3.04025 1.92605 0
M  V30 3814 C 362.966 4.33207 1.14176 0
M  V30 3815 C 364.71 3.30959 2.65832 0
M  V30 3816 C 362.617 5.56412 2.00399 0
M  V30 3817 H 361.547 0.640547 0.397763 0
M  V30 3818 H 364.198 1.80802 0.313522 0
M  V30 3819 H 362.58 2.89019 2.7071 0
M  V30 3820 H 363.754 4.58989 0.40819 0
M  V30 3821 H 362.069 4.13062 0.526165 0
M  V30 3822 H 364.666 4.20203 3.30656 0
M  V30 3823 H 365.009 2.48979 3.33639 0
M  V30 3824 H 365.542 3.46847 1.94787 0
M  V30 3825 H 362.281 6.41004 1.37094 0
M  V30 3826 H 361.801 5.34844 2.7148 0
M  V30 3827 H 363.48 5.92938 2.58908 0
M  V30 3828 N 363.613 -0.582584 1.46437 0
M  V30 3829 C 364.859 -1.34278 1.51978 0
M  V30 3830 C 365.192 -1.93446 0.170973 0
M  V30 3831 O 364.467 -1.76481 -0.817608 0
M  V30 3832 C 364.75 -2.47203 2.61845 0
M  V30 3833 C 364.603 -1.93069 4.06257 0
M  V30 3834 C 365.922 -3.49247 2.67795 0
M  V30 3835 H 363.041 -0.486876 0.553282 0
M  V30 3836 H 365.683 -0.654437 1.78374 0
M  V30 3837 H 363.833 -3.0592 2.39469 0
M  V30 3838 H 365.505 -1.38808 4.3992 0
M  V30 3839 H 363.748 -1.23898 4.1573 0
M  V30 3840 H 364.419 -2.74586 4.7886 0
M  V30 3841 H 366.895 -3.00411 2.8791 0
M  V30 3842 H 365.771 -4.25719 3.46489 0
M  V30 3843 H 366.032 -4.06482 1.73852 0
M  V30 3844 N 365.091 -1.34144 -0.827227 0
M  V30 3845 C 366.023 -1.21206 -1.9453 0
M  V30 3846 C 367.036 -0.140176 -1.62195 0
M  V30 3847 O 368.225 -0.391647 -1.7415 0
M  V30 3848 C 365.325 -0.839141 -3.28347 0
M  V30 3849 C 364.498 -2.0051 -3.88734 0
M  V30 3850 C 363.557 -1.61128 -5.00923 0
M  V30 3851 O 362.583 -2.32726 -5.19449 0
M  V30 3852 N 363.785 -0.522958 -5.7814 0
M  V30 3853 H 366.55 -2.17525 -2.06162 0
M  V30 3854 H 364.111 -1.27043 -1.00358 0
M  V30 3855 H 366.103 -0.557556 -4.00841 0
M  V30 3856 H 364.673 0.0337293 -3.12582 0
M  V30 3857 H 363.893 -2.45166 -3.08686 0
M  V30 3858 H 365.181 -2.78498 -4.25812 0
M  V30 3859 H 364.579 0.0723518 -5.65654 0
M  V30 3860 H 363.136 -0.301089 -6.51104 0
M  V30 3861 N 366.569 1.04691 -1.17803 0
M  V30 3862 C 367.815 1.78045 -0.970969 0
M  V30 3863 C 368.148 1.87686 0.498751 0
M  V30 3864 O 367.423 1.38035 1.37027 0
M  V30 3865 C 367.706 3.2166 -1.61884 0
M  V30 3866 C 367.559 3.20001 -3.161 0
M  V30 3867 C 368.878 4.1962 -1.3269 0
M  V30 3868 H 365.997 0.64633 -0.354155 0
M  V30 3869 H 368.639 1.22333 -1.45378 0
M  V30 3870 H 366.789 3.69232 -1.20831 0
M  V30 3871 H 368.461 2.80467 -3.66246 0
M  V30 3872 H 366.704 2.58203 -3.48588 0
M  V30 3873 H 367.375 4.21386 -3.56564 0
M  V30 3874 H 369.851 3.80567 -1.68249 0
M  V30 3875 H 368.727 5.18339 -1.80599 0
M  V30 3876 H 368.988 4.414 -0.248622 0
M  V30 3877 N 368.047 0.979072 1.23499 0
M  V30 3878 C 369.01 0.523244 2.23147 0
M  V30 3879 C 370.01 -0.386406 1.56088 0
M  V30 3880 O 371.2 -0.180283 1.73265 0
M  V30 3881 C 368.332 -0.240739 3.40049 0
M  V30 3882 H 369.525 1.40432 2.64989 0
M  V30 3883 H 367.078 0.764824 1.36309 0
M  V30 3884 H 367.813 -1.13841 3.03662 0
M  V30 3885 H 367.598 0.412207 3.89927 0
M  V30 3886 H 369.088 -0.548297 4.13985 0
M  V30 3887 N 369.525 -1.3858 0.750561 0
M  V30 3888 C 370.765 -2.02032 0.310258 0
M  V30 3889 C 371.129 -1.58288 -1.08668 0
M  V30 3890 O 372.33 -2.14049 -1.62593 0
M  V30 3891 C 370.601 -3.54856 0.425647 0
M  V30 3892 S 372.16 -4.38748 0.0674797 0
M  V30 3893 H 368.978 -0.700705 0.120554 0
M  V30 3894 H 371.58 -1.69134 0.980512 0
M  V30 3895 H 370.284 -3.84182 1.44335 0
M  V30 3896 H 369.815 -3.92527 -0.261894 0
M  V30 3897 H 371.83 -4.82835 -1.14388 0
M  V30 3898 N 371.003 -0.499398 -1.49478 0
M  V30 3899 C 371.935 0.316575 -2.27003 0
M  V30 3900 C 372.948 0.932047 -1.33479 0
M  V30 3901 O 374.137 0.815658 -1.58774 0
M  V30 3902 C 371.237 1.46055 -3.05812 0
M  V30 3903 C 370.41 0.952679 -4.26899 0
M  V30 3904 C 369.469 1.97407 -4.87767 0
M  V30 3905 O 368.495 1.54326 -5.4788 0
M  V30 3906 N 369.697 3.30436 -4.77276 0
M  V30 3907 H 372.462 -0.348168 -2.97671 0
M  V30 3908 H 370.023 -0.33185 -1.58463 0
M  V30 3909 H 372.015 2.14135 -3.43407 0
M  V30 3910 H 370.585 2.02948 -2.37762 0
M  V30 3911 H 369.805 0.0968248 -3.94081 0
M  V30 3912 H 371.093 0.59174 -5.05347 0
M  V30 3913 H 370.491 3.68126 -4.29534 0
M  V30 3914 H 369.048 3.94235 -5.19059 0
M  V30 3915 N 372.481 1.55866 -0.233164 0
M  V30 3916 C 373.391 2.24431 0.683217 0
M  V30 3917 C 374.407 1.2558 1.2044 0
M  V30 3918 O 375.583 1.58422 1.24356 0
M  V30 3919 C 372.648 2.91979 1.86947 0
M  V30 3920 C 371.709 4.06204 1.38912 0
M  V30 3921 C 370.942 4.70522 2.51883 0
M  V30 3922 O 371.165 4.33865 3.70293 0
M  V30 3923 O 370.099 5.59296 2.22423 0
M  V30 3924 H 373.925 3.03426 0.129059 0
M  V30 3925 H 371.51 1.494 -0.0022283 0
M  V30 3926 H 373.392 3.34573 2.56201 0
M  V30 3927 H 372.067 2.15935 2.41151 0
M  V30 3928 H 370.974 3.68155 0.664259 0
M  V30 3929 H 372.307 4.84025 0.893328 0
M  V30 3930 N 373.959 -0.0401083 1.57549 0
M  V30 3931 C 375.199 -0.738098 1.90608 0
M  V30 3932 C 375.563 -1.73107 0.830539 0
M  V30 3933 O 376.764 -2.4765 1.04513 0
M  V30 3934 C 375.035 -1.39985 3.28845 0
M  V30 3935 S 376.594 -2.12852 3.83718 0
M  V30 3936 H 373.412 -0.24477 0.667539 0
M  V30 3937 H 376.014 0.00693599 1.95499 0
M  V30 3938 H 374.718 -0.663775 4.04997 0
M  V30 3939 H 374.249 -2.18366 3.2723 0
M  V30 3940 H 376.264 -3.39842 3.61555 0
M  V30 3941 N 375.437 -1.54477 -0.31217 0
M  V30 3942 C 376.387 -1.81037 -1.38598 0
M  V30 3943 C 377.371 -0.666941 -1.46426 0
M  V30 3944 O 378.563 -0.927269 -1.50767 0
M  V30 3945 C 375.692 -2.05127 -2.75277 0
M  V30 3946 C 374.778 -3.25624 -2.71716 0
M  V30 3947 N 375.169 -4.46428 -2.37773 0
M  V30 3948 C 373.467 -3.27427 -3.02833 0
M  V30 3949 C 374.168 -5.28406 -2.43232 0
M  V30 3950 N 373.144 -4.6586 -2.80135 0
M  V30 3951 H 376.946 -2.7201 -1.11301 0
M  V30 3952 H 374.46 -1.53826 -0.520705 0
M  V30 3953 H 376.457 -2.22299 -3.52688 0
M  V30 3954 H 375.117 -1.15416 -3.03495 0
M  V30 3955 H 376.128 -4.73227 -2.1042 0
M  V30 3956 H 372.805 -2.47786 -3.36018 0
M  V30 3957 H 374.195 -6.34903 -2.19882 0
M  V30 3958 N 376.915 0.57481 -1.46744 0
M  V30 3959 C 377.845 1.69337 -1.60771 0
M  V30 3960 C 378.826 1.63825 -0.457736 0
M  V30 3961 O 380.011 1.8172 -0.684947 0
M  V30 3962 C 377.141 3.0798 -1.60517 0
M  V30 3963 C 376.095 3.28327 -2.74564 0
M  V30 3964 C 375.421 4.67578 -2.59373 0
M  V30 3965 C 376.721 3.15398 -4.16319 0
M  V30 3966 H 378.415 1.57853 -2.54407 0
M  V30 3967 H 375.961 0.75799 -1.22436 0
M  V30 3968 H 377.914 3.86061 -1.68923 0
M  V30 3969 H 376.638 3.20381 -0.634305 0
M  V30 3970 H 375.297 2.52649 -2.65639 0
M  V30 3971 H 374.945 4.76755 -1.60353 0
M  V30 3972 H 374.645 4.82144 -3.35873 0
M  V30 3973 H 376.169 5.47817 -2.69682 0
M  V30 3974 H 377.583 3.83315 -4.26313 0
M  V30 3975 H 375.98 3.41482 -4.93468 0
M  V30 3976 H 377.05 2.12372 -4.3592 0
M  V30 3977 N 378.394 1.34581 0.820102 0
M  V30 3978 C 379.624 1.29991 1.6058 0
M  V30 3979 C 380.032 -0.127588 1.88769 0
M  V30 3980 O 379.375 -1.08595 1.48165 0
M  V30 3981 C 379.437 2.02548 2.9701 0
M  V30 3982 C 379.101 3.51794 2.91701 0
M  V30 3983 C 380.098 4.46647 2.66087 0
M  V30 3984 C 377.783 3.94249 3.11245 0
M  V30 3985 C 379.777 5.81929 2.60071 0
M  V30 3986 C 377.464 5.2963 3.04853 0
M  V30 3987 C 378.462 6.23282 2.793 0
M  V30 3988 O 378.15 7.56181 2.72847 0
M  V30 3989 H 377.882 0.448539 0.505756 0
M  V30 3990 H 380.436 1.77811 1.02822 0
M  V30 3991 H 378.666 1.49345 3.56697 0
M  V30 3992 H 380.355 1.91211 3.58041 0
M  V30 3993 H 381.121 4.15168 2.5072 0
M  V30 3994 H 377 3.21749 3.30149 0
M  V30 3995 H 380.544 6.54999 2.40046 0
M  V30 3996 H 376.441 5.60727 3.19774 0
M  V30 3997 H 377.209 7.6595 2.88553 0
M  V30 3998 N 379.872 -1.04064 1.18357 0
M  V30 3999 C 380.802 -2.14001 0.934113 0
M  V30 4000 C 381.783 -1.69616 -0.128186 0
M  V30 4001 O 382.968 -1.94185 0.0244093 0
M  V30 4002 C 380.098 -3.44253 0.459066 0
M  V30 4003 C 379.052 -4.02261 1.46185 0
M  V30 4004 C 378.378 -5.27992 0.844322 0
M  V30 4005 C 379.678 -4.38432 2.83856 0
M  V30 4006 H 381.372 -2.35127 1.85352 0
M  V30 4007 H 378.918 -1.12998 0.892604 0
M  V30 4008 H 380.871 -4.20522 0.271907 0
M  V30 4009 H 379.595 -3.22813 -0.495912 0
M  V30 4010 H 378.254 -3.28074 1.63595 0
M  V30 4011 H 377.902 -5.02862 -0.117845 0
M  V30 4012 H 377.602 -5.67765 1.51384 0
M  V30 4013 H 379.126 -6.06938 0.667693 0
M  V30 4014 H 380.54 -5.05688 2.70098 0
M  V30 4015 H 378.937 -4.89254 3.47491 0
M  V30 4016 H 380.007 -3.4826 3.37406 0
M  V30 4017 N 381.35 -0.985608 -1.22978 0
M  V30 4018 C 382.596 -0.65836 -1.91816 0
M  V30 4019 C 382.929 0.806692 -1.76653 0
M  V30 4020 O 382.204 1.58252 -1.13078 0
M  V30 4021 C 382.487 -1.056 -3.44268 0
M  V30 4022 C 382.34 -2.57906 -3.68516 0
M  V30 4023 C 383.659 -0.603781 -4.35939 0
M  V30 4024 H 380.778 -0.24065 -0.696604 0
M  V30 4025 H 383.42 -1.22783 -1.44998 0
M  V30 4026 H 381.57 -0.571445 -3.84274 0
M  V30 4027 H 383.242 -3.13976 -3.3796 0
M  V30 4028 H 381.485 -3.00305 -3.13048 0
M  V30 4029 H 382.156 -2.80779 -4.75255 0
M  V30 4030 H 384.632 -1.01987 -4.03408 0
M  V30 4031 H 383.508 -0.910383 -5.41298 0
M  V30 4032 H 383.769 0.495761 -4.39312 0
M  V30 4033 N 382.828 1.3818 -0.7579 0
M  V30 4034 C 383.758 2.33027 -0.148597 0
M  V30 4035 C 384.739 1.55085 0.69875 0
M  V30 4036 O 385.924 1.83384 0.639053 0
M  V30 4037 C 383.054 3.3928 0.742034 0
M  V30 4038 C 382.008 4.28 -0.00291946 0
M  V30 4039 C 381.334 5.25146 1.00625 0
M  V30 4040 C 382.634 5.08938 -1.17385 0
M  V30 4041 H 384.328 2.84231 -0.940909 0
M  V30 4042 H 381.874 1.36659 -0.453908 0
M  V30 4043 H 383.827 4.046 1.17799 0
M  V30 4044 H 382.551 2.86569 1.56671 0
M  V30 4045 H 381.21 3.64192 -0.419504 0
M  V30 4046 H 380.858 4.68721 1.8251 0
M  V30 4047 H 380.558 5.85361 0.512428 0
M  V30 4048 H 382.082 5.93342 1.44143 0
M  V30 4049 H 383.496 5.67474 -0.815224 0
M  V30 4050 H 381.893 5.7841 -1.59882 0
M  V30 4051 H 382.963 4.42424 -1.98468 0
M  V30 4052 N 384.306 0.507319 1.49211 0
M  V30 4053 C 385.216 -0.272136 2.33016 0
M  V30 4054 C 386.232 -0.961206 1.45041 0
M  V30 4055 O 387.408 -0.941191 1.78055 0
M  V30 4056 C 384.473 -1.31895 3.20631 0
M  V30 4057 C 383.534 -0.642648 4.24463 0
M  V30 4058 C 382.767 -1.63959 5.07891 0
M  V30 4059 O 382.99 -2.87007 4.92933 0
M  V30 4060 O 381.924 -1.19143 5.8999 0
M  V30 4061 H 385.75 0.413982 3.00865 0
M  V30 4062 H 383.335 0.268556 1.46966 0
M  V30 4063 H 385.217 -1.92446 3.7489 0
M  V30 4064 H 383.892 -1.98788 2.5547 0
M  V30 4065 H 382.799 0.00276252 3.741 0
M  V30 4066 H 384.132 -0.0160534 4.92197 0
M  V30 4067 N 385.784 -1.5574 0.241426 0
M  V30 4068 C 387.2 -1.59196 -0.113548 0
M  V30 4069 C 387.4 -1.25852 -1.57364 0
M  V30 4070 O 386.456 -1.00322 -2.31715 0
M  V30 4071 C 387.769 -2.99814 0.230695 0
M  V30 4072 C 389.317 -3.12513 0.174547 0
M  V30 4073 C 389.792 -4.55342 0.492744 0
M  V30 4074 N 391.283 -4.61076 0.443043 0
M  V30 4075 C 392.018 -5.6956 0.662484 0
M  V30 4076 N 391.514 -6.86328 0.944761 0
M  V30 4077 N 393.307 -5.58957 0.593564 0
M  V30 4078 H 385.458 -1.75685 1.19368 0
M  V30 4079 H 387.721 -0.81756 0.479896 0
M  V30 4080 H 387.427 -3.28932 1.24485 0
M  V30 4081 H 387.301 -3.74568 -0.444833 0
M  V30 4082 H 389.688 -2.83179 -0.830277 0
M  V30 4083 H 389.769 -2.40045 0.883845 0
M  V30 4084 H 389.413 -4.85396 1.4951 0
M  V30 4085 H 389.343 -5.26062 -0.23797 0
M  V30 4086 H 391.834 -3.77179 0.233374 0
M  V30 4087 H 392.147 -7.64935 1.09977 0
M  V30 4088 H 390.492 -6.88025 0.982175 0
M  V30 4089 H 393.683 -4.66611 0.373123 0
M  V30 4090 H 393.856 -6.43433 0.767981 0
M  V30 4091 N 387.262 0.0317525 -1.57568 0
M  V30 4092 C 388.492 0.733884 -1.93126 0
M  V30 4093 C 388.9 1.69563 -0.839352 0
M  V30 4094 O 388.243 1.82681 0.193175 0
M  V30 4095 C 388.305 1.54798 -3.24465 0
M  V30 4096 C 387.969 0.751304 -4.50782 0
M  V30 4097 C 388.966 0.0527632 -5.19873 0
M  V30 4098 C 386.651 0.706639 -4.97305 0
M  V30 4099 C 388.645 -0.679774 -6.33765 0
M  V30 4100 C 386.332 -0.0296449 -6.11093 0
M  V30 4101 C 387.33 -0.721614 -6.79177 0
M  V30 4102 O 387.018 -1.44595 -7.90789 0
M  V30 4103 H 386.75 0.211459 -0.642076 0
M  V30 4104 H 389.304 -0.00585615 -2.05399 0
M  V30 4105 H 387.534 2.33147 -3.08512 0
M  V30 4106 H 389.223 2.13247 -3.4537 0
M  V30 4107 H 389.989 0.0783188 -4.84937 0
M  V30 4108 H 385.868 1.23474 -4.44157 0
M  V30 4109 H 389.412 -1.22042 -6.86842 0
M  V30 4110 H 385.309 -0.0571331 -6.45475 0
M  V30 4111 H 386.077 -1.35935 -8.07133 0
M  V30 4112 N 388.74 1.54641 0.303973 0
M  V30 4113 C 389.67 1.88386 1.3796 0
M  V30 4114 C 390.651 0.742485 1.5304 0
M  V30 4115 O 391.836 0.997959 1.66597 0
M  V30 4116 C 388.966 2.12854 2.74427 0
M  V30 4117 C 387.92 3.28702 2.74115 0
M  V30 4118 C 387.246 3.38582 4.13844 0
M  V30 4119 C 388.546 4.65881 2.3612 0
M  V30 4120 H 390.24 2.78474 1.09966 0
M  V30 4121 H 387.786 1.33988 0.527556 0
M  V30 4122 H 389.739 2.35047 3.49758 0
M  V30 4123 H 388.463 1.19535 3.03939 0
M  V30 4124 H 387.122 3.06428 2.0124 0
M  V30 4125 H 386.77 2.42784 4.40528 0
M  V30 4126 H 386.47 4.16453 4.14537 0
M  V30 4127 H 387.994 3.63031 4.90959 0
M  V30 4128 H 389.408 4.87823 3.01167 0
M  V30 4129 H 387.805 5.46444 2.48031 0
M  V30 4130 H 388.875 4.66799 1.3125 0
M  V30 4131 N 390.218 -0.567019 1.47046 0
M  V30 4132 C 391.464 -1.32434 1.54379 0
M  V30 4133 C 391.819 -1.91365 0.199276 0
M  V30 4134 O 391.112 -1.74378 -0.793915 0
M  V30 4135 C 391.306 -2.4623 2.59047 0
M  V30 4136 C 391.135 -1.98448 4.03545 0
M  V30 4137 C 389.905 -1.82741 4.71098 0
M  V30 4138 C 392.103 -1.53477 4.90866 0
M  V30 4139 N 390.085 -1.29196 6.00151 0
M  V30 4140 C 391.456 -1.1163 6.09868 0
M  V30 4141 C 393.511 -1.41438 4.77388 0
M  V30 4142 C 392.214 -0.589425 7.16881 0
M  V30 4143 C 394.24 -0.901528 5.84488 0
M  V30 4144 C 393.602 -0.492932 7.02673 0
M  V30 4145 H 389.701 -0.477005 0.61967 0
M  V30 4146 H 392.285 -0.643856 1.83746 0
M  V30 4147 H 390.456 -3.11821 2.31564 0
M  V30 4148 H 392.188 -3.13213 2.56281 0
M  V30 4149 H 388.943 -2.05162 4.26855 0
M  V30 4150 H 389.367 -1.0454 6.6888 0
M  V30 4151 H 394.009 -1.71643 3.86392 0
M  V30 4152 H 391.727 -0.274994 8.07632 0
M  V30 4153 H 395.313 -0.812071 5.76105 0
M  V30 4154 H 394.193 -0.102227 7.84133 0
M  V30 4155 N 391.696 -1.35014 -0.812953 0
M  V30 4156 C 392.626 -1.30069 -1.93919 0
M  V30 4157 C 393.607 -0.176275 -1.69184 0
M  V30 4158 O 394.792 -0.370227 -1.90638 0
M  V30 4159 C 391.922 -1.06547 -3.30552 0
M  V30 4160 C 390.876 -2.15561 -3.69753 0
M  V30 4161 C 390.202 -1.77214 -5.04479 0
M  V30 4162 C 391.502 -3.57476 -3.808 0
M  V30 4163 H 393.196 -2.24303 -1.98314 0
M  V30 4164 H 390.742 -1.07977 -0.952736 0
M  V30 4165 H 392.695 -1.01729 -4.08937 0
M  V30 4166 H 391.419 -0.0875719 -3.26483 0
M  V30 4167 H 390.078 -2.19466 -2.9365 0
M  V30 4168 H 389.726 -0.780589 -4.96906 0
M  V30 4169 H 389.426 -2.50184 -5.31678 0
M  V30 4170 H 390.95 -1.7391 -5.8531 0
M  V30 4171 H 392.364 -3.55929 -4.4943 0
M  V30 4172 H 390.761 -4.29152 -4.19462 0
M  V30 4173 H 391.831 -3.94091 -2.82525 0
M  V30 4174 N 393.175 1.03435 -1.18907 0
M  V30 4175 C 394.105 2.13503 -0.945448 0
M  V30 4176 C 395.086 1.69682 0.119189 0
M  V30 4177 O 396.271 1.94169 -0.034707 0
M  V30 4178 C 393.401 3.44004 -0.477316 0
M  V30 4179 C 392.355 4.0148 -1.48316 0
M  V30 4180 C 391.681 5.27537 -0.872311 0
M  V30 4181 C 392.981 4.36921 -2.86177 0
M  V30 4182 H 394.675 2.34141 -1.86597 0
M  V30 4183 H 392.221 1.12523 -0.898584 0
M  V30 4184 H 394.174 4.20372 -0.294204 0
M  V30 4185 H 392.898 3.23072 0.478786 0
M  V30 4186 H 391.557 3.27201 -1.65332 0
M  V30 4187 H 391.205 5.02917 0.0911752 0
M  V30 4188 H 390.905 5.66954 -1.54393 0
M  V30 4189 H 392.429 6.06576 -0.699871 0
M  V30 4190 H 393.843 5.04248 -2.72776 0
M  V30 4191 H 392.24 4.87405 -3.50081 0
M  V30 4192 H 393.31 3.46466 -3.39248 0
M  V30 4193 N 394.653 0.992116 1.22453 0
M  V30 4194 C 395.901 0.666215 1.90804 0
M  V30 4195 C 396.222 -0.804152 1.77647 0
M  V30 4196 O 395.492 -1.57629 1.16318 0
M  V30 4197 H 394.072 0.243423 0.706225 0
M  V30 4198 H 396.734 1.25845 1.48825 0
M  V30 4199 H 395.83 0.928069 2.97982 0
M  V30 4200 N 396.131 -1.37776 0.765217 0
M  V30 4201 C 397.377 -2.00145 0.327072 0
M  V30 4202 C 397.71 -1.60607 -1.09175 0
M  V30 4203 O 396.985 -0.849127 -1.74986 0
M  V30 4204 C 397.268 -3.57109 0.46319 0
M  V30 4205 C 397.121 -4.06576 1.92395 0
M  V30 4206 C 398.44 -4.39888 -0.136473 0
M  V30 4207 H 395.559 -0.727113 0.120316 0
M  V30 4208 H 398.201 -1.63549 0.967039 0
M  V30 4209 H 396.351 -3.88414 -0.0816358 0
M  V30 4210 H 398.023 -3.85864 2.52798 0
M  V30 4211 H 396.266 -3.59011 2.43503 0
M  V30 4212 H 396.937 -5.15639 1.97028 0
M  V30 4213 H 399.413 -4.14803 0.328317 0
M  V30 4214 H 398.289 -5.48899 -0.0110582 0
M  V30 4215 H 398.55 -4.24758 -1.22608 0
M  V30 4216 N 397.609 -0.515225 -1.4894 0
M  V30 4217 C 398.857 0.0241671 -2.02086 0
M  V30 4218 C 399.178 1.3616 -1.3959 0
M  V30 4219 O 398.448 1.87841 -0.556121 0
M  V30 4220 H 397.028 0.0119203 -0.746905 0
M  V30 4221 H 399.69 -0.675702 -1.82812 0
M  V30 4222 H 398.786 0.143385 -3.1177 0
M  V30 4223 N 399.087 1.5561 -0.249682 0
M  V30 4224 C 400.035 2.22894 0.664906 0
M  V30 4225 C 401.029 1.21743 1.17792 0
M  V30 4226 O 402.235 1.39748 1.13449 0
M  V30 4227 H 398.61 0.715022 0.232912 0
M  V30 4228 H 400.581 2.98307 0.0742998 0
M  V30 4229 C 399.33 2.94424 1.84959 0
M  V30 4230 H 398.653 3.72031 1.46399 0
M  V30 4231 H 400.093 3.44862 2.4667 0
M  V30 4232 C 398.552 1.98454 2.72245 0
M  V30 4233 O 399.082 1.51939 3.71857 0
M  V30 4234 N 397.288 1.65496 2.38871 0
M  V30 4235 H 396.835 2.03517 1.57919 0
M  V30 4236 H 396.793 1.0155 2.97548 0
M  V30 4237 N 400.565 -0.0233959 1.57583 0
M  V30 4238 C 401.79 -0.728376 1.94189 0
M  V30 4239 C 402.215 -1.67793 0.850119 0
M  V30 4240 O 401.573 -1.80262 -0.19371 0
M  V30 4241 C 401.621 -1.45669 3.29868 0
M  V30 4242 O 400.725 -2.57013 3.22518 0
M  V30 4243 H 400.066 -0.195493 0.63457 0
M  V30 4244 H 402.596 0.0228214 2.04587 0
M  V30 4245 H 402.606 -1.82535 3.6489 0
M  V30 4246 H 401.281 -0.760314 4.08891 0
M  V30 4247 H 399.858 -2.22648 2.99136 0
M  V30 4248 N 402.043 -1.548 -0.295768 0
M  V30 4249 C 402.973 -1.89115 -1.36959 0
M  V30 4250 C 403.954 -0.75059 -1.52644 0
M  V30 4251 O 405.139 -1.00678 -1.66065 0
M  V30 4252 C 402.269 -2.14307 -2.73295 0
M  V30 4253 C 401.223 -3.30151 -2.72368 0
M  V30 4254 C 400.549 -3.40772 -4.12042 0
M  V30 4255 C 401.849 -4.67126 -2.33646 0
M  V30 4256 H 403.543 -2.79053 -1.08488 0
M  V30 4257 H 401.089 -1.34266 -0.520443 0
M  V30 4258 H 403.042 -2.36898 -3.48507 0
M  V30 4259 H 401.766 -1.21145 -3.03301 0
M  V30 4260 H 400.425 -3.0749 -1.99613 0
M  V30 4261 H 400.073 -2.45117 -4.39234 0
M  V30 4262 H 399.773 -4.18645 -4.12322 0
M  V30 4263 H 401.297 -3.6563 -4.89027 0
M  V30 4264 H 402.711 -4.89414 -2.98575 0
M  V30 4265 H 401.108 -5.47751 -2.45129 0
M  V30 4266 H 402.178 -4.67489 -1.28772 0
M  V30 4267 N 403.521 0.559213 -1.47345 0
M  V30 4268 C 404.451 1.67622 -1.62558 0
M  V30 4269 C 405.432 1.63331 -0.475087 0
M  V30 4270 O 406.617 1.80983 -0.704182 0
M  V30 4271 C 403.747 3.0626 -1.63774 0
M  V30 4272 C 402.701 3.25397 -2.7803 0
M  V30 4273 C 402.027 4.64801 -2.64318 0
M  V30 4274 C 403.327 3.10965 -4.19641 0
M  V30 4275 H 405.021 1.55146 -2.56067 0
M  V30 4276 H 402.567 0.744961 -1.23233 0
M  V30 4277 H 404.52 3.84247 -1.73008 0
M  V30 4278 H 403.244 3.1969 -0.66825 0
M  V30 4279 H 401.903 2.49817 -2.68304 0
M  V30 4280 H 401.551 4.75028 -1.65401 0
M  V30 4281 H 401.251 4.78555 -3.40968 0
M  V30 4282 H 402.775 5.44926 -2.75478 0
M  V30 4283 H 404.189 3.78772 -4.30354 0
M  V30 4284 H 402.586 3.36229 -4.97062 0
M  V30 4285 H 403.656 2.07736 -4.38148 0
M  V30 4286 N 404.999 1.35443 0.805782 0
M  V30 4287 C 405.947 1.28465 1.93906 0
M  V30 4288 C 406.941 0.17943 1.68447 0
M  V30 4289 O 408.147 0.345459 1.76654 0
M  V30 4290 H 404.522 0.399528 0.637088 0
M  V30 4291 H 406.493 2.24206 1.96912 0
M  V30 4292 C 405.242 1.07432 3.30687 0
M  V30 4293 H 404.565 1.91716 3.50835 0
M  V30 4294 H 406.005 1.06591 4.10383 0
M  V30 4295 C 404.464 -0.22179 3.36169 0
M  V30 4296 O 404.994 -1.21731 3.82811 0
M  V30 4297 N 403.2 -0.260841 2.89427 0
M  V30 4298 H 402.747 0.549884 2.51663 0
M  V30 4299 H 402.705 -1.12777 2.93477 0
M  V30 4300 N 406.477 -1.02803 1.19454 0
M  V30 4301 C 407.888 -1.57667 0.999899 0
M  V30 4302 C 408.239 -1.91041 -0.446956 0
M  V30 4303 O 407.364 -1.70978 -1.32648 0
M  V30 4304 C 407.959 -2.86477 1.80877 0
M  V30 4305 C 406.518 -3.37911 1.65811 0
M  V30 4306 C 405.665 -2.11343 1.79526 0
M  V30 4307 H 408.616 -0.853214 1.33813 0
M  V30 4308 H 408.637 -3.57408 1.30536 0
M  V30 4309 H 408.149 -2.62155 2.86175 0
M  V30 4310 H 406.25 -3.67218 0.63102 0
M  V30 4311 H 406.363 -4.10885 2.46395 0
M  V30 4312 H 404.727 -2.23254 1.22596 0
M  V30 4313 H 405.51 -1.89461 2.86285 0
M  V30 4314 N 407.956 -0.998596 -1.21925 0
M  V30 4315 C 408.886 -0.573688 -2.26343 0
M  V30 4316 C 409.867 0.402296 -1.65274 0
M  V30 4317 O 411.052 0.291683 -1.91997 0
M  V30 4318 C 408.182 0.106839 -3.47136 0
M  V30 4319 C 407.136 -0.788269 -4.20678 0
M  V30 4320 C 406.462 0.0254927 -5.34694 0
M  V30 4321 C 407.762 -2.08784 -4.78755 0
M  V30 4322 H 409.456 -1.44651 -2.62138 0
M  V30 4323 H 407.002 -0.696975 -1.26009 0
M  V30 4324 H 408.955 0.415531 -4.19346 0
M  V30 4325 H 407.679 1.01424 -3.10452 0
M  V30 4326 H 406.338 -1.08069 -3.50309 0
M  V30 4327 H 405.986 0.933989 -4.94253 0
M  V30 4328 H 405.686 -0.570437 -5.84825 0
M  V30 4329 H 407.21 0.328147 -6.09718 0
M  V30 4330 H 408.624 -1.84272 -5.42878 0
M  V30 4331 H 407.021 -2.63307 -5.39249 0
M  V30 4332 H 408.091 -2.76284 -3.98491 0
M  V30 4333 N 409.434 1.37368 -0.772513 0
M  V30 4334 C 410.683 1.98918 -0.333861 0
M  V30 4335 C 410.996 1.62017 1.09589 0
M  V30 4336 O 412.202 2.16676 1.63596 0
M  V30 4337 C 410.658 3.55735 -0.545971 0
M  V30 4338 C 410.266 4.01573 -1.98603 0
M  V30 4339 C 412.01 4.24156 -0.170979 0
M  V30 4340 C 409.917 5.51102 -2.1457 0
M  V30 4341 H 408.847 0.744214 -0.121085 0
M  V30 4342 H 411.498 1.56888 -0.95175 0
M  V30 4343 H 409.88 3.95748 0.141387 0
M  V30 4344 H 411.054 3.72803 -2.7084 0
M  V30 4345 H 409.369 3.45937 -2.31769 0
M  V30 4346 H 411.966 5.34024 -0.26878 0
M  V30 4347 H 412.309 4.06917 0.878855 0
M  V30 4348 H 412.842 3.89447 -0.810914 0
M  V30 4349 H 409.581 5.73268 -3.17875 0
M  V30 4350 H 409.101 5.81554 -1.46817 0
M  V30 4351 H 410.78 6.17083 -1.94468 0
M  V30 4352 N 410.912 0.523116 1.48665 0
M  V30 4353 C 412.142 -0.00961724 2.06598 0
M  V30 4354 C 412.55 -1.29333 1.38093 0
M  V30 4355 O 411.893 -1.77846 0.46007 0
M  V30 4356 C 411.955 -0.311135 3.58151 0
M  V30 4357 C 411.619 0.878092 4.48485 0
M  V30 4358 C 412.616 1.77464 4.88674 0
M  V30 4359 C 410.301 1.08315 4.90483 0
M  V30 4360 C 412.295 2.86021 5.69623 0
M  V30 4361 C 409.982 2.17187 5.71203 0
M  V30 4362 C 410.98 3.05873 6.10681 0
M  V30 4363 O 410.668 4.12862 6.89783 0
M  V30 4364 H 410.4 0.0272658 0.67545 0
M  V30 4365 H 412.954 0.726156 1.92136 0
M  V30 4366 H 411.184 -1.10079 3.70701 0
M  V30 4367 H 412.873 -0.785125 3.98234 0
M  V30 4368 H 413.639 1.62813 4.56855 0
M  V30 4369 H 409.518 0.402149 4.59243 0
M  V30 4370 H 413.062 3.55272 6.00356 0
M  V30 4371 H 408.959 2.31824 6.02435 0
M  V30 4372 H 409.727 4.10487 7.08126 0
M  V30 4373 N 412.39 -1.55475 0.257931 0
M  V30 4374 C 413.353 -2.20551 -0.623706 0
M  V30 4375 C 414.353 -1.17809 -1.09443 0
M  V30 4376 O 415.543 -1.42823 -0.997362 0
M  V30 4377 C 412.675 -2.85784 -1.8585 0
M  V30 4378 H 413.868 -2.99848 -0.0557743 0
M  V30 4379 H 411.421 -1.56298 0.0084422 0
M  V30 4380 H 412.156 -2.10453 -2.46739 0
M  V30 4381 H 411.941 -3.61057 -1.52907 0
M  V30 4382 H 413.431 -3.35553 -2.48584 0
M  V30 4383 N 413.868 0.0150385 -1.57593 0
M  V30 4384 C 415.098 0.713359 -1.93894 0
M  V30 4385 C 415.506 1.68663 -0.857289 0
M  V30 4386 O 414.849 1.82876 0.173788 0
M  V30 4387 C 414.911 1.51348 -3.26089 0
M  V30 4388 C 414.575 0.703451 -4.51554 0
M  V30 4389 C 415.572 -0.00237924 -5.199 0
M  V30 4390 C 413.257 0.653854 -4.98026 0
M  V30 4391 C 415.251 -0.746955 -6.33008 0
M  V30 4392 C 412.938 -0.0944578 -6.11027 0
M  V30 4393 C 413.936 -0.793609 -6.78374 0
M  V30 4394 O 413.624 -1.52974 -7.89211 0
M  V30 4395 H 413.356 0.204637 -0.644282 0
M  V30 4396 H 415.91 -0.0276411 -2.05381 0
M  V30 4397 H 414.14 2.29862 -3.10967 0
M  V30 4398 H 415.829 2.09572 -3.47612 0
M  V30 4399 H 416.595 0.0268803 -4.84993 0
M  V30 4400 H 412.474 1.18756 -4.45441 0
M  V30 4401 H 416.018 -1.2932 -6.85509 0
M  V30 4402 H 411.915 -0.125591 -6.45378 0
M  V30 4403 H 412.683 -1.44488 -8.05646 0
M  V30 4404 N 415.346 1.54954 0.287554 0
M  V30 4405 C 416.592 1.76059 1.01856 0
M  V30 4406 C 416.947 0.547056 1.84459 0
M  V30 4407 O 416.24 -0.460442 1.85985 0
M  V30 4408 C 416.434 2.99833 1.94512 0
M  V30 4409 C 416.263 4.33108 1.21026 0
M  V30 4410 C 415.033 4.96632 0.931896 0
M  V30 4411 C 417.231 5.10694 0.607949 0
M  V30 4412 N 415.213 6.13668 0.168716 0
M  V30 4413 C 416.584 6.19996 -0.0217865 0
M  V30 4414 C 418.639 4.95236 0.514338 0
M  V30 4415 C 417.342 7.15524 -0.736092 0
M  V30 4416 C 419.368 5.91106 -0.186343 0
M  V30 4417 C 418.73 6.99786 -0.804875 0
M  V30 4418 H 414.829 0.696679 0.355193 0
M  V30 4419 H 417.413 1.92441 0.295741 0
M  V30 4420 H 415.584 2.84853 2.64033 0
M  V30 4421 H 417.316 3.09405 2.60865 0
M  V30 4422 H 414.071 4.57255 1.23348 0
M  V30 4423 H 414.495 6.76705 -0.199781 0
M  V30 4424 H 419.137 4.11328 0.978234 0
M  V30 4425 H 416.855 7.98964 -1.21172 0
M  V30 4426 H 420.441 5.81224 -0.258897 0
M  V30 4427 H 419.321 7.72694 -1.33843 0
M  V30 4428 N 416.824 -0.551391 1.4764 0
M  V30 4429 C 417.756 -1.67333 1.56628 0
M  V30 4430 C 418.769 -1.56398 0.452045 0
M  V30 4431 O 419.958 -1.6325 0.721926 0
M  V30 4432 C 417.058 -3.05841 1.45994 0
M  V30 4433 C 416.231 -3.42472 2.72088 0
M  V30 4434 C 415.29 -4.60168 2.55209 0
M  V30 4435 O 414.316 -4.64458 3.2904 0
M  V30 4436 N 415.518 -5.57024 1.63416 0
M  V30 4437 H 418.283 -1.60066 2.53375 0
M  V30 4438 H 415.844 -0.738169 1.44093 0
M  V30 4439 H 417.836 -3.8242 1.32428 0
M  V30 4440 H 416.406 -3.07302 0.573071 0
M  V30 4441 H 415.626 -2.55284 3.00373 0
M  V30 4442 H 416.914 -3.63723 3.55785 0
M  V30 4443 H 416.312 -5.56319 1.02594 0
M  V30 4444 H 414.869 -6.32906 1.558 0
M  V30 4445 N 418.302 -1.35869 -0.798587 0
M  V30 4446 C 419.249 -1.29446 -1.91082 0
M  V30 4447 C 420.219 -0.16487 -1.6528 0
M  V30 4448 O 421.404 -0.349888 -1.87564 0
M  V30 4449 C 418.544 -1.0804 -3.27752 0
M  V30 4450 C 417.657 -2.29993 -3.65687 0
M  V30 4451 C 416.792 -2.01673 -4.91428 0
M  V30 4452 C 415.831 -3.19636 -5.22015 0
M  V30 4453 N 414.968 -2.91039 -6.38937 0
M  V30 4454 H 419.808 -2.24553 -1.95907 0
M  V30 4455 H 417.345 -1.11615 -0.958148 0
M  V30 4456 H 419.303 -0.936586 -4.06551 0
M  V30 4457 H 417.933 -0.16592 -3.22373 0
M  V30 4458 H 416.985 -2.55211 -2.82085 0
M  V30 4459 H 418.297 -3.18052 -3.84245 0
M  V30 4460 H 417.451 -1.84168 -5.78072 0
M  V30 4461 H 416.19 -1.10911 -4.74921 0
M  V30 4462 H 415.195 -3.37709 -4.33858 0
M  V30 4463 H 416.42 -4.11211 -5.40447 0
M  V30 4464 H 414.366 -2.0288 -6.2384 0
M  V30 4465 H 414.283 -3.72635 -6.57784 0
M  V30 4466 H 415.551 -2.77093 -7.28587 0
M  V30 4467 N 419.78 1.02168 -1.19998 0
M  V30 4468 C 420.69 2.14069 -0.959774 0
M  V30 4469 C 421.706 1.73804 0.082655 0
M  V30 4470 O 422.882 2.01133 -0.103633 0
M  V30 4471 C 419.947 3.42936 -0.509459 0
M  V30 4472 C 419.008 3.97474 -1.62213 0
M  V30 4473 C 418.241 5.2019 -1.19321 0
M  V30 4474 O 418.464 5.70369 -0.0597726 0
M  V30 4475 O 417.398 5.67749 -1.99863 0
M  V30 4476 H 421.224 2.37199 -1.89658 0
M  V30 4477 H 418.809 1.12469 -0.983411 0
M  V30 4478 H 420.691 4.20551 -0.267322 0
M  V30 4479 H 419.366 3.21234 0.398821 0
M  V30 4480 H 418.273 3.21161 -1.9185 0
M  V30 4481 H 419.606 4.23555 -2.50723 0
M  V30 4482 N 421.258 1.00505 1.21394 0
M  V30 4483 C 422.504 0.688793 1.90745 0
M  V30 4484 C 422.837 -0.778486 1.77914 0
M  V30 4485 O 422.112 -1.56433 1.15581 0
M  V30 4486 C 422.395 1.11063 3.42545 0
M  V30 4487 C 422.248 2.63737 3.64367 0
M  V30 4488 C 423.567 0.673059 4.34923 0
M  V30 4489 H 420.686 0.251702 0.692687 0
M  V30 4490 H 423.328 1.25074 1.43026 0
M  V30 4491 H 421.478 0.632508 3.83317 0
M  V30 4492 H 423.15 3.19313 3.32922 0
M  V30 4493 H 421.393 3.05248 3.08231 0
M  V30 4494 H 422.064 2.88305 4.70727 0
M  V30 4495 H 424.54 1.08392 4.01734 0
M  V30 4496 H 423.416 0.996383 5.39781 0
M  V30 4497 H 423.677 -0.425808 4.40045 0
M  V30 4498 N 422.737 -1.36956 0.779787 0
M  V30 4499 C 424.153 -1.52817 0.460342 0
M  V30 4500 C 424.353 -1.7361 -1.02283 0
M  V30 4501 O 423.409 -1.76207 -1.80852 0
M  V30 4502 C 424.722 -2.71983 1.28241 0
M  V30 4503 C 426.27 -2.85849 1.27512 0
M  V30 4504 C 426.745 -4.08008 2.08072 0
M  V30 4505 N 428.236 -4.15135 2.05467 0
M  V30 4506 C 428.971 -5.08711 2.64577 0
M  V30 4507 N 428.467 -6.07792 3.32506 0
M  V30 4508 N 430.26 -5.01254 2.54363 0
M  V30 4509 H 422.411 -1.21713 1.74068 0
M  V30 4510 H 424.674 -0.593294 0.739396 0
M  V30 4511 H 424.38 -2.63109 2.33381 0
M  V30 4512 H 424.254 -3.65882 0.917088 0
M  V30 4513 H 426.641 -2.94189 0.231686 0
M  V30 4514 H 426.722 -1.92886 1.68014 0
M  V30 4515 H 426.366 -4.00429 3.12441 0
M  V30 4516 H 426.296 -5.001 1.64947 0
M  V30 4517 H 428.787 -3.44189 1.5602 0
M  V30 4518 H 429.1 -6.75739 3.74963 0
M  V30 4519 H 427.445 -6.08047 3.36606 0
M  V30 4520 H 430.636 -4.22795 2.00902 0
M  V30 4521 H 430.809 -5.73995 3.00722 0
M  V30 4522 N 424.215 -0.530993 -1.48385 0
M  V30 4523 C 425.145 0.219985 -2.32461 0
M  V30 4524 C 426.126 0.934111 -1.42156 0
M  V30 4525 O 427.311 0.919694 -1.71042 0
M  V30 4526 C 424.441 1.26674 -3.23375 0
M  V30 4527 C 423.395 0.67069 -4.22712 0
M  V30 4528 C 422.721 1.82017 -5.02766 0
M  V30 4529 C 424.021 -0.358268 -5.2107 0
M  V30 4530 H 425.715 -0.48187 -2.95497 0
M  V30 4531 H 423.261 -0.233182 -1.42099 0
M  V30 4532 H 425.214 1.80006 -3.81019 0
M  V30 4533 H 423.938 1.99818 -2.58341 0
M  V30 4534 H 422.597 0.158878 -3.66256 0
M  V30 4535 H 422.245 2.54002 -4.34157 0
M  V30 4536 H 421.945 1.42727 -5.70003 0
M  V30 4537 H 423.469 2.35725 -5.63264 0
M  V30 4538 H 424.883 0.0880081 -5.73232 0
M  V30 4539 H 423.28 -0.66861 -5.96364 0
M  V30 4540 H 424.35 -1.26367 -4.68145 0
M  V30 4541 N 425.693 1.55336 -0.266172 0
M  V30 4542 C 426.625 2.19544 0.658247 0
M  V30 4543 C 427.638 1.17746 1.12427 0
M  V30 4544 O 428.827 1.44517 1.04772 0
M  V30 4545 C 425.927 2.80032 1.9088 0
M  V30 4546 C 425.1 4.07436 1.59106 0
M  V30 4547 C 424.159 4.52056 2.69317 0
M  V30 4548 O 423.185 5.18023 2.35883 0
M  V30 4549 N 424.387 4.21448 3.99201 0
M  V30 4550 H 427.152 2.99503 0.108754 0
M  V30 4551 H 424.713 1.61667 -0.0869059 0
M  V30 4552 H 426.705 3.06831 2.63888 0
M  V30 4553 H 425.275 2.04119 2.36758 0
M  V30 4554 H 424.495 3.88021 0.695243 0
M  V30 4555 H 425.783 4.90462 1.35367 0
M  V30 4556 H 425.181 3.68528 4.29189 0
M  V30 4557 H 423.738 4.53039 4.68614 0
M  V30 4558 N 427.171 -0.0066808 1.57599 0
M  V30 4559 C 428.101 -0.999296 2.11036 0
M  V30 4560 C 429.082 -1.36278 1.01795 0
M  V30 4561 O 430.267 -1.4477 1.29442 0
M  V30 4562 C 427.397 -2.29328 2.60818 0
M  V30 4563 C 426.351 -2.07159 3.74525 0
M  V30 4564 C 425.677 -3.42512 4.10596 0
M  V30 4565 C 426.977 -1.43959 5.02069 0
M  V30 4566 H 428.671 -0.554382 2.94223 0
M  V30 4567 H 426.217 -0.265221 1.41536 0
M  V30 4568 H 428.17 -2.99117 2.96828 0
M  V30 4569 H 426.894 -2.7592 1.74745 0
M  V30 4570 H 425.553 -1.39797 3.38899 0
M  V30 4571 H 425.201 -3.86795 3.21556 0
M  V30 4572 H 424.901 -3.28498 4.87199 0
M  V30 4573 H 426.425 -4.13628 4.4916 0
M  V30 4574 H 427.839 -2.03696 5.35893 0
M  V30 4575 H 426.236 -1.40452 5.83432 0
M  V30 4576 H 427.306 -0.407992 4.83181 0
M  V30 4577 N 428.649 -1.55105 -0.279332 0
M  V30 4578 C 429.879 -1.7917 -1.02867 0
M  V30 4579 C 430.287 -0.56204 -1.80659 0
M  V30 4580 O 429.63 0.478266 -1.77365 0
M  V30 4581 C 429.692 -2.96061 -2.03932 0
M  V30 4582 C 429.356 -4.33341 -1.45137 0
M  V30 4583 C 430.353 -5.12565 -0.870266 0
M  V30 4584 C 428.038 -4.79987 -1.48048 0
M  V30 4585 C 430.032 -6.36565 -0.326097 0
M  V30 4586 C 427.719 -6.03944 -0.932443 0
M  V30 4587 C 428.717 -6.8207 -0.356247 0
M  V30 4588 O 428.405 -8.03691 0.183412 0
M  V30 4589 H 428.137 -0.600796 -0.309872 0
M  V30 4590 H 430.691 -2.02932 -0.317468 0
M  V30 4591 H 428.921 -2.67975 -2.78794 0
M  V30 4592 H 430.61 -3.07506 -2.64943 0
M  V30 4593 H 431.376 -4.77661 -0.840521 0
M  V30 4594 H 427.255 -4.1919 -1.91835 0
M  V30 4595 H 430.799 -6.97489 0.124286 0
M  V30 4596 H 426.696 -6.3833 -0.959407 0
M  V30 4597 H 427.464 -8.18468 0.0721681 0
M  V30 4598 N 430.127 0.543554 -1.4793 0
M  V30 4599 C 431.077 1.64527 -1.57844 0
M  V30 4600 C 432.061 1.54869 -0.436408 0
M  V30 4601 O 433.253 1.63119 -0.687101 0
M  V30 4602 C 430.382 3.03281 -1.6086 0
M  V30 4603 C 429.468 3.18093 -2.80495 0
M  V30 4604 N 429.859 3.02923 -4.05057 0
M  V30 4605 C 428.157 3.49121 -2.77543 0
M  V30 4606 C 428.858 3.20791 -4.85251 0
M  V30 4607 N 427.834 3.47749 -4.17818 0
M  V30 4608 H 431.636 1.51388 -2.5191 0
M  V30 4609 H 429.15 0.748671 -1.44113 0
M  V30 4610 H 431.147 3.82403 -1.66054 0
M  V30 4611 H 429.807 3.17521 -0.678996 0
M  V30 4612 H 430.818 2.79966 -4.35705 0
M  V30 4613 H 427.495 3.69804 -1.93781 0
M  V30 4614 H 428.885 3.13915 -5.9406 0
M  V30 4615 N 431.605 1.3629 0.791371 0
M  V30 4616 C 432.538 1.24816 1.9104 0
M  V30 4617 C 433.516 0.132739 1.62057 0
M  V30 4618 O 434.7 0.303527 1.8604 0
M  V30 4619 C 431.827 0.925355 3.25814 0
M  V30 4620 C 430.873 2.05495 3.7373 0
M  V30 4621 S 431.706 3.67255 3.89723 0
M  V30 4622 C 432.862 3.37084 5.27376 0
M  V30 4623 H 433.095 2.19533 2.00481 0
M  V30 4624 H 430.628 1.21684 0.950393 0
M  V30 4625 H 432.586 0.745924 4.03666 0
M  V30 4626 H 431.247 -0.00400098 3.141 0
M  V30 4627 H 430.44 1.7836 4.71385 0
M  V30 4628 H 430.042 2.1935 3.02922 0
M  V30 4629 H 432.334 2.90856 6.1189 0
M  V30 4630 H 433.277 4.33995 5.59512 0
M  V30 4631 H 433.685 2.7248 4.94383 0
M  V30 4632 N 433.083 -1.0153 1.20538 0
M  V30 4633 C 434.046 -2.0826 0.957098 0
M  V30 4634 C 435.046 -1.60657 -0.0678655 0
M  V30 4635 O 436.236 -1.73385 0.168332 0
M  V30 4636 C 433.368 -3.38033 0.441188 0
M  V30 4637 H 434.561 -2.31719 1.90384 0
M  V30 4638 H 432.114 -1.1835 1.02093 0
M  V30 4639 H 432.849 -3.20249 -0.510961 0
M  V30 4640 H 432.634 -3.73911 1.18038 0
M  V30 4641 H 434.124 -4.16613 0.287009 0
M  V30 4642 N 434.561 -1.01147 -1.20859 0
M  V30 4643 C 435.491 -0.597663 -2.25722 0
M  V30 4644 C 436.472 0.384744 -1.65692 0
M  V30 4645 O 437.657 0.271303 -1.92296 0
M  V30 4646 C 434.787 0.0700149 -3.47229 0
M  V30 4647 C 433.741 -0.832843 -4.19819 0
M  V30 4648 C 433.067 -0.0312202 -5.34691 0
M  V30 4649 C 434.367 -2.1385 -4.76514 0
M  V30 4650 H 436.061 -1.47423 -2.60589 0
M  V30 4651 H 433.607 -0.710301 -1.25263 0
M  V30 4652 H 435.56 0.37103 -4.19763 0
M  V30 4653 H 434.284 0.981259 -3.11511 0
M  V30 4654 H 432.943 -1.11778 -3.49144 0
M  V30 4655 H 432.591 0.881515 -4.95215 0
M  V30 4656 H 432.291 -0.632434 -5.84187 0
M  V30 4657 H 433.815 0.26346 -6.10031 0
M  V30 4658 H 435.229 -1.9002 -5.40893 0
M  V30 4659 H 433.626 -2.69012 -5.36426 0
M  V30 4660 H 434.696 -2.80495 -3.95538 0
M  V30 4661 N 436.039 1.36541 -0.78704 0
M  V30 4662 C 437.287 1.98911 -0.357633 0
M  V30 4663 C 437.608 1.62778 1.07371 0
M  V30 4664 O 436.878 0.900612 1.73971 0
M  V30 4665 H 435.458 0.735734 -0.129246 0
M  V30 4666 H 438.12 1.66776 -1.00855 0
M  V30 4667 H 437.216 3.08874 -0.447549 0
M  V30 4668 N 437.518 0.538854 1.48102 0
M  V30 4669 C 438.764 0.00801365 2.02798 0
M  V30 4670 C 439.097 -1.3309 1.41424 0
M  V30 4671 O 438.372 -1.86169 0.563158 0
M  V30 4672 C 438.655 -0.104589 3.59948 0
M  V30 4673 C 438.508 1.26012 4.31788 0
M  V30 4674 C 439.827 -0.827055 4.32259 0
M  V30 4675 H 436.946 0.00438624 0.736987 0
M  V30 4676 H 439.588 0.6976 1.7673 0
M  V30 4677 H 437.738 -0.691893 3.82289 0
M  V30 4678 H 439.41 1.88922 4.2084 0
M  V30 4679 H 437.653 1.83968 3.92859 0
M  V30 4680 H 438.324 1.13424 5.40221 0
M  V30 4681 H 440.8 -0.328578 4.14801 0
M  V30 4682 H 439.676 -0.87476 5.41885 0
M  V30 4683 H 439.937 -1.87927 4.0017 0
M  V30 4684 N 438.996 -1.55193 0.274407 0
M  V30 4685 C 439.943 -2.225 -0.613374 0
M  V30 4686 C 440.913 -1.19823 -1.15029 0
M  V30 4687 O 442.098 -1.48362 -1.19973 0
M  V30 4688 C 439.238 -2.94927 -1.79199 0
M  V30 4689 C 438.351 -4.12322 -1.28899 0
M  V30 4690 C 437.486 -4.72394 -2.42934 0
M  V30 4691 C 436.525 -5.81984 -1.89634 0
M  V30 4692 N 435.662 -6.36123 -2.9714 0
M  V30 4693 H 440.502 -2.97982 -0.032756 0
M  V30 4694 H 438.039 -1.47099 -0.00440146 0
M  V30 4695 H 439.997 -3.35134 -2.48478 0
M  V30 4696 H 438.627 -2.2187 -2.34465 0
M  V30 4697 H 437.679 -3.7724 -0.489327 0
M  V30 4698 H 438.991 -4.91355 -0.858587 0
M  V30 4699 H 438.145 -5.15317 -3.20208 0
M  V30 4700 H 436.884 -3.92636 -2.8929 0
M  V30 4701 H 435.889 -5.38511 -1.1084 0
M  V30 4702 H 437.114 -6.6361 -1.44215 0
M  V30 4703 H 435.06 -5.59259 -3.42878 0
M  V30 4704 H 434.977 -7.10427 -2.58515 0
M  V30 4705 H 436.245 -6.83704 -3.74391 0
M  V30 4706 N 440.474 -0.00167713 -1.576 0
M  V30 4707 C 441.421 0.989195 -2.08527 0
M  V30 4708 C 442.391 1.34031 -0.981065 0
M  V30 4709 O 443.576 1.43839 -1.2536 0
M  V30 4710 C 440.716 2.27537 -2.59463 0
M  V30 4711 C 439.829 1.98314 -3.83791 0
M  V30 4712 C 438.964 3.21025 -4.23222 0
M  V30 4713 C 438.003 2.87495 -5.40382 0
M  V30 4714 N 437.14 4.02749 -5.75098 0
M  V30 4715 H 441.98 0.547973 -2.92919 0
M  V30 4716 H 439.517 0.258917 -1.44803 0
M  V30 4717 H 441.475 3.02729 -2.87073 0
M  V30 4718 H 440.105 2.69325 -1.77943 0
M  V30 4719 H 439.157 1.13482 -3.63078 0
M  V30 4720 H 440.469 1.69601 -4.69081 0
M  V30 4721 H 439.623 4.04561 -4.52123 0
M  V30 4722 H 438.362 3.52877 -3.36644 0
M  V30 4723 H 437.367 2.02367 -5.11202 0
M  V30 4724 H 438.592 2.56889 -6.28637 0
M  V30 4725 H 436.538 4.34494 -4.91478 0
M  V30 4726 H 436.455 3.77566 -6.54966 0
M  V30 4727 H 437.723 4.87068 -6.08592 0
M  V30 4728 N 441.952 1.55251 0.271103 0
M  V30 4729 C 443.198 1.76207 1.00394 0
M  V30 4730 C 443.531 0.562604 1.85872 0
M  V30 4731 O 442.806 -0.439785 1.89463 0
M  V30 4732 C 443.089 3.06828 1.8849 0
M  V30 4733 C 442.942 4.37134 1.05992 0
M  V30 4734 C 444.261 3.33503 2.87165 0
M  V30 4735 H 441.38 0.641086 0.363562 0
M  V30 4736 H 444.022 1.87982 0.276189 0
M  V30 4737 H 442.172 2.96921 2.5054 0
M  V30 4738 H 443.844 4.59001 0.459978 0
M  V30 4739 H 442.087 4.32275 0.363443 0
M  V30 4740 H 442.758 5.2486 1.70955 0
M  V30 4741 H 445.234 3.43215 2.3525 0
M  V30 4742 H 444.11 4.2616 3.45946 0
M  V30 4743 H 444.371 2.53235 3.62387 0
M  V30 4744 N 443.43 -0.535701 1.48216 0
M  V30 4745 C 444.36 -1.65014 1.65204 0
M  V30 4746 C 445.341 -1.62554 0.501011 0
M  V30 4747 O 446.526 -1.7984 0.732886 0
M  V30 4748 C 443.656 -3.03616 1.68626 0
M  V30 4749 C 442.61 -3.20932 2.83172 0
M  V30 4750 C 441.936 -4.60537 2.71679 0
M  V30 4751 C 443.236 -3.04249 4.24535 0
M  V30 4752 H 444.93 -1.51053 2.58502 0
M  V30 4753 H 442.476 -0.725262 1.24402 0
M  V30 4754 H 444.429 -3.81446 1.79099 0
M  V30 4755 H 443.153 -3.18587 0.719026 0
M  V30 4756 H 441.812 -2.45517 2.72244 0
M  V30 4757 H 441.46 -4.72336 1.72937 0
M  V30 4758 H 441.16 -4.73069 3.48538 0
M  V30 4759 H 442.684 -5.40475 2.84112 0
M  V30 4760 H 444.098 -3.71877 4.36326 0
M  V30 4761 H 442.495 -3.28278 5.02348 0
M  V30 4762 H 443.565 -2.00739 4.41397 0
M  V30 4763 N 444.908 -1.36708 -0.784132 0
M  V30 4764 C 446.136 -1.34398 -1.57305 0
M  V30 4765 C 446.551 0.0735577 -1.88657 0
M  V30 4766 O 445.908 1.03193 -1.50524 0
M  V30 4767 C 445.959 -2.17053 -2.89085 0
M  V30 4768 O 445.68 -3.53281 -2.59083 0
M  V30 4769 C 447.181 -2.22583 -3.83369 0
M  V30 4770 H 444.401 -0.460819 -0.487736 0
M  V30 4771 H 446.945 -1.79879 -0.972819 0
M  V30 4772 H 445.1 -1.75113 -3.45564 0
M  V30 4773 H 445.514 -3.9647 -3.43383 0
M  V30 4774 H 446.988 -2.84763 -4.72878 0
M  V30 4775 H 447.465 -1.23075 -4.21603 0
M  V30 4776 H 448.071 -2.64781 -3.32823 0
M  V30 4777 N 446.386 1.0089 -1.21074 0
M  V30 4778 C 447.611 1.78727 -1.05221 0
M  V30 4779 C 448.036 1.83932 0.393795 0
M  V30 4780 O 447.394 1.28004 1.28393 0
M  V30 4781 C 447.442 3.20665 -1.64944 0
M  V30 4782 O 446.546 4.02632 -0.892273 0
M  V30 4783 H 445.887 0.550973 -0.370574 0
M  V30 4784 H 448.417 1.26847 -1.60534 0
M  V30 4785 H 448.427 3.71352 -1.69002 0
M  V30 4786 H 447.102 3.16191 -2.70177 0
M  V30 4787 H 445.679 3.61207 -0.926492 0
M  V30 4788 N 447.864 1.01787 1.20321 0
M  V30 4789 C 449.111 0.707936 1.89722 0
M  V30 4790 C 449.439 -0.762535 1.78929 0
M  V30 4791 O 448.694 -1.56977 1.16861 0
M  V30 4792 C 448.993 1.09076 3.40349 0
M  V30 4793 C 448.659 2.55765 3.71342 0
M  V30 4794 C 447.321 2.95845 3.79511 0
M  V30 4795 C 449.673 3.50723 3.85542 0
M  V30 4796 C 447.001 4.2982 3.99339 0
M  V30 4797 C 449.353 4.84387 4.06881 0
M  V30 4798 C 448.017 5.24172 4.1328 0
M  V30 4799 H 447.287 0.259052 0.694243 0
M  V30 4800 H 449.934 1.27868 1.42555 0
M  V30 4801 H 448.239 0.438453 3.89339 0
M  V30 4802 H 449.936 0.828636 3.92345 0
M  V30 4803 H 446.526 2.2371 3.65584 0
M  V30 4804 H 450.71 3.20916 3.78585 0
M  V30 4805 H 445.966 4.60196 4.02529 0
M  V30 4806 H 450.14 5.57891 4.1681 0
M  V30 4807 H 447.767 6.27997 4.28396 0
M  V30 4808 N 449.342 -1.36122 0.79427 0
M  V30 4809 C 450.272 -2.32551 0.210328 0
M  V30 4810 C 451.253 -1.56884 -0.657386 0
M  V30 4811 O 452.438 -1.85014 -0.590207 0
M  V30 4812 C 449.568 -3.41128 -0.651819 0
M  V30 4813 C 448.522 -4.27842 0.116395 0
M  V30 4814 C 447.848 -5.2763 -0.86666 0
M  V30 4815 C 449.148 -5.05647 1.30837 0
M  V30 4816 H 450.842 -2.81636 1.01594 0
M  V30 4817 H 448.388 -1.35407 0.489981 0
M  V30 4818 H 450.341 -4.07581 -1.07031 0
M  V30 4819 H 449.065 -2.90622 -1.49019 0
M  V30 4820 H 447.724 -3.62952 0.515915 0
M  V30 4821 H 447.372 -4.73395 -1.70019 0
M  V30 4822 H 447.072 -5.86514 -0.35705 0
M  V30 4823 H 448.596 -5.96955 -1.28361 0
M  V30 4824 H 450.01 -5.65113 0.965393 0
M  V30 4825 H 448.407 -5.73967 1.75161 0
M  V30 4826 H 449.477 -4.37006 2.10128 0
M  V30 4827 N 450.82 -0.546701 -1.47814 0
M  V30 4828 C 451.75 0.195317 -2.32682 0
M  V30 4829 C 452.731 0.918981 -1.43139 0
M  V30 4830 O 453.916 0.901501 -1.72008 0
M  V30 4831 C 451.046 1.23237 -3.247 0
M  V30 4832 C 450 0.625818 -4.234 0
M  V30 4833 C 449.326 1.76674 -5.04669 0
M  V30 4834 C 450.626 -0.413515 -5.2066 0
M  V30 4835 H 452.32 -0.513184 -2.94969 0
M  V30 4836 H 449.866 -0.248241 -1.41844 0
M  V30 4837 H 451.819 1.75955 -3.82907 0
M  V30 4838 H 450.543 1.97067 -2.60446 0
M  V30 4839 H 449.202 0.120023 -3.66403 0
M  V30 4840 H 448.85 2.49383 -4.36826 0
M  V30 4841 H 448.55 1.36673 -5.71484 0
M  V30 4842 H 450.074 2.29738 -5.65732 0
M  V30 4843 H 451.488 0.0272042 -5.73294 0
M  V30 4844 H 449.885 -0.731825 -5.95621 0
M  V30 4845 H 450.955 -1.31325 -4.66778 0
M  V30 4846 N 452.299 1.55045 -0.282633 0
M  V30 4847 C 453.546 1.9976 0.33199 0
M  V30 4848 C 453.874 1.17105 1.55295 0
M  V30 4849 O 453.129 0.230599 1.94337 0
M  V30 4850 C 453.428 3.49422 0.750938 0
M  V30 4851 C 453.094 4.4941 -0.366228 0
M  V30 4852 C 451.756 4.76471 -0.672964 0
M  V30 4853 C 454.108 5.09054 -1.11864 0
M  V30 4854 C 451.436 5.60442 -1.73556 0
M  V30 4855 C 453.788 5.9418 -2.17102 0
M  V30 4856 C 452.452 6.19558 -2.48402 0
M  V30 4857 H 451.722 0.730974 0.121484 0
M  V30 4858 H 454.369 1.8732 -0.39791 0
M  V30 4859 H 452.674 3.59377 1.56063 0
M  V30 4860 H 454.371 3.81432 1.23736 0
M  V30 4861 H 450.961 4.2844 -0.117041 0
M  V30 4862 H 455.145 4.88165 -0.894925 0
M  V30 4863 H 450.401 5.78349 -1.983 0
M  V30 4864 H 454.575 6.39427 -2.75873 0
M  V30 4865 H 452.202 6.84417 -3.30874 0
M  V30 4866 N 453.777 0.010035 1.57597 0
M  V30 4867 C 454.707 -0.976857 2.12084 0
M  V30 4868 C 455.688 -1.35191 1.03235 0
M  V30 4869 O 456.873 -1.43389 1.3097 0
M  V30 4870 C 454.003 -2.26548 2.63236 0
M  V30 4871 C 452.957 -2.03175 3.76701 0
M  V30 4872 C 452.283 -3.38138 4.14206 0
M  V30 4873 C 453.583 -1.38625 5.03568 0
M  V30 4874 H 455.277 -0.523145 2.94794 0
M  V30 4875 H 452.823 -0.250195 1.4181 0
M  V30 4876 H 454.776 -2.95952 2.99984 0
M  V30 4877 H 453.5 -2.74051 1.77661 0
M  V30 4878 H 452.159 -1.36195 3.40362 0
M  V30 4879 H 451.807 -3.83363 3.25641 0
M  V30 4880 H 451.507 -3.23312 4.90656 0
M  V30 4881 H 453.031 -4.08841 4.53521 0
M  V30 4882 H 454.445 -1.98 5.38023 0
M  V30 4883 H 452.842 -1.34256 5.84889 0
M  V30 4884 H 453.912 -0.356722 4.83586 0
M  V30 4885 N 455.255 -1.55392 -0.262866 0
M  V30 4886 C 456.48 -1.80847 -1.01533 0
M  V30 4887 C 456.905 -0.584946 -1.78774 0
M  V30 4888 O 456.263 0.465701 -1.75217 0
M  V30 4889 C 456.311 -3.03866 -1.94159 0
M  V30 4890 O 455.415 -2.79662 -3.03089 0
M  V30 4891 H 454.756 -0.597441 -0.289759 0
M  V30 4892 H 457.286 -2.02553 -0.288698 0
M  V30 4893 H 457.296 -3.32872 -2.35924 0
M  V30 4894 H 455.971 -3.92564 -1.37354 0
M  V30 4895 H 454.548 -2.61781 -2.65566 0
M  V30 4896 N 456.733 0.527833 -1.48498 0
M  V30 4897 C 457.696 1.61439 -1.62696 0
M  V30 4898 C 458.696 1.52824 -0.500136 0
M  V30 4899 O 459.886 1.56456 -0.765976 0
M  V30 4900 C 457.018 3.01063 -1.59918 0
M  V30 4901 H 458.211 1.50189 -2.59583 0
M  V30 4902 H 455.764 0.750055 -1.37127 0
M  V30 4903 H 456.499 3.17818 -0.645163 0
M  V30 4904 H 456.284 3.08725 -2.41726 0
M  V30 4905 H 457.774 3.80057 -1.73051 0
M  V30 4906 N 458.211 1.37122 0.776871 0
M  V30 4907 C 459.627 1.1781 1.07671 0
M  V30 4908 C 459.827 0.0107454 2.01497 0
M  V30 4909 O 458.883 -0.650756 2.4397 0
M  V30 4910 C 460.196 2.49451 1.67913 0
M  V30 4911 C 461.744 2.55927 1.80195 0
M  V30 4912 C 462.219 3.87686 2.43851 0
M  V30 4913 N 463.71 3.891 2.51307 0
M  V30 4914 C 464.445 4.87797 3.014 0
M  V30 4915 N 463.941 5.96888 3.51705 0
M  V30 4916 N 465.734 4.75205 3.00227 0
M  V30 4917 H 457.885 2.11843 0.153778 0
M  V30 4918 H 460.148 0.938927 0.130844 0
M  V30 4919 H 459.854 3.35207 1.06439 0
M  V30 4920 H 459.728 2.66169 2.67271 0
M  V30 4921 H 462.115 1.70582 2.40803 0
M  V30 4922 H 462.196 2.43097 0.796069 0
M  V30 4923 H 461.84 4.73444 1.83884 0
M  V30 4924 H 461.77 3.97817 3.45035 0
M  V30 4925 H 464.261 3.10293 2.157 0
M  V30 4926 H 464.574 6.68155 3.88316 0
M  V30 4927 H 462.919 6.0054 3.49824 0
M  V30 4928 H 466.11 3.89103 2.60224 0
M  V30 4929 H 466.283 5.52279 3.38957 0
M  V30 4930 N 459.689 -1.00246 1.21608 0
M  V30 4931 C 460.637 -2.11193 0.97469 0
M  V30 4932 C 461.631 -1.69216 -0.0789303 0
M  V30 4933 O 462.837 -1.79853 0.0726806 0
M  V30 4934 H 459.212 -0.690455 0.297953 0
M  V30 4935 H 461.183 -2.2873 1.91638 0
M  V30 4936 C 459.932 -3.43182 0.558717 0
M  V30 4937 H 459.255 -3.75918 1.3611 0
M  V30 4938 H 460.695 -4.21823 0.429154 0
M  V30 4939 C 459.154 -3.28882 -0.730648 0
M  V30 4940 O 459.684 -3.59835 -1.78554 0
M  V30 4941 N 457.89 -2.8209 -0.698131 0
M  V30 4942 H 457.437 -2.57099 0.16061 0
M  V30 4943 H 457.395 -2.72903 -1.56113 0
M  V30 4944 N 461.167 -1.02423 -1.1978 0
M  V30 4945 C 462.407 -0.726635 -1.91048 0
M  V30 4946 C 462.771 0.730947 -1.77542 0
M  V30 4947 O 463.972 1.14141 -2.43362 0
M  V30 4948 C 462.243 -1.15964 -3.38064 0
M  V30 4949 S 463.802 -0.985172 -4.27598 0
M  V30 4950 H 460.62 -0.264679 -0.659899 0
M  V30 4951 H 463.222 -1.31309 -1.44838 0
M  V30 4952 H 461.926 -2.21619 -3.45417 0
M  V30 4953 H 461.457 -0.566274 -3.89303 0
M  V30 4954 H 463.472 0.106946 -4.96085 0
M  V30 4955 N 462.645 1.35699 -0.801477 0
M  V30 4956 C 463.893 1.9852 -0.37871 0
M  V30 4957 C 464.214 1.63907 1.05638 0
M  V30 4958 O 463.484 0.919013 1.73006 0
M  V30 4959 H 462.064 0.734322 -0.137042 0
M  V30 4960 H 464.726 1.65697 -1.02619 0
M  V30 4961 H 463.822 3.08382 -0.480284 0
M  V30 4962 N 464.123 0.554532 1.47522 0
M  V30 4963 C 465.534 0.120446 1.86311 0
M  V30 4964 C 465.885 -1.30904 1.46145 0
M  V30 4965 O 465.01 -1.98434 0.863294 0
M  V30 4966 C 465.605 0.211808 3.38137 0
M  V30 4967 C 464.164 -0.167224 3.76028 0
M  V30 4968 C 463.311 0.560576 2.71575 0
M  V30 4969 H 466.262 0.764408 1.39077 0
M  V30 4970 H 466.283 -0.570275 3.76202 0
M  V30 4971 H 465.795 1.25232 3.6734 0
M  V30 4972 H 463.896 -1.20894 3.52442 0
M  V30 4973 H 464.009 0.189473 4.78725 0
M  V30 4974 H 462.373 0.00396836 2.547 0
M  V30 4975 H 463.156 1.60219 3.0362 0
M  V30 4976 N 465.601 -1.54893 0.290851 0
M  V30 4977 C 466.511 -2.26812 -0.59945 0
M  V30 4978 C 467.527 -1.29963 -1.15696 0
M  V30 4979 O 468.703 -1.62928 -1.18391 0
M  V30 4980 C 465.768 -2.98716 -1.75982 0
M  V30 4981 C 464.829 -4.1108 -1.2374 0
M  V30 4982 C 464.062 -4.79546 -2.34246 0
M  V30 4983 O 464.285 -4.47309 -3.53936 0
M  V30 4984 O 463.219 -5.67165 -2.01512 0
M  V30 4985 H 467.045 -3.03696 -0.0163561 0
M  V30 4986 H 464.63 -1.49289 0.0576755 0
M  V30 4987 H 466.512 -3.43851 -2.43607 0
M  V30 4988 H 465.187 -2.24737 -2.3297 0
M  V30 4989 H 464.094 -3.70367 -0.527163 0
M  V30 4990 H 465.427 -4.87007 -0.71307 0
M  V30 4991 N 467.08 -0.0183926 -1.57589 0
M  V30 4992 C 468.496 0.337897 -1.55982 0
M  V30 4993 C 468.696 1.73604 -1.02294 0
M  V30 4994 O 467.752 2.43589 -0.664895 0
M  V30 4995 C 469.065 0.196305 -3.00059 0
M  V30 4996 C 470.613 0.269875 -3.11834 0
M  V30 4997 C 471.088 0.157197 -4.5773 0
M  V30 4998 N 472.579 0.214521 -4.62703 0
M  V30 4999 C 473.314 0.150955 -5.73201 0
M  V30 5000 N 472.81 0.0369212 -6.9279 0
M  V30 5001 N 474.603 0.204162 -5.61729 0
M  V30 5002 H 466.754 -0.93279 -1.90821 0
M  V30 5003 H 469.017 -0.359253 -0.877292 0
M  V30 5004 H 468.723 -0.766383 -3.43248 0
M  V30 5005 H 468.597 0.970908 -3.6449 0
M  V30 5006 H 470.984 1.22302 -2.68563 0
M  V30 5007 H 471.065 -0.534918 -2.50144 0
M  V30 5008 H 470.709 -0.792479 -5.01679 0
M  V30 5009 H 470.639 0.980717 -5.17387 0
M  V30 5010 H 473.13 0.303238 -3.76681 0
M  V30 5011 H 473.443 -0.00518321 -7.728 0
M  V30 5012 H 471.788 0.0022886 -6.95 0
M  V30 5013 H 474.979 0.291575 -4.67191 0
M  V30 5014 H 475.152 0.15116 -6.47824 0
M  V30 5015 N 468.558 1.5553 0.254621 0
M  V30 5016 C 469.969 1.67518 0.824286 0
M  V30 5017 C 470.32 0.614429 1.86331 0
M  V30 5018 O 469.445 -0.240736 2.15057 0
M  V30 5019 C 470.04 3.03692 1.50189 0
M  V30 5020 C 468.599 3.17646 2.01935 0
M  V30 5021 C 467.746 2.63373 0.867746 0
M  V30 5022 H 470.697 1.58671 0.0305843 0
M  V30 5023 H 470.718 2.97706 2.36962 0
M  V30 5024 H 470.23 3.80874 0.745431 0
M  V30 5025 H 468.331 2.45273 2.80485 0
M  V30 5026 H 468.444 4.24455 2.22204 0
M  V30 5027 H 466.808 2.20999 1.26616 0
M  V30 5028 H 467.591 3.43074 0.124498 0
M  V30 5029 N 470.036 -0.519951 1.48776 0
M  V30 5030 C 471.452 -0.849418 1.35119 0
M  V30 5031 C 471.652 -1.98077 0.36982 0
M  V30 5032 O 470.708 -2.51664 -0.205359 0
M  V30 5033 C 472.021 -1.20748 2.75391 0
M  V30 5034 C 473.569 -1.31679 2.83954 0
M  V30 5035 C 474.044 -1.70824 4.24951 0
M  V30 5036 N 475.535 -1.77908 4.27672 0
M  V30 5037 C 476.27 -2.09603 5.33717 0
M  V30 5038 N 475.766 -2.39652 6.5003 0
M  V30 5039 N 477.559 -2.10694 5.21119 0
M  V30 5040 H 469.71 0.226377 2.1119 0
M  V30 5041 H 471.973 0.0386519 0.947212 0
M  V30 5042 H 471.679 -0.449703 3.48813 0
M  V30 5043 H 471.553 -2.15534 3.09556 0
M  V30 5044 H 473.94 -2.06532 2.10781 0
M  V30 5045 H 474.021 -0.3499 2.53396 0
M  V30 5046 H 473.665 -0.965282 4.98643 0
M  V30 5047 H 473.595 -2.6858 4.52959 0
M  V30 5048 H 476.086 -1.56923 3.43779 0
M  V30 5049 H 476.399 -2.6297 7.26682 0
M  V30 5050 H 474.744 -2.37149 6.53288 0
M  V30 5051 H 477.935 -1.86682 4.29264 0
M  V30 5052 H 478.108 -2.35062 6.03863 0
M  V30 5053 N 471.514 -1.37532 -0.769588 0
M  V30 5054 C 472.424 -1.35668 -1.91393 0
M  V30 5055 C 473.44 -0.255954 -1.72107 0
M  V30 5056 O 474.616 -0.491704 -1.95305 0
M  V30 5057 C 471.681 -1.16481 -3.26547 0
M  V30 5058 C 470.742 -2.36212 -3.58472 0
M  V30 5059 C 469.975 -2.17932 -4.87177 0
M  V30 5060 O 470.198 -1.1647 -5.58382 0
M  V30 5061 O 469.132 -3.06167 -5.18214 0
M  V30 5062 H 472.958 -2.32055 -1.95918 0
M  V30 5063 H 470.543 -1.18284 -0.912641 0
M  V30 5064 H 472.425 -1.07778 -4.07384 0
M  V30 5065 H 471.1 -0.231687 -3.2287 0
M  V30 5066 H 470.007 -2.50488 -2.77861 0
M  V30 5067 H 471.34 -3.281 -3.66894 0
M  V30 5068 N 472.992 0.995999 -1.22138 0
M  V30 5069 C 474.217 1.77601 -1.0711 0
M  V30 5070 C 474.642 1.84339 0.374264 0
M  V30 5071 O 474 1.29359 1.27028 0
M  V30 5072 C 474.048 3.18897 -1.68336 0
M  V30 5073 O 473.152 4.01663 -0.934928 0
M  V30 5074 H 472.493 0.547011 -0.376397 0
M  V30 5075 H 475.023 1.25137 -1.6187 0
M  V30 5076 H 475.033 3.69539 -1.72931 0
M  V30 5077 H 473.708 3.13308 -2.73516 0
M  V30 5078 H 472.285 3.60204 -0.964751 0
M  V30 5079 N 474.47 1.03057 1.19235 0
M  V30 5080 C 475.695 0.74757 1.93458 0
M  V30 5081 C 476.12 -0.687648 1.7508 0
M  V30 5082 O 475.478 -1.47499 1.05422 0
M  V30 5083 C 475.526 1.10604 3.43219 0
M  V30 5084 O 474.63 0.225671 4.11782 0
M  V30 5085 H 473.971 0.276047 0.603899 0
M  V30 5086 H 476.501 1.3777 1.51263 0
M  V30 5087 H 476.511 1.06366 3.93891 0
M  V30 5088 H 475.186 2.15165 3.55917 0
M  V30 5089 H 473.763 0.326795 3.71465 0
M  V30 5090 N 475.948 -1.35272 0.808662 0
M  V30 5091 C 477.188 -2.00534 0.395668 0
M  V30 5092 C 477.552 -1.62755 -1.01857 0
M  V30 5093 O 478.753 -2.20752 -1.53368 0
M  V30 5094 C 477.024 -3.52732 0.575771 0
M  V30 5095 S 478.583 -4.38067 0.253507 0
M  V30 5096 H 475.401 -0.694962 0.150165 0
M  V30 5097 H 478.003 -1.64823 1.05137 0
M  V30 5098 H 476.707 -3.77714 1.60499 0
M  V30 5099 H 476.238 -3.93285 -0.0951739 0
M  V30 5100 H 478.253 -4.87252 -0.938068 0
M  V30 5101 N 477.426 -0.562348 -1.47226 0
M  V30 5102 C 478.376 0.202967 -2.27095 0
M  V30 5103 C 479.36 0.880611 -1.34663 0
M  V30 5104 O 480.552 0.778069 -1.58981 0
M  V30 5105 C 477.681 1.22906 -3.20545 0
M  V30 5106 C 476.767 0.554566 -4.20459 0
M  V30 5107 N 477.158 -0.378295 -5.04383 0
M  V30 5108 C 475.456 0.807854 -4.38623 0
M  V30 5109 C 476.157 -0.770583 -5.76573 0
M  V30 5110 N 475.133 -0.124263 -5.43458 0
M  V30 5111 H 478.935 -0.514196 -2.89367 0
M  V30 5112 H 476.449 -0.382655 -1.57827 0
M  V30 5113 H 478.446 1.79134 -3.76453 0
M  V30 5114 H 477.106 1.94726 -2.59831 0
M  V30 5115 H 478.117 -0.75274 -5.124 0
M  V30 5116 H 474.794 1.51418 -3.89075 0
M  V30 5117 H 476.184 -1.53742 -6.54074 0
M  V30 5118 N 478.904 1.54736 -0.299062 0
M  V30 5119 C 480.153 1.99279 0.311549 0
M  V30 5120 C 480.466 1.19107 1.55154 0
M  V30 5121 O 481.672 1.53908 2.23662 0
M  V30 5122 C 480.128 3.54768 0.605632 0
M  V30 5123 C 479.736 4.43746 -0.615914 0
M  V30 5124 C 481.48 4.07841 1.17754 0
M  V30 5125 C 479.387 5.90663 -0.29509 0
M  V30 5126 H 478.317 0.744359 0.120187 0
M  V30 5127 H 480.968 1.78919 -0.407464 0
M  V30 5128 H 479.35 3.71021 1.38419 0
M  V30 5129 H 480.524 4.39267 -1.39218 0
M  V30 5130 H 478.839 4.01434 -1.10633 0
M  V30 5131 H 481.436 5.15174 1.43179 0
M  V30 5132 H 481.779 3.58324 2.11918 0
M  V30 5133 H 482.312 3.95123 0.460739 0
M  V30 5134 H 479.051 6.44325 -1.20524 0
M  V30 5135 H 478.571 5.98155 0.44394 0
M  V30 5136 H 480.25 6.46916 0.104048 0
M  V30 5137 N 480.382 0.0267497 1.57577 0
M  V30 5138 C 481.628 -0.653371 1.91987 0
M  V30 5139 C 481.961 -1.71915 0.903263 0
M  V30 5140 O 481.236 -1.94358 -0.0743387 0
M  V30 5141 C 481.519 -1.272 3.36886 0
M  V30 5142 C 481.372 -0.215938 4.49281 0
M  V30 5143 C 482.691 -2.19069 3.81703 0
M  V30 5144 H 479.81 -0.236047 0.698177 0
M  V30 5145 H 482.452 0.0835236 1.89816 0
M  V30 5146 H 480.602 -1.90005 3.38866 0
M  V30 5147 H 482.274 0.41449 4.59434 0
M  V30 5148 H 480.517 0.458855 4.31366 0
M  V30 5149 H 481.188 -0.688347 5.47691 0
M  V30 5150 H 483.664 -1.66253 3.81444 0
M  V30 5151 H 482.54 -2.59307 4.83788 0
M  V30 5152 H 482.801 -3.08087 3.17072 0
M  V30 5153 N 481.861 -1.55662 -0.24637 0
M  V30 5154 C 483.089 -1.81575 -0.991876 0
M  V30 5155 C 483.504 -0.602545 -1.78927 0
M  V30 5156 O 482.861 0.428795 -1.77391 0
M  V30 5157 C 482.912 -3.05711 -1.92933 0
M  V30 5158 O 482.633 -4.22348 -1.1642 0
M  V30 5159 C 484.134 -3.44428 -2.79078 0
M  V30 5160 H 481.354 -0.604209 -0.291844 0
M  V30 5161 H 483.898 -2.02722 -0.269095 0
M  V30 5162 H 482.053 -2.86612 -2.60638 0
M  V30 5163 H 482.467 -4.92706 -1.79835 0
M  V30 5164 H 483.941 -4.34388 -3.40603 0
M  V30 5165 H 484.418 -2.65037 -3.50217 0
M  V30 5166 H 485.024 -3.65879 -2.16824 0
M  V30 5167 N 483.339 0.512053 -1.4905 0
M  V30 5168 C 484.588 1.26343 -1.57227 0
M  V30 5169 C 484.901 1.93876 -0.259155 0
M  V30 5170 O 486.107 2.70612 -0.219358 0
M  V30 5171 C 484.563 2.29343 -2.77362 0
M  V30 5172 C 484.171 1.67799 -4.15388 0
M  V30 5173 C 485.915 3.05378 -2.94864 0
M  V30 5174 C 483.822 2.68845 -5.2676 0
M  V30 5175 H 482.752 0.475231 -0.585382 0
M  V30 5176 H 485.403 0.53862 -1.75417 0
M  V30 5177 H 483.785 3.04938 -2.52643 0
M  V30 5178 H 484.959 0.982715 -4.50199 0
M  V30 5179 H 483.274 1.04194 -4.03153 0
M  V30 5180 H 485.871 3.80921 -3.75238 0
M  V30 5181 H 486.214 3.62327 -2.05 0
M  V30 5182 H 486.747 2.36898 -3.19569 0
M  V30 5183 H 483.486 2.16692 -6.18647 0
M  V30 5184 H 483.006 3.36647 -4.96416 0
M  V30 5185 H 484.685 3.31487 -5.5563 0
M  V30 5186 N 484.817 1.37938 0.762283 0
M  V30 5187 C 486.042 1.37059 1.55659 0
M  V30 5188 C 486.467 -0.0396123 1.88058 0
M  V30 5189 O 485.825 -1.01929 1.49934 0
M  V30 5190 C 485.873 2.22494 2.83776 0
M  V30 5191 O 484.977 1.63607 3.78559 0
M  V30 5192 H 484.318 0.467892 0.47114 0
M  V30 5193 H 486.848 1.81587 0.942725 0
M  V30 5194 H 486.858 2.36045 3.32786 0
M  V30 5195 H 485.533 3.24993 2.59524 0
M  V30 5196 H 484.11 1.5915 3.37233 0
M  V30 5197 N 486.295 -0.989507 1.22664 0
M  V30 5198 C 487.52 -1.77031 1.08051 0
M  V30 5199 C 487.945 -1.84535 -0.364483 0
M  V30 5200 O 487.303 -1.3003 -1.2634 0
M  V30 5201 C 487.351 -3.18 1.70024 0
M  V30 5202 O 486.455 -4.01161 0.956216 0
M  V30 5203 H 485.796 -0.545008 0.379292 0
M  V30 5204 H 488.326 -1.24277 1.62531 0
M  V30 5205 H 488.336 -3.68616 1.74888 0
M  V30 5206 H 487.011 -3.11853 2.75174 0
M  V30 5207 H 485.588 -3.59687 0.98384 0
M  V30 5208 N 487.773 -1.03688 -1.18687 0
M  V30 5209 C 488.998 -0.757819 -1.93059 0
M  V30 5210 C 489.423 0.678353 -1.75442 0
M  V30 5211 O 488.781 1.46938 -1.06203 0
M  V30 5212 C 488.829 -1.12423 -3.42627 0
M  V30 5213 O 487.933 -0.247505 -4.11657 0
M  V30 5214 H 487.274 -0.279245 -0.602427 0
M  V30 5215 H 489.804 -1.3857 -1.5053 0
M  V30 5216 H 489.814 -1.08454 -3.93322 0
M  V30 5217 H 488.489 -2.17049 -3.54771 0
M  V30 5218 H 487.066 -0.34649 -3.71287 0
M  V30 5219 N 489.251 1.34841 -0.815825 0
M  V30 5220 C 490.161 2.33425 -0.234462 0
M  V30 5221 C 491.177 1.62295 0.627413 0
M  V30 5222 O 492.353 1.94109 0.536987 0
M  V30 5223 C 489.418 3.41471 0.599849 0
M  V30 5224 C 488.479 4.28362 -0.283596 0
M  V30 5225 C 487.712 5.31248 0.51099 0
M  V30 5226 O 487.935 5.43056 1.7449 0
M  V30 5227 O 486.869 6.01812 -0.10297 0
M  V30 5228 H 490.695 2.84962 -1.05024 0
M  V30 5229 H 488.28 1.37774 -0.577809 0
M  V30 5230 H 490.162 4.07464 1.07475 0
M  V30 5231 H 488.837 2.9219 1.39308 0
M  V30 5232 H 487.744 3.65318 -0.805836 0
M  V30 5233 H 489.077 4.81066 -1.041 0
M  V30 5234 N 490.729 0.570148 1.46925 0
M  V30 5235 C 491.976 0.0509529 2.02436 0
M  V30 5236 C 492.304 -1.30405 1.44308 0
M  V30 5237 O 491.559 -1.86493 0.593198 0
M  V30 5238 C 491.858 -0.0780336 3.57315 0
M  V30 5239 C 491.524 1.20775 4.34424 0
M  V30 5240 C 490.186 1.56004 4.5521 0
M  V30 5241 C 492.538 2.0592 4.78797 0
M  V30 5242 C 489.866 2.76201 5.17619 0
M  V30 5243 C 492.218 3.25332 5.42533 0
M  V30 5244 C 490.882 3.60859 5.61549 0
M  V30 5245 H 490.152 0.018645 0.740765 0
M  V30 5246 H 492.799 0.744262 1.76445 0
M  V30 5247 H 491.104 -0.854394 3.82371 0
M  V30 5248 H 492.801 -0.495312 3.97929 0
M  V30 5249 H 489.391 0.923469 4.18533 0
M  V30 5250 H 493.575 1.80008 4.62505 0
M  V30 5251 H 488.831 3.0388 5.30535 0
M  V30 5252 H 493.005 3.91586 5.75876 0
M  V30 5253 H 490.632 4.54088 6.09678 0
M  V30 5254 N 492.207 -1.54576 0.307264 0
M  V30 5255 C 493.484 -1.92377 -0.353605 0
M  V30 5256 C 493.864 -1.23517 -1.71192 0
M  V30 5257 O 493.212 -0.373101 -2.25433 0
M  V30 5258 C 493.422 -3.45928 -0.462039 0
M  V30 5259 C 494.77 -4.18278 -0.729975 0
M  V30 5260 O 495.794 -3.51997 -0.545605 0
M  V30 5261 O 494.653 -5.3563 -1.08454 0
M  V30 5262 H 491.747 -0.802747 -0.198812 0
M  V30 5263 H 494.293 -1.65929 0.355783 0
M  V30 5264 H 493.065 -3.88187 0.492592 0
M  V30 5265 H 492.688 -3.78431 -1.21965 0
M  V30 5266 N 493.685 -0.035106 -1.57561 0
M  V30 5267 C 494.933 0.64096 -1.91667 0
M  V30 5268 C 495.254 1.72323 -0.912681 0
M  V30 5269 O 494.524 1.95849 0.0449089 0
M  V30 5270 H 493.104 0.239743 -0.707483 0
M  V30 5271 H 495.766 -0.084321 -1.94718 0
M  V30 5272 H 494.862 1.08987 -2.92452 0
M  V30 5273 O 495.202 1.61149 0.106394 0
M  V30 5274 H 495.893 1.7916 0.736293 0
M  V30 END ATOM
M  V30 BEGIN BOND
M  V30 END BOND
M  V30 END CTAB
M  END
$$$$
