drugbank_target|Q8TDR2 Serine/threonine-protein kinase 35 (DB12010)
 OpenBabel12092121133D

  0  0  0     0  0            999 V3000
M  V30 BEGIN CTAB
M  V30 COUNTS 8186 8272 0 0 0
M  V30 BEGIN ATOM
M  V30 1 H -0.908 1.98254 -0.117106 0
M  V30 2 N 0 1.576 0 0
M  V30 3 C 0.933 2.03868 1.02534 0
M  V30 4 C 1.911 0.928543 1.3348 0
M  V30 5 O 3.095 1.19667 1.45644 0
M  V30 6 C 0.222 2.43627 2.35294 0
M  V30 7 C -0.732 3.65373 2.2001 0
M  V30 8 S 0.101 5.13292 1.52614 0
M  V30 9 C 1.257 5.56322 2.86805 0
M  V30 10 H 1.49 2.90518 0.631377 0
M  V30 11 H -0.977 1.52953 0.210867 0
M  V30 12 H 0.981 2.67203 3.11629 0
M  V30 13 H -0.358 1.57376 2.7183 0
M  V30 14 H -1.165 3.90944 3.18086 0
M  V30 15 H -1.563 3.418 1.51819 0
M  V30 16 H 0.729 5.58782 3.83104 0
M  V30 17 H 1.672 6.56266 2.65933 0
M  V30 18 H 2.08 4.83886 2.90714 0
M  V30 19 N 1.4781 -0.272755 1.55222 0
M  V30 20 C 2.7261 -1.00234 1.75492 0
M  V30 21 C 3.0471 -1.8681 0.5592 0
M  V30 22 O 2.3171 -1.91215 -0.425882 0
M  V30 23 H 0.8971 -0.373076 0.647166 0
M  V30 24 H 3.5591 -0.296926 1.92625 0
M  V30 25 H 2.6551 -1.63913 2.65592 0
M  V30 26 N 2.9562 -1.48159 -0.537278 0
M  V30 27 C 3.9062 -1.5854 -1.63857 0
M  V30 28 C 4.8902 -0.442969 -1.54682 0
M  V30 29 O 6.0822 -0.69401 -1.62827 0
M  V30 30 C 3.2112 -1.62144 -3.02596 0
M  V30 31 C 2.2972 -2.81841 -3.16901 0
M  V30 32 N 2.6882 -4.06337 -3.01204 0
M  V30 33 C 0.9862 -2.79021 -3.47942 0
M  V30 34 C 1.6872 -4.86606 -3.18731 0
M  V30 35 N 0.6632 -4.19288 -3.45974 0
M  V30 36 H 4.4652 -2.5255 -1.50319 0
M  V30 37 H 1.9792 -1.4443 -0.742555 0
M  V30 38 H 3.9762 -1.67674 -3.81695 0
M  V30 39 H 2.6362 -0.69245 -3.17231 0
M  V30 40 H 3.6472 -4.36888 -2.78117 0
M  V30 41 H 0.3242 -1.95347 -3.6898 0
M  V30 42 H 1.7142 -5.95385 -3.11394 0
M  V30 43 N 4.4343 0.785586 -1.36625 0
M  V30 44 C 5.3663 1.90711 -1.2713 0
M  V30 45 C 6.3793 1.61688 -0.189986 0
M  V30 46 O 7.5683 1.72864 -0.445014 0
M  V30 47 C 4.6683 3.25611 -0.939713 0
M  V30 48 C 3.8413 3.82385 -2.12369 0
M  V30 49 C 2.9003 4.95732 -1.76456 0
M  V30 50 O 1.9263 5.12047 -2.48589 0
M  V30 51 N 3.1283 5.76258 -0.700492 0
M  V30 52 H 5.8933 1.99376 -2.23762 0
M  V30 53 H 3.4543 0.964041 -1.30069 0
M  V30 54 H 5.4463 3.98937 -0.680554 0
M  V30 55 H 4.0163 3.12538 -0.0624074 0
M  V30 56 H 3.2363 3.01001 -2.54543 0
M  V30 57 H 4.5243 4.17047 -2.9146 0
M  V30 58 H 3.9223 5.65609 -0.101624 0
M  V30 59 H 2.4793 6.4987 -0.501165 0
M  V30 60 N 5.9124 1.20967 1.01018 0
M  V30 61 C 6.8224 0.980157 2.13143 0
M  V30 62 C 7.8384 -0.0660665 1.73875 0
M  V30 63 O 9.0144 0.122821 2.01025 0
M  V30 64 C 6.0794 0.54216 3.42435 0
M  V30 65 C 5.1404 1.65999 3.95908 0
M  V30 66 C 4.3734 1.2428 5.19028 0
M  V30 67 O 4.5964 0.114196 5.70286 0
M  V30 68 O 3.5304 2.05271 5.65816 0
M  V30 69 H 7.3564 1.91913 2.35379 0
M  V30 70 H 4.9414 0.994099 1.11526 0
M  V30 71 H 6.8234 0.30744 4.20277 0
M  V30 72 H 5.4984 -0.36815 3.216 0
M  V30 73 H 4.4054 1.94906 3.19316 0
M  V30 74 H 5.7384 2.54753 4.21143 0
M  V30 75 N 7.3905 -1.2043 1.01659 0
M  V30 76 C 8.6155 -1.94318 0.724942 0
M  V30 77 C 9.0405 -1.74266 -0.708034 0
M  V30 78 O 8.3985 -1.03694 -1.48719 0
M  V30 79 C 8.4465 -3.44486 1.06591 0
M  V30 80 O 7.5505 -4.12017 0.177599 0
M  V30 81 H 6.8915 -0.60708 0.26898 0
M  V30 82 H 9.4215 -1.52861 1.35995 0
M  V30 83 H 9.4315 -3.95106 1.01762 0
M  V30 84 H 8.1065 -3.58404 2.10997 0
M  V30 85 H 6.6835 -3.71821 0.283421 0
M  V30 86 N 8.8686 -0.792821 -1.36206 0
M  V30 87 C 10.2796 -0.429513 -1.81692 0
M  V30 88 C 10.6306 1.04695 -1.65932 0
M  V30 89 O 9.7556 1.81256 -1.18218 0
M  V30 90 C 10.3506 -0.772831 -3.29868 0
M  V30 91 C 8.9096 -0.462307 -3.7355 0
M  V30 92 C 8.0566 -1.00569 -2.5842 0
M  V30 93 H 11.0076 -0.985672 -1.24379 0
M  V30 94 H 11.0286 -0.0651928 -3.80444 0
M  V30 95 H 10.5406 -1.84747 -3.41307 0
M  V30 96 H 8.6416 0.604158 -3.67669 0
M  V30 97 H 8.7546 -0.985299 -4.68859 0
M  V30 98 H 7.1186 -0.428734 -2.51066 0
M  V30 99 H 7.9016 -2.08616 -2.72643 0
M  V30 100 N 10.3467 1.47872 -0.545128 0
M  V30 101 C 11.2767 2.32661 0.197793 0
M  V30 102 C 12.2577 1.43041 0.920504 0
M  V30 103 O 13.4427 1.71912 0.90333 0
M  V30 104 C 10.5727 3.24569 1.23582 0
M  V30 105 C 9.5267 4.23333 0.630323 0
M  V30 106 C 8.8527 5.0448 1.77211 0
M  V30 107 C 10.1527 5.20704 -0.407974 0
M  V30 108 H 11.8467 2.95024 -0.510045 0
M  V30 109 H 9.3927 1.4187 -0.246731 0
M  V30 110 H 11.3457 3.8272 1.76362 0
M  V30 111 H 10.0697 2.60236 1.97344 0
M  V30 112 H 8.7287 3.6639 0.123922 0
M  V30 113 H 8.3767 4.36561 2.49847 0
M  V30 114 H 8.0767 5.71339 1.37281 0
M  V30 115 H 9.6007 5.65487 2.3034 0
M  V30 116 H 11.0147 5.7329 0.033305 0
M  V30 117 H 9.4117 5.95699 -0.725486 0
M  V30 118 H 10.4817 4.66917 -1.30828 0
M  V30 119 N 11.8248 0.280983 1.55075 0
M  V30 120 C 12.7878 -0.590896 2.21452 0
M  V30 121 C 13.7878 -1.07682 1.19421 0
M  V30 122 O 14.9778 -0.97605 1.44288 0
M  V30 123 C 12.1098 -1.81587 2.88511 0
M  V30 124 H 13.3028 -0.0112554 2.99898 0
M  V30 125 H 10.8558 0.0316438 1.56268 0
M  V30 126 H 11.5908 -2.43587 2.14093 0
M  V30 127 H 11.3758 -1.4753 3.63287 0
M  V30 128 H 12.8658 -2.43575 3.39206 0
M  V30 129 N 13.3029 -1.57598 0.00835791 0
M  V30 130 C 14.7189 -1.55764 -0.347822 0
M  V30 131 C 14.9189 -1.01186 -1.74252 0
M  V30 132 O 13.9749 -0.649371 -2.44007 0
M  V30 133 C 15.2879 -2.99927 -0.215407 0
M  V30 134 C 16.8359 -3.11656 -0.289725 0
M  V30 135 C 17.3109 -4.57621 -0.18634 0
M  V30 136 N 18.8019 -4.62557 -0.243978 0
M  V30 137 C 19.5369 -5.73094 -0.18745 0
M  V30 138 N 19.0329 -6.92753 -0.0810331 0
M  V30 139 N 20.8259 -5.61588 -0.239925 0
M  V30 140 H 12.9769 -1.91411 0.92062 0
M  V30 141 H 15.2399 -0.879562 0.353659 0
M  V30 142 H 14.9459 -3.43729 0.744512 0
M  V30 143 H 14.8199 -3.63865 -0.994097 0
M  V30 144 H 17.2069 -2.67779 -1.24009 0
M  V30 145 H 17.2879 -2.5048 0.51898 0
M  V30 146 H 16.9319 -5.02174 0.760519 0
M  V30 147 H 16.8619 -5.16752 -1.01364 0
M  V30 148 H 19.3529 -3.76481 -0.327217 0
M  V30 149 H 19.6659 -7.72787 -0.0440241 0
M  V30 150 H 18.0109 -6.94984 -0.0465419 0
M  V30 151 H 21.2019 -4.66996 -0.321317 0
M  V30 152 H 21.3749 -6.47714 -0.192407 0
M  V30 153 N 14.781 0.264519 -1.55364 0
M  V30 154 C 15.744 1.31046 -1.88042 0
M  V30 155 C 16.744 1.41943 -0.755569 0
M  V30 156 O 17.934 1.40947 -1.02369 0
M  V30 157 C 15.066 2.69067 -2.09323 0
M  V30 158 H 16.259 1.03297 -2.81549 0
M  V30 159 H 13.812 0.502989 -1.47986 0
M  V30 160 H 14.547 3.01982 -1.18226 0
M  V30 161 H 14.332 2.62542 -2.91229 0
M  V30 162 H 15.822 3.44623 -2.35848 0
M  V30 163 N 16.2591 1.48442 0.529413 0
M  V30 164 C 17.6701 1.5002 1.11134 0
M  V30 165 C 18.0211 0.27031 1.94329 0
M  V30 166 O 17.1461 -0.622507 2.07253 0
M  V30 167 C 17.7411 2.71834 2.02217 0
M  V30 168 C 16.3001 2.76283 2.55627 0
M  V30 169 C 15.4471 2.43542 1.326 0
M  V30 170 H 18.3981 1.5555 0.314641 0
M  V30 171 H 18.4191 2.50384 2.8651 0
M  V30 172 H 17.9311 3.61331 1.41639 0
M  V30 173 H 16.0321 1.90995 3.19924 0
M  V30 174 H 16.1451 3.77725 2.94721 0
M  V30 175 H 14.5091 1.94709 1.64196 0
M  V30 176 H 15.2921 3.3528 0.737734 0
M  V30 177 N 17.7372 -0.778329 1.37039 0
M  V30 178 C 18.7002 -1.87301 1.32102 0
M  V30 179 C 19.7002 -1.59198 0.226405 0
M  V30 180 O 20.8902 -1.67403 0.481861 0
M  V30 181 C 18.0222 -3.24309 1.05055 0
M  V30 182 H 19.2152 -1.93093 2.29467 0
M  V30 183 H 16.7682 -0.977358 1.21973 0
M  V30 184 H 17.5032 -3.24196 0.0819373 0
M  V30 185 H 17.2882 -3.46098 1.84279 0
M  V30 186 H 18.7782 -4.04382 1.04234 0
M  V30 187 N 19.2153 -1.21501 -1.00376 0
M  V30 188 C 20.4633 -1.03095 -1.73827 0
M  V30 189 C 20.7843 0.436341 -1.90055 0
M  V30 190 O 20.0543 1.31466 -1.45236 0
M  V30 191 H 18.6343 -0.378487 -0.644016 0
M  V30 192 H 21.2963 -1.52831 -1.20949 0
M  V30 193 H 20.3923 -1.49991 -2.73695 0
M  V30 194 N 20.6934 1.19889 -1.02296 0
M  V30 195 C 21.9414 1.89046 -0.714558 0
M  V30 196 C 22.2624 1.79636 0.758681 0
M  V30 197 O 21.5324 1.20292 1.54618 0
M  V30 198 H 20.1124 0.699802 -0.261317 0
M  V30 199 H 22.7744 1.45574 -1.29592 0
M  V30 200 H 21.8704 2.95524 -1.0036 0
M  V30 201 N 22.1715 0.800033 1.35784 0
M  V30 202 C 23.1345 0.211565 2.28221 0
M  V30 203 C 24.1345 -0.59728 1.49296 0
M  V30 204 O 25.3245 -0.416721 1.69142 0
M  V30 205 C 22.4565 -0.705846 3.33513 0
M  V30 206 H 23.6495 1.02677 2.81776 0
M  V30 207 H 21.2025 0.570211 1.45528 0
M  V30 208 H 21.9375 -1.54498 2.85133 0
M  V30 209 H 21.7225 -0.127655 3.91892 0
M  V30 210 H 23.2125 -1.11211 4.02519 0
M  V30 211 N 23.6496 -1.47581 0.552962 0
M  V30 212 C 24.6126 -2.28439 -0.186605 0
M  V30 213 C 25.6126 -1.36706 -0.84665 0
M  V30 214 O 26.8026 -1.59378 -0.703164 0
M  V30 215 C 23.9346 -3.16264 -1.2724 0
M  V30 216 H 25.1276 -2.95294 0.523609 0
M  V30 217 H 22.6806 -1.532 0.309745 0
M  V30 218 H 23.4156 -2.54091 -2.01514 0
M  V30 219 H 23.2006 -3.83769 -0.803968 0
M  V30 220 H 24.6906 -3.77198 -1.79196 0
M  V30 221 N 25.1277 -0.289203 -1.54924 0
M  V30 222 C 26.3577 0.325989 -2.04012 0
M  V30 223 C 26.7657 1.48961 -1.1665 0
M  V30 224 O 26.1087 1.82794 -0.1822 0
M  V30 225 C 26.1707 0.856112 -3.49158 0
M  V30 226 C 25.8347 -0.180697 -4.56643 0
M  V30 227 C 26.8317 -1.0051 -5.10092 0
M  V30 228 C 24.5167 -0.318998 -5.01286 0
M  V30 229 C 26.5107 -1.95385 -6.06715 0
M  V30 230 C 24.1977 -1.27121 -5.97732 0
M  V30 231 C 25.1957 -2.08713 -6.50329 0
M  V30 232 O 24.8837 -3.02322 -7.44887 0
M  V30 233 H 24.6157 0.0765276 -0.671654 0
M  V30 234 H 27.1697 -0.423254 -2.00992 0
M  V30 235 H 25.3997 1.65567 -3.49463 0
M  V30 236 H 27.0887 1.38591 -3.81507 0
M  V30 237 H 27.8547 -0.90906 -4.76404 0
M  V30 238 H 23.7337 0.306108 -4.59983 0
M  V30 239 H 27.2777 -2.59111 -6.47694 0
M  V30 240 H 23.1747 -1.36801 -6.30837 0
M  V30 241 H 23.9427 -2.97165 -7.6265 0
M  V30 242 N 26.6058 1.57591 -0.0167156 0
M  V30 243 C 27.8518 1.91567 0.665582 0
M  V30 244 C 28.1848 0.892298 1.72487 0
M  V30 245 O 27.4598 -0.0867127 1.94307 0
M  V30 246 C 27.7428 3.36069 1.29342 0
M  V30 247 C 27.5958 4.49135 0.244541 0
M  V30 248 C 28.9148 3.803 2.21495 0
M  V30 249 H 26.0338 0.69666 0.240488 0
M  V30 250 H 28.6758 1.89866 -0.0714356 0
M  V30 251 H 26.8258 3.3765 1.92158 0
M  V30 252 H 28.4978 4.59689 -0.385228 0
M  V30 253 H 26.7408 4.3165 -0.431379 0
M  V30 254 H 27.4118 5.47242 0.723207 0
M  V30 255 H 29.8878 3.80377 1.68678 0
M  V30 256 H 28.7638 4.82127 2.62382 0
M  V30 257 H 29.0248 3.15104 3.101 0
M  V30 258 N 28.0839 -0.256276 1.55502 0
M  V30 259 C 29.0309 -1.31714 1.89526 0
M  V30 260 C 30.0009 -1.4828 0.748479 0
M  V30 261 O 31.1859 -1.62416 1.00128 0
M  V30 262 C 28.3259 -2.66933 2.18725 0
M  V30 263 C 27.4389 -2.58452 3.4616 0
M  V30 264 C 26.5739 -3.85961 3.64976 0
M  V30 265 C 25.6129 -3.72059 4.86044 0
M  V30 266 N 24.7499 -4.9144 5.01429 0
M  V30 267 H 29.5899 -1.01998 2.80001 0
M  V30 268 H 27.1269 -0.492413 1.38613 0
M  V30 269 H 29.0849 -3.4563 2.33657 0
M  V30 270 H 27.7149 -2.94816 1.31466 0
M  V30 271 H 26.7669 -1.71374 3.3961 0
M  V30 272 H 28.0789 -2.44085 4.34999 0
M  V30 273 H 27.2329 -4.73101 3.79816 0
M  V30 274 H 25.9719 -4.03215 2.74353 0
M  V30 275 H 24.9769 -2.83302 4.7119 0
M  V30 276 H 26.2019 -3.56309 5.78118 0
M  V30 277 H 24.1479 -5.09072 4.13741 0
M  V30 278 H 24.0649 -4.79668 5.84341 0
M  V30 279 H 25.3329 -5.80104 5.20672 0
M  V30 280 N 29.562 -1.4872 -0.521534 0
M  V30 281 C 30.978 -1.35028 -0.850855 0
M  V30 282 C 31.178 -0.367712 -1.98116 0
M  V30 283 O 30.234 0.208037 -2.51642 0
M  V30 284 C 31.547 -2.75263 -1.21041 0
M  V30 285 C 33.095 -2.83813 -1.31981 0
M  V30 286 C 33.57 -4.24769 -1.71276 0
M  V30 287 N 35.061 -4.27482 -1.78363 0
M  V30 288 C 35.796 -5.33494 -2.1017 0
M  V30 289 N 35.292 -6.49775 -2.40343 0
M  V30 290 N 37.085 -5.20894 -2.11248 0
M  V30 291 H 29.236 -2.11214 0.22413 0
M  V30 292 H 31.499 -0.947252 0.0376439 0
M  V30 293 H 31.205 -3.48765 -0.453415 0
M  V30 294 H 31.079 -3.09327 -2.15863 0
M  V30 295 H 33.466 -2.10561 -2.06756 0
M  V30 296 H 33.547 -2.53358 -0.352596 0
M  V30 297 H 33.191 -4.9854 -0.970588 0
M  V30 298 H 33.121 -4.52673 -2.69062 0
M  V30 299 H 35.612 -3.43611 -1.57288 0
M  V30 300 H 35.925 -7.26402 -2.63743 0
M  V30 301 H 34.27 -6.53035 -2.37844 0
M  V30 302 H 37.461 -4.29065 -1.87139 0
M  V30 303 H 37.634 -6.03612 -2.35704 0
M  V30 304 N 31.0401 0.771051 -1.3745 0
M  V30 305 C 31.9701 1.89827 -1.3597 0
M  V30 306 C 32.9511 1.68562 -0.228216 0
M  V30 307 O 34.1361 1.8941 -0.428675 0
M  V30 308 C 31.2661 3.2712 -1.16662 0
M  V30 309 C 30.2201 3.6295 -2.2683 0
M  V30 310 C 29.5461 4.98791 -1.92644 0
M  V30 311 C 30.8461 3.69627 -3.69017 0
M  V30 312 H 32.5401 1.91323 -2.30295 0
M  V30 313 H 30.0861 0.919082 -1.10855 0
M  V30 314 H 32.0391 4.05615 -1.14256 0
M  V30 315 H 30.7631 3.26059 -0.187926 0
M  V30 316 H 29.4221 2.86763 -2.28392 0
M  V30 317 H 29.0701 4.94271 -0.933021 0
M  V30 318 H 28.7701 5.23733 -2.66416 0
M  V30 319 H 30.2941 5.79685 -1.91826 0
M  V30 320 H 31.7081 4.38273 -3.69581 0
M  V30 321 H 30.1051 4.06067 -4.41848 0
M  V30 322 H 31.1751 2.70273 -4.02592 0
M  V30 323 N 32.5182 1.22032 0.997298 0
M  V30 324 C 33.7582 1.05375 1.75144 0
M  V30 325 C 34.1222 -0.404696 1.87686 0
M  V30 326 O 35.3232 -0.691998 2.5974 0
M  V30 327 C 33.5942 1.74046 3.12158 0
M  V30 328 S 35.1532 1.72745 4.03366 0
M  V30 329 H 31.9712 0.377449 0.602539 0
M  V30 330 H 34.5732 1.54902 1.19272 0
M  V30 331 H 33.2772 2.79332 3.00669 0
M  V30 332 H 32.8082 1.24731 3.73103 0
M  V30 333 H 34.8232 0.774015 4.90126 0
M  V30 334 N 33.9963 -1.19345 1.0293 0
M  V30 335 C 34.9433 -2.2258 0.610464 0
M  V30 336 C 35.9133 -1.6179 -0.375946 0
M  V30 337 O 37.0983 -1.88844 -0.272511 0
M  V30 338 C 34.2383 -3.45085 -0.0321473 0
M  V30 339 C 33.3513 -4.20258 1.00035 0
M  V30 340 C 32.4863 -5.3019 0.32746 0
M  V30 341 C 31.5253 -5.97121 1.34584 0
M  V30 342 N 30.6623 -6.98615 0.698726 0
M  V30 343 H 35.5023 -2.57764 1.49538 0
M  V30 344 H 33.0393 -1.26644 0.748311 0
M  V30 345 H 34.9973 -4.15061 -0.421966 0
M  V30 346 H 33.6273 -3.10555 -0.88064 0
M  V30 347 H 32.6793 -3.49223 1.50823 0
M  V30 348 H 33.9913 -4.66175 1.77433 0
M  V30 349 H 33.1453 -6.06587 -0.11718 0
M  V30 350 H 31.8843 -4.85345 -0.478713 0
M  V30 351 H 30.8893 -5.19474 1.80074 0
M  V30 352 H 32.1143 -6.4405 2.15352 0
M  V30 353 H 30.0603 -6.55942 -0.0873471 0
M  V30 354 H 29.9773 -7.42724 1.41058 0
M  V30 355 H 31.2453 -7.79004 0.278102 0
M  V30 356 N 35.4744 -0.807222 -1.35358 0
M  V30 357 C 36.7224 -0.387122 -1.98358 0
M  V30 358 C 37.0434 1.04942 -1.64354 0
M  V30 359 O 36.3134 1.72615 -0.926339 0
M  V30 360 H 34.8934 -0.140154 -0.733734 0
M  V30 361 H 37.5554 -1.0332 -1.6526 0
M  V30 362 H 36.6514 -0.493352 -3.08176 0
M  V30 363 N 36.9525 1.47285 -0.560781 0
M  V30 364 C 37.8825 2.32857 0.173105 0
M  V30 365 C 38.8635 1.44009 0.905281 0
M  V30 366 O 40.0485 1.7286 0.885046 0
M  V30 367 C 37.1785 3.25861 1.20133 0
M  V30 368 C 36.1325 4.23978 0.585388 0
M  V30 369 C 35.4585 5.06332 1.7185 0
M  V30 370 C 36.7585 5.20242 -0.463178 0
M  V30 371 H 38.4525 2.94466 -0.541307 0
M  V30 372 H 35.9985 1.41601 -0.261764 0
M  V30 373 H 37.9515 3.84569 1.72293 0
M  V30 374 H 36.6755 2.62315 1.94573 0
M  V30 375 H 35.3345 3.66501 0.085054 0
M  V30 376 H 34.9825 4.39186 2.45203 0
M  V30 377 H 34.6825 5.72762 1.31213 0
M  V30 378 H 36.2065 5.67899 2.24329 0
M  V30 379 H 37.6205 5.73293 -0.027502 0
M  V30 380 H 36.0175 5.94896 -0.788627 0
M  V30 381 H 37.0875 4.65504 -1.35773 0
M  V30 382 N 38.4306 0.297415 1.54768 0
M  V30 383 C 39.6556 -0.318435 2.04941 0
M  V30 384 C 40.0806 -1.4701 1.17345 0
M  V30 385 O 39.4386 -1.80436 0.176758 0
M  V30 386 C 39.4866 -0.755749 3.52592 0
M  V30 387 O 38.5906 -1.86088 3.68028 0
M  V30 388 H 37.9316 -0.062421 0.661059 0
M  V30 389 H 40.4616 0.438215 1.99852 0
M  V30 390 H 40.4716 -1.04552 3.94376 0
M  V30 391 H 39.1466 0.0867233 4.1581 0
M  V30 392 H 37.7236 -1.57193 3.38149 0
M  V30 393 N 39.9087 -1.5758 0.0250728 0
M  V30 394 C 41.1547 -1.92746 -0.649648 0
M  V30 395 C 41.5097 -0.901588 -1.69968 0
M  V30 396 O 40.8027 0.0829251 -1.9142 0
M  V30 397 C 40.9967 -3.32421 -1.31268 0
M  V30 398 C 40.8257 -4.48499 -0.328394 0
M  V30 399 C 39.5957 -5.05251 0.070284 0
M  V30 400 C 41.7937 -5.12618 0.415665 0
M  V30 401 N 39.7757 -6.04851 1.05016 0
M  V30 402 C 41.1467 -6.0728 1.24943 0
M  V30 403 C 43.2017 -4.95612 0.476803 0
M  V30 404 C 41.9047 -6.86766 2.1388 0
M  V30 405 C 43.9307 -5.75703 1.3535 0
M  V30 406 C 43.2927 -6.69978 2.17504 0
M  V30 407 H 39.3917 -0.753231 -0.210159 0
M  V30 408 H 41.9757 -1.94486 0.0912999 0
M  V30 409 H 40.1467 -3.31508 -2.02379 0
M  V30 410 H 41.8787 -3.54946 -1.94411 0
M  V30 411 H 38.6337 -4.72628 -0.303323 0
M  V30 412 H 39.0577 -6.5934 1.53622 0
M  V30 413 H 43.6997 -4.22554 -0.144105 0
M  V30 414 H 41.4177 -7.59132 2.77027 0
M  V30 415 H 45.0037 -5.64579 1.40504 0
M  V30 416 H 43.8837 -7.30873 2.84244 0
M  V30 417 N 41.3868 0.248026 -1.55636 0
M  V30 418 C 42.8028 0.596483 -1.48035 0
M  V30 419 C 43.0028 1.88386 -0.715039 0
M  V30 420 O 42.0588 2.51319 -0.243944 0
M  V30 421 C 43.3718 0.700258 -2.92433 0
M  V30 422 C 44.9198 0.792659 -3.02797 0
M  V30 423 C 45.3948 0.928005 -4.485 0
M  V30 424 N 46.8858 0.992903 -4.52433 0
M  V30 425 C 47.6208 1.11687 -5.62418 0
M  V30 426 N 47.1168 1.20645 -6.82214 0
M  V30 427 N 48.9098 1.14994 -5.50212 0
M  V30 428 H 41.0608 -0.597109 -2.03834 0
M  V30 429 H 43.3238 -0.205925 -0.925364 0
M  V30 430 H 43.0298 -0.175658 -3.51261 0
M  V30 431 H 42.9038 1.57255 -3.42857 0
M  V30 432 H 45.2908 1.65903 -2.4405 0
M  V30 433 H 45.3718 -0.104762 -2.55585 0
M  V30 434 H 45.0158 0.0661971 -5.07857 0
M  V30 435 H 44.9458 1.84045 -4.93391 0
M  V30 436 H 47.4368 0.935064 -3.66149 0
M  V30 437 H 47.7498 1.30008 -7.61786 0
M  V30 438 H 46.0948 1.17605 -6.84977 0
M  V30 439 H 49.2858 1.07643 -4.55555 0
M  V30 440 H 49.4588 1.24311 -6.35965 0
M  V30 441 N 42.8649 1.48995 0.513639 0
M  V30 442 C 43.7749 1.67443 1.64317 0
M  V30 443 C 44.7909 0.556947 1.64846 0
M  V30 444 O 45.9669 0.830082 1.83498 0
M  V30 445 C 43.0319 1.72515 3.00732 0
M  V30 446 C 42.0929 2.96009 3.1093 0
M  V30 447 C 41.3259 3.00829 4.40837 0
M  V30 448 O 41.5489 2.13594 5.28898 0
M  V30 449 O 40.4829 3.93168 4.55744 0
M  V30 450 H 44.3089 2.63106 1.51687 0
M  V30 451 H 41.8939 1.32588 0.688543 0
M  V30 452 H 43.7759 1.78277 3.81831 0
M  V30 453 H 42.4509 0.800278 3.13651 0
M  V30 454 H 41.3579 2.9577 2.29065 0
M  V30 455 H 42.6909 3.87934 3.02933 0
M  V30 456 N 44.343 -0.763751 1.37857 0
M  V30 457 C 45.293 -1.86765 1.30777 0
M  V30 458 C 46.277 -1.59726 0.194015 0
M  V30 459 O 47.469 -1.7172 0.42911 0
M  V30 460 C 44.598 -3.24343 1.12502 0
M  V30 461 C 43.684 -3.57307 2.28456 0
M  V30 462 N 44.075 -3.61398 3.53871 0
M  V30 463 C 42.373 -3.87517 2.20786 0
M  V30 464 C 43.074 -3.91339 4.30382 0
M  V30 465 N 42.05 -4.07649 3.59615 0
M  V30 466 H 45.852 -1.88191 2.25746 0
M  V30 467 H 43.366 -0.9606 1.30944 0
M  V30 468 H 45.363 -4.03327 1.05514 0
M  V30 469 H 44.023 -3.24175 0.184574 0
M  V30 470 H 45.034 -3.43407 3.87675 0
M  V30 471 H 41.711 -3.95125 1.34844 0
M  V30 472 H 43.101 -4.01213 5.3896 0
M  V30 473 N 45.8211 -1.22559 -0.990812 0
M  V30 474 C 47.0671 -1.05297 -1.73322 0
M  V30 475 C 47.4001 0.410655 -1.89808 0
M  V30 476 O 46.6751 1.30439 -1.44277 0
M  V30 477 C 46.9581 -1.76713 -3.13759 0
M  V30 478 C 46.8111 -3.30684 -3.04907 0
M  V30 479 C 48.1301 -1.52121 -4.12974 0
M  V30 480 H 45.2491 -0.38392 -0.629106 0
M  V30 481 H 47.8911 -1.50926 -1.15418 0
M  V30 482 H 46.0411 -1.37924 -3.63193 0
M  V30 483 H 47.7131 -3.7893 -2.63077 0
M  V30 484 H 45.9561 -3.60253 -2.41661 0
M  V30 485 H 46.6271 -3.75833 -4.04294 0
M  V30 486 H 49.1031 -1.85819 -3.72304 0
M  V30 487 H 47.9791 -2.04582 -5.0935 0
M  V30 488 H 48.2401 -0.454257 -4.3976 0
M  V30 489 N 47.2992 1.18797 -1.03562 0
M  V30 490 C 48.2092 2.25913 -0.632505 0
M  V30 491 C 49.2252 1.70668 0.338882 0
M  V30 492 O 50.4012 2.00453 0.195076 0
M  V30 493 C 47.4662 3.467 0.00350942 0
M  V30 494 C 46.5272 4.17098 -1.01624 0
M  V30 495 C 45.7602 5.32119 -0.410478 0
M  V30 496 O 45.9832 5.64976 0.784725 0
M  V30 497 O 44.9172 5.9107 -1.13667 0
M  V30 498 H 48.7432 2.62648 -1.52478 0
M  V30 499 H 46.3282 1.25781 -0.806195 0
M  V30 500 H 48.2102 4.19878 0.35781 0
M  V30 501 H 46.8852 3.11798 0.869686 0
M  V30 502 H 45.7922 3.4601 -1.42224 0
M  V30 503 H 47.1252 4.55987 -1.85301 0
M  V30 504 N 48.7773 0.814389 1.34928 0
M  V30 505 C 50.0023 0.410097 2.03305 0
M  V30 506 C 50.4273 -0.973464 1.60951 0
M  V30 507 O 49.7853 -1.63185 0.789964 0
M  V30 508 C 49.8333 0.51049 3.56968 0
M  V30 509 O 48.9373 -0.473035 4.09678 0
M  V30 510 H 48.2783 0.170088 0.641846 0
M  V30 511 H 50.8083 1.10244 1.72358 0
M  V30 512 H 50.8183 0.383135 4.06197 0
M  V30 513 H 49.4933 1.51963 3.87144 0
M  V30 514 H 48.0703 -0.305272 3.71648 0
M  V30 515 N 50.2554 -1.46986 0.568584 0
M  V30 516 C 51.2054 -2.27179 -0.193339 0
M  V30 517 C 52.1894 -1.35035 -0.874895 0
M  V30 518 O 53.3814 -1.5931 -0.771322 0
M  V30 519 C 50.5104 -3.21063 -1.21546 0
M  V30 520 C 49.5964 -4.2069 -0.536738 0
M  V30 521 N 49.9874 -5.04218 0.399673 0
M  V30 522 C 48.2854 -4.38961 -0.789254 0
M  V30 523 C 48.9864 -5.76242 0.795017 0
M  V30 524 N 47.9624 -5.434 0.1473 0
M  V30 525 H 51.7644 -2.89146 0.526458 0
M  V30 526 H 49.2784 -1.57664 0.389342 0
M  V30 527 H 51.2754 -3.77209 -1.77536 0
M  V30 528 H 49.9354 -2.60654 -1.93623 0
M  V30 529 H 50.9464 -5.12077 0.774454 0
M  V30 530 H 47.6234 -3.89713 -1.49767 0
M  V30 531 H 49.0134 -6.53417 1.56513 0
M  V30 532 N 51.7335 -0.305618 -1.54608 0
M  V30 533 C 52.9815 0.301701 -1.99835 0
M  V30 534 C 53.3025 1.54054 -1.19551 0
M  V30 535 O 52.5725 1.93702 -0.292658 0
M  V30 536 H 51.1525 0.114468 -0.738178 0
M  V30 537 H 53.8145 -0.418016 -1.90364 0
M  V30 538 H 52.9105 0.570548 -3.06841 0
M  V30 539 N 53.2116 1.57565 -0.0334293 0
M  V30 540 C 54.4366 1.96689 0.657895 0
M  V30 541 C 54.8616 0.910057 1.64619 0
M  V30 542 O 54.2196 -0.128598 1.80843 0
M  V30 543 C 54.2676 3.34905 1.33683 0
M  V30 544 O 53.3716 3.31574 2.45219 0
M  V30 545 H 52.7126 0.641205 0.172489 0
M  V30 546 H 55.2426 2.04372 -0.0965621 0
M  V30 547 H 55.2526 3.71234 1.69262 0
M  V30 548 H 53.9276 4.11366 0.612411 0
M  V30 549 H 52.5046 3.06968 2.11719 0
M  V30 550 N 54.6897 -0.239769 1.55765 0
M  V30 551 C 55.6197 -1.30052 1.9393 0
M  V30 552 C 56.6007 -1.49839 0.805132 0
M  V30 553 O 57.7857 -1.62328 1.06599 0
M  V30 554 C 54.9157 -2.65391 2.2402 0
M  V30 555 C 53.8697 -2.60289 3.39755 0
M  V30 556 C 53.1957 -3.99489 3.55405 0
M  V30 557 C 54.4957 -2.16654 4.75246 0
M  V30 558 H 56.1897 -0.983573 2.82783 0
M  V30 559 H 53.7357 -0.471701 1.36055 0
M  V30 560 H 55.6887 -3.3974 2.49308 0
M  V30 561 H 54.4127 -2.98736 1.32 0
M  V30 562 H 53.0717 -1.88398 3.14487 0
M  V30 563 H 52.7197 -4.30112 2.60793 0
M  V30 564 H 52.4197 -3.96962 4.33238 0
M  V30 565 H 53.9437 -4.75528 3.83022 0
M  V30 566 H 55.3577 -2.80737 4.99859 0
M  V30 567 H 53.7547 -2.25223 5.56232 0
M  V30 568 H 54.8247 -1.11835 4.71827 0
M  V30 569 N 56.1678 -1.49265 -0.50573 0
M  V30 570 C 57.4158 -1.582 -1.25766 0
M  V30 571 C 57.7368 -0.268482 -1.93143 0
M  V30 572 O 57.0068 0.711833 -1.8251 0
M  V30 573 H 55.5868 -0.582873 -0.467191 0
M  V30 574 H 58.2488 -1.85865 -0.586525 0
M  V30 575 H 57.3448 -2.37563 -2.02412 0
M  V30 576 N 57.6459 0.756429 -1.3826 0
M  V30 577 C 58.6089 1.85176 -1.35065 0
M  V30 578 C 59.6089 1.58818 -0.251703 0
M  V30 579 O 60.7989 1.66615 -0.508433 0
M  V30 580 C 57.9309 3.22596 -1.10201 0
M  V30 581 H 59.1239 1.89417 -2.3251 0
M  V30 582 H 56.6769 0.95783 -1.23512 0
M  V30 583 H 57.4119 3.24025 -0.133504 0
M  V30 584 H 57.1969 3.43122 -1.89762 0
M  V30 585 H 58.6869 4.02673 -1.10654 0
M  V30 586 N 59.124 1.23083 0.984299 0
M  V30 587 C 60.056 0.96636 2.07832 0
M  V30 588 C 61.069 -0.0582135 1.62696 0
M  V30 589 O 62.258 0.176843 1.77622 0
M  V30 590 C 59.358 0.433397 3.36117 0
M  V30 591 C 58.531 1.51722 4.10243 0
M  V30 592 C 57.59 0.989821 5.16807 0
M  V30 593 O 56.616 1.67794 5.43906 0
M  V30 594 N 57.818 -0.184367 5.80207 0
M  V30 595 H 60.583 1.90824 2.31098 0
M  V30 596 H 58.144 1.13888 1.1507 0
M  V30 597 H 60.136 0.065699 4.04647 0
M  V30 598 H 58.706 -0.413806 3.09849 0
M  V30 599 H 57.926 2.05786 3.36223 0
M  V30 600 H 59.214 2.24619 4.56534 0
M  V30 601 H 58.612 -0.760062 5.60571 0
M  V30 602 H 57.169 -0.493366 6.4993 0
M  V30 603 N 60.6021 -1.18246 1.0419 0
M  V30 604 C 61.5651 -2.20128 0.638452 0
M  V30 605 C 62.5651 -1.57885 -0.304805 0
M  V30 606 O 63.7551 -1.73967 -0.0900369 0
M  V30 607 C 60.8871 -3.4084 -0.0637751 0
M  V30 608 H 62.0801 -2.57336 1.54007 0
M  V30 609 H 59.6331 -1.32152 0.834598 0
M  V30 610 H 60.3681 -3.09166 -0.979136 0
M  V30 611 H 60.1531 -3.8726 0.614198 0
M  V30 612 H 61.6431 -4.16274 -0.332512 0
M  V30 613 N 62.0802 -0.821533 -1.34494 0
M  V30 614 C 63.3052 -0.420873 -2.03085 0
M  V30 615 C 63.7302 0.964915 -1.61465 0
M  V30 616 O 63.0882 1.62763 -0.798607 0
M  V30 617 C 63.1362 -0.529414 -3.56693 0
M  V30 618 O 62.2402 0.451302 -4.09923 0
M  V30 619 H 61.5812 -0.173489 -0.640935 0
M  V30 620 H 64.1112 -1.11157 -1.71771 0
M  V30 621 H 64.1212 -0.404671 -4.05988 0
M  V30 622 H 62.7962 -1.54014 -3.86332 0
M  V30 623 H 61.3732 0.285558 -3.71805 0
M  V30 624 N 63.5583 1.46682 -0.576371 0
M  V30 625 C 64.9693 1.86112 -0.148091 0
M  V30 626 C 65.3203 1.48073 1.2872 0
M  V30 627 O 64.4453 0.892656 1.97131 0
M  V30 628 C 65.0403 3.37786 -0.261982 0
M  V30 629 C 63.5993 3.76235 0.111384 0
M  V30 630 C 62.7463 2.70713 -0.60083 0
M  V30 631 H 65.6973 1.37927 -0.78497 0
M  V30 632 H 65.7183 3.77007 0.514364 0
M  V30 633 H 65.2303 3.6544 -1.30671 0
M  V30 634 H 63.3313 3.54198 1.15649 0
M  V30 635 H 63.4443 4.78391 -0.26052 0
M  V30 636 H 61.8083 2.54666 -0.0417783 0
M  V30 637 H 62.5913 3.01208 -1.64708 0
M  V30 638 N 65.0364 0.313813 1.54444 0
M  V30 639 C 65.9994 -0.54379 2.22656 0
M  V30 640 C 66.9994 -1.05124 1.21678 0
M  V30 641 O 68.1894 -0.945225 1.46325 0
M  V30 642 C 65.3214 -1.75427 2.92298 0
M  V30 643 H 66.5144 0.0523599 2.99854 0
M  V30 644 H 64.0674 0.0647834 1.56166 0
M  V30 645 H 64.8024 -2.38991 2.19211 0
M  V30 646 H 64.5874 -1.39791 3.66334 0
M  V30 647 H 66.0774 -2.36325 3.44297 0
M  V30 648 N 66.5145 -1.57545 0.0417849 0
M  V30 649 C 67.7395 -1.97035 -0.647455 0
M  V30 650 C 68.1645 -0.918775 -1.64135 0
M  V30 651 O 67.5225 0.119006 -1.80909 0
M  V30 652 C 67.5705 -3.35609 -1.31905 0
M  V30 653 O 66.6745 -3.3287 -2.43457 0
M  V30 654 H 66.0155 -0.64211 -0.169086 0
M  V30 655 H 68.5455 -2.04318 0.107399 0
M  V30 656 H 68.5555 -3.72126 -1.67291 0
M  V30 657 H 67.2305 -4.11685 -0.590586 0
M  V30 658 H 65.8075 -3.08087 -2.10088 0
M  V30 659 N 67.9926 0.231505 -1.5589 0
M  V30 660 C 68.9556 1.27028 -1.90779 0
M  V30 661 C 69.9556 1.40308 -0.785507 0
M  V30 662 O 71.1456 1.38744 -1.05336 0
M  V30 663 C 68.2776 2.64566 -2.14983 0
M  V30 664 H 69.4706 0.973017 -2.83677 0
M  V30 665 H 67.0236 0.471486 -1.49019 0
M  V30 666 H 67.7586 2.99406 -1.24604 0
M  V30 667 H 67.5436 2.56305 -2.96732 0
M  V30 668 H 69.0336 3.39543 -2.43105 0
M  V30 669 N 69.4707 1.49531 0.497807 0
M  V30 670 C 70.4337 1.65916 1.58128 0
M  V30 671 C 71.4337 0.530825 1.51786 0
M  V30 672 O 72.6237 0.797342 1.54881 0
M  V30 673 C 69.7557 1.65951 2.9778 0
M  V30 674 H 70.9487 2.62556 1.44929 0
M  V30 675 H 68.5017 1.38611 0.722275 0
M  V30 676 H 69.2367 0.709065 3.16453 0
M  V30 677 H 69.0217 2.47897 3.03792 0
M  V30 678 H 70.5117 1.80673 3.76493 0
M  V30 679 N 70.9488 -0.749086 1.3866 0
M  V30 680 C 71.9118 -1.84457 1.36045 0
M  V30 681 C 72.9118 -1.58682 0.260122 0
M  V30 682 O 74.1018 -1.66343 0.517261 0
M  V30 683 C 71.2338 -3.22008 1.11911 0
M  V30 684 H 72.4268 -1.88182 2.33512 0
M  V30 685 H 69.9798 -0.951266 1.24019 0
M  V30 686 H 70.7148 -3.2395 0.150686 0
M  V30 687 H 70.4998 -3.42111 1.91579 0
M  V30 688 H 71.9898 -4.0208 1.12788 0
M  V30 689 N 72.4269 -1.23603 -0.977757 0
M  V30 690 C 73.3899 -1.02069 -2.05218 0
M  V30 691 C 74.3899 0.0184305 -1.60789 0
M  V30 692 O 75.5799 -0.221569 -1.72785 0
M  V30 693 C 72.7119 -0.544926 -3.36517 0
M  V30 694 H 73.9049 -1.9742 -2.25755 0
M  V30 695 H 71.4579 -1.05684 -1.15155 0
M  V30 696 H 72.1929 0.412241 -3.21669 0
M  V30 697 H 71.9779 -1.2948 -3.70105 0
M  V30 698 H 73.4679 -0.414985 -4.15533 0
M  V30 699 N 73.905 1.17692 -1.04816 0
M  V30 700 C 74.815 2.25229 -0.65643 0
M  V30 701 C 75.831 1.71018 0.320761 0
M  V30 702 O 77.007 2.00649 0.173805 0
M  V30 703 C 74.072 3.46684 -0.0332629 0
M  V30 704 C 73.133 4.15997 -1.06042 0
M  V30 705 C 72.366 5.31654 -0.466893 0
M  V30 706 O 72.589 5.65777 0.724758 0
M  V30 707 O 71.523 5.89831 -1.1993 0
M  V30 708 H 75.349 2.61016 -1.55255 0
M  V30 709 H 72.934 1.24919 -0.81949 0
M  V30 710 H 74.816 4.20234 0.313256 0
M  V30 711 H 73.491 3.12703 0.836566 0
M  V30 712 H 72.398 3.44482 -1.45886 0
M  V30 713 H 73.731 4.53996 -1.90127 0
M  V30 714 N 75.3831 0.828654 1.34056 0
M  V30 715 C 76.6311 0.41863 1.97717 0
M  V30 716 C 76.9521 -1.02314 1.66002 0
M  V30 717 O 76.2221 -1.71119 0.953683 0
M  V30 718 H 74.8021 0.151809 0.731412 0
M  V30 719 H 77.4641 1.05936 1.63596 0
M  V30 720 H 76.5601 0.542318 3.07352 0
M  V30 721 N 76.8612 -1.46375 0.584142 0
M  V30 722 C 78.0862 -2.07268 0.0740405 0
M  V30 723 C 78.5112 -1.42979 -1.22223 0
M  V30 724 O 77.8692 -0.514092 -1.73859 0
M  V30 725 C 77.9172 -3.60518 -0.0767769 0
M  V30 726 O 77.0212 -3.96533 -1.13292 0
M  V30 727 H 76.3622 -0.660961 0.0634524 0
M  V30 728 H 78.8922 -1.87991 0.807492 0
M  V30 729 H 78.9022 -4.07021 -0.282489 0
M  V30 730 H 77.5772 -4.06702 0.86986 0
M  V30 731 H 76.1542 -3.61738 -0.905553 0
M  V30 732 N 78.3393 -0.321999 -1.54275 0
M  V30 733 C 79.3023 0.531975 -2.22941 0
M  V30 734 C 80.3023 1.04478 -1.22234 0
M  V30 735 O 81.4923 0.937452 -1.46825 0
M  V30 736 C 78.6243 1.73874 -2.93224 0
M  V30 737 H 79.8173 -0.0682612 -2.99822 0
M  V30 738 H 77.3703 -0.0730644 -1.56129 0
M  V30 739 H 78.1053 2.37825 -2.20476 0
M  V30 740 H 77.8903 1.37847 -3.6707 0
M  V30 741 H 79.3803 2.34496 -3.45545 0
M  V30 742 N 79.8174 1.5752 -0.0501392 0
M  V30 743 C 81.0454 1.96963 0.633492 0
M  V30 744 C 81.4604 0.927631 1.6444 0
M  V30 745 O 80.8174 -0.0882665 1.82286 0
M  V30 746 C 80.8684 3.36487 1.32132 0
M  V30 747 O 80.5894 4.36693 0.350894 0
M  V30 748 C 82.0904 3.90682 2.09481 0
M  V30 749 H 79.3104 0.648244 0.173266 0
M  V30 750 H 81.8544 2.0417 -0.116134 0
M  V30 751 H 80.0094 3.30434 2.02218 0
M  V30 752 H 80.4234 5.17702 0.841735 0
M  V30 753 H 81.8974 4.90591 2.5303 0
M  V30 754 H 82.3744 3.26053 2.94255 0
M  V30 755 H 82.9804 4.00069 1.44307 0
M  V30 756 N 81.2955 -0.223234 1.56011 0
M  V30 757 C 82.7115 -0.572856 1.48965 0
M  V30 758 C 82.9115 -1.87225 0.74492 0
M  V30 759 O 81.9675 -2.50899 0.283896 0
M  V30 760 C 83.2805 -0.653646 2.9351 0
M  V30 761 C 84.8285 -0.744386 3.0402 0
M  V30 762 C 85.3035 -0.856535 4.49919 0
M  V30 763 N 86.7945 -0.9208 4.53955 0
M  V30 764 C 87.5295 -1.02726 5.64123 0
M  V30 765 N 87.0255 -1.09777 6.84047 0
M  V30 766 N 88.8185 -1.06226 5.51971 0
M  V30 767 H 80.9695 0.629462 2.02858 0
M  V30 768 H 83.2325 0.220621 0.921971 0
M  V30 769 H 82.9385 0.231518 3.50937 0
M  V30 770 H 82.8125 -1.51781 3.45315 0
M  V30 771 H 85.1995 -1.61999 2.46658 0
M  V30 772 H 85.2805 0.14541 2.55386 0
M  V30 773 H 84.9245 0.0146069 5.07898 0
M  V30 774 H 84.8545 -1.76172 4.96257 0
M  V30 775 H 87.3455 -0.876694 3.6759 0
M  V30 776 H 87.6585 -1.17872 7.63758 0
M  V30 777 H 86.0035 -1.06693 6.86762 0
M  V30 778 H 89.1945 -1.00382 4.5721 0
M  V30 779 H 89.3675 -1.14177 6.37862 0
M  V30 780 N 82.7736 -1.49793 -0.48987 0
M  V30 781 C 84.1896 -1.36803 -0.822022 0
M  V30 782 C 84.3896 -0.409652 -1.97292 0
M  V30 783 O 83.4456 0.154614 -2.52026 0
M  V30 784 C 84.7586 -2.77768 -1.15175 0
M  V30 785 C 86.3066 -2.86549 -1.25931 0
M  V30 786 C 86.7816 -4.28306 -1.62228 0
M  V30 787 N 88.2726 -4.31169 -1.69256 0
M  V30 788 C 89.0076 -5.37832 -1.98807 0
M  V30 789 N 88.5036 -6.54726 -2.26507 0
M  V30 790 N 90.2966 -5.25258 -2.00152 0
M  V30 791 H 82.4476 -2.10691 0.268881 0
M  V30 792 H 84.7106 -0.946241 0.057728 0
M  V30 793 H 84.4166 -3.49648 -0.379335 0
M  V30 794 H 84.2906 -3.13836 -2.09253 0
M  V30 795 H 86.6776 -2.14899 -2.02243 0
M  V30 796 H 86.7586 -2.54049 -0.298776 0
M  V30 797 H 86.4026 -5.00486 -0.864622 0
M  V30 798 H 86.3326 -4.58279 -2.594 0
M  V30 799 H 88.8236 -3.4687 -1.49965 0
M  V30 800 H 89.1366 -7.31833 -2.48276 0
M  V30 801 H 87.4816 -6.57933 -2.23939 0
M  V30 802 H 90.6726 -4.32938 -1.77996 0
M  V30 803 H 90.8456 -6.08476 -2.22848 0
M  V30 804 N 84.2517 0.741722 -1.39055 0
M  V30 805 C 85.2147 1.83733 -1.37021 0
M  V30 806 C 86.2147 1.58542 -0.268534 0
M  V30 807 O 87.4047 1.66067 -0.526076 0
M  V30 808 C 84.5367 3.2141 -1.13617 0
M  V30 809 H 85.7297 1.86941 -2.34506 0
M  V30 810 H 83.2827 0.944676 -1.24521 0
M  V30 811 H 84.0177 3.23865 -0.167863 0
M  V30 812 H 83.8027 3.4109 -1.93391 0
M  V30 813 H 85.2927 4.01477 -1.14918 0
M  V30 814 N 85.7298 1.2412 0.971189 0
M  V30 815 C 87.1458 1.00584 1.23916 0
M  V30 816 C 87.3458 -0.287481 1.99439 0
M  V30 817 O 86.4018 -1.00454 2.31658 0
M  V30 818 C 87.7148 2.21864 2.0297 0
M  V30 819 C 89.2628 2.26452 2.16076 0
M  V30 820 C 89.7378 3.47343 2.98524 0
M  V30 821 N 91.2288 3.47639 3.06107 0
M  V30 822 C 91.9638 4.37837 3.70251 0
M  V30 823 N 91.4598 5.38286 4.36142 0
M  V30 824 N 93.2528 4.25558 3.67228 0
M  V30 825 H 85.4038 2.07236 0.465499 0
M  V30 826 H 87.6668 0.909236 0.268315 0
M  V30 827 H 87.3728 3.15771 1.54861 0
M  V30 828 H 87.2468 2.23698 3.03709 0
M  V30 829 H 89.6338 1.33078 2.6339 0
M  V30 830 H 89.7148 2.28645 1.14696 0
M  V30 831 H 89.3588 4.41029 2.51905 0
M  V30 832 H 89.2888 3.42393 4.00093 0
M  V30 833 H 91.7798 2.74966 2.59233 0
M  V30 834 H 92.0928 6.03352 4.82894 0
M  V30 835 H 90.4378 5.42176 4.34822 0
M  V30 836 H 93.6288 3.46322 3.14927 0
M  V30 837 H 93.8018 4.96054 4.16935 0
M  V30 838 N 87.2079 -1.17134 1.05439 0
M  V30 839 C 88.1709 -2.19439 0.661764 0
M  V30 840 C 89.1709 -1.58199 -0.288042 0
M  V30 841 O 90.3609 -1.74053 -0.0715803 0
M  V30 842 C 87.4929 -3.40889 -0.0276209 0
M  V30 843 H 88.6859 -2.55688 1.56728 0
M  V30 844 H 86.2389 -1.31259 0.848567 0
M  V30 845 H 86.9739 -3.10187 -0.94629 0
M  V30 846 H 86.7589 -3.86586 0.655238 0
M  V30 847 H 88.2489 -4.16603 -0.288342 0
M  V30 848 N 88.686 -0.835752 -1.33615 0
M  V30 849 C 89.649 -0.272 -2.2758 0
M  V30 850 C 90.649 0.557487 -1.50827 0
M  V30 851 O 91.839 0.37173 -1.70188 0
M  V30 852 C 88.971 0.617173 -3.35267 0
M  V30 853 H 90.164 -1.10111 -2.78954 0
M  V30 854 H 87.717 -0.608594 -1.43965 0
M  V30 855 H 88.452 1.46884 -2.89129 0
M  V30 856 H 88.237 0.0237066 -3.92093 0
M  V30 857 H 89.727 1.005 -4.05326 0
M  V30 858 N 90.1641 1.46063 -0.591896 0
M  V30 859 C 91.3921 2.06717 -0.0868936 0
M  V30 860 C 91.8071 1.43916 1.22203 0
M  V30 861 O 91.1641 0.547698 1.74088 0
M  V30 862 C 91.2151 3.6142 0.0758725 0
M  V30 863 O 90.9361 4.21874 -1.18126 0
M  V30 864 C 92.4371 4.39025 0.61416 0
M  V30 865 H 89.6571 0.668162 -0.0616518 0
M  V30 866 H 92.2011 1.8755 -0.815175 0
M  V30 867 H 90.3561 3.79983 0.754413 0
M  V30 868 H 90.7701 5.14861 -1.00092 0
M  V30 869 H 92.2441 5.4783 0.677193 0
M  V30 870 H 92.7211 4.07708 1.63312 0
M  V30 871 H 93.3271 4.2529 -0.0298142 0
M  V30 872 N 91.6422 0.330177 1.54103 0
M  V30 873 C 92.8672 -0.274893 2.0557 0
M  V30 874 C 93.2922 -1.44487 1.20437 0
M  V30 875 O 92.6502 -1.80021 0.214991 0
M  V30 876 C 92.6982 -0.68079 3.54115 0
M  V30 877 O 91.8022 -1.7824 3.71893 0
M  V30 878 H 91.1432 -0.0483849 0.662235 0
M  V30 879 H 93.6732 0.480508 1.98878 0
M  V30 880 H 93.6832 -0.961635 3.96505 0
M  V30 881 H 92.3582 0.174903 4.15532 0
M  V30 882 H 90.9352 -1.49985 3.41407 0
M  V30 883 N 93.1203 -1.57491 0.0584922 0
M  V30 884 C 94.5363 -1.56792 -0.298091 0
M  V30 885 C 94.7363 -1.06679 -1.70944 0
M  V30 886 O 93.7923 -0.726672 -2.41818 0
M  V30 887 C 95.1053 -3.00461 -0.119879 0
M  V30 888 C 96.6533 -3.1242 -0.190428 0
M  V30 889 C 97.1283 -4.57982 -0.0406567 0
M  V30 890 N 98.6193 -4.63099 -0.0966958 0
M  V30 891 C 99.3543 -5.734 -0.00502943 0
M  V30 892 N 98.8503 -6.9266 0.139402 0
M  V30 893 N 100.643 -5.62067 -0.0611391 0
M  V30 894 H 92.7943 -1.88386 0.98105 0
M  V30 895 H 95.0573 -0.867865 0.381463 0
M  V30 896 H 94.7633 -3.41187 0.85349 0
M  V30 897 H 94.6373 -3.66843 -0.877833 0
M  V30 898 H 97.0243 -2.71589 -1.15427 0
M  V30 899 H 97.1053 -2.48702 0.598405 0
M  V30 900 H 96.7493 -4.995 0.919897 0
M  V30 901 H 96.6793 -5.19715 -0.848727 0
M  V30 902 H 99.1703 -3.77331 -0.207277 0
M  V30 903 H 99.4833 -7.72536 0.201855 0
M  V30 904 H 97.8283 -6.94781 0.174586 0
M  V30 905 H 101.019 -4.67782 -0.172583 0
M  V30 906 H 101.192 -6.47999 0.0137562 0
M  V30 907 N 94.5984 0.214957 -1.56127 0
M  V30 908 C 95.5614 1.24997 -1.92116 0
M  V30 909 C 96.5614 1.39467 -0.800344 0
M  V30 910 O 97.7514 1.37619 -1.06802 0
M  V30 911 C 94.8834 2.62271 -2.17777 0
M  V30 912 H 96.0764 0.942875 -2.84693 0
M  V30 913 H 93.6294 0.455654 -1.49511 0
M  V30 914 H 94.3644 2.98068 -1.27773 0
M  V30 915 H 94.1494 2.53143 -2.99434 0
M  V30 916 H 95.6394 3.36946 -2.46693 0
M  V30 917 N 96.0765 1.50051 0.48192 0
M  V30 918 C 97.0395 1.67584 1.5636 0
M  V30 919 C 98.0395 0.546894 1.51214 0
M  V30 920 O 99.2295 0.813725 1.54026 0
M  V30 921 C 96.3615 1.691 2.96003 0
M  V30 922 H 97.5545 2.64078 1.42136 0
M  V30 923 H 95.1075 1.39369 0.707533 0
M  V30 924 H 95.8425 0.742589 3.15684 0
M  V30 925 H 95.6275 2.51105 3.01146 0
M  V30 926 H 97.1175 1.84656 3.74556 0
M  V30 927 N 97.5546 -0.734337 1.39446 0
M  V30 928 C 98.9706 -1.03997 1.21065 0
M  V30 929 C 99.1706 -2.01369 0.0727019 0
M  V30 930 O 98.2266 -2.45856 -0.575426 0
M  V30 931 C 99.5396 -1.60163 2.54496 0
M  V30 932 C 101.088 -1.7224 2.61347 0
M  V30 933 C 101.563 -2.31814 3.95002 0
M  V30 934 N 103.054 -2.39223 3.96644 0
M  V30 935 C 103.789 -2.86258 4.96834 0
M  V30 936 N 103.285 -3.33184 6.07421 0
M  V30 937 N 105.078 -2.85473 4.84213 0
M  V30 938 H 97.2286 -0.0885624 2.12215 0
M  V30 939 H 99.4916 -0.10191 0.942506 0
M  V30 940 H 99.1976 -0.960811 3.38321 0
M  V30 941 H 99.0716 -2.5896 2.74262 0
M  V30 942 H 101.459 -2.35443 1.77906 0
M  V30 943 H 101.54 -0.720939 2.4543 0
M  V30 944 H 101.184 -1.69238 4.78875 0
M  V30 945 H 101.114 -3.32638 4.08239 0
M  V30 946 H 103.605 -2.06057 3.16779 0
M  V30 947 H 103.918 -3.67586 6.7978 0
M  V30 948 H 102.263 -3.31191 6.11013 0
M  V30 949 H 105.454 -2.48136 3.96921 0
M  V30 950 H 105.627 -3.21814 5.62441 0
M  V30 951 N 99.0327 -1.24633 -0.964593 0
M  V30 952 C 100.258 -1.11596 -1.74818 0
M  V30 953 C 100.683 0.32723 -1.85232 0
M  V30 954 O 100.041 1.23695 -1.32549 0
M  V30 955 C 100.089 -1.76397 -3.1451 0
M  V30 956 O 99.1927 -1.03685 -3.99153 0
M  V30 957 H 98.5337 -0.390196 -0.537255 0
M  V30 958 H 101.064 -1.65002 -1.20977 0
M  V30 959 H 101.074 -1.8228 -3.65018 0
M  V30 960 H 99.7487 -2.81401 -3.06246 0
M  V30 961 H 98.3257 -1.05611 -3.57632 0
M  V30 962 N 100.511 1.16574 -1.06058 0
M  V30 963 C 101.927 1.3904 -0.783585 0
M  V30 964 C 102.127 1.91784 0.618145 0
M  V30 965 O 101.183 2.11511 1.37911 0
M  V30 966 C 102.496 2.37329 -1.84649 0
M  V30 967 C 104.044 2.51018 -1.86973 0
M  V30 968 C 104.519 3.52588 -2.92311 0
M  V30 969 N 106.01 3.60113 -2.91329 0
M  V30 970 C 106.745 4.38486 -3.69482 0
M  V30 971 N 106.241 5.20302 -4.57447 0
M  V30 972 N 108.034 4.33446 -3.57885 0
M  V30 973 H 100.185 0.806725 -1.96483 0
M  V30 974 H 102.448 0.417117 -0.851303 0
M  V30 975 H 102.154 2.05663 -2.85299 0
M  V30 976 H 102.028 3.36946 -1.6955 0
M  V30 977 H 104.415 2.81989 -0.869827 0
M  V30 978 H 104.496 1.51445 -2.0615 0
M  V30 979 H 104.14 3.22354 -3.92492 0
M  V30 980 H 104.07 4.51886 -2.70383 0
M  V30 981 H 106.561 3.01707 -2.27555 0
M  V30 982 H 106.874 5.77311 -5.13743 0
M  V30 983 H 105.219 5.19653 -4.61503 0
M  V30 984 H 108.41 3.68586 -2.88551 0
M  V30 985 H 108.583 4.94279 -4.19037 0
M  V30 986 N 101.989 0.842826 1.3317 0
M  V30 987 C 103.405 0.531128 1.50503 0
M  V30 988 C 103.605 -0.940734 1.78192 0
M  V30 989 O 102.661 -1.72436 1.84451 0
M  V30 990 C 103.974 1.40789 2.65705 0
M  V30 991 C 105.522 1.40708 2.79589 0
M  V30 992 C 105.997 2.26878 3.97857 0
M  V30 993 N 107.488 2.24609 4.05099 0
M  V30 994 C 108.223 2.88019 4.95815 0
M  V30 995 N 107.719 3.60496 5.9162 0
M  V30 996 N 109.512 2.77469 4.88843 0
M  V30 997 H 101.663 1.79557 1.1346 0
M  V30 998 H 103.926 0.766267 0.558156 0
M  V30 999 H 103.632 2.454 2.51936 0
M  V30 1000 H 103.506 1.08677 3.61205 0
M  V30 1001 H 105.893 0.368668 2.92788 0
M  V30 1002 H 105.974 1.76829 1.84838 0
M  V30 1003 H 105.618 3.3078 3.85418 0
M  V30 1004 H 105.548 1.88096 4.91861 0
M  V30 1005 H 108.039 1.71906 3.36536 0
M  V30 1006 H 108.352 4.06076 6.57512 0
M  V30 1007 H 106.697 3.64604 5.91683 0
M  V30 1008 H 109.888 2.20406 4.12963 0
M  V30 1009 H 110.061 3.2717 5.59342 0
M  V30 1010 N 103.467 -1.45747 0.599634 0
M  V30 1011 C 104.399 -2.28628 -0.161879 0
M  V30 1012 C 105.412 -1.39494 -0.839367 0
M  V30 1013 O 106.601 -1.63941 -0.706089 0
M  V30 1014 C 103.701 -3.15014 -1.24976 0
M  V30 1015 C 102.874 -4.32378 -0.660935 0
M  V30 1016 C 101.933 -5.00033 -1.63869 0
M  V30 1017 O 100.959 -5.57085 -1.1681 0
M  V30 1018 N 102.161 -4.98589 -2.97303 0
M  V30 1019 H 104.926 -2.94624 0.549265 0
M  V30 1020 H 102.487 -1.55847 0.438565 0
M  V30 1021 H 104.479 -3.5714 -1.9035 0
M  V30 1022 H 103.049 -2.5098 -1.86354 0
M  V30 1023 H 102.269 -3.9383 0.170688 0
M  V30 1024 H 103.557 -5.08197 -0.247619 0
M  V30 1025 H 102.955 -4.53514 -3.38145 0
M  V30 1026 H 101.512 -5.44603 -3.58121 0
M  V30 1027 N 104.945 -0.338344 -1.53925 0
M  V30 1028 C 106.356 0.146651 -1.86123 0
M  V30 1029 C 106.707 1.5042 -1.2597 0
M  V30 1030 O 105.832 2.08723 -0.571294 0
M  V30 1031 C 106.427 0.272879 -3.37699 0
M  V30 1032 C 104.986 0.702103 -3.69794 0
M  V30 1033 C 104.133 -0.167304 -2.76795 0
M  V30 1034 H 107.084 -0.558123 -1.48562 0
M  V30 1035 H 107.105 1.10128 -3.64214 0
M  V30 1036 H 106.617 -0.715307 -3.81451 0
M  V30 1037 H 104.718 1.6995 -3.31584 0
M  V30 1038 H 104.831 0.495604 -4.7653 0
M  V30 1039 H 103.195 0.359527 -2.5215 0
M  V30 1040 H 103.978 -1.15253 -3.23375 0
M  V30 1041 N 106.423 1.57458 -0.0668435 0
M  V30 1042 C 107.671 1.92919 0.602214 0
M  V30 1043 C 107.992 0.947215 1.70449 0
M  V30 1044 O 107.262 -0.00544117 1.95899 0
M  V30 1045 H 105.842 0.71217 0.22544 0
M  V30 1046 H 108.504 1.94508 -0.123535 0
M  V30 1047 H 107.6 2.94589 1.03073 0
M  V30 1048 N 107.901 -0.206675 1.56239 0
M  V30 1049 C 109.312 -0.772383 1.69974 0
M  V30 1050 C 109.663 -1.84353 0.671436 0
M  V30 1051 O 108.788 -2.15695 -0.174491 0
M  V30 1052 C 109.383 -1.40779 3.08167 0
M  V30 1053 C 107.942 -1.92072 3.23706 0
M  V30 1054 C 107.089 -0.786347 2.65917 0
M  V30 1055 H 110.04 0.0182223 1.5869 0
M  V30 1056 H 110.061 -2.27696 3.04852 0
M  V30 1057 H 109.573 -0.627958 3.82986 0
M  V30 1058 H 107.674 -2.7281 2.53782 0
M  V30 1059 H 107.787 -2.09046 4.31087 0
M  V30 1060 H 106.151 -1.1976 2.24788 0
M  V30 1061 H 106.934 -0.0189416 3.43295 0
M  V30 1062 N 109.379 -1.50304 -0.473955 0
M  V30 1063 C 110.627 -1.60832 -1.22382 0
M  V30 1064 C 110.948 -0.30939 -1.9253 0
M  V30 1065 O 110.218 0.67296 -1.83978 0
M  V30 1066 H 108.798 -0.592652 -0.454723 0
M  V30 1067 H 111.46 -1.87068 -0.546968 0
M  V30 1068 H 110.556 -2.41803 -1.97327 0
M  V30 1069 N 110.857 0.726932 -1.39834 0
M  V30 1070 C 111.82 1.82269 -1.38962 0
M  V30 1071 C 112.82 1.58248 -0.285334 0
M  V30 1072 O 114.01 1.65499 -0.54366 0
M  V30 1073 C 111.142 3.20186 -1.17019 0
M  V30 1074 H 112.335 1.84443 -2.36476 0
M  V30 1075 H 109.888 0.931416 -1.25516 0
M  V30 1076 H 110.623 3.23669 -0.202204 0
M  V30 1077 H 110.408 3.3902 -1.96998 0
M  V30 1078 H 111.898 4.00235 -1.1917 0
M  V30 1079 N 112.336 1.25143 0.95797 0
M  V30 1080 C 113.613 1.00472 1.67823 0
M  V30 1081 C 113.993 -0.470056 2.058 0
M  V30 1082 O 113.341 -1.44663 1.76875 0
M  V30 1083 C 113.551 1.9372 2.90299 0
M  V30 1084 C 114.899 2.21371 3.62326 0
M  V30 1085 O 115.923 1.91451 3.00375 0
M  V30 1086 O 114.782 2.72231 4.7387 0
M  V30 1087 H 111.876 0.380752 0.734137 0
M  V30 1088 H 114.422 1.36283 1.01119 0
M  V30 1089 H 113.194 2.93316 2.59001 0
M  V30 1090 H 112.817 1.58286 3.64735 0
M  V30 1091 N 113.814 -1.1601 1.06675 0
M  V30 1092 C 114.764 -2.18512 0.650888 0
M  V30 1093 C 115.748 -1.57677 -0.320441 0
M  V30 1094 O 116.94 -1.76482 -0.135266 0
M  V30 1095 C 114.069 -3.43273 0.0429255 0
M  V30 1096 C 113.155 -4.11176 1.03898 0
M  V30 1097 N 113.546 -4.54672 2.216 0
M  V30 1098 C 111.844 -4.37417 0.870779 0
M  V30 1099 C 112.545 -5.07248 2.84736 0
M  V30 1100 N 111.521 -5.0037 2.12441 0
M  V30 1101 H 115.323 -2.49863 1.54745 0
M  V30 1102 H 112.837 -1.32503 0.938975 0
M  V30 1103 H 114.834 -4.16006 -0.272857 0
M  V30 1104 H 113.494 -3.13408 -0.84884 0
M  V30 1105 H 114.505 -4.4828 2.59356 0
M  V30 1106 H 111.182 -4.17488 0.0313293 0
M  V30 1107 H 112.572 -5.50912 3.84636 0
M  V30 1108 N 115.292 -0.849877 -1.32721 0
M  V30 1109 C 116.703 -0.506188 -1.79707 0
M  V30 1110 C 117.054 0.975627 -1.70223 0
M  V30 1111 O 116.179 1.76078 -1.25799 0
M  V30 1112 C 116.774 -0.912044 -3.26293 0
M  V30 1113 C 115.333 -0.620326 -3.71253 0
M  V30 1114 C 114.48 -1.11439 -2.53922 0
M  V30 1115 H 117.431 -1.03754 -1.20087 0
M  V30 1116 H 117.452 -0.226493 -3.79825 0
M  V30 1117 H 116.964 -1.99057 -3.33164 0
M  V30 1118 H 115.065 0.447674 -3.69901 0
M  V30 1119 H 115.178 -1.18327 -4.64258 0
M  V30 1120 H 113.542 -0.534834 -2.49021 0
M  V30 1121 H 114.325 -2.19992 -2.6355 0
M  V30 1122 N 116.77 1.45427 -0.607355 0
M  V30 1123 C 117.702 2.2871 0.149752 0
M  V30 1124 C 118.715 1.39937 0.831958 0
M  V30 1125 O 119.904 1.64313 0.697385 0
M  V30 1126 C 117.004 3.15673 1.23304 0
M  V30 1127 C 116.177 4.32722 0.637996 0
M  V30 1128 C 115.236 5.00895 1.61215 0
M  V30 1129 O 114.262 5.57697 1.13854 0
M  V30 1130 N 115.464 5.00159 2.94655 0
M  V30 1131 H 118.229 2.94328 -0.564882 0
M  V30 1132 H 115.79 1.55612 -0.446823 0
M  V30 1133 H 117.782 3.58144 1.88454 0
M  V30 1134 H 116.352 2.51965 1.8502 0
M  V30 1135 H 115.572 3.93734 -0.191572 0
M  V30 1136 H 116.86 5.08321 0.220665 0
M  V30 1137 H 116.258 4.553 3.35735 0
M  V30 1138 H 114.815 5.46495 3.55228 0
M  V30 1139 N 118.248 0.346503 1.53744 0
M  V30 1140 C 119.211 -0.496439 2.23759 0
M  V30 1141 C 120.211 -1.0252 1.2388 0
M  V30 1142 O 121.401 -0.913974 1.48297 0
M  V30 1143 C 118.533 -1.69187 2.95954 0
M  V30 1144 H 119.726 0.115952 2.99676 0
M  V30 1145 H 117.279 0.0978939 1.55993 0
M  V30 1146 H 118.014 -2.34288 2.24231 0
M  V30 1147 H 117.799 -1.31989 3.69217 0
M  V30 1148 H 119.289 -2.28969 3.49232 0
M  V30 1149 N 119.726 -1.57421 0.075193 0
M  V30 1150 C 120.974 -1.93236 -0.591974 0
M  V30 1151 C 121.295 -0.956241 -1.69944 0
M  V30 1152 O 120.565 -0.00494792 -1.95899 0
M  V30 1153 H 119.145 -0.713355 -0.22166 0
M  V30 1154 H 121.807 -1.9444 0.133848 0
M  V30 1155 H 120.903 -2.95131 -1.01509 0
M  V30 1156 N 121.204 0.198386 -1.56346 0
M  V30 1157 C 122.167 1.22952 -1.93431 0
M  V30 1158 C 123.167 1.38611 -0.815092 0
M  V30 1159 O 124.357 1.36479 -1.08255 0
M  V30 1160 C 121.489 2.59946 -2.20546 0
M  V30 1161 H 122.682 0.912626 -2.85677 0
M  V30 1162 H 120.235 0.43977 -1.49986 0
M  V30 1163 H 120.97 2.96696 -1.30927 0
M  V30 1164 H 120.755 2.49953 -3.02102 0
M  V30 1165 H 122.245 3.3431 -2.50253 0
M  V30 1166 N 122.682 1.50554 0.465978 0
M  V30 1167 C 124.093 1.54599 1.04671 0
M  V30 1168 C 124.444 0.352488 1.93008 0
M  V30 1169 O 123.569 -0.534044 2.09707 0
M  V30 1170 C 124.164 2.80166 1.90505 0
M  V30 1171 C 122.723 2.86876 2.43678 0
M  V30 1172 C 121.87 2.48947 1.22151 0
M  V30 1173 H 124.821 1.56744 0.248384 0
M  V30 1174 H 124.842 2.62311 2.75633 0
M  V30 1175 H 124.354 3.67013 1.26186 0
M  V30 1176 H 122.455 2.04393 3.11536 0
M  V30 1177 H 122.568 3.89885 2.78436 0
M  V30 1178 H 120.932 2.01498 1.5579 0
M  V30 1179 H 121.715 3.38107 0.594866 0
M  V30 1180 N 124.16 -0.719506 1.40217 0
M  V30 1181 C 125.408 -1.47641 1.3801 0
M  V30 1182 C 125.729 -1.94992 -0.018145 0
M  V30 1183 O 124.999 -1.70073 -0.972207 0
M  V30 1184 H 123.579 -0.547744 0.507923 0
M  V30 1185 H 126.241 -0.853187 1.75233 0
M  V30 1186 H 125.337 -2.35112 2.05253 0
M  V30 1187 N 125.638 -1.25649 -0.95132 0
M  V30 1188 C 126.886 -1.10375 -1.69298 0
M  V30 1189 C 127.207 0.355339 -1.91735 0
M  V30 1190 O 126.477 1.25188 -1.50681 0
M  V30 1191 H 125.057 -0.405461 -0.627384 0
M  V30 1192 H 127.719 -1.57823 -1.14358 0
M  V30 1193 H 126.815 -1.61465 -2.67087 0
M  V30 1194 N 127.117 1.15442 -1.07289 0
M  V30 1195 C 128.064 2.20161 -0.692653 0
M  V30 1196 C 129.034 1.63073 0.31564 0
M  V30 1197 O 130.219 1.89725 0.202235 0
M  V30 1198 C 127.359 3.44967 -0.0959509 0
M  V30 1199 C 126.472 4.16256 -1.15564 0
M  V30 1200 C 125.607 5.28609 -0.524011 0
M  V30 1201 C 124.646 5.91715 -1.56653 0
M  V30 1202 N 123.783 6.9554 -0.957531 0
M  V30 1203 H 128.623 2.52037 -1.59002 0
M  V30 1204 H 126.16 1.2378 -0.794798 0
M  V30 1205 H 128.118 4.16341 0.267628 0
M  V30 1206 H 126.748 3.1361 0.764772 0
M  V30 1207 H 125.8 3.43385 -1.6368 0
M  V30 1208 H 127.112 4.59268 -1.94613 0
M  V30 1209 H 126.266 6.06604 -0.108032 0
M  V30 1210 H 125.005 4.86787 0.29825 0
M  V30 1211 H 124.01 5.12433 -1.9923 0
M  V30 1212 H 125.235 6.35614 -2.39107 0
M  V30 1213 H 123.181 6.55814 -0.156162 0
M  V30 1214 H 123.098 7.36977 -1.68526 0
M  V30 1215 H 124.366 7.77435 -0.567032 0
M  V30 1216 N 128.595 0.856903 1.32268 0
M  V30 1217 C 130.011 0.547061 1.49931 0
M  V30 1218 C 130.211 -0.921781 1.7918 0
M  V30 1219 O 129.267 -1.70469 1.8627 0
M  V30 1220 C 130.58 1.43599 2.64196 0
M  V30 1221 C 132.128 1.43665 2.78081 0
M  V30 1222 C 132.603 2.31085 3.95428 0
M  V30 1223 N 134.094 2.28893 4.02694 0
M  V30 1224 C 134.829 2.93262 4.92732 0
M  V30 1225 N 134.325 3.66751 5.87763 0
M  V30 1226 N 136.118 2.82638 4.85873 0
M  V30 1227 H 128.269 1.8075 1.11549 0
M  V30 1228 H 130.532 0.772144 0.549997 0
M  V30 1229 H 130.238 2.48058 2.49319 0
M  V30 1230 H 130.112 1.12502 3.60032 0
M  V30 1231 H 132.499 0.399701 2.92381 0
M  V30 1232 H 132.58 1.7878 1.82952 0
M  V30 1233 H 132.224 3.34849 3.81888 0
M  V30 1234 H 132.154 1.93302 4.89839 0
M  V30 1235 H 134.645 1.75466 3.34694 0
M  V30 1236 H 134.958 4.13027 6.53168 0
M  V30 1237 H 133.303 3.70859 5.87783 0
M  V30 1238 H 136.494 2.24774 4.10602 0
M  V30 1239 H 136.667 3.33084 5.55841 0
M  V30 1240 N 130.073 -1.45103 0.615059 0
M  V30 1241 C 131.036 -2.29025 -0.0895485 0
M  V30 1242 C 132.036 -1.40174 -0.787906 0
M  V30 1243 O 133.226 -1.62217 -0.634933 0
M  V30 1244 C 130.358 -3.21376 -1.13711 0
M  V30 1245 H 131.551 -2.92807 0.648382 0
M  V30 1246 H 129.104 -1.51749 0.374444 0
M  V30 1247 H 129.839 -2.6241 -1.90556 0
M  V30 1248 H 129.624 -3.86834 -0.640475 0
M  V30 1249 H 131.114 -3.84459 -1.63036 0
M  V30 1250 N 131.551 -0.354651 -1.53558 0
M  V30 1251 C 132.514 0.484566 -2.24019 0
M  V30 1252 C 133.514 1.01861 -1.24422 0
M  V30 1253 O 134.704 0.906097 -1.4878 0
M  V30 1254 C 131.836 1.67615 -2.96847 0
M  V30 1255 H 133.029 -0.131843 -2.9961 0
M  V30 1256 H 130.582 -0.106165 -1.55939 0
M  V30 1257 H 131.317 2.33095 -2.25471 0
M  V30 1258 H 131.102 1.30029 -3.69912 0
M  V30 1259 H 132.592 2.27114 -3.50441 0
M  V30 1260 N 133.029 1.57378 -0.0835403 0
M  V30 1261 C 134.445 1.57246 0.273109 0
M  V30 1262 C 134.645 1.09385 1.69225 0
M  V30 1263 O 133.701 0.765051 2.40631 0
M  V30 1264 C 135.014 3.00614 0.0720628 0
M  V30 1265 C 136.562 3.12684 0.1407 0
M  V30 1266 C 137.037 4.57989 -0.0322094 0
M  V30 1267 N 138.528 4.63194 0.0230085 0
M  V30 1268 C 139.263 5.73335 -0.0861941 0
M  V30 1269 N 138.759 6.9235 -0.24958 0
M  V30 1270 N 140.552 5.62093 -0.0282886 0
M  V30 1271 H 132.703 1.86801 -1.0109 0
M  V30 1272 H 134.966 0.861687 -0.395222 0
M  V30 1273 H 134.672 3.39786 -0.907662 0
M  V30 1274 H 134.546 3.68193 0.81936 0
M  V30 1275 H 136.933 2.73391 1.11092 0
M  V30 1276 H 137.014 2.47719 -0.637896 0
M  V30 1277 H 136.658 4.97973 -0.999247 0
M  V30 1278 H 136.588 5.21 0.765937 0
M  V30 1279 H 139.079 3.77613 0.14722 0
M  V30 1280 H 139.392 7.72117 -0.324733 0
M  V30 1281 H 137.737 6.94415 -0.285097 0
M  V30 1282 H 140.928 4.67997 0.0981408 0
M  V30 1283 H 141.101 6.47895 -0.116845 0
M  V30 1284 N 134.507 -0.190092 1.56449 0
M  V30 1285 C 135.454 -1.23557 1.94942 0
M  V30 1286 C 136.424 -1.44972 0.810696 0
M  V30 1287 O 137.609 -1.58023 1.06927 0
M  V30 1288 C 134.749 -2.57416 2.2985 0
M  V30 1289 C 133.862 -2.43537 3.5681 0
M  V30 1290 C 132.997 -3.70134 3.81017 0
M  V30 1291 C 132.036 -3.51109 5.01387 0
M  V30 1292 N 131.173 -4.6973 5.21822 0
M  V30 1293 H 136.013 -0.900304 2.84075 0
M  V30 1294 H 133.55 -0.43318 1.40577 0
M  V30 1295 H 135.508 -3.35409 2.48106 0
M  V30 1296 H 134.138 -2.88975 1.43852 0
M  V30 1297 H 133.19 -1.56816 3.46573 0
M  V30 1298 H 134.502 -2.25415 4.4496 0
M  V30 1299 H 133.656 -4.56566 3.9954 0
M  V30 1300 H 132.395 -3.91215 2.91207 0
M  V30 1301 H 131.4 -2.63063 4.82782 0
M  V30 1302 H 132.625 -3.31468 5.9271 0
M  V30 1303 H 130.571 -4.91065 4.34961 0
M  V30 1304 H 130.488 -4.54452 6.0416 0
M  V30 1305 H 131.756 -5.57499 5.44808 0
M  V30 1306 N 135.985 -1.50799 -0.457987 0
M  V30 1307 C 137.231 -1.63648 -1.20792 0
M  V30 1308 C 137.586 -0.338662 -1.89396 0
M  V30 1309 O 136.879 0.664291 -1.79716 0
M  V30 1310 C 137.073 -2.76358 -2.2663 0
M  V30 1311 C 136.902 -4.16974 -1.68411 0
M  V30 1312 C 135.672 -4.83199 -1.47807 0
M  V30 1313 C 137.87 -5.00774 -1.17176 0
M  V30 1314 N 135.852 -6.07991 -0.849692 0
M  V30 1315 C 137.223 -6.16397 -0.667403 0
M  V30 1316 C 139.278 -4.86452 -1.06155 0
M  V30 1317 C 137.981 -7.19272 -0.0636908 0
M  V30 1318 C 140.007 -5.89515 -0.471759 0
M  V30 1319 C 139.369 -7.04397 0.0221557 0
M  V30 1320 H 135.468 -0.652888 -0.43042 0
M  V30 1321 H 138.052 -1.87962 -0.507785 0
M  V30 1322 H 136.223 -2.53744 -2.94056 0
M  V30 1323 H 137.955 -2.78496 -2.93636 0
M  V30 1324 H 134.71 -4.40714 -1.73403 0
M  V30 1325 H 135.134 -6.74733 -0.553537 0
M  V30 1326 H 139.776 -3.97907 -1.42932 0
M  V30 1327 H 137.494 -8.07481 0.316253 0
M  V30 1328 H 141.08 -5.805 -0.388671 0
M  V30 1329 H 139.96 -7.82782 0.471375 0
M  V30 1330 N 137.463 0.71206 -1.40597 0
M  V30 1331 C 138.879 1.02058 -1.22704 0
M  V30 1332 C 139.079 2.01228 -0.104729 0
M  V30 1333 O 138.135 2.4674 0.53624 0
M  V30 1334 C 139.448 1.56094 -2.57012 0
M  V30 1335 C 140.996 1.6806 -2.64054 0
M  V30 1336 C 141.471 2.25501 -3.9864 0
M  V30 1337 N 142.962 2.32882 -4.004 0
M  V30 1338 C 143.697 2.78317 -5.01325 0
M  V30 1339 N 143.193 3.23478 -6.12645 0
M  V30 1340 N 144.986 2.77733 -4.88693 0
M  V30 1341 H 137.137 0.0547896 -2.12329 0
M  V30 1342 H 139.4 0.0869027 -0.944008 0
M  V30 1343 H 139.106 0.906865 -3.39807 0
M  V30 1344 H 138.98 2.54564 -2.78347 0
M  V30 1345 H 141.367 2.32583 -1.81629 0
M  V30 1346 H 141.448 0.681802 -2.46546 0
M  V30 1347 H 141.092 1.61598 -4.81506 0
M  V30 1348 H 141.022 3.26102 -4.13479 0
M  V30 1349 H 143.513 2.00991 -3.20017 0
M  V30 1350 H 143.826 3.56725 -6.85542 0
M  V30 1351 H 142.171 3.21429 -6.16205 0
M  V30 1352 H 145.362 2.4179 -4.00818 0
M  V30 1353 H 145.535 3.12826 -5.67489 0
M  V30 1354 N 138.941 1.26152 0.944643 0
M  V30 1355 C 140.181 1.12708 1.70517 0
M  V30 1356 C 140.545 -0.324727 1.89234 0
M  V30 1357 O 141.746 -0.581211 2.62441 0
M  V30 1358 C 140.017 1.8713 3.04495 0
M  V30 1359 S 141.576 1.89698 3.95677 0
M  V30 1360 H 138.394 0.402665 0.585988 0
M  V30 1361 H 140.996 1.59821 1.12594 0
M  V30 1362 H 139.7 2.91833 2.88551 0
M  V30 1363 H 139.231 1.40444 3.67477 0
M  V30 1364 H 141.246 0.981198 4.86402 0
M  V30 1365 N 140.419 -1.14872 1.07899 0
M  V30 1366 C 141.382 -2.17986 0.708161 0
M  V30 1367 C 142.382 -1.58775 -0.25442 0
M  V30 1368 O 143.572 -1.74166 -0.034645 0
M  V30 1369 C 140.704 -3.40871 0.0446929 0
M  V30 1370 H 141.897 -2.52306 1.62116 0
M  V30 1371 H 139.45 -1.2943 0.876218 0
M  V30 1372 H 140.185 -3.12124 -0.880281 0
M  V30 1373 H 139.97 -3.8511 0.737091 0
M  V30 1374 H 141.46 -4.17121 -0.19991 0
M  V30 1375 N 141.898 -0.863906 -1.31812 0
M  V30 1376 C 143.146 -0.470904 -1.96537 0
M  V30 1377 C 143.467 0.978771 -1.68657 0
M  V30 1378 O 142.737 1.6853 -0.998717 0
M  V30 1379 H 141.317 -0.171148 -0.72713 0
M  V30 1380 H 143.979 -1.10236 -1.60729 0
M  V30 1381 H 143.075 -0.623616 -3.05806 0
M  V30 1382 N 143.376 1.44774 -0.622745 0
M  V30 1383 C 144.308 2.28856 0.125485 0
M  V30 1384 C 145.321 1.40811 0.817069 0
M  V30 1385 O 146.51 1.65044 0.679918 0
M  V30 1386 C 143.61 3.16963 1.19949 0
M  V30 1387 C 142.783 4.33374 0.592064 0
M  V30 1388 C 141.842 5.02577 1.55893 0
M  V30 1389 O 140.868 5.58873 1.07933 0
M  V30 1390 N 142.07 5.03256 2.89334 0
M  V30 1391 H 144.835 2.93713 -0.596068 0
M  V30 1392 H 142.396 1.55129 -0.463303 0
M  V30 1393 H 144.388 3.60123 1.84644 0
M  V30 1394 H 142.958 2.53913 1.82337 0
M  V30 1395 H 142.178 3.93509 -0.233322 0
M  V30 1396 H 143.466 5.08527 0.166738 0
M  V30 1397 H 142.864 4.58836 3.30887 0
M  V30 1398 H 141.421 5.50232 3.49412 0
M  V30 1399 N 144.854 0.36279 1.53368 0
M  V30 1400 C 146.1 -0.228113 2.01513 0
M  V30 1401 C 146.433 -1.48648 1.2497 0
M  V30 1402 O 145.708 -1.91459 0.342616 0
M  V30 1403 C 145.991 -0.522884 3.56284 0
M  V30 1404 C 145.844 0.74892 4.43521 0
M  V30 1405 C 147.163 -1.32461 4.19693 0
M  V30 1406 H 144.282 -0.0814343 0.732487 0
M  V30 1407 H 146.924 0.48713 1.83649 0
M  V30 1408 H 145.074 -1.1322 3.71636 0
M  V30 1409 H 146.746 1.38648 4.39971 0
M  V30 1410 H 144.989 1.36986 4.11603 0
M  V30 1411 H 145.66 0.497667 5.49752 0
M  V30 1412 H 148.136 -0.809203 4.08156 0
M  V30 1413 H 147.012 -1.49961 5.28018 0
M  V30 1414 H 147.273 -2.33232 3.75573 0
M  V30 1415 N 146.332 -1.57332 0.0918853 0
M  V30 1416 C 147.56 -1.98574 -0.581048 0
M  V30 1417 C 147.975 -0.970903 -1.61923 0
M  V30 1418 O 147.332 0.0399054 -1.82456 0
M  V30 1419 C 147.383 -3.39872 -1.23164 0
M  V30 1420 O 147.104 -4.37469 -0.234989 0
M  V30 1421 C 148.605 -3.96099 -1.99049 0
M  V30 1422 H 145.825 -0.65261 -0.156018 0
M  V30 1423 H 148.369 -2.0379 0.170225 0
M  V30 1424 H 146.524 -3.35679 -1.93386 0
M  V30 1425 H 146.938 -5.19751 -0.70418 0
M  V30 1426 H 148.412 -4.97127 -2.39934 0
M  V30 1427 H 148.889 -3.3374 -2.85507 0
M  V30 1428 H 149.495 -4.03755 -1.3365 0
M  V30 1429 N 147.81 0.181792 -1.56548 0
M  V30 1430 C 149.059 0.898348 -1.8059 0
M  V30 1431 C 149.372 1.83862 -0.667379 0
M  V30 1432 O 150.578 2.59678 -0.792446 0
M  V30 1433 C 149.034 1.64791 -3.19956 0
M  V30 1434 C 148.642 0.751789 -4.41647 0
M  V30 1435 C 150.386 2.35331 -3.53298 0
M  V30 1436 C 148.293 1.50098 -5.72035 0
M  V30 1437 H 147.223 0.339194 -0.673397 0
M  V30 1438 H 149.874 0.151413 -1.82874 0
M  V30 1439 H 148.256 2.43921 -3.11959 0
M  V30 1440 H 149.43 -0.0018076 -4.608 0
M  V30 1441 H 147.745 0.156562 -4.16106 0
M  V30 1442 H 150.342 2.91958 -4.47956 0
M  V30 1443 H 150.685 3.10164 -2.77676 0
M  V30 1444 H 151.218 1.63154 -3.62803 0
M  V30 1445 H 147.957 0.795175 -6.50659 0
M  V30 1446 H 147.477 2.22817 -5.56878 0
M  V30 1447 H 149.156 2.05125 -6.13622 0
M  V30 1448 N 149.288 1.51039 0.449983 0
M  V30 1449 C 150.22 1.67617 1.56324 0
M  V30 1450 C 151.233 0.557083 1.52972 0
M  V30 1451 O 152.422 0.830989 1.57977 0
M  V30 1452 C 149.522 1.66402 2.95235 0
M  V30 1453 C 148.695 2.9469 3.23229 0
M  V30 1454 C 147.754 2.85832 4.41799 0
M  V30 1455 O 146.78 3.59785 4.41071 0
M  V30 1456 N 147.982 2.00821 5.44657 0
M  V30 1457 H 150.747 2.63648 1.42512 0
M  V30 1458 H 148.308 1.48767 0.638737 0
M  V30 1459 H 150.3 1.58062 3.72557 0
M  V30 1460 H 148.87 0.780182 3.02708 0
M  V30 1461 H 148.09 3.16996 2.34323 0
M  V30 1462 H 149.378 3.79636 3.38754 0
M  V30 1463 H 148.776 1.40091 5.48079 0
M  V30 1464 H 147.333 1.98368 6.20881 0
M  V30 1465 N 150.766 -0.704594 1.40972 0
M  V30 1466 C 152.014 -1.46169 1.39568 0
M  V30 1467 C 152.335 -1.95 0.00253745 0
M  V30 1468 O 151.605 -1.71095 -0.954114 0
M  V30 1469 H 150.185 -0.542326 0.513704 0
M  V30 1470 H 152.847 -0.834553 1.76128 0
M  V30 1471 H 151.943 -2.32922 2.07735 0
M  V30 1472 N 152.244 -1.26651 -0.937939 0
M  V30 1473 C 153.655 -1.1125 -1.49934 0
M  V30 1474 C 154.006 0.306077 -1.93798 0
M  V30 1475 O 153.131 1.19792 -1.80219 0
M  V30 1476 C 153.726 -2.01339 -2.72485 0
M  V30 1477 C 152.285 -1.90074 -3.24883 0
M  V30 1478 C 151.432 -1.94498 -1.97651 0
M  V30 1479 H 154.383 -1.39693 -0.753091 0
M  V30 1480 H 154.404 -1.56319 -3.46907 0
M  V30 1481 H 153.916 -3.04577 -2.40529 0
M  V30 1482 H 152.017 -0.897827 -3.61621 0
M  V30 1483 H 152.13 -2.75778 -3.9177 0
M  V30 1484 H 150.494 -1.38591 -2.13693 0
M  V30 1485 H 151.277 -2.99372 -1.68022 0
M  V30 1486 N 153.722 1.14298 -1.08507 0
M  V30 1487 C 154.685 2.17607 -0.719711 0
M  V30 1488 C 155.685 1.58907 0.245997 0
M  V30 1489 O 156.875 1.74181 0.0254081 0
M  V30 1490 C 154.007 3.40842 -0.0627695 0
M  V30 1491 H 155.2 2.51443 -1.63452 0
M  V30 1492 H 152.753 1.28963 -0.88307 0
M  V30 1493 H 153.488 3.12587 0.863716 0
M  V30 1494 H 153.273 3.84713 -0.757504 0
M  V30 1495 H 154.763 4.17221 0.177786 0
M  V30 1496 N 155.201 0.870884 1.31352 0
M  V30 1497 C 156.612 0.534714 1.78879 0
M  V30 1498 C 156.963 -0.948423 1.71754 0
M  V30 1499 O 156.088 -1.74055 1.28584 0
M  V30 1500 C 156.683 0.963839 3.24801 0
M  V30 1501 C 155.242 0.679311 3.70219 0
M  V30 1502 C 154.389 1.15465 2.52117 0
M  V30 1503 H 157.34 1.05651 1.18421 0
M  V30 1504 H 157.361 0.286892 3.79417 0
M  V30 1505 H 156.873 2.04332 3.29955 0
M  V30 1506 H 154.974 -0.388769 3.70566 0
M  V30 1507 H 155.087 1.25698 4.62317 0
M  V30 1508 H 153.451 0.574383 2.48139 0
M  V30 1509 H 154.234 2.24157 2.60016 0
M  V30 1510 N 156.679 -1.44442 0.630414 0
M  V30 1511 C 158.09 -1.85434 0.217063 0
M  V30 1512 C 158.441 -1.52748 -1.23136 0
M  V30 1513 O 157.566 -0.965205 -1.93682 0
M  V30 1514 C 158.161 -3.36581 0.387168 0
M  V30 1515 C 156.72 -3.76389 0.0283297 0
M  V30 1516 C 155.867 -2.68296 0.700889 0
M  V30 1517 H 158.818 -1.34919 0.83562 0
M  V30 1518 H 158.839 -3.78657 -0.374086 0
M  V30 1519 H 158.351 -3.60339 1.44144 0
M  V30 1520 H 156.452 -3.58246 -1.02423 0
M  V30 1521 H 156.565 -4.77095 0.437892 0
M  V30 1522 H 154.929 -2.54335 0.136267 0
M  V30 1523 H 155.712 -2.94887 1.75774 0
M  V30 1524 N 158.157 -0.370918 -1.53173 0
M  V30 1525 C 159.573 -0.0200818 -1.59587 0
M  V30 1526 C 159.773 1.46279 -1.38581 0
M  V30 1527 O 158.829 2.22506 -1.19363 0
M  V30 1528 C 160.142 -0.4808 -2.96831 0
M  V30 1529 C 161.69 -0.435477 -3.09956 0
M  V30 1530 C 162.165 -0.872092 -4.4962 0
M  V30 1531 N 163.656 -0.827364 -4.55751 0
M  V30 1532 C 164.391 -1.13683 -5.62018 0
M  V30 1533 N 163.887 -1.51584 -6.76014 0
M  V30 1534 N 165.68 -1.05927 -5.52029 0
M  V30 1535 H 157.831 -1.33652 -1.65079 0
M  V30 1536 H 160.094 -0.546634 -0.774529 0
M  V30 1537 H 159.8 -1.51577 -3.1736 0
M  V30 1538 H 159.674 0.129796 -3.76977 0
M  V30 1539 H 162.061 0.590371 -2.89134 0
M  V30 1540 H 162.142 -1.08164 -2.31806 0
M  V30 1541 H 161.786 -1.89608 -4.71181 0
M  V30 1542 H 161.716 -0.203127 -5.26208 0
M  V30 1543 H 164.207 -0.548216 -3.73902 0
M  V30 1544 H 164.52 -1.73609 -7.53047 0
M  V30 1545 H 162.865 -1.55454 -6.77391 0
M  V30 1546 H 166.056 -0.762321 -4.61851 0
M  V30 1547 H 166.229 -1.30378 -6.34749 0
M  V30 1548 N 159.635 1.57281 -0.100228 0
M  V30 1549 C 161.046 1.81725 0.428107 0
M  V30 1550 C 161.397 1.01619 1.67833 0
M  V30 1551 O 160.522 0.247098 2.14985 0
M  V30 1552 C 161.117 3.29617 0.78347 0
M  V30 1553 C 159.676 3.54808 1.25653 0
M  V30 1554 C 158.823 2.76118 0.255752 0
M  V30 1555 H 161.774 1.55324 -0.325608 0
M  V30 1556 H 161.795 3.4322 1.64256 0
M  V30 1557 H 161.307 3.87893 -0.12665 0
M  V30 1558 H 159.408 3.01868 2.18418 0
M  V30 1559 H 159.521 4.63443 1.21482 0
M  V30 1560 H 157.885 2.43745 0.738956 0
M  V30 1561 H 158.668 3.37145 -0.647136 0
M  V30 1562 N 161.113 -0.173488 1.56642 0
M  V30 1563 C 162.529 -0.525174 1.50712 0
M  V30 1564 C 162.729 -1.8476 0.804107 0
M  V30 1565 O 161.785 -2.49869 0.363574 0
M  V30 1566 C 163.098 -0.559937 2.95441 0
M  V30 1567 C 164.646 -0.647288 3.06234 0
M  V30 1568 C 165.121 -0.712963 4.52417 0
M  V30 1569 N 166.612 -0.775911 4.56655 0
M  V30 1570 C 167.347 -0.847264 5.67106 0
M  V30 1571 N 166.843 -0.879585 6.87194 0
M  V30 1572 N 168.636 -0.886117 5.55071 0
M  V30 1573 H 160.787 0.693681 2.00753 0
M  V30 1574 H 163.05 0.249841 0.914485 0
M  V30 1575 H 162.756 0.343049 3.50023 0
M  V30 1576 H 162.63 -1.40718 3.49969 0
M  V30 1577 H 165.017 -1.5407 2.51687 0
M  V30 1578 H 165.098 0.226586 2.54794 0
M  V30 1579 H 164.742 0.176183 5.07594 0
M  V30 1580 H 164.672 -1.60295 5.0161 0
M  V30 1581 H 167.163 -0.759304 3.70193 0
M  V30 1582 H 167.476 -0.935144 7.67121 0
M  V30 1583 H 165.821 -0.847898 6.89808 0
M  V30 1584 H 169.012 -0.857853 4.60172 0
M  V30 1585 H 169.185 -0.938263 6.41171 0
M  V30 1586 N 162.591 -1.51276 -0.441967 0
M  V30 1587 C 163.554 -1.7167 -1.51862 0
M  V30 1588 C 164.554 -0.586793 -1.49711 0
M  V30 1589 O 165.744 -0.854276 -1.51815 0
M  V30 1590 C 162.876 -1.76889 -2.91416 0
M  V30 1591 H 164.069 -2.67754 -1.35084 0
M  V30 1592 H 161.622 -1.41196 -0.670333 0
M  V30 1593 H 162.357 -0.826026 -3.13604 0
M  V30 1594 H 162.142 -2.59001 -2.94382 0
M  V30 1595 H 163.632 -1.94522 -3.69528 0
M  V30 1596 N 164.069 0.697108 -1.41344 0
M  V30 1597 C 165.317 1.45426 -1.40341 0
M  V30 1598 C 165.638 1.94996 -0.0128787 0
M  V30 1599 O 164.908 1.71599 0.945027 0
M  V30 1600 H 163.488 0.539594 -0.516573 0
M  V30 1601 H 166.15 0.825201 -1.76569 0
M  V30 1602 H 165.246 2.31817 -2.08967 0
M  V30 1603 N 165.547 1.27147 0.931209 0
M  V30 1604 C 166.963 1.04475 1.20653 0
M  V30 1605 C 167.163 -0.223885 2.00252 0
M  V30 1606 O 166.219 -0.930332 2.34736 0
M  V30 1607 C 167.532 2.28209 1.95809 0
M  V30 1608 C 169.08 2.33211 2.08762 0
M  V30 1609 C 169.555 3.56665 2.87323 0
M  V30 1610 N 171.046 3.57201 2.94892 0
M  V30 1611 C 171.781 4.49395 3.56134 0
M  V30 1612 N 171.277 5.51889 4.18796 0
M  V30 1613 N 173.07 4.37026 3.53504 0
M  V30 1614 H 165.221 2.08612 0.399333 0
M  V30 1615 H 167.484 0.917312 0.239253 0
M  V30 1616 H 167.19 3.20538 1.44736 0
M  V30 1617 H 167.064 2.33247 2.96438 0
M  V30 1618 H 169.451 1.41391 2.59023 0
M  V30 1619 H 169.532 2.32178 1.07364 0
M  V30 1620 H 169.176 4.4882 2.37746 0
M  V30 1621 H 169.106 3.54948 3.88998 0
M  V30 1622 H 171.597 2.83074 2.50354 0
M  V30 1623 H 171.91 6.18409 4.63454 0
M  V30 1624 H 170.255 5.55735 4.17353 0
M  V30 1625 H 173.446 3.56166 3.03749 0
M  V30 1626 H 173.619 5.09067 4.00942 0
M  V30 1627 N 167.025 -1.13721 1.09112 0
M  V30 1628 C 168.441 -1.36914 0.820174 0
M  V30 1629 C 168.641 -1.93356 -0.567079 0
M  V30 1630 O 167.697 -2.15093 -1.32255 0
M  V30 1631 C 169.01 -2.3235 1.90877 0
M  V30 1632 C 170.558 -2.45973 1.93562 0
M  V30 1633 C 171.033 -3.44714 3.01556 0
M  V30 1634 N 172.524 -3.52263 3.00775 0
M  V30 1635 C 173.259 -4.28536 3.80978 0
M  V30 1636 N 172.755 -5.07991 4.71081 0
M  V30 1637 N 174.548 -4.23804 3.69251 0
M  V30 1638 H 166.699 -0.754348 1.98553 0
M  V30 1639 H 168.962 -0.3944 0.862063 0
M  V30 1640 H 168.668 -1.98027 2.90651 0
M  V30 1641 H 168.542 -3.32332 1.78424 0
M  V30 1642 H 170.929 -2.79584 0.944286 0
M  V30 1643 H 171.01 -1.45926 2.10093 0
M  V30 1644 H 170.654 -3.11835 4.00901 0
M  V30 1645 H 170.584 -4.44558 2.82269 0
M  V30 1646 H 173.075 -2.95567 2.35475 0
M  V30 1647 H 173.388 -5.63487 5.28869 0
M  V30 1648 H 171.733 -5.07235 4.75119 0
M  V30 1649 H 174.924 -3.60806 2.98222 0
M  V30 1650 H 175.097 -4.82995 4.31995 0
M  V30 1651 N 168.503 -0.877838 -1.30888 0
M  V30 1652 C 169.78 -0.413052 -1.91189 0
M  V30 1653 C 170.16 1.1056 -1.79832 0
M  V30 1654 O 169.508 1.93771 -1.21099 0
M  V30 1655 C 169.718 -0.903191 -3.3711 0
M  V30 1656 C 171.066 -0.93395 -4.14201 0
M  V30 1657 O 172.09 -0.849373 -3.45925 0
M  V30 1658 O 170.949 -1.05772 -5.36167 0
M  V30 1659 H 168.043 -0.125035 -0.817493 0
M  V30 1660 H 170.589 -0.966269 -1.39504 0
M  V30 1661 H 169.361 -1.94692 -3.39427 0
M  V30 1662 H 168.984 -0.328732 -3.96239 0
M  V30 1663 N 169.982 1.44106 -0.638065 0
M  V30 1664 C 170.892 2.34513 0.0637334 0
M  V30 1665 C 171.908 1.53018 0.828346 0
M  V30 1666 O 173.084 1.85723 0.779036 0
M  V30 1667 C 170.149 3.31095 1.02844 0
M  V30 1668 C 169.21 4.28497 0.26244 0
M  V30 1669 C 168.443 5.20465 1.1812 0
M  V30 1670 O 168.666 5.16514 2.42011 0
M  V30 1671 O 167.6 5.98251 0.661774 0
M  V30 1672 H 171.426 2.95989 -0.68003 0
M  V30 1673 H 169.011 1.43994 -0.398252 0
M  V30 1674 H 170.893 3.90526 1.58327 0
M  V30 1675 H 169.568 2.72144 1.7527 0
M  V30 1676 H 168.475 3.72592 -0.335602 0
M  V30 1677 H 169.808 4.90388 -0.421936 0
M  V30 1678 N 171.46 0.379036 1.52974 0
M  V30 1679 C 172.423 -0.448865 2.24762 0
M  V30 1680 C 173.423 -0.998689 1.26027 0
M  V30 1681 O 174.613 -0.882313 1.50203 0
M  V30 1682 C 171.745 -1.62872 2.99476 0
M  V30 1683 H 172.938 0.179491 2.99362 0
M  V30 1684 H 170.491 0.13096 1.5575 0
M  V30 1685 H 171.226 -2.29479 2.29151 0
M  V30 1686 H 171.011 -1.24128 3.71934 0
M  V30 1687 H 172.501 -2.2151 3.5401 0
M  V30 1688 N 172.938 -1.57226 0.108567 0
M  V30 1689 C 174.186 -1.94448 -0.550853 0
M  V30 1690 C 174.507 -0.992074 -1.67878 0
M  V30 1691 O 173.777 -0.0465 -1.95845 0
M  V30 1692 H 172.357 -0.717897 -0.206479 0
M  V30 1693 H 175.019 -1.94112 0.175062 0
M  V30 1694 H 174.115 -2.97218 -0.952259 0
M  V30 1695 N 174.416 0.165178 -1.56732 0
M  V30 1696 C 175.664 0.879068 -1.8198 0
M  V30 1697 C 175.985 1.82514 -0.686561 0
M  V30 1698 O 175.255 1.93694 0.293146 0
M  V30 1699 H 173.835 0.327608 -0.671329 0
M  V30 1700 H 176.497 0.163526 -1.94213 0
M  V30 1701 H 175.593 1.45228 -2.76252 0
M  V30 1702 N 175.894 1.51508 0.433938 0
M  V30 1703 C 176.857 1.72473 1.50949 0
M  V30 1704 C 177.857 0.594725 1.49398 0
M  V30 1705 O 179.047 0.862315 1.5136 0
M  V30 1706 C 176.179 1.78431 2.90474 0
M  V30 1707 H 177.372 2.68467 1.33662 0
M  V30 1708 H 174.925 1.41549 0.662836 0
M  V30 1709 H 175.66 0.842645 3.13161 0
M  V30 1710 H 175.445 2.60558 2.93005 0
M  V30 1711 H 176.935 1.96479 3.68491 0
M  V30 1712 N 177.372 -0.689602 1.41712 0
M  V30 1713 C 178.788 -1.00093 1.24312 0
M  V30 1714 C 178.988 -2.01036 0.136729 0
M  V30 1715 O 178.044 -2.47562 -0.496918 0
M  V30 1716 C 179.357 -1.51985 2.59463 0
M  V30 1717 C 180.905 -1.63838 2.66695 0
M  V30 1718 C 181.38 -2.1913 4.02177 0
M  V30 1719 N 182.871 -2.26483 4.04054 0
M  V30 1720 C 183.606 -2.70306 5.0569 0
M  V30 1721 N 183.102 -3.13691 6.17713 0
M  V30 1722 N 184.895 -2.69923 4.9305 0
M  V30 1723 H 177.046 -0.0210029 2.1239 0
M  V30 1724 H 179.309 -0.0718733 0.945272 0
M  V30 1725 H 179.015 -0.85269 3.41207 0
M  V30 1726 H 178.889 -2.50103 2.82362 0
M  V30 1727 H 181.276 -2.29664 1.85306 0
M  V30 1728 H 181.357 -0.642492 2.476 0
M  V30 1729 H 181.001 -1.53918 4.84016 0
M  V30 1730 H 180.931 -3.19482 4.18615 0
M  V30 1731 H 183.422 -1.95874 3.23174 0
M  V30 1732 H 183.735 -3.45773 6.9113 0
M  V30 1733 H 182.08 -3.11585 6.21241 0
M  V30 1734 H 185.271 -2.35382 4.04614 0
M  V30 1735 H 185.444 -3.03758 5.72394 0
M  V30 1736 N 178.85 -1.27639 -0.924453 0
M  V30 1737 C 179.813 -1.10681 -2.00705 0
M  V30 1738 C 180.813 -0.0497823 -1.60723 0
M  V30 1739 O 182.003 -0.294654 -1.7169 0
M  V30 1740 C 179.135 -0.687164 -3.33902 0
M  V30 1741 H 180.328 -2.06817 -2.17179 0
M  V30 1742 H 177.881 -1.10473 -1.10569 0
M  V30 1743 H 178.616 0.275439 -3.23128 0
M  V30 1744 H 178.401 -1.45061 -3.6428 0
M  V30 1745 H 179.891 -0.590853 -4.13399 0
M  V30 1746 N 180.328 1.1314 -1.09713 0
M  V30 1747 C 181.291 2.16831 -0.742751 0
M  V30 1748 C 182.291 1.59159 0.229129 0
M  V30 1749 O 183.481 1.74199 0.00693237 0
M  V30 1750 C 180.613 3.40756 -0.0989168 0
M  V30 1751 H 181.806 2.49695 -1.66109 0
M  V30 1752 H 179.359 1.2802 -0.896699 0
M  V30 1753 H 180.094 3.13485 0.830514 0
M  V30 1754 H 179.879 3.83888 -0.798265 0
M  V30 1755 H 181.369 4.17386 0.133524 0
M  V30 1756 N 181.806 0.884767 1.30421 0
M  V30 1757 C 183.217 0.553656 1.78302 0
M  V30 1758 C 183.568 -0.930153 1.7275 0
M  V30 1759 O 182.693 -1.72681 1.30423 0
M  V30 1760 C 183.288 0.998234 3.2376 0
M  V30 1761 C 181.847 0.71854 3.69478 0
M  V30 1762 C 180.994 1.18132 2.50879 0
M  V30 1763 H 183.945 1.06901 1.17294 0
M  V30 1764 H 183.966 0.327118 3.79091 0
M  V30 1765 H 183.478 2.0782 3.27769 0
M  V30 1766 H 181.579 -0.349444 3.70958 0
M  V30 1767 H 181.692 1.30595 4.60958 0
M  V30 1768 H 180.056 0.600669 2.47516 0
M  V30 1769 H 180.839 2.26902 2.57624 0
M  V30 1770 N 183.284 -1.43765 0.645699 0
M  V30 1771 C 184.214 -2.33471 -0.0370477 0
M  V30 1772 C 185.195 -1.49042 -0.819779 0
M  V30 1773 O 186.38 -1.77726 -0.782758 0
M  V30 1774 C 183.51 -3.32311 -1.0093 0
M  V30 1775 C 182.464 -4.2667 -0.337201 0
M  V30 1776 C 181.79 -5.1549 -1.42037 0
M  V30 1777 C 183.09 -5.16657 0.765706 0
M  V30 1778 H 184.784 -2.90809 0.712069 0
M  V30 1779 H 182.33 -1.39834 0.343876 0
M  V30 1780 H 184.283 -3.9396 -1.49578 0
M  V30 1781 H 183.007 -2.73213 -1.78948 0
M  V30 1782 H 181.666 -3.66374 0.128771 0
M  V30 1783 H 181.314 -4.52735 -2.1918 0
M  V30 1784 H 181.014 -5.79438 -0.975966 0
M  V30 1785 H 182.538 -5.80012 -1.90838 0
M  V30 1786 H 183.952 -5.72158 0.361702 0
M  V30 1787 H 182.349 -5.89286 1.13413 0
M  V30 1788 H 183.419 -4.56796 1.62683 0
M  V30 1789 N 184.763 -0.387143 -1.52771 0
M  V30 1790 C 185.693 0.440551 -2.29306 0
M  V30 1791 C 186.674 1.06535 -1.32606 0
M  V30 1792 O 187.859 1.07853 -1.61497 0
M  V30 1793 C 184.989 1.56919 -3.09829 0
M  V30 1794 C 183.943 1.07054 -4.14395 0
M  V30 1795 C 183.269 2.29109 -4.83129 0
M  V30 1796 C 184.569 0.140015 -5.22112 0
M  V30 1797 H 186.263 -0.198026 -2.98744 0
M  V30 1798 H 183.809 -0.09668 -1.43675 0
M  V30 1799 H 185.762 2.15503 -3.62128 0
M  V30 1800 H 184.486 2.23532 -2.3812 0
M  V30 1801 H 183.145 0.507247 -3.63074 0
M  V30 1802 H 182.793 2.94227 -4.0797 0
M  V30 1803 H 182.493 1.96406 -5.53804 0
M  V30 1804 H 184.017 2.88339 -5.38231 0
M  V30 1805 H 185.431 0.633978 -5.69784 0
M  V30 1806 H 183.828 -0.0971485 -6.00021 0
M  V30 1807 H 184.898 -0.811711 -4.78058 0
M  V30 1808 N 186.241 1.57166 -0.116904 0
M  V30 1809 C 187.171 2.18222 0.830759 0
M  V30 1810 C 188.152 1.12167 1.27877 0
M  V30 1811 O 189.337 1.40394 1.34176 0
M  V30 1812 C 186.467 2.77996 2.08172 0
M  V30 1813 C 185.421 3.89614 1.77157 0
M  V30 1814 C 184.747 4.36187 3.09265 0
M  V30 1815 C 186.047 5.1181 1.04151 0
M  V30 1816 H 187.741 2.97664 0.321992 0
M  V30 1817 H 185.287 1.4318 0.153434 0
M  V30 1818 H 187.24 3.19366 2.74924 0
M  V30 1819 H 185.964 1.9584 2.6137 0
M  V30 1820 H 184.623 3.48816 1.12796 0
M  V30 1821 H 184.271 3.50893 3.60393 0
M  V30 1822 H 183.971 5.11455 2.89288 0
M  V30 1823 H 185.495 4.80207 3.77139 0
M  V30 1824 H 186.909 5.50214 1.61052 0
M  V30 1825 H 185.306 5.92648 0.942762 0
M  V30 1826 H 186.376 4.84892 0.0279022 0
M  V30 1827 N 187.719 -0.156864 1.56817 0
M  V30 1828 C 189.13 -0.717916 1.72345 0
M  V30 1829 C 189.481 -1.82124 0.729747 0
M  V30 1830 O 188.606 -2.16141 -0.105781 0
M  V30 1831 C 189.201 -1.30904 3.12489 0
M  V30 1832 C 187.76 -1.81676 3.29653 0
M  V30 1833 C 186.907 -0.701349 2.68284 0
M  V30 1834 H 189.858 0.0686989 1.58551 0
M  V30 1835 H 189.879 -2.17882 3.11942 0
M  V30 1836 H 189.391 -0.505796 3.8479 0
M  V30 1837 H 187.492 -2.64598 2.62333 0
M  V30 1838 H 187.605 -1.95226 4.3752 0
M  V30 1839 H 185.969 -1.12548 2.28484 0
M  V30 1840 H 186.752 0.0902846 3.43181 0
M  V30 1841 N 189.197 -1.51736 -0.425897 0
M  V30 1842 C 190.608 -1.5732 -1.00536 0
M  V30 1843 C 190.959 -0.403537 -1.92005 0
M  V30 1844 O 190.084 0.478256 -2.11049 0
M  V30 1845 C 190.679 -2.85119 -1.8301 0
M  V30 1846 C 189.238 -2.93236 -2.35987 0
M  V30 1847 C 188.385 -2.52098 -1.15508 0
M  V30 1848 H 191.336 -1.57348 -0.206739 0
M  V30 1849 H 191.357 -2.69526 -2.68581 0
M  V30 1850 H 190.869 -3.7023 -1.16411 0
M  V30 1851 H 188.97 -2.12581 -3.06007 0
M  V30 1852 H 189.083 -3.9713 -2.68001 0
M  V30 1853 H 187.447 -2.05558 -1.50393 0
M  V30 1854 H 188.23 -3.39565 -0.505014 0
M  V30 1855 N 190.675 0.682077 -1.42076 0
M  V30 1856 C 192.086 1.26246 -1.37546 0
M  V30 1857 C 192.437 1.96092 -0.0651481 0
M  V30 1858 O 191.562 1.99587 0.836297 0
M  V30 1859 C 192.157 2.29594 -2.49143 0
M  V30 1860 C 190.716 2.83175 -2.47969 0
M  V30 1861 C 189.863 1.57395 -2.28303 0
M  V30 1862 H 192.814 0.475937 -1.51395 0
M  V30 1863 H 192.835 3.11175 -2.18976 0
M  V30 1864 H 192.347 1.78729 -3.44496 0
M  V30 1865 H 190.448 3.3818 -1.56413 0
M  V30 1866 H 190.561 3.32687 -3.44755 0
M  V30 1867 H 188.925 1.83699 -1.76428 0
M  V30 1868 H 189.708 1.08507 -3.25701 0
M  V30 1869 N 192.153 1.28127 0.917671 0
M  V30 1870 C 193.564 1.13622 1.48145 0
M  V30 1871 C 193.915 -0.275207 1.9426 0
M  V30 1872 O 193.04 -1.1691 1.82102 0
M  V30 1873 C 193.635 2.05648 2.69248 0
M  V30 1874 C 192.194 1.95219 3.21818 0
M  V30 1875 C 191.341 1.97618 1.94532 0
M  V30 1876 H 194.292 1.40874 0.730772 0
M  V30 1877 H 194.313 1.61818 3.44377 0
M  V30 1878 H 193.825 3.08365 2.35653 0
M  V30 1879 H 191.926 0.955244 3.60147 0
M  V30 1880 H 192.039 2.81976 3.87333 0
M  V30 1881 H 190.403 1.41973 2.11461 0
M  V30 1882 H 191.186 3.02007 1.63238 0
M  V30 1883 N 193.631 -1.12557 1.10312 0
M  V30 1884 C 194.594 -2.16434 0.75424 0
M  V30 1885 C 195.594 -1.59278 -0.220685 0
M  V30 1886 O 196.784 -1.742 0.00230591 0
M  V30 1887 C 193.916 -3.40699 0.116987 0
M  V30 1888 H 195.109 -2.48811 1.67431 0
M  V30 1889 H 192.662 -1.27542 0.903475 0
M  V30 1890 H 193.397 -3.13921 -0.813877 0
M  V30 1891 H 193.182 -3.83459 0.818613 0
M  V30 1892 H 194.672 -4.17451 -0.111387 0
M  V30 1893 N 195.109 -0.891671 -1.2995 0
M  V30 1894 C 196.072 -0.36828 -2.26222 0
M  V30 1895 C 197.072 0.493014 -1.53056 0
M  V30 1896 O 198.262 0.299213 -1.71611 0
M  V30 1897 C 195.394 0.47442 -3.37583 0
M  V30 1898 H 196.587 -1.21844 -2.74033 0
M  V30 1899 H 194.14 -0.669107 -1.41254 0
M  V30 1900 H 194.875 1.34489 -2.95099 0
M  V30 1901 H 194.66 -0.142615 -3.91841 0
M  V30 1902 H 196.15 0.83218 -4.09224 0
M  V30 1903 N 196.587 1.43421 -0.653314 0
M  V30 1904 C 197.52 2.2803 0.0879804 0
M  V30 1905 C 198.498 1.39833 0.82979 0
M  V30 1906 O 199.682 1.69275 0.829341 0
M  V30 1907 C 196.809 3.19247 1.13132 0
M  V30 1908 C 195.855 4.23704 0.487546 0
M  V30 1909 S 196.688 5.30377 -0.738961 0
M  V30 1910 C 197.844 6.25162 0.30384 0
M  V30 1911 H 198.077 2.90554 -0.629739 0
M  V30 1912 H 195.61 1.47934 -0.442156 0
M  V30 1913 H 197.568 3.72346 1.72827 0
M  V30 1914 H 196.229 2.55901 1.82136 0
M  V30 1915 H 195.422 4.87631 1.27407 0
M  V30 1916 H 195.024 3.73983 -0.0352915 0
M  V30 1917 H 197.316 6.67321 1.17 0
M  V30 1918 H 198.259 7.07463 -0.300402 0
M  V30 1919 H 198.667 5.60864 0.63969 0
M  V30 1920 N 198.065 0.39524 1.52563 0
M  V30 1921 C 198.975 -0.444232 2.30356 0
M  V30 1922 C 199.991 -1.06615 1.37511 0
M  V30 1923 O 201.167 -1.07067 1.70583 0
M  V30 1924 C 198.232 -1.55315 3.09964 0
M  V30 1925 C 197.293 -0.955734 4.18526 0
M  V30 1926 C 196.526 -2.01181 4.9433 0
M  V30 1927 O 196.749 -3.22781 4.70285 0
M  V30 1928 O 195.683 -1.62579 5.79527 0
M  V30 1929 H 199.509 0.189667 3.03107 0
M  V30 1930 H 197.094 0.1588 1.48554 0
M  V30 1931 H 198.976 -2.19724 3.59582 0
M  V30 1932 H 197.651 -2.17191 2.4002 0
M  V30 1933 H 196.558 -0.274743 3.7309 0
M  V30 1934 H 197.891 -0.381109 4.90722 0
M  V30 1935 N 199.544 -1.57102 0.125237 0
M  V30 1936 C 200.772 -1.99761 -0.538797 0
M  V30 1937 C 201.187 -1.00503 -1.59827 0
M  V30 1938 O 200.544 0.00119474 -1.825 0
M  V30 1939 C 200.595 -3.42408 -1.15927 0
M  V30 1940 O 200.316 -4.37869 -0.142143 0
M  V30 1941 C 201.817 -4.00232 -1.90602 0
M  V30 1942 H 199.037 -0.655772 -0.14214 0
M  V30 1943 H 201.581 -2.03383 0.213413 0
M  V30 1944 H 199.736 -3.39706 -1.86223 0
M  V30 1945 H 200.15 -5.21128 -0.593775 0
M  V30 1946 H 201.624 -5.02105 -2.29335 0
M  V30 1947 H 202.101 -3.39721 -2.78363 0
M  V30 1948 H 202.707 -4.06499 -1.25055 0
M  V30 1949 N 201.022 0.148545 -1.56898 0
M  V30 1950 C 202.27 0.859717 -1.82902 0
M  V30 1951 C 202.591 1.81775 -0.70588 0
M  V30 1952 O 201.861 1.93994 0.272586 0
M  V30 1953 H 200.441 0.320469 -0.674766 0
M  V30 1954 H 203.103 0.142918 -1.94375 0
M  V30 1955 H 202.199 1.4229 -2.77777 0
M  V30 1956 N 202.5 1.5196 0.417844 0
M  V30 1957 C 203.447 1.74678 1.50852 0
M  V30 1958 C 204.417 0.588947 1.55308 0
M  V30 1959 O 205.602 0.825544 1.72016 0
M  V30 1960 C 202.742 1.89544 2.88387 0
M  V30 1961 C 201.855 3.17166 2.93309 0
M  V30 1962 C 200.99 3.22513 4.22088 0
M  V30 1963 C 200.029 4.44372 4.20951 0
M  V30 1964 N 199.166 4.47161 5.41287 0
M  V30 1965 H 204.006 2.67768 1.30783 0
M  V30 1966 H 201.543 1.32689 0.63498 0
M  V30 1967 H 203.501 1.96146 3.68216 0
M  V30 1968 H 202.131 0.998424 3.06971 0
M  V30 1969 H 201.183 3.19778 2.06024 0
M  V30 1970 H 202.495 4.07021 2.88332 0
M  V30 1971 H 201.649 3.28139 5.10303 0
M  V30 1972 H 200.388 2.30581 4.29748 0
M  V30 1973 H 199.393 4.38902 3.31127 0
M  V30 1974 H 200.618 5.3759 4.14938 0
M  V30 1975 H 198.564 3.58108 5.49632 0
M  V30 1976 H 198.481 5.3085 5.3827 0
M  V30 1977 H 199.749 4.57005 6.3148 0
M  V30 1978 N 203.978 -0.674533 1.42435 0
M  V30 1979 C 205.255 -1.4305 1.33402 0
M  V30 1980 C 205.635 -2.11081 -0.0284674 0
M  V30 1981 O 204.983 -2.03257 -1.04397 0
M  V30 1982 C 205.193 -2.43272 2.50239 0
M  V30 1983 C 206.541 -3.07907 2.92367 0
M  V30 1984 O 207.565 -2.53599 2.50132 0
M  V30 1985 O 206.424 -4.0632 3.65467 0
M  V30 1986 H 203.518 -0.638076 0.526106 0
M  V30 1987 H 206.064 -0.703235 1.54443 0
M  V30 1988 H 204.836 -1.91803 3.41068 0
M  V30 1989 H 204.459 -3.23479 2.31186 0
M  V30 1990 N 205.456 -1.28612 -0.910864 0
M  V30 1991 C 206.704 -1.15705 -1.65701 0
M  V30 1992 C 207.025 0.29416 -1.92769 0
M  V30 1993 O 206.295 1.20331 -1.54588 0
M  V30 1994 H 204.875 -0.425216 -0.614167 0
M  V30 1995 H 207.537 -1.61381 -1.0928 0
M  V30 1996 H 206.633 -1.6988 -2.61815 0
M  V30 1997 N 206.934 1.1197 -1.10907 0
M  V30 1998 C 207.897 2.16031 -0.765707 0
M  V30 1999 C 208.897 1.59393 0.212235 0
M  V30 2000 O 210.087 1.74196 -0.0115441 0
M  V30 2001 C 207.219 3.40632 -0.135053 0
M  V30 2002 H 208.412 2.47919 -1.68748 0
M  V30 2003 H 205.965 1.27061 -0.910226 0
M  V30 2004 H 206.7 3.14348 0.797218 0
M  V30 2005 H 206.485 3.8302 -0.838937 0
M  V30 2006 H 207.975 4.17505 0.0892469 0
M  V30 2007 N 208.412 0.89855 1.29475 0
M  V30 2008 C 209.828 0.594483 1.48115 0
M  V30 2009 C 210.028 -0.86431 1.82022 0
M  V30 2010 O 209.084 -1.64457 1.91599 0
M  V30 2011 C 210.397 1.51932 2.59494 0
M  V30 2012 C 211.945 1.5244 2.7337 0
M  V30 2013 C 212.42 2.43548 3.87877 0
M  V30 2014 N 213.911 2.41589 3.95208 0
M  V30 2015 C 214.646 3.08789 4.83153 0
M  V30 2016 N 214.142 3.85265 5.75798 0
M  V30 2017 N 215.935 2.97952 4.76635 0
M  V30 2018 H 208.086 1.84207 1.05742 0
M  V30 2019 H 210.349 0.789251 0.525154 0
M  V30 2020 H 210.055 2.55865 2.41301 0
M  V30 2021 H 209.929 1.23899 3.56271 0
M  V30 2022 H 212.316 0.492518 2.90961 0
M  V30 2023 H 212.397 1.8451 1.77172 0
M  V30 2024 H 212.041 3.46829 3.71041 0
M  V30 2025 H 211.971 2.08788 4.83441 0
M  V30 2026 H 214.462 1.86025 3.28943 0
M  V30 2027 H 214.775 4.33598 6.39697 0
M  V30 2028 H 213.12 3.89371 5.75687 0
M  V30 2029 H 216.311 2.37723 4.03244 0
M  V30 2030 H 216.484 3.50599 5.44962 0
M  V30 2031 N 209.89 -1.43072 0.660911 0
M  V30 2032 C 211.306 -1.56169 0.329173 0
M  V30 2033 C 211.506 -1.64317 -1.16629 0
M  V30 2034 O 210.562 -1.60245 -1.95135 0
M  V30 2035 C 211.875 -2.81873 1.04729 0
M  V30 2036 C 213.423 -2.95627 1.02828 0
M  V30 2037 C 213.898 -4.24174 1.72744 0
M  V30 2038 N 215.389 -4.31055 1.69545 0
M  V30 2039 C 216.124 -5.29304 2.20511 0
M  V30 2040 N 215.62 -6.33786 2.79799 0
M  V30 2041 N 217.413 -5.21008 2.10966 0
M  V30 2042 H 209.564 -1.36027 1.63127 0
M  V30 2043 H 211.827 -0.653823 0.686454 0
M  V30 2044 H 211.533 -2.81942 2.10242 0
M  V30 2045 H 211.407 -3.72338 0.603702 0
M  V30 2046 H 213.794 -2.95094 -0.0184742 0
M  V30 2047 H 213.875 -2.06431 1.51063 0
M  V30 2048 H 213.519 -4.25467 2.7738 0
M  V30 2049 H 213.449 -5.1228 1.2197 0
M  V30 2050 H 215.94 -3.56174 1.26288 0
M  V30 2051 H 216.253 -7.05086 3.16344 0
M  V30 2052 H 214.598 -6.34387 2.83863 0
M  V30 2053 H 217.789 -4.38301 1.64347 0
M  V30 2054 H 217.962 -5.97416 2.50993 0
M  V30 2055 N 211.368 -0.403325 -1.52352 0
M  V30 2056 C 212.616 0.174003 -2.0135 0
M  V30 2057 C 212.937 1.46139 -1.29106 0
M  V30 2058 O 212.207 1.91448 -0.415253 0
M  V30 2059 H 210.787 0.0672911 -0.743963 0
M  V30 2060 H 213.449 -0.538235 -1.87321 0
M  V30 2061 H 212.545 0.374254 -3.09848 0
M  V30 2062 N 212.846 1.57033 -0.133567 0
M  V30 2063 C 214.074 2.00044 0.528195 0
M  V30 2064 C 214.489 1.01349 1.59291 0
M  V30 2065 O 213.846 0.00848369 1.82498 0
M  V30 2066 C 213.897 3.43018 1.1411 0
M  V30 2067 O 213.618 4.37939 0.11892 0
M  V30 2068 C 215.119 4.01237 1.88477 0
M  V30 2069 H 212.339 0.656517 0.138661 0
M  V30 2070 H 214.883 2.03267 -0.224196 0
M  V30 2071 H 213.038 3.40688 1.84418 0
M  V30 2072 H 213.452 5.21436 0.56613 0
M  V30 2073 H 214.926 5.03314 2.26669 0
M  V30 2074 H 215.403 3.41193 2.76558 0
M  V30 2075 H 216.009 4.07156 1.22898 0
M  V30 2076 N 214.325 -0.140222 1.56975 0
M  V30 2077 C 215.257 -1.19818 1.95388 0
M  V30 2078 C 216.27 -1.38816 0.850525 0
M  V30 2079 O 217.459 -1.38267 1.12891 0
M  V30 2080 C 214.559 -2.56189 2.21857 0
M  V30 2081 C 213.732 -2.58077 3.5315 0
M  V30 2082 C 212.791 -3.76037 3.6808 0
M  V30 2083 O 211.817 -3.60598 4.40406 0
M  V30 2084 N 213.019 -4.93763 3.05251 0
M  V30 2085 H 215.784 -0.871609 2.86746 0
M  V30 2086 H 213.345 -0.32972 1.58507 0
M  V30 2087 H 215.337 -3.33623 2.2908 0
M  V30 2088 H 213.907 -2.81111 1.36731 0
M  V30 2089 H 213.127 -1.6651 3.57307 0
M  V30 2090 H 214.415 -2.56377 4.39486 0
M  V30 2091 H 213.813 -5.09209 2.46419 0
M  V30 2092 H 212.37 -5.68949 3.18026 0
M  V30 2093 N 215.803 -1.52179 -0.40978 0
M  V30 2094 C 217.028 -1.70347 -1.18308 0
M  V30 2095 C 217.453 -0.411887 -1.83535 0
M  V30 2096 O 216.811 0.630587 -1.6998 0
M  V30 2097 C 216.859 -2.83977 -2.22238 0
M  V30 2098 O 215.963 -2.495 -3.28365 0
M  V30 2099 H 215.304 -0.567103 -0.345384 0
M  V30 2100 H 217.834 -1.98879 -0.480445 0
M  V30 2101 H 217.844 -3.0887 -2.66577 0
M  V30 2102 H 216.519 -3.77685 -1.74146 0
M  V30 2103 H 215.096 -2.35277 -2.89308 0
M  V30 2104 N 217.281 0.66697 -1.42791 0
M  V30 2105 C 218.692 1.2478 -1.38877 0
M  V30 2106 C 219.043 1.96012 -0.0859426 0
M  V30 2107 O 218.168 2.00463 0.815081 0
M  V30 2108 C 218.763 2.26938 -2.51564 0
M  V30 2109 C 217.322 2.80529 -2.50959 0
M  V30 2110 C 216.469 1.54965 -2.29959 0
M  V30 2111 H 219.42 0.459853 -1.51892 0
M  V30 2112 H 219.441 3.08834 -2.22265 0
M  V30 2113 H 218.953 1.75065 -3.46372 0
M  V30 2114 H 217.054 3.36502 -1.59991 0
M  V30 2115 H 217.167 3.29012 -3.48265 0
M  V30 2116 H 215.531 1.81817 -1.78366 0
M  V30 2117 H 216.314 1.05047 -3.26833 0
M  V30 2118 N 218.759 1.29093 0.90403 0
M  V30 2119 C 219.669 1.15727 2.0407 0
M  V30 2120 C 220.685 0.0815308 1.73809 0
M  V30 2121 O 221.861 0.292749 1.99261 0
M  V30 2122 C 218.926 0.830424 3.36608 0
M  V30 2123 C 217.987 1.98955 3.80415 0
M  V30 2124 C 217.22 1.6782 5.06628 0
M  V30 2125 O 217.443 0.597105 5.67266 0
M  V30 2126 O 216.377 2.52486 5.46383 0
M  V30 2127 H 220.203 2.11171 2.18267 0
M  V30 2128 H 217.788 1.08504 1.027 0
M  V30 2129 H 219.67 0.662521 4.16159 0
M  V30 2130 H 218.345 -0.0942678 3.23563 0
M  V30 2131 H 217.252 2.21267 3.01648 0
M  V30 2132 H 218.585 2.89529 3.98037 0
M  V30 2133 N 220.237 -1.11381 1.11499 0
M  V30 2134 C 221.653 -1.35143 0.849031 0
M  V30 2135 C 221.853 -1.94515 -0.525938 0
M  V30 2136 O 220.909 -2.1785 -1.27662 0
M  V30 2137 C 222.222 -2.28249 1.95762 0
M  V30 2138 C 223.77 -2.41812 1.98736 0
M  V30 2139 C 224.245 -3.3824 3.088 0
M  V30 2140 N 225.736 -3.45803 3.08179 0
M  V30 2141 C 226.471 -4.20358 3.89982 0
M  V30 2142 N 225.967 -4.97884 4.8175 0
M  V30 2143 N 227.76 -4.15877 3.78157 0
M  V30 2144 H 219.911 -0.712062 2.00109 0
M  V30 2145 H 222.174 -0.376025 0.870235 0
M  V30 2146 H 221.88 -1.91817 2.94787 0
M  V30 2147 H 221.754 -3.28473 1.85433 0
M  V30 2148 H 224.141 -2.77518 1.00338 0
M  V30 2149 H 224.222 -1.41437 2.13141 0
M  V30 2150 H 223.866 -3.03261 4.07425 0
M  V30 2151 H 223.796 -4.38471 2.91635 0
M  V30 2152 H 226.287 -2.90506 2.41691 0
M  V30 2153 H 226.6 -5.52142 5.40702 0
M  V30 2154 H 224.945 -4.97043 4.85771 0
M  V30 2155 H 228.136 -3.544 3.05808 0
M  V30 2156 H 228.309 -4.73723 4.42143 0
M  V30 2157 N 221.715 -0.905404 -1.28997 0
M  V30 2158 C 222.662 -0.385892 -2.27551 0
M  V30 2159 C 223.632 0.535113 -1.57244 0
M  V30 2160 O 224.817 0.459119 -1.85194 0
M  V30 2161 C 221.957 0.375461 -3.43051 0
M  V30 2162 C 221.07 -0.577092 -4.28128 0
M  V30 2163 C 220.205 0.201879 -5.30816 0
M  V30 2164 C 219.244 -0.744829 -6.07551 0
M  V30 2165 N 218.381 9.42587e-05 -7.021 0
M  V30 2166 H 223.221 -1.23139 -2.71368 0
M  V30 2167 H 220.758 -0.618542 -1.33463 0
M  V30 2168 H 222.716 0.832992 -4.088 0
M  V30 2169 H 221.346 1.18537 -3.00248 0
M  V30 2170 H 220.398 -1.15315 -3.62501 0
M  V30 2171 H 221.71 -1.30152 -4.8152 0
M  V30 2172 H 220.864 0.720351 -6.02408 0
M  V30 2173 H 219.603 0.959413 -4.7817 0
M  V30 2174 H 218.608 -1.27475 -5.34818 0
M  V30 2175 H 219.833 -1.50178 -6.62286 0
M  V30 2176 H 217.779 0.739791 -6.51815 0
M  V30 2177 H 217.696 -0.664321 -7.53076 0
M  V30 2178 H 218.964 0.498644 -7.77903 0
M  V30 2179 N 223.193 1.4272 -0.668489 0
M  V30 2180 C 224.609 1.55992 -0.33745 0
M  V30 2181 C 224.809 1.64933 1.15756 0
M  V30 2182 O 223.865 1.61278 1.94282 0
M  V30 2183 C 225.178 2.81314 -1.06222 0
M  V30 2184 C 226.726 2.95078 -1.04394 0
M  V30 2185 C 227.201 4.23252 -1.74991 0
M  V30 2186 N 228.692 4.3015 -1.71829 0
M  V30 2187 C 229.427 5.28127 -2.23315 0
M  V30 2188 N 228.923 6.32293 -2.83156 0
M  V30 2189 N 230.716 5.19882 -2.13726 0
M  V30 2190 H 222.867 1.3516 -1.63846 0
M  V30 2191 H 225.13 0.650174 -0.689912 0
M  V30 2192 H 224.836 2.80823 -2.11734 0
M  V30 2193 H 224.71 3.72012 -0.62344 0
M  V30 2194 H 227.097 2.951 0.0028244 0
M  V30 2195 H 227.178 2.05627 -1.52155 0
M  V30 2196 H 226.822 4.2399 -2.79633 0
M  V30 2197 H 226.752 5.11626 -1.24685 0
M  V30 2198 H 229.243 3.55499 -1.28175 0
M  V30 2199 H 229.556 7.03398 -3.20079 0
M  V30 2200 H 227.901 6.32873 -2.87223 0
M  V30 2201 H 231.092 4.37423 -1.66669 0
M  V30 2202 H 231.265 5.96077 -2.54158 0
M  V30 2203 N 224.671 0.411399 1.52136 0
M  V30 2204 C 226.087 0.0623865 1.59478 0
M  V30 2205 C 226.287 -1.42554 1.4241 0
M  V30 2206 O 225.343 -2.19263 1.2522 0
M  V30 2207 C 226.656 0.559331 2.95452 0
M  V30 2208 C 228.204 0.517503 3.08692 0
M  V30 2209 C 228.679 0.990994 4.4715 0
M  V30 2210 N 230.17 0.947908 4.53397 0
M  V30 2211 C 230.905 1.28544 5.58806 0
M  V30 2212 N 230.401 1.69454 6.71757 0
M  V30 2213 N 232.194 1.20526 5.49026 0
M  V30 2214 H 224.345 1.37982 1.61477 0
M  V30 2215 H 226.608 0.566977 0.759764 0
M  V30 2216 H 226.314 1.59938 3.1323 0
M  V30 2217 H 226.188 -0.0298014 3.77188 0
M  V30 2218 H 228.575 -0.513505 2.90598 0
M  V30 2219 H 228.656 1.14272 2.28857 0
M  V30 2220 H 228.3 2.02034 4.65988 0
M  V30 2221 H 228.23 0.34257 5.25485 0
M  V30 2222 H 230.721 0.647157 3.72317 0
M  V30 2223 H 231.034 1.93513 7.48179 0
M  V30 2224 H 229.379 1.73359 6.73032 0
M  V30 2225 H 232.57 0.884505 4.59667 0
M  V30 2226 H 232.743 1.47161 6.31069 0
M  V30 2227 N 226.149 -1.5696 0.141893 0
M  V30 2228 C 227.374 -2.00754 -0.520838 0
M  V30 2229 C 227.799 -1.0213 -1.57959 0
M  V30 2230 O 227.157 0.00371324 -1.813 0
M  V30 2231 C 227.205 -3.43318 -1.10294 0
M  V30 2232 O 226.309 -3.47679 -2.21795 0
M  V30 2233 H 225.65 -0.651564 -0.127908 0
M  V30 2234 H 228.18 -2.03221 0.23712 0
M  V30 2235 H 228.19 -3.82012 -1.43287 0
M  V30 2236 H 226.865 -4.14608 -0.327574 0
M  V30 2237 H 225.442 -3.20824 -1.9007 0
M  V30 2238 N 227.627 0.131896 -1.57047 0
M  V30 2239 C 229.038 0.690407 -1.73465 0
M  V30 2240 C 229.389 1.8094 -0.758629 0
M  V30 2241 O 228.514 2.16282 0.0713813 0
M  V30 2242 C 229.109 1.25916 -3.14532 0
M  V30 2243 C 227.668 1.76409 -3.32501 0
M  V30 2244 C 226.815 0.658579 -2.69366 0
M  V30 2245 H 229.766 -0.0939144 -1.58422 0
M  V30 2246 H 229.787 2.12892 -3.15369 0
M  V30 2247 H 229.299 0.444515 -3.85546 0
M  V30 2248 H 227.4 2.60391 -2.66509 0
M  V30 2249 H 227.513 1.88241 -4.4057 0
M  V30 2250 H 225.877 1.08899 -2.30246 0
M  V30 2251 H 226.66 -0.14487 -3.42994 0
M  V30 2252 N 229.106 1.52395 0.401703 0
M  V30 2253 C 230.352 1.67065 1.14966 0
M  V30 2254 C 230.685 0.403052 1.89971 0
M  V30 2255 O 229.96 -0.598774 1.85054 0
M  V30 2256 C 230.243 2.8975 2.13815 0
M  V30 2257 C 230.096 4.26578 1.42658 0
M  V30 2258 C 231.415 3.07965 3.14397 0
M  V30 2259 H 228.534 0.607968 0.416587 0
M  V30 2260 H 231.176 1.84965 0.434511 0
M  V30 2261 H 229.326 2.74619 2.74803 0
M  V30 2262 H 230.998 4.53451 0.847329 0
M  V30 2263 H 229.241 4.27639 0.72849 0
M  V30 2264 H 229.912 5.08483 2.14823 0
M  V30 2265 H 232.388 3.22043 2.63491 0
M  V30 2266 H 231.264 3.95308 3.80819 0
M  V30 2267 H 231.525 2.21611 3.82545 0
M  V30 2268 N 230.584 -0.659388 1.43143 0
M  V30 2269 C 231.995 -1.24041 1.39537 0
M  V30 2270 C 232.346 -1.95963 0.0963364 0
M  V30 2271 O 231.471 -2.00892 -0.804438 0
M  V30 2272 C 232.066 -2.25601 2.52764 0
M  V30 2273 C 230.625 -2.79195 2.52443 0
M  V30 2274 C 229.772 -1.53743 2.30778 0
M  V30 2275 H 232.723 -0.451792 1.52133 0
M  V30 2276 H 232.744 -3.07651 2.23899 0
M  V30 2277 H 232.256 -1.73226 3.47296 0
M  V30 2278 H 230.357 -3.35649 1.61773 0
M  V30 2279 H 230.47 -3.2716 3.50004 0
M  V30 2280 H 228.834 -1.80869 1.79328 0
M  V30 2281 H 229.617 -1.03312 3.27386 0
M  V30 2282 N 232.062 -1.29571 -0.897171 0
M  V30 2283 C 233.478 -1.07637 -1.17841 0
M  V30 2284 C 233.678 0.170713 -2.00776 0
M  V30 2285 O 232.734 0.867768 -2.3712 0
M  V30 2286 C 234.047 -2.3332 -1.8969 0
M  V30 2287 C 235.595 -2.38664 -2.02505 0
M  V30 2288 C 236.07 -3.64157 -2.77765 0
M  V30 2289 N 237.561 -3.64894 -2.85318 0
M  V30 2290 C 238.296 -4.58679 -3.44094 0
M  V30 2291 N 237.792 -5.62799 -4.04017 0
M  V30 2292 N 239.585 -4.46245 -3.41793 0
M  V30 2293 H 231.736 -2.09598 -0.343883 0
M  V30 2294 H 233.999 -0.923333 -0.214848 0
M  V30 2295 H 233.705 -3.24262 -1.36187 0
M  V30 2296 H 233.579 -2.41025 -2.9015 0
M  V30 2297 H 235.966 -1.48208 -2.55183 0
M  V30 2298 H 236.047 -2.34943 -1.01171 0
M  V30 2299 H 235.691 -4.54965 -2.25763 0
M  V30 2300 H 235.621 -3.65137 -3.7945 0
M  V30 2301 H 238.112 -2.89613 -2.42761 0
M  V30 2302 H 238.425 -6.3048 -4.46895 0
M  V30 2303 H 236.77 -5.66605 -4.02472 0
M  V30 2304 H 239.961 -3.64094 -2.94199 0
M  V30 2305 H 240.134 -5.19518 -3.87304 0
M  V30 2306 N 233.54 1.10788 -1.12088 0
M  V30 2307 C 234.503 2.15207 -0.788577 0
M  V30 2308 C 235.503 1.59609 0.195317 0
M  V30 2309 O 236.693 1.74174 -0.0300193 0
M  V30 2310 C 233.825 3.4047 -0.171174 0
M  V30 2311 H 235.018 2.46116 -1.71368 0
M  V30 2312 H 232.571 1.26089 -0.923652 0
M  V30 2313 H 233.306 3.15176 0.763832 0
M  V30 2314 H 233.091 3.82109 -0.879514 0
M  V30 2315 H 234.581 4.17576 0.04496 0
M  V30 2316 N 235.018 0.912232 1.28515 0
M  V30 2317 C 236.429 0.591352 1.77087 0
M  V30 2318 C 236.78 -0.8933 1.74684 0
M  V30 2319 O 235.905 -1.69876 1.34056 0
M  V30 2320 C 236.5 1.06668 3.2157 0
M  V30 2321 C 235.059 0.79675 3.67871 0
M  V30 2322 C 234.206 1.23427 2.48316 0
M  V30 2323 H 237.157 1.09365 1.15 0
M  V30 2324 H 237.178 0.407455 3.78312 0
M  V30 2325 H 236.69 2.14726 3.23287 0
M  V30 2326 H 234.791 -0.270679 3.71616 0
M  V30 2327 H 234.904 1.40343 4.58084 0
M  V30 2328 H 233.268 0.653036 2.46186 0
M  V30 2329 H 234.051 2.32316 2.52753 0
M  V30 2330 N 236.496 -1.42363 0.676048 0
M  V30 2331 C 237.721 -2.06377 0.205705 0
M  V30 2332 C 238.146 -1.50463 -1.12883 0
M  V30 2333 O 237.504 -0.623619 -1.70237 0
M  V30 2334 C 237.552 -3.60277 0.152655 0
M  V30 2335 O 236.656 -4.02935 -0.87845 0
M  V30 2336 H 235.997 -0.655588 0.105359 0
M  V30 2337 H 238.527 -1.82475 0.925412 0
M  V30 2338 H 238.537 -4.07993 -0.0230675 0
M  V30 2339 H 237.212 -4.00346 1.12675 0
M  V30 2340 H 235.789 -3.66764 -0.673668 0
M  V30 2341 N 237.974 -0.419461 -1.51915 0
M  V30 2342 C 239.202 0.152136 -2.0634 0
M  V30 2343 C 239.617 1.37988 -1.28859 0
M  V30 2344 O 238.974 1.79243 -0.343232 0
M  V30 2345 C 239.025 0.492266 -3.58133 0
M  V30 2346 O 238.746 -0.686736 -4.32684 0
M  V30 2347 C 240.247 1.11648 -4.2901 0
M  V30 2348 H 237.467 0.0158325 -0.670813 0
M  V30 2349 H 240.011 -0.593394 -1.95702 0
M  V30 2350 H 238.166 1.18769 -3.68745 0
M  V30 2351 H 238.58 -0.400341 -5.2297 0
M  V30 2352 H 240.054 1.3046 -5.36362 0
M  V30 2353 H 240.531 2.09251 -3.86148 0
M  V30 2354 H 241.137 0.460958 -4.22795 0
M  V30 2355 N 239.452 1.56882 -0.150215 0
M  V30 2356 C 240.399 2.16922 0.788244 0
M  V30 2357 C 241.369 1.10303 1.24187 0
M  V30 2358 O 242.554 1.38359 1.31383 0
M  V30 2359 C 239.694 2.79754 2.02068 0
M  V30 2360 C 238.807 4.00775 1.61257 0
M  V30 2361 C 237.942 4.51595 2.79705 0
M  V30 2362 C 236.981 5.65074 2.35282 0
M  V30 2363 N 236.118 6.10499 3.4675 0
M  V30 2364 H 240.958 2.96779 0.269444 0
M  V30 2365 H 238.495 1.46599 0.12128 0
M  V30 2366 H 240.453 3.14329 2.74323 0
M  V30 2367 H 239.083 2.02536 2.51354 0
M  V30 2368 H 238.135 3.72158 0.787553 0
M  V30 2369 H 239.447 4.82978 1.24633 0
M  V30 2370 H 238.601 4.88242 3.60145 0
M  V30 2371 H 237.34 3.68406 3.19576 0
M  V30 2372 H 236.345 5.28 1.53283 0
M  V30 2373 H 237.57 6.50052 1.96493 0
M  V30 2374 H 235.516 5.30243 3.86236 0
M  V30 2375 H 235.433 6.87637 3.14152 0
M  V30 2376 H 236.701 6.51791 4.27537 0
M  V30 2377 N 240.93 -0.123565 1.57115 0
M  V30 2378 C 241.86 -1.15309 2.03042 0
M  V30 2379 C 242.841 -1.43454 0.914061 0
M  V30 2380 O 244.026 -1.53973 1.18347 0
M  V30 2381 C 241.156 -2.48043 2.43089 0
M  V30 2382 C 240.11 -2.3437 3.58127 0
M  V30 2383 C 239.436 -3.72026 3.84059 0
M  V30 2384 C 240.736 -1.80804 4.90007 0
M  V30 2385 H 242.43 -0.771102 2.893 0
M  V30 2386 H 239.976 -0.369479 1.39179 0
M  V30 2387 H 241.929 -3.20311 2.73823 0
M  V30 2388 H 240.653 -2.88122 1.53796 0
M  V30 2389 H 239.312 -1.64551 3.27595 0
M  V30 2390 H 238.96 -4.09582 2.91979 0
M  V30 2391 H 238.66 -3.63732 4.6149 0
M  V30 2392 H 240.184 -4.45806 4.1724 0
M  V30 2393 H 241.598 -2.42886 5.19307 0
M  V30 2394 H 239.995 -1.83343 5.71407 0
M  V30 2395 H 241.065 -0.76528 4.78823 0
M  V30 2396 N 242.408 -1.52605 -0.393616 0
M  V30 2397 C 243.824 -1.41753 -0.733357 0
M  V30 2398 C 244.024 -0.534293 -1.94287 0
M  V30 2399 O 243.08 -0.0059787 -2.52499 0
M  V30 2400 C 244.393 -2.84531 -0.972772 0
M  V30 2401 C 245.941 -2.93978 -1.07453 0
M  V30 2402 C 246.416 -4.37756 -1.3466 0
M  V30 2403 N 247.907 -4.4106 -1.41492 0
M  V30 2404 C 248.642 -5.49387 -1.642 0
M  V30 2405 N 248.138 -6.67806 -1.8441 0
M  V30 2406 N 249.931 -5.36923 -1.66342 0
M  V30 2407 H 242.082 -2.08555 0.402328 0
M  V30 2408 H 244.345 -0.940654 0.117789 0
M  V30 2409 H 244.051 -3.51353 -0.156204 0
M  V30 2410 H 243.925 -3.26508 -1.88871 0
M  V30 2411 H 246.312 -2.27326 -1.88167 0
M  V30 2412 H 246.393 -2.55435 -0.136605 0
M  V30 2413 H 246.037 -5.04972 -0.544581 0
M  V30 2414 H 245.967 -4.73848 -2.2973 0
M  V30 2415 H 248.458 -3.55705 -1.27601 0
M  V30 2416 H 248.771 -7.46141 -2.01231 0
M  V30 2417 H 247.116 -6.70843 -1.81644 0
M  V30 2418 H 250.307 -4.43381 -1.50102 0
M  V30 2419 H 250.48 -6.21416 -1.837 0
M  V30 2420 N 243.887 0.651787 -1.4349 0
M  V30 2421 C 245.298 1.233 -1.40193 0
M  V30 2422 C 245.649 1.9591 -0.106727 0
M  V30 2423 O 244.774 2.01316 0.793773 0
M  V30 2424 C 245.369 2.24257 -2.53957 0
M  V30 2425 C 243.928 2.77852 -2.5392 0
M  V30 2426 C 243.075 1.52517 -2.3159 0
M  V30 2427 H 246.026 0.443717 -1.52371 0
M  V30 2428 H 246.047 3.0646 -2.25528 0
M  V30 2429 H 245.559 1.71382 -3.4821 0
M  V30 2430 H 243.66 3.34786 -1.63551 0
M  V30 2431 H 243.773 3.25299 -3.51735 0
M  V30 2432 H 242.137 1.79915 -1.80285 0
M  V30 2433 H 242.92 1.01574 -3.27929 0
M  V30 2434 N 245.365 1.30045 0.890287 0
M  V30 2435 C 246.328 1.15963 1.977 0
M  V30 2436 C 247.328 0.0923777 1.60534 0
M  V30 2437 O 248.518 0.340071 1.70848 0
M  V30 2438 C 245.65 0.775451 3.31963 0
M  V30 2439 H 246.843 2.12502 2.11619 0
M  V30 2440 H 244.396 1.13366 1.07601 0
M  V30 2441 H 245.131 -0.189671 3.23745 0
M  V30 2442 H 244.916 1.54668 3.60306 0
M  V30 2443 H 246.406 0.700251 4.11687 0
M  V30 2444 N 246.843 -1.10192 1.12674 0
M  V30 2445 C 247.806 -2.14786 0.799979 0
M  V30 2446 C 248.806 -1.59711 -0.18685 0
M  V30 2447 O 249.996 -1.74156 0.0392558 0
M  V30 2448 C 247.128 -3.40374 0.189228 0
M  V30 2449 H 248.321 -2.45203 1.72671 0
M  V30 2450 H 245.874 -1.25597 0.930326 0
M  V30 2451 H 246.609 -3.15577 -0.747107 0
M  V30 2452 H 246.394 -3.81637 0.899766 0
M  V30 2453 H 247.884 -4.17594 -0.0228143 0
M  V30 2454 N 248.321 -0.919034 -1.28029 0
M  V30 2455 C 249.284 -0.416182 -2.2539 0
M  V30 2456 C 250.284 0.460438 -1.54067 0
M  V30 2457 O 251.474 0.262744 -1.72207 0
M  V30 2458 C 248.606 0.402707 -3.38513 0
M  V30 2459 H 249.799 -1.27629 -2.71387 0
M  V30 2460 H 247.352 -0.698919 -1.39803 0
M  V30 2461 H 248.087 1.282 -2.97885 0
M  V30 2462 H 247.872 -0.225698 -3.9145 0
M  V30 2463 H 249.362 0.745191 -4.10897 0
M  V30 2464 N 249.799 1.42003 -0.683588 0
M  V30 2465 C 250.762 2.29191 -0.0198243 0
M  V30 2466 C 251.762 1.43773 0.72013 0
M  V30 2467 O 252.952 1.65061 0.556815 0
M  V30 2468 C 250.084 3.26435 0.982487 0
M  V30 2469 H 251.277 2.8938 -0.787345 0
M  V30 2470 H 248.83 1.49789 -0.446418 0
M  V30 2471 H 249.565 2.71203 1.77819 0
M  V30 2472 H 249.35 3.89449 0.455182 0
M  V30 2473 H 250.84 3.918 1.44508 0
M  V30 2474 N 251.277 0.427512 1.51691 0
M  V30 2475 C 252.693 0.0792977 1.59403 0
M  V30 2476 C 252.893 -1.41035 1.43914 0
M  V30 2477 O 251.949 -2.17922 1.27539 0
M  V30 2478 C 253.262 0.590636 2.94842 0
M  V30 2479 C 254.81 0.550215 3.08126 0
M  V30 2480 C 255.285 1.03836 4.46074 0
M  V30 2481 N 256.776 0.995943 4.52366 0
M  V30 2482 C 257.511 1.34463 5.57411 0
M  V30 2483 N 257.007 1.76569 6.69922 0
M  V30 2484 N 258.8 1.26343 5.47717 0
M  V30 2485 H 250.951 1.39687 1.60004 0
M  V30 2486 H 253.214 0.575003 0.753708 0
M  V30 2487 H 252.92 1.63251 3.11516 0
M  V30 2488 H 252.794 0.0102061 3.77199 0
M  V30 2489 H 255.181 -0.482654 2.91126 0
M  V30 2490 H 255.262 1.16693 2.27632 0
M  V30 2491 H 254.906 2.06965 4.63819 0
M  V30 2492 H 254.836 0.398286 5.25092 0
M  V30 2493 H 257.327 0.68661 3.7161 0
M  V30 2494 H 257.64 2.01438 7.46085 0
M  V30 2495 H 255.985 1.80488 6.71155 0
M  V30 2496 H 259.176 0.933209 4.58703 0
M  V30 2497 H 259.349 1.53846 6.29472 0
M  V30 2498 N 252.755 -1.56801 0.158532 0
M  V30 2499 C 253.718 -2.16138 -0.762705 0
M  V30 2500 C 254.718 -1.1061 -1.16713 0
M  V30 2501 O 255.908 -1.36191 -1.08617 0
M  V30 2502 C 253.04 -2.73386 -2.03649 0
M  V30 2503 H 254.233 -2.98886 -0.246354 0
M  V30 2504 H 251.786 -1.56035 -0.0909744 0
M  V30 2505 H 252.521 -1.94335 -2.59623 0
M  V30 2506 H 252.306 -3.50601 -1.75559 0
M  V30 2507 H 253.796 -3.19065 -2.6942 0
M  V30 2508 N 254.233 0.115231 -1.57178 0
M  V30 2509 C 255.166 1.17166 -1.95825 0
M  V30 2510 C 256.144 1.39912 -0.828463 0
M  V30 2511 O 257.328 1.54004 -1.08697 0
M  V30 2512 C 254.455 2.52478 -2.25771 0
M  V30 2513 C 253.501 2.46136 -3.48309 0
M  V30 2514 S 254.334 1.89736 -5.0076 0
M  V30 2515 C 255.49 3.26713 -5.33863 0
M  V30 2516 H 255.723 0.842103 -2.85124 0
M  V30 2517 H 253.256 0.322136 -1.51002 0
M  V30 2518 H 255.214 3.30332 -2.43702 0
M  V30 2519 H 253.875 2.82609 -1.37079 0
M  V30 2520 H 253.068 3.45819 -3.66641 0
M  V30 2521 H 252.67 1.76404 -3.29784 0
M  V30 2522 H 254.962 4.22935 -5.29275 0
M  V30 2523 H 255.905 3.13205 -6.35065 0
M  V30 2524 H 256.313 3.25316 -4.61335 0
M  V30 2525 N 255.711 1.52812 0.385517 0
M  V30 2526 C 256.988 1.5861 1.14465 0
M  V30 2527 C 257.368 0.381402 2.07626 0
M  V30 2528 O 256.716 -0.629999 2.19643 0
M  V30 2529 C 256.926 2.92664 1.90128 0
M  V30 2530 C 258.274 3.46526 2.45367 0
M  V30 2531 O 259.298 2.94562 2.0028 0
M  V30 2532 O 258.157 4.37323 3.27736 0
M  V30 2533 H 255.251 0.639855 0.523941 0
M  V30 2534 H 257.797 1.65149 0.390389 0
M  V30 2535 H 256.569 3.71788 1.22022 0
M  V30 2536 H 256.192 2.89527 2.72507 0
M  V30 2537 N 257.189 -0.644168 1.43834 0
M  V30 2538 C 258.6 -1.22554 1.40845 0
M  V30 2539 C 258.951 -1.9585 0.117115 0
M  V30 2540 O 258.076 -2.01734 -0.783086 0
M  V30 2541 C 258.671 -2.22907 2.55143 0
M  V30 2542 C 257.23 -2.76501 2.5539 0
M  V30 2543 C 256.377 -1.51287 2.32396 0
M  V30 2544 H 259.328 -0.43563 1.52604 0
M  V30 2545 H 259.349 -3.05259 2.2715 0
M  V30 2546 H 258.861 -1.69533 3.49114 0
M  V30 2547 H 256.962 -3.33914 1.65324 0
M  V30 2548 H 257.075 -3.23429 3.53455 0
M  V30 2549 H 255.439 -1.78957 1.81236 0
M  V30 2550 H 256.222 -0.998336 3.28463 0
M  V30 2551 N 258.668 -1.30515 -0.883378 0
M  V30 2552 C 259.914 -1.19607 -1.63774 0
M  V30 2553 C 260.247 0.248314 -1.92606 0
M  V30 2554 O 259.522 1.17742 -1.54813 0
M  V30 2555 C 259.805 -2.02669 -2.97653 0
M  V30 2556 C 259.658 -3.55335 -2.75784 0
M  V30 2557 C 260.977 -1.86573 -3.98596 0
M  V30 2558 H 258.096 -0.435856 -0.594305 0
M  V30 2559 H 260.738 -1.60165 -1.02212 0
M  V30 2560 H 258.888 -1.68208 -3.50197 0
M  V30 2561 H 260.56 -3.99863 -2.30016 0
M  V30 2562 H 258.803 -3.79438 -2.1026 0
M  V30 2563 H 259.474 -4.08745 -3.70988 0
M  V30 2564 H 261.95 -2.16703 -3.55217 0
M  V30 2565 H 260.826 -2.47014 -4.90179 0
M  V30 2566 H 261.087 -0.825321 -4.34328 0
M  V30 2567 N 260.146 1.09593 -1.13257 0
M  V30 2568 C 261.109 2.14359 -0.811358 0
M  V30 2569 C 262.109 1.59808 0.178377 0
M  V30 2570 O 263.299 1.74132 -0.0484911 0
M  V30 2571 C 260.431 3.40269 -0.207276 0
M  V30 2572 H 261.624 2.44284 -1.73969 0
M  V30 2573 H 259.177 1.25102 -0.936973 0
M  V30 2574 H 259.912 3.15969 0.73036 0
M  V30 2575 H 259.697 3.81154 -0.919992 0
M  V30 2576 H 261.187 4.176 0.000667944 0
M  V30 2577 N 261.624 0.925811 1.2754 0
M  V30 2578 C 262.587 0.428129 2.25166 0
M  V30 2579 C 263.587 -0.452261 1.54309 0
M  V30 2580 O 264.777 -0.253608 1.72344 0
M  V30 2581 C 261.909 -0.384749 3.38722 0
M  V30 2582 H 263.102 1.29066 2.70706 0
M  V30 2583 H 260.655 0.706323 1.3943 0
M  V30 2584 H 261.39 -1.26618 2.98561 0
M  V30 2585 H 261.175 0.246454 3.91325 0
M  V30 2586 H 262.665 -0.723389 4.11287 0
M  V30 2587 N 263.102 -1.41638 0.69111 0
M  V30 2588 C 264.012 -2.34588 0.0233487 0
M  V30 2589 C 265.028 -1.55987 -0.770984 0
M  V30 2590 O 266.204 -1.88486 -0.709569 0
M  V30 2591 C 263.269 -3.34684 -0.904851 0
M  V30 2592 C 262.33 -4.29176 -0.103225 0
M  V30 2593 C 261.563 -5.2449 -0.987216 0
M  V30 2594 O 261.786 -5.2514 -2.22674 0
M  V30 2595 O 260.72 -6.00295 -0.439281 0
M  V30 2596 H 264.546 -2.93261 0.789416 0
M  V30 2597 H 262.131 -1.42417 0.45142 0
M  V30 2598 H 264.013 -3.96133 -1.43724 0
M  V30 2599 H 262.688 -2.78461 -1.65049 0
M  V30 2600 H 261.595 -3.71089 0.473655 0
M  V30 2601 H 262.928 -4.88484 0.60365 0
M  V30 2602 N 264.58 -0.43555 -1.51462 0
M  V30 2603 C 265.543 0.365137 -2.26273 0
M  V30 2604 C 266.543 0.951227 -1.29647 0
M  V30 2605 O 267.733 0.825958 -1.53374 0
M  V30 2606 C 264.865 1.51645 -3.05314 0
M  V30 2607 H 266.058 -0.290474 -2.9849 0
M  V30 2608 H 263.611 -0.188676 -1.55157 0
M  V30 2609 H 264.346 2.20816 -2.3751 0
M  V30 2610 H 264.131 1.10238 -3.76284 0
M  V30 2611 H 265.621 2.08218 -3.61987 0
M  V30 2612 N 266.058 1.56714 -0.166846 0
M  V30 2613 C 267.469 1.83378 0.350646 0
M  V30 2614 C 267.82 1.08646 1.63372 0
M  V30 2615 O 266.945 0.338058 2.13743 0
M  V30 2616 C 267.54 3.32643 0.642963 0
M  V30 2617 C 266.099 3.59818 1.10491 0
M  V30 2618 C 265.246 2.76954 0.138411 0
M  V30 2619 H 268.197 1.53803 -0.391193 0
M  V30 2620 H 268.218 3.49878 1.49551 0
M  V30 2621 H 267.73 3.87007 -0.291055 0
M  V30 2622 H 265.831 3.1086 2.05418 0
M  V30 2623 H 265.944 4.68178 1.01716 0
M  V30 2624 H 264.308 2.4666 0.634911 0
M  V30 2625 H 265.091 3.34097 -0.789549 0
M  V30 2626 N 267.536 -0.106894 1.57237 0
M  V30 2627 C 268.784 -0.810921 1.85117 0
M  V30 2628 C 269.105 -1.7984 0.753827 0
M  V30 2629 O 268.375 -1.94649 -0.221056 0
M  V30 2630 H 266.955 -0.302466 0.683025 0
M  V30 2631 H 269.617 -0.0913324 1.94686 0
M  V30 2632 H 268.713 -1.34875 2.81452 0
M  V30 2633 N 269.014 -1.53014 -0.377408 0
M  V30 2634 C 269.924 -1.81557 -1.48574 0
M  V30 2635 C 270.94 -0.703102 -1.59162 0
M  V30 2636 O 272.116 -0.99192 -1.75279 0
M  V30 2637 C 269.181 -1.9889 -2.83978 0
M  V30 2638 C 268.242 -3.22801 -2.83016 0
M  V30 2639 C 267.475 -3.39298 -4.11962 0
M  V30 2640 O 267.698 -2.60345 -5.0752 0
M  V30 2641 O 266.632 -4.32604 -4.18494 0
M  V30 2642 H 270.458 -2.75695 -1.27382 0
M  V30 2643 H 268.043 -1.38248 -0.566373 0
M  V30 2644 H 269.925 -2.11931 -3.6423 0
M  V30 2645 H 268.6 -1.07942 -3.05172 0
M  V30 2646 H 267.507 -3.15193 -2.01505 0
M  V30 2647 H 268.84 -4.13632 -2.66775 0
M  V30 2648 N 270.492 0.636531 -1.44174 0
M  V30 2649 C 271.455 1.73063 -1.50273 0
M  V30 2650 C 272.455 1.56113 -0.385397 0
M  V30 2651 O 273.645 1.61707 -0.64781 0
M  V30 2652 C 270.777 3.12096 -1.37145 0
M  V30 2653 H 271.97 1.69031 -2.47727 0
M  V30 2654 H 269.523 0.849706 -1.31186 0
M  V30 2655 H 270.258 3.21728 -0.407636 0
M  V30 2656 H 270.043 3.25805 -2.18159 0
M  V30 2657 H 271.533 3.91846 -1.44382 0
M  V30 2658 N 271.97 1.30982 0.876444 0
M  V30 2659 C 273.217 1.20296 1.62896 0
M  V30 2660 C 273.545 -0.240395 1.93009 0
M  V30 2661 O 272.8 -1.18733 1.55567 0
M  V30 2662 C 273.099 1.98572 2.9716 0
M  V30 2663 C 272.765 3.48125 2.86566 0
M  V30 2664 C 271.427 3.88905 2.83383 0
M  V30 2665 C 273.779 4.43322 2.74071 0
M  V30 2666 C 271.107 5.2316 2.65556 0
M  V30 2667 C 273.459 5.77695 2.57781 0
M  V30 2668 C 272.123 6.17704 2.52979 0
M  V30 2669 H 271.393 0.440193 0.59608 0
M  V30 2670 H 274.04 1.62177 1.01837 0
M  V30 2671 H 272.345 1.49352 3.62217 0
M  V30 2672 H 274.042 1.8769 3.54364 0
M  V30 2673 H 270.632 3.15723 2.89856 0
M  V30 2674 H 274.816 4.12752 2.75589 0
M  V30 2675 H 270.072 5.53241 2.60259 0
M  V30 2676 H 274.246 6.51091 2.47089 0
M  V30 2677 H 271.873 7.21678 2.38924 0
M  V30 2678 N 273.449 -1.08991 1.13837 0
M  V30 2679 C 274.379 -2.17771 0.842507 0
M  V30 2680 C 275.36 -1.6892 -0.20001 0
M  V30 2681 O 276.545 -1.94113 -0.0579731 0
M  V30 2682 C 273.675 -3.4589 0.312644 0
M  V30 2683 C 272.629 -4.08099 1.28992 0
M  V30 2684 C 271.955 -5.31098 0.619623 0
M  V30 2685 C 273.255 -4.50077 2.65005 0
M  V30 2686 H 274.949 -2.42777 1.75213 0
M  V30 2687 H 272.495 -1.16682 0.843875 0
M  V30 2688 H 274.448 -4.21297 0.0933043 0
M  V30 2689 H 273.172 -3.20419 -0.632382 0
M  V30 2690 H 271.831 -3.34717 1.49533 0
M  V30 2691 H 271.479 -5.0191 -0.33102 0
M  V30 2692 H 271.179 -5.73674 1.27167 0
M  V30 2693 H 272.703 -6.09224 0.409669 0
M  V30 2694 H 274.117 -5.16688 2.48407 0
M  V30 2695 H 272.514 -5.03553 3.26427 0
M  V30 2696 H 273.584 -3.62257 3.22332 0
M  V30 2697 N 274.927 -0.932562 -1.27047 0
M  V30 2698 C 275.89 -0.440064 -2.24936 0
M  V30 2699 C 276.89 0.444071 -1.54547 0
M  V30 2700 O 278.08 0.244465 -1.72476 0
M  V30 2701 C 275.212 0.36678 -3.38921 0
M  V30 2702 H 276.405 -1.305 -2.70018 0
M  V30 2703 H 273.958 -0.713707 -1.39054 0
M  V30 2704 H 274.693 1.25033 -2.99228 0
M  V30 2705 H 274.478 -0.267204 -3.91188 0
M  V30 2706 H 275.968 0.701567 -4.11665 0
M  V30 2707 N 276.405 1.4127 -0.698611 0
M  V30 2708 C 277.821 1.55241 -0.370462 0
M  V30 2709 C 278.021 1.67351 1.12231 0
M  V30 2710 O 277.077 1.65363 1.90818 0
M  V30 2711 C 278.39 2.78997 -1.12165 0
M  V30 2712 C 279.938 2.92797 -1.1063 0
M  V30 2713 C 280.413 4.19445 -1.8393 0
M  V30 2714 N 281.904 4.26409 -1.80914 0
M  V30 2715 C 282.639 5.23271 -2.34467 0
M  V30 2716 N 282.135 6.26145 -2.96504 0
M  V30 2717 N 283.928 5.15232 -2.24706 0
M  V30 2718 H 276.079 1.31654 -1.66676 0
M  V30 2719 H 278.342 0.635393 -0.703548 0
M  V30 2720 H 278.048 2.76268 -2.17644 0
M  V30 2721 H 277.922 3.70606 -0.702209 0
M  V30 2722 H 280.309 2.95039 -0.0597713 0
M  V30 2723 H 280.39 2.02353 -1.56483 0
M  V30 2724 H 280.034 4.17964 -2.88563 0
M  V30 2725 H 279.964 5.08866 -1.35509 0
M  V30 2726 H 282.455 3.527 -1.35687 0
M  V30 2727 H 282.768 6.96451 -3.34927 0
M  V30 2728 H 281.113 6.26638 -3.00583 0
M  V30 2729 H 284.304 4.33789 -1.7591 0
M  V30 2730 H 284.477 5.90552 -2.66745 0
M  V30 2731 N 277.883 0.443576 1.51229 0
M  V30 2732 C 279.299 0.0962001 1.5931 0
M  V30 2733 C 279.499 -1.39501 1.45402 0
M  V30 2734 O 278.555 -2.16557 1.29843 0
M  V30 2735 C 279.868 0.621875 2.94199 0
M  V30 2736 C 281.416 0.582865 3.07525 0
M  V30 2737 C 281.891 1.08562 4.44948 0
M  V30 2738 N 283.382 1.04387 4.51284 0
M  V30 2739 C 284.117 1.40368 5.55954 0
M  V30 2740 N 283.613 1.83664 6.68011 0
M  V30 2741 N 285.406 1.32145 5.46346 0
M  V30 2742 H 277.557 1.41376 1.58514 0
M  V30 2743 H 279.82 0.582965 0.747567 0
M  V30 2744 H 279.526 1.66546 3.09767 0
M  V30 2745 H 279.4 0.0502125 3.77167 0
M  V30 2746 H 281.787 -0.451749 2.91622 0
M  V30 2747 H 281.868 1.191 2.26382 0
M  V30 2748 H 281.512 2.11873 4.61598 0
M  V30 2749 H 281.442 0.453956 5.2464 0
M  V30 2750 H 283.933 0.725986 3.70861 0
M  V30 2751 H 284.246 2.0934 7.43906 0
M  V30 2752 H 282.591 1.87596 6.69203 0
M  V30 2753 H 285.782 0.981808 4.57688 0
M  V30 2754 H 285.955 1.60514 6.27805 0
M  V30 2755 N 279.361 -1.56624 0.175154 0
M  V30 2756 C 280.777 -1.58571 -0.180966 0
M  V30 2757 C 280.977 -1.19065 -1.6256 0
M  V30 2758 O 280.033 -0.904044 -2.35761 0
M  V30 2759 C 281.346 -3.00522 0.103326 0
M  V30 2760 C 282.894 -3.12972 0.0418426 0
M  V30 2761 C 283.369 -4.57022 0.299175 0
M  V30 2762 N 284.86 -4.62541 0.247086 0
M  V30 2763 C 285.595 -5.71857 0.420318 0
M  V30 2764 N 285.091 -6.89717 0.652816 0
M  V30 2765 N 286.884 -5.60972 0.355957 0
M  V30 2766 H 279.035 -1.80589 1.11809 0
M  V30 2767 H 281.298 -0.837178 0.444788 0
M  V30 2768 H 281.004 -3.33916 1.10422 0
M  V30 2769 H 280.878 -3.72344 -0.603299 0
M  V30 2770 H 283.265 -2.79403 -0.949636 0
M  V30 2771 H 283.346 -2.43578 0.781238 0
M  V30 2772 H 282.99 -4.913 1.28788 0
M  V30 2773 H 282.92 -5.24579 -0.460876 0
M  V30 2774 H 285.411 -3.77829 0.0731895 0
M  V30 2775 H 285.724 -7.68911 0.774347 0
M  V30 2776 H 284.069 -6.91572 0.689476 0
M  V30 2777 H 287.26 -4.67773 0.174882 0
M  V30 2778 H 287.433 -6.46111 0.494388 0
M  V30 2779 N 280.839 0.0985539 -1.57292 0
M  V30 2780 C 282.25 0.653457 -1.74891 0
M  V30 2781 C 282.601 1.7929 -0.796838 0
M  V30 2782 O 281.726 2.16385 0.0254886 0
M  V30 2783 C 282.321 1.19216 -3.17133 0
M  V30 2784 C 280.88 1.69316 -3.36168 0
M  V30 2785 C 280.027 0.601294 -2.70702 0
M  V30 2786 H 282.978 -0.127497 -1.58187 0
M  V30 2787 H 282.999 2.06154 -3.19814 0
M  V30 2788 H 282.511 0.362635 -3.86402 0
M  V30 2789 H 280.612 2.5468 -2.71972 0
M  V30 2790 H 280.725 1.78853 -4.44464 0
M  V30 2791 H 279.089 1.0399 -2.32504 0
M  V30 2792 H 279.872 -0.217592 -3.4261 0
M  V30 2793 N 282.317 1.53212 0.369288 0
M  V30 2794 C 283.227 1.82342 1.47609 0
M  V30 2795 C 284.243 0.711532 1.58787 0
M  V30 2796 O 285.419 1.0012 1.74751 0
M  V30 2797 C 282.484 2.00393 2.8292 0
M  V30 2798 C 281.545 3.24297 2.81301 0
M  V30 2799 C 280.778 3.41478 4.10157 0
M  V30 2800 O 281.001 2.63033 5.06132 0
M  V30 2801 O 279.935 4.34817 4.16194 0
M  V30 2802 H 283.761 2.76366 1.25918 0
M  V30 2803 H 281.346 1.38547 0.559034 0
M  V30 2804 H 283.228 2.13859 3.63101 0
M  V30 2805 H 281.903 1.09559 3.04596 0
M  V30 2806 H 280.81 3.16257 1.99831 0
M  V30 2807 H 282.143 4.15041 2.64578 0
M  V30 2808 N 283.795 -0.628877 1.44509 0
M  V30 2809 C 285.043 -1.38565 1.4712 0
M  V30 2810 C 285.364 -1.94712 0.105899 0
M  V30 2811 O 284.634 -1.75912 -0.862079 0
M  V30 2812 H 283.214 -0.514333 0.541729 0
M  V30 2813 H 285.876 -0.740018 1.80305 0
M  V30 2814 H 284.972 -2.21583 2.19789 0
M  V30 2815 N 285.273 -1.31445 -0.869486 0
M  V30 2816 C 286.521 -1.20918 -1.61936 0
M  V30 2817 C 286.842 0.232683 -1.93607 0
M  V30 2818 O 286.112 1.15352 -1.58338 0
M  V30 2819 H 284.692 -0.44454 -0.600328 0
M  V30 2820 H 287.354 -1.64776 -1.0409 0
M  V30 2821 H 286.45 -1.78124 -2.56278 0
M  V30 2822 N 286.751 1.08385 -1.14413 0
M  V30 2823 C 287.999 1.80419 -0.910679 0
M  V30 2824 C 288.32 1.86658 0.564243 0
M  V30 2825 O 287.59 1.35985 1.41014 0
M  V30 2826 H 286.17 0.668204 -0.333934 0
M  V30 2827 H 288.832 1.31037 -1.44275 0
M  V30 2828 H 287.928 2.83238 -1.31082 0
M  V30 2829 N 288.23 0.939286 1.26551 0
M  V30 2830 C 289.478 0.58469 1.93457 0
M  V30 2831 C 289.799 -0.878774 1.74076 0
M  V30 2832 O 289.069 -1.62421 1.09528 0
M  V30 2833 H 287.649 0.21325 0.715914 0
M  V30 2834 H 290.311 1.1942 1.54029 0
M  V30 2835 H 289.407 0.800849 3.0165 0
M  V30 2836 N 289.708 -1.40897 0.706093 0
M  V30 2837 C 290.933 -2.05895 0.249435 0
M  V30 2838 C 291.358 -1.52823 -1.09666 0
M  V30 2839 O 290.716 -0.659589 -1.68876 0
M  V30 2840 C 290.764 -3.59872 0.22904 0
M  V30 2841 O 289.868 -4.04708 -0.792784 0
M  V30 2842 H 289.209 -0.653206 0.119241 0
M  V30 2843 H 291.739 -1.80471 0.96391 0
M  V30 2844 H 291.749 -4.07951 0.0634791 0
M  V30 2845 H 290.424 -3.97866 1.21141 0
M  V30 2846 H 289.001 -3.68111 -0.59572 0
M  V30 2847 N 291.186 -0.45159 -1.50991 0
M  V30 2848 C 292.149 0.341117 -2.26647 0
M  V30 2849 C 293.149 0.937422 -1.30649 0
M  V30 2850 O 294.339 0.809644 -1.54241 0
M  V30 2851 C 291.471 1.48398 -3.06905 0
M  V30 2852 H 292.664 -0.322117 -2.98165 0
M  V30 2853 H 290.217 -0.205122 -1.54948 0
M  V30 2854 H 290.952 2.18284 -2.39838 0
M  V30 2855 H 290.737 1.06241 -3.77432 0
M  V30 2856 H 292.227 2.04367 -3.64176 0
M  V30 2857 N 292.664 1.56529 -0.183458 0
M  V30 2858 C 294.08 1.58664 0.172554 0
M  V30 2859 C 294.28 1.19925 1.61926 0
M  V30 2860 O 293.336 0.916534 2.35278 0
M  V30 2861 C 294.649 3.00463 -0.119262 0
M  V30 2862 C 296.197 3.12945 -0.0584396 0
M  V30 2863 C 296.672 4.56857 -0.323408 0
M  V30 2864 N 298.163 4.62403 -0.271612 0
M  V30 2865 C 298.898 5.71626 -0.450639 0
M  V30 2866 N 298.394 6.89362 -0.689384 0
M  V30 2867 N 300.187 5.60775 -0.385701 0
M  V30 2868 H 292.338 1.79994 -1.12765 0
M  V30 2869 H 294.601 0.834808 -0.449222 0
M  V30 2870 H 294.307 3.33326 -1.12192 0
M  V30 2871 H 294.181 3.72659 0.583544 0
M  V30 2872 H 296.568 2.79902 0.934805 0
M  V30 2873 H 296.649 2.4316 -0.794144 0
M  V30 2874 H 296.293 4.9061 -1.31392 0
M  V30 2875 H 296.223 5.24816 0.43305 0
M  V30 2876 H 298.714 3.77785 -0.0932256 0
M  V30 2877 H 299.027 7.68489 -0.815113 0
M  V30 2878 H 297.372 6.91196 -0.726142 0
M  V30 2879 H 300.563 4.67674 -0.199687 0
M  V30 2880 H 300.736 6.4584 -0.528646 0
M  V30 2881 N 294.142 -0.090211 1.57342 0
M  V30 2882 C 295.553 -0.644173 1.75235 0
M  V30 2883 C 295.904 -1.78865 0.806335 0
M  V30 2884 O 295.029 -2.16395 -0.0140128 0
M  V30 2885 C 295.624 -1.17532 3.1776 0
M  V30 2886 C 294.183 -1.67531 3.37061 0
M  V30 2887 C 293.33 -0.58693 2.71017 0
M  V30 2888 H 296.281 0.135884 1.58117 0
M  V30 2889 H 296.302 -2.04455 3.20902 0
M  V30 2890 H 295.814 -0.342138 3.86589 0
M  V30 2891 H 293.915 -2.53234 2.73319 0
M  V30 2892 H 294.028 -1.76493 4.45406 0
M  V30 2893 H 292.392 -1.02756 2.33052 0
M  V30 2894 H 293.175 0.235758 3.4249 0
M  V30 2895 N 295.62 -1.53406 -0.361157 0
M  V30 2896 C 297.036 -1.43277 -0.703124 0
M  V30 2897 C 297.236 -0.575384 -1.9311 0
M  V30 2898 O 296.292 -0.0595362 -2.5243 0
M  V30 2899 C 297.605 -2.8653 -0.9122 0
M  V30 2900 C 299.153 -2.96191 -1.01193 0
M  V30 2901 C 299.628 -4.40514 -1.25345 0
M  V30 2902 N 301.119 -4.43962 -1.32105 0
M  V30 2903 C 301.854 -5.52746 -1.5251 0
M  V30 2904 N 301.35 -6.71567 -1.70203 0
M  V30 2905 N 303.143 -5.40331 -1.54916 0
M  V30 2906 H 295.294 -2.07654 0.446475 0
M  V30 2907 H 297.557 -0.937944 0.137715 0
M  V30 2908 H 297.263 -3.51605 -0.0816414 0
M  V30 2909 H 297.137 -3.30441 -1.81903 0
M  V30 2910 H 299.524 -2.31266 -1.83303 0
M  V30 2911 H 299.605 -2.55667 -0.0823929 0
M  V30 2912 H 299.249 -5.06014 -0.437346 0
M  V30 2913 H 299.179 -4.78614 -2.19627 0
M  V30 2914 H 301.67 -3.58332 -1.20028 0
M  V30 2915 H 301.983 -7.50241 -1.85359 0
M  V30 2916 H 300.328 -6.74545 -1.67373 0
M  V30 2917 H 303.519 -4.46465 -1.40663 0
M  V30 2918 H 303.692 -6.25173 -1.70477 0
M  V30 2919 N 297.098 0.621204 -1.44841 0
M  V30 2920 C 298.328 1.40548 -1.51426 0
M  V30 2921 C 298.736 1.88673 -0.141083 0
M  V30 2922 O 298.079 1.62053 0.865128 0
M  V30 2923 C 298.141 2.65325 -2.42576 0
M  V30 2924 C 297.805 2.3893 -3.89566 0
M  V30 2925 C 298.802 2.00138 -4.79834 0
M  V30 2926 C 296.487 2.52263 -4.3436 0
M  V30 2927 C 298.481 1.75021 -6.129 0
M  V30 2928 C 296.168 2.2676 -5.67471 0
M  V30 2929 C 297.166 1.88199 -6.56559 0
M  V30 2930 O 296.854 1.62986 -7.87204 0
M  V30 2931 H 296.586 0.437122 -0.515655 0
M  V30 2932 H 299.14 0.765987 -1.90583 0
M  V30 2933 H 297.37 3.31947 -1.98364 0
M  V30 2934 H 299.059 3.27347 -2.39998 0
M  V30 2935 H 299.825 1.89386 -4.46495 0
M  V30 2936 H 295.704 2.81246 -3.65269 0
M  V30 2937 H 299.248 1.44848 -6.82396 0
M  V30 2938 H 295.145 2.37125 -6.00368 0
M  V30 2939 H 295.913 1.7715 -7.991 0
M  V30 2940 N 298.576 1.31904 0.862503 0
M  V30 2941 C 299.801 1.25135 1.65397 0
M  V30 2942 C 300.226 -0.179 1.87246 0
M  V30 2943 O 299.584 -1.1277 1.4196 0
M  V30 2944 C 299.632 2.00832 2.99498 0
M  V30 2945 O 298.736 1.35075 3.89652 0
M  V30 2946 H 298.077 0.431655 0.504549 0
M  V30 2947 H 300.607 1.74094 1.07483 0
M  V30 2948 H 300.617 2.10709 3.49379 0
M  V30 2949 H 299.292 3.04847 2.82916 0
M  V30 2950 H 297.869 1.33696 3.48109 0
M  V30 2951 N 300.054 -1.07777 1.14986 0
M  V30 2952 C 300.984 -2.16865 0.865557 0
M  V30 2953 C 301.965 -1.69123 -0.182083 0
M  V30 2954 O 303.15 -1.94164 -0.0373815 0
M  V30 2955 C 300.28 -3.45539 0.349313 0
M  V30 2956 C 299.234 -4.06708 1.33313 0
M  V30 2957 C 298.56 -5.30411 0.675918 0
M  V30 2958 C 299.86 -4.47241 2.69764 0
M  V30 2959 H 301.554 -2.40905 1.77778 0
M  V30 2960 H 299.1 -1.15781 0.856203 0
M  V30 2961 H 301.053 -4.21174 0.137983 0
M  V30 2962 H 299.777 -3.21072 -0.598362 0
M  V30 2963 H 298.436 -3.33112 1.53075 0
M  V30 2964 H 298.084 -5.02232 -0.277767 0
M  V30 2965 H 297.784 -5.72293 1.33244 0
M  V30 2966 H 299.308 -6.08755 0.474262 0
M  V30 2967 H 300.722 -5.14025 2.53873 0
M  V30 2968 H 299.119 -5.00062 3.3175 0
M  V30 2969 H 300.189 -3.58818 3.26156 0
M  V30 2970 N 301.532 -0.945985 -1.26051 0
M  V30 2971 C 302.462 -0.477172 -2.28572 0
M  V30 2972 C 303.443 0.472032 -1.63419 0
M  V30 2973 O 304.628 0.372853 -1.90587 0
M  V30 2974 C 301.758 0.253975 -3.4637 0
M  V30 2975 C 300.712 -0.609135 -4.23643 0
M  V30 2976 C 300.038 0.252252 -5.34105 0
M  V30 2977 C 301.338 -1.8829 -4.8718 0
M  V30 2978 H 303.032 -1.33402 -2.68038 0
M  V30 2979 H 300.578 -0.642904 -1.28852 0
M  V30 2980 H 302.531 0.593016 -4.17207 0
M  V30 2981 H 301.255 1.145 -3.05871 0
M  V30 2982 H 299.914 -0.931138 -3.54578 0
M  V30 2983 H 299.562 1.14278 -4.89846 0
M  V30 2984 H 299.262 -0.32188 -5.86718 0
M  V30 2985 H 300.786 0.586454 -6.07777 0
M  V30 2986 H 302.2 -1.61081 -5.50205 0
M  V30 2987 H 300.597 -2.40199 -5.49931 0
M  V30 2988 H 301.667 -2.59134 -4.09851 0
M  V30 2989 N 303.011 1.40521 -0.713556 0
M  V30 2990 C 303.974 2.29098 -0.0684347 0
M  V30 2991 C 304.974 1.45268 0.689472 0
M  V30 2992 O 306.164 1.66205 0.521677 0
M  V30 2993 C 303.296 3.28446 0.913024 0
M  V30 2994 H 304.489 2.87645 -0.84855 0
M  V30 2995 H 302.042 1.48809 -0.47809 0
M  V30 2996 H 302.777 2.74913 1.72027 0
M  V30 2997 H 302.562 3.90327 0.372472 0
M  V30 2998 H 304.052 3.94777 1.36165 0
M  V30 2999 N 304.489 0.459591 1.5075 0
M  V30 3000 C 305.399 -0.34613 2.32033 0
M  V30 3001 C 306.415 -1.00686 1.41909 0
M  V30 3002 O 307.591 -0.997361 1.7497 0
M  V30 3003 C 304.656 -1.42029 3.16273 0
M  V30 3004 C 303.717 -0.777362 4.22203 0
M  V30 3005 C 302.95 -1.80034 5.02418 0
M  V30 3006 O 303.173 -3.02544 4.83553 0
M  V30 3007 O 302.107 -1.37853 5.85901 0
M  V30 3008 H 305.933 0.318054 3.0203 0
M  V30 3009 H 303.518 0.221663 1.47746 0
M  V30 3010 H 305.4 -2.04275 3.68578 0
M  V30 3011 H 304.075 -2.06815 2.49016 0
M  V30 3012 H 302.982 -0.116256 3.73919 0
M  V30 3013 H 304.315 -0.172634 4.91897 0
M  V30 3014 N 305.967 -1.56429 0.191757 0
M  V30 3015 C 307.216 -1.9666 -0.448088 0
M  V30 3016 C 307.529 -1.08136 -1.62991 0
M  V30 3017 O 308.735 -1.38135 -2.33733 0
M  V30 3018 C 307.191 -3.49753 -0.848585 0
M  V30 3019 C 306.799 -4.46935 0.308764 0
M  V30 3020 C 308.543 -3.9876 -1.4557 0
M  V30 3021 C 306.45 -5.91293 -0.112506 0
M  V30 3022 H 305.38 -0.734312 -0.171179 0
M  V30 3023 H 308.031 -1.81301 0.283242 0
M  V30 3024 H 306.413 -3.60604 -1.63649 0
M  V30 3025 H 307.587 -4.47813 1.08627 0
M  V30 3026 H 305.902 -4.08102 0.827158 0
M  V30 3027 H 308.499 -5.04086 -1.78328 0
M  V30 3028 H 308.842 -3.42875 -2.36099 0
M  V30 3029 H 309.375 -3.9101 -0.731836 0
M  V30 3030 H 306.114 -6.51097 0.758514 0
M  V30 3031 H 305.634 -5.93676 -0.854941 0
M  V30 3032 H 307.313 -6.44663 -0.549448 0
M  V30 3033 N 307.445 0.0818655 -1.57387 0
M  V30 3034 C 308.693 0.781368 -1.86384 0
M  V30 3035 C 309.014 1.78618 -0.782342 0
M  V30 3036 O 308.284 1.94976 0.190061 0
M  V30 3037 H 306.864 0.291562 -0.687751 0
M  V30 3038 H 309.526 0.060348 -1.94807 0
M  V30 3039 H 308.622 1.3038 -2.83562 0
M  V30 3040 N 308.923 1.53595 0.353017 0
M  V30 3041 C 310.339 1.43648 0.695516 0
M  V30 3042 C 310.539 0.585617 1.92802 0
M  V30 3043 O 309.595 0.0729223 2.52395 0
M  V30 3044 C 310.908 2.8701 0.896991 0
M  V30 3045 C 312.456 2.96723 0.996209 0
M  V30 3046 C 312.931 4.41173 1.23007 0
M  V30 3047 N 314.422 4.44657 1.29749 0
M  V30 3048 C 315.157 5.53547 1.49577 0
M  V30 3049 N 314.653 6.72461 1.66639 0
M  V30 3050 N 316.446 5.41145 1.52048 0
M  V30 3051 H 308.597 2.07415 -0.457481 0
M  V30 3052 H 310.86 0.9372 -0.142687 0
M  V30 3053 H 310.566 3.51644 0.0629938 0
M  V30 3054 H 310.44 3.31401 1.80148 0
M  V30 3055 H 312.827 2.32235 1.82074 0
M  V30 3056 H 312.908 2.55707 0.0688331 0
M  V30 3057 H 312.552 5.06238 0.410505 0
M  V30 3058 H 312.482 4.79772 2.17086 0
M  V30 3059 H 314.973 3.58963 1.18126 0
M  V30 3060 H 315.286 7.51214 1.81378 0
M  V30 3061 H 313.631 6.75423 1.63794 0
M  V30 3062 H 316.822 4.47205 1.38294 0
M  V30 3063 H 316.995 6.26068 1.67159 0
M  V30 3064 N 310.401 -0.613514 1.45168 0
M  V30 3065 C 311.649 -1.36997 1.48581 0
M  V30 3066 C 311.97 -1.94589 0.126545 0
M  V30 3067 O 311.24 -1.76816 -0.843372 0
M  V30 3068 H 309.82 -0.508558 0.547154 0
M  V30 3069 H 312.482 -0.720853 1.81079 0
M  V30 3070 H 311.578 -2.1924 2.22127 0
M  V30 3071 N 311.879 -1.3236 -0.855495 0
M  V30 3072 C 313.104 -1.2601 -1.64731 0
M  V30 3073 C 313.529 0.169068 -1.87339 0
M  V30 3074 O 312.887 1.12016 -1.42556 0
M  V30 3075 C 312.935 -2.02417 -2.98429 0
M  V30 3076 O 312.039 -1.3714 -3.8893 0
M  V30 3077 H 311.38 -0.434325 -0.502253 0
M  V30 3078 H 313.91 -1.74661 -1.06558 0
M  V30 3079 H 313.92 -2.12559 -3.48257 0
M  V30 3080 H 312.595 -3.06343 -2.81295 0
M  V30 3081 H 311.172 -1.3554 -3.47395 0
M  V30 3082 N 313.357 1.07166 -1.15556 0
M  V30 3083 C 314.587 1.83248 -0.954133 0
M  V30 3084 C 314.995 1.82449 0.500911 0
M  V30 3085 O 314.338 1.23575 1.35923 0
M  V30 3086 C 314.4 3.31393 -1.39351 0
M  V30 3087 C 314.064 3.5591 -2.86666 0
M  V30 3088 C 315.061 3.49695 -3.8472 0
M  V30 3089 C 312.746 3.83515 -3.24379 0
M  V30 3090 C 314.74 3.70737 -5.18491 0
M  V30 3091 C 312.427 4.04209 -4.58321 0
M  V30 3092 C 313.425 3.97815 -5.55186 0
M  V30 3093 O 313.113 4.17954 -6.86709 0
M  V30 3094 H 312.845 0.584941 -0.338851 0
M  V30 3095 H 315.399 1.36169 -1.53777 0
M  V30 3096 H 313.629 3.79292 -0.75329 0
M  V30 3097 H 315.318 3.88945 -1.16089 0
M  V30 3098 H 316.084 3.28368 -3.56931 0
M  V30 3099 H 311.963 3.87605 -2.49567 0
M  V30 3100 H 315.507 3.65663 -5.94085 0
M  V30 3101 H 311.404 4.25023 -4.85825 0
M  V30 3102 H 312.172 4.35291 -6.93155 0
M  V30 3103 N 314.835 0.952656 1.25548 0
M  V30 3104 C 316.083 0.605176 1.92826 0
M  V30 3105 C 316.404 -0.860261 1.74999 0
M  V30 3106 O 315.674 -1.6125 1.11244 0
M  V30 3107 H 314.254 0.220832 0.713612 0
M  V30 3108 H 316.916 1.21047 1.52754 0
M  V30 3109 H 316.012 0.832798 3.00784 0
M  V30 3110 N 316.313 -1.40141 0.720998 0
M  V30 3111 C 317.559 -2.01084 0.263231 0
M  V30 3112 C 317.892 -1.57052 -1.14229 0
M  V30 3113 O 317.167 -0.793027 -1.77599 0
M  V30 3114 C 317.45 -3.58401 0.349344 0
M  V30 3115 C 317.303 -4.12491 1.79363 0
M  V30 3116 C 318.622 -4.39231 -0.276351 0
M  V30 3117 H 315.741 -0.730572 0.0971228 0
M  V30 3118 H 318.383 -1.66543 0.914518 0
M  V30 3119 H 316.533 -3.87958 -0.205165 0
M  V30 3120 H 318.205 -3.93711 2.40394 0
M  V30 3121 H 316.448 -3.66576 2.31958 0
M  V30 3122 H 317.119 -5.21646 1.80524 0
M  V30 3123 H 319.595 -4.15637 0.196184 0
M  V30 3124 H 318.471 -5.48586 -0.185681 0
M  V30 3125 H 318.732 -4.20643 -1.36059 0
M  V30 3126 N 317.792 -0.46758 -1.50504 0
M  V30 3127 C 319.038 0.0887532 -2.02606 0
M  V30 3128 C 319.371 1.39686 -1.34913 0
M  V30 3129 O 318.646 1.88644 -0.473694 0
M  V30 3130 C 318.929 0.276206 -3.59039 0
M  V30 3131 C 318.782 -1.05267 -4.37309 0
M  V30 3132 C 320.101 1.03235 -4.27821 0
M  V30 3133 H 317.22 0.0307814 -0.736357 0
M  V30 3134 H 319.862 -0.612485 -1.79857 0
M  V30 3135 H 318.012 0.8735 -3.78553 0
M  V30 3136 H 319.684 -1.68628 -4.29374 0
M  V30 3137 H 317.927 -1.65015 -4.01189 0
M  V30 3138 H 318.598 -0.875197 -5.45018 0
M  V30 3139 H 321.074 0.526111 -4.12761 0
M  V30 3140 H 319.95 1.1323 -5.37094 0
M  V30 3141 H 320.211 2.06806 -3.90748 0
M  V30 3142 N 319.27 1.56325 -0.20005 0
M  V30 3143 C 320.5 2.01811 0.442232 0
M  V30 3144 C 320.908 1.07932 1.55394 0
M  V30 3145 O 320.251 0.0772685 1.83537 0
M  V30 3146 C 320.313 3.43685 1.05457 0
M  V30 3147 C 319.977 4.56928 0.0809833 0
M  V30 3148 C 320.974 5.15009 -0.711471 0
M  V30 3149 C 318.659 5.0229 -0.0315364 0
M  V30 3150 C 320.653 6.16904 -1.60336 0
M  V30 3151 C 318.34 6.04028 -0.926981 0
M  V30 3152 C 319.338 6.6121 -1.71146 0
M  V30 3153 O 319.026 7.60971 -2.59189 0
M  V30 3154 H 318.758 0.666173 0.114848 0
M  V30 3155 H 321.312 2.03085 -0.307511 0
M  V30 3156 H 319.542 3.39413 1.85299 0
M  V30 3157 H 321.231 3.72948 1.60201 0
M  V30 3158 H 321.997 4.80827 -0.634873 0
M  V30 3159 H 317.876 4.57476 0.568902 0
M  V30 3160 H 321.42 6.61464 -2.21611 0
M  V30 3161 H 317.317 6.37634 -1.00468 0
M  V30 3162 H 318.085 7.7841 -2.53023 0
M  V30 3163 N 320.748 -0.0735177 1.57428 0
M  V30 3164 C 321.658 -1.10547 2.06922 0
M  V30 3165 C 322.674 -1.42506 0.998402 0
M  V30 3166 O 323.85 -1.52717 1.31299 0
M  V30 3167 C 320.915 -2.40019 2.50184 0
M  V30 3168 C 319.976 -2.15046 3.71556 0
M  V30 3169 C 319.209 -3.38345 4.12745 0
M  V30 3170 O 319.432 -4.47399 3.53822 0
M  V30 3171 O 318.366 -3.2666 5.05546 0
M  V30 3172 H 322.192 -0.715013 2.95163 0
M  V30 3173 H 319.777 -0.287531 1.46607 0
M  V30 3174 H 321.659 -3.16218 2.78539 0
M  V30 3175 H 320.334 -2.78447 1.65072 0
M  V30 3176 H 319.241 -1.36558 3.48285 0
M  V30 3177 H 320.574 -1.81499 4.57514 0
M  V30 3178 N 322.226 -1.5378 -0.344866 0
M  V30 3179 C 323.189 -1.80981 -1.40637 0
M  V30 3180 C 324.189 -0.680816 -1.45676 0
M  V30 3181 O 325.379 -0.949095 -1.46075 0
M  V30 3182 C 322.511 -1.95063 -2.79577 0
M  V30 3183 H 323.704 -2.75803 -1.17783 0
M  V30 3184 H 321.257 -1.45173 -0.579181 0
M  V30 3185 H 321.992 -1.02379 -3.07716 0
M  V30 3186 H 321.777 -2.77198 -2.77315 0
M  V30 3187 H 323.267 -2.17629 -3.56409 0
M  V30 3188 N 323.704 0.605807 -1.45491 0
M  V30 3189 C 324.95 1.36679 -1.49823 0
M  V30 3190 C 325.283 1.93693 -0.140175 0
M  V30 3191 O 324.558 1.75158 0.845581 0
M  V30 3192 C 324.841 2.51337 -2.57879 0
M  V30 3193 C 324.694 1.99508 -4.03134 0
M  V30 3194 C 326.013 3.53463 -2.62205 0
M  V30 3195 H 323.132 0.495617 -0.545466 0
M  V30 3196 H 325.774 0.682732 -1.7731 0
M  V30 3197 H 323.924 3.09691 -2.34571 0
M  V30 3198 H 325.596 1.45789 -4.37656 0
M  V30 3199 H 323.839 1.30496 -4.13707 0
M  V30 3200 H 324.51 2.82169 -4.74431 0
M  V30 3201 H 326.986 3.04953 -2.83095 0
M  V30 3202 H 325.862 4.31178 -3.39672 0
M  V30 3203 H 326.123 4.09197 -1.67363 0
M  V30 3204 N 325.182 1.32811 0.848464 0
M  V30 3205 C 326.145 1.22194 1.9391 0
M  V30 3206 C 327.145 0.143404 1.60159 0
M  V30 3207 O 328.335 0.394253 1.6968 0
M  V30 3208 C 325.467 0.88067 3.29328 0
M  V30 3209 H 326.66 2.19127 2.04752 0
M  V30 3210 H 324.213 1.16731 1.0394 0
M  V30 3211 H 324.948 -0.0865776 3.24184 0
M  V30 3212 H 324.733 1.66052 3.55203 0
M  V30 3213 H 326.223 0.830871 4.09251 0
M  V30 3214 N 326.66 -1.06551 1.16123 0
M  V30 3215 C 327.908 -1.78947 0.939267 0
M  V30 3216 C 328.229 -1.87532 -0.534476 0
M  V30 3217 O 327.499 -1.38211 -1.38833 0
M  V30 3218 H 326.079 -0.662807 0.344523 0
M  V30 3219 H 328.741 -1.28725 1.46342 0
M  V30 3220 H 327.837 -2.81117 1.35572 0
M  V30 3221 N 328.138 -0.959301 -1.25041 0
M  V30 3222 C 329.554 -0.664474 -1.4511 0
M  V30 3223 C 329.754 0.776481 -1.85938 0
M  V30 3224 O 328.81 1.55128 -1.99227 0
M  V30 3225 C 330.123 -1.64139 -2.5195 0
M  V30 3226 C 331.671 -1.65309 -2.65786 0
M  V30 3227 C 332.146 -2.61777 -3.75815 0
M  V30 3228 N 333.637 -2.60169 -3.83231 0
M  V30 3229 C 334.372 -3.31489 -4.6787 0
M  V30 3230 N 333.868 -4.12298 -5.56761 0
M  V30 3231 N 335.661 -3.20354 -4.61876 0
M  V30 3232 H 327.812 -1.89043 -0.968332 0
M  V30 3233 H 330.075 -0.813408 -0.4869 0
M  V30 3234 H 329.781 -2.67086 -2.28819 0
M  V30 3235 H 329.655 -1.40756 -3.49954 0
M  V30 3236 H 332.042 -0.630778 -2.8828 0
M  V30 3237 H 332.123 -1.92753 -1.68167 0
M  V30 3238 H 331.767 -3.64137 -3.54071 0
M  V30 3239 H 331.697 -2.31616 -4.72929 0
M  V30 3240 H 334.188 -2.01507 -3.19692 0
M  V30 3241 H 334.501 -4.63625 -6.18281 0
M  V30 3242 H 332.846 -4.16395 -5.56454 0
M  V30 3243 H 336.037 -2.56692 -3.91442 0
M  V30 3244 H 336.21 -3.76201 -5.27614 0
M  V30 3245 N 329.616 1.39756 -0.72842 0
M  V30 3246 C 330.841 2.05472 -0.282159 0
M  V30 3247 C 331.266 1.54549 1.07221 0
M  V30 3248 O 330.624 0.686372 1.67805 0
M  V30 3249 C 330.672 3.59462 -0.286264 0
M  V30 3250 O 329.776 4.05918 0.728298 0
M  V30 3251 H 329.117 0.651226 -0.129618 0
M  V30 3252 H 331.647 1.78915 -0.992499 0
M  V30 3253 H 331.657 4.07798 -0.128373 0
M  V30 3254 H 330.332 3.95889 -1.27456 0
M  V30 3255 H 328.909 3.69012 0.537081 0
M  V30 3256 N 331.094 0.475555 1.50254 0
M  V30 3257 C 332.342 -0.077738 2.0195 0
M  V30 3258 C 332.663 -1.39813 1.35931 0
M  V30 3259 O 331.933 -1.89249 0.506123 0
M  V30 3260 H 330.513 -0.031719 0.746326 0
M  V30 3261 H 333.175 0.626995 1.84539 0
M  V30 3262 H 332.271 -0.225995 3.11281 0
M  V30 3263 N 332.573 -1.56217 0.208337 0
M  V30 3264 C 333.536 -2.18455 -0.693557 0
M  V30 3265 C 334.536 -1.14268 -1.13135 0
M  V30 3266 O 335.726 -1.39577 -1.0423 0
M  V30 3267 C 332.858 -2.79727 -1.94848 0
M  V30 3268 H 334.051 -2.99519 -0.15114 0
M  V30 3269 H 331.604 -1.56245 -0.041287 0
M  V30 3270 H 332.339 -2.02497 -2.53309 0
M  V30 3271 H 332.124 -3.56009 -1.64316 0
M  V30 3272 H 333.614 -3.27475 -2.59133 0
M  V30 3273 N 334.051 0.0651679 -1.57465 0
M  V30 3274 C 335.467 0.420105 -1.53972 0
M  V30 3275 C 335.667 1.78782 -0.929474 0
M  V30 3276 O 334.723 2.46771 -0.534839 0
M  V30 3277 C 336.036 0.355084 -2.98596 0
M  V30 3278 C 337.584 0.434792 -3.09965 0
M  V30 3279 C 338.059 0.399609 -4.56253 0
M  V30 3280 N 339.55 0.459488 -4.60915 0
M  V30 3281 C 340.285 0.454584 -5.71595 0
M  V30 3282 N 339.781 0.404102 -6.9162 0
M  V30 3283 N 341.574 0.501635 -5.59857 0
M  V30 3284 H 333.725 -0.830328 -1.95498 0
M  V30 3285 H 335.988 -0.312244 -0.895102 0
M  V30 3286 H 335.694 -0.583357 -3.46828 0
M  V30 3287 H 335.568 1.16275 -3.58831 0
M  V30 3288 H 337.955 1.36366 -2.61703 0
M  V30 3289 H 338.036 -0.40157 -2.52628 0
M  V30 3290 H 337.68 -0.525436 -5.05175 0
M  V30 3291 H 337.61 1.25359 -5.11461 0
M  V30 3292 H 340.101 0.502482 -3.74544 0
M  V30 3293 H 340.414 0.404468 -7.71741 0
M  V30 3294 H 338.759 0.37069 -6.94011 0
M  V30 3295 H 341.95 0.538812 -4.64989 0
M  V30 3296 H 342.123 0.494345 -6.46112 0
M  V30 3297 N 335.529 1.53961 0.336706 0
M  V30 3298 C 336.775 1.7179 1.07777 0
M  V30 3299 C 337.108 0.483263 1.88091 0
M  V30 3300 O 336.383 -0.519747 1.87427 0
M  V30 3301 C 336.666 2.98558 2.01334 0
M  V30 3302 C 336.519 4.32245 1.24437 0
M  V30 3303 C 337.838 3.21023 3.01052 0
M  V30 3304 H 334.957 0.625089 0.390426 0
M  V30 3305 H 337.599 1.86641 0.35567 0
M  V30 3306 H 335.749 2.86028 2.62908 0
M  V30 3307 H 337.421 4.56637 0.654243 0
M  V30 3308 H 335.664 4.30344 0.546458 0
M  V30 3309 H 336.335 5.17137 1.93063 0
M  V30 3310 H 338.811 3.32929 2.49595 0
M  V30 3311 H 337.687 4.11104 3.6371 0
M  V30 3312 H 337.948 2.37637 3.72802 0
M  V30 3313 N 337.007 -0.598083 1.45811 0
M  V30 3314 C 337.97 -1.69018 1.54808 0
M  V30 3315 C 338.97 -1.55037 0.426652 0
M  V30 3316 O 340.16 -1.59932 0.690456 0
M  V30 3317 C 337.292 -3.0835 1.45371 0
M  V30 3318 H 338.485 -1.62403 2.52121 0
M  V30 3319 H 336.038 -0.814626 1.33392 0
M  V30 3320 H 336.773 -3.20534 0.492793 0
M  V30 3321 H 336.558 -3.19907 2.26721 0
M  V30 3322 H 338.048 -3.8788 1.54721 0
M  V30 3323 N 338.485 -1.33259 -0.841409 0
M  V30 3324 C 339.731 -1.24757 -1.59886 0
M  V30 3325 C 340.064 0.186913 -1.93298 0
M  V30 3326 O 339.339 1.12757 -1.5848 0
M  V30 3327 C 339.622 -2.12036 -2.91055 0
M  V30 3328 C 339.475 -3.63929 -2.6434 0
M  V30 3329 C 340.794 -1.9916 -3.92458 0
M  V30 3330 H 337.913 -0.454542 -0.580138 0
M  V30 3331 H 340.555 -1.63335 -0.970647 0
M  V30 3332 H 338.705 -1.79265 -3.44669 0
M  V30 3333 H 340.377 -4.06978 -2.17178 0
M  V30 3334 H 338.62 -3.85935 -1.98082 0
M  V30 3335 H 339.291 -4.20341 -3.57796 0
M  V30 3336 H 341.767 -2.27895 -3.48143 0
M  V30 3337 H 340.643 -2.62484 -4.82072 0
M  V30 3338 H 340.904 -0.963082 -4.31482 0
M  V30 3339 N 339.963 1.05934 -1.16686 0
M  V30 3340 C 340.91 2.13499 -0.876748 0
M  V30 3341 C 341.88 1.65162 0.176299 0
M  V30 3342 O 343.065 1.90757 0.0407143 0
M  V30 3343 C 340.205 3.42912 -0.387967 0
M  V30 3344 C 339.318 4.04964 -1.50426 0
M  V30 3345 C 338.453 5.22266 -0.970125 0
M  V30 3346 C 337.492 5.76309 -2.06238 0
M  V30 3347 N 336.629 6.84922 -1.54356 0
M  V30 3348 H 341.469 2.37654 -1.7979 0
M  V30 3349 H 339.006 1.16598 -0.896843 0
M  V30 3350 H 340.964 4.17111 -0.086186 0
M  V30 3351 H 339.594 3.18963 0.496235 0
M  V30 3352 H 338.646 3.28277 -1.92193 0
M  V30 3353 H 339.958 4.41122 -2.32836 0
M  V30 3354 H 339.112 6.03506 -0.621743 0
M  V30 3355 H 337.851 4.87564 -0.115377 0
M  V30 3356 H 336.856 4.93704 -2.41942 0
M  V30 3357 H 338.081 6.13062 -2.92115 0
M  V30 3358 H 336.027 6.52131 -0.711406 0
M  V30 3359 H 335.944 7.20043 -2.30379 0
M  V30 3360 H 337.212 7.69832 -1.22387 0
M  V30 3361 N 341.441 0.965919 1.2453 0
M  V30 3362 C 342.388 0.49402 2.25451 0
M  V30 3363 C 343.358 -0.45948 1.59618 0
M  V30 3364 O 344.543 -0.370238 1.87173 0
M  V30 3365 C 341.683 -0.211359 3.44452 0
M  V30 3366 C 340.796 0.7807 4.24887 0
M  V30 3367 C 339.931 0.0516105 5.31175 0
M  V30 3368 C 338.97 1.03385 6.03306 0
M  V30 3369 N 338.107 0.334887 7.01301 0
M  V30 3370 H 342.947 1.35946 2.65184 0
M  V30 3371 H 340.484 0.681515 1.3036 0
M  V30 3372 H 342.442 -0.637 4.12308 0
M  V30 3373 H 341.072 -1.04077 3.05562 0
M  V30 3374 H 340.124 1.32479 3.56586 0
M  V30 3375 H 341.436 1.52978 4.74762 0
M  V30 3376 H 340.59 -0.432114 6.05159 0
M  V30 3377 H 339.329 -0.730179 4.82203 0
M  V30 3378 H 338.334 1.52847 5.28127 0
M  V30 3379 H 339.559 1.81606 6.54367 0
M  V30 3380 H 337.505 -0.427959 6.54603 0
M  V30 3381 H 337.422 1.02287 7.49048 0
M  V30 3382 H 338.69 -0.126928 7.79397 0
M  V30 3383 N 342.919 -1.39368 0.735821 0
M  V30 3384 C 344.168 -1.99733 0.281004 0
M  V30 3385 C 344.481 -1.59055 -1.13846 0
M  V30 3386 O 345.687 -2.12262 -1.69284 0
M  V30 3387 C 344.143 -3.57057 0.451462 0
M  V30 3388 C 343.751 -4.06697 1.87886 0
M  V30 3389 C 345.495 -4.2446 0.0584616 0
M  V30 3390 C 343.402 -5.56598 1.99883 0
M  V30 3391 H 342.332 -0.747163 0.101311 0
M  V30 3392 H 344.983 -1.59357 0.909819 0
M  V30 3393 H 343.365 -3.95234 -0.246263 0
M  V30 3394 H 344.539 -3.79853 2.60861 0
M  V30 3395 H 342.854 -3.5196 2.22515 0
M  V30 3396 H 345.451 -5.34549 0.127099 0
M  V30 3397 H 345.794 -4.04444 -0.986433 0
M  V30 3398 H 346.327 -3.9146 0.707374 0
M  V30 3399 H 343.066 -5.81494 3.02564 0
M  V30 3400 H 342.586 -5.85242 1.31346 0
M  V30 3401 H 344.265 -6.22022 1.78039 0
M  V30 3402 N 344.397 -0.483516 -1.5 0
M  V30 3403 C 345.813 -0.138404 -1.58999 0
M  V30 3404 C 346.013 1.35597 -1.4905 0
M  V30 3405 O 345.069 2.13039 -1.35539 0
M  V30 3406 C 346.382 -0.699658 -2.92447 0
M  V30 3407 C 347.93 -0.664195 -3.05872 0
M  V30 3408 C 348.405 -1.20321 -4.41913 0
M  V30 3409 N 349.896 -1.16315 -4.48358 0
M  V30 3410 C 350.631 -1.55058 -5.52037 0
M  V30 3411 N 350.127 -2.01311 -6.62907 0
M  V30 3412 N 351.92 -1.46584 -5.42651 0
M  V30 3413 H 344.071 -1.45529 -1.5471 0
M  V30 3414 H 346.334 -0.60258 -0.731848 0
M  V30 3415 H 346.04 -1.747 -3.05242 0
M  V30 3416 H 345.914 -0.150194 -3.76901 0
M  V30 3417 H 348.301 0.374272 -2.92717 0
M  V30 3418 H 348.382 -1.25061 -2.23144 0
M  V30 3419 H 348.026 -2.24037 -4.55818 0
M  V30 3420 H 347.956 -0.592896 -5.23252 0
M  V30 3421 H 350.447 -0.824058 -3.68806 0
M  V30 3422 H 350.76 -2.2899 -7.38095 0
M  V30 3423 H 349.105 -2.05273 -6.63994 0
M  V30 3424 H 352.296 -1.10281 -4.54924 0
M  V30 3425 H 352.469 -1.77103 -6.23329 0
M  V30 3426 N 345.875 1.56104 -0.216619 0
M  V30 3427 C 347.115 2.00074 0.418322 0
M  V30 3428 C 347.479 1.10098 1.57297 0
M  V30 3429 O 348.68 1.43393 2.27359 0
M  V30 3430 C 346.951 3.47231 0.846477 0
M  V30 3431 S 348.51 4.13223 1.47622 0
M  V30 3432 H 345.328 0.698457 0.132962 0
M  V30 3433 H 347.93 1.92784 -0.324748 0
M  V30 3434 H 346.634 4.104 -0.0036319 0
M  V30 3435 H 346.165 3.58384 1.62248 0
M  V30 3436 H 348.18 4.12005 2.76526 0
M  V30 3437 N 347.353 -0.0568162 1.57498 0
M  V30 3438 C 348.63 -0.786954 1.79071 0
M  V30 3439 C 349.01 -1.95028 0.80792 0
M  V30 3440 O 348.358 -2.27968 -0.155858 0
M  V30 3441 C 348.568 -1.24594 3.26002 0
M  V30 3442 C 349.916 -1.67323 3.90241 0
M  V30 3443 O 350.94 -1.34124 3.29984 0
M  V30 3444 O 349.799 -2.28842 4.9628 0
M  V30 3445 H 346.893 -0.378262 0.735423 0
M  V30 3446 H 349.439 -0.035734 1.69662 0
M  V30 3447 H 348.211 -0.41423 3.89101 0
M  V30 3448 H 347.834 -2.05803 3.40192 0
M  V30 3449 N 348.832 -1.54138 -0.328536 0
M  V30 3450 C 349.795 -1.82462 -1.38709 0
M  V30 3451 C 350.795 -0.696229 -1.44946 0
M  V30 3452 O 351.985 -0.964535 -1.4506 0
M  V30 3453 C 349.117 -1.98018 -2.77492 0
M  V30 3454 H 350.31 -2.77037 -1.14851 0
M  V30 3455 H 347.863 -1.45779 -0.563751 0
M  V30 3456 H 348.598 -1.05637 -3.06613 0
M  V30 3457 H 348.383 -2.80124 -2.74359 0
M  V30 3458 H 349.873 -2.21396 -3.54081 0
M  V30 3459 N 350.31 0.590341 -1.46126 0
M  V30 3460 C 351.721 1.17243 -1.45296 0
M  V30 3461 C 352.072 1.95281 -0.189723 0
M  V30 3462 O 351.197 2.04502 0.707674 0
M  V30 3463 C 351.792 2.13284 -2.6324 0
M  V30 3464 C 350.351 2.66832 -2.65476 0
M  V30 3465 C 349.498 1.42557 -2.3785 0
M  V30 3466 H 352.449 0.378692 -1.54116 0
M  V30 3467 H 352.47 2.96619 -2.38323 0
M  V30 3468 H 351.982 1.56459 -3.55165 0
M  V30 3469 H 350.083 3.27548 -1.77603 0
M  V30 3470 H 350.196 3.10088 -3.65215 0
M  V30 3471 H 348.56 1.72107 -1.87753 0
M  V30 3472 H 349.343 0.875741 -3.31942 0
M  V30 3473 N 351.788 1.33704 0.83433 0
M  V30 3474 C 352.698 1.26382 1.97648 0
M  V30 3475 C 353.714 0.173548 1.73132 0
M  V30 3476 O 354.89 0.397962 1.97429 0
M  V30 3477 C 351.955 1.00769 3.31733 0
M  V30 3478 C 351.016 2.1884 3.69334 0
M  V30 3479 C 350.249 1.9444 4.9702 0
M  V30 3480 O 350.472 0.896961 5.63303 0
M  V30 3481 O 349.406 2.81093 5.32231 0
M  V30 3482 H 353.232 2.22444 2.06767 0
M  V30 3483 H 350.817 1.13795 0.968037 0
M  V30 3484 H 352.699 0.882186 4.12062 0
M  V30 3485 H 351.374 0.0773783 3.23608 0
M  V30 3486 H 350.281 2.36946 2.89495 0
M  V30 3487 H 351.614 3.10221 3.82131 0
M  V30 3488 N 353.266 -1.05314 1.17247 0
M  V30 3489 C 354.214 -2.15137 0.884238 0
M  V30 3490 C 355.208 -1.68729 -0.15063 0
M  V30 3491 O 356.414 -1.8 -0.00366673 0
M  V30 3492 H 352.789 -0.702471 0.2684 0
M  V30 3493 H 354.76 -2.36652 1.81764 0
M  V30 3494 C 353.509 -3.45243 0.412659 0
M  V30 3495 H 352.832 -3.81352 1.20043 0
M  V30 3496 H 354.272 -4.23263 0.249858 0
M  V30 3497 C 352.731 -3.25487 -0.86948 0
M  V30 3498 O 353.261 -3.51938 -1.93655 0
M  V30 3499 N 351.467 -2.78875 -0.817147 0
M  V30 3500 H 351.014 -2.57549 0.0514211 0
M  V30 3501 H 350.972 -2.66036 -1.67547 0
M  V30 3502 N 354.744 -0.972509 -1.24016 0
M  V30 3503 C 355.99 -0.637978 -1.92504 0
M  V30 3504 C 356.323 0.825383 -1.75787 0
M  V30 3505 O 355.598 1.59442 -1.11393 0
M  V30 3506 C 355.881 -1.01942 -3.45369 0
M  V30 3507 C 355.734 -2.53983 -3.71231 0
M  V30 3508 C 357.053 -0.55751 -4.36555 0
M  V30 3509 H 354.172 -0.233248 -0.699117 0
M  V30 3510 H 356.814 -1.21238 -1.46292 0
M  V30 3511 H 354.964 -0.530656 -3.84859 0
M  V30 3512 H 356.636 -3.10374 -3.41271 0
M  V30 3513 H 354.879 -2.96968 -3.16216 0
M  V30 3514 H 355.55 -2.75723 -4.78206 0
M  V30 3515 H 358.026 -0.977029 -4.04467 0
M  V30 3516 H 356.902 -0.85292 -5.42233 0
M  V30 3517 H 357.163 0.542328 -4.38761 0
M  V30 3518 N 356.222 1.38976 -0.743202 0
M  V30 3519 C 357.132 2.3434 -0.110399 0
M  V30 3520 C 358.148 1.58741 0.712559 0
M  V30 3521 O 359.324 1.9099 0.639125 0
M  V30 3522 C 356.389 3.37812 0.780012 0
M  V30 3523 C 355.45 4.29263 -0.0561319 0
M  V30 3524 C 354.683 5.27793 0.791875 0
M  V30 3525 O 354.906 5.33043 2.03031 0
M  V30 3526 O 353.84 6.01512 0.216183 0
M  V30 3527 H 357.666 2.90129 -0.897714 0
M  V30 3528 H 355.251 1.40643 -0.503966 0
M  V30 3529 H 357.133 4.01194 1.28923 0
M  V30 3530 H 355.808 2.84395 1.546 0
M  V30 3531 H 354.715 3.69076 -0.611056 0
M  V30 3532 H 356.048 4.85907 -0.784531 0
M  V30 3533 N 357.7 0.491464 1.49741 0
M  V30 3534 C 358.63 -0.28154 2.31796 0
M  V30 3535 C 359.611 -0.971473 1.3963 0
M  V30 3536 O 360.796 -0.964719 1.68543 0
M  V30 3537 C 357.926 -1.35203 3.19902 0
M  V30 3538 C 356.88 -0.782529 4.20786 0
M  V30 3539 C 356.206 -1.95283 4.97764 0
M  V30 3540 C 357.506 0.21999 5.21837 0
M  V30 3541 H 359.2 0.403355 2.96671 0
M  V30 3542 H 356.746 0.195425 1.42668 0
M  V30 3543 H 358.699 -1.90045 3.76113 0
M  V30 3544 H 357.423 -2.06598 2.52953 0
M  V30 3545 H 356.082 -0.255928 3.65706 0
M  V30 3546 H 355.73 -2.65423 4.2727 0
M  V30 3547 H 355.43 -1.57789 5.66018 0
M  V30 3548 H 356.954 -2.50577 5.56816 0
M  V30 3549 H 358.368 -0.23996 5.72798 0
M  V30 3550 H 356.765 0.51026 5.97927 0
M  V30 3551 H 357.835 1.13911 4.7133 0
M  V30 3552 N 359.178 -1.55987 0.224894 0
M  V30 3553 C 360.141 -2.19178 -0.670348 0
M  V30 3554 C 361.141 -1.15461 -1.11917 0
M  V30 3555 O 362.331 -1.40675 -1.02743 0
M  V30 3556 C 359.463 -2.81777 -1.9187 0
M  V30 3557 H 360.656 -2.99662 -0.119364 0
M  V30 3558 H 358.209 -1.5628 -0.0247128 0
M  V30 3559 H 358.944 -2.05172 -2.51147 0
M  V30 3560 H 358.729 -3.57732 -1.60531 0
M  V30 3561 H 360.219 -3.30205 -2.55645 0
M  V30 3562 N 360.656 0.0484629 -1.57525 0
M  V30 3563 C 361.586 1.0549 -2.08313 0
M  V30 3564 C 362.567 1.38929 -0.981463 0
M  V30 3565 O 363.752 1.48151 -1.25558 0
M  V30 3566 C 360.882 2.36162 -2.54646 0
M  V30 3567 C 359.836 2.17016 -3.68901 0
M  V30 3568 C 359.162 3.53278 -4.01371 0
M  V30 3569 C 360.462 1.57219 -4.98076 0
M  V30 3570 H 362.156 0.632195 -2.92649 0
M  V30 3571 H 359.702 0.302654 -1.40784 0
M  V30 3572 H 361.655 3.06882 -2.88793 0
M  V30 3573 H 360.379 2.80456 -1.67368 0
M  V30 3574 H 359.038 1.48733 -3.35073 0
M  V30 3575 H 358.686 3.95185 -3.11188 0
M  V30 3576 H 358.386 3.41299 -4.78318 0
M  V30 3577 H 359.91 4.25391 -4.38035 0
M  V30 3578 H 361.324 2.17832 -5.30304 0
M  V30 3579 H 359.721 1.55871 -5.79503 0
M  V30 3580 H 360.791 0.535956 -4.81929 0
M  V30 3581 N 362.134 1.5431 0.320358 0
M  V30 3582 C 363.097 1.83195 1.3774 0
M  V30 3583 C 364.097 0.703906 1.44575 0
M  V30 3584 O 365.287 0.972214 1.44546 0
M  V30 3585 C 362.419 1.99487 2.76438 0
M  V30 3586 H 363.612 2.77642 1.1338 0
M  V30 3587 H 361.165 1.46076 0.556012 0
M  V30 3588 H 361.9 1.07262 3.06048 0
M  V30 3589 H 361.685 2.81575 2.7287 0
M  V30 3590 H 363.175 2.23271 3.52902 0
M  V30 3591 N 363.613 -0.582584 1.46437 0
M  V30 3592 C 364.523 -1.71949 1.59595 0
M  V30 3593 C 365.539 -1.67264 0.479443 0
M  V30 3594 O 366.715 -1.87171 0.743579 0
M  V30 3595 C 363.78 -3.08452 1.58298 0
M  V30 3596 C 362.841 -3.244 2.81182 0
M  V30 3597 C 362.074 -4.54391 2.79937 0
M  V30 3598 O 362.297 -5.38287 1.8869 0
M  V30 3599 O 361.231 -4.73588 3.71481 0
M  V30 3600 H 365.057 -1.63795 2.55744 0
M  V30 3601 H 362.642 -0.749643 1.29231 0
M  V30 3602 H 364.524 -3.89732 1.60271 0
M  V30 3603 H 363.199 -3.17043 0.653094 0
M  V30 3604 H 362.106 -2.42613 2.84763 0
M  V30 3605 H 363.439 -3.20699 3.7338 0
M  V30 3606 N 365.091 -1.34144 -0.827227 0
M  V30 3607 C 366.338 -1.26258 -1.58319 0
M  V30 3608 C 366.666 0.168595 -1.93768 0
M  V30 3609 O 365.921 1.12877 -1.59866 0
M  V30 3610 C 366.22 -2.09464 -2.89585 0
M  V30 3611 C 365.886 -3.58521 -2.73448 0
M  V30 3612 C 364.548 -3.99155 -2.68754 0
M  V30 3613 C 366.9 -4.53189 -2.57428 0
M  V30 3614 C 364.228 -5.32656 -2.45957 0
M  V30 3615 C 366.58 -5.86864 -2.36163 0
M  V30 3616 C 365.244 -6.26667 -2.29879 0
M  V30 3617 H 364.514 -0.462013 -0.579332 0
M  V30 3618 H 367.161 -1.65845 -0.95748 0
M  V30 3619 H 365.466 -1.62692 -3.56425 0
M  V30 3620 H 367.163 -2.00712 -3.47154 0
M  V30 3621 H 363.753 -3.26264 -2.77939 0
M  V30 3622 H 367.937 -4.22696 -2.60081 0
M  V30 3623 H 363.193 -5.62519 -2.39546 0
M  V30 3624 H 367.367 -6.59813 -2.22754 0
M  V30 3625 H 364.994 -7.30049 -2.11975 0
M  V30 3626 N 366.569 1.04691 -1.17803 0
M  V30 3627 C 367.815 1.78181 -0.980977 0
M  V30 3628 C 368.17 1.86191 0.484825 0
M  V30 3629 O 367.463 1.35436 1.35527 0
M  V30 3630 C 367.657 3.21467 -1.56186 0
M  V30 3631 C 367.486 3.27422 -3.08261 0
M  V30 3632 C 366.256 3.36415 -3.77032 0
M  V30 3633 C 368.454 3.15947 -4.0581 0
M  V30 3634 N 366.436 3.31554 -5.16667 0
M  V30 3635 C 367.807 3.18514 -5.31929 0
M  V30 3636 C 369.862 2.99945 -3.97413 0
M  V30 3637 C 368.565 3.06723 -6.50625 0
M  V30 3638 C 370.591 2.89497 -5.15699 0
M  V30 3639 C 369.953 2.92702 -6.40706 0
M  V30 3640 H 366.052 0.6641 -0.412911 0
M  V30 3641 H 368.636 1.24762 -1.49474 0
M  V30 3642 H 366.807 3.73245 -1.07436 0
M  V30 3643 H 368.539 3.8322 -1.30093 0
M  V30 3644 H 365.294 3.41887 -3.27735 0
M  V30 3645 H 365.718 3.3258 -5.89678 0
M  V30 3646 H 370.36 2.96302 -3.01604 0
M  V30 3647 H 368.078 3.0912 -7.46639 0
M  V30 3648 H 371.664 2.78179 -5.10987 0
M  V30 3649 H 370.544 2.84697 -7.30696 0
M  V30 3650 N 368.047 0.979072 1.23499 0
M  V30 3651 C 369.01 0.523244 2.23147 0
M  V30 3652 C 370.01 -0.386406 1.56088 0
M  V30 3653 O 371.2 -0.180283 1.73265 0
M  V30 3654 C 368.332 -0.240739 3.40049 0
M  V30 3655 H 369.525 1.40432 2.64989 0
M  V30 3656 H 367.078 0.764824 1.36309 0
M  V30 3657 H 367.813 -1.13841 3.03662 0
M  V30 3658 H 367.598 0.412207 3.89927 0
M  V30 3659 H 369.088 -0.548297 4.13985 0
M  V30 3660 N 369.525 -1.3858 0.750561 0
M  V30 3661 C 370.455 -2.33102 0.136237 0
M  V30 3662 C 371.436 -1.54713 -0.706965 0
M  V30 3663 O 372.621 -1.83043 -0.648769 0
M  V30 3664 C 369.751 -3.38882 -0.760017 0
M  V30 3665 C 368.705 -4.27995 -0.0197785 0
M  V30 3666 C 368.031 -5.24605 -1.03408 0
M  V30 3667 C 369.331 -5.09554 1.14684 0
M  V30 3668 H 371.025 -2.84726 0.925822 0
M  V30 3669 H 368.571 -1.36898 0.446654 0
M  V30 3670 H 370.524 -4.0397 -1.19943 0
M  V30 3671 H 369.248 -2.85734 -1.58189 0
M  V30 3672 H 367.907 -3.64409 0.400184 0
M  V30 3673 H 367.555 -4.67746 -1.84994 0
M  V30 3674 H 367.255 -5.85081 -0.543464 0
M  V30 3675 H 368.779 -5.9257 -1.47288 0
M  V30 3676 H 370.193 -5.67899 0.785118 0
M  V30 3677 H 368.59 -5.7925 1.56812 0
M  V30 3678 H 369.66 -4.4347 1.96118 0
M  V30 3679 N 371.003 -0.499398 -1.49478 0
M  V30 3680 C 372.231 0.0425456 -2.06856 0
M  V30 3681 C 372.646 1.30964 -1.35992 0
M  V30 3682 O 372.003 1.77172 -0.437762 0
M  V30 3683 C 372.054 0.301735 -3.60239 0
M  V30 3684 O 371.775 -0.915127 -4.28436 0
M  V30 3685 C 373.276 0.887499 -4.34325 0
M  V30 3686 H 370.496 -0.0197482 -0.670709 0
M  V30 3687 H 373.04 -0.696297 -1.92281 0
M  V30 3688 H 371.195 0.990556 -3.74522 0
M  V30 3689 H 371.609 -0.676993 -5.20113 0
M  V30 3690 H 373.083 1.01845 -5.42523 0
M  V30 3691 H 373.56 1.88488 -3.96698 0
M  V30 3692 H 374.166 0.236196 -4.24644 0
M  V30 3693 N 372.481 1.55866 -0.233164 0
M  V30 3694 C 373.706 2.03449 0.402906 0
M  V30 3695 C 374.131 1.11166 1.51736 0
M  V30 3696 O 373.489 0.101996 1.81013 0
M  V30 3697 C 373.537 3.49165 0.9009 0
M  V30 3698 O 372.641 3.60019 2.01147 0
M  V30 3699 H 371.982 0.657913 0.0897025 0
M  V30 3700 H 374.512 2.01493 -0.355201 0
M  V30 3701 H 374.522 3.89716 1.2077 0
M  V30 3702 H 373.197 4.15813 0.0852889 0
M  V30 3703 H 371.774 3.3136 1.71042 0
M  V30 3704 N 373.959 -0.0401083 1.57549 0
M  V30 3705 C 374.889 -1.04384 2.08869 0
M  V30 3706 C 375.87 -1.38407 0.988817 0
M  V30 3707 O 377.055 -1.47483 1.26342 0
M  V30 3708 C 374.185 -2.34808 2.55895 0
M  V30 3709 C 373.139 -2.15057 3.70047 0
M  V30 3710 C 372.465 -3.51145 4.03239 0
M  V30 3711 C 373.765 -1.54576 4.98902 0
M  V30 3712 H 375.459 -0.616666 2.92981 0
M  V30 3713 H 373.005 -0.295184 1.40942 0
M  V30 3714 H 374.958 -3.05346 2.90417 0
M  V30 3715 H 373.682 -2.79565 1.68853 0
M  V30 3716 H 372.341 -1.46954 3.35857 0
M  V30 3717 H 371.989 -3.93529 3.13279 0
M  V30 3718 H 371.689 -3.38758 4.80122 0
M  V30 3719 H 373.213 -4.23062 4.40285 0
M  V30 3720 H 374.627 -2.15017 5.31451 0
M  V30 3721 H 373.024 -1.52796 5.80322 0
M  V30 3722 H 374.094 -0.51039 4.82206 0
M  V30 3723 N 375.437 -1.54477 -0.31217 0
M  V30 3724 C 376.384 -1.84655 -1.38461 0
M  V30 3725 C 377.354 -0.694536 -1.50882 0
M  V30 3726 O 378.539 -0.942081 -1.6592 0
M  V30 3727 C 375.679 -2.0896 -2.74645 0
M  V30 3728 C 374.792 -3.36618 -2.70763 0
M  V30 3729 C 373.927 -3.50824 -3.98868 0
M  V30 3730 C 372.966 -4.72315 -3.89339 0
M  V30 3731 N 372.103 -4.83387 -5.09197 0
M  V30 3732 H 376.943 -2.76142 -1.12026 0
M  V30 3733 H 374.48 -1.36748 -0.542065 0
M  V30 3734 H 376.438 -2.21045 -3.53829 0
M  V30 3735 H 375.068 -1.20752 -2.99364 0
M  V30 3736 H 374.12 -3.33211 -1.83506 0
M  V30 3737 H 375.432 -4.25917 -2.59608 0
M  V30 3738 H 374.586 -3.62513 -4.86486 0
M  V30 3739 H 373.325 -2.59638 -4.12843 0
M  V30 3740 H 372.33 -4.6067 -3.00105 0
M  V30 3741 H 373.555 -5.64897 -3.76919 0
M  V30 3742 H 371.501 -3.9512 -5.23657 0
M  V30 3743 H 371.418 -5.66669 -5.00422 0
M  V30 3744 H 372.686 -4.9942 -5.98498 0
M  V30 3745 N 376.915 0.57481 -1.46744 0
M  V30 3746 C 378.331 0.898981 -1.31873 0
M  V30 3747 C 378.531 1.99313 -0.29605 0
M  V30 3748 O 377.587 2.50728 0.298621 0
M  V30 3749 C 378.9 1.30886 -2.7072 0
M  V30 3750 C 380.448 1.42127 -2.78871 0
M  V30 3751 C 380.923 1.86478 -4.18318 0
M  V30 3752 N 382.414 1.93658 -4.20774 0
M  V30 3753 C 383.149 2.29267 -5.2557 0
M  V30 3754 N 382.645 2.63612 -6.40688 0
M  V30 3755 N 384.438 2.29889 -5.1294 0
M  V30 3756 H 376.589 -0.147839 -2.11885 0
M  V30 3757 H 378.852 -0.00347013 -0.947994 0
M  V30 3758 H 378.558 0.578853 -3.46904 0
M  V30 3759 H 378.432 2.26874 -3.01343 0
M  V30 3760 H 380.819 2.14213 -2.0297 0
M  V30 3761 H 380.9 0.443705 -2.51922 0
M  V30 3762 H 380.544 1.14968 -4.94717 0
M  V30 3763 H 380.474 2.85207 -4.42679 0
M  V30 3764 H 382.965 1.69574 -3.37718 0
M  V30 3765 H 383.278 2.89759 -7.16421 0
M  V30 3766 H 381.623 2.61232 -6.44036 0
M  V30 3767 H 384.814 2.02485 -4.22039 0
M  V30 3768 H 384.987 2.57312 -5.94722 0
M  V30 3769 N 378.394 1.34581 0.820102 0
M  V30 3770 C 379.81 1.14325 1.11364 0
M  V30 3771 C 380.01 -0.0533648 2.01429 0
M  V30 3772 O 379.066 -0.728044 2.41776 0
M  V30 3773 C 380.379 2.43983 1.75764 0
M  V30 3774 C 381.927 2.50065 1.88246 0
M  V30 3775 C 382.402 3.79732 2.56061 0
M  V30 3776 N 383.893 3.80908 2.63558 0
M  V30 3777 C 384.628 4.77961 3.16766 0
M  V30 3778 N 384.124 5.85397 3.70517 0
M  V30 3779 N 385.917 4.65413 3.15194 0
M  V30 3780 H 378.068 2.11246 0.221096 0
M  V30 3781 H 380.331 0.934289 0.160649 0
M  V30 3782 H 380.037 3.31651 1.1705 0
M  V30 3783 H 379.911 2.57531 2.75604 0
M  V30 3784 H 382.298 1.62834 2.46108 0
M  V30 3785 H 382.379 2.40442 0.873006 0
M  V30 3786 H 382.023 4.67354 1.98853 0
M  V30 3787 H 381.953 3.86639 3.57516 0
M  V30 3788 H 384.444 3.03274 2.25463 0
M  V30 3789 H 384.757 6.55463 4.09376 0
M  V30 3790 H 383.102 5.89107 3.68752 0
M  V30 3791 H 386.293 3.80627 2.72471 0
M  V30 3792 H 386.466 5.41216 3.56356 0
M  V30 3793 N 379.872 -1.04064 1.18357 0
M  V30 3794 C 380.822 -2.10393 0.878561 0
M  V30 3795 C 381.806 -1.60183 -0.151713 0
M  V30 3796 O 382.998 -1.76923 0.0523303 0
M  V30 3797 C 380.127 -3.4089 0.406096 0
M  V30 3798 C 379.213 -3.97866 1.46844 0
M  V30 3799 N 379.604 -4.28657 2.68489 0
M  V30 3800 C 377.902 -4.2574 1.32896 0
M  V30 3801 C 378.603 -4.74253 3.36836 0
M  V30 3802 N 377.579 -4.75068 2.64219 0
M  V30 3803 H 381.381 -2.32076 1.80327 0
M  V30 3804 H 378.895 -1.21818 1.07397 0
M  V30 3805 H 380.892 -4.16557 0.169088 0
M  V30 3806 H 379.552 -3.20633 -0.512275 0
M  V30 3807 H 380.563 -4.18304 3.05356 0
M  V30 3808 H 377.24 -4.1481 0.473134 0
M  V30 3809 H 378.63 -5.07096 4.40798 0
M  V30 3810 N 381.35 -0.985608 -1.22978 0
M  V30 3811 C 382.282 -0.488154 -2.23941 0
M  V30 3812 C 383.295 0.41282 -1.57479 0
M  V30 3813 O 384.484 0.216121 -1.77187 0
M  V30 3814 C 381.584 0.312611 -3.37455 0
M  V30 3815 C 380.757 -0.582741 -4.33501 0
M  V30 3816 C 379.816 0.165064 -5.25941 0
M  V30 3817 O 378.842 -0.447077 -5.67442 0
M  V30 3818 N 380.044 1.44953 -5.62111 0
M  V30 3819 H 382.809 -1.3563 -2.67254 0
M  V30 3820 H 380.37 -0.859477 -1.37203 0
M  V30 3821 H 382.362 0.821357 -3.96277 0
M  V30 3822 H 380.932 1.0818 -2.93285 0
M  V30 3823 H 380.152 -1.27225 -3.73105 0
M  V30 3824 H 381.44 -1.19275 -4.94622 0
M  V30 3825 H 380.838 1.9683 -5.30353 0
M  V30 3826 H 379.395 1.90361 -6.23383 0
M  V30 3827 N 382.828 1.3818 -0.7579 0
M  V30 3828 C 383.776 2.32277 -0.122482 0
M  V30 3829 C 384.77 1.54238 0.700505 0
M  V30 3830 O 385.976 1.69737 0.599119 0
M  V30 3831 H 382.351 0.751712 -0.0208143 0
M  V30 3832 H 384.322 2.83469 -0.932099 0
M  V30 3833 C 383.071 3.39447 0.753076 0
M  V30 3834 H 382.394 3.99591 0.129184 0
M  V30 3835 H 383.834 4.07684 1.16489 0
M  V30 3836 C 382.293 2.78375 1.8976 0
M  V30 3837 O 382.823 2.68025 2.99208 0
M  V30 3838 N 381.029 2.36121 1.69397 0
M  V30 3839 H 380.576 2.4474 0.803762 0
M  V30 3840 H 380.534 1.95602 2.46145 0
M  V30 3841 N 384.306 0.507319 1.49211 0
M  V30 3842 C 385.552 -0.0350047 2.0277 0
M  V30 3843 C 385.885 -1.3606 1.38569 0
M  V30 3844 O 385.16 -1.87321 0.523542 0
M  V30 3845 C 385.443 -0.180916 3.59645 0
M  V30 3846 C 385.296 1.16825 4.34364 0
M  V30 3847 C 386.615 -0.918558 4.30407 0
M  V30 3848 H 383.734 -0.0112473 0.736914 0
M  V30 3849 H 386.376 0.659956 1.7817 0
M  V30 3850 H 384.526 -0.772826 3.80736 0
M  V30 3851 H 386.198 1.79952 4.24753 0
M  V30 3852 H 384.441 1.75594 3.96673 0
M  V30 3853 H 385.112 1.01939 5.42506 0
M  V30 3854 H 387.588 -0.41649 4.1401 0
M  V30 3855 H 386.464 -0.989505 5.39907 0
M  V30 3856 H 386.725 -1.96373 3.96093 0
M  V30 3857 N 385.784 -1.5574 0.241426 0
M  V30 3858 C 387.03 -1.99104 -0.385406 0
M  V30 3859 C 387.363 -1.1293 -1.57988 0
M  V30 3860 O 386.638 -0.191449 -1.93555 0
M  V30 3861 C 386.921 -3.51087 -0.800616 0
M  V30 3862 C 386.774 -4.48028 0.398874 0
M  V30 3863 C 388.093 -4.08015 -1.64959 0
M  V30 3864 H 385.212 -0.723848 -0.138614 0
M  V30 3865 H 387.854 -1.86903 0.341642 0
M  V30 3866 H 386.004 -3.61615 -1.4201 0
M  V30 3867 H 387.676 -4.49487 1.03726 0
M  V30 3868 H 385.919 -4.21077 1.04293 0
M  V30 3869 H 386.59 -5.51962 0.0651056 0
M  V30 3870 H 389.066 -4.00555 -1.12672 0
M  V30 3871 H 387.942 -5.14635 -1.90898 0
M  V30 3872 H 388.203 -3.56131 -2.61961 0
M  V30 3873 N 387.262 0.0317525 -1.57568 0
M  V30 3874 C 388.194 1.06073 -2.03178 0
M  V30 3875 C 389.207 1.32627 -0.944132 0
M  V30 3876 O 390.396 1.30162 -1.22148 0
M  V30 3877 C 387.496 2.40297 -2.38978 0
M  V30 3878 C 386.669 2.33137 -3.70089 0
M  V30 3879 C 385.728 3.49787 -3.9311 0
M  V30 3880 O 384.754 3.29403 -4.64201 0
M  V30 3881 N 385.956 4.71562 -3.38541 0
M  V30 3882 H 388.721 0.672006 -2.92069 0
M  V30 3883 H 386.282 0.219745 -1.60402 0
M  V30 3884 H 388.274 3.1705 -2.51518 0
M  V30 3885 H 386.844 2.71024 -1.55771 0
M  V30 3886 H 386.064 1.415 -3.67928 0
M  V30 3887 H 387.352 2.25493 -4.56104 0
M  V30 3888 H 386.75 4.91024 -2.80912 0
M  V30 3889 H 385.307 5.45689 -3.56464 0
M  V30 3890 N 388.74 1.54641 0.303973 0
M  V30 3891 C 389.987 1.7378 1.03955 0
M  V30 3892 C 390.315 0.521986 1.87365 0
M  V30 3893 O 389.57 -0.496099 1.89308 0
M  V30 3894 C 389.869 2.97753 1.97681 0
M  V30 3895 C 389.535 4.31671 1.30271 0
M  V30 3896 C 388.197 4.68075 1.11619 0
M  V30 3897 C 390.549 5.147 0.82055 0
M  V30 3898 C 387.877 5.8509 0.434304 0
M  V30 3899 C 390.229 6.32416 0.152395 0
M  V30 3900 C 388.893 6.67484 -0.0461067 0
M  V30 3901 H 388.163 0.635908 0.380398 0
M  V30 3902 H 390.81 1.88896 0.314718 0
M  V30 3903 H 389.115 2.77406 2.76682 0
M  V30 3904 H 390.812 3.09756 2.54661 0
M  V30 3905 H 387.402 4.03041 1.45795 0
M  V30 3906 H 391.586 4.87077 0.952374 0
M  V30 3907 H 386.842 6.10806 0.269495 0
M  V30 3908 H 391.016 6.96023 -0.229126 0
M  V30 3909 H 388.643 7.58011 -0.576494 0
M  V30 3910 N 390.218 -0.567019 1.47046 0
M  V30 3911 C 391.128 -1.70247 1.6141 0
M  V30 3912 C 392.144 -1.66746 0.497157 0
M  V30 3913 O 393.32 -1.86371 0.763389 0
M  V30 3914 C 390.385 -3.06756 1.61561 0
M  V30 3915 C 389.446 -3.21399 2.84607 0
M  V30 3916 C 388.679 -4.51396 2.84741 0
M  V30 3917 O 388.902 -5.36255 1.94388 0
M  V30 3918 O 387.836 -4.69621 3.76483 0
M  V30 3919 H 391.662 -1.61073 2.57467 0
M  V30 3920 H 389.247 -0.735894 1.30019 0
M  V30 3921 H 391.129 -3.8801 1.64396 0
M  V30 3922 H 389.804 -3.16333 0.686684 0
M  V30 3923 H 388.711 -2.39579 2.8732 0
M  V30 3924 H 390.044 -3.16721 3.76761 0
M  V30 3925 N 391.696 -1.35014 -0.812953 0
M  V30 3926 C 392.606 -1.2951 -1.95613 0
M  V30 3927 C 393.622 -0.20107 -1.72834 0
M  V30 3928 O 394.798 -0.42932 -1.96771 0
M  V30 3929 C 391.863 -1.06033 -3.30088 0
M  V30 3930 C 390.924 -2.24688 -3.65805 0
M  V30 3931 C 390.157 -2.02322 -4.93864 0
M  V30 3932 O 390.38 -0.986464 -5.61805 0
M  V30 3933 O 389.314 -2.89525 -5.27692 0
M  V30 3934 H 393.14 -2.25705 -2.03202 0
M  V30 3935 H 390.725 -1.15321 -0.949811 0
M  V30 3936 H 392.607 -0.94763 -4.10607 0
M  V30 3937 H 391.282 -0.128852 -3.23443 0
M  V30 3938 H 390.189 -2.41521 -2.85689 0
M  V30 3939 H 391.522 -3.16261 -3.77147 0
M  V30 3940 N 393.175 1.03435 -1.18907 0
M  V30 3941 C 394.415 1.78302 -0.999391 0
M  V30 3942 C 394.779 1.86353 0.462219 0
M  V30 3943 O 395.98 2.57489 0.771543 0
M  V30 3944 C 394.251 3.17362 -1.64365 0
M  V30 3945 S 395.81 4.08488 -1.6026 0
M  V30 3946 H 392.628 0.613861 -0.358742 0
M  V30 3947 H 395.23 1.23979 -1.51161 0
M  V30 3948 H 393.934 3.09116 -2.69955 0
M  V30 3949 H 393.465 3.76762 -1.13199 0
M  V30 3950 H 395.48 4.92274 -0.622932 0
M  V30 3951 N 394.653 0.992116 1.22453 0
M  V30 3952 C 395.899 0.668523 1.91464 0
M  V30 3953 C 396.232 -0.797313 1.77078 0
M  V30 3954 O 395.507 -1.5765 1.13916 0
M  V30 3955 C 395.79 1.07424 3.43703 0
M  V30 3956 C 395.643 2.59857 3.67143 0
M  V30 3957 C 396.962 0.626891 4.35612 0
M  V30 3958 H 394.081 0.244341 0.695318 0
M  V30 3959 H 396.723 1.2355 1.44345 0
M  V30 3960 H 394.873 0.591816 3.83966 0
M  V30 3961 H 396.545 3.15764 3.3629 0
M  V30 3962 H 394.788 3.01961 3.11451 0
M  V30 3963 H 395.459 2.83296 4.73759 0
M  V30 3964 H 397.935 1.04125 4.02861 0
M  V30 3965 H 396.811 0.939076 5.40807 0
M  V30 3966 H 397.072 -0.472457 4.39568 0
M  V30 3967 N 396.131 -1.37776 0.765217 0
M  V30 3968 C 397.061 -2.32945 0.160953 0
M  V30 3969 C 398.042 -1.55454 -0.690516 0
M  V30 3970 O 399.227 -1.83721 -0.629318 0
M  V30 3971 C 396.357 -3.39669 -0.724031 0
M  V30 3972 C 395.311 -4.27992 0.0256173 0
M  V30 3973 C 394.637 -5.25673 -0.978383 0
M  V30 3974 C 395.937 -5.08309 1.20082 0
M  V30 3975 H 397.631 -2.83728 0.955969 0
M  V30 3976 H 395.177 -1.36416 0.461149 0
M  V30 3977 H 397.13 -4.05219 -1.15652 0
M  V30 3978 H 395.854 -2.87396 -1.5515 0
M  V30 3979 H 394.513 -3.63964 0.438812 0
M  V30 3980 H 394.161 -4.69682 -1.80022 0
M  V30 3981 H 393.861 -5.85625 -0.481378 0
M  V30 3982 H 395.385 -5.94098 -1.40995 0
M  V30 3983 H 396.799 -5.67034 0.845307 0
M  V30 3984 H 395.196 -5.77554 1.62947 0
M  V30 3985 H 396.266 -4.41365 2.00811 0
M  V30 3986 N 397.609 -0.515225 -1.4894 0
M  V30 3987 C 398.541 0.292481 -2.27326 0
M  V30 3988 C 399.554 0.917838 -1.3446 0
M  V30 3989 O 400.743 0.798772 -1.5963 0
M  V30 3990 C 397.843 1.42803 -3.07344 0
M  V30 3991 C 397.016 0.907347 -4.27885 0
M  V30 3992 C 396.075 1.92222 -4.89834 0
M  V30 3993 O 395.101 1.48506 -5.49486 0
M  V30 3994 N 396.303 3.25355 -4.80754 0
M  V30 3995 H 399.068 -0.379721 -2.97285 0
M  V30 3996 H 396.629 -0.348638 -1.58102 0
M  V30 3997 H 398.621 2.10481 -3.45658 0
M  V30 3998 H 397.191 2.00414 -2.39902 0
M  V30 3999 H 396.411 0.0550218 -3.94162 0
M  V30 4000 H 397.699 0.538108 -5.05946 0
M  V30 4001 H 397.097 3.6355 -4.33414 0
M  V30 4002 H 395.654 3.88707 -5.23211 0
M  V30 4003 N 399.087 1.5561 -0.249682 0
M  V30 4004 C 400.503 1.59254 0.105103 0
M  V30 4005 C 400.703 1.26685 1.56694 0
M  V30 4006 O 399.759 1.0155 2.31179 0
M  V30 4007 C 401.072 2.99687 -0.246592 0
M  V30 4008 C 402.62 3.12416 -0.191118 0
M  V30 4009 C 403.095 4.55074 -0.516885 0
M  V30 4010 N 404.586 4.60835 -0.467489 0
M  V30 4011 C 405.321 5.69201 -0.69268 0
M  V30 4012 N 404.817 6.85817 -0.981146 0
M  V30 4013 N 406.61 5.58635 -0.623198 0
M  V30 4014 H 398.761 1.75049 -1.20298 0
M  V30 4015 H 401.024 0.815003 -0.484225 0
M  V30 4016 H 400.73 3.28267 -1.26228 0
M  V30 4017 H 400.604 3.74798 0.424962 0
M  V30 4018 H 402.991 2.83615 0.815247 0
M  V30 4019 H 403.072 2.39573 -0.896563 0
M  V30 4020 H 402.716 4.84596 -1.52082 0
M  V30 4021 H 402.646 5.26181 0.210068 0
M  V30 4022 H 405.137 3.7705 -0.253373 0
M  V30 4023 H 405.45 7.64341 -1.14032 0
M  V30 4024 H 403.795 6.87494 -1.01865 0
M  V30 4025 H 406.986 4.66406 -0.397863 0
M  V30 4026 H 407.159 6.43017 -0.802093 0
M  V30 4027 N 400.565 -0.0233959 1.57583 0
M  V30 4028 C 401.513 -1.04063 2.08023 0
M  V30 4029 C 402.507 -1.37084 0.995204 0
M  V30 4030 O 403.713 -1.35923 1.18004 0
M  V30 4031 H 400.088 -0.353144 0.663922 0
M  V30 4032 H 402.059 -0.589453 2.9252 0
M  V30 4033 C 400.808 -2.33123 2.57971 0
M  V30 4034 H 400.131 -2.08577 3.4108 0
M  V30 4035 H 401.571 -3.02632 2.96967 0
M  V30 4036 C 400.03 -3.02483 1.48342 0
M  V30 4037 O 400.56 -3.92541 0.852898 0
M  V30 4038 N 398.766 -2.63909 1.21658 0
M  V30 4039 H 398.313 -1.90758 1.73116 0
M  V30 4040 H 398.271 -3.10633 0.485218 0
M  V30 4041 N 402.043 -1.548 -0.295768 0
M  V30 4042 C 403.291 -1.73985 -1.02828 0
M  V30 4043 C 403.612 -0.531406 -1.87619 0
M  V30 4044 O 402.882 0.454221 -1.90561 0
M  V30 4045 H 401.462 -0.641556 -0.382642 0
M  V30 4046 H 404.124 -1.92163 -0.325489 0
M  V30 4047 H 403.22 -2.63129 -1.67838 0
M  V30 4048 N 403.521 0.559213 -1.47345 0
M  V30 4049 C 404.451 1.67622 -1.62558 0
M  V30 4050 C 405.432 1.63331 -0.475087 0
M  V30 4051 O 406.617 1.80983 -0.704182 0
M  V30 4052 C 403.747 3.0626 -1.63774 0
M  V30 4053 C 402.701 3.25397 -2.7803 0
M  V30 4054 C 402.027 4.64801 -2.64318 0
M  V30 4055 C 403.327 3.10965 -4.19641 0
M  V30 4056 H 405.021 1.55146 -2.56067 0
M  V30 4057 H 402.567 0.744961 -1.23233 0
M  V30 4058 H 404.52 3.84247 -1.73008 0
M  V30 4059 H 403.244 3.1969 -0.66825 0
M  V30 4060 H 401.903 2.49817 -2.68304 0
M  V30 4061 H 401.551 4.75028 -1.65401 0
M  V30 4062 H 401.251 4.78555 -3.40968 0
M  V30 4063 H 402.775 5.44926 -2.75478 0
M  V30 4064 H 404.189 3.78772 -4.30354 0
M  V30 4065 H 402.586 3.36229 -4.97062 0
M  V30 4066 H 403.656 2.07736 -4.38148 0
M  V30 4067 N 404.999 1.35443 0.805782 0
M  V30 4068 C 405.962 1.28301 1.89925 0
M  V30 4069 C 406.962 0.194285 1.59622 0
M  V30 4070 O 408.152 0.448036 1.6834 0
M  V30 4071 C 405.284 0.984997 3.2636 0
M  V30 4072 H 406.477 2.2553 1.97677 0
M  V30 4073 H 404.03 1.19979 1.00173 0
M  V30 4074 H 404.765 0.016603 3.24296 0
M  V30 4075 H 404.55 1.77269 3.4974 0
M  V30 4076 H 406.04 0.960651 4.064 0
M  V30 4077 N 406.477 -1.02803 1.19454 0
M  V30 4078 C 407.409 -2.11181 0.890807 0
M  V30 4079 C 408.422 -1.6238 -0.116829 0
M  V30 4080 O 409.611 -1.78144 0.112694 0
M  V30 4081 C 406.711 -3.37461 0.311942 0
M  V30 4082 C 405.884 -4.15446 1.36834 0
M  V30 4083 C 404.943 -5.20039 0.802864 0
M  V30 4084 O 403.969 -5.49602 1.48077 0
M  V30 4085 N 405.171 -5.79165 -0.393417 0
M  V30 4086 H 407.936 -2.37827 1.82369 0
M  V30 4087 H 405.497 -1.19101 1.09666 0
M  V30 4088 H 407.489 -4.0462 -0.0802225 0
M  V30 4089 H 406.059 -3.08156 -0.52524 0
M  V30 4090 H 405.279 -3.43423 1.93531 0
M  V30 4091 H 406.567 -4.64335 2.08015 0
M  V30 4092 H 405.965 -5.57466 -0.961658 0
M  V30 4093 H 404.522 -6.47729 -0.727351 0
M  V30 4094 N 407.956 -0.998596 -1.21925 0
M  V30 4095 C 409.372 -0.710303 -1.42923 0
M  V30 4096 C 409.572 0.716933 -1.88314 0
M  V30 4097 O 408.628 1.48712 -2.04062 0
M  V30 4098 C 409.941 -1.72072 -2.466 0
M  V30 4099 C 411.489 -1.73681 -2.60392 0
M  V30 4100 C 411.964 -2.73601 -3.67296 0
M  V30 4101 N 413.455 -2.7223 -3.7476 0
M  V30 4102 C 414.19 -3.46206 -4.57087 0
M  V30 4103 N 413.686 -4.29802 -5.43362 0
M  V30 4104 N 415.479 -3.34886 -4.51451 0
M  V30 4105 H 407.63 -1.92028 -0.9077 0
M  V30 4106 H 409.893 -0.828487 -0.460775 0
M  V30 4107 H 409.599 -2.74231 -2.20206 0
M  V30 4108 H 409.473 -1.51818 -3.45299 0
M  V30 4109 H 411.86 -0.722173 -2.86127 0
M  V30 4110 H 411.941 -1.98005 -1.61949 0
M  V30 4111 H 411.585 -3.75217 -3.42307 0
M  V30 4112 H 411.515 -2.46545 -4.65321 0
M  V30 4113 H 414.006 -2.11576 -3.1312 0
M  V30 4114 H 414.319 -4.83061 -6.03218 0
M  V30 4115 H 412.664 -4.33887 -5.42925 0
M  V30 4116 H 415.855 -2.69015 -3.83078 0
M  V30 4117 H 416.028 -3.92796 -5.15379 0
M  V30 4118 N 409.434 1.37368 -0.772513 0
M  V30 4119 C 410.367 2.27956 -0.105593 0
M  V30 4120 C 411.345 1.46362 0.708295 0
M  V30 4121 O 412.529 1.75695 0.682895 0
M  V30 4122 C 409.656 3.27687 0.856686 0
M  V30 4123 C 408.702 4.26312 0.1267 0
M  V30 4124 S 409.535 5.22206 -1.1858 0
M  V30 4125 C 410.691 6.25488 -0.227081 0
M  V30 4126 H 410.924 2.84171 -0.87372 0
M  V30 4127 H 408.457 1.43654 -0.565939 0
M  V30 4128 H 410.415 3.85653 1.40648 0
M  V30 4129 H 409.076 2.70417 1.59793 0
M  V30 4130 H 408.269 4.96674 0.856212 0
M  V30 4131 H 407.871 3.72339 -0.352117 0
M  V30 4132 H 410.163 6.74836 0.600231 0
M  V30 4133 H 411.106 7.02371 -0.898899 0
M  V30 4134 H 411.514 5.64267 0.162053 0
M  V30 4135 N 410.912 0.523116 1.48665 0
M  V30 4136 C 412.137 -0.0117284 2.07397 0
M  V30 4137 C 412.562 -1.28031 1.37803 0
M  V30 4138 O 411.92 -1.75836 0.441762 0
M  V30 4139 C 411.968 -0.225786 3.59892 0
M  V30 4140 O 411.072 -1.29592 3.91509 0
M  V30 4141 H 410.413 0.0360673 0.66302 0
M  V30 4142 H 412.943 0.729066 1.9117 0
M  V30 4143 H 412.953 -0.450552 4.05505 0
M  V30 4144 H 411.628 0.700944 4.09951 0
M  V30 4145 H 410.205 -1.05436 3.57684 0
M  V30 4146 N 412.39 -1.55475 0.257931 0
M  V30 4147 C 413.34 -2.18506 -0.651094 0
M  V30 4148 C 414.324 -1.14431 -1.13112 0
M  V30 4149 O 415.516 -1.40305 -1.07905 0
M  V30 4150 C 412.645 -2.89653 -1.84272 0
M  V30 4151 C 411.731 -4.00996 -1.38068 0
M  V30 4152 N 412.122 -5.01816 -0.633609 0
M  V30 4153 C 410.42 -4.13753 -1.66506 0
M  V30 4154 C 411.121 -5.80371 -0.392922 0
M  V30 4155 N 410.097 -5.3505 -0.960359 0
M  V30 4156 H 413.899 -2.93811 -0.0722883 0
M  V30 4157 H 411.413 -1.62286 0.0607256 0
M  V30 4158 H 413.41 -3.33245 -2.50506 0
M  V30 4159 H 412.07 -2.15854 -2.42564 0
M  V30 4160 H 413.081 -5.17128 -0.282626 0
M  V30 4161 H 409.758 -3.51133 -2.25858 0
M  V30 4162 H 411.148 -6.7159 0.204235 0
M  V30 4163 N 413.868 0.0150385 -1.57593 0
M  V30 4164 C 415.116 0.701613 -1.8953 0
M  V30 4165 C 415.437 1.75139 -0.857396 0
M  V30 4166 O 414.707 1.95607 0.107194 0
M  V30 4167 H 413.287 0.26213 -0.699498 0
M  V30 4168 H 415.949 -0.0223304 -1.94887 0
M  V30 4169 H 415.045 1.18236 -2.88837 0
M  V30 4170 N 415.346 1.54954 0.287554 0
M  V30 4171 C 416.294 1.87606 1.37502 0
M  V30 4172 C 417.288 0.751001 1.51843 0
M  V30 4173 O 418.494 0.935169 1.53801 0
M  V30 4174 H 414.869 0.595231 0.459569 0
M  V30 4175 H 416.84 2.78477 1.07206 0
M  V30 4176 C 415.589 2.15183 2.73115 0
M  V30 4177 H 414.912 3.01234 2.62866 0
M  V30 4178 H 416.352 2.4196 3.48183 0
M  V30 4179 C 414.811 0.954686 3.2309 0
M  V30 4180 O 415.341 0.181949 4.01288 0
M  V30 4181 N 413.547 0.756368 2.80584 0
M  V30 4182 H 413.094 1.38643 2.17108 0
M  V30 4183 H 413.052 -0.0430391 3.14371 0
M  V30 4184 N 416.824 -0.551391 1.4764 0
M  V30 4185 C 417.771 -1.65796 1.60563 0
M  V30 4186 C 418.741 -1.59932 0.448428 0
M  V30 4187 O 419.926 -1.78679 0.669222 0
M  V30 4188 C 417.066 -3.04108 1.63133 0
M  V30 4189 C 416.179 -3.20365 2.89811 0
M  V30 4190 C 415.314 -4.49109 2.8368 0
M  V30 4191 C 414.353 -4.58819 4.05156 0
M  V30 4192 N 413.49 -5.78926 3.97227 0
M  V30 4193 H 418.33 -1.54088 2.5507 0
M  V30 4194 H 415.867 -0.75052 1.26513 0
M  V30 4195 H 417.825 -3.84207 1.62606 0
M  V30 4196 H 416.455 -3.14637 0.721341 0
M  V30 4197 H 415.507 -2.33659 3.00179 0
M  V30 4198 H 416.819 -3.23402 3.79753 0
M  V30 4199 H 415.973 -5.37475 2.81434 0
M  V30 4200 H 414.712 -4.4856 1.91431 0
M  V30 4201 H 413.717 -3.68864 4.077 0
M  V30 4202 H 414.942 -4.61124 4.98539 0
M  V30 4203 H 412.888 -5.79314 3.07785 0
M  V30 4204 H 412.805 -5.83367 4.80853 0
M  V30 4205 H 414.073 -6.69637 3.99007 0
M  V30 4206 N 418.302 -1.35869 -0.798587 0
M  V30 4207 C 419.527 -1.32883 -1.59238 0
M  V30 4208 C 419.952 0.0894587 -1.87887 0
M  V30 4209 O 419.31 1.05869 -1.47178 0
M  V30 4210 C 419.358 -2.14892 -2.89575 0
M  V30 4211 O 418.462 -1.53512 -3.82763 0
M  V30 4212 H 417.803 -0.455236 -0.48338 0
M  V30 4213 H 420.333 -1.79024 -0.990539 0
M  V30 4214 H 420.343 -2.27139 -3.38928 0
M  V30 4215 H 419.018 -3.17998 -2.68049 0
M  V30 4216 H 417.595 -1.50153 -3.41334 0
M  V30 4217 N 419.78 1.02168 -1.19998 0
M  V30 4218 C 421.005 1.79833 -1.03319 0
M  V30 4219 C 421.43 1.83504 0.413281 0
M  V30 4220 O 420.788 1.26635 1.29743 0
M  V30 4221 C 420.836 3.22396 -1.61533 0
M  V30 4222 O 419.94 4.03555 -0.849519 0
M  V30 4223 H 419.281 0.554872 -0.364709 0
M  V30 4224 H 421.811 1.28542 -1.59179 0
M  V30 4225 H 421.821 3.73124 -1.65054 0
M  V30 4226 H 420.496 3.19039 -2.66809 0
M  V30 4227 H 419.073 3.62169 -0.888129 0
M  V30 4228 N 421.258 1.00505 1.21394 0
M  V30 4229 C 422.19 0.52372 2.23136 0
M  V30 4230 C 423.203 -0.387714 1.58116 0
M  V30 4231 O 424.392 -0.187905 1.77508 0
M  V30 4232 C 421.492 -0.258885 3.3791 0
M  V30 4233 C 420.665 0.651634 4.32519 0
M  V30 4234 C 419.724 -0.0813705 5.26137 0
M  V30 4235 O 418.75 0.537295 5.66658 0
M  V30 4236 N 419.952 -1.35992 5.64346 0
M  V30 4237 H 422.717 1.39865 2.65062 0
M  V30 4238 H 420.278 0.881196 1.35818 0
M  V30 4239 H 422.27 -0.758208 3.97534 0
M  V30 4240 H 420.84 -1.035 2.94968 0
M  V30 4241 H 420.06 1.33145 3.71034 0
M  V30 4242 H 421.348 1.27129 4.92662 0
M  V30 4243 H 420.746 -1.88368 5.33417 0
M  V30 4244 H 419.303 -1.8042 6.26332 0
M  V30 4245 N 422.737 -1.36956 0.779787 0
M  V30 4246 C 423.667 -2.32761 0.185651 0
M  V30 4247 C 424.648 -1.56177 -0.673989 0
M  V30 4248 O 425.833 -1.84378 -0.609797 0
M  V30 4249 C 422.963 -3.40418 -0.687964 0
M  V30 4250 C 421.917 -4.27941 0.0710102 0
M  V30 4251 C 421.243 -5.26681 -0.922573 0
M  V30 4252 C 422.543 -5.07006 1.25467 0
M  V30 4253 H 424.237 -2.82698 0.986008 0
M  V30 4254 H 421.783 -1.3592 0.475592 0
M  V30 4255 H 423.736 -4.06423 -1.11348 0
M  V30 4256 H 422.46 -2.89025 -1.52093 0
M  V30 4257 H 421.119 -3.63478 0.47739 0
M  V30 4258 H 420.767 -4.71565 -1.7503 0
M  V30 4259 H 420.467 -5.86103 -0.419237 0
M  V30 4260 H 421.991 -5.9556 -1.34686 0
M  V30 4261 H 423.405 -5.66105 0.905401 0
M  V30 4262 H 421.802 -5.75793 1.69063 0
M  V30 4263 H 422.872 -4.3921 2.05481 0
M  V30 4264 N 424.215 -0.530993 -1.48385 0
M  V30 4265 C 425.445 -0.00133928 -2.066 0
M  V30 4266 C 425.853 1.28599 -1.38777 0
M  V30 4267 O 425.196 1.77599 -0.469495 0
M  V30 4268 C 425.258 0.292137 -3.58311 0
M  V30 4269 C 424.922 -0.901864 -4.48013 0
M  V30 4270 C 425.919 -1.80053 -4.87726 0
M  V30 4271 C 423.604 -1.10915 -4.89901 0
M  V30 4272 C 425.598 -2.89038 -5.68098 0
M  V30 4273 C 423.285 -2.20213 -5.70043 0
M  V30 4274 C 424.283 -3.09107 -6.0905 0
M  V30 4275 O 423.971 -4.16514 -6.87583 0
M  V30 4276 H 423.703 -0.0308475 -0.675296 0
M  V30 4277 H 426.257 -0.736335 -1.91748 0
M  V30 4278 H 424.487 1.08112 -3.7128 0
M  V30 4279 H 426.176 0.763994 -3.98645 0
M  V30 4280 H 426.942 -1.65234 -4.55986 0
M  V30 4281 H 422.821 -0.426498 -4.59023 0
M  V30 4282 H 426.365 -3.58451 -5.98464 0
M  V30 4283 H 422.262 -2.35016 -6.01197 0
M  V30 4284 H 423.03 -4.14237 -7.05939 0
M  V30 4285 N 425.693 1.55336 -0.266172 0
M  V30 4286 C 426.623 2.25146 0.618981 0
M  V30 4287 C 427.604 1.23845 1.16604 0
M  V30 4288 O 428.789 1.52544 1.20183 0
M  V30 4289 C 425.919 2.96572 1.80728 0
M  V30 4290 C 424.873 4.04726 1.39215 0
M  V30 4291 C 424.199 4.63678 2.66283 0
M  V30 4292 C 425.499 5.19407 0.548942 0
M  V30 4293 H 427.193 2.99377 0.0368116 0
M  V30 4294 H 424.739 1.43991 0.0162651 0
M  V30 4295 H 426.692 3.44116 2.43232 0
M  V30 4296 H 425.416 2.19861 2.41514 0
M  V30 4297 H 424.075 3.57979 0.790351 0
M  V30 4298 H 423.723 3.83646 3.25308 0
M  V30 4299 H 423.423 5.367 2.39222 0
M  V30 4300 H 424.947 5.13967 3.29651 0
M  V30 4301 H 426.361 5.63059 1.07876 0
M  V30 4302 H 424.758 5.98936 0.373593 0
M  V30 4303 H 425.828 4.8295 -0.434394 0
M  V30 4304 N 427.171 -0.0066808 1.57599 0
M  V30 4305 C 428.587 -0.36267 1.55425 0
M  V30 4306 C 428.787 -1.75209 0.995187 0
M  V30 4307 O 427.843 -2.44616 0.626058 0
M  V30 4308 C 429.156 -0.244017 2.99708 0
M  V30 4309 C 430.704 -0.319451 3.11366 0
M  V30 4310 C 431.179 -0.229998 4.57422 0
M  V30 4311 N 432.67 -0.288105 4.62303 0
M  V30 4312 C 433.405 -0.242127 5.72889 0
M  V30 4313 N 432.901 -0.147133 6.92644 0
M  V30 4314 N 434.694 -0.293502 5.61333 0
M  V30 4315 H 426.845 0.902314 1.92281 0
M  V30 4316 H 429.108 0.34525 0.882896 0
M  V30 4317 H 428.814 0.711678 3.44424 0
M  V30 4318 H 428.688 -1.02877 3.629 0
M  V30 4319 H 431.075 -1.26559 2.66584 0
M  V30 4320 H 431.156 0.495055 2.50964 0
M  V30 4321 H 430.8 0.712566 5.02877 0
M  V30 4322 H 430.73 -1.0629 5.15761 0
M  V30 4323 H 433.221 -0.363126 3.76151 0
M  V30 4324 H 433.534 -0.117763 7.7271 0
M  V30 4325 H 431.879 -0.112857 6.94908 0
M  V30 4326 H 435.07 -0.365864 4.66668 0
M  V30 4327 H 435.243 -0.254204 6.47501 0
M  V30 4328 N 428.649 -1.55105 -0.279332 0
M  V30 4329 C 429.579 -1.90557 -1.34945 0
M  V30 4330 C 430.56 -0.766738 -1.51839 0
M  V30 4331 O 431.745 -1.02434 -1.64988 0
M  V30 4332 C 428.875 -2.17193 -2.71006 0
M  V30 4333 C 427.829 -3.33021 -2.68851 0
M  V30 4334 C 427.155 -3.45123 -4.08405 0
M  V30 4335 C 428.455 -4.69578 -2.28678 0
M  V30 4336 H 430.149 -2.80188 -1.05522 0
M  V30 4337 H 427.695 -1.34811 -0.506173 0
M  V30 4338 H 429.648 -2.40581 -3.45975 0
M  V30 4339 H 428.372 -1.24355 -3.01999 0
M  V30 4340 H 427.031 -3.0959 -1.9634 0
M  V30 4341 H 426.679 -2.49762 -4.3661 0
M  V30 4342 H 426.379 -4.22995 -4.07859 0
M  V30 4343 H 427.903 -3.70796 -4.85121 0
M  V30 4344 H 429.317 -4.92553 -2.93368 0
M  V30 4345 H 427.714 -5.5032 -2.39306 0
M  V30 4346 H 428.784 -4.68828 -1.23807 0
M  V30 4347 N 430.127 0.543554 -1.4793 0
M  V30 4348 C 431.373 1.30201 -1.55485 0
M  V30 4349 C 431.706 1.92925 -0.222201 0
M  V30 4350 O 430.981 1.78586 0.77053 0
M  V30 4351 C 431.264 2.40174 -2.68307 0
M  V30 4352 C 431.117 1.8223 -4.11233 0
M  V30 4353 C 432.436 3.42024 -2.76961 0
M  V30 4354 H 429.555 0.472036 -0.565996 0
M  V30 4355 H 432.197 0.606914 -1.80046 0
M  V30 4356 H 430.347 2.99463 -2.47495 0
M  V30 4357 H 432.019 1.27096 -4.43446 0
M  V30 4358 H 430.262 1.12832 -4.18869 0
M  V30 4359 H 430.933 2.61793 -4.85972 0
M  V30 4360 H 433.409 2.92672 -2.95774 0
M  V30 4361 H 432.285 4.16383 -3.57654 0
M  V30 4362 H 432.546 4.0173 -1.84568 0
M  V30 4363 N 431.605 1.3629 0.791371 0
M  V30 4364 C 432.515 1.32606 1.93527 0
M  V30 4365 C 433.531 0.228541 1.72493 0
M  V30 4366 O 434.707 0.460571 1.96063 0
M  V30 4367 C 431.772 1.11271 3.28359 0
M  V30 4368 C 430.833 2.3048 3.62185 0
M  V30 4369 C 430.066 2.10154 4.90583 0
M  V30 4370 O 430.289 1.07572 5.60165 0
M  V30 4371 O 429.223 2.97884 5.23019 0
M  V30 4372 H 433.049 2.28909 1.99585 0
M  V30 4373 H 430.634 1.16818 0.931344 0
M  V30 4374 H 432.516 1.01283 4.09047 0
M  V30 4375 H 431.191 0.180292 3.23198 0
M  V30 4376 H 430.098 2.46036 2.81811 0
M  V30 4377 H 431.431 3.22221 3.72068 0
M  V30 4378 N 433.083 -1.0153 1.20538 0
M  V30 4379 C 434.311 -1.78746 1.04199 0
M  V30 4380 C 434.726 -1.84323 -0.408733 0
M  V30 4381 O 434.083 -1.29714 -1.28377 0
M  V30 4382 C 434.134 -3.23152 1.62035 0
M  V30 4383 O 433.855 -3.17918 3.0143 0
M  V30 4384 C 435.356 -4.16911 1.50666 0
M  V30 4385 H 432.576 -0.56208 0.366479 0
M  V30 4386 H 435.12 -1.27794 1.59653 0
M  V30 4387 H 433.275 -3.71248 1.10697 0
M  V30 4388 H 433.689 -4.08567 3.28897 0
M  V30 4389 H 435.163 -5.16072 1.95892 0
M  V30 4390 H 435.64 -4.36791 0.459363 0
M  V30 4391 H 436.246 -3.74698 2.01201 0
M  V30 4392 N 434.561 -1.01147 -1.20859 0
M  V30 4393 C 435.786 -0.716698 -1.94623 0
M  V30 4394 C 436.211 0.715415 -1.73964 0
M  V30 4395 O 435.569 1.49157 -1.03062 0
M  V30 4396 C 435.617 -1.0513 -3.44935 0
M  V30 4397 O 434.721 -0.160131 -4.12089 0
M  V30 4398 H 434.062 -0.266404 -0.608214 0
M  V30 4399 H 436.592 -1.35346 -1.53436 0
M  V30 4400 H 436.602 -1.00086 -3.95533 0
M  V30 4401 H 435.277 -2.09475 -3.59295 0
M  V30 4402 H 433.854 -0.267657 -3.71938 0
M  V30 4403 N 436.039 1.36541 -0.78704 0
M  V30 4404 C 436.969 2.32659 -0.197992 0
M  V30 4405 C 437.95 1.56533 0.665697 0
M  V30 4406 O 439.135 1.84698 0.60001 0
M  V30 4407 C 436.265 3.40778 0.669901 0
M  V30 4408 C 435.219 4.27897 -0.0937039 0
M  V30 4409 C 434.545 5.27163 0.894629 0
M  V30 4410 C 435.845 5.06334 -1.28154 0
M  V30 4411 H 437.539 2.82171 -1.00099 0
M  V30 4412 H 435.085 1.35665 -0.482793 0
M  V30 4413 H 437.038 4.07008 1.09191 0
M  V30 4414 H 435.762 2.89827 1.50558 0
M  V30 4415 H 434.421 3.6322 -0.49666 0
M  V30 4416 H 434.069 4.72486 1.72527 0
M  V30 4417 H 433.769 5.86317 0.388149 0
M  V30 4418 H 435.293 5.96266 1.31525 0
M  V30 4419 H 436.707 5.65617 -0.93541 0
M  V30 4420 H 435.104 5.74888 -1.72115 0
M  V30 4421 H 436.174 4.38114 -2.07807 0
M  V30 4422 N 437.518 0.538854 1.48102 0
M  V30 4423 C 438.465 -0.219042 2.29758 0
M  V30 4424 C 439.435 -0.925562 1.37922 0
M  V30 4425 O 440.62 -0.924855 1.66886 0
M  V30 4426 C 437.76 -1.25452 3.2149 0
M  V30 4427 C 436.873 -0.555943 4.28408 0
M  V30 4428 C 436.008 -1.57512 5.0731 0
M  V30 4429 C 435.047 -0.860498 6.06021 0
M  V30 4430 N 434.184 -1.82564 6.77949 0
M  V30 4431 H 439.024 0.483449 2.94052 0
M  V30 4432 H 436.561 0.250247 1.44956 0
M  V30 4433 H 438.519 -1.86727 3.7308 0
M  V30 4434 H 437.149 -1.92528 2.591 0
M  V30 4435 H 436.201 0.170938 3.80016 0
M  V30 4436 H 437.513 0.00474616 4.988 0
M  V30 4437 H 436.667 -2.26191 5.62959 0
M  V30 4438 H 435.406 -2.16972 4.36778 0
M  V30 4439 H 434.411 -0.159686 5.49568 0
M  V30 4440 H 435.636 -0.271897 6.78555 0
M  V30 4441 H 433.582 -2.40915 6.10161 0
M  V30 4442 H 433.499 -1.31662 7.44447 0
M  V30 4443 H 434.767 -2.50414 7.38182 0
M  V30 4444 N 438.996 -1.55193 0.274407 0
M  V30 4445 C 440.244 -1.99187 -0.341902 0
M  V30 4446 C 440.565 -1.16422 -1.56431 0
M  V30 4447 O 439.835 -0.253573 -1.94252 0
M  V30 4448 H 438.415 -0.735721 -0.129317 0
M  V30 4449 H 441.077 -1.91168 0.379578 0
M  V30 4450 H 440.173 -3.05629 -0.632253 0
M  V30 4451 N 440.474 -0.00167713 -1.576 0
M  V30 4452 C 441.384 1.00548 -2.1196 0
M  V30 4453 C 442.4 1.3758 -1.06526 0
M  V30 4454 O 443.576 1.46278 -1.38436 0
M  V30 4455 C 440.641 2.27809 -2.6135 0
M  V30 4456 C 439.702 1.97074 -3.81393 0
M  V30 4457 C 438.935 3.18267 -4.28417 0
M  V30 4458 O 439.158 4.30009 -3.74765 0
M  V30 4459 O 438.092 3.02167 -5.20556 0
M  V30 4460 H 441.918 0.573373 -2.98238 0
M  V30 4461 H 439.503 0.217255 -1.47812 0
M  V30 4462 H 441.385 3.02568 -2.93309 0
M  V30 4463 H 440.06 2.70254 -1.78169 0
M  V30 4464 H 438.967 1.19785 -3.54404 0
M  V30 4465 H 440.3 1.59464 -4.65652 0
M  V30 4466 N 441.952 1.55251 0.271103 0
M  V30 4467 C 443.368 1.47133 0.618393 0
M  V30 4468 C 443.568 0.686994 1.89427 0
M  V30 4469 O 442.624 0.206609 2.51653 0
M  V30 4470 C 443.937 2.91361 0.743593 0
M  V30 4471 C 445.485 3.01587 0.837522 0
M  V30 4472 C 445.96 4.47073 0.994483 0
M  V30 4473 N 447.451 4.50909 1.05996 0
M  V30 4474 C 448.186 5.60698 1.20024 0
M  V30 4475 N 447.682 6.80348 1.30759 0
M  V30 4476 N 449.475 5.48444 1.23149 0
M  V30 4477 H 441.626 2.04698 -0.566784 0
M  V30 4478 H 443.889 0.928319 -0.192165 0
M  V30 4479 H 443.595 3.51483 -0.123493 0
M  V30 4480 H 443.469 3.40484 1.62328 0
M  V30 4481 H 445.856 2.4156 1.69507 0
M  V30 4482 H 445.937 2.55713 -0.0668086 0
M  V30 4483 H 445.581 5.07703 0.141582 0
M  V30 4484 H 445.511 4.90605 1.91349 0
M  V30 4485 H 448.002 3.6472 0.989316 0
M  V30 4486 H 448.315 7.59772 1.41303 0
M  V30 4487 H 446.66 6.83156 1.27761 0
M  V30 4488 H 449.851 4.53907 1.14394 0
M  V30 4489 H 450.024 6.34049 1.33738 0
M  V30 4490 N 443.43 -0.535701 1.48216 0
M  V30 4491 C 444.679 -1.28828 1.55197 0
M  V30 4492 C 444.992 -1.94263 0.228278 0
M  V30 4493 O 446.198 -2.70927 0.176278 0
M  V30 4494 C 444.654 -2.33727 2.73678 0
M  V30 4495 C 444.262 -1.74386 4.12666 0
M  V30 4496 C 446.006 -3.1003 2.89968 0
M  V30 4497 C 443.913 -2.77192 5.22416 0
M  V30 4498 H 442.843 -0.484484 0.577747 0
M  V30 4499 H 445.494 -0.56646 1.74538 0
M  V30 4500 H 443.876 -3.08919 2.4776 0
M  V30 4501 H 445.05 -1.05421 4.48579 0
M  V30 4502 H 443.365 -1.10595 4.01445 0
M  V30 4503 H 445.962 -3.86842 3.6913 0
M  V30 4504 H 446.305 -3.65542 1.9921 0
M  V30 4505 H 446.838 -2.41952 3.15759 0
M  V30 4506 H 443.577 -2.26507 6.15122 0
M  V30 4507 H 443.097 -3.44502 4.90998 0
M  V30 4508 H 444.776 -3.40285 5.50286 0
M  V30 4509 N 444.908 -1.36708 -0.784132 0
M  V30 4510 C 445.838 -1.34153 -1.91116 0
M  V30 4511 C 446.819 -0.212121 -1.68772 0
M  V30 4512 O 448.004 -0.410581 -1.8981 0
M  V30 4513 C 445.134 -1.13535 -3.28218 0
M  V30 4514 C 444.088 -2.23356 -3.65097 0
M  V30 4515 C 443.414 -1.87875 -5.00607 0
M  V30 4516 C 444.714 -3.65473 -3.73131 0
M  V30 4517 H 446.408 -2.28459 -1.93512 0
M  V30 4518 H 443.954 -1.09973 -0.929618 0
M  V30 4519 H 445.907 -1.10381 -4.06687 0
M  V30 4520 H 444.631 -0.156804 -3.26223 0
M  V30 4521 H 443.29 -2.25645 -2.88929 0
M  V30 4522 H 442.938 -0.885814 -4.95139 0
M  V30 4523 H 442.638 -2.61406 -5.26252 0
M  V30 4524 H 444.162 -1.86286 -5.81489 0
M  V30 4525 H 445.576 -3.65382 -4.41779 0
M  V30 4526 H 443.973 -4.37953 -4.10265 0
M  V30 4527 H 445.043 -3.99995 -2.74102 0
M  V30 4528 N 446.386 1.0089 -1.21074 0
M  V30 4529 C 447.634 1.74262 -1.02358 0
M  V30 4530 C 447.955 1.89869 0.444393 0
M  V30 4531 O 447.225 1.44677 1.32081 0
M  V30 4532 H 445.805 0.645615 -0.375754 0
M  V30 4533 H 448.467 1.21596 -1.52317 0
M  V30 4534 H 447.563 2.74328 -1.4883 0
M  V30 4535 N 447.864 1.01787 1.20321 0
M  V30 4536 C 449.094 0.72614 1.93419 0
M  V30 4537 C 449.502 -0.717317 1.75075 0
M  V30 4538 O 448.845 -1.49836 1.06278 0
M  V30 4539 C 448.907 0.983621 3.45782 0
M  V30 4540 C 448.571 2.41645 3.87888 0
M  V30 4541 C 449.568 3.39732 3.93545 0
M  V30 4542 C 447.253 2.75752 4.19841 0
M  V30 4543 C 449.247 4.69988 4.30569 0
M  V30 4544 C 446.934 4.06221 4.56539 0
M  V30 4545 C 447.932 5.0315 4.61876 0
M  V30 4546 O 447.62 6.31284 4.97731 0
M  V30 4547 H 447.352 0.265824 0.621541 0
M  V30 4548 H 449.906 1.3623 1.53722 0
M  V30 4549 H 448.136 0.290301 3.85609 0
M  V30 4550 H 449.825 0.683279 4.00108 0
M  V30 4551 H 450.591 3.14718 3.69022 0
M  V30 4552 H 446.47 2.00993 4.14877 0
M  V30 4553 H 450.014 5.45642 4.3465 0
M  V30 4554 H 445.911 4.31013 4.80518 0
M  V30 4555 H 446.679 6.35591 5.15719 0
M  V30 4556 N 449.342 -1.36122 0.79427 0
M  V30 4557 C 450.305 -2.28309 0.201889 0
M  V30 4558 C 451.305 -1.49041 -0.603603 0
M  V30 4559 O 452.495 -1.68964 -0.423888 0
M  V30 4560 C 449.627 -3.3321 -0.719978 0
M  V30 4561 H 450.82 -2.82208 1.01481 0
M  V30 4562 H 448.373 -1.45768 0.564037 0
M  V30 4563 H 449.108 -2.84475 -1.55706 0
M  V30 4564 H 448.893 -3.91835 -0.144266 0
M  V30 4565 H 450.383 -4.02044 -1.12916 0
M  V30 4566 N 450.82 -0.546701 -1.47814 0
M  V30 4567 C 451.73 0.21026 -2.33656 0
M  V30 4568 C 452.746 0.922413 -1.47538 0
M  V30 4569 O 453.922 0.893652 -1.80488 0
M  V30 4570 C 450.987 1.23348 -3.24016 0
M  V30 4571 C 450.048 0.529883 -4.26017 0
M  V30 4572 C 449.281 1.50435 -5.12059 0
M  V30 4573 O 449.504 2.73837 -5.00369 0
M  V30 4574 O 448.438 1.03459 -5.92942 0
M  V30 4575 H 452.264 -0.493605 -2.99662 0
M  V30 4576 H 449.849 -0.307427 -1.46203 0
M  V30 4577 H 451.731 1.82438 -3.79861 0
M  V30 4578 H 450.406 1.91945 -2.60651 0
M  V30 4579 H 449.313 -0.101948 -3.73961 0
M  V30 4580 H 450.646 -0.11445 -4.92067 0
M  V30 4581 N 452.299 1.55045 -0.282633 0
M  V30 4582 C 453.209 2.26491 0.61147 0
M  V30 4583 C 454.225 1.29348 1.16384 0
M  V30 4584 O 455.401 1.62298 1.19253 0
M  V30 4585 C 452.466 2.97779 1.77563 0
M  V30 4586 C 451.527 4.10418 1.25919 0
M  V30 4587 C 450.76 4.78297 2.36786 0
M  V30 4588 O 450.983 4.45426 3.56303 0
M  V30 4589 O 449.917 5.66089 2.04517 0
M  V30 4590 H 453.743 3.03683 0.0324615 0
M  V30 4591 H 451.328 1.49317 -0.0497576 0
M  V30 4592 H 453.21 3.42554 2.45427 0
M  V30 4593 H 451.885 2.23498 2.34159 0
M  V30 4594 H 450.792 3.70082 0.546797 0
M  V30 4595 H 452.125 4.86622 0.738887 0
M  V30 4596 N 453.777 0.010035 1.57597 0
M  V30 4597 C 455.188 -0.531426 1.78977 0
M  V30 4598 C 455.539 -1.73375 0.918454 0
M  V30 4599 O 454.664 -2.16047 0.123635 0
M  V30 4600 C 455.259 -0.97086 3.24592 0
M  V30 4601 C 453.818 -1.45756 3.47033 0
M  V30 4602 C 452.965 -0.413384 2.74201 0
M  V30 4603 H 455.916 0.236166 1.56933 0
M  V30 4604 H 455.937 -1.83633 3.33255 0
M  V30 4605 H 455.449 -0.0955893 3.87982 0
M  V30 4606 H 453.55 -2.35339 2.88871 0
M  V30 4607 H 453.663 -1.4781 4.55729 0
M  V30 4608 H 452.027 -0.877266 2.39115 0
M  V30 4609 H 452.81 0.453092 3.40297 0
M  V30 4610 N 455.255 -1.55392 -0.262866 0
M  V30 4611 C 456.495 -1.78231 -1.00064 0
M  V30 4612 C 456.859 -0.576966 -1.83126 0
M  V30 4613 O 458.06 -0.683809 -2.59957 0
M  V30 4614 C 456.331 -3.05701 -1.85153 0
M  V30 4615 S 457.89 -3.49699 -2.65058 0
M  V30 4616 H 454.708 -0.626138 -0.336856 0
M  V30 4617 H 457.31 -1.93626 -0.27005 0
M  V30 4618 H 456.014 -3.91511 -1.23074 0
M  V30 4619 H 455.545 -2.93 -2.62515 0
M  V30 4620 H 457.56 -3.09772 -3.87629 0
M  V30 4621 N 456.733 0.527833 -1.48498 0
M  V30 4622 C 457.963 1.30633 -1.60058 0
M  V30 4623 C 458.371 1.87394 -0.260786 0
M  V30 4624 O 457.714 1.67227 0.760317 0
M  V30 4625 C 457.776 2.49361 -2.58958 0
M  V30 4626 C 457.44 2.13671 -4.03972 0
M  V30 4627 C 458.437 1.69217 -4.91591 0
M  V30 4628 C 456.122 2.24129 -4.49524 0
M  V30 4629 C 458.116 1.35689 -6.2279 0
M  V30 4630 C 455.803 1.90212 -5.80743 0
M  V30 4631 C 456.801 1.46063 -6.67199 0
M  V30 4632 O 456.489 1.12593 -7.95976 0
M  V30 4633 H 456.221 0.403444 -0.54241 0
M  V30 4634 H 458.775 0.643233 -1.95068 0
M  V30 4635 H 457.005 3.18659 -2.19073 0
M  V30 4636 H 458.694 3.11421 -2.6033 0
M  V30 4637 H 459.46 1.60607 -4.57636 0
M  V30 4638 H 455.339 2.57447 -3.82416 0
M  V30 4639 H 458.883 1.01157 -6.90227 0
M  V30 4640 H 454.78 1.98464 -6.14233 0
M  V30 4641 H 455.548 1.25972 -8.08748 0
M  V30 4642 N 458.211 1.37122 0.776871 0
M  V30 4643 C 459.141 1.35164 1.90402 0
M  V30 4644 C 460.122 0.221069 1.68657 0
M  V30 4645 O 461.307 0.420642 1.8959 0
M  V30 4646 C 458.437 1.15274 3.27611 0
M  V30 4647 C 457.391 2.25289 3.63908 0
M  V30 4648 C 456.717 1.90527 4.99603 0
M  V30 4649 C 458.017 3.67446 3.71188 0
M  V30 4650 H 459.711 2.29482 1.92297 0
M  V30 4651 H 457.257 1.10465 0.923773 0
M  V30 4652 H 459.21 1.12536 4.06096 0
M  V30 4653 H 457.934 0.174102 3.26136 0
M  V30 4654 H 456.593 2.27174 2.87728 0
M  V30 4655 H 456.241 0.91206 4.94662 0
M  V30 4656 H 455.941 2.64193 5.24858 0
M  V30 4657 H 457.465 1.89367 5.80493 0
M  V30 4658 H 458.879 3.67719 4.39836 0
M  V30 4659 H 457.276 4.40123 4.07936 0
M  V30 4660 H 458.346 4.01443 2.71977 0
M  V30 4661 N 459.689 -1.00246 1.21608 0
M  V30 4662 C 460.935 -1.74417 1.04643 0
M  V30 4663 C 461.29 -1.87862 -0.415387 0
M  V30 4664 O 460.583 -1.40373 -1.30407 0
M  V30 4665 C 460.777 -3.15448 1.68009 0
M  V30 4666 C 460.606 -3.15755 3.20201 0
M  V30 4667 C 459.376 -3.2219 3.89258 0
M  V30 4668 C 461.574 -3.00668 4.17257 0
M  V30 4669 N 459.556 -3.1215 5.28617 0
M  V30 4670 C 460.927 -2.98553 5.43384 0
M  V30 4671 C 462.982 -2.84989 4.08272 0
M  V30 4672 C 461.685 -2.82364 6.61561 0
M  V30 4673 C 463.711 -2.70158 5.26088 0
M  V30 4674 C 463.073 -2.68721 6.51128 0
M  V30 4675 H 459.172 -0.648317 0.437274 0
M  V30 4676 H 461.756 -1.19129 1.54001 0
M  V30 4677 H 459.927 -3.69001 1.21215 0
M  V30 4678 H 461.659 -3.78128 1.44226 0
M  V30 4679 H 458.414 -3.29488 3.40198 0
M  V30 4680 H 458.838 -3.10465 6.01615 0
M  V30 4681 H 463.48 -2.84904 3.12393 0
M  V30 4682 H 461.198 -2.81196 7.57598 0
M  V30 4683 H 464.784 -2.59022 5.20959 0
M  V30 4684 H 463.664 -2.57382 7.40759 0
M  V30 4685 N 461.167 -1.02423 -1.1978 0
M  V30 4686 C 462.414 -0.717988 -1.89344 0
M  V30 4687 C 462.742 0.753036 -1.79331 0
M  V30 4688 O 461.997 1.56355 -1.17692 0
M  V30 4689 C 462.296 -1.1088 -3.39765 0
M  V30 4690 C 461.962 -2.57731 -3.6998 0
M  V30 4691 C 460.624 -2.97854 -3.77937 0
M  V30 4692 C 462.976 -3.52763 -3.83677 0
M  V30 4693 C 460.304 -4.31931 -3.97054 0
M  V30 4694 C 462.656 -4.86538 -4.04306 0
M  V30 4695 C 461.32 -5.26356 -4.10494 0
M  V30 4696 H 460.59 -0.26273 -0.692859 0
M  V30 4697 H 463.237 -1.28623 -1.41875 0
M  V30 4698 H 461.542 -0.459094 -3.89101 0
M  V30 4699 H 463.239 -0.849432 -3.919 0
M  V30 4700 H 459.829 -2.25646 -3.64393 0
M  V30 4701 H 464.013 -3.2292 -3.76877 0
M  V30 4702 H 459.269 -4.62324 -4.00083 0
M  V30 4703 H 463.443 -5.60093 -4.13846 0
M  V30 4704 H 461.07 -6.3026 -4.2506 0
M  V30 4705 N 462.645 1.35699 -0.801477 0
M  V30 4706 C 463.891 1.99208 -0.380022 0
M  V30 4707 C 464.224 1.63445 1.04878 0
M  V30 4708 O 463.499 0.895223 1.72673 0
M  V30 4709 C 463.782 3.55755 -0.557708 0
M  V30 4710 C 463.635 4.01332 -2.03107 0
M  V30 4711 C 464.954 4.40096 0.0197968 0
M  V30 4712 H 462.073 0.723667 -0.139552 0
M  V30 4713 H 464.715 1.60928 -1.01006 0
M  V30 4714 H 462.865 3.88494 -0.0213741 0
M  V30 4715 H 464.537 3.79026 -2.62939 0
M  V30 4716 H 462.78 3.52429 -2.52936 0
M  V30 4717 H 463.451 5.10234 -2.1063 0
M  V30 4718 H 465.927 4.13786 -0.438179 0
M  V30 4719 H 464.803 5.48735 -0.134477 0
M  V30 4720 H 465.064 4.2786 1.11303 0
M  V30 4721 N 464.123 0.554532 1.47522 0
M  V30 4722 C 465.056 -0.242442 2.26908 0
M  V30 4723 C 466.034 -0.922722 1.33883 0
M  V30 4724 O 467.218 -0.942244 1.63261 0
M  V30 4725 C 464.345 -1.34525 3.10839 0
M  V30 4726 C 463.391 -0.773805 4.19422 0
M  V30 4727 S 464.224 0.377525 5.34168 0
M  V30 4728 C 465.38 -0.727164 6.21662 0
M  V30 4729 H 465.613 0.431218 2.94156 0
M  V30 4730 H 463.146 0.3408 1.50592 0
M  V30 4731 H 465.104 -1.97683 3.59766 0
M  V30 4732 H 463.765 -1.99073 2.42958 0
M  V30 4733 H 462.958 -1.60187 4.77866 0
M  V30 4734 H 462.56 -0.218448 3.73361 0
M  V30 4735 H 464.852 -1.61992 6.57849 0
M  V30 4736 H 465.795 -0.180135 7.07871 0
M  V30 4737 H 466.203 -1.01863 5.55233 0
M  V30 4738 N 465.601 -1.54893 0.290851 0
M  V30 4739 C 466.511 -2.26812 -0.59945 0
M  V30 4740 C 467.527 -1.29963 -1.15696 0
M  V30 4741 O 468.703 -1.62928 -1.18391 0
M  V30 4742 C 465.768 -2.98716 -1.75982 0
M  V30 4743 C 464.829 -4.1108 -1.2374 0
M  V30 4744 C 464.062 -4.79546 -2.34246 0
M  V30 4745 O 464.285 -4.47309 -3.53936 0
M  V30 4746 O 463.219 -5.67165 -2.01512 0
M  V30 4747 H 467.045 -3.03696 -0.0163561 0
M  V30 4748 H 464.63 -1.49289 0.0576755 0
M  V30 4749 H 466.512 -3.43851 -2.43607 0
M  V30 4750 H 465.187 -2.24737 -2.3297 0
M  V30 4751 H 464.094 -3.70367 -0.527163 0
M  V30 4752 H 465.427 -4.87007 -0.71307 0
M  V30 4753 N 467.08 -0.0183926 -1.57589 0
M  V30 4754 C 468.327 0.662562 -1.91354 0
M  V30 4755 C 468.655 1.72747 -0.893788 0
M  V30 4756 O 467.91 1.9545 0.0988509 0
M  V30 4757 C 468.209 1.32676 -3.31861 0
M  V30 4758 C 467.875 0.393267 -4.49182 0
M  V30 4759 C 466.537 0.136302 -4.81007 0
M  V30 4760 C 468.889 -0.248366 -5.20608 0
M  V30 4761 C 466.217 -0.770282 -5.81621 0
M  V30 4762 C 468.569 -1.14294 -6.22189 0
M  V30 4763 C 467.233 -1.4089 -6.52462 0
M  V30 4764 H 466.503 0.242448 -0.700214 0
M  V30 4765 H 469.15 -0.0778629 -1.91342 0
M  V30 4766 H 467.455 2.14168 -3.28084 0
M  V30 4767 H 469.152 1.86001 -3.55253 0
M  V30 4768 H 465.742 0.603723 -4.24327 0
M  V30 4769 H 469.926 -0.062883 -4.9626 0
M  V30 4770 H 465.182 -0.984154 -6.03427 0
M  V30 4771 H 469.356 -1.64637 -6.76659 0
M  V30 4772 H 466.983 -2.11306 -7.30242 0
M  V30 4773 N 468.558 1.5553 0.254621 0
M  V30 4774 C 469.798 1.7876 0.991179 0
M  V30 4775 C 470.162 0.586669 1.82817 0
M  V30 4776 O 471.363 0.697585 2.5959 0
M  V30 4777 C 469.634 3.06679 1.83529 0
M  V30 4778 S 471.193 3.511 2.632 0
M  V30 4779 H 468.011 0.627916 0.333531 0
M  V30 4780 H 470.613 1.93766 0.259778 0
M  V30 4781 H 469.317 3.92158 1.20996 0
M  V30 4782 H 468.848 2.94388 2.60958 0
M  V30 4783 H 470.863 3.11823 3.8598 0
M  V30 4784 N 470.036 -0.519951 1.48776 0
M  V30 4785 C 470.946 -1.65025 1.66745 0
M  V30 4786 C 471.962 -1.6508 0.549954 0
M  V30 4787 O 473.138 -1.83848 0.822295 0
M  V30 4788 C 470.203 -3.0146 1.71238 0
M  V30 4789 C 469.264 -3.12182 2.94688 0
M  V30 4790 C 468.497 -4.42109 2.98958 0
M  V30 4791 O 468.72 -5.29799 2.1135 0
M  V30 4792 O 467.654 -4.57406 3.91233 0
M  V30 4793 H 471.48 -1.52801 2.62461 0
M  V30 4794 H 469.065 -0.694157 1.32294 0
M  V30 4795 H 470.947 -3.82584 1.76657 0
M  V30 4796 H 469.622 -3.13988 0.786975 0
M  V30 4797 H 468.529 -2.30316 2.94797 0
M  V30 4798 H 469.862 -3.04574 3.86646 0
M  V30 4799 N 471.514 -1.37532 -0.769588 0
M  V30 4800 C 472.762 -1.32597 -1.5252 0
M  V30 4801 C 473.083 0.0884294 -1.94799 0
M  V30 4802 O 472.353 1.03289 -1.66458 0
M  V30 4803 H 470.933 -0.487846 -0.565699 0
M  V30 4804 H 473.595 -1.72044 -0.915806 0
M  V30 4805 H 472.691 -1.96643 -2.42359 0
M  V30 4806 N 472.992 0.995999 -1.22138 0
M  V30 4807 C 474.24 1.73167 -1.042 0
M  V30 4808 C 474.561 1.90329 0.42423 0
M  V30 4809 O 473.831 1.4607 1.30539 0
M  V30 4810 H 472.411 0.641593 -0.38258 0
M  V30 4811 H 475.073 1.19974 -1.53598 0
M  V30 4812 H 474.169 2.72734 -1.51731 0
M  V30 4813 N 474.47 1.03057 1.19235 0
M  V30 4814 C 475.747 0.642608 1.84743 0
M  V30 4815 C 476.127 -0.878577 1.91948 0
M  V30 4816 O 475.475 -1.77597 1.43776 0
M  V30 4817 C 475.685 1.30665 3.23616 0
M  V30 4818 C 477.033 1.43098 3.9976 0
M  V30 4819 O 478.057 1.26396 3.3302 0
M  V30 4820 O 476.916 1.70223 5.19313 0
M  V30 4821 H 474.01 0.223573 0.796206 0
M  V30 4822 H 476.556 1.12883 1.26711 0
M  V30 4823 H 475.328 2.34544 3.13217 0
M  V30 4824 H 474.951 0.808405 3.89295 0
M  V30 4825 N 475.948 -1.35272 0.808662 0
M  V30 4826 C 476.878 -2.32315 0.234981 0
M  V30 4827 C 477.859 -1.57572 -0.64071 0
M  V30 4828 O 479.044 -1.8563 -0.570551 0
M  V30 4829 C 476.174 -3.41801 -0.615601 0
M  V30 4830 C 475.128 -4.27694 0.161767 0
M  V30 4831 C 474.454 -5.28519 -0.810649 0
M  V30 4832 C 475.754 -5.04231 1.36193 0
M  V30 4833 H 477.448 -2.80543 1.04575 0
M  V30 4834 H 474.994 -1.3488 0.504315 0
M  V30 4835 H 476.947 -4.08693 -1.02702 0
M  V30 4836 H 475.671 -2.92186 -1.45928 0
M  V30 4837 H 474.33 -3.62384 0.554382 0
M  V30 4838 H 473.978 -4.75171 -1.64988 0
M  V30 4839 H 473.678 -5.8686 -0.294822 0
M  V30 4840 H 475.202 -5.98283 -1.22023 0
M  V30 4841 H 476.616 -5.64058 1.02528 0
M  V30 4842 H 475.013 -5.72077 1.81239 0
M  V30 4843 H 476.083 -4.34753 2.14751 0
M  V30 4844 N 477.426 -0.562348 -1.47226 0
M  V30 4845 C 478.374 0.195476 -2.31777 0
M  V30 4846 C 479.368 0.90433 -1.43242 0
M  V30 4847 O 480.574 0.825031 -1.59979 0
M  V30 4848 H 476.949 0.0819095 -0.747526 0
M  V30 4849 H 478.92 -0.536753 -2.93533 0
M  V30 4850 C 477.669 1.20902 -3.26003 0
M  V30 4851 H 476.992 0.672997 -3.94095 0
M  V30 4852 H 478.432 1.71006 -3.87986 0
M  V30 4853 C 476.891 2.25955 -2.49891 0
M  V30 4854 O 477.421 3.32969 -2.2471 0
M  V30 4855 N 475.627 2.00019 -2.1081 0
M  V30 4856 H 475.174 1.13006 -2.31489 0
M  V30 4857 H 475.132 2.70523 -1.60201 0
M  V30 4858 N 478.904 1.54736 -0.299062 0
M  V30 4859 C 479.836 2.20891 0.61153 0
M  V30 4860 C 480.849 1.20104 1.09904 0
M  V30 4861 O 482.038 1.46707 1.01683 0
M  V30 4862 C 479.138 2.84018 1.84897 0
M  V30 4863 C 478.311 4.10719 1.50428 0
M  V30 4864 C 477.37 4.57667 2.59667 0
M  V30 4865 O 476.396 5.2291 2.24842 0
M  V30 4866 N 477.598 4.29821 3.90172 0
M  V30 4867 H 480.363 2.99666 0.0452001 0
M  V30 4868 H 477.924 1.61446 -0.121178 0
M  V30 4869 H 479.916 3.1236 2.5732 0
M  V30 4870 H 478.486 2.09095 2.32375 0
M  V30 4871 H 477.706 3.89408 0.612781 0
M  V30 4872 H 478.994 4.93223 1.24934 0
M  V30 4873 H 478.392 3.77549 4.21276 0
M  V30 4874 H 476.949 4.62877 4.58899 0
M  V30 4875 N 480.382 0.0267497 1.57577 0
M  V30 4876 C 481.612 -0.6617 1.95717 0
M  V30 4877 C 482.02 -1.66331 0.901706 0
M  V30 4878 O 481.363 -1.83273 -0.125241 0
M  V30 4879 C 481.425 -1.42649 3.29987 0
M  V30 4880 C 481.089 -0.583482 4.5326 0
M  V30 4881 C 482.086 0.140221 5.19711 0
M  V30 4882 C 479.771 -0.521581 4.99585 0
M  V30 4883 C 481.765 0.914523 6.30805 0
M  V30 4884 C 479.452 0.256428 6.10562 0
M  V30 4885 C 480.45 0.973189 6.76031 0
M  V30 4886 O 480.138 1.73845 7.84878 0
M  V30 4887 H 479.87 -0.187483 0.649481 0
M  V30 4888 H 482.424 0.0820847 2.05236 0
M  V30 4889 H 480.654 -2.21536 3.16952 0
M  V30 4890 H 482.343 -2.00282 3.53047 0
M  V30 4891 H 483.109 0.101716 4.84893 0
M  V30 4892 H 478.988 -1.06904 4.48433 0
M  V30 4893 H 482.532 1.4745 6.81839 0
M  V30 4894 H 478.429 0.296657 6.44818 0
M  V30 4895 H 479.197 1.65797 8.01532 0
M  V30 4896 N 481.861 -1.55662 -0.24637 0
M  V30 4897 C 483.107 -1.77782 -0.975779 0
M  V30 4898 C 483.44 -0.592103 -1.84953 0
M  V30 4899 O 482.715 0.409588 -1.90138 0
M  V30 4900 C 482.998 -3.09788 -1.83584 0
M  V30 4901 C 482.851 -4.38764 -0.990241 0
M  V30 4902 C 484.17 -3.38029 -2.81823 0
M  V30 4903 H 481.289 -0.646789 -0.353317 0
M  V30 4904 H 483.931 -1.88398 -0.246248 0
M  V30 4905 H 482.081 -3.00869 -2.45784 0
M  V30 4906 H 483.753 -4.59675 -0.386897 0
M  V30 4907 H 481.996 -4.32798 -0.294626 0
M  V30 4908 H 482.667 -5.27514 -1.62584 0
M  V30 4909 H 485.143 -3.46915 -2.2976 0
M  V30 4910 H 484.019 -4.3161 -3.39122 0
M  V30 4911 H 484.28 -2.58968 -3.58313 0
M  V30 4912 N 483.339 0.512053 -1.4905 0
M  V30 4913 C 484.269 1.62365 -1.67809 0
M  V30 4914 C 485.25 1.61737 -0.526809 0
M  V30 4915 O 486.435 1.78651 -0.761404 0
M  V30 4916 C 483.565 3.00895 -1.73435 0
M  V30 4917 C 482.519 3.16387 -2.88242 0
M  V30 4918 C 481.845 4.56157 -2.78971 0
M  V30 4919 C 483.145 2.97457 -4.29321 0
M  V30 4920 H 484.839 1.46921 -2.60873 0
M  V30 4921 H 482.385 0.705379 -1.2554 0
M  V30 4922 H 484.338 3.78549 -1.85145 0
M  V30 4923 H 483.062 3.17403 -0.769619 0
M  V30 4924 H 481.721 2.41155 -2.76116 0
M  V30 4925 H 481.369 4.69525 -1.8043 0
M  V30 4926 H 481.069 4.67465 -3.5602 0
M  V30 4927 H 482.593 5.35886 -2.92675 0
M  V30 4928 H 484.007 3.64888 -4.42187 0
M  V30 4929 H 482.404 3.20245 -5.07507 0
M  V30 4930 H 483.474 1.93692 -4.44535 0
M  V30 4931 N 484.817 1.37938 0.762283 0
M  V30 4932 C 486.042 1.37059 1.55659 0
M  V30 4933 C 486.467 -0.0396123 1.88058 0
M  V30 4934 O 485.825 -1.01929 1.49934 0
M  V30 4935 C 485.873 2.22494 2.83776 0
M  V30 4936 O 484.977 1.63607 3.78559 0
M  V30 4937 H 484.318 0.467892 0.47114 0
M  V30 4938 H 486.848 1.81587 0.942725 0
M  V30 4939 H 486.858 2.36045 3.32786 0
M  V30 4940 H 485.533 3.24993 2.59524 0
M  V30 4941 H 484.11 1.5915 3.37233 0
M  V30 4942 N 486.295 -0.989507 1.22664 0
M  V30 4943 C 487.711 -1.25395 0.987331 0
M  V30 4944 C 487.911 -1.9899 -0.317056 0
M  V30 4945 O 486.967 -2.30141 -1.03882 0
M  V30 4946 C 488.28 -2.06242 2.18826 0
M  V30 4947 C 489.828 -2.19413 2.23219 0
M  V30 4948 C 490.303 -3.03648 3.42873 0
M  V30 4949 N 491.794 -3.11234 3.43056 0
M  V30 4950 C 492.529 -3.7671 4.32293 0
M  V30 4951 N 492.025 -4.44085 5.31752 0
M  V30 4952 N 493.818 -3.73505 4.2006 0
M  V30 4953 H 485.969 -0.496212 2.06522 0
M  V30 4954 H 488.232 -0.281784 0.905153 0
M  V30 4955 H 487.938 -1.59531 3.13437 0
M  V30 4956 H 487.812 -3.06996 2.19165 0
M  V30 4957 H 490.199 -2.65336 1.29154 0
M  V30 4958 H 490.28 -1.18078 2.26917 0
M  V30 4959 H 489.924 -2.58424 4.37241 0
M  V30 4960 H 489.854 -4.05132 3.36416 0
M  V30 4961 H 492.345 -2.63287 2.71088 0
M  V30 4962 H 492.658 -4.91797 5.96117 0
M  V30 4963 H 491.003 -4.42822 5.35662 0
M  V30 4964 H 494.194 -3.20033 3.41609 0
M  V30 4965 H 494.367 -4.24253 4.8981 0
M  V30 4966 N 487.773 -1.03688 -1.18687 0
M  V30 4967 C 489.189 -0.755413 -1.4059 0
M  V30 4968 C 489.389 0.656659 -1.905 0
M  V30 4969 O 488.445 1.42144 -2.08689 0
M  V30 4970 C 489.758 -1.7983 -2.41001 0
M  V30 4971 C 491.306 -1.81877 -2.54735 0
M  V30 4972 C 491.781 -2.85148 -3.58406 0
M  V30 4973 N 493.272 -2.84015 -3.6591 0
M  V30 4974 C 494.007 -3.60573 -4.45841 0
M  V30 4975 N 493.503 -4.46871 -5.29413 0
M  V30 4976 N 495.296 -3.49079 -4.40568 0
M  V30 4977 H 487.447 -1.94818 -0.846148 0
M  V30 4978 H 489.71 -0.842727 -0.434184 0
M  V30 4979 H 489.416 -2.81097 -2.1137 0
M  V30 4980 H 489.29 -1.62727 -3.40294 0
M  V30 4981 H 491.677 -0.812836 -2.83685 0
M  V30 4982 H 491.758 -2.03057 -1.55568 0
M  V30 4983 H 491.402 -3.85918 -3.30197 0
M  V30 4984 H 491.332 -2.61224 -4.57241 0
M  V30 4985 H 493.823 -2.21431 -3.0623 0
M  V30 4986 H 494.136 -5.02007 -5.87545 0
M  V30 4987 H 492.481 -4.5094 -5.28846 0
M  V30 4988 H 495.672 -2.81066 -3.74325 0
M  V30 4989 H 495.845 -4.08994 -5.02621 0
M  V30 4990 N 489.251 1.34841 -0.815825 0
M  V30 4991 C 490.662 1.80937 -0.46029 0
M  V30 4992 C 491.013 1.67685 1.01863 0
M  V30 4993 O 490.138 1.21277 1.79223 0
M  V30 4994 C 490.733 3.28509 -0.828708 0
M  V30 4995 C 489.292 3.72712 -0.525644 0
M  V30 4996 C 488.439 2.56676 -1.04941 0
M  V30 4997 H 491.39 1.22688 -1.00664 0
M  V30 4998 H 491.411 3.80279 -0.129757 0
M  V30 4999 H 490.923 3.38122 -1.90513 0
M  V30 5000 H 489.024 3.68642 0.541666 0
M  V30 5001 H 489.137 4.67119 -1.06474 0
M  V30 5002 H 487.501 2.50302 -0.471286 0
M  V30 5003 H 488.284 2.69063 -2.13214 0
M  V30 5004 N 490.729 0.570148 1.46925 0
M  V30 5005 C 492.006 -0.0153259 1.95594 0
M  V30 5006 C 492.386 -1.47232 1.51281 0
M  V30 5007 O 491.734 -2.15574 0.757624 0
M  V30 5008 C 491.944 0.143624 3.48704 0
M  V30 5009 C 493.292 0.00494484 4.246 0
M  V30 5010 O 494.316 0.0718214 3.56128 0
M  V30 5011 O 493.175 -0.141175 5.46318 0
M  V30 5012 H 490.269 -0.0568819 0.825041 0
M  V30 5013 H 492.815 0.637583 1.57267 0
M  V30 5014 H 491.587 1.15699 3.73804 0
M  V30 5015 H 491.21 -0.5463 3.93829 0
M  V30 5016 N 492.207 -1.54576 0.307264 0
M  V30 5017 C 493.618 -1.8579 -0.184121 0
M  V30 5018 C 493.969 -1.22914 -1.52927 0
M  V30 5019 O 493.094 -0.529126 -2.09831 0
M  V30 5020 C 493.689 -3.37081 -0.340862 0
M  V30 5021 C 492.248 -3.68304 -0.776465 0
M  V30 5022 C 491.395 -2.77076 0.111503 0
M  V30 5023 H 494.346 -1.49656 0.528078 0
M  V30 5024 H 494.367 -3.61922 -1.17443 0
M  V30 5025 H 493.879 -3.82815 0.638309 0
M  V30 5026 H 491.98 -3.28092 -1.76596 0
M  V30 5027 H 492.093 -4.75434 -0.591512 0
M  V30 5028 H 490.457 -2.51374 -0.410256 0
M  V30 5029 H 491.24 -3.25632 1.08714 0
M  V30 5030 N 493.685 -0.035106 -1.57561 0
M  V30 5031 C 494.648 0.929819 -2.09492 0
M  V30 5032 C 495.648 1.25026 -1.01119 0
M  V30 5033 O 496.838 1.18961 -1.27255 0
M  V30 5034 C 493.97 2.24457 -2.56577 0
M  V30 5035 H 495.163 0.479935 -2.96035 0
M  V30 5036 H 492.716 0.213033 -1.54841 0
M  V30 5037 H 493.451 2.74061 -1.73382 0
M  V30 5038 H 493.236 2.02508 -3.35757 0
M  V30 5039 H 494.726 2.93607 -2.96959 0
M  V30 5040 N 495.163 1.55791 0.238111 0
M  V30 5041 C 496.391 1.82098 0.982233 0
M  V30 5042 C 496.806 0.612025 1.78605 0
M  V30 5043 O 496.163 -0.419381 1.77616 0
M  V30 5044 C 496.214 3.0673 1.91309 0
M  V30 5045 O 495.935 4.2296 1.14179 0
M  V30 5046 C 497.436 3.45903 2.77248 0
M  V30 5047 H 494.656 0.605748 0.288635 0
M  V30 5048 H 497.2 2.02862 0.258341 0
M  V30 5049 H 495.355 2.87991 2.59114 0
M  V30 5050 H 495.769 4.93653 1.7722 0
M  V30 5051 H 497.243 4.36189 3.38295 0
M  V30 5052 H 497.72 2.66891 3.48806 0
M  V30 5053 H 498.326 3.67024 2.14881 0
M  V30 5054 N 496.642 -0.504142 1.49319 0
M  V30 5055 C 497.59 -1.62689 1.66238 0
M  V30 5056 C 498.584 -1.6095 0.528349 0
M  V30 5057 O 499.79 -1.65496 0.707887 0
M  V30 5058 H 496.165 -0.539247 0.524134 0
M  V30 5059 H 498.136 -1.45571 2.60484 0
M  V30 5060 C 496.885 -3.00841 1.74328 0
M  V30 5061 H 496.208 -3.02884 2.60963 0
M  V30 5062 H 497.648 -3.78945 1.90202 0
M  V30 5063 C 496.107 -3.33355 0.487416 0
M  V30 5064 O 496.637 -3.99819 -0.388294 0
M  V30 5065 N 494.843 -2.88469 0.351306 0
M  V30 5066 H 494.39 -2.34557 1.06492 0
M  V30 5067 H 494.348 -3.10591 -0.487899 0
M  V30 5068 N 498.12 -1.38341 -0.754957 0
M  V30 5069 C 499.067 -1.3546 -1.86867 0
M  V30 5070 C 500.037 -0.217369 -1.64672 0
M  V30 5071 O 501.222 -0.409383 -1.86356 0
M  V30 5072 C 498.362 -1.18413 -3.24149 0
M  V30 5073 C 497.475 -2.41511 -3.58185 0
M  V30 5074 C 496.61 -2.17205 -4.84763 0
M  V30 5075 C 495.649 -3.36081 -5.11582 0
M  V30 5076 N 494.786 -3.11219 -6.29354 0
M  V30 5077 H 499.626 -2.30672 -1.88664 0
M  V30 5078 H 497.163 -1.14607 -0.922154 0
M  V30 5079 H 499.121 -1.06545 -4.03366 0
M  V30 5080 H 497.751 -0.268397 -3.21682 0
M  V30 5081 H 496.803 -2.64056 -2.73822 0
M  V30 5082 H 498.115 -3.30115 -3.73932 0
M  V30 5083 H 497.269 -2.02465 -5.7192 0
M  V30 5084 H 496.008 -1.25964 -4.71152 0
M  V30 5085 H 495.013 -3.51341 -4.22894 0
M  V30 5086 H 496.238 -4.28196 -5.27091 0
M  V30 5087 H 494.184 -2.22624 -6.17069 0
M  V30 5088 H 494.101 -3.93373 -6.45596 0
M  V30 5089 H 495.369 -3.00132 -7.19403 0
M  V30 5090 N 499.598 0.982988 -1.23187 0
M  V30 5091 C 500.823 1.76455 -1.08988 0
M  V30 5092 C 501.248 1.84726 0.354691 0
M  V30 5093 O 500.606 1.30699 1.25649 0
M  V30 5094 C 500.654 3.17094 -1.71708 0
M  V30 5095 O 499.758 4.00648 -0.977477 0
M  V30 5096 H 499.099 0.542988 -0.382177 0
M  V30 5097 H 501.629 1.23413 -1.63188 0
M  V30 5098 H 501.639 3.67684 -1.76841 0
M  V30 5099 H 500.314 3.10389 -2.76823 0
M  V30 5100 H 498.891 3.59161 -1.0029 0
M  V30 5101 N 501.076 1.04316 1.18135 0
M  V30 5102 C 502.323 0.74802 1.88178 0
M  V30 5103 C 502.651 -0.72441 1.80506 0
M  V30 5104 O 501.906 -1.54463 1.20165 0
M  V30 5105 C 502.205 1.16271 3.37958 0
M  V30 5106 C 501.871 2.63585 3.65833 0
M  V30 5107 C 500.533 3.03829 3.73151 0
M  V30 5108 C 502.885 3.58822 3.78016 0
M  V30 5109 C 500.213 4.38194 3.90132 0
M  V30 5110 C 502.565 4.92909 3.96514 0
M  V30 5111 C 501.229 5.3282 4.02068 0
M  V30 5112 H 500.499 0.27372 0.688592 0
M  V30 5113 H 503.146 1.30863 1.39811 0
M  V30 5114 H 501.451 0.520938 3.88321 0
M  V30 5115 H 503.148 0.911672 3.90499 0
M  V30 5116 H 499.738 2.31414 3.60757 0
M  V30 5117 H 503.922 3.28875 3.71692 0
M  V30 5118 H 499.178 4.68631 3.92677 0
M  V30 5119 H 503.352 5.66606 4.04883 0
M  V30 5120 H 500.979 6.36943 4.14979 0
M  V30 5121 N 502.554 -1.34406 0.822964 0
M  V30 5122 C 503.487 -2.27407 0.190124 0
M  V30 5123 C 504.465 -1.4889 -0.653486 0
M  V30 5124 O 505.649 -1.78109 -0.617216 0
M  V30 5125 C 502.776 -3.3064 -0.734477 0
M  V30 5126 C 501.822 -4.26488 0.0316099 0
M  V30 5127 S 502.655 -5.17445 1.3788 0
M  V30 5128 C 503.811 -6.24214 0.45907 0
M  V30 5129 H 504.044 -2.80733 0.978586 0
M  V30 5130 H 501.577 -1.41455 0.618866 0
M  V30 5131 H 503.535 -3.90607 -1.26238 0
M  V30 5132 H 502.196 -2.76161 -1.49646 0
M  V30 5133 H 501.389 -4.9951 -0.671285 0
M  V30 5134 H 500.991 -3.70775 0.490066 0
M  V30 5135 H 503.283 -6.76599 -0.349357 0
M  V30 5136 H 504.226 -6.98551 1.15896 0
M  V30 5137 H 504.634 -5.6448 0.0474825 0
M  V30 5138 N 504.032 -0.577932 -1.46621 0
M  V30 5139 C 504.962 0.145917 -2.33044 0
M  V30 5140 C 505.943 0.888412 -1.45056 0
M  V30 5141 O 507.128 0.864812 -1.73881 0
M  V30 5142 C 504.258 1.16322 -3.27241 0
M  V30 5143 C 503.212 0.535868 -4.24632 0
M  V30 5144 C 502.538 1.65929 -5.08303 0
M  V30 5145 C 503.838 -0.523861 -5.19666 0
M  V30 5146 H 505.532 -0.575636 -2.93814 0
M  V30 5147 H 503.078 -0.278272 -1.41286 0
M  V30 5148 H 505.031 1.67793 -3.86553 0
M  V30 5149 H 503.755 1.91498 -2.64567 0
M  V30 5150 H 502.414 0.0422759 -3.66576 0
M  V30 5151 H 502.062 2.40061 -4.42018 0
M  V30 5152 H 501.762 1.2452 -5.74255 0
M  V30 5153 H 503.286 2.17686 -5.70478 0
M  V30 5154 H 504.7 -0.0944059 -5.73222 0
M  V30 5155 H 503.097 -0.858 -5.93935 0
M  V30 5156 H 504.167 -1.41197 -4.63887 0
M  V30 5157 N 505.51 1.54411 -0.315457 0
M  V30 5158 C 506.442 2.21527 0.588067 0
M  V30 5159 C 507.455 1.21263 1.08624 0
M  V30 5160 O 508.644 1.47777 1.00121 0
M  V30 5161 C 505.744 2.85963 1.81875 0
M  V30 5162 C 504.917 4.12291 1.46063 0
M  V30 5163 C 503.976 4.60396 2.54799 0
M  V30 5164 O 503.002 5.25265 2.19283 0
M  V30 5165 N 504.204 4.33935 3.85591 0
M  V30 5166 H 506.969 2.99697 0.013414 0
M  V30 5167 H 504.53 1.61308 -0.138295 0
M  V30 5168 H 506.522 3.15071 2.53993 0
M  V30 5169 H 505.092 2.11548 2.30144 0
M  V30 5170 H 504.312 3.90036 0.571445 0
M  V30 5171 H 505.6 4.9452 1.19695 0
M  V30 5172 H 504.998 3.81996 4.17248 0
M  V30 5173 H 503.555 4.67718 4.53964 0
M  V30 5174 N 506.988 0.0434614 1.5754 0
M  V30 5175 C 507.918 -0.931651 2.14109 0
M  V30 5176 C 508.899 -1.32971 1.06079 0
M  V30 5177 O 510.084 -1.40579 1.33982 0
M  V30 5178 C 507.214 -2.20914 2.67982 0
M  V30 5179 C 506.168 -1.95139 3.80926 0
M  V30 5180 C 505.494 -3.29276 4.21285 0
M  V30 5181 C 506.794 -1.27913 5.06395 0
M  V30 5182 H 508.488 -0.460497 2.95837 0
M  V30 5183 H 506.034 -0.220058 1.42309 0
M  V30 5184 H 507.987 -2.89522 3.06194 0
M  V30 5185 H 506.711 -2.70221 1.83434 0
M  V30 5186 H 505.37 -1.28945 3.43175 0
M  V30 5187 H 505.018 -3.76369 3.33699 0
M  V30 5188 H 504.718 -3.12831 4.97404 0
M  V30 5189 H 506.242 -3.99129 4.62091 0
M  V30 5190 H 507.656 -1.86544 5.42102 0
M  V30 5191 H 506.053 -1.2182 5.87605 0
M  V30 5192 H 507.123 -0.254066 4.84234 0
M  V30 5193 N 508.466 -1.55915 -0.229846 0
M  V30 5194 C 509.694 -1.82617 -0.972562 0
M  V30 5195 C 510.109 -0.621488 -1.78278 0
M  V30 5196 O 509.466 0.409956 -1.77836 0
M  V30 5197 C 509.517 -3.0774 -1.89679 0
M  V30 5198 O 509.238 -4.23559 -1.11934 0
M  V30 5199 C 510.739 -3.47368 -2.75409 0
M  V30 5200 H 507.959 -0.60727 -0.285419 0
M  V30 5201 H 510.503 -2.02996 -0.247579 0
M  V30 5202 H 508.658 -2.89361 -2.57583 0
M  V30 5203 H 509.072 -4.94586 -1.74599 0
M  V30 5204 H 510.546 -4.37977 -3.35977 0
M  V30 5205 H 511.023 -2.68737 -3.47386 0
M  V30 5206 H 511.629 -3.68158 -2.12931 0
M  V30 5207 N 509.944 0.496216 -1.49584 0
M  V30 5208 C 511.169 1.27865 -1.63295 0
M  V30 5209 C 511.594 1.85592 -0.306156 0
M  V30 5210 O 510.952 1.66092 0.726851 0
M  V30 5211 C 511 2.38128 -2.7079 0
M  V30 5212 O 510.104 3.42108 -2.30296 0
M  V30 5213 H 509.445 0.377279 -0.546403 0
M  V30 5214 H 511.975 0.593497 -1.95803 0
M  V30 5215 H 511.985 2.8382 -2.93104 0
M  V30 5216 H 510.66 1.95479 -3.67098 0
M  V30 5217 H 509.237 3.02301 -2.18331 0
M  V30 5218 N 511.423 1.38739 0.74761 0
M  V30 5219 C 512.386 1.36241 1.84312 0
M  V30 5220 C 513.386 0.261811 1.58654 0
M  V30 5221 O 514.576 0.519031 1.66288 0
M  V30 5222 C 511.708 1.12253 3.21888 0
M  V30 5223 H 512.901 2.33712 1.87933 0
M  V30 5224 H 510.454 1.2412 0.949946 0
M  V30 5225 H 511.189 0.154133 3.23934 0
M  V30 5226 H 510.974 1.91943 3.41907 0
M  V30 5227 H 512.464 1.13215 4.0196 0
M  V30 5228 N 512.901 -0.976442 1.23707 0
M  V30 5229 C 514.15 -1.71254 1.06559 0
M  V30 5230 C 514.463 -1.91528 -0.397024 0
M  V30 5231 O 515.669 -2.62625 -0.688518 0
M  V30 5232 C 514.125 -3.08207 1.8584 0
M  V30 5233 C 513.733 -2.95806 3.36456 0
M  V30 5234 C 515.477 -3.85749 1.77194 0
M  V30 5235 C 513.384 -4.28015 4.08114 0
M  V30 5236 H 512.314 -0.642171 0.395136 0
M  V30 5237 H 514.965 -1.08877 1.4771 0
M  V30 5238 H 513.347 -3.71363 1.37498 0
M  V30 5239 H 514.521 -2.41716 3.92314 0
M  V30 5240 H 512.836 -2.31736 3.45959 0
M  V30 5241 H 515.433 -4.83633 2.28041 0
M  V30 5242 H 515.776 -4.09752 0.735477 0
M  V30 5243 H 516.309 -3.29303 2.23169 0
M  V30 5244 H 513.048 -4.09208 5.12083 0
M  V30 5245 H 512.568 -4.81955 3.57043 0
M  V30 5246 H 514.247 -4.96681 4.14629 0
M  V30 5247 N 514.379 -1.04941 -1.1758 0
M  V30 5248 C 515.342 -0.652456 -2.19717 0
M  V30 5249 C 516.342 0.294745 -1.58076 0
M  V30 5250 O 517.532 0.0789579 -1.74021 0
M  V30 5251 C 514.664 0.0420712 -3.40874 0
M  V30 5252 H 515.857 -1.55642 -2.5635 0
M  V30 5253 H 513.41 -0.842995 -1.31618 0
M  V30 5254 H 514.145 0.95943 -3.09783 0
M  V30 5255 H 513.93 -0.638844 -3.86861 0
M  V30 5256 H 515.42 0.306 -4.16477 0
M  V30 5257 N 515.857 1.33968 -0.830081 0
M  V30 5258 C 517.104 1.98063 -0.421566 0
M  V30 5259 C 517.432 1.65787 1.0171 0
M  V30 5260 O 516.687 0.925348 1.72441 0
M  V30 5261 C 516.986 3.52679 -0.57898 0
M  V30 5262 C 516.652 4.04884 -1.98443 0
M  V30 5263 C 515.314 4.18852 -2.36888 0
M  V30 5264 C 517.666 4.32879 -2.90285 0
M  V30 5265 C 514.994 4.58145 -3.66497 0
M  V30 5266 C 517.346 4.7362 -4.19364 0
M  V30 5267 C 516.01 4.85794 -4.57778 0
M  V30 5268 H 515.28 0.724765 -0.154262 0
M  V30 5269 H 517.927 1.59792 -1.05541 0
M  V30 5270 H 516.232 3.91556 0.138219 0
M  V30 5271 H 517.929 4.00261 -0.243317 0
M  V30 5272 H 514.519 3.9448 -1.67581 0
M  V30 5273 H 518.703 4.21619 -2.61823 0
M  V30 5274 H 513.959 4.65762 -3.96075 0
M  V30 5275 H 518.133 4.9424 -4.90612 0
M  V30 5276 H 515.76 5.15998 -5.58256 0
M  V30 5277 N 517.335 0.585699 1.46312 0
M  V30 5278 C 518.265 -0.133556 2.33118 0
M  V30 5279 C 519.246 -0.880707 1.45525 0
M  V30 5280 O 520.431 -0.855579 1.74337 0
M  V30 5281 C 517.561 -1.14585 3.27853 0
M  V30 5282 C 516.515 -0.513341 4.2491 0
M  V30 5283 C 515.841 -1.63231 5.09175 0
M  V30 5284 C 517.141 0.551413 5.19381 0
M  V30 5285 H 518.835 0.59121 2.93505 0
M  V30 5286 H 516.381 0.285761 1.41136 0
M  V30 5287 H 518.334 -1.65741 3.87438 0
M  V30 5288 H 517.058 -1.90093 2.65579 0
M  V30 5289 H 515.717 -0.0228349 3.66593 0
M  V30 5290 H 515.365 -2.37713 4.43285 0
M  V30 5291 H 515.065 -1.21473 5.74907 0
M  V30 5292 H 516.589 -2.14658 5.71624 0
M  V30 5293 H 518.003 0.124804 5.73164 0
M  V30 5294 H 516.4 0.889486 5.93471 0
M  V30 5295 H 517.47 1.43655 4.63132 0
M  V30 5296 N 518.813 -1.54241 0.323641 0
M  V30 5297 C 519.763 -2.21071 -0.557833 0
M  V30 5298 C 520.747 -1.19126 -1.08157 0
M  V30 5299 O 521.939 -1.44755 -1.01857 0
M  V30 5300 C 519.068 -2.97208 -1.71821 0
M  V30 5301 C 518.154 -4.06491 -1.20936 0
M  V30 5302 N 518.545 -5.04052 -0.420202 0
M  V30 5303 C 516.843 -4.20443 -1.48808 0
M  V30 5304 C 517.544 -5.81516 -0.146413 0
M  V30 5305 N 516.52 -5.38641 -0.732562 0
M  V30 5306 H 520.322 -2.93853 0.0523921 0
M  V30 5307 H 517.836 -1.61883 0.129502 0
M  V30 5308 H 519.833 -3.4357 -2.36146 0
M  V30 5309 H 518.493 -2.25947 -2.33191 0
M  V30 5310 H 519.504 -5.17862 -0.0630401 0
M  V30 5311 H 516.181 -3.60396 -2.10762 0
M  V30 5312 H 517.571 -6.70119 0.488895 0
M  V30 5313 N 520.291 -0.0518155 -1.57515 0
M  V30 5314 C 521.238 0.922352 -2.11569 0
M  V30 5315 C 522.208 1.30842 -1.02321 0
M  V30 5316 O 523.393 1.39778 -1.29872 0
M  V30 5317 C 520.533 2.19167 -2.6657 0
M  V30 5318 C 519.646 1.86003 -3.89906 0
M  V30 5319 C 518.781 3.07398 -4.33221 0
M  V30 5320 C 517.82 2.70158 -5.49255 0
M  V30 5321 N 516.957 3.84248 -5.8762 0
M  V30 5322 H 521.797 0.454506 -2.94514 0
M  V30 5323 H 519.334 0.212718 -1.45554 0
M  V30 5324 H 521.292 2.93443 -2.96559 0
M  V30 5325 H 519.922 2.63528 -1.86421 0
M  V30 5326 H 518.974 1.01874 -3.66505 0
M  V30 5327 H 520.286 1.54592 -4.74239 0
M  V30 5328 H 519.44 3.89972 -4.64765 0
M  V30 5329 H 518.179 3.41988 -3.477 0
M  V30 5330 H 517.184 1.86001 -5.17382 0
M  V30 5331 H 518.409 2.36759 -6.36492 0
M  V30 5332 H 516.355 4.18638 -5.05053 0
M  V30 5333 H 516.272 3.56538 -6.66646 0
M  V30 5334 H 517.54 4.6746 -6.2378 0
M  V30 5335 N 521.769 1.56035 0.221574 0
M  V30 5336 C 522.717 1.93269 1.29421 0
M  V30 5337 C 523.711 0.814727 1.48521 0
M  V30 5338 O 524.917 0.999559 1.49696 0
M  V30 5339 H 521.292 0.614188 0.43391 0
M  V30 5340 H 523.263 2.82773 0.952987 0
M  V30 5341 C 522.012 2.26573 2.63742 0
M  V30 5342 H 521.335 3.12112 2.49853 0
M  V30 5343 H 522.775 2.5651 3.37607 0
M  V30 5344 C 521.234 1.09086 3.1875 0
M  V30 5345 O 521.764 0.351985 4.00155 0
M  V30 5346 N 519.97 0.874693 2.77124 0
M  V30 5347 H 519.517 1.47726 2.11033 0
M  V30 5348 H 519.475 0.0903349 3.1427 0
M  V30 5349 N 523.247 -0.488276 1.49845 0
M  V30 5350 C 524.197 -1.58556 1.63842 0
M  V30 5351 C 525.181 -1.53142 0.493586 0
M  V30 5352 O 526.373 -1.60457 0.747169 0
M  V30 5353 C 523.502 -2.97101 1.72005 0
M  V30 5354 C 522.588 -3.07463 2.92108 0
M  V30 5355 N 522.979 -2.87681 4.16021 0
M  V30 5356 C 521.277 -3.3858 2.90309 0
M  V30 5357 C 521.978 -3.0256 4.96822 0
M  V30 5358 N 520.954 -3.32002 4.30437 0
M  V30 5359 H 524.756 -1.41935 2.57355 0
M  V30 5360 H 522.27 -0.694668 1.46793 0
M  V30 5361 H 524.267 -3.75976 1.80132 0
M  V30 5362 H 522.927 -3.14782 0.796375 0
M  V30 5363 H 523.938 -2.63603 4.45796 0
M  V30 5364 H 520.615 -3.62357 2.07372 0
M  V30 5365 H 522.005 -2.9165 6.05301 0
M  V30 5366 N 524.725 -1.39134 -0.740242 0
M  V30 5367 C 525.974 -1.35384 -1.49512 0
M  V30 5368 C 526.287 0.04919 -1.95538 0
M  V30 5369 O 527.493 0.209257 -2.70692 0
M  V30 5370 C 525.949 -2.37812 -2.70136 0
M  V30 5371 C 525.557 -3.83804 -2.31081 0
M  V30 5372 C 527.301 -2.4313 -3.47977 0
M  V30 5373 C 525.208 -4.77886 -3.48395 0
M  V30 5374 H 524.138 -0.503297 -0.561434 0
M  V30 5375 H 526.789 -1.64754 -0.807974 0
M  V30 5376 H 525.171 -2.01505 -3.40899 0
M  V30 5377 H 526.345 -4.29123 -1.67898 0
M  V30 5378 H 524.66 -3.81732 -1.66343 0
M  V30 5379 H 527.257 -3.10614 -4.35228 0
M  V30 5380 H 527.6 -1.45423 -3.90074 0
M  V30 5381 H 528.133 -2.78304 -2.84239 0
M  V30 5382 H 524.872 -5.76836 -3.11353 0
M  V30 5383 H 524.392 -4.3725 -4.10576 0
M  V30 5384 H 526.071 -4.96538 -4.148 0
M  V30 5385 N 526.204 0.969867 -1.24223 0
M  V30 5386 C 527.45 1.7151 -1.08223 0
M  V30 5387 C 527.783 1.90478 0.37838 0
M  V30 5388 O 527.058 1.4647 1.27971 0
M  V30 5389 C 527.341 3.10714 -1.82013 0
M  V30 5390 C 527.194 2.9925 -3.35811 0
M  V30 5391 C 528.513 4.10332 -1.59108 0
M  V30 5392 H 525.632 0.622499 -0.394543 0
M  V30 5393 H 528.274 1.1284 -1.52863 0
M  V30 5394 H 526.424 3.608 -1.44068 0
M  V30 5395 H 528.096 2.56608 -3.83341 0
M  V30 5396 H 526.339 2.35512 -3.64303 0
M  V30 5397 H 527.01 3.97857 -3.82641 0
M  V30 5398 H 529.486 3.69097 -1.92111 0
M  V30 5399 H 528.362 5.05804 -2.13198 0
M  V30 5400 H 528.623 4.38926 -0.528832 0
M  V30 5401 N 527.682 1.05563 1.17022 0
M  V30 5402 C 528.632 0.630007 2.19123 0
M  V30 5403 C 529.616 -0.335472 1.57364 0
M  V30 5404 O 530.808 -0.1521 1.76345 0
M  V30 5405 C 527.937 0.0101676 3.43298 0
M  V30 5406 C 527.023 0.999698 4.12149 0
M  V30 5407 N 527.414 2.17251 4.56766 0
M  V30 5408 C 525.712 0.829 4.38228 0
M  V30 5409 C 526.413 2.79883 5.09942 0
M  V30 5410 N 525.389 2.07656 5.02374 0
M  V30 5411 H 529.191 1.52353 2.51328 0
M  V30 5412 H 526.705 0.926288 1.33393 0
M  V30 5413 H 528.702 -0.312541 4.15727 0
M  V30 5414 H 527.362 -0.878707 3.12584 0
M  V30 5415 H 528.373 2.55067 4.50734 0
M  V30 5416 H 525.05 -0.00850974 4.17499 0
M  V30 5417 H 526.44 3.79362 5.54558 0
M  V30 5418 N 529.16 -1.33526 0.837174 0
M  V30 5419 C 530.576 -1.50727 0.524743 0
M  V30 5420 C 530.776 -1.77792 -0.948279 0
M  V30 5421 O 529.832 -1.83719 -1.73216 0
M  V30 5422 C 531.145 -2.66299 1.39661 0
M  V30 5423 C 532.693 -2.80183 1.39521 0
M  V30 5424 C 533.168 -3.98815 2.25189 0
M  V30 5425 N 534.659 -4.06047 2.2289 0
M  V30 5426 C 535.394 -4.97032 2.85915 0
M  V30 5427 N 534.89 -5.93143 3.57985 0
M  V30 5428 N 536.683 -4.90015 2.75394 0
M  V30 5429 H 528.834 -1.1422 1.79074 0
M  V30 5430 H 531.097 -0.561399 0.763894 0
M  V30 5431 H 530.803 -2.52974 2.4433 0
M  V30 5432 H 530.677 -3.61663 1.07145 0
M  V30 5433 H 533.064 -2.92942 0.356253 0
M  V30 5434 H 533.145 -1.85586 1.76044 0
M  V30 5435 H 532.789 -3.86817 3.29143 0
M  V30 5436 H 532.719 -4.92654 1.86009 0
M  V30 5437 H 535.21 -3.37262 1.70478 0
M  V30 5438 H 535.523 -6.59227 4.03286 0
M  V30 5439 H 533.868 -5.93223 3.62093 0
M  V30 5440 H 537.059 -4.13894 2.18654 0
M  V30 5441 H 537.232 -5.60724 3.24796 0
M  V30 5442 N 530.638 -0.59345 -1.46 0
M  V30 5443 C 531.915 -0.0157933 -1.95594 0
M  V30 5444 C 532.295 1.44807 -1.53604 0
M  V30 5445 O 531.643 2.14342 -0.791824 0
M  V30 5446 C 531.853 -0.199081 -3.48432 0
M  V30 5447 C 533.201 -0.0724943 -4.24538 0
M  V30 5448 O 534.225 -0.128469 -3.55968 0
M  V30 5449 O 533.084 0.0542426 -5.46473 0
M  V30 5450 H 530.178 0.043749 -0.825842 0
M  V30 5451 H 532.724 -0.662522 -1.56233 0
M  V30 5452 H 531.496 -1.21631 -3.71916 0
M  V30 5453 H 531.119 0.483576 -3.94648 0
M  V30 5454 N 532.116 1.54067 -0.331816 0
M  V30 5455 C 533.046 2.27569 0.522932 0
M  V30 5456 C 534.027 1.28679 1.11247 0
M  V30 5457 O 535.212 1.57504 1.13605 0
M  V30 5458 C 532.342 3.0397 1.67987 0
M  V30 5459 C 531.296 4.10267 1.21924 0
M  V30 5460 C 530.622 4.74555 2.46377 0
M  V30 5461 C 531.922 5.21268 0.32815 0
M  V30 5462 H 533.616 2.99264 -0.0901977 0
M  V30 5463 H 531.162 1.4393 -0.044821 0
M  V30 5464 H 533.115 3.54123 2.28418 0
M  V30 5465 H 531.839 2.29906 2.31971 0
M  V30 5466 H 530.498 3.61009 0.637809 0
M  V30 5467 H 530.146 3.97098 3.08743 0
M  V30 5468 H 529.846 5.46363 2.16243 0
M  V30 5469 H 531.37 5.27487 3.07555 0
M  V30 5470 H 532.784 5.67128 0.838978 0
M  V30 5471 H 531.181 5.99982 0.119228 0
M  V30 5472 H 532.251 4.80673 -0.638839 0
M  V30 5473 N 533.594 0.0601682 1.57485 0
M  V30 5474 C 534.541 -0.91112 2.12055 0
M  V30 5475 C 535.511 -1.30298 1.03013 0
M  V30 5476 O 536.696 -1.39087 1.30612 0
M  V30 5477 C 533.836 -2.1775 2.67729 0
M  V30 5478 C 532.949 -1.83933 3.90887 0
M  V30 5479 C 532.084 -3.05096 4.34845 0
M  V30 5480 C 531.123 -2.67241 5.5068 0
M  V30 5481 N 530.26 -3.81127 5.8965 0
M  V30 5482 H 535.1 -0.43888 2.9475 0
M  V30 5483 H 532.637 -0.204995 1.45665 0
M  V30 5484 H 534.595 -2.91866 2.98111 0
M  V30 5485 H 533.225 -2.62535 1.87816 0
M  V30 5486 H 532.277 -0.999287 3.6704 0
M  V30 5487 H 533.589 -1.52074 4.75052 0
M  V30 5488 H 532.743 -3.87502 4.66827 0
M  V30 5489 H 531.482 -3.40139 3.49509 0
M  V30 5490 H 530.487 -1.83254 5.18361 0
M  V30 5491 H 531.712 -2.3338 6.37738 0
M  V30 5492 H 529.658 -4.15954 5.07266 0
M  V30 5493 H 529.575 -3.52997 6.68528 0
M  V30 5494 H 530.843 -4.64145 6.2625 0
M  V30 5495 N 535.072 -1.5615 -0.213296 0
M  V30 5496 C 536.483 -1.69645 -0.779582 0
M  V30 5497 C 536.834 -0.663615 -1.84636 0
M  V30 5498 O 535.959 0.183633 -2.15619 0
M  V30 5499 C 536.554 -3.07567 -1.42084 0
M  V30 5500 C 535.113 -3.22889 -1.93442 0
M  V30 5501 C 534.26 -2.65581 -0.797612 0
M  V30 5502 H 537.211 -1.58696 0.0114951 0
M  V30 5503 H 537.232 -3.03884 -2.28986 0
M  V30 5504 H 536.744 -3.82716 -0.644187 0
M  V30 5505 H 534.845 -2.52623 -2.73884 0
M  V30 5506 H 534.958 -4.30197 -2.10872 0
M  V30 5507 H 533.322 -2.24278 -1.20712 0
M  V30 5508 H 534.105 -3.43284 -0.033494 0
M  V30 5509 N 536.55 0.480323 -1.50102 0
M  V30 5510 C 537.827 1.24159 -1.51142 0
M  V30 5511 C 538.207 2.09605 -0.250818 0
M  V30 5512 O 537.555 2.15274 0.766118 0
M  V30 5513 C 537.765 2.08057 -2.80202 0
M  V30 5514 C 539.113 2.66556 -3.30504 0
M  V30 5515 O 540.137 2.18308 -2.81461 0
M  V30 5516 O 538.996 3.54442 -4.15973 0
M  V30 5517 H 536.09 0.562928 -0.605839 0
M  V30 5518 H 538.636 0.492899 -1.62384 0
M  V30 5519 H 537.408 1.45032 -3.6343 0
M  V30 5520 H 537.031 2.90079 -2.71919 0
M  V30 5521 N 538.028 1.39524 0.732853 0
M  V30 5522 C 538.976 1.38563 1.86824 0
M  V30 5523 C 539.97 0.268467 1.67259 0
M  V30 5524 O 541.176 0.438613 1.74574 0
M  V30 5525 H 537.551 0.432737 0.615014 0
M  V30 5526 H 539.522 2.34328 1.84751 0
M  V30 5527 C 538.271 1.2481 3.24527 0
M  V30 5528 H 537.594 2.10044 3.40179 0
M  V30 5529 H 539.034 1.28194 4.04156 0
M  V30 5530 C 537.493 -0.0432825 3.36872 0
M  V30 5531 O 538.023 -1.01268 3.88726 0
M  V30 5532 N 536.229 -0.107055 2.90403 0
M  V30 5533 H 535.776 0.682512 2.48394 0
M  V30 5534 H 535.734 -0.970618 2.99042 0
M  V30 5535 N 539.506 -0.963266 1.24736 0
M  V30 5536 C 540.755 -1.70115 1.08369 0
M  V30 5537 C 541.068 -1.91939 -0.376688 0
M  V30 5538 O 542.274 -2.6334 -0.660624 0
M  V30 5539 C 540.73 -3.06218 1.89099 0
M  V30 5540 C 540.338 -2.92221 3.39574 0
M  V30 5541 C 542.082 -3.83848 1.81275 0
M  V30 5542 C 539.989 -4.23662 4.12631 0
M  V30 5543 H 538.919 -0.637944 0.401924 0
M  V30 5544 H 541.57 -1.07304 1.48856 0
M  V30 5545 H 539.952 -3.69884 1.41429 0
M  V30 5546 H 541.126 -2.37541 3.94856 0
M  V30 5547 H 539.441 -2.28054 3.48397 0
M  V30 5548 H 542.038 -4.81188 2.33158 0
M  V30 5549 H 542.381 -4.08949 0.778895 0
M  V30 5550 H 542.914 -3.26918 2.26649 0
M  V30 5551 H 539.653 -4.03753 5.16395 0
M  V30 5552 H 539.173 -4.78141 3.62135 0
M  V30 5553 H 540.852 -4.92256 4.19873 0
M  V30 5554 N 540.985 -1.06182 -1.16461 0
M  V30 5555 C 541.915 -0.692861 -2.22984 0
M  V30 5556 C 542.896 0.314122 -1.67174 0
M  V30 5557 O 544.081 0.189499 -1.93273 0
M  V30 5558 C 541.211 -0.07732 -3.47214 0
M  V30 5559 C 540.165 -1.01015 -4.15909 0
M  V30 5560 C 539.491 -0.257973 -5.34077 0
M  V30 5561 C 540.791 -2.33868 -4.67015 0
M  V30 5562 H 542.485 -1.58343 -2.54102 0
M  V30 5563 H 540.031 -0.76279 -1.22137 0
M  V30 5564 H 541.984 0.19266 -4.20959 0
M  V30 5565 H 540.708 0.848254 -3.15392 0
M  V30 5566 H 539.367 -1.26486 -3.44088 0
M  V30 5567 H 539.015 0.670684 -4.98509 0
M  V30 5568 H 538.715 -0.879638 -5.80979 0
M  V30 5569 H 540.239 0.00448788 -6.106 0
M  V30 5570 H 541.653 -2.1279 -5.32347 0
M  V30 5571 H 540.05 -2.91522 -5.24533 0
M  V30 5572 H 541.12 -2.97019 -3.83286 0
M  V30 5573 N 542.463 1.3308 -0.844243 0
M  V30 5574 C 543.712 1.96868 -0.438833 0
M  V30 5575 C 544.025 1.67599 1.00846 0
M  V30 5576 O 545.231 2.25043 1.51881 0
M  V30 5577 C 543.687 3.5234 -0.73377 0
M  V30 5578 C 543.295 3.90481 -2.1961 0
M  V30 5579 C 545.039 4.22653 -0.395574 0
M  V30 5580 C 542.946 5.38954 -2.43481 0
M  V30 5581 H 541.876 0.736749 -0.160364 0
M  V30 5582 H 544.527 1.51623 -1.03358 0
M  V30 5583 H 542.909 3.95941 -0.068589 0
M  V30 5584 H 544.083 3.57922 -2.90221 0
M  V30 5585 H 542.398 3.33165 -2.4978 0
M  V30 5586 H 544.995 5.31848 -0.551477 0
M  V30 5587 H 545.338 4.11004 0.661921 0
M  V30 5588 H 545.871 3.84601 -1.01621 0
M  V30 5589 H 542.61 5.55612 -3.47816 0
M  V30 5590 H 542.13 5.72954 -1.77437 0
M  V30 5591 H 543.809 6.05907 -2.26905 0
M  V30 5592 N 543.941 0.601185 1.45683 0
M  V30 5593 C 545.169 0.100054 2.06658 0
M  V30 5594 C 545.584 -1.21285 1.44691 0
M  V30 5595 O 544.941 -1.73735 0.558772 0
M  V30 5596 C 544.992 -0.0528579 3.61461 0
M  V30 5597 O 544.713 1.20809 4.21114 0
M  V30 5598 C 546.214 -0.586193 4.39407 0
M  V30 5599 H 543.434 0.065905 0.667756 0
M  V30 5600 H 545.978 0.827101 1.87028 0
M  V30 5601 H 544.133 -0.730203 3.80456 0
M  V30 5602 H 544.547 1.03368 5.14213 0
M  V30 5603 H 546.021 -0.642297 5.4825 0
M  V30 5604 H 546.498 -1.60713 4.0874 0
M  V30 5605 H 547.104 0.0568935 4.25262 0
M  V30 5606 N 545.419 -1.53889 0.339982 0
M  V30 5607 C 546.329 -2.28604 -0.526988 0
M  V30 5608 C 547.345 -1.33578 -1.11503 0
M  V30 5609 O 548.521 -1.66612 -1.13148 0
M  V30 5610 C 545.586 -3.04164 -1.66389 0
M  V30 5611 C 544.647 -4.14809 -1.10599 0
M  V30 5612 C 543.88 -4.86756 -2.18871 0
M  V30 5613 O 544.103 -4.58343 -3.39526 0
M  V30 5614 O 543.037 -5.73289 -1.83366 0
M  V30 5615 H 546.863 -3.03594 0.0802707 0
M  V30 5616 H 544.448 -1.4903 0.105141 0
M  V30 5617 H 546.33 -3.51427 -2.32544 0
M  V30 5618 H 545.005 -2.32035 -2.25703 0
M  V30 5619 H 543.912 -3.71857 -0.409067 0
M  V30 5620 H 545.245 -4.89029 -0.557771 0
M  V30 5621 N 546.897 -0.0685191 -1.57451 0
M  V30 5622 C 548.313 0.288101 -1.56978 0
M  V30 5623 C 548.513 1.70262 -1.07765 0
M  V30 5624 O 547.569 2.4135 -0.742054 0
M  V30 5625 C 548.882 0.100745 -3.00531 0
M  V30 5626 C 550.43 0.170531 -3.12535 0
M  V30 5627 C 550.905 0.0114944 -4.57999 0
M  V30 5628 N 552.396 0.0672065 -4.63151 0
M  V30 5629 C 553.131 -0.0314813 -5.73391 0
M  V30 5630 N 552.627 -0.183503 -6.92557 0
M  V30 5631 N 554.42 0.0253489 -5.62094 0
M  V30 5632 H 546.571 -0.993026 -1.87757 0
M  V30 5633 H 548.834 -0.386981 -0.865419 0
M  V30 5634 H 548.54 -0.875197 -3.40636 0
M  V30 5635 H 548.414 0.854457 -3.67395 0
M  V30 5636 H 550.801 1.13696 -2.72318 0
M  V30 5637 H 550.882 -0.614229 -2.48316 0
M  V30 5638 H 550.526 -0.951684 -4.98904 0
M  V30 5639 H 550.456 0.815617 -5.20245 0
M  V30 5640 H 552.947 0.183246 -3.77455 0
M  V30 5641 H 553.26 -0.251041 -7.72392 0
M  V30 5642 H 551.605 -0.218822 -6.94655 0
M  V30 5643 H 554.796 0.142794 -4.67882 0
M  V30 5644 H 554.969 -0.0550166 -6.47977 0
M  V30 5645 N 548.375 1.56261 0.205012 0
M  V30 5646 C 549.6 1.84491 0.947512 0
M  V30 5647 C 550.025 0.650894 1.76479 0
M  V30 5648 O 549.383 -0.40035 1.76824 0
M  V30 5649 C 549.431 3.10863 1.82747 0
M  V30 5650 O 548.535 2.90719 2.925 0
M  V30 5651 H 547.876 0.607783 0.267386 0
M  V30 5652 H 550.406 2.03485 0.213323 0
M  V30 5653 H 550.416 3.41399 2.23407 0
M  V30 5654 H 549.091 3.97392 1.2269 0
M  V30 5655 H 547.668 2.71457 2.55667 0
M  V30 5656 N 549.853 -0.472356 1.50355 0
M  V30 5657 C 551.101 -1.22211 1.60962 0
M  V30 5658 C 551.422 -1.92497 0.311439 0
M  V30 5659 O 550.692 -1.8405 -0.671002 0
M  V30 5660 H 549.272 -0.454092 0.593135 0
M  V30 5661 H 551.934 -0.544977 1.87126 0
M  V30 5662 H 551.03 -1.9707 2.42012 0
M  V30 5663 N 551.331 -1.39911 -0.725443 0
M  V30 5664 C 552.559 -1.40949 -1.51463 0
M  V30 5665 C 552.974 -0.0065242 -1.88799 0
M  V30 5666 O 552.331 0.967163 -1.54765 0
M  V30 5667 C 552.382 -2.29119 -2.79619 0
M  V30 5668 O 552.103 -3.63952 -2.43866 0
M  V30 5669 C 553.604 -2.38642 -3.73584 0
M  V30 5670 H 550.824 -0.481091 -0.467752 0
M  V30 5671 H 553.368 -1.83843 -0.895651 0
M  V30 5672 H 551.523 -1.89612 -3.37826 0
M  V30 5673 H 551.937 -4.10677 -3.26258 0
M  V30 5674 H 553.411 -3.04563 -4.60375 0
M  V30 5675 H 553.888 -1.40846 -4.16004 0
M  V30 5676 H 554.494 -2.78659 -3.21293 0
M  V30 5677 N 552.809 0.956637 -1.25245 0
M  V30 5678 C 554.22 1.51569 -1.09012 0
M  V30 5679 C 554.571 1.93322 0.334813 0
M  V30 5680 O 553.696 1.78421 1.22454 0
M  V30 5681 C 554.291 2.75444 -1.97271 0
M  V30 5682 C 552.85 3.27669 -1.8523 0
M  V30 5683 C 551.997 2.00517 -1.91542 0
M  V30 5684 H 554.948 0.773746 -1.3856 0
M  V30 5685 H 554.969 3.4919 -1.51151 0
M  V30 5686 H 554.481 2.45024 -3.00973 0
M  V30 5687 H 552.582 3.62914 -0.844045 0
M  V30 5688 H 552.695 3.9582 -2.69932 0
M  V30 5689 H 551.059 2.15727 -1.35404 0
M  V30 5690 H 551.842 1.72448 -2.96844 0
M  V30 5691 N 554.287 1.06798 1.15896 0
M  V30 5692 C 555.536 0.782796 1.8589 0
M  V30 5693 C 555.849 -0.693498 1.82893 0
M  V30 5694 O 557.055 -1.09325 2.48516 0
M  V30 5695 C 555.511 1.3502 3.33613 0
M  V30 5696 C 555.119 2.8571 3.45071 0
M  V30 5697 C 556.863 1.14278 4.08829 0
M  V30 5698 C 554.77 3.35669 4.86909 0
M  V30 5699 H 553.7 0.289149 0.696354 0
M  V30 5700 H 556.351 1.28734 1.30766 0
M  V30 5701 H 554.733 0.773407 3.88374 0
M  V30 5702 H 555.907 3.49385 3.00445 0
M  V30 5703 H 554.222 3.05178 2.83294 0
M  V30 5704 H 556.819 1.49087 5.13495 0
M  V30 5705 H 557.162 0.0814575 4.1622 0
M  V30 5706 H 557.695 1.68563 3.60321 0
M  V30 5707 H 554.434 4.41302 4.84698 0
M  V30 5708 H 553.954 2.76745 5.32139 0
M  V30 5709 H 555.633 3.31296 5.55745 0
M  V30 5710 N 555.766 -1.3263 0.851289 0
M  V30 5711 C 556.696 -2.31449 0.308771 0
M  V30 5712 C 557.677 -1.59531 -0.590255 0
M  V30 5713 O 558.862 -1.87351 -0.511205 0
M  V30 5714 C 555.992 -3.43586 -0.506548 0
M  V30 5715 C 554.946 -4.26963 0.297753 0
M  V30 5716 C 554.272 -5.30831 -0.642094 0
M  V30 5717 C 555.572 -4.99643 1.52166 0
M  V30 5718 H 557.266 -2.77074 1.13447 0
M  V30 5719 H 554.812 -1.33207 0.546971 0
M  V30 5720 H 556.765 -4.11754 -0.896474 0
M  V30 5721 H 555.489 -2.96681 -1.36558 0
M  V30 5722 H 554.148 -3.60437 0.669391 0
M  V30 5723 H 553.796 -4.8018 -1.49788 0
M  V30 5724 H 553.496 -5.87501 -0.107968 0
M  V30 5725 H 555.02 -6.01862 -1.02927 0
M  V30 5726 H 556.434 -5.6051 1.20421 0
M  V30 5727 H 554.831 -5.66022 1.99347 0
M  V30 5728 H 555.901 -4.27701 2.28474 0
M  V30 5729 N 557.244 -0.608902 -1.45362 0
M  V30 5730 C 558.191 0.109172 -2.30542 0
M  V30 5731 C 559.161 0.858704 -1.42181 0
M  V30 5732 O 560.346 0.844178 -1.71109 0
M  V30 5733 C 557.486 1.09971 -3.27109 0
M  V30 5734 C 556.599 0.350911 -4.30572 0
M  V30 5735 C 555.734 1.33129 -5.14247 0
M  V30 5736 C 554.773 0.570377 -6.09437 0
M  V30 5737 N 553.91 1.5001 -6.85887 0
M  V30 5738 H 558.75 -0.623195 -2.91411 0
M  V30 5739 H 556.287 -0.319122 -1.43597 0
M  V30 5740 H 558.245 1.68714 -3.81564 0
M  V30 5741 H 556.875 1.79947 -2.67991 0
M  V30 5742 H 555.927 -0.352054 -3.78767 0
M  V30 5743 H 557.239 -0.242725 -4.98209 0
M  V30 5744 H 556.393 1.99074 -5.73109 0
M  V30 5745 H 555.132 1.95885 -4.46632 0
M  V30 5746 H 554.137 -0.102702 -5.49704 0
M  V30 5747 H 555.362 -0.0521607 -6.7908 0
M  V30 5748 H 553.308 2.11529 -6.2096 0
M  V30 5749 H 553.225 0.959934 -7.49881 0
M  V30 5750 H 554.493 2.14909 -7.49289 0
M  V30 5751 N 558.722 1.53707 -0.348139 0
M  V30 5752 C 559.968 2.01286 0.247332 0
M  V30 5753 C 560.301 1.23546 1.49834 0
M  V30 5754 O 559.576 0.324331 1.91777 0
M  V30 5755 C 559.859 3.55768 0.556858 0
M  V30 5756 C 559.712 4.44216 -0.706564 0
M  V30 5757 C 561.031 4.1841 1.3646 0
M  V30 5758 H 558.15 0.731677 0.0884201 0
M  V30 5759 H 560.792 1.84106 -0.469584 0
M  V30 5760 H 558.942 3.70539 1.16761 0
M  V30 5761 H 560.614 4.41274 -1.34444 0
M  V30 5762 H 558.857 4.12892 -1.33052 0
M  V30 5763 H 559.528 5.50202 -0.445186 0
M  V30 5764 H 562.004 4.07365 0.848113 0
M  V30 5765 H 560.88 5.26563 1.54992 0
M  V30 5766 H 561.141 3.7333 2.36805 0
M  V30 5767 N 560.2 0.0768682 1.57412 0
M  V30 5768 C 561.163 -0.873949 2.11884 0
M  V30 5769 C 562.163 -1.22301 1.04398 0
M  V30 5770 O 563.353 -1.15545 1.30365 0
M  V30 5771 C 560.485 -2.17575 2.62438 0
M  V30 5772 H 561.678 -0.401278 2.97203 0
M  V30 5773 H 559.231 -0.171904 1.55352 0
M  V30 5774 H 559.966 -2.69368 1.80587 0
M  V30 5775 H 559.751 -1.93534 3.41009 0
M  V30 5776 H 561.241 -2.85631 3.04639 0
M  V30 5777 N 561.678 -1.56367 -0.196722 0
M  V30 5778 C 562.955 -1.71359 -0.943159 0
M  V30 5779 C 563.335 -0.631192 -2.01443 0
M  V30 5780 O 562.683 0.358071 -2.25677 0
M  V30 5781 C 562.893 -3.13623 -1.53106 0
M  V30 5782 C 564.241 -3.73806 -2.01381 0
M  V30 5783 O 565.265 -3.16742 -1.62951 0
M  V30 5784 O 564.124 -4.73951 -2.7209 0
M  V30 5785 H 561.218 -0.698851 -0.442195 0
M  V30 5786 H 563.764 -1.68672 -0.186547 0
M  V30 5787 H 562.536 -3.83873 -0.758785 0
M  V30 5788 H 562.159 -3.20532 -2.35255 0
M  V30 5789 N 563.156 0.464375 -1.50603 0
M  V30 5790 C 564.403 1.21596 -1.61928 0
M  V30 5791 C 564.731 1.91804 -0.322737 0
M  V30 5792 O 563.986 1.83065 0.691776 0
M  V30 5793 C 564.285 2.278 -2.75394 0
M  V30 5794 C 563.951 1.74797 -4.1564 0
M  V30 5795 C 562.613 1.60063 -4.53799 0
M  V30 5796 C 564.965 1.35548 -5.03266 0
M  V30 5797 C 562.293 1.04514 -5.77316 0
M  V30 5798 C 564.645 0.814381 -6.27336 0
M  V30 5799 C 563.309 0.653726 -6.64291 0
M  V30 5800 H 562.579 0.444951 -0.592536 0
M  V30 5801 H 565.226 0.510964 -1.84557 0
M  V30 5802 H 563.531 3.04233 -2.46879 0
M  V30 5803 H 565.228 2.85723 -2.81359 0
M  V30 5804 H 561.818 1.87234 -3.8554 0
M  V30 5805 H 566.002 1.45763 -4.74412 0
M  V30 5806 H 561.258 0.908186 -6.04617 0
M  V30 5807 H 565.432 0.501626 -6.94591 0
M  V30 5808 H 563.059 0.22114 -7.59878 0
M  V30 5809 N 564.634 1.40294 0.718013 0
M  V30 5810 C 565.882 1.38167 1.47494 0
M  V30 5811 C 566.203 -0.01607 1.94993 0
M  V30 5812 O 565.473 -0.970396 1.70177 0
M  V30 5813 H 564.053 0.508505 0.547203 0
M  V30 5814 H 566.715 1.75324 0.851322 0
M  V30 5815 H 565.811 2.05503 2.34894 0
M  V30 5816 N 566.112 -0.949982 1.2575 0
M  V30 5817 C 567.042 -2.06483 1.09028 0
M  V30 5818 C 568.023 -1.701 -0.00201532 0
M  V30 5819 O 569.208 -1.93469 0.168383 0
M  V30 5820 C 566.338 -3.39899 0.71316 0
M  V30 5821 C 565.292 -3.90309 1.75621 0
M  V30 5822 C 564.618 -5.20274 1.23365 0
M  V30 5823 C 565.918 -4.16169 3.15596 0
M  V30 5824 H 567.612 -2.20731 2.02283 0
M  V30 5825 H 565.158 -1.06066 0.973964 0
M  V30 5826 H 567.111 -4.17346 0.58309 0
M  V30 5827 H 565.835 -3.25602 -0.255091 0
M  V30 5828 H 564.494 -3.15035 1.8748 0
M  V30 5829 H 564.142 -5.02351 0.255491 0
M  V30 5830 H 563.842 -5.54971 1.93082 0
M  V30 5831 H 565.366 -6.00314 1.11607 0
M  V30 5832 H 566.78 -4.84259 3.06864 0
M  V30 5833 H 565.177 -4.62131 3.82825 0
M  V30 5834 H 566.247 -3.22273 3.6231 0
M  V30 5835 N 567.59 -1.07411 -1.15328 0
M  V30 5836 C 568.815 -0.818856 -1.90551 0
M  V30 5837 C 569.24 0.622194 -1.77512 0
M  V30 5838 O 568.598 1.43484 -1.10824 0
M  V30 5839 C 568.646 -1.23267 -3.38877 0
M  V30 5840 O 567.75 -0.378345 -4.10661 0
M  V30 5841 H 567.091 -0.29827 -0.593238 0
M  V30 5842 H 569.621 -1.43289 -1.46046 0
M  V30 5843 H 569.631 -1.20912 -3.89672 0
M  V30 5844 H 568.306 -2.28226 -3.47686 0
M  V30 5845 H 566.883 -0.464437 -3.69996 0
M  V30 5846 N 569.068 1.32177 -0.85831 0
M  V30 5847 C 570.015 2.28794 -0.303607 0
M  V30 5848 C 570.985 1.55213 0.591453 0
M  V30 5849 O 572.17 1.83418 0.525585 0
M  V30 5850 C 569.31 3.41475 0.49889 0
M  V30 5851 C 568.423 4.2993 -0.422373 0
M  V30 5852 C 567.558 5.29743 0.393111 0
M  V30 5853 C 566.597 6.09842 -0.525317 0
M  V30 5854 N 565.734 7.01643 0.253208 0
M  V30 5855 H 570.574 2.75631 -1.13276 0
M  V30 5856 H 568.111 1.35606 -0.570026 0
M  V30 5857 H 570.069 4.05531 0.979826 0
M  V30 5858 H 568.699 2.95779 1.29284 0
M  V30 5859 H 567.751 3.66422 -1.02171 0
M  V30 5860 H 569.063 4.85899 -1.12709 0
M  V30 5861 H 568.217 5.9942 0.937056 0
M  V30 5862 H 566.956 4.744 1.13117 0
M  V30 5863 H 565.961 5.39066 -1.08112 0
M  V30 5864 H 567.186 6.6727 -1.26205 0
M  V30 5865 H 565.132 6.48725 0.974295 0
M  V30 5866 H 565.049 7.54981 -0.392398 0
M  V30 5867 H 566.317 7.756 0.778761 0
M  V30 5868 N 570.547 0.616602 1.45037 0
M  V30 5869 C 571.793 0.115501 2.02471 0
M  V30 5870 C 572.126 -1.25406 1.4828 0
M  V30 5871 O 571.401 -1.82922 0.661051 0
M  V30 5872 C 571.684 0.0863588 3.59996 0
M  V30 5873 C 571.537 1.48723 4.24501 0
M  V30 5874 C 572.856 -0.596762 4.36035 0
M  V30 5875 H 569.975 0.0434461 0.735718 0
M  V30 5876 H 572.617 0.7903 1.72784 0
M  V30 5877 H 570.767 -0.488277 3.85419 0
M  V30 5878 H 572.439 2.10964 4.10234 0
M  V30 5879 H 570.682 2.04534 3.82555 0
M  V30 5880 H 571.353 1.419 5.3345 0
M  V30 5881 H 573.829 -0.10824 4.15959 0
M  V30 5882 H 572.705 -0.586289 5.4576 0
M  V30 5883 H 572.966 -1.66451 4.09569 0
M  V30 5884 N 572.025 -1.5352 0.356285 0
M  V30 5885 C 573.265 -2.03027 -0.23649 0
M  V30 5886 C 573.629 -1.23813 -1.46746 0
M  V30 5887 O 574.83 -1.63281 -2.13525 0
M  V30 5888 C 573.101 -3.53442 -0.530415 0
M  V30 5889 S 574.66 -4.24836 -1.09819 0
M  V30 5890 H 571.478 -0.707591 -0.0695378 0
M  V30 5891 H 574.08 -1.89077 0.496999 0
M  V30 5892 H 572.784 -4.087 0.373114 0
M  V30 5893 H 572.315 -3.71536 -1.29323 0
M  V30 5894 H 574.33 -4.35228 -2.38309 0
M  V30 5895 N 573.503 -0.0852151 -1.57369 0
M  V30 5896 C 574.466 0.8627 -2.12344 0
M  V30 5897 C 575.466 1.21746 -1.05046 0
M  V30 5898 O 576.656 1.14852 -1.30976 0
M  V30 5899 C 573.788 2.1618 -2.63589 0
M  V30 5900 H 574.981 0.385511 -2.97412 0
M  V30 5901 H 572.534 0.163663 -1.55441 0
M  V30 5902 H 573.269 2.68406 -1.82013 0
M  V30 5903 H 573.054 1.91723 -3.4203 0
M  V30 5904 H 574.544 2.84011 -3.06149 0
M  V30 5905 N 574.981 1.5647 0.188427 0
M  V30 5906 C 576.229 1.80655 0.905986 0
M  V30 5907 C 576.55 0.659391 1.83513 0
M  V30 5908 O 575.82 -0.321868 1.93238 0
M  V30 5909 H 574.4 0.666391 0.337538 0
M  V30 5910 H 577.062 1.93949 0.192339 0
M  V30 5911 H 576.158 2.74066 1.49313 0
M  V30 5912 N 576.459 -0.456382 1.50847 0
M  V30 5913 C 577.389 -1.56025 1.73719 0
M  V30 5914 C 578.37 -1.5967 0.586473 0
M  V30 5915 O 579.555 -1.75702 0.827185 0
M  V30 5916 C 576.685 -2.94251 1.84483 0
M  V30 5917 C 575.639 -3.05471 2.99786 0
M  V30 5918 C 574.965 -4.45489 2.95709 0
M  V30 5919 C 576.265 -2.81318 4.40065 0
M  V30 5920 H 577.959 -1.37138 2.66146 0
M  V30 5921 H 575.505 -0.658299 1.28072 0
M  V30 5922 H 577.458 -3.71417 1.99067 0
M  V30 5923 H 576.182 -3.14328 0.886891 0
M  V30 5924 H 574.841 -2.30741 2.84876 0
M  V30 5925 H 574.489 -4.62505 1.97732 0
M  V30 5926 H 574.189 -4.53929 3.73125 0
M  V30 5927 H 575.713 -5.24655 3.12362 0
M  V30 5928 H 577.127 -3.48226 4.55425 0
M  V30 5929 H 575.524 -3.01188 5.19043 0
M  V30 5930 H 576.594 -1.7706 4.51418 0
M  V30 5931 N 577.937 -1.40673 -0.710563 0
M  V30 5932 C 578.9 -1.4108 -1.80635 0
M  V30 5933 C 579.9 -0.303783 -1.57904 0
M  V30 5934 O 581.09 -0.562937 -1.64853 0
M  V30 5935 C 578.222 -1.20748 -3.18799 0
M  V30 5936 H 579.415 -2.38612 -1.81671 0
M  V30 5937 H 576.968 -1.26595 -0.916704 0
M  V30 5938 H 577.703 -0.239964 -3.23411 0
M  V30 5939 H 577.488 -2.00941 -3.36698 0
M  V30 5940 H 578.978 -1.23833 -3.98817 0
M  V30 5941 N 579.415 0.9433 -1.26252 0
M  V30 5942 C 580.826 1.50404 -1.10614 0
M  V30 5943 C 581.177 1.93666 0.31429 0
M  V30 5944 O 580.302 1.79709 1.20555 0
M  V30 5945 C 580.897 2.73336 -2.00182 0
M  V30 5946 C 579.456 3.25686 -1.88695 0
M  V30 5947 C 578.603 1.98474 -1.93658 0
M  V30 5948 H 581.554 0.759006 -1.39373 0
M  V30 5949 H 581.575 3.47567 -1.54847 0
M  V30 5950 H 581.087 2.41818 -3.03555 0
M  V30 5951 H 579.188 3.61998 -0.882489 0
M  V30 5952 H 579.301 3.92935 -2.74115 0
M  V30 5953 H 577.665 2.14278 -1.37684 0
M  V30 5954 H 578.448 1.6929 -2.98657 0
M  V30 5955 N 580.893 1.08022 1.14757 0
M  V30 5956 C 582.309 0.807072 1.3769 0
M  V30 5957 C 582.509 -0.585504 1.92806 0
M  V30 5958 O 581.565 -1.34301 2.13821 0
M  V30 5959 C 582.878 1.88651 2.34161 0
M  V30 5960 C 584.426 1.91206 2.47809 0
M  V30 5961 C 584.901 2.98253 3.47576 0
M  V30 5962 N 586.392 2.974 3.55117 0
M  V30 5963 C 587.127 3.76872 4.32152 0
M  V30 5964 N 586.623 4.66212 5.12463 0
M  V30 5965 N 588.416 3.6519 4.27309 0
M  V30 5966 H 580.567 1.97824 0.77326 0
M  V30 5967 H 582.83 0.85826 0.402608 0
M  V30 5968 H 582.536 2.88749 2.00791 0
M  V30 5969 H 582.41 1.75244 3.3402 0
M  V30 5970 H 584.797 0.917564 2.80472 0
M  V30 5971 H 584.878 2.08691 1.47925 0
M  V30 5972 H 584.522 3.97907 3.15646 0
M  V30 5973 H 584.452 2.78014 4.47231 0
M  V30 5974 H 586.943 2.32643 2.97801 0
M  V30 5975 H 587.256 5.23468 5.68508 0
M  V30 5976 H 585.601 4.70257 5.11745 0
M  V30 5977 H 588.792 2.94765 3.63636 0
M  V30 5978 H 588.965 4.27366 4.87095 0
M  V30 5979 N 582.371 -1.3172 0.865308 0
M  V30 5980 C 583.619 -1.96487 0.472995 0
M  V30 5981 C 583.94 -1.68761 -0.976975 0
M  V30 5982 O 583.21 -1.00051 -1.68424 0
M  V30 5983 H 581.79 -0.726947 0.171922 0
M  V30 5984 H 584.452 -1.60612 1.10407 0
M  V30 5985 H 583.548 -3.0574 0.62687 0
M  V30 5986 N 583.85 -0.624285 -1.44708 0
M  V30 5987 C 584.797 0.0847135 -2.30644 0
M  V30 5988 C 585.767 0.843575 -1.43084 0
M  V30 5989 O 586.952 0.825982 -1.71995 0
M  V30 5990 C 584.091 1.06495 -3.28257 0
M  V30 5991 C 583.205 0.305224 -4.3092 0
M  V30 5992 C 582.34 1.27667 -5.1563 0
M  V30 5993 C 581.379 0.505706 -6.10007 0
M  V30 5994 N 580.516 1.42727 -6.8744 0
M  V30 5995 H 585.356 -0.654068 -2.90733 0
M  V30 5996 H 582.893 -0.334334 -1.4325 0
M  V30 5997 H 584.851 1.64658 -3.83332 0
M  V30 5998 H 583.481 1.77094 -2.69884 0
M  V30 5999 H 582.533 -0.392207 -3.78373 0
M  V30 6000 H 583.845 -0.295553 -4.97924 0
M  V30 6001 H 582.999 1.92984 -5.75189 0
M  V30 6002 H 581.738 1.91137 -4.48685 0
M  V30 6003 H 580.743 -0.160999 -5.49564 0
M  V30 6004 H 581.968 -0.124183 -6.78986 0
M  V30 6005 H 579.913 2.04931 -6.23169 0
M  V30 6006 H 579.831 0.880345 -7.50857 0
M  V30 6007 H 581.099 2.0695 -7.51526 0
M  V30 6008 N 585.328 1.53329 -0.364422 0
M  V30 6009 C 586.238 2.29414 0.490552 0
M  V30 6010 C 587.254 1.35335 1.09363 0
M  V30 6011 O 588.43 1.68391 1.10483 0
M  V30 6012 C 585.495 3.06772 1.61529 0
M  V30 6013 C 584.556 4.16516 1.03986 0
M  V30 6014 C 583.789 4.90176 2.111 0
M  V30 6015 O 584.012 4.63687 3.32191 0
M  V30 6016 O 582.946 5.76134 1.74222 0
M  V30 6017 H 586.772 3.03428 -0.12856 0
M  V30 6018 H 584.357 1.48843 -0.128837 0
M  V30 6019 H 586.239 3.55082 2.26924 0
M  V30 6020 H 584.914 2.35596 2.21983 0
M  V30 6021 H 583.821 3.7246 0.349856 0
M  V30 6022 H 585.154 4.89855 0.4799 0
M  V30 6023 N 586.806 0.0935595 1.57322 0
M  V30 6024 C 588.054 -0.569383 1.93913 0
M  V30 6025 C 588.375 -1.68817 0.976009 0
M  V30 6026 O 587.645 -1.9588 0.0278099 0
M  V30 6027 H 586.225 -0.21332 0.715894 0
M  V30 6028 H 588.887 0.156531 1.9427 0
M  V30 6029 H 587.983 -0.980577 2.96296 0
M  V30 6030 N 588.284 -1.56567 -0.180126 0
M  V30 6031 C 589.232 -1.96632 -1.24251 0
M  V30 6032 C 590.226 -0.853818 -1.46309 0
M  V30 6033 O 591.432 -1.0389 -1.46993 0
M  V30 6034 H 587.807 -0.625476 -0.417473 0
M  V30 6035 H 589.778 -2.85201 -0.877679 0
M  V30 6036 C 588.527 -2.33486 -2.57642 0
M  V30 6037 H 587.85 -3.18626 -2.4149 0
M  V30 6038 H 589.29 -2.65371 -3.30688 0
M  V30 6039 C 587.749 -1.17499 -3.15746 0
M  V30 6040 O 588.279 -0.457956 -3.99081 0
M  V30 6041 N 586.485 -0.94786 -2.74707 0
M  V30 6042 H 586.032 -1.53269 -2.07042 0
M  V30 6043 H 585.99 -0.173626 -3.1392 0
M  V30 6044 N 589.762 0.448376 -1.51087 0
M  V30 6045 C 590.694 1.56146 -1.67783 0
M  V30 6046 C 591.707 1.52913 -0.55871 0
M  V30 6047 O 592.896 1.57889 -0.83267 0
M  V30 6048 C 589.996 2.95057 -1.66716 0
M  V30 6049 C 589.169 3.22915 -2.95033 0
M  V30 6050 C 588.228 4.41495 -2.86302 0
M  V30 6051 O 587.254 4.40688 -3.60254 0
M  V30 6052 N 588.456 5.44443 -2.014 0
M  V30 6053 H 591.221 1.42232 -2.638 0
M  V30 6054 H 588.782 0.637153 -1.48835 0
M  V30 6055 H 590.774 3.72388 -1.58458 0
M  V30 6056 H 589.344 3.02624 -0.783403 0
M  V30 6057 H 588.564 2.33985 -3.17245 0
M  V30 6058 H 589.852 3.38349 -3.79996 0
M  V30 6059 H 589.25 5.4793 -1.40674 0
M  V30 6060 H 587.807 6.2067 -1.99029 0
M  V30 6061 N 591.24 1.41047 0.703093 0
M  V30 6062 C 592.517 1.30493 1.45708 0
M  V30 6063 C 592.897 -0.0709892 2.10981 0
M  V30 6064 O 592.245 -1.08471 2.01113 0
M  V30 6065 C 592.455 2.45287 2.48265 0
M  V30 6066 C 593.803 2.86104 3.13735 0
M  V30 6067 O 594.827 2.44971 2.58587 0
M  V30 6068 O 593.686 3.57206 4.13601 0
M  V30 6069 H 590.78 0.513144 0.648546 0
M  V30 6070 H 593.326 1.52995 0.734208 0
M  V30 6071 H 592.098 3.37135 1.98635 0
M  V30 6072 H 591.721 2.24622 3.28071 0
M  V30 6073 N 592.718 -0.936591 1.26751 0
M  V30 6074 C 593.666 -2.0573 1.08527 0
M  V30 6075 C 594.66 -1.69397 0.0108784 0
M  V30 6076 O 595.866 -1.79215 0.167915 0
M  V30 6077 H 592.241 -0.673691 0.334133 0
M  V30 6078 H 594.212 -2.1825 2.03493 0
M  V30 6079 C 592.961 -3.39738 0.739845 0
M  V30 6080 H 592.284 -3.68174 1.55845 0
M  V30 6081 H 593.724 -4.18955 0.652149 0
M  V30 6082 C 592.183 -3.32292 -0.555288 0
M  V30 6083 O 592.713 -3.68794 -1.59229 0
M  V30 6084 N 590.919 -2.85394 -0.54762 0
M  V30 6085 H 590.466 -2.55886 0.296667 0
M  V30 6086 H 590.424 -2.80795 -1.41427 0
M  V30 6087 N 594.196 -1.08629 -1.14182 0
M  V30 6088 C 595.143 -0.718299 -2.19338 0
M  V30 6089 C 596.113 0.296587 -1.63431 0
M  V30 6090 O 597.298 0.180079 -1.89948 0
M  V30 6091 C 594.438 -0.136203 -3.44831 0
M  V30 6092 C 593.551 -1.20414 -4.14879 0
M  V30 6093 C 592.686 -0.585666 -5.27962 0
M  V30 6094 C 591.725 -1.63548 -5.89846 0
M  V30 6095 N 590.862 -1.03864 -6.94375 0
M  V30 6096 H 595.702 -1.61932 -2.50164 0
M  V30 6097 H 593.239 -0.80919 -1.22844 0
M  V30 6098 H 595.197 0.219021 -4.16625 0
M  V30 6099 H 593.827 0.728121 -3.14481 0
M  V30 6100 H 592.879 -1.67676 -3.41451 0
M  V30 6101 H 594.191 -1.99959 -4.56966 0
M  V30 6102 H 593.345 -0.178818 -6.06436 0
M  V30 6103 H 592.084 0.24142 -4.87102 0
M  V30 6104 H 591.089 -2.05197 -5.10073 0
M  V30 6105 H 592.314 -2.46509 -6.3278 0
M  V30 6106 H 590.26 -0.232687 -6.55587 0
M  V30 6107 H 590.177 -1.77116 -7.3496 0
M  V30 6108 H 591.445 -0.657724 -7.7672 0
M  V30 6109 N 595.674 1.31259 -0.872281 0
M  V30 6110 C 596.622 2.30404 -0.318897 0
M  V30 6111 C 597.616 1.5962 0.567267 0
M  V30 6112 O 598.822 1.74204 0.453111 0
M  V30 6113 H 595.197 0.747243 -0.0844474 0
M  V30 6114 H 597.168 2.74549 -1.16899 0
M  V30 6115 C 595.917 3.44608 0.462683 0
M  V30 6116 H 595.24 3.99248 -0.209936 0
M  V30 6117 H 596.68 4.1609 0.815187 0
M  V30 6118 C 595.139 2.93456 1.65485 0
M  V30 6119 O 595.669 2.92418 2.75417 0
M  V30 6120 N 593.875 2.49628 1.48776 0
M  V30 6121 H 593.422 2.50671 0.593452 0
M  V30 6122 H 593.38 2.15759 2.28682 0
M  V30 6123 N 597.152 0.631951 1.44375 0
M  V30 6124 C 598.398 0.13697 2.02337 0
M  V30 6125 C 598.731 -1.23826 1.49602 0
M  V30 6126 O 598.006 -1.8221 0.680415 0
M  V30 6127 C 598.289 0.124536 3.59885 0
M  V30 6128 C 598.142 1.53217 4.229 0
M  V30 6129 C 599.461 -0.550481 4.36644 0
M  V30 6130 H 596.58 0.051247 0.735216 0
M  V30 6131 H 599.222 0.808581 1.71936 0
M  V30 6132 H 597.372 -0.44737 3.85916 0
M  V30 6133 H 599.044 2.15303 4.07973 0
M  V30 6134 H 597.287 2.0858 3.80364 0
M  V30 6135 H 597.958 1.4755 5.31914 0
M  V30 6136 H 600.434 -0.0641154 4.16051 0
M  V30 6137 H 599.31 -0.528371 5.46351 0
M  V30 6138 H 599.571 -1.62097 4.11311 0
M  V30 6139 N 598.631 -1.53133 0.372548 0
M  V30 6140 C 599.579 -2.27473 -0.485681 0
M  V30 6141 C 600.573 -1.30719 -1.07745 0
M  V30 6142 O 601.779 -1.48321 -1.01985 0
M  V30 6143 H 598.154 -0.731269 -0.175356 0
M  V30 6144 H 600.125 -2.97955 0.162986 0
M  V30 6145 C 598.874 -3.08191 -1.60978 0
M  V30 6146 H 598.197 -3.82488 -1.16373 0
M  V30 6147 H 599.637 -3.63373 -2.18485 0
M  V30 6148 C 598.096 -2.19461 -2.55614 0
M  V30 6149 O 598.626 -1.81008 -3.58607 0
M  V30 6150 N 596.832 -1.83955 -2.24965 0
M  V30 6151 H 596.379 -2.15423 -1.41247 0
M  V30 6152 H 596.337 -1.24874 -2.88538 0
M  V30 6153 N 600.109 -0.101901 -1.5727 0
M  V30 6154 C 601.355 0.561027 -1.94885 0
M  V30 6155 C 601.688 1.6741 -0.984258 0
M  V30 6156 O 600.963 1.94491 -0.0184767 0
M  V30 6157 C 601.246 1.10982 -3.42571 0
M  V30 6158 C 601.099 0.00133418 -4.498 0
M  V30 6159 C 602.418 2.00608 -3.9172 0
M  V30 6160 H 599.537 0.202467 -0.708644 0
M  V30 6161 H 602.179 -0.173992 -1.89202 0
M  V30 6162 H 600.329 1.73621 -3.47546 0
M  V30 6163 H 602.001 -0.63322 -4.56933 0
M  V30 6164 H 600.244 -0.664143 -4.28686 0
M  V30 6165 H 600.915 0.426253 -5.50352 0
M  V30 6166 H 603.391 1.47864 -3.88941 0
M  V30 6167 H 602.267 2.3593 -4.95609 0
M  V30 6168 H 602.528 2.92608 -3.3141 0
M  V30 6169 N 601.587 1.56661 0.17182 0
M  V30 6170 C 602.535 1.97289 1.23207 0
M  V30 6171 C 603.529 0.861566 1.45854 0
M  V30 6172 O 604.735 1.04668 1.4644 0
M  V30 6173 H 601.11 0.627681 0.41415 0
M  V30 6174 H 603.081 2.85662 0.862542 0
M  V30 6175 C 601.83 2.34849 2.564 0
M  V30 6176 H 601.153 3.19903 2.39797 0
M  V30 6177 H 602.593 2.67121 3.29276 0
M  V30 6178 C 601.052 1.19172 3.15119 0
M  V30 6179 O 601.582 0.479113 3.98833 0
M  V30 6180 N 599.788 0.962415 2.74201 0
M  V30 6181 H 599.335 1.54365 2.06226 0
M  V30 6182 H 599.293 0.190272 3.13824 0
M  V30 6183 N 603.065 -0.440357 1.51323 0
M  V30 6184 C 604.012 -1.53429 1.72419 0
M  V30 6185 C 604.982 -1.56165 0.565826 0
M  V30 6186 O 606.167 -1.73222 0.799917 0
M  V30 6187 C 603.307 -2.91169 1.85242 0
M  V30 6188 C 602.42 -2.97985 3.12777 0
M  V30 6189 C 601.555 -4.26829 3.16212 0
M  V30 6190 C 600.594 -4.27501 4.38074 0
M  V30 6191 N 599.731 -5.47866 4.39076 0
M  V30 6192 H 604.571 -1.34743 2.65797 0
M  V30 6193 H 602.108 -0.654608 1.31732 0
M  V30 6194 H 604.066 -3.71087 1.90658 0
M  V30 6195 H 602.696 -3.0842 0.952744 0
M  V30 6196 H 601.748 -2.10749 3.16685 0
M  V30 6197 H 603.06 -2.94342 4.02696 0
M  V30 6198 H 602.214 -5.15118 3.20527 0
M  V30 6199 H 600.953 -4.33124 2.24176 0
M  V30 6200 H 599.958 -3.37606 4.33938 0
M  V30 6201 H 601.183 -4.22873 5.31371 0
M  V30 6202 H 599.129 -5.54887 3.49909 0
M  V30 6203 H 599.046 -5.46091 5.22801 0
M  V30 6204 H 600.314 -6.38195 4.4758 0
M  V30 6205 N 604.543 -1.41418 -0.695603 0
M  V30 6206 C 605.773 -1.43921 -1.48224 0
M  V30 6207 C 606.181 -0.0428855 -1.89151 0
M  V30 6208 O 605.524 0.948138 -1.5734 0
M  V30 6209 C 605.586 -2.28466 -2.77567 0
M  V30 6210 C 605.25 -3.76629 -2.58844 0
M  V30 6211 C 606.247 -4.6879 -2.24793 0
M  V30 6212 C 603.932 -4.2067 -2.74485 0
M  V30 6213 C 605.926 -6.02981 -2.06622 0
M  V30 6214 C 603.613 -5.54926 -2.55931 0
M  V30 6215 C 604.611 -6.45897 -2.2205 0
M  V30 6216 O 604.299 -7.77675 -2.03657 0
M  V30 6217 H 604.031 -0.492252 -0.463318 0
M  V30 6218 H 606.585 -1.86347 -0.863952 0
M  V30 6219 H 604.815 -1.80853 -3.41802 0
M  V30 6220 H 606.504 -2.2267 -3.39371 0
M  V30 6221 H 607.27 -4.36055 -2.12323 0
M  V30 6222 H 603.149 -3.50167 -2.9984 0
M  V30 6223 H 606.693 -6.73951 -1.80099 0
M  V30 6224 H 602.59 -5.8724 -2.67991 0
M  V30 6225 H 603.358 -7.88819 -2.1842 0
M  V30 6226 N 606.021 0.929856 -1.27246 0
M  V30 6227 C 607.267 1.6802 -1.14634 0
M  V30 6228 C 607.622 1.89965 0.305151 0
M  V30 6229 O 606.915 1.47737 1.22001 0
M  V30 6230 C 607.109 3.05116 -1.86115 0
M  V30 6231 C 606.938 2.96549 -3.38066 0
M  V30 6232 C 605.708 2.98947 -4.0738 0
M  V30 6233 C 607.906 2.7583 -4.34077 0
M  V30 6234 N 605.888 2.80799 -5.45917 0
M  V30 6235 C 607.259 2.66364 -5.59866 0
M  V30 6236 C 609.314 2.60701 -4.24193 0
M  V30 6237 C 608.017 2.43313 -6.76898 0
M  V30 6238 C 610.043 2.39026 -5.40944 0
M  V30 6239 C 609.405 2.30302 -6.65688 0
M  V30 6240 H 605.504 0.62172 -0.474329 0
M  V30 6241 H 608.088 1.09947 -1.60685 0
M  V30 6242 H 606.259 3.61306 -1.42522 0
M  V30 6243 H 607.991 3.69076 -1.66027 0
M  V30 6244 H 604.746 3.09093 -3.58829 0
M  V30 6245 H 605.17 2.74861 -6.18692 0
M  V30 6246 H 609.812 2.66206 -3.28473 0
M  V30 6247 H 607.53 2.36548 -7.72704 0
M  V30 6248 H 611.116 2.28208 -5.35175 0
M  V30 6249 H 609.996 2.13756 -7.54505 0
M  V30 6250 N 607.499 1.09233 1.13605 0
M  V30 6251 C 608.429 0.751738 2.21068 0
M  V30 6252 C 609.41 -0.269688 1.67948 0
M  V30 6253 O 610.595 -0.13819 1.93708 0
M  V30 6254 C 607.725 0.16935 3.46887 0
M  V30 6255 C 606.679 1.12007 4.13084 0
M  V30 6256 C 606.005 0.399483 5.33206 0
M  V30 6257 C 607.305 2.46168 4.6065 0
M  V30 6258 H 608.999 1.65024 2.49815 0
M  V30 6259 H 606.545 0.794905 1.20072 0
M  V30 6260 H 608.498 -0.0809824 4.21322 0
M  V30 6261 H 607.222 -0.764335 3.1753 0
M  V30 6262 H 605.881 1.35564 3.40614 0
M  V30 6263 H 605.529 -0.538277 5.00112 0
M  V30 6264 H 605.229 1.03337 5.78442 0
M  V30 6265 H 606.753 0.157403 6.10397 0
M  V30 6266 H 608.167 2.26829 5.26518 0
M  V30 6267 H 606.564 3.05326 5.1662 0
M  V30 6268 H 607.634 3.07076 3.75276 0
M  V30 6269 N 608.977 -1.30795 0.87923 0
M  V30 6270 C 610.202 -2.01063 0.508769 0
M  V30 6271 C 610.627 -1.65508 -0.893803 0
M  V30 6272 O 609.985 -0.868616 -1.59138 0
M  V30 6273 C 610.033 -3.54054 0.683991 0
M  V30 6274 O 609.137 -4.11498 -0.272654 0
M  V30 6275 H 608.478 -0.632786 0.201191 0
M  V30 6276 H 611.008 -1.66776 1.18519 0
M  V30 6277 H 611.018 -4.03845 0.580798 0
M  V30 6278 H 609.693 -3.79271 1.70665 0
M  V30 6279 H 608.27 -3.72695 -0.12364 0
M  V30 6280 N 610.455 -0.639598 -1.44038 0
M  V30 6281 C 611.68 -0.153117 -2.06834 0
M  V30 6282 C 612.105 1.16676 -1.47541 0
M  V30 6283 O 611.463 1.71769 -0.580093 0
M  V30 6284 C 611.511 -0.0609169 -3.60549 0
M  V30 6285 O 610.615 0.98071 -4.00569 0
M  V30 6286 H 609.956 -0.0886402 -0.658057 0
M  V30 6287 H 612.486 -0.878674 -1.84771 0
M  V30 6288 H 612.496 0.126892 -4.07803 0
M  V30 6289 H 611.171 -1.0245 -4.03084 0
M  V30 6290 H 609.748 0.766789 -3.64931 0
M  V30 6291 N 611.933 1.52934 -0.380664 0
M  V30 6292 C 612.896 2.24809 0.446473 0
M  V30 6293 C 613.896 1.26133 0.997347 0
M  V30 6294 O 615.086 1.50297 0.880714 0
M  V30 6295 C 612.218 2.99649 1.62553 0
M  V30 6296 H 613.411 2.99343 -0.182677 0
M  V30 6297 H 610.964 1.55736 -0.132618 0
M  V30 6298 H 611.699 2.29395 2.29235 0
M  V30 6299 H 611.484 3.72066 1.23732 0
M  V30 6300 H 612.974 3.54246 2.21133 0
M  V30 6301 N 613.412 0.11024 1.57214 0
M  V30 6302 C 614.652 -0.553061 1.96775 0
M  V30 6303 C 615.016 -1.64403 0.991753 0
M  V30 6304 O 616.217 -2.36561 1.27642 0
M  V30 6305 C 614.488 -1.08004 3.4069 0
M  V30 6306 S 616.047 -1.75309 4.02259 0
M  V30 6307 H 612.865 -0.18003 0.68783 0
M  V30 6308 H 615.467 0.193242 1.94543 0
M  V30 6309 H 614.171 -0.274735 4.09479 0
M  V30 6310 H 613.702 -1.86182 3.46554 0
M  V30 6311 H 615.717 -3.03834 3.923 0
M  V30 6312 N 614.89 -1.56749 -0.16351 0
M  V30 6313 C 616.138 -1.82074 -0.87713 0
M  V30 6314 C 616.459 -0.688503 -1.82441 0
M  V30 6315 O 615.729 0.291085 -1.93725 0
M  V30 6316 H 614.309 -0.671677 -0.326893 0
M  V30 6317 H 616.971 -1.9423 -0.161459 0
M  V30 6318 H 616.067 -2.76407 -1.44934 0
M  V30 6319 N 616.368 0.432326 -1.51554 0
M  V30 6320 C 617.593 1.20824 -1.68571 0
M  V30 6321 C 618.018 1.84126 -0.384596 0
M  V30 6322 O 617.376 1.69025 0.655751 0
M  V30 6323 C 617.424 2.26429 -2.80646 0
M  V30 6324 O 616.528 3.32032 -2.44598 0
M  V30 6325 H 615.869 0.353765 -0.561913 0
M  V30 6326 H 618.399 0.509916 -1.98144 0
M  V30 6327 H 618.409 2.71133 -3.04878 0
M  V30 6328 H 617.084 1.79733 -3.75058 0
M  V30 6329 H 615.661 2.92769 -2.30956 0
M  V30 6330 N 617.846 1.41785 0.688094 0
M  V30 6331 C 619.123 1.32031 1.44316 0
M  V30 6332 C 619.503 -0.0486079 2.11044 0
M  V30 6333 O 618.851 -1.06332 2.02252 0
M  V30 6334 C 619.061 2.47906 2.45649 0
M  V30 6335 C 620.409 2.89415 3.10683 0
M  V30 6336 O 621.433 2.477 2.55975 0
M  V30 6337 O 620.292 3.61573 4.09789 0
M  V30 6338 H 617.386 0.519994 0.643067 0
M  V30 6339 H 619.932 1.53765 0.71794 0
M  V30 6340 H 618.704 3.39222 1.95048 0
M  V30 6341 H 618.327 2.28089 3.25671 0
M  V30 6342 N 619.324 -0.923095 1.27737 0
M  V30 6343 C 620.571 -1.67127 1.14345 0
M  V30 6344 C 620.899 -1.92017 -0.30982 0
M  V30 6345 O 620.154 -1.51185 -1.24264 0
M  V30 6346 C 620.453 -3.04125 1.8773 0
M  V30 6347 C 620.119 -2.98929 3.37568 0
M  V30 6348 C 618.781 -2.9722 3.78436 0
M  V30 6349 C 621.133 -2.89875 4.33154 0
M  V30 6350 C 618.461 -2.84244 5.13247 0
M  V30 6351 C 620.813 -2.7844 5.68026 0
M  V30 6352 C 619.477 -2.75083 6.08182 0
M  V30 6353 H 618.747 -0.611562 0.418417 0
M  V30 6354 H 621.394 -1.07618 1.584 0
M  V30 6355 H 619.699 -3.67366 1.36196 0
M  V30 6356 H 621.396 -3.609 1.74792 0
M  V30 6357 H 617.986 -3.0105 3.05069 0
M  V30 6358 H 622.17 -2.9029 4.02548 0
M  V30 6359 H 617.426 -2.80034 5.43499 0
M  V30 6360 H 621.6 -2.70401 6.4176 0
M  V30 6361 H 619.227 -2.64786 7.12596 0
M  V30 6362 N 620.802 -1.09834 -1.13024 0
M  V30 6363 C 622.032 -0.857657 -1.87957 0
M  V30 6364 C 622.44 0.595008 -1.796 0
M  V30 6365 O 621.783 1.42158 -1.16347 0
M  V30 6366 C 621.845 -1.21949 -3.38185 0
M  V30 6367 C 621.509 -2.67791 -3.7032 0
M  V30 6368 C 622.506 -3.66036 -3.69207 0
M  V30 6369 C 620.191 -3.04019 -3.99847 0
M  V30 6370 C 622.185 -4.98533 -3.9717 0
M  V30 6371 C 619.872 -4.36706 -4.27471 0
M  V30 6372 C 620.87 -5.33772 -4.26118 0
M  V30 6373 O 620.558 -6.64072 -4.53061 0
M  V30 6374 H 620.29 -0.308009 -0.601753 0
M  V30 6375 H 622.844 -1.46496 -1.43973 0
M  V30 6376 H 621.074 -0.555249 -3.82693 0
M  V30 6377 H 622.763 -0.957281 -3.9445 0
M  V30 6378 H 623.529 -3.39392 -3.46465 0
M  V30 6379 H 619.408 -2.29096 -4.00045 0
M  V30 6380 H 622.952 -5.74288 -3.96029 0
M  V30 6381 H 618.849 -4.63091 -4.49685 0
M  V30 6382 H 619.617 -6.69608 -4.7071 0
M  V30 6383 N 622.28 1.30327 -0.886154 0
M  V30 6384 C 623.213 2.26241 -0.298407 0
M  V30 6385 C 624.191 1.51839 0.581704 0
M  V30 6386 O 625.375 1.80851 0.531536 0
M  V30 6387 C 622.502 3.33768 0.575888 0
M  V30 6388 C 621.548 4.25852 -0.235057 0
M  V30 6389 S 622.381 5.10277 -1.62411 0
M  V30 6390 C 623.537 6.21313 -0.756368 0
M  V30 6391 H 623.77 2.75744 -1.11141 0
M  V30 6392 H 621.303 1.38341 -0.685651 0
M  V30 6393 H 623.261 3.96186 1.07458 0
M  V30 6394 H 621.922 2.82986 1.363 0
M  V30 6395 H 621.115 5.02143 0.432198 0
M  V30 6396 H 620.717 3.68015 -0.666409 0
M  V30 6397 H 623.009 6.77495 0.0261451 0
M  V30 6398 H 623.952 6.92226 -1.49093 0
M  V30 6399 H 624.36 5.63611 -0.316749 0
M  V30 6400 N 623.758 0.647228 1.43697 0
M  V30 6401 C 624.721 -0.0385101 2.29168 0
M  V30 6402 C 625.721 -0.756487 1.41894 0
M  V30 6403 O 626.911 -0.598641 1.63591 0
M  V30 6404 C 624.043 -1.06524 3.23829 0
M  V30 6405 H 625.236 0.713445 2.9129 0
M  V30 6406 H 622.789 0.408153 1.50877 0
M  V30 6407 H 623.524 -1.84664 2.66589 0
M  V30 6408 H 623.309 -0.554147 3.88164 0
M  V30 6409 H 624.799 -1.54432 3.87996 0
M  V30 6410 N 625.236 -1.5273 0.388769 0
M  V30 6411 C 626.647 -1.86505 -0.0853788 0
M  V30 6412 C 626.998 -1.30847 -1.46197 0
M  V30 6413 O 626.123 -0.639609 -2.06732 0
M  V30 6414 C 626.718 -3.38414 -0.161703 0
M  V30 6415 C 625.277 -3.71902 -0.580144 0
M  V30 6416 C 624.424 -2.76095 0.258218 0
M  V30 6417 H 627.375 -1.46647 0.606665 0
M  V30 6418 H 627.396 -3.67638 -0.980936 0
M  V30 6419 H 626.908 -3.78893 0.840333 0
M  V30 6420 H 625.009 -3.36992 -1.58957 0
M  V30 6421 H 625.122 -4.77902 -0.338663 0
M  V30 6422 H 623.486 -2.53195 -0.276432 0
M  V30 6423 H 624.269 -3.19411 1.25822 0
M  V30 6424 N 626.714 -0.118576 -1.57153 0
M  V30 6425 C 627.624 0.845484 -2.18835 0
M  V30 6426 C 628.64 1.29299 -1.16438 0
M  V30 6427 O 629.816 1.35607 -1.48905 0
M  V30 6428 C 626.881 2.07795 -2.77529 0
M  V30 6429 C 625.942 1.6824 -3.9496 0
M  V30 6430 C 625.175 2.85612 -4.50845 0
M  V30 6431 O 625.398 4.01025 -4.05629 0
M  V30 6432 O 624.332 2.62721 -5.41536 0
M  V30 6433 H 628.158 0.350568 -3.0167 0
M  V30 6434 H 625.743 0.107013 -1.49016 0
M  V30 6435 H 627.625 2.79978 -3.14945 0
M  V30 6436 H 626.3 2.56294 -1.97725 0
M  V30 6437 H 625.207 0.931663 -3.62313 0
M  V30 6438 H 626.54 1.24484 -4.76198 0
M  V30 6439 N 628.193 1.56834 0.155195 0
M  V30 6440 C 629.439 1.83169 0.870467 0
M  V30 6441 C 629.772 0.698929 1.81187 0
M  V30 6442 O 629.047 -0.298035 1.92203 0
M  V30 6443 C 629.33 3.19965 1.65211 0
M  V30 6444 C 629.183 4.43792 0.732744 0
M  V30 6445 C 630.502 3.53885 2.61636 0
M  V30 6446 H 627.621 0.666288 0.315006 0
M  V30 6447 H 630.263 1.89513 0.135988 0
M  V30 6448 H 628.413 3.14687 2.27825 0
M  V30 6449 H 630.085 4.61148 0.118236 0
M  V30 6450 H 628.328 4.3378 0.0417906 0
M  V30 6451 H 628.999 5.36095 1.31552 0
M  V30 6452 H 631.475 3.5972 2.09143 0
M  V30 6453 H 630.351 4.50648 3.13381 0
M  V30 6454 H 630.612 2.79418 3.42605 0
M  V30 6455 N 629.671 -0.424282 1.51781 0
M  V30 6456 C 630.917 -1.17117 1.66298 0
M  V30 6457 C 631.272 -1.88595 0.380767 0
M  V30 6458 O 630.565 -1.81151 -0.624094 0
M  V30 6459 C 630.759 -2.20418 2.81337 0
M  V30 6460 C 630.588 -1.59081 4.20622 0
M  V30 6461 C 629.358 -1.37007 4.86371 0
M  V30 6462 C 631.556 -1.05992 5.0326 0
M  V30 6463 N 629.538 -0.714049 6.09733 0
M  V30 6464 C 630.909 -0.529933 6.17731 0
M  V30 6465 C 632.964 -0.952927 4.88696 0
M  V30 6466 C 631.667 0.0965457 7.19235 0
M  V30 6467 C 633.693 -0.340325 5.9042 0
M  V30 6468 C 633.055 0.179057 7.04172 0
M  V30 6469 H 629.154 -0.41577 0.662314 0
M  V30 6470 H 631.738 -0.46579 1.89046 0
M  V30 6471 H 629.909 -2.8833 2.60231 0
M  V30 6472 H 631.641 -2.8736 2.84968 0
M  V30 6473 H 628.396 -1.63543 4.44467 0
M  V30 6474 H 628.82 -0.403101 6.75799 0
M  V30 6475 H 633.462 -1.34033 4.00993 0
M  V30 6476 H 631.18 0.496044 8.06576 0
M  V30 6477 H 634.766 -0.259266 5.81222 0
M  V30 6478 H 633.646 0.645626 7.81538 0
M  V30 6479 N 631.149 -1.42148 -0.680565 0
M  V30 6480 C 632.059 -1.47565 -1.82378 0
M  V30 6481 C 633.075 -0.36489 -1.70131 0
M  V30 6482 O 634.251 -0.614916 -1.91783 0
M  V30 6483 C 631.316 -1.37013 -3.18478 0
M  V30 6484 C 630.377 -2.58532 -3.42724 0
M  V30 6485 C 629.61 -2.48473 -4.72331 0
M  V30 6486 O 629.833 -1.51745 -5.49845 0
M  V30 6487 O 628.767 -3.38503 -4.97694 0
M  V30 6488 H 632.593 -2.44045 -1.80764 0
M  V30 6489 H 630.178 -1.23849 -0.835569 0
M  V30 6490 H 632.06 -1.33468 -3.99705 0
M  V30 6491 H 630.735 -0.436552 -3.20743 0
M  V30 6492 H 629.642 -2.67652 -2.61368 0
M  V30 6493 H 630.975 -3.50769 -3.45286 0
M  V30 6494 N 632.627 0.916307 -1.28225 0
M  V30 6495 C 633.875 1.6619 -1.15002 0
M  V30 6496 C 634.196 1.92642 0.302329 0
M  V30 6497 O 633.466 1.54076 1.20985 0
M  V30 6498 H 632.046 0.615964 -0.422608 0
M  V30 6499 H 634.708 1.09963 -1.60917 0
M  V30 6500 H 633.804 2.62533 -1.68769 0
M  V30 6501 N 634.105 1.10431 1.1244 0
M  V30 6502 C 635.055 0.722378 2.16254 0
M  V30 6503 C 636.039 -0.268427 1.58645 0
M  V30 6504 O 637.231 -0.077169 1.76832 0
M  V30 6505 C 634.36 0.155763 3.42946 0
M  V30 6506 C 633.446 1.17361 4.07538 0
M  V30 6507 N 633.837 2.36429 4.47141 0
M  V30 6508 C 632.135 1.01412 4.34317 0
M  V30 6509 C 632.836 3.01259 4.97612 0
M  V30 6510 N 631.812 2.28777 4.93115 0
M  V30 6511 H 635.614 1.62876 2.4464 0
M  V30 6512 H 633.128 0.982031 1.29344 0
M  V30 6513 H 635.125 -0.135936 4.16678 0
M  V30 6514 H 633.785 -0.745339 3.1603 0
M  V30 6515 H 634.796 2.73954 4.39511 0
M  V30 6516 H 631.473 0.168574 4.1716 0
M  V30 6517 H 632.863 4.02541 5.37968 0
M  V30 6518 N 635.583 -1.29855 0.893053 0
M  V30 6519 C 636.813 -1.99686 0.530019 0
M  V30 6520 C 637.221 -1.67066 -0.888012 0
M  V30 6521 O 636.564 -0.908366 -1.5967 0
M  V30 6522 C 636.626 -3.53855 0.63457 0
M  V30 6523 C 636.29 -4.10013 2.01837 0
M  V30 6524 C 637.287 -4.25406 2.98874 0
M  V30 6525 C 634.972 -4.45202 2.32595 0
M  V30 6526 C 636.966 -4.7521 4.24799 0
M  V30 6527 C 634.653 -4.94704 3.58763 0
M  V30 6528 C 635.651 -5.09662 4.5468 0
M  V30 6529 O 635.339 -5.58093 5.78608 0
M  V30 6530 H 635.071 -0.644913 0.20264 0
M  V30 6531 H 637.625 -1.66518 1.20253 0
M  V30 6532 H 635.855 -3.86583 -0.0949477 0
M  V30 6533 H 637.544 -4.04922 0.281648 0
M  V30 6534 H 638.31 -3.98515 2.76425 0
M  V30 6535 H 634.189 -4.32822 1.58701 0
M  V30 6536 H 637.733 -4.86801 4.99671 0
M  V30 6537 H 633.63 -5.21032 3.81046 0
M  V30 6538 H 634.398 -5.7642 5.81104 0
M  V30 6539 N 637.061 -0.65484 -1.43351 0
M  V30 6540 C 638.289 -0.176685 -2.06144 0
M  V30 6541 C 638.704 1.15831 -1.49093 0
M  V30 6542 O 638.061 1.71542 -0.622868 0
M  V30 6543 C 638.112 -0.0813326 -3.61408 0
M  V30 6544 O 637.833 -1.36355 -4.1634 0
M  V30 6545 C 639.334 0.422706 -4.4128 0
M  V30 6546 H 636.554 -0.0906429 -0.66485 0
M  V30 6547 H 639.098 -0.895945 -1.83829 0
M  V30 6548 H 637.253 0.588496 -3.82904 0
M  V30 6549 H 637.667 -1.22381 -5.10023 0
M  V30 6550 H 639.141 0.438375 -5.50257 0
M  V30 6551 H 639.618 1.45432 -4.14423 0
M  V30 6552 H 640.224 -0.214687 -4.24758 0
M  V30 6553 N 638.539 1.52521 -0.396863 0
M  V30 6554 C 639.502 2.2527 0.422604 0
M  V30 6555 C 640.502 1.27184 0.983913 0
M  V30 6556 O 641.692 1.51222 0.864723 0
M  V30 6557 C 638.824 3.01356 1.59365 0
M  V30 6558 H 640.017 2.99133 -0.214416 0
M  V30 6559 H 637.57 1.55587 -0.149128 0
M  V30 6560 H 638.305 2.31813 2.26789 0
M  V30 6561 H 638.09 3.73357 1.19779 0
M  V30 6562 H 639.58 3.56571 2.17363 0
M  V30 6563 N 640.017 0.126909 1.57088 0
M  V30 6564 C 640.964 -0.82036 2.15728 0
M  V30 6565 C 641.934 -1.25811 1.08447 0
M  V30 6566 O 643.119 -1.33422 1.36393 0
M  V30 6567 C 640.259 -2.06199 2.76724 0
M  V30 6568 C 639.372 -1.67188 3.98337 0
M  V30 6569 C 638.507 -2.86378 4.47393 0
M  V30 6570 C 637.546 -2.43644 5.61519 0
M  V30 6571 N 636.683 -3.55775 6.05284 0
M  V30 6572 H 641.523 -0.313472 2.96347 0
M  V30 6573 H 639.06 -0.14303 1.46403 0
M  V30 6574 H 641.018 -2.78959 3.10222 0
M  V30 6575 H 639.648 -2.54333 1.98782 0
M  V30 6576 H 638.7 -0.842714 3.70948 0
M  V30 6577 H 640.012 -1.31789 4.81075 0
M  V30 6578 H 639.166 -3.67353 4.82842 0
M  V30 6579 H 637.905 -3.25009 3.63621 0
M  V30 6580 H 636.91 -1.61104 5.25667 0
M  V30 6581 H 638.135 -2.06122 6.47063 0
M  V30 6582 H 636.081 -3.94065 5.24451 0
M  V30 6583 H 635.998 -3.24325 6.82898 0
M  V30 6584 H 637.266 -4.37166 6.45373 0
M  V30 6585 N 641.495 -1.56914 -0.146875 0
M  V30 6586 C 642.458 -1.97368 -1.16526 0
M  V30 6587 C 643.458 -0.860223 -1.35856 0
M  V30 6588 O 644.648 -1.12684 -1.32846 0
M  V30 6589 C 641.78 -2.28974 -2.52555 0
M  V30 6590 H 642.973 -2.88523 -0.818209 0
M  V30 6591 H 640.526 -1.5135 -0.390221 0
M  V30 6592 H 641.261 -1.40611 -2.92231 0
M  V30 6593 H 641.046 -3.10157 -2.39886 0
M  V30 6594 H 642.536 -2.61109 -3.25902 0
M  V30 6595 N 642.974 0.416227 -1.52004 0
M  V30 6596 C 644.251 1.17637 -1.56272 0
M  V30 6597 C 644.631 2.08352 -0.339493 0
M  V30 6598 O 643.979 2.1833 0.674124 0
M  V30 6599 C 644.189 1.95986 -2.88774 0
M  V30 6600 C 645.537 2.52299 -3.41512 0
M  V30 6601 O 646.561 2.06174 -2.90467 0
M  V30 6602 O 645.42 3.3648 -4.30631 0
M  V30 6603 H 642.514 0.536726 -0.629169 0
M  V30 6604 H 645.06 0.423583 -1.64329 0
M  V30 6605 H 643.832 1.29487 -3.69254 0
M  V30 6606 H 643.455 2.78285 -2.83978 0
M  V30 6607 N 644.452 1.42507 0.673017 0
M  V30 6608 C 645.701 1.42364 1.42883 0
M  V30 6609 C 646.014 0.0441598 1.9555 0
M  V30 6610 O 647.22 -0.0798679 2.71382 0
M  V30 6611 C 645.676 2.5043 2.58482 0
M  V30 6612 C 645.284 3.94392 2.12506 0
M  V30 6613 C 647.028 2.59455 3.35981 0
M  V30 6614 C 644.935 4.93964 3.25198 0
M  V30 6615 H 643.865 0.52951 0.536782 0
M  V30 6616 H 646.516 1.68422 0.728448 0
M  V30 6617 H 644.898 2.1754 3.30896 0
M  V30 6618 H 646.072 4.36645 1.47233 0
M  V30 6619 H 644.387 3.89233 1.4794 0
M  V30 6620 H 646.984 3.31025 4.19912 0
M  V30 6621 H 647.327 1.63869 3.82691 0
M  V30 6622 H 647.86 2.91549 2.70637 0
M  V30 6623 H 644.599 5.91034 2.83477 0
M  V30 6624 H 644.119 4.56341 3.89247 0
M  V30 6625 H 645.798 5.15763 3.90637 0
M  V30 6626 N 645.93 -0.909495 1.28709 0
M  V30 6627 C 647.177 -1.65905 1.16111 0
M  V30 6628 C 647.505 -1.92334 -0.289436 0
M  V30 6629 O 646.76 -1.52495 -1.22653 0
M  V30 6630 C 647.059 -3.02117 1.90945 0
M  V30 6631 C 646.725 -2.95332 3.40719 0
M  V30 6632 C 645.387 -2.93189 3.81567 0
M  V30 6633 C 647.739 -2.85264 4.36204 0
M  V30 6634 C 645.067 -2.78784 5.16233 0
M  V30 6635 C 647.419 -2.724 5.70948 0
M  V30 6636 C 646.083 -2.68617 6.11066 0
M  V30 6637 H 645.353 -0.60709 0.42488 0
M  V30 6638 H 648 -1.05932 1.59533 0
M  V30 6639 H 646.305 -3.65901 1.40085 0
M  V30 6640 H 648.002 -3.59026 1.7861 0
M  V30 6641 H 644.592 -2.97797 3.08245 0
M  V30 6642 H 648.776 -2.86005 4.05605 0
M  V30 6643 H 644.032 -2.74254 5.46438 0
M  V30 6644 H 648.206 -2.63579 6.44592 0
M  V30 6645 H 645.833 -2.57213 7.15364 0
M  V30 6646 N 647.408 -1.11026 -1.11852 0
M  V30 6647 C 648.371 -0.768006 -2.1595 0
M  V30 6648 C 649.371 0.210538 -1.59416 0
M  V30 6649 O 650.561 -0.0133978 -1.74195 0
M  V30 6650 C 647.693 -0.138678 -3.40618 0
M  V30 6651 H 648.886 -1.69012 -2.4774 0
M  V30 6652 H 646.439 -0.911578 -1.26964 0
M  V30 6653 H 647.174 0.793872 -3.14433 0
M  V30 6654 H 646.959 -0.843012 -3.8293 0
M  V30 6655 H 648.449 0.0848039 -4.17514 0
M  V30 6656 N 648.886 1.2938 -0.899927 0
M  V30 6657 C 649.816 2.30144 -0.39446 0
M  V30 6658 C 650.797 1.61611 0.530639 0
M  V30 6659 O 651.982 1.89119 0.441319 0
M  V30 6660 C 649.112 3.45229 0.37868 0
M  V30 6661 C 648.066 4.25564 -0.456012 0
M  V30 6662 C 647.392 5.32848 0.444637 0
M  V30 6663 C 648.692 4.93651 -1.70605 0
M  V30 6664 H 650.386 2.72673 -1.23653 0
M  V30 6665 H 647.932 1.31086 -0.596034 0
M  V30 6666 H 649.885 4.14797 0.743037 0
M  V30 6667 H 648.609 3.01545 1.25453 0
M  V30 6668 H 647.268 3.57704 -0.802704 0
M  V30 6669 H 646.916 4.85408 1.31863 0
M  V30 6670 H 646.616 5.87497 -0.110154 0
M  V30 6671 H 648.14 6.05268 0.805182 0
M  V30 6672 H 649.554 5.55655 -1.41141 0
M  V30 6673 H 647.951 5.58233 -2.20217 0
M  V30 6674 H 649.021 4.18926 -2.4419 0
M  V30 6675 N 650.364 0.662433 1.43002 0
M  V30 6676 C 651.612 0.179237 2.01304 0
M  V30 6677 C 651.933 -1.21428 1.52579 0
M  V30 6678 O 651.203 -1.81294 0.742252 0
M  V30 6679 H 649.783 0.0632725 0.744316 0
M  V30 6680 H 652.445 0.856169 1.75088 0
M  V30 6681 H 651.541 0.170957 3.11631 0
M  V30 6682 N 651.842 -1.52309 0.404946 0
M  V30 6683 C 653.091 -2.00952 -0.173529 0
M  V30 6684 C 653.404 -1.29512 -1.46581 0
M  V30 6685 O 654.61 -1.6895 -2.12528 0
M  V30 6686 C 653.066 -3.58097 -0.359801 0
M  V30 6687 C 652.674 -4.38449 0.920138 0
M  V30 6688 C 654.418 -4.14984 -0.893794 0
M  V30 6689 C 652.325 -5.87227 0.701285 0
M  V30 6690 H 651.255 -0.750871 -0.0686244 0
M  V30 6691 H 653.906 -1.75687 0.529749 0
M  V30 6692 H 652.288 -3.79675 -1.12531 0
M  V30 6693 H 653.462 -4.28633 1.69147 0
M  V30 6694 H 651.777 -3.92859 1.38024 0
M  V30 6695 H 654.374 -5.23813 -1.0735 0
M  V30 6696 H 654.717 -3.72072 -1.8673 0
M  V30 6697 H 655.25 -3.97358 -0.187453 0
M  V30 6698 H 651.989 -6.34491 1.64624 0
M  V30 6699 H 651.509 -5.99792 -0.0308288 0
M  V30 6700 H 653.188 -6.46096 0.341846 0
M  V30 6701 N 653.32 -0.135238 -1.57019 0
M  V30 6702 C 654.569 0.518694 -1.94917 0
M  V30 6703 C 654.882 1.66783 -1.0219 0
M  V30 6704 O 656.088 2.38561 -1.29619 0
M  V30 6705 C 654.544 0.974123 -3.46466 0
M  V30 6706 C 654.152 -0.147439 -4.47757 0
M  V30 6707 C 655.896 1.59851 -3.93253 0
M  V30 6708 C 653.803 0.325599 -5.90503 0
M  V30 6709 H 652.733 0.19754 -0.727663 0
M  V30 6710 H 655.384 -0.217698 -1.82204 0
M  V30 6711 H 653.766 1.76542 -3.5447 0
M  V30 6712 H 654.94 -0.924122 -4.51438 0
M  V30 6713 H 653.255 -0.679496 -4.10818 0
M  V30 6714 H 655.852 1.96385 -4.9733 0
M  V30 6715 H 656.195 2.48306 -3.3414 0
M  V30 6716 H 656.728 0.872323 -3.88118 0
M  V30 6717 H 653.467 -0.523295 -6.53408 0
M  V30 6718 H 652.987 1.06841 -5.90208 0
M  V30 6719 H 654.666 0.781498 -6.42263 0
M  V30 6720 N 654.798 1.5699 0.138552 0
M  V30 6721 C 656.047 1.82998 0.848205 0
M  V30 6722 C 656.36 0.717829 1.81952 0
M  V30 6723 O 657.566 0.863756 2.57394 0
M  V30 6724 C 656.022 3.24379 1.55904 0
M  V30 6725 C 655.63 4.43552 0.62971 0
M  V30 6726 C 657.374 3.59654 2.25498 0
M  V30 6727 C 655.281 5.75957 1.34266 0
M  V30 6728 H 654.211 0.682495 0.320495 0
M  V30 6729 H 656.862 1.83222 0.100924 0
M  V30 6730 H 655.244 3.18567 2.35226 0
M  V30 6731 H 656.418 4.6062 -0.128882 0
M  V30 6732 H 654.733 4.16379 0.0417526 0
M  V30 6733 H 657.33 4.55837 2.79493 0
M  V30 6734 H 657.673 2.86124 3.02388 0
M  V30 6735 H 658.206 3.67164 1.53087 0
M  V30 6736 H 654.945 6.52604 0.615441 0
M  V30 6737 H 654.465 5.62811 2.07375 0
M  V30 6738 H 656.144 6.19046 1.88126 0
M  V30 6739 N 656.276 -0.40816 1.52223 0
M  V30 6740 C 657.522 -1.15347 1.67531 0
M  V30 6741 C 657.877 -1.8818 0.400748 0
M  V30 6742 O 657.17 -1.81803 -0.604845 0
M  V30 6743 C 657.364 -2.17422 2.83659 0
M  V30 6744 C 657.193 -1.54611 4.22286 0
M  V30 6745 C 655.963 -1.31841 4.87797 0
M  V30 6746 C 658.161 -1.00648 5.04355 0
M  V30 6747 N 656.143 -0.649338 6.10456 0
M  V30 6748 C 657.514 -0.464384 6.18258 0
M  V30 6749 C 659.569 -0.901041 4.89679 0
M  V30 6750 C 658.272 0.172825 7.19092 0
M  V30 6751 C 660.298 -0.277684 5.90748 0
M  V30 6752 C 659.66 0.253734 7.03943 0
M  V30 6753 H 655.759 -0.408722 0.666686 0
M  V30 6754 H 658.343 -0.445713 1.8953 0
M  V30 6755 H 656.514 -2.85554 2.63274 0
M  V30 6756 H 658.246 -2.84321 2.87999 0
M  V30 6757 H 655.001 -1.58819 4.46176 0
M  V30 6758 H 655.425 -0.3314 6.76188 0
M  V30 6759 H 660.067 -1.29772 4.02392 0
M  V30 6760 H 657.785 0.581564 8.06005 0
M  V30 6761 H 661.371 -0.197605 5.81464 0
M  V30 6762 H 660.251 0.728482 7.80809 0
M  V30 6763 N 657.755 -1.42862 -0.66545 0
M  V30 6764 C 658.718 -1.46756 -1.76055 0
M  V30 6765 C 659.718 -0.353866 -1.56858 0
M  V30 6766 O 660.908 -0.615099 -1.62979 0
M  V30 6767 C 658.04 -1.30829 -3.14796 0
M  V30 6768 H 659.233 -2.44271 -1.73987 0
M  V30 6769 H 656.786 -1.29447 -0.875965 0
M  V30 6770 H 657.521 -0.342733 -3.22484 0
M  V30 6771 H 657.306 -2.11551 -3.30134 0
M  V30 6772 H 658.796 -1.36458 -3.94676 0
M  V30 6773 N 659.233 0.902656 -1.29189 0
M  V30 6774 C 660.166 2.00816 -1.0839 0
M  V30 6775 C 661.144 1.626 0.00335266 0
M  V30 6776 O 662.328 1.87928 -0.146765 0
M  V30 6777 C 659.455 3.32415 -0.649435 0
M  V30 6778 C 658.501 3.89617 -1.73496 0
M  V30 6779 S 659.334 4.19091 -3.33351 0
M  V30 6780 C 660.49 5.53736 -2.91766 0
M  V30 6781 H 660.723 2.18151 -2.01984 0
M  V30 6782 H 658.256 1.0489 -1.13303 0
M  V30 6783 H 660.214 4.08492 -0.405479 0
M  V30 6784 H 658.875 3.12964 0.266857 0
M  V30 6785 H 658.068 4.84658 -1.38284 0
M  V30 6786 H 657.67 3.20217 -1.93229 0
M  V30 6787 H 659.962 6.34085 -2.38627 0
M  V30 6788 H 660.905 5.93871 -3.85647 0
M  V30 6789 H 661.313 5.15453 -2.30149 0
M  V30 6790 N 660.711 1.11618 1.11262 0
M  V30 6791 C 661.96 0.860934 1.82403 0
M  V30 6792 C 662.273 -0.615303 1.8567 0
M  V30 6793 O 663.479 -0.986861 2.52929 0
M  V30 6794 C 661.935 1.49048 3.27586 0
M  V30 6795 C 661.543 3.00089 3.32642 0
M  V30 6796 C 663.287 1.31515 4.03614 0
M  V30 6797 C 661.194 3.56019 4.72234 0
M  V30 6798 H 660.124 0.318423 0.683464 0
M  V30 6799 H 662.775 1.34165 1.25188 0
M  V30 6800 H 661.157 0.937434 3.84744 0
M  V30 6801 H 662.331 3.61813 2.85356 0
M  V30 6802 H 660.646 3.16919 2.70096 0
M  V30 6803 H 663.243 1.70732 5.0671 0
M  V30 6804 H 663.586 0.257917 4.155 0
M  V30 6805 H 664.119 1.83694 3.52848 0
M  V30 6806 H 660.858 4.61463 4.65545 0
M  V30 6807 H 660.378 2.99066 5.19923 0
M  V30 6808 H 662.057 3.54568 5.41193 0
M  V30 6809 N 662.189 -1.289 0.906776 0
M  V30 6810 C 663.099 -2.31256 0.394707 0
M  V30 6811 C 664.115 -1.66231 -0.514121 0
M  V30 6812 O 665.291 -1.97347 -0.401994 0
M  V30 6813 C 662.356 -3.44792 -0.363191 0
M  V30 6814 C 661.417 -4.25391 0.578012 0
M  V30 6815 C 660.65 -5.33506 -0.143811 0
M  V30 6816 O 660.873 -5.53786 -1.36665 0
M  V30 6817 O 659.807 -5.99673 0.5173 0
M  V30 6818 H 663.633 -2.77051 1.24405 0
M  V30 6819 H 661.218 -1.33466 0.671346 0
M  V30 6820 H 663.1 -4.139 -0.791503 0
M  V30 6821 H 661.775 -3.01093 -1.18848 0
M  V30 6822 H 660.682 -3.58899 1.05558 0
M  V30 6823 H 662.015 -4.72752 1.36992 0
M  V30 6824 N 663.667 -0.670007 -1.42649 0
M  V30 6825 C 665.083 -0.33911 -1.55956 0
M  V30 6826 C 665.283 1.1558 -1.65056 0
M  V30 6827 O 664.339 1.94111 -1.61485 0
M  V30 6828 C 665.652 -1.06522 -2.812 0
M  V30 6829 C 667.2 -1.04708 -2.94966 0
M  V30 6830 C 667.675 -1.75442 -4.23065 0
M  V30 6831 N 669.166 -1.72286 -4.29967 0
M  V30 6832 C 669.901 -2.23877 -5.27889 0
M  V30 6833 N 669.397 -2.83829 -6.31991 0
M  V30 6834 N 671.19 -2.14279 -5.19654 0
M  V30 6835 H 663.341 -1.6399 -1.34986 0
M  V30 6836 H 665.604 -0.690603 -0.649439 0
M  V30 6837 H 665.31 -2.12033 -2.80597 0
M  V30 6838 H 665.184 -0.627398 -3.71946 0
M  V30 6839 H 667.571 -0.000315966 -2.951 0
M  V30 6840 H 667.652 -1.52374 -2.05465 0
M  V30 6841 H 667.296 -2.80084 -4.23693 0
M  V30 6842 H 667.226 -1.25229 -5.11493 0
M  V30 6843 H 669.717 -1.28554 -3.55362 0
M  V30 6844 H 670.03 -3.20827 -7.03057 0
M  V30 6845 H 668.375 -2.87896 -6.32567 0
M  V30 6846 H 671.566 -1.67135 -4.37245 0
M  V30 6847 H 671.739 -2.54792 -5.95806 0
M  V30 6848 N 665.145 1.52092 -0.413018 0
M  V30 6849 C 666.394 2.01041 0.16287 0
M  V30 6850 C 666.707 1.30288 1.45892 0
M  V30 6851 O 667.913 1.70075 2.11629 0
M  V30 6852 C 666.369 3.58283 0.340806 0
M  V30 6853 C 665.977 4.37955 -0.943377 0
M  V30 6854 C 667.721 4.15452 0.871774 0
M  V30 6855 C 665.628 5.86847 -0.732417 0
M  V30 6856 H 664.558 0.751224 0.0646414 0
M  V30 6857 H 667.209 1.75404 -0.539059 0
M  V30 6858 H 665.591 3.80266 1.10516 0
M  V30 6859 H 666.765 4.2773 -1.71418 0
M  V30 6860 H 665.08 3.92122 -1.40105 0
M  V30 6861 H 667.677 5.24375 1.0457 0
M  V30 6862 H 668.02 3.73057 1.84755 0
M  V30 6863 H 668.553 3.97452 0.166377 0
M  V30 6864 H 665.292 6.33609 -1.67986 0
M  V30 6865 H 664.812 5.998 -0.000980058 0
M  V30 6866 H 666.491 6.45906 -0.376105 0
M  V30 6867 N 666.623 0.143563 1.56945 0
M  V30 6868 C 667.851 -0.515447 2.00377 0
M  V30 6869 C 668.266 -1.58643 1.02361 0
M  V30 6870 O 667.623 -1.82489 0.0201039 0
M  V30 6871 C 667.674 -1.11923 3.43737 0
M  V30 6872 O 667.395 -0.0910318 4.38005 0
M  V30 6873 C 668.896 -1.85918 4.02429 0
M  V30 6874 H 666.116 -0.134478 0.657386 0
M  V30 6875 H 668.66 0.237135 2.0312 0
M  V30 6876 H 666.815 -1.82245 3.41856 0
M  V30 6877 H 667.229 -0.532916 5.21786 0
M  V30 6878 H 668.703 -2.2346 5.04747 0
M  V30 6879 H 669.18 -2.7438 3.42947 0
M  V30 6880 H 669.786 -1.20303 4.07931 0
M  V30 6881 N 668.101 -1.57061 -0.130224 0
M  V30 6882 C 669.348 -1.84257 -0.839972 0
M  V30 6883 C 669.676 -0.726986 -1.80403 0
M  V30 6884 O 668.931 0.282632 -1.93648 0
M  V30 6885 C 669.23 -3.17878 -1.63365 0
M  V30 6886 C 668.896 -4.43475 -0.814891 0
M  V30 6887 C 667.558 -4.77581 -0.589066 0
M  V30 6888 C 669.91 -5.20631 -0.243437 0
M  V30 6889 C 667.238 -5.86292 0.218648 0
M  V30 6890 C 669.59 -6.30192 0.551408 0
M  V30 6891 C 668.254 -6.62837 0.787653 0
M  V30 6892 H 667.524 -0.674245 -0.307367 0
M  V30 6893 H 670.171 -1.91224 -0.102832 0
M  V30 6894 H 668.476 -3.06437 -2.44138 0
M  V30 6895 H 670.173 -3.3614 -2.18658 0
M  V30 6896 H 666.763 -4.16747 -1.00098 0
M  V30 6897 H 670.947 -4.94644 -0.405145 0
M  V30 6898 H 666.203 -6.10017 0.411016 0
M  V30 6899 H 670.377 -6.89165 1.00126 0
M  V30 6900 H 668.004 -7.46908 1.41537 0
M  V30 6901 N 669.579 0.400081 -1.52437 0
M  V30 6902 C 670.828 1.14332 -1.66166 0
M  V30 6903 C 671.141 1.91419 -0.402253 0
M  V30 6904 O 672.347 2.6824 -0.419487 0
M  V30 6905 C 670.803 2.08137 -2.9361 0
M  V30 6906 C 670.411 1.36524 -4.26691 0
M  V30 6907 C 672.155 2.82664 -3.16703 0
M  V30 6908 C 670.062 2.29031 -5.45251 0
M  V30 6909 H 668.992 0.430499 -0.61902 0
M  V30 6910 H 671.643 0.407017 -1.78929 0
M  V30 6911 H 670.025 2.85358 -2.74567 0
M  V30 6912 H 671.199 0.646061 -4.56249 0
M  V30 6913 H 669.514 0.74002 -4.09771 0
M  V30 6914 H 672.111 3.52037 -4.0246 0
M  V30 6915 H 672.454 3.46122 -2.31312 0
M  V30 6916 H 672.987 2.12541 -3.36261 0
M  V30 6917 H 669.726 1.70206 -6.33017 0
M  V30 6918 H 669.246 2.98896 -5.2002 0
M  V30 6919 H 670.925 2.89359 -5.78689 0
M  V30 6920 N 671.057 1.43213 0.657864 0
M  V30 6921 C 672.334 1.35063 1.41483 0
M  V30 6922 C 672.714 -0.0038314 2.111 0
M  V30 6923 O 672.062 -1.02018 2.04462 0
M  V30 6924 C 672.272 2.53061 2.40335 0
M  V30 6925 C 673.62 2.9594 3.04474 0
M  V30 6926 O 674.644 2.53074 2.50663 0
M  V30 6927 O 673.503 3.70184 4.02027 0
M  V30 6928 H 670.597 0.533517 0.631893 0
M  V30 6929 H 673.143 1.55253 0.685162 0
M  V30 6930 H 671.915 3.43283 1.87809 0
M  V30 6931 H 671.538 2.34945 3.20759 0
M  V30 6932 N 672.536 -0.895792 1.29666 0
M  V30 6933 C 673.761 -1.68528 1.20885 0
M  V30 6934 C 674.186 -1.8673 -0.226595 0
M  V30 6935 O 673.544 -1.39044 -1.16347 0
M  V30 6936 C 673.592 -3.04512 1.93144 0
M  V30 6937 O 672.696 -3.92963 1.25115 0
M  V30 6938 H 672.037 -0.515371 0.418675 0
M  V30 6939 H 674.567 -1.11878 1.71302 0
M  V30 6940 H 674.577 -3.54628 2.0175 0
M  V30 6941 H 673.252 -2.90582 2.97548 0
M  V30 6942 H 671.829 -3.51399 1.24794 0
M  V30 6943 N 674.014 -1.12206 -1.10668 0
M  V30 6944 C 674.924 -0.800686 -2.20513 0
M  V30 6945 C 675.94 0.209512 -1.72734 0
M  V30 6946 O 677.116 0.043705 -2.01353 0
M  V30 6947 C 674.181 -0.257353 -3.45744 0
M  V30 6948 C 673.242 -1.32718 -4.0827 0
M  V30 6949 C 672.475 -0.809674 -5.27522 0
M  V30 6950 O 672.698 0.35742 -5.69279 0
M  V30 6951 O 671.632 -1.57816 -5.80842 0
M  V30 6952 H 675.458 -1.71807 -2.50432 0
M  V30 6953 H 673.043 -0.898546 -1.19359 0
M  V30 6954 H 674.925 0.0408849 -4.2138 0
M  V30 6955 H 673.6 0.632627 -3.17458 0
M  V30 6956 H 672.507 -1.67855 -3.34329 0
M  V30 6957 H 673.84 -2.19083 -4.40753 0
M  V30 6958 N 675.492 1.28418 -0.913599 0
M  V30 6959 C 676.72 1.99106 -0.562536 0
M  V30 6960 C 677.135 1.68273 0.856137 0
M  V30 6961 O 676.492 0.935401 1.56705 0
M  V30 6962 C 676.543 3.5338 -0.761903 0
M  V30 6963 O 676.264 3.83127 -2.12475 0
M  V30 6964 C 677.765 4.41328 -0.417651 0
M  V30 6965 H 674.985 0.635798 -0.214481 0
M  V30 6966 H 677.529 1.63618 -1.22676 0
M  V30 6967 H 675.684 3.8713 -0.144676 0
M  V30 6968 H 676.098 4.77763 -2.16431 0
M  V30 6969 H 677.572 5.48642 -0.607919 0
M  V30 6970 H 678.049 4.34422 0.646108 0
M  V30 6971 H 678.655 4.13074 -1.01241 0
M  V30 6972 N 676.97 0.677563 1.42291 0
M  V30 6973 C 677.917 0.000947061 2.308 0
M  V30 6974 C 678.887 -0.789889 1.46116 0
M  V30 6975 O 680.072 -0.761578 1.74942 0
M  V30 6976 C 677.212 -0.942387 3.31984 0
M  V30 6977 C 676.325 -0.14508 4.31756 0
M  V30 6978 C 675.46 -1.08442 5.20013 0
M  V30 6979 C 674.499 -0.278958 6.11464 0
M  V30 6980 N 673.636 -1.17115 6.92263 0
M  V30 6981 H 678.476 0.761521 2.88106 0
M  V30 6982 H 676.013 0.38727 1.41911 0
M  V30 6983 H 677.971 -1.50317 3.89179 0
M  V30 6984 H 676.601 -1.66956 2.76271 0
M  V30 6985 H 675.653 0.532368 3.76656 0
M  V30 6986 H 676.965 0.48015 4.96484 0
M  V30 6987 H 676.119 -1.71504 5.81955 0
M  V30 6988 H 674.858 -1.74353 4.55469 0
M  V30 6989 H 673.863 0.364856 5.48588 0
M  V30 6990 H 675.088 0.376099 6.78058 0
M  V30 6991 H 673.034 -1.81661 6.30345 0
M  V30 6992 H 672.951 -0.601063 7.53607 0
M  V30 6993 H 674.219 -1.78915 7.58689 0
M  V30 6994 N 678.448 -1.51871 0.421078 0
M  V30 6995 C 679.395 -2.27334 -0.398508 0
M  V30 6996 C 680.365 -1.30241 -1.03085 0
M  V30 6997 O 681.55 -1.59121 -1.05285 0
M  V30 6998 C 678.69 -3.10664 -1.50272 0
M  V30 6999 C 677.803 -4.2273 -0.890122 0
M  V30 7000 C 676.938 -4.93399 -1.96803 0
M  V30 7001 C 675.977 -5.97409 -1.333 0
M  V30 7002 N 675.114 -6.61548 -2.35156 0
M  V30 7003 H 679.954 -2.96938 0.251411 0
M  V30 7004 H 677.491 -1.46472 0.135825 0
M  V30 7005 H 679.449 -3.57292 -2.15403 0
M  V30 7006 H 678.079 -2.43207 -2.1225 0
M  V30 7007 H 677.131 -3.80186 -0.127537 0
M  V30 7008 H 678.443 -4.97302 -0.386349 0
M  V30 7009 H 677.597 -5.43491 -2.69633 0
M  V30 7010 H 676.336 -4.18421 -2.50549 0
M  V30 7011 H 675.341 -5.46624 -0.59008 0
M  V30 7012 H 676.566 -6.74335 -0.803076 0
M  V30 7013 H 674.512 -5.89394 -2.88012 0
M  V30 7014 H 674.429 -7.31832 -1.89624 0
M  V30 7015 H 675.697 -7.16276 -3.0752 0
M  V30 7016 N 679.926 -0.151884 -1.56866 0
M  V30 7017 C 680.836 0.798876 -2.20579 0
M  V30 7018 C 681.852 1.268 -1.19154 0
M  V30 7019 O 683.028 1.32418 -1.51748 0
M  V30 7020 C 680.093 2.01861 -2.81874 0
M  V30 7021 C 679.154 1.59825 -3.9844 0
M  V30 7022 C 678.387 2.75984 -4.56802 0
M  V30 7023 O 678.61 3.92331 -4.14044 0
M  V30 7024 O 677.544 2.51175 -5.46987 0
M  V30 7025 H 681.37 0.2865 -3.02346 0
M  V30 7026 H 678.955 0.0753806 -1.4921 0
M  V30 7027 H 680.837 2.73235 -3.20813 0
M  V30 7028 H 679.512 2.52042 -2.03117 0
M  V30 7029 H 678.419 0.854601 -3.64208 0
M  V30 7030 H 679.752 1.14355 -4.78731 0
M  V30 7031 N 681.404 1.57128 0.121893 0
M  V30 7032 C 682.334 2.03165 1.15092 0
M  V30 7033 C 683.315 0.915587 1.43356 0
M  V30 7034 O 684.5 1.1851 1.53847 0
M  V30 7035 C 681.63 2.43352 2.47784 0
M  V30 7036 C 680.584 3.58376 2.33989 0
M  V30 7037 C 679.91 3.84454 3.71617 0
M  V30 7038 C 681.21 4.90199 1.80283 0
M  V30 7039 H 682.904 2.89382 0.768023 0
M  V30 7040 H 680.45 1.39218 0.367998 0
M  V30 7041 H 682.403 2.74163 3.20019 0
M  V30 7042 H 681.127 1.54103 2.87958 0
M  V30 7043 H 679.786 3.2777 1.64202 0
M  V30 7044 H 679.434 2.92414 4.09271 0
M  V30 7045 H 679.134 4.61877 3.6324 0
M  V30 7046 H 680.658 4.17714 4.45362 0
M  V30 7047 H 682.072 5.19565 2.42333 0
M  V30 7048 H 680.469 5.71601 1.82735 0
M  V30 7049 H 681.539 4.78904 0.760184 0
M  V30 7050 N 682.882 -0.391992 1.52647 0
M  V30 7051 C 683.812 -1.48517 1.8018 0
M  V30 7052 C 684.793 -1.57039 0.653667 0
M  V30 7053 O 685.978 -1.72036 0.900962 0
M  V30 7054 C 683.108 -2.86161 1.96797 0
M  V30 7055 C 682.062 -2.92481 3.12472 0
M  V30 7056 C 681.388 -4.32546 3.14338 0
M  V30 7057 C 682.688 -2.624 4.51601 0
M  V30 7058 H 684.382 -1.25726 2.71723 0
M  V30 7059 H 681.928 -0.603387 1.30749 0
M  V30 7060 H 683.881 -3.62639 2.14641 0
M  V30 7061 H 682.605 -3.10283 1.01941 0
M  V30 7062 H 681.264 -2.18451 2.94406 0
M  V30 7063 H 680.912 -4.53703 2.1717 0
M  V30 7064 H 680.612 -4.37695 3.92042 0
M  V30 7065 H 682.136 -5.10934 3.34333 0
M  V30 7066 H 683.55 -3.28596 4.69785 0
M  V30 7067 H 681.947 -2.78903 5.3135 0
M  V30 7068 H 683.017 -1.57754 4.58521 0
M  V30 7069 N 684.36 -1.4356 -0.65026 0
M  V30 7070 C 685.608 -1.45046 -1.40734 0
M  V30 7071 C 685.929 -0.0769822 -1.94848 0
M  V30 7072 O 685.199 0.888098 -1.74613 0
M  V30 7073 H 683.779 -0.534034 -0.522318 0
M  V30 7074 H 686.441 -1.79186 -0.766703 0
M  V30 7075 H 685.537 -2.16476 -2.24822 0
M  V30 7076 N 685.838 0.888903 -1.30139 0
M  V30 7077 C 687.066 1.67358 -1.21651 0
M  V30 7078 C 687.481 1.87499 0.221246 0
M  V30 7079 O 686.838 1.41969 1.14677 0
M  V30 7080 C 686.889 3.05213 -1.93719 0
M  V30 7081 O 686.61 2.85984 -3.31881 0
M  V30 7082 C 688.111 3.9964 -1.9184 0
M  V30 7083 H 685.331 0.522365 -0.42116 0
M  V30 7084 H 687.875 1.11086 -1.71698 0
M  V30 7085 H 686.03 3.5823 -1.4748 0
M  V30 7086 H 686.444 3.73411 -3.68327 0
M  V30 7087 H 687.918 4.93749 -2.46811 0
M  V30 7088 H 688.395 4.29955 -0.896409 0
M  V30 7089 H 689.001 3.52558 -2.37872 0
M  V30 7090 N 687.317 1.12792 1.10072 0
M  V30 7091 C 688.547 0.907189 1.85617 0
M  V30 7092 C 688.955 -0.547181 1.81115 0
M  V30 7093 O 688.298 -1.39024 1.20075 0
M  V30 7094 C 688.36 1.30872 3.34832 0
M  V30 7095 C 688.024 2.77516 3.6309 0
M  V30 7096 C 689.021 3.75696 3.59373 0
M  V30 7097 C 686.706 3.14513 3.91646 0
M  V30 7098 C 688.7 5.08888 3.83812 0
M  V30 7099 C 686.387 4.47886 4.15742 0
M  V30 7100 C 687.385 5.44882 4.11816 0
M  V30 7101 O 687.073 6.7585 4.35295 0
M  V30 7102 H 686.805 0.323855 0.593375 0
M  V30 7103 H 689.359 1.50262 1.40038 0
M  V30 7104 H 687.589 0.656518 3.81086 0
M  V30 7105 H 689.278 1.06153 3.91773 0
M  V30 7106 H 690.044 3.48458 3.37345 0
M  V30 7107 H 685.923 2.39622 3.93831 0
M  V30 7108 H 689.467 5.84586 3.80663 0
M  V30 7109 H 685.364 4.74851 4.37249 0
M  V30 7110 H 686.132 6.81853 4.52791 0
M  V30 7111 N 688.795 -1.27931 0.920396 0
M  V30 7112 C 690.044 -1.93975 0.552867 0
M  V30 7113 C 690.357 -1.73193 -0.909035 0
M  V30 7114 O 691.563 -2.33515 -1.38502 0
M  V30 7115 C 690.019 -3.47463 0.937947 0
M  V30 7116 C 689.627 -3.77013 2.42003 0
M  V30 7117 C 691.371 -4.19628 0.64132 0
M  V30 7118 C 689.278 -5.23841 2.74489 0
M  V30 7119 H 688.208 -0.726146 0.203046 0
M  V30 7120 H 690.859 -1.45339 1.12022 0
M  V30 7121 H 689.241 -3.94867 0.299317 0
M  V30 7122 H 690.415 -3.40393 3.10595 0
M  V30 7123 H 688.73 -3.18035 2.6878 0
M  V30 7124 H 691.327 -5.27729 0.860622 0
M  V30 7125 H 691.67 -4.14164 -0.421168 0
M  V30 7126 H 692.203 -3.78022 1.23872 0
M  V30 7127 H 688.942 -5.34388 3.79618 0
M  V30 7128 H 688.462 -5.61634 2.1054 0
M  V30 7129 H 690.141 -5.91647 2.61845 0
M  V30 7130 N 690.273 -0.685099 -1.4193 0
M  V30 7131 C 691.22 -0.0131869 -2.30796 0
M  V30 7132 C 692.19 0.782129 -1.46533 0
M  V30 7133 O 693.375 0.75229 -1.75343 0
M  V30 7134 C 690.515 0.924768 -3.32479 0
M  V30 7135 C 689.628 0.122181 -4.31827 0
M  V30 7136 C 688.763 1.05682 -5.20581 0
M  V30 7137 C 687.802 0.246526 -6.11603 0
M  V30 7138 N 686.939 1.13442 -6.92875 0
M  V30 7139 H 691.779 -0.776789 -2.87698 0
M  V30 7140 H 689.316 -0.394791 -1.41703 0
M  V30 7141 H 691.274 1.48251 -3.89971 0
M  V30 7142 H 689.904 1.65488 -2.77152 0
M  V30 7143 H 688.956 -0.552335 -3.76369 0
M  V30 7144 H 690.268 -0.506473 -4.96222 0
M  V30 7145 H 689.422 1.68415 -5.82856 0
M  V30 7146 H 688.161 1.71935 -4.56388 0
M  V30 7147 H 687.166 -0.393944 -5.48387 0
M  V30 7148 H 688.391 -0.412053 -6.77849 0
M  V30 7149 H 686.337 1.78316 -6.313 0
M  V30 7150 H 686.254 0.561089 -7.53915 0
M  V30 7151 H 687.522 1.74889 -7.59628 0
M  V30 7152 N 691.751 1.51645 -0.429126 0
M  V30 7153 C 692.683 2.25279 0.422124 0
M  V30 7154 C 693.696 1.28986 0.993299 0
M  V30 7155 O 694.885 1.54797 0.888836 0
M  V30 7156 C 691.985 2.98666 1.60162 0
M  V30 7157 C 691.158 4.2199 1.15078 0
M  V30 7158 C 690.217 4.78028 2.19946 0
M  V30 7159 O 689.243 5.40084 1.79716 0
M  V30 7160 N 690.445 4.61342 3.5234 0
M  V30 7161 H 693.21 2.98971 -0.208931 0
M  V30 7162 H 690.771 1.59838 -0.257568 0
M  V30 7163 H 692.763 3.33044 2.29922 0
M  V30 7164 H 691.333 2.28036 2.13818 0
M  V30 7165 H 690.553 3.932 0.280552 0
M  V30 7166 H 691.841 5.02037 0.826831 0
M  V30 7167 H 691.239 4.11894 3.87763 0
M  V30 7168 H 689.796 5.00104 4.18019 0
M  V30 7169 N 693.229 0.160201 1.56784 0
M  V30 7170 C 694.477 -0.486625 1.96154 0
M  V30 7171 C 694.798 -1.64525 1.04673 0
M  V30 7172 O 694.068 -1.95586 0.110864 0
M  V30 7173 H 692.648 -0.182764 0.724297 0
M  V30 7174 H 695.31 0.238787 1.93432 0
M  V30 7175 H 694.406 -0.854025 3.00188 0
M  V30 7176 N 694.707 -1.5719 -0.113559 0
M  V30 7177 C 695.935 -1.89328 -0.834422 0
M  V30 7178 C 696.35 -0.752018 -1.73177 0
M  V30 7179 O 695.707 0.276912 -1.80387 0
M  V30 7180 C 695.758 -3.20962 -1.66329 0
M  V30 7181 O 695.479 -4.30695 -0.802069 0
M  V30 7182 C 696.98 -3.6684 -2.48884 0
M  V30 7183 H 694.2 -0.626769 -0.239587 0
M  V30 7184 H 696.744 -2.04273 -0.0963195 0
M  V30 7185 H 694.899 -3.0767 -2.35409 0
M  V30 7186 H 695.313 -5.06175 -1.37431 0
M  V30 7187 H 696.787 -4.61692 -3.02563 0
M  V30 7188 H 697.264 -2.93765 -3.26495 0
M  V30 7189 H 697.87 -3.82938 -1.85036 0
M  V30 7190 N 696.185 0.383891 -1.52853 0
M  V30 7191 C 697.095 1.49343 -1.80925 0
M  V30 7192 C 698.111 1.59458 -0.696348 0
M  V30 7193 O 699.287 1.75698 -0.984481 0
M  V30 7194 C 696.352 2.84819 -1.97684 0
M  V30 7195 C 695.413 2.84382 -3.21598 0
M  V30 7196 C 694.646 4.13397 -3.37548 0
M  V30 7197 O 694.869 5.08619 -2.58192 0
M  V30 7198 O 693.803 4.20325 -4.30826 0
M  V30 7199 H 697.629 1.2855 -2.75152 0
M  V30 7200 H 695.214 0.572229 -1.38007 0
M  V30 7201 H 697.096 3.65125 -2.10385 0
M  V30 7202 H 695.771 3.05627 -1.06647 0
M  V30 7203 H 694.678 2.0284 -3.14336 0
M  V30 7204 H 696.011 2.68526 -4.12498 0
M  V30 7205 N 697.663 1.43903 0.642637 0
M  V30 7206 C 698.912 1.45362 1.39831 0
M  V30 7207 C 699.225 0.0856289 1.95412 0
M  V30 7208 O 700.431 -0.0222856 2.71491 0
M  V30 7209 C 698.887 2.55857 2.53111 0
M  V30 7210 C 698.495 3.98811 2.04092 0
M  V30 7211 C 700.239 2.66524 3.30402 0
M  V30 7212 C 698.146 5.00751 3.14647 0
M  V30 7213 H 697.076 0.540777 0.52543 0
M  V30 7214 H 699.727 1.69929 0.692559 0
M  V30 7215 H 698.109 2.2451 3.26207 0
M  V30 7216 H 699.283 4.3967 1.37938 0
M  V30 7217 H 697.598 3.92284 1.39651 0
M  V30 7218 H 700.195 3.39858 4.12796 0
M  V30 7219 H 700.538 1.71949 3.79129 0
M  V30 7220 H 701.071 2.97224 2.64392 0
M  V30 7221 H 697.81 5.96914 2.70876 0
M  V30 7222 H 697.33 4.64495 3.79479 0
M  V30 7223 H 699.009 5.23933 3.79609 0
M  V30 7224 N 699.141 -0.881989 1.30609 0
M  V30 7225 C 700.387 -1.63647 1.19781 0
M  V30 7226 C 700.72 -1.92632 -0.246265 0
M  V30 7227 O 699.995 -1.54938 -1.17577 0
M  V30 7228 C 700.278 -2.97437 2.02985 0
M  V30 7229 C 700.131 -2.75406 3.55628 0
M  V30 7230 C 701.45 -3.98397 1.86997 0
M  V30 7231 H 698.569 -0.593841 0.436488 0
M  V30 7232 H 701.211 -1.02041 1.60273 0
M  V30 7233 H 699.361 -3.50018 1.68581 0
M  V30 7234 H 701.033 -2.2959 4.00107 0
M  V30 7235 H 699.276 -2.09856 3.79662 0
M  V30 7236 H 699.947 -3.70552 4.09139 0
M  V30 7237 H 702.423 -3.54986 2.17081 0
M  V30 7238 H 701.299 -4.89916 2.47536 0
M  V30 7239 H 701.56 -4.3424 0.829943 0
M  V30 7240 N 700.619 -1.13374 -1.09472 0
M  V30 7241 C 702.03 -0.90801 -1.63132 0
M  V30 7242 C 702.381 0.555576 -1.8817 0
M  V30 7243 O 701.506 1.42218 -1.63104 0
M  V30 7244 C 702.101 -1.64182 -2.96361 0
M  V30 7245 C 700.66 -1.46197 -3.46848 0
M  V30 7246 C 699.807 -1.67134 -2.21273 0
M  V30 7247 H 702.758 -1.2871 -0.928411 0
M  V30 7248 H 702.779 -1.09863 -3.64294 0
M  V30 7249 H 702.291 -2.707 -2.78106 0
M  V30 7250 H 700.392 -0.419788 -3.70228 0
M  V30 7251 H 700.505 -2.22472 -4.24315 0
M  V30 7252 H 698.869 -1.09616 -2.29905 0
M  V30 7253 H 699.652 -2.74971 -2.05538 0
M  V30 7254 N 702.098 1.27442 -0.927168 0
M  V30 7255 C 703.344 1.94679 -0.568164 0
M  V30 7256 C 703.677 1.72697 0.888219 0
M  V30 7257 O 702.952 1.05573 1.63354 0
M  V30 7258 C 703.235 3.4882 -0.894253 0
M  V30 7259 C 703.088 3.80146 -2.40435 0
M  V30 7260 C 704.407 4.38281 -0.399766 0
M  V30 7261 H 701.526 0.707071 -0.207892 0
M  V30 7262 H 704.168 1.50568 -1.15885 0
M  V30 7263 H 702.318 3.86522 -0.391566 0
M  V30 7264 H 703.99 3.52238 -2.97869 0
M  V30 7265 H 702.233 3.26716 -2.85375 0
M  V30 7266 H 702.904 4.87835 -2.58304 0
M  V30 7267 H 705.38 4.07726 -0.83058 0
M  V30 7268 H 704.256 5.44955 -0.656885 0
M  V30 7269 H 704.517 4.36521 0.700153 0
M  V30 7270 N 703.576 0.692616 1.41565 0
M  V30 7271 C 704.824 0.221896 2.00878 0
M  V30 7272 C 705.145 -1.18164 1.5512 0
M  V30 7273 O 704.415 -1.79679 0.78054 0
M  V30 7274 H 702.995 0.0790463 0.742806 0
M  V30 7275 H 705.657 0.893115 1.73232 0
M  V30 7276 H 704.753 0.23702 3.11199 0
M  V30 7277 N 705.054 -1.51416 0.437162 0
M  V30 7278 C 705.964 -2.31493 -0.380537 0
M  V30 7279 C 706.98 -1.40399 -1.02782 0
M  V30 7280 O 708.156 -1.73471 -1.02323 0
M  V30 7281 C 705.221 -3.1413 -1.46709 0
M  V30 7282 C 704.282 -4.21003 -0.839953 0
M  V30 7283 C 703.515 -4.9969 -1.87473 0
M  V30 7284 O 703.738 -4.79008 -3.09689 0
M  V30 7285 O 702.672 -5.8379 -1.46536 0
M  V30 7286 H 706.498 -3.02469 0.273183 0
M  V30 7287 H 704.083 -1.48059 0.199706 0
M  V30 7288 H 705.965 -3.65505 -2.09724 0
M  V30 7289 H 704.64 -2.45919 -2.10489 0
M  V30 7290 H 703.547 -3.73706 -0.171752 0
M  V30 7291 H 704.88 -4.91587 -0.245638 0
M  V30 7292 N 706.532 -0.168513 -1.56696 0
M  V30 7293 C 707.495 0.748928 -2.16619 0
M  V30 7294 C 708.495 1.16007 -1.11351 0
M  V30 7295 O 709.685 1.07748 -1.3688 0
M  V30 7296 C 706.817 2.01904 -2.74677 0
M  V30 7297 H 708.01 0.227317 -2.99037 0
M  V30 7298 H 705.563 0.0810372 -1.5609 0
M  V30 7299 H 706.298 2.58381 -1.95985 0
M  V30 7300 H 706.083 1.73323 -3.51712 0
M  V30 7301 H 707.573 2.67383 -3.20774 0
M  V30 7302 N 708.01 1.57248 0.105221 0
M  V30 7303 C 708.94 2.04374 1.12931 0
M  V30 7304 C 709.921 0.93074 1.42377 0
M  V30 7305 O 711.106 1.20136 1.52581 0
M  V30 7306 C 708.236 2.45967 2.45189 0
M  V30 7307 C 707.19 3.60838 2.30174 0
M  V30 7308 C 706.516 3.88374 3.67518 0
M  V30 7309 C 707.816 4.92084 1.75073 0
M  V30 7310 H 709.51 2.9018 0.737287 0
M  V30 7311 H 707.056 1.39601 0.353211 0
M  V30 7312 H 709.009 2.77542 3.17094 0
M  V30 7313 H 707.733 1.57148 2.86308 0
M  V30 7314 H 706.392 3.29493 1.60716 0
M  V30 7315 H 706.04 2.96739 4.06147 0
M  V30 7316 H 705.74 4.65703 3.58321 0
M  V30 7317 H 707.264 4.22415 4.40906 0
M  V30 7318 H 708.678 5.22106 2.36809 0
M  V30 7319 H 707.075 5.73507 1.76662 0
M  V30 7320 H 708.145 4.79684 0.709347 0
M  V30 7321 N 709.488 -0.375779 1.53054 0
M  V30 7322 C 710.418 -1.46598 1.81745 0
M  V30 7323 C 711.399 -1.56337 0.670286 0
M  V30 7324 O 712.584 -1.71071 0.919158 0
M  V30 7325 C 709.714 -2.84058 1.99821 0
M  V30 7326 C 708.668 -2.8915 3.15557 0
M  V30 7327 C 707.994 -4.29187 3.18908 0
M  V30 7328 C 709.294 -2.57595 4.54359 0
M  V30 7329 H 710.988 -1.22837 2.73041 0
M  V30 7330 H 708.534 -0.589485 1.31381 0
M  V30 7331 H 710.487 -3.60342 2.18475 0
M  V30 7332 H 709.211 -3.09184 1.05226 0
M  V30 7333 H 707.87 -2.15316 2.96706 0
M  V30 7334 H 707.518 -4.51374 2.2197 0
M  V30 7335 H 707.218 -4.33512 3.96662 0
M  V30 7336 H 708.742 -5.07359 3.39734 0
M  V30 7337 H 710.156 -3.23595 4.73243 0
M  V30 7338 H 708.553 -2.73252 5.34279 0
M  V30 7339 H 709.623 -1.52882 4.60169 0
M  V30 7340 N 710.966 -1.44241 -0.634997 0
M  V30 7341 C 711.876 -1.53293 -1.77591 0
M  V30 7342 C 712.892 -0.418831 -1.68884 0
M  V30 7343 O 714.068 -0.675619 -1.8973 0
M  V30 7344 C 711.133 -1.47075 -3.13958 0
M  V30 7345 C 710.194 -2.69304 -3.34326 0
M  V30 7346 C 709.427 -2.63374 -4.64187 0
M  V30 7347 O 709.65 -1.69161 -5.44739 0
M  V30 7348 O 708.584 -3.54166 -4.86673 0
M  V30 7349 H 712.41 -2.49673 -1.72908 0
M  V30 7350 H 709.995 -1.26445 -0.795745 0
M  V30 7351 H 711.877 -1.46117 -3.95257 0
M  V30 7352 H 710.552 -0.538373 -3.19192 0
M  V30 7353 H 709.459 -2.75831 -2.52721 0
M  V30 7354 H 710.792 -3.61576 -3.33951 0
M  V30 7355 N 712.444 0.87505 -1.31075 0
M  V30 7356 C 713.392 2.00317 -1.18219 0
M  V30 7357 C 714.386 1.69152 -0.0916872 0
M  V30 7358 O 715.592 1.7821 -0.253229 0
M  V30 7359 H 711.967 0.656981 -0.365895 0
M  V30 7360 H 713.938 2.08293 -2.13674 0
M  V30 7361 C 712.687 3.35821 -0.901095 0
M  V30 7362 H 712.01 3.6032 -1.73233 0
M  V30 7363 H 713.45 4.15366 -0.851295 0
M  V30 7364 C 711.909 3.34563 0.396114 0
M  V30 7365 O 712.439 3.75971 1.41452 0
M  V30 7366 N 710.645 2.87681 0.410832 0
M  V30 7367 H 710.192 2.54179 -0.418415 0
M  V30 7368 H 710.15 2.87223 1.27869 0
M  V30 7369 N 713.922 1.13953 1.08869 0
M  V30 7370 C 715.333 0.916649 1.62648 0
M  V30 7371 C 715.684 -0.545589 1.88462 0
M  V30 7372 O 714.809 -1.41351 1.63856 0
M  V30 7373 C 715.404 1.65751 2.95486 0
M  V30 7374 C 713.963 1.48034 3.46068 0
M  V30 7375 C 713.11 1.68305 2.20383 0
M  V30 7376 H 716.061 1.292 0.921572 0
M  V30 7377 H 716.082 1.11794 3.63707 0
M  V30 7378 H 715.594 2.72171 2.76667 0
M  V30 7379 H 713.695 0.439416 3.7 0
M  V30 7380 H 713.808 2.24719 4.23129 0
M  V30 7381 H 712.172 1.10833 2.29321 0
M  V30 7382 H 712.955 2.76057 2.04077 0
M  V30 7383 N 715.4 -1.26948 0.933913 0
M  V30 7384 C 716.347 -2.26635 0.436484 0
M  V30 7385 C 717.317 -1.58397 -0.499953 0
M  V30 7386 O 718.502 -1.86171 -0.417753 0
M  V30 7387 C 715.642 -3.43803 -0.298951 0
M  V30 7388 C 714.755 -4.26736 0.672316 0
M  V30 7389 C 713.89 -5.31134 -0.0835872 0
M  V30 7390 C 712.929 -6.05742 0.879979 0
M  V30 7391 N 712.066 -7.01926 0.156301 0
M  V30 7392 H 716.906 -2.68558 1.29154 0
M  V30 7393 H 714.443 -1.32052 0.648118 0
M  V30 7394 H 716.401 -4.10554 -0.741723 0
M  V30 7395 H 715.031 -3.02814 -1.1182 0
M  V30 7396 H 714.083 -3.59842 1.23361 0
M  V30 7397 H 715.395 -4.78502 1.40846 0
M  V30 7398 H 714.549 -6.03863 -0.585984 0
M  V30 7399 H 713.288 -4.80188 -0.852661 0
M  V30 7400 H 712.293 -5.31846 1.39357 0
M  V30 7401 H 713.518 -6.58777 1.64894 0
M  V30 7402 H 711.464 -6.53301 -0.594413 0
M  V30 7403 H 711.381 -7.51409 0.831906 0
M  V30 7404 H 712.649 -7.78821 -0.325239 0
M  V30 7405 N 716.879 -0.700114 -1.41195 0
M  V30 7406 C 717.812 0.0129614 -2.28196 0
M  V30 7407 C 718.79 0.783367 -1.42486 0
M  V30 7408 O 719.974 0.773238 -1.71911 0
M  V30 7409 C 717.101 1.02575 -3.22794 0
M  V30 7410 C 716.147 0.347977 -4.25078 0
M  V30 7411 S 716.98 -0.912938 -5.27661 0
M  V30 7412 C 718.136 0.0981362 -6.25823 0
M  V30 7413 H 718.369 -0.724927 -2.88326 0
M  V30 7414 H 715.902 -0.490554 -1.464 0
M  V30 7415 H 717.86 1.60491 -3.77826 0
M  V30 7416 H 716.521 1.73624 -2.61751 0
M  V30 7417 H 715.714 1.11305 -4.91556 0
M  V30 7418 H 715.316 -0.15823 -3.73665 0
M  V30 7419 H 717.608 0.949965 -6.70807 0
M  V30 7420 H 718.551 -0.532838 -7.06092 0
M  V30 7421 H 718.959 0.454944 -5.62664 0
M  V30 7422 N 718.357 1.51182 -0.445186 0
M  V30 7423 C 719.267 2.31692 0.368255 0
M  V30 7424 C 720.283 1.40942 1.02036 0
M  V30 7425 O 721.459 1.74011 1.01401 0
M  V30 7426 C 718.524 3.14903 1.45041 0
M  V30 7427 C 717.585 4.21442 0.817615 0
M  V30 7428 C 716.818 5.00677 1.8482 0
M  V30 7429 O 717.041 4.80644 3.07145 0
M  V30 7430 O 715.975 5.84559 1.43438 0
M  V30 7431 H 719.801 3.0232 -0.289219 0
M  V30 7432 H 717.386 1.47951 -0.207555 0
M  V30 7433 H 719.268 3.66612 2.07783 0
M  V30 7434 H 717.943 2.47031 2.09182 0
M  V30 7435 H 716.85 3.73791 0.151931 0
M  V30 7436 H 718.183 4.9171 0.219564 0
M  V30 7437 N 719.835 0.176821 1.56605 0
M  V30 7438 C 720.765 -0.746841 2.21234 0
M  V30 7439 C 721.746 -1.23502 1.16967 0
M  V30 7440 O 722.931 -1.28718 1.45414 0
M  V30 7441 C 720.061 -1.97407 2.8574 0
M  V30 7442 C 719.015 -1.62153 3.96094 0
M  V30 7443 C 718.341 -2.92387 4.47676 0
M  V30 7444 C 719.641 -0.845353 5.15413 0
M  V30 7445 H 721.335 -0.208116 2.98676 0
M  V30 7446 H 718.881 -0.0986594 1.43662 0
M  V30 7447 H 720.834 -2.62531 3.2963 0
M  V30 7448 H 719.558 -2.53703 2.05676 0
M  V30 7449 H 718.217 -0.993964 3.52868 0
M  V30 7450 H 717.865 -3.46734 3.64396 0
M  V30 7451 H 717.565 -2.69551 5.22127 0
M  V30 7452 H 719.089 -3.5853 4.94255 0
M  V30 7453 H 720.503 -1.39929 5.55961 0
M  V30 7454 H 718.9 -0.715814 5.95815 0
M  V30 7455 H 719.97 0.157239 4.84645 0
M  V30 7456 N 721.313 -1.57302 -0.09688 0
M  V30 7457 C 722.263 -1.98369 -1.12399 0
M  V30 7458 C 723.247 -0.861872 -1.3587 0
M  V30 7459 O 724.439 -1.1257 -1.36591 0
M  V30 7460 C 721.568 -2.41017 -2.4447 0
M  V30 7461 C 720.654 -3.59881 -2.24381 0
M  V30 7462 N 721.045 -4.74872 -1.74155 0
M  V30 7463 C 719.343 -3.65943 -2.54954 0
M  V30 7464 C 720.044 -5.56823 -1.68294 0
M  V30 7465 N 719.02 -4.99942 -2.13444 0
M  V30 7466 H 722.822 -2.84726 -0.728575 0
M  V30 7467 H 720.336 -1.59523 -0.304332 0
M  V30 7468 H 722.333 -2.68665 -3.18786 0
M  V30 7469 H 720.993 -1.56036 -2.84751 0
M  V30 7470 H 722.004 -4.97657 -1.43379 0
M  V30 7471 H 718.681 -2.9162 -2.98771 0
M  V30 7472 H 720.071 -6.59099 -1.30528 0
M  V30 7473 N 722.791 0.367657 -1.53252 0
M  V30 7474 C 724.04 1.10782 -1.68554 0
M  V30 7475 C 724.353 1.90523 -0.442765 0
M  V30 7476 O 725.559 2.6729 -0.47629 0
M  V30 7477 C 724.015 2.01863 -2.97959 0
M  V30 7478 C 723.623 1.27443 -4.29491 0
M  V30 7479 C 725.367 2.75883 -3.22628 0
M  V30 7480 C 723.274 2.17414 -5.49987 0
M  V30 7481 H 722.204 0.417272 -0.628013 0
M  V30 7482 H 724.855 0.368971 -1.79752 0
M  V30 7483 H 723.237 2.7947 -2.80558 0
M  V30 7484 H 724.411 0.549138 -4.57516 0
M  V30 7485 H 722.726 0.652935 -4.11249 0
M  V30 7486 H 725.323 3.43421 -4.09837 0
M  V30 7487 H 725.666 3.41138 -2.38601 0
M  V30 7488 H 726.199 2.0536 -3.40693 0
M  V30 7489 H 722.938 1.5674 -6.36485 0
M  V30 7490 H 722.458 2.87799 -5.26243 0
M  V30 7491 H 724.137 2.77019 -5.84696 0
M  V30 7492 N 724.269 1.44576 0.627338 0
M  V30 7493 C 725.68 1.42266 1.20902 0
M  V30 7494 C 726.031 0.139964 1.957 0
M  V30 7495 O 725.156 -0.759489 2.02634 0
M  V30 7496 C 725.751 2.57727 2.19914 0
M  V30 7497 C 724.31 2.58599 2.73502 0
M  V30 7498 C 723.457 2.34145 1.48564 0
M  V30 7499 H 726.408 1.53102 0.417791 0
M  V30 7500 H 726.429 2.30697 3.02588 0
M  V30 7501 H 725.941 3.51068 1.65447 0
M  V30 7502 H 724.042 1.6921 3.31962 0
M  V30 7503 H 724.155 3.57205 3.19282 0
M  V30 7504 H 722.519 1.83313 1.76829 0
M  V30 7505 H 723.302 3.29606 0.959935 0
M  V30 7506 N 725.747 -0.868086 1.31537 0
M  V30 7507 C 726.679 -1.98165 1.15166 0
M  V30 7508 C 727.692 -1.6255 0.0902335 0
M  V30 7509 O 728.881 -1.75272 0.33791 0
M  V30 7510 C 725.981 -3.30772 0.737776 0
M  V30 7511 C 725.154 -3.94716 1.88462 0
M  V30 7512 C 724.213 -5.05641 1.45648 0
M  V30 7513 O 723.239 -5.2636 2.16642 0
M  V30 7514 N 724.441 -5.79474 0.34493 0
M  V30 7515 H 727.206 -2.12754 2.11083 0
M  V30 7516 H 724.767 -1.04217 1.23897 0
M  V30 7517 H 726.759 -4.02366 0.434032 0
M  V30 7518 H 725.329 -3.1233 -0.129834 0
M  V30 7519 H 724.549 -3.16079 2.35558 0
M  V30 7520 H 725.837 -4.34175 2.65273 0
M  V30 7521 H 725.235 -5.65164 -0.246259 0
M  V30 7522 H 723.792 -6.51722 0.100728 0
M  V30 7523 N 727.225 -1.14528 -1.08264 0
M  V30 7524 C 728.172 -0.833556 -2.15222 0
M  V30 7525 C 729.142 0.209539 -1.64773 0
M  V30 7526 O 730.327 0.0791388 -1.90636 0
M  V30 7527 C 727.467 -0.318799 -3.43624 0
M  V30 7528 C 726.58 -1.42237 -4.07913 0
M  V30 7529 C 725.715 -0.864704 -5.24115 0
M  V30 7530 C 724.754 -1.94585 -5.80347 0
M  V30 7531 N 723.891 -1.40525 -6.87893 0
M  V30 7532 H 728.731 -1.74965 -2.41228 0
M  V30 7533 H 726.268 -0.873169 -1.18381 0
M  V30 7534 H 728.226 -0.00213088 -4.172 0
M  V30 7535 H 726.856 0.560397 -3.17898 0
M  V30 7536 H 725.908 -1.8554 -3.32083 0
M  V30 7537 H 727.22 -2.23901 -4.45724 0
M  V30 7538 H 726.374 -0.500025 -6.04636 0
M  V30 7539 H 725.113 -0.0171219 -4.87697 0
M  V30 7540 H 724.118 -2.31946 -4.98479 0
M  V30 7541 H 725.343 -2.79704 -6.18823 0
M  V30 7542 H 723.289 -0.579873 -6.53432 0
M  V30 7543 H 723.206 -2.15825 -7.24538 0
M  V30 7544 H 724.474 -1.06852 -7.72142 0
M  V30 7545 N 728.703 1.26451 -0.940633 0
M  V30 7546 C 730.119 1.4608 -0.642859 0
M  V30 7547 C 730.319 1.84765 0.803998 0
M  V30 7548 O 729.375 1.96902 1.58069 0
M  V30 7549 C 730.688 2.54359 -1.60381 0
M  V30 7550 C 732.236 2.6821 -1.61345 0
M  V30 7551 C 732.711 3.79659 -2.56169 0
M  V30 7552 N 734.202 3.87051 -2.54452 0
M  V30 7553 C 734.937 4.72739 -3.24507 0
M  V30 7554 N 734.433 5.6282 -4.03987 0
M  V30 7555 N 736.226 4.66581 -3.13462 0
M  V30 7556 H 728.377 0.996289 -1.87584 0
M  V30 7557 H 730.64 0.498921 -0.80609 0
M  V30 7558 H 730.346 2.32758 -2.6366 0
M  V30 7559 H 730.22 3.52005 -1.35545 0
M  V30 7560 H 732.607 2.89184 -0.587913 0
M  V30 7561 H 732.688 1.7101 -1.90235 0
M  V30 7562 H 732.332 3.59438 -3.58841 0
M  V30 7563 H 732.262 4.76315 -2.2457 0
M  V30 7564 H 734.753 3.22649 -1.96739 0
M  V30 7565 H 735.066 6.25095 -4.54396 0
M  V30 7566 H 733.411 5.62574 -4.08088 0
M  V30 7567 H 736.602 3.9521 -2.50852 0
M  V30 7568 H 736.775 5.33141 -3.68327 0
M  V30 7569 N 730.181 0.707592 1.40822 0
M  V30 7570 C 731.597 0.38034 1.55002 0
M  V30 7571 C 731.797 -1.11163 1.68062 0
M  V30 7572 O 730.853 -1.89761 1.66574 0
M  V30 7573 C 732.166 1.1394 2.78277 0
M  V30 7574 C 733.714 1.12492 2.92087 0
M  V30 7575 C 734.189 1.86597 4.18265 0
M  V30 7576 N 735.68 1.83626 4.25248 0
M  V30 7577 C 736.415 2.37794 5.21768 0
M  V30 7578 N 735.911 3.00485 6.24244 0
M  V30 7579 N 737.704 2.27982 5.13791 0
M  V30 7580 H 729.855 1.67511 1.3059 0
M  V30 7581 H 732.118 0.707579 0.630901 0
M  V30 7582 H 731.824 2.19398 2.74877 0
M  V30 7583 H 731.698 0.725793 3.70151 0
M  V30 7584 H 734.085 0.0785564 2.94995 0
M  V30 7585 H 734.166 1.57768 2.01353 0
M  V30 7586 H 733.81 2.91219 4.16118 0
M  V30 7587 H 733.74 1.38746 5.07993 0
M  V30 7588 H 736.231 1.3793 3.51829 0
M  V30 7589 H 736.544 3.39355 6.94304 0
M  V30 7590 H 734.889 3.04567 6.24711 0
M  V30 7591 H 738.08 1.78669 4.3266 0
M  V30 7592 H 738.253 2.70499 5.88841 0
M  V30 7593 N 731.66 -1.50943 0.453197 0
M  V30 7594 C 732.888 -2.06628 -0.106135 0
M  V30 7595 C 733.303 -1.31901 -1.35084 0
M  V30 7596 O 732.66 -0.383074 -1.78434 0
M  V30 7597 C 732.711 -3.5914 -0.412368 0
M  V30 7598 O 732.432 -4.31047 0.782948 0
M  V30 7599 C 733.933 -4.31391 -1.02064 0
M  V30 7600 H 731.153 -0.670999 -0.000885896 0
M  V30 7601 H 733.697 -1.94331 0.63684 0
M  V30 7602 H 731.852 -3.71299 -1.10526 0
M  V30 7603 H 732.266 -5.21948 0.516736 0
M  V30 7604 H 733.74 -5.39135 -1.1848 0
M  V30 7605 H 734.217 -3.90714 -2.00598 0
M  V30 7606 H 734.823 -4.23716 -0.366664 0
M  V30 7607 N 733.138 -0.185124 -1.56509 0
M  V30 7608 C 734.363 0.465278 -2.02114 0
M  V30 7609 C 734.788 1.55083 -1.06447 0
M  V30 7610 O 734.146 1.81241 -0.0462852 0
M  V30 7611 C 734.194 1.00784 -3.46229 0
M  V30 7612 O 733.298 2.12123 -3.53663 0
M  V30 7613 H 732.639 0.109891 -0.654843 0
M  V30 7614 H 735.169 -0.293072 -2.0249 0
M  V30 7615 H 735.179 1.32697 -3.85818 0
M  V30 7616 H 733.854 0.213113 -4.15354 0
M  V30 7617 H 732.431 1.8115 -3.25943 0
M  V30 7618 N 734.616 1.57351 0.0885366 0
M  V30 7619 C 735.549 1.97786 1.13825 0
M  V30 7620 C 736.527 0.852091 1.38485 0
M  V30 7621 O 737.711 1.11296 1.52137 0
M  V30 7622 C 734.838 2.30024 2.48609 0
M  V30 7623 C 733.884 3.52437 2.40189 0
M  V30 7624 S 734.717 5.03908 1.81209 0
M  V30 7625 C 735.873 5.39331 3.17605 0
M  V30 7626 H 736.106 2.86513 0.793587 0
M  V30 7627 H 733.639 1.51527 0.29646 0
M  V30 7628 H 735.597 2.49274 3.26148 0
M  V30 7629 H 734.258 1.41856 2.80242 0
M  V30 7630 H 733.451 3.72457 3.39546 0
M  V30 7631 H 733.053 3.32731 1.70781 0
M  V30 7632 H 735.345 5.36378 4.13891 0
M  V30 7633 H 736.288 6.4029 3.02381 0
M  V30 7634 H 736.696 4.6679 3.17438 0
M  V30 7635 N 736.094 -0.359525 1.53444 0
M  V30 7636 C 737.319 -1.12644 1.74144 0
M  V30 7637 C 737.744 -1.82082 0.472007 0
M  V30 7638 O 737.102 -1.71962 -0.57436 0
M  V30 7639 C 737.15 -2.12781 2.9113 0
M  V30 7640 O 736.254 -3.19984 2.60162 0
M  V30 7641 H 735.595 -0.326553 0.578152 0
M  V30 7642 H 738.125 -0.414798 2.00351 0
M  V30 7643 H 738.135 -2.56278 3.17467 0
M  V30 7644 H 736.81 -1.61634 3.83207 0
M  V30 7645 H 735.387 -2.81417 2.44661 0
M  V30 7646 N 737.572 -1.44907 -0.619662 0
M  V30 7647 C 738.482 -1.55168 -1.75955 0
M  V30 7648 C 739.498 -0.43672 -1.6843 0
M  V30 7649 O 740.674 -0.695704 -1.89002 0
M  V30 7650 C 737.739 -1.50397 -3.12381 0
M  V30 7651 C 736.8 -2.72835 -3.31451 0
M  V30 7652 C 736.033 -2.68283 -4.61368 0
M  V30 7653 O 736.256 -1.74929 -5.42914 0
M  V30 7654 O 735.19 -3.59308 -4.82889 0
M  V30 7655 H 739.016 -2.51493 -1.7025 0
M  V30 7656 H 736.601 -1.27282 -0.782289 0
M  V30 7657 H 738.483 -1.50301 -3.93685 0
M  V30 7658 H 737.158 -0.572197 -3.18603 0
M  V30 7659 H 736.065 -2.78496 -2.49781 0
M  V30 7660 H 737.398 -3.65098 -3.30098 0
M  V30 7661 N 739.05 0.861098 -1.31996 0
M  V30 7662 C 740.298 1.61162 -1.21947 0
M  V30 7663 C 740.619 1.93751 0.220351 0
M  V30 7664 O 739.889 1.59069 1.14341 0
M  V30 7665 H 738.469 0.597485 -0.448353 0
M  V30 7666 H 741.131 1.03039 -1.65436 0
M  V30 7667 H 740.227 2.55138 -1.79752 0
M  V30 7668 N 740.528 1.15101 1.07655 0
M  V30 7669 C 741.777 0.918528 1.79572 0
M  V30 7670 C 742.09 -0.555922 1.87534 0
M  V30 7671 O 743.296 -0.905893 2.55941 0
M  V30 7672 C 741.752 1.59394 3.22679 0
M  V30 7673 C 741.36 3.1052 3.22927 0
M  V30 7674 C 743.104 1.44289 3.99225 0
M  V30 7675 C 741.011 3.70862 4.60668 0
M  V30 7676 H 739.941 0.340006 0.672987 0
M  V30 7677 H 742.592 1.38079 1.20857 0
M  V30 7678 H 740.974 1.05936 3.81567 0
M  V30 7679 H 742.148 3.70708 2.737 0
M  V30 7680 H 740.463 3.25351 2.59876 0
M  V30 7681 H 743.06 1.86766 5.01022 0
M  V30 7682 H 743.403 0.389975 4.14469 0
M  V30 7683 H 743.936 1.94826 3.46825 0
M  V30 7684 H 740.675 4.7604 4.50628 0
M  V30 7685 H 740.195 3.15456 5.10145 0
M  V30 7686 H 741.874 3.71607 5.29639 0
M  V30 7687 N 742.006 -1.2595 0.947325 0
M  V30 7688 C 742.953 -2.26159 0.460497 0
M  V30 7689 C 743.923 -1.58919 -0.483125 0
M  V30 7690 O 745.108 -1.86603 -0.397983 0
M  V30 7691 C 742.248 -3.441 -0.26247 0
M  V30 7692 C 741.361 -4.25999 0.717539 0
M  V30 7693 C 740.496 -5.31193 -0.0272486 0
M  V30 7694 C 739.535 -6.04774 0.944177 0
M  V30 7695 N 738.672 -7.01721 0.230741 0
M  V30 7696 H 743.512 -2.67173 1.31995 0
M  V30 7697 H 741.049 -1.31358 0.662088 0
M  V30 7698 H 743.007 -4.11317 -0.698137 0
M  V30 7699 H 741.637 -3.03983 -1.08602 0
M  V30 7700 H 740.689 -3.58513 1.27171 0
M  V30 7701 H 742.001 -4.76981 1.45913 0
M  V30 7702 H 741.155 -6.04451 -0.521903 0
M  V30 7703 H 739.894 -4.81066 -0.801682 0
M  V30 7704 H 738.899 -5.30338 1.4499 0
M  V30 7705 H 740.124 -6.56991 1.71872 0
M  V30 7706 H 738.07 -6.53895 -0.525088 0
M  V30 7707 H 737.987 -7.50484 0.911556 0
M  V30 7708 H 739.255 -7.79122 -0.242616 0
M  V30 7709 N 743.484 -0.715051 -1.40445 0
M  V30 7710 C 744.416 -0.0227516 -2.29189 0
M  V30 7711 C 745.429 0.724313 -1.458 0
M  V30 7712 O 746.618 0.571781 -1.69094 0
M  V30 7713 C 743.718 0.992038 -3.24055 0
M  V30 7714 C 742.891 0.310613 -4.36296 0
M  V30 7715 C 741.95 1.23071 -5.11605 0
M  V30 7716 O 740.976 0.71571 -5.64682 0
M  V30 7717 N 742.178 2.56188 -5.2091 0
M  V30 7718 H 744.943 -0.78473 -2.89244 0
M  V30 7719 H 742.504 -0.562637 -1.51809 0
M  V30 7720 H 744.496 1.60973 -3.71308 0
M  V30 7721 H 743.066 1.65538 -2.65171 0
M  V30 7722 H 742.286 -0.487269 -3.91177 0
M  V30 7723 H 743.574 -0.162415 -5.08541 0
M  V30 7724 H 742.972 3.00527 -4.7927 0
M  V30 7725 H 741.529 3.13103 -5.71673 0
M  V30 7726 N 744.962 1.50701 -0.461195 0
M  V30 7727 C 745.892 2.31182 0.328184 0
M  V30 7728 C 746.873 1.37644 0.999408 0
M  V30 7729 O 748.058 1.66565 0.99848 0
M  V30 7730 C 745.188 3.17113 1.41621 0
M  V30 7731 C 744.142 4.19124 0.867148 0
M  V30 7732 C 743.468 4.93728 2.05272 0
M  V30 7733 C 744.768 5.22174 -0.114808 0
M  V30 7734 H 746.462 2.97423 -0.343501 0
M  V30 7735 H 744.008 1.43033 -0.166641 0
M  V30 7736 H 745.961 3.72208 1.97584 0
M  V30 7737 H 744.685 2.48739 2.11652 0
M  V30 7738 H 743.344 3.65116 0.329557 0
M  V30 7739 H 742.992 4.21835 2.73978 0
M  V30 7740 H 742.692 5.62724 1.69161 0
M  V30 7741 H 744.216 5.51654 2.61744 0
M  V30 7742 H 745.63 5.72198 0.355316 0
M  V30 7743 H 744.027 5.98833 -0.389689 0
M  V30 7744 H 745.097 4.7353 -1.04391 0
M  V30 7745 N 746.441 0.193421 1.56409 0
M  V30 7746 C 747.371 -0.723334 2.22014 0
M  V30 7747 C 748.352 -1.22254 1.1827 0
M  V30 7748 O 749.537 -1.27168 1.46771 0
M  V30 7749 C 746.667 -1.94366 2.87818 0
M  V30 7750 C 745.621 -1.57943 3.97791 0
M  V30 7751 C 744.947 -2.87623 4.50752 0
M  V30 7752 C 746.247 -0.790639 5.16281 0
M  V30 7753 H 747.941 -0.176426 2.9888 0
M  V30 7754 H 745.487 -0.0834166 1.43758 0
M  V30 7755 H 747.44 -2.5902 3.32396 0
M  V30 7756 H 746.164 -2.51507 2.08355 0
M  V30 7757 H 744.823 -0.956482 3.53903 0
M  V30 7758 H 744.471 -3.4285 3.68053 0
M  V30 7759 H 744.171 -2.63998 5.24956 0
M  V30 7760 H 745.695 -3.53268 4.9803 0
M  V30 7761 H 747.109 -1.34024 5.57414 0
M  V30 7762 H 745.506 -0.65258 5.96541 0
M  V30 7763 H 746.576 0.208633 4.84451 0
M  V30 7764 N 747.919 -1.57396 -0.0801906 0
M  V30 7765 C 748.866 -2.03107 -1.09618 0
M  V30 7766 C 749.836 -0.910118 -1.38946 0
M  V30 7767 O 751.021 -1.17719 -1.50156 0
M  V30 7768 C 748.161 -2.47293 -2.40708 0
M  V30 7769 C 747.274 -3.72972 -2.17982 0
M  V30 7770 C 746.409 -4.05975 -3.42576 0
M  V30 7771 C 745.448 -5.24719 -3.15177 0
M  V30 7772 N 744.585 -5.53401 -4.32078 0
M  V30 7773 H 749.425 -2.89677 -0.69939 0
M  V30 7774 H 746.962 -1.43263 -0.333785 0
M  V30 7775 H 748.92 -2.7096 -3.17232 0
M  V30 7776 H 747.55 -1.63713 -2.78205 0
M  V30 7777 H 746.602 -3.56693 -1.32189 0
M  V30 7778 H 747.914 -4.59638 -1.93738 0
M  V30 7779 H 747.068 -4.30498 -4.275 0
M  V30 7780 H 745.807 -3.17859 -3.69887 0
M  V30 7781 H 744.812 -5 -2.28648 0
M  V30 7782 H 746.037 -6.14445 -2.89197 0
M  V30 7783 H 743.983 -4.68245 -4.59437 0
M  V30 7784 H 743.9 -6.34469 -4.11078 0
M  V30 7785 H 745.168 -5.8247 -5.18024 0
M  V30 7786 N 749.397 0.351382 -1.53633 0
M  V30 7787 C 750.674 1.10903 -1.6112 0
M  V30 7788 C 751.054 2.06725 -0.427556 0
M  V30 7789 O 750.402 2.20992 0.580916 0
M  V30 7790 C 750.612 1.83561 -2.96827 0
M  V30 7791 C 751.96 2.37587 -3.51906 0
M  V30 7792 O 752.984 1.93669 -2.9895 0
M  V30 7793 O 751.843 3.17913 -4.44515 0
M  V30 7794 H 748.937 0.509558 -0.651368 0
M  V30 7795 H 751.483 0.353504 -1.65977 0
M  V30 7796 H 750.255 1.1371 -3.74414 0
M  V30 7797 H 749.878 2.6599 -2.95525 0
M  V30 7798 N 750.875 1.45233 0.611969 0
M  V30 7799 C 751.808 1.48056 1.73651 0
M  V30 7800 C 752.786 0.337373 1.59061 0
M  V30 7801 O 753.97 0.537222 1.80683 0
M  V30 7802 C 751.097 1.33144 3.11433 0
M  V30 7803 C 750.143 2.51272 3.44623 0
M  V30 7804 S 750.976 4.13754 3.39953 0
M  V30 7805 C 752.132 4.013 4.80322 0
M  V30 7806 H 752.365 2.43205 1.70993 0
M  V30 7807 H 749.898 1.32763 0.788246 0
M  V30 7808 H 751.856 1.25228 3.90932 0
M  V30 7809 H 750.517 0.394734 3.1161 0
M  V30 7810 H 749.71 2.36753 4.44932 0
M  V30 7811 H 749.312 2.56027 2.72629 0
M  V30 7812 H 751.604 3.66174 5.7002 0
M  V30 7813 H 752.547 5.01506 4.99897 0
M  V30 7814 H 752.955 3.3303 4.55797 0
M  V30 7815 N 752.353 -0.854086 1.3245 0
M  V30 7816 C 753.283 -1.97827 1.24044 0
M  V30 7817 C 754.264 -1.69646 0.124166 0
M  V30 7818 O 755.449 -1.91687 0.31143 0
M  V30 7819 C 752.579 -3.33673 0.963324 0
M  V30 7820 C 751.533 -3.76207 2.04089 0
M  V30 7821 C 750.859 -5.0969 1.61618 0
M  V30 7822 C 752.159 -3.91612 3.45597 0
M  V30 7823 H 753.853 -2.05118 2.18099 0
M  V30 7824 H 751.399 -0.985489 1.04996 0
M  V30 7825 H 753.352 -4.11871 0.891061 0
M  V30 7826 H 752.076 -3.26597 -0.0128649 0
M  V30 7827 H 750.735 -3.0026 2.10332 0
M  V30 7828 H 750.383 -4.99072 0.627418 0
M  V30 7829 H 750.083 -5.3912 2.33717 0
M  V30 7830 H 751.607 -5.90381 1.55829 0
M  V30 7831 H 753.021 -4.60163 3.4194 0
M  V30 7832 H 751.418 -4.3246 4.16051 0
M  V30 7833 H 752.488 -2.9451 3.85217 0
M  V30 7834 N 753.831 -1.1567 -1.07043 0
M  V30 7835 C 754.794 -0.858906 -2.12498 0
M  V30 7836 C 755.794 0.142735 -1.60165 0
M  V30 7837 O 756.984 -0.0872678 -1.73981 0
M  V30 7838 C 754.116 -0.283021 -3.39723 0
M  V30 7839 H 755.309 -1.79368 -2.40348 0
M  V30 7840 H 752.862 -0.964608 -1.22984 0
M  V30 7841 H 753.597 0.659796 -3.17517 0
M  V30 7842 H 753.382 -1.00467 -3.7901 0
M  V30 7843 H 754.872 -0.0923543 -4.17498 0
M  V30 7844 N 755.309 1.25446 -0.953992 0
M  V30 7845 C 756.272 2.24156 -0.478179 0
M  V30 7846 C 757.272 1.55278 0.417776 0
M  V30 7847 O 758.462 1.72866 0.215155 0
M  V30 7848 C 755.594 3.39495 0.309202 0
M  V30 7849 H 756.787 2.67764 -1.35064 0
M  V30 7850 H 754.34 1.37822 -0.737206 0
M  V30 7851 H 755.075 3.01307 1.19936 0
M  V30 7852 H 754.86 3.90679 -0.333562 0
M  V30 7853 H 756.35 4.12796 0.631594 0
M  V30 7854 N 756.787 0.722489 1.40064 0
M  V30 7855 C 757.735 0.063329 2.32514 0
M  V30 7856 C 758.729 -0.73953 1.52405 0
M  V30 7857 O 759.935 -0.642122 1.68157 0
M  V30 7858 H 756.31 0.00167692 0.751998 0
M  V30 7859 H 758.281 0.859656 2.85749 0
M  V30 7860 C 757.03 -0.839219 3.3742 0
M  V30 7861 H 756.353 -0.230836 3.99133 0
M  V30 7862 H 757.793 -1.26827 4.04587 0
M  V30 7863 C 756.252 -1.96783 2.73456 0
M  V30 7864 O 756.782 -3.05933 2.60323 0
M  V30 7865 N 754.988 -1.75351 2.31734 0
M  V30 7866 H 754.535 -0.865787 2.42615 0
M  V30 7867 H 754.493 -2.51043 1.89275 0
M  V30 7868 N 758.265 -1.50454 0.469181 0
M  V30 7869 C 759.676 -1.86695 0.0136034 0
M  V30 7870 C 760.027 -1.38413 -1.39055 0
M  V30 7871 O 759.152 -0.748294 -2.03051 0
M  V30 7872 C 759.747 -3.38795 0.0179098 0
M  V30 7873 C 758.306 -3.74455 -0.382191 0
M  V30 7874 C 757.453 -2.74338 0.404207 0
M  V30 7875 H 760.404 -1.43225 0.683547 0
M  V30 7876 H 760.425 -3.72321 -0.78468 0
M  V30 7877 H 759.937 -3.73906 1.04 0
M  V30 7878 H 758.038 -3.44944 -1.4087 0
M  V30 7879 H 758.151 -4.79025 -0.084862 0
M  V30 7880 H 756.515 -2.54305 -0.141829 0
M  V30 7881 H 757.298 -3.12293 1.42577 0
M  V30 7882 N 759.743 -0.201713 -1.56304 0
M  V30 7883 C 760.675 0.748466 -2.16635 0
M  V30 7884 C 761.688 1.172 -1.12996 0
M  V30 7885 O 762.877 1.10658 -1.40061 0
M  V30 7886 C 759.977 2.02296 -2.719 0
M  V30 7887 C 759.15 1.75818 -4.00508 0
M  V30 7888 C 758.209 2.87779 -4.40533 0
M  V30 7889 O 757.235 2.57101 -5.07826 0
M  V30 7890 N 758.437 4.16287 -4.04581 0
M  V30 7891 H 761.202 0.232505 -2.98797 0
M  V30 7892 H 758.763 -0.0199822 -1.61888 0
M  V30 7893 H 760.755 2.7635 -2.95657 0
M  V30 7894 H 759.325 2.44996 -1.94154 0
M  V30 7895 H 758.545 0.855095 -3.84814 0
M  V30 7896 H 759.833 1.55532 -4.84445 0
M  V30 7897 H 759.231 4.44061 -3.50466 0
M  V30 7898 H 757.788 4.86946 -4.33274 0
M  V30 7899 N 761.222 1.57436 0.0718424 0
M  V30 7900 C 762.499 1.78312 0.804006 0
M  V30 7901 C 762.879 0.789273 1.9579 0
M  V30 7902 O 762.227 -0.177605 2.27809 0
M  V30 7903 C 762.437 3.24798 1.277 0
M  V30 7904 C 763.785 3.88627 1.71039 0
M  V30 7905 O 764.809 3.28689 1.37266 0
M  V30 7906 O 763.668 4.94073 2.33567 0
M  V30 7907 H 760.762 0.73178 0.385262 0
M  V30 7908 H 763.308 1.69621 0.0519219 0
M  V30 7909 H 762.08 3.88688 0.45134 0
M  V30 7910 H 761.703 3.38213 2.0904 0
M  V30 7911 N 762.7 -0.34323 1.53817 0
M  V30 7912 C 764.116 -0.686355 1.44088 0
M  V30 7913 C 764.316 -1.92426 0.597882 0
M  V30 7914 O 763.372 -2.52343 0.0889918 0
M  V30 7915 C 764.685 -0.878698 2.87575 0
M  V30 7916 C 766.233 -0.977296 2.97352 0
M  V30 7917 C 766.708 -1.20195 4.41947 0
M  V30 7918 N 768.199 -1.26915 4.45474 0
M  V30 7919 C 768.934 -1.46049 5.54488 0
M  V30 7920 N 768.43 -1.62354 6.73508 0
M  V30 7921 N 770.223 -1.48599 5.42102 0
M  V30 7922 H 762.374 0.470679 2.07119 0
M  V30 7923 H 764.637 0.148652 0.936273 0
M  V30 7924 H 764.343 -0.040602 3.51677 0
M  V30 7925 H 764.217 -1.78034 3.32541 0
M  V30 7926 H 766.604 -1.80591 2.3339 0
M  V30 7927 H 766.685 -0.0525498 2.55746 0
M  V30 7928 H 766.329 -0.378262 5.06489 0
M  V30 7929 H 766.259 -2.14027 4.81145 0
M  V30 7930 H 768.75 -1.15837 3.59708 0
M  V30 7931 H 769.063 -1.76591 7.52353 0
M  V30 7932 H 767.408 -1.5949 6.76453 0
M  V30 7933 H 770.599 -1.35443 4.48077 0
M  V30 7934 H 770.772 -1.6317 6.2712 0
M  V30 7935 N 764.178 -1.45556 -0.604258 0
M  V30 7936 C 765.589 -1.44171 -1.18624 0
M  V30 7937 C 765.94 -0.171081 -1.95453 0
M  V30 7938 O 765.065 0.727156 -2.03817 0
M  V30 7939 C 765.66 -2.61193 -2.15786 0
M  V30 7940 C 764.219 -2.62918 -2.69353 0
M  V30 7941 C 763.366 -2.36479 -1.4482 0
M  V30 7942 H 766.317 -1.53747 -0.393381 0
M  V30 7943 H 766.338 -2.35481 -2.98879 0
M  V30 7944 H 765.85 -3.53656 -1.59841 0
M  V30 7945 H 763.951 -1.7447 -3.29228 0
M  V30 7946 H 764.064 -3.6224 -3.13559 0
M  V30 7947 H 762.428 -1.86103 -1.73891 0
M  V30 7948 H 763.211 -3.31091 -0.907376 0
M  V30 7949 N 765.656 0.84705 -1.32902 0
M  V30 7950 C 766.933 1.58583 -1.14503 0
M  V30 7951 C 767.313 2.09075 0.291724 0
M  V30 7952 O 766.661 1.88636 1.28952 0
M  V30 7953 C 766.871 2.72605 -2.17916 0
M  V30 7954 C 768.219 3.41993 -2.51646 0
M  V30 7955 O 769.243 2.82838 -2.1652 0
M  V30 7956 O 768.102 4.48761 -3.1189 0
M  V30 7957 H 765.196 0.698756 -0.442345 0
M  V30 7958 H 767.742 0.890516 -1.44457 0
M  V30 7959 H 766.514 2.32876 -3.14459 0
M  V30 7960 H 766.137 3.49807 -1.89 0
M  V30 7961 N 767.134 1.16236 1.06428 0
M  V30 7962 C 768.097 0.870163 2.1204 0
M  V30 7963 C 769.097 -0.134239 1.60239 0
M  V30 7964 O 770.287 0.0964932 1.73933 0
M  V30 7965 C 767.419 0.301033 3.39568 0
M  V30 7966 H 768.612 1.8064 2.39394 0
M  V30 7967 H 766.165 0.971116 1.2247 0
M  V30 7968 H 766.9 -0.642948 3.17863 0
M  V30 7969 H 766.685 1.02475 3.78472 0
M  V30 7970 H 768.175 0.114494 4.17443 0
M  V30 7971 N 768.612 -1.24939 0.960631 0
M  V30 7972 C 769.859 -1.92818 0.618663 0
M  V30 7973 C 770.187 -1.75177 -0.845173 0
M  V30 7974 O 769.442 -1.09412 -1.62258 0
M  V30 7975 C 769.741 -3.45066 0.930809 0
M  V30 7976 C 769.407 -3.82869 2.38164 0
M  V30 7977 C 768.069 -3.92899 2.7782 0
M  V30 7978 C 770.421 -4.01483 3.32356 0
M  V30 7979 C 767.749 -4.18955 4.10723 0
M  V30 7980 C 770.101 -4.29033 4.6488 0
M  V30 7981 C 768.765 -4.37282 5.04322 0
M  V30 7982 H 768.035 -0.705571 0.226385 0
M  V30 7983 H 770.682 -1.48365 1.21079 0
M  V30 7984 H 768.987 -3.9096 0.256355 0
M  V30 7985 H 770.684 -3.95783 0.644712 0
M  V30 7986 H 767.274 -3.75622 2.06413 0
M  V30 7987 H 771.458 -3.93143 3.02907 0
M  V30 7988 H 766.714 -4.23558 4.40918 0
M  V30 7989 H 770.888 -4.42381 5.3784 0
M  V30 7990 H 768.515 -4.57225 6.0733 0
M  V30 7991 N 770.09 -0.729906 -1.39679 0
M  V30 7992 C 771 -0.0880322 -2.34435 0
M  V30 7993 C 772.016 0.727674 -1.58053 0
M  V30 7994 O 773.192 0.657321 -1.90371 0
M  V30 7995 C 770.257 0.812211 -3.37052 0
M  V30 7996 C 769.318 -0.0151681 -4.29297 0
M  V30 7997 C 768.551 0.842202 -5.27013 0
M  V30 7998 O 768.774 2.08108 -5.31081 0
M  V30 7999 O 767.708 0.27357 -6.01278 0
M  V30 8000 H 771.534 -0.869989 -2.90972 0
M  V30 8001 H 769.119 -0.490522 -1.41118 0
M  V30 8002 H 771.001 1.32745 -3.99946 0
M  V30 8003 H 769.676 1.57307 -2.82907 0
M  V30 8004 H 768.583 -0.575811 -3.69642 0
M  V30 8005 H 769.916 -0.738129 -4.86634 0
M  V30 8006 N 771.568 1.50203 -0.477153 0
M  V30 8007 C 772.498 2.31517 0.303646 0
M  V30 8008 C 773.479 1.38696 0.984753 0
M  V30 8009 O 774.664 1.67615 0.980758 0
M  V30 8010 C 771.794 3.18598 1.38249 0
M  V30 8011 C 770.748 4.2002 0.822645 0
M  V30 8012 C 770.074 4.95878 2.00024 0
M  V30 8013 C 771.374 5.22023 -0.170185 0
M  V30 8014 H 773.068 2.97042 -0.375027 0
M  V30 8015 H 770.614 1.42848 -0.181802 0
M  V30 8016 H 772.567 3.74282 1.93625 0
M  V30 8017 H 771.291 2.5097 2.09002 0
M  V30 8018 H 769.95 3.65445 0.290813 0
M  V30 8019 H 769.598 4.24717 2.69489 0
M  V30 8020 H 769.298 5.64487 1.63183 0
M  V30 8021 H 770.822 5.54399 2.55878 0
M  V30 8022 H 772.236 5.72543 0.294606 0
M  V30 8023 H 770.633 5.98386 -0.453181 0
M  V30 8024 H 771.703 4.72396 -1.09408 0
M  V30 8025 N 773.046 0.209999 1.56195 0
M  V30 8026 C 773.956 -0.716459 2.23392 0
M  V30 8027 C 774.972 -1.22291 1.23778 0
M  V30 8028 O 776.148 -1.26694 1.56558 0
M  V30 8029 C 773.213 -1.91261 2.89172 0
M  V30 8030 C 772.274 -1.44927 4.04097 0
M  V30 8031 C 771.507 -2.5884 4.66731 0
M  V30 8032 O 771.73 -3.76693 4.2832 0
M  V30 8033 O 770.664 -2.30701 5.55932 0
M  V30 8034 H 774.49 -0.174089 3.03201 0
M  V30 8035 H 772.075 -0.0199505 1.49387 0
M  V30 8036 H 773.957 -2.6114 3.30733 0
M  V30 8037 H 772.632 -2.4433 2.12331 0
M  V30 8038 H 771.539 -0.718839 3.67129 0
M  V30 8039 H 772.872 -0.965084 4.82646 0
M  V30 8040 N 774.524 -1.57472 -0.0634922 0
M  V30 8041 C 775.752 -1.91887 -0.773767 0
M  V30 8042 C 776.167 -0.806733 -1.70696 0
M  V30 8043 O 775.524 0.219383 -1.81177 0
M  V30 8044 C 775.575 -3.26092 -1.56034 0
M  V30 8045 O 775.296 -4.33029 -0.66464 0
M  V30 8046 C 776.797 -3.74573 -2.37087 0
M  V30 8047 H 774.017 -0.634074 -0.219525 0
M  V30 8048 H 776.561 -2.04476 -0.0312828 0
M  V30 8049 H 774.716 -3.15004 -2.25502 0
M  V30 8050 H 775.13 -5.10291 -1.21258 0
M  V30 8051 H 776.604 -4.71084 -2.87722 0
M  V30 8052 H 777.081 -3.04003 -3.16984 0
M  V30 8053 H 777.687 -3.88631 -1.72759 0
M  V30 8054 N 776.003 0.335068 -1.53997 0
M  V30 8055 C 777.419 0.678704 -1.4445 0
M  V30 8056 C 777.619 1.92106 -0.608078 0
M  V30 8057 O 776.675 2.52292 -0.102373 0
M  V30 8058 C 777.988 0.863435 -2.88037 0
M  V30 8059 C 779.536 0.961513 -2.97866 0
M  V30 8060 C 780.011 1.1785 -4.42578 0
M  V30 8061 N 781.502 1.2455 -4.46141 0
M  V30 8062 C 782.237 1.43106 -5.55255 0
M  V30 8063 N 781.733 1.5878 -6.74359 0
M  V30 8064 N 783.526 1.45722 -5.42883 0
M  V30 8065 H 775.677 -0.481656 -2.06867 0
M  V30 8066 H 777.94 -0.153615 -0.935471 0
M  V30 8067 H 777.646 0.0219511 -3.51693 0
M  V30 8068 H 777.52 1.76268 -3.33481 0
M  V30 8069 H 779.907 1.79351 -2.34344 0
M  V30 8070 H 779.988 0.0389862 -2.5577 0
M  V30 8071 H 779.632 0.351397 -5.06683 0
M  V30 8072 H 779.562 2.11472 -4.82273 0
M  V30 8073 H 782.053 1.13928 -3.60318 0
M  V30 8074 H 782.366 1.72599 -7.53279 0
M  V30 8075 H 780.711 1.559 -6.77289 0
M  V30 8076 H 783.902 1.33065 -4.48789 0
M  V30 8077 H 784.075 1.59841 -6.27977 0
M  V30 8078 N 777.481 1.45874 0.596531 0
M  V30 8079 C 778.414 1.49889 1.72071 0
M  V30 8080 C 779.392 0.354224 1.58695 0
M  V30 8081 O 780.576 0.556355 1.80103 0
M  V30 8082 C 777.703 1.3644 3.10003 0
M  V30 8083 C 776.749 2.54913 3.41938 0
M  V30 8084 S 777.582 4.17336 3.35545 0
M  V30 8085 C 778.738 4.06372 4.76039 0
M  V30 8086 H 778.971 2.45005 1.68404 0
M  V30 8087 H 776.504 1.33592 0.77412 0
M  V30 8088 H 778.462 1.29368 3.89582 0
M  V30 8089 H 777.123 0.427762 3.11174 0
M  V30 8090 H 776.316 2.41458 4.42396 0
M  V30 8091 H 775.918 2.58904 2.69898 0
M  V30 8092 H 778.21 3.72199 5.66105 0
M  V30 8093 H 779.153 5.0678 4.9455 0
M  V30 8094 H 779.561 3.37846 4.52239 0
M  V30 8095 N 778.959 -0.83999 1.33349 0
M  V30 8096 C 780.236 -1.57973 1.15342 0
M  V30 8097 C 780.616 -2.09226 -0.280632 0
M  V30 8098 O 779.964 -1.89317 -1.2795 0
M  V30 8099 C 780.174 -2.71446 2.19359 0
M  V30 8100 C 781.522 -3.40654 2.53456 0
M  V30 8101 O 782.546 -2.81686 2.18017 0
M  V30 8102 O 781.405 -4.47101 3.14266 0
M  V30 8103 H 778.499 -0.6964 0.446044 0
M  V30 8104 H 781.045 -0.882843 1.44927 0
M  V30 8105 H 779.817 -2.31205 3.1569 0
M  V30 8106 H 779.44 -3.488 1.90852 0
M  V30 8107 N 780.437 -1.16799 -1.0581 0
M  V30 8108 C 781.369 -0.836774 -2.13379 0
M  V30 8109 C 782.382 0.158116 -1.6203 0
M  V30 8110 O 783.571 -0.0673211 -1.78373 0
M  V30 8111 C 780.671 -0.225959 -3.38146 0
M  V30 8112 C 779.844 -1.26217 -4.18794 0
M  V30 8113 C 778.903 -0.670257 -5.21914 0
M  V30 8114 O 777.929 -1.34042 -5.53192 0
M  V30 8115 N 779.131 0.540683 -5.77977 0
M  V30 8116 H 781.896 -1.76257 -2.42391 0
M  V30 8117 H 779.457 -1.06599 -1.21853 0
M  V30 8118 H 781.449 0.18317 -4.04285 0
M  V30 8119 H 780.019 0.603494 -3.06719 0
M  V30 8120 H 779.239 -1.84729 -3.48237 0
M  V30 8121 H 780.527 -1.9613 -4.69479 0
M  V30 8122 H 779.925 1.10322 -5.54838 0
M  V30 8123 H 778.482 0.891958 -6.45668 0
M  V30 8124 N 781.915 1.24427 -0.967243 0
M  V30 8125 C 783.161 1.92772 -0.629812 0
M  V30 8126 C 783.494 1.75436 0.832827 0
M  V30 8127 O 782.769 1.10716 1.59913 0
M  V30 8128 C 783.052 3.45798 -1.00477 0
M  V30 8129 C 782.905 3.72304 -2.52407 0
M  V30 8130 C 784.224 4.36787 -0.538999 0
M  V30 8131 H 781.343 0.700099 -0.230282 0
M  V30 8132 H 783.985 1.46805 -1.20616 0
M  V30 8133 H 782.135 3.8508 -0.514336 0
M  V30 8134 H 783.807 3.42584 -3.08924 0
M  V30 8135 H 782.05 3.17472 -2.95625 0
M  V30 8136 H 782.721 4.7937 -2.73693 0
M  V30 8137 H 785.197 4.04877 -0.959874 0
M  V30 8138 H 784.073 5.4259 -0.829926 0
M  V30 8139 H 784.334 4.38527 0.560923 0
M  V30 8140 N 783.393 0.737304 1.3929 0
M  V30 8141 C 784.621 0.296573 2.04763 0
M  V30 8142 C 785.036 -1.06941 1.55592 0
M  V30 8143 O 784.393 -1.67619 0.721822 0
M  V30 8144 C 784.444 0.291906 3.6032 0
M  V30 8145 O 784.165 1.60397 4.07682 0
M  V30 8146 C 785.666 -0.164708 4.42994 0
M  V30 8147 H 782.886 0.129251 0.658434 0
M  V30 8148 H 785.43 1.0016 1.78293 0
M  V30 8149 H 783.585 -0.364251 3.85684 0
M  V30 8150 H 783.999 1.51909 5.0202 0
M  V30 8151 H 785.473 -0.116814 5.51876 0
M  V30 8152 H 785.95 -1.21022 4.22197 0
M  V30 8153 H 786.556 0.461968 4.22784 0
M  V30 8154 N 784.871 -1.49948 0.485112 0
M  V30 8155 C 786.111 -2.04301 -0.0635728 0
M  V30 8156 C 786.475 -1.35804 -1.35725 0
M  V30 8157 O 787.676 -1.80789 -1.98919 0
M  V30 8158 C 785.947 -3.56666 -0.228962 0
M  V30 8159 S 787.506 -4.32614 -0.734185 0
M  V30 8160 H 784.324 -0.710939 -0.00931895 0
M  V30 8161 H 786.926 -1.84185 0.655455 0
M  V30 8162 H 785.63 -4.04068 0.718148 0
M  V30 8163 H 785.161 -3.8116 -0.973696 0
M  V30 8164 H 787.176 -4.53859 -2.00565 0
M  V30 8165 N 786.349 -0.21828 -1.56081 0
M  V30 8166 C 787.312 0.679633 -2.18892 0
M  V30 8167 C 788.312 1.12405 -1.14986 0
M  V30 8168 O 789.502 1.03339 -1.40238 0
M  V30 8169 C 786.634 1.93063 -2.80962 0
M  V30 8170 H 787.827 0.132066 -2.99609 0
M  V30 8171 H 785.38 0.0313374 -1.56269 0
M  V30 8172 H 786.115 2.52015 -2.04106 0
M  V30 8173 H 785.9 1.62046 -3.57048 0
M  V30 8174 H 787.39 2.57043 -3.29118 0
M  V30 8175 N 787.827 1.57504 0.0551401 0
M  V30 8176 C 788.79 2.03826 1.04821 0
M  V30 8177 C 789.79 0.937968 1.30609 0
M  V30 8178 O 790.98 1.20237 1.2605 0
M  V30 8179 C 788.112 2.43309 2.38775 0
M  V30 8180 H 789.305 2.92802 0.6486 0
M  V30 8181 H 786.858 1.53368 0.301315 0
M  V30 8182 H 787.593 1.5741 2.83536 0
M  V30 8183 H 787.378 3.23615 2.21395 0
M  V30 8184 H 788.868 2.79666 3.10124 0
M  V30 8185 O 789.344 -0.198462 1.60276 0
M  V30 8186 H 790.035 -0.837638 1.74652 0
M  V30 END ATOM
M  V30 BEGIN BOND
M  V30 END BOND
M  V30 END CTAB
M  END
$$$$
