drugbank_target|Q8TET4 Neutral alpha-glucosidase C (DB00491)
 OpenBabel12092120573D

  0  0  0     0  0            999 V3000
M  V30 BEGIN CTAB
M  V30 COUNTS 14549 14752 0 0 0
M  V30 BEGIN ATOM
M  V30 1 H -0.908 1.98254 -0.117106 0
M  V30 2 N 0 1.576 0 0
M  V30 3 C 0.933 2.03868 1.02534 0
M  V30 4 C 1.911 0.928543 1.3348 0
M  V30 5 O 3.095 1.19667 1.45644 0
M  V30 6 C 0.222 2.43627 2.35294 0
M  V30 7 C -0.732 3.65373 2.2001 0
M  V30 8 S 0.101 5.13292 1.52614 0
M  V30 9 C 1.257 5.56322 2.86805 0
M  V30 10 H 1.49 2.90518 0.631377 0
M  V30 11 H -0.977 1.52953 0.210867 0
M  V30 12 H 0.981 2.67203 3.11629 0
M  V30 13 H -0.358 1.57376 2.7183 0
M  V30 14 H -1.165 3.90944 3.18086 0
M  V30 15 H -1.563 3.418 1.51819 0
M  V30 16 H 0.729 5.58782 3.83104 0
M  V30 17 H 1.672 6.56266 2.65933 0
M  V30 18 H 2.08 4.83886 2.90714 0
M  V30 19 N 1.4781 -0.272755 1.55222 0
M  V30 20 C 2.3881 -1.35918 1.91216 0
M  V30 21 C 3.4041 -1.54026 0.809436 0
M  V30 22 O 4.5801 -1.68148 1.10852 0
M  V30 23 C 1.6451 -2.69834 2.17693 0
M  V30 24 C 0.7061 -2.6047 3.41253 0
M  V30 25 C -0.0609 -3.88 3.66458 0
M  V30 26 O 0.1621 -4.88693 2.94169 0
M  V30 27 O -0.9039 -3.88189 4.59992 0
M  V30 28 H 2.9221 -1.0839 2.83699 0
M  V30 29 H 0.5071 -0.471301 1.41771 0
M  V30 30 H 2.3891 -3.49017 2.36147 0
M  V30 31 H 1.0641 -2.97148 1.28392 0
M  V30 32 H -0.0289 -1.79663 3.28134 0
M  V30 33 H 1.3041 -2.38106 4.30774 0
M  V30 34 N 2.9562 -1.48159 -0.537278 0
M  V30 35 C 3.9192 -1.61665 -1.62472 0
M  V30 36 C 4.9192 -0.490395 -1.5314 0
M  V30 37 O 6.1092 -0.755998 -1.5694 0
M  V30 38 C 3.2412 -1.57997 -3.02076 0
M  V30 39 H 4.4342 -2.58621 -1.51839 0
M  V30 40 H 1.9872 -1.36647 -0.758771 0
M  V30 41 H 2.7222 -0.624913 -3.18222 0
M  V30 42 H 2.5072 -2.39755 -3.10258 0
M  V30 43 H 3.9972 -1.70627 -3.81151 0
M  V30 44 N 4.4343 0.785586 -1.36625 0
M  V30 45 C 5.3973 1.87999 -1.31107 0
M  V30 46 C 6.3973 1.59316 -0.217959 0
M  V30 47 O 7.5873 1.67656 -0.472977 0
M  V30 48 C 4.7193 3.24861 -1.03334 0
M  V30 49 H 5.9123 1.94307 -2.2844 0
M  V30 50 H 3.4653 0.983813 -1.21453 0
M  V30 51 H 4.2003 3.24235 -0.0647432 0
M  V30 52 H 3.9853 3.4707 -1.82441 0
M  V30 53 H 5.4753 4.04929 -1.02088 0
M  V30 54 N 5.9124 1.20967 1.01018 0
M  V30 55 C 7.1584 1.02526 1.74975 0
M  V30 56 C 7.4914 -0.4408 1.89131 0
M  V30 57 O 6.7664 -1.32718 1.42184 0
M  V30 58 C 7.0494 1.71699 3.1653 0
M  V30 59 C 6.9024 3.25791 3.10129 0
M  V30 60 C 8.2214 1.45531 4.15342 0
M  V30 61 H 5.3404 0.373863 0.635134 0
M  V30 62 H 7.9824 1.49071 1.17805 0
M  V30 63 H 6.1324 1.32128 3.65341 0
M  V30 64 H 7.8044 3.74697 2.69072 0
M  V30 65 H 6.0474 3.56363 2.47362 0
M  V30 66 H 6.7184 3.69353 4.10222 0
M  V30 67 H 9.1944 1.79872 3.75213 0
M  V30 68 H 8.0704 1.96453 5.1254 0
M  V30 69 H 8.3314 0.384237 4.40427 0
M  V30 70 N 7.3905 -1.2043 1.01659 0
M  V30 71 C 8.3375 -2.23215 0.586822 0
M  V30 72 C 9.3075 -1.61382 -0.393085 0
M  V30 73 O 10.4925 -1.88544 -0.292525 0
M  V30 74 C 7.6325 -3.45032 -0.0687464 0
M  V30 75 C 6.7455 -4.21296 0.955724 0
M  V30 76 C 5.8805 -5.30507 0.271208 0
M  V30 77 C 4.9195 -5.98515 1.28244 0
M  V30 78 N 4.0565 -6.99316 0.62459 0
M  V30 79 H 8.8965 -2.59336 1.46796 0
M  V30 80 H 6.4335 -1.27431 0.734836 0
M  V30 81 H 8.3915 -4.1459 -0.465965 0
M  V30 82 H 7.0215 -3.09604 -0.913529 0
M  V30 83 H 6.0735 -3.50803 1.4711 0
M  V30 84 H 7.3855 -4.6803 1.72479 0
M  V30 85 H 6.5395 -6.06428 -0.18151 0
M  V30 86 H 5.2785 -4.8481 -0.530163 0
M  V30 87 H 4.2835 -5.21355 1.74554 0
M  V30 88 H 5.5085 -6.46298 2.08509 0
M  V30 89 H 3.4545 -6.55812 -0.156914 0
M  V30 90 H 3.3715 -7.44178 1.33172 0
M  V30 91 H 4.6395 -7.79255 0.195462 0
M  V30 92 N 8.8686 -0.792821 -1.36206 0
M  V30 93 C 9.7786 -0.194808 -2.3379 0
M  V30 94 C 10.7946 0.654869 -1.61206 0
M  V30 95 O 11.9706 0.569856 -1.9317 0
M  V30 96 C 9.0356 0.657721 -3.40404 0
M  V30 97 C 8.0966 -0.210849 -4.28782 0
M  V30 98 C 7.3296 0.601086 -5.30304 0
M  V30 99 O 7.5526 1.83682 -5.40016 0
M  V30 100 O 6.4866 -0.000808277 -6.019 0
M  V30 101 H 10.3126 -1.00172 -2.86704 0
M  V30 102 H 7.8976 -0.554341 -1.38735 0
M  V30 103 H 9.7796 1.14375 -4.05581 0
M  V30 104 H 8.4546 1.44247 -2.89784 0
M  V30 105 H 7.3616 -0.743714 -3.66633 0
M  V30 106 H 8.6946 -0.959195 -4.82763 0
M  V30 107 N 10.3467 1.47872 -0.545128 0
M  V30 108 C 11.2567 2.33633 0.212746 0
M  V30 109 C 12.2727 1.4744 0.923983 0
M  V30 110 O 13.4487 1.80393 0.895572 0
M  V30 111 C 10.5137 3.23884 1.23693 0
M  V30 112 C 9.5747 4.25961 0.534417 0
M  V30 113 C 8.8077 5.11899 1.5098 0
M  V30 114 O 9.0307 5.00077 2.7437 0
M  V30 115 O 7.9647 5.92831 1.0409 0
M  V30 116 H 11.7907 2.99714 -0.490416 0
M  V30 117 H 9.3757 1.46235 -0.305871 0
M  V30 118 H 11.2577 3.79666 1.82843 0
M  V30 119 H 9.9327 2.60446 1.92222 0
M  V30 120 H 8.8397 3.73972 -0.0979679 0
M  V30 121 H 10.1727 4.92079 -0.109213 0
M  V30 122 N 11.8248 0.280983 1.55075 0
M  V30 123 C 13.0738 -0.334784 1.98902 0
M  V30 124 C 13.3868 -1.56534 1.17288 0
M  V30 125 O 14.5928 -2.25443 1.51287 0
M  V30 126 C 13.0488 -0.646994 3.54037 0
M  V30 127 C 12.6568 0.564085 4.44435 0
M  V30 128 C 14.4008 -1.22506 4.06439 0
M  V30 129 C 12.3078 0.226137 5.90967 0
M  V30 130 H 11.2378 -0.128866 0.742906 0
M  V30 131 H 13.8888 0.386556 1.79382 0
M  V30 132 H 12.2708 -1.42739 3.6938 0
M  V30 133 H 13.4448 1.34082 4.40861 0
M  V30 134 H 11.7598 1.0594 4.02698 0
M  V30 135 H 14.3568 -1.49182 5.13468 0
M  V30 136 H 14.6998 -2.16085 3.55827 0
M  V30 137 H 15.2328 -0.50682 3.94558 0
M  V30 138 H 11.9718 1.12996 6.45687 0
M  V30 139 H 11.4918 -0.513717 5.97596 0
M  V30 140 H 13.1708 -0.179539 6.46751 0
M  V30 141 N 13.3029 -1.57598 0.00835791 0
M  V30 142 C 14.5279 -1.95617 -0.689103 0
M  V30 143 C 14.9529 -0.883753 -1.66046 0
M  V30 144 O 14.3109 0.157352 -1.80616 0
M  V30 145 C 14.3589 -3.32736 -1.38994 0
M  V30 146 O 13.4629 -3.27631 -2.50463 0
M  V30 147 H 12.8039 -0.638379 -0.182668 0
M  V30 148 H 15.3339 -2.045 0.064036 0
M  V30 149 H 15.3439 -3.68494 -1.75147 0
M  V30 150 H 14.0189 -4.1034 -0.677778 0
M  V30 151 H 12.5959 -3.03561 -2.16576 0
M  V30 152 N 14.781 0.264519 -1.55364 0
M  V30 153 C 15.711 1.33121 -1.91836 0
M  V30 154 C 16.692 1.51101 -0.781192 0
M  V30 155 O 17.877 1.64003 -1.04003 0
M  V30 156 C 15.007 2.68921 -2.19769 0
M  V30 157 C 13.961 2.65661 -3.35571 0
M  V30 158 C 13.287 4.05093 -3.49004 0
M  V30 159 C 14.587 2.24187 -4.71739 0
M  V30 160 H 16.281 1.02844 -2.81182 0
M  V30 161 H 13.827 0.493286 -1.35287 0
M  V30 162 H 15.78 3.43663 -2.43872 0
M  V30 163 H 14.504 3.00799 -1.27231 0
M  V30 164 H 13.163 1.93377 -3.1145 0
M  V30 165 H 12.811 4.34206 -2.53917 0
M  V30 166 H 12.511 4.03804 -4.26868 0
M  V30 167 H 14.035 4.81561 -3.75408 0
M  V30 168 H 15.449 2.88654 -4.9533 0
M  V30 169 H 13.846 2.34044 -5.52579 0
M  V30 170 H 14.916 1.19327 -4.69988 0
M  V30 171 N 16.2591 1.48442 0.529413 0
M  V30 172 C 17.1691 1.6569 1.66084 0
M  V30 173 C 18.1851 0.539432 1.65427 0
M  V30 174 O 19.3611 0.810572 1.84368 0
M  V30 175 C 16.4261 1.69315 3.02545 0
M  V30 176 C 15.4871 2.92694 3.14052 0
M  V30 177 C 14.7201 2.96137 4.44003 0
M  V30 178 O 14.9431 2.07973 5.31134 0
M  V30 179 O 13.8771 3.88312 4.59888 0
M  V30 180 H 17.7031 2.61483 1.54469 0
M  V30 181 H 15.2881 1.3185 0.702567 0
M  V30 182 H 17.1701 1.74217 3.83701 0
M  V30 183 H 15.8451 0.766966 3.14483 0
M  V30 184 H 14.7521 2.93324 2.32189 0
M  V30 185 H 16.0851 3.84699 3.0703 0
M  V30 186 N 17.7372 -0.778329 1.37039 0
M  V30 187 C 19.0142 -1.52551 1.22424 0
M  V30 188 C 19.3942 -2.10288 -0.184964 0
M  V30 189 O 18.7422 -1.94953 -1.19187 0
M  V30 190 C 18.9522 -2.61164 2.31504 0
M  V30 191 C 20.3002 -3.28746 2.68721 0
M  V30 192 O 21.3242 -2.71455 2.30631 0
M  V30 193 O 20.1832 -4.3231 3.3432 0
M  V30 194 H 17.2772 -0.675343 0.477326 0
M  V30 195 H 19.8232 -0.815859 1.48801 0
M  V30 196 H 18.5952 -2.16574 3.25901 0
M  V30 197 H 18.2182 -3.39737 2.06554 0
M  V30 198 N 19.2153 -1.21501 -1.00376 0
M  V30 199 C 20.1253 -0.991447 -2.12621 0
M  V30 200 C 21.1413 0.0568446 -1.73907 0
M  V30 201 O 22.3173 -0.13348 -2.00957 0
M  V30 202 C 19.3823 -0.560312 -3.42142 0
M  V30 203 C 18.4433 -1.68096 -3.95022 0
M  V30 204 C 17.6763 -1.2703 -5.18362 0
M  V30 205 O 17.8993 -0.144438 -5.70217 0
M  V30 206 O 16.8333 -2.08269 -5.64719 0
M  V30 207 H 20.6593 -1.93158 -2.34358 0
M  V30 208 H 18.2443 -0.999999 -1.10997 0
M  V30 209 H 20.1263 -0.329724 -4.20108 0
M  V30 210 H 18.8013 0.351089 -3.2179 0
M  V30 211 H 17.7083 -1.96597 -3.18278 0
M  V30 212 H 19.0413 -2.56983 -4.19786 0
M  V30 213 N 20.6934 1.19889 -1.02296 0
M  V30 214 C 21.6564 2.21116 -0.603351 0
M  V30 215 C 22.6564 1.5738 0.329884 0
M  V30 216 O 23.8464 1.73802 0.117702 0
M  V30 217 C 20.9784 3.40696 0.117992 0
M  V30 218 H 22.1714 2.59754 -1.49893 0
M  V30 219 H 19.7244 1.33463 -0.813468 0
M  V30 220 H 20.4594 3.07569 1.0282 0
M  V30 221 H 20.2444 3.88188 -0.552511 0
M  V30 222 H 21.7344 4.15692 0.398696 0
M  V30 223 N 22.1715 0.800033 1.35784 0
M  V30 224 C 23.4175 0.377901 1.99248 0
M  V30 225 C 23.7505 -1.05052 1.63333 0
M  V30 226 O 23.0255 -1.72768 0.893385 0
M  V30 227 C 23.3085 0.553922 3.55814 0
M  V30 228 C 23.1615 2.0268 4.01548 0
M  V30 229 C 24.4805 -0.0244802 4.40093 0
M  V30 230 H 21.5995 0.138782 0.723815 0
M  V30 231 H 24.2415 1.00835 1.61035 0
M  V30 232 H 22.3915 0.0172398 3.88496 0
M  V30 233 H 24.0635 2.62536 3.79305 0
M  V30 234 H 22.3065 2.5256 3.52698 0
M  V30 235 H 22.9775 2.10087 5.10458 0
M  V30 236 H 25.4535 0.433775 4.13833 0
M  V30 237 H 24.3295 0.128637 5.48749 0
M  V30 238 H 24.5905 -1.11758 4.27741 0
M  V30 239 N 23.6496 -1.47581 0.552962 0
M  V30 240 C 24.9266 -1.95563 -0.0381515 0
M  V30 241 C 25.3066 -1.49552 -1.48988 0
M  V30 242 O 24.6546 -0.732414 -2.16444 0
M  V30 243 C 24.8646 -3.48848 0.102919 0
M  V30 244 C 26.2126 -4.24577 -0.0446082 0
M  V30 245 O 27.2366 -3.56187 0.0302548 0
M  V30 246 O 26.0956 -5.46116 -0.204923 0
M  V30 247 H 23.1896 -0.824321 -0.0665067 0
M  V30 248 H 25.7356 -1.58001 0.619186 0
M  V30 249 H 24.5076 -3.75129 1.11328 0
M  V30 250 H 24.1306 -3.93165 -0.592224 0
M  V30 251 N 25.1277 -0.289203 -1.54924 0
M  V30 252 C 26.0747 0.592115 -2.23075 0
M  V30 253 C 27.0447 1.13881 -1.20915 0
M  V30 254 O 28.2297 1.18551 -1.495 0
M  V30 255 C 25.3697 1.76376 -2.96623 0
M  V30 256 C 24.4827 1.24959 -4.13533 0
M  V30 257 C 23.6177 2.38416 -4.74691 0
M  V30 258 C 22.6567 1.84072 -5.83767 0
M  V30 259 N 21.7937 2.91057 -6.38929 0
M  V30 260 H 26.6337 0.00432038 -2.98 0
M  V30 261 H 24.1707 -0.00963529 -1.47097 0
M  V30 262 H 26.1287 2.45268 -3.3749 0
M  V30 263 H 24.7587 2.32337 -2.24097 0
M  V30 264 H 23.8107 0.453307 -3.77689 0
M  V30 265 H 25.1227 0.811662 -4.92152 0
M  V30 266 H 24.2767 3.15276 -5.18349 0
M  V30 267 H 23.0157 2.8553 -3.95378 0
M  V30 268 H 22.0207 1.05697 -5.39545 0
M  V30 269 H 23.2457 1.37877 -6.64956 0
M  V30 270 H 21.1917 3.37526 -5.62505 0
M  V30 271 H 21.1087 2.51724 -7.12861 0
M  V30 272 H 22.3767 3.6785 -6.87246 0
M  V30 273 N 26.6058 1.57591 -0.0167156 0
M  V30 274 C 27.5538 2.10604 0.987353 0
M  V30 275 C 28.5478 1.02977 1.34507 0
M  V30 276 O 29.7538 1.21425 1.32875 0
M  V30 277 H 26.1288 0.672695 0.336134 0
M  V30 278 H 28.0998 2.93925 0.514817 0
M  V30 279 C 26.8488 2.6382 2.26483 0
M  V30 280 H 26.1718 3.46278 1.99829 0
M  V30 281 H 27.6118 3.04573 2.94977 0
M  V30 282 C 26.0708 1.55992 2.9861 0
M  V30 283 O 26.6008 0.952521 3.90243 0
M  V30 284 N 24.8068 1.28335 2.60727 0
M  V30 285 H 24.3538 1.77914 1.86291 0
M  V30 286 H 24.3118 0.564115 3.09298 0
M  V30 287 N 28.0839 -0.256276 1.55502 0
M  V30 288 C 29.3329 -0.983486 1.76098 0
M  V30 289 C 29.6459 -1.86837 0.578896 0
M  V30 290 O 30.8519 -2.63163 0.667648 0
M  V30 291 C 29.3079 -1.79868 3.1173 0
M  V30 292 C 28.9159 -0.961648 4.37557 0
M  V30 293 C 30.6599 -2.51919 3.41668 0
M  V30 294 C 28.5669 -1.77219 5.64223 0
M  V30 295 H 27.4969 -0.370936 0.656447 0
M  V30 296 H 30.1479 -0.238492 1.81944 0
M  V30 297 H 28.5299 -2.58527 2.99966 0
M  V30 298 H 29.7039 -0.218048 4.60284 0
M  V30 299 H 28.0189 -0.354913 4.14885 0
M  V30 300 H 30.6159 -3.12998 4.33516 0
M  V30 301 H 30.9589 -3.23059 2.62562 0
M  V30 302 H 31.4919 -1.80278 3.54605 0
M  V30 303 H 28.2309 -1.10471 6.46124 0
M  V30 304 H 27.7509 -2.49132 5.45613 0
M  V30 305 H 29.4299 -2.34169 6.03137 0
M  V30 306 N 29.562 -1.4872 -0.521534 0
M  V30 307 C 30.809 -1.57168 -1.27689 0
M  V30 308 C 31.137 -0.249275 -1.92896 0
M  V30 309 O 30.392 0.761162 -1.80291 0
M  V30 310 C 30.691 -2.66497 -2.38148 0
M  V30 311 C 30.357 -4.08664 -1.90538 0
M  V30 312 C 29.019 -4.47357 -1.77271 0
M  V30 313 C 31.371 -4.97724 -1.54663 0
M  V30 314 C 28.699 -5.72905 -1.26478 0
M  V30 315 C 31.051 -6.2377 -1.05329 0
M  V30 316 C 29.715 -6.61311 -0.906861 0
M  V30 317 H 28.985 -0.575117 -0.467249 0
M  V30 318 H 31.632 -1.82472 -0.581051 0
M  V30 319 H 29.937 -2.35085 -3.13437 0
M  V30 320 H 31.634 -2.70246 -2.96257 0
M  V30 321 H 28.224 -3.78111 -2.01816 0
M  V30 322 H 32.408 -4.68501 -1.63768 0
M  V30 323 H 27.664 -6.00709 -1.13835 0
M  V30 324 H 31.838 -6.9217 -0.76644 0
M  V30 325 H 29.465 -7.5848 -0.511083 0
M  V30 326 N 31.0401 0.771051 -1.3745 0
M  V30 327 C 32.4561 1.07171 -1.18265 0
M  V30 328 C 32.6561 2.01491 -0.019287 0
M  V30 329 O 31.7121 2.44244 0.640408 0
M  V30 330 C 33.0251 1.66854 -2.50161 0
M  V30 331 C 34.5731 1.79109 -2.56689 0
M  V30 332 C 35.0481 2.42205 -3.88717 0
M  V30 333 N 36.5391 2.49655 -3.90162 0
M  V30 334 C 37.2741 2.9933 -4.8907 0
M  V30 335 N 36.7701 3.49172 -5.98374 0
M  V30 336 N 38.5631 2.9821 -4.76474 0
M  V30 337 H 30.7141 0.144796 -2.11906 0
M  V30 338 H 32.9771 0.126863 -0.939473 0
M  V30 339 H 32.6831 1.05017 -3.35655 0
M  V30 340 H 32.5571 2.6614 -2.673 0
M  V30 341 H 34.9441 2.40077 -1.71601 0
M  V30 342 H 35.0251 0.785757 -2.43433 0
M  V30 343 H 34.6691 1.81875 -4.74219 0
M  V30 344 H 34.5991 3.43345 -3.99276 0
M  V30 345 H 37.0901 2.14383 -3.11205 0
M  V30 346 H 37.4031 3.8548 -6.69795 0
M  V30 347 H 35.7481 3.47275 -6.02018 0
M  V30 348 H 38.9391 2.58572 -3.90203 0
M  V30 349 H 39.1121 3.36613 -5.53711 0
M  V30 350 N 32.5182 1.22032 0.997298 0
M  V30 351 C 33.7952 0.950823 1.70935 0
M  V30 352 C 34.1752 -0.535292 2.042 0
M  V30 353 O 33.5232 -1.50217 1.72183 0
M  V30 354 C 33.7332 1.84386 2.96315 0
M  V30 355 C 35.0812 2.09732 3.69185 0
M  V30 356 O 36.1052 1.81798 3.06314 0
M  V30 357 O 34.9642 2.57018 4.82291 0
M  V30 358 H 32.0582 0.357204 0.745878 0
M  V30 359 H 34.6042 1.32997 1.05404 0
M  V30 360 H 33.3762 2.84928 2.68201 0
M  V30 361 H 32.9992 1.46602 3.69586 0
M  V30 362 N 33.9963 -1.19345 1.0293 0
M  V30 363 C 35.2363 -1.90738 0.734727 0
M  V30 364 C 35.6003 -1.7785 -0.723414 0
M  V30 365 O 36.8013 -2.43844 -1.13108 0
M  V30 366 C 35.0723 -3.37569 1.17396 0
M  V30 367 S 36.6313 -4.27176 1.00329 0
M  V30 368 H 33.4493 -0.658771 0.267474 0
M  V30 369 H 36.0513 -1.4428 1.31922 0
M  V30 370 H 34.7553 -3.44475 2.23081 0
M  V30 371 H 34.2863 -3.8906 0.582772 0
M  V30 372 H 36.3013 -4.96126 -0.0859152 0
M  V30 373 N 35.4744 -0.807222 -1.35358 0
M  V30 374 C 36.4224 -0.20614 -2.31685 0
M  V30 375 C 37.4164 0.644445 -1.56663 0
M  V30 376 O 38.6224 0.537538 -1.71786 0
M  V30 377 H 34.9974 -0.0479006 -0.750473 0
M  V30 378 H 36.9684 -1.03369 -2.79924 0
M  V30 379 C 35.7174 0.630212 -3.41941 0
M  V30 380 H 35.0404 -0.0149558 -3.99797 0
M  V30 381 H 36.4804 1.01716 -4.11619 0
M  V30 382 C 34.9394 1.79601 -2.85035 0
M  V30 383 O 35.4694 2.89351 -2.78637 0
M  V30 384 N 33.6754 1.60774 -2.42074 0
M  V30 385 H 33.2224 0.715009 -2.47478 0
M  V30 386 H 33.1804 2.38933 -2.04349 0
M  V30 387 N 36.9525 1.47285 -0.560781 0
M  V30 388 C 37.8995 2.30058 0.18491 0
M  V30 389 C 38.8695 1.39281 0.904986 0
M  V30 390 O 40.0545 1.68241 0.899979 0
M  V30 391 C 37.1945 3.23317 1.20666 0
M  V30 392 C 36.3075 4.29186 0.492285 0
M  V30 393 C 35.4425 5.09592 1.49964 0
M  V30 394 C 34.4815 6.07232 0.770439 0
M  V30 395 N 33.6185 6.80584 1.72479 0
M  V30 396 H 38.4585 2.93302 -0.527048 0
M  V30 397 H 35.9955 1.44568 -0.271738 0
M  V30 398 H 37.9535 3.75811 1.81168 0
M  V30 399 H 36.5835 2.61929 1.88661 0
M  V30 400 H 35.6355 3.7972 -0.227333 0
M  V30 401 H 36.9475 4.98738 -0.0787929 0
M  V30 402 H 36.1015 5.66254 2.17809 0
M  V30 403 H 34.8405 4.3995 2.10464 0
M  V30 404 H 33.8455 5.49745 0.0780846 0
M  V30 405 H 35.0705 6.78884 0.171134 0
M  V30 406 H 33.0165 6.1367 2.3183 0
M  V30 407 H 32.9335 7.46319 1.20596 0
M  V30 408 H 34.2015 7.41818 2.39428 0
M  V30 409 N 38.4306 0.297415 1.54768 0
M  V30 410 C 39.6796 -0.313669 1.99246 0
M  V30 411 C 39.9926 -1.55281 1.18942 0
M  V30 412 O 41.1986 -2.23825 1.5367 0
M  V30 413 C 39.6546 -0.609407 3.54703 0
M  V30 414 C 39.2626 0.611192 4.43811 0
M  V30 415 C 41.0066 -1.18188 4.07715 0
M  V30 416 C 38.9136 0.288805 5.90694 0
M  V30 417 H 37.8436 -0.120979 0.744231 0
M  V30 418 H 40.4946 0.40556 1.78962 0
M  V30 419 H 38.8766 -1.38813 3.70873 0
M  V30 420 H 40.0506 1.3875 4.39414 0
M  V30 421 H 38.3656 1.10205 4.01552 0
M  V30 422 H 40.9626 -1.43727 5.15021 0
M  V30 423 H 41.3056 -2.12299 3.58099 0
M  V30 424 H 41.8386 -0.464944 3.95074 0
M  V30 425 H 38.5776 1.19838 6.44453 0
M  V30 426 H 38.0976 -0.450305 5.98107 0
M  V30 427 H 39.7766 -0.110933 6.46905 0
M  V30 428 N 39.9087 -1.5758 0.0250728 0
M  V30 429 C 40.8717 -2.08896 -0.943139 0
M  V30 430 C 41.8717 -1.00321 -1.25668 0
M  V30 431 O 43.0617 -1.26495 -1.19769 0
M  V30 432 C 40.1937 -2.55143 -2.26086 0
M  V30 433 H 41.3867 -2.95723 -0.498775 0
M  V30 434 H 38.9397 -1.54703 -0.222888 0
M  V30 435 H 39.6747 -1.71633 -2.75159 0
M  V30 436 H 39.4597 -3.34461 -2.04641 0
M  V30 437 H 40.9497 -2.95083 -2.95492 0
M  V30 438 N 41.3868 0.248026 -1.55636 0
M  V30 439 C 42.6338 0.976224 -1.77415 0
M  V30 440 C 42.9618 1.85361 -0.589193 0
M  V30 441 O 42.2168 1.90973 0.427529 0
M  V30 442 C 42.5158 1.86819 -3.04686 0
M  V30 443 C 42.1818 1.14625 -4.36087 0
M  V30 444 C 40.8438 0.946723 -4.71795 0
M  V30 445 C 43.1958 0.634463 -5.17324 0
M  V30 446 C 40.5238 0.223091 -5.86276 0
M  V30 447 C 42.8758 -0.0756959 -6.32555 0
M  V30 448 C 41.5398 -0.286711 -6.66884 0
M  V30 449 H 40.8098 0.357226 -0.649208 0
M  V30 450 H 43.4568 0.246415 -1.89908 0
M  V30 451 H 41.7618 2.66502 -2.872 0
M  V30 452 H 43.4588 2.43329 -3.18735 0
M  V30 453 H 40.0488 1.3117 -4.08035 0
M  V30 454 H 44.2328 0.77616 -4.90193 0
M  V30 455 H 39.4888 0.0491185 -6.1138 0
M  V30 456 H 43.6628 -0.479899 -6.94745 0
M  V30 457 H 41.2898 -0.849389 -7.5544 0
M  V30 458 N 42.8649 1.48995 0.513639 0
M  V30 459 C 44.0949 1.61297 1.291 0
M  V30 460 C 44.5029 0.278656 1.87137 0
M  V30 461 O 43.8459 -0.744325 1.67945 0
M  V30 462 C 43.9079 2.61326 2.46879 0
M  V30 463 C 43.5719 4.05993 2.09807 0
M  V30 464 C 44.5689 4.93183 1.64519 0
M  V30 465 C 42.2539 4.51642 2.19829 0
M  V30 466 C 44.2479 6.24056 1.2974 0
M  V30 467 C 41.9349 5.82532 1.84662 0
M  V30 468 C 42.9329 6.68562 1.3969 0
M  V30 469 O 42.6209 7.97014 1.04992 0
M  V30 470 H 42.3529 0.546236 0.39825 0
M  V30 471 H 44.9069 1.95673 0.62459 0
M  V30 472 H 43.1369 2.22104 3.16554 0
M  V30 473 H 44.8259 2.6329 3.08923 0
M  V30 474 H 45.5919 4.59147 1.56233 0
M  V30 475 H 41.4709 3.84855 2.53786 0
M  V30 476 H 45.0149 6.91161 0.945659 0
M  V30 477 H 40.9119 6.16099 1.92594 0
M  V30 478 H 41.6799 8.09913 1.18249 0
M  V30 479 N 44.343 -0.763751 1.37857 0
M  V30 480 C 45.759 -1.06542 1.18832 0
M  V30 481 C 45.959 -2.01478 0.0299722 0
M  V30 482 O 45.015 -2.4458 -0.627447 0
M  V30 483 C 46.328 -1.65525 2.51042 0
M  V30 484 C 47.876 -1.77745 2.57635 0
M  V30 485 C 48.351 -2.4014 3.89996 0
M  V30 486 N 49.842 -2.47582 3.91481 0
M  V30 487 C 50.577 -2.96732 4.9065 0
M  V30 488 N 50.073 -3.45993 6.00217 0
M  V30 489 N 51.866 -2.95679 4.78048 0
M  V30 490 H 44.017 -0.133556 2.1198 0
M  V30 491 H 46.28 -0.121879 0.940133 0
M  V30 492 H 45.986 -1.03236 3.36207 0
M  V30 493 H 45.86 -2.64719 2.68707 0
M  V30 494 H 48.247 -2.39164 1.72872 0
M  V30 495 H 48.328 -0.772836 2.43846 0
M  V30 496 H 47.972 -1.79358 4.75177 0
M  V30 497 H 47.902 -3.41223 4.01092 0
M  V30 498 H 50.393 -2.1273 3.12337 0
M  V30 499 H 50.706 -3.81922 6.7183 0
M  V30 500 H 49.051 -3.44077 6.03851 0
M  V30 501 H 52.242 -2.56499 3.91568 0
M  V30 502 H 52.415 -3.33672 5.55488 0
M  V30 503 N 45.8211 -1.22559 -0.990812 0
M  V30 504 C 47.2371 -0.985996 -1.255 0
M  V30 505 C 47.4371 0.319173 -1.98956 0
M  V30 506 O 46.4931 1.04127 -2.3003 0
M  V30 507 C 47.8061 -2.18607 -2.06474 0
M  V30 508 C 49.3541 -2.22985 -2.19651 0
M  V30 509 C 49.8291 -3.4255 -3.04012 0
M  V30 510 N 51.3201 -3.42725 -3.11599 0
M  V30 511 C 52.0551 -4.31892 -3.7717 0
M  V30 512 N 51.5511 -5.31279 -4.44651 0
M  V30 513 N 53.3441 -4.19662 -3.73952 0
M  V30 514 H 45.4951 -2.06469 -0.49841 0
M  V30 515 H 47.7581 -0.904853 -0.282747 0
M  V30 516 H 47.4641 -3.13267 -1.59865 0
M  V30 517 H 47.3381 -2.18838 -3.07229 0
M  V30 518 H 49.7251 -1.28871 -2.65474 0
M  V30 519 H 49.8061 -2.26791 -1.18319 0
M  V30 520 H 49.4501 -4.36965 -2.58889 0
M  V30 521 H 49.3801 -3.35984 -4.0549 0
M  V30 522 H 51.8711 -2.70807 -2.63575 0
M  V30 523 H 52.1841 -5.95593 -4.92431 0
M  V30 524 H 50.5291 -5.3519 -4.43392 0
M  V30 525 H 53.7201 -3.41268 -3.20396 0
M  V30 526 H 53.8931 -4.89358 -4.24774 0
M  V30 527 N 47.2992 1.18797 -1.03562 0
M  V30 528 C 48.2312 2.21731 -0.580337 0
M  V30 529 C 49.2442 1.59051 0.347349 0
M  V30 530 O 50.4332 1.77929 0.142669 0
M  V30 531 C 47.5332 3.38459 0.172805 0
M  V30 532 C 46.7062 4.3072 -0.761496 0
M  V30 533 C 45.7652 5.26174 -0.0525547 0
M  V30 534 O 44.7912 5.65108 -0.681333 0
M  V30 535 N 45.9932 5.67624 1.21586 0
M  V30 536 H 48.7582 2.61417 -1.46565 0
M  V30 537 H 46.3192 1.33531 -0.915476 0
M  V30 538 H 48.3112 3.99335 0.656793 0
M  V30 539 H 46.8812 2.97507 0.959602 0
M  V30 540 H 46.1012 3.67525 -1.42544 0
M  V30 541 H 47.3892 4.89267 -1.39626 0
M  V30 542 H 46.7872 5.38038 1.74732 0
M  V30 543 H 45.3442 6.30721 1.64421 0
M  V30 544 N 48.7773 0.814389 1.34928 0
M  V30 545 C 49.7243 0.22822 2.29669 0
M  V30 546 C 50.6943 -0.642164 1.53184 0
M  V30 547 O 51.8793 -0.585605 1.81591 0
M  V30 548 C 49.0193 -0.61089 3.3965 0
M  V30 549 C 48.1323 0.280792 4.31086 0
M  V30 550 C 47.2673 -0.567067 5.28165 0
M  V30 551 C 46.3063 0.324531 6.11239 0
M  V30 552 N 45.4433 -0.483756 7.00431 0
M  V30 553 H 50.2833 1.04153 2.79206 0
M  V30 554 H 47.8203 0.525133 1.37407 0
M  V30 555 H 49.7783 -1.11263 4.0209 0
M  V30 556 H 48.4083 -1.38939 2.91369 0
M  V30 557 H 47.4603 0.900688 3.69583 0
M  V30 558 H 48.7723 0.966723 4.89342 0
M  V30 559 H 47.9263 -1.13363 5.96015 0
M  V30 560 H 46.6653 -1.28654 4.70425 0
M  V30 561 H 45.6703 0.903298 5.42329 0
M  V30 562 H 46.8953 1.04198 6.71059 0
M  V30 563 H 44.8413 -1.18706 6.45171 0
M  V30 564 H 44.7583 0.143965 7.55863 0
M  V30 565 H 46.0263 -1.03334 7.7262 0
M  V30 566 N 50.2554 -1.46986 0.568584 0
M  V30 567 C 51.1874 -2.28233 -0.210337 0
M  V30 568 C 52.2004 -1.37682 -0.868767 0
M  V30 569 O 53.3894 -1.62406 -0.740705 0
M  V30 570 C 50.4894 -3.12293 -1.3163 0
M  V30 571 C 49.6624 -4.30878 -0.7525 0
M  V30 572 C 48.7214 -4.96445 -1.74439 0
M  V30 573 O 47.7474 -5.54482 -1.286 0
M  V30 574 N 48.9494 -4.92171 -3.07812 0
M  V30 575 H 51.7144 -2.95723 0.486648 0
M  V30 576 H 49.2754 -1.56742 0.405409 0
M  V30 577 H 51.2674 -3.53022 -1.97883 0
M  V30 578 H 49.8374 -2.46971 -1.91636 0
M  V30 579 H 49.0574 -3.94104 0.0871128 0
M  V30 580 H 50.3454 -5.07558 -0.35536 0
M  V30 581 H 49.7434 -4.46239 -3.47688 0
M  V30 582 H 48.3004 -5.36884 -3.69592 0
M  V30 583 N 51.7335 -0.305618 -1.54608 0
M  V30 584 C 52.9795 0.295595 -2.01241 0
M  V30 585 C 53.3345 1.51171 -1.19018 0
M  V30 586 O 52.6275 1.89832 -0.259684 0
M  V30 587 C 52.8215 0.698983 -3.50498 0
M  V30 588 C 52.6505 -0.476491 -4.47168 0
M  V30 589 C 51.4205 -0.969963 -4.95903 0
M  V30 590 C 53.6185 -1.32294 -4.96994 0
M  V30 591 N 51.6005 -2.11172 -5.76437 0
M  V30 592 C 52.9715 -2.31212 -5.75275 0
M  V30 593 C 55.0265 -1.35278 -4.7917 0
M  V30 594 C 53.7295 -3.32896 -6.37631 0
M  V30 595 C 55.7555 -2.35823 -5.42348 0
M  V30 596 C 55.1175 -3.33469 -6.20466 0
M  V30 597 H 51.2165 0.0724992 -0.778632 0
M  V30 598 H 53.8005 -0.436583 -1.89742 0
M  V30 599 H 51.9715 1.40032 -3.62278 0
M  V30 600 H 53.7035 1.28013 -3.8392 0
M  V30 601 H 50.4585 -0.544178 -4.70463 0
M  V30 602 H 50.8825 -2.68714 -6.21387 0
M  V30 603 H 55.5245 -0.61157 -4.18354 0
M  V30 604 H 53.2425 -4.07933 -6.97579 0
M  V30 605 H 56.8285 -2.38911 -5.30484 0
M  V30 606 H 55.7085 -4.09996 -6.68485 0
M  V30 607 N 53.2116 1.57565 -0.0334293 0
M  V30 608 C 54.1416 2.13511 0.945265 0
M  V30 609 C 55.1226 1.05231 1.33643 0
M  V30 610 O 56.3076 1.33084 1.41429 0
M  V30 611 C 53.4376 2.6657 2.22616 0
M  V30 612 C 52.3916 3.79676 1.97561 0
M  V30 613 C 51.7176 4.1918 3.31952 0
M  V30 614 C 53.0176 5.0557 1.31135 0
M  V30 615 H 54.7116 2.95538 0.479325 0
M  V30 616 H 52.2576 1.42166 0.229115 0
M  V30 617 H 54.2106 3.04344 2.91466 0
M  V30 618 H 52.9346 1.8171 2.71384 0
M  V30 619 H 51.5936 3.42347 1.31127 0
M  V30 620 H 51.2416 3.31296 3.78487 0
M  V30 621 H 50.9416 4.95402 3.15992 0
M  V30 622 H 52.4656 4.59541 4.02063 0
M  V30 623 H 53.8796 5.40903 1.89992 0
M  V30 624 H 52.2766 5.86818 1.25559 0
M  V30 625 H 53.3466 4.84062 0.284894 0
M  V30 626 N 54.6897 -0.239769 1.55765 0
M  V30 627 C 55.9147 -0.988373 1.82335 0
M  V30 628 C 56.3397 -1.77886 0.611421 0
M  V30 629 O 55.6977 -1.75889 -0.439639 0
M  V30 630 C 55.7457 -1.89627 3.06715 0
M  V30 631 O 54.8497 -2.98904 2.84131 0
M  V30 632 H 54.1907 -0.280858 0.601677 0
M  V30 633 H 56.7207 -0.258597 2.02959 0
M  V30 634 H 56.7307 -2.30957 3.36338 0
M  V30 635 H 55.4057 -1.31511 3.9456 0
M  V30 636 H 53.9827 -2.61651 2.65694 0
M  V30 637 N 56.1678 -1.49265 -0.50573 0
M  V30 638 C 57.1148 -1.65585 -1.6078 0
M  V30 639 C 58.0848 -0.497396 -1.58478 0
M  V30 640 O 59.2698 -0.72385 -1.76536 0
M  V30 641 C 56.4098 -1.72408 -2.98948 0
M  V30 642 C 55.5228 -2.99525 -3.11301 0
M  V30 643 C 54.6578 -2.97356 -4.40174 0
M  V30 644 C 53.6968 -4.19074 -4.46143 0
M  V30 645 N 52.8338 -4.14841 -5.66437 0
M  V30 646 H 57.6738 -2.59688 -1.46172 0
M  V30 647 H 55.2108 -1.28761 -0.711261 0
M  V30 648 H 57.1688 -1.74344 -3.79025 0
M  V30 649 H 55.7988 -0.817753 -3.1227 0
M  V30 650 H 54.8508 -3.07222 -2.24318 0
M  V30 651 H 56.1628 -3.89518 -3.11572 0
M  V30 652 H 55.3168 -2.97829 -5.28567 0
M  V30 653 H 54.0558 -2.05133 -4.42461 0
M  V30 654 H 53.0608 -4.1885 -3.56153 0
M  V30 655 H 54.2858 -5.12483 -4.45575 0
M  V30 656 H 52.2318 -3.25453 -5.69575 0
M  V30 657 H 52.1488 -4.98564 -5.68304 0
M  V30 658 H 53.4168 -4.1941 -6.57051 0
M  V30 659 N 57.6459 0.756429 -1.3826 0
M  V30 660 C 58.5929 1.87011 -1.35261 0
M  V30 661 C 59.5629 1.64695 -0.215616 0
M  V30 662 O 60.7479 1.864 -0.407399 0
M  V30 663 C 57.8879 3.24275 -1.18068 0
M  V30 664 C 57.0009 3.58442 -2.41129 0
M  V30 665 C 56.1359 4.84994 -2.16689 0
M  V30 666 C 55.1749 5.11939 -3.35537 0
M  V30 667 N 54.3119 6.29685 -3.10549 0
M  V30 668 H 59.1519 1.8891 -2.30472 0
M  V30 669 H 56.6889 0.923373 -1.14509 0
M  V30 670 H 58.6469 4.03479 -1.06116 0
M  V30 671 H 57.2769 3.21711 -0.264973 0
M  V30 672 H 56.3289 2.74103 -2.63764 0
M  V30 673 H 57.6409 3.74283 -3.29717 0
M  V30 674 H 56.7949 5.72135 -2.01857 0
M  V30 675 H 55.5339 4.71286 -1.25462 0
M  V30 676 H 54.5389 4.23268 -3.50891 0
M  V30 677 H 55.7639 5.27546 -4.27635 0
M  V30 678 H 53.7099 6.17306 -2.21967 0
M  V30 679 H 53.6269 6.46014 -3.92686 0
M  V30 680 H 54.8949 7.19722 -2.99367 0
M  V30 681 N 59.124 1.23083 0.984299 0
M  V30 682 C 60.349 1.088 1.76571 0
M  V30 683 C 60.774 -0.356657 1.84688 0
M  V30 684 O 60.132 -1.25788 1.30565 0
M  V30 685 C 60.18 1.71371 3.17277 0
M  V30 686 O 59.284 0.973213 4.00752 0
M  V30 687 H 58.625 0.381599 0.543395 0
M  V30 688 H 61.155 1.63057 1.23587 0
M  V30 689 H 61.165 1.76449 3.67872 0
M  V30 690 H 59.84 2.76493 3.10684 0
M  V30 691 H 58.417 0.999078 3.59267 0
M  V30 692 N 60.6021 -1.18246 1.0419 0
M  V30 693 C 61.8301 -1.92195 0.766072 0
M  V30 694 C 62.2451 -1.76247 -0.676933 0
M  V30 695 O 61.6021 -1.09293 -1.46155 0
M  V30 696 C 61.6531 -3.43568 1.12442 0
M  V30 697 O 61.3741 -3.59015 2.51078 0
M  V30 698 C 62.8751 -4.34613 0.873275 0
M  V30 699 H 60.0951 -0.610114 0.279288 0
M  V30 700 H 62.6391 -1.50007 1.38989 0
M  V30 701 H 60.7941 -3.8354 0.545542 0
M  V30 702 H 61.2081 -4.5273 2.64831 0
M  V30 703 H 62.6821 -5.39374 1.17385 0
M  V30 704 H 63.1591 -4.38781 -0.191909 0
M  V30 705 H 63.7651 -4.00341 1.43551 0
M  V30 706 N 62.0802 -0.821533 -1.34494 0
M  V30 707 C 63.3102 -0.421272 -2.02259 0
M  V30 708 C 63.7182 0.977047 -1.6202 0
M  V30 709 O 63.0612 1.64348 -0.820703 0
M  V30 710 C 63.1232 -0.44231 -3.56769 0
M  V30 711 C 62.7872 -1.79372 -4.20327 0
M  V30 712 C 63.7842 -2.75435 -4.40944 0
M  V30 713 C 61.4692 -2.08182 -4.57127 0
M  V30 714 C 63.4632 -3.98482 -4.97484 0
M  V30 715 C 61.1502 -3.31489 -5.13379 0
M  V30 716 C 62.1482 -4.26457 -5.33501 0
M  V30 717 O 61.8362 -5.47585 -5.88562 0
M  V30 718 H 61.5682 -0.167473 -0.654927 0
M  V30 719 H 64.1222 -1.11073 -1.72777 0
M  V30 720 H 62.3522 0.303836 -3.85505 0
M  V30 721 H 64.0412 -0.0622925 -4.05852 0
M  V30 722 H 64.8072 -2.54473 -4.12878 0
M  V30 723 H 60.6862 -1.35066 -4.4077 0
M  V30 724 H 64.2302 -4.72618 -5.13106 0
M  V30 725 H 60.1272 -3.52316 -5.40873 0
M  V30 726 H 60.8952 -5.49086 -6.06998 0
M  V30 727 N 63.5583 1.46682 -0.576371 0
M  V30 728 C 64.4903 2.28341 0.198231 0
M  V30 729 C 65.5033 1.38141 0.861453 0
M  V30 730 O 66.6923 1.62797 0.732082 0
M  V30 731 C 63.7923 3.12986 1.29972 0
M  V30 732 C 62.9653 4.31271 0.729639 0
M  V30 733 C 62.0243 4.97363 1.71803 0
M  V30 734 O 61.0503 5.55156 1.25658 0
M  V30 735 N 62.2523 4.93796 3.05198 0
M  V30 736 H 65.0173 2.9546 -0.502324 0
M  V30 737 H 62.5783 1.56525 -0.413715 0
M  V30 738 H 64.5703 3.54066 1.96008 0
M  V30 739 H 63.1403 2.47984 1.90323 0
M  V30 740 H 62.3603 3.94052 -0.108012 0
M  V30 741 H 63.6483 5.07739 0.328438 0
M  V30 742 H 63.0463 4.48077 3.45317 0
M  V30 743 H 61.6033 5.38837 3.6674 0
M  V30 744 N 65.0364 0.313813 1.54444 0
M  V30 745 C 65.9994 -0.54379 2.22656 0
M  V30 746 C 66.9994 -1.05124 1.21678 0
M  V30 747 O 68.1894 -0.945225 1.46325 0
M  V30 748 C 65.3214 -1.75427 2.92298 0
M  V30 749 H 66.5144 0.0523599 2.99854 0
M  V30 750 H 64.0674 0.0647834 1.56166 0
M  V30 751 H 64.8024 -2.38991 2.19211 0
M  V30 752 H 64.5874 -1.39791 3.66334 0
M  V30 753 H 66.0774 -2.36325 3.44297 0
M  V30 754 N 66.5145 -1.57545 0.0417849 0
M  V30 755 C 67.4445 -2.14009 -0.933929 0
M  V30 756 C 68.4255 -1.05938 -1.33083 0
M  V30 757 O 69.6105 -1.33833 -1.40721 0
M  V30 758 C 66.7405 -2.67747 -2.21199 0
M  V30 759 C 65.6945 -3.80718 -1.95544 0
M  V30 760 C 65.0205 -4.20935 -3.29724 0
M  V30 761 C 66.3205 -5.06258 -1.28452 0
M  V30 762 H 68.0145 -2.95788 -0.463645 0
M  V30 763 H 65.5605 -1.42285 -0.221573 0
M  V30 764 H 67.5135 -3.05886 -2.89848 0
M  V30 765 H 66.2375 -1.83147 -2.70416 0
M  V30 766 H 64.8965 -3.43037 -1.2931 0
M  V30 767 H 64.5445 -3.33298 -3.76724 0
M  V30 768 H 64.2445 -4.9707 -3.13361 0
M  V30 769 H 65.7685 -4.61666 -3.9962 0
M  V30 770 H 67.1825 -5.41903 -1.8712 0
M  V30 771 H 65.5795 -5.87475 -1.22445 0
M  V30 772 H 66.6495 -4.84207 -0.259219 0
M  V30 773 N 67.9926 0.231505 -1.5589 0
M  V30 774 C 68.9226 1.29022 -1.94617 0
M  V30 775 C 69.9036 1.4941 -0.813067 0
M  V30 776 O 71.0886 1.6176 -1.07459 0
M  V30 777 C 68.2186 2.64199 -2.25424 0
M  V30 778 C 67.1726 2.58484 -3.41131 0
M  V30 779 C 66.4986 3.97599 -3.57518 0
M  V30 780 C 67.7986 2.1413 -4.76388 0
M  V30 781 H 69.4926 0.968563 -2.83301 0
M  V30 782 H 67.0386 0.464479 -1.36303 0
M  V30 783 H 68.9916 3.38413 -2.51107 0
M  V30 784 H 67.7156 2.98032 -1.33583 0
M  V30 785 H 66.3746 1.86727 -3.15481 0
M  V30 786 H 66.0226 4.28723 -2.6307 0
M  V30 787 H 65.7226 3.94659 -4.35337 0
M  V30 788 H 67.2466 4.7349 -3.85538 0
M  V30 789 H 68.6606 2.78083 -5.01341 0
M  V30 790 H 67.0576 2.2227 -5.57419 0
M  V30 791 H 68.1276 1.09331 -4.72414 0
M  V30 792 N 69.4707 1.49531 0.497807 0
M  V30 793 C 70.7477 1.49682 1.25915 0
M  V30 794 C 71.1277 0.226339 2.09883 0
M  V30 795 O 70.4757 -0.791189 2.14365 0
M  V30 796 C 70.6857 2.77755 2.11313 0
M  V30 797 C 72.0337 3.27371 2.70395 0
M  V30 798 O 73.0577 2.78894 2.21578 0
M  V30 799 O 71.9167 4.11808 3.59272 0
M  V30 800 H 69.0107 0.599228 0.56996 0
M  V30 801 H 71.5567 1.61798 0.511816 0
M  V30 802 H 70.3287 3.61713 1.49264 0
M  V30 803 H 69.9517 2.68515 2.93233 0
M  V30 804 N 70.9488 -0.749086 1.3866 0
M  V30 805 C 72.1738 -1.54344 1.38538 0
M  V30 806 C 72.5988 -1.88088 -0.0216655 0
M  V30 807 O 71.9568 -1.50899 -1.00494 0
M  V30 808 C 72.0048 -2.8164 2.25192 0
M  V30 809 O 71.1088 -3.7698 1.67212 0
M  V30 810 H 70.4498 -0.466654 0.472367 0
M  V30 811 H 72.9798 -0.925355 1.82478 0
M  V30 812 H 72.9898 -3.30519 2.3921 0
M  V30 813 H 71.6648 -2.56411 3.27454 0
M  V30 814 H 70.2418 -3.35699 1.6236 0
M  V30 815 N 72.4269 -1.23603 -0.977757 0
M  V30 816 C 73.6729 -1.07129 -1.72195 0
M  V30 817 C 74.0059 0.390501 -1.90233 0
M  V30 818 O 73.2809 1.28902 -1.45653 0
M  V30 819 C 73.5639 -1.80031 -3.11867 0
M  V30 820 C 73.4169 -3.33899 -3.01383 0
M  V30 821 C 74.7359 -1.56492 -4.11337 0
M  V30 822 H 71.8549 -0.390571 -0.624999 0
M  V30 823 H 74.4969 -1.52142 -1.13811 0
M  V30 824 H 72.6469 -1.41768 -3.6171 0
M  V30 825 H 74.3189 -3.81699 -2.59043 0
M  V30 826 H 72.5619 -3.62796 -2.37827 0
M  V30 827 H 73.2329 -3.801 -4.00285 0
M  V30 828 H 75.7089 -1.89757 -3.70313 0
M  V30 829 H 74.5849 -2.09973 -5.07151 0
M  V30 830 H 74.8459 -0.500874 -4.39254 0
M  V30 831 N 73.905 1.17692 -1.04816 0
M  V30 832 C 75.133 1.91786 -0.776254 0
M  V30 833 C 75.548 1.76604 0.667577 0
M  V30 834 O 74.905 1.10067 1.45573 0
M  V30 835 C 74.956 3.42967 -1.14263 0
M  V30 836 O 74.677 3.57678 -2.52978 0
M  V30 837 C 76.178 4.34144 -0.896311 0
M  V30 838 H 73.398 0.608624 -0.282519 0
M  V30 839 H 75.942 1.49268 -1.39783 0
M  V30 840 H 74.097 3.83245 -0.565874 0
M  V30 841 H 74.511 4.51319 -2.67229 0
M  V30 842 H 75.985 5.38744 -1.20244 0
M  V30 843 H 76.462 4.38876 0.168636 0
M  V30 844 H 77.068 3.99574 -1.45672 0
M  V30 845 N 75.3831 0.828654 1.34056 0
M  V30 846 C 76.6111 0.43262 2.02326 0
M  V30 847 C 77.0261 -0.963147 1.62385 0
M  V30 848 O 76.3831 -1.62425 0.832121 0
M  V30 849 C 76.4341 0.53182 3.57567 0
M  V30 850 O 76.1551 1.87258 3.96063 0
M  V30 851 C 77.6561 0.131422 4.43105 0
M  V30 852 H 74.8761 0.172923 0.648335 0
M  V30 853 H 77.4201 1.1184 1.71208 0
M  V30 854 H 75.5751 -0.105938 3.87255 0
M  V30 855 H 75.9891 1.85087 4.90758 0
M  V30 856 H 77.4631 0.251904 5.51425 0
M  V30 857 H 77.9401 -0.925645 4.29335 0
M  V30 858 H 78.5461 0.743207 4.18756 0
M  V30 859 N 76.8612 -1.46375 0.584142 0
M  V30 860 C 78.1382 -1.956 0.0033388 0
M  V30 861 C 78.5182 -1.52679 -1.45782 0
M  V30 862 O 77.8662 -0.77816 -2.14842 0
M  V30 863 C 78.0762 -3.48551 0.176891 0
M  V30 864 C 79.4242 -4.24576 0.0454609 0
M  V30 865 O 80.4482 -3.56043 0.105801 0
M  V30 866 O 79.3072 -5.46427 -0.0890376 0
M  V30 867 H 76.4012 -0.825547 -0.0490066 0
M  V30 868 H 78.9472 -1.56652 0.65256 0
M  V30 869 H 77.7192 -3.72683 1.1926 0
M  V30 870 H 77.3422 -3.94332 -0.508695 0
M  V30 871 N 78.3393 -0.321999 -1.54275 0
M  V30 872 C 79.2493 0.553631 -2.27974 0
M  V30 873 C 80.2653 1.13054 -1.32268 0
M  V30 874 O 81.4413 1.15084 -1.6528 0
M  V30 875 C 78.5063 1.69927 -3.02201 0
M  V30 876 C 77.5673 1.15433 -4.1349 0
M  V30 877 C 76.8003 2.24537 -4.84168 0
M  V30 878 O 77.0233 3.44852 -4.5435 0
M  V30 879 O 75.9573 1.90044 -5.7111 0
M  V30 880 H 79.7833 -0.0448345 -3.03667 0
M  V30 881 H 77.3683 -0.0877418 -1.49142 0
M  V30 882 H 79.2503 2.3663 -3.48689 0
M  V30 883 H 77.9253 2.28395 -2.29385 0
M  V30 884 H 76.8323 0.452436 -3.71354 0
M  V30 885 H 78.1653 0.614805 -4.88345 0
M  V30 886 N 79.8174 1.5752 -0.0501392 0
M  V30 887 C 81.0944 1.83996 0.663685 0
M  V30 888 C 81.4744 0.938339 1.89099 0
M  V30 889 O 80.8224 -0.00087759 2.285 0
M  V30 890 C 81.0324 3.33702 1.02196 0
M  V30 891 C 82.3804 4.00691 1.40469 0
M  V30 892 O 83.4044 3.38321 1.11433 0
M  V30 893 O 82.2634 5.10658 1.94654 0
M  V30 894 H 79.3574 0.759385 0.32751 0
M  V30 895 H 81.9034 1.69514 -0.0794238 0
M  V30 896 H 80.6754 3.91015 0.149364 0
M  V30 897 H 80.2984 3.53368 1.82255 0
M  V30 898 N 81.2955 -0.223234 1.56011 0
M  V30 899 C 82.5205 -0.968978 1.83373 0
M  V30 900 C 82.9455 -1.77227 0.630254 0
M  V30 901 O 82.3035 -1.76345 -0.420959 0
M  V30 902 C 82.3515 -1.86363 3.08709 0
M  V30 903 O 81.4555 -2.95873 2.87285 0
M  V30 904 H 80.7965 -0.274461 0.604622 0
M  V30 905 H 83.3265 -0.237056 2.03222 0
M  V30 906 H 83.3365 -2.27376 3.38768 0
M  V30 907 H 82.0115 -1.27319 3.95933 0
M  V30 908 H 80.5885 -2.58818 2.68454 0
M  V30 909 N 82.7736 -1.49793 -0.48987 0
M  V30 910 C 84.0016 -1.63568 -1.26701 0
M  V30 911 C 84.4166 -0.311465 -1.86213 0
M  V30 912 O 83.7736 0.704416 -1.68357 0
M  V30 913 C 83.8246 -2.71284 -2.38929 0
M  V30 914 O 83.5456 -3.9857 -1.81861 0
M  V30 915 C 85.0466 -2.95864 -3.3012 0
M  V30 916 H 82.2666 -0.550342 -0.383881 0
M  V30 917 H 84.8106 -1.95898 -0.586864 0
M  V30 918 H 82.9656 -2.417 -3.02753 0
M  V30 919 H 83.3796 -4.57993 -2.55622 0
M  V30 920 H 84.8536 -3.74941 -4.05121 0
M  V30 921 H 85.3306 -2.06206 -3.87783 0
M  V30 922 H 85.9366 -3.26907 -2.72051 0
M  V30 923 N 84.2517 0.741722 -1.39055 0
M  V30 924 C 85.6677 1.04638 -1.20512 0
M  V30 925 C 85.8677 2.01405 -0.0620218 0
M  V30 926 O 84.9237 2.45547 0.588457 0
M  V30 927 C 86.2367 1.6151 -2.53643 0
M  V30 928 C 87.7847 1.73623 -2.6043 0
M  V30 929 C 88.2597 2.33906 -3.93767 0
M  V30 930 N 89.7507 2.41323 -3.9537 0
M  V30 931 C 90.4857 2.88888 -4.95309 0
M  V30 932 N 89.9817 3.36401 -6.05645 0
M  V30 933 N 91.7747 2.88037 -4.82692 0
M  V30 934 H 83.9257 0.0998155 -2.12165 0
M  V30 935 H 86.1887 0.106907 -0.941953 0
M  V30 936 H 85.8947 0.978739 -3.37807 0
M  V30 937 H 85.7687 2.60411 -2.72885 0
M  V30 938 H 88.1557 2.36384 -1.76655 0
M  V30 939 H 88.2367 0.733945 -2.45045 0
M  V30 940 H 87.8807 1.71776 -4.7797 0
M  V30 941 H 87.8107 3.34799 -4.06469 0
M  V30 942 H 90.3017 2.07734 -3.15682 0
M  V30 943 H 90.6147 3.71186 -6.77821 0
M  V30 944 H 88.9597 3.34427 -6.09248 0
M  V30 945 H 92.1507 2.50237 -3.95599 0
M  V30 946 H 92.3237 3.24792 -5.60726 0
M  V30 947 N 85.7298 1.2412 0.971189 0
M  V30 948 C 86.9768 1.07881 1.71371 0
M  V30 949 C 87.3048 -0.382901 1.90694 0
M  V30 950 O 86.5598 -1.29945 1.46331 0
M  V30 951 C 86.8588 1.75983 3.11071 0
M  V30 952 C 86.5248 3.25909 3.11599 0
M  V30 953 C 85.1868 3.66813 3.11451 0
M  V30 954 C 87.5388 4.21771 3.062 0
M  V30 955 C 84.8668 5.02021 3.03631 0
M  V30 956 C 87.2188 5.56982 2.99923 0
M  V30 957 C 85.8828 5.97237 2.98102 0
M  V30 958 H 85.1528 0.394764 0.62709 0
M  V30 959 H 87.7998 1.54176 1.13587 0
M  V30 960 H 86.1048 1.22072 3.72298 0
M  V30 961 H 87.8018 1.60887 3.6731 0
M  V30 962 H 84.3918 2.93353 3.12477 0
M  V30 963 H 88.5758 3.91172 3.05447 0
M  V30 964 H 83.8318 5.32411 3.0058 0
M  V30 965 H 88.0058 6.30969 2.94704 0
M  V30 966 H 85.6328 7.01967 2.91798 0
M  V30 967 N 87.2079 -1.17134 1.05439 0
M  V30 968 C 88.1399 -2.2078 0.615539 0
M  V30 969 C 89.1529 -1.59584 -0.322001 0
M  V30 970 O 90.3419 -1.78133 -0.114344 0
M  V30 971 C 87.4419 -3.38691 -0.118938 0
M  V30 972 C 86.6149 -4.29454 0.829924 0
M  V30 973 C 85.6739 -5.26024 0.136258 0
M  V30 974 O 84.6999 -5.63952 0.77115 0
M  V30 975 N 85.9019 -5.69487 -1.1254 0
M  V30 976 H 88.6669 -2.59052 1.50705 0
M  V30 977 H 86.2279 -1.32058 0.936603 0
M  V30 978 H 88.2199 -4.00329 -0.593179 0
M  V30 979 H 86.7899 -2.98996 -0.91215 0
M  V30 980 H 86.0099 -3.65211 1.48373 0
M  V30 981 H 87.2979 -4.86984 1.47392 0
M  V30 982 H 86.6959 -5.4075 -1.6615 0
M  V30 983 H 85.2529 -6.33257 -1.54366 0
M  V30 984 N 88.686 -0.835752 -1.33615 0
M  V30 985 C 89.935 -0.426289 -1.97144 0
M  V30 986 C 90.248 1.01912 -1.66953 0
M  V30 987 O 91.454 1.53311 -2.24072 0
M  V30 988 C 89.91 -0.711321 -3.52801 0
M  V30 989 C 89.518 -2.1712 -3.91871 0
M  V30 990 C 91.262 -0.368654 -4.22896 0
M  V30 991 C 89.169 -2.40044 -5.40493 0
M  V30 992 H 88.099 -0.15567 -0.737755 0
M  V30 993 H 90.75 -1.0239 -1.52278 0
M  V30 994 H 89.132 -0.0433766 -3.95976 0
M  V30 995 H 90.306 -2.87936 -3.59763 0
M  V30 996 H 88.621 -2.47654 -3.34749 0
M  V30 997 H 91.218 -0.517601 -5.32189 0
M  V30 998 H 91.561 0.688078 -4.10574 0
M  V30 999 H 92.094 -0.991702 -3.8524 0
M  V30 1000 H 88.833 -3.44271 -5.57815 0
M  V30 1001 H 88.353 -1.73785 -5.74072 0
M  V30 1002 H 90.032 -2.23042 -6.0734 0
M  V30 1003 N 90.1641 1.46063 -0.591896 0
M  V30 1004 C 91.4131 2.01547 -0.0786637 0
M  V30 1005 C 91.7261 1.46796 1.29268 0
M  V30 1006 O 92.9321 1.94157 1.89777 0
M  V30 1007 C 91.3881 3.59787 -0.0900024 0
M  V30 1008 C 90.9961 4.23534 -1.46023 0
M  V30 1009 C 92.7401 4.22895 0.368806 0
M  V30 1010 C 90.6471 5.73881 -1.4288 0
M  V30 1011 H 89.5771 0.753564 -0.0256388 0
M  V30 1012 H 92.2281 1.677 -0.744905 0
M  V30 1013 H 90.6101 3.90752 0.642586 0
M  V30 1014 H 91.7841 4.04167 -2.21328 0
M  V30 1015 H 90.0991 3.72558 -1.85982 0
M  V30 1016 H 92.6961 5.33116 0.411258 0
M  V30 1017 H 93.0391 3.9247 1.38827 0
M  V30 1018 H 93.5721 3.9659 -0.31001 0
M  V30 1019 H 90.3111 6.0898 -2.42536 0
M  V30 1020 H 89.8311 5.95486 -0.718095 0
M  V30 1021 H 91.5101 6.36776 -1.14565 0
M  V30 1022 N 91.6422 0.330177 1.54103 0
M  V30 1023 C 92.5902 -0.548226 2.26047 0
M  V30 1024 C 93.5842 -1.11309 1.27698 0
M  V30 1025 O 94.7902 -1.06036 1.45452 0
M  V30 1026 H 91.1652 -0.195456 0.726155 0
M  V30 1027 H 93.1362 0.0807567 2.98291 0
M  V30 1028 C 91.8852 -1.69415 3.03634 0
M  V30 1029 H 91.2082 -1.26876 3.79134 0
M  V30 1030 H 92.6482 -2.28423 3.5721 0
M  V30 1031 C 91.1072 -2.61569 2.12328 0
M  V30 1032 O 91.6372 -3.63462 1.7105 0
M  V30 1033 N 89.8432 -2.29952 1.77681 0
M  V30 1034 H 89.3902 -1.47134 2.11446 0
M  V30 1035 H 89.3482 -2.91871 1.16869 0
M  V30 1036 N 93.1203 -1.57491 0.0584922 0
M  V30 1037 C 94.0303 -2.15448 -0.928414 0
M  V30 1038 C 95.0463 -1.11416 -1.3365 0
M  V30 1039 O 96.2223 -1.4362 -1.41193 0
M  V30 1040 C 93.2873 -2.69393 -2.18239 0
M  V30 1041 C 92.3483 -3.88249 -1.83196 0
M  V30 1042 C 91.5813 -4.39613 -3.02616 0
M  V30 1043 O 91.8043 -3.90023 -4.16219 0
M  V30 1044 O 90.7383 -5.31111 -2.83204 0
M  V30 1045 H 94.5643 -3.00112 -0.465483 0
M  V30 1046 H 92.1493 -1.48499 -0.163826 0
M  V30 1047 H 94.0313 -3.04026 -2.91798 0
M  V30 1048 H 92.7063 -1.87796 -2.63656 0
M  V30 1049 H 91.6133 -3.58492 -1.06931 0
M  V30 1050 H 92.9463 -4.71098 -1.42573 0
M  V30 1051 N 94.5984 0.214957 -1.56127 0
M  V30 1052 C 95.5614 1.24997 -1.92116 0
M  V30 1053 C 96.5614 1.39467 -0.800344 0
M  V30 1054 O 97.7514 1.37619 -1.06802 0
M  V30 1055 C 94.8834 2.62271 -2.17777 0
M  V30 1056 H 96.0764 0.942875 -2.84693 0
M  V30 1057 H 93.6294 0.455654 -1.49511 0
M  V30 1058 H 94.3644 2.98068 -1.27773 0
M  V30 1059 H 94.1494 2.53143 -2.99434 0
M  V30 1060 H 95.6394 3.36946 -2.46693 0
M  V30 1061 N 96.0765 1.50051 0.48192 0
M  V30 1062 C 97.3015 1.64508 1.26301 0
M  V30 1063 C 97.7265 0.323851 1.85291 0
M  V30 1064 O 97.0845 -0.710969 1.66778 0
M  V30 1065 C 97.1325 2.7305 2.35533 0
M  V30 1066 O 96.2365 2.3355 3.39895 0
M  V30 1067 H 95.5775 0.549978 0.372048 0
M  V30 1068 H 98.1075 1.9636 0.574786 0
M  V30 1069 H 98.1175 2.95799 2.8101 0
M  V30 1070 H 96.7925 3.68946 1.91967 0
M  V30 1071 H 95.3695 2.21205 3.00204 0
M  V30 1072 N 97.5546 -0.734337 1.39446 0
M  V30 1073 C 98.5016 -1.84835 1.38219 0
M  V30 1074 C 99.4716 -1.64331 0.24179 0
M  V30 1075 O 100.657 -1.85728 0.437002 0
M  V30 1076 C 97.7966 -3.22355 1.23212 0
M  V30 1077 C 96.9096 -3.5456 2.46801 0
M  V30 1078 C 96.0446 -4.81485 2.24377 0
M  V30 1079 C 95.0836 -5.06536 3.43639 0
M  V30 1080 N 94.2206 -6.24665 3.20528 0
M  V30 1081 H 99.0606 -1.85219 2.33448 0
M  V30 1082 H 96.5976 -0.905039 1.15963 0
M  V30 1083 H 98.5556 -4.0174 1.12522 0
M  V30 1084 H 97.1856 -3.21248 0.316121 0
M  V30 1085 H 96.2376 -2.69872 2.68092 0
M  V30 1086 H 97.5496 -3.6899 3.3563 0
M  V30 1087 H 96.7036 -5.68852 2.10933 0
M  V30 1088 H 95.4426 -4.6923 1.32944 0
M  V30 1089 H 94.4476 -4.17632 3.5758 0
M  V30 1090 H 95.6726 -5.20676 4.35974 0
M  V30 1091 H 93.6186 -6.13696 2.3176 0
M  V30 1092 H 93.5356 -6.39685 4.02913 0
M  V30 1093 H 94.8036 -7.14868 3.10779 0
M  V30 1094 N 99.0327 -1.24633 -0.964593 0
M  V30 1095 C 100.279 -1.08949 -1.71049 0
M  V30 1096 C 100.612 0.370302 -1.90637 0
M  V30 1097 O 99.8867 1.27349 -1.47011 0
M  V30 1098 C 100.17 -1.83329 -3.0994 0
M  V30 1099 C 100.023 -3.37077 -2.97824 0
M  V30 1100 C 101.342 -1.60846 -4.09654 0
M  V30 1101 H 98.4607 -0.397178 -0.620821 0
M  V30 1102 H 101.103 -1.5334 -1.12191 0
M  V30 1103 H 99.2527 -1.45597 -3.60186 0
M  V30 1104 H 100.925 -3.84425 -2.5498 0
M  V30 1105 H 99.1677 -3.65298 -2.33965 0
M  V30 1106 H 99.8387 -3.84324 -3.96231 0
M  V30 1107 H 102.315 -1.93674 -3.68279 0
M  V30 1108 H 101.191 -2.1534 -5.04896 0
M  V30 1109 H 101.452 -0.547434 -4.38698 0
M  V30 1110 N 100.511 1.16574 -1.06058 0
M  V30 1111 C 101.922 1.68662 -0.800632 0
M  V30 1112 C 102.273 1.84184 0.67608 0
M  V30 1113 O 101.398 1.53568 1.52466 0
M  V30 1114 C 101.993 3.06356 -1.44676 0
M  V30 1115 C 100.552 3.55575 -1.23465 0
M  V30 1116 C 99.6988 2.31616 -1.52477 0
M  V30 1117 H 102.65 1.00969 -1.22438 0
M  V30 1118 H 102.671 3.70636 -0.860788 0
M  V30 1119 H 102.183 2.95027 -2.52152 0
M  V30 1120 H 100.284 3.72167 -0.179527 0
M  V30 1121 H 100.397 4.37812 -1.94571 0
M  V30 1122 H 98.7608 2.36512 -0.945209 0
M  V30 1123 H 99.5438 2.22887 -2.61106 0
M  V30 1124 N 101.989 0.842826 1.3317 0
M  V30 1125 C 102.919 0.294028 2.31641 0
M  V30 1126 C 103.9 -0.600401 1.59151 0
M  V30 1127 O 105.085 -0.523124 1.87022 0
M  V30 1128 C 102.215 -0.528416 3.43257 0
M  V30 1129 C 101.169 0.27056 4.27144 0
M  V30 1130 C 100.495 -0.675881 5.30411 0
M  V30 1131 C 101.795 1.48981 5.00602 0
M  V30 1132 H 103.489 1.11681 2.77791 0
M  V30 1133 H 101.035 0.538478 1.33553 0
M  V30 1134 H 102.988 -0.922674 4.11175 0
M  V30 1135 H 101.712 -1.38445 2.95805 0
M  V30 1136 H 100.371 0.646427 3.60856 0
M  V30 1137 H 100.019 -1.52842 4.79216 0
M  V30 1138 H 99.7189 -0.145374 5.8742 0
M  V30 1139 H 101.243 -1.06757 6.01195 0
M  V30 1140 H 102.657 1.16849 5.61266 0
M  V30 1141 H 101.054 1.95739 5.6728 0
M  V30 1142 H 102.124 2.25746 4.29147 0
M  V30 1143 N 103.467 -1.45747 0.599634 0
M  V30 1144 C 104.397 -2.33235 -0.111306 0
M  V30 1145 C 105.378 -1.46359 -0.866781 0
M  V30 1146 O 106.563 -1.75146 -0.838904 0
M  V30 1147 C 103.693 -3.28932 -1.11451 0
M  V30 1148 C 102.647 -4.25381 -0.472772 0
M  V30 1149 C 101.973 -5.1071 -1.58365 0
M  V30 1150 C 103.273 -5.18831 0.600948 0
M  V30 1151 H 104.967 -2.92927 0.61919 0
M  V30 1152 H 102.513 -1.40857 0.299215 0
M  V30 1153 H 104.466 -3.89002 -1.62036 0
M  V30 1154 H 103.19 -2.67381 -1.8755 0
M  V30 1155 H 101.849 -3.66598 0.0121472 0
M  V30 1156 H 101.497 -4.45533 -2.33473 0
M  V30 1157 H 101.197 -5.7604 -1.15982 0
M  V30 1158 H 102.721 -5.73647 -2.09194 0
M  V30 1159 H 104.135 -5.73019 0.179491 0
M  V30 1160 H 102.532 -5.92595 0.946076 0
M  V30 1161 H 103.602 -4.6174 1.48068 0
M  V30 1162 N 104.945 -0.338344 -1.53925 0
M  V30 1163 C 105.908 0.508299 -2.23493 0
M  V30 1164 C 106.908 1.03175 -1.23335 0
M  V30 1165 O 108.098 0.921826 -1.47811 0
M  V30 1166 C 105.23 1.70754 -2.95052 0
M  V30 1167 H 106.423 -0.100058 -2.99733 0
M  V30 1168 H 103.976 -0.0896198 -1.56043 0
M  V30 1169 H 104.711 2.35474 -2.22986 0
M  V30 1170 H 104.496 1.33946 -3.68512 0
M  V30 1171 H 105.986 2.30818 -3.48013 0
M  V30 1172 N 106.423 1.57458 -0.0668435 0
M  V30 1173 C 107.333 2.15937 0.916975 0
M  V30 1174 C 108.349 1.12123 1.33058 0
M  V30 1175 O 109.525 1.44366 1.40429 0
M  V30 1176 C 106.59 2.70547 2.16807 0
M  V30 1177 C 105.651 3.89215 1.81135 0
M  V30 1178 C 104.884 4.41211 3.0028 0
M  V30 1179 O 105.107 3.92225 4.14144 0
M  V30 1180 O 104.041 5.32605 2.80384 0
M  V30 1181 H 107.867 3.00354 0.449561 0
M  V30 1182 H 105.452 1.48584 0.155949 0
M  V30 1183 H 107.334 3.0557 2.90181 0
M  V30 1184 H 106.009 1.89192 2.62656 0
M  V30 1185 H 104.916 3.59054 1.05028 0
M  V30 1186 H 106.249 4.71848 1.40073 0
M  V30 1187 N 107.901 -0.206675 1.56239 0
M  V30 1188 C 109.15 -0.926964 1.79138 0
M  V30 1189 C 109.463 -1.84901 0.638043 0
M  V30 1190 O 110.669 -2.60906 0.751033 0
M  V30 1191 C 109.125 -1.6986 3.17294 0
M  V30 1192 C 108.733 -0.821956 4.40395 0
M  V30 1193 C 110.477 -2.40922 3.4951 0
M  V30 1194 C 108.384 -1.59179 5.69575 0
M  V30 1195 H 107.314 -0.349864 0.667915 0
M  V30 1196 H 109.965 -0.180487 1.8261 0
M  V30 1197 H 108.347 -2.48853 3.08039 0
M  V30 1198 H 109.521 -0.0715019 4.60745 0
M  V30 1199 H 107.836 -0.222741 4.15804 0
M  V30 1200 H 110.433 -2.99047 4.43255 0
M  V30 1201 H 110.776 -3.14542 2.72707 0
M  V30 1202 H 111.309 -1.68905 3.60161 0
M  V30 1203 H 108.048 -0.898589 6.49312 0
M  V30 1204 H 107.568 -2.31648 5.53262 0
M  V30 1205 H 109.247 -2.14862 6.10281 0
M  V30 1206 N 109.379 -1.50304 -0.473955 0
M  V30 1207 C 110.609 -1.64663 -1.24778 0
M  V30 1208 C 111.017 -0.328174 -1.86332 0
M  V30 1209 O 110.36 0.699536 -1.69859 0
M  V30 1210 C 110.422 -2.6778 -2.39863 0
M  V30 1211 C 110.086 -4.11413 -1.98969 0
M  V30 1212 C 111.083 -4.97372 -1.51385 0
M  V30 1213 C 108.768 -4.57312 -2.07777 0
M  V30 1214 C 110.762 -6.27277 -1.13148 0
M  V30 1215 C 108.449 -5.87223 -1.69152 0
M  V30 1216 C 109.447 -6.72031 -1.21915 0
M  V30 1217 O 109.135 -7.99518 -0.838237 0
M  V30 1218 H 108.867 -0.556602 -0.383627 0
M  V30 1219 H 111.421 -1.9726 -0.572491 0
M  V30 1220 H 109.651 -2.30419 -3.10554 0
M  V30 1221 H 111.34 -2.71388 -3.01833 0
M  V30 1222 H 112.106 -4.63128 -1.44004 0
M  V30 1223 H 107.985 -3.91449 -2.43493 0
M  V30 1224 H 111.529 -6.93425 -0.762077 0
M  V30 1225 H 107.426 -6.20989 -1.76191 0
M  V30 1226 H 108.194 -8.12764 -0.967339 0
M  V30 1227 N 110.857 0.726932 -1.39834 0
M  V30 1228 C 112.105 1.4837 -1.37225 0
M  V30 1229 C 112.426 1.94979 0.0284857 0
M  V30 1230 O 111.696 1.69555 0.981213 0
M  V30 1231 H 110.276 0.55043 -0.505011 0
M  V30 1232 H 112.938 0.862468 -1.74778 0
M  V30 1233 H 112.034 2.36198 -2.04003 0
M  V30 1234 N 112.336 1.25143 0.95797 0
M  V30 1235 C 113.585 1.0909 1.69654 0
M  V30 1236 C 113.898 -0.368548 1.92097 0
M  V30 1237 O 115.104 -0.649455 2.63618 0
M  V30 1238 C 113.56 1.90395 3.05414 0
M  V30 1239 C 113.168 3.4081 2.90779 0
M  V30 1240 C 114.912 1.82901 3.83076 0
M  V30 1241 C 112.819 4.14423 4.21909 0
M  V30 1242 H 111.749 0.404625 0.636235 0
M  V30 1243 H 114.4 1.4931 1.06672 0
M  V30 1244 H 112.782 1.42996 3.69281 0
M  V30 1245 H 113.956 3.95859 2.35865 0
M  V30 1246 H 112.271 3.49361 2.26575 0
M  V30 1247 H 114.868 2.35196 4.80195 0
M  V30 1248 H 115.211 0.796224 4.08615 0
M  V30 1249 H 115.744 2.28033 3.25954 0
M  V30 1250 H 112.483 5.18102 4.01561 0
M  V30 1251 H 112.003 3.64159 4.76601 0
M  V30 1252 H 113.682 4.21956 4.90471 0
M  V30 1253 N 113.814 -1.1601 1.06675 0
M  V30 1254 C 114.724 -2.24156 0.692179 0
M  V30 1255 C 115.74 -1.71507 -0.293513 0
M  V30 1256 O 116.916 -2.009 -0.141861 0
M  V30 1257 C 113.981 -3.46587 0.0884131 0
M  V30 1258 C 113.042 -4.14257 1.12646 0
M  V30 1259 C 112.275 -5.30844 0.551416 0
M  V30 1260 O 112.498 -5.66858 -0.634656 0
M  V30 1261 O 111.432 -5.87848 1.29298 0
M  V30 1262 H 115.258 -2.58513 1.59388 0
M  V30 1263 H 112.843 -1.23599 0.83926 0
M  V30 1264 H 114.725 -4.20679 -0.246361 0
M  V30 1265 H 113.4 -3.13994 -0.786712 0
M  V30 1266 H 112.307 -3.42118 1.51348 0
M  V30 1267 H 113.64 -4.50914 1.97325 0
M  V30 1268 N 115.292 -0.849877 -1.32721 0
M  V30 1269 C 116.54 -0.450032 -1.97026 0
M  V30 1270 C 116.861 0.996604 -1.67609 0
M  V30 1271 O 116.131 1.6958 -0.980786 0
M  V30 1272 H 114.711 -0.163426 -0.728904 0
M  V30 1273 H 117.373 -1.08526 -1.6189 0
M  V30 1274 H 116.469 -0.591146 -3.0645 0
M  V30 1275 N 116.77 1.45427 -0.607355 0
M  V30 1276 C 117.718 2.32269 0.12411 0
M  V30 1277 C 118.712 1.45955 0.859854 0
M  V30 1278 O 119.918 1.6244 0.775447 0
M  V30 1279 H 116.293 0.749691 0.0588839 0
M  V30 1280 H 118.264 2.91743 -0.626762 0
M  V30 1281 C 117.013 3.29567 1.1082 0
M  V30 1282 H 116.336 3.95978 0.551492 0
M  V30 1283 H 117.776 3.93061 1.58995 0
M  V30 1284 C 116.235 2.56722 2.18164 0
M  V30 1285 O 116.765 2.34842 3.25902 0
M  V30 1286 N 114.971 2.16861 1.93442 0
M  V30 1287 H 114.518 2.34855 1.05834 0
M  V30 1288 H 114.476 1.68444 2.65469 0
M  V30 1289 N 118.248 0.346503 1.53744 0
M  V30 1290 C 119.497 -0.250122 2.00143 0
M  V30 1291 C 119.81 -1.51418 1.23822 0
M  V30 1292 O 121.016 -2.18823 1.60713 0
M  V30 1293 C 119.472 -0.496252 3.56462 0
M  V30 1294 C 119.08 0.752077 4.41642 0
M  V30 1295 C 120.824 -1.05157 4.11269 0
M  V30 1296 C 118.731 0.476583 5.89477 0
M  V30 1297 H 117.661 -0.0972409 0.747703 0
M  V30 1298 H 120.312 0.46229 1.77581 0
M  V30 1299 H 118.694 -1.26944 3.75102 0
M  V30 1300 H 119.868 1.5266 4.34778 0
M  V30 1301 H 118.183 1.22925 3.97842 0
M  V30 1302 H 120.78 -1.27269 5.19333 0
M  V30 1303 H 121.123 -2.00799 3.64672 0
M  V30 1304 H 121.656 -0.339019 3.96353 0
M  V30 1305 H 118.395 1.4028 6.40314 0
M  V30 1306 H 117.915 -0.259794 5.99237 0
M  V30 1307 H 119.594 0.0949315 6.4693 0
M  V30 1308 N 119.726 -1.57421 0.075193 0
M  V30 1309 C 120.973 -1.93618 -0.593146 0
M  V30 1310 C 121.301 -0.955484 -1.69413 0
M  V30 1311 O 120.556 0.0283251 -1.9568 0
M  V30 1312 C 120.855 -3.36428 -1.20626 0
M  V30 1313 C 120.521 -4.50307 -0.231078 0
M  V30 1314 C 119.183 -4.81186 0.0371936 0
M  V30 1315 C 121.535 -5.19374 0.435888 0
M  V30 1316 C 118.863 -5.78466 0.979461 0
M  V30 1317 C 121.215 -6.17665 1.3665 0
M  V30 1318 C 119.879 -6.46958 1.6432 0
M  V30 1319 H 119.149 -0.708499 -0.217047 0
M  V30 1320 H 121.796 -1.90937 0.146793 0
M  V30 1321 H 120.101 -3.35592 -2.02201 0
M  V30 1322 H 121.798 -3.61727 -1.73073 0
M  V30 1323 H 118.388 -4.26227 -0.450357 0
M  V30 1324 H 122.572 -4.95711 0.241748 0
M  V30 1325 H 117.828 -5.99487 1.20106 0
M  V30 1326 H 122.002 -6.70284 1.88924 0
M  V30 1327 H 119.629 -7.2215 2.37494 0
M  V30 1328 N 121.204 0.198386 -1.56346 0
M  V30 1329 C 122.62 0.549085 -1.49857 0
M  V30 1330 C 122.82 1.86016 -0.774611 0
M  V30 1331 O 121.876 2.50416 -0.323776 0
M  V30 1332 C 123.189 0.606868 -2.94512 0
M  V30 1333 C 124.737 0.695925 -3.05165 0
M  V30 1334 C 125.212 0.784848 -4.51225 0
M  V30 1335 N 126.703 0.848463 -4.55363 0
M  V30 1336 C 127.438 0.937378 -5.65686 0
M  V30 1337 N 126.934 0.9888 -6.85707 0
M  V30 1338 N 128.727 0.974312 -5.53592 0
M  V30 1339 H 120.878 -0.661655 -2.01831 0
M  V30 1340 H 123.141 -0.235261 -0.918344 0
M  V30 1341 H 122.847 -0.28732 -3.50524 0
M  V30 1342 H 122.721 1.46268 -3.47686 0
M  V30 1343 H 125.108 1.58055 -2.49204 0
M  V30 1344 H 125.189 -0.186022 -2.55123 0
M  V30 1345 H 124.833 -0.0954072 -5.0781 0
M  V30 1346 H 124.763 1.68255 -4.98997 0
M  V30 1347 H 127.254 0.818103 -3.68938 0
M  V30 1348 H 127.567 1.05707 -7.65536 0
M  V30 1349 H 125.912 0.957534 -6.88372 0
M  V30 1350 H 129.103 0.930954 -4.58749 0
M  V30 1351 H 129.276 1.04015 -6.39597 0
M  V30 1352 N 122.682 1.50554 0.465978 0
M  V30 1353 C 123.612 1.72722 1.57128 0
M  V30 1354 C 124.593 0.576294 1.6004 0
M  V30 1355 O 125.778 0.81598 1.76225 0
M  V30 1356 C 122.908 1.82605 2.95419 0
M  V30 1357 C 121.862 2.97835 3.07373 0
M  V30 1358 C 121.188 2.92867 4.47363 0
M  V30 1359 C 122.488 4.38265 2.84114 0
M  V30 1360 H 124.182 2.65267 1.38829 0
M  V30 1361 H 121.728 1.2765 0.666441 0
M  V30 1362 H 123.681 1.96698 3.72677 0
M  V30 1363 H 122.405 0.866858 3.14886 0
M  V30 1364 H 121.064 2.83401 2.3255 0
M  V30 1365 H 120.712 1.94783 4.63755 0
M  V30 1366 H 120.412 3.70227 4.56296 0
M  V30 1367 H 121.936 3.09015 5.26633 0
M  V30 1368 H 123.35 4.53198 3.51118 0
M  V30 1369 H 121.747 5.17115 3.04487 0
M  V30 1370 H 122.817 4.50281 1.7993 0
M  V30 1371 N 124.16 -0.719506 1.40217 0
M  V30 1372 C 125.107 -1.83359 1.40172 0
M  V30 1373 C 126.077 -1.64065 0.259206 0
M  V30 1374 O 127.262 -1.85254 0.456677 0
M  V30 1375 C 124.402 -3.2103 1.26624 0
M  V30 1376 C 123.515 -3.51923 2.50548 0
M  V30 1377 C 122.65 -4.79079 2.29471 0
M  V30 1378 C 121.689 -5.02863 3.48992 0
M  V30 1379 N 120.826 -6.2123 3.27135 0
M  V30 1380 H 125.666 -1.82733 2.35399 0
M  V30 1381 H 123.203 -0.892688 1.16917 0
M  V30 1382 H 125.161 -4.00524 1.16776 0
M  V30 1383 H 123.791 -3.20895 0.350176 0
M  V30 1384 H 122.843 -2.67014 2.70939 0
M  V30 1385 H 124.155 -3.6541 3.39525 0
M  V30 1386 H 123.309 -5.66582 2.16955 0
M  V30 1387 H 122.048 -4.67794 1.37913 0
M  V30 1388 H 121.053 -4.13816 3.6199 0
M  V30 1389 H 122.278 -5.16023 4.41472 0
M  V30 1390 H 120.224 -6.11204 2.38256 0
M  V30 1391 H 120.141 -6.35375 4.09675 0
M  V30 1392 H 121.409 -7.11532 3.18344 0
M  V30 1393 N 125.638 -1.25649 -0.95132 0
M  V30 1394 C 126.887 -1.09988 -1.69073 0
M  V30 1395 C 127.2 0.358355 -1.92289 0
M  V30 1396 O 128.406 0.635466 -2.63958 0
M  V30 1397 C 126.862 -1.92012 -3.044 0
M  V30 1398 C 126.47 -3.42347 -2.88968 0
M  V30 1399 C 128.214 -1.8493 -3.82101 0
M  V30 1400 C 126.121 -4.16655 -4.19705 0
M  V30 1401 H 125.051 -0.407993 -0.63408 0
M  V30 1402 H 127.702 -1.49873 -1.05879 0
M  V30 1403 H 126.084 -1.44952 -3.68517 0
M  V30 1404 H 127.258 -3.97104 -2.33762 0
M  V30 1405 H 125.573 -3.50557 -2.24719 0
M  V30 1406 H 128.17 -2.37739 -4.78941 0
M  V30 1407 H 128.513 -0.817883 -4.08187 0
M  V30 1408 H 129.046 -2.29758 -3.2474 0
M  V30 1409 H 125.785 -5.20224 -3.98807 0
M  V30 1410 H 125.305 -3.66681 -4.74663 0
M  V30 1411 H 126.984 -4.24551 -4.88227 0
M  V30 1412 N 127.117 1.15442 -1.07289 0
M  V30 1413 C 128.065 2.22225 -0.686952 0
M  V30 1414 C 129.059 1.66688 0.30193 0
M  V30 1415 O 130.265 1.79236 0.165712 0
M  V30 1416 H 126.64 0.723783 -0.204064 0
M  V30 1417 H 128.611 2.52056 -1.5972 0
M  V30 1418 C 127.36 3.47556 -0.100149 0
M  V30 1419 H 126.683 3.90612 -0.852211 0
M  V30 1420 H 128.123 4.23794 0.132235 0
M  V30 1421 C 126.582 3.16337 1.159 0
M  V30 1422 O 127.112 3.33074 2.24555 0
M  V30 1423 N 125.318 2.70385 1.06491 0
M  V30 1424 H 124.865 2.56966 0.180668 0
M  V30 1425 H 124.823 2.49871 1.90819 0
M  V30 1426 N 128.595 0.856903 1.32268 0
M  V30 1427 C 129.505 0.306131 2.32594 0
M  V30 1428 C 130.521 -0.577209 1.64147 0
M  V30 1429 O 131.697 -0.477043 1.95669 0
M  V30 1430 C 128.762 -0.494561 3.43154 0
M  V30 1431 C 127.823 0.415186 4.27288 0
M  V30 1432 C 127.056 -0.347387 5.32568 0
M  V30 1433 O 127.279 -1.57708 5.48165 0
M  V30 1434 O 126.213 0.287982 6.01211 0
M  V30 1435 H 130.039 1.13737 2.81598 0
M  V30 1436 H 127.624 0.619902 1.35932 0
M  V30 1437 H 129.506 -0.948944 4.10576 0
M  V30 1438 H 128.181 -1.30257 2.96336 0
M  V30 1439 H 127.088 0.917793 3.62667 0
M  V30 1440 H 128.421 1.18844 4.77637 0
M  V30 1441 N 130.073 -1.45103 0.615059 0
M  V30 1442 C 130.983 -2.34382 -0.101034 0
M  V30 1443 C 131.999 -1.51681 -0.852585 0
M  V30 1444 O 133.175 -1.8446 -0.808484 0
M  V30 1445 C 130.24 -3.29417 -1.08099 0
M  V30 1446 C 129.301 -4.28025 -0.330577 0
M  V30 1447 C 128.534 -5.1852 -1.26385 0
M  V30 1448 O 128.757 -5.12598 -2.50198 0
M  V30 1449 O 127.691 -5.97122 -0.756866 0
M  V30 1450 H 131.517 -2.97033 0.632855 0
M  V30 1451 H 129.102 -1.4461 0.375293 0
M  V30 1452 H 130.984 -3.87958 -1.6452 0
M  V30 1453 H 129.659 -2.69321 -1.79577 0
M  V30 1454 H 128.566 -3.73078 0.276283 0
M  V30 1455 H 129.899 -4.90997 0.343866 0
M  V30 1456 N 131.551 -0.354651 -1.53558 0
M  V30 1457 C 132.779 0.239515 -2.05509 0
M  V30 1458 C 133.194 1.4333 -1.2289 0
M  V30 1459 O 132.551 1.80538 -0.266899 0
M  V30 1460 C 132.602 0.643719 -3.55723 0
M  V30 1461 O 132.323 -0.502602 -4.35207 0
M  V30 1462 C 133.824 1.29743 -4.23889 0
M  V30 1463 H 131.044 0.0442697 -0.669538 0
M  V30 1464 H 133.588 -0.509856 -1.98042 0
M  V30 1465 H 131.743 1.34302 -3.63376 0
M  V30 1466 H 132.157 -0.178172 -5.24197 0
M  V30 1467 H 133.631 1.53091 -5.30346 0
M  V30 1468 H 134.108 2.25441 -3.76926 0
M  V30 1469 H 134.714 0.639865 -4.20459 0
M  V30 1470 N 133.029 1.57378 -0.0835403 0
M  V30 1471 C 134.44 1.81261 0.447358 0
M  V30 1472 C 134.791 0.998331 1.68902 0
M  V30 1473 O 133.916 0.224282 2.15235 0
M  V30 1474 C 134.511 3.28767 0.818386 0
M  V30 1475 C 133.07 3.53455 1.29409 0
M  V30 1476 C 132.217 2.75831 0.285024 0
M  V30 1477 H 135.168 1.5566 -0.309115 0
M  V30 1478 H 135.189 3.41459 1.67887 0
M  V30 1479 H 134.701 3.88006 -0.0855019 0
M  V30 1480 H 132.802 2.99534 2.21608 0
M  V30 1481 H 132.915 4.62128 1.2639 0
M  V30 1482 H 131.279 2.42947 0.764767 0
M  V30 1483 H 132.062 3.37813 -0.611341 0
M  V30 1484 N 134.507 -0.190092 1.56449 0
M  V30 1485 C 135.437 -1.23816 1.97969 0
M  V30 1486 C 136.418 -1.47201 0.852395 0
M  V30 1487 O 137.603 -1.58854 1.1171 0
M  V30 1488 C 134.733 -2.5813 2.3235 0
M  V30 1489 C 133.687 -2.49348 3.47864 0
M  V30 1490 C 133.013 -3.8798 3.67934 0
M  V30 1491 C 134.313 -2.01424 4.81898 0
M  V30 1492 H 136.007 -0.89311 2.85769 0
M  V30 1493 H 133.553 -0.428177 1.37487 0
M  V30 1494 H 135.506 -3.31637 2.59991 0
M  V30 1495 H 134.23 -2.94386 1.41438 0
M  V30 1496 H 132.889 -1.78297 3.20321 0
M  V30 1497 H 132.537 -4.21597 2.74344 0
M  V30 1498 H 132.237 -3.82978 4.45648 0
M  V30 1499 H 133.761 -4.63101 3.97957 0
M  V30 1500 H 135.175 -2.64693 5.08538 0
M  V30 1501 H 133.572 -2.07413 5.63116 0
M  V30 1502 H 134.642 -0.967677 4.75146 0
M  V30 1503 N 135.985 -1.50799 -0.457987 0
M  V30 1504 C 136.932 -1.70617 -1.5543 0
M  V30 1505 C 137.902 -0.547562 -1.56815 0
M  V30 1506 O 139.087 -0.779647 -1.74144 0
M  V30 1507 C 136.227 -1.81831 -2.93311 0
M  V30 1508 C 135.34 -3.09278 -3.01615 0
M  V30 1509 C 134.475 -3.11209 -4.30491 0
M  V30 1510 C 133.514 -4.33055 -4.32585 0
M  V30 1511 N 132.651 -4.32652 -5.52952 0
M  V30 1512 H 137.491 -2.64207 -1.37836 0
M  V30 1513 H 135.028 -1.30959 -0.669937 0
M  V30 1514 H 136.986 -1.86314 -3.73287 0
M  V30 1515 H 135.616 -0.916685 -3.0951 0
M  V30 1516 H 134.668 -3.14203 -2.1443 0
M  V30 1517 H 135.98 -3.99233 -2.99022 0
M  V30 1518 H 135.134 -3.14494 -5.18824 0
M  V30 1519 H 133.873 -2.19106 -4.35711 0
M  V30 1520 H 132.878 -4.29969 -3.42647 0
M  V30 1521 H 134.103 -5.264 -4.29046 0
M  V30 1522 H 132.049 -3.43409 -5.58933 0
M  V30 1523 H 131.966 -5.16392 -5.52155 0
M  V30 1524 H 133.234 -4.40101 -6.43375 0
M  V30 1525 N 137.463 0.71206 -1.40597 0
M  V30 1526 C 138.874 1.29135 -1.34837 0
M  V30 1527 C 139.225 1.96186 -0.0235395 0
M  V30 1528 O 138.35 1.97768 0.878444 0
M  V30 1529 C 138.945 2.34827 -2.44217 0
M  V30 1530 C 137.504 2.88371 -2.41907 0
M  V30 1531 C 136.651 1.62202 -2.24913 0
M  V30 1532 H 139.602 0.507944 -1.50352 0
M  V30 1533 H 139.623 3.15749 -2.12327 0
M  V30 1534 H 139.135 1.85996 -3.40627 0
M  V30 1535 H 137.236 3.41422 -1.49204 0
M  V30 1536 H 137.349 3.39925 -3.37621 0
M  V30 1537 H 135.713 1.874 -1.72492 0
M  V30 1538 H 136.496 1.15391 -3.23326 0
M  V30 1539 N 138.941 1.26152 0.944643 0
M  V30 1540 C 140.357 1.03189 1.21754 0
M  V30 1541 C 140.557 -0.245112 2.00004 0
M  V30 1542 O 139.613 -0.955176 2.33736 0
M  V30 1543 C 140.926 2.26119 1.98219 0
M  V30 1544 C 142.474 2.30984 2.11224 0
M  V30 1545 C 142.949 3.53597 2.91089 0
M  V30 1546 N 144.44 3.54053 2.98664 0
M  V30 1547 C 145.175 4.45593 3.60881 0
M  V30 1548 N 144.671 5.47416 4.24626 0
M  V30 1549 N 146.464 4.33252 3.58119 0
M  V30 1550 H 138.615 2.08177 0.421437 0
M  V30 1551 H 140.878 0.914723 0.248969 0
M  V30 1552 H 140.584 3.18984 1.48128 0
M  V30 1553 H 140.458 2.3009 2.98895 0
M  V30 1554 H 142.845 1.38635 2.60508 0
M  V30 1555 H 142.926 2.31026 1.09821 0
M  V30 1556 H 142.57 4.46273 2.42493 0
M  V30 1557 H 142.5 3.50802 3.92741 0
M  V30 1558 H 144.991 2.80403 2.53343 0
M  V30 1559 H 145.304 6.13459 4.69987 0
M  V30 1560 H 143.649 5.51278 4.23223 0
M  V30 1561 H 146.84 3.52924 3.0751 0
M  V30 1562 H 147.013 5.04786 4.06319 0
M  V30 1563 N 140.419 -1.14872 1.07899 0
M  V30 1564 C 141.666 -1.85789 0.805532 0
M  V30 1565 C 141.994 -1.82649 -0.668561 0
M  V30 1566 O 141.249 -1.24858 -1.50695 0
M  V30 1567 C 141.548 -3.34223 1.26609 0
M  V30 1568 C 141.214 -3.57555 2.74709 0
M  V30 1569 C 139.876 -3.63631 3.1516 0
M  V30 1570 C 142.228 -3.66803 3.70277 0
M  V30 1571 C 139.556 -3.76473 4.49983 0
M  V30 1572 C 141.908 -3.8117 5.04869 0
M  V30 1573 C 140.572 -3.85494 5.44932 0
M  V30 1574 H 139.842 -0.679849 0.294765 0
M  V30 1575 H 142.489 -1.3572 1.35101 0
M  V30 1576 H 140.794 -3.86536 0.640103 0
M  V30 1577 H 142.491 -3.87511 1.03132 0
M  V30 1578 H 139.081 -3.5347 2.42398 0
M  V30 1579 H 143.265 -3.61404 3.40149 0
M  V30 1580 H 138.521 -3.7808 4.80484 0
M  V30 1581 H 142.695 -3.87268 5.78789 0
M  V30 1582 H 140.322 -3.95197 6.49403 0
M  V30 1583 N 141.898 -0.863906 -1.31812 0
M  V30 1584 C 142.808 -0.318461 -2.32428 0
M  V30 1585 C 143.824 0.568496 -1.64451 0
M  V30 1586 O 145 0.46666 -1.95919 0
M  V30 1587 C 142.065 0.476355 -3.43412 0
M  V30 1588 C 141.126 -0.43784 -4.27061 0
M  V30 1589 C 140.359 0.319138 -5.32745 0
M  V30 1590 O 140.582 1.54799 -5.48993 0
M  V30 1591 O 139.516 -0.319861 -6.01049 0
M  V30 1592 H 143.342 -1.15229 -2.80991 0
M  V30 1593 H 140.927 -0.627103 -1.35602 0
M  V30 1594 H 142.809 0.927156 -4.11074 0
M  V30 1595 H 141.484 1.28683 -2.97022 0
M  V30 1596 H 140.391 -0.937013 -3.62175 0
M  V30 1597 H 141.724 -1.21375 -4.77 0
M  V30 1598 N 143.376 1.44774 -0.622745 0
M  V30 1599 C 144.622 2.0242 -0.124083 0
M  V30 1600 C 144.955 1.4881 1.24777 0
M  V30 1601 O 144.23 0.668799 1.8264 0
M  V30 1602 C 144.513 3.59957 -0.101619 0
M  V30 1603 C 144.366 4.23867 -1.50521 0
M  V30 1604 C 145.685 4.36284 0.578272 0
M  V30 1605 H 142.804 0.735528 -0.0465645 0
M  V30 1606 H 145.446 1.72447 -0.797617 0
M  V30 1607 H 143.596 3.85623 0.471934 0
M  V30 1608 H 145.268 4.09336 -2.12701 0
M  V30 1609 H 143.511 3.81684 -2.06154 0
M  V30 1610 H 144.182 5.32843 -1.4416 0
M  V30 1611 H 146.658 4.16001 0.0906057 0
M  V30 1612 H 145.534 5.46004 0.563149 0
M  V30 1613 H 145.795 4.10271 1.64713 0
M  V30 1614 N 144.854 0.36279 1.53368 0
M  V30 1615 C 146.265 -0.117022 1.86333 0
M  V30 1616 C 146.616 -1.48397 1.28347 0
M  V30 1617 O 145.741 -2.07787 0.604428 0
M  V30 1618 C 146.336 -0.21912 3.38091 0
M  V30 1619 C 144.895 -0.643184 3.70864 0
M  V30 1620 C 144.042 0.211318 2.76494 0
M  V30 1621 H 146.993 0.581687 1.47655 0
M  V30 1622 H 147.014 -1.04319 3.6592 0
M  V30 1623 H 146.526 0.775902 3.80265 0
M  V30 1624 H 144.627 -1.64654 3.34245 0
M  V30 1625 H 144.74 -0.41973 4.77258 0
M  V30 1626 H 143.104 -0.319367 2.5269 0
M  V30 1627 H 143.887 1.20383 3.21501 0
M  V30 1628 N 146.332 -1.57332 0.0918853 0
M  V30 1629 C 147.609 -1.85691 -0.614668 0
M  V30 1630 C 147.989 -0.988146 -1.86545 0
M  V30 1631 O 147.337 -0.0597055 -2.28422 0
M  V30 1632 C 147.547 -3.36294 -0.933126 0
M  V30 1633 C 148.895 -4.04275 -1.29796 0
M  V30 1634 O 149.919 -3.41157 -1.02424 0
M  V30 1635 O 148.778 -5.1564 -1.81047 0
M  V30 1636 H 145.872 -0.767802 -0.307261 0
M  V30 1637 H 148.418 -1.69244 0.12434 0
M  V30 1638 H 147.19 -3.91273 -0.0456404 0
M  V30 1639 H 146.813 -3.58076 -1.72822 0
M  V30 1640 N 147.81 0.181792 -1.56548 0
M  V30 1641 C 149.056 0.901431 -1.81665 0
M  V30 1642 C 149.389 1.82347 -0.668075 0
M  V30 1643 O 148.664 1.91669 0.330615 0
M  V30 1644 C 148.947 1.70618 -3.17115 0
M  V30 1645 C 148.8 0.807964 -4.42484 0
M  V30 1646 C 150.119 2.67605 -3.49393 0
M  V30 1647 H 147.238 0.32627 -0.660846 0
M  V30 1648 H 149.88 0.168134 -1.89255 0
M  V30 1649 H 148.03 2.33133 -3.10775 0
M  V30 1650 H 149.702 0.19649 -4.60881 0
M  V30 1651 H 147.945 0.115411 -4.33646 0
M  V30 1652 H 148.616 1.40632 -5.33785 0
M  V30 1653 H 151.092 2.15218 -3.56118 0
M  V30 1654 H 149.968 3.20985 -4.45264 0
M  V30 1655 H 150.229 3.47298 -2.73563 0
M  V30 1656 N 149.288 1.51039 0.449983 0
M  V30 1657 C 150.218 1.74379 1.55288 0
M  V30 1658 C 151.199 0.593236 1.5942 0
M  V30 1659 O 152.384 0.834625 1.7535 0
M  V30 1660 C 149.514 1.85728 2.93466 0
M  V30 1661 C 148.468 3.01078 3.04197 0
M  V30 1662 C 147.794 2.97595 4.44231 0
M  V30 1663 C 149.094 4.41254 2.7945 0
M  V30 1664 H 150.788 2.66725 1.36008 0
M  V30 1665 H 148.334 1.2835 0.652864 0
M  V30 1666 H 150.287 2.0064 3.70569 0
M  V30 1667 H 149.011 0.900207 3.13949 0
M  V30 1668 H 147.67 2.85851 2.29531 0
M  V30 1669 H 147.318 1.99691 4.61663 0
M  V30 1670 H 147.018 3.75046 4.52343 0
M  V30 1671 H 148.542 3.14583 5.23326 0
M  V30 1672 H 149.956 4.56897 3.46292 0
M  V30 1673 H 148.353 5.20315 2.98985 0
M  V30 1674 H 149.423 4.52164 1.75144 0
M  V30 1675 N 150.766 -0.704594 1.40972 0
M  V30 1676 C 151.994 -1.49354 1.43182 0
M  V30 1677 C 152.409 -1.88768 0.0345508 0
M  V30 1678 O 151.766 -1.56184 -0.944081 0
M  V30 1679 C 151.817 -2.76187 2.33244 0
M  V30 1680 O 151.538 -2.38436 3.67532 0
M  V30 1681 C 153.039 -3.7 2.44162 0
M  V30 1682 H 150.259 -0.460559 0.487982 0
M  V30 1683 H 152.803 -0.868261 1.85153 0
M  V30 1684 H 150.958 -3.34974 1.94606 0
M  V30 1685 H 151.372 -3.20126 4.15475 0
M  V30 1686 H 152.846 -4.55803 3.11364 0
M  V30 1687 H 153.323 -4.13867 1.47006 0
M  V30 1688 H 153.929 -3.17121 2.83398 0
M  V30 1689 N 152.244 -1.26651 -0.937939 0
M  V30 1690 C 153.469 -1.15279 -1.72411 0
M  V30 1691 C 153.894 0.287866 -1.85884 0
M  V30 1692 O 153.252 1.20855 -1.35143 0
M  V30 1693 C 153.3 -1.83028 -3.10698 0
M  V30 1694 O 152.404 -1.12128 -3.96864 0
M  V30 1695 H 151.745 -0.401504 -0.528858 0
M  V30 1696 H 154.275 -1.67531 -1.1745 0
M  V30 1697 H 154.285 -1.89981 -3.6107 0
M  V30 1698 H 152.96 -2.87833 -3.00208 0
M  V30 1699 H 151.537 -1.13173 -3.55312 0
M  V30 1700 N 153.722 1.14298 -1.08507 0
M  V30 1701 C 154.669 2.19414 -0.715965 0
M  V30 1702 C 155.639 1.63399 0.298326 0
M  V30 1703 O 156.824 1.89929 0.182101 0
M  V30 1704 C 153.964 3.44845 -0.132534 0
M  V30 1705 C 153.077 4.15007 -1.19973 0
M  V30 1706 C 152.212 5.28024 -0.580048 0
M  V30 1707 C 151.251 5.9002 -1.62921 0
M  V30 1708 N 150.388 6.94485 -1.03125 0
M  V30 1709 H 155.228 2.50336 -1.61666 0
M  V30 1710 H 152.765 1.2293 -0.807882 0
M  V30 1711 H 154.723 4.16601 0.223454 0
M  V30 1712 H 153.353 3.14403 0.731467 0
M  V30 1713 H 152.405 3.41629 -1.67313 0
M  V30 1714 H 153.717 4.57178 -1.99473 0
M  V30 1715 H 152.871 6.06455 -0.172364 0
M  V30 1716 H 151.61 4.87076 0.246603 0
M  V30 1717 H 150.615 5.10291 -2.04654 0
M  V30 1718 H 151.84 6.33042 -2.45835 0
M  V30 1719 H 149.786 6.55612 -0.225711 0
M  V30 1720 H 149.703 7.35148 -1.76334 0
M  V30 1721 H 150.971 7.7679 -0.649458 0
M  V30 1722 N 155.201 0.870884 1.31352 0
M  V30 1723 C 156.612 0.534714 1.78879 0
M  V30 1724 C 156.963 -0.948423 1.71754 0
M  V30 1725 O 156.088 -1.74055 1.28584 0
M  V30 1726 C 156.683 0.963839 3.24801 0
M  V30 1727 C 155.242 0.679311 3.70219 0
M  V30 1728 C 154.389 1.15465 2.52117 0
M  V30 1729 H 157.34 1.05651 1.18421 0
M  V30 1730 H 157.361 0.286892 3.79417 0
M  V30 1731 H 156.873 2.04332 3.29955 0
M  V30 1732 H 154.974 -0.388769 3.70566 0
M  V30 1733 H 155.087 1.25698 4.62317 0
M  V30 1734 H 153.451 0.574383 2.48139 0
M  V30 1735 H 154.234 2.24157 2.60016 0
M  V30 1736 N 156.679 -1.44442 0.630414 0
M  V30 1737 C 157.904 -2.06927 0.139944 0
M  V30 1738 C 158.329 -1.46795 -1.17613 0
M  V30 1739 O 157.687 -0.569144 -1.72135 0
M  V30 1740 C 157.735 -3.6058 0.0379581 0
M  V30 1741 O 156.839 -3.99937 -1.0062 0
M  V30 1742 H 156.18 -0.658608 0.0844483 0
M  V30 1743 H 158.71 -1.85327 0.866891 0
M  V30 1744 H 158.72 -4.07714 -0.152856 0
M  V30 1745 H 157.395 -4.03728 0.998809 0
M  V30 1746 H 155.972 -3.64436 -0.79001 0
M  V30 1747 N 158.157 -0.370918 -1.53173 0
M  V30 1748 C 159.385 0.217704 -2.05751 0
M  V30 1749 C 159.8 1.42018 -1.24404 0
M  V30 1750 O 159.157 1.80245 -0.286033 0
M  V30 1751 C 159.208 0.605954 -3.56385 0
M  V30 1752 O 158.929 -0.548734 -4.3465 0
M  V30 1753 C 160.43 1.2524 -4.25241 0
M  V30 1754 H 157.65 0.0371659 -0.66997 0
M  V30 1755 H 160.194 -0.530832 -1.9749 0
M  V30 1756 H 158.349 1.3044 -3.6478 0
M  V30 1757 H 158.763 -0.23376 -5.23979 0
M  V30 1758 H 160.237 1.47458 -5.3194 0
M  V30 1759 H 160.714 2.2143 -3.79296 0
M  V30 1760 H 161.32 0.595233 -4.21114 0
M  V30 1761 N 159.635 1.57281 -0.100228 0
M  V30 1762 C 160.881 1.94826 0.563101 0
M  V30 1763 C 161.214 0.982475 1.67514 0
M  V30 1764 O 160.489 0.0164069 1.94493 0
M  V30 1765 C 160.772 3.42453 1.11346 0
M  V30 1766 C 160.625 4.498 0.00612081 0
M  V30 1767 C 161.944 3.91506 2.01024 0
M  V30 1768 H 159.063 0.708428 0.203221 0
M  V30 1769 H 161.705 1.8922 -0.171979 0
M  V30 1770 H 159.855 3.47361 1.7399 0
M  V30 1771 H 161.527 4.57 -0.628357 0
M  V30 1772 H 159.77 4.28756 -0.659581 0
M  V30 1773 H 160.441 5.50306 0.432109 0
M  V30 1774 H 162.917 3.88784 1.48278 0
M  V30 1775 H 161.793 4.95358 2.36457 0
M  V30 1776 H 162.054 3.31099 2.92961 0
M  V30 1777 N 161.113 -0.173488 1.56642 0
M  V30 1778 C 162.529 -0.525174 1.50712 0
M  V30 1779 C 162.729 -1.8476 0.804107 0
M  V30 1780 O 161.785 -2.49869 0.363574 0
M  V30 1781 C 163.098 -0.559937 2.95441 0
M  V30 1782 C 164.646 -0.647288 3.06234 0
M  V30 1783 C 165.121 -0.712963 4.52417 0
M  V30 1784 N 166.612 -0.775911 4.56655 0
M  V30 1785 C 167.347 -0.847264 5.67106 0
M  V30 1786 N 166.843 -0.879585 6.87194 0
M  V30 1787 N 168.636 -0.886117 5.55071 0
M  V30 1788 H 160.787 0.693681 2.00753 0
M  V30 1789 H 163.05 0.249841 0.914485 0
M  V30 1790 H 162.756 0.343049 3.50023 0
M  V30 1791 H 162.63 -1.40718 3.49969 0
M  V30 1792 H 165.017 -1.5407 2.51687 0
M  V30 1793 H 165.098 0.226586 2.54794 0
M  V30 1794 H 164.742 0.176183 5.07594 0
M  V30 1795 H 164.672 -1.60295 5.0161 0
M  V30 1796 H 167.163 -0.759304 3.70193 0
M  V30 1797 H 167.476 -0.935144 7.67121 0
M  V30 1798 H 165.821 -0.847898 6.89808 0
M  V30 1799 H 169.012 -0.857853 4.60172 0
M  V30 1800 H 169.185 -0.938263 6.41171 0
M  V30 1801 N 162.591 -1.51276 -0.441967 0
M  V30 1802 C 163.521 -1.752 -1.54361 0
M  V30 1803 C 164.502 -0.601682 -1.59103 0
M  V30 1804 O 165.687 -0.843913 -1.74905 0
M  V30 1805 C 162.817 -1.87282 -2.92477 0
M  V30 1806 C 161.771 -3.02687 -3.02596 0
M  V30 1807 C 161.097 -2.99947 -4.42647 0
M  V30 1808 C 162.397 -4.4273 -2.77106 0
M  V30 1809 H 164.091 -2.67442 -1.34592 0
M  V30 1810 H 161.637 -1.28694 -0.646048 0
M  V30 1811 H 163.59 -2.02602 -3.695 0
M  V30 1812 H 162.314 -0.916844 -3.13467 0
M  V30 1813 H 160.973 -2.87065 -2.28012 0
M  V30 1814 H 160.621 -2.02136 -4.60597 0
M  V30 1815 H 160.321 -3.77439 -4.50348 0
M  V30 1816 H 161.845 -3.17354 -5.2165 0
M  V30 1817 H 163.259 -4.58727 -3.43864 0
M  V30 1818 H 161.656 -5.21893 -2.96222 0
M  V30 1819 H 162.726 -4.53087 -1.72744 0
M  V30 1820 N 164.069 0.697108 -1.41344 0
M  V30 1821 C 165.318 1.45279 -1.39918 0
M  V30 1822 C 165.631 1.95597 -0.0109624 0
M  V30 1823 O 166.837 2.71208 0.125919 0
M  V30 1824 C 165.293 2.62695 -2.46007 0
M  V30 1825 C 164.901 2.19169 -3.90729 0
M  V30 1826 C 166.645 3.40336 -2.53715 0
M  V30 1827 C 164.552 3.33535 -4.88373 0
M  V30 1828 H 163.482 0.545692 -0.520323 0
M  V30 1829 H 166.133 0.756929 -1.67161 0
M  V30 1830 H 164.515 3.34541 -2.11892 0
M  V30 1831 H 165.689 1.54623 -4.34083 0
M  V30 1832 H 164.004 1.54525 -3.86666 0
M  V30 1833 H 166.601 4.2547 -3.2385 0
M  V30 1834 H 166.944 3.85418 -1.5735 0
M  V30 1835 H 167.477 2.75546 -2.86913 0
M  V30 1836 H 164.216 2.93468 -5.86137 0
M  V30 1837 H 163.736 3.96936 -4.49668 0
M  V30 1838 H 165.415 3.99335 -5.09059 0
M  V30 1839 N 165.547 1.27147 0.931209 0
M  V30 1840 C 166.772 1.16191 1.71797 0
M  V30 1841 C 167.197 -0.278004 1.86034 0
M  V30 1842 O 166.555 -1.20137 1.35782 0
M  V30 1843 C 166.603 1.84673 3.09723 0
M  V30 1844 O 165.707 1.14231 3.96264 0
M  V30 1845 H 165.048 0.404303 0.526721 0
M  V30 1846 H 167.578 1.68152 1.1656 0
M  V30 1847 H 167.588 1.91893 3.60057 0
M  V30 1848 H 166.263 2.89421 2.98677 0
M  V30 1849 H 164.84 1.15056 3.54706 0
M  V30 1850 N 167.025 -1.13721 1.09112 0
M  V30 1851 C 168.265 -1.86576 0.834801 0
M  V30 1852 C 168.629 -1.81435 -0.628122 0
M  V30 1853 O 169.83 -2.49497 -1.00024 0
M  V30 1854 C 168.101 -3.30872 1.35124 0
M  V30 1855 S 169.66 -4.21257 1.22832 0
M  V30 1856 H 166.478 -0.643666 0.302017 0
M  V30 1857 H 169.08 -1.37085 1.39385 0
M  V30 1858 H 167.784 -3.32166 2.41027 0
M  V30 1859 H 167.315 -3.85423 0.788185 0
M  V30 1860 H 169.33 -4.95884 0.177191 0
M  V30 1861 N 168.503 -0.877838 -1.30888 0
M  V30 1862 C 169.728 -0.506629 -2.01117 0
M  V30 1863 C 170.153 0.895564 -1.65412 0
M  V30 1864 O 169.511 1.5923 -0.866922 0
M  V30 1865 C 169.559 -0.680223 -3.54126 0
M  V30 1866 O 168.663 0.277033 -4.11468 0
M  V30 1867 H 168.004 -0.200518 -0.633 0
M  V30 1868 H 170.534 -1.18342 -1.66902 0
M  V30 1869 H 170.544 -0.5765 -4.03907 0
M  V30 1870 H 169.219 -1.70261 -3.79452 0
M  V30 1871 H 167.796 0.127606 -3.72682 0
M  V30 1872 N 169.982 1.44106 -0.638065 0
M  V30 1873 C 171.23 2.01579 -0.145043 0
M  V30 1874 C 171.551 1.50496 1.24 0
M  V30 1875 O 170.821 0.711374 1.82527 0
M  V30 1876 H 169.401 0.745282 -0.05063 0
M  V30 1877 H 172.063 1.76516 -0.826327 0
M  V30 1878 H 171.159 3.11877 -0.118039 0
M  V30 1879 N 171.46 0.379036 1.52974 0
M  V30 1880 C 172.737 -0.263479 1.93817 0
M  V30 1881 C 173.117 -1.65244 1.31368 0
M  V30 1882 O 172.465 -2.23448 0.477856 0
M  V30 1883 C 172.675 -0.300166 3.47707 0
M  V30 1884 C 174.023 -0.534061 4.21228 0
M  V30 1885 O 175.047 -0.38081 3.54159 0
M  V30 1886 O 173.906 -0.833501 5.40106 0
M  V30 1887 H 171 -0.161149 0.811147 0
M  V30 1888 H 173.546 0.432798 1.64088 0
M  V30 1889 H 172.318 0.673138 3.85467 0
M  V30 1890 H 171.941 -1.04179 3.83709 0
M  V30 1891 N 172.938 -1.57226 0.108567 0
M  V30 1892 C 174.166 -1.99179 -0.559954 0
M  V30 1893 C 174.581 -0.988022 -1.60884 0
M  V30 1894 O 173.938 0.0205512 -1.82488 0
M  V30 1895 C 173.989 -3.41159 -1.19552 0
M  V30 1896 O 173.71 -4.37694 -0.188577 0
M  V30 1897 C 175.211 -3.98188 -1.94837 0
M  V30 1898 H 172.431 -0.654228 -0.149088 0
M  V30 1899 H 174.975 -2.03598 0.19183 0
M  V30 1900 H 173.13 -3.37711 -1.89815 0
M  V30 1901 H 173.544 -5.20469 -0.649014 0
M  V30 1902 H 175.018 -4.99644 -2.34648 0
M  V30 1903 H 175.495 -3.3675 -2.81951 0
M  V30 1904 H 176.101 -4.0515 -1.2936 0
M  V30 1905 N 174.416 0.165178 -1.56732 0
M  V30 1906 C 175.664 0.879068 -1.8198 0
M  V30 1907 C 175.985 1.82514 -0.686561 0
M  V30 1908 O 175.255 1.93694 0.293146 0
M  V30 1909 H 173.835 0.327608 -0.671329 0
M  V30 1910 H 176.497 0.163526 -1.94213 0
M  V30 1911 H 175.593 1.45228 -2.76252 0
M  V30 1912 N 175.894 1.51508 0.433938 0
M  V30 1913 C 177.119 1.68443 1.21003 0
M  V30 1914 C 177.544 0.382636 1.84167 0
M  V30 1915 O 176.902 -0.65755 1.68956 0
M  V30 1916 C 176.95 2.80405 2.26727 0
M  V30 1917 O 176.054 2.44245 3.32292 0
M  V30 1918 H 175.395 0.561536 0.354363 0
M  V30 1919 H 177.925 1.9809 0.512024 0
M  V30 1920 H 177.935 3.0459 2.71457 0
M  V30 1921 H 176.61 3.74867 1.80132 0
M  V30 1922 H 175.187 2.30644 2.93015 0
M  V30 1923 N 177.372 -0.689602 1.41712 0
M  V30 1924 C 178.302 -1.81577 1.46806 0
M  V30 1925 C 179.283 -1.66945 0.326105 0
M  V30 1926 O 180.468 -1.86588 0.538377 0
M  V30 1927 C 177.598 -3.19762 1.35535 0
M  V30 1928 C 176.552 -3.49107 2.47605 0
M  V30 1929 C 175.878 -4.86711 2.21397 0
M  V30 1930 C 177.178 -3.47483 3.89939 0
M  V30 1931 H 178.872 -1.7757 2.41058 0
M  V30 1932 H 176.418 -0.852887 1.16025 0
M  V30 1933 H 178.371 -3.98263 1.3771 0
M  V30 1934 H 177.095 -3.24409 0.377708 0
M  V30 1935 H 175.754 -2.72959 2.44722 0
M  V30 1936 H 175.402 -4.8799 1.21961 0
M  V30 1937 H 175.102 -5.0731 2.96497 0
M  V30 1938 H 176.626 -5.67515 2.25297 0
M  V30 1939 H 178.04 -4.1598 3.94505 0
M  V30 1940 H 176.437 -3.79615 4.64771 0
M  V30 1941 H 177.507 -2.46341 4.17665 0
M  V30 1942 N 178.85 -1.27639 -0.924453 0
M  V30 1943 C 180.099 -1.13549 -1.66702 0
M  V30 1944 C 180.412 0.317487 -1.93006 0
M  V30 1945 O 181.618 0.579333 -2.65247 0
M  V30 1946 C 180.074 -1.98426 -3.00259 0
M  V30 1947 C 179.682 -3.484 -2.81641 0
M  V30 1948 C 181.426 -1.92993 -3.78092 0
M  V30 1949 C 179.333 -4.25464 -4.10773 0
M  V30 1950 H 178.263 -0.421351 -0.625283 0
M  V30 1951 H 180.914 -1.52085 -1.02676 0
M  V30 1952 H 179.296 -1.52736 -3.6536 0
M  V30 1953 H 180.47 -4.01973 -2.25287 0
M  V30 1954 H 178.785 -3.55245 -2.17232 0
M  V30 1955 H 181.382 -2.47844 -4.7379 0
M  V30 1956 H 181.725 -0.904281 -4.0636 0
M  V30 1957 H 182.258 -2.36595 -3.19793 0
M  V30 1958 H 178.997 -5.28566 -3.87683 0
M  V30 1959 H 178.517 -3.76667 -4.66779 0
M  V30 1960 H 180.196 -4.34812 -4.79111 0
M  V30 1961 N 180.328 1.1314 -1.09713 0
M  V30 1962 C 181.258 2.20748 -0.761102 0
M  V30 1963 C 182.239 1.68061 0.262566 0
M  V30 1964 O 183.424 1.93765 0.129977 0
M  V30 1965 C 180.554 3.46812 -0.184054 0
M  V30 1966 C 179.508 4.12606 -1.13757 0
M  V30 1967 C 178.834 5.33031 -0.422083 0
M  V30 1968 C 180.134 4.59603 -2.48118 0
M  V30 1969 H 181.828 2.49113 -1.66082 0
M  V30 1970 H 179.374 1.19734 -0.799987 0
M  V30 1971 H 181.327 4.21353 0.0631215 0
M  V30 1972 H 180.051 3.17851 0.750868 0
M  V30 1973 H 178.71 3.40036 -1.37007 0
M  V30 1974 H 178.358 5.00335 0.517072 0
M  V30 1975 H 178.058 5.77999 -1.05788 0
M  V30 1976 H 179.582 6.10325 -0.183277 0
M  V30 1977 H 180.996 5.25552 -2.29059 0
M  V30 1978 H 179.393 5.15321 -3.07514 0
M  V30 1979 H 180.463 3.73971 -3.08665 0
M  V30 1980 N 181.806 0.884767 1.30421 0
M  V30 1981 C 182.769 0.356277 2.26414 0
M  V30 1982 C 183.769 -0.501124 1.52792 0
M  V30 1983 O 184.959 -0.30831 1.7145 0
M  V30 1984 C 182.091 -0.492316 3.37326 0
M  V30 1985 H 183.284 1.20389 2.74675 0
M  V30 1986 H 180.837 0.661607 1.41607 0
M  V30 1987 H 181.572 -1.36052 2.94381 0
M  V30 1988 H 181.357 0.121832 3.91911 0
M  V30 1989 H 182.847 -0.853871 4.08777 0
M  V30 1990 N 183.284 -1.43765 0.645699 0
M  V30 1991 C 184.561 -1.9541 0.0862963 0
M  V30 1992 C 184.941 -1.58725 -1.39175 0
M  V30 1993 O 184.289 -0.868581 -2.11348 0
M  V30 1994 C 184.499 -3.47488 0.324565 0
M  V30 1995 C 185.847 -4.24001 0.225497 0
M  V30 1996 O 186.871 -3.55274 0.256715 0
M  V30 1997 O 185.73 -5.46313 0.142801 0
M  V30 1998 H 182.824 -0.826882 -0.0139483 0
M  V30 1999 H 185.37 -1.53743 0.718415 0
M  V30 2000 H 184.142 -3.67289 1.3496 0
M  V30 2001 H 183.765 -3.96135 -0.340987 0
M  V30 2002 N 184.763 -0.387143 -1.52771 0
M  V30 2003 C 186.011 0.195349 -2.01154 0
M  V30 2004 C 186.332 1.475 -1.27549 0
M  V30 2005 O 185.602 1.91878 -0.394924 0
M  V30 2006 H 184.182 0.075178 -0.743207 0
M  V30 2007 H 186.844 -0.518337 -1.87881 0
M  V30 2008 H 185.94 0.407096 -3.09434 0
M  V30 2009 N 186.241 1.57166 -0.116904 0
M  V30 2010 C 187.188 2.15202 0.83408 0
M  V30 2011 C 188.158 1.07644 1.26499 0
M  V30 2012 O 189.343 1.35541 1.34288 0
M  V30 2013 C 186.483 2.75405 2.07957 0
M  V30 2014 C 185.596 3.97264 1.69721 0
M  V30 2015 C 184.731 4.45561 2.89221 0
M  V30 2016 C 183.77 5.59956 2.47215 0
M  V30 2017 N 182.907 6.03006 3.59622 0
M  V30 2018 H 187.747 2.96141 0.332335 0
M  V30 2019 H 185.284 1.46309 0.152349 0
M  V30 2020 H 187.242 3.08439 2.80929 0
M  V30 2021 H 185.872 1.97159 2.55594 0
M  V30 2022 H 184.924 3.70404 0.866316 0
M  V30 2023 H 186.236 4.80226 1.34849 0
M  V30 2024 H 185.39 4.80493 3.7042 0
M  V30 2025 H 184.129 3.61544 3.27318 0
M  V30 2026 H 183.134 5.2463 1.64448 0
M  V30 2027 H 184.359 6.45738 2.10238 0
M  V30 2028 H 182.305 5.21931 3.97396 0
M  V30 2029 H 182.222 6.80819 3.28667 0
M  V30 2030 H 183.49 6.42576 4.41267 0
M  V30 2031 N 187.719 -0.156864 1.56817 0
M  V30 2032 C 188.967 -0.869404 1.82444 0
M  V30 2033 C 189.288 -1.82147 0.69623 0
M  V30 2034 O 188.558 -1.93847 -0.28287 0
M  V30 2035 H 187.138 -0.324043 0.673056 0
M  V30 2036 H 189.8 -0.153224 1.94297 0
M  V30 2037 H 188.896 -1.43761 2.77019 0
M  V30 2038 N 189.197 -1.51736 -0.425897 0
M  V30 2039 C 190.474 -1.55519 -1.1863 0
M  V30 2040 C 190.854 -0.326219 -2.08564 0
M  V30 2041 O 190.202 0.688012 -2.17896 0
M  V30 2042 C 190.412 -2.87521 -1.9782 0
M  V30 2043 C 191.76 -3.39899 -2.54468 0
M  V30 2044 O 192.784 -2.89148 -2.08019 0
M  V30 2045 O 191.643 -4.2848 -3.39215 0
M  V30 2046 H 188.737 -0.625739 -0.540721 0
M  V30 2047 H 191.283 -1.64055 -0.434038 0
M  V30 2048 H 190.055 -3.68422 -1.31836 0
M  V30 2049 H 189.678 -2.822 -2.80088 0
M  V30 2050 N 190.675 0.682077 -1.42076 0
M  V30 2051 C 191.605 1.80796 -1.47767 0
M  V30 2052 C 192.586 1.6677 -0.334954 0
M  V30 2053 O 193.771 1.863 -0.548264 0
M  V30 2054 C 190.901 3.19038 -1.37229 0
M  V30 2055 C 189.855 3.47789 -2.49453 0
M  V30 2056 C 189.181 4.8553 -2.23975 0
M  V30 2057 C 190.481 3.45411 -3.91776 0
M  V30 2058 H 192.175 1.7629 -2.41997 0
M  V30 2059 H 189.721 0.846721 -1.16476 0
M  V30 2060 H 191.674 3.97528 -1.39821 0
M  V30 2061 H 190.398 3.24204 -0.394907 0
M  V30 2062 H 189.057 2.71657 -2.46166 0
M  V30 2063 H 188.705 4.87337 -1.24547 0
M  V30 2064 H 188.405 5.0573 -2.99184 0
M  V30 2065 H 189.929 5.66312 -2.28304 0
M  V30 2066 H 191.343 4.13882 -3.96705 0
M  V30 2067 H 189.74 3.77145 -4.66778 0
M  V30 2068 H 190.81 2.44122 -4.18966 0
M  V30 2069 N 192.153 1.28127 0.917671 0
M  V30 2070 C 193.1 1.11717 2.0196 0
M  V30 2071 C 194.07 0.0153929 1.66093 0
M  V30 2072 O 195.255 0.179596 1.89953 0
M  V30 2073 C 192.395 0.780927 3.36148 0
M  V30 2074 C 191.508 1.96135 3.84909 0
M  V30 2075 C 190.643 1.56609 5.0759 0
M  V30 2076 C 189.682 2.71339 5.48673 0
M  V30 2077 N 188.819 2.32332 6.62545 0
M  V30 2078 H 193.659 2.06003 2.15329 0
M  V30 2079 H 191.196 1.02535 1.05475 0
M  V30 2080 H 193.154 0.56675 4.13333 0
M  V30 2081 H 191.784 -0.124998 3.22558 0
M  V30 2082 H 190.836 2.28777 3.03916 0
M  V30 2083 H 192.148 2.82165 4.1132 0
M  V30 2084 H 191.302 1.31374 5.92305 0
M  V30 2085 H 190.041 0.677014 4.82978 0
M  V30 2086 H 189.046 2.97276 4.62501 0
M  V30 2087 H 190.271 3.60882 5.75274 0
M  V30 2088 H 188.217 1.45889 6.39572 0
M  V30 2089 H 188.134 3.11899 6.88662 0
M  V30 2090 H 189.402 2.10371 7.50576 0
M  V30 2091 N 193.631 -1.12557 1.10312 0
M  V30 2092 C 194.871 -1.8568 0.854543 0
M  V30 2093 C 195.235 -1.82091 -0.608843 0
M  V30 2094 O 196.436 -2.50544 -0.973717 0
M  V30 2095 C 194.707 -3.2942 1.38626 0
M  V30 2096 S 196.266 -4.19931 1.27293 0
M  V30 2097 H 193.084 -0.640427 0.308827 0
M  V30 2098 H 195.686 -1.35599 1.40831 0
M  V30 2099 H 194.39 -3.2959 2.44537 0
M  V30 2100 H 193.921 -3.84566 0.82902 0
M  V30 2101 H 195.936 -4.95668 0.229776 0
M  V30 2102 N 195.109 -0.891671 -1.2995 0
M  V30 2103 C 196.059 -0.334811 -2.25528 0
M  V30 2104 C 197.043 0.540553 -1.51548 0
M  V30 2105 O 198.235 0.383882 -1.72787 0
M  V30 2106 C 195.364 0.44374 -3.4042 0
M  V30 2107 C 194.45 -0.44609 -4.21747 0
M  V30 2108 N 194.841 -1.54963 -4.81477 0
M  V30 2109 C 193.139 -0.242415 -4.45341 0
M  V30 2110 C 193.84 -2.10015 -5.42465 0
M  V30 2111 N 192.816 -1.39423 -5.25416 0
M  V30 2112 H 196.618 -1.17792 -2.69262 0
M  V30 2113 H 194.132 -0.741822 -1.44467 0
M  V30 2114 H 196.129 0.859362 -4.07947 0
M  V30 2115 H 194.789 1.28421 -2.98225 0
M  V30 2116 H 195.8 -1.93244 -4.80497 0
M  V30 2117 H 192.477 0.560342 -4.13723 0
M  V30 2118 H 193.867 -3.02724 -5.9984 0
M  V30 2119 N 196.587 1.43421 -0.653314 0
M  V30 2120 C 197.836 2.01032 -0.164076 0
M  V30 2121 C 198.149 1.52147 1.22926 0
M  V30 2122 O 199.355 2.02031 1.81371 0
M  V30 2123 C 197.811 3.59082 -0.24252 0
M  V30 2124 C 197.419 4.1696 -1.63855 0
M  V30 2125 C 199.163 4.24079 0.18911 0
M  V30 2126 C 197.07 5.67304 -1.67092 0
M  V30 2127 H 196 0.751798 -0.0575769 0
M  V30 2128 H 198.651 1.6439 -0.815362 0
M  V30 2129 H 197.033 3.93125 0.476276 0
M  V30 2130 H 198.207 3.94416 -2.38271 0
M  V30 2131 H 196.522 3.64335 -2.01616 0
M  V30 2132 H 199.119 5.34381 0.184775 0
M  V30 2133 H 199.462 3.98005 1.22056 0
M  V30 2134 H 199.995 3.94918 -0.477938 0
M  V30 2135 H 196.734 5.98145 -2.68146 0
M  V30 2136 H 196.254 5.91904 -0.970014 0
M  V30 2137 H 197.933 6.31344 -1.4147 0
M  V30 2138 N 198.065 0.39524 1.52563 0
M  V30 2139 C 199.293 -0.184943 2.06072 0
M  V30 2140 C 199.708 -1.40021 1.26647 0
M  V30 2141 O 199.065 -1.79767 0.314672 0
M  V30 2142 C 199.116 -0.549179 3.57304 0
M  V30 2143 O 198.837 0.617813 4.33722 0
M  V30 2144 C 200.338 -1.18459 4.2718 0
M  V30 2145 H 197.558 -0.0265025 0.670476 0
M  V30 2146 H 200.102 0.562184 1.96621 0
M  V30 2147 H 198.257 -1.2462 3.66809 0
M  V30 2148 H 198.671 0.317091 5.23541 0
M  V30 2149 H 200.145 -1.38976 5.34219 0
M  V30 2150 H 200.622 -2.15368 3.82771 0
M  V30 2151 H 201.228 -0.528163 4.22008 0
M  V30 2152 N 199.544 -1.57102 0.125237 0
M  V30 2153 C 200.507 -2.14471 -0.80838 0
M  V30 2154 C 201.507 -1.0811 -1.19033 0
M  V30 2155 O 202.697 -1.33856 -1.11482 0
M  V30 2156 C 199.829 -2.69005 -2.09402 0
M  V30 2157 H 201.022 -2.98297 -0.309696 0
M  V30 2158 H 198.575 -1.55807 -0.124051 0
M  V30 2159 H 199.31 -1.88785 -2.63687 0
M  V30 2160 H 199.095 -3.46799 -1.82957 0
M  V30 2161 H 200.585 -3.13278 -2.76128 0
M  V30 2162 N 201.022 0.148545 -1.56898 0
M  V30 2163 C 201.97 1.20265 -1.99096 0
M  V30 2164 C 202.964 1.44559 -0.883123 0
M  V30 2165 O 204.17 1.4487 -1.0683 0
M  V30 2166 H 200.545 0.404786 -0.63376 0
M  V30 2167 H 202.516 0.82004 -2.86911 0
M  V30 2168 C 201.265 2.52886 -2.3863 0
M  V30 2169 H 200.588 2.35021 -3.23427 0
M  V30 2170 H 202.028 3.25274 -2.7198 0
M  V30 2171 C 200.487 3.13315 -1.23837 0
M  V30 2172 O 201.017 3.98077 -0.538268 0
M  V30 2173 N 199.223 2.72742 -1.00301 0
M  V30 2174 H 198.77 2.03912 -1.5741 0
M  V30 2175 H 198.728 3.13507 -0.236838 0
M  V30 2176 N 202.5 1.5196 0.417844 0
M  V30 2177 C 203.911 1.57851 0.997 0
M  V30 2178 C 204.262 0.413714 1.91789 0
M  V30 2179 O 203.387 -0.467057 2.113 0
M  V30 2180 C 203.982 2.86085 1.81496 0
M  V30 2181 C 202.541 2.94483 2.34428 0
M  V30 2182 C 201.688 2.52707 1.14169 0
M  V30 2183 H 204.639 1.57455 0.198392 0
M  V30 2184 H 204.66 2.70947 2.67148 0
M  V30 2185 H 204.172 3.70842 1.14446 0
M  V30 2186 H 202.273 2.142 3.04875 0
M  V30 2187 H 202.386 3.98546 2.65891 0
M  V30 2188 H 200.75 2.06353 1.49301 0
M  V30 2189 H 201.533 3.39828 0.486999 0
M  V30 2190 N 203.978 -0.674533 1.42435 0
M  V30 2191 C 205.225 -1.43459 1.42919 0
M  V30 2192 C 205.553 -1.94446 0.0457312 0
M  V30 2193 O 204.808 -1.7132 -0.94593 0
M  V30 2194 C 205.107 -2.64767 2.40069 0
M  V30 2195 C 204.773 -2.3232 3.86443 0
M  V30 2196 C 203.435 -2.23182 4.26314 0
M  V30 2197 C 205.787 -2.05977 4.78773 0
M  V30 2198 C 203.115 -1.85827 5.56494 0
M  V30 2199 C 205.467 -1.70125 6.09295 0
M  V30 2200 C 204.131 -1.59498 6.48164 0
M  V30 2201 H 203.401 -0.524952 0.522978 0
M  V30 2202 H 206.048 -0.769097 1.75377 0
M  V30 2203 H 204.353 -3.36349 2.00939 0
M  V30 2204 H 206.05 -3.22949 2.37707 0
M  V30 2205 H 202.64 -2.40334 3.54877 0
M  V30 2206 H 206.824 -2.11969 4.48757 0
M  V30 2207 H 202.08 -1.76168 5.8547 0
M  V30 2208 H 206.254 -1.48767 6.80324 0
M  V30 2209 H 203.881 -1.30322 7.48946 0
M  V30 2210 N 205.456 -1.28612 -0.910864 0
M  V30 2211 C 206.403 -1.12786 -2.01365 0
M  V30 2212 C 207.373 -0.024201 -1.66082 0
M  V30 2213 O 208.558 -0.189667 -1.89855 0
M  V30 2214 C 205.698 -0.798743 -3.35729 0
M  V30 2215 C 204.811 -1.98173 -3.83864 0
M  V30 2216 C 203.946 -1.59298 -5.06752 0
M  V30 2217 C 202.985 -2.74245 -5.47226 0
M  V30 2218 N 202.122 -2.35842 -6.61304 0
M  V30 2219 H 206.962 -2.07142 -2.14234 0
M  V30 2220 H 204.499 -1.03093 -1.0493 0
M  V30 2221 H 206.457 -0.588662 -4.13026 0
M  V30 2222 H 205.087 0.10789 -3.2262 0
M  V30 2223 H 204.139 -2.30386 -3.02699 0
M  V30 2224 H 205.451 -2.84343 -4.09818 0
M  V30 2225 H 204.605 -1.34513 -5.916 0
M  V30 2226 H 203.344 -0.702618 -4.82612 0
M  V30 2227 H 202.349 -2.99725 -4.60918 0
M  V30 2228 H 203.574 -3.63928 -5.73353 0
M  V30 2229 H 201.52 -1.49279 -6.38789 0
M  V30 2230 H 201.437 -3.15546 -6.86998 0
M  V30 2231 H 202.705 -2.14348 -7.4945 0
M  V30 2232 N 206.934 1.1197 -1.10907 0
M  V30 2233 C 208.18 1.8386 -0.855773 0
M  V30 2234 C 208.513 1.84134 0.617103 0
M  V30 2235 O 207.788 1.29041 1.45529 0
M  V30 2236 C 208.071 3.31305 -1.411 0
M  V30 2237 C 207.924 3.39456 -2.9511 0
M  V30 2238 C 209.243 4.2721 -1.05736 0
M  V30 2239 H 206.362 0.667545 -0.312334 0
M  V30 2240 H 209.004 1.31331 -1.37303 0
M  V30 2241 H 207.154 3.76169 -0.97105 0
M  V30 2242 H 208.826 3.03191 -3.47668 0
M  V30 2243 H 207.069 2.79849 -3.31462 0
M  V30 2244 H 207.74 4.43209 -3.29044 0
M  V30 2245 H 210.216 3.90497 -1.43706 0
M  V30 2246 H 209.092 5.28775 -1.47269 0
M  V30 2247 H 209.353 4.42088 0.0325958 0
M  V30 2248 N 208.412 0.89855 1.29475 0
M  V30 2249 C 209.689 0.443416 1.90508 0
M  V30 2250 C 210.069 -1.07685 1.81569 0
M  V30 2251 O 209.417 -1.9182 1.24166 0
M  V30 2252 C 209.627 0.956708 3.35631 0
M  V30 2253 C 210.975 0.999728 4.12663 0
M  V30 2254 O 211.999 0.904299 3.4453 0
M  V30 2255 O 210.858 1.14289 5.34416 0
M  V30 2256 H 207.952 0.138025 0.815401 0
M  V30 2257 H 210.498 0.98834 1.37949 0
M  V30 2258 H 209.27 2.00067 3.36287 0
M  V30 2259 H 208.893 0.391728 3.95666 0
M  V30 2260 N 209.89 -1.43072 0.660911 0
M  V30 2261 C 210.82 -2.33497 -0.0122829 0
M  V30 2262 C 211.801 -1.49903 -0.803925 0
M  V30 2263 O 212.986 -1.78546 -0.763864 0
M  V30 2264 C 210.116 -3.33363 -0.973994 0
M  V30 2265 C 209.07 -4.27003 -0.291928 0
M  V30 2266 C 208.396 -5.16967 -1.36562 0
M  V30 2267 C 209.696 -5.15816 0.820462 0
M  V30 2268 H 211.39 -2.90038 0.742873 0
M  V30 2269 H 208.936 -1.39461 0.358688 0
M  V30 2270 H 210.889 -3.95524 -1.45392 0
M  V30 2271 H 209.613 -2.75095 -1.7604 0
M  V30 2272 H 208.272 -3.66217 0.167623 0
M  V30 2273 H 207.92 -4.55034 -2.14366 0
M  V30 2274 H 207.62 -5.80441 -0.914454 0
M  V30 2275 H 209.144 -5.82003 -1.84675 0
M  V30 2276 H 210.558 -5.71742 0.422366 0
M  V30 2277 H 208.955 -5.8805 1.19656 0
M  V30 2278 H 210.025 -4.55045 1.67518 0
M  V30 2279 N 211.368 -0.403325 -1.52352 0
M  V30 2280 C 212.614 0.174605 -2.02047 0
M  V30 2281 C 212.947 1.45282 -1.28867 0
M  V30 2282 O 212.222 1.90483 -0.393257 0
M  V30 2283 C 212.505 0.428238 -3.57545 0
M  V30 2284 C 212.358 -0.866248 -4.4138 0
M  V30 2285 C 213.677 1.21287 -4.23057 0
M  V30 2286 H 210.796 0.0619851 -0.734389 0
M  V30 2287 H 213.438 -0.53565 -1.82293 0
M  V30 2288 H 211.588 1.03327 -3.74507 0
M  V30 2289 H 213.26 -1.50265 -4.3614 0
M  V30 2290 H 211.503 -1.47851 -4.07827 0
M  V30 2291 H 212.174 -0.643249 -5.48239 0
M  V30 2292 H 214.65 0.700703 -4.10158 0
M  V30 2293 H 213.526 1.35909 -5.31808 0
M  V30 2294 H 213.787 2.23193 -3.81625 0
M  V30 2295 N 212.846 1.57033 -0.133567 0
M  V30 2296 C 214.071 2.00475 0.531477 0
M  V30 2297 C 214.496 1.01291 1.58499 0
M  V30 2298 O 213.854 -0.0133279 1.81295 0
M  V30 2299 C 213.902 3.42729 1.12113 0
M  V30 2300 O 213.006 3.46498 2.23636 0
M  V30 2301 H 212.347 0.650876 0.131362 0
M  V30 2302 H 214.877 2.03344 -0.22634 0
M  V30 2303 H 214.887 3.81246 1.4531 0
M  V30 2304 H 213.562 4.14428 0.349557 0
M  V30 2305 H 212.139 3.19811 1.91769 0
M  V30 2306 N 214.325 -0.140222 1.56975 0
M  V30 2307 C 215.235 -1.19223 2.02047 0
M  V30 2308 C 216.251 -1.46612 0.937062 0
M  V30 2309 O 217.427 -1.58148 1.24704 0
M  V30 2310 C 214.492 -2.50414 2.39778 0
M  V30 2311 C 213.553 -2.30612 3.621 0
M  V30 2312 C 212.786 -3.55547 3.98023 0
M  V30 2313 O 213.009 -4.62004 3.34528 0
M  V30 2314 O 211.943 -3.47808 4.91237 0
M  V30 2315 H 215.769 -0.839559 2.91865 0
M  V30 2316 H 213.354 -0.349453 1.45256 0
M  V30 2317 H 215.236 -3.27747 2.64877 0
M  V30 2318 H 213.911 -2.85198 1.53114 0
M  V30 2319 H 212.818 -1.51207 3.4218 0
M  V30 2320 H 214.151 -2.00741 4.49404 0
M  V30 2321 N 215.803 -1.52179 -0.40978 0
M  V30 2322 C 216.713 -1.78364 -1.52392 0
M  V30 2323 C 217.729 -0.669183 -1.60617 0
M  V30 2324 O 218.905 -0.954518 -1.77344 0
M  V30 2325 C 215.97 -1.92822 -2.88133 0
M  V30 2326 C 215.031 -3.16725 -2.898 0
M  V30 2327 C 214.264 -3.30483 -4.19067 0
M  V30 2328 O 214.487 -2.49522 -5.12928 0
M  V30 2329 O 213.421 -4.2363 -4.27576 0
M  V30 2330 H 217.247 -2.72931 -1.33201 0
M  V30 2331 H 214.832 -1.37016 -0.59557 0
M  V30 2332 H 216.714 -2.04157 -3.68643 0
M  V30 2333 H 215.389 -1.01444 -3.07393 0
M  V30 2334 H 214.296 -3.10848 -2.08146 0
M  V30 2335 H 215.629 -4.07881 -2.75489 0
M  V30 2336 N 217.281 0.66697 -1.42791 0
M  V30 2337 C 218.191 1.80962 -1.49299 0
M  V30 2338 C 219.207 1.69775 -0.381108 0
M  V30 2339 O 220.383 1.91188 -0.633188 0
M  V30 2340 C 217.448 3.17156 -1.40045 0
M  V30 2341 C 216.509 3.40242 -2.6179 0
M  V30 2342 C 215.742 4.69939 -2.52969 0
M  V30 2343 O 215.965 5.48372 -1.56985 0
M  V30 2344 O 214.899 4.94441 -3.43237 0
M  V30 2345 H 218.725 1.78427 -2.45759 0
M  V30 2346 H 216.31 0.823713 -1.24641 0
M  V30 2347 H 218.192 3.98413 -1.37276 0
M  V30 2348 H 216.867 3.20312 -0.467138 0
M  V30 2349 H 215.774 2.58802 -2.70134 0
M  V30 2350 H 217.107 3.41923 -3.54047 0
M  V30 2351 N 218.759 1.29093 0.90403 0
M  V30 2352 C 220.005 1.16986 1.65656 0
M  V30 2353 C 220.338 -0.278925 1.92186 0
M  V30 2354 O 219.613 -1.2019 1.5292 0
M  V30 2355 C 219.896 1.97908 3.0084 0
M  V30 2356 C 219.749 3.50903 2.81403 0
M  V30 2357 C 221.068 1.80208 4.01513 0
M  V30 2358 H 218.187 0.426346 0.601164 0
M  V30 2359 H 220.829 1.58518 1.04747 0
M  V30 2360 H 218.979 1.62616 3.52829 0
M  V30 2361 H 220.651 3.96153 2.36348 0
M  V30 2362 H 218.894 3.76045 2.1627 0
M  V30 2363 H 219.565 4.02791 3.77443 0
M  V30 2364 H 222.041 2.11025 3.58619 0
M  V30 2365 H 220.917 2.39184 4.94047 0
M  V30 2366 H 221.178 0.756119 4.35586 0
M  V30 2367 N 220.237 -1.11381 1.11499 0
M  V30 2368 C 221.483 -1.83403 0.865512 0
M  V30 2369 C 221.816 -1.84459 -0.607329 0
M  V30 2370 O 221.091 -1.29811 -1.44842 0
M  V30 2371 C 221.374 -3.30552 1.42855 0
M  V30 2372 C 221.227 -3.37886 2.96906 0
M  V30 2373 C 222.546 -4.26643 1.08 0
M  V30 2374 H 219.665 -0.665879 0.31587 0
M  V30 2375 H 222.307 -1.30601 1.37998 0
M  V30 2376 H 220.457 -3.75648 0.990985 0
M  V30 2377 H 222.129 -3.01343 3.49271 0
M  V30 2378 H 220.372 -2.78088 3.32941 0
M  V30 2379 H 221.043 -4.41458 3.31389 0
M  V30 2380 H 223.519 -3.89729 1.45775 0
M  V30 2381 H 222.395 -5.27986 1.50072 0
M  V30 2382 H 222.656 -4.42099 -0.00915037 0
M  V30 2383 N 221.715 -0.905404 -1.28997 0
M  V30 2384 C 222.964 -0.530191 -1.94607 0
M  V30 2385 C 223.277 0.929185 -1.72121 0
M  V30 2386 O 224.483 1.41218 -2.31883 0
M  V30 2387 C 222.939 -0.897333 -3.48534 0
M  V30 2388 C 222.547 -2.37587 -3.79811 0
M  V30 2389 C 224.291 -0.592304 -4.20347 0
M  V30 2390 C 222.198 -2.68357 -5.27009 0
M  V30 2391 H 221.128 -0.194558 -0.728466 0
M  V30 2392 H 223.779 -1.10318 -1.46636 0
M  V30 2393 H 222.161 -0.253214 -3.9519 0
M  V30 2394 H 223.335 -3.06602 -3.43994 0
M  V30 2395 H 221.65 -2.6505 -3.2115 0
M  V30 2396 H 224.247 -0.798975 -5.28697 0
M  V30 2397 H 224.59 0.469474 -4.13644 0
M  V30 2398 H 225.123 -1.19452 -3.79442 0
M  V30 2399 H 221.862 -3.73355 -5.38782 0
M  V30 2400 H 221.382 -2.03971 -5.64053 0
M  V30 2401 H 223.061 -2.54922 -5.94663 0
M  V30 2402 N 223.193 1.4272 -0.668489 0
M  V30 2403 C 224.418 2.06484 -0.194758 0
M  V30 2404 C 224.843 1.49862 1.13679 0
M  V30 2405 O 224.201 0.614582 1.70565 0
M  V30 2406 C 224.249 3.60353 -0.133546 0
M  V30 2407 O 223.353 4.02464 0.899806 0
M  V30 2408 H 222.694 0.656137 -0.10188 0
M  V30 2409 H 225.224 1.82964 -0.915722 0
M  V30 2410 H 225.234 4.07976 0.0447041 0
M  V30 2411 H 223.909 4.00938 -1.1055 0
M  V30 2412 H 222.486 3.66402 0.693109 0
M  V30 2413 N 224.671 0.411399 1.52136 0
M  V30 2414 C 225.92 -0.165009 2.01024 0
M  V30 2415 C 226.233 -1.4603 1.30133 0
M  V30 2416 O 227.439 -2.1181 1.69849 0
M  V30 2417 C 225.895 -0.344618 3.58246 0
M  V30 2418 C 225.503 0.938716 4.38055 0
M  V30 2419 C 227.247 -0.876195 4.15359 0
M  V30 2420 C 225.154 0.726172 5.86925 0
M  V30 2421 H 224.084 -0.0654407 0.751155 0
M  V30 2422 H 226.735 0.537192 1.75461 0
M  V30 2423 H 225.117 -1.10921 3.80148 0
M  V30 2424 H 226.291 1.70963 4.27912 0
M  V30 2425 H 224.606 1.39688 3.92271 0
M  V30 2426 H 227.203 -1.05128 5.24263 0
M  V30 2427 H 227.546 -1.85152 3.7286 0
M  V30 2428 H 228.079 -0.170607 3.97434 0
M  V30 2429 H 224.818 1.67312 6.33788 0
M  V30 2430 H 224.338 -0.00540283 5.998 0
M  V30 2431 H 226.017 0.369231 6.45946 0
M  V30 2432 N 226.149 -1.5696 0.141893 0
M  V30 2433 C 227.097 -2.17784 -0.816874 0
M  V30 2434 C 228.091 -1.1334 -1.25899 0
M  V30 2435 O 229.297 -1.316 -1.22806 0
M  V30 2436 H 225.672 -0.697278 -0.281615 0
M  V30 2437 H 227.643 -2.97087 -0.279621 0
M  V30 2438 C 226.392 -2.80983 -2.04802 0
M  V30 2439 H 225.715 -3.61062 -1.7168 0
M  V30 2440 H 227.155 -3.2705 -2.69841 0
M  V30 2441 C 225.614 -1.79228 -2.8527 0
M  V30 2442 O 226.144 -1.25962 -3.8144 0
M  V30 2443 N 224.35 -1.48647 -2.49704 0
M  V30 2444 H 223.897 -1.92155 -1.71564 0
M  V30 2445 H 223.855 -0.808115 -3.03837 0
M  V30 2446 N 227.627 0.131896 -1.57047 0
M  V30 2447 C 228.852 0.860418 -1.8871 0
M  V30 2448 C 229.277 1.73251 -0.73251 0
M  V30 2449 O 228.635 1.785 0.317429 0
M  V30 2450 C 228.683 1.68047 -3.19049 0
M  V30 2451 O 227.787 2.7862 -3.04047 0
M  V30 2452 H 227.128 0.238743 -0.619595 0
M  V30 2453 H 229.658 0.118169 -2.04258 0
M  V30 2454 H 229.668 2.07238 -3.51449 0
M  V30 2455 H 228.343 1.04018 -4.02682 0
M  V30 2456 H 226.92 2.42726 -2.83088 0
M  V30 2457 N 229.106 1.52395 0.401703 0
M  V30 2458 C 230.036 1.79231 1.49661 0
M  V30 2459 C 231.017 0.643654 1.57452 0
M  V30 2460 O 232.202 0.889989 1.72606 0
M  V30 2461 C 229.332 1.94971 2.87409 0
M  V30 2462 C 228.286 3.10604 2.94465 0
M  V30 2463 C 227.612 3.11577 4.34538 0
M  V30 2464 C 228.912 4.49921 2.6527 0
M  V30 2465 H 230.606 2.70917 1.27454 0
M  V30 2466 H 228.152 1.30362 0.6117 0
M  V30 2467 H 230.105 2.12328 3.63999 0
M  V30 2468 H 228.829 0.999632 3.10926 0
M  V30 2469 H 227.488 2.93009 2.20321 0
M  V30 2470 H 227.136 2.14277 4.55076 0
M  V30 2471 H 226.836 3.89247 4.40183 0
M  V30 2472 H 228.36 3.31073 5.13053 0
M  V30 2473 H 229.774 4.67683 3.31581 0
M  V30 2474 H 228.171 5.29564 2.82281 0
M  V30 2475 H 229.241 4.57507 1.60671 0
M  V30 2476 N 230.584 -0.659388 1.43143 0
M  V30 2477 C 231.832 -1.41654 1.44147 0
M  V30 2478 C 232.153 -1.94893 0.0645739 0
M  V30 2479 O 231.423 -1.74044 -0.899198 0
M  V30 2480 H 230.003 -0.525708 0.530697 0
M  V30 2481 H 232.665 -0.778097 1.78694 0
M  V30 2482 H 231.761 -2.26195 2.1504 0
M  V30 2483 N 232.062 -1.29571 -0.897171 0
M  V30 2484 C 232.994 -1.10724 -2.00681 0
M  V30 2485 C 234.007 -0.0540026 -1.6271 0
M  V30 2486 O 235.196 -0.298783 -1.75982 0
M  V30 2487 C 232.296 -0.663912 -3.32333 0
M  V30 2488 C 231.469 -1.79622 -3.98816 0
M  V30 2489 C 230.528 -1.34349 -5.0876 0
M  V30 2490 O 229.554 -2.04864 -5.31055 0
M  V30 2491 N 230.756 -0.215764 -5.80099 0
M  V30 2492 H 233.521 -2.06291 -2.17403 0
M  V30 2493 H 231.082 -1.21544 -1.06951 0
M  V30 2494 H 233.074 -0.344295 -4.03233 0
M  V30 2495 H 231.644 0.199375 -3.11964 0
M  V30 2496 H 230.864 -2.28459 -3.21248 0
M  V30 2497 H 232.152 -2.55535 -4.39976 0
M  V30 2498 H 231.55 0.372091 -5.64475 0
M  V30 2499 H 230.107 0.0444707 -6.51785 0
M  V30 2500 N 233.54 1.10788 -1.12088 0
M  V30 2501 C 234.47 2.19083 -0.807755 0
M  V30 2502 C 235.451 1.6858 0.226859 0
M  V30 2503 O 236.636 1.93997 0.0888475 0
M  V30 2504 C 233.766 3.46344 -0.257576 0
M  V30 2505 C 232.72 4.101 -1.22483 0
M  V30 2506 C 232.046 5.32016 -0.535052 0
M  V30 2507 C 233.346 4.54236 -2.57811 0
M  V30 2508 H 235.04 2.45534 -1.71328 0
M  V30 2509 H 232.586 1.1801 -0.825205 0
M  V30 2510 H 234.539 4.21392 -0.0262679 0
M  V30 2511 H 233.263 3.19373 0.683278 0
M  V30 2512 H 231.922 3.37054 -1.44189 0
M  V30 2513 H 231.57 5.01319 0.410827 0
M  V30 2514 H 231.27 5.75625 -1.18024 0
M  V30 2515 H 232.794 6.09799 -0.312695 0
M  V30 2516 H 234.208 5.20575 -2.40155 0
M  V30 2517 H 232.605 5.08682 -3.18375 0
M  V30 2518 H 233.675 3.6734 -3.16528 0
M  V30 2519 N 235.018 0.912232 1.28515 0
M  V30 2520 C 236.248 0.559604 1.98877 0
M  V30 2521 C 236.656 -0.863113 1.68366 0
M  V30 2522 O 235.999 -1.58304 0.931969 0
M  V30 2523 C 236.061 0.68703 3.52874 0
M  V30 2524 C 235.725 2.07901 4.06972 0
M  V30 2525 C 236.722 3.05157 4.20922 0
M  V30 2526 C 234.407 2.39178 4.417 0
M  V30 2527 C 236.401 4.31806 4.68852 0
M  V30 2528 C 234.088 3.66068 4.89324 0
M  V30 2529 C 235.086 4.62195 5.02856 0
M  V30 2530 O 234.774 5.86829 5.49442 0
M  V30 2531 H 234.506 0.212191 0.641834 0
M  V30 2532 H 237.06 1.22712 1.64715 0
M  V30 2533 H 235.29 -0.0375486 3.86682 0
M  V30 2534 H 236.979 0.341727 4.04459 0
M  V30 2535 H 237.745 2.82311 3.94367 0
M  V30 2536 H 233.624 1.65109 4.30418 0
M  V30 2537 H 237.168 5.06842 4.79329 0
M  V30 2538 H 233.065 3.88739 5.15318 0
M  V30 2539 H 233.833 5.89597 5.6773 0
M  V30 2540 N 236.496 -1.42363 0.676048 0
M  V30 2541 C 237.743 -2.01522 0.19883 0
M  V30 2542 C 238.071 -1.53456 -1.19505 0
M  V30 2543 O 237.326 -0.727967 -1.81657 0
M  V30 2544 C 237.625 -3.56929 0.183431 0
M  V30 2545 C 237.291 -4.24431 1.52215 0
M  V30 2546 C 235.953 -4.42585 1.8887 0
M  V30 2547 C 238.305 -4.62459 2.40377 0
M  V30 2548 C 235.633 -4.96039 3.13309 0
M  V30 2549 C 237.985 -5.17294 3.64129 0
M  V30 2550 C 236.649 -5.33661 4.00951 0
M  V30 2551 H 235.919 -0.737419 0.0727571 0
M  V30 2552 H 238.566 -1.70531 0.871281 0
M  V30 2553 H 236.871 -3.87594 -0.572532 0
M  V30 2554 H 238.568 -4.00486 -0.203035 0
M  V30 2555 H 235.158 -4.10661 1.22701 0
M  V30 2556 H 239.342 -4.48105 2.13343 0
M  V30 2557 H 234.598 -5.06896 3.41857 0
M  V30 2558 H 238.772 -5.45704 4.32644 0
M  V30 2559 H 236.399 -5.74845 4.9745 0
M  V30 2560 N 237.974 -0.419461 -1.51915 0
M  V30 2561 C 238.884 0.407528 -2.31033 0
M  V30 2562 C 239.9 1.04413 -1.3919 0
M  V30 2563 O 241.076 1.0434 -1.72265 0
M  V30 2564 C 238.141 1.50365 -3.12396 0
M  V30 2565 C 237.202 0.889029 -4.19994 0
M  V30 2566 C 236.435 1.93291 -4.97468 0
M  V30 2567 O 236.658 3.15259 -4.75361 0
M  V30 2568 O 235.592 1.53339 -5.8204 0
M  V30 2569 H 239.418 -0.237865 -3.02767 0
M  V30 2570 H 237.003 -0.182413 -1.48282 0
M  V30 2571 H 238.885 2.13975 -3.63032 0
M  V30 2572 H 237.56 2.13345 -2.43445 0
M  V30 2573 H 236.467 0.215353 -3.7348 0
M  V30 2574 H 237.8 0.302991 -4.91267 0
M  V30 2575 N 239.452 1.56882 -0.150215 0
M  V30 2576 C 240.402 2.13501 0.800071 0
M  V30 2577 C 241.386 1.06368 1.20726 0
M  V30 2578 O 242.578 1.32538 1.17314 0
M  V30 2579 C 239.707 2.76271 2.03787 0
M  V30 2580 C 238.793 3.90533 1.65364 0
M  V30 2581 N 239.184 4.96259 0.977794 0
M  V30 2582 C 237.482 4.013 1.94613 0
M  V30 2583 C 238.183 5.76286 0.791794 0
M  V30 2584 N 237.159 5.27163 1.32666 0
M  V30 2585 H 240.961 2.92615 0.274517 0
M  V30 2586 H 238.475 1.62319 0.0512144 0
M  V30 2587 H 240.472 3.15197 2.72867 0
M  V30 2588 H 239.132 1.98631 2.56857 0
M  V30 2589 H 240.143 5.13953 0.638193 0
M  V30 2590 H 236.82 3.3474 2.4951 0
M  V30 2591 H 238.21 6.71401 0.258894 0
M  V30 2592 N 240.93 -0.123565 1.57115 0
M  V30 2593 C 241.86 -1.15309 2.03042 0
M  V30 2594 C 242.841 -1.43454 0.914061 0
M  V30 2595 O 244.026 -1.53973 1.18347 0
M  V30 2596 C 241.156 -2.48043 2.43089 0
M  V30 2597 C 240.11 -2.3437 3.58127 0
M  V30 2598 C 239.436 -3.72026 3.84059 0
M  V30 2599 C 240.736 -1.80804 4.90007 0
M  V30 2600 H 242.43 -0.771102 2.893 0
M  V30 2601 H 239.976 -0.369479 1.39179 0
M  V30 2602 H 241.929 -3.20311 2.73823 0
M  V30 2603 H 240.653 -2.88122 1.53796 0
M  V30 2604 H 239.312 -1.64551 3.27595 0
M  V30 2605 H 238.96 -4.09582 2.91979 0
M  V30 2606 H 238.66 -3.63732 4.6149 0
M  V30 2607 H 240.184 -4.45806 4.1724 0
M  V30 2608 H 241.598 -2.42886 5.19307 0
M  V30 2609 H 239.995 -1.83343 5.71407 0
M  V30 2610 H 241.065 -0.76528 4.78823 0
M  V30 2611 N 242.408 -1.52605 -0.393616 0
M  V30 2612 C 243.34 -1.73303 -1.49995 0
M  V30 2613 C 244.353 -0.613473 -1.50799 0
M  V30 2614 O 245.542 -0.889049 -1.54784 0
M  V30 2615 C 242.642 -1.77245 -2.88855 0
M  V30 2616 C 241.815 -3.06483 -3.12069 0
M  V30 2617 C 240.874 -3.02033 -4.30886 0
M  V30 2618 O 239.9 -3.75907 -4.27414 0
M  V30 2619 N 241.102 -2.20897 -5.36828 0
M  V30 2620 H 243.867 -2.68756 -1.32629 0
M  V30 2621 H 241.428 -1.51036 -0.583083 0
M  V30 2622 H 243.42 -1.7178 -3.66434 0
M  V30 2623 H 241.99 -0.891993 -2.99603 0
M  V30 2624 H 241.21 -3.25474 -2.22396 0
M  V30 2625 H 242.498 -3.91947 -3.2443 0
M  V30 2626 H 241.896 -1.60336 -5.42502 0
M  V30 2627 H 240.453 -2.21275 -6.13091 0
M  V30 2628 N 243.887 0.651787 -1.4349 0
M  V30 2629 C 245.136 1.40754 -1.44469 0
M  V30 2630 C 245.449 1.95463 -0.0731845 0
M  V30 2631 O 246.655 2.71471 0.0395721 0
M  V30 2632 C 245.111 2.54735 -2.5424 0
M  V30 2633 C 244.719 2.06628 -3.97504 0
M  V30 2634 C 246.463 3.32092 -2.64414 0
M  V30 2635 C 244.37 3.17829 -4.98737 0
M  V30 2636 H 243.3 0.528862 -0.53742 0
M  V30 2637 H 245.951 0.703365 -1.69485 0
M  V30 2638 H 244.333 3.2763 -2.22428 0
M  V30 2639 H 245.507 1.40734 -4.38783 0
M  V30 2640 H 243.822 1.42146 -3.91387 0
M  V30 2641 H 246.419 4.14952 -3.37223 0
M  V30 2642 H 246.762 3.80217 -1.69532 0
M  V30 2643 H 247.295 2.66279 -2.95534 0
M  V30 2644 H 244.034 2.74671 -5.95177 0
M  V30 2645 H 243.554 3.82429 -4.62069 0
M  V30 2646 H 245.233 3.82937 -5.21505 0
M  V30 2647 N 245.365 1.30045 0.890287 0
M  V30 2648 C 246.295 1.18541 2.01172 0
M  V30 2649 C 247.276 0.0773356 1.69924 0
M  V30 2650 O 248.461 0.25845 1.92473 0
M  V30 2651 C 245.591 0.870941 3.36202 0
M  V30 2652 C 244.545 1.93637 3.81692 0
M  V30 2653 C 243.871 1.475 5.13953 0
M  V30 2654 C 245.171 3.34666 4.00994 0
M  V30 2655 H 246.865 2.12359 2.11054 0
M  V30 2656 H 244.411 1.02238 1.01407 0
M  V30 2657 H 246.364 0.777141 4.14172 0
M  V30 2658 H 245.088 -0.102926 3.26438 0
M  V30 2659 H 243.747 2.01972 3.05946 0
M  V30 2660 H 243.395 0.489551 5.00612 0
M  V30 2661 H 243.095 2.1876 5.4536 0
M  V30 2662 H 244.619 1.39489 5.94454 0
M  V30 2663 H 246.033 3.2912 4.69417 0
M  V30 2664 H 244.43 4.03966 4.43769 0
M  V30 2665 H 245.5 3.76949 3.05021 0
M  V30 2666 N 246.843 -1.10192 1.12674 0
M  V30 2667 C 247.793 -2.14754 0.765801 0
M  V30 2668 C 248.777 -1.59154 -0.236409 0
M  V30 2669 O 249.969 -1.76951 -0.0415261 0
M  V30 2670 C 247.098 -3.42563 0.224827 0
M  V30 2671 C 246.184 -4.05091 1.25548 0
M  V30 2672 N 246.575 -4.42287 2.4539 0
M  V30 2673 C 244.873 -4.32186 1.10142 0
M  V30 2674 C 245.574 -4.91441 3.11224 0
M  V30 2675 N 244.55 -4.88405 2.38666 0
M  V30 2676 H 248.352 -2.41309 1.67772 0
M  V30 2677 H 245.866 -1.27339 1.00789 0
M  V30 2678 H 247.863 -4.16868 -0.0519578 0
M  V30 2679 H 246.523 -3.17467 -0.681515 0
M  V30 2680 H 247.534 -4.33902 2.82754 0
M  V30 2681 H 244.211 -4.16735 0.252587 0
M  V30 2682 H 245.601 -5.29749 4.13298 0
M  V30 2683 N 248.321 -0.919034 -1.28029 0
M  V30 2684 C 249.268 -0.410005 -2.27129 0
M  V30 2685 C 250.238 0.518405 -1.57803 0
M  V30 2686 O 251.423 0.439451 -1.8567 0
M  V30 2687 C 248.563 0.339054 -3.4343 0
M  V30 2688 C 247.676 -0.622468 -4.27492 0
M  V30 2689 C 246.811 0.145567 -5.31001 0
M  V30 2690 C 245.85 -0.809226 -6.06727 0
M  V30 2691 N 244.987 -0.0743728 -7.02061 0
M  V30 2692 H 249.827 -1.26011 -2.70047 0
M  V30 2693 H 247.364 -0.632663 -1.328 0
M  V30 2694 H 249.322 0.789586 -4.0966 0
M  V30 2695 H 247.952 1.15346 -3.01488 0
M  V30 2696 H 247.004 -1.19153 -3.61257 0
M  V30 2697 H 248.316 -1.35252 -4.80113 0
M  V30 2698 H 247.47 0.656417 -6.03139 0
M  V30 2699 H 246.209 0.908643 -4.79161 0
M  V30 2700 H 245.214 -1.3314 -5.33436 0
M  V30 2701 H 246.439 -1.57194 -6.60656 0
M  V30 2702 H 244.385 0.670616 -6.52563 0
M  V30 2703 H 244.302 -0.744157 -7.52329 0
M  V30 2704 H 245.57 0.416109 -7.78389 0
M  V30 2705 N 249.799 1.42003 -0.683588 0
M  V30 2706 C 250.731 2.29183 0.0283068 0
M  V30 2707 C 251.744 1.4415 0.756611 0
M  V30 2708 O 252.933 1.67779 0.609306 0
M  V30 2709 C 250.033 3.21765 1.06398 0
M  V30 2710 C 249.206 4.35496 0.407723 0
M  V30 2711 C 248.265 5.08737 1.34437 0
M  V30 2712 O 247.291 5.62948 0.841318 0
M  V30 2713 N 248.493 5.15075 2.67728 0
M  V30 2714 H 251.258 2.9092 -0.720105 0
M  V30 2715 H 248.819 1.53025 -0.528682 0
M  V30 2716 H 250.811 3.6763 1.69204 0
M  V30 2717 H 249.381 2.61418 1.71404 0
M  V30 2718 H 248.601 3.92165 -0.400012 0
M  V30 2719 H 249.889 5.08776 -0.0490956 0
M  V30 2720 H 249.287 4.72457 3.11129 0
M  V30 2721 H 247.844 5.64556 3.2576 0
M  V30 2722 N 251.277 0.427512 1.51691 0
M  V30 2723 C 252.693 0.0792977 1.59403 0
M  V30 2724 C 252.893 -1.41035 1.43914 0
M  V30 2725 O 251.949 -2.17922 1.27539 0
M  V30 2726 C 253.262 0.590636 2.94842 0
M  V30 2727 C 254.81 0.550215 3.08126 0
M  V30 2728 C 255.285 1.03836 4.46074 0
M  V30 2729 N 256.776 0.995943 4.52366 0
M  V30 2730 C 257.511 1.34463 5.57411 0
M  V30 2731 N 257.007 1.76569 6.69922 0
M  V30 2732 N 258.8 1.26343 5.47717 0
M  V30 2733 H 250.951 1.39687 1.60004 0
M  V30 2734 H 253.214 0.575003 0.753708 0
M  V30 2735 H 252.92 1.63251 3.11516 0
M  V30 2736 H 252.794 0.0102061 3.77199 0
M  V30 2737 H 255.181 -0.482654 2.91126 0
M  V30 2738 H 255.262 1.16693 2.27632 0
M  V30 2739 H 254.906 2.06965 4.63819 0
M  V30 2740 H 254.836 0.398286 5.25092 0
M  V30 2741 H 257.327 0.68661 3.7161 0
M  V30 2742 H 257.64 2.01438 7.46085 0
M  V30 2743 H 255.985 1.80488 6.71155 0
M  V30 2744 H 259.176 0.933209 4.58703 0
M  V30 2745 H 259.349 1.53846 6.29472 0
M  V30 2746 N 252.755 -1.56801 0.158532 0
M  V30 2747 C 253.718 -2.16138 -0.762705 0
M  V30 2748 C 254.718 -1.1061 -1.16713 0
M  V30 2749 O 255.908 -1.36191 -1.08617 0
M  V30 2750 C 253.04 -2.73386 -2.03649 0
M  V30 2751 H 254.233 -2.98886 -0.246354 0
M  V30 2752 H 251.786 -1.56035 -0.0909744 0
M  V30 2753 H 252.521 -1.94335 -2.59623 0
M  V30 2754 H 252.306 -3.50601 -1.75559 0
M  V30 2755 H 253.796 -3.19065 -2.6942 0
M  V30 2756 N 254.233 0.115231 -1.57178 0
M  V30 2757 C 255.196 1.12526 -1.99676 0
M  V30 2758 C 256.196 1.34095 -0.88742 0
M  V30 2759 O 257.386 1.30548 -1.15337 0
M  V30 2760 C 254.518 2.4789 -2.34015 0
M  V30 2761 H 255.711 0.759912 -2.90113 0
M  V30 2762 H 253.264 0.359648 -1.52106 0
M  V30 2763 H 253.999 2.89339 -1.4647 0
M  V30 2764 H 253.784 2.33588 -3.14927 0
M  V30 2765 H 255.274 3.20575 -2.67622 0
M  V30 2766 N 255.711 1.52812 0.385517 0
M  V30 2767 C 256.658 1.77838 1.47113 0
M  V30 2768 C 257.628 0.621757 1.54024 0
M  V30 2769 O 258.813 0.861846 1.70226 0
M  V30 2770 C 255.953 1.95618 2.84302 0
M  V30 2771 C 255.066 3.23316 2.86515 0
M  V30 2772 C 254.201 3.31394 4.15152 0
M  V30 2773 C 253.24 4.53201 4.1143 0
M  V30 2774 N 252.377 4.58542 5.3168 0
M  V30 2775 H 257.217 2.70482 1.25073 0
M  V30 2776 H 254.754 1.34006 0.606692 0
M  V30 2777 H 256.712 2.03912 3.63972 0
M  V30 2778 H 255.342 1.06331 3.04784 0
M  V30 2779 H 254.394 3.24076 1.99195 0
M  V30 2780 H 255.706 4.13045 2.79634 0
M  V30 2781 H 254.86 3.3889 5.03228 0
M  V30 2782 H 253.599 2.39645 4.24761 0
M  V30 2783 H 252.604 4.45827 3.21742 0
M  V30 2784 H 253.829 5.46271 4.03442 0
M  V30 2785 H 251.775 3.69686 5.41912 0
M  V30 2786 H 251.692 5.42148 5.26889 0
M  V30 2787 H 252.96 4.70296 6.21644 0
M  V30 2788 N 257.189 -0.644168 1.43834 0
M  V30 2789 C 258.099 -1.78563 1.52159 0
M  V30 2790 C 259.115 -1.69147 0.408069 0
M  V30 2791 O 260.291 -1.90156 0.663524 0
M  V30 2792 C 257.356 -3.14888 1.45073 0
M  V30 2793 C 256.417 -3.36034 2.6717 0
M  V30 2794 C 255.65 -4.65855 2.60413 0
M  V30 2795 O 255.873 -5.45805 1.65689 0
M  V30 2796 O 254.807 -4.88918 3.5106 0
M  V30 2797 H 258.633 -1.74494 2.48567 0
M  V30 2798 H 256.218 -0.80378 1.25935 0
M  V30 2799 H 258.1 -3.96179 1.43597 0
M  V30 2800 H 256.775 -3.19528 0.518037 0
M  V30 2801 H 255.682 -2.54472 2.74217 0
M  V30 2802 H 257.015 -3.36247 3.59442 0
M  V30 2803 N 258.668 -1.30515 -0.883378 0
M  V30 2804 C 259.616 -1.16941 -2.01066 0
M  V30 2805 C 260.61 -0.0809148 -1.69207 0
M  V30 2806 O 261.816 -0.241877 -1.78367 0
M  V30 2807 H 258.191 -0.361705 -0.659298 0
M  V30 2808 H 260.162 -2.12344 -2.09649 0
M  V30 2809 C 258.911 -0.879694 -3.36388 0
M  V30 2810 H 258.234 -1.70936 -3.61415 0
M  V30 2811 H 259.674 -0.82483 -4.159 0
M  V30 2812 C 258.133 0.417409 -3.34304 0
M  V30 2813 O 258.663 1.43843 -3.75063 0
M  V30 2814 N 256.869 0.429141 -2.87414 0
M  V30 2815 H 256.416 -0.402222 -2.5444 0
M  V30 2816 H 256.374 1.29696 -2.86403 0
M  V30 2817 N 260.146 1.09593 -1.13257 0
M  V30 2818 C 261.056 2.19739 -0.821691 0
M  V30 2819 C 262.072 1.72926 0.19302 0
M  V30 2820 O 263.248 2.01385 0.0244895 0
M  V30 2821 C 260.313 3.45482 -0.290333 0
M  V30 2822 C 259.374 4.06985 -1.36607 0
M  V30 2823 C 258.607 5.26726 -0.859975 0
M  V30 2824 O 258.83 5.69594 0.303082 0
M  V30 2825 O 257.764 5.7931 -1.63351 0
M  V30 2826 H 261.59 2.48781 -1.74189 0
M  V30 2827 H 259.175 1.18496 -0.909894 0
M  V30 2828 H 261.057 4.214 0.000674022 0
M  V30 2829 H 259.732 3.18047 0.602306 0
M  V30 2830 H 258.639 3.32712 -1.71037 0
M  V30 2831 H 259.972 4.38643 -2.23279 0
M  V30 2832 N 261.624 0.925811 1.2754 0
M  V30 2833 C 262.534 0.428993 2.30644 0
M  V30 2834 C 263.55 -0.489387 1.66976 0
M  V30 2835 O 264.726 -0.372653 1.97922 0
M  V30 2836 C 261.791 -0.311967 3.45294 0
M  V30 2837 C 260.852 0.641098 4.24486 0
M  V30 2838 C 260.085 -0.0645955 5.33661 0
M  V30 2839 O 260.308 -1.28429 5.55754 0
M  V30 2840 O 259.242 0.606265 5.98839 0
M  V30 2841 H 263.068 1.28504 2.75173 0
M  V30 2842 H 260.653 0.691086 1.32455 0
M  V30 2843 H 262.535 -0.729972 4.15029 0
M  V30 2844 H 261.21 -1.14365 3.02824 0
M  V30 2845 H 260.117 1.10874 3.57292 0
M  V30 2846 H 261.45 1.43995 4.70666 0
M  V30 2847 N 263.102 -1.41638 0.69111 0
M  V30 2848 C 264.012 -2.34588 0.0233487 0
M  V30 2849 C 265.028 -1.55987 -0.770984 0
M  V30 2850 O 266.204 -1.88486 -0.709569 0
M  V30 2851 C 263.269 -3.34684 -0.904851 0
M  V30 2852 C 262.33 -4.29176 -0.103225 0
M  V30 2853 C 261.563 -5.2449 -0.987216 0
M  V30 2854 O 261.786 -5.2514 -2.22674 0
M  V30 2855 O 260.72 -6.00295 -0.439281 0
M  V30 2856 H 264.546 -2.93261 0.789416 0
M  V30 2857 H 262.131 -1.42417 0.45142 0
M  V30 2858 H 264.013 -3.96133 -1.43724 0
M  V30 2859 H 262.688 -2.78461 -1.65049 0
M  V30 2860 H 261.595 -3.71089 0.473655 0
M  V30 2861 H 262.928 -4.88484 0.60365 0
M  V30 2862 N 264.58 -0.43555 -1.51462 0
M  V30 2863 C 265.808 0.130242 -2.0649 0
M  V30 2864 C 266.223 1.36614 -1.30315 0
M  V30 2865 O 265.58 1.78869 -0.362223 0
M  V30 2866 C 265.631 0.454253 -3.58635 0
M  V30 2867 O 265.352 -0.73259 -4.31931 0
M  V30 2868 C 266.853 1.07091 -4.3017 0
M  V30 2869 H 264.073 0.00871669 -0.670943 0
M  V30 2870 H 266.617 -0.614117 -1.95061 0
M  V30 2871 H 264.772 1.14851 -3.69984 0
M  V30 2872 H 265.186 -0.455787 -5.22516 0
M  V30 2873 H 266.66 1.24764 -5.37716 0
M  V30 2874 H 267.137 2.05144 -3.88346 0
M  V30 2875 H 267.743 0.416089 -4.2326 0
M  V30 2876 N 266.058 1.56714 -0.166846 0
M  V30 2877 C 267.283 2.01557 0.488833 0
M  V30 2878 C 267.708 1.0463 1.56314 0
M  V30 2879 O 267.066 0.0251304 1.81283 0
M  V30 2880 C 267.114 3.4503 1.04818 0
M  V30 2881 O 266.218 3.51163 2.16236 0
M  V30 2882 H 265.559 0.653516 0.117526 0
M  V30 2883 H 268.089 2.02818 -0.269421 0
M  V30 2884 H 268.099 3.84243 1.37191 0
M  V30 2885 H 266.774 4.15077 0.261572 0
M  V30 2886 H 265.351 3.23807 1.84942 0
M  V30 2887 N 267.536 -0.106894 1.57237 0
M  V30 2888 C 268.782 -0.81373 1.85759 0
M  V30 2889 C 269.115 -1.78952 0.754315 0
M  V30 2890 O 268.39 -1.93029 -0.23879 0
M  V30 2891 C 268.673 -1.55293 3.24894 0
M  V30 2892 C 268.526 -0.595929 4.45835 0
M  V30 2893 C 269.845 -2.5063 3.61763 0
M  V30 2894 H 266.964 -0.294369 0.67566 0
M  V30 2895 H 269.606 -0.0776472 1.89841 0
M  V30 2896 H 267.756 -2.1804 3.21544 0
M  V30 2897 H 269.428 0.0236262 4.61294 0
M  V30 2898 H 267.671 0.0916191 4.33703 0
M  V30 2899 H 268.342 -1.15004 5.39887 0
M  V30 2900 H 270.818 -1.97982 3.65981 0
M  V30 2901 H 269.694 -2.99376 4.60071 0
M  V30 2902 H 269.955 -3.3385 2.89821 0
M  V30 2903 N 269.014 -1.53014 -0.377408 0
M  V30 2904 C 270.291 -1.59215 -1.13622 0
M  V30 2905 C 270.671 -0.392407 -2.07421 0
M  V30 2906 O 270.019 0.618342 -2.19975 0
M  V30 2907 C 270.229 -2.93669 -1.88573 0
M  V30 2908 C 271.577 -3.47822 -2.43526 0
M  V30 2909 O 272.601 -2.9562 -1.98715 0
M  V30 2910 O 271.46 -4.39055 -3.25412 0
M  V30 2911 H 268.554 -0.642625 -0.52054 0
M  V30 2912 H 271.1 -1.65353 -0.381625 0
M  V30 2913 H 269.872 -3.7243 -1.20048 0
M  V30 2914 H 269.495 -2.90968 -2.70968 0
M  V30 2915 N 270.492 0.636531 -1.44174 0
M  V30 2916 C 271.72 1.42353 -1.50144 0
M  V30 2917 C 272.135 1.88389 -0.124575 0
M  V30 2918 O 271.492 1.6051 0.868489 0
M  V30 2919 C 271.543 2.64744 -2.46156 0
M  V30 2920 O 271.264 2.20629 -3.7849 0
M  V30 2921 C 272.765 3.57929 -2.61537 0
M  V30 2922 H 269.985 0.436752 -0.5094 0
M  V30 2923 H 272.529 0.778933 -1.89084 0
M  V30 2924 H 270.684 3.25307 -2.10366 0
M  V30 2925 H 271.098 2.99938 -4.30276 0
M  V30 2926 H 272.572 4.40428 -3.32757 0
M  V30 2927 H 273.049 4.06382 -1.66585 0
M  V30 2928 H 273.655 3.03238 -2.98206 0
M  V30 2929 N 271.97 1.30982 0.876444 0
M  V30 2930 C 273.195 1.23373 1.66715 0
M  V30 2931 C 273.62 -0.19885 1.87046 0
M  V30 2932 O 272.978 -1.1427 1.40756 0
M  V30 2933 C 273.026 1.97644 3.01611 0
M  V30 2934 O 272.13 1.30935 3.91062 0
M  V30 2935 H 271.471 0.426279 0.509099 0
M  V30 2936 H 274.001 1.72944 1.09323 0
M  V30 2937 H 274.011 2.06992 3.51594 0
M  V30 2938 H 272.686 3.01829 2.86133 0
M  V30 2939 H 271.263 1.29996 3.49507 0
M  V30 2940 N 273.449 -1.08991 1.13837 0
M  V30 2941 C 274.381 -2.15606 0.777612 0
M  V30 2942 C 275.394 -1.61533 -0.202739 0
M  V30 2943 O 276.583 -1.78491 0.0181055 0
M  V30 2944 C 273.683 -3.3864 0.132623 0
M  V30 2945 C 272.856 -4.22115 1.1462 0
M  V30 2946 C 271.915 -5.23564 0.526074 0
M  V30 2947 O 270.941 -5.56678 1.18735 0
M  V30 2948 N 272.143 -5.76266 -0.699866 0
M  V30 2949 H 274.908 -2.47159 1.69506 0
M  V30 2950 H 272.469 -1.24747 1.03198 0
M  V30 2951 H 274.461 -4.03626 -0.29459 0
M  V30 2952 H 273.031 -3.04938 -0.687849 0
M  V30 2953 H 272.251 -3.53199 1.75055 0
M  V30 2954 H 273.539 -4.74709 1.83109 0
M  V30 2955 H 272.937 -5.51585 -1.25581 0
M  V30 2956 H 271.494 -6.42963 -1.06968 0
M  V30 2957 N 274.927 -0.932562 -1.27047 0
M  V30 2958 C 275.837 -0.441219 -2.30414 0
M  V30 2959 C 276.853 0.480525 -1.67233 0
M  V30 2960 O 278.029 0.362151 -1.98117 0
M  V30 2961 C 275.094 0.293651 -3.45454 0
M  V30 2962 C 274.155 -0.663601 -4.2414 0
M  V30 2963 C 273.388 0.0362932 -5.33688 0
M  V30 2964 O 273.611 1.2548 -5.56427 0
M  V30 2965 O 272.545 -0.638015 -5.98509 0
M  V30 2966 H 276.371 -1.29962 -2.74488 0
M  V30 2967 H 273.956 -0.6981 -1.32087 0
M  V30 2968 H 275.838 0.707951 -4.15411 0
M  V30 2969 H 274.513 1.12758 -3.03426 0
M  V30 2970 H 273.42 -1.12768 -3.56699 0
M  V30 2971 H 274.753 -1.46489 -4.69896 0
M  V30 2972 N 276.405 1.4127 -0.698611 0
M  V30 2973 C 277.353 2.32588 -0.023855 0
M  V30 2974 C 278.347 1.51128 0.765292 0
M  V30 2975 O 279.553 1.67043 0.670571 0
M  V30 2976 H 275.928 0.751918 0.0110871 0
M  V30 2977 H 277.899 2.87167 -0.811031 0
M  V30 2978 C 276.648 3.35947 0.896369 0
M  V30 2979 H 275.971 3.98684 0.298548 0
M  V30 2980 H 277.411 4.02376 1.33676 0
M  V30 2981 C 275.87 2.70076 2.01396 0
M  V30 2982 O 276.4 2.55093 3.10307 0
M  V30 2983 N 274.606 2.28724 1.79259 0
M  V30 2984 H 274.153 2.4111 0.906841 0
M  V30 2985 H 274.111 1.84986 2.54219 0
M  V30 2986 N 277.883 0.443576 1.51229 0
M  V30 2987 C 278.815 -0.400608 2.25672 0
M  V30 2988 C 279.828 -0.980945 1.29928 0
M  V30 2989 O 281.017 -0.874024 1.55638 0
M  V30 2990 C 278.117 -1.57304 3.00181 0
M  V30 2991 C 277.29 -1.11046 4.23069 0
M  V30 2992 C 276.349 -2.15374 4.80105 0
M  V30 2993 O 275.375 -1.74554 5.41774 0
M  V30 2994 N 276.577 -3.47922 4.64683 0
M  V30 2995 H 279.342 0.23745 2.98758 0
M  V30 2996 H 276.903 0.272809 1.59585 0
M  V30 2997 H 278.895 -2.26733 3.35223 0
M  V30 2998 H 277.465 -2.11632 2.30066 0
M  V30 2999 H 276.685 -0.243019 3.9345 0
M  V30 3000 H 277.973 -0.778888 5.02803 0
M  V30 3001 H 277.371 -3.83815 4.15575 0
M  V30 3002 H 275.928 -4.13228 5.0407 0
M  V30 3003 N 279.361 -1.56624 0.175154 0
M  V30 3004 C 280.271 -2.21741 -0.766042 0
M  V30 3005 C 281.287 -1.21023 -1.25018 0
M  V30 3006 O 282.463 -1.53697 -1.3015 0
M  V30 3007 C 279.528 -2.84839 -1.97655 0
M  V30 3008 C 278.589 -4.00769 -1.53892 0
M  V30 3009 C 277.822 -4.60849 -2.69173 0
M  V30 3010 O 278.045 -4.19823 -3.86141 0
M  V30 3011 O 276.979 -5.50655 -2.43028 0
M  V30 3012 H 280.805 -3.02738 -0.241585 0
M  V30 3013 H 278.39 -1.49305 -0.053222 0
M  V30 3014 H 280.272 -3.24834 -2.68442 0
M  V30 3015 H 278.947 -2.06836 -2.48999 0
M  V30 3016 H 277.854 -3.65436 -0.80044 0
M  V30 3017 H 279.187 -4.80376 -1.07236 0
M  V30 3018 N 280.839 0.0985539 -1.57292 0
M  V30 3019 C 282.116 0.834155 -1.76921 0
M  V30 3020 C 282.496 1.97101 -0.755928 0
M  V30 3021 O 281.844 2.27474 0.216245 0
M  V30 3022 C 282.054 1.33194 -3.22584 0
M  V30 3023 C 283.402 1.77611 -3.85668 0
M  V30 3024 O 284.426 1.42825 -3.26312 0
M  V30 3025 O 283.285 2.4192 -4.90038 0
M  V30 3026 H 280.379 0.397628 -0.725135 0
M  V30 3027 H 282.925 0.0807044 -1.69508 0
M  V30 3028 H 281.697 0.517248 -3.87866 0
M  V30 3029 H 281.32 2.1475 -3.34616 0
M  V30 3030 N 282.317 1.53212 0.369288 0
M  V30 3031 C 283.247 1.82365 1.45826 0
M  V30 3032 C 284.228 0.676907 1.56051 0
M  V30 3033 O 285.413 0.926401 1.70679 0
M  V30 3034 C 282.543 2.01023 2.83208 0
M  V30 3035 C 281.497 3.1678 2.8781 0
M  V30 3036 C 280.823 3.20724 4.27832 0
M  V30 3037 C 282.123 4.55447 2.55667 0
M  V30 3038 H 283.817 2.73559 1.21678 0
M  V30 3039 H 281.363 1.3163 0.583911 0
M  V30 3040 H 283.316 2.20001 3.59413 0
M  V30 3041 H 282.04 1.06536 3.08736 0
M  V30 3042 H 280.699 2.97616 2.14056 0
M  V30 3043 H 280.347 2.23882 4.50429 0
M  V30 3044 H 280.047 3.98496 4.31827 0
M  V30 3045 H 281.571 3.41881 5.05915 0
M  V30 3046 H 282.985 4.74611 3.21586 0
M  V30 3047 H 281.382 5.35432 2.70984 0
M  V30 3048 H 282.452 4.60812 1.5093 0
M  V30 3049 N 283.795 -0.628877 1.44509 0
M  V30 3050 C 285.043 -1.38565 1.4712 0
M  V30 3051 C 285.364 -1.94712 0.105899 0
M  V30 3052 O 284.634 -1.75912 -0.862079 0
M  V30 3053 H 283.214 -0.514333 0.541729 0
M  V30 3054 H 285.876 -0.740018 1.80305 0
M  V30 3055 H 284.972 -2.21583 2.19789 0
M  V30 3056 N 285.273 -1.31445 -0.869486 0
M  V30 3057 C 286.203 -1.21727 -1.99261 0
M  V30 3058 C 287.184 -0.104359 -1.6978 0
M  V30 3059 O 288.369 -0.289038 -1.92037 0
M  V30 3060 C 285.499 -0.924317 -3.34774 0
M  V30 3061 C 284.453 -1.99685 -3.78563 0
M  V30 3062 C 283.779 -1.55658 -5.11541 0
M  V30 3063 C 285.079 -3.41003 -3.95619 0
M  V30 3064 H 286.773 -2.1569 -2.07649 0
M  V30 3065 H 284.319 -1.03839 -0.997675 0
M  V30 3066 H 286.272 -0.842934 -4.12883 0
M  V30 3067 H 284.996 0.0509793 -3.2656 0
M  V30 3068 H 283.655 -2.06813 -3.02694 0
M  V30 3069 H 283.303 -0.569132 -4.9977 0
M  V30 3070 H 283.003 -2.27409 -5.41811 0
M  V30 3071 H 284.527 -1.48928 -5.92159 0
M  V30 3072 H 285.941 -3.36547 -4.64122 0
M  V30 3073 H 284.338 -4.10975 -4.37286 0
M  V30 3074 H 285.408 -3.81754 -2.98985 0
M  V30 3075 N 286.751 1.08385 -1.14413 0
M  V30 3076 C 287.997 1.81212 -0.923793 0
M  V30 3077 C 288.352 1.84555 0.543814 0
M  V30 3078 O 287.645 1.31056 1.39767 0
M  V30 3079 C 287.839 3.26273 -1.45879 0
M  V30 3080 C 287.668 3.37063 -2.97689 0
M  V30 3081 C 286.438 3.4824 -3.66138 0
M  V30 3082 C 288.636 3.28698 -3.95553 0
M  V30 3083 N 286.618 3.47824 -5.05858 0
M  V30 3084 C 287.989 3.35276 -5.21527 0
M  V30 3085 C 290.044 3.12437 -3.8767 0
M  V30 3086 C 288.747 3.27267 -6.40538 0
M  V30 3087 C 290.773 3.05757 -5.06228 0
M  V30 3088 C 290.135 3.12938 -6.3107 0
M  V30 3089 H 286.234 0.6769 -0.391574 0
M  V30 3090 H 288.818 1.29455 -1.45429 0
M  V30 3091 H 286.989 3.76474 -0.95507 0
M  V30 3092 H 288.721 3.87165 -1.17835 0
M  V30 3093 H 285.476 3.52141 -3.16692 0
M  V30 3094 H 285.9 3.51171 -5.78798 0
M  V30 3095 H 290.542 3.05747 -2.92025 0
M  V30 3096 H 288.26 3.32718 -7.36427 0
M  V30 3097 H 291.846 2.94295 -5.01878 0
M  V30 3098 H 290.726 3.078 -7.21269 0
M  V30 3099 N 288.23 0.939286 1.26551 0
M  V30 3100 C 289.14 0.453432 2.30176 0
M  V30 3101 C 290.156 -0.471649 1.67486 0
M  V30 3102 O 291.332 -0.35164 1.98306 0
M  V30 3103 C 288.397 -0.275326 3.45605 0
M  V30 3104 C 287.458 0.686084 4.23782 0
M  V30 3105 C 286.691 -0.00798994 5.33699 0
M  V30 3106 O 286.914 -1.22528 5.57085 0
M  V30 3107 O 285.848 0.669746 5.98162 0
M  V30 3108 H 289.674 1.31416 2.73795 0
M  V30 3109 H 287.259 0.705095 1.31715 0
M  V30 3110 H 289.141 -0.685911 4.1578 0
M  V30 3111 H 287.816 -1.11147 3.0402 0
M  V30 3112 H 286.723 1.14658 3.56096 0
M  V30 3113 H 288.056 1.48979 4.69112 0
M  V30 3114 N 289.708 -1.40897 0.706093 0
M  V30 3115 C 290.618 -2.3455 0.0482286 0
M  V30 3116 C 291.634 -1.56796 -0.754396 0
M  V30 3117 O 292.81 -1.89228 -0.689538 0
M  V30 3118 C 289.875 -3.35625 -0.869303 0
M  V30 3119 C 288.936 -4.29261 -0.0576994 0
M  V30 3120 C 288.169 -5.25508 -0.931531 0
M  V30 3121 O 288.392 -5.27472 -2.17092 0
M  V30 3122 O 287.326 -6.00727 -0.375587 0
M  V30 3123 H 291.152 -2.92407 0.820476 0
M  V30 3124 H 288.737 -1.4193 0.4665 0
M  V30 3125 H 290.619 -3.97635 -1.39514 0
M  V30 3126 H 289.294 -2.80196 -1.62086 0
M  V30 3127 H 288.201 -3.70566 0.512988 0
M  V30 3128 H 289.534 -4.87817 0.655426 0
M  V30 3129 N 291.186 -0.45159 -1.50991 0
M  V30 3130 C 292.133 0.352625 -2.2809 0
M  V30 3131 C 293.103 1.0044 -1.32291 0
M  V30 3132 O 294.288 1.02058 -1.6121 0
M  V30 3133 C 291.428 1.43983 -3.13629 0
M  V30 3134 C 290.541 0.804772 -4.24438 0
M  V30 3135 C 289.676 1.86822 -4.97263 0
M  V30 3136 C 288.715 1.21236 -5.99973 0
M  V30 3137 N 287.852 2.2178 -6.66152 0
M  V30 3138 H 292.692 -0.311186 -2.96371 0
M  V30 3139 H 290.229 -0.165308 -1.46168 0
M  V30 3140 H 292.187 2.08161 -3.61559 0
M  V30 3141 H 290.817 2.07307 -2.47434 0
M  V30 3142 H 289.869 0.0509129 -3.80366 0
M  V30 3143 H 291.181 0.286076 -4.97979 0
M  V30 3144 H 290.335 2.58628 -5.48813 0
M  V30 3145 H 289.074 2.42068 -4.23385 0
M  V30 3146 H 288.079 0.479828 -5.47702 0
M  V30 3147 H 289.304 0.667051 -6.75816 0
M  V30 3148 H 287.25 2.76079 -5.95077 0
M  V30 3149 H 287.167 1.74841 -7.35504 0
M  V30 3150 H 288.435 2.93026 -7.22327 0
M  V30 3151 N 292.664 1.56529 -0.183458 0
M  V30 3152 C 293.911 1.97244 0.458357 0
M  V30 3153 C 294.239 1.06992 1.62428 0
M  V30 3154 O 293.494 0.106542 1.9541 0
M  V30 3155 C 293.793 3.43939 0.971637 0
M  V30 3156 C 293.459 4.5083 -0.0796784 0
M  V30 3157 C 292.121 4.79786 -0.368584 0
M  V30 3158 C 294.473 5.15138 -0.792638 0
M  V30 3159 C 291.801 5.70345 -1.37563 0
M  V30 3160 C 294.153 6.06784 -1.78875 0
M  V30 3161 C 292.817 6.34102 -2.08497 0
M  V30 3162 H 292.087 0.721768 0.167725 0
M  V30 3163 H 294.734 1.89472 -0.277976 0
M  V30 3164 H 293.039 3.48724 1.78602 0
M  V30 3165 H 294.736 3.72791 1.47744 0
M  V30 3166 H 291.326 4.28317 0.155668 0
M  V30 3167 H 295.51 4.92868 -0.582659 0
M  V30 3168 H 290.766 5.89789 -1.61118 0
M  V30 3169 H 294.94 6.55677 -2.3465 0
M  V30 3170 H 292.567 7.04074 -2.86678 0
M  V30 3171 N 294.142 -0.090211 1.57342 0
M  V30 3172 C 295.39 -0.791241 1.85967 0
M  V30 3173 C 295.711 -1.7903 0.772859 0
M  V30 3174 O 294.981 -1.94872 -0.200398 0
M  V30 3175 H 293.561 -0.295205 0.686195 0
M  V30 3176 H 296.223 -0.0706782 1.94772 0
M  V30 3177 H 295.319 -1.31882 2.82867 0
M  V30 3178 N 295.62 -1.53406 -0.361157 0
M  V30 3179 C 296.567 -1.80156 -1.44265 0
M  V30 3180 C 297.537 -0.646183 -1.53015 0
M  V30 3181 O 298.722 -0.888818 -1.68833 0
M  V30 3182 C 295.862 -2.00116 -2.81154 0
M  V30 3183 C 294.975 -3.27833 -2.81335 0
M  V30 3184 C 294.11 -3.37957 -4.09828 0
M  V30 3185 C 293.149 -4.59689 -4.04168 0
M  V30 3186 N 292.286 -4.66942 -5.24318 0
M  V30 3187 H 297.126 -2.72438 -1.20754 0
M  V30 3188 H 294.663 -1.34954 -0.585296 0
M  V30 3189 H 296.621 -2.09677 -3.60682 0
M  V30 3190 H 295.251 -1.11167 -3.03054 0
M  V30 3191 H 294.303 -3.27204 -1.94014 0
M  V30 3192 H 295.615 -4.17442 -2.73027 0
M  V30 3193 H 294.769 -3.46853 -4.97773 0
M  V30 3194 H 293.508 -2.46372 -4.20894 0
M  V30 3195 H 292.513 -4.50889 -3.14609 0
M  V30 3196 H 293.738 -5.5262 -3.947 0
M  V30 3197 H 291.684 -3.7826 -5.35962 0
M  V30 3198 H 291.601 -5.50462 -5.18197 0
M  V30 3199 H 292.869 -4.80127 -6.14084 0
M  V30 3200 N 297.098 0.621204 -1.44841 0
M  V30 3201 C 298.345 1.38055 -1.48145 0
M  V30 3202 C 298.673 1.94143 -0.117867 0
M  V30 3203 O 297.928 1.74713 0.881694 0
M  V30 3204 C 298.227 2.55675 -2.4973 0
M  V30 3205 C 297.893 2.17817 -3.94799 0
M  V30 3206 C 296.555 2.07205 -4.34303 0
M  V30 3207 C 298.907 1.88065 -4.86087 0
M  V30 3208 C 296.235 1.65045 -5.63007 0
M  V30 3209 C 298.587 1.47394 -6.15189 0
M  V30 3210 C 297.251 1.35331 -6.53637 0
M  V30 3211 H 296.521 0.505181 -0.542101 0
M  V30 3212 H 299.168 0.703477 -1.78111 0
M  V30 3213 H 297.473 3.2866 -2.13284 0
M  V30 3214 H 299.17 3.13904 -2.4953 0
M  V30 3215 H 295.76 2.26998 -3.63552 0
M  V30 3216 H 299.944 1.95168 -4.56315 0
M  V30 3217 H 295.2 1.54317 -5.91605 0
M  V30 3218 H 299.374 1.23415 -6.85377 0
M  V30 3219 H 297.001 1.02435 -7.53267 0
M  V30 3220 N 298.576 1.31904 0.862503 0
M  V30 3221 C 299.822 1.22197 1.61851 0
M  V30 3222 C 300.155 -0.217641 1.92977 0
M  V30 3223 O 299.43 -1.15264 1.56666 0
M  V30 3224 C 299.713 2.07378 2.94391 0
M  V30 3225 C 299.566 3.59678 2.70096 0
M  V30 3226 C 300.885 1.92891 3.95577 0
M  V30 3227 H 298.004 0.445255 0.587296 0
M  V30 3228 H 300.646 1.6177 0.99651 0
M  V30 3229 H 298.796 1.73758 3.47477 0
M  V30 3230 H 300.468 4.03472 2.23625 0
M  V30 3231 H 298.711 3.82735 2.04197 0
M  V30 3232 H 299.382 4.14595 3.64438 0
M  V30 3233 H 301.858 2.22327 3.51724 0
M  V30 3234 H 300.734 2.54781 4.86187 0
M  V30 3235 H 300.995 0.894315 4.3296 0
M  V30 3236 N 300.054 -1.07777 1.14986 0
M  V30 3237 C 301.331 -1.7699 0.832695 0
M  V30 3238 C 301.711 -2.001 -0.672561 0
M  V30 3239 O 301.059 -1.61598 -1.6155 0
M  V30 3240 C 301.269 -3.08139 1.63863 0
M  V30 3241 C 302.617 -3.8256 1.84208 0
M  V30 3242 O 303.641 -3.17939 1.60603 0
M  V30 3243 O 302.5 -4.98612 2.23714 0
M  V30 3244 H 299.594 -0.768389 0.305791 0
M  V30 3245 H 302.14 -1.14182 1.25541 0
M  V30 3246 H 300.912 -2.86909 2.6608 0
M  V30 3247 H 300.535 -3.78678 1.21197 0
M  V30 3248 N 301.532 -0.945985 -1.26051 0
M  V30 3249 C 302.781 -0.591836 -1.92822 0
M  V30 3250 C 303.094 0.873956 -1.7499 0
M  V30 3251 O 304.3 1.33769 -2.36259 0
M  V30 3252 C 302.756 -1.00776 -3.45503 0
M  V30 3253 C 302.364 -2.4955 -3.7206 0
M  V30 3254 C 304.108 -0.725735 -4.1825 0
M  V30 3255 C 302.015 -2.84988 -5.18205 0
M  V30 3256 H 300.945 -0.217635 -0.721908 0
M  V30 3257 H 303.596 -1.14927 -1.43052 0
M  V30 3258 H 301.978 -0.378812 -3.94184 0
M  V30 3259 H 303.152 -3.1739 -3.34066 0
M  V30 3260 H 301.467 -2.75133 -3.12555 0
M  V30 3261 H 304.064 -0.966771 -5.25887 0
M  V30 3262 H 304.407 0.337639 -4.14929 0
M  V30 3263 H 304.94 -1.31463 -3.7545 0
M  V30 3264 H 301.679 -3.90307 -5.26631 0
M  V30 3265 H 301.199 -2.21813 -5.57278 0
M  V30 3266 H 302.878 -2.73712 -5.86252 0
M  V30 3267 N 303.011 1.40521 -0.713556 0
M  V30 3268 C 303.958 2.30723 -0.059684 0
M  V30 3269 C 304.928 1.48079 0.752448 0
M  V30 3270 O 306.113 1.76823 0.71681 0
M  V30 3271 C 303.253 3.34274 0.857594 0
M  V30 3272 C 302.366 4.31986 0.0351536 0
M  V30 3273 C 301.501 5.22605 0.951724 0
M  V30 3274 C 300.54 6.11976 0.123253 0
M  V30 3275 N 299.677 6.9502 0.99459 0
M  V30 3276 H 304.517 2.86074 -0.834596 0
M  V30 3277 H 302.054 1.40879 -0.42326 0
M  V30 3278 H 304.012 3.92879 1.40364 0
M  V30 3279 H 302.642 2.8043 1.59871 0
M  V30 3280 H 301.694 3.7518 -0.628052 0
M  V30 3281 H 303.006 4.95101 -0.606347 0
M  V30 3282 H 302.16 5.86131 1.56638 0
M  V30 3283 H 300.899 4.59759 1.62705 0
M  V30 3284 H 299.904 5.47482 -0.50435 0
M  V30 3285 H 301.129 6.76881 -0.548539 0
M  V30 3286 H 299.075 6.34764 1.6556 0
M  V30 3287 H 298.992 7.54892 0.40908 0
M  V30 3288 H 300.26 7.62997 1.59549 0
M  V30 3289 N 304.489 0.459591 1.5075 0
M  V30 3290 C 305.452 -0.329093 2.26825 0
M  V30 3291 C 306.452 -0.930481 1.31144 0
M  V30 3292 O 307.642 -0.801453 1.54669 0
M  V30 3293 C 304.774 -1.46768 3.07688 0
M  V30 3294 H 305.967 0.337924 2.9799 0
M  V30 3295 H 303.52 0.213336 1.54837 0
M  V30 3296 H 304.255 -2.17009 2.40993 0
M  V30 3297 H 304.04 -1.04238 3.77991 0
M  V30 3298 H 305.53 -2.02433 3.65254 0
M  V30 3299 N 305.967 -1.56429 0.191757 0
M  V30 3300 C 306.915 -2.20273 -0.747174 0
M  V30 3301 C 307.909 -1.17288 -1.22229 0
M  V30 3302 O 309.115 -1.35441 -1.18557 0
M  V30 3303 H 305.49 -0.705885 -0.259289 0
M  V30 3304 H 307.461 -2.97826 -0.184963 0
M  V30 3305 C 306.21 -2.87356 -1.95759 0
M  V30 3306 H 305.533 -3.66341 -1.60106 0
M  V30 3307 H 306.973 -3.3547 -2.59299 0
M  V30 3308 C 305.432 -1.88213 -2.79423 0
M  V30 3309 O 305.962 -1.38033 -3.7724 0
M  V30 3310 N 304.168 -1.56516 -2.44849 0
M  V30 3311 H 303.715 -1.97516 -1.65364 0
M  V30 3312 H 303.673 -0.904369 -3.01112 0
M  V30 3313 N 307.445 0.0818655 -1.57387 0
M  V30 3314 C 308.693 0.781368 -1.86384 0
M  V30 3315 C 309.014 1.78618 -0.782342 0
M  V30 3316 O 308.284 1.94976 0.190061 0
M  V30 3317 H 306.864 0.291562 -0.687751 0
M  V30 3318 H 309.526 0.060348 -1.94807 0
M  V30 3319 H 308.622 1.3038 -2.83562 0
M  V30 3320 N 308.923 1.53595 0.353017 0
M  V30 3321 C 310.334 1.61937 0.929153 0
M  V30 3322 C 310.685 0.494686 1.89861 0
M  V30 3323 O 309.81 -0.377017 2.1309 0
M  V30 3324 C 310.405 2.93526 1.69199 0
M  V30 3325 C 308.964 3.04161 2.21727 0
M  V30 3326 C 308.111 2.57322 1.03348 0
M  V30 3327 H 311.062 1.58155 0.131431 0
M  V30 3328 H 311.083 2.82034 2.55416 0
M  V30 3329 H 310.595 3.75362 0.986144 0
M  V30 3330 H 308.696 2.26938 2.95516 0
M  V30 3331 H 308.809 4.09465 2.48748 0
M  V30 3332 H 307.173 2.12499 1.40414 0
M  V30 3333 H 307.956 3.41588 0.342428 0
M  V30 3334 N 310.401 -0.613514 1.45168 0
M  V30 3335 C 311.626 -1.40437 1.52618 0
M  V30 3336 C 312.051 -1.87438 0.157707 0
M  V30 3337 O 311.409 -1.59791 -0.856537 0
M  V30 3338 C 311.457 -2.58894 2.51011 0
M  V30 3339 O 310.561 -3.59326 2.02382 0
M  V30 3340 H 309.902 -0.419506 0.514695 0
M  V30 3341 H 312.432 -0.747215 1.90467 0
M  V30 3342 H 312.442 -3.06214 2.69624 0
M  V30 3343 H 311.117 -2.24032 3.50403 0
M  V30 3344 H 309.694 -3.18695 1.93618 0
M  V30 3345 N 311.879 -1.3236 -0.855495 0
M  V30 3346 C 313.104 -1.2601 -1.64731 0
M  V30 3347 C 313.529 0.169068 -1.87339 0
M  V30 3348 O 312.887 1.12016 -1.42556 0
M  V30 3349 C 312.935 -2.02417 -2.98429 0
M  V30 3350 O 312.039 -1.3714 -3.8893 0
M  V30 3351 H 311.38 -0.434325 -0.502253 0
M  V30 3352 H 313.91 -1.74661 -1.06558 0
M  V30 3353 H 313.92 -2.12559 -3.48257 0
M  V30 3354 H 312.595 -3.06343 -2.81295 0
M  V30 3355 H 311.172 -1.3554 -3.47395 0
M  V30 3356 N 313.357 1.07166 -1.15556 0
M  V30 3357 C 314.606 1.79181 -0.926132 0
M  V30 3358 C 314.919 1.87768 0.547967 0
M  V30 3359 O 316.125 2.56323 0.895036 0
M  V30 3360 C 314.581 3.22 -1.60761 0
M  V30 3361 C 314.189 3.21607 -3.11886 0
M  V30 3362 C 315.933 3.9861 -1.4598 0
M  V30 3363 C 313.84 4.59092 -3.72812 0
M  V30 3364 H 312.77 0.67154 -0.342856 0
M  V30 3365 H 315.421 1.2027 -1.3859 0
M  V30 3366 H 313.803 3.81115 -1.07553 0
M  V30 3367 H 314.977 2.72127 -3.71865 0
M  V30 3368 H 313.292 2.58495 -3.2645 0
M  V30 3369 H 315.889 5.00225 -1.88888 0
M  V30 3370 H 316.232 4.143 -0.407541 0
M  V30 3371 H 316.765 3.45996 -1.96295 0
M  V30 3372 H 313.504 4.48606 -4.77946 0
M  V30 3373 H 313.024 5.08803 -3.17616 0
M  V30 3374 H 314.703 5.28059 -3.73848 0
M  V30 3375 N 314.835 0.952656 1.25548 0
M  V30 3376 C 316.083 0.605176 1.92826 0
M  V30 3377 C 316.404 -0.860261 1.74999 0
M  V30 3378 O 315.674 -1.6125 1.11244 0
M  V30 3379 H 314.254 0.220832 0.713612 0
M  V30 3380 H 316.916 1.21047 1.52754 0
M  V30 3381 H 316.012 0.832798 3.00784 0
M  V30 3382 N 316.313 -1.40141 0.720998 0
M  V30 3383 C 317.243 -2.33339 0.0867621 0
M  V30 3384 C 318.224 -1.53178 -0.739622 0
M  V30 3385 O 319.409 -1.81625 -0.687449 0
M  V30 3386 C 316.539 -3.37194 -0.831728 0
M  V30 3387 C 315.493 -4.27857 -0.110558 0
M  V30 3388 C 314.819 -5.22294 -1.14513 0
M  V30 3389 C 316.119 -5.11872 1.0385 0
M  V30 3390 H 317.813 -2.86626 0.865219 0
M  V30 3391 H 315.359 -1.37814 0.417516 0
M  V30 3392 H 317.312 -4.01335 -1.28485 0
M  V30 3393 H 316.036 -2.82314 -1.64214 0
M  V30 3394 H 314.695 -3.65176 0.322797 0
M  V30 3395 H 314.343 -4.63717 -1.94874 0
M  V30 3396 H 314.043 -5.83797 -0.667446 0
M  V30 3397 H 315.567 -5.89312 -1.59824 0
M  V30 3398 H 316.981 -5.69436 0.664482 0
M  V30 3399 H 315.378 -5.82445 1.4449 0
M  V30 3400 H 316.448 -4.4753 1.86668 0
M  V30 3401 N 317.792 -0.46758 -1.50504 0
M  V30 3402 C 319.069 0.15003 -1.95024 0
M  V30 3403 C 319.449 1.57304 -1.40779 0
M  V30 3404 O 318.797 2.20281 -0.607319 0
M  V30 3405 C 319.007 0.0969324 -3.48865 0
M  V30 3406 C 320.355 0.287565 -4.23625 0
M  V30 3407 O 321.379 0.173678 -3.55776 0
M  V30 3408 O 320.238 0.517186 -5.44047 0
M  V30 3409 H 317.332 0.113582 -0.819163 0
M  V30 3410 H 319.878 -0.52773 -1.61286 0
M  V30 3411 H 318.65 -0.896732 -3.80886 0
M  V30 3412 H 318.273 0.816303 -3.8913 0
M  V30 3413 N 319.27 1.56325 -0.20005 0
M  V30 3414 C 320.517 1.97719 0.437411 0
M  V30 3415 C 320.845 1.08709 1.61284 0
M  V30 3416 O 320.1 0.127261 1.95286 0
M  V30 3417 C 320.399 3.4495 0.935103 0
M  V30 3418 C 320.065 4.5072 -0.12749 0
M  V30 3419 C 318.727 4.79368 -0.419451 0
M  V30 3420 C 321.079 5.14268 -0.847231 0
M  V30 3421 C 318.407 5.68854 -1.43604 0
M  V30 3422 C 320.759 6.04852 -1.85301 0
M  V30 3423 C 319.423 6.31855 -2.15211 0
M  V30 3424 H 318.693 0.723507 0.16006 0
M  V30 3425 H 321.34 1.89166 -0.298056 0
M  V30 3426 H 319.645 3.50599 1.74894 0
M  V30 3427 H 321.342 3.74337 1.43781 0
M  V30 3428 H 317.932 4.28458 0.11023 0
M  V30 3429 H 322.116 4.92222 -0.634901 0
M  V30 3430 H 317.372 5.88047 -1.67364 0
M  V30 3431 H 321.546 6.53152 -2.41591 0
M  V30 3432 H 319.173 7.00994 -2.94129 0
M  V30 3433 N 320.748 -0.0735177 1.57428 0
M  V30 3434 C 321.973 -0.789787 1.91774 0
M  V30 3435 C 322.398 -1.70413 0.796306 0
M  V30 3436 O 321.756 -1.79555 -0.250961 0
M  V30 3437 C 321.804 -1.5609 3.25067 0
M  V30 3438 O 320.908 -2.67144 3.14178 0
M  V30 3439 H 320.249 -0.215582 0.628029 0
M  V30 3440 H 322.779 -0.0422781 2.04556 0
M  V30 3441 H 322.789 -1.94052 3.58898 0
M  V30 3442 H 321.464 -0.890015 4.06265 0
M  V30 3443 H 320.041 -2.32052 2.91901 0
M  V30 3444 N 322.226 -1.5378 -0.344866 0
M  V30 3445 C 323.156 -1.84662 -1.42906 0
M  V30 3446 C 324.137 -0.701648 -1.54955 0
M  V30 3447 O 325.322 -0.953438 -1.69184 0
M  V30 3448 C 322.452 -2.05503 -2.79974 0
M  V30 3449 C 321.406 -3.21318 -2.82734 0
M  V30 3450 C 320.732 -3.2749 -4.22675 0
M  V30 3451 C 322.032 -4.59456 -2.48389 0
M  V30 3452 H 323.726 -2.75461 -1.17311 0
M  V30 3453 H 321.272 -1.32542 -0.562896 0
M  V30 3454 H 323.225 -2.25691 -3.55867 0
M  V30 3455 H 321.949 -1.11434 -3.07002 0
M  V30 3456 H 320.608 -3.00984 -2.09294 0
M  V30 3457 H 320.256 -2.31019 -4.4681 0
M  V30 3458 H 319.956 -4.05316 -4.25433 0
M  V30 3459 H 321.48 -3.49887 -5.00412 0
M  V30 3460 H 322.894 -4.79667 -3.13995 0
M  V30 3461 H 321.291 -5.39675 -2.62432 0
M  V30 3462 H 322.361 -4.63155 -1.4358 0
M  V30 3463 N 323.704 0.605807 -1.45491 0
M  V30 3464 C 324.654 1.71074 -1.50724 0
M  V30 3465 C 325.638 1.5658 -0.37033 0
M  V30 3466 O 326.83 1.65887 -0.617299 0
M  V30 3467 C 323.959 3.0983 -1.47852 0
M  V30 3468 C 323.045 3.29704 -2.66751 0
M  V30 3469 N 323.436 3.19831 -3.91844 0
M  V30 3470 C 321.734 3.60579 -2.62486 0
M  V30 3471 C 322.435 3.41083 -4.71208 0
M  V30 3472 N 321.411 3.65157 -4.02693 0
M  V30 3473 H 325.213 1.61937 -2.45263 0
M  V30 3474 H 322.727 0.80912 -1.40808 0
M  V30 3475 H 324.724 3.89101 -1.49686 0
M  V30 3476 H 323.384 3.20115 -0.543714 0
M  V30 3477 H 324.395 2.98194 -4.23439 0
M  V30 3478 H 321.072 3.7769 -1.77922 0
M  V30 3479 H 322.462 3.38828 -5.80211 0
M  V30 3480 N 325.182 1.32811 0.848464 0
M  V30 3481 C 326.43 1.23479 1.59991 0
M  V30 3482 C 326.751 -0.201853 1.93952 0
M  V30 3483 O 326.021 -1.12818 1.60153 0
M  V30 3484 H 324.601 0.454034 0.593179 0
M  V30 3485 H 327.263 1.66412 1.01455 0
M  V30 3486 H 326.359 1.82178 2.53412 0
M  V30 3487 N 326.66 -1.06551 1.16123 0
M  V30 3488 C 327.907 -1.79302 0.941126 0
M  V30 3489 C 328.235 -1.87105 -0.531235 0
M  V30 3490 O 327.49 -1.35692 -1.41018 0
M  V30 3491 C 327.789 -3.23911 1.51052 0
M  V30 3492 C 327.455 -3.36193 3.00475 0
M  V30 3493 C 326.117 -3.39252 3.41265 0
M  V30 3494 C 328.469 -3.38326 3.96465 0
M  V30 3495 C 325.797 -3.42057 4.76669 0
M  V30 3496 C 328.149 -3.4267 5.31752 0
M  V30 3497 C 326.813 -3.4401 5.72026 0
M  V30 3498 H 326.083 -0.656111 0.344382 0
M  V30 3499 H 328.73 -1.25325 1.44796 0
M  V30 3500 H 327.035 -3.80723 0.925063 0
M  V30 3501 H 328.732 -3.78793 1.31593 0
M  V30 3502 H 325.322 -3.34516 2.6795 0
M  V30 3503 H 329.506 -3.35176 3.6602 0
M  V30 3504 H 324.762 -3.41398 5.07206 0
M  V30 3505 H 328.936 -3.43268 6.05921 0
M  V30 3506 H 326.563 -3.45937 6.76928 0
M  V30 3507 N 328.138 -0.959301 -1.25041 0
M  V30 3508 C 329.048 -0.489994 -2.29426 0
M  V30 3509 C 330.064 0.444944 -1.68215 0
M  V30 3510 O 331.24 0.320046 -1.98841 0
M  V30 3511 C 328.305 0.220309 -3.45999 0
M  V30 3512 C 327.366 -0.753418 -4.22637 0
M  V30 3513 C 326.599 -0.076918 -5.33645 0
M  V30 3514 O 326.822 1.13649 -5.58963 0
M  V30 3515 O 325.756 -0.764824 -5.97021 0
M  V30 3516 H 329.582 -1.35755 -2.71669 0
M  V30 3517 H 327.167 -0.725961 -1.30576 0
M  V30 3518 H 329.049 0.619677 -4.16819 0
M  V30 3519 H 327.724 1.06296 -3.0575 0
M  V30 3520 H 326.631 -1.20308 -3.54227 0
M  V30 3521 H 327.964 -1.56423 -4.66683 0
M  V30 3522 N 329.616 1.39756 -0.72842 0
M  V30 3523 C 330.566 2.2792 -0.0603424 0
M  V30 3524 C 331.55 1.43922 0.719399 0
M  V30 3525 O 332.742 1.66895 0.589489 0
M  V30 3526 C 329.871 3.32582 0.851104 0
M  V30 3527 C 328.957 4.24049 0.0658641 0
M  V30 3528 N 329.348 4.96653 -0.957578 0
M  V30 3529 C 327.646 4.45013 0.296509 0
M  V30 3530 C 328.347 5.63836 -1.43052 0
M  V30 3531 N 327.323 5.38397 -0.750315 0
M  V30 3532 H 331.125 2.81504 -0.84455 0
M  V30 3533 H 328.639 1.5236 -0.562155 0
M  V30 3534 H 330.636 3.94603 1.34514 0
M  V30 3535 H 329.296 2.80558 1.63454 0
M  V30 3536 H 330.307 5.00297 -1.33877 0
M  V30 3537 H 326.984 4.03943 1.05527 0
M  V30 3538 H 328.374 6.31974 -2.28163 0
M  V30 3539 N 331.094 0.475555 1.50254 0
M  V30 3540 C 332.024 -0.30611 2.31485 0
M  V30 3541 C 333.005 -0.986228 1.38591 0
M  V30 3542 O 334.19 -0.982541 1.67511 0
M  V30 3543 C 331.32 -1.38588 3.1845 0
M  V30 3544 C 330.274 -0.827115 4.19932 0
M  V30 3545 C 329.6 -2.00551 4.95665 0
M  V30 3546 C 330.9 0.16463 5.2204 0
M  V30 3547 H 332.594 0.371866 2.97082 0
M  V30 3548 H 330.14 0.180282 1.42867 0
M  V30 3549 H 332.093 -1.94023 3.74076 0
M  V30 3550 H 330.817 -2.09269 2.50747 0
M  V30 3551 H 329.476 -0.294702 3.65414 0
M  V30 3552 H 329.124 -2.6994 4.2443 0
M  V30 3553 H 328.824 -1.63784 5.64313 0
M  V30 3554 H 330.348 -2.56468 5.54127 0
M  V30 3555 H 331.762 -0.300699 5.72511 0
M  V30 3556 H 330.159 0.446813 5.98434 0
M  V30 3557 H 331.229 1.08905 4.72512 0
M  V30 3558 N 332.573 -1.56217 0.208337 0
M  V30 3559 C 333.803 -2.02043 -0.431523 0
M  V30 3560 C 334.211 -1.08755 -1.54819 0
M  V30 3561 O 333.554 -0.0870009 -1.83494 0
M  V30 3562 C 333.616 -3.44239 -1.03633 0
M  V30 3563 C 333.28 -4.56965 -0.0567502 0
M  V30 3564 C 334.277 -5.14624 0.738773 0
M  V30 3565 C 331.962 -5.02266 0.0581736 0
M  V30 3566 C 333.956 -6.16045 1.63605 0
M  V30 3567 C 331.643 -6.03528 0.959001 0
M  V30 3568 C 332.641 -6.60293 1.7465 0
M  V30 3569 O 332.329 -7.59586 2.6322 0
M  V30 3570 H 332.061 -0.666772 -0.111313 0
M  V30 3571 H 334.615 -2.02919 0.318277 0
M  V30 3572 H 332.845 -3.40391 -1.83497 0
M  V30 3573 H 334.534 -3.73793 -1.58221 0
M  V30 3574 H 335.3 -4.80483 0.660364 0
M  V30 3575 H 331.179 -4.57771 -0.544633 0
M  V30 3576 H 334.723 -6.60279 2.25116 0
M  V30 3577 H 330.62 -6.37092 1.03848 0
M  V30 3578 H 331.388 -7.77057 2.57148 0
M  V30 3579 N 334.051 0.0651679 -1.57465 0
M  V30 3580 C 335.299 0.761555 -1.87202 0
M  V30 3581 C 335.62 1.77778 -0.801243 0
M  V30 3582 O 334.89 1.95166 0.16937 0
M  V30 3583 H 333.47 0.284251 -0.690804 0
M  V30 3584 H 336.132 0.0396827 -1.9486 0
M  V30 3585 H 335.228 1.27365 -2.84929 0
M  V30 3586 N 335.529 1.53961 0.336706 0
M  V30 3587 C 336.778 1.70751 1.07363 0
M  V30 3588 C 337.091 0.481061 1.89592 0
M  V30 3589 O 338.297 0.530046 2.66276 0
M  V30 3590 C 336.753 3.01965 1.95818 0
M  V30 3591 C 336.361 4.31971 1.18764 0
M  V30 3592 C 338.105 3.28121 2.69327 0
M  V30 3593 C 336.012 5.54255 2.06289 0
M  V30 3594 H 334.942 0.636292 0.404535 0
M  V30 3595 H 337.593 1.80459 0.332681 0
M  V30 3596 H 335.975 2.86132 2.7376 0
M  V30 3597 H 337.149 4.5853 0.456849 0
M  V30 3598 H 335.464 4.12481 0.569946 0
M  V30 3599 H 338.061 4.16673 3.35094 0
M  V30 3600 H 338.404 2.45426 3.36261 0
M  V30 3601 H 338.937 3.44762 1.98454 0
M  V30 3602 H 335.676 6.39513 1.43885 0
M  V30 3603 H 335.196 5.31935 2.77138 0
M  V30 3604 H 336.875 5.90159 2.65182 0
M  V30 3605 N 337.007 -0.598083 1.45811 0
M  V30 3606 C 338.418 -1.18011 1.44673 0
M  V30 3607 C 338.769 -1.95378 0.179364 0
M  V30 3608 O 337.894 -2.04124 -0.718509 0
M  V30 3609 C 338.489 -2.14677 2.62105 0
M  V30 3610 C 337.048 -2.68236 2.64057 0
M  V30 3611 C 336.195 -1.43816 2.37091 0
M  V30 3612 H 339.146 -0.38686 1.53913 0
M  V30 3613 H 339.167 -2.97878 2.36746 0
M  V30 3614 H 338.679 -1.5834 3.5433 0
M  V30 3615 H 336.78 -3.28486 1.75864 0
M  V30 3616 H 336.893 -3.12021 3.63566 0
M  V30 3617 H 335.257 -1.731 1.86838 0
M  V30 3618 H 336.04 -0.893333 3.31473 0
M  V30 3619 N 338.485 -1.33259 -0.841409 0
M  V30 3620 C 339.417 -1.19136 -1.95804 0
M  V30 3621 C 340.43 -0.122965 -1.62335 0
M  V30 3622 O 341.619 -0.373154 -1.74556 0
M  V30 3623 C 338.719 -0.804268 -3.29218 0
M  V30 3624 C 337.892 -1.96376 -3.90839 0
M  V30 3625 C 336.951 -1.55806 -5.02604 0
M  V30 3626 O 335.977 -2.27203 -5.21888 0
M  V30 3627 N 337.179 -0.461609 -5.78662 0
M  V30 3628 H 339.944 -2.15326 -2.08458 0
M  V30 3629 H 337.505 -1.25971 -1.017 0
M  V30 3630 H 339.497 -0.51501 -4.0141 0
M  V30 3631 H 338.067 0.0668809 -3.12528 0
M  V30 3632 H 337.287 -2.41879 -3.11269 0
M  V30 3633 H 338.575 -2.73966 -4.28742 0
M  V30 3634 H 337.973 0.132343 -5.65545 0
M  V30 3635 H 336.53 -0.232013 -6.51387 0
M  V30 3636 N 339.963 1.05934 -1.16686 0
M  V30 3637 C 340.913 2.11764 -0.844978 0
M  V30 3638 C 341.897 1.59922 0.177178 0
M  V30 3639 O 343.089 1.76983 -0.0241768 0
M  V30 3640 C 340.218 3.41493 -0.351812 0
M  V30 3641 C 339.304 4.00152 -1.40496 0
M  V30 3642 N 339.695 4.32874 -2.61636 0
M  V30 3643 C 337.993 4.278 -1.26106 0
M  V30 3644 C 338.694 4.79552 -3.29249 0
M  V30 3645 N 337.67 4.79211 -2.56628 0
M  V30 3646 H 341.472 2.34916 -1.76612 0
M  V30 3647 H 338.986 1.23511 -1.05446 0
M  V30 3648 H 340.983 4.16773 -0.102796 0
M  V30 3649 H 339.643 3.19778 0.56322 0
M  V30 3650 H 340.654 4.23109 -2.98663 0
M  V30 3651 H 337.331 4.15511 -0.407081 0
M  V30 3652 H 338.721 5.14045 -4.32675 0
M  V30 3653 N 341.441 0.965919 1.2453 0
M  V30 3654 C 342.404 0.499547 2.2369 0
M  V30 3655 C 343.404 -0.40294 1.5567 0
M  V30 3656 O 344.594 -0.19865 1.73064 0
M  V30 3657 C 341.726 -0.276792 3.39774 0
M  V30 3658 H 342.919 1.37613 2.66463 0
M  V30 3659 H 340.472 0.750324 1.37112 0
M  V30 3660 H 341.207 -1.17055 3.02438 0
M  V30 3661 H 340.992 0.370826 3.90343 0
M  V30 3662 H 342.482 -0.592175 4.1338 0
M  V30 3663 N 342.919 -1.39368 0.735821 0
M  V30 3664 C 343.829 -2.34395 0.0979693 0
M  V30 3665 C 344.845 -1.58361 -0.720968 0
M  V30 3666 O 346.021 -1.90648 -0.649245 0
M  V30 3667 C 343.086 -3.37393 -0.797916 0
M  V30 3668 C 342.147 -4.29287 0.0333662 0
M  V30 3669 C 341.38 -5.27365 -0.819854 0
M  V30 3670 O 341.603 -5.31959 -2.05855 0
M  V30 3671 O 340.537 -6.01389 -0.248079 0
M  V30 3672 H 344.363 -2.90601 0.882315 0
M  V30 3673 H 341.948 -1.40909 0.4965 0
M  V30 3674 H 343.83 -4.00505 -1.31048 0
M  V30 3675 H 342.505 -2.83571 -1.56106 0
M  V30 3676 H 341.412 -3.69395 0.591475 0
M  V30 3677 H 342.745 -4.86317 0.758752 0
M  V30 3678 N 344.397 -0.483516 -1.5 0
M  V30 3679 C 345.622 0.0667119 -2.07293 0
M  V30 3680 C 346.047 1.3164 -1.3436 0
M  V30 3681 O 345.405 1.76945 -0.394987 0
M  V30 3682 C 345.453 0.321126 -3.59167 0
M  V30 3683 O 344.557 1.39927 -3.87936 0
M  V30 3684 H 343.898 -0.0184758 -0.663743 0
M  V30 3685 H 346.428 -0.678125 -1.93035 0
M  V30 3686 H 346.438 0.557906 -4.04168 0
M  V30 3687 H 345.113 -0.592007 -4.11665 0
M  V30 3688 H 343.69 1.14882 -3.54763 0
M  V30 3689 N 345.875 1.56104 -0.216619 0
M  V30 3690 C 346.825 2.16703 0.708798 0
M  V30 3691 C 347.809 1.11392 1.16106 0
M  V30 3692 O 349.001 1.37395 1.11587 0
M  V30 3693 C 346.13 2.84666 1.91886 0
M  V30 3694 C 345.216 3.97195 1.48651 0
M  V30 3695 N 345.607 4.99959 0.766434 0
M  V30 3696 C 343.905 4.09193 1.77418 0
M  V30 3697 C 344.606 5.79126 0.546659 0
M  V30 3698 N 343.582 5.32315 1.10188 0
M  V30 3699 H 347.384 2.93516 0.150162 0
M  V30 3700 H 344.898 1.6239 -0.0176768 0
M  V30 3701 H 346.895 3.26486 2.59253 0
M  V30 3702 H 345.555 2.09347 2.48202 0
M  V30 3703 H 346.566 5.16197 0.419634 0
M  V30 3704 H 343.243 3.45021 2.35088 0
M  V30 3705 H 344.633 6.71895 -0.026103 0
M  V30 3706 N 347.353 -0.0568162 1.57498 0
M  V30 3707 C 348.285 -1.09292 2.01464 0
M  V30 3708 C 349.298 -1.34112 0.922913 0
M  V30 3709 O 350.487 -1.32089 1.20062 0
M  V30 3710 C 347.587 -2.44068 2.35125 0
M  V30 3711 C 346.76 -2.38995 3.66333 0
M  V30 3712 C 345.819 -3.55997 3.87495 0
M  V30 3713 O 344.845 -3.36746 4.58901 0
M  V30 3714 N 346.047 -4.76888 3.30996 0
M  V30 3715 H 348.812 -0.718386 2.90963 0
M  V30 3716 H 346.373 -0.245235 1.60032 0
M  V30 3717 H 348.365 -3.21011 2.46443 0
M  V30 3718 H 346.935 -2.73468 1.5144 0
M  V30 3719 H 346.155 -1.47336 3.65631 0
M  V30 3720 H 347.443 -2.3272 4.52458 0
M  V30 3721 H 346.841 -4.95431 2.73065 0
M  V30 3722 H 345.398 -5.51291 3.47738 0
M  V30 3723 N 348.832 -1.54138 -0.328536 0
M  V30 3724 C 349.762 -1.86167 -1.40939 0
M  V30 3725 C 350.743 -0.718044 -1.54202 0
M  V30 3726 O 351.928 -0.971328 -1.68163 0
M  V30 3727 C 349.058 -2.08461 -2.77779 0
M  V30 3728 C 348.012 -3.24299 -2.7931 0
M  V30 3729 C 347.338 -3.31955 -4.19178 0
M  V30 3730 C 348.638 -4.62065 -2.43502 0
M  V30 3731 H 350.332 -2.76689 -1.14383 0
M  V30 3732 H 347.878 -1.33132 -0.548806 0
M  V30 3733 H 349.831 -2.29453 -3.53454 0
M  V30 3734 H 348.555 -1.14684 -3.05802 0
M  V30 3735 H 347.214 -3.03187 -2.0609 0
M  V30 3736 H 346.862 -2.35745 -4.44335 0
M  V30 3737 H 346.562 -4.09805 -4.2111 0
M  V30 3738 H 348.086 -3.55175 -4.96672 0
M  V30 3739 H 349.5 -4.8297 -3.08889 0
M  V30 3740 H 347.897 -5.42429 -2.56693 0
M  V30 3741 H 348.967 -4.64652 -1.38659 0
M  V30 3742 N 350.31 0.590341 -1.46126 0
M  V30 3743 C 351.257 1.69994 -1.56111 0
M  V30 3744 C 352.227 1.61065 -0.405867 0
M  V30 3745 O 353.412 1.8039 -0.621613 0
M  V30 3746 C 350.552 3.08326 -1.55013 0
M  V30 3747 C 349.665 3.27936 -2.81215 0
M  V30 3748 C 348.8 4.56473 -2.71673 0
M  V30 3749 C 347.839 4.694 -3.92849 0
M  V30 3750 N 346.976 5.89254 -3.81738 0
M  V30 3751 H 351.816 1.60797 -2.50895 0
M  V30 3752 H 349.353 0.783799 -1.24479 0
M  V30 3753 H 351.311 3.88383 -1.52362 0
M  V30 3754 H 349.941 3.16439 -0.637667 0
M  V30 3755 H 348.993 2.41536 -2.93879 0
M  V30 3756 H 350.305 3.33357 -3.71045 0
M  V30 3757 H 349.459 5.44748 -2.67085 0
M  V30 3758 H 348.198 4.53477 -1.7947 0
M  V30 3759 H 347.203 3.79544 -3.97777 0
M  V30 3760 H 348.428 4.7418 -4.86138 0
M  V30 3761 H 346.374 5.87271 -2.92317 0
M  V30 3762 H 346.291 5.95911 -4.65217 0
M  V30 3763 H 347.559 6.79981 -3.81112 0
M  V30 3764 N 351.788 1.33704 0.83433 0
M  V30 3765 C 352.736 1.24323 1.96587 0
M  V30 3766 C 353.73 0.143659 1.6879 0
M  V30 3767 O 354.936 0.30791 1.77347 0
M  V30 3768 H 351.311 0.385925 0.645419 0
M  V30 3769 H 353.282 2.19978 2.01624 0
M  V30 3770 C 352.031 1.00394 3.32891 0
M  V30 3771 H 351.354 1.84231 3.54822 0
M  V30 3772 H 352.794 0.97862 4.12552 0
M  V30 3773 C 351.253 -0.293047 3.35623 0
M  V30 3774 O 351.783 -1.29823 3.80143 0
M  V30 3775 N 349.989 -0.322174 2.88809 0
M  V30 3776 H 349.536 0.496379 2.52772 0
M  V30 3777 H 349.494 -1.18977 2.91019 0
M  V30 3778 N 353.266 -1.05314 1.17247 0
M  V30 3779 C 354.494 -1.81971 0.984593 0
M  V30 3780 C 354.909 -1.82929 -0.467166 0
M  V30 3781 O 354.266 -1.25564 -1.32438 0
M  V30 3782 C 354.317 -3.28143 1.51672 0
M  V30 3783 O 354.038 -3.27347 2.91163 0
M  V30 3784 C 355.539 -4.21493 1.37326 0
M  V30 3785 H 352.759 -0.573455 0.348411 0
M  V30 3786 H 355.303 -1.32808 1.55506 0
M  V30 3787 H 353.458 -3.74582 0.988302 0
M  V30 3788 H 353.872 -4.18824 3.15732 0
M  V30 3789 H 355.346 -5.22043 1.79375 0
M  V30 3790 H 355.823 -4.38031 0.320169 0
M  V30 3791 H 356.429 -3.80909 1.89178 0
M  V30 3792 N 354.744 -0.972509 -1.24016 0
M  V30 3793 C 355.992 -0.635776 -1.91839 0
M  V30 3794 C 356.313 0.832312 -1.76345 0
M  V30 3795 O 355.583 1.5946 -1.13795 0
M  V30 3796 H 354.163 -0.232157 -0.710009 0
M  V30 3797 H 356.825 -1.23462 -1.50809 0
M  V30 3798 H 355.921 -0.880545 -2.99421 0
M  V30 3799 N 356.222 1.38976 -0.743202 0
M  V30 3800 C 357.499 1.94351 -0.220705 0
M  V30 3801 C 357.879 1.67935 1.2791 0
M  V30 3802 O 357.227 1.01211 2.04862 0
M  V30 3803 C 357.437 3.44426 -0.563171 0
M  V30 3804 C 358.785 4.2144 -0.517046 0
M  V30 3805 O 359.809 3.52661 -0.500846 0
M  V30 3806 O 358.668 5.44032 -0.518806 0
M  V30 3807 H 355.762 0.825879 -0.043047 0
M  V30 3808 H 358.308 1.48429 -0.822618 0
M  V30 3809 H 357.08 3.5712 -1.59941 0
M  V30 3810 H 356.703 3.97543 0.0672883 0
M  V30 3811 N 357.7 0.491464 1.49741 0
M  V30 3812 C 358.948 -0.0563141 2.02022 0
M  V30 3813 C 359.269 -1.38363 1.37407 0
M  V30 3814 O 358.539 -1.88702 0.526166 0
M  V30 3815 H 357.119 -0.0238014 0.746621 0
M  V30 3816 H 359.781 0.646533 1.83864 0
M  V30 3817 H 358.877 -0.192967 3.11503 0
M  V30 3818 N 359.178 -1.55987 0.224894 0
M  V30 3819 C 360.455 -1.90232 -0.455083 0
M  V30 3820 C 360.835 -1.14269 -1.77499 0
M  V30 3821 O 360.183 -0.253079 -2.27094 0
M  V30 3822 C 360.393 -3.42993 -0.644758 0
M  V30 3823 C 361.741 -4.13821 -0.950669 0
M  V30 3824 O 362.765 -3.4861 -0.731423 0
M  V30 3825 O 361.624 -5.29128 -1.36695 0
M  V30 3826 H 358.718 -0.79108 -0.241084 0
M  V30 3827 H 361.264 -1.67581 0.267327 0
M  V30 3828 H 360.036 -3.90252 0.28613 0
M  V30 3829 H 359.659 -3.71434 -1.41853 0
M  V30 3830 N 360.656 0.0484629 -1.57525 0
M  V30 3831 C 361.619 1.03956 -2.04269 0
M  V30 3832 C 362.619 1.30211 -0.943496 0
M  V30 3833 O 363.809 1.25539 -1.20771 0
M  V30 3834 C 360.941 2.37742 -2.44319 0
M  V30 3835 H 362.134 0.636182 -2.93075 0
M  V30 3836 H 359.687 0.294811 -1.53494 0
M  V30 3837 H 360.422 2.82866 -1.5861 0
M  V30 3838 H 360.207 2.20021 -3.24551 0
M  V30 3839 H 361.697 3.08936 -2.80978 0
M  V30 3840 N 362.134 1.5431 0.320358 0
M  V30 3841 C 363.364 1.7638 1.07582 0
M  V30 3842 C 363.772 0.513944 1.82086 0
M  V30 3843 O 363.115 -0.525123 1.76035 0
M  V30 3844 C 363.177 2.9055 2.1171 0
M  V30 3845 C 362.841 4.2934 1.56575 0
M  V30 3846 C 363.838 5.10077 1.00586 0
M  V30 3847 C 361.523 4.75893 1.60722 0
M  V30 3848 C 363.517 6.35477 0.494756 0
M  V30 3849 C 361.204 6.0126 1.09224 0
M  V30 3850 C 362.202 6.80886 0.53696 0
M  V30 3851 O 361.89 8.03894 0.0297371 0
M  V30 3852 H 361.622 0.592369 0.325692 0
M  V30 3853 H 364.176 2.02019 0.37116 0
M  V30 3854 H 362.406 2.60489 2.85801 0
M  V30 3855 H 364.095 3.00373 2.73003 0
M  V30 3856 H 364.861 4.75265 0.966869 0
M  V30 3857 H 360.74 4.13957 2.02882 0
M  V30 3858 H 364.284 6.97574 0.0606842 0
M  V30 3859 H 360.181 6.35562 1.12831 0
M  V30 3860 H 360.949 8.18372 0.14486 0
M  V30 3861 N 363.613 -0.582584 1.46437 0
M  V30 3862 C 365.029 -0.905962 1.31394 0
M  V30 3863 C 365.229 -1.99468 0.285476 0
M  V30 3864 O 364.285 -2.50566 -0.311914 0
M  V30 3865 C 365.598 -1.3232 2.70022 0
M  V30 3866 C 367.146 -1.43604 2.78113 0
M  V30 3867 C 367.621 -1.88694 4.17323 0
M  V30 3868 N 369.112 -1.95887 4.19741 0
M  V30 3869 C 369.847 -2.32051 5.24347 0
M  V30 3870 N 369.343 -2.67006 6.39281 0
M  V30 3871 N 371.136 -2.32606 5.11713 0
M  V30 3872 H 363.287 0.1366 2.1196 0
M  V30 3873 H 365.55 -0.00155736 0.947999 0
M  V30 3874 H 365.256 -0.597242 3.46592 0
M  V30 3875 H 365.13 -2.28469 3.00136 0
M  V30 3876 H 367.517 -2.15286 2.01832 0
M  V30 3877 H 367.598 -0.457059 2.51684 0
M  V30 3878 H 367.242 -1.1759 4.941 0
M  V30 3879 H 367.172 -2.8755 4.4116 0
M  V30 3880 H 369.663 -1.71362 3.36814 0
M  V30 3881 H 369.976 -2.93554 7.14875 0
M  V30 3882 H 368.321 -2.64644 6.42642 0
M  V30 3883 H 371.512 -2.04721 4.2096 0
M  V30 3884 H 371.685 -2.60462 5.93349 0
M  V30 3885 N 365.091 -1.34144 -0.827227 0
M  V30 3886 C 366.021 -1.28005 -1.95287 0
M  V30 3887 C 367.002 -0.158321 -1.69362 0
M  V30 3888 O 368.187 -0.349987 -1.9102 0
M  V30 3889 C 365.317 -1.03036 -3.31664 0
M  V30 3890 C 364.271 -2.11628 -3.72019 0
M  V30 3891 C 363.597 -1.71854 -5.0633 0
M  V30 3892 C 364.897 -3.53417 -3.8457 0
M  V30 3893 H 366.591 -2.22187 -2.00682 0
M  V30 3894 H 364.137 -1.0696 -0.964135 0
M  V30 3895 H 366.09 -0.973863 -4.09993 0
M  V30 3896 H 364.814 -0.0529391 -3.26557 0
M  V30 3897 H 363.473 -2.16339 -2.95961 0
M  V30 3898 H 363.121 -0.727841 -4.97706 0
M  V30 3899 H 362.821 -2.44531 -5.34302 0
M  V30 3900 H 364.345 -1.67692 -5.87122 0
M  V30 3901 H 365.759 -3.51142 -4.5318 0
M  V30 3902 H 364.156 -4.24679 -4.2399 0
M  V30 3903 H 365.226 -3.91072 -2.86689 0
M  V30 3904 N 366.569 1.04691 -1.17803 0
M  V30 3905 C 367.799 1.81183 -0.992788 0
M  V30 3906 C 368.207 1.8347 0.462098 0
M  V30 3907 O 367.55 1.2643 1.33271 0
M  V30 3908 C 367.612 3.28363 -1.46349 0
M  V30 3909 C 367.276 3.49749 -2.94151 0
M  V30 3910 C 368.273 3.41456 -3.92051 0
M  V30 3911 C 365.958 3.76548 -3.32441 0
M  V30 3912 C 367.952 3.59656 -5.26238 0
M  V30 3913 C 365.639 3.94396 -4.66792 0
M  V30 3914 C 366.637 3.8595 -5.635 0
M  V30 3915 O 366.325 4.03294 -6.9542 0
M  V30 3916 H 366.057 0.577622 -0.351182 0
M  V30 3917 H 368.611 1.32876 -1.5663 0
M  V30 3918 H 366.841 3.77609 -0.833574 0
M  V30 3919 H 368.53 3.86395 -1.24313 0
M  V30 3920 H 369.296 3.20723 -3.63815 0
M  V30 3921 H 365.175 3.82224 -2.57732 0
M  V30 3922 H 368.719 3.52979 -6.01707 0
M  V30 3923 H 364.616 4.14622 -4.94731 0
M  V30 3924 H 365.384 4.2049 -7.02232 0
M  V30 3925 N 368.047 0.979072 1.23499 0
M  V30 3926 C 368.995 0.510604 2.26926 0
M  V30 3927 C 369.989 -0.431691 1.63807 0
M  V30 3928 O 371.195 -0.30573 1.77385 0
M  V30 3929 H 367.57 0.146688 0.737554 0
M  V30 3930 H 369.541 1.39466 2.63803 0
M  V30 3931 C 368.29 -0.172658 3.47271 0
M  V30 3932 H 367.613 0.543331 3.96091 0
M  V30 3933 H 369.053 -0.464101 4.21452 0
M  V30 3934 C 367.512 -1.40345 3.06276 0
M  V30 3935 O 368.042 -2.49978 3.14442 0
M  V30 3936 N 366.248 -1.27362 2.61203 0
M  V30 3937 H 365.795 -0.381584 2.54758 0
M  V30 3938 H 365.753 -2.09822 2.34141 0
M  V30 3939 N 369.525 -1.3858 0.750561 0
M  V30 3940 C 370.455 -2.33102 0.136237 0
M  V30 3941 C 371.436 -1.54713 -0.706965 0
M  V30 3942 O 372.621 -1.83043 -0.648769 0
M  V30 3943 C 369.751 -3.38882 -0.760017 0
M  V30 3944 C 368.705 -4.27995 -0.0197785 0
M  V30 3945 C 368.031 -5.24605 -1.03408 0
M  V30 3946 C 369.331 -5.09554 1.14684 0
M  V30 3947 H 371.025 -2.84726 0.925822 0
M  V30 3948 H 368.571 -1.36898 0.446654 0
M  V30 3949 H 370.524 -4.0397 -1.19943 0
M  V30 3950 H 369.248 -2.85734 -1.58189 0
M  V30 3951 H 367.907 -3.64409 0.400184 0
M  V30 3952 H 367.555 -4.67746 -1.84994 0
M  V30 3953 H 367.255 -5.85081 -0.543464 0
M  V30 3954 H 368.779 -5.9257 -1.47288 0
M  V30 3955 H 370.193 -5.67899 0.785118 0
M  V30 3956 H 368.59 -5.7925 1.56812 0
M  V30 3957 H 369.66 -4.4347 1.96118 0
M  V30 3958 N 371.003 -0.499398 -1.49478 0
M  V30 3959 C 372.28 0.108629 -1.95298 0
M  V30 3960 C 372.66 1.54282 -1.44084 0
M  V30 3961 O 372.008 2.18944 -0.653908 0
M  V30 3962 C 372.218 0.0229111 -3.48992 0
M  V30 3963 C 373.566 0.197643 -4.2414 0
M  V30 3964 O 374.59 0.0981735 -3.56065 0
M  V30 3965 O 373.449 0.401669 -5.45022 0
M  V30 3966 H 370.543 0.096181 -0.821388 0
M  V30 3967 H 373.089 -0.561822 -1.6013 0
M  V30 3968 H 371.861 -0.977321 -3.78899 0
M  V30 3969 H 371.484 0.733579 -3.90774 0
M  V30 3970 N 372.481 1.55866 -0.233164 0
M  V30 3971 C 373.727 1.98897 0.395959 0
M  V30 3972 C 374.06 1.12091 1.58585 0
M  V30 3973 O 373.335 0.181182 1.93654 0
M  V30 3974 C 373.618 3.50658 0.819224 0
M  V30 3975 C 373.471 4.48233 -0.375109 0
M  V30 3976 C 374.79 4.07135 1.67121 0
M  V30 3977 H 371.909 0.723102 0.142451 0
M  V30 3978 H 374.551 1.87082 -0.331725 0
M  V30 3979 H 372.701 3.60857 1.43925 0
M  V30 3980 H 374.373 4.50031 -1.01341 0
M  V30 3981 H 372.616 4.21624 -1.02058 0
M  V30 3982 H 373.287 5.51988 -0.0358328 0
M  V30 3983 H 375.763 3.99952 1.14795 0
M  V30 3984 H 374.639 5.13615 1.93625 0
M  V30 3985 H 374.9 3.54736 2.63846 0
M  V30 3986 N 373.959 -0.0401083 1.57549 0
M  V30 3987 C 375.189 -0.744115 1.92734 0
M  V30 3988 C 375.597 -1.70005 0.830348 0
M  V30 3989 O 374.94 -1.82576 -0.20286 0
M  V30 3990 C 375.002 -1.56516 3.2364 0
M  V30 3991 C 374.666 -0.7752 4.50377 0
M  V30 3992 C 375.663 -0.0803326 5.19838 0
M  V30 3993 C 373.348 -0.733002 4.96923 0
M  V30 3994 C 375.342 0.646154 6.34116 0
M  V30 3995 C 373.029 -0.00276321 6.111 0
M  V30 3996 C 374.027 0.685585 6.7955 0
M  V30 3997 O 373.715 1.40399 7.91545 0
M  V30 3998 H 373.447 -0.214861 0.640945 0
M  V30 3999 H 376.001 -0.00503675 2.05399 0
M  V30 4000 H 374.231 -2.3478 3.07271 0
M  V30 4001 H 375.92 -2.15076 3.44234 0
M  V30 4002 H 376.686 -0.104035 4.84888 0
M  V30 4003 H 372.565 -1.25827 4.43496 0
M  V30 4004 H 376.109 1.18398 6.87479 0
M  V30 4005 H 372.006 0.0229012 6.45496 0
M  V30 4006 H 372.774 1.31653 8.07843 0
M  V30 4007 N 375.437 -1.54477 -0.31217 0
M  V30 4008 C 376.685 -1.72884 -1.04668 0
M  V30 4009 C 377.006 -0.511477 -1.88173 0
M  V30 4010 O 376.276 0.474407 -1.90069 0
M  V30 4011 H 374.856 -0.637461 -0.389425 0
M  V30 4012 H 377.518 -1.91807 -0.345852 0
M  V30 4013 H 376.614 -2.61334 -1.70619 0
M  V30 4014 N 376.915 0.57481 -1.46744 0
M  V30 4015 C 378.145 1.35659 -1.55821 0
M  V30 4016 C 378.553 1.88129 -0.201036 0
M  V30 4017 O 377.896 1.64723 0.813134 0
M  V30 4018 C 377.958 2.57473 -2.50894 0
M  V30 4019 C 377.622 2.26415 -3.9697 0
M  V30 4020 C 378.619 1.84771 -4.85958 0
M  V30 4021 C 376.304 2.38316 -4.42166 0
M  V30 4022 C 378.298 1.55434 -6.18158 0
M  V30 4023 C 375.985 2.08591 -5.74398 0
M  V30 4024 C 376.983 1.67216 -6.62214 0
M  V30 4025 O 376.671 1.37859 -7.91991 0
M  V30 4026 H 376.403 0.420496 -0.529301 0
M  V30 4027 H 378.957 0.704967 -1.92923 0
M  V30 4028 H 377.187 3.25468 -2.08824 0
M  V30 4029 H 378.876 3.19546 -2.50291 0
M  V30 4030 H 379.642 1.75085 -4.52295 0
M  V30 4031 H 375.521 2.69483 -3.74032 0
M  V30 4032 H 379.065 1.23065 -6.86659 0
M  V30 4033 H 374.962 2.17905 -6.07608 0
M  V30 4034 H 375.73 1.51638 -8.04331 0
M  V30 4035 N 378.394 1.34581 0.820102 0
M  V30 4036 C 379.326 1.22236 1.93884 0
M  V30 4037 C 380.339 0.148776 1.62119 0
M  V30 4038 O 381.528 0.400877 1.7394 0
M  V30 4039 C 378.628 0.856542 3.27897 0
M  V30 4040 C 377.801 2.02569 3.87666 0
M  V30 4041 C 376.86 1.63782 5.00062 0
M  V30 4042 O 375.886 2.35477 5.18208 0
M  V30 4043 N 377.088 0.553611 5.77854 0
M  V30 4044 H 379.853 2.18615 2.05006 0
M  V30 4045 H 377.414 1.27573 0.99683 0
M  V30 4046 H 379.406 0.578806 4.0054 0
M  V30 4047 H 377.976 -0.0171518 3.12595 0
M  V30 4048 H 377.196 2.468 3.07382 0
M  V30 4049 H 378.484 2.80752 4.24329 0
M  V30 4050 H 377.882 -0.0423528 5.65684 0
M  V30 4051 H 376.439 0.335614 6.50935 0
M  V30 4052 N 379.872 -1.04064 1.18357 0
M  V30 4053 C 381.121 -1.76662 0.973313 0
M  V30 4054 C 381.434 -1.89154 -0.497991 0
M  V30 4055 O 382.64 -2.58606 -0.826762 0
M  V30 4056 C 381.096 -3.17624 1.69242 0
M  V30 4057 C 380.704 -3.13225 3.20303 0
M  V30 4058 C 382.448 -3.946 1.56497 0
M  V30 4059 C 380.355 -4.49046 3.84853 0
M  V30 4060 H 379.285 -0.662214 0.36054 0
M  V30 4061 H 381.936 -1.16553 1.41731 0
M  V30 4062 H 380.318 -3.78129 1.1762 0
M  V30 4063 H 381.492 -2.62172 3.78949 0
M  V30 4064 H 379.807 -2.49749 3.33189 0
M  V30 4065 H 382.404 -4.95042 2.02084 0
M  V30 4066 H 382.747 -4.13074 0.517243 0
M  V30 4067 H 383.28 -3.4067 2.05399 0
M  V30 4068 H 380.019 -4.35777 4.89672 0
M  V30 4069 H 379.539 -5.00203 3.30994 0
M  V30 4070 H 381.218 -5.17961 3.87718 0
M  V30 4071 N 381.35 -0.985608 -1.22978 0
M  V30 4072 C 382.58 -0.674603 -1.95276 0
M  V30 4073 C 382.988 0.763483 -1.73111 0
M  V30 4074 O 382.331 1.52601 -1.02268 0
M  V30 4075 C 382.393 -0.891597 -3.48268 0
M  V30 4076 C 382.057 -2.31275 -3.94158 0
M  V30 4077 C 383.054 -3.29179 -4.02415 0
M  V30 4078 C 380.739 -2.64524 -4.27004 0
M  V30 4079 C 382.733 -4.58407 -4.42879 0
M  V30 4080 C 380.42 -3.93974 -4.67149 0
M  V30 4081 C 381.418 -4.90727 -4.75053 0
M  V30 4082 O 381.106 -6.17865 -5.14294 0
M  V30 4083 H 380.838 -0.249251 -0.628371 0
M  V30 4084 H 383.392 -1.32106 -1.5728 0
M  V30 4085 H 381.622 -0.187962 -3.86243 0
M  V30 4086 H 383.311 -0.576957 -4.01779 0
M  V30 4087 H 384.077 -3.04823 -3.77237 0
M  V30 4088 H 379.956 -1.89923 -4.2006 0
M  V30 4089 H 383.5 -5.33926 -4.48964 0
M  V30 4090 H 379.397 -4.18122 -4.91777 0
M  V30 4091 H 380.165 -6.21694 -5.32389 0
M  V30 4092 N 382.828 1.3818 -0.7579 0
M  V30 4093 C 384.105 1.94106 -0.241306 0
M  V30 4094 C 384.485 1.69282 1.26122 0
M  V30 4095 O 383.833 1.03378 2.03777 0
M  V30 4096 C 384.043 3.43809 -0.59967 0
M  V30 4097 C 385.391 4.20868 -0.561717 0
M  V30 4098 O 386.415 3.5211 -0.538222 0
M  V30 4099 O 385.274 5.43451 -0.576478 0
M  V30 4100 H 382.368 0.825376 -0.0518042 0
M  V30 4101 H 384.914 1.47548 -0.838315 0
M  V30 4102 H 383.686 3.55403 -1.6372 0
M  V30 4103 H 383.309 3.97592 0.0251197 0
M  V30 4104 N 384.306 0.507319 1.49211 0
M  V30 4105 C 385.253 -0.267728 2.29242 0
M  V30 4106 C 386.223 -0.954609 1.35928 0
M  V30 4107 O 387.408 -0.960046 1.64887 0
M  V30 4108 C 384.548 -1.32243 3.18756 0
M  V30 4109 C 383.661 -0.64669 4.27132 0
M  V30 4110 C 382.796 -1.68238 5.03855 0
M  V30 4111 C 381.835 -0.98885 6.0406 0
M  V30 4112 N 380.972 -1.96903 6.73924 0
M  V30 4113 H 385.812 0.420968 2.95012 0
M  V30 4114 H 383.349 0.219443 1.45454 0
M  V30 4115 H 385.307 -1.94599 3.69036 0
M  V30 4116 H 383.937 -1.97981 2.54958 0
M  V30 4117 H 382.989 0.0902926 3.80293 0
M  V30 4118 H 384.301 -0.101058 4.98698 0
M  V30 4119 H 383.455 -2.38081 5.58034 0
M  V30 4120 H 382.194 -2.26187 4.32077 0
M  V30 4121 H 381.199 -0.276222 5.49106 0
M  V30 4122 H 382.424 -0.415767 6.77826 0
M  V30 4123 H 380.37 -2.53803 6.04913 0
M  V30 4124 H 380.287 -1.47423 7.41487 0
M  V30 4125 H 381.555 -2.66015 7.32705 0
M  V30 4126 N 385.784 -1.5574 0.241426 0
M  V30 4127 C 386.717 -2.17168 -0.700935 0
M  V30 4128 C 387.695 -1.12206 -1.1768 0
M  V30 4129 O 388.879 -1.40565 -1.25593 0
M  V30 4130 C 386.006 -2.76796 -1.95196 0
M  V30 4131 C 385.052 -3.94764 -1.61442 0
M  V30 4132 S 385.885 -5.30613 -0.72182 0
M  V30 4133 C 387.041 -5.93691 -1.98197 0
M  V30 4134 H 387.274 -2.96761 -0.178882 0
M  V30 4135 H 384.807 -1.54378 0.0259299 0
M  V30 4136 H 386.765 -3.11787 -2.67019 0
M  V30 4137 H 385.426 -1.9716 -2.44514 0
M  V30 4138 H 384.619 -4.35057 -2.54443 0
M  V30 4139 H 384.221 -3.61022 -0.976672 0
M  V30 4140 H 386.513 -6.10874 -2.92983 0
M  V30 4141 H 387.456 -6.89258 -1.62262 0
M  V30 4142 H 387.864 -5.22709 -2.13156 0
M  V30 4143 N 387.262 0.0317525 -1.57568 0
M  V30 4144 C 388.51 0.721676 -1.88776 0
M  V30 4145 C 388.831 1.76039 -0.838772 0
M  V30 4146 O 388.101 1.95482 0.127935 0
M  V30 4147 H 386.681 0.269534 -0.696678 0
M  V30 4148 H 389.343 -0.00165879 -1.949 0
M  V30 4149 H 388.439 1.21293 -2.87566 0
M  V30 4150 N 388.74 1.54641 0.303973 0
M  V30 4151 C 389.989 1.7299 1.03717 0
M  V30 4152 C 390.302 0.521168 1.88529 0
M  V30 4153 O 391.508 0.586408 2.65092 0
M  V30 4154 C 389.964 3.06051 1.89369 0
M  V30 4155 C 389.572 4.34393 1.09574 0
M  V30 4156 C 391.316 3.3376 2.62306 0
M  V30 4157 C 389.223 5.58506 1.94486 0
M  V30 4158 H 388.153 0.64473 0.390947 0
M  V30 4159 H 390.804 1.81124 0.294328 0
M  V30 4160 H 389.186 2.91874 2.67629 0
M  V30 4161 H 390.36 4.59396 0.359485 0
M  V30 4162 H 388.675 4.13597 0.482324 0
M  V30 4163 H 391.272 4.23687 3.26181 0
M  V30 4164 H 391.615 2.52503 3.3098 0
M  V30 4165 H 392.148 3.48894 1.91097 0
M  V30 4166 H 388.887 6.42422 1.30287 0
M  V30 4167 H 388.407 5.37694 2.65792 0
M  V30 4168 H 390.086 5.95651 2.52605 0
M  V30 4169 N 390.218 -0.567019 1.47046 0
M  V30 4170 C 391.448 -1.34831 1.56538 0
M  V30 4171 C 391.856 -1.8802 0.21101 0
M  V30 4172 O 391.199 -1.65152 -0.804387 0
M  V30 4173 C 391.261 -2.56139 2.52256 0
M  V30 4174 C 390.925 -2.24307 3.98165 0
M  V30 4175 C 391.922 -1.82192 4.86931 0
M  V30 4176 C 389.607 -2.35968 4.43423 0
M  V30 4177 C 391.601 -1.52153 6.18973 0
M  V30 4178 C 389.288 -2.05542 5.75496 0
M  V30 4179 C 390.286 -1.63701 6.63092 0
M  V30 4180 O 389.974 -1.33657 7.92711 0
M  V30 4181 H 389.706 -0.417683 0.531523 0
M  V30 4182 H 392.26 -0.694726 1.93294 0
M  V30 4183 H 390.49 -3.24356 2.10548 0
M  V30 4184 H 392.179 -3.18214 2.51982 0
M  V30 4185 H 392.945 -1.72684 4.53217 0
M  V30 4186 H 388.824 -2.67495 3.75456 0
M  V30 4187 H 392.368 -1.19421 6.87302 0
M  V30 4188 H 388.265 -2.14679 6.08755 0
M  V30 4189 H 389.033 -1.4737 8.05124 0
M  V30 4190 N 391.696 -1.35014 -0.812953 0
M  V30 4191 C 392.944 -1.27678 -1.56661 0
M  V30 4192 C 393.265 0.150359 -1.94419 0
M  V30 4193 O 392.535 1.08532 -1.63088 0
M  V30 4194 H 391.115 -0.469602 -0.580933 0
M  V30 4195 H 393.777 -1.69043 -0.970076 0
M  V30 4196 H 392.873 -1.88833 -2.48492 0
M  V30 4197 N 393.175 1.03435 -1.18907 0
M  V30 4198 C 394.4 1.80919 -1.01406 0
M  V30 4199 C 394.825 1.83055 0.432721 0
M  V30 4200 O 394.183 1.25252 1.31079 0
M  V30 4201 C 394.231 3.24091 -1.58105 0
M  V30 4202 O 393.335 4.04434 -0.806669 0
M  V30 4203 H 392.676 0.558709 -0.358803 0
M  V30 4204 H 395.206 1.30223 -1.57807 0
M  V30 4205 H 395.216 3.74853 -1.61087 0
M  V30 4206 H 393.891 3.21851 -2.6341 0
M  V30 4207 H 392.468 3.63091 -0.849666 0
M  V30 4208 N 394.653 0.992116 1.22453 0
M  V30 4209 C 395.899 0.668523 1.91464 0
M  V30 4210 C 396.232 -0.797313 1.77078 0
M  V30 4211 O 395.507 -1.5765 1.13916 0
M  V30 4212 C 395.79 1.07424 3.43703 0
M  V30 4213 C 395.643 2.59857 3.67143 0
M  V30 4214 C 396.962 0.626891 4.35612 0
M  V30 4215 H 394.081 0.244341 0.695318 0
M  V30 4216 H 396.723 1.2355 1.44345 0
M  V30 4217 H 394.873 0.591816 3.83966 0
M  V30 4218 H 396.545 3.15764 3.3629 0
M  V30 4219 H 394.788 3.01961 3.11451 0
M  V30 4220 H 395.459 2.83296 4.73759 0
M  V30 4221 H 397.935 1.04125 4.02861 0
M  V30 4222 H 396.811 0.939076 5.40807 0
M  V30 4223 H 397.072 -0.472457 4.39568 0
M  V30 4224 N 396.131 -1.37776 0.765217 0
M  V30 4225 C 397.542 -1.82521 0.392819 0
M  V30 4226 C 397.893 -1.63789 -1.08017 0
M  V30 4227 O 397.018 -1.14542 -1.83601 0
M  V30 4228 C 397.613 -3.31358 0.706214 0
M  V30 4229 C 396.172 -3.74406 0.386952 0
M  V30 4230 C 395.319 -2.60394 0.953422 0
M  V30 4231 H 398.27 -1.2634 0.960412 0
M  V30 4232 H 398.291 -3.80498 -0.0114706 0
M  V30 4233 H 397.803 -3.44959 1.77833 0
M  V30 4234 H 395.904 -3.66377 -0.678112 0
M  V30 4235 H 396.017 -4.70749 0.890636 0
M  V30 4236 H 394.381 -2.51878 0.378064 0
M  V30 4237 H 395.164 -2.76791 2.03081 0
M  V30 4238 N 397.609 -0.515225 -1.4894 0
M  V30 4239 C 398.839 0.0205735 -2.0659 0
M  V30 4240 C 399.247 1.30064 -1.37405 0
M  V30 4241 O 398.59 1.78087 -0.450632 0
M  V30 4242 C 398.652 0.330124 -3.57981 0
M  V30 4243 C 398.316 -0.854295 -4.48944 0
M  V30 4244 C 399.313 -1.7487 -4.89609 0
M  V30 4245 C 396.998 -1.05712 -4.9105 0
M  V30 4246 C 398.992 -2.82996 -5.71132 0
M  V30 4247 C 396.679 -2.14154 -5.72347 0
M  V30 4248 C 397.677 -3.0263 -6.12294 0
M  V30 4249 O 397.365 -4.09198 -6.91962 0
M  V30 4250 H 397.097 -0.0236833 -0.675585 0
M  V30 4251 H 399.651 -0.715956 -1.92518 0
M  V30 4252 H 397.881 1.12044 -3.70112 0
M  V30 4253 H 399.57 0.806233 -3.97812 0
M  V30 4254 H 400.336 -1.60388 -4.57712 0
M  V30 4255 H 396.215 -0.377788 -4.59449 0
M  V30 4256 H 399.759 -3.52083 -6.02232 0
M  V30 4257 H 395.656 -2.28626 -6.03656 0
M  V30 4258 H 396.424 -4.06726 -7.10293 0
M  V30 4259 N 399.087 1.5561 -0.249682 0
M  V30 4260 C 400.017 2.24477 0.642826 0
M  V30 4261 C 400.998 1.22601 1.17911 0
M  V30 4262 O 402.183 1.5126 1.21795 0
M  V30 4263 C 399.313 2.94638 1.83863 0
M  V30 4264 C 398.267 4.03227 1.435 0
M  V30 4265 C 397.593 4.60828 2.71186 0
M  V30 4266 C 398.893 5.18796 0.604002 0
M  V30 4267 H 400.587 2.99321 0.0685625 0
M  V30 4268 H 398.133 1.43965 0.0315363 0
M  V30 4269 H 400.086 3.41517 2.46868 0
M  V30 4270 H 398.81 2.17287 2.43832 0
M  V30 4271 H 397.469 3.57121 0.828275 0
M  V30 4272 H 397.117 3.80174 3.29358 0
M  V30 4273 H 396.817 5.34132 2.44901 0
M  V30 4274 H 398.341 5.10442 3.35084 0
M  V30 4275 H 399.755 5.61883 1.13842 0
M  V30 4276 H 398.152 5.98506 0.437097 0
M  V30 4277 H 399.222 4.83384 -0.383147 0
M  V30 4278 N 400.565 -0.0233959 1.57583 0
M  V30 4279 C 401.495 -1.02162 2.09965 0
M  V30 4280 C 402.476 -1.3735 1.00344 0
M  V30 4281 O 403.661 -1.46135 1.27899 0
M  V30 4282 C 400.791 -2.32081 2.58371 0
M  V30 4283 C 399.745 -2.1112 3.72307 0
M  V30 4284 C 399.071 -3.46848 4.06941 0
M  V30 4285 C 400.371 -1.49276 5.00514 0
M  V30 4286 H 402.065 -0.585557 2.93618 0
M  V30 4287 H 399.611 -0.280218 1.41247 0
M  V30 4288 H 401.564 -3.02249 2.93639 0
M  V30 4289 H 400.288 -2.77758 1.71808 0
M  V30 4290 H 398.947 -1.43384 3.37397 0
M  V30 4291 H 398.595 -3.90184 3.17436 0
M  V30 4292 H 398.295 -3.33646 4.83688 0
M  V30 4293 H 399.819 -4.18369 4.44747 0
M  V30 4294 H 401.233 -2.09368 5.33702 0
M  V30 4295 H 399.63 -1.46632 5.8191 0
M  V30 4296 H 400.7 -0.459217 4.82721 0
M  V30 4297 N 402.043 -1.548 -0.295768 0
M  V30 4298 C 403.006 -1.85363 -1.34808 0
M  V30 4299 C 404.006 -0.726817 -1.43436 0
M  V30 4300 O 405.196 -0.995088 -1.42981 0
M  V30 4301 C 402.328 -2.03859 -2.73229 0
M  V30 4302 H 403.521 -2.7941 -1.08949 0
M  V30 4303 H 401.074 -1.46942 -0.532702 0
M  V30 4304 H 401.809 -1.12117 -3.04303 0
M  V30 4305 H 401.594 -2.8588 -2.68356 0
M  V30 4306 H 403.084 -2.28857 -3.49305 0
M  V30 4307 N 403.521 0.559213 -1.47345 0
M  V30 4308 C 404.471 1.66192 -1.5609 0
M  V30 4309 C 405.455 1.55323 -0.419957 0
M  V30 4310 O 406.647 1.63839 -0.669762 0
M  V30 4311 C 403.776 3.0497 -1.57634 0
M  V30 4312 C 402.862 3.2105 -2.77106 0
M  V30 4313 N 403.253 3.07203 -4.01821 0
M  V30 4314 C 401.551 3.52046 -2.73825 0
M  V30 4315 C 402.252 3.25919 -4.81821 0
M  V30 4316 N 401.228 3.52161 -4.14106 0
M  V30 4317 H 405.03 1.54052 -2.5029 0
M  V30 4318 H 402.544 0.763914 -1.43311 0
M  V30 4319 H 404.541 3.84142 -1.61989 0
M  V30 4320 H 403.201 3.18224 -0.645281 0
M  V30 4321 H 404.212 2.84572 -4.32711 0
M  V30 4322 H 400.889 3.71839 -1.89848 0
M  V30 4323 H 402.279 3.20198 -5.90697 0
M  V30 4324 N 404.999 1.35443 0.805782 0
M  V30 4325 C 405.946 1.28431 1.91766 0
M  V30 4326 C 406.916 0.156102 1.65365 0
M  V30 4327 O 408.101 0.339936 1.87747 0
M  V30 4328 C 405.241 1.06301 3.2832 0
M  V30 4329 C 404.354 2.2805 3.66902 0
M  V30 4330 C 403.489 1.99064 4.92491 0
M  V30 4331 C 402.528 3.16863 5.23703 0
M  V30 4332 N 401.665 2.87647 6.40471 0
M  V30 4333 H 406.505 2.23511 1.97096 0
M  V30 4334 H 404.042 1.11105 0.964054 0
M  V30 4335 H 406 0.915012 4.07042 0
M  V30 4336 H 404.63 0.148822 3.22457 0
M  V30 4337 H 403.682 2.53711 2.83434 0
M  V30 4338 H 404.994 3.1601 3.85927 0
M  V30 4339 H 404.148 1.81099 5.7904 0
M  V30 4340 H 402.887 1.0839 4.75503 0
M  V30 4341 H 401.892 3.35404 4.35642 0
M  V30 4342 H 403.117 4.08339 5.4262 0
M  V30 4343 H 401.063 1.99568 6.24907 0
M  V30 4344 H 400.98 3.69141 6.59751 0
M  V30 4345 H 402.248 2.73226 7.30047 0
M  V30 4346 N 406.477 -1.02803 1.19454 0
M  V30 4347 C 407.407 -2.12999 0.956758 0
M  V30 4348 C 408.388 -1.69743 -0.110188 0
M  V30 4349 O 409.573 -1.94148 0.0450038 0
M  V30 4350 C 406.703 -3.43746 0.495553 0
M  V30 4351 C 405.657 -4.00688 1.50443 0
M  V30 4352 C 404.983 -5.27067 0.900275 0
M  V30 4353 C 406.283 -4.35397 2.8849 0
M  V30 4354 H 407.977 -2.33148 1.87836 0
M  V30 4355 H 405.523 -1.12045 0.904539 0
M  V30 4356 H 407.476 -4.2021 0.316493 0
M  V30 4357 H 406.2 -3.23321 -0.461646 0
M  V30 4358 H 404.859 -3.2632 1.67065 0
M  V30 4359 H 404.507 -5.02959 -0.064503 0
M  V30 4360 H 404.207 -5.66127 1.57397 0
M  V30 4361 H 405.731 -6.06196 0.73203 0
M  V30 4362 H 407.145 -5.02795 2.75446 0
M  V30 4363 H 405.542 -4.85541 3.52661 0
M  V30 4364 H 406.612 -3.44662 3.41081 0
M  V30 4365 N 407.956 -0.998596 -1.21925 0
M  V30 4366 C 409.204 -0.676325 -1.90448 0
M  V30 4367 C 409.525 0.794719 -1.78071 0
M  V30 4368 O 408.795 1.5701 -1.17152 0
M  V30 4369 H 407.375 -0.247165 -0.704925 0
M  V30 4370 H 410.037 -1.26633 -1.48156 0
M  V30 4371 H 409.133 -0.943858 -2.97486 0
M  V30 4372 N 409.434 1.37368 -0.772513 0
M  V30 4373 C 410.85 1.53059 -0.452231 0
M  V30 4374 C 411.05 1.73065 1.03203 0
M  V30 4375 O 410.106 1.75245 1.81784 0
M  V30 4376 C 411.419 2.72659 -1.26797 0
M  V30 4377 C 412.967 2.86521 -1.25995 0
M  V30 4378 C 413.442 4.09105 -2.05905 0
M  V30 4379 N 414.933 4.16219 -2.03263 0
M  V30 4380 C 415.668 5.10107 -2.61875 0
M  V30 4381 N 415.164 6.09547 -3.29278 0
M  V30 4382 N 416.957 5.02596 -2.51701 0
M  V30 4383 H 409.108 1.22634 -1.7342 0
M  V30 4384 H 411.371 0.597206 -0.736239 0
M  V30 4385 H 411.077 2.64343 -2.31982 0
M  V30 4386 H 410.951 3.66363 -0.897672 0
M  V30 4387 H 413.338 2.94308 -0.216081 0
M  V30 4388 H 413.419 1.93774 -1.66989 0
M  V30 4389 H 413.063 4.0208 -3.10313 0
M  V30 4390 H 412.993 5.00968 -1.62292 0
M  V30 4391 H 415.484 3.45012 -1.54192 0
M  V30 4392 H 415.797 6.77718 -3.71374 0
M  V30 4393 H 414.142 6.09824 -3.33377 0
M  V30 4394 H 417.333 4.23855 -1.98657 0
M  V30 4395 H 417.506 5.75582 -2.97673 0
M  V30 4396 N 410.912 0.523116 1.48665 0
M  V30 4397 C 412.14 -0.0096312 2.06898 0
M  V30 4398 C 412.555 -1.28784 1.38059 0
M  V30 4399 O 411.912 -1.76453 0.465893 0
M  V30 4400 C 411.963 -0.244386 3.60673 0
M  V30 4401 O 411.684 0.983172 4.26925 0
M  V30 4402 C 413.185 -0.818289 4.35682 0
M  V30 4403 H 410.405 0.0304161 0.67031 0
M  V30 4404 H 412.949 0.726799 1.91149 0
M  V30 4405 H 411.104 -0.930847 3.76051 0
M  V30 4406 H 411.518 0.759653 5.1897 0
M  V30 4407 H 412.992 -0.93201 5.44075 0
M  V30 4408 H 413.469 -1.82153 3.99646 0
M  V30 4409 H 414.075 -0.168609 4.24966 0
M  V30 4410 N 412.39 -1.55475 0.257931 0
M  V30 4411 C 413.639 -1.98383 -0.364275 0
M  V30 4412 C 413.952 -1.14952 -1.58258 0
M  V30 4413 O 415.158 -1.47924 -2.27664 0
M  V30 4414 C 413.614 -3.53037 -0.699479 0
M  V30 4415 C 413.222 -4.45223 0.498046 0
M  V30 4416 C 414.966 -4.04575 -1.28526 0
M  V30 4417 C 412.873 -5.91238 0.138383 0
M  V30 4418 H 411.803 -0.740911 -0.13988 0
M  V30 4419 H 414.454 -1.79936 0.359883 0
M  V30 4420 H 412.836 -3.6722 -1.48207 0
M  V30 4421 H 414.01 -4.42803 1.27522 0
M  V30 4422 H 412.325 -4.04226 0.999503 0
M  V30 4423 H 414.922 -5.11196 -1.56788 0
M  V30 4424 H 415.265 -3.5258 -2.21344 0
M  V30 4425 H 415.798 -3.93762 -0.565337 0
M  V30 4426 H 412.537 -6.47294 1.03398 0
M  V30 4427 H 412.057 -5.96768 -0.602374 0
M  V30 4428 H 413.736 -6.46413 -0.27553 0
M  V30 4429 N 413.868 0.0150385 -1.57593 0
M  V30 4430 C 415.116 0.701613 -1.8953 0
M  V30 4431 C 415.437 1.75139 -0.857396 0
M  V30 4432 O 414.707 1.95607 0.107194 0
M  V30 4433 H 413.287 0.26213 -0.699498 0
M  V30 4434 H 415.949 -0.0223304 -1.94887 0
M  V30 4435 H 415.045 1.18236 -2.88837 0
M  V30 4436 N 415.346 1.54954 0.287554 0
M  V30 4437 C 416.595 1.74081 1.01877 0
M  V30 4438 C 416.908 0.541135 1.87966 0
M  V30 4439 O 418.114 0.614491 2.64455 0
M  V30 4440 C 416.57 3.08042 1.86113 0
M  V30 4441 C 416.178 4.35531 1.04961 0
M  V30 4442 C 417.922 3.36523 2.58752 0
M  V30 4443 C 415.829 5.60538 1.88551 0
M  V30 4444 H 414.759 0.64884 0.384087 0
M  V30 4445 H 417.41 1.81426 0.275101 0
M  V30 4446 H 415.792 2.94696 2.64519 0
M  V30 4447 H 416.966 4.59751 0.31074 0
M  V30 4448 H 415.281 4.14085 0.43843 0
M  V30 4449 H 417.878 4.27122 3.21668 0
M  V30 4450 H 418.221 2.56 3.28283 0
M  V30 4451 H 418.754 3.50901 1.87386 0
M  V30 4452 H 415.493 6.43767 1.23466 0
M  V30 4453 H 415.013 5.40483 2.60074 0
M  V30 4454 H 416.692 5.98297 2.46273 0
M  V30 4455 N 416.824 -0.551391 1.4764 0
M  V30 4456 C 418.071 -1.3083 1.54563 0
M  V30 4457 C 418.399 -1.93359 0.210361 0
M  V30 4458 O 417.654 -1.78721 -0.797332 0
M  V30 4459 C 417.953 -2.43469 2.61644 0
M  V30 4460 C 417.619 -1.98732 4.04742 0
M  V30 4461 C 416.281 -1.86248 4.43695 0
M  V30 4462 C 418.633 -1.64659 4.94507 0
M  V30 4463 C 415.961 -1.37995 5.70241 0
M  V30 4464 C 418.313 -1.17875 6.21521 0
M  V30 4465 C 416.977 -1.03992 6.5935 0
M  V30 4466 H 416.247 -0.478741 0.565587 0
M  V30 4467 H 418.894 -0.617697 1.81264 0
M  V30 4468 H 417.199 -3.18109 2.28722 0
M  V30 4469 H 418.896 -3.01642 2.64222 0
M  V30 4470 H 415.486 -2.09393 3.73968 0
M  V30 4471 H 419.67 -1.73174 4.65107 0
M  V30 4472 H 414.926 -1.25915 5.98294 0
M  V30 4473 H 419.1 -0.905739 6.90485 0
M  V30 4474 H 416.727 -0.663794 7.57296 0
M  V30 4475 N 418.302 -1.35869 -0.798587 0
M  V30 4476 C 419.548 -1.30788 -1.55775 0
M  V30 4477 C 419.903 0.114558 -1.92059 0
M  V30 4478 O 419.196 1.06691 -1.59147 0
M  V30 4479 C 419.39 -2.1556 -2.85077 0
M  V30 4480 C 419.219 -3.65904 -2.61428 0
M  V30 4481 C 417.989 -4.35112 -2.56915 0
M  V30 4482 C 420.187 -4.59375 -2.31255 0
M  V30 4483 N 418.169 -5.71155 -2.25068 0
M  V30 4484 C 419.54 -5.83598 -2.09316 0
M  V30 4485 C 421.595 -4.48035 -2.17185 0
M  V30 4486 C 420.298 -6.97755 -1.74731 0
M  V30 4487 C 422.324 -5.62049 -1.83998 0
M  V30 4488 C 421.686 -6.85305 -1.629 0
M  V30 4489 H 417.785 -0.533855 -0.571422 0
M  V30 4490 H 420.369 -1.7083 -0.934079 0
M  V30 4491 H 418.54 -1.77776 -3.45326 0
M  V30 4492 H 420.272 -2.01938 -3.50718 0
M  V30 4493 H 417.027 -3.87812 -2.71843 0
M  V30 4494 H 417.451 -6.42978 -2.11916 0
M  V30 4495 H 422.093 -3.53338 -2.3219 0
M  V30 4496 H 419.811 -7.92411 -1.58464 0
M  V30 4497 H 423.397 -5.55232 -1.73808 0
M  V30 4498 H 422.277 -7.72034 -1.37596 0
M  V30 4499 N 419.78 1.02168 -1.19998 0
M  V30 4500 C 420.71 2.12488 -0.96804 0
M  V30 4501 C 421.691 1.69799 0.101185 0
M  V30 4502 O 422.876 1.94121 -0.0552993 0
M  V30 4503 C 420.006 3.43479 -0.513776 0
M  V30 4504 C 418.96 3.99884 -1.52566 0
M  V30 4505 C 418.286 5.26582 -0.928214 0
M  V30 4506 C 419.586 4.33861 -2.90795 0
M  V30 4507 H 421.28 2.32149 -1.89069 0
M  V30 4508 H 418.826 1.11564 -0.910468 0
M  V30 4509 H 420.779 4.20036 -0.338774 0
M  V30 4510 H 419.503 3.23561 0.444493 0
M  V30 4511 H 418.162 3.25429 -1.68794 0
M  V30 4512 H 417.81 5.02986 0.0378289 0
M  V30 4513 H 417.51 5.65284 -1.60397 0
M  V30 4514 H 419.034 6.05799 -0.764167 0
M  V30 4515 H 420.448 5.01327 -2.78109 0
M  V30 4516 H 418.845 4.83664 -3.55231 0
M  V30 4517 H 419.915 3.42848 -3.42904 0
M  V30 4518 N 421.258 1.00505 1.21394 0
M  V30 4519 C 422.206 0.558623 2.25792 0
M  V30 4520 C 423.2 -0.396848 1.64686 0
M  V30 4521 O 424.406 -0.268035 1.77993 0
M  V30 4522 H 420.781 0.1623 0.734277 0
M  V30 4523 H 422.752 1.4503 2.60785 0
M  V30 4524 C 421.501 -0.0989574 3.47559 0
M  V30 4525 H 420.824 0.627225 3.94849 0
M  V30 4526 H 422.264 -0.3746 4.22342 0
M  V30 4527 C 420.723 -1.33817 3.09184 0
M  V30 4528 O 421.253 -2.43252 3.19674 0
M  V30 4529 N 419.459 -1.21793 2.63846 0
M  V30 4530 H 419.006 -0.32746 2.5551 0
M  V30 4531 H 418.964 -2.04809 2.38539 0
M  V30 4532 N 422.737 -1.36956 0.779787 0
M  V30 4533 C 423.7 -2.2851 0.177662 0
M  V30 4534 C 424.7 -1.48393 -0.619377 0
M  V30 4535 O 425.89 -1.68505 -0.441785 0
M  V30 4536 C 423.022 -3.32428 -0.755279 0
M  V30 4537 H 424.215 -2.83269 0.984823 0
M  V30 4538 H 421.768 -1.46358 0.548544 0
M  V30 4539 H 422.503 -2.82808 -1.58714 0
M  V30 4540 H 422.288 -3.91659 -0.185817 0
M  V30 4541 H 423.778 -4.00824 -1.17174 0
M  V30 4542 N 424.215 -0.530993 -1.48385 0
M  V30 4543 C 425.44 0.000729535 -2.074 0
M  V30 4544 C 425.865 1.27298 -1.3848 0
M  V30 4545 O 425.223 1.75599 -0.451081 0
M  V30 4546 C 425.271 0.206697 -3.60007 0
M  V30 4547 O 424.375 1.27514 -3.92191 0
M  V30 4548 H 423.716 -0.039583 -0.662819 0
M  V30 4549 H 426.246 -0.739194 -1.9078 0
M  V30 4550 H 426.256 0.42904 -4.05738 0
M  V30 4551 H 424.931 -0.722675 -4.09573 0
M  V30 4552 H 423.508 1.03537 -3.58238 0
M  V30 4553 N 425.693 1.55336 -0.266172 0
M  V30 4554 C 426.603 2.2583 0.635458 0
M  V30 4555 C 427.619 1.28106 1.17749 0
M  V30 4556 O 428.795 1.61024 1.20968 0
M  V30 4557 C 425.86 2.95879 1.80712 0
M  V30 4558 C 424.921 4.09059 1.30265 0
M  V30 4559 C 424.154 4.75759 2.41846 0
M  V30 4560 O 424.377 4.41622 3.61007 0
M  V30 4561 O 423.311 5.63888 2.1051 0
M  V30 4562 H 427.137 3.03631 0.0646693 0
M  V30 4563 H 424.722 1.49361 -0.0339177 0
M  V30 4564 H 426.604 3.39932 2.49047 0
M  V30 4565 H 425.279 2.21002 2.36516 0
M  V30 4566 H 424.186 3.69482 0.586019 0
M  V30 4567 H 425.519 4.85811 0.790458 0
M  V30 4568 N 427.171 -0.0066808 1.57599 0
M  V30 4569 C 428.399 -0.704087 1.94551 0
M  V30 4570 C 428.814 -1.67677 0.867746 0
M  V30 4571 O 428.171 -1.8185 -0.153925 0
M  V30 4572 C 428.222 -1.44177 3.31505 0
M  V30 4573 O 427.943 -0.508097 4.35144 0
M  V30 4574 C 429.444 -2.23429 3.82876 0
M  V30 4575 H 426.664 -0.196523 0.641576 0
M  V30 4576 H 429.208 0.042453 2.04456 0
M  V30 4577 H 427.363 -2.13999 3.22929 0
M  V30 4578 H 427.777 -1.02782 5.14331 0
M  V30 4579 H 429.251 -2.70552 4.8115 0
M  V30 4580 H 429.728 -3.05818 3.15233 0
M  V30 4581 H 430.334 -1.58636 3.94607 0
M  V30 4582 N 428.649 -1.55105 -0.279332 0
M  V30 4583 C 429.579 -1.90557 -1.34945 0
M  V30 4584 C 430.56 -0.766738 -1.51839 0
M  V30 4585 O 431.745 -1.02434 -1.64988 0
M  V30 4586 C 428.875 -2.17193 -2.71006 0
M  V30 4587 C 427.829 -3.33021 -2.68851 0
M  V30 4588 C 427.155 -3.45123 -4.08405 0
M  V30 4589 C 428.455 -4.69578 -2.28678 0
M  V30 4590 H 430.149 -2.80188 -1.05522 0
M  V30 4591 H 427.695 -1.34811 -0.506173 0
M  V30 4592 H 429.648 -2.40581 -3.45975 0
M  V30 4593 H 428.372 -1.24355 -3.01999 0
M  V30 4594 H 427.031 -3.0959 -1.9634 0
M  V30 4595 H 426.679 -2.49762 -4.3661 0
M  V30 4596 H 426.379 -4.22995 -4.07859 0
M  V30 4597 H 427.903 -3.70796 -4.85121 0
M  V30 4598 H 429.317 -4.92553 -2.93368 0
M  V30 4599 H 427.714 -5.5032 -2.39306 0
M  V30 4600 H 428.784 -4.68828 -1.23807 0
M  V30 4601 N 430.127 0.543554 -1.4793 0
M  V30 4602 C 431.373 1.30201 -1.55485 0
M  V30 4603 C 431.706 1.92925 -0.222201 0
M  V30 4604 O 430.981 1.78586 0.77053 0
M  V30 4605 C 431.264 2.40174 -2.68307 0
M  V30 4606 C 431.117 1.8223 -4.11233 0
M  V30 4607 C 432.436 3.42024 -2.76961 0
M  V30 4608 H 429.555 0.472036 -0.565996 0
M  V30 4609 H 432.197 0.606914 -1.80046 0
M  V30 4610 H 430.347 2.99463 -2.47495 0
M  V30 4611 H 432.019 1.27096 -4.43446 0
M  V30 4612 H 430.262 1.12832 -4.18869 0
M  V30 4613 H 430.933 2.61793 -4.85972 0
M  V30 4614 H 433.409 2.92672 -2.95774 0
M  V30 4615 H 432.285 4.16383 -3.57654 0
M  V30 4616 H 432.546 4.0173 -1.84568 0
M  V30 4617 N 431.605 1.3629 0.791371 0
M  V30 4618 C 432.515 1.32606 1.93527 0
M  V30 4619 C 433.531 0.228541 1.72493 0
M  V30 4620 O 434.707 0.460571 1.96063 0
M  V30 4621 C 431.772 1.11271 3.28359 0
M  V30 4622 C 430.833 2.3048 3.62185 0
M  V30 4623 C 430.066 2.10154 4.90583 0
M  V30 4624 O 430.289 1.07572 5.60165 0
M  V30 4625 O 429.223 2.97884 5.23019 0
M  V30 4626 H 433.049 2.28909 1.99585 0
M  V30 4627 H 430.634 1.16818 0.931344 0
M  V30 4628 H 432.516 1.01283 4.09047 0
M  V30 4629 H 431.191 0.180292 3.23198 0
M  V30 4630 H 430.098 2.46036 2.81811 0
M  V30 4631 H 431.431 3.22221 3.72068 0
M  V30 4632 N 433.083 -1.0153 1.20538 0
M  V30 4633 C 434.332 -1.74558 1.01057 0
M  V30 4634 C 434.645 -1.90168 -0.457756 0
M  V30 4635 O 435.851 -2.60301 -0.771722 0
M  V30 4636 C 434.307 -3.13963 1.75941 0
M  V30 4637 C 433.915 -3.06361 3.26875 0
M  V30 4638 C 435.659 -3.91191 1.64832 0
M  V30 4639 C 433.566 -4.40782 3.94291 0
M  V30 4640 H 432.496 -0.654417 0.374505 0
M  V30 4641 H 435.147 -1.13521 1.44171 0
M  V30 4642 H 433.529 -3.75549 1.25614 0
M  V30 4643 H 434.703 -2.54074 3.84425 0
M  V30 4644 H 433.018 -2.42625 3.38411 0
M  V30 4645 H 435.615 -4.90644 2.12539 0
M  V30 4646 H 435.958 -4.11884 0.604745 0
M  V30 4647 H 436.491 -3.36236 2.12579 0
M  V30 4648 H 433.23 -4.25292 4.98805 0
M  V30 4649 H 432.75 -4.9307 3.41529 0
M  V30 4650 H 434.429 -5.09621 3.98617 0
M  V30 4651 N 434.561 -1.01147 -1.20859 0
M  V30 4652 C 435.509 -0.57059 -2.25493 0
M  V30 4653 C 436.503 0.388109 -1.64894 0
M  V30 4654 O 437.709 0.258592 -1.78133 0
M  V30 4655 H 434.084 -0.166191 -0.733406 0
M  V30 4656 H 436.055 -1.46411 -2.60012 0
M  V30 4657 C 434.804 0.0805241 -3.47607 0
M  V30 4658 H 434.127 -0.648156 -3.94511 0
M  V30 4659 H 435.567 0.352197 -4.22535 0
M  V30 4660 C 434.026 1.32175 -3.09889 0
M  V30 4661 O 434.556 2.41553 -3.20959 0
M  V30 4662 N 432.762 1.20392 -2.64488 0
M  V30 4663 H 432.309 0.313905 -2.5568 0
M  V30 4664 H 432.267 2.03541 -2.39621 0
M  V30 4665 N 436.039 1.36541 -0.78704 0
M  V30 4666 C 437.267 2.03561 -0.370199 0
M  V30 4667 C 437.682 1.59347 1.01263 0
M  V30 4668 O 437.039 0.781781 1.64907 0
M  V30 4669 C 437.09 3.59033 -0.421614 0
M  V30 4670 O 436.811 4.01634 -1.7499 0
M  V30 4671 C 438.312 4.433 0.00489763 0
M  V30 4672 H 435.532 0.653346 -0.152904 0
M  V30 4673 H 438.076 1.74566 -1.06522 0
M  V30 4674 H 436.231 3.86746 0.224971 0
M  V30 4675 H 436.645 4.96217 -1.69909 0
M  V30 4676 H 438.119 5.51939 -0.0822184 0
M  V30 4677 H 438.596 4.26285 1.05723 0
M  V30 4678 H 439.202 4.20843 -0.614085 0
M  V30 4679 N 437.518 0.538854 1.48102 0
M  V30 4680 C 438.428 -0.222648 2.33541 0
M  V30 4681 C 439.444 -0.930225 1.47047 0
M  V30 4682 O 440.62 -0.903211 1.80011 0
M  V30 4683 C 437.685 -1.25064 3.23357 0
M  V30 4684 C 436.746 -0.552469 4.2573 0
M  V30 4685 C 435.979 -1.53149 5.11254 0
M  V30 4686 O 436.202 -2.76487 4.9891 0
M  V30 4687 O 435.136 -1.06602 5.92385 0
M  V30 4688 H 438.962 0.477707 2.99919 0
M  V30 4689 H 436.547 0.299669 1.46364 0
M  V30 4690 H 438.429 -1.8445 3.78888 0
M  V30 4691 H 437.104 -1.93325 2.59629 0
M  V30 4692 H 436.011 0.082114 3.7401 0
M  V30 4693 H 437.344 0.0883526 4.92121 0
M  V30 4694 N 438.996 -1.55193 0.274407 0
M  V30 4695 C 440.407 -1.85358 -0.223488 0
M  V30 4696 C 440.758 -1.19642 -1.555 0
M  V30 4697 O 439.883 -0.484498 -2.10907 0
M  V30 4698 C 440.478 -3.36282 -0.412285 0
M  V30 4699 C 439.037 -3.66574 -0.854413 0
M  V30 4700 C 438.184 -2.7725 0.0527056 0
M  V30 4701 H 441.135 -1.50743 0.496215 0
M  V30 4702 H 441.156 -3.59349 -1.25094 0
M  V30 4703 H 440.668 -3.84083 0.556965 0
M  V30 4704 H 438.769 -3.24273 -1.83516 0
M  V30 4705 H 438.882 -4.74073 -0.692226 0
M  V30 4706 H 437.246 -2.50447 -0.463484 0
M  V30 4707 H 438.029 -3.27865 1.01783 0
M  V30 4708 N 440.474 -0.00167713 -1.576 0
M  V30 4709 C 441.437 0.974046 -2.07473 0
M  V30 4710 C 442.437 1.27143 -0.984444 0
M  V30 4711 O 443.627 1.21633 -1.24703 0
M  V30 4712 C 440.759 2.29849 -2.51759 0
M  V30 4713 H 441.952 0.54262 -2.9495 0
M  V30 4714 H 439.505 0.245829 -1.54355 0
M  V30 4715 H 440.24 2.77677 -1.67529 0
M  V30 4716 H 440.025 2.09584 -3.31386 0
M  V30 4717 H 441.515 2.9984 -2.90664 0
M  V30 4718 N 441.952 1.55251 0.271103 0
M  V30 4719 C 443.198 1.76207 1.00394 0
M  V30 4720 C 443.531 0.562604 1.85872 0
M  V30 4721 O 442.806 -0.439785 1.89463 0
M  V30 4722 C 443.089 3.06828 1.8849 0
M  V30 4723 C 442.942 4.37134 1.05992 0
M  V30 4724 C 444.261 3.33503 2.87165 0
M  V30 4725 H 441.38 0.641086 0.363562 0
M  V30 4726 H 444.022 1.87982 0.276189 0
M  V30 4727 H 442.172 2.96921 2.5054 0
M  V30 4728 H 443.844 4.59001 0.459978 0
M  V30 4729 H 442.087 4.32275 0.363443 0
M  V30 4730 H 442.758 5.2486 1.70955 0
M  V30 4731 H 445.234 3.43215 2.3525 0
M  V30 4732 H 444.11 4.2616 3.45946 0
M  V30 4733 H 444.371 2.53235 3.62387 0
M  V30 4734 N 443.43 -0.535701 1.48216 0
M  V30 4735 C 444.34 -1.66785 1.64985 0
M  V30 4736 C 445.356 -1.65654 0.532414 0
M  V30 4737 O 446.532 -1.8471 0.80275 0
M  V30 4738 C 443.597 -3.0326 1.68031 0
M  V30 4739 C 442.658 -3.1529 2.9136 0
M  V30 4740 C 441.891 -4.45255 2.94252 0
M  V30 4741 O 442.114 -5.32011 2.05719 0
M  V30 4742 O 441.048 -4.6153 3.86359 0
M  V30 4743 H 444.874 -1.55576 2.60825 0
M  V30 4744 H 442.459 -0.70815 1.31551 0
M  V30 4745 H 444.341 -3.84436 1.72589 0
M  V30 4746 H 443.016 -3.14805 0.753628 0
M  V30 4747 H 441.923 -2.3343 2.92337 0
M  V30 4748 H 443.256 -3.08658 3.83394 0
M  V30 4749 N 444.908 -1.36708 -0.784132 0
M  V30 4750 C 446.138 -1.34203 -1.57077 0
M  V30 4751 C 446.546 0.0774945 -1.89041 0
M  V30 4752 O 445.889 1.04628 -1.50992 0
M  V30 4753 C 445.951 -2.10351 -2.91535 0
M  V30 4754 C 445.615 -3.59405 -2.82272 0
M  V30 4755 C 446.612 -4.53545 -2.54151 0
M  V30 4756 C 444.297 -4.02362 -3.00683 0
M  V30 4757 C 446.291 -5.8862 -2.44551 0
M  V30 4758 C 443.978 -5.37526 -2.90704 0
M  V30 4759 C 444.976 -6.30468 -2.62677 0
M  V30 4760 O 444.664 -7.63149 -2.52702 0
M  V30 4761 H 444.396 -0.461791 -0.493685 0
M  V30 4762 H 446.95 -1.80475 -0.980712 0
M  V30 4763 H 445.18 -1.5875 -3.52612 0
M  V30 4764 H 446.869 -2.00636 -3.52845 0
M  V30 4765 H 447.635 -4.21669 -2.39625 0
M  V30 4766 H 443.514 -3.30389 -3.21503 0
M  V30 4767 H 447.058 -6.61133 -2.22596 0
M  V30 4768 H 442.955 -5.69008 -3.04795 0
M  V30 4769 H 443.723 -7.73331 -2.68144 0
M  V30 4770 N 446.386 1.0089 -1.21074 0
M  V30 4771 C 447.614 1.78191 -1.05145 0
M  V30 4772 C 448.029 1.84537 0.398952 0
M  V30 4773 O 447.386 1.30393 1.27687 0
M  V30 4774 C 447.437 3.22288 -1.63746 0
M  V30 4775 O 447.158 3.16315 -3.03111 0
M  V30 4776 C 448.659 4.16106 -1.52875 0
M  V30 4777 H 445.879 0.560129 -0.369454 0
M  V30 4778 H 448.423 1.26945 -1.60328 0
M  V30 4779 H 446.578 3.70655 -1.12664 0
M  V30 4780 H 446.992 4.06817 -3.31059 0
M  V30 4781 H 448.466 5.15026 -1.98626 0
M  V30 4782 H 448.943 4.36541 -0.482521 0
M  V30 4783 H 449.549 3.73625 -2.03185 0
M  V30 4784 N 447.864 1.01787 1.20321 0
M  V30 4785 C 448.794 0.609625 2.25401 0
M  V30 4786 C 449.775 -0.375951 1.65893 0
M  V30 4787 O 450.96 -0.261101 1.92437 0
M  V30 4788 C 448.09 -0.0515995 3.47262 0
M  V30 4789 C 447.044 0.855095 4.19371 0
M  V30 4790 C 446.37 0.0595757 5.34667 0
M  V30 4791 C 447.67 2.16374 4.75373 0
M  V30 4792 H 449.364 1.48803 2.59804 0
M  V30 4793 H 446.91 0.716934 1.24884 0
M  V30 4794 H 448.863 -0.348764 4.19954 0
M  V30 4795 H 447.587 -0.964726 3.12027 0
M  V30 4796 H 446.246 1.13628 3.48546 0
M  V30 4797 H 445.894 -0.85524 4.95676 0
M  V30 4798 H 445.594 0.663406 5.83843 0
M  V30 4799 H 447.118 -0.231105 6.10162 0
M  V30 4800 H 448.532 1.92885 5.39878 0
M  V30 4801 H 446.929 2.71853 5.34991 0
M  V30 4802 H 447.999 2.82589 3.94045 0
M  V30 4803 N 449.342 -1.36122 0.79427 0
M  V30 4804 C 450.57 -2.03362 0.380989 0
M  V30 4805 C 450.985 -1.59881 -1.00416 0
M  V30 4806 O 450.342 -0.790515 -1.6449 0
M  V30 4807 C 450.393 -3.58804 0.440649 0
M  V30 4808 O 450.114 -4.007 1.77118 0
M  V30 4809 C 451.615 -4.43296 0.0186117 0
M  V30 4810 H 448.835 -0.652526 0.156367 0
M  V30 4811 H 451.379 -1.73998 1.07447 0
M  V30 4812 H 449.534 -3.8686 -0.204458 0
M  V30 4813 H 449.948 -4.95309 1.72538 0
M  V30 4814 H 451.422 -5.51887 0.111488 0
M  V30 4815 H 451.899 -4.2684 -1.03461 0
M  V30 4816 H 452.505 -4.20512 0.636395 0
M  V30 4817 N 450.82 -0.546701 -1.47814 0
M  V30 4818 C 451.752 0.244196 -2.27895 0
M  V30 4819 C 452.765 0.88911 -1.36377 0
M  V30 4820 O 453.954 0.764733 -1.61289 0
M  V30 4821 C 451.054 1.36252 -3.10304 0
M  V30 4822 C 450.227 0.816382 -4.29714 0
M  V30 4823 C 449.286 1.81789 -4.93801 0
M  V30 4824 O 448.312 1.36818 -5.52512 0
M  V30 4825 N 449.514 3.15085 -4.87547 0
M  V30 4826 H 452.279 -0.442694 -2.96412 0
M  V30 4827 H 449.84 -0.382095 -1.57327 0
M  V30 4828 H 451.832 2.03102 -3.50045 0
M  V30 4829 H 450.402 1.95281 -2.44099 0
M  V30 4830 H 449.622 -0.0285981 -3.9419 0
M  V30 4831 H 450.91 0.430668 -5.06974 0
M  V30 4832 H 450.308 3.54275 -4.41028 0
M  V30 4833 H 448.865 3.77522 -5.31339 0
M  V30 4834 N 452.299 1.55045 -0.282633 0
M  V30 4835 C 453.232 2.18951 0.64311 0
M  V30 4836 C 454.21 1.15287 1.14664 0
M  V30 4837 O 455.394 1.43846 1.21822 0
M  V30 4838 C 452.521 2.81874 1.87789 0
M  V30 4839 C 451.567 3.98906 1.50919 0
M  V30 4840 S 452.4 5.3234 0.580884 0
M  V30 4841 C 453.556 5.98737 1.82387 0
M  V30 4842 H 453.789 2.97131 0.100138 0
M  V30 4843 H 451.322 1.54255 -0.0668514 0
M  V30 4844 H 453.28 3.18757 2.58658 0
M  V30 4845 H 451.941 2.03573 2.392 0
M  V30 4846 H 451.134 4.4165 2.42819 0
M  V30 4847 H 450.736 3.63485 0.88061 0
M  V30 4848 H 453.028 6.18427 2.76684 0
M  V30 4849 H 453.971 6.93318 1.4393 0
M  V30 4850 H 454.379 5.28177 1.99223 0
M  V30 4851 N 453.777 0.010035 1.57597 0
M  V30 4852 C 455.025 -0.671371 1.90623 0
M  V30 4853 C 455.346 -1.73753 0.885151 0
M  V30 4854 O 454.616 -1.95752 -0.0760611 0
M  V30 4855 H 453.196 -0.250968 0.703579 0
M  V30 4856 H 455.858 0.0533325 1.94827 0
M  V30 4857 H 454.954 -1.13626 2.90681 0
M  V30 4858 N 455.255 -1.55392 -0.262866 0
M  V30 4859 C 456.666 -1.67079 -0.833158 0
M  V30 4860 C 457.017 -0.604539 -1.86654 0
M  V30 4861 O 456.142 0.252138 -2.14926 0
M  V30 4862 C 456.737 -3.02891 -1.51797 0
M  V30 4863 C 455.296 -3.16571 -2.03617 0
M  V30 4864 C 454.443 -2.62909 -0.881701 0
M  V30 4865 H 457.394 -1.58652 -0.0389986 0
M  V30 4866 H 457.415 -2.96445 -2.38538 0
M  V30 4867 H 456.927 -3.80473 -0.765619 0
M  V30 4868 H 455.028 -2.43782 -2.81782 0
M  V30 4869 H 455.141 -4.23271 -2.24452 0
M  V30 4870 H 453.505 -2.20324 -1.27786 0
M  V30 4871 H 454.288 -3.43003 -0.14269 0
M  V30 4872 N 456.733 0.527833 -1.48498 0
M  V30 4873 C 457.979 1.28545 -1.56857 0
M  V30 4874 C 458.312 1.92678 -0.242651 0
M  V30 4875 O 457.587 1.79394 0.751545 0
M  V30 4876 C 457.87 2.37314 -2.70839 0
M  V30 4877 C 457.723 1.77858 -4.13142 0
M  V30 4878 C 459.042 3.39068 -2.80573 0
M  V30 4879 H 456.161 0.466006 -0.570971 0
M  V30 4880 H 458.803 0.587784 -1.8068 0
M  V30 4881 H 456.953 2.96821 -2.50658 0
M  V30 4882 H 458.625 1.22385 -4.44769 0
M  V30 4883 H 456.868 1.08383 -4.20042 0
M  V30 4884 H 457.539 2.56624 -4.88721 0
M  V30 4885 H 460.015 2.89518 -2.98862 0
M  V30 4886 H 458.891 4.12566 -3.6205 0
M  V30 4887 H 459.152 3.9975 -1.88818 0
M  V30 4888 N 458.211 1.37122 0.776871 0
M  V30 4889 C 459.174 1.32301 1.8716 0
M  V30 4890 C 460.174 0.228099 1.59174 0
M  V30 4891 O 461.364 0.483642 1.67352 0
M  V30 4892 C 458.496 1.054 3.24197 0
M  V30 4893 H 459.689 2.29673 1.92848 0
M  V30 4894 H 457.242 1.22077 0.97606 0
M  V30 4895 H 457.977 0.0853872 3.24188 0
M  V30 4896 H 457.762 1.84648 3.45901 0
M  V30 4897 H 459.252 1.04664 4.04271 0
M  V30 4898 N 459.689 -1.00246 1.21608 0
M  V30 4899 C 460.652 -2.07233 0.979133 0
M  V30 4900 C 461.652 -1.6072 -0.0508219 0
M  V30 4901 O 462.842 -1.73196 0.186712 0
M  V30 4902 C 459.974 -3.37546 0.477016 0
M  V30 4903 H 461.167 -2.29687 1.92831 0
M  V30 4904 H 458.72 -1.17261 1.03342 0
M  V30 4905 H 459.455 -3.20773 -0.476966 0
M  V30 4906 H 459.24 -3.72638 1.21997 0
M  V30 4907 H 460.73 -4.16285 0.331181 0
M  V30 4908 N 461.167 -1.02423 -1.1978 0
M  V30 4909 C 462.114 -0.601023 -2.22837 0
M  V30 4910 C 463.084 0.382801 -1.61629 0
M  V30 4911 O 464.269 0.280514 -1.88727 0
M  V30 4912 C 461.409 0.0467755 -3.45068 0
M  V30 4913 C 460.522 -0.98253 -4.20678 0
M  V30 4914 C 459.657 -0.304982 -5.30324 0
M  V30 4915 C 458.696 -1.32052 -5.97686 0
M  V30 4916 N 457.833 -0.669105 -6.98904 0
M  V30 4917 H 462.673 -1.48444 -2.58396 0
M  V30 4918 H 460.21 -0.742936 -1.2696 0
M  V30 4919 H 462.168 0.439556 -4.14878 0
M  V30 4920 H 460.798 0.893796 -3.10179 0
M  V30 4921 H 459.85 -1.49341 -3.49859 0
M  V30 4922 H 461.162 -1.75455 -4.66923 0
M  V30 4923 H 460.316 0.142893 -6.06532 0
M  V30 4924 H 459.055 0.499283 -4.85138 0
M  V30 4925 H 458.06 -1.7787 -5.20233 0
M  V30 4926 H 459.285 -2.1262 -6.44957 0
M  V30 4927 H 457.231 0.115152 -6.55899 0
M  V30 4928 H 457.148 -1.37908 -7.43315 0
M  V30 4929 H 458.416 -0.245076 -7.79115 0
M  V30 4930 N 462.645 1.35699 -0.801477 0
M  V30 4931 C 463.577 2.28598 -0.166028 0
M  V30 4932 C 464.59 1.50044 0.631721 0
M  V30 4933 O 465.779 1.72339 0.464921 0
M  V30 4934 C 462.879 3.29625 0.787451 0
M  V30 4935 C 462.052 4.37384 0.037171 0
M  V30 4936 C 461.111 5.183 0.908375 0
M  V30 4937 O 460.137 5.68053 0.361189 0
M  V30 4938 N 461.339 5.35912 2.23112 0
M  V30 4939 H 464.104 2.83771 -0.964071 0
M  V30 4940 H 461.665 1.47994 -0.656469 0
M  V30 4941 H 463.657 3.80648 1.37439 0
M  V30 4942 H 462.227 2.75004 1.48632 0
M  V30 4943 H 461.447 3.87364 -0.730935 0
M  V30 4944 H 462.735 5.0653 -0.480109 0
M  V30 4945 H 462.133 4.97125 2.69968 0
M  V30 4946 H 460.69 5.90133 2.76741 0
M  V30 4947 N 464.123 0.554532 1.47522 0
M  V30 4948 C 465.07 -0.19466 2.29978 0
M  V30 4949 C 466.04 -0.910882 1.38896 0
M  V30 4950 O 467.225 -0.907102 1.67858 0
M  V30 4951 C 464.365 -1.22035 3.22802 0
M  V30 4952 C 463.478 -0.510474 4.28973 0
M  V30 4953 C 462.613 -1.52123 5.08952 0
M  V30 4954 C 461.652 -0.796173 6.069 0
M  V30 4955 N 460.789 -1.75363 6.79847 0
M  V30 4956 H 465.629 0.51461 2.93523 0
M  V30 4957 H 463.166 0.265607 1.44682 0
M  V30 4958 H 465.124 -1.8276 3.7504 0
M  V30 4959 H 463.754 -1.89769 2.61127 0
M  V30 4960 H 462.806 0.211234 3.79813 0
M  V30 4961 H 464.118 0.0576503 4.98767 0
M  V30 4962 H 463.272 -2.20207 5.65326 0
M  V30 4963 H 462.011 -2.12327 4.39054 0
M  V30 4964 H 461.016 -0.101388 5.49707 0
M  V30 4965 H 462.241 -0.199911 6.78806 0
M  V30 4966 H 460.187 -2.3443 6.12682 0
M  V30 4967 H 460.104 -1.23759 7.45801 0
M  V30 4968 H 461.372 -2.4257 7.40797 0
M  V30 4969 N 465.601 -1.54893 0.290851 0
M  V30 4970 C 466.847 -2.0023 -0.321867 0
M  V30 4971 C 467.18 -1.179 -1.54316 0
M  V30 4972 O 466.455 -0.25293 -1.92848 0
M  V30 4973 C 466.738 -3.53456 -0.688515 0
M  V30 4974 C 466.591 -4.46532 0.541209 0
M  V30 4975 C 467.91 -4.13057 -1.51895 0
M  V30 4976 H 465.029 -0.727891 -0.115515 0
M  V30 4977 H 467.671 -1.85722 0.400931 0
M  V30 4978 H 465.821 -3.6595 -1.30433 0
M  V30 4979 H 467.493 -4.4596 1.17973 0
M  V30 4980 H 465.736 -4.17545 1.17636 0
M  V30 4981 H 466.407 -5.51475 0.240675 0
M  V30 4982 H 468.883 -4.03937 -0.99872 0
M  V30 4983 H 467.759 -5.20448 -1.74429 0
M  V30 4984 H 468.02 -3.64284 -2.50498 0
M  V30 4985 N 467.08 -0.0183926 -1.57589 0
M  V30 4986 C 468.496 0.337897 -1.55982 0
M  V30 4987 C 468.696 1.73604 -1.02294 0
M  V30 4988 O 467.752 2.43589 -0.664895 0
M  V30 4989 C 469.065 0.196305 -3.00059 0
M  V30 4990 C 470.613 0.269875 -3.11834 0
M  V30 4991 C 471.088 0.157197 -4.5773 0
M  V30 4992 N 472.579 0.214521 -4.62703 0
M  V30 4993 C 473.314 0.150955 -5.73201 0
M  V30 4994 N 472.81 0.0369212 -6.9279 0
M  V30 4995 N 474.603 0.204162 -5.61729 0
M  V30 4996 H 466.754 -0.93279 -1.90821 0
M  V30 4997 H 469.017 -0.359253 -0.877292 0
M  V30 4998 H 468.723 -0.766383 -3.43248 0
M  V30 4999 H 468.597 0.970908 -3.6449 0
M  V30 5000 H 470.984 1.22302 -2.68563 0
M  V30 5001 H 471.065 -0.534918 -2.50144 0
M  V30 5002 H 470.709 -0.792479 -5.01679 0
M  V30 5003 H 470.639 0.980717 -5.17387 0
M  V30 5004 H 473.13 0.303238 -3.76681 0
M  V30 5005 H 473.443 -0.00518321 -7.728 0
M  V30 5006 H 471.788 0.0022886 -6.95 0
M  V30 5007 H 474.979 0.291575 -4.67191 0
M  V30 5008 H 475.152 0.15116 -6.47824 0
M  V30 5009 N 468.558 1.5553 0.254621 0
M  V30 5010 C 469.783 1.81383 1.00573 0
M  V30 5011 C 470.208 0.594419 1.78461 0
M  V30 5012 O 469.566 -0.456403 1.75461 0
M  V30 5013 C 469.614 3.04892 1.92545 0
M  V30 5014 O 468.718 2.81266 3.01601 0
M  V30 5015 H 468.059 0.598969 0.286587 0
M  V30 5016 H 470.589 2.02703 0.277952 0
M  V30 5017 H 470.599 3.34119 2.34155 0
M  V30 5018 H 469.274 3.93287 1.3527 0
M  V30 5019 H 467.851 2.63185 2.64174 0
M  V30 5020 N 470.036 -0.519951 1.48776 0
M  V30 5021 C 471.452 -0.849418 1.35119 0
M  V30 5022 C 471.652 -1.98077 0.36982 0
M  V30 5023 O 470.708 -2.51664 -0.205359 0
M  V30 5024 C 472.021 -1.20748 2.75391 0
M  V30 5025 C 473.569 -1.31679 2.83954 0
M  V30 5026 C 474.044 -1.70824 4.24951 0
M  V30 5027 N 475.535 -1.77908 4.27672 0
M  V30 5028 C 476.27 -2.09603 5.33717 0
M  V30 5029 N 475.766 -2.39652 6.5003 0
M  V30 5030 N 477.559 -2.10694 5.21119 0
M  V30 5031 H 469.71 0.226377 2.1119 0
M  V30 5032 H 471.973 0.0386519 0.947212 0
M  V30 5033 H 471.679 -0.449703 3.48813 0
M  V30 5034 H 471.553 -2.15534 3.09556 0
M  V30 5035 H 473.94 -2.06532 2.10781 0
M  V30 5036 H 474.021 -0.3499 2.53396 0
M  V30 5037 H 473.665 -0.965282 4.98643 0
M  V30 5038 H 473.595 -2.6858 4.52959 0
M  V30 5039 H 476.086 -1.56923 3.43779 0
M  V30 5040 H 476.399 -2.6297 7.26682 0
M  V30 5041 H 474.744 -2.37149 6.53288 0
M  V30 5042 H 477.935 -1.86682 4.29264 0
M  V30 5043 H 478.108 -2.35062 6.03863 0
M  V30 5044 N 471.514 -1.37532 -0.769588 0
M  V30 5045 C 472.742 -1.36059 -1.55871 0
M  V30 5046 C 473.157 0.053544 -1.88724 0
M  V30 5047 O 472.514 1.01591 -1.5161 0
M  V30 5048 C 472.565 -2.20107 -2.86767 0
M  V30 5049 O 472.286 -3.56009 -2.55321 0
M  V30 5050 C 473.787 -2.26636 -3.80987 0
M  V30 5051 H 471.007 -0.465967 -0.482821 0
M  V30 5052 H 473.551 -1.80901 -0.953686 0
M  V30 5053 H 471.706 -1.78768 -3.43687 0
M  V30 5054 H 472.12 -4.0009 -3.39158 0
M  V30 5055 H 473.594 -2.89763 -4.69831 0
M  V30 5056 H 474.071 -1.2754 -4.20274 0
M  V30 5057 H 474.677 -2.68296 -3.29996 0
M  V30 5058 N 472.992 0.995999 -1.22138 0
M  V30 5059 C 473.942 2.06988 -0.956042 0
M  V30 5060 C 474.926 1.60636 0.0921576 0
M  V30 5061 O 476.118 1.76607 -0.117958 0
M  V30 5062 C 473.247 3.39148 -0.532335 0
M  V30 5063 C 472.333 3.92142 -1.61509 0
M  V30 5064 N 472.724 4.18397 -2.84214 0
M  V30 5065 C 471.022 4.20514 -1.48606 0
M  V30 5066 C 471.723 4.61425 -3.54206 0
M  V30 5067 N 470.699 4.64934 -2.81669 0
M  V30 5068 H 474.501 2.25223 -1.88816 0
M  V30 5069 H 472.015 1.17748 -1.11845 0
M  V30 5070 H 474.012 4.15642 -0.323574 0
M  V30 5071 H 472.672 3.22314 0.392921 0
M  V30 5072 H 473.683 4.06682 -3.20671 0
M  V30 5073 H 470.36 4.12769 -0.626762 0
M  V30 5074 H 471.75 4.90387 -4.59315 0
M  V30 5075 N 474.47 1.03057 1.19235 0
M  V30 5076 C 475.716 0.729098 1.89241 0
M  V30 5077 C 476.049 -0.740573 1.79525 0
M  V30 5078 O 475.324 -1.53946 1.18874 0
M  V30 5079 C 475.607 1.18304 3.40112 0
M  V30 5080 C 475.46 2.71406 3.5869 0
M  V30 5081 C 476.779 0.765161 4.33397 0
M  V30 5082 H 473.898 0.266338 0.687192 0
M  V30 5083 H 476.54 1.28079 1.40341 0
M  V30 5084 H 474.69 0.713672 3.81889 0
M  V30 5085 H 476.362 3.26303 3.26074 0
M  V30 5086 H 474.605 3.11717 3.01687 0
M  V30 5087 H 475.276 2.98225 4.64506 0
M  V30 5088 H 477.752 1.16889 3.99345 0
M  V30 5089 H 476.628 1.11065 5.37546 0
M  V30 5090 H 476.889 -0.332372 4.40849 0
M  V30 5091 N 475.948 -1.35272 0.808662 0
M  V30 5092 C 476.898 -2.27181 0.193124 0
M  V30 5093 C 477.882 -1.47871 -0.634265 0
M  V30 5094 O 479.074 -1.70048 -0.491182 0
M  V30 5095 C 476.203 -3.36979 -0.655751 0
M  V30 5096 C 475.289 -4.23712 0.181481 0
M  V30 5097 N 475.68 -4.90225 1.24551 0
M  V30 5098 C 473.978 -4.45985 -0.0365493 0
M  V30 5099 C 474.679 -5.54537 1.75682 0
M  V30 5100 N 473.655 -5.33107 1.06294 0
M  V30 5101 H 477.457 -2.76101 1.00724 0
M  V30 5102 H 474.971 -1.48823 0.650029 0
M  V30 5103 H 476.968 -4.01774 -1.11279 0
M  V30 5104 H 475.628 -2.89611 -1.46819 0
M  V30 5105 H 476.639 -4.91641 1.62818 0
M  V30 5106 H 473.316 -4.09409 -0.817964 0
M  V30 5107 H 474.706 -6.17597 2.64621 0
M  V30 5108 N 477.426 -0.562348 -1.47226 0
M  V30 5109 C 478.672 -0.0485293 -2.03342 0
M  V30 5110 C 479.027 1.28898 -1.42839 0
M  V30 5111 O 478.32 1.82719 -0.576563 0
M  V30 5112 C 478.514 0.0969817 -3.57268 0
M  V30 5113 C 478.343 -1.22487 -4.32697 0
M  V30 5114 C 477.113 -1.79357 -4.72397 0
M  V30 5115 C 479.311 -2.14332 -4.67511 0
M  V30 5116 N 477.293 -3.05493 -5.32491 0
M  V30 5117 C 478.664 -3.25049 -5.27961 0
M  V30 5118 C 480.719 -2.14263 -4.4944 0
M  V30 5119 C 479.422 -4.35804 -5.72248 0
M  V30 5120 C 481.448 -3.24033 -4.94729 0
M  V30 5121 C 480.81 -4.3347 -5.55233 0
M  V30 5122 H 476.909 -0.0600464 -0.779691 0
M  V30 5123 H 479.493 -0.750769 -1.79643 0
M  V30 5124 H 477.664 0.768353 -3.80724 0
M  V30 5125 H 479.396 0.613333 -4.00025 0
M  V30 5126 H 476.151 -1.33093 -4.54514 0
M  V30 5127 H 476.575 -3.698 -5.67077 0
M  V30 5128 H 481.217 -1.30935 -4.02015 0
M  V30 5129 H 478.935 -5.19888 -6.18661 0
M  V30 5130 H 482.521 -3.25073 -4.82513 0
M  V30 5131 H 481.401 -5.17008 -5.89638 0
M  V30 5132 N 478.904 1.54736 -0.299062 0
M  V30 5133 C 479.837 2.1962 0.619851 0
M  V30 5134 C 480.815 1.16496 1.13434 0
M  V30 5135 O 481.999 1.4513 1.2029 0
M  V30 5136 C 479.126 2.8385 1.84788 0
M  V30 5137 C 478.172 4.00484 1.46679 0
M  V30 5138 S 479.005 5.32926 0.524389 0
M  V30 5139 C 480.161 6.00638 1.76026 0
M  V30 5140 H 480.394 2.97221 0.0686177 0
M  V30 5141 H 477.927 1.54176 -0.0832085 0
M  V30 5142 H 479.885 3.21483 2.55263 0
M  V30 5143 H 478.546 2.06099 2.37028 0
M  V30 5144 H 477.739 4.44201 2.38121 0
M  V30 5145 H 477.341 3.64398 0.842008 0
M  V30 5146 H 479.633 6.21327 2.70109 0
M  V30 5147 H 480.576 6.94805 1.36569 0
M  V30 5148 H 480.984 5.3026 1.93609 0
M  V30 5149 N 480.382 0.0267497 1.57577 0
M  V30 5150 C 481.607 -0.666227 1.96408 0
M  V30 5151 C 482.032 -1.65004 0.903071 0
M  V30 5152 O 481.39 -1.80787 -0.136263 0
M  V30 5153 C 481.438 -1.35101 3.34335 0
M  V30 5154 O 480.542 -2.46623 3.30531 0
M  V30 5155 H 479.883 -0.175206 0.640468 0
M  V30 5156 H 482.413 0.0878977 2.04411 0
M  V30 5157 H 482.423 -1.70834 3.70513 0
M  V30 5158 H 481.098 -0.629844 4.11103 0
M  V30 5159 H 479.675 -2.13019 3.06068 0
M  V30 5160 N 481.861 -1.55662 -0.24637 0
M  V30 5161 C 482.771 -1.93495 -1.32653 0
M  V30 5162 C 483.787 -0.835462 -1.5263 0
M  V30 5163 O 484.963 -1.1369 -1.66242 0
M  V30 5164 C 482.028 -2.22242 -2.66101 0
M  V30 5165 C 481.089 -3.45625 -2.54641 0
M  V30 5166 C 480.322 -3.72991 -3.81724 0
M  V30 5167 O 480.545 -3.02421 -4.8363 0
M  V30 5168 O 479.479 -4.66515 -3.80325 0
M  V30 5169 H 483.305 -2.85498 -1.03559 0
M  V30 5170 H 480.89 -1.42551 -0.44717 0
M  V30 5171 H 482.772 -2.42037 -3.44958 0
M  V30 5172 H 481.447 -1.33417 -2.94926 0
M  V30 5173 H 480.354 -3.31136 -1.74067 0
M  V30 5174 H 481.687 -4.34754 -2.3076 0
M  V30 5175 N 483.339 0.512053 -1.4905 0
M  V30 5176 C 484.564 1.2959 -1.6193 0
M  V30 5177 C 484.989 1.85906 -0.286454 0
M  V30 5178 O 484.347 1.65312 0.744426 0
M  V30 5179 C 484.395 2.40987 -2.68249 0
M  V30 5180 O 483.499 3.44531 -2.26654 0
M  V30 5181 H 482.84 0.383053 -0.542371 0
M  V30 5182 H 485.37 0.614231 -1.95162 0
M  V30 5183 H 485.38 2.86913 -2.90078 0
M  V30 5184 H 484.055 1.99361 -3.65004 0
M  V30 5185 H 482.632 3.046 -2.15112 0
M  V30 5186 N 484.817 1.37938 0.762283 0
M  V30 5187 C 486.065 1.33404 1.51815 0
M  V30 5188 C 486.386 -0.0780975 1.94844 0
M  V30 5189 O 485.656 -1.02405 1.67003 0
M  V30 5190 H 484.236 0.490839 0.563104 0
M  V30 5191 H 486.898 1.72527 0.906669 0
M  V30 5192 H 485.994 1.97926 2.41313 0
M  V30 5193 N 486.295 -0.989507 1.22664 0
M  V30 5194 C 487.544 -1.72375 1.04737 0
M  V30 5195 C 487.857 -1.91096 -0.417316 0
M  V30 5196 O 489.063 -2.6188 -0.716334 0
M  V30 5197 C 487.519 -3.10161 1.82561 0
M  V30 5198 C 487.127 -2.99358 3.333 0
M  V30 5199 C 488.871 -3.87607 1.73093 0
M  V30 5200 C 486.778 -4.32319 4.03552 0
M  V30 5201 H 485.708 -0.646326 0.388302 0
M  V30 5202 H 488.359 -1.10437 1.46546 0
M  V30 5203 H 486.741 -3.728 1.33552 0
M  V30 5204 H 487.915 -2.45863 3.89728 0
M  V30 5205 H 486.23 -2.35392 3.43481 0
M  V30 5206 H 488.827 -4.86025 2.22899 0
M  V30 5207 H 489.17 -4.10509 0.691976 0
M  V30 5208 H 489.703 -3.31652 2.19663 0
M  V30 5209 H 486.442 -4.14616 5.07714 0
M  V30 5210 H 485.962 -4.85714 3.51911 0
M  V30 5211 H 487.641 -5.01051 4.09337 0
M  V30 5212 N 487.773 -1.03688 -1.18687 0
M  V30 5213 C 489.022 -0.733235 -1.879 0
M  V30 5214 C 489.335 0.741745 -1.8099 0
M  V30 5215 O 490.541 1.15875 -2.4553 0
M  V30 5216 C 488.997 -1.26127 -3.37076 0
M  V30 5217 C 488.605 -2.76461 -3.52524 0
M  V30 5218 C 490.349 -1.03398 -4.11715 0
M  V30 5219 C 488.256 -3.22642 -4.95637 0
M  V30 5220 H 487.186 -0.270584 -0.703776 0
M  V30 5221 H 489.837 -1.25222 -1.34133 0
M  V30 5222 H 488.219 -0.670165 -3.90288 0
M  V30 5223 H 489.393 -3.41296 -3.09602 0
M  V30 5224 H 487.708 -2.97559 -2.91286 0
M  V30 5225 H 490.305 -1.3542 -5.17267 0
M  V30 5226 H 490.648 0.0289246 -4.1629 0
M  V30 5227 H 491.181 -1.5895 -3.64664 0
M  V30 5228 H 487.92 -4.28296 -4.96228 0
M  V30 5229 H 487.44 -2.62539 -5.39289 0
M  V30 5230 H 489.119 -3.16444 -5.64333 0
M  V30 5231 N 489.251 1.34841 -0.815825 0
M  V30 5232 C 490.528 1.92908 -0.323416 0
M  V30 5233 C 490.908 1.74479 1.18828 0
M  V30 5234 O 490.256 1.11928 1.99209 0
M  V30 5235 C 490.466 3.40957 -0.744952 0
M  V30 5236 C 491.814 4.18107 -0.739716 0
M  V30 5237 O 492.838 3.49511 -0.68708 0
M  V30 5238 O 491.697 5.40517 -0.806456 0
M  V30 5239 H 488.791 0.822436 -0.0867646 0
M  V30 5240 H 491.337 1.4386 -0.90014 0
M  V30 5241 H 490.109 3.4814 -1.78646 0
M  V30 5242 H 489.732 3.97341 -0.143535 0
M  V30 5243 N 490.729 0.570148 1.46925 0
M  V30 5244 C 491.975 0.0510284 2.02736 0
M  V30 5245 C 492.308 -1.3006 1.44215 0
M  V30 5246 O 491.583 -1.84932 0.602521 0
M  V30 5247 C 491.866 -0.028215 3.60089 0
M  V30 5248 C 491.719 1.35142 4.29018 0
M  V30 5249 C 493.038 -0.735181 4.33916 0
M  V30 5250 H 490.157 0.0200178 0.736728 0
M  V30 5251 H 492.799 0.73493 1.75211 0
M  V30 5252 H 490.949 -0.610648 3.83671 0
M  V30 5253 H 492.621 1.97806 4.16738 0
M  V30 5254 H 490.864 1.9226 3.88868 0
M  V30 5255 H 491.535 1.24857 5.37694 0
M  V30 5256 H 494.011 -0.240519 4.15404 0
M  V30 5257 H 492.887 -0.759622 5.43618 0
M  V30 5258 H 493.148 -1.79397 4.04066 0
M  V30 5259 N 492.207 -1.54576 0.307264 0
M  V30 5260 C 493.454 -2.00263 -0.300167 0
M  V30 5261 C 493.782 -1.19561 -1.53413 0
M  V30 5262 O 493.037 -0.261487 -1.93945 0
M  V30 5263 C 493.336 -3.50572 -0.695253 0
M  V30 5264 C 493.002 -4.48771 0.437679 0
M  V30 5265 C 491.664 -4.7534 0.748681 0
M  V30 5266 C 494.016 -5.0721 1.19949 0
M  V30 5267 C 491.344 -5.5761 1.8245 0
M  V30 5268 C 493.696 -5.90651 2.26527 0
M  V30 5269 C 492.36 -6.15528 2.58227 0
M  V30 5270 H 491.63 -0.732814 -0.109839 0
M  V30 5271 H 494.277 -1.86664 0.427661 0
M  V30 5272 H 492.582 -3.61814 -1.50326 0
M  V30 5273 H 494.279 -3.83352 -1.17653 0
M  V30 5274 H 490.869 -4.282 0.185187 0
M  V30 5275 H 495.053 -4.86679 0.972474 0
M  V30 5276 H 490.309 -5.75121 2.07476 0
M  V30 5277 H 494.483 -6.34957 2.86011 0
M  V30 5278 H 492.11 -6.79066 3.4172 0
M  V30 5279 N 493.685 -0.035106 -1.57561 0
M  V30 5280 C 494.615 0.942993 -2.13612 0
M  V30 5281 C 495.596 1.33531 -1.05373 0
M  V30 5282 O 496.781 1.41287 -1.33235 0
M  V30 5283 C 493.911 2.22332 -2.66807 0
M  V30 5284 C 492.865 1.97156 -3.79886 0
M  V30 5285 C 492.191 3.31506 -4.19533 0
M  V30 5286 C 493.491 1.30596 -5.05709 0
M  V30 5287 H 495.185 0.476179 -2.95589 0
M  V30 5288 H 492.731 0.227602 -1.4219 0
M  V30 5289 H 494.684 2.91142 -3.04654 0
M  V30 5290 H 493.408 2.7119 -1.81999 0
M  V30 5291 H 492.067 1.30763 -3.42486 0
M  V30 5292 H 491.715 3.78134 -3.31698 0
M  V30 5293 H 491.415 3.15465 -4.95738 0
M  V30 5294 H 492.939 4.01574 -4.59968 0
M  V30 5295 H 494.353 1.89416 -5.41105 0
M  V30 5296 H 492.75 1.24934 -5.86951 0
M  V30 5297 H 493.82 0.279742 -4.84092 0
M  V30 5298 N 495.163 1.55791 0.238111 0
M  V30 5299 C 496.093 1.94068 1.29846 0
M  V30 5300 C 497.074 0.806726 1.49753 0
M  V30 5301 O 498.259 1.06772 1.62214 0
M  V30 5302 C 495.389 2.24302 2.65153 0
M  V30 5303 C 494.343 3.40032 2.59927 0
M  V30 5304 C 493.669 3.55829 3.99111 0
M  V30 5305 C 494.969 4.75476 2.16148 0
M  V30 5306 H 496.663 2.82887 0.980563 0
M  V30 5307 H 494.209 1.36105 0.470253 0
M  V30 5308 H 496.162 2.4967 3.39475 0
M  V30 5309 H 494.886 1.32318 2.98596 0
M  V30 5310 H 493.545 3.14687 1.88063 0
M  V30 5311 H 493.193 2.6125 4.29834 0
M  V30 5312 H 492.893 4.3366 3.96501 0
M  V30 5313 H 494.417 3.83528 4.7512 0
M  V30 5314 H 495.831 5.00158 2.80205 0
M  V30 5315 H 494.228 5.56472 2.24631 0
M  V30 5316 H 495.298 4.71946 1.11333 0
M  V30 5317 N 496.642 -0.504142 1.49319 0
M  V30 5318 C 497.87 -1.28256 1.62351 0
M  V30 5319 C 498.285 -1.86502 0.293682 0
M  V30 5320 O 497.642 -1.67678 -0.720449 0
M  V30 5321 C 497.693 -2.41507 2.68992 0
M  V30 5322 O 497.414 -1.85656 3.96817 0
M  V30 5323 C 498.915 -3.32929 2.927 0
M  V30 5324 H 496.135 -0.389115 0.546654 0
M  V30 5325 H 498.679 -0.605531 1.95329 0
M  V30 5326 H 496.834 -3.05046 2.38801 0
M  V30 5327 H 497.248 -2.59981 4.55533 0
M  V30 5328 H 498.722 -4.0868 3.71058 0
M  V30 5329 H 499.199 -3.89733 2.02496 0
M  V30 5330 H 499.805 -2.75158 3.24296 0
M  V30 5331 N 498.12 -1.38341 -0.754957 0
M  V30 5332 C 499.368 -1.34208 -1.51105 0
M  V30 5333 C 499.689 0.0677634 -1.94882 0
M  V30 5334 O 498.959 1.01517 -1.67544 0
M  V30 5335 H 497.539 -0.493819 -0.560493 0
M  V30 5336 H 500.201 -1.73005 -0.897507 0
M  V30 5337 H 499.297 -1.99203 -2.4026 0
M  V30 5338 N 499.598 0.982988 -1.23187 0
M  V30 5339 C 501.009 1.53847 -1.05773 0
M  V30 5340 C 501.36 1.92568 0.375744 0
M  V30 5341 O 500.485 1.75783 1.26211 0
M  V30 5342 C 501.08 2.79567 -1.91384 0
M  V30 5343 C 499.639 3.31524 -1.78238 0
M  V30 5344 C 498.786 2.04534 -1.87246 0
M  V30 5345 H 501.737 0.802962 -1.36888 0
M  V30 5346 H 501.758 3.52317 -1.43711 0
M  V30 5347 H 501.27 2.51353 -2.95708 0
M  V30 5348 H 499.371 3.64623 -0.766875 0
M  V30 5349 H 499.484 4.01457 -2.61475 0
M  V30 5350 H 497.848 2.1855 -1.30797 0
M  V30 5351 H 498.631 1.78706 -2.9312 0
M  V30 5352 N 501.076 1.04316 1.18135 0
M  V30 5353 C 502.304 0.768117 1.92113 0
M  V30 5354 C 502.719 -0.675057 1.76319 0
M  V30 5355 O 502.076 -1.46038 1.09449 0
M  V30 5356 C 502.127 1.12808 3.43448 0
M  V30 5357 O 501.848 2.5146 3.58747 0
M  V30 5358 C 503.349 0.8779 4.3452 0
M  V30 5359 H 500.569 0.279937 0.609817 0
M  V30 5360 H 503.113 1.39149 1.49859 0
M  V30 5361 H 501.268 0.549623 3.83481 0
M  V30 5362 H 501.682 2.65313 4.52448 0
M  V30 5363 H 503.156 1.17959 5.39249 0
M  V30 5364 H 503.633 -0.187239 4.38801 0
M  V30 5365 H 504.239 1.43977 4.00188 0
M  V30 5366 N 502.554 -1.34406 0.822964 0
M  V30 5367 C 503.965 -1.8069 0.469879 0
M  V30 5368 C 504.316 -1.68223 -1.00972 0
M  V30 5369 O 503.441 -1.22226 -1.78577 0
M  V30 5370 C 504.036 -3.28064 0.846118 0
M  V30 5371 C 502.595 -3.72428 0.545402 0
M  V30 5372 C 501.742 -2.56116 1.06301 0
M  V30 5373 H 504.693 -1.22153 1.01313 0
M  V30 5374 H 504.714 -3.80205 0.149922 0
M  V30 5375 H 504.226 -3.37107 1.92304 0
M  V30 5376 H 502.327 -3.68924 -0.522109 0
M  V30 5377 H 502.44 -4.66548 1.0895 0
M  V30 5378 H 500.804 -2.50048 0.484554 0
M  V30 5379 H 501.587 -2.67928 2.14638 0
M  V30 5380 N 504.032 -0.577932 -1.46621 0
M  V30 5381 C 505.257 -0.0652536 -2.07297 0
M  V30 5382 C 505.682 1.22828 -1.4246 0
M  V30 5383 O 505.04 1.74075 -0.506718 0
M  V30 5384 C 505.088 0.0920589 -3.60482 0
M  V30 5385 O 504.192 1.14972 -3.96049 0
M  V30 5386 H 503.533 -0.06065 -0.661224 0
M  V30 5387 H 506.063 -0.799515 -1.88332 0
M  V30 5388 H 506.073 0.299741 -4.06897 0
M  V30 5389 H 504.748 -0.852612 -4.07067 0
M  V30 5390 H 503.325 0.920879 -3.61351 0
M  V30 5391 N 505.51 1.54411 -0.315457 0
M  V30 5392 C 506.787 1.92562 0.343398 0
M  V30 5393 C 507.167 1.24423 1.70535 0
M  V30 5394 O 506.515 0.385051 2.25232 0
M  V30 5395 C 506.725 3.46168 0.443687 0
M  V30 5396 C 508.073 4.18659 0.707783 0
M  V30 5397 O 509.097 3.52281 0.52693 0
M  V30 5398 O 507.956 5.36198 1.05612 0
M  V30 5399 H 505.05 0.80379 0.194552 0
M  V30 5400 H 507.596 1.65738 -0.364577 0
M  V30 5401 H 506.368 3.8792 -0.513172 0
M  V30 5402 H 505.991 3.79073 1.19956 0
M  V30 5403 N 506.988 0.0434614 1.5754 0
M  V30 5404 C 508.234 -0.632971 1.92669 0
M  V30 5405 C 508.567 -1.70947 0.921446 0
M  V30 5406 O 507.842 -1.94426 -0.0537202 0
M  V30 5407 C 508.125 -1.23619 3.38216 0
M  V30 5408 C 507.978 -0.168274 4.49485 0
M  V30 5409 C 509.297 -2.15008 3.84005 0
M  V30 5410 H 506.416 -0.228629 0.700641 0
M  V30 5411 H 509.058 0.103651 1.89717 0
M  V30 5412 H 507.208 -1.864 3.40863 0
M  V30 5413 H 508.88 0.463196 4.58969 0
M  V30 5414 H 507.123 0.504581 4.30855 0
M  V30 5415 H 507.794 -0.630218 5.48391 0
M  V30 5416 H 510.27 -1.62198 3.83185 0
M  V30 5417 H 509.146 -2.54161 4.86511 0
M  V30 5418 H 509.407 -3.04707 3.20322 0
M  V30 5419 N 508.466 -1.55915 -0.229846 0
M  V30 5420 C 509.713 -1.78542 -0.955452 0
M  V30 5421 C 510.041 -0.610785 -1.84661 0
M  V30 5422 O 509.296 0.405213 -1.91459 0
M  V30 5423 C 509.595 -3.06845 -1.8325 0
M  V30 5424 C 509.261 -4.37395 -1.09528 0
M  V30 5425 C 507.923 -4.72868 -0.891598 0
M  V30 5426 C 510.275 -5.18029 -0.574046 0
M  V30 5427 C 507.603 -5.86496 -0.154655 0
M  V30 5428 C 509.955 -6.32423 0.149513 0
M  V30 5429 C 508.619 -6.66504 0.364519 0
M  V30 5430 H 507.889 -0.653333 -0.349625 0
M  V30 5431 H 510.536 -1.90183 -0.224235 0
M  V30 5432 H 508.841 -2.90291 -2.63132 0
M  V30 5433 H 510.538 -3.21553 -2.39592 0
M  V30 5434 H 507.128 -4.09538 -1.26399 0
M  V30 5435 H 511.312 -4.91066 -0.718899 0
M  V30 5436 H 506.568 -6.11396 0.0222356 0
M  V30 5437 H 510.742 -6.94137 0.560947 0
M  V30 5438 H 508.369 -7.54397 0.937495 0
M  V30 5439 N 509.944 0.496216 -1.49584 0
M  V30 5440 C 510.891 1.59722 -1.66606 0
M  V30 5441 C 511.861 1.58158 -0.507477 0
M  V30 5442 O 513.046 1.76072 -0.735076 0
M  V30 5443 C 510.186 2.97844 -1.74308 0
M  V30 5444 C 509.299 3.09388 -3.01502 0
M  V30 5445 C 508.434 4.38271 -3.00153 0
M  V30 5446 C 507.473 4.43466 -4.21906 0
M  V30 5447 N 506.61 5.63784 -4.1844 0
M  V30 5448 H 511.45 1.44515 -2.60613 0
M  V30 5449 H 508.987 0.703048 -1.29212 0
M  V30 5450 H 510.945 3.77907 -1.76754 0
M  V30 5451 H 509.575 3.11743 -0.837619 0
M  V30 5452 H 508.627 2.22357 -3.08645 0
M  V30 5453 H 509.939 3.09085 -3.91494 0
M  V30 5454 H 509.093 5.2666 -3.01188 0
M  V30 5455 H 507.832 4.41146 -2.07947 0
M  V30 5456 H 506.837 3.53478 -4.21109 0
M  V30 5457 H 508.062 4.42303 -5.1531 0
M  V30 5458 H 506.008 5.67491 -3.29074 0
M  V30 5459 H 505.925 5.65118 -5.02173 0
M  V30 5460 H 507.193 6.54367 -4.23585 0
M  V30 5461 N 511.423 1.38739 0.74761 0
M  V30 5462 C 512.355 1.32341 1.87132 0
M  V30 5463 C 513.368 0.234502 1.61102 0
M  V30 5464 O 514.557 0.492516 1.71571 0
M  V30 5465 C 511.657 1.02915 3.22896 0
M  V30 5466 C 510.83 2.22834 3.76383 0
M  V30 5467 C 509.889 1.90059 4.90677 0
M  V30 5468 O 508.915 2.62615 5.04997 0
M  V30 5469 N 510.117 0.859141 5.74107 0
M  V30 5470 H 512.882 2.29175 1.93129 0
M  V30 5471 H 510.443 1.32678 0.927805 0
M  V30 5472 H 512.435 0.79031 3.96908 0
M  V30 5473 H 511.005 0.148572 3.12247 0
M  V30 5474 H 510.225 2.62747 2.93867 0
M  V30 5475 H 511.513 3.02851 4.08851 0
M  V30 5476 H 510.911 0.257564 5.65113 0
M  V30 5477 H 509.468 0.680189 6.48241 0
M  V30 5478 N 512.901 -0.976442 1.23707 0
M  V30 5479 C 514.131 -1.75087 1.09673 0
M  V30 5480 C 514.539 -1.85852 -0.354344 0
M  V30 5481 O 513.882 -1.33985 -1.25673 0
M  V30 5482 C 513.944 -3.19272 1.65245 0
M  V30 5483 C 513.608 -3.32004 3.14042 0
M  V30 5484 C 514.605 -3.18017 4.11292 0
M  V30 5485 C 512.29 -3.56525 3.53829 0
M  V30 5486 C 514.284 -3.28363 5.46312 0
M  V30 5487 C 511.971 -3.6651 4.88993 0
M  V30 5488 C 512.969 -3.52439 5.85043 0
M  V30 5489 O 512.657 -3.62063 7.1775 0
M  V30 5490 H 512.389 -0.556164 0.384262 0
M  V30 5491 H 514.943 -1.23518 1.64111 0
M  V30 5492 H 513.173 -3.72107 1.05231 0
M  V30 5493 H 514.862 -3.7849 1.46629 0
M  V30 5494 H 515.628 -2.98966 3.81896 0
M  V30 5495 H 511.507 -3.66547 2.79579 0
M  V30 5496 H 515.051 -3.17297 6.21263 0
M  V30 5497 H 510.948 -3.85072 5.18063 0
M  V30 5498 H 511.716 -3.78833 7.25553 0
M  V30 5499 N 514.379 -1.04941 -1.1758 0
M  V30 5500 C 515.604 -0.778253 -1.92245 0
M  V30 5501 C 516.029 0.659707 -1.76152 0
M  V30 5502 O 515.387 1.45803 -1.07755 0
M  V30 5503 C 515.435 -1.16051 -3.41416 0
M  V30 5504 O 514.539 -0.291153 -4.11371 0
M  V30 5505 H 513.88 -0.285619 -0.599431 0
M  V30 5506 H 516.41 -1.40159 -1.49052 0
M  V30 5507 H 516.42 -1.12619 -3.92149 0
M  V30 5508 H 515.095 -2.208 -3.52449 0
M  V30 5509 H 513.672 -0.385851 -3.70898 0
M  V30 5510 N 515.857 1.33968 -0.830081 0
M  V30 5511 C 516.807 2.26845 -0.229242 0
M  V30 5512 C 517.791 1.48862 0.610659 0
M  V30 5513 O 518.983 1.70808 0.464067 0
M  V30 5514 C 516.112 3.3798 0.602057 0
M  V30 5515 C 515.198 4.23369 -0.248866 0
M  V30 5516 N 515.589 4.88182 -1.32334 0
M  V30 5517 C 513.887 4.45987 -0.0344077 0
M  V30 5518 C 514.588 5.51671 -1.84482 0
M  V30 5519 N 513.564 5.31348 -1.14762 0
M  V30 5520 H 517.366 2.74464 -1.05104 0
M  V30 5521 H 514.88 1.4777 -0.673623 0
M  V30 5522 H 516.877 4.03494 1.04873 0
M  V30 5523 H 515.537 2.9191 1.42193 0
M  V30 5524 H 516.548 4.88988 -1.70619 0
M  V30 5525 H 513.225 4.10658 0.752727 0
M  V30 5526 H 514.615 6.13308 -2.74413 0
M  V30 5527 N 517.335 0.585699 1.46312 0
M  V30 5528 C 518.265 -0.133556 2.33118 0
M  V30 5529 C 519.246 -0.880707 1.45525 0
M  V30 5530 O 520.431 -0.855579 1.74337 0
M  V30 5531 C 517.561 -1.14585 3.27853 0
M  V30 5532 C 516.515 -0.513341 4.2491 0
M  V30 5533 C 515.841 -1.63231 5.09175 0
M  V30 5534 C 517.141 0.551413 5.19381 0
M  V30 5535 H 518.835 0.59121 2.93505 0
M  V30 5536 H 516.381 0.285761 1.41136 0
M  V30 5537 H 518.334 -1.65741 3.87438 0
M  V30 5538 H 517.058 -1.90093 2.65579 0
M  V30 5539 H 515.717 -0.0228349 3.66593 0
M  V30 5540 H 515.365 -2.37713 4.43285 0
M  V30 5541 H 515.065 -1.21473 5.74907 0
M  V30 5542 H 516.589 -2.14658 5.71624 0
M  V30 5543 H 518.003 0.124804 5.73164 0
M  V30 5544 H 516.4 0.889486 5.93471 0
M  V30 5545 H 517.47 1.43655 4.63132 0
M  V30 5546 N 518.813 -1.54241 0.323641 0
M  V30 5547 C 520.041 -2.04985 -0.280871 0
M  V30 5548 C 520.456 -1.19978 -1.45777 0
M  V30 5549 O 519.813 -0.230471 -1.81039 0
M  V30 5550 C 519.864 -3.54353 -0.715258 0
M  V30 5551 O 519.585 -4.36132 0.414817 0
M  V30 5552 C 521.086 -4.21189 -1.38257 0
M  V30 5553 H 518.306 -0.66851 -0.0577502 0
M  V30 5554 H 520.85 -1.99029 0.469852 0
M  V30 5555 H 519.005 -3.60596 -1.41596 0
M  V30 5556 H 519.419 -5.2445 0.0725227 0
M  V30 5557 H 520.893 -5.27154 -1.63745 0
M  V30 5558 H 521.37 -3.72307 -2.32989 0
M  V30 5559 H 521.976 -4.19085 -0.724447 0
M  V30 5560 N 520.291 -0.0518155 -1.57515 0
M  V30 5561 C 521.539 0.620595 -1.92336 0
M  V30 5562 C 521.86 1.71345 -0.930907 0
M  V30 5563 O 521.13 1.95885 0.0241341 0
M  V30 5564 H 519.71 0.232226 -0.709986 0
M  V30 5565 H 522.372 -0.104969 -1.94617 0
M  V30 5566 H 521.468 1.05879 -2.93592 0
M  V30 5567 N 521.769 1.56035 0.221574 0
M  V30 5568 C 522.997 1.8313 0.962864 0
M  V30 5569 C 523.412 0.630934 1.77946 0
M  V30 5570 O 522.769 -0.400519 1.78051 0
M  V30 5571 C 522.82 3.08742 1.88045 0
M  V30 5572 O 522.541 4.24147 1.09686 0
M  V30 5573 C 524.042 3.48824 2.73563 0
M  V30 5574 H 521.262 0.608775 0.282194 0
M  V30 5575 H 523.806 2.03124 0.23681 0
M  V30 5576 H 521.961 2.90723 2.56045 0
M  V30 5577 H 522.375 4.95505 1.71974 0
M  V30 5578 H 523.849 4.39752 3.3365 0
M  V30 5579 H 524.326 2.70575 3.45956 0
M  V30 5580 H 524.932 3.69282 2.10976 0
M  V30 5581 N 523.247 -0.488276 1.49845 0
M  V30 5582 C 524.179 -1.60539 1.63584 0
M  V30 5583 C 525.192 -1.5434 0.517972 0
M  V30 5584 O 526.381 -1.60041 0.790516 0
M  V30 5585 C 523.481 -2.99374 1.58835 0
M  V30 5586 C 522.654 -3.30624 2.86368 0
M  V30 5587 C 521.713 -4.4893 2.74496 0
M  V30 5588 O 520.739 -4.50085 3.48443 0
M  V30 5589 N 521.941 -5.49591 1.86894 0
M  V30 5590 H 524.706 -1.49176 2.59936 0
M  V30 5591 H 522.267 -0.67639 1.47094 0
M  V30 5592 H 524.259 -3.76459 1.48529 0
M  V30 5593 H 522.829 -3.04595 0.702892 0
M  V30 5594 H 522.049 -2.42314 3.1093 0
M  V30 5595 H 523.337 -3.48305 3.70892 0
M  V30 5596 H 522.735 -5.51467 1.26097 0
M  V30 5597 H 521.292 -6.25728 1.82503 0
M  V30 5598 N 524.725 -1.39134 -0.740242 0
M  V30 5599 C 525.688 -1.37217 -1.83587 0
M  V30 5600 C 526.688 -0.270221 -1.58513 0
M  V30 5601 O 527.878 -0.527843 -1.6601 0
M  V30 5602 C 525.01 -1.13959 -3.21288 0
M  V30 5603 H 526.203 -2.34705 -1.86691 0
M  V30 5604 H 523.756 -1.24622 -0.94335 0
M  V30 5605 H 524.491 -0.17131 -3.23847 0
M  V30 5606 H 524.276 -1.93754 -3.40884 0
M  V30 5607 H 525.766 -1.15346 -4.01354 0
M  V30 5608 N 526.204 0.969867 -1.24223 0
M  V30 5609 C 527.137 2.06279 -0.975926 0
M  V30 5610 C 528.115 1.62353 0.0895385 0
M  V30 5611 O 529.299 1.88442 -0.0469418 0
M  V30 5612 C 526.426 3.35391 -0.472315 0
M  V30 5613 C 525.472 3.98266 -1.526 0
M  V30 5614 S 526.305 4.36172 -3.10667 0
M  V30 5615 C 527.461 5.68423 -2.62003 0
M  V30 5616 H 527.694 2.28551 -1.90137 0
M  V30 5617 H 525.227 1.10748 -1.07584 0
M  V30 5618 H 527.185 4.10068 -0.188376 0
M  V30 5619 H 525.846 3.1111 0.432378 0
M  V30 5620 H 525.039 4.91307 -1.12399 0
M  V30 5621 H 524.641 3.30009 -1.75983 0
M  V30 5622 H 526.933 6.45842 -2.0468 0
M  V30 5623 H 527.876 6.13478 -3.53625 0
M  V30 5624 H 528.284 5.26928 -2.02502 0
M  V30 5625 N 527.682 1.05563 1.17022 0
M  V30 5626 C 529.093 0.793475 1.69 0
M  V30 5627 C 529.444 -0.683882 1.83895 0
M  V30 5628 O 528.569 -1.53116 1.5292 0
M  V30 5629 C 529.164 1.43376 3.06967 0
M  V30 5630 C 527.723 1.21956 3.56095 0
M  V30 5631 C 526.87 1.51494 2.3226 0
M  V30 5632 H 529.821 1.22008 1.01487 0
M  V30 5633 H 529.842 0.845068 3.70997 0
M  V30 5634 H 529.354 2.50899 2.96093 0
M  V30 5635 H 527.455 0.163749 3.7224 0
M  V30 5636 H 527.568 1.92713 4.38633 0
M  V30 5637 H 525.932 0.935175 2.3691 0
M  V30 5638 H 526.715 2.60159 2.23992 0
M  V30 5639 N 529.16 -1.33526 0.837174 0
M  V30 5640 C 530.571 -1.80182 0.489017 0
M  V30 5641 C 530.922 -1.69285 -0.991826 0
M  V30 5642 O 530.047 -1.24113 -1.77271 0
M  V30 5643 C 530.642 -3.27149 0.880866 0
M  V30 5644 C 529.201 -3.71828 0.584872 0
M  V30 5645 C 528.348 -2.54974 1.09011 0
M  V30 5646 H 531.299 -1.21071 1.02603 0
M  V30 5647 H 531.32 -3.80024 0.190239 0
M  V30 5648 H 530.832 -3.35048 1.95869 0
M  V30 5649 H 528.933 -3.69457 -0.48295 0
M  V30 5650 H 529.046 -4.65366 1.13892 0
M  V30 5651 H 527.41 -2.4952 0.511047 0
M  V30 5652 H 528.193 -2.65637 2.17467 0
M  V30 5653 N 530.638 -0.59345 -1.46 0
M  V30 5654 C 531.568 0.121192 -2.33185 0
M  V30 5655 C 532.549 0.872977 -1.4599 0
M  V30 5656 O 533.734 0.846321 -1.74789 0
M  V30 5657 C 530.864 1.12844 -3.28456 0
M  V30 5658 C 529.818 0.4908 -4.25177 0
M  V30 5659 C 529.144 1.60529 -5.10034 0
M  V30 5660 C 530.444 -0.578949 -5.19081 0
M  V30 5661 H 532.138 -0.606767 -2.93187 0
M  V30 5662 H 529.684 -0.293242 -1.40983 0
M  V30 5663 H 531.637 1.63684 -3.88311 0
M  V30 5664 H 530.361 1.88681 -2.66584 0
M  V30 5665 H 529.02 0.00339328 -3.666 0
M  V30 5666 H 528.668 2.35359 -4.44539 0
M  V30 5667 H 528.368 1.18422 -5.75543 0
M  V30 5668 H 529.892 2.11623 -5.72755 0
M  V30 5669 H 531.306 -0.155199 -5.7309 0
M  V30 5670 H 529.703 -0.920947 -5.92991 0
M  V30 5671 H 530.773 -1.46109 -4.62364 0
M  V30 5672 N 532.116 1.54067 -0.331816 0
M  V30 5673 C 533.363 2.00715 0.268269 0
M  V30 5674 C 533.691 1.21986 1.51491 0
M  V30 5675 O 532.946 0.292309 1.93505 0
M  V30 5676 C 533.245 3.51634 0.639392 0
M  V30 5677 C 532.911 4.48018 -0.509019 0
M  V30 5678 C 531.573 4.74089 -0.824209 0
M  V30 5679 C 533.925 5.05237 -1.28003 0
M  V30 5680 C 531.253 5.54637 -1.91298 0
M  V30 5681 C 533.605 5.86972 -2.35895 0
M  V30 5682 C 532.269 6.11342 -2.67987 0
M  V30 5683 H 531.539 0.734469 0.0981667 0
M  V30 5684 H 534.186 1.8596 -0.457304 0
M  V30 5685 H 532.491 3.6416 1.44551 0
M  V30 5686 H 534.188 3.85175 1.11539 0
M  V30 5687 H 530.778 4.27851 -0.253287 0
M  V30 5688 H 534.962 4.8507 -1.04978 0
M  V30 5689 H 530.218 5.71747 -2.16599 0
M  V30 5690 H 534.392 6.30327 -2.96076 0
M  V30 5691 H 532.019 6.73544 -3.5248 0
M  V30 5692 N 533.594 0.0601682 1.57485 0
M  V30 5693 C 534.819 -0.624416 1.97777 0
M  V30 5694 C 535.244 -1.63051 0.937867 0
M  V30 5695 O 534.602 -1.81036 -0.0978845 0
M  V30 5696 C 534.65 -1.27979 3.37126 0
M  V30 5697 O 533.754 -2.39556 3.35688 0
M  V30 5698 H 533.095 -0.161581 0.64404 0
M  V30 5699 H 535.625 0.131237 2.04179 0
M  V30 5700 H 535.635 -1.62937 3.74053 0
M  V30 5701 H 534.31 -0.542501 4.12347 0
M  V30 5702 H 532.887 -2.06478 3.10517 0
M  V30 5703 N 535.072 -1.5615 -0.213296 0
M  V30 5704 C 536.002 -1.96109 -1.26742 0
M  V30 5705 C 536.983 -0.830448 -1.48451 0
M  V30 5706 O 538.168 -1.09339 -1.60495 0
M  V30 5707 C 535.298 -2.28492 -2.61551 0
M  V30 5708 C 534.252 -3.44124 -2.54485 0
M  V30 5709 C 533.578 -3.62134 -3.93399 0
M  V30 5710 C 534.878 -4.78855 -2.08556 0
M  V30 5711 H 536.572 -2.84412 -0.935434 0
M  V30 5712 H 534.118 -1.36836 -0.44854 0
M  V30 5713 H 536.071 -2.55039 -3.3546 0
M  V30 5714 H 534.795 -1.37052 -2.96453 0
M  V30 5715 H 533.454 -3.17639 -1.83033 0
M  V30 5716 H 533.102 -2.68055 -4.25623 0
M  V30 5717 H 532.802 -4.39913 -3.89551 0
M  V30 5718 H 534.326 -3.91038 -4.68958 0
M  V30 5719 H 535.74 -5.04552 -2.72213 0
M  V30 5720 H 534.137 -5.59975 -2.1575 0
M  V30 5721 H 535.207 -4.73657 -1.03811 0
M  V30 5722 N 536.55 0.480323 -1.50102 0
M  V30 5723 C 537.798 1.23063 -1.60312 0
M  V30 5724 C 538.119 1.92659 -0.301226 0
M  V30 5725 O 537.389 1.83691 0.680753 0
M  V30 5726 H 535.969 0.457231 -0.590719 0
M  V30 5727 H 538.631 0.554893 -1.86834 0
M  V30 5728 H 537.727 1.9835 -2.40964 0
M  V30 5729 N 538.028 1.39524 0.732853 0
M  V30 5730 C 539.258 1.3994 1.51988 0
M  V30 5731 C 539.666 -0.00727973 1.89199 0
M  V30 5732 O 539.009 -0.989521 1.54771 0
M  V30 5733 C 539.071 2.21026 2.83527 0
M  V30 5734 C 538.735 3.69633 2.68738 0
M  V30 5735 C 539.732 4.62665 2.37143 0
M  V30 5736 C 537.417 4.13244 2.85542 0
M  V30 5737 C 539.411 5.97291 2.22536 0
M  V30 5738 C 537.098 5.47945 2.70554 0
M  V30 5739 C 538.096 6.39783 2.39097 0
M  V30 5740 O 537.784 7.72002 2.24204 0
M  V30 5741 H 537.516 0.479795 0.476206 0
M  V30 5742 H 540.07 1.8399 0.913054 0
M  V30 5743 H 538.3 1.71728 3.46477 0
M  V30 5744 H 539.989 2.13594 3.45156 0
M  V30 5745 H 540.755 4.30272 2.2381 0
M  V30 5746 H 536.634 3.42094 3.09019 0
M  V30 5747 H 540.178 6.68939 1.97905 0
M  V30 5748 H 536.075 5.79928 2.83466 0
M  V30 5749 H 536.843 7.8275 2.39258 0
M  V30 5750 N 539.506 -0.963266 1.24736 0
M  V30 5751 C 540.456 -2.0438 1.01058 0
M  V30 5752 C 541.44 -1.60824 -0.0495354 0
M  V30 5753 O 542.632 -1.76232 0.164741 0
M  V30 5754 C 539.761 -3.37617 0.622067 0
M  V30 5755 C 538.847 -3.87722 1.7185 0
M  V30 5756 N 539.238 -4.10715 2.95207 0
M  V30 5757 C 537.536 -4.16426 1.59703 0
M  V30 5758 C 538.237 -4.51872 3.66315 0
M  V30 5759 N 537.213 -4.57302 2.93897 0
M  V30 5760 H 541.015 -2.20138 1.94721 0
M  V30 5761 H 538.529 -1.14741 1.14927 0
M  V30 5762 H 540.526 -4.14638 0.43366 0
M  V30 5763 H 539.186 -3.23242 -0.307327 0
M  V30 5764 H 540.197 -3.98037 3.31341 0
M  V30 5765 H 536.874 -4.10962 0.73598 0
M  V30 5766 H 538.264 -4.78037 4.72155 0
M  V30 5767 N 540.985 -1.06182 -1.16461 0
M  V30 5768 C 541.917 -0.629584 -2.20383 0
M  V30 5769 C 542.93 0.311834 -1.59786 0
M  V30 5770 O 544.119 0.103 -1.78203 0
M  V30 5771 C 541.219 0.0973695 -3.3876 0
M  V30 5772 C 540.392 -0.857252 -4.28917 0
M  V30 5773 C 539.451 -0.169749 -5.25926 0
M  V30 5774 O 538.477 -0.807044 -5.6345 0
M  V30 5775 N 539.679 1.08911 -5.70192 0
M  V30 5776 H 542.444 -1.52352 -2.58087 0
M  V30 5777 H 540.005 -0.944993 -1.31459 0
M  V30 5778 H 541.997 0.567676 -4.00699 0
M  V30 5779 H 540.567 0.893093 -2.99571 0
M  V30 5780 H 539.787 -1.50696 -3.64259 0
M  V30 5781 H 541.075 -1.50489 -4.86035 0
M  V30 5782 H 540.473 1.62703 -5.41797 0
M  V30 5783 H 539.03 1.50331 -6.34227 0
M  V30 5784 N 542.463 1.3308 -0.844243 0
M  V30 5785 C 543.703 1.99414 -0.448697 0
M  V30 5786 C 544.067 1.65398 0.975058 0
M  V30 5787 O 545.268 2.24741 1.47461 0
M  V30 5788 C 543.539 3.51081 -0.669089 0
M  V30 5789 S 545.098 4.37241 -0.369564 0
M  V30 5790 H 541.916 0.690736 -0.168538 0
M  V30 5791 H 544.518 1.61977 -1.0947 0
M  V30 5792 H 543.222 3.73326 -1.70457 0
M  V30 5793 H 542.753 3.93399 -0.00913211 0
M  V30 5794 H 544.768 4.89568 0.808552 0
M  V30 5795 N 543.941 0.601185 1.45683 0
M  V30 5796 C 545.357 0.264315 1.57396 0
M  V30 5797 C 545.557 -1.23324 1.59353 0
M  V30 5798 O 544.613 -2.01594 1.52039 0
M  V30 5799 C 545.926 0.929839 2.85962 0
M  V30 5800 C 547.474 0.905156 2.99626 0
M  V30 5801 C 547.949 1.55057 4.30954 0
M  V30 5802 N 549.44 1.51576 4.37697 0
M  V30 5803 C 550.175 1.98436 5.37969 0
M  V30 5804 N 549.671 2.53352 6.44813 0
M  V30 5805 N 551.464 1.89242 5.29286 0
M  V30 5806 H 543.615 1.57363 1.42656 0
M  V30 5807 H 545.878 0.658831 0.681649 0
M  V30 5808 H 545.584 1.98404 2.90394 0
M  V30 5809 H 545.458 0.449224 3.74515 0
M  V30 5810 H 547.845 -0.14048 2.94765 0
M  V30 5811 H 547.926 1.42397 2.12501 0
M  V30 5812 H 547.57 2.5955 4.36573 0
M  V30 5813 H 547.5 1.00682 5.16886 0
M  V30 5814 H 549.991 1.11452 3.61091 0
M  V30 5815 H 550.304 2.86918 7.17564 0
M  V30 5816 H 548.649 2.57388 6.45582 0
M  V30 5817 H 551.84 1.46083 4.44722 0
M  V30 5818 H 552.013 2.26075 6.07284 0
M  V30 5819 N 545.419 -1.53889 0.339982 0
M  V30 5820 C 546.665 -2.01849 -0.250694 0
M  V30 5821 C 547.02 -1.22356 -1.48482 0
M  V30 5822 O 546.313 -0.301906 -1.89206 0
M  V30 5823 C 546.507 -3.51968 -0.620735 0
M  V30 5824 C 546.336 -4.45996 0.575981 0
M  V30 5825 C 545.106 -4.93619 1.08019 0
M  V30 5826 C 547.304 -4.93923 1.43332 0
M  V30 5827 N 545.286 -5.7159 2.2396 0
M  V30 5828 C 546.657 -5.69982 2.43969 0
M  V30 5829 C 548.712 -4.76038 1.45918 0
M  V30 5830 C 547.415 -6.30057 3.47016 0
M  V30 5831 C 549.441 -5.36961 2.47845 0
M  V30 5832 C 548.803 -6.12884 3.47208 0
M  V30 5833 H 544.902 -0.780054 -0.0551368 0
M  V30 5834 H 547.486 -1.88722 0.478741 0
M  V30 5835 H 545.657 -3.65308 -1.31928 0
M  V30 5836 H 547.389 -3.86677 -1.19429 0
M  V30 5837 H 544.144 -4.69134 0.64884 0
M  V30 5838 H 544.568 -6.15247 2.82489 0
M  V30 5839 H 549.21 -4.16887 0.704608 0
M  V30 5840 H 546.928 -6.88319 4.23371 0
M  V30 5841 H 550.514 -5.2503 2.50668 0
M  V30 5842 H 549.394 -6.59187 4.24785 0
M  V30 5843 N 546.897 -0.0685191 -1.57451 0
M  V30 5844 C 547.845 0.917577 -2.13736 0
M  V30 5845 C 548.839 1.31049 -1.07344 0
M  V30 5846 O 550.045 1.28811 -1.25728 0
M  V30 5847 H 546.42 0.313835 -0.683382 0
M  V30 5848 H 548.391 0.417903 -2.95459 0
M  V30 5849 C 547.14 2.17686 -2.71123 0
M  V30 5850 H 546.463 1.88336 -3.52661 0
M  V30 5851 H 547.903 2.84803 -3.14107 0
M  V30 5852 C 546.362 2.9332 -1.65726 0
M  V30 5853 O 546.892 3.86901 -1.08031 0
M  V30 5854 N 545.098 2.56367 -1.36837 0
M  V30 5855 H 544.645 1.80341 -1.83943 0
M  V30 5856 H 544.603 3.07276 -0.665501 0
M  V30 5857 N 548.375 1.56261 0.205012 0
M  V30 5858 C 549.605 1.83874 0.942018 0
M  V30 5859 C 550.013 0.647595 1.77772 0
M  V30 5860 O 549.356 -0.393098 1.79445 0
M  V30 5861 C 549.418 3.05453 1.89575 0
M  V30 5862 C 549.082 4.39772 1.24296 0
M  V30 5863 C 550.079 5.16133 0.624724 0
M  V30 5864 C 547.764 4.86504 1.24978 0
M  V30 5865 C 549.758 6.37396 0.0220117 0
M  V30 5866 C 547.445 6.07705 0.643232 0
M  V30 5867 C 548.443 6.82993 0.0304164 0
M  V30 5868 O 548.131 8.019 -0.566654 0
M  V30 5869 H 547.863 0.614896 0.280854 0
M  V30 5870 H 550.417 2.04215 0.220285 0
M  V30 5871 H 548.647 2.80972 2.65691 0
M  V30 5872 H 550.336 3.19797 2.4997 0
M  V30 5873 H 551.102 4.81127 0.611666 0
M  V30 5874 H 546.981 4.27865 1.71616 0
M  V30 5875 H 550.525 6.96102 -0.456926 0
M  V30 5876 H 546.422 6.42181 0.653759 0
M  V30 5877 H 547.19 8.17192 -0.462588 0
M  V30 5878 N 549.853 -0.472356 1.50355 0
M  V30 5879 C 550.763 -1.59637 1.7191 0
M  V30 5880 C 551.779 -1.63247 0.602195 0
M  V30 5881 O 552.955 -1.81139 0.880369 0
M  V30 5882 C 550.02 -2.9586 1.80742 0
M  V30 5883 C 549.081 -3.02649 3.04471 0
M  V30 5884 C 548.314 -4.32374 3.12872 0
M  V30 5885 O 548.537 -5.22807 2.28099 0
M  V30 5886 O 547.471 -4.44728 4.05587 0
M  V30 5887 H 551.297 -1.44373 2.67189 0
M  V30 5888 H 548.882 -0.651717 1.34436 0
M  V30 5889 H 550.764 -3.7677 1.88739 0
M  V30 5890 H 549.439 -3.11325 0.88647 0
M  V30 5891 H 548.346 -2.20821 3.01975 0
M  V30 5892 H 549.679 -2.92119 3.9614 0
M  V30 5893 N 551.331 -1.39911 -0.725443 0
M  V30 5894 C 552.608 -1.28158 -1.47766 0
M  V30 5895 C 552.988 0.104545 -2.10841 0
M  V30 5896 O 552.336 1.11657 -1.99361 0
M  V30 5897 C 552.546 -2.41306 -2.52135 0
M  V30 5898 C 553.894 -2.81076 -3.18247 0
M  V30 5899 O 554.918 -2.40827 -2.62452 0
M  V30 5900 O 553.777 -3.50581 -4.19231 0
M  V30 5901 H 550.871 -0.502761 -0.656628 0
M  V30 5902 H 553.417 -1.51808 -0.758456 0
M  V30 5903 H 552.189 -3.33932 -2.03974 0
M  V30 5904 H 551.812 -2.19374 -3.31603 0
M  V30 5905 N 552.809 0.956637 -1.25245 0
M  V30 5906 C 553.719 2.0868 -1.0719 0
M  V30 5907 C 554.735 1.73997 -0.00959074 0
M  V30 5908 O 555.911 2.00301 -0.210104 0
M  V30 5909 C 552.976 3.39754 -0.690526 0
M  V30 5910 C 552.037 3.88316 -1.83055 0
M  V30 5911 C 551.27 5.13134 -1.46728 0
M  V30 5912 O 551.493 5.6925 -0.362029 0
M  V30 5913 O 550.427 5.56356 -2.29677 0
M  V30 5914 H 554.253 2.26813 -2.01965 0
M  V30 5915 H 551.838 1.07098 -1.04165 0
M  V30 5916 H 553.72 4.18543 -0.489871 0
M  V30 5917 H 552.395 3.22896 0.227981 0
M  V30 5918 H 551.302 3.1054 -2.08604 0
M  V30 5919 H 552.635 4.09669 -2.72822 0
M  V30 5920 N 554.287 1.06798 1.15896 0
M  V30 5921 C 555.219 0.641263 2.20046 0
M  V30 5922 C 556.232 -0.303355 1.59949 0
M  V30 5923 O 557.421 -0.0935478 1.78255 0
M  V30 5924 C 554.521 -0.0794029 3.38807 0
M  V30 5925 C 553.694 0.879986 4.28457 0
M  V30 5926 C 552.753 0.197638 5.25829 0
M  V30 5927 O 551.779 0.836913 5.63014 0
M  V30 5928 N 552.981 -1.05886 5.70761 0
M  V30 5929 H 555.746 1.53718 2.57276 0
M  V30 5930 H 553.307 0.951951 1.30956 0
M  V30 5931 H 555.299 -0.546418 4.00994 0
M  V30 5932 H 553.869 -0.877193 3.0004 0
M  V30 5933 H 553.089 1.52625 3.63454 0
M  V30 5934 H 554.377 1.53065 4.8523 0
M  V30 5935 H 553.775 -1.59828 5.42652 0
M  V30 5936 H 552.332 -1.46965 6.35015 0
M  V30 5937 N 555.766 -1.3263 0.851289 0
M  V30 5938 C 557.043 -1.91982 0.374448 0
M  V30 5939 C 557.423 -1.77568 -1.14161 0
M  V30 5940 O 556.771 -1.1717 -1.96172 0
M  V30 5941 C 556.981 -3.38862 0.835088 0
M  V30 5942 C 558.329 -4.15999 0.850309 0
M  V30 5943 O 559.353 -3.47566 0.779505 0
M  V30 5944 O 558.212 -5.38189 0.949481 0
M  V30 5945 H 555.306 -0.819846 0.10854 0
M  V30 5946 H 557.852 -1.41422 0.937966 0
M  V30 5947 H 556.624 -3.43281 1.87814 0
M  V30 5948 H 556.247 -3.96821 0.248833 0
M  V30 5949 N 557.244 -0.608902 -1.45362 0
M  V30 5950 C 558.49 -0.104762 -2.02529 0
M  V30 5951 C 558.823 1.26191 -1.47613 0
M  V30 5952 O 558.098 1.8327 -0.65134 0
M  V30 5953 C 558.381 -0.0672661 -3.60037 0
M  V30 5954 C 558.234 -1.4647 -4.25284 0
M  V30 5955 C 559.553 0.619877 -4.35713 0
M  V30 5956 H 556.672 -0.0395438 -0.735938 0
M  V30 5957 H 559.314 -0.781126 -1.73201 0
M  V30 5958 H 557.464 0.50871 -3.85155 0
M  V30 5959 H 559.136 -2.08785 -4.11347 0
M  V30 5960 H 557.379 -2.02502 -3.83634 0
M  V30 5961 H 558.05 -1.39069 -5.34195 0
M  V30 5962 H 560.526 0.130297 -4.15896 0
M  V30 5963 H 559.402 0.615224 -5.45441 0
M  V30 5964 H 559.663 1.68621 -4.0868 0
M  V30 5965 N 558.722 1.53707 -0.348139 0
M  V30 5966 C 559.669 2.25173 0.506518 0
M  V30 5967 C 560.639 1.25174 1.09182 0
M  V30 5968 O 561.824 1.53917 1.12757 0
M  V30 5969 C 558.964 3.03141 1.64923 0
M  V30 5970 C 558.077 4.18002 1.0908 0
M  V30 5971 C 557.212 4.83447 2.20119 0
M  V30 5972 C 556.251 5.90369 1.61651 0
M  V30 5973 N 555.388 6.49575 2.66451 0
M  V30 5974 H 560.228 2.97799 -0.109452 0
M  V30 5975 H 557.765 1.46953 -0.0657866 0
M  V30 5976 H 559.723 3.46607 2.32205 0
M  V30 5977 H 558.353 2.32803 2.23612 0
M  V30 5978 H 557.405 3.79145 0.308783 0
M  V30 5979 H 558.717 4.94892 0.623178 0
M  V30 5980 H 557.871 5.30008 2.95257 0
M  V30 5981 H 556.61 4.05991 2.70227 0
M  V30 5982 H 555.615 5.43186 0.850209 0
M  V30 5983 H 556.84 6.69735 1.1239 0
M  V30 5984 H 554.786 5.74981 3.15805 0
M  V30 5985 H 554.703 7.21952 2.24325 0
M  V30 5986 H 555.971 7.00789 3.41344 0
M  V30 5987 N 560.2 0.0768682 1.57412 0
M  V30 5988 C 561.163 -0.873949 2.11884 0
M  V30 5989 C 562.163 -1.22301 1.04398 0
M  V30 5990 O 563.353 -1.15545 1.30365 0
M  V30 5991 C 560.485 -2.17575 2.62438 0
M  V30 5992 H 561.678 -0.401278 2.97203 0
M  V30 5993 H 559.231 -0.171904 1.55352 0
M  V30 5994 H 559.966 -2.69368 1.80587 0
M  V30 5995 H 559.751 -1.93534 3.41009 0
M  V30 5996 H 561.241 -2.85631 3.04639 0
M  V30 5997 N 561.678 -1.56367 -0.196722 0
M  V30 5998 C 562.924 -1.80796 -0.918725 0
M  V30 5999 C 563.257 -0.650645 -1.82976 0
M  V30 6000 O 562.532 0.348889 -1.91345 0
M  V30 6001 C 562.815 -3.15472 -1.73636 0
M  V30 6002 C 562.668 -4.41693 -0.85015 0
M  V30 6003 C 563.987 -3.46824 -2.70927 0
M  V30 6004 H 561.106 -0.657702 -0.332561 0
M  V30 6005 H 563.748 -1.89086 -0.186186 0
M  V30 6006 H 561.898 -3.08536 -2.36088 0
M  V30 6007 H 563.57 -4.60673 -0.240459 0
M  V30 6008 H 561.813 -4.33517 -0.156785 0
M  V30 6009 H 562.484 -5.32419 -1.45719 0
M  V30 6010 H 564.96 -3.54049 -2.18607 0
M  V30 6011 H 563.836 -4.4218 -3.25219 0
M  V30 6012 H 564.097 -2.70236 -3.49893 0
M  V30 6013 N 563.156 0.464375 -1.50603 0
M  V30 6014 C 564.433 1.22549 -1.5245 0
M  V30 6015 C 564.813 2.09327 -0.273035 0
M  V30 6016 O 564.161 2.16074 0.743242 0
M  V30 6017 C 564.371 2.05074 -2.82393 0
M  V30 6018 C 565.719 2.63036 -3.33313 0
M  V30 6019 O 566.743 2.1531 -2.8376 0
M  V30 6020 O 565.602 3.5001 -4.19709 0
M  V30 6021 H 562.696 0.556471 -0.611775 0
M  V30 6022 H 565.242 0.475648 -1.62898 0
M  V30 6023 H 564.014 1.41169 -3.64948 0
M  V30 6024 H 563.637 2.87179 -2.7498 0
M  V30 6025 N 564.634 1.40294 0.718013 0
M  V30 6026 C 565.597 1.4012 1.81381 0
M  V30 6027 C 566.597 0.295405 1.58063 0
M  V30 6028 O 567.787 0.554187 1.6515 0
M  V30 6029 C 564.919 1.19056 3.19435 0
M  V30 6030 H 566.112 2.37645 1.82933 0
M  V30 6031 H 563.665 1.26107 0.923405 0
M  V30 6032 H 564.4 0.222809 3.23534 0
M  V30 6033 H 564.185 1.99152 3.37758 0
M  V30 6034 H 565.675 1.21716 3.99468 0
M  V30 6035 N 566.112 -0.949982 1.2575 0
M  V30 6036 C 567.36 -1.6918 1.10555 0
M  V30 6037 C 567.681 -1.91773 -0.353298 0
M  V30 6038 O 566.951 -1.50814 -1.25027 0
M  V30 6039 H 565.531 -0.626952 0.406129 0
M  V30 6040 H 568.193 -1.1419 1.57945 0
M  V30 6041 H 567.289 -2.66915 1.61749 0
M  V30 6042 N 567.59 -1.07411 -1.15328 0
M  V30 6043 C 568.837 -0.797649 -1.86128 0
M  V30 6044 C 569.165 0.676298 -1.82364 0
M  V30 6045 O 568.42 1.51223 -1.24218 0
M  V30 6046 C 568.719 -1.25191 -3.34757 0
M  V30 6047 C 568.385 -2.73191 -3.58716 0
M  V30 6048 C 567.047 -3.13616 -3.64964 0
M  V30 6049 C 569.399 -3.68718 -3.6837 0
M  V30 6050 C 566.727 -4.48383 -3.78377 0
M  V30 6051 C 569.079 -5.03248 -3.83306 0
M  V30 6052 C 567.743 -5.43293 -3.878 0
M  V30 6053 H 567.013 -0.29188 -0.681092 0
M  V30 6054 H 569.66 -1.34524 -1.36292 0
M  V30 6055 H 567.965 -0.623712 -3.86804 0
M  V30 6056 H 569.662 -1.01489 -3.87945 0
M  V30 6057 H 566.252 -2.40898 -3.54494 0
M  V30 6058 H 570.436 -3.38614 -3.62842 0
M  V30 6059 H 565.692 -4.78877 -3.80114 0
M  V30 6060 H 569.866 -5.77142 -3.89718 0
M  V30 6061 H 567.493 -6.47721 -3.97946 0
M  V30 6062 N 569.068 1.32177 -0.85831 0
M  V30 6063 C 570.345 1.91781 -0.384624 0
M  V30 6064 C 570.725 1.78171 1.13217 0
M  V30 6065 O 570.073 1.18209 1.95548 0
M  V30 6066 C 570.283 3.38414 -0.853047 0
M  V30 6067 C 571.631 4.15542 -0.872359 0
M  V30 6068 O 572.655 3.47148 -0.797926 0
M  V30 6069 O 571.514 5.37678 -0.978009 0
M  V30 6070 H 568.608 0.819259 -0.112886 0
M  V30 6071 H 571.154 1.40923 -0.945453 0
M  V30 6072 H 569.926 3.4228 -1.89632 0
M  V30 6073 H 569.549 3.96683 -0.269874 0
M  V30 6074 N 570.547 0.616602 1.45037 0
M  V30 6075 C 571.457 -0.0985401 2.34393 0
M  V30 6076 C 572.473 -0.850971 1.51771 0
M  V30 6077 O 573.649 -0.806521 1.84546 0
M  V30 6078 C 570.714 -1.07748 3.29532 0
M  V30 6079 C 569.775 -0.326022 4.2806 0
M  V30 6080 C 569.008 -1.25833 5.18654 0
M  V30 6081 O 569.231 -2.49652 5.12864 0
M  V30 6082 O 568.165 -0.750512 5.97203 0
M  V30 6083 H 571.991 0.636016 2.96966 0
M  V30 6084 H 569.576 0.376832 1.44569 0
M  V30 6085 H 571.458 -1.64107 3.88133 0
M  V30 6086 H 570.133 -1.79291 2.69512 0
M  V30 6087 H 569.04 0.280253 3.73049 0
M  V30 6088 H 570.373 0.349091 4.9096 0
M  V30 6089 N 572.025 -1.5352 0.356285 0
M  V30 6090 C 572.975 -2.22204 -0.510815 0
M  V30 6091 C 573.959 -1.21393 -1.05605 0
M  V30 6092 O 575.151 -1.46883 -0.987639 0
M  V30 6093 C 572.28 -3.00786 -1.65478 0
M  V30 6094 C 571.366 -4.08965 -1.12287 0
M  V30 6095 N 571.757 -5.04829 -0.313191 0
M  V30 6096 C 570.055 -4.23505 -1.39856 0
M  V30 6097 C 570.756 -5.81695 -0.0230322 0
M  V30 6098 N 569.732 -5.40074 -0.618144 0
M  V30 6099 H 573.534 -2.93676 0.114711 0
M  V30 6100 H 571.048 -1.61572 0.163811 0
M  V30 6101 H 573.045 -3.48502 -2.28806 0
M  V30 6102 H 571.705 -2.30843 -2.28345 0
M  V30 6103 H 572.716 -5.17879 0.0468202 0
M  V30 6104 H 569.393 -3.64786 -2.0307 0
M  V30 6105 H 570.783 -6.68931 0.630927 0
M  V30 6106 N 573.503 -0.0852151 -1.57369 0
M  V30 6107 C 574.78 0.622534 -1.85429 0
M  V30 6108 C 575.16 1.86962 -0.980229 0
M  V30 6109 O 574.508 2.28445 -0.0500219 0
M  V30 6110 C 574.718 0.947374 -3.35896 0
M  V30 6111 C 576.066 1.31509 -4.03721 0
M  V30 6112 O 577.09 1.03869 -3.40719 0
M  V30 6113 O 575.949 1.83231 -5.14868 0
M  V30 6114 H 573.043 0.310513 -0.766492 0
M  V30 6115 H 575.589 -0.117164 -1.69295 0
M  V30 6116 H 574.361 0.0622264 -3.91251 0
M  V30 6117 H 573.984 1.74338 -3.5734 0
M  V30 6118 N 574.981 1.5647 0.188427 0
M  V30 6119 C 576.23 1.80207 0.905995 0
M  V30 6120 C 576.543 0.659579 1.84144 0
M  V30 6121 O 577.749 0.781431 2.60011 0
M  V30 6122 C 576.205 3.19255 1.66145 0
M  V30 6123 C 575.813 4.41324 0.770504 0
M  V30 6124 C 577.557 3.52298 2.36826 0
M  V30 6125 C 575.464 5.71394 1.52521 0
M  V30 6126 H 574.394 0.671953 0.342045 0
M  V30 6127 H 577.045 1.82808 0.159164 0
M  V30 6128 H 575.427 3.10922 2.45242 0
M  V30 6129 H 576.601 4.60797 0.0177261 0
M  V30 6130 H 574.916 4.16035 0.174199 0
M  V30 6131 H 577.513 4.46715 2.93854 0
M  V30 6132 H 577.856 2.76359 3.11338 0
M  V30 6133 H 578.389 3.62108 1.6469 0
M  V30 6134 H 575.128 6.50316 0.82275 0
M  V30 6135 H 574.648 5.55928 2.25175 0
M  V30 6136 H 576.327 6.12747 2.07725 0
M  V30 6137 N 576.459 -0.456382 1.50847 0
M  V30 6138 C 577.87 -1.03685 1.55262 0
M  V30 6139 C 578.221 -1.92779 0.364771 0
M  V30 6140 O 577.346 -2.10043 -0.52068 0
M  V30 6141 C 577.941 -1.88718 2.81374 0
M  V30 6142 C 576.5 -2.41847 2.88422 0
M  V30 6143 C 575.647 -1.20564 2.49719 0
M  V30 6144 H 578.598 -0.238399 1.56899 0
M  V30 6145 H 578.619 -2.73957 2.6406 0
M  V30 6146 H 578.131 -1.23847 3.67809 0
M  V30 6147 H 576.232 -3.10228 2.06372 0
M  V30 6148 H 576.345 -2.75947 3.9165 0
M  V30 6149 H 574.709 -1.54504 2.02486 0
M  V30 6150 H 575.492 -0.573326 3.38479 0
M  V30 6151 N 577.937 -1.40673 -0.710563 0
M  V30 6152 C 579.167 -1.4234 -1.49742 0
M  V30 6153 C 579.575 -0.022821 -1.89186 0
M  V30 6154 O 578.918 0.964773 -1.56326 0
M  V30 6155 C 578.98 -2.25509 -2.79975 0
M  V30 6156 C 578.644 -3.73862 -2.62824 0
M  V30 6157 C 579.641 -4.66379 -2.29752 0
M  V30 6158 C 577.326 -4.17735 -2.78932 0
M  V30 6159 C 579.32 -6.00756 -2.13006 0
M  V30 6160 C 577.007 -5.5218 -2.61802 0
M  V30 6161 C 578.005 -6.43505 -2.28888 0
M  V30 6162 O 577.693 -7.75472 -2.11894 0
M  V30 6163 H 577.425 -0.487311 -0.468513 0
M  V30 6164 H 579.979 -1.8542 -0.883668 0
M  V30 6165 H 578.209 -1.77218 -3.43701 0
M  V30 6166 H 579.898 -2.19058 -3.41714 0
M  V30 6167 H 580.664 -4.33778 -2.16936 0
M  V30 6168 H 576.543 -3.46967 -3.03537 0
M  V30 6169 H 580.087 -6.72003 -1.87237 0
M  V30 6170 H 575.984 -5.84365 -2.74204 0
M  V30 6171 H 576.752 -7.86458 -2.26775 0
M  V30 6172 N 579.415 0.9433 -1.26252 0
M  V30 6173 C 580.692 1.66639 -1.02424 0
M  V30 6174 C 581.072 2.06335 0.446006 0
M  V30 6175 O 580.42 1.78551 1.42589 0
M  V30 6176 C 580.63 2.88019 -1.97094 0
M  V30 6177 C 581.978 3.59718 -2.25584 0
M  V30 6178 O 583.002 2.9812 -1.94943 0
M  V30 6179 O 581.861 4.7066 -2.77743 0
M  V30 6180 H 578.955 0.729643 -0.389294 0
M  V30 6181 H 581.501 0.995218 -1.37454 0
M  V30 6182 H 580.273 2.5556 -2.96319 0
M  V30 6183 H 579.896 3.62863 -1.62532 0
M  V30 6184 N 580.893 1.08022 1.14757 0
M  V30 6185 C 581.856 0.71048 2.1791 0
M  V30 6186 C 582.856 -0.252731 1.58801 0
M  V30 6187 O 584.046 -0.0327915 1.74169 0
M  V30 6188 C 581.178 0.0483203 3.40866 0
M  V30 6189 H 582.371 1.62384 2.52134 0
M  V30 6190 H 579.924 0.877595 1.29337 0
M  V30 6191 H 580.659 -0.876959 3.12218 0
M  V30 6192 H 580.444 0.741189 3.85031 0
M  V30 6193 H 581.934 -0.195471 4.17142 0
M  V30 6194 N 582.371 -1.3172 0.865308 0
M  V30 6195 C 583.304 -2.26687 0.262376 0
M  V30 6196 C 584.282 -1.50894 -0.605787 0
M  V30 6197 O 585.466 -1.79982 -0.56024 0
M  V30 6198 C 582.593 -3.3281 -0.628915 0
M  V30 6199 C 581.639 -4.26172 0.167278 0
M  V30 6200 S 582.472 -5.12797 1.54272 0
M  V30 6201 C 583.628 -6.22438 0.657427 0
M  V30 6202 H 583.861 -2.77478 1.0674 0
M  V30 6203 H 581.394 -1.39414 0.663555 0
M  V30 6204 H 583.352 -3.94426 -1.13747 0
M  V30 6205 H 582.013 -2.80782 -1.40785 0
M  V30 6206 H 581.206 -5.01392 -0.51203 0
M  V30 6207 H 580.808 -3.69029 0.607777 0
M  V30 6208 H 583.1 -6.77368 -0.133925 0
M  V30 6209 H 584.043 -6.9451 1.38061 0
M  V30 6210 H 584.451 -5.64043 0.227044 0
M  V30 6211 N 583.85 -0.624285 -1.44708 0
M  V30 6212 C 585.096 -0.13473 -2.02953 0
M  V30 6213 C 585.451 1.22724 -1.48178 0
M  V30 6214 O 584.744 1.80109 -0.653542 0
M  V30 6215 C 584.938 -0.0546353 -3.57358 0
M  V30 6216 C 584.767 -1.40729 -4.27113 0
M  V30 6217 C 583.537 -1.99231 -4.64365 0
M  V30 6218 C 585.735 -2.33968 -4.58 0
M  V30 6219 N 583.716 -3.27803 -5.19055 0
M  V30 6220 C 585.088 -3.47149 -5.137 0
M  V30 6221 C 587.143 -2.33132 -4.39948 0
M  V30 6222 C 585.846 -4.59682 -5.53249 0
M  V30 6223 C 587.872 -3.44724 -4.8054 0
M  V30 6224 C 587.234 -4.56629 -5.36348 0
M  V30 6225 H 583.332 -0.0930617 -0.776443 0
M  V30 6226 H 585.917 -0.826286 -1.76297 0
M  V30 6227 H 584.088 0.606183 -3.8364 0
M  V30 6228 H 585.82 0.443116 -4.02267 0
M  V30 6229 H 582.575 -1.52251 -4.4846 0
M  V30 6230 H 582.999 -3.93519 -5.50883 0
M  V30 6231 H 587.641 -1.47868 -3.961 0
M  V30 6232 H 585.359 -5.4566 -5.96054 0
M  V30 6233 H 588.945 -3.45245 -4.68291 0
M  V30 6234 H 587.825 -5.41551 -5.67179 0
M  V30 6235 N 585.328 1.53329 -0.364422 0
M  V30 6236 C 586.258 2.28627 0.474543 0
M  V30 6237 C 587.239 1.31009 1.08492 0
M  V30 6238 O 588.424 1.59878 1.10239 0
M  V30 6239 C 585.554 3.07465 1.61501 0
M  V30 6240 C 584.508 4.1276 1.13194 0
M  V30 6241 C 583.834 4.79674 2.36255 0
M  V30 6242 C 585.134 5.21847 0.217507 0
M  V30 6243 H 586.828 2.99005 -0.153656 0
M  V30 6244 H 584.374 1.43803 -0.0753406 0
M  V30 6245 H 586.327 3.58889 2.20855 0
M  V30 6246 H 585.051 2.34775 2.27042 0
M  V30 6247 H 583.71 3.62281 0.56109 0
M  V30 6248 H 583.358 4.03557 3.00251 0
M  V30 6249 H 583.058 5.50827 2.04606 0
M  V30 6250 H 584.582 5.33892 2.96297 0
M  V30 6251 H 585.996 5.6878 0.718493 0
M  V30 6252 H 584.393 6.00099 -0.00806408 0
M  V30 6253 H 585.463 4.7921 -0.740653 0
M  V30 6254 N 586.806 0.0935595 1.57322 0
M  V30 6255 C 588.083 -0.612692 1.85756 0
M  V30 6256 C 588.463 -1.86439 0.99013 0
M  V30 6257 O 587.811 -2.28416 0.0621362 0
M  V30 6258 C 588.021 -0.929547 3.36393 0
M  V30 6259 C 589.369 -1.29366 4.04413 0
M  V30 6260 O 590.393 -1.02061 3.41265 0
M  V30 6261 O 589.252 -1.80498 5.15832 0
M  V30 6262 H 586.346 -0.306444 0.768128 0
M  V30 6263 H 588.892 0.126141 1.69231 0
M  V30 6264 H 587.664 -0.0414766 3.91278 0
M  V30 6265 H 587.287 -1.72441 3.5826 0
M  V30 6266 N 588.284 -1.56567 -0.180126 0
M  V30 6267 C 589.533 -1.80685 -0.896426 0
M  V30 6268 C 589.846 -0.669335 -1.83791 0
M  V30 6269 O 591.052 -0.795209 -2.59593 0
M  V30 6270 C 589.508 -3.20132 -1.6445 0
M  V30 6271 C 589.116 -4.41727 -0.747088 0
M  V30 6272 C 590.86 -3.53549 -2.34955 0
M  V30 6273 C 588.767 -5.72195 -1.49489 0
M  V30 6274 H 587.697 -0.673758 -0.338477 0
M  V30 6275 H 590.348 -1.8289 -0.149467 0
M  V30 6276 H 588.73 -3.12218 -2.43589 0
M  V30 6277 H 589.904 -4.608 0.00671129 0
M  V30 6278 H 588.219 -4.16122 -0.152134 0
M  V30 6279 H 590.816 -4.48267 -2.91481 0
M  V30 6280 H 591.159 -2.78006 -3.09868 0
M  V30 6281 H 591.692 -3.62976 -1.62768 0
M  V30 6282 H 588.431 -6.50743 -0.788251 0
M  V30 6283 H 587.951 -5.57115 -2.22224 0
M  V30 6284 H 589.63 -6.1384 -2.04472 0
M  V30 6285 N 589.762 0.448376 -1.51087 0
M  V30 6286 C 590.672 1.56882 -1.74428 0
M  V30 6287 C 591.688 1.62268 -0.62809 0
M  V30 6288 O 592.864 1.79716 -0.909075 0
M  V30 6289 C 589.929 2.92947 -1.85426 0
M  V30 6290 C 588.99 2.97766 -3.09247 0
M  V30 6291 C 588.223 4.27341 -3.19711 0
M  V30 6292 O 588.446 5.19112 -2.36387 0
M  V30 6293 O 587.38 4.38219 -4.12611 0
M  V30 6294 H 591.206 1.40104 -2.69452 0
M  V30 6295 H 588.791 0.630247 -1.35456 0
M  V30 6296 H 590.673 3.73719 -1.94709 0
M  V30 6297 H 589.348 3.09876 -0.935887 0
M  V30 6298 H 588.255 2.15989 -3.0545 0
M  V30 6299 H 589.588 2.8578 -4.00738 0
M  V30 6300 N 591.24 1.41047 0.703093 0
M  V30 6301 C 592.19 1.38774 1.80903 0
M  V30 6302 C 593.174 0.263275 1.58731 0
M  V30 6303 O 594.366 0.503362 1.69692 0
M  V30 6304 C 591.495 1.26497 3.19145 0
M  V30 6305 C 590.581 2.43775 3.47037 0
M  V30 6306 N 590.972 3.69249 3.45672 0
M  V30 6307 C 589.27 2.37425 3.77552 0
M  V30 6308 C 589.971 4.46989 3.72258 0
M  V30 6309 N 588.947 3.76998 3.91629 0
M  V30 6310 H 592.749 2.33714 1.78199 0
M  V30 6311 H 590.263 1.34996 0.902762 0
M  V30 6312 H 592.26 1.2295 3.98358 0
M  V30 6313 H 590.92 0.32534 3.23066 0
M  V30 6314 H 591.931 4.02239 3.26228 0
M  V30 6315 H 588.608 1.51895 3.88888 0
M  V30 6316 H 589.998 5.55894 3.77402 0
M  V30 6317 N 592.718 -0.936591 1.26751 0
M  V30 6318 C 593.946 -1.71758 1.15355 0
M  V30 6319 C 594.361 -1.86549 -0.290683 0
M  V30 6320 O 593.718 -1.37616 -1.19868 0
M  V30 6321 C 593.769 -3.12193 1.82258 0
M  V30 6322 O 593.49 -2.98105 3.21038 0
M  V30 6323 C 594.991 -4.06485 1.76875 0
M  V30 6324 H 592.211 -0.537636 0.401483 0
M  V30 6325 H 594.755 -1.17382 1.67457 0
M  V30 6326 H 592.91 -3.63456 1.34083 0
M  V30 6327 H 593.324 -3.86824 3.54214 0
M  V30 6328 H 594.798 -5.02569 2.28316 0
M  V30 6329 H 595.275 -4.32986 0.736216 0
M  V30 6330 H 595.881 -3.61144 2.24623 0
M  V30 6331 N 594.196 -1.08629 -1.14182 0
M  V30 6332 C 595.106 -0.730126 -2.22949 0
M  V30 6333 C 596.122 0.26436 -1.7198 0
M  V30 6334 O 597.298 0.107742 -2.01112 0
M  V30 6335 C 594.363 -0.147227 -3.46387 0
M  V30 6336 C 593.424 -1.19662 -4.12286 0
M  V30 6337 C 592.657 -0.641437 -5.29831 0
M  V30 6338 O 592.88 0.538351 -5.67854 0
M  V30 6339 O 591.814 -1.39257 -5.85569 0
M  V30 6340 H 595.64 -1.63753 -2.55771 0
M  V30 6341 H 593.225 -0.860118 -1.22157 0
M  V30 6342 H 595.107 0.174923 -4.21037 0
M  V30 6343 H 593.782 0.733304 -3.15285 0
M  V30 6344 H 592.689 -1.57133 -3.395 0
M  V30 6345 H 594.022 -2.0495 -4.475 0
M  V30 6346 N 595.674 1.31259 -0.872281 0
M  V30 6347 C 596.922 1.96233 -0.483409 0
M  V30 6348 C 597.243 1.69276 0.968012 0
M  V30 6349 O 596.513 1.00943 1.67891 0
M  V30 6350 H 595.093 0.726025 -0.175774 0
M  V30 6351 H 597.755 1.60024 -1.11258 0
M  V30 6352 H 596.851 3.05403 -0.643075 0
M  V30 6353 N 597.152 0.631951 1.44375 0
M  V30 6354 C 598.099 -0.0724807 2.30686 0
M  V30 6355 C 599.069 -0.835975 1.43529 0
M  V30 6356 O 600.254 -0.816849 1.7243 0
M  V30 6357 C 597.394 -1.04753 3.28817 0
M  V30 6358 C 596.507 -0.282367 4.31076 0
M  V30 6359 C 595.642 -1.2493 5.163 0
M  V30 6360 C 594.681 -0.473349 6.10267 0
M  V30 6361 N 593.818 -1.39079 6.88187 0
M  V30 6362 H 598.658 0.669477 2.90383 0
M  V30 6363 H 596.195 0.341927 1.43071 0
M  V30 6364 H 598.153 -1.62623 3.842 0
M  V30 6365 H 596.783 -1.75661 2.70819 0
M  V30 6366 H 595.835 0.412268 3.78159 0
M  V30 6367 H 597.147 0.321955 4.9776 0
M  V30 6368 H 596.301 -1.89931 5.76204 0
M  V30 6369 H 595.04 -1.88755 4.49692 0
M  V30 6370 H 594.045 0.190142 5.49471 0
M  V30 6371 H 595.27 0.16019 6.78911 0
M  V30 6372 H 593.216 -2.01623 6.24247 0
M  V30 6373 H 593.133 -0.840513 7.51313 0
M  V30 6374 H 594.401 -2.02961 7.52613 0
M  V30 6375 N 598.631 -1.53133 0.372548 0
M  V30 6376 C 600.047 -1.59585 0.02178 0
M  V30 6377 C 600.247 -1.38736 -1.46132 0
M  V30 6378 O 599.303 -1.19599 -2.22379 0
M  V30 6379 C 600.616 -2.9678 0.483959 0
M  V30 6380 C 602.164 -3.09909 0.438775 0
M  V30 6381 C 602.639 -4.49527 0.876876 0
M  V30 6382 N 604.13 -4.55663 0.832214 0
M  V30 6383 C 604.865 -5.61896 1.14281 0
M  V30 6384 N 604.361 -6.75852 1.52303 0
M  V30 6385 N 606.154 -5.51916 1.06515 0
M  V30 6386 H 598.305 -1.64936 1.33827 0
M  V30 6387 H 600.568 -0.773947 0.547458 0
M  V30 6388 H 600.274 -3.17198 1.51915 0
M  V30 6389 H 600.148 -3.7699 -0.125784 0
M  V30 6390 H 602.535 -2.89197 -0.587294 0
M  V30 6391 H 602.616 -2.31691 1.0841 0
M  V30 6392 H 602.26 -4.70979 1.90109 0
M  V30 6393 H 602.19 -5.26186 0.208727 0
M  V30 6394 H 604.681 -3.73844 0.552195 0
M  V30 6395 H 604.994 -7.52862 1.7441 0
M  V30 6396 H 603.339 -6.77226 1.56175 0
M  V30 6397 H 606.53 -4.6177 0.767235 0
M  V30 6398 H 606.703 -6.34609 1.31053 0
M  V30 6399 N 600.109 -0.101901 -1.5727 0
M  V30 6400 C 601.339 0.567568 -1.98651 0
M  V30 6401 C 601.747 1.61839 -0.980037 0
M  V30 6402 O 601.09 1.83661 0.0376564 0
M  V30 6403 C 601.152 1.26742 -3.36417 0
M  V30 6404 C 600.816 0.366561 -4.55528 0
M  V30 6405 C 601.813 -0.388022 -5.1845 0
M  V30 6406 C 599.498 0.282629 -5.01504 0
M  V30 6407 C 601.492 -1.21445 -6.25724 0
M  V30 6408 C 599.179 -0.547443 -6.08643 0
M  V30 6409 C 600.177 -1.29462 -6.70618 0
M  V30 6410 O 599.865 -2.11095 -7.7569 0
M  V30 6411 H 599.597 0.156282 -0.657687 0
M  V30 6412 H 602.151 -0.179912 -2.04611 0
M  V30 6413 H 600.381 2.06162 -3.27161 0
M  V30 6414 H 602.07 1.8321 -3.622 0
M  V30 6415 H 602.836 -0.332949 -4.83856 0
M  V30 6416 H 598.715 0.853868 -4.53023 0
M  V30 6417 H 602.259 -1.79814 -6.74027 0
M  V30 6418 H 598.156 -0.603971 -6.42668 0
M  V30 6419 H 598.924 -2.03851 -7.92709 0
M  V30 6420 N 601.587 1.56661 0.17182 0
M  V30 6421 C 602.834 1.81965 0.888529 0
M  V30 6422 C 603.162 0.6789 1.82267 0
M  V30 6423 O 602.417 -0.333875 1.92831 0
M  V30 6424 C 602.716 3.13435 1.71736 0
M  V30 6425 C 602.382 4.41159 0.932184 0
M  V30 6426 C 601.044 4.75851 0.715481 0
M  V30 6427 C 603.396 5.19803 0.381387 0
M  V30 6428 C 600.724 5.86666 -0.063126 0
M  V30 6429 C 603.076 6.31433 -0.384129 0
M  V30 6430 C 601.74 6.64692 -0.611637 0
M  V30 6431 H 601.01 0.665859 0.325136 0
M  V30 6432 H 603.657 1.90884 0.153495 0
M  V30 6433 H 601.962 2.99857 2.52177 0
M  V30 6434 H 603.659 3.30224 2.27493 0
M  V30 6435 H 600.249 4.13947 1.11112 0
M  V30 6436 H 604.433 4.93396 0.536148 0
M  V30 6437 H 599.689 6.10892 -0.249136 0
M  V30 6438 H 603.863 6.91577 -0.818185 0
M  V30 6439 H 601.49 7.50398 -1.21684 0
M  V30 6440 N 603.065 -0.440357 1.51323 0
M  V30 6441 C 604.293 -1.21255 1.67645 0
M  V30 6442 C 604.708 -1.85088 0.37252 0
M  V30 6443 O 604.065 -1.70582 -0.648683 0
M  V30 6444 C 604.116 -2.29881 2.78993 0
M  V30 6445 O 603.837 -1.68659 4.04334 0
M  V30 6446 C 605.338 -3.20214 3.06558 0
M  V30 6447 H 602.558 -0.36558 0.562666 0
M  V30 6448 H 605.102 -0.52214 1.97722 0
M  V30 6449 H 603.257 -2.94643 2.51524 0
M  V30 6450 H 603.671 -2.40426 4.6615 0
M  V30 6451 H 605.145 -3.92575 3.88058 0
M  V30 6452 H 605.622 -3.80794 2.18844 0
M  V30 6453 H 606.228 -2.61156 3.35675 0
M  V30 6454 N 604.543 -1.41418 -0.695603 0
M  V30 6455 C 605.789 -1.41983 -1.45645 0
M  V30 6456 C 606.144 -0.0282216 -1.92379 0
M  V30 6457 O 605.437 0.945916 -1.66622 0
M  V30 6458 C 605.631 -2.36112 -2.68302 0
M  V30 6459 C 605.46 -3.84288 -2.33566 0
M  V30 6460 C 604.23 -4.52971 -2.23932 0
M  V30 6461 C 606.428 -4.75264 -1.96543 0
M  V30 6462 N 604.41 -5.86276 -1.82081 0
M  V30 6463 C 605.781 -5.97517 -1.6545 0
M  V30 6464 C 607.836 -4.62911 -1.83352 0
M  V30 6465 C 606.539 -7.08793 -1.22492 0
M  V30 6466 C 608.565 -5.74149 -1.41799 0
M  V30 6467 C 607.927 -6.95501 -1.11617 0
M  V30 6468 H 604.026 -0.574771 -0.530247 0
M  V30 6469 H 606.61 -1.77289 -0.804788 0
M  V30 6470 H 604.781 -2.02902 -3.31188 0
M  V30 6471 H 606.513 -2.27397 -3.34773 0
M  V30 6472 H 603.268 -4.06909 -2.42327 0
M  V30 6473 H 603.692 -6.56926 -1.63638 0
M  V30 6474 H 608.334 -3.69588 -2.05341 0
M  V30 6475 H 606.052 -8.01982 -0.992482 0
M  V30 6476 H 609.638 -5.66595 -1.32143 0
M  V30 6477 H 608.518 -7.80114 -0.799493 0
M  V30 6478 N 606.021 0.929856 -1.27246 0
M  V30 6479 C 607.298 1.65544 -1.04186 0
M  V30 6480 C 607.678 2.06796 0.424097 0
M  V30 6481 O 607.026 1.80053 1.40688 0
M  V30 6482 C 607.236 2.85912 -2.00138 0
M  V30 6483 C 608.584 3.57305 -2.29387 0
M  V30 6484 O 609.608 2.96036 -1.98094 0
M  V30 6485 O 608.467 4.67688 -2.82719 0
M  V30 6486 H 605.561 0.725473 -0.397011 0
M  V30 6487 H 608.107 0.980583 -1.38501 0
M  V30 6488 H 606.879 2.52403 -2.99013 0
M  V30 6489 H 606.502 3.61118 -1.66371 0
M  V30 6490 N 607.499 1.09233 1.13605 0
M  V30 6491 C 608.446 0.729921 2.18954 0
M  V30 6492 C 609.416 -0.287916 1.63586 0
M  V30 6493 O 610.601 -0.170003 1.90041 0
M  V30 6494 C 607.741 0.154489 3.44754 0
M  V30 6495 C 606.854 1.22613 4.14234 0
M  V30 6496 C 605.989 0.613657 5.27644 0
M  V30 6497 C 605.028 1.66674 5.8897 0
M  V30 6498 N 604.165 1.07545 6.93814 0
M  V30 6499 H 609.005 1.63257 2.49302 0
M  V30 6500 H 606.542 0.815693 1.22413 0
M  V30 6501 H 608.5 -0.196923 4.16735 0
M  V30 6502 H 607.13 -0.711433 3.14863 0
M  V30 6503 H 606.182 1.69485 3.40557 0
M  V30 6504 H 607.494 2.0238 4.55899 0
M  V30 6505 H 606.648 0.210976 6.06333 0
M  V30 6506 H 605.387 -0.215584 4.87223 0
M  V30 6507 H 604.392 2.07899 5.08978 0
M  V30 6508 H 605.617 2.49861 6.31464 0
M  V30 6509 H 603.563 0.267451 6.55455 0
M  V30 6510 H 603.48 1.81011 7.3401 0
M  V30 6511 H 604.748 0.698906 7.7636 0
M  V30 6512 N 608.977 -1.30795 0.87923 0
M  V30 6513 C 609.925 -2.30231 0.331112 0
M  V30 6514 C 610.919 -1.59918 -0.558794 0
M  V30 6515 O 612.125 -1.74441 -0.443866 0
M  V30 6516 H 608.5 -0.746785 0.088409 0
M  V30 6517 H 610.471 -2.73925 1.18353 0
M  V30 6518 C 609.22 -3.44848 -0.444401 0
M  V30 6519 H 608.543 -3.99131 0.231106 0
M  V30 6520 H 609.983 -4.16516 -0.793109 0
M  V30 6521 C 608.442 -2.94329 -1.63926 0
M  V30 6522 O 608.972 -2.93875 -2.73862 0
M  V30 6523 N 607.178 -2.50413 -1.4745 0
M  V30 6524 H 606.725 -2.50982 -0.58015 0
M  V30 6525 H 606.683 -2.16969 -2.27534 0
M  V30 6526 N 610.455 -0.639598 -1.44038 0
M  V30 6527 C 611.871 -0.305953 -1.5664 0
M  V30 6528 C 612.071 1.19055 -1.62567 0
M  V30 6529 O 611.127 1.97492 -1.57331 0
M  V30 6530 C 612.44 -1.00533 -2.83397 0
M  V30 6531 C 613.988 -0.984278 -2.97121 0
M  V30 6532 C 614.463 -1.66428 -4.26691 0
M  V30 6533 N 615.954 -1.63127 -4.33525 0
M  V30 6534 C 616.689 -2.12629 -5.32519 0
M  V30 6535 N 616.185 -2.70359 -6.3787 0
M  V30 6536 N 617.978 -2.03208 -5.24083 0
M  V30 6537 H 610.129 -1.6109 -1.38434 0
M  V30 6538 H 612.392 -0.676672 -0.663942 0
M  V30 6539 H 612.098 -2.06034 -2.85032 0
M  V30 6540 H 611.972 -0.548362 -3.73193 0
M  V30 6541 H 614.359 0.0622792 -2.95034 0
M  V30 6542 H 614.44 -1.47981 -2.08651 0
M  V30 6543 H 614.084 -2.71034 -4.29538 0
M  V30 6544 H 614.014 -1.14351 -5.14034 0
M  V30 6545 H 616.505 -1.20987 -3.58009 0
M  V30 6546 H 616.818 -3.05842 -7.09704 0
M  V30 6547 H 615.163 -2.74414 -6.38531 0
M  V30 6548 H 618.354 -1.57823 -4.40692 0
M  V30 6549 H 618.527 -2.42097 -6.01077 0
M  V30 6550 N 611.933 1.52934 -0.380664 0
M  V30 6551 C 613.18 2.01467 0.204278 0
M  V30 6552 C 613.508 1.26744 1.47533 0
M  V30 6553 O 612.763 0.353723 1.92477 0
M  V30 6554 C 613.062 3.5349 0.527199 0
M  V30 6555 C 612.728 4.46171 -0.651295 0
M  V30 6556 C 611.39 4.71227 -0.974619 0
M  V30 6557 C 613.742 5.00909 -1.44012 0
M  V30 6558 C 611.07 5.4827 -2.08847 0
M  V30 6559 C 613.422 5.7917 -2.5445 0
M  V30 6560 C 612.086 6.02507 -2.87301 0
M  V30 6561 H 611.356 0.73722 0.0747504 0
M  V30 6562 H 614.003 1.84411 -0.516234 0
M  V30 6563 H 612.308 3.68574 1.32892 0
M  V30 6564 H 614.005 3.88529 0.992283 0
M  V30 6565 H 610.595 4.26829 -0.389276 0
M  V30 6566 H 614.779 4.81485 -1.20357 0
M  V30 6567 H 610.035 5.64567 -2.34679 0
M  V30 6568 H 614.209 6.20588 -3.1598 0
M  V30 6569 H 611.836 6.61989 -3.7373 0
M  V30 6570 N 613.412 0.11024 1.57214 0
M  V30 6571 C 614.823 -0.416527 1.81994 0
M  V30 6572 C 615.174 -1.67183 1.02686 0
M  V30 6573 O 614.299 -2.14823 0.260782 0
M  V30 6574 C 614.894 -0.762466 3.30109 0
M  V30 6575 C 613.453 -1.23391 3.556 0
M  V30 6576 C 612.6 -0.238166 2.76275 0
M  V30 6577 H 615.551 0.335491 1.55113 0
M  V30 6578 H 615.572 -1.62068 3.44259 0
M  V30 6579 H 615.084 0.151346 3.87805 0
M  V30 6580 H 613.185 -2.16492 3.03253 0
M  V30 6581 H 613.298 -1.18528 4.64207 0
M  V30 6582 H 611.662 -0.723421 2.4421 0
M  V30 6583 H 612.445 0.668591 3.36727 0
M  V30 6584 N 614.89 -1.56749 -0.16351 0
M  V30 6585 C 615.838 -1.97939 -1.22159 0
M  V30 6586 C 616.832 -0.869288 -1.45395 0
M  V30 6587 O 618.038 -1.05443 -1.45883 0
M  V30 6588 H 614.413 -0.629869 -0.410815 0
M  V30 6589 H 616.384 -2.86115 -0.847381 0
M  V30 6590 C 615.133 -2.36206 -2.55151 0
M  V30 6591 H 614.456 -3.2117 -2.38097 0
M  V30 6592 H 615.896 -2.68863 -3.27854 0
M  V30 6593 C 614.355 -1.20841 -3.14482 0
M  V30 6594 O 614.885 -0.500258 -3.98573 0
M  V30 6595 N 613.091 -0.976943 -2.73686 0
M  V30 6596 H 612.638 -1.55457 -2.05404 0
M  V30 6597 H 612.596 -0.206912 -3.13718 0
M  V30 6598 N 616.368 0.432326 -1.51554 0
M  V30 6599 C 617.779 1.01202 -1.56892 0
M  V30 6600 C 618.13 1.92175 -0.395394 0
M  V30 6601 O 617.255 2.10844 0.487198 0
M  V30 6602 C 617.85 1.84217 -2.8434 0
M  V30 6603 C 616.409 2.37228 -2.92233 0
M  V30 6604 C 615.556 1.16576 -2.51606 0
M  V30 6605 H 618.507 0.213407 -1.57259 0
M  V30 6606 H 618.528 2.69721 -2.68385 0
M  V30 6607 H 618.04 1.17979 -3.69733 0
M  V30 6608 H 616.141 3.06905 -2.11282 0
M  V30 6609 H 616.254 2.69682 -3.95991 0
M  V30 6610 H 614.618 1.51263 -2.04919 0
M  V30 6611 H 615.401 0.519404 -3.39348 0
M  V30 6612 N 617.846 1.41785 0.688094 0
M  V30 6613 C 618.793 1.44221 1.80191 0
M  V30 6614 C 619.763 0.295688 1.63447 0
M  V30 6615 O 620.948 0.49783 1.84191 0
M  V30 6616 C 618.088 1.33743 3.1813 0
M  V30 6617 C 617.201 2.58325 3.46254 0
M  V30 6618 C 616.336 2.40086 4.73848 0
M  V30 6619 C 615.375 3.60107 4.94964 0
M  V30 6620 N 614.512 3.40892 6.13789 0
M  V30 6621 H 619.352 2.39411 1.77444 0
M  V30 6622 H 616.889 1.18876 0.866423 0
M  V30 6623 H 618.847 1.25669 3.97823 0
M  V30 6624 H 617.477 0.42157 3.20035 0
M  V30 6625 H 616.529 2.7682 2.60912 0
M  V30 6626 H 617.841 3.4758 3.57756 0
M  V30 6627 H 616.995 2.29522 5.61609 0
M  V30 6628 H 615.734 1.483 4.64606 0
M  V30 6629 H 614.739 3.71118 4.05649 0
M  V30 6630 H 615.964 4.52857 5.06061 0
M  V30 6631 H 613.91 2.51812 6.05745 0
M  V30 6632 H 613.827 4.23727 6.26092 0
M  V30 6633 H 615.095 3.34114 7.04264 0
M  V30 6634 N 619.324 -0.923095 1.27737 0
M  V30 6635 C 620.74 -1.19985 1.05241 0
M  V30 6636 C 620.94 -2.00391 -0.21113 0
M  V30 6637 O 619.996 -2.35324 -0.915366 0
M  V30 6638 C 621.309 -1.94352 2.29451 0
M  V30 6639 C 622.857 -2.07273 2.34536 0
M  V30 6640 C 623.332 -2.85046 3.58487 0
M  V30 6641 N 624.823 -2.92612 3.59072 0
M  V30 6642 C 625.558 -3.53266 4.51654 0
M  V30 6643 N 625.054 -4.15274 5.54545 0
M  V30 6644 N 626.847 -3.50714 4.39268 0
M  V30 6645 H 618.998 -0.386042 2.08862 0
M  V30 6646 H 621.261 -0.233407 0.918817 0
M  V30 6647 H 620.967 -1.42692 3.21453 0
M  V30 6648 H 620.841 -2.94947 2.3513 0
M  V30 6649 H 623.228 -2.58117 1.43037 0
M  V30 6650 H 623.309 -1.05884 2.32857 0
M  V30 6651 H 622.953 -2.34884 4.50324 0
M  V30 6652 H 622.883 -3.8673 3.57418 0
M  V30 6653 H 625.374 -2.48547 2.84663 0
M  V30 6654 H 625.687 -4.59507 6.21348 0
M  V30 6655 H 624.032 -4.13806 5.58382 0
M  V30 6656 H 627.223 -3.01475 3.58093 0
M  V30 6657 H 627.396 -3.97693 5.1161 0
M  V30 6658 N 620.802 -1.09834 -1.13024 0
M  V30 6659 C 621.735 -0.685453 -2.17662 0
M  V30 6660 C 622.713 0.310142 -1.59615 0
M  V30 6661 O 623.897 0.21052 -1.87321 0
M  V30 6662 C 621.024 -0.0104476 -3.38698 0
M  V30 6663 C 620.07 -0.968522 -4.15358 0
M  V30 6664 S 620.903 -2.48272 -4.74469 0
M  V30 6665 C 622.059 -1.82025 -5.98847 0
M  V30 6666 H 622.292 -1.57187 -2.52348 0
M  V30 6667 H 619.825 -0.914728 -1.24387 0
M  V30 6668 H 621.783 0.372694 -4.08805 0
M  V30 6669 H 620.444 0.852673 -3.02305 0
M  V30 6670 H 619.637 -0.443373 -5.02046 0
M  V30 6671 H 619.239 -1.29327 -3.50928 0
M  V30 6672 H 621.531 -1.14678 -6.67724 0
M  V30 6673 H 622.474 -2.66645 -6.55977 0
M  V30 6674 H 622.882 -1.2874 -5.49624 0
M  V30 6675 N 622.28 1.30327 -0.886154 0
M  V30 6676 C 623.212 2.27079 -0.311072 0
M  V30 6677 C 624.225 1.53758 0.53502 0
M  V30 6678 O 625.414 1.74947 0.354378 0
M  V30 6679 C 622.514 3.33965 0.576228 0
M  V30 6680 C 621.687 4.36735 -0.241064 0
M  V30 6681 C 620.746 5.23028 0.576916 0
M  V30 6682 O 619.772 5.692 -0.000802231 0
M  V30 6683 N 620.974 5.49016 1.88579 0
M  V30 6684 H 623.739 2.77065 -1.14259 0
M  V30 6685 H 621.3 1.43519 -0.749258 0
M  V30 6686 H 623.292 3.88618 1.12953 0
M  V30 6687 H 621.862 2.839 1.30842 0
M  V30 6688 H 621.082 3.81932 -0.975805 0
M  V30 6689 H 622.37 5.02451 -0.801272 0
M  V30 6690 H 621.768 5.13288 2.37806 0
M  V30 6691 H 620.325 6.06539 2.38651 0
M  V30 6692 N 623.758 0.647228 1.43697 0
M  V30 6693 C 624.668 -0.0487997 2.34549 0
M  V30 6694 C 625.684 -0.818586 1.53542 0
M  V30 6695 O 626.86 -0.767195 1.86215 0
M  V30 6696 C 623.925 -1.00734 3.31743 0
M  V30 6697 C 622.986 -0.23515 4.28655 0
M  V30 6698 C 622.219 -1.14803 5.21206 0
M  V30 6699 O 622.442 -2.38717 5.18045 0
M  V30 6700 O 621.376 -0.623667 5.9866 0
M  V30 6701 H 625.202 0.698863 2.9555 0
M  V30 6702 H 622.787 0.407412 1.43738 0
M  V30 6703 H 624.669 -1.55837 3.91526 0
M  V30 6704 H 623.344 -1.73534 2.73254 0
M  V30 6705 H 622.251 0.359319 3.7237 0
M  V30 6706 H 623.584 0.453152 4.9011 0
M  V30 6707 N 625.236 -1.5273 0.388769 0
M  V30 6708 C 626.166 -2.29353 -0.438111 0
M  V30 6709 C 627.147 -1.32719 -1.06394 0
M  V30 6710 O 628.332 -1.61612 -1.07681 0
M  V30 6711 C 625.462 -3.09995 -1.56589 0
M  V30 6712 C 624.416 -4.14509 -1.06613 0
M  V30 6713 C 623.742 -4.83372 -2.28594 0
M  V30 6714 C 625.042 -5.22127 -0.134459 0
M  V30 6715 H 626.736 -2.98723 0.201206 0
M  V30 6716 H 624.282 -1.43665 0.0982089 0
M  V30 6717 H 626.235 -3.62357 -2.15118 0
M  V30 6718 H 624.959 -2.38357 -2.23279 0
M  V30 6719 H 623.618 -3.63128 -0.503383 0
M  V30 6720 H 623.266 -4.08283 -2.93792 0
M  V30 6721 H 622.966 -5.54012 -1.95817 0
M  V30 6722 H 624.49 -5.38538 -2.87766 0
M  V30 6723 H 625.904 -5.69851 -0.627914 0
M  V30 6724 H 624.301 -6.00011 0.103534 0
M  V30 6725 H 625.371 -4.77971 0.816798 0
M  V30 6726 N 626.714 -0.118576 -1.57153 0
M  V30 6727 C 627.644 0.828436 -2.1831 0
M  V30 6728 C 628.625 1.27758 -1.12303 0
M  V30 6729 O 629.81 1.34026 -1.40537 0
M  V30 6730 C 626.94 2.07876 -2.78217 0
M  V30 6731 C 625.894 1.76742 -3.89803 0
M  V30 6732 C 625.22 3.08801 -4.36516 0
M  V30 6733 C 626.52 1.03606 -5.11921 0
M  V30 6734 H 628.214 0.318824 -2.97698 0
M  V30 6735 H 625.76 0.151911 -1.43196 0
M  V30 6736 H 627.713 2.74584 -3.19659 0
M  V30 6737 H 626.437 2.61161 -1.96118 0
M  V30 6738 H 625.096 1.12424 -3.48936 0
M  V30 6739 H 624.744 3.6002 -3.51276 0
M  V30 6740 H 624.444 2.88743 -5.11763 0
M  V30 6741 H 625.968 3.76627 -4.80608 0
M  V30 6742 H 627.382 1.60467 -5.50385 0
M  V30 6743 H 625.779 0.936454 -5.92748 0
M  V30 6744 H 626.849 0.0227421 -4.84895 0
M  V30 6745 N 628.193 1.56834 0.155195 0
M  V30 6746 C 629.609 1.51315 0.50755 0
M  V30 6747 C 629.809 0.825614 1.83809 0
M  V30 6748 O 628.865 0.39271 2.49427 0
M  V30 6749 C 630.178 2.96074 0.52542 0
M  V30 6750 C 631.726 3.06968 0.611505 0
M  V30 6751 C 632.201 4.53218 0.660115 0
M  V30 6752 N 633.692 4.5753 0.722564 0
M  V30 6753 C 634.427 5.68056 0.781023 0
M  V30 6754 N 633.923 6.88173 0.799327 0
M  V30 6755 N 635.716 5.56068 0.821278 0
M  V30 6756 H 627.867 1.9993 -0.717063 0
M  V30 6757 H 630.13 0.911507 -0.260496 0
M  V30 6758 H 629.836 3.49599 -0.383875 0
M  V30 6759 H 629.71 3.51587 1.36624 0
M  V30 6760 H 632.097 2.53468 1.51122 0
M  V30 6761 H 632.178 2.54513 -0.256306 0
M  V30 6762 H 631.822 5.07354 -0.23541 0
M  V30 6763 H 631.752 5.03447 1.5443 0
M  V30 6764 H 634.243 3.71054 0.716049 0
M  V30 6765 H 634.556 7.6816 0.845553 0
M  V30 6766 H 632.901 6.90751 0.767337 0
M  V30 6767 H 636.092 4.61142 0.804091 0
M  V30 6768 H 636.265 6.42223 0.863372 0
M  V30 6769 N 629.671 -0.424282 1.51781 0
M  V30 6770 C 630.896 -1.19928 1.6921 0
M  V30 6771 C 631.321 -1.8392 0.394355 0
M  V30 6772 O 630.679 -1.69371 -0.646778 0
M  V30 6773 C 630.727 -2.24937 2.81843 0
M  V30 6774 O 629.831 -3.3073 2.46356 0
M  V30 6775 H 629.172 -0.35078 0.563781 0
M  V30 6776 H 631.702 -0.499401 1.98412 0
M  V30 6777 H 631.712 -2.69512 3.06312 0
M  V30 6778 H 630.387 -1.77742 3.76006 0
M  V30 6779 H 628.964 -2.9154 2.32505 0
M  V30 6780 N 631.149 -1.42148 -0.680565 0
M  V30 6781 C 632.096 -1.45175 -1.79424 0
M  V30 6782 C 633.066 -0.304352 -1.63288 0
M  V30 6783 O 634.251 -0.507591 -1.83924 0
M  V30 6784 C 631.391 -1.35429 -3.17416 0
M  V30 6785 C 630.504 -2.60158 -3.4488 0
M  V30 6786 C 629.639 -2.42596 -4.72568 0
M  V30 6787 C 628.678 -3.62727 -4.93047 0
M  V30 6788 N 627.815 -3.44143 -6.11973 0
M  V30 6789 H 632.655 -2.40349 -1.76172 0
M  V30 6790 H 630.192 -1.19334 -0.860107 0
M  V30 6791 H 632.15 -1.27777 -3.97151 0
M  V30 6792 H 630.78 -0.438536 -3.19807 0
M  V30 6793 H 629.832 -2.78199 -2.5944 0
M  V30 6794 H 631.144 -3.49473 -3.55908 0
M  V30 6795 H 630.298 -2.32497 -5.60384 0
M  V30 6796 H 629.037 -1.50761 -4.63813 0
M  V30 6797 H 628.042 -3.73264 -4.03676 0
M  V30 6798 H 629.267 -4.55534 -5.03652 0
M  V30 6799 H 627.213 -2.5502 -6.04401 0
M  V30 6800 H 627.13 -4.27041 -6.23836 0
M  V30 6801 H 628.398 -3.37845 -7.02482 0
M  V30 6802 N 632.627 0.916307 -1.28225 0
M  V30 6803 C 633.574 2.01841 -1.11932 0
M  V30 6804 C 634.544 1.66091 -0.0171604 0
M  V30 6805 O 635.729 1.89934 -0.181617 0
M  V30 6806 C 632.869 3.36065 -0.784504 0
M  V30 6807 C 631.982 3.847 -1.96544 0
M  V30 6808 C 631.117 5.07423 -1.57149 0
M  V30 6809 C 630.156 5.48384 -2.71922 0
M  V30 6810 N 629.293 6.62298 -2.33037 0
M  V30 6811 H 634.133 2.1511 -2.06232 0
M  V30 6812 H 631.67 1.05366 -1.02647 0
M  V30 6813 H 633.628 4.13272 -0.571148 0
M  V30 6814 H 632.258 3.22571 0.121565 0
M  V30 6815 H 631.31 3.03673 -2.291 0
M  V30 6816 H 632.622 4.1102 -2.82603 0
M  V30 6817 H 631.776 5.92165 -1.32004 0
M  V30 6818 H 630.515 4.82906 -0.682153 0
M  V30 6819 H 629.52 4.62184 -2.97768 0
M  V30 6820 H 630.745 5.7489 -3.61494 0
M  V30 6821 H 628.691 6.39416 -1.4657 0
M  V30 6822 H 628.608 6.8833 -3.12631 0
M  V30 6823 H 629.876 7.50352 -2.11169 0
M  V30 6824 N 634.105 1.10431 1.1244 0
M  V30 6825 C 635.521 0.836096 1.35947 0
M  V30 6826 C 635.721 -0.544475 1.94004 0
M  V30 6827 O 634.777 -1.29735 2.16622 0
M  V30 6828 C 636.09 1.93575 2.30107 0
M  V30 6829 C 637.638 1.9642 2.43697 0
M  V30 6830 C 638.113 3.05559 3.41171 0
M  V30 6831 N 639.604 3.04865 3.48728 0
M  V30 6832 C 640.339 3.85954 4.24061 0
M  V30 6833 N 639.835 4.76977 5.02458 0
M  V30 6834 N 641.628 3.74172 4.19466 0
M  V30 6835 H 633.779 1.9942 0.731124 0
M  V30 6836 H 636.042 0.866607 0.384312 0
M  V30 6837 H 635.748 2.92943 1.94621 0
M  V30 6838 H 635.622 1.8229 3.30227 0
M  V30 6839 H 638.009 0.97685 2.78463 0
M  V30 6840 H 638.09 2.11782 1.43465 0
M  V30 6841 H 637.734 4.04513 3.07135 0
M  V30 6842 H 637.664 2.87438 4.41234 0
M  V30 6843 H 640.155 2.38908 2.92799 0
M  V30 6844 H 640.468 5.35409 5.57277 0
M  V30 6845 H 638.813 4.81006 5.01655 0
M  V30 6846 H 642.004 3.02412 3.57302 0
M  V30 6847 H 642.177 4.37602 4.77921 0
M  V30 6848 N 635.583 -1.29855 0.893053 0
M  V30 6849 C 636.53 -2.27909 0.364161 0
M  V30 6850 C 637.5 -1.56726 -0.550093 0
M  V30 6851 O 638.685 -1.84747 -0.47677 0
M  V30 6852 C 635.825 -3.42678 -0.408178 0
M  V30 6853 C 634.938 -4.28659 0.536212 0
M  V30 6854 C 634.073 -5.30599 -0.252521 0
M  V30 6855 C 633.112 -6.08234 0.686822 0
M  V30 6856 N 632.249 -7.02068 -0.0670902 0
M  V30 6857 H 637.089 -2.72531 1.20544 0
M  V30 6858 H 634.626 -1.34047 0.605779 0
M  V30 6859 H 636.584 -4.07986 -0.871962 0
M  V30 6860 H 635.214 -2.99103 -1.21397 0
M  V30 6861 H 634.266 -3.63584 1.1185 0
M  V30 6862 H 635.578 -4.8274 1.25552 0
M  V30 6863 H 634.732 -6.01694 -0.777801 0
M  V30 6864 H 633.471 -4.77233 -1.005 0
M  V30 6865 H 632.476 -5.3601 1.22366 0
M  V30 6866 H 633.701 -6.63689 1.43852 0
M  V30 6867 H 631.647 -6.5108 -0.801955 0
M  V30 6868 H 631.564 -7.53675 0.59243 0
M  V30 6869 H 632.832 -7.77392 -0.572851 0
M  V30 6870 N 637.061 -0.65484 -1.43351 0
M  V30 6871 C 637.991 0.0221809 -2.33489 0
M  V30 6872 C 638.972 0.810272 -1.49561 0
M  V30 6873 O 640.157 0.771426 -1.78221 0
M  V30 6874 C 637.287 0.988117 -3.32947 0
M  V30 6875 C 636.241 0.310026 -4.26876 0
M  V30 6876 C 635.567 1.38752 -5.16384 0
M  V30 6877 C 636.867 -0.798589 -5.16159 0
M  V30 6878 H 638.561 -0.730571 -2.9035 0
M  V30 6879 H 636.107 -0.352773 -1.39612 0
M  V30 6880 H 638.06 1.47067 -3.94904 0
M  V30 6881 H 636.784 1.77205 -2.74346 0
M  V30 6882 H 635.443 -0.152097 -3.66284 0
M  V30 6883 H 635.091 2.16293 -4.54121 0
M  V30 6884 H 634.791 0.939051 -5.80048 0
M  V30 6885 H 636.315 1.87141 -5.81215 0
M  V30 6886 H 637.729 -0.398126 -5.71916 0
M  V30 6887 H 636.126 -1.17163 -5.88552 0
M  V30 6888 H 637.196 -1.65588 -4.55751 0
M  V30 6889 N 638.539 1.52521 -0.396863 0
M  V30 6890 C 639.785 2.01971 0.183169 0
M  V30 6891 C 640.118 1.2825 1.45827 0
M  V30 6892 O 639.393 0.385179 1.90648 0
M  V30 6893 C 639.676 3.5736 0.443391 0
M  V30 6894 C 639.529 4.41743 -0.84753 0
M  V30 6895 C 640.848 4.22539 1.2308 0
M  V30 6896 H 637.967 0.734119 0.0650976 0
M  V30 6897 H 640.609 1.82519 -0.527918 0
M  V30 6898 H 638.759 3.74066 1.04914 0
M  V30 6899 H 640.431 4.36773 -1.48414 0
M  V30 6900 H 638.674 4.0845 -1.4612 0
M  V30 6901 H 639.345 5.48507 -0.620003 0
M  V30 6902 H 641.821 4.09857 0.718084 0
M  V30 6903 H 640.697 5.31227 1.38162 0
M  V30 6904 H 640.958 3.80675 2.24808 0
M  V30 6905 N 640.017 0.126909 1.57088 0
M  V30 6906 C 641.263 -0.529952 1.95753 0
M  V30 6907 C 641.596 -1.65823 1.01077 0
M  V30 6908 O 640.871 -1.94437 0.0494162 0
M  V30 6909 C 641.154 -1.05517 3.44294 0
M  V30 6910 C 641.007 0.0702253 4.49745 0
M  V30 6911 C 642.326 -1.9435 3.94862 0
M  V30 6912 H 639.445 -0.191168 0.711775 0
M  V30 6913 H 642.087 0.204071 1.88901 0
M  V30 6914 H 640.237 -1.68069 3.50264 0
M  V30 6915 H 641.909 0.705834 4.55868 0
M  V30 6916 H 640.152 0.732259 4.27575 0
M  V30 6917 H 640.823 -0.338642 5.5096 0
M  V30 6918 H 643.299 -1.41658 3.91244 0
M  V30 6919 H 642.175 -2.28015 4.993 0
M  V30 6920 H 642.436 -2.87299 3.36024 0
M  V30 6921 N 641.495 -1.56914 -0.146875 0
M  V30 6922 C 642.744 -1.82546 -0.857898 0
M  V30 6923 C 643.057 -0.708169 -1.8233 0
M  V30 6924 O 644.263 -0.850093 -2.57848 0
M  V30 6925 C 642.719 -3.23548 -1.57623 0
M  V30 6926 C 642.327 -4.43212 -0.653224 0
M  V30 6927 C 644.071 -3.58453 -2.27402 0
M  V30 6928 C 641.978 -5.75237 -1.37318 0
M  V30 6929 H 640.908 -0.680786 -0.32411 0
M  V30 6930 H 643.559 -1.83166 -0.110639 0
M  V30 6931 H 641.941 -3.17315 -2.36912 0
M  V30 6932 H 643.115 -4.60682 0.104452 0
M  V30 6933 H 641.43 -4.16351 -0.0638336 0
M  V30 6934 H 644.027 -4.54349 -2.81907 0
M  V30 6935 H 644.37 -2.84516 -3.03901 0
M  V30 6936 H 644.903 -3.66347 -1.55032 0
M  V30 6937 H 641.642 -6.52269 -0.650041 0
M  V30 6938 H 641.162 -5.61703 -2.10357 0
M  V30 6939 H 642.841 -6.18039 -1.91406 0
M  V30 6940 N 642.974 0.416227 -1.52004 0
M  V30 6941 C 644.199 1.19029 -1.69843 0
M  V30 6942 C 644.624 1.83708 -0.404103 0
M  V30 6943 O 643.982 1.69711 0.637787 0
M  V30 6944 C 644.03 2.23439 -2.83032 0
M  V30 6945 O 643.134 3.29419 -2.48106 0
M  V30 6946 H 642.475 0.347785 -0.565634 0
M  V30 6947 H 645.005 0.488871 -1.98674 0
M  V30 6948 H 645.015 2.67884 -3.07737 0
M  V30 6949 H 643.69 1.75745 -3.76944 0
M  V30 6950 H 642.267 2.90303 -2.34048 0
M  V30 6951 N 644.452 1.42507 0.673017 0
M  V30 6952 C 645.729 1.33554 1.42908 0
M  V30 6953 C 646.109 -0.0262211 2.11084 0
M  V30 6954 O 645.457 -1.04181 2.03368 0
M  V30 6955 C 645.667 2.50498 2.43006 0
M  V30 6956 C 647.015 2.92694 3.07596 0
M  V30 6957 O 648.039 2.50401 2.53333 0
M  V30 6958 O 646.898 3.65899 4.05931 0
M  V30 6959 H 643.992 0.526785 0.637516 0
M  V30 6960 H 646.538 1.54518 0.701591 0
M  V30 6961 H 645.31 3.41272 1.9144 0
M  V30 6962 H 644.933 2.3153 3.23233 0
M  V30 6963 N 645.93 -0.909495 1.28709 0
M  V30 6964 C 647.341 -1.47419 1.14563 0
M  V30 6965 C 647.692 -1.94432 -0.262832 0
M  V30 6966 O 646.817 -1.82842 -1.15748 0
M  V30 6967 C 647.412 -2.67933 2.07358 0
M  V30 6968 C 645.971 -3.20568 1.97264 0
M  V30 6969 C 645.118 -1.93269 1.98852 0
M  V30 6970 H 648.069 -0.721787 1.41336 0
M  V30 6971 H 648.09 -3.43339 1.64007 0
M  V30 6972 H 647.602 -2.33685 3.09859 0
M  V30 6973 H 645.703 -3.59531 0.978157 0
M  V30 6974 H 645.816 -3.85529 2.84436 0
M  V30 6975 H 644.18 -2.10553 1.43317 0
M  V30 6976 H 644.963 -1.61312 3.0304 0
M  V30 6977 N 647.408 -1.11026 -1.11852 0
M  V30 6978 C 648.358 -0.733836 -2.15868 0
M  V30 6979 C 649.342 0.26001 -1.58785 0
M  V30 6980 O 650.534 0.0677901 -1.7687 0
M  V30 6981 C 647.663 -0.173948 -3.42859 0
M  V30 6982 C 646.749 -1.1952 -4.0691 0
M  V30 6983 N 647.14 -2.38797 -4.45881 0
M  V30 6984 C 645.438 -1.03714 -4.33773 0
M  V30 6985 C 646.139 -3.03894 -4.96007 0
M  V30 6986 N 645.115 -2.31389 -4.91894 0
M  V30 6987 H 648.917 -1.64171 -2.43773 0
M  V30 6988 H 646.431 -0.988877 -1.28822 0
M  V30 6989 H 648.428 0.113836 -4.16745 0
M  V30 6990 H 647.088 0.728568 -3.16421 0
M  V30 6991 H 648.099 -2.76281 -4.38051 0
M  V30 6992 H 644.776 -0.190694 -4.17064 0
M  V30 6993 H 646.166 -4.05389 -5.35826 0
M  V30 6994 N 648.886 1.2938 -0.899927 0
M  V30 6995 C 650.135 1.9483 -0.521937 0
M  V30 6996 C 650.448 1.71725 0.936473 0
M  V30 6997 O 651.654 2.31282 1.42199 0
M  V30 6998 C 650.11 3.48911 -0.88255 0
M  V30 6999 C 649.718 3.80815 -2.35974 0
M  V30 7000 C 651.462 4.20595 -0.57448 0
M  V30 7001 C 649.369 5.28142 -2.66121 0
M  V30 7002 H 648.299 0.729285 -0.191468 0
M  V30 7003 H 650.95 1.47103 -1.09695 0
M  V30 7004 H 649.332 3.95293 -0.236459 0
M  V30 7005 H 650.506 3.45291 -3.05141 0
M  V30 7006 H 648.821 3.22271 -2.63686 0
M  V30 7007 H 651.418 5.29031 -0.776556 0
M  V30 7008 H 651.761 4.13442 0.487005 0
M  V30 7009 H 652.294 3.79945 -1.17842 0
M  V30 7010 H 649.033 5.4036 -3.71068 0
M  V30 7011 H 648.553 5.64913 -2.01578 0
M  V30 7012 H 650.232 5.95738 -2.52399 0
M  V30 7013 N 650.364 0.662433 1.43002 0
M  V30 7014 C 651.311 -0.0235324 2.30788 0
M  V30 7015 C 652.281 -0.805342 1.4527 0
M  V30 7016 O 653.466 -0.78009 1.74124 0
M  V30 7017 C 650.606 -0.977545 3.30965 0
M  V30 7018 C 649.719 -0.190865 4.31578 0
M  V30 7019 C 648.854 -1.13951 5.18834 0
M  V30 7020 C 647.893 -0.343796 6.11134 0
M  V30 7021 N 647.03 -1.2445 6.90982 0
M  V30 7022 H 651.87 0.730921 2.88897 0
M  V30 7023 H 649.407 0.372197 1.42313 0
M  V30 7024 H 651.365 -1.54437 3.87563 0
M  V30 7025 H 649.995 -1.69877 2.74484 0
M  V30 7026 H 649.047 0.492388 3.772 0
M  V30 7027 H 650.359 0.427464 4.96965 0
M  V30 7028 H 649.513 -1.77666 5.80103 0
M  V30 7029 H 648.252 -1.79174 4.53595 0
M  V30 7030 H 647.257 0.30665 5.48944 0
M  V30 7031 H 648.482 0.304161 6.78419 0
M  V30 7032 H 646.428 -1.88336 6.28383 0
M  V30 7033 H 646.345 -0.680959 7.52927 0
M  V30 7034 H 647.613 -1.86952 7.56749 0
M  V30 7035 N 651.842 -1.52309 0.404946 0
M  V30 7036 C 653.091 -2.00952 -0.173529 0
M  V30 7037 C 653.404 -1.29512 -1.46581 0
M  V30 7038 O 654.61 -1.6895 -2.12528 0
M  V30 7039 C 653.066 -3.58097 -0.359801 0
M  V30 7040 C 652.674 -4.38449 0.920138 0
M  V30 7041 C 654.418 -4.14984 -0.893794 0
M  V30 7042 C 652.325 -5.87227 0.701285 0
M  V30 7043 H 651.255 -0.750871 -0.0686244 0
M  V30 7044 H 653.906 -1.75687 0.529749 0
M  V30 7045 H 652.288 -3.79675 -1.12531 0
M  V30 7046 H 653.462 -4.28633 1.69147 0
M  V30 7047 H 651.777 -3.92859 1.38024 0
M  V30 7048 H 654.374 -5.23813 -1.0735 0
M  V30 7049 H 654.717 -3.72072 -1.8673 0
M  V30 7050 H 655.25 -3.97358 -0.187453 0
M  V30 7051 H 651.989 -6.34491 1.64624 0
M  V30 7052 H 651.509 -5.99792 -0.0308288 0
M  V30 7053 H 653.188 -6.46096 0.341846 0
M  V30 7054 N 653.32 -0.135238 -1.57019 0
M  V30 7055 C 654.597 0.563227 -1.87316 0
M  V30 7056 C 654.977 1.83749 -1.03921 0
M  V30 7057 O 654.325 2.2817 -0.122675 0
M  V30 7058 C 654.535 0.840031 -3.3874 0
M  V30 7059 C 655.883 1.18598 -4.077 0
M  V30 7060 O 656.907 0.92977 -3.43851 0
M  V30 7061 O 655.766 1.66758 -5.20436 0
M  V30 7062 H 652.86 0.285971 -0.775983 0
M  V30 7063 H 655.406 -0.170965 -1.68837 0
M  V30 7064 H 654.178 -0.0622785 -3.9125 0
M  V30 7065 H 653.801 1.62882 -3.62706 0
M  V30 7066 N 654.798 1.5699 0.138552 0
M  V30 7067 C 656.209 1.73171 0.697754 0
M  V30 7068 C 656.56 0.750952 1.8126 0
M  V30 7069 O 655.685 -0.080549 2.1625 0
M  V30 7070 C 656.28 3.13996 1.27248 0
M  V30 7071 C 654.839 3.3175 1.77816 0
M  V30 7072 C 653.986 2.69084 0.669991 0
M  V30 7073 H 656.937 1.5846 -0.0871979 0
M  V30 7074 H 656.958 3.14463 2.14227 0
M  V30 7075 H 656.47 3.85354 0.460855 0
M  V30 7076 H 654.571 2.65403 2.61519 0
M  V30 7077 H 654.684 4.39768 1.90107 0
M  V30 7078 H 653.048 2.29782 1.09874 0
M  V30 7079 H 653.831 3.43053 -0.130329 0
M  V30 7080 N 656.276 -0.40816 1.52223 0
M  V30 7081 C 657.553 -1.16807 1.56893 0
M  V30 7082 C 657.933 -2.08169 0.350537 0
M  V30 7083 O 657.281 -2.18684 -0.662536 0
M  V30 7084 C 657.491 -1.94451 2.8981 0
M  V30 7085 C 658.839 -2.50484 3.42845 0
M  V30 7086 O 659.863 -2.0463 2.91556 0
M  V30 7087 O 658.722 -3.34192 4.3241 0
M  V30 7088 H 655.816 -0.533382 0.632007 0
M  V30 7089 H 658.362 -0.414862 1.64551 0
M  V30 7090 H 657.134 -1.27527 3.69936 0
M  V30 7091 H 656.757 -2.76775 2.85449 0
M  V30 7092 N 657.755 -1.42862 -0.66545 0
M  V30 7093 C 658.985 -1.47032 -1.45138 0
M  V30 7094 C 659.393 -0.0829977 -1.89018 0
M  V30 7095 O 658.736 0.914551 -1.59316 0
M  V30 7096 C 658.798 -2.34302 -2.72659 0
M  V30 7097 C 658.462 -3.82034 -2.50796 0
M  V30 7098 C 659.459 -4.73453 -2.14799 0
M  V30 7099 C 657.144 -4.26397 -2.655 0
M  V30 7100 C 659.138 -6.07228 -1.93785 0
M  V30 7101 C 656.825 -5.6023 -2.44103 0
M  V30 7102 C 657.823 -6.50462 -2.08299 0
M  V30 7103 O 657.511 -7.8182 -1.87116 0
M  V30 7104 H 657.243 -0.501969 -0.452772 0
M  V30 7105 H 659.797 -1.88137 -0.82423 0
M  V30 7106 H 658.027 -1.88063 -3.37889 0
M  V30 7107 H 659.716 -2.29818 -3.34572 0
M  V30 7108 H 660.482 -4.4046 -2.03026 0
M  V30 7109 H 656.361 -3.56448 -2.92345 0
M  V30 7110 H 659.905 -6.7762 -1.65763 0
M  V30 7111 H 655.802 -5.92793 -2.55475 0
M  V30 7112 H 656.57 -7.93274 -2.01639 0
M  V30 7113 N 659.233 0.902656 -1.29189 0
M  V30 7114 C 660.458 1.69167 -1.19989 0
M  V30 7115 C 660.883 1.86607 0.236495 0
M  V30 7116 O 660.241 1.38425 1.17082 0
M  V30 7117 C 660.289 3.05532 -1.91527 0
M  V30 7118 O 659.393 3.93621 -1.2303 0
M  V30 7119 H 658.734 0.517584 -0.415936 0
M  V30 7120 H 661.264 1.12785 -1.70706 0
M  V30 7121 H 661.274 3.55693 -1.99866 0
M  V30 7122 H 659.949 2.92156 -2.96003 0
M  V30 7123 H 658.526 3.52055 -1.22928 0
M  V30 7124 N 660.711 1.11618 1.11262 0
M  V30 7125 C 661.957 0.867463 1.83311 0
M  V30 7126 C 662.29 -0.605366 1.84524 0
M  V30 7127 O 661.565 -1.44704 1.29965 0
M  V30 7128 C 661.848 1.43207 3.30399 0
M  V30 7129 C 661.701 2.97265 3.3757 0
M  V30 7130 C 663.02 1.08454 4.26528 0
M  V30 7131 H 660.139 0.316578 0.665543 0
M  V30 7132 H 662.781 1.38137 1.30454 0
M  V30 7133 H 660.931 0.994982 3.75543 0
M  V30 7134 H 662.603 3.49591 3.00971 0
M  V30 7135 H 660.846 3.33237 2.77733 0
M  V30 7136 H 661.517 3.31859 4.41105 0
M  V30 7137 H 663.993 1.4619 3.89574 0
M  V30 7138 H 662.869 1.50633 5.27826 0
M  V30 7139 H 663.13 -0.00444568 4.421 0
M  V30 7140 N 662.189 -1.289 0.906776 0
M  V30 7141 C 663.419 -1.99112 0.551168 0
M  V30 7142 C 663.827 -1.67998 -0.870243 0
M  V30 7143 O 663.17 -0.92525 -1.58697 0
M  V30 7144 C 663.232 -3.53162 0.672065 0
M  V30 7145 C 662.896 -4.07849 2.06174 0
M  V30 7146 C 663.893 -4.22212 3.0337 0
M  V30 7147 C 661.578 -4.4271 2.37304 0
M  V30 7148 C 663.572 -4.70678 4.29815 0
M  V30 7149 C 661.259 -4.90871 3.6399 0
M  V30 7150 C 662.257 -5.04811 4.6006 0
M  V30 7151 O 661.945 -5.51925 5.84495 0
M  V30 7152 H 661.677 -0.642728 0.209469 0
M  V30 7153 H 664.231 -1.65234 1.22012 0
M  V30 7154 H 662.461 -3.86662 -0.05394 0
M  V30 7155 H 664.15 -4.046 0.324579 0
M  V30 7156 H 664.916 -3.9556 2.80637 0
M  V30 7157 H 660.795 -4.31114 1.63283 0
M  V30 7158 H 664.339 -4.81474 5.04806 0
M  V30 7159 H 660.236 -5.16961 3.86551 0
M  V30 7160 H 661.004 -5.70225 5.87185 0
M  V30 7161 N 663.667 -0.670007 -1.42649 0
M  V30 7162 C 664.913 -0.190568 -2.01903 0
M  V30 7163 C 665.246 1.19817 -1.52832 0
M  V30 7164 O 664.521 1.80342 -0.728485 0
M  V30 7165 C 664.804 -0.21991 -3.59428 0
M  V30 7166 C 664.657 -1.64376 -4.18689 0
M  V30 7167 C 665.976 0.434519 -4.3795 0
M  V30 7168 H 663.095 -0.0707219 -0.733599 0
M  V30 7169 H 665.737 -0.853883 -1.69732 0
M  V30 7170 H 663.887 0.344894 -3.86966 0
M  V30 7171 H 665.559 -2.26044 -4.02122 0
M  V30 7172 H 663.802 -2.18591 -3.747 0
M  V30 7173 H 664.473 -1.61601 -5.27815 0
M  V30 7174 H 666.949 -0.0462156 -4.16074 0
M  V30 7175 H 665.825 0.38333 -5.4756 0
M  V30 7176 H 666.086 1.51135 -4.15464 0
M  V30 7177 N 665.145 1.52092 -0.413018 0
M  V30 7178 C 666.092 2.27119 0.410558 0
M  V30 7179 C 667.062 1.29692 1.03774 0
M  V30 7180 O 668.247 1.58561 1.06128 0
M  V30 7181 C 665.387 3.09863 1.51918 0
M  V30 7182 C 664.5 4.22252 0.912528 0
M  V30 7183 C 663.635 4.92348 1.99417 0
M  V30 7184 C 662.674 5.96694 1.36466 0
M  V30 7185 N 661.811 6.60292 2.38661 0
M  V30 7186 H 666.651 2.97067 -0.235661 0
M  V30 7187 H 664.188 1.46542 -0.128055 0
M  V30 7188 H 666.146 3.56144 2.17295 0
M  V30 7189 H 664.776 2.42078 2.13537 0
M  V30 7190 H 663.828 3.80113 0.147697 0
M  V30 7191 H 665.14 4.9709 0.412717 0
M  V30 7192 H 664.294 5.42054 2.72512 0
M  V30 7193 H 663.033 4.17087 2.52764 0
M  V30 7194 H 662.038 5.46304 0.61906 0
M  V30 7195 H 663.263 6.73899 0.838827 0
M  V30 7196 H 661.209 5.87858 2.91134 0
M  V30 7197 H 661.126 7.30816 1.93503 0
M  V30 7198 H 662.394 7.14635 3.11314 0
M  V30 7199 N 666.623 0.143563 1.56945 0
M  V30 7200 C 667.586 -0.783295 2.154 0
M  V30 7201 C 668.586 -1.17763 1.09492 0
M  V30 7202 O 669.776 -1.09912 1.35148 0
M  V30 7203 C 666.908 -2.06248 2.7143 0
M  V30 7204 H 668.101 -0.274863 2.98638 0
M  V30 7205 H 665.654 -0.105859 1.55941 0
M  V30 7206 H 666.389 -2.61466 1.91849 0
M  V30 7207 H 666.174 -1.78897 3.4891 0
M  V30 7208 H 667.664 -2.72453 3.16479 0
M  V30 7209 N 668.101 -1.57061 -0.130224 0
M  V30 7210 C 669.048 -1.99517 -1.16024 0
M  V30 7211 C 670.018 -0.865452 -1.41771 0
M  V30 7212 O 671.203 -1.12882 -1.53826 0
M  V30 7213 C 668.343 -2.3951 -2.48453 0
M  V30 7214 C 667.456 -3.65848 -2.29737 0
M  V30 7215 C 666.591 -3.9487 -3.55318 0
M  V30 7216 C 665.63 -5.14426 -3.31711 0
M  V30 7217 N 664.767 -5.39375 -4.49466 0
M  V30 7218 H 669.607 -2.87305 -0.791194 0
M  V30 7219 H 667.144 -1.42129 -0.379195 0
M  V30 7220 H 669.102 -2.60731 -3.25692 0
M  V30 7221 H 667.732 -1.54779 -2.83272 0
M  V30 7222 H 666.784 -3.52307 -1.4347 0
M  V30 7223 H 668.096 -4.53241 -2.08263 0
M  V30 7224 H 667.25 -4.16679 -4.4098 0
M  V30 7225 H 665.989 -3.05931 -3.79813 0
M  V30 7226 H 664.994 -4.92473 -2.44439 0
M  V30 7227 H 666.219 -6.04933 -3.08598 0
M  V30 7228 H 664.165 -4.53391 -4.74102 0
M  V30 7229 H 664.082 -6.21069 -4.31055 0
M  V30 7230 H 665.35 -5.65694 -5.36293 0
M  V30 7231 N 669.579 0.400081 -1.52437 0
M  V30 7232 C 670.856 1.15973 -1.57511 0
M  V30 7233 C 671.236 2.0798 -0.361572 0
M  V30 7234 O 670.584 2.19032 0.650929 0
M  V30 7235 C 670.794 1.92912 -2.90837 0
M  V30 7236 C 672.142 2.48662 -3.44169 0
M  V30 7237 O 673.166 2.03081 -2.92637 0
M  V30 7238 O 672.025 3.31894 -4.34176 0
M  V30 7239 H 669.119 0.530023 -0.634827 0
M  V30 7240 H 671.665 0.40613 -1.64769 0
M  V30 7241 H 670.437 1.25564 -3.70607 0
M  V30 7242 H 670.06 2.75257 -2.86913 0
M  V30 7243 N 671.057 1.43213 0.657864 0
M  V30 7244 C 671.989 1.43974 1.78337 0
M  V30 7245 C 673.002 0.336482 1.59285 0
M  V30 7246 O 674.191 0.600631 1.68091 0
M  V30 7247 C 671.291 1.23242 3.15697 0
M  V30 7248 C 670.464 2.46319 3.61449 0
M  V30 7249 C 669.523 2.2088 4.77597 0
M  V30 7250 O 668.549 2.942 4.87273 0
M  V30 7251 N 669.751 1.22251 5.67481 0
M  V30 7252 H 672.516 2.40993 1.78164 0
M  V30 7253 H 670.077 1.3831 0.841549 0
M  V30 7254 H 672.069 1.04113 3.91079 0
M  V30 7255 H 670.639 0.346849 3.1067 0
M  V30 7256 H 669.859 2.80904 2.76563 0
M  V30 7257 H 671.147 3.28239 3.88763 0
M  V30 7258 H 670.545 0.616433 5.62331 0
M  V30 7259 H 669.102 1.09107 6.42603 0
M  V30 7260 N 672.536 -0.895792 1.29666 0
M  V30 7261 C 673.784 -1.64339 1.17631 0
M  V30 7262 C 674.105 -1.93099 -0.271643 0
M  V30 7263 O 673.375 -1.55981 -1.18518 0
M  V30 7264 H 671.955 -0.609162 0.432354 0
M  V30 7265 H 674.617 -1.07389 1.62646 0
M  V30 7266 H 673.713 -2.59815 1.72924 0
M  V30 7267 N 674.014 -1.12206 -1.10668 0
M  V30 7268 C 675.261 -0.875875 -1.82578 0
M  V30 7269 C 675.589 0.598342 -1.85068 0
M  V30 7270 O 674.844 1.45818 -1.3052 0
M  V30 7271 C 675.143 -1.39276 -3.29146 0
M  V30 7272 C 674.809 -2.8816 -3.46806 0
M  V30 7273 C 673.471 -3.28813 -3.51334 0
M  V30 7274 C 675.823 -3.8401 -3.52399 0
M  V30 7275 C 673.151 -4.64028 -3.59019 0
M  V30 7276 C 675.503 -5.19053 -3.61617 0
M  V30 7277 C 674.167 -5.59252 -3.64408 0
M  V30 7278 H 673.437 -0.320505 -0.6681 0
M  V30 7279 H 676.084 -1.40184 -1.30464 0
M  V30 7280 H 674.389 -0.787207 -3.8381 0
M  V30 7281 H 676.086 -1.17851 -3.83291 0
M  V30 7282 H 672.676 -2.55716 -3.43958 0
M  V30 7283 H 676.86 -3.53698 -3.48154 0
M  V30 7284 H 672.116 -4.94568 -3.59461 0
M  V30 7285 H 676.29 -5.93152 -3.64889 0
M  V30 7286 H 673.917 -6.64017 -3.70116 0
M  V30 7287 N 675.492 1.28418 -0.913599 0
M  V30 7288 C 676.739 1.94981 -0.546674 0
M  V30 7289 C 677.067 1.7192 0.909606 0
M  V30 7290 O 676.322 1.03314 1.66207 0
M  V30 7291 C 676.621 3.48283 -0.802099 0
M  V30 7292 C 676.287 3.91444 -2.2379 0
M  V30 7293 C 674.949 4.02939 -2.63046 0
M  V30 7294 C 677.301 4.13542 -3.17227 0
M  V30 7295 C 674.629 4.3391 -3.94891 0
M  V30 7296 C 676.981 4.45992 -4.48636 0
M  V30 7297 C 675.645 4.55698 -4.87746 0
M  V30 7298 H 674.915 0.713487 -0.200042 0
M  V30 7299 H 677.562 1.52756 -1.15489 0
M  V30 7300 H 675.867 3.91643 -0.111076 0
M  V30 7301 H 677.564 3.97903 -0.497375 0
M  V30 7302 H 674.154 3.83024 -1.9233 0
M  V30 7303 H 678.338 4.04114 -2.88107 0
M  V30 7304 H 673.594 4.39631 -4.24894 0
M  V30 7305 H 677.768 4.62038 -5.21051 0
M  V30 7306 H 675.395 4.79451 -5.89942 0
M  V30 7307 N 676.97 0.677563 1.42291 0
M  V30 7308 C 678.216 0.201272 2.01799 0
M  V30 7309 C 678.549 -1.19004 1.53465 0
M  V30 7310 O 677.824 -1.79953 0.738039 0
M  V30 7311 C 678.107 0.238968 3.59306 0
M  V30 7312 C 677.96 1.66594 4.17812 0
M  V30 7313 C 679.279 -0.411287 4.38174 0
M  V30 7314 H 676.398 0.0746114 0.733214 0
M  V30 7315 H 679.04 0.862872 1.69276 0
M  V30 7316 H 677.19 -0.324368 3.87144 0
M  V30 7317 H 678.862 2.28173 4.00917 0
M  V30 7318 H 677.105 2.20576 3.73536 0
M  V30 7319 H 677.776 1.64398 5.26951 0
M  V30 7320 H 680.252 0.0682804 4.16044 0
M  V30 7321 H 679.128 -0.354286 5.47755 0
M  V30 7322 H 679.389 -1.4893 4.1626 0
M  V30 7323 N 678.448 -1.51871 0.421078 0
M  V30 7324 C 679.395 -2.27334 -0.398508 0
M  V30 7325 C 680.365 -1.30241 -1.03085 0
M  V30 7326 O 681.55 -1.59121 -1.05285 0
M  V30 7327 C 678.69 -3.10664 -1.50272 0
M  V30 7328 C 677.803 -4.2273 -0.890122 0
M  V30 7329 C 676.938 -4.93399 -1.96803 0
M  V30 7330 C 675.977 -5.97409 -1.333 0
M  V30 7331 N 675.114 -6.61548 -2.35156 0
M  V30 7332 H 679.954 -2.96938 0.251411 0
M  V30 7333 H 677.491 -1.46472 0.135825 0
M  V30 7334 H 679.449 -3.57292 -2.15403 0
M  V30 7335 H 678.079 -2.43207 -2.1225 0
M  V30 7336 H 677.131 -3.80186 -0.127537 0
M  V30 7337 H 678.443 -4.97302 -0.386349 0
M  V30 7338 H 677.597 -5.43491 -2.69633 0
M  V30 7339 H 676.336 -4.18421 -2.50549 0
M  V30 7340 H 675.341 -5.46624 -0.59008 0
M  V30 7341 H 676.566 -6.74335 -0.803076 0
M  V30 7342 H 674.512 -5.89394 -2.88012 0
M  V30 7343 H 674.429 -7.31832 -1.89624 0
M  V30 7344 H 675.697 -7.16276 -3.0752 0
M  V30 7345 N 679.926 -0.151884 -1.56866 0
M  V30 7346 C 680.874 0.80299 -2.183 0
M  V30 7347 C 681.868 1.25174 -1.14139 0
M  V30 7348 O 683.074 1.21966 -1.3238 0
M  V30 7349 H 679.449 0.277169 -0.699057 0
M  V30 7350 H 681.42 0.260699 -2.97259 0
M  V30 7351 C 680.169 2.03009 -2.82281 0
M  V30 7352 H 679.492 1.69377 -3.62148 0
M  V30 7353 H 680.932 2.67753 -3.28762 0
M  V30 7354 C 679.391 2.84123 -1.81041 0
M  V30 7355 O 679.921 3.8063 -1.28388 0
M  V30 7356 N 678.127 2.48753 -1.50234 0
M  V30 7357 H 677.674 1.70337 -1.93244 0
M  V30 7358 H 677.632 3.03316 -0.827445 0
M  V30 7359 N 681.404 1.57128 0.121893 0
M  V30 7360 C 682.336 1.96773 1.17529 0
M  V30 7361 C 683.349 0.866668 1.37814 0
M  V30 7362 O 684.538 1.14497 1.3694 0
M  V30 7363 C 681.638 2.24832 2.53582 0
M  V30 7364 C 680.811 3.56138 2.53939 0
M  V30 7365 C 679.87 3.72443 3.71716 0
M  V30 7366 O 678.896 4.44584 3.55434 0
M  V30 7367 N 680.098 3.10993 4.90167 0
M  V30 7368 H 682.863 2.87743 0.838086 0
M  V30 7369 H 680.424 1.58881 0.311199 0
M  V30 7370 H 682.416 2.32958 3.30927 0
M  V30 7371 H 680.986 1.40002 2.79496 0
M  V30 7372 H 680.206 3.59226 1.62329 0
M  V30 7373 H 681.494 4.42448 2.51231 0
M  V30 7374 H 680.892 2.52345 5.06299 0
M  V30 7375 H 679.449 3.24644 5.65198 0
M  V30 7376 N 682.882 -0.391992 1.52647 0
M  V30 7377 C 683.792 -1.503 1.80131 0
M  V30 7378 C 684.808 -1.59825 0.687882 0
M  V30 7379 O 685.984 -1.76218 0.975149 0
M  V30 7380 C 683.049 -2.85863 1.96171 0
M  V30 7381 C 682.11 -2.86084 3.20085 0
M  V30 7382 C 681.343 -4.15181 3.35351 0
M  V30 7383 O 681.566 -5.09981 2.55491 0
M  V30 7384 O 680.5 -4.22603 4.28591 0
M  V30 7385 H 684.326 -1.30007 2.74466 0
M  V30 7386 H 681.911 -0.579539 1.37701 0
M  V30 7387 H 683.793 -3.66236 2.08445 0
M  V30 7388 H 682.468 -3.06189 1.05025 0
M  V30 7389 H 681.375 -2.04504 3.13256 0
M  V30 7390 H 682.708 -2.7071 4.11068 0
M  V30 7391 N 684.36 -1.4356 -0.65026 0
M  V30 7392 C 685.608 -1.45046 -1.40734 0
M  V30 7393 C 685.929 -0.0769822 -1.94848 0
M  V30 7394 O 685.199 0.888098 -1.74613 0
M  V30 7395 H 683.779 -0.534034 -0.522318 0
M  V30 7396 H 686.441 -1.79186 -0.766703 0
M  V30 7397 H 685.537 -2.16476 -2.24822 0
M  V30 7398 N 685.838 0.888903 -1.30139 0
M  V30 7399 C 686.748 2.02705 -1.18101 0
M  V30 7400 C 687.764 1.73702 -0.101809 0
M  V30 7401 O 688.94 1.98906 -0.315984 0
M  V30 7402 C 686.005 3.35616 -0.869651 0
M  V30 7403 C 685.066 3.78067 -2.03381 0
M  V30 7404 C 684.299 5.04635 -1.73721 0
M  V30 7405 O 684.522 5.66531 -0.663267 0
M  V30 7406 O 683.456 5.43399 -2.58845 0
M  V30 7407 H 687.282 2.15788 -2.13704 0
M  V30 7408 H 684.867 1.01426 -1.09695 0
M  V30 7409 H 686.749 4.15358 -0.711043 0
M  V30 7410 H 685.424 3.23651 0.0565002 0
M  V30 7411 H 684.331 2.99046 -2.24772 0
M  V30 7412 H 685.664 3.94631 -2.94155 0
M  V30 7413 N 687.317 1.12792 1.10072 0
M  V30 7414 C 688.594 0.796867 1.78632 0
M  V30 7415 C 688.974 -0.712739 1.98704 0
M  V30 7416 O 688.322 -1.64773 1.5831 0
M  V30 7417 C 688.532 1.57622 3.11378 0
M  V30 7418 C 689.88 1.76463 3.86194 0
M  V30 7419 O 690.904 1.54165 3.2111 0
M  V30 7420 O 689.763 2.13623 5.03018 0
M  V30 7421 H 686.857 0.290248 0.774394 0
M  V30 7422 H 689.403 1.23215 1.16688 0
M  V30 7423 H 688.175 2.60246 2.92212 0
M  V30 7424 H 687.798 1.13543 3.81043 0
M  V30 7425 N 688.795 -1.27931 0.920396 0
M  V30 7426 C 690.042 -1.94689 0.557007 0
M  V30 7427 C 690.37 -1.724 -0.900476 0
M  V30 7428 O 689.625 -1.04194 -1.65657 0
M  V30 7429 C 689.924 -3.47853 0.820558 0
M  V30 7430 C 689.59 -3.90252 2.25863 0
M  V30 7431 C 688.252 -4.01539 2.65179 0
M  V30 7432 C 690.604 -4.11853 3.19415 0
M  V30 7433 C 687.932 -4.3181 3.97187 0
M  V30 7434 C 690.284 -4.43606 4.50995 0
M  V30 7435 C 688.948 -4.53105 4.90155 0
M  V30 7436 H 688.218 -0.712416 0.203823 0
M  V30 7437 H 690.865 -1.52142 1.16298 0
M  V30 7438 H 689.17 -3.91578 0.131844 0
M  V30 7439 H 690.867 -3.97634 0.51847 0
M  V30 7440 H 687.457 -3.81999 1.94358 0
M  V30 7441 H 691.641 -4.0258 2.90246 0
M  V30 7442 H 686.897 -4.37371 4.2722 0
M  V30 7443 H 691.071 -4.59268 5.23494 0
M  V30 7444 H 688.698 -4.76315 5.92476 0
M  V30 7445 N 690.273 -0.685099 -1.4193 0
M  V30 7446 C 691.183 -0.013404 -2.34596 0
M  V30 7447 C 692.199 0.777589 -1.55658 0
M  V30 7448 O 693.375 0.717553 -1.88184 0
M  V30 7449 C 690.44 0.919031 -3.34297 0
M  V30 7450 C 689.501 0.121417 -4.29128 0
M  V30 7451 C 688.734 1.00944 -5.24067 0
M  V30 7452 O 688.957 2.24898 -5.24192 0
M  V30 7453 O 687.891 0.464724 -6.00103 0
M  V30 7454 H 691.717 -0.776978 -2.93593 0
M  V30 7455 H 689.302 -0.445379 -1.42607 0
M  V30 7456 H 691.184 1.45402 -3.9552 0
M  V30 7457 H 689.859 1.66228 -2.77759 0
M  V30 7458 H 688.766 -0.45792 -3.71287 0
M  V30 7459 H 690.099 -0.582937 -4.88736 0
M  V30 7460 N 691.751 1.51645 -0.429126 0
M  V30 7461 C 692.999 2.01616 0.139802 0
M  V30 7462 C 693.32 1.31568 1.43927 0
M  V30 7463 O 692.59 0.447688 1.90716 0
M  V30 7464 H 691.17 0.744998 0.054654 0
M  V30 7465 H 693.832 1.8638 -0.569952 0
M  V30 7466 H 692.928 3.10439 0.321609 0
M  V30 7467 N 693.229 0.160201 1.56784 0
M  V30 7468 C 694.475 -0.48831 1.96833 0
M  V30 7469 C 694.808 -1.63641 1.04571 0
M  V30 7470 O 694.083 -1.94289 0.0906481 0
M  V30 7471 C 694.366 -0.981908 3.46454 0
M  V30 7472 C 694.219 0.165607 4.49495 0
M  V30 7473 C 695.538 -1.85931 3.98896 0
M  V30 7474 H 692.657 -0.176027 0.71567 0
M  V30 7475 H 695.299 0.244093 1.88426 0
M  V30 7476 H 693.449 -1.60602 3.5375 0
M  V30 7477 H 695.121 0.802372 4.54268 0
M  V30 7478 H 693.364 0.822789 4.25926 0
M  V30 7479 H 694.035 -0.221699 5.51555 0
M  V30 7480 H 696.511 -1.33327 3.94161 0
M  V30 7481 H 695.387 -2.17373 5.04024 0
M  V30 7482 H 695.648 -2.80106 3.42042 0
M  V30 7483 N 694.707 -1.5719 -0.113559 0
M  V30 7484 C 695.947 -1.86958 -0.82621 0
M  V30 7485 C 696.311 -0.748884 -1.76793 0
M  V30 7486 O 697.512 -0.92847 -2.52256 0
M  V30 7487 C 695.783 -3.21957 -1.55173 0
M  V30 7488 S 697.342 -3.73371 -2.3052 0
M  V30 7489 H 694.16 -0.655394 -0.275643 0
M  V30 7490 H 696.762 -1.95318 -0.0842684 0
M  V30 7491 H 695.466 -4.01459 -0.851977 0
M  V30 7492 H 694.997 -3.16688 -2.33393 0
M  V30 7493 H 697.012 -3.45308 -3.56338 0
M  V30 7494 N 696.185 0.383891 -1.52853 0
M  V30 7495 C 697.431 1.12667 -1.69345 0
M  V30 7496 C 697.786 1.87519 -0.430635 0
M  V30 7497 O 697.079 1.82742 0.575846 0
M  V30 7498 C 697.273 2.12881 -2.87082 0
M  V30 7499 C 697.102 1.47873 -4.24692 0
M  V30 7500 C 695.872 1.24064 -4.89833 0
M  V30 7501 C 698.07 0.926118 -5.05893 0
M  V30 7502 N 696.052 0.552138 -6.11412 0
M  V30 7503 C 697.423 0.365966 -6.18919 0
M  V30 7504 C 699.478 0.823023 -4.91051 0
M  V30 7505 C 698.181 -0.287204 -7.18726 0
M  V30 7506 C 700.207 0.183666 -5.91115 0
M  V30 7507 C 699.569 -0.365693 -7.0345 0
M  V30 7508 H 695.668 0.398064 -0.673104 0
M  V30 7509 H 698.252 0.415504 -1.90215 0
M  V30 7510 H 696.423 2.81329 -2.67784 0
M  V30 7511 H 698.155 2.79703 -2.92486 0
M  V30 7512 H 694.91 1.51701 -4.48647 0
M  V30 7513 H 695.334 0.223783 -6.7663 0
M  V30 7514 H 699.976 1.23354 -4.04405 0
M  V30 7515 H 697.694 -0.709719 -8.04977 0
M  V30 7516 H 701.28 0.105074 -5.81705 0
M  V30 7517 H 700.16 -0.85261 -7.79551 0
M  V30 7518 N 697.663 1.43903 0.642637 0
M  V30 7519 C 699.074 1.40975 1.22404 0
M  V30 7520 C 699.425 0.1192 1.95838 0
M  V30 7521 O 698.55 -0.780939 2.01818 0
M  V30 7522 C 699.145 2.5538 2.22636 0
M  V30 7523 C 697.704 2.55684 2.76229 0
M  V30 7524 C 696.851 2.32556 1.51039 0
M  V30 7525 H 699.802 1.5265 0.434006 0
M  V30 7526 H 699.823 2.27474 3.05017 0
M  V30 7527 H 699.335 3.49294 1.69161 0
M  V30 7528 H 697.436 1.65679 3.33738 0
M  V30 7529 H 697.549 3.53799 3.23053 0
M  V30 7530 H 695.913 1.81427 1.78764 0
M  V30 7531 H 696.696 3.28569 0.99484 0
M  V30 7532 N 699.141 -0.881989 1.30609 0
M  V30 7533 C 700.389 -1.63082 1.19368 0
M  V30 7534 C 700.71 -1.93376 -0.251147 0
M  V30 7535 O 699.98 -1.5723 -1.16857 0
M  V30 7536 H 698.56 -0.604542 0.438791 0
M  V30 7537 H 701.222 -1.05658 1.63776 0
M  V30 7538 H 700.318 -2.57966 1.7567 0
M  V30 7539 N 700.619 -1.13374 -1.09472 0
M  V30 7540 C 701.549 -0.833268 -2.18126 0
M  V30 7541 C 702.53 0.207169 -1.68834 0
M  V30 7542 O 703.715 0.0662012 -1.94087 0
M  V30 7543 C 700.845 -0.297979 -3.46019 0
M  V30 7544 C 699.799 -1.27261 -4.08642 0
M  V30 7545 C 699.125 -0.597104 -5.31356 0
M  V30 7546 C 700.425 -2.63095 -4.51197 0
M  V30 7547 H 702.119 -1.74182 -2.43518 0
M  V30 7548 H 699.665 -0.838921 -1.17039 0
M  V30 7549 H 701.618 -0.0754444 -4.21332 0
M  V30 7550 H 700.342 0.645959 -3.20148 0
M  V30 7551 H 699.001 -1.48113 -3.35348 0
M  V30 7552 H 698.649 0.352293 -5.01765 0
M  V30 7553 H 698.349 -1.24734 -5.74208 0
M  V30 7554 H 699.873 -0.38384 -6.09392 0
M  V30 7555 H 701.287 -2.46214 -5.17737 0
M  V30 7556 H 699.684 -3.2429 -5.04932 0
M  V30 7557 H 700.754 -3.20793 -3.6362 0
M  V30 7558 N 702.098 1.27442 -0.927168 0
M  V30 7559 C 703.323 1.99036 -0.583042 0
M  V30 7560 C 703.748 1.68711 0.83176 0
M  V30 7561 O 703.106 0.927081 1.55804 0
M  V30 7562 C 703.154 3.51271 -0.814925 0
M  V30 7563 O 702.258 4.12226 0.119742 0
M  V30 7564 H 701.599 0.624883 -0.224538 0
M  V30 7565 H 704.129 1.62263 -1.24628 0
M  V30 7566 H 704.139 4.01411 -0.730282 0
M  V30 7567 H 702.814 3.72676 -1.84623 0
M  V30 7568 H 701.391 3.72897 -0.0147688 0
M  V30 7569 N 703.576 0.692616 1.41565 0
M  V30 7570 C 704.801 0.229776 2.06123 0
M  V30 7571 C 705.226 -1.11119 1.5177 0
M  V30 7572 O 704.584 -1.69498 0.643444 0
M  V30 7573 C 704.632 0.19469 3.60074 0
M  V30 7574 O 703.736 -0.831366 4.03933 0
M  V30 7575 H 703.077 0.113002 0.654314 0
M  V30 7576 H 705.607 0.946645 1.81383 0
M  V30 7577 H 705.617 0.0245487 4.07993 0
M  V30 7578 H 704.292 1.17339 3.99004 0
M  V30 7579 H 702.869 -0.630819 3.67526 0
M  V30 7580 N 705.054 -1.51416 0.437162 0
M  V30 7581 C 706.284 -2.06204 -0.127859 0
M  V30 7582 C 706.692 -1.30463 -1.37026 0
M  V30 7583 O 706.035 -0.357516 -1.80187 0
M  V30 7584 C 706.097 -3.55783 -0.515632 0
M  V30 7585 C 705.761 -4.52776 0.619937 0
M  V30 7586 C 706.758 -4.98031 1.49201 0
M  V30 7587 C 704.443 -4.95878 0.800618 0
M  V30 7588 C 706.437 -5.85061 2.52947 0
M  V30 7589 C 704.124 -5.82699 1.84135 0
M  V30 7590 C 705.122 -6.27188 2.70416 0
M  V30 7591 O 704.81 -7.12284 3.72702 0
M  V30 7592 H 704.542 -0.675903 -0.011442 0
M  V30 7593 H 707.096 -1.95977 0.614986 0
M  V30 7594 H 705.326 -3.63793 -1.31118 0
M  V30 7595 H 707.015 -3.93087 -1.01179 0
M  V30 7596 H 707.781 -4.65426 1.36395 0
M  V30 7597 H 703.66 -4.60792 0.138617 0
M  V30 7598 H 707.204 -6.19708 3.20325 0
M  V30 7599 H 703.101 -6.14717 1.9696 0
M  V30 7600 H 703.869 -7.30462 3.69281 0
M  V30 7601 N 706.532 -0.168513 -1.56696 0
M  V30 7602 C 707.462 0.758563 -2.20835 0
M  V30 7603 C 708.443 1.24121 -1.1631 0
M  V30 7604 O 709.628 1.29487 -1.4473 0
M  V30 7605 C 706.758 1.9892 -2.8469 0
M  V30 7606 C 705.712 1.64252 -3.95228 0
M  V30 7607 C 705.038 2.94757 -4.46119 0
M  V30 7608 C 706.338 0.872675 -5.14958 0
M  V30 7609 H 708.032 0.223953 -2.98561 0
M  V30 7610 H 705.578 0.106277 -1.43607 0
M  V30 7611 H 707.531 2.64275 -3.28233 0
M  V30 7612 H 706.255 2.5479 -2.04327 0
M  V30 7613 H 704.914 1.01266 -3.52336 0
M  V30 7614 H 704.562 3.48662 -3.62552 0
M  V30 7615 H 704.262 2.72316 -5.2069 0
M  V30 7616 H 705.786 3.61147 -4.92347 0
M  V30 7617 H 707.2 1.42875 -5.55211 0
M  V30 7618 H 705.597 0.747402 -5.95428 0
M  V30 7619 H 706.667 -0.131535 -4.84722 0
M  V30 7620 N 708.01 1.57248 0.105221 0
M  V30 7621 C 709.287 1.76566 0.841647 0
M  V30 7622 C 709.667 0.747566 1.9742 0
M  V30 7623 O 709.015 -0.225886 2.27381 0
M  V30 7624 C 709.225 3.22016 1.3456 0
M  V30 7625 C 710.573 3.84911 1.79244 0
M  V30 7626 O 711.597 3.25703 1.44207 0
M  V30 7627 O 710.456 4.89008 2.43995 0
M  V30 7628 H 707.55 0.723443 0.400698 0
M  V30 7629 H 710.096 1.69472 0.0878893 0
M  V30 7630 H 708.868 3.87644 0.533685 0
M  V30 7631 H 708.491 3.33703 2.16167 0
M  V30 7632 N 709.488 -0.375779 1.53054 0
M  V30 7633 C 710.735 -1.11948 1.68742 0
M  V30 7634 C 711.063 -1.89596 0.434015 0
M  V30 7635 O 710.318 -1.86787 -0.583867 0
M  V30 7636 C 710.617 -2.11356 2.88207 0
M  V30 7637 C 710.283 -1.50266 4.25124 0
M  V30 7638 C 708.945 -1.33333 4.62359 0
M  V30 7639 C 711.297 -1.05976 5.10312 0
M  V30 7640 C 708.625 -0.706765 5.82427 0
M  V30 7641 C 710.977 -0.447241 6.31017 0
M  V30 7642 C 709.641 -0.265314 6.66973 0
M  V30 7643 H 708.911 -0.409648 0.61747 0
M  V30 7644 H 711.558 -0.402492 1.87222 0
M  V30 7645 H 709.863 -2.89322 2.64197 0
M  V30 7646 H 711.56 -2.68833 2.97539 0
M  V30 7647 H 708.15 -1.64437 3.95801 0
M  V30 7648 H 712.334 -1.17855 4.82104 0
M  V30 7649 H 707.59 -0.554132 6.08884 0
M  V30 7650 H 711.764 -0.0958064 6.96334 0
M  V30 7651 H 709.391 0.222267 7.59875 0
M  V30 7652 N 710.966 -1.44241 -0.634997 0
M  V30 7653 C 712.194 -1.50296 -1.42193 0
M  V30 7654 C 712.609 -0.12658 -1.88375 0
M  V30 7655 O 711.966 0.86678 -1.60603 0
M  V30 7656 C 712.017 -2.46437 -2.64482 0
M  V30 7657 O 711.738 -3.78724 -2.20226 0
M  V30 7658 C 713.239 -2.61918 -3.57651 0
M  V30 7659 H 710.459 -0.509865 -0.43621 0
M  V30 7660 H 713.003 -1.89167 -0.776921 0
M  V30 7661 H 711.158 -2.10712 -3.25083 0
M  V30 7662 H 711.572 -4.30595 -2.9948 0
M  V30 7663 H 713.046 -3.33225 -4.40074 0
M  V30 7664 H 713.523 -1.67017 -4.06204 0
M  V30 7665 H 714.129 -2.98528 -3.02921 0
M  V30 7666 N 712.444 0.87505 -1.31075 0
M  V30 7667 C 713.392 2.00317 -1.18219 0
M  V30 7668 C 714.386 1.69152 -0.0916872 0
M  V30 7669 O 715.592 1.7821 -0.253229 0
M  V30 7670 H 711.967 0.656981 -0.365895 0
M  V30 7671 H 713.938 2.08293 -2.13674 0
M  V30 7672 C 712.687 3.35821 -0.901095 0
M  V30 7673 H 712.01 3.6032 -1.73233 0
M  V30 7674 H 713.45 4.15366 -0.851295 0
M  V30 7675 C 711.909 3.34563 0.396114 0
M  V30 7676 O 712.439 3.75971 1.41452 0
M  V30 7677 N 710.645 2.87681 0.410832 0
M  V30 7678 H 710.192 2.54179 -0.418415 0
M  V30 7679 H 710.15 2.87223 1.27869 0
M  V30 7680 N 713.922 1.13953 1.08869 0
M  V30 7681 C 715.333 0.916649 1.62648 0
M  V30 7682 C 715.684 -0.545589 1.88462 0
M  V30 7683 O 714.809 -1.41351 1.63856 0
M  V30 7684 C 715.404 1.65751 2.95486 0
M  V30 7685 C 713.963 1.48034 3.46068 0
M  V30 7686 C 713.11 1.68305 2.20383 0
M  V30 7687 H 716.061 1.292 0.921572 0
M  V30 7688 H 716.082 1.11794 3.63707 0
M  V30 7689 H 715.594 2.72171 2.76667 0
M  V30 7690 H 713.695 0.439416 3.7 0
M  V30 7691 H 713.808 2.24719 4.23129 0
M  V30 7692 H 712.172 1.10833 2.29321 0
M  V30 7693 H 712.955 2.76057 2.04077 0
M  V30 7694 N 715.4 -1.26948 0.933913 0
M  V30 7695 C 716.347 -2.26635 0.436484 0
M  V30 7696 C 717.317 -1.58397 -0.499953 0
M  V30 7697 O 718.502 -1.86171 -0.417753 0
M  V30 7698 C 715.642 -3.43803 -0.298951 0
M  V30 7699 C 714.755 -4.26736 0.672316 0
M  V30 7700 C 713.89 -5.31134 -0.0835872 0
M  V30 7701 C 712.929 -6.05742 0.879979 0
M  V30 7702 N 712.066 -7.01926 0.156301 0
M  V30 7703 H 716.906 -2.68558 1.29154 0
M  V30 7704 H 714.443 -1.32052 0.648118 0
M  V30 7705 H 716.401 -4.10554 -0.741723 0
M  V30 7706 H 715.031 -3.02814 -1.1182 0
M  V30 7707 H 714.083 -3.59842 1.23361 0
M  V30 7708 H 715.395 -4.78502 1.40846 0
M  V30 7709 H 714.549 -6.03863 -0.585984 0
M  V30 7710 H 713.288 -4.80188 -0.852661 0
M  V30 7711 H 712.293 -5.31846 1.39357 0
M  V30 7712 H 713.518 -6.58777 1.64894 0
M  V30 7713 H 711.464 -6.53301 -0.594413 0
M  V30 7714 H 711.381 -7.51409 0.831906 0
M  V30 7715 H 712.649 -7.78821 -0.325239 0
M  V30 7716 N 716.879 -0.700114 -1.41195 0
M  V30 7717 C 718.125 -0.233351 -2.01453 0
M  V30 7718 C 718.458 1.16548 -1.55339 0
M  V30 7719 O 717.733 1.78756 -0.766575 0
M  V30 7720 C 718.016 -0.2961 -3.58881 0
M  V30 7721 C 717.869 -1.7322 -4.15108 0
M  V30 7722 C 719.188 0.341525 -4.38773 0
M  V30 7723 H 716.307 -0.0862667 -0.731934 0
M  V30 7724 H 718.949 -0.889693 -1.67882 0
M  V30 7725 H 717.099 0.262736 -3.87611 0
M  V30 7726 H 718.771 -2.34523 -3.97236 0
M  V30 7727 H 717.014 -2.2649 -3.69979 0
M  V30 7728 H 717.685 -1.7276 -5.24269 0
M  V30 7729 H 720.161 -0.134461 -4.15883 0
M  V30 7730 H 719.037 0.267098 -5.4825 0
M  V30 7731 H 719.298 1.42289 -4.18577 0
M  V30 7732 N 718.357 1.51182 -0.445186 0
M  V30 7733 C 719.773 1.59299 -0.0978954 0
M  V30 7734 C 719.973 1.4555 1.39346 0
M  V30 7735 O 719.029 1.30073 2.16419 0
M  V30 7736 C 720.342 2.94133 -0.625005 0
M  V30 7737 C 721.89 3.07463 -0.586137 0
M  V30 7738 C 722.365 4.44832 -1.09035 0
M  V30 7739 N 723.856 4.51173 -1.04867 0
M  V30 7740 C 724.591 5.55804 -1.40959 0
M  V30 7741 N 724.087 6.67816 -1.84375 0
M  V30 7742 N 725.88 5.46205 -1.32726 0
M  V30 7743 H 718.031 1.58363 -1.41544 0
M  V30 7744 H 720.294 0.746946 -0.58376 0
M  V30 7745 H 720 3.09589 -1.66876 0
M  V30 7746 H 719.874 3.77161 -0.0542262 0
M  V30 7747 H 722.261 2.9167 0.448646 0
M  V30 7748 H 722.342 2.26255 -1.19341 0
M  V30 7749 H 721.986 4.61372 -2.12364 0
M  V30 7750 H 721.916 5.24591 -0.459539 0
M  V30 7751 H 724.407 3.70783 -0.729932 0
M  V30 7752 H 724.72 7.43683 -2.10131 0
M  V30 7753 H 723.065 6.69003 -1.88308 0
M  V30 7754 H 726.256 4.57583 -0.986678 0
M  V30 7755 H 726.429 6.27634 -1.61182 0
M  V30 7756 N 719.835 0.176821 1.56605 0
M  V30 7757 C 720.745 -0.763682 2.21822 0
M  V30 7758 C 721.761 -1.24889 1.21156 0
M  V30 7759 O 722.937 -1.29987 1.53836 0
M  V30 7760 C 720.002 -1.97352 2.8505 0
M  V30 7761 C 719.063 -1.53466 4.00932 0
M  V30 7762 C 718.296 -2.68682 4.61135 0
M  V30 7763 O 718.519 -3.85694 4.20234 0
M  V30 7764 O 717.453 -2.42442 5.50913 0
M  V30 7765 H 721.279 -0.238363 3.02763 0
M  V30 7766 H 718.864 -0.0516331 1.49311 0
M  V30 7767 H 720.746 -2.68096 3.25119 0
M  V30 7768 H 719.421 -2.48779 2.07101 0
M  V30 7769 H 718.328 -0.796551 3.65521 0
M  V30 7770 H 719.661 -1.06724 4.8049 0
M  V30 7771 N 721.313 -1.57302 -0.09688 0
M  V30 7772 C 722.559 -1.87144 -0.796778 0
M  V30 7773 C 722.914 -0.767428 -1.76432 0
M  V30 7774 O 722.207 0.230728 -1.90206 0
M  V30 7775 C 722.401 -3.21272 -1.56586 0
M  V30 7776 C 722.23 -4.44616 -0.674295 0
M  V30 7777 C 721 -5.04281 -0.320705 0
M  V30 7778 C 723.198 -5.14297 0.0179445 0
M  V30 7779 N 721.18 -6.11162 0.579206 0
M  V30 7780 C 722.551 -6.15125 0.775992 0
M  V30 7781 C 724.606 -4.97815 0.0920521 0
M  V30 7782 C 723.309 -7.01251 1.60122 0
M  V30 7783 C 725.335 -5.84447 0.904175 0
M  V30 7784 C 724.697 -6.84794 1.65035 0
M  V30 7785 H 720.796 -0.734721 -0.267787 0
M  V30 7786 H 723.38 -1.94609 -0.0593955 0
M  V30 7787 H 721.551 -3.14862 -2.27413 0
M  V30 7788 H 723.283 -3.38846 -2.21281 0
M  V30 7789 H 720.038 -4.68866 -0.667961 0
M  V30 7790 H 720.462 -6.69247 1.02166 0
M  V30 7791 H 725.104 -4.20174 -0.470492 0
M  V30 7792 H 722.822 -7.78284 2.17484 0
M  V30 7793 H 726.408 -5.73755 0.964165 0
M  V30 7794 H 725.288 -7.50668 2.26864 0
M  V30 7795 N 722.791 0.367657 -1.53252 0
M  V30 7796 C 724.021 1.12955 -1.72988 0
M  V30 7797 C 724.429 1.8358 -0.457708 0
M  V30 7798 O 723.772 1.74336 0.579006 0
M  V30 7799 C 723.834 2.20545 -2.83902 0
M  V30 7800 C 723.498 1.69704 -4.24323 0
M  V30 7801 C 724.495 1.16223 -5.06743 0
M  V30 7802 C 722.18 1.7528 -4.70725 0
M  V30 7803 C 724.174 0.689935 -6.33655 0
M  V30 7804 C 721.861 1.27662 -5.97617 0
M  V30 7805 C 722.859 0.746083 -6.78913 0
M  V30 7806 O 722.547 0.276925 -8.03423 0
M  V30 7807 H 722.279 0.343753 -0.582074 0
M  V30 7808 H 724.833 0.433106 -2.00782 0
M  V30 7809 H 723.063 2.93676 -2.51577 0
M  V30 7810 H 724.752 2.82111 -2.91836 0
M  V30 7811 H 725.518 1.11256 -4.72067 0
M  V30 7812 H 721.397 2.15515 -4.07522 0
M  V30 7813 H 724.941 0.275164 -6.97057 0
M  V30 7814 H 720.838 1.32322 -6.31792 0
M  V30 7815 H 721.606 0.396445 -8.17539 0
M  V30 7816 N 724.269 1.44576 0.627338 0
M  V30 7817 C 725.494 1.51271 1.41887 0
M  V30 7818 C 725.919 0.139814 1.8758 0
M  V30 7819 O 725.277 -0.871746 1.58966 0
M  V30 7820 C 725.325 2.48529 2.61277 0
M  V30 7821 O 724.429 1.98944 3.61241 0
M  V30 7822 H 723.77 0.510668 0.424399 0
M  V30 7823 H 726.3 1.89746 0.765356 0
M  V30 7824 H 726.31 2.66689 3.08773 0
M  V30 7825 H 724.985 3.48249 2.27366 0
M  V30 7826 H 723.562 1.90568 3.20528 0
M  V30 7827 N 725.747 -0.868086 1.31537 0
M  V30 7828 C 726.972 -1.65926 1.24432 0
M  V30 7829 C 727.397 -1.87169 -0.186936 0
M  V30 7830 O 726.755 -1.4148 -1.13371 0
M  V30 7831 C 726.803 -3.00347 1.9956 0
M  V30 7832 O 725.907 -3.90221 1.33422 0
M  V30 7833 H 725.248 -0.506375 0.429512 0
M  V30 7834 H 727.778 -1.0822 1.73637 0
M  V30 7835 H 727.788 -3.50269 2.09226 0
M  V30 7836 H 726.463 -2.84205 3.03645 0
M  V30 7837 H 725.04 -3.48672 1.32219 0
M  V30 7838 N 727.225 -1.14528 -1.08264 0
M  V30 7839 C 728.155 -0.856356 -2.1723 0
M  V30 7840 C 729.136 0.189251 -1.69044 0
M  V30 7841 O 730.321 0.0456119 -1.94146 0
M  V30 7842 C 727.451 -0.334662 -3.45684 0
M  V30 7843 C 726.405 -1.31588 -4.0727 0
M  V30 7844 C 725.731 -0.653428 -5.30692 0
M  V30 7845 C 727.031 -2.67866 -4.48381 0
M  V30 7846 H 728.725 -1.76755 -2.41657 0
M  V30 7847 H 726.271 -0.851287 -1.16143 0
M  V30 7848 H 728.224 -0.120128 -4.21229 0
M  V30 7849 H 726.948 0.611967 -3.20815 0
M  V30 7850 H 725.607 -1.51661 -3.33758 0
M  V30 7851 H 725.255 0.299054 -5.0211 0
M  V30 7852 H 724.955 -1.30817 -5.72853 0
M  V30 7853 H 726.479 -0.448453 -6.08951 0
M  V30 7854 H 727.893 -2.51692 -5.15096 0
M  V30 7855 H 726.29 -3.29627 -5.01464 0
M  V30 7856 H 727.36 -3.24632 -3.60198 0
M  V30 7857 N 728.703 1.26451 -0.940633 0
M  V30 7858 C 729.95 1.93778 -0.587909 0
M  V30 7859 C 730.278 1.73811 0.872935 0
M  V30 7860 O 729.533 1.06816 1.63978 0
M  V30 7861 C 729.832 3.46503 -0.875794 0
M  V30 7862 C 729.498 3.86609 -2.32043 0
M  V30 7863 C 728.16 3.97269 -2.71534 0
M  V30 7864 C 730.512 4.0672 -3.25927 0
M  V30 7865 C 727.84 4.25436 -4.04006 0
M  V30 7866 C 730.192 4.36375 -4.57995 0
M  V30 7867 C 728.856 4.45249 -4.97302 0
M  V30 7868 H 728.126 0.709084 -0.215131 0
M  V30 7869 H 730.773 1.50272 -1.18704 0
M  V30 7870 H 729.078 3.91319 -0.194124 0
M  V30 7871 H 730.775 3.96759 -0.581665 0
M  V30 7872 H 727.365 3.78858 -2.00411 0
M  V30 7873 H 731.549 3.97912 -2.96614 0
M  V30 7874 H 726.805 4.30519 -4.34124 0
M  V30 7875 H 730.979 4.50882 -5.30734 0
M  V30 7876 H 728.606 4.66829 -5.99979 0
M  V30 7877 N 730.181 0.707592 1.40822 0
M  V30 7878 C 731.144 0.0587224 2.29125 0
M  V30 7879 C 732.144 -0.695624 1.44975 0
M  V30 7880 O 733.334 -0.528718 1.65983 0
M  V30 7881 C 730.466 -0.926939 3.28056 0
M  V30 7882 H 731.659 0.836349 2.88002 0
M  V30 7883 H 729.212 0.471778 1.4901 0
M  V30 7884 H 729.947 -1.7319 2.74182 0
M  V30 7885 H 729.732 -0.389015 3.90165 0
M  V30 7886 H 731.222 -1.37837 3.94196 0
M  V30 7887 N 731.66 -1.50943 0.453197 0
M  V30 7888 C 732.907 -2.02212 -0.107922 0
M  V30 7889 C 733.235 -1.33639 -1.41318 0
M  V30 7890 O 732.49 -0.445154 -1.9057 0
M  V30 7891 C 732.789 -3.55603 -0.357944 0
M  V30 7892 C 732.455 -4.42556 0.863427 0
M  V30 7893 C 731.117 -4.6604 1.19834 0
M  V30 7894 C 733.469 -4.93468 1.67747 0
M  V30 7895 C 730.797 -5.37681 2.34768 0
M  V30 7896 C 733.149 -5.6637 2.81793 0
M  V30 7897 C 731.813 -5.88113 3.1572 0
M  V30 7898 H 731.083 -0.739947 -0.0394916 0
M  V30 7899 H 733.73 -1.81738 0.60363 0
M  V30 7900 H 732.035 -3.74495 -1.15156 0
M  V30 7901 H 733.732 -3.92821 -0.805781 0
M  V30 7902 H 730.322 -4.24485 0.592478 0
M  V30 7903 H 734.506 -4.75194 1.43192 0
M  V30 7904 H 729.762 -5.52727 2.61348 0
M  V30 7905 H 733.936 -6.04806 3.45229 0
M  V30 7906 H 731.563 -6.43404 4.04889 0
M  V30 7907 N 733.138 -0.185124 -1.56509 0
M  V30 7908 C 734.549 0.329221 -1.83774 0
M  V30 7909 C 734.9 1.62093 -1.10545 0
M  V30 7910 O 734.025 2.13334 -0.36298 0
M  V30 7911 C 734.62 0.604099 -3.33371 0
M  V30 7912 C 733.179 1.06284 -3.61083 0
M  V30 7913 C 732.326 0.10608 -2.77097 0
M  V30 7914 H 735.277 -0.409116 -1.53336 0
M  V30 7915 H 735.298 1.45458 -3.51599 0
M  V30 7916 H 734.81 -0.336201 -3.86641 0
M  V30 7917 H 732.911 2.01777 -3.13236 0
M  V30 7918 H 733.024 0.962453 -4.69333 0
M  V30 7919 H 731.388 0.606082 -2.47384 0
M  V30 7920 H 732.171 -0.828486 -3.33153 0
M  V30 7921 N 734.616 1.57351 0.0885366 0
M  V30 7922 C 735.862 1.86696 0.791996 0
M  V30 7923 C 736.195 0.775148 1.78059 0
M  V30 7924 O 735.47 -0.216247 1.93294 0
M  V30 7925 C 735.753 3.26684 1.51491 0
M  V30 7926 C 735.606 4.465 0.543858 0
M  V30 7927 C 736.925 3.64664 2.46391 0
M  V30 7928 H 734.044 0.679049 0.286463 0
M  V30 7929 H 736.686 1.89919 0.0554866 0
M  V30 7930 H 734.836 3.24067 2.14273 0
M  V30 7931 H 736.508 4.61235 -0.0774597 0
M  V30 7932 H 734.751 4.33567 -0.142228 0
M  V30 7933 H 735.422 5.41192 1.08696 0
M  V30 7934 H 737.898 3.68267 1.93698 0
M  V30 7935 H 736.774 4.63534 2.93986 0
M  V30 7936 H 737.035 2.93698 3.30445 0
M  V30 7937 N 736.094 -0.359525 1.53444 0
M  V30 7938 C 737.324 -1.12036 1.73585 0
M  V30 7939 C 737.732 -1.83335 0.467438 0
M  V30 7940 O 737.075 -1.74641 -0.569753 0
M  V30 7941 C 737.137 -2.19036 2.85068 0
M  V30 7942 C 736.801 -1.67451 4.25217 0
M  V30 7943 C 737.798 -1.13534 5.07352 0
M  V30 7944 C 735.483 -1.72781 4.71648 0
M  V30 7945 C 737.477 -0.656321 6.34012 0
M  V30 7946 C 735.164 -1.2449 5.98285 0
M  V30 7947 C 736.162 -0.710068 6.79299 0
M  V30 7948 O 735.85 -0.234314 8.03558 0
M  V30 7949 H 735.582 -0.340662 0.583888 0
M  V30 7950 H 738.136 -0.422452 2.01009 0
M  V30 7951 H 736.366 -2.92338 2.53131 0
M  V30 7952 H 738.055 -2.80559 2.93328 0
M  V30 7953 H 738.821 -1.08751 4.7265 0
M  V30 7954 H 734.7 -2.13351 4.08659 0
M  V30 7955 H 738.244 -0.238193 6.97193 0
M  V30 7956 H 734.141 -1.28969 6.32485 0
M  V30 7957 H 734.909 -0.353084 8.17738 0
M  V30 7958 N 737.572 -1.44907 -0.619662 0
M  V30 7959 C 738.504 -1.48652 -1.74457 0
M  V30 7960 C 739.517 -0.378596 -1.58337 0
M  V30 7961 O 740.706 -0.644987 -1.6644 0
M  V30 7962 C 737.806 -1.31568 -3.12319 0
M  V30 7963 C 736.979 -2.55816 -3.54792 0
M  V30 7964 C 736.038 -2.33465 -4.71573 0
M  V30 7965 O 735.064 -3.07015 -4.79302 0
M  V30 7966 N 736.266 -1.37254 -5.6404 0
M  V30 7967 H 739.031 -2.45632 -1.71712 0
M  V30 7968 H 736.592 -1.40492 -0.804582 0
M  V30 7969 H 738.584 -1.14445 -3.88181 0
M  V30 7970 H 737.154 -0.429095 -3.09641 0
M  V30 7971 H 736.374 -2.88137 -2.69018 0
M  V30 7972 H 737.662 -3.38431 -3.79924 0
M  V30 7973 H 737.06 -0.765309 -5.60499 0
M  V30 7974 H 735.617 -1.26106 -6.39485 0
M  V30 7975 N 739.05 0.861098 -1.31996 0
M  V30 7976 C 740.298 1.61162 -1.21947 0
M  V30 7977 C 740.619 1.93751 0.220351 0
M  V30 7978 O 739.889 1.59069 1.14341 0
M  V30 7979 H 738.469 0.597485 -0.448353 0
M  V30 7980 H 741.131 1.03039 -1.65436 0
M  V30 7981 H 740.227 2.55138 -1.79752 0
M  V30 7982 N 740.528 1.15101 1.07655 0
M  V30 7983 C 741.753 0.948177 1.84457 0
M  V30 7984 C 742.178 -0.498432 1.81376 0
M  V30 7985 O 741.536 -1.35509 1.20445 0
M  V30 7986 C 741.584 1.46318 3.29581 0
M  V30 7987 O 740.688 0.660342 4.07079 0
M  V30 7988 H 740.029 0.338428 0.571281 0
M  V30 7989 H 742.559 1.5301 1.35828 0
M  V30 7990 H 742.569 1.47468 3.80417 0
M  V30 7991 H 741.244 2.51635 3.31138 0
M  V30 7992 H 739.821 0.718216 3.65918 0
M  V30 7993 N 742.006 -1.2595 0.947325 0
M  V30 7994 C 743.234 -1.97544 0.615127 0
M  V30 7995 C 743.649 -1.70484 -0.811221 0
M  V30 7996 O 743.006 -0.97662 -1.5417 0
M  V30 7997 C 743.057 -3.51236 0.855328 0
M  V30 7998 O 742.778 -3.77359 2.22558 0
M  V30 7999 C 744.279 -4.40066 0.534515 0
M  V30 8000 H 741.499 -0.629888 0.231263 0
M  V30 8001 H 744.043 -1.60308 1.26971 0
M  V30 8002 H 742.198 -3.8661 0.247266 0
M  V30 8003 H 742.612 -4.71857 2.29022 0
M  V30 8004 H 744.086 -5.46838 0.753168 0
M  V30 8005 H 744.563 -4.35982 -0.530701 0
M  V30 8006 H 745.169 -4.10245 1.12158 0
M  V30 8007 N 743.484 -0.715051 -1.40445 0
M  V30 8008 C 744.761 -0.181503 -1.94756 0
M  V30 8009 C 745.141 1.31268 -1.65324 0
M  V30 8010 O 744.489 2.0686 -0.970631 0
M  V30 8011 C 744.699 -0.493663 -3.45491 0
M  V30 8012 C 746.047 -0.432032 -4.22396 0
M  V30 8013 O 747.071 -0.429692 -3.53599 0
M  V30 8014 O 745.93 -0.409091 -5.44967 0
M  V30 8015 H 743.024 -0.0263989 -0.826579 0
M  V30 8016 H 745.57 -0.792546 -1.50056 0
M  V30 8017 H 744.342 -1.52713 -3.6027 0
M  V30 8018 H 743.965 0.14737 -3.97327 0
M  V30 8019 N 744.962 1.50701 -0.461195 0
M  V30 8020 C 746.211 2.01458 0.0988277 0
M  V30 8021 C 746.524 1.34863 1.41673 0
M  V30 8022 O 747.73 1.76721 2.06111 0
M  V30 8023 C 746.186 3.59186 0.226648 0
M  V30 8024 C 745.794 4.34732 -1.08223 0
M  V30 8025 C 747.538 4.18015 0.73916 0
M  V30 8026 C 745.445 5.8422 -0.918747 0
M  V30 8027 H 744.375 0.7529 0.040709 0
M  V30 8028 H 747.026 1.736 -0.594589 0
M  V30 8029 H 745.408 3.83589 0.983621 0
M  V30 8030 H 746.582 4.22059 -1.84939 0
M  V30 8031 H 744.897 3.87466 -1.52509 0
M  V30 8032 H 747.494 5.27436 0.878347 0
M  V30 8033 H 747.837 3.78746 1.72793 0
M  V30 8034 H 748.37 3.9778 0.0398469 0
M  V30 8035 H 745.109 6.27944 -1.88059 0
M  V30 8036 H 744.629 5.99493 -0.191801 0
M  V30 8037 H 746.308 6.44382 -0.581405 0
M  V30 8038 N 746.441 0.193421 1.56409 0
M  V30 8039 C 747.371 -0.723334 2.22014 0
M  V30 8040 C 748.352 -1.22254 1.1827 0
M  V30 8041 O 749.537 -1.27168 1.46771 0
M  V30 8042 C 746.667 -1.94366 2.87818 0
M  V30 8043 C 745.621 -1.57943 3.97791 0
M  V30 8044 C 744.947 -2.87623 4.50752 0
M  V30 8045 C 746.247 -0.790639 5.16281 0
M  V30 8046 H 747.941 -0.176426 2.9888 0
M  V30 8047 H 745.487 -0.0834166 1.43758 0
M  V30 8048 H 747.44 -2.5902 3.32396 0
M  V30 8049 H 746.164 -2.51507 2.08355 0
M  V30 8050 H 744.823 -0.956482 3.53903 0
M  V30 8051 H 744.471 -3.4285 3.68053 0
M  V30 8052 H 744.171 -2.63998 5.24956 0
M  V30 8053 H 745.695 -3.53268 4.9803 0
M  V30 8054 H 747.109 -1.34024 5.57414 0
M  V30 8055 H 745.506 -0.65258 5.96541 0
M  V30 8056 H 746.576 0.208633 4.84451 0
M  V30 8057 N 747.919 -1.57396 -0.0801906 0
M  V30 8058 C 749.166 -1.86836 -0.780927 0
M  V30 8059 C 749.494 -0.784012 -1.77999 0
M  V30 8060 O 748.749 0.220881 -1.94449 0
M  V30 8061 C 749.048 -3.22915 -1.53169 0
M  V30 8062 C 748.714 -4.45843 -0.67339 0
M  V30 8063 C 747.376 -4.79213 -0.436829 0
M  V30 8064 C 749.728 -5.21142 -0.0776786 0
M  V30 8065 C 747.056 -5.853 0.405062 0
M  V30 8066 C 749.408 -6.28119 0.751619 0
M  V30 8067 C 748.072 -6.59995 0.998131 0
M  V30 8068 H 747.342 -0.683682 -0.285761 0
M  V30 8069 H 749.989 -1.91454 -0.0419435 0
M  V30 8070 H 748.294 -3.14049 -2.34265 0
M  V30 8071 H 749.991 -3.42926 -2.07853 0
M  V30 8072 H 746.581 -4.19721 -0.867891 0
M  V30 8073 H 750.765 -4.95682 -0.247572 0
M  V30 8074 H 746.021 -6.084 0.60488 0
M  V30 8075 H 750.195 -6.8563 1.22 0
M  V30 8076 H 747.822 -7.42027 1.65227 0
M  V30 8077 N 749.397 0.351382 -1.53633 0
M  V30 8078 C 750.327 1.43688 -1.84055 0
M  V30 8079 C 751.308 1.55251 -0.695073 0
M  V30 8080 O 752.493 1.69587 -0.946257 0
M  V30 8081 C 749.623 2.80843 -2.04315 0
M  V30 8082 C 748.577 2.84094 -3.20117 0
M  V30 8083 C 747.903 4.2406 -3.25696 0
M  V30 8084 C 749.203 2.50334 -4.58399 0
M  V30 8085 H 750.897 1.18478 -2.74961 0
M  V30 8086 H 748.443 0.568509 -1.32303 0
M  V30 8087 H 750.396 3.56821 -2.2418 0
M  V30 8088 H 749.12 3.07471 -1.10132 0
M  V30 8089 H 747.779 2.10568 -3.00094 0
M  V30 8090 H 747.427 4.47785 -2.29123 0
M  V30 8091 H 747.127 4.27147 -4.03509 0
M  V30 8092 H 748.651 5.0189 -3.47762 0
M  V30 8093 H 750.065 3.16025 -4.78332 0
M  V30 8094 H 748.462 2.64717 -5.38558 0
M  V30 8095 H 749.532 1.45542 -4.62543 0
M  V30 8096 N 750.875 1.45233 0.611969 0
M  V30 8097 C 752.121 1.50233 1.37119 0
M  V30 8098 C 752.476 0.140336 1.91888 0
M  V30 8099 O 751.769 -0.847161 1.71854 0
M  V30 8100 C 751.963 2.51353 2.54079 0
M  V30 8101 C 751.792 3.97251 2.10764 0
M  V30 8102 C 750.562 4.65256 1.97141 0
M  V30 8103 C 752.76 4.85914 1.68499 0
M  V30 8104 N 750.742 5.95895 1.4759 0
M  V30 8105 C 752.113 6.06147 1.30331 0
M  V30 8106 C 754.168 4.72813 1.56051 0
M  V30 8107 C 752.871 7.14729 0.809591 0
M  V30 8108 C 754.897 5.8144 1.08083 0
M  V30 8109 C 754.259 7.00825 0.708775 0
M  V30 8110 H 750.358 0.604708 0.495835 0
M  V30 8111 H 752.942 1.81679 0.700055 0
M  V30 8112 H 751.113 2.21866 3.18795 0
M  V30 8113 H 752.845 2.46528 3.20945 0
M  V30 8114 H 749.6 4.20345 2.18191 0
M  V30 8115 H 750.024 6.65349 1.25059 0
M  V30 8116 H 754.666 3.80931 1.83443 0
M  V30 8117 H 752.384 8.06404 0.523215 0
M  V30 8118 H 755.97 5.73335 0.988842 0
M  V30 8119 H 754.85 7.83448 0.343305 0
M  V30 8120 N 752.353 -0.854086 1.3245 0
M  V30 8121 C 753.301 -1.98411 1.21391 0
M  V30 8122 C 754.295 -1.68984 0.118586 0
M  V30 8123 O 755.501 -1.77784 0.281549 0
M  V30 8124 H 751.876 -0.651077 0.376301 0
M  V30 8125 H 753.847 -2.04867 2.16961 0
M  V30 8126 C 752.596 -3.34345 0.954407 0
M  V30 8127 H 751.919 -3.57518 1.78944 0
M  V30 8128 H 753.359 -4.13959 0.917269 0
M  V30 8129 C 751.818 -3.35151 -0.342838 0
M  V30 8130 O 752.348 -3.78174 -1.35452 0
M  V30 8131 N 750.554 -2.88298 -0.365012 0
M  V30 8132 H 750.101 -2.53481 0.4588 0
M  V30 8133 H 750.059 -2.8922 -1.23284 0
M  V30 8134 N 753.831 -1.1567 -1.07043 0
M  V30 8135 C 755.108 -0.843948 -1.76456 0
M  V30 8136 C 755.488 0.659806 -2.00524 0
M  V30 8137 O 754.836 1.60518 -1.62623 0
M  V30 8138 C 755.046 -1.65822 -3.0709 0
M  V30 8139 C 756.394 -1.8664 -3.8138 0
M  V30 8140 O 757.418 -1.62624 -3.1691 0
M  V30 8141 O 756.277 -2.26884 -4.97178 0
M  V30 8142 H 753.371 -0.310677 -0.766426 0
M  V30 8143 H 755.917 -1.26266 -1.1338 0
M  V30 8144 H 754.689 -2.67902 -2.85209 0
M  V30 8145 H 754.312 -1.23605 -3.77899 0
M  V30 8146 N 755.309 1.25446 -0.953992 0
M  V30 8147 C 756.242 2.24341 -0.417912 0
M  V30 8148 C 757.22 1.54709 0.5004 0
M  V30 8149 O 758.404 1.83414 0.434923 0
M  V30 8150 C 755.531 3.36352 0.398155 0
M  V30 8151 C 754.577 4.24007 -0.460461 0
M  V30 8152 S 755.41 5.00951 -1.89231 0
M  V30 8153 C 756.566 6.1643 -1.08465 0
M  V30 8154 H 756.799 2.69465 -1.25602 0
M  V30 8155 H 754.332 1.34512 -0.758018 0
M  V30 8156 H 756.29 4.01325 0.863059 0
M  V30 8157 H 754.951 2.89813 1.21108 0
M  V30 8158 H 754.144 5.03728 0.165415 0
M  V30 8159 H 753.746 3.63965 -0.860549 0
M  V30 8160 H 756.038 6.76681 -0.333017 0
M  V30 8161 H 756.981 6.8335 -1.85577 0
M  V30 8162 H 757.389 5.61139 -0.615062 0
M  V30 8163 N 756.787 0.722489 1.40064 0
M  V30 8164 C 757.735 0.063329 2.32514 0
M  V30 8165 C 758.729 -0.73953 1.52405 0
M  V30 8166 O 759.935 -0.642122 1.68157 0
M  V30 8167 H 756.31 0.00167692 0.751998 0
M  V30 8168 H 758.281 0.859656 2.85749 0
M  V30 8169 C 757.03 -0.839219 3.3742 0
M  V30 8170 H 756.353 -0.230836 3.99133 0
M  V30 8171 H 757.793 -1.26827 4.04587 0
M  V30 8172 C 756.252 -1.96783 2.73456 0
M  V30 8173 O 756.782 -3.05933 2.60323 0
M  V30 8174 N 754.988 -1.75351 2.31734 0
M  V30 8175 H 754.535 -0.865787 2.42615 0
M  V30 8176 H 754.493 -2.51043 1.89275 0
M  V30 8177 N 758.265 -1.50454 0.469181 0
M  V30 8178 C 759.175 -2.32248 -0.331349 0
M  V30 8179 C 760.191 -1.42548 -0.997807 0
M  V30 8180 O 761.367 -1.75602 -0.9862 0
M  V30 8181 C 758.432 -3.17171 -1.40012 0
M  V30 8182 C 757.493 -4.2269 -0.750463 0
M  V30 8183 C 756.726 -5.03554 -1.76831 0
M  V30 8184 O 756.949 -4.85469 -2.99459 0
M  V30 8185 O 755.883 -5.86767 -1.3412 0
M  V30 8186 H 759.709 -3.01821 0.337279 0
M  V30 8187 H 757.294 -1.47602 0.231066 0
M  V30 8188 H 759.176 -3.69871 -2.01924 0
M  V30 8189 H 757.851 -2.50328 -2.05226 0
M  V30 8190 H 756.758 -3.73986 -0.0924446 0
M  V30 8191 H 758.091 -4.91997 -0.14131 0
M  V30 8192 N 759.743 -0.201713 -1.56304 0
M  V30 8193 C 761.154 0.309711 -1.84113 0
M  V30 8194 C 761.505 1.60912 -1.12258 0
M  V30 8195 O 760.63 2.12937 -0.385587 0
M  V30 8196 C 761.225 0.568706 -3.33993 0
M  V30 8197 C 759.784 1.02448 -3.6219 0
M  V30 8198 C 758.931 0.0766842 -2.77194 0
M  V30 8199 H 761.882 -0.425356 -1.52893 0
M  V30 8200 H 761.903 1.41721 -3.53122 0
M  V30 8201 H 761.415 -0.37719 -3.86263 0
M  V30 8202 H 759.516 1.98443 -3.15359 0
M  V30 8203 H 759.629 0.912619 -4.70328 0
M  V30 8204 H 757.993 0.579809 -2.48013 0
M  V30 8205 H 758.776 -0.863774 -3.32256 0
M  V30 8206 N 761.222 1.57436 0.0718424 0
M  V30 8207 C 762.447 1.91858 0.787745 0
M  V30 8208 C 762.872 0.798119 1.70328 0
M  V30 8209 O 762.23 -0.24905 1.79581 0
M  V30 8210 C 762.278 3.25232 1.55744 0
M  V30 8211 O 761.382 3.14462 2.6681 0
M  V30 8212 H 760.723 0.628258 0.214914 0
M  V30 8213 H 763.253 2.04561 0.0401012 0
M  V30 8214 H 763.263 3.59105 1.9367 0
M  V30 8215 H 761.938 4.0636 0.885691 0
M  V30 8216 H 760.515 2.92148 2.31741 0
M  V30 8217 N 762.7 -0.34323 1.53817 0
M  V30 8218 C 763.946 -1.08504 1.71332 0
M  V30 8219 C 764.279 -1.88294 0.475285 0
M  V30 8220 O 763.554 -1.87205 -0.527688 0
M  V30 8221 C 763.837 -2.02597 2.97702 0
M  V30 8222 C 763.69 -1.26268 4.31713 0
M  V30 8223 C 765.009 -3.0241 3.19744 0
M  V30 8224 H 762.128 -0.393072 0.623429 0
M  V30 8225 H 764.77 -0.363579 1.86489 0
M  V30 8226 H 762.92 -2.64118 2.8491 0
M  V30 8227 H 764.592 -0.673594 4.56356 0
M  V30 8228 H 762.835 -0.564696 4.30109 0
M  V30 8229 H 763.506 -1.95253 5.16314 0
M  V30 8230 H 765.982 -2.51004 3.31868 0
M  V30 8231 H 764.858 -3.65449 4.09558 0
M  V30 8232 H 765.119 -3.73806 2.36054 0
M  V30 8233 N 764.178 -1.45556 -0.604258 0
M  V30 8234 C 765.425 -1.49746 -1.36317 0
M  V30 8235 C 765.753 -0.140516 -1.93992 0
M  V30 8236 O 765.008 0.861244 -1.7573 0
M  V30 8237 C 765.307 -2.52697 -2.52743 0
M  V30 8238 C 764.973 -3.97315 -2.13195 0
M  V30 8239 C 763.635 -4.36692 -2.02123 0
M  V30 8240 C 765.987 -4.88249 -1.8238 0
M  V30 8241 C 763.315 -5.64895 -1.58463 0
M  V30 8242 C 765.667 -6.16867 -1.40205 0
M  V30 8243 C 764.331 -6.55172 -1.27694 0
M  V30 8244 H 763.601 -0.54796 -0.49882 0
M  V30 8245 H 766.248 -1.7892 -0.682643 0
M  V30 8246 H 764.553 -2.17105 -3.26148 0
M  V30 8247 H 766.25 -2.53176 -3.10971 0
M  V30 8248 H 762.84 -3.66176 -2.22739 0
M  V30 8249 H 767.024 -4.58561 -1.89829 0
M  V30 8250 H 762.28 -5.93365 -1.47402 0
M  V30 8251 H 766.454 -6.86771 -1.15408 0
M  V30 8252 H 764.081 -7.54411 -0.936375 0
M  V30 8253 N 765.656 0.84705 -1.32902 0
M  V30 8254 C 767.072 1.13645 -1.12058 0
M  V30 8255 C 767.272 2.01281 0.093937 0
M  V30 8256 O 766.328 2.4026 0.776608 0
M  V30 8257 C 767.641 1.80644 -2.40392 0
M  V30 8258 C 769.189 1.93246 -2.46221 0
M  V30 8259 C 769.664 2.6366 -3.74496 0
M  V30 8260 N 771.155 2.71179 -3.75521 0
M  V30 8261 C 771.89 3.26332 -4.71482 0
M  V30 8262 N 771.386 3.82236 -5.77813 0
M  V30 8263 N 773.179 3.24507 -4.58968 0
M  V30 8264 H 765.33 0.263612 -2.10758 0
M  V30 8265 H 767.593 0.17944 -0.930863 0
M  V30 8266 H 767.299 1.23708 -3.29225 0
M  V30 8267 H 767.173 2.80736 -2.51926 0
M  V30 8268 H 769.56 2.49338 -1.57843 0
M  V30 8269 H 769.641 0.921272 -2.38634 0
M  V30 8270 H 769.285 2.08229 -4.63253 0
M  V30 8271 H 769.215 3.65234 -3.79357 0
M  V30 8272 H 771.706 2.31527 -2.9867 0
M  V30 8273 H 772.019 4.22499 -6.47082 0
M  V30 8274 H 770.364 3.80546 -5.81558 0
M  V30 8275 H 773.555 2.80085 -3.7506 0
M  V30 8276 H 773.728 3.67188 -5.33926 0
M  V30 8277 N 767.134 1.16236 1.06428 0
M  V30 8278 C 768.382 0.941171 1.78847 0
M  V30 8279 C 768.703 -0.53248 1.87589 0
M  V30 8280 O 767.973 -1.38686 1.38358 0
M  V30 8281 H 766.553 0.345228 0.66244 0
M  V30 8282 H 769.215 1.46479 1.28569 0
M  V30 8283 H 768.311 1.35871 2.80972 0
M  V30 8284 N 768.612 -1.24939 0.960631 0
M  V30 8285 C 770.023 -1.74701 0.658529 0
M  V30 8286 C 770.374 -1.77967 -0.825959 0
M  V30 8287 O 769.499 -1.40444 -1.64634 0
M  V30 8288 C 770.094 -3.17263 1.18867 0
M  V30 8289 C 768.653 -3.64561 0.936614 0
M  V30 8290 C 767.8 -2.43423 1.32817 0
M  V30 8291 H 770.751 -1.10741 1.13676 0
M  V30 8292 H 770.772 -3.76481 0.551589 0
M  V30 8293 H 770.284 -3.14854 2.26912 0
M  V30 8294 H 768.385 -3.72378 -0.128608 0
M  V30 8295 H 768.498 -4.52392 1.57729 0
M  V30 8296 H 766.862 -2.43513 0.746548 0
M  V30 8297 H 767.645 -2.437 2.41796 0
M  V30 8298 N 770.09 -0.729906 -1.39679 0
M  V30 8299 C 771 -0.0880322 -2.34435 0
M  V30 8300 C 772.016 0.727674 -1.58053 0
M  V30 8301 O 773.192 0.657321 -1.90371 0
M  V30 8302 C 770.257 0.812211 -3.37052 0
M  V30 8303 C 769.318 -0.0151681 -4.29297 0
M  V30 8304 C 768.551 0.842202 -5.27013 0
M  V30 8305 O 768.774 2.08108 -5.31081 0
M  V30 8306 O 767.708 0.27357 -6.01278 0
M  V30 8307 H 771.534 -0.869989 -2.90972 0
M  V30 8308 H 769.119 -0.490522 -1.41118 0
M  V30 8309 H 771.001 1.32745 -3.99946 0
M  V30 8310 H 769.676 1.57307 -2.82907 0
M  V30 8311 H 768.583 -0.575811 -3.69642 0
M  V30 8312 H 769.916 -0.738129 -4.86634 0
M  V30 8313 N 771.568 1.50203 -0.477153 0
M  V30 8314 C 772.5 2.26508 0.350239 0
M  V30 8315 C 773.513 1.32081 0.95176 0
M  V30 8316 O 774.702 1.57546 0.839139 0
M  V30 8317 C 771.802 3.0361 1.50579 0
M  V30 8318 C 770.975 4.25438 1.01595 0
M  V30 8319 C 770.034 4.84783 2.04626 0
M  V30 8320 O 769.06 5.45528 1.62442 0
M  V30 8321 N 770.262 4.72318 3.37485 0
M  V30 8322 H 773.027 2.98155 -0.30394 0
M  V30 8323 H 770.588 1.58938 -0.308289 0
M  V30 8324 H 772.58 3.4019 2.1921 0
M  V30 8325 H 771.15 2.34724 2.06455 0
M  V30 8326 H 770.37 3.93894 0.155316 0
M  V30 8327 H 771.658 5.04413 0.666694 0
M  V30 8328 H 771.056 4.24022 3.74462 0
M  V30 8329 H 769.613 5.13149 4.01897 0
M  V30 8330 N 773.046 0.209999 1.56195 0
M  V30 8331 C 774.274 -0.429996 2.02382 0
M  V30 8332 C 774.689 -1.54159 1.08998 0
M  V30 8333 O 774.046 -1.82239 0.0974856 0
M  V30 8334 C 774.097 -0.972433 3.48175 0
M  V30 8335 O 773.818 0.0948231 4.37997 0
M  V30 8336 C 775.319 -1.68683 4.09952 0
M  V30 8337 H 772.539 -0.106475 0.662498 0
M  V30 8338 H 775.083 0.323072 2.01932 0
M  V30 8339 H 773.238 -1.67582 3.49278 0
M  V30 8340 H 773.652 -0.31113 5.23576 0
M  V30 8341 H 775.126 -2.01851 5.13771 0
M  V30 8342 H 775.603 -2.59587 3.54276 0
M  V30 8343 H 776.209 -1.02893 4.12666 0
M  V30 8344 N 774.524 -1.57472 -0.0634922 0
M  V30 8345 C 775.457 -1.99571 -1.10664 0
M  V30 8346 C 776.435 -0.874015 -1.37112 0
M  V30 8347 O 777.619 -1.13702 -1.50347 0
M  V30 8348 C 774.746 -2.3395 -2.44918 0
M  V30 8349 C 773.792 -3.56213 -2.34551 0
M  V30 8350 S 774.625 -5.06727 -1.73169 0
M  V30 8351 C 775.781 -5.44316 -3.08984 0
M  V30 8352 H 776.014 -2.87739 -0.747905 0
M  V30 8353 H 773.547 -1.5198 -0.272316 0
M  V30 8354 H 775.505 -2.54431 -3.22141 0
M  V30 8355 H 774.166 -1.46297 -2.7795 0
M  V30 8356 H 773.359 -3.77812 -3.33578 0
M  V30 8357 H 772.961 -3.35406 -1.65466 0
M  V30 8358 H 775.253 -5.42894 -4.05305 0
M  V30 8359 H 776.196 -6.4502 -2.92156 0
M  V30 8360 H 776.604 -4.71781 -3.09972 0
M  V30 8361 N 776.003 0.335068 -1.53997 0
M  V30 8362 C 776.935 1.4327 -1.78903 0
M  V30 8363 C 777.948 1.48347 -0.670598 0
M  V30 8364 O 779.137 1.51277 -0.947494 0
M  V30 8365 C 776.237 2.81878 -1.88144 0
M  V30 8366 C 775.41 3.00141 -3.18174 0
M  V30 8367 C 774.469 4.19041 -3.18263 0
M  V30 8368 O 773.495 4.12751 -3.9195 0
M  V30 8369 N 774.697 5.28004 -2.41231 0
M  V30 8370 H 777.462 1.22272 -2.73623 0
M  V30 8371 H 775.023 0.524996 -1.53152 0
M  V30 8372 H 777.015 3.59609 -1.85644 0
M  V30 8373 H 775.585 2.9598 -1.00572 0
M  V30 8374 H 774.805 2.09808 -3.33728 0
M  V30 8375 H 776.093 3.0923 -4.04047 0
M  V30 8376 H 775.491 5.35986 -1.8093 0
M  V30 8377 H 774.048 6.04196 -2.44521 0
M  V30 8378 N 777.481 1.45874 0.596531 0
M  V30 8379 C 778.428 1.55389 1.70655 0
M  V30 8380 C 779.398 0.399036 1.61236 0
M  V30 8381 O 780.583 0.61396 1.80652 0
M  V30 8382 C 777.723 1.53705 3.0898 0
M  V30 8383 C 776.836 2.79823 3.29125 0
M  V30 8384 C 775.971 2.69735 4.5762 0
M  V30 8385 C 775.01 3.90856 4.71061 0
M  V30 8386 N 774.147 3.79237 5.90867 0
M  V30 8387 H 778.987 2.50211 1.61859 0
M  V30 8388 H 776.524 1.24146 0.789069 0
M  V30 8389 H 778.482 1.50715 3.89026 0
M  V30 8390 H 777.112 0.624247 3.16706 0
M  V30 8391 H 776.164 2.92852 2.42779 0
M  V30 8392 H 777.476 3.69628 3.34927 0
M  V30 8393 H 776.63 2.64773 5.45875 0
M  V30 8394 H 775.369 1.77547 4.54234 0
M  V30 8395 H 774.374 3.96164 3.81227 0
M  V30 8396 H 775.599 4.84124 4.76236 0
M  V30 8397 H 773.545 2.89825 5.88504 0
M  V30 8398 H 773.462 4.62686 5.97877 0
M  V30 8399 H 774.73 3.78227 6.8159 0
M  V30 8400 N 778.959 -0.83999 1.33349 0
M  V30 8401 C 779.907 -1.97113 1.23488 0
M  V30 8402 C 780.901 -1.68849 0.136503 0
M  V30 8403 O 782.107 -1.77476 0.300389 0
M  V30 8404 H 778.482 -0.647049 0.383185 0
M  V30 8405 H 780.453 -2.02554 2.19122 0
M  V30 8406 C 779.202 -3.33314 0.989815 0
M  V30 8407 H 778.525 -3.556 1.82726 0
M  V30 8408 H 779.965 -4.12963 0.961123 0
M  V30 8409 C 778.424 -3.35496 -0.307272 0
M  V30 8410 O 778.954 -3.79589 -1.31434 0
M  V30 8411 N 777.16 -2.88669 -0.334414 0
M  V30 8412 H 776.707 -2.5298 0.485659 0
M  V30 8413 H 776.665 -2.90512 -1.20209 0
M  V30 8414 N 780.437 -1.16799 -1.0581 0
M  V30 8415 C 781.4 -0.881396 -2.11575 0
M  V30 8416 C 782.4 0.12574 -1.60308 0
M  V30 8417 O 783.59 -0.105716 -1.73879 0
M  V30 8418 C 780.722 -0.319037 -3.39404 0
M  V30 8419 H 781.915 -1.81907 -2.38432 0
M  V30 8420 H 779.468 -0.977597 -1.21954 0
M  V30 8421 H 780.203 0.626082 -3.18199 0
M  V30 8422 H 779.988 -1.04481 -3.77923 0
M  V30 8423 H 781.478 -0.13663 -4.17376 0
M  V30 8424 N 781.915 1.24427 -0.967243 0
M  V30 8425 C 783.164 1.91789 -0.624478 0
M  V30 8426 C 783.477 1.76448 0.844129 0
M  V30 8427 O 784.683 2.38495 1.2974 0
M  V30 8428 C 783.139 3.43743 -1.06626 0
M  V30 8429 C 782.747 3.67771 -2.55829 0
M  V30 8430 C 784.491 4.16958 -0.79662 0
M  V30 8431 C 782.398 5.13293 -2.93742 0
M  V30 8432 H 781.328 0.71811 -0.229856 0
M  V30 8433 H 783.979 1.41081 -1.17339 0
M  V30 8434 H 782.361 3.93484 -0.445663 0
M  V30 8435 H 783.535 3.28631 -3.23015 0
M  V30 8436 H 781.85 3.07841 -2.80398 0
M  V30 8437 H 784.447 5.24171 -1.05589 0
M  V30 8438 H 784.79 4.15442 0.267163 0
M  V30 8439 H 785.323 3.73164 -1.37816 0
M  V30 8440 H 782.062 5.19931 -3.9919 0
M  V30 8441 H 781.582 5.53433 -2.3124 0
M  V30 8442 H 783.261 5.81521 -2.83623 0
M  V30 8443 N 783.393 0.737304 1.3929 0
M  V30 8444 C 784.343 0.0748537 2.27877 0
M  V30 8445 C 785.327 -0.71022 1.44377 0
M  V30 8446 O 786.519 -0.578851 1.67267 0
M  V30 8447 C 783.648 -0.82991 3.33118 0
M  V30 8448 C 782.734 -0.0388619 4.24082 0
M  V30 8449 N 783.125 0.989182 4.96033 0
M  V30 8450 C 781.423 -0.268167 4.45193 0
M  V30 8451 C 782.124 1.46639 5.62914 0
M  V30 8452 N 781.1 0.784581 5.37908 0
M  V30 8453 H 784.902 0.862457 2.80961 0
M  V30 8454 H 782.416 0.571845 1.51999 0
M  V30 8455 H 784.413 -1.31999 3.95452 0
M  V30 8456 H 783.073 -1.61665 2.81593 0
M  V30 8457 H 784.084 1.3706 4.99435 0
M  V30 8458 H 780.761 -1.02953 4.04607 0
M  V30 8459 H 782.151 2.32182 6.30508 0
M  V30 8460 N 784.871 -1.49948 0.485112 0
M  V30 8461 C 785.821 -2.25734 -0.320658 0
M  V30 8462 C 786.805 -1.29907 -0.949373 0
M  V30 8463 O 787.997 -1.54725 -0.859601 0
M  V30 8464 C 785.126 -3.13728 -1.39391 0
M  V30 8465 C 784.212 -4.1701 -0.772225 0
M  V30 8466 N 784.603 -5.05667 0.115782 0
M  V30 8467 C 782.901 -4.33834 -1.03461 0
M  V30 8468 C 783.602 -5.79798 0.47004 0
M  V30 8469 N 782.578 -5.4337 -0.158204 0
M  V30 8470 H 786.38 -2.91647 0.36319 0
M  V30 8471 H 783.894 -1.59602 0.300154 0
M  V30 8472 H 785.891 -3.66639 -1.98447 0
M  V30 8473 H 784.551 -2.49365 -2.0796 0
M  V30 8474 H 785.562 -5.15619 0.485557 0
M  V30 8475 H 782.239 -3.80684 -1.71424 0
M  V30 8476 H 783.629 -6.61177 1.19558 0
M  V30 8477 N 786.349 -0.21828 -1.56081 0
M  V30 8478 C 787.597 0.413488 -1.97825 0
M  V30 8479 C 787.918 1.60527 -1.10707 0
M  V30 8480 O 787.188 1.9504 -0.183378 0
M  V30 8481 H 785.768 0.155757 -0.730581 0
M  V30 8482 H 788.43 -0.310413 -1.92412 0
M  V30 8483 H 787.526 0.742024 -3.03151 0
M  V30 8484 N 787.827 1.57504 0.0551401 0
M  V30 8485 C 788.775 2.05884 1.08233 0
M  V30 8486 C 789.769 0.967383 1.39061 0
M  V30 8487 O 790.975 1.15242 1.38273 0
M  V30 8488 H 787.35 0.656673 0.366449 0
M  V30 8489 H 789.321 2.91273 0.648269 0
M  V30 8490 C 788.07 2.53221 2.38273 0
M  V30 8491 H 787.393 3.36809 2.15406 0
M  V30 8492 H 788.833 2.9081 3.08554 0
M  V30 8493 C 787.292 1.42218 3.05411 0
M  V30 8494 O 787.822 0.773638 3.9418 0
M  V30 8495 N 786.028 1.16316 2.66306 0
M  V30 8496 H 785.575 1.69237 1.94207 0
M  V30 8497 H 785.533 0.422534 3.11548 0
M  V30 8498 N 789.305 -0.326896 1.54172 0
M  V30 8499 C 790.551 -1.06304 1.7341 0
M  V30 8500 C 790.906 -1.85791 0.499935 0
M  V30 8501 O 790.199 -1.84753 -0.507625 0
M  V30 8502 C 790.393 -2.0208 2.94785 0
M  V30 8503 C 790.222 -1.32009 4.29888 0
M  V30 8504 C 788.992 -1.05798 4.941 0
M  V30 8505 C 791.19 -0.737721 5.08982 0
M  V30 8506 N 789.172 -0.324836 6.1304 0
M  V30 8507 C 790.543 -0.136006 6.19851 0
M  V30 8508 C 792.598 -0.640206 4.93767 0
M  V30 8509 C 791.301 0.553757 7.17165 0
M  V30 8510 C 793.327 0.0358492 5.91389 0
M  V30 8511 C 792.689 0.626522 7.01608 0
M  V30 8512 H 788.788 -0.372808 0.687414 0
M  V30 8513 H 791.372 -0.34462 1.91626 0
M  V30 8514 H 789.543 -2.71197 2.78041 0
M  V30 8515 H 791.275 -2.68655 3.02666 0
M  V30 8516 H 788.03 -1.34945 4.53968 0
M  V30 8517 H 788.454 0.0274982 6.76994 0
M  V30 8518 H 793.096 -1.0826 4.08705 0
M  V30 8519 H 790.814 1.00799 8.01789 0
M  V30 8520 H 794.4 0.110895 5.81694 0
M  V30 8521 H 793.28 1.14135 7.7585 0
M  V30 8522 N 790.784 -1.46188 -0.588786 0
M  V30 8523 C 791.694 -1.58865 -1.72624 0
M  V30 8524 C 792.71 -0.472348 -1.67466 0
M  V30 8525 O 793.886 -0.735638 -1.87484 0
M  V30 8526 C 790.951 -1.56989 -3.0912 0
M  V30 8527 C 790.012 -2.79804 -3.25589 0
M  V30 8528 C 789.245 -2.78009 -4.55573 0
M  V30 8529 O 789.468 -1.86406 -5.39082 0
M  V30 8530 O 788.402 -3.6947 -4.75159 0
M  V30 8531 H 792.228 -2.55047 -1.64878 0
M  V30 8532 H 789.813 -1.28912 -0.755115 0
M  V30 8533 H 791.695 -1.58618 -3.90408 0
M  V30 8534 H 790.37 -0.639648 -3.17317 0
M  V30 8535 H 789.277 -2.83732 -2.43818 0
M  V30 8536 H 790.61 -3.72017 -3.22279 0
M  V30 8537 N 792.262 0.832906 -1.33792 0
M  V30 8538 C 793.212 1.93178 -1.21105 0
M  V30 8539 C 794.196 1.60506 -0.112491 0
M  V30 8540 O 795.388 1.73681 -0.341179 0
M  V30 8541 C 792.517 3.29647 -0.958526 0
M  V30 8542 C 791.603 3.68469 -2.0998 0
M  V30 8543 N 791.994 3.78936 -3.35024 0
M  V30 8544 C 790.292 3.98249 -2.00782 0
M  V30 8545 C 790.993 4.12731 -4.09912 0
M  V30 8546 N 789.969 4.25419 -3.38407 0
M  V30 8547 H 793.771 1.99434 -2.15878 0
M  V30 8548 H 791.285 1.02598 -1.25886 0
M  V30 8549 H 793.282 4.08173 -0.848552 0
M  V30 8550 H 791.942 3.24694 -0.019387 0
M  V30 8551 H 792.953 3.62688 -3.69699 0
M  V30 8552 H 789.63 4.01474 -1.14564 0
M  V30 8553 H 791.02 4.28117 -5.17847 0
M  V30 8554 N 793.74 1.17359 1.05189 0
M  V30 8555 C 795.156 0.920861 1.30355 0
M  V30 8556 C 795.356 -0.419993 1.97074 0
M  V30 8557 O 794.412 -1.15696 2.24434 0
M  V30 8558 C 795.725 2.07818 2.1733 0
M  V30 8559 C 797.273 2.1152 2.30712 0
M  V30 8560 C 797.748 3.26637 3.21048 0
M  V30 8561 N 799.239 3.26426 3.28634 0
M  V30 8562 C 799.974 4.12141 3.98657 0
M  V30 8563 N 799.47 5.07966 4.71107 0
M  V30 8564 N 801.263 4.00091 3.94821 0
M  V30 8565 H 793.414 2.03666 0.602821 0
M  V30 8566 H 795.677 0.889294 0.328421 0
M  V30 8567 H 795.383 3.04727 1.75597 0
M  V30 8568 H 795.257 2.02922 3.17966 0
M  V30 8569 H 797.644 1.15196 2.71687 0
M  V30 8570 H 797.725 2.20477 1.29706 0
M  V30 8571 H 797.369 4.23227 2.80788 0
M  V30 8572 H 797.299 3.14917 4.2206 0
M  V30 8573 H 799.79 2.57045 2.77013 0
M  V30 8574 H 800.103 5.69766 5.22099 0
M  V30 8575 H 798.448 5.11936 4.7005 0
M  V30 8576 H 801.639 3.24523 3.37346 0
M  V30 8577 H 801.812 4.6711 4.49123 0
M  V30 8578 N 795.218 -1.23913 0.973828 0
M  V30 8579 C 796.128 -2.28838 0.516735 0
M  V30 8580 C 797.144 -1.68723 -0.425282 0
M  V30 8581 O 798.32 -1.99201 -0.296819 0
M  V30 8582 C 795.385 -3.46233 -0.179914 0
M  V30 8583 C 794.446 -4.21729 0.80269 0
M  V30 8584 C 793.679 -5.33518 0.139191 0
M  V30 8585 O 793.902 -5.60252 -1.07118 0
M  V30 8586 O 792.836 -5.96088 0.834447 0
M  V30 8587 H 796.662 -2.70067 1.38916 0
M  V30 8588 H 794.247 -1.2972 0.74115 0
M  V30 8589 H 796.129 -4.17514 -0.570991 0
M  V30 8590 H 794.804 -3.06969 -1.02721 0
M  V30 8591 H 793.711 -3.52799 1.24434 0
M  V30 8592 H 795.044 -4.64825 1.61859 0
M  V30 8593 N 796.696 -0.74468 -1.38897 0
M  V30 8594 C 797.626 -0.126355 -2.33158 0
M  V30 8595 C 798.607 0.713517 -1.54412 0
M  V30 8596 O 799.792 0.656523 -1.82766 0
M  V30 8597 C 796.922 0.774375 -3.38557 0
M  V30 8598 C 795.876 0.0379214 -4.27983 0
M  V30 8599 C 795.202 1.05631 -5.24162 0
M  V30 8600 C 796.502 -1.12523 -5.10035 0
M  V30 8601 H 798.196 -0.913744 -2.85116 0
M  V30 8602 H 795.742 -0.440847 -1.37086 0
M  V30 8603 H 797.695 1.21655 -4.03458 0
M  V30 8604 H 796.419 1.59399 -2.85061 0
M  V30 8605 H 795.078 -0.384733 -3.64576 0
M  V30 8606 H 794.726 1.86975 -4.66958 0
M  V30 8607 H 794.426 0.568261 -5.84846 0
M  V30 8608 H 795.95 1.49799 -5.9194 0
M  V30 8609 H 797.364 -0.761037 -5.68226 0
M  V30 8610 H 795.761 -1.54355 -5.79909 0
M  V30 8611 H 796.831 -1.94237 -4.44297 0
M  V30 8612 N 798.174 1.49689 -0.493057 0
M  V30 8613 C 799.124 2.25901 0.308682 0
M  V30 8614 C 800.108 1.30408 0.94247 0
M  V30 8615 O 801.3 1.55179 0.851384 0
M  V30 8616 C 798.429 3.14463 1.37725 0
M  V30 8617 C 797.515 4.17414 0.7501 0
M  V30 8618 N 797.906 5.05599 -0.142597 0
M  V30 8619 C 796.204 4.34377 1.01159 0
M  V30 8620 C 796.905 5.7954 -0.500782 0
M  V30 8621 N 795.881 5.43446 0.129386 0
M  V30 8622 H 799.683 2.91451 -0.378652 0
M  V30 8623 H 797.197 1.59441 -0.308614 0
M  V30 8624 H 799.194 3.67687 1.965 0
M  V30 8625 H 797.854 2.50464 2.06635 0
M  V30 8626 H 798.865 5.15354 -0.512894 0
M  V30 8627 H 795.542 3.81588 1.69402 0
M  V30 8628 H 796.932 6.60534 -1.23063 0
M  V30 8629 N 799.652 0.226554 1.55963 0
M  V30 8630 C 800.6 -0.697922 2.21882 0
M  V30 8631 C 801.594 -1.19586 1.19981 0
M  V30 8632 O 802.8 -1.15511 1.38048 0
M  V30 8633 H 799.175 -0.243501 0.711485 0
M  V30 8634 H 801.146 -0.118576 2.98164 0
M  V30 8635 C 799.895 -1.89309 2.91646 0
M  V30 8636 H 799.218 -1.51906 3.69817 0
M  V30 8637 H 800.658 -2.51762 3.41162 0
M  V30 8638 C 799.117 -2.75162 1.94391 0
M  V30 8639 O 799.647 -3.74071 1.46402 0
M  V30 8640 N 797.853 -2.41302 1.61932 0
M  V30 8641 H 797.4 -1.60923 2.01151 0
M  V30 8642 H 797.358 -2.99023 0.971219 0
M  V30 8643 N 801.13 -1.57531 -0.0467866 0
M  V30 8644 C 802.379 -1.87632 -0.740069 0
M  V30 8645 C 802.692 -0.822691 -1.77457 0
M  V30 8646 O 803.898 -1.01235 -2.5192 0
M  V30 8647 C 802.354 -3.32917 -1.36727 0
M  V30 8648 C 801.962 -4.46469 -0.370035 0
M  V30 8649 C 803.706 -3.72189 -2.04146 0
M  V30 8650 C 801.613 -5.82806 -1.00457 0
M  V30 8651 H 800.543 -0.70002 -0.280158 0
M  V30 8652 H 803.194 -1.83499 0.00607151 0
M  V30 8653 H 801.576 -3.31739 -2.16252 0
M  V30 8654 H 802.75 -4.59085 0.397217 0
M  V30 8655 H 801.065 -4.15914 0.201079 0
M  V30 8656 H 803.662 -4.71357 -2.52441 0
M  V30 8657 H 804.005 -3.03268 -2.85192 0
M  V30 8658 H 804.538 -3.75465 -1.3142 0
M  V30 8659 H 801.277 -6.55083 -0.233907 0
M  V30 8660 H 800.797 -5.73944 -1.74209 0
M  V30 8661 H 802.476 -6.28961 -1.51713 0
M  V30 8662 N 802.608 0.318715 -1.54344 0
M  V30 8663 C 803.838 1.07394 -1.76494 0
M  V30 8664 C 804.246 1.82031 -0.515881 0
M  V30 8665 O 803.589 1.7609 0.52325 0
M  V30 8666 C 803.651 2.11401 -2.90775 0
M  V30 8667 C 803.315 1.56118 -4.29507 0
M  V30 8668 C 804.312 1.00043 -5.10184 0
M  V30 8669 C 801.997 1.60215 -4.76063 0
M  V30 8670 C 803.991 0.487993 -6.35529 0
M  V30 8671 C 801.678 1.08584 -6.01376 0
M  V30 8672 C 802.676 0.529714 -6.80943 0
M  V30 8673 O 802.364 0.0211823 -8.03897 0
M  V30 8674 H 802.096 0.325061 -0.592715 0
M  V30 8675 H 804.65 0.36901 -2.02058 0
M  V30 8676 H 802.88 2.85524 -2.60793 0
M  V30 8677 H 804.569 2.72683 -3.00664 0
M  V30 8678 H 805.335 0.961811 -4.75367 0
M  V30 8679 H 801.214 2.02441 -4.14172 0
M  V30 8680 H 804.758 0.0532608 -6.9758 0
M  V30 8681 H 800.655 1.12155 -6.35682 0
M  V30 8682 H 801.423 0.136151 -8.18387 0
M  V30 8683 N 804.086 1.46499 0.581025 0
M  V30 8684 C 805.334 1.51596 1.33653 0
M  V30 8685 C 805.655 0.169859 1.94259 0
M  V30 8686 O 804.925 -0.803776 1.78651 0
M  V30 8687 H 803.505 0.558346 0.496244 0
M  V30 8688 H 806.167 1.8264 0.680338 0
M  V30 8689 H 805.263 2.26956 2.14237 0
M  V30 8690 N 805.565 -0.825799 1.34232 0
M  V30 8691 C 806.812 -1.58185 1.26427 0
M  V30 8692 C 807.14 -1.93786 -0.166533 0
M  V30 8693 O 806.395 -1.59986 -1.12707 0
M  V30 8694 C 806.694 -2.89362 2.09772 0
M  V30 8695 C 806.36 -2.73066 3.58812 0
M  V30 8696 C 805.022 -2.68329 3.99441 0
M  V30 8697 C 807.374 -2.56946 4.53462 0
M  V30 8698 C 804.702 -2.4539 5.32917 0
M  V30 8699 C 807.054 -2.35538 5.87115 0
M  V30 8700 C 805.718 -2.29212 6.26912 0
M  V30 8701 H 804.988 -0.57884 0.462629 0
M  V30 8702 H 807.635 -0.955714 1.65947 0
M  V30 8703 H 805.94 -3.56251 1.63071 0
M  V30 8704 H 807.637 -3.4694 2.01081 0
M  V30 8705 H 804.227 -2.77591 3.26559 0
M  V30 8706 H 808.411 -2.59631 4.22972 0
M  V30 8707 H 803.667 -2.38947 5.62774 0
M  V30 8708 H 807.841 -2.22051 6.6005 0
M  V30 8709 H 805.468 -2.11197 7.30274 0
M  V30 8710 N 807.043 -1.17915 -1.04565 0
M  V30 8711 C 808.273 -0.994716 -1.81077 0
M  V30 8712 C 808.681 0.460146 -1.83519 0
M  V30 8713 O 808.024 1.33136 -1.26572 0
M  V30 8714 C 808.086 -1.46698 -3.28207 0
M  V30 8715 C 807.75 -2.94523 -3.49436 0
M  V30 8716 C 808.747 -3.92414 -3.41038 0
M  V30 8717 C 806.432 -3.32841 -3.76194 0
M  V30 8718 C 808.426 -5.2662 -3.59096 0
M  V30 8719 C 806.113 -4.67212 -3.93899 0
M  V30 8720 C 807.111 -5.6391 -3.8535 0
M  V30 8721 O 806.799 -6.95849 -4.02554 0
M  V30 8722 H 806.531 -0.351797 -0.577248 0
M  V30 8723 H 809.085 -1.56772 -1.32709 0
M  V30 8724 H 807.315 -0.837592 -3.7752 0
M  V30 8725 H 809.004 -1.24724 -3.86263 0
M  V30 8726 H 809.77 -3.64157 -3.20336 0
M  V30 8727 H 805.649 -2.58139 -3.81949 0
M  V30 8728 H 809.193 -6.02082 -3.52339 0
M  V30 8729 H 805.09 -4.95172 -4.14095 0
M  V30 8730 H 805.858 -7.02679 -4.19743 0
M  V30 8731 N 808.521 1.23394 -0.980386 0
M  V30 8732 C 809.471 2.22634 -0.491747 0
M  V30 8733 C 810.455 1.54958 0.433222 0
M  V30 8734 O 811.647 1.75049 0.262078 0
M  V30 8735 C 808.776 3.4269 0.204531 0
M  V30 8736 C 807.862 4.17594 -0.740007 0
M  V30 8737 N 808.253 4.69458 -1.88263 0
M  V30 8738 C 806.551 4.42554 -0.553335 0
M  V30 8739 C 807.252 5.26446 -2.47446 0
M  V30 8740 N 806.228 5.14377 -1.75834 0
M  V30 8741 H 810.03 2.60363 -1.36339 0
M  V30 8742 H 807.544 1.38924 -0.841059 0
M  V30 8743 H 809.541 4.12959 0.571901 0
M  V30 8744 H 808.201 3.06477 1.07246 0
M  V30 8745 H 809.212 4.65803 -2.26381 0
M  V30 8746 H 805.889 4.16629 0.269573 0
M  V30 8747 H 807.279 5.77195 -3.43941 0
M  V30 8748 N 809.999 0.752036 1.385 0
M  V30 8749 C 810.931 0.0835089 2.29048 0
M  V30 8750 C 811.944 -0.685402 1.47669 0
M  V30 8751 O 813.133 -0.526748 1.70551 0
M  V30 8752 C 810.233 -0.905772 3.26572 0
M  V30 8753 C 809.406 -0.194828 4.36966 0
M  V30 8754 C 808.465 -1.09464 5.14688 0
M  V30 8755 O 807.491 -0.565743 5.66381 0
M  V30 8756 N 808.693 -2.42287 5.2752 0
M  V30 8757 H 811.458 0.861142 2.87062 0
M  V30 8758 H 809.019 0.602689 1.50264 0
M  V30 8759 H 811.011 -1.51072 3.75446 0
M  V30 8760 H 809.581 -1.58449 2.69467 0
M  V30 8761 H 808.801 0.590812 3.89747 0
M  V30 8762 H 810.089 0.297189 5.07931 0
M  V30 8763 H 809.487 -2.87715 4.8707 0
M  V30 8764 H 808.044 -2.97836 5.79773 0
M  V30 8765 N 811.477 -1.49425 0.500989 0
M  V30 8766 C 812.41 -2.25887 -0.324087 0
M  V30 8767 C 813.388 -1.30469 -0.970388 0
M  V30 8768 O 814.572 -1.59758 -1.00049 0
M  V30 8769 C 811.699 -3.05787 -1.45643 0
M  V30 8770 C 810.745 -4.16359 -0.924508 0
M  V30 8771 S 811.578 -5.35181 0.184707 0
M  V30 8772 C 812.734 -6.18636 -0.950806 0
M  V30 8773 H 812.967 -2.95519 0.324891 0
M  V30 8774 H 810.5 -1.51723 0.286289 0
M  V30 8775 H 812.458 -3.52405 -2.10525 0
M  V30 8776 H 811.119 -2.35624 -2.07703 0
M  V30 8777 H 810.312 -4.71781 -1.77311 0
M  V30 8778 H 809.914 -3.72331 -0.352907 0
M  V30 8779 H 812.206 -6.51581 -1.85603 0
M  V30 8780 H 813.149 -7.06761 -0.435212 0
M  V30 8781 H 813.557 -5.512 -1.21813 0
M  V30 8782 N 812.955 -0.234822 -1.55841 0
M  V30 8783 C 813.918 0.656378 -2.196 0
M  V30 8784 C 814.918 1.11179 -1.16171 0
M  V30 8785 O 816.108 1.01845 -1.41326 0
M  V30 8786 C 813.24 1.90072 -2.82993 0
M  V30 8787 H 814.433 0.100281 -2.99732 0
M  V30 8788 H 811.986 0.0147613 -1.56293 0
M  V30 8789 H 812.721 2.49836 -2.06767 0
M  V30 8790 H 812.506 1.5825 -3.58747 0
M  V30 8791 H 813.996 2.53538 -3.31826 0
M  V30 8792 N 814.433 1.57553 0.0384317 0
M  V30 8793 C 815.661 1.93093 0.743141 0
M  V30 8794 C 816.076 0.833787 1.69391 0
M  V30 8795 O 815.433 -0.190532 1.81503 0
M  V30 8796 C 815.484 3.28533 1.50826 0
M  V30 8797 O 815.205 4.34032 0.595665 0
M  V30 8798 C 816.706 3.78297 2.31098 0
M  V30 8799 H 813.926 0.637486 0.20941 0
M  V30 8800 H 816.47 2.045 -0.00125154 0
M  V30 8801 H 814.625 3.18552 2.20462 0
M  V30 8802 H 815.039 5.12155 1.13124 0
M  V30 8803 H 816.513 4.75602 2.80191 0
M  V30 8804 H 816.99 3.09008 3.12107 0
M  V30 8805 H 817.596 3.91331 1.66555 0
M  V30 8806 N 815.911 -0.310526 1.54511 0
M  V30 8807 C 816.874 -1.3657 1.84068 0
M  V30 8808 C 817.874 -1.44123 0.713097 0
M  V30 8809 O 819.064 -1.43924 0.981399 0
M  V30 8810 C 816.196 -2.75162 2.01243 0
M  V30 8811 H 817.389 -1.1161 2.78358 0
M  V30 8812 H 814.942 -0.546699 1.46427 0
M  V30 8813 H 815.677 -3.05359 1.09208 0
M  V30 8814 H 815.462 -2.71071 2.83307 0
M  V30 8815 H 816.952 -3.51473 2.25514 0
M  V30 8816 N 817.389 -1.46805 -0.573248 0
M  V30 8817 C 818.299 -1.60687 -1.70929 0
M  V30 8818 C 819.315 -0.490084 -1.66956 0
M  V30 8819 O 820.491 -0.755482 -1.86693 0
M  V30 8820 C 817.556 -1.60259 -3.07438 0
M  V30 8821 C 816.617 -2.83242 -3.22603 0
M  V30 8822 C 815.85 -2.82825 -4.52599 0
M  V30 8823 O 816.073 -1.92113 -5.37074 0
M  V30 8824 O 815.007 -3.74489 -4.71213 0
M  V30 8825 H 818.833 -2.56782 -1.62163 0
M  V30 8826 H 816.418 -1.29706 -0.741399 0
M  V30 8827 H 818.3 -1.6275 -3.88704 0
M  V30 8828 H 816.975 -0.673268 -3.16621 0
M  V30 8829 H 815.882 -2.86302 -2.40794 0
M  V30 8830 H 817.215 -3.75415 -3.18315 0
M  V30 8831 N 818.867 0.818669 -1.34668 0
M  V30 8832 C 820.115 1.57201 -1.27013 0
M  V30 8833 C 820.436 1.94354 0.158599 0
M  V30 8834 O 819.706 1.62626 1.09223 0
M  V30 8835 H 818.286 0.582919 -0.467135 0
M  V30 8836 H 820.948 0.977234 -1.6863 0
M  V30 8837 H 820.044 2.49291 -1.87778 0
M  V30 8838 N 820.346 1.18468 1.03938 0
M  V30 8839 C 821.276 0.936389 2.13902 0
M  V30 8840 C 822.257 -0.126381 1.6963 0
M  V30 8841 O 823.442 0.0264757 1.94182 0
M  V30 8842 C 820.572 0.462729 3.44204 0
M  V30 8843 C 819.526 1.46613 4.02105 0
M  V30 8844 C 818.852 0.84994 5.27902 0
M  V30 8845 C 820.152 2.84323 4.3813 0
M  V30 8846 H 821.846 1.85602 2.3493 0
M  V30 8847 H 819.392 0.893806 1.12903 0
M  V30 8848 H 821.345 0.276382 4.20493 0
M  V30 8849 H 820.069 -0.492477 3.22866 0
M  V30 8850 H 818.728 1.63944 3.27899 0
M  V30 8851 H 818.376 -0.112493 5.02874 0
M  V30 8852 H 818.076 1.51988 5.67603 0
M  V30 8853 H 819.6 0.674152 6.06867 0
M  V30 8854 H 821.014 2.70636 5.054 0
M  V30 8855 H 819.411 3.48012 4.88884 0
M  V30 8856 H 820.481 3.37776 3.47901 0
M  V30 8857 N 821.824 -1.22873 0.986916 0
M  V30 8858 C 823.073 -1.90772 0.654911 0
M  V30 8859 C 823.386 -1.77768 -0.81595 0
M  V30 8860 O 824.592 -2.40529 -1.25929 0
M  V30 8861 C 823.048 -3.42003 1.12081 0
M  V30 8862 C 822.656 -3.63655 2.61647 0
M  V30 8863 C 824.4 -4.15638 0.862854 0
M  V30 8864 C 822.307 -5.08555 3.01871 0
M  V30 8865 H 821.237 -0.714362 0.241252 0
M  V30 8866 H 823.888 -1.39196 1.19568 0
M  V30 8867 H 822.27 -3.92725 0.508207 0
M  V30 8868 H 823.444 -3.2345 3.28202 0
M  V30 8869 H 821.759 -3.03341 2.8526 0
M  V30 8870 H 824.356 -5.22425 1.13915 0
M  V30 8871 H 824.699 -4.15814 -0.201036 0
M  V30 8872 H 825.232 -3.70924 1.43736 0
M  V30 8873 H 821.971 -5.13514 4.07411 0
M  V30 8874 H 821.491 -5.49684 2.40015 0
M  V30 8875 H 823.17 -5.76936 2.92839 0
M  V30 8876 N 823.302 -0.75937 -1.38099 0
M  V30 8877 C 824.249 -0.135508 -2.30402 0
M  V30 8878 C 825.219 0.703356 -1.50473 0
M  V30 8879 O 826.404 0.658287 -1.79084 0
M  V30 8880 C 823.544 0.747228 -3.36913 0
M  V30 8881 C 822.657 -0.106893 -4.31868 0
M  V30 8882 C 821.792 0.779388 -5.25451 0
M  V30 8883 C 820.831 -0.0780179 -6.1205 0
M  V30 8884 N 819.968 0.765545 -6.97914 0
M  V30 8885 H 824.808 -0.9282 -2.83176 0
M  V30 8886 H 822.345 -0.46935 -1.39411 0
M  V30 8887 H 824.303 1.27371 -3.97281 0
M  V30 8888 H 822.933 1.50565 -2.85535 0
M  V30 8889 H 821.985 -0.751063 -3.72912 0
M  V30 8890 H 823.297 -0.768798 -4.9284 0
M  V30 8891 H 822.451 1.37282 -5.90964 0
M  V30 8892 H 821.19 1.47501 -4.6486 0
M  V30 8893 H 820.195 -0.684078 -5.45528 0
M  V30 8894 H 821.42 -0.770786 -6.74712 0
M  V30 8895 H 819.366 1.44601 -6.39864 0
M  V30 8896 H 819.283 0.160666 -7.55829 0
M  V30 8897 H 820.551 1.34377 -7.6783 0
M  V30 8898 N 824.78 1.49157 -0.508906 0
M  V30 8899 C 826.196 1.58741 -0.165372 0
M  V30 8900 C 826.396 1.5133 1.33047 0
M  V30 8901 O 825.452 1.39135 2.10707 0
M  V30 8902 C 826.765 2.91217 -0.749194 0
M  V30 8903 C 828.313 3.047 -0.716015 0
M  V30 8904 C 828.788 4.39807 -1.27804 0
M  V30 8905 N 830.279 4.46319 -1.23908 0
M  V30 8906 C 831.014 5.49325 -1.64406 0
M  V30 8907 N 830.51 6.59395 -2.12534 0
M  V30 8908 N 832.303 5.40084 -1.55773 0
M  V30 8909 H 824.454 1.52217 -1.48134 0
M  V30 8910 H 826.717 0.721514 -0.614915 0
M  V30 8911 H 826.423 3.02233 -1.79856 0
M  V30 8912 H 826.297 3.76592 -0.214144 0
M  V30 8913 H 828.684 2.9331 0.324535 0
M  V30 8914 H 828.765 2.2099 -1.2883 0
M  V30 8915 H 828.409 4.5195 -2.31741 0
M  V30 8916 H 828.339 5.2217 -0.681623 0
M  V30 8917 H 830.83 3.67354 -0.886537 0
M  V30 8918 H 831.143 7.34102 -2.41485 0
M  V30 8919 H 829.488 6.60414 -2.16513 0
M  V30 8920 H 832.679 4.52986 -1.17987 0
M  V30 8921 H 832.852 6.20233 -1.87657 0
M  V30 8922 N 826.258 0.243083 1.55714 0
M  V30 8923 C 827.483 -0.389944 2.03701 0
M  V30 8924 C 827.908 -1.51025 1.12129 0
M  V30 8925 O 827.266 -1.80944 0.11352 0
M  V30 8926 C 827.314 -0.878649 3.49731 0
M  V30 8927 O 826.418 -1.98851 3.61292 0
M  V30 8928 H 825.759 -0.0855115 0.658471 0
M  V30 8929 H 828.289 0.368023 2.01263 0
M  V30 8930 H 828.299 -1.18287 3.90477 0
M  V30 8931 H 826.974 -0.0588107 4.15858 0
M  V30 8932 H 825.551 -1.68928 3.32442 0
M  V30 8933 N 827.736 -1.57571 -0.0300757 0
M  V30 8934 C 828.683 -2.06492 -1.03101 0
M  V30 8935 C 829.653 -0.953862 -1.3598 0
M  V30 8936 O 830.838 -1.22436 -1.46335 0
M  V30 8937 C 827.978 -2.54826 -2.32718 0
M  V30 8938 C 827.091 -3.79718 -2.06006 0
M  V30 8939 C 826.226 -4.16668 -3.29487 0
M  V30 8940 C 825.265 -5.3448 -2.98324 0
M  V30 8941 N 824.402 -5.66867 -4.14254 0
M  V30 8942 H 829.242 -2.91755 -0.606877 0
M  V30 8943 H 826.779 -1.44252 -0.288038 0
M  V30 8944 H 828.737 -2.80916 -3.08451 0
M  V30 8945 H 827.367 -1.72481 -2.72856 0
M  V30 8946 H 826.419 -3.60718 -1.20774 0
M  V30 8947 H 827.731 -4.65569 -1.79017 0
M  V30 8948 H 826.885 -4.43881 -4.13588 0
M  V30 8949 H 825.624 -3.29466 -3.59588 0
M  V30 8950 H 824.629 -5.07021 -2.12625 0
M  V30 8951 H 825.854 -6.23334 -2.69502 0
M  V30 8952 H 823.8 -4.82625 -4.44308 0
M  V30 8953 H 823.717 -6.47226 -3.90685 0
M  V30 8954 H 824.985 -5.98656 -4.99231 0
M  V30 8955 N 829.214 0.302327 -1.54673 0
M  V30 8956 C 830.462 1.03565 -1.73547 0
M  V30 8957 C 830.783 1.87843 -0.523448 0
M  V30 8958 O 830.053 1.90367 0.462295 0
M  V30 8959 H 828.633 0.385358 -0.639928 0
M  V30 8960 H 831.295 0.333632 -1.92023 0
M  V30 8961 H 830.391 1.68952 -2.62415 0
M  V30 8962 N 830.692 1.47107 0.565454 0
M  V30 8963 C 831.639 1.58974 1.6732 0
M  V30 8964 C 832.609 0.433146 1.60353 0
M  V30 8965 O 833.794 0.652141 1.79309 0
M  V30 8966 C 830.934 1.60224 3.05651 0
M  V30 8967 C 830.047 2.86741 3.23116 0
M  V30 8968 C 829.182 2.79381 4.51796 0
M  V30 8969 C 828.221 4.0076 4.62664 0
M  V30 8970 N 827.358 3.91685 5.8269 0
M  V30 8971 H 832.198 2.53588 1.56515 0
M  V30 8972 H 829.735 1.25791 0.762558 0
M  V30 8973 H 831.693 1.58933 3.85741 0
M  V30 8974 H 830.323 0.691285 3.15311 0
M  V30 8975 H 829.375 2.97936 2.36513 0
M  V30 8976 H 830.687 3.7665 3.27011 0
M  V30 8977 H 829.841 2.76293 5.40136 0
M  V30 8978 H 828.58 1.87142 4.50366 0
M  V30 8979 H 827.585 4.04162 3.72738 0
M  V30 8980 H 828.81 4.94117 4.6586 0
M  V30 8981 H 826.756 3.02243 5.82224 0
M  V30 8982 H 826.673 4.75264 5.87929 0
M  V30 8983 H 827.941 3.92599 6.73414 0
M  V30 8984 N 832.17 -0.811516 1.35101 0
M  V30 8985 C 833.08 -1.95475 1.29718 0
M  V30 8986 C 834.096 -1.72813 0.202909 0
M  V30 8987 O 835.272 -1.96725 0.431414 0
M  V30 8988 C 832.337 -3.29975 1.06385 0
M  V30 8989 C 831.398 -3.65566 2.25077 0
M  V30 8990 C 830.631 -4.93648 2.02848 0
M  V30 8991 O 830.854 -5.617 0.992442 0
M  V30 8992 O 829.788 -5.27384 2.90087 0
M  V30 8993 H 833.614 -2.02961 2.25921 0
M  V30 8994 H 831.199 -0.948583 1.15422 0
M  V30 8995 H 833.081 -4.10506 0.951999 0
M  V30 8996 H 831.756 -3.2343 0.132294 0
M  V30 8997 H 830.663 -2.85432 2.41825 0
M  V30 8998 H 831.996 -3.7681 3.16662 0
M  V30 8999 N 833.648 -1.19017 -1.03309 0
M  V30 9000 C 835.064 -0.941483 -1.28873 0
M  V30 9001 C 835.264 0.388587 -1.97718 0
M  V30 9002 O 834.32 1.12111 -2.26246 0
M  V30 9003 C 835.633 -2.11249 -2.13996 0
M  V30 9004 C 837.181 -2.15164 -2.27318 0
M  V30 9005 C 837.656 -3.31704 -3.15811 0
M  V30 9006 N 839.147 -3.31613 -3.23399 0
M  V30 9007 C 839.882 -4.18431 -3.9205 0
M  V30 9008 N 839.378 -5.15397 -4.62966 0
M  V30 9009 N 841.171 -4.06321 -3.88406 0
M  V30 9010 H 833.322 -2.04599 -0.570343 0
M  V30 9011 H 835.585 -0.894406 -0.314232 0
M  V30 9012 H 835.291 -3.07482 -1.70727 0
M  V30 9013 H 835.165 -2.07955 -3.14697 0
M  V30 9014 H 837.552 -1.19504 -2.6982 0
M  V30 9015 H 837.633 -2.22513 -1.26182 0
M  V30 9016 H 837.277 -4.2764 -2.74019 0
M  V30 9017 H 837.207 -3.21592 -4.16997 0
M  V30 9018 H 839.698 -2.6142 -2.72888 0
M  V30 9019 H 840.011 -5.78 -5.12968 0
M  V30 9020 H 838.356 -5.19349 -4.61846 0
M  V30 9021 H 841.547 -3.29849 -3.3214 0
M  V30 9022 H 841.72 -4.74196 -4.41635 0
M  V30 9023 N 835.127 1.22348 -0.993418 0
M  V30 9024 C 836.538 1.72893 -0.704616 0
M  V30 9025 C 836.889 1.80095 0.778483 0
M  V30 9026 O 836.014 1.4476 1.60853 0
M  V30 9027 C 836.609 3.14 -1.27237 0
M  V30 9028 C 835.168 3.61949 -1.03294 0
M  V30 9029 C 834.315 2.39816 -1.39225 0
M  V30 9030 H 837.266 1.07688 -1.16572 0
M  V30 9031 H 837.287 3.74886 -0.651212 0
M  V30 9032 H 836.799 3.08727 -2.3518 0
M  V30 9033 H 834.9 3.72588 0.0298329 0
M  V30 9034 H 835.013 4.48051 -1.69668 0
M  V30 9035 H 833.377 2.41448 -0.810849 0
M  V30 9036 H 834.16 2.37203 -2.48172 0
M  V30 9037 N 836.605 0.766683 1.37694 0
M  V30 9038 C 837.852 0.328714 1.99814 0
M  V30 9039 C 838.18 -1.09333 1.60862 0
M  V30 9040 O 837.435 -1.7657 0.8439 0
M  V30 9041 C 837.734 0.413831 3.54996 0
M  V30 9042 C 837.4 1.7934 4.137 0
M  V30 9043 C 836.062 2.17092 4.29447 0
M  V30 9044 C 838.414 2.69776 4.45949 0
M  V30 9045 C 835.742 3.44726 4.74743 0
M  V30 9046 C 838.094 3.96814 4.92667 0
M  V30 9047 C 836.758 4.34618 5.0662 0
M  V30 9048 H 836.028 0.120285 0.731172 0
M  V30 9049 H 838.675 0.97972 1.64541 0
M  V30 9050 H 836.98 -0.320723 3.90485 0
M  V30 9051 H 838.677 0.0563369 4.0096 0
M  V30 9052 H 835.267 1.48997 4.01868 0
M  V30 9053 H 839.451 2.41871 4.33373 0
M  V30 9054 H 834.707 3.73917 4.83731 0
M  V30 9055 H 838.881 4.67022 5.16588 0
M  V30 9056 H 836.508 5.33578 5.41478 0
M  V30 9057 N 838.083 -1.48885 0.516809 0
M  V30 9058 C 839.329 -2.02788 -0.0220928 0
M  V30 9059 C 839.662 -1.39433 -1.35175 0
M  V30 9060 O 838.937 -0.535459 -1.86984 0
M  V30 9061 C 839.22 -3.59753 -0.158012 0
M  V30 9062 C 839.073 -4.33611 1.19588 0
M  V30 9063 C 840.392 -4.30984 -0.891133 0
M  V30 9064 H 837.511 -0.736971 -0.00655488 0
M  V30 9065 H 840.153 -1.77746 0.671287 0
M  V30 9066 H 838.303 -3.8122 -0.748568 0
M  V30 9067 H 839.975 -4.23598 1.82653 0
M  V30 9068 H 838.218 -3.95547 1.78116 0
M  V30 9069 H 838.889 -5.41846 1.05391 0
M  V30 9070 H 841.365 -4.14267 -0.39012 0
M  V30 9071 H 840.241 -5.40527 -0.955107 0
M  V30 9072 H 840.502 -3.97336 -1.93847 0
M  V30 9073 N 839.561 -0.251338 -1.55583 0
M  V30 9074 C 840.491 0.640437 -2.24545 0
M  V30 9075 C 841.472 1.17781 -1.22726 0
M  V30 9076 O 842.657 1.21633 -1.5139 0
M  V30 9077 C 839.787 1.8355 -2.94834 0
M  V30 9078 C 838.741 1.4307 -4.03379 0
M  V30 9079 C 838.067 2.70695 -4.61116 0
M  V30 9080 C 839.367 0.59848 -5.1886 0
M  V30 9081 H 841.061 0.0653772 -2.99329 0
M  V30 9082 H 838.607 0.0300042 -1.43969 0
M  V30 9083 H 840.56 2.46505 -3.4178 0
M  V30 9084 H 839.284 2.43601 -2.17546 0
M  V30 9085 H 837.943 0.824474 -3.57209 0
M  V30 9086 H 837.591 3.28954 -3.80524 0
M  V30 9087 H 837.291 2.44332 -5.34393 0
M  V30 9088 H 838.815 3.34541 -5.10798 0
M  V30 9089 H 840.229 1.13244 -5.62004 0
M  V30 9090 H 838.626 0.430728 -5.98552 0
M  V30 9091 H 839.696 -0.38829 -4.83343 0
M  V30 9092 N 841.039 1.57585 0.0217189 0
M  V30 9093 C 842.267 1.93871 0.722619 0
M  V30 9094 C 842.682 0.851706 1.68498 0
M  V30 9095 O 842.039 -0.17127 1.81695 0
M  V30 9096 C 842.09 3.30114 1.47333 0
M  V30 9097 O 841.811 4.34639 0.549597 0
M  V30 9098 C 843.312 3.80727 2.27072 0
M  V30 9099 H 840.532 0.639671 0.202637 0
M  V30 9100 H 843.076 2.04487 -0.0229414 0
M  V30 9101 H 841.231 3.20872 2.17071 0
M  V30 9102 H 841.645 5.13326 1.07686 0
M  V30 9103 H 843.119 4.78547 2.75131 0
M  V30 9104 H 843.596 3.12301 3.08812 0
M  V30 9105 H 844.202 3.93075 1.62395 0
M  V30 9106 N 842.517 -0.29412 1.54831 0
M  V30 9107 C 843.933 -0.640167 1.46199 0
M  V30 9108 C 844.133 -1.90426 0.658798 0
M  V30 9109 O 843.189 -2.51932 0.169228 0
M  V30 9110 C 844.502 -0.786763 2.90225 0
M  V30 9111 C 846.05 -0.882201 3.0031 0
M  V30 9112 C 846.525 -1.06074 4.45547 0
M  V30 9113 N 848.016 -1.12678 4.49286 0
M  V30 9114 C 848.751 -1.28334 5.58854 0
M  V30 9115 N 848.247 -1.40845 6.78332 0
M  V30 9116 N 850.04 -1.31277 5.46555 0
M  V30 9117 H 842.191 0.536334 2.05517 0
M  V30 9118 H 844.454 0.178363 0.93107 0
M  V30 9119 H 844.16 0.0713018 3.51628 0
M  V30 9120 H 844.034 -1.67364 3.38037 0
M  V30 9121 H 846.421 -1.73075 2.39017 0
M  V30 9122 H 846.502 0.0288405 2.55784 0
M  V30 9123 H 846.146 -0.216935 5.07437 0
M  V30 9124 H 846.076 -1.98611 4.8771 0
M  V30 9125 H 848.567 -1.04335 3.63212 0
M  V30 9126 H 848.88 -1.52566 7.57591 0
M  V30 9127 H 847.225 -1.37888 6.81184 0
M  V30 9128 H 850.416 -1.2112 4.52159 0
M  V30 9129 H 850.589 -1.43136 6.31994 0
M  V30 9130 N 843.995 -1.47404 -0.557645 0
M  V30 9131 C 845.22 -1.57868 -1.34508 0
M  V30 9132 C 845.645 -0.229151 -1.86699 0
M  V30 9133 O 845.003 0.794908 -1.62944 0
M  V30 9134 C 845.051 -2.60712 -2.49122 0
M  V30 9135 O 844.155 -2.15952 -3.51338 0
M  V30 9136 H 843.496 -0.530335 -0.399551 0
M  V30 9137 H 846.026 -1.93181 -0.673954 0
M  V30 9138 H 846.036 -2.81118 -2.95697 0
M  V30 9139 H 844.711 -3.58701 -2.10491 0
M  V30 9140 H 843.288 -2.05644 -3.11071 0
M  V30 9141 N 845.473 0.80434 -1.35529 0
M  V30 9142 C 846.72 1.56154 -1.28927 0
M  V30 9143 C 847.048 1.94026 0.135682 0
M  V30 9144 O 846.303 1.61759 1.10148 0
M  V30 9145 C 846.602 2.85988 -2.14349 0
M  V30 9146 C 846.268 2.67323 -3.6311 0
M  V30 9147 C 844.93 2.61941 -4.03659 0
M  V30 9148 C 847.282 2.49699 -4.57493 0
M  V30 9149 C 844.61 2.3688 -5.36754 0
M  V30 9150 C 846.962 2.26168 -5.90788 0
M  V30 9151 C 845.626 2.19209 -6.30479 0
M  V30 9152 H 844.896 0.571407 -0.471779 0
M  V30 9153 H 847.543 0.929193 -1.67446 0
M  V30 9154 H 845.848 3.53612 -1.68718 0
M  V30 9155 H 847.545 3.43697 -2.06576 0
M  V30 9156 H 844.135 2.72361 -3.30934 0
M  V30 9157 H 848.319 2.52869 -4.27049 0
M  V30 9158 H 843.575 2.29964 -5.66504 0
M  V30 9159 H 847.749 2.11522 -6.63499 0
M  V30 9160 H 845.376 1.99553 -7.33541 0
M  V30 9161 N 846.951 1.19563 1.02676 0
M  V30 9162 C 848.198 0.999568 1.7611 0
M  V30 9163 C 848.526 -0.469432 1.8875 0
M  V30 9164 O 847.781 -1.36481 1.40255 0
M  V30 9165 C 848.08 1.61619 3.18769 0
M  V30 9166 C 847.746 3.11366 3.26132 0
M  V30 9167 C 846.408 3.52234 3.27848 0
M  V30 9168 C 848.76 4.07374 3.25109 0
M  V30 9169 C 846.088 4.87658 3.26201 0
M  V30 9170 C 848.44 5.42731 3.25002 0
M  V30 9171 C 847.104 5.83027 3.25017 0
M  V30 9172 H 846.374 0.365768 0.644434 0
M  V30 9173 H 849.021 1.48838 1.20497 0
M  V30 9174 H 847.326 1.04974 3.77476 0
M  V30 9175 H 849.023 1.43975 3.74262 0
M  V30 9176 H 845.613 2.78804 3.25525 0
M  V30 9177 H 849.797 3.76842 3.22961 0
M  V30 9178 H 845.053 5.18156 3.24537 0
M  V30 9179 H 849.227 6.16879 3.23161 0
M  V30 9180 H 846.854 6.87936 3.23494 0
M  V30 9181 N 848.429 -1.21819 0.999893 0
M  V30 9182 C 849.392 -2.22227 0.561044 0
M  V30 9183 C 850.392 -1.56722 -0.359858 0
M  V30 9184 O 851.582 -1.73546 -0.150848 0
M  V30 9185 C 848.714 -3.40409 -0.182987 0
M  V30 9186 H 849.907 -2.62567 1.44909 0
M  V30 9187 H 847.46 -1.34991 0.78785 0
M  V30 9188 H 848.195 -3.05551 -1.08671 0
M  V30 9189 H 847.98 -3.89171 0.47833 0
M  V30 9190 H 849.47 -4.14856 -0.477952 0
M  V30 9191 N 849.908 -0.773975 -1.37286 0
M  V30 9192 C 851.156 -0.338636 -1.99243 0
M  V30 9193 C 851.477 1.08919 -1.61746 0
M  V30 9194 O 850.747 1.74822 -0.88397 0
M  V30 9195 H 849.327 -0.12222 -0.736934 0
M  V30 9196 H 851.989 -0.992595 -1.67731 0
M  V30 9197 H 851.085 -0.418055 -3.09287 0
M  V30 9198 N 851.386 1.48609 -0.524698 0
M  V30 9199 C 852.611 2.07398 0.00952139 0
M  V30 9200 C 853.036 1.37939 1.27884 0
M  V30 9201 O 852.394 0.443633 1.75788 0
M  V30 9202 C 852.442 3.59916 0.221956 0
M  V30 9203 O 851.546 3.91647 1.29175 0
M  V30 9204 H 850.887 0.662981 -0.0367729 0
M  V30 9205 H 853.417 1.91092 -0.7311 0
M  V30 9206 H 853.427 4.05552 0.446236 0
M  V30 9207 H 852.102 4.09876 -0.705306 0
M  V30 9208 H 850.679 3.57796 1.05055 0
M  V30 9209 N 852.864 0.259585 1.55447 0
M  V30 9210 C 853.796 -0.667548 2.19263 0
M  V30 9211 C 854.809 -1.12925 1.17268 0
M  V30 9212 O 855.998 -1.05384 1.44071 0
M  V30 9213 C 853.098 -1.92066 2.7922 0
M  V30 9214 C 852.271 -1.60832 4.06758 0
M  V30 9215 C 851.33 -2.71231 4.50911 0
M  V30 9216 O 850.356 -2.38077 5.17019 0
M  V30 9217 N 851.558 -4.00984 4.19752 0
M  V30 9218 H 854.323 -0.121449 2.99454 0
M  V30 9219 H 851.884 0.0800519 1.61702 0
M  V30 9220 H 853.876 -2.65186 3.0571 0
M  V30 9221 H 852.446 -2.37621 2.03113 0
M  V30 9222 H 851.666 -0.711685 3.87722 0
M  V30 9223 H 852.954 -1.37445 4.89884 0
M  V30 9224 H 852.352 -4.30748 3.66706 0
M  V30 9225 H 850.909 -4.7053 4.51048 0
M  V30 9226 N 854.342 -1.57594 -0.0133615 0
M  V30 9227 C 855.289 -2.07574 -1.00905 0
M  V30 9228 C 856.259 -0.968231 -1.34961 0
M  V30 9229 O 857.444 -1.23981 -1.45028 0
M  V30 9230 C 854.584 -2.5728 -2.30002 0
M  V30 9231 C 853.697 -3.81881 -2.01967 0
M  V30 9232 C 852.832 -4.20139 -3.25049 0
M  V30 9233 C 851.871 -5.37614 -2.92639 0
M  V30 9234 N 851.008 -5.71229 -4.08218 0
M  V30 9235 H 855.848 -2.92382 -0.575899 0
M  V30 9236 H 853.385 -1.4455 -0.272722 0
M  V30 9237 H 855.343 -2.84171 -3.05454 0
M  V30 9238 H 853.973 -1.75365 -2.71011 0
M  V30 9239 H 853.025 -3.61979 -1.16942 0
M  V30 9240 H 854.337 -4.67441 -1.74069 0
M  V30 9241 H 853.491 -4.48242 -4.08857 0
M  V30 9242 H 852.23 -3.33262 -3.56073 0
M  V30 9243 H 851.235 -5.09248 -2.07235 0
M  V30 9244 H 852.46 -6.26157 -2.62876 0
M  V30 9245 H 850.406 -4.8731 -4.39164 0
M  V30 9246 H 850.323 -6.51333 -3.83799 0
M  V30 9247 H 851.591 -6.03917 -4.92854 0
M  V30 9248 N 855.82 0.285905 -1.54985 0
M  V30 9249 C 857.05 1.03626 -1.78732 0
M  V30 9250 C 857.458 1.80896 -0.554377 0
M  V30 9251 O 856.801 1.77161 0.48578 0
M  V30 9252 C 856.863 2.05185 -2.95193 0
M  V30 9253 C 856.527 1.46973 -4.32722 0
M  V30 9254 C 857.524 0.891986 -5.12191 0
M  V30 9255 C 855.209 1.50081 -4.79355 0
M  V30 9256 C 857.203 0.353078 -6.36421 0
M  V30 9257 C 854.89 0.958037 -6.03544 0
M  V30 9258 C 855.888 0.385157 -6.81913 0
M  V30 9259 O 855.576 -0.149341 -8.03761 0
M  V30 9260 H 855.308 0.312416 -0.599477 0
M  V30 9261 H 857.862 0.326067 -2.02795 0
M  V30 9262 H 856.092 2.79928 -2.66791 0
M  V30 9263 H 857.781 2.66244 -3.0638 0
M  V30 9264 H 858.547 0.860762 -4.77301 0
M  V30 9265 H 854.426 1.9361 -4.18373 0
M  V30 9266 H 857.97 -0.0947181 -6.97536 0
M  V30 9267 H 853.867 0.986458 -6.37918 0
M  V30 9268 H 854.635 -0.0374719 -8.18491 0
M  V30 9269 N 857.298 1.47698 0.54982 0
M  V30 9270 C 858.546 1.54397 1.30407 0
M  V30 9271 C 858.867 0.211026 1.93855 0
M  V30 9272 O 858.137 -0.765701 1.80316 0
M  V30 9273 H 856.717 0.568747 0.484289 0
M  V30 9274 H 859.379 1.84042 0.641444 0
M  V30 9275 H 858.475 2.31449 2.09375 0
M  V30 9276 N 858.776 -0.797141 1.35954 0
M  V30 9277 C 859.739 -1.89104 1.29508 0
M  V30 9278 C 860.739 -1.59495 0.204444 0
M  V30 9279 O 861.929 -1.68051 0.458746 0
M  V30 9280 C 859.061 -3.25726 1.00576 0
M  V30 9281 H 860.254 -1.96237 2.26785 0
M  V30 9282 H 857.807 -0.994075 1.20614 0
M  V30 9283 H 858.542 -3.24279 0.0372519 0
M  V30 9284 H 858.327 -3.48604 1.79492 0
M  V30 9285 H 859.817 -4.0578 0.986508 0
M  V30 9286 N 860.254 -1.20106 -1.0204 0
M  V30 9287 C 861.5 -1.01039 -1.75838 0
M  V30 9288 C 861.833 0.456819 -1.88751 0
M  V30 9289 O 861.108 1.33919 -1.41053 0
M  V30 9290 C 861.391 -1.69009 -3.17975 0
M  V30 9291 C 861.244 -3.2315 -3.1288 0
M  V30 9292 C 862.563 -1.42005 -4.16561 0
M  V30 9293 H 859.682 -0.368465 -0.638281 0
M  V30 9294 H 862.324 -1.48066 -1.19064 0
M  V30 9295 H 860.474 -1.29026 -3.66449 0
M  V30 9296 H 862.146 -3.72402 -2.72239 0
M  V30 9297 H 860.389 -3.54253 -2.50374 0
M  V30 9298 H 861.06 -3.65862 -4.13339 0
M  V30 9299 H 863.536 -1.76685 -3.76725 0
M  V30 9300 H 862.412 -1.92101 -5.14187 0
M  V30 9301 H 862.673 -0.346884 -4.40737 0
M  V30 9302 N 861.732 1.21287 -1.00634 0
M  V30 9303 C 862.978 1.90957 -0.70051 0
M  V30 9304 C 863.333 1.76729 0.760567 0
M  V30 9305 O 862.626 1.13405 1.54434 0
M  V30 9306 C 862.82 3.41374 -1.05824 0
M  V30 9307 C 862.649 3.70237 -2.55254 0
M  V30 9308 C 861.419 3.89518 -3.21876 0
M  V30 9309 C 863.617 3.73633 -3.53417 0
M  V30 9310 N 861.599 4.05809 -4.60643 0
M  V30 9311 C 862.97 3.95225 -4.777 0
M  V30 9312 C 865.025 3.56545 -3.47534 0
M  V30 9313 C 863.728 4.01502 -5.96815 0
M  V30 9314 C 865.754 3.64089 -4.6604 0
M  V30 9315 C 865.116 3.86144 -5.89128 0
M  V30 9316 H 861.215 0.718861 -0.307835 0
M  V30 9317 H 863.799 1.45913 -1.28908 0
M  V30 9318 H 861.97 3.85193 -0.498106 0
M  V30 9319 H 863.702 3.98476 -0.707006 0
M  V30 9320 H 860.457 3.87479 -2.72318 0
M  V30 9321 H 860.881 4.17854 -5.32661 0
M  V30 9322 H 865.523 3.38469 -2.53375 0
M  V30 9323 H 863.241 4.18378 -6.91365 0
M  V30 9324 H 866.827 3.52188 -4.63092 0
M  V30 9325 H 865.707 3.91827 -6.79295 0
M  V30 9326 N 863.21 0.781244 1.36873 0
M  V30 9327 C 864.438 0.361566 2.03716 0
M  V30 9328 C 864.853 -1.01937 1.58916 0
M  V30 9329 O 864.21 -1.65237 0.774783 0
M  V30 9330 C 864.261 0.406391 3.59208 0
M  V30 9331 O 863.982 1.73286 4.02372 0
M  V30 9332 C 865.483 -0.0236894 4.43294 0
M  V30 9333 H 862.703 0.150133 0.653988 0
M  V30 9334 H 865.247 1.05781 1.75016 0
M  V30 9335 H 863.402 -0.241364 3.86647 0
M  V30 9336 H 863.816 1.67804 4.96933 0
M  V30 9337 H 865.29 0.0588205 5.51969 0
M  V30 9338 H 865.767 -1.07529 4.25833 0
M  V30 9339 H 866.373 0.59624 4.211 0
M  V30 9340 N 864.689 -1.48329 0.532571 0
M  V30 9341 C 865.937 -2.021 -0.000581206 0
M  V30 9342 C 866.258 -1.4117 -1.34522 0
M  V30 9343 O 865.528 -0.578005 -1.87179 0
M  V30 9344 H 864.108 -0.746993 -0.00320281 0
M  V30 9345 H 866.77 -1.82011 0.696991 0
M  V30 9346 H 865.866 -3.11917 -0.106991 0
M  V30 9347 N 866.167 -0.267825 -1.55308 0
M  V30 9348 C 867.444 0.402449 -1.91415 0
M  V30 9349 C 867.824 1.7428 -1.1912 0
M  V30 9350 O 867.172 2.2631 -0.315609 0
M  V30 9351 C 867.382 0.549926 -3.4464 0
M  V30 9352 C 868.73 0.836188 -4.16285 0
M  V30 9353 O 869.754 0.635009 -3.50494 0
M  V30 9354 O 868.613 1.22051 -5.32697 0
M  V30 9355 H 865.707 0.219177 -0.797427 0
M  V30 9356 H 868.253 -0.313439 -1.6678 0
M  V30 9357 H 867.025 -0.393641 -3.89315 0
M  V30 9358 H 866.648 1.31556 -3.75205 0
M  V30 9359 N 867.645 1.57599 0.00500368 0
M  V30 9360 C 868.593 2.09223 1.01628 0
M  V30 9361 C 869.587 1.01113 1.35913 0
M  V30 9362 O 870.793 1.19583 1.34536 0
M  V30 9363 H 867.168 0.667999 0.345372 0
M  V30 9364 H 869.139 2.93188 0.555274 0
M  V30 9365 C 867.888 2.60674 2.30097 0
M  V30 9366 H 867.211 3.43491 2.04582 0
M  V30 9367 H 868.651 3.00479 2.99146 0
M  V30 9368 C 867.11 1.51862 3.00731 0
M  V30 9369 O 867.64 0.898651 3.91519 0
M  V30 9370 N 865.846 1.24729 2.62471 0
M  V30 9371 H 865.393 1.7533 1.88725 0
M  V30 9372 H 865.351 0.521437 3.10046 0
M  V30 9373 N 869.123 -0.277682 1.55134 0
M  V30 9374 C 870.351 -1.02826 1.7954 0
M  V30 9375 C 870.766 -1.80105 0.566373 0
M  V30 9376 O 870.123 -1.76491 -0.464448 0
M  V30 9377 C 870.174 -1.99053 3.01762 0
M  V30 9378 O 869.895 -1.24906 4.19917 0
M  V30 9379 C 871.396 -2.85961 3.38735 0
M  V30 9380 H 868.616 -0.303958 0.598206 0
M  V30 9381 H 871.16 -0.309884 2.02138 0
M  V30 9382 H 869.315 -2.66359 2.81303 0
M  V30 9383 H 869.729 -1.89725 4.88983 0
M  V30 9384 H 871.203 -3.49286 4.27438 0
M  V30 9385 H 871.68 -3.55486 2.57928 0
M  V30 9386 H 872.286 -2.24152 3.61436 0
M  V30 9387 N 870.601 -1.47988 -0.541979 0
M  V30 9388 C 871.564 -1.61148 -1.62984 0
M  V30 9389 C 872.564 -0.48553 -1.53295 0
M  V30 9390 O 873.754 -0.751012 -1.5718 0
M  V30 9391 C 870.886 -1.57038 -3.02576 0
M  V30 9392 H 872.079 -2.58138 -1.52659 0
M  V30 9393 H 869.632 -1.36405 -0.763106 0
M  V30 9394 H 870.367 -0.614807 -3.18419 0
M  V30 9395 H 870.152 -2.38769 -3.11018 0
M  V30 9396 H 871.642 -1.69416 -3.81691 0
M  V30 9397 N 872.079 0.78992 -1.36375 0
M  V30 9398 C 872.989 1.93386 -1.32812 0
M  V30 9399 C 874.005 1.72468 -0.230377 0
M  V30 9400 O 875.181 1.96014 -0.462657 0
M  V30 9401 C 872.246 3.2824 -1.11621 0
M  V30 9402 C 871.307 3.61939 -2.30865 0
M  V30 9403 C 870.54 4.90359 -2.10675 0
M  V30 9404 O 870.763 5.6005 -1.08168 0
M  V30 9405 O 869.697 5.22702 -2.9844 0
M  V30 9406 H 873.523 1.99342 -2.29121 0
M  V30 9407 H 871.108 0.9301 -1.16917 0
M  V30 9408 H 872.99 4.08939 -1.01719 0
M  V30 9409 H 871.665 3.23178 -0.183732 0
M  V30 9410 H 870.572 2.81549 -2.46335 0
M  V30 9411 H 871.905 3.71725 -3.22617 0
M  V30 9412 N 873.557 1.20646 1.01402 0
M  V30 9413 C 874.803 1.02974 1.75408 0
M  V30 9414 C 875.158 -0.433294 1.87458 0
M  V30 9415 O 874.451 -1.31741 1.39122 0
M  V30 9416 C 874.645 1.64991 3.17037 0
M  V30 9417 C 874.474 3.17174 3.18796 0
M  V30 9418 C 873.244 3.86165 3.2589 0
M  V30 9419 C 875.442 4.14369 3.04636 0
M  V30 9420 N 873.424 5.25614 3.1718 0
M  V30 9421 C 874.795 5.4051 3.03724 0
M  V30 9422 C 876.85 4.05534 2.88872 0
M  V30 9423 C 875.553 6.58836 2.88664 0
M  V30 9424 C 877.579 5.23486 2.75166 0
M  V30 9425 C 876.941 6.48535 2.74922 0
M  V30 9426 H 873.04 0.431068 0.65246 0
M  V30 9427 H 875.624 1.52858 1.20593 0
M  V30 9428 H 873.795 1.17688 3.70141 0
M  V30 9429 H 875.527 1.40612 3.79487 0
M  V30 9430 H 872.282 3.37038 3.32719 0
M  V30 9431 H 872.706 5.98625 3.16192 0
M  V30 9432 H 877.348 3.09661 2.87872 0
M  V30 9433 H 875.066 7.5488 2.88413 0
M  V30 9434 H 878.652 5.18464 2.63982 0
M  V30 9435 H 877.532 7.3827 2.64439 0
M  V30 9436 N 875.035 -1.20752 1.01276 0
M  V30 9437 C 876.26 -1.94547 0.718769 0
M  V30 9438 C 876.685 -1.7404 -0.713563 0
M  V30 9439 O 876.043 -1.03221 -1.49047 0
M  V30 9440 C 876.091 -3.44823 1.05497 0
M  V30 9441 O 875.195 -4.12072 0.164516 0
M  V30 9442 H 874.536 -0.607931 0.267051 0
M  V30 9443 H 877.066 -1.53292 1.35509 0
M  V30 9444 H 877.076 -3.95427 1.00507 0
M  V30 9445 H 875.751 -3.59072 2.09858 0
M  V30 9446 H 874.328 -3.71909 0.271615 0
M  V30 9447 N 876.513 -0.788492 -1.36457 0
M  V30 9448 C 877.461 -0.174192 -2.31947 0
M  V30 9449 C 878.455 0.665974 -1.5576 0
M  V30 9450 O 879.661 0.561161 -1.71029 0
M  V30 9451 H 876.036 -0.0375538 -0.751062 0
M  V30 9452 H 878.007 -0.995011 -2.81322 0
M  V30 9453 C 876.756 0.677276 -3.4104 0
M  V30 9454 H 876.079 0.0401418 -3.9978 0
M  V30 9455 H 877.519 1.07379 -4.10178 0
M  V30 9456 C 875.978 1.83512 -2.82533 0
M  V30 9457 O 876.508 2.93164 -2.74623 0
M  V30 9458 N 874.714 1.64095 -2.39836 0
M  V30 9459 H 874.261 0.749046 -2.46469 0
M  V30 9460 H 874.219 2.41726 -2.01037 0
M  V30 9461 N 877.991 1.48044 -0.54043 0
M  V30 9462 C 878.921 2.32597 0.205178 0
M  V30 9463 C 879.902 1.42748 0.925041 0
M  V30 9464 O 881.087 1.71624 0.908784 0
M  V30 9465 C 878.217 3.24175 1.24612 0
M  V30 9466 C 877.171 4.23131 0.64376 0
M  V30 9467 C 876.497 5.03915 1.78812 0
M  V30 9468 C 877.797 5.20831 -0.39144 0
M  V30 9469 H 879.491 2.95184 -0.500676 0
M  V30 9470 H 877.037 1.41948 -0.242225 0
M  V30 9471 H 878.99 3.82158 1.77576 0
M  V30 9472 H 877.714 2.59608 1.98169 0
M  V30 9473 H 876.373 3.66349 0.135554 0
M  V30 9474 H 876.021 4.35765 2.51232 0
M  V30 9475 H 875.721 5.709 1.39094 0
M  V30 9476 H 877.245 5.64753 2.32134 0
M  V30 9477 H 878.659 5.73277 0.0515064 0
M  V30 9478 H 877.056 5.95926 -0.706569 0
M  V30 9479 H 878.126 4.6733 -1.29345 0
M  V30 9480 N 879.47 0.276058 1.55163 0
M  V30 9481 C 880.417 -0.611006 2.22565 0
M  V30 9482 C 881.387 -1.14902 1.19945 0
M  V30 9483 O 882.572 -1.19815 1.48489 0
M  V30 9484 C 879.712 -1.78885 2.95117 0
M  V30 9485 C 878.825 -1.2846 4.12458 0
M  V30 9486 C 877.96 -2.42432 4.72652 0
M  V30 9487 C 876.999 -1.89015 5.82185 0
M  V30 9488 N 876.136 -2.96463 6.36439 0
M  V30 9489 H 880.976 -0.0295849 2.97985 0
M  V30 9490 H 878.513 -0.00283607 1.471 0
M  V30 9491 H 880.471 -2.48121 3.35398 0
M  V30 9492 H 879.101 -2.34229 2.22119 0
M  V30 9493 H 878.153 -0.485312 3.77292 0
M  V30 9494 H 879.465 -0.853358 4.91446 0
M  V30 9495 H 878.619 -3.19659 5.15658 0
M  V30 9496 H 877.358 -2.88872 3.92943 0
M  V30 9497 H 876.363 -1.10267 5.38629 0
M  V30 9498 H 877.588 -1.43509 6.63763 0
M  V30 9499 H 875.534 -3.42283 5.59623 0
M  V30 9500 H 875.451 -2.57759 7.10701 0
M  V30 9501 H 876.719 -3.73663 6.84103 0
M  V30 9502 N 880.948 -1.576 0.00335426 0
M  V30 9503 C 882.197 -1.89892 -0.680001 0
M  V30 9504 C 882.51 -0.878731 -1.7475 0
M  V30 9505 O 883.716 -1.09199 -2.48572 0
M  V30 9506 C 882.172 -3.37098 -1.26066 0
M  V30 9507 C 881.78 -4.4742 -0.227807 0
M  V30 9508 C 883.524 -3.78495 -1.92202 0
M  V30 9509 C 881.431 -5.85706 -0.81865 0
M  V30 9510 H 880.361 -0.708578 -0.257746 0
M  V30 9511 H 883.012 -1.83387 0.0644472 0
M  V30 9512 H 881.394 -3.38451 -2.05589 0
M  V30 9513 H 882.568 -4.57589 0.54307 0
M  V30 9514 H 880.883 -4.15064 0.333297 0
M  V30 9515 H 883.48 -4.7915 -2.37318 0
M  V30 9516 H 883.823 -3.12187 -2.75399 0
M  V30 9517 H 884.356 -3.79456 -1.19408 0
M  V30 9518 H 881.095 -6.55495 -0.0253787 0
M  V30 9519 H 880.615 -5.79196 -1.55861 0
M  V30 9520 H 882.294 -6.33469 -1.31627 0
M  V30 9521 N 882.426 0.269451 -1.5528 0
M  V30 9522 C 883.651 1.02299 -1.80415 0
M  V30 9523 C 884.076 1.7902 -0.577363 0
M  V30 9524 O 883.434 1.75018 0.473125 0
M  V30 9525 C 883.482 1.95445 -3.0304 0
M  V30 9526 O 882.586 3.04271 -2.78375 0
M  V30 9527 H 881.927 0.292289 -0.596207 0
M  V30 9528 H 884.457 0.297282 -2.02429 0
M  V30 9529 H 884.467 2.37333 -3.31869 0
M  V30 9530 H 883.142 1.39017 -3.91978 0
M  V30 9531 H 881.719 2.66673 -2.60653 0
M  V30 9532 N 883.904 1.48273 0.534124 0
M  V30 9533 C 885.153 1.55334 1.28663 0
M  V30 9534 C 885.466 0.230345 1.94239 0
M  V30 9535 O 886.672 0.179161 2.70908 0
M  V30 9536 C 885.128 2.73927 2.33435 0
M  V30 9537 C 884.736 4.12852 1.73947 0
M  V30 9538 C 886.48 2.90298 3.09722 0
M  V30 9539 C 884.387 5.22711 2.76636 0
M  V30 9540 H 883.317 0.578262 0.483869 0
M  V30 9541 H 885.968 1.74598 0.564602 0
M  V30 9542 H 884.35 2.48089 3.08655 0
M  V30 9543 H 885.524 4.48691 1.04944 0
M  V30 9544 H 883.839 4.01562 1.10167 0
M  V30 9545 H 886.436 3.69542 3.86449 0
M  V30 9546 H 886.779 1.99598 3.6533 0
M  V30 9547 H 887.312 3.16017 2.41616 0
M  V30 9548 H 884.051 6.15362 2.25852 0
M  V30 9549 H 883.571 4.91364 3.43979 0
M  V30 9550 H 885.25 5.50648 3.39699 0
M  V30 9551 N 885.382 -0.782676 1.36792 0
M  V30 9552 C 886.793 -1.35828 1.28092 0
M  V30 9553 C 887.144 -1.96052 -0.076315 0
M  V30 9554 O 886.269 -1.93042 -0.977935 0
M  V30 9555 C 886.864 -2.46949 2.31952 0
M  V30 9556 C 885.423 -3.00307 2.2692 0
M  V30 9557 C 884.57 -1.73436 2.16368 0
M  V30 9558 H 887.521 -0.583788 1.47572 0
M  V30 9559 H 887.542 -3.26144 1.95986 0
M  V30 9560 H 887.054 -2.03087 3.30722 0
M  V30 9561 H 885.155 -3.48571 1.31639 0
M  V30 9562 H 885.268 -3.56663 3.19887 0
M  V30 9563 H 883.632 -1.95934 1.62733 0
M  V30 9564 H 884.415 -1.31693 3.17036 0
M  V30 9565 N 886.86 -1.21182 -1.00761 0
M  V30 9566 C 887.793 -0.912033 -2.09182 0
M  V30 9567 C 888.771 0.139421 -1.62001 0
M  V30 9568 O 889.955 0.0110272 -1.88497 0
M  V30 9569 C 887.082 -0.368957 -3.36684 0
M  V30 9570 C 886.128 -1.4028 -4.0277 0
M  V30 9571 S 886.961 -2.97108 -4.45519 0
M  V30 9572 C 888.117 -2.444 -5.76211 0
M  V30 9573 H 888.35 -1.83019 -2.34289 0
M  V30 9574 H 885.883 -1.04127 -1.14004 0
M  V30 9575 H 887.841 -0.0621883 -4.10453 0
M  V30 9576 H 886.502 0.527841 -3.09633 0
M  V30 9577 H 885.695 -0.97238 -4.94531 0
M  V30 9578 H 885.297 -1.65752 -3.35265 0
M  V30 9579 H 887.589 -1.84723 -6.51831 0
M  V30 9580 H 888.532 -3.34593 -6.24062 0
M  V30 9581 H 888.94 -1.86203 -5.32906 0
M  V30 9582 N 888.338 1.20213 -1.01915 0
M  V30 9583 C 889.268 2.25336 -0.612023 0
M  V30 9584 C 890.249 1.65933 0.374186 0
M  V30 9585 O 891.434 1.92464 0.259053 0
M  V30 9586 C 888.564 3.47267 0.047904 0
M  V30 9587 C 887.518 4.1928 -0.859557 0
M  V30 9588 C 886.844 5.3466 -0.0652655 0
M  V30 9589 C 888.144 4.75143 -2.1688 0
M  V30 9590 H 889.838 2.59645 -1.49079 0
M  V30 9591 H 887.384 1.24808 -0.718263 0
M  V30 9592 H 889.337 4.19991 0.344294 0
M  V30 9593 H 888.061 3.12129 0.961404 0
M  V30 9594 H 886.72 3.48425 -1.13999 0
M  V30 9595 H 886.368 4.95767 0.849964 0
M  V30 9596 H 886.068 5.83772 -0.669618 0
M  V30 9597 H 887.592 6.10187 0.224612 0
M  V30 9598 H 889.006 5.39672 -1.9346 0
M  V30 9599 H 887.403 5.34702 -2.72422 0
M  V30 9600 H 888.473 3.93744 -2.83008 0
M  V30 9601 N 889.816 0.795718 1.36037 0
M  V30 9602 C 890.746 0.212803 2.32528 0
M  V30 9603 C 891.727 -0.655716 1.56953 0
M  V30 9604 O 892.912 -0.588238 1.85077 0
M  V30 9605 C 890.042 -0.648189 3.41198 0
M  V30 9606 C 888.996 0.120948 4.27829 0
M  V30 9607 C 888.322 -0.861044 5.27722 0
M  V30 9608 C 889.622 1.31375 5.05508 0
M  V30 9609 H 891.316 1.01893 2.81528 0
M  V30 9610 H 888.862 0.491422 1.35355 0
M  V30 9611 H 890.815 -1.06597 4.07695 0
M  V30 9612 H 889.539 -1.48709 2.9078 0
M  V30 9613 H 888.198 0.519777 3.62897 0
M  V30 9614 H 887.846 -1.69515 4.73575 0
M  V30 9615 H 887.546 -0.350808 5.86552 0
M  V30 9616 H 889.07 -1.27726 5.97092 0
M  V30 9617 H 890.484 0.971406 5.6501 0
M  V30 9618 H 888.881 1.75772 5.73781 0
M  V30 9619 H 889.951 2.10593 4.36782 0
M  V30 9620 N 891.294 -1.47756 0.548274 0
M  V30 9621 C 892.522 -2.06884 0.0254873 0
M  V30 9622 C 892.937 -1.40225 -1.26422 0
M  V30 9623 O 892.294 -0.495776 -1.75637 0
M  V30 9624 C 892.345 -3.61036 -0.183134 0
M  V30 9625 O 892.066 -4.25195 1.05549 0
M  V30 9626 C 893.567 -4.37008 -0.744222 0
M  V30 9627 H 890.787 -0.669697 0.041789 0
M  V30 9628 H 893.331 -1.89888 0.759138 0
M  V30 9629 H 891.486 -3.77576 -0.866886 0
M  V30 9630 H 891.9 -5.17606 0.847629 0
M  V30 9631 H 893.374 -5.45579 -0.839529 0
M  V30 9632 H 893.851 -4.0268 -1.75344 0
M  V30 9633 H 894.457 -4.25191 -0.0964542 0
M  V30 9634 N 892.772 -0.284283 -1.55015 0
M  V30 9635 C 893.702 0.592663 -2.25853 0
M  V30 9636 C 894.683 1.15151 -1.25197 0
M  V30 9637 O 895.868 1.18395 -1.53936 0
M  V30 9638 C 892.998 1.77254 -2.98661 0
M  V30 9639 C 891.952 1.34482 -4.06323 0
M  V30 9640 C 891.278 2.60853 -4.66754 0
M  V30 9641 C 892.578 0.488288 -5.20013 0
M  V30 9642 H 894.272 0.00187041 -2.994 0
M  V30 9643 H 891.818 -0.000540402 -1.44 0
M  V30 9644 H 893.771 2.39199 -3.46932 0
M  V30 9645 H 892.495 2.38931 -2.22664 0
M  V30 9646 H 891.154 0.748519 -3.58877 0
M  V30 9647 H 890.802 3.20808 -3.87416 0
M  V30 9648 H 890.502 2.32942 -5.39455 0
M  V30 9649 H 892.026 3.23631 -5.1778 0
M  V30 9650 H 893.44 1.01298 -5.6428 0
M  V30 9651 H 891.837 0.303669 -5.99331 0
M  V30 9652 H 892.907 -0.490727 -4.8241 0
M  V30 9653 N 894.251 1.57596 -0.0117121 0
M  V30 9654 C 895.476 1.95764 0.684938 0
M  V30 9655 C 895.901 0.887285 1.65858 0
M  V30 9656 O 895.259 -0.153508 1.80649 0
M  V30 9657 C 895.307 3.33031 1.38285 0
M  V30 9658 O 894.411 3.28163 2.49765 0
M  V30 9659 H 893.752 0.638767 0.181309 0
M  V30 9660 H 896.282 2.04486 -0.0683883 0
M  V30 9661 H 896.292 3.68866 1.74362 0
M  V30 9662 H 894.967 4.10483 0.669043 0
M  V30 9663 H 893.544 3.04021 2.15929 0
M  V30 9664 N 895.729 -0.261212 1.5542 0
M  V30 9665 C 896.978 -0.989072 1.75785 0
M  V30 9666 C 897.291 -1.8702 0.572961 0
M  V30 9667 O 898.497 -2.63374 0.659289 0
M  V30 9668 C 896.953 -1.80857 3.11157 0
M  V30 9669 C 896.561 -0.975535 4.3725 0
M  V30 9670 C 898.305 -2.53003 3.40866 0
M  V30 9671 C 896.212 -1.7901 5.63657 0
M  V30 9672 H 895.142 -0.373019 0.655266 0
M  V30 9673 H 897.793 -0.244267 1.81867 0
M  V30 9674 H 896.175 -2.59479 2.99144 0
M  V30 9675 H 897.349 -0.232661 4.60212 0
M  V30 9676 H 895.664 -0.368083 4.1477 0
M  V30 9677 H 898.261 -3.14372 4.32521 0
M  V30 9678 H 898.604 -3.23891 2.61535 0
M  V30 9679 H 899.137 -1.81403 3.54031 0
M  V30 9680 H 895.876 -1.12522 6.4577 0
M  V30 9681 H 895.396 -2.50863 5.44819 0
M  V30 9682 H 897.075 -2.36082 6.0239 0
M  V30 9683 N 897.207 -1.48554 -0.526253 0
M  V30 9684 C 898.435 -1.60429 -1.30652 0
M  V30 9685 C 898.85 -0.265963 -1.86917 0
M  V30 9686 O 898.207 0.745262 -1.6659 0
M  V30 9687 C 898.258 -2.65377 -2.45473 0
M  V30 9688 O 897.979 -3.94017 -1.91527 0
M  V30 9689 C 899.48 -2.87726 -3.37237 0
M  V30 9690 H 896.7 -0.540817 -0.397187 0
M  V30 9691 H 899.244 -1.94409 -0.634461 0
M  V30 9692 H 897.399 -2.34246 -3.08557 0
M  V30 9693 H 897.813 -4.51623 -2.66715 0
M  V30 9694 H 899.287 -3.64951 -4.14144 0
M  V30 9695 H 899.764 -1.96688 -3.92696 0
M  V30 9696 H 900.37 -3.20176 -2.79942 0
M  V30 9697 N 898.685 0.775411 -1.37205 0
M  V30 9698 C 899.933 1.53081 -1.3195 0
M  V30 9699 C 900.254 1.9476 0.0966864 0
M  V30 9700 O 899.524 1.66019 1.03993 0
M  V30 9701 H 898.104 0.567762 -0.485444 0
M  V30 9702 H 900.766 0.92309 -1.71654 0
M  V30 9703 H 899.862 2.4319 -1.95614 0
M  V30 9704 N 900.163 1.21714 1.00117 0
M  V30 9705 C 901.412 1.03087 1.73367 0
M  V30 9706 C 901.725 -0.435532 1.90689 0
M  V30 9707 O 902.931 -0.741291 2.61184 0
M  V30 9708 C 901.387 1.79593 3.11888 0
M  V30 9709 C 900.995 3.30428 3.02525 0
M  V30 9710 C 902.739 1.69386 3.89241 0
M  V30 9711 C 900.646 3.99408 4.3615 0
M  V30 9712 H 899.576 0.382117 0.650002 0
M  V30 9713 H 902.227 1.45486 1.11831 0
M  V30 9714 H 900.609 1.29988 3.74058 0
M  V30 9715 H 901.783 3.87364 2.49571 0
M  V30 9716 H 900.098 3.4122 2.38659 0
M  V30 9717 H 902.695 2.18251 4.8813 0
M  V30 9718 H 903.038 0.652773 4.1115 0
M  V30 9719 H 903.571 2.16489 3.33733 0
M  V30 9720 H 900.31 5.03735 4.19442 0
M  V30 9721 H 899.83 3.47261 4.8905 0
M  V30 9722 H 901.509 4.04537 5.04934 0
M  V30 9723 N 901.641 -1.19671 1.02551 0
M  V30 9724 C 902.866 -1.93774 0.739363 0
M  V30 9725 C 903.291 -1.74787 -0.695064 0
M  V30 9726 O 902.649 -1.04796 -1.47944 0
M  V30 9727 C 902.697 -3.43684 1.09149 0
M  V30 9728 O 901.801 -4.11874 0.208213 0
M  V30 9729 H 901.142 -0.605064 0.273484 0
M  V30 9730 H 903.672 -1.51846 1.37128 0
M  V30 9731 H 903.682 -3.94339 1.04695 0
M  V30 9732 H 902.357 -3.56826 2.13654 0
M  V30 9733 H 900.934 -3.716 0.311045 0
M  V30 9734 N 903.119 -0.802921 -1.35613 0
M  V30 9735 C 904.366 -0.381576 -1.98872 0
M  V30 9736 C 904.694 1.0503 -1.63704 0
M  V30 9737 O 903.949 1.7427 -0.890418 0
M  V30 9738 C 904.248 -0.507806 -3.53774 0
M  V30 9739 C 903.914 -1.90245 -4.088 0
M  V30 9740 C 902.576 -2.28401 -4.2354 0
M  V30 9741 C 904.928 -2.81504 -4.3864 0
M  V30 9742 C 902.256 -3.57192 -4.65436 0
M  V30 9743 C 904.608 -4.09737 -4.81973 0
M  V30 9744 C 903.272 -4.47897 -4.94919 0
M  V30 9745 H 902.542 -0.139629 -0.727726 0
M  V30 9746 H 905.189 -1.023 -1.61886 0
M  V30 9747 H 903.494 0.21708 -3.91198 0
M  V30 9748 H 905.191 -0.162625 -4.0067 0
M  V30 9749 H 901.781 -1.596 -3.97776 0
M  V30 9750 H 905.965 -2.53276 -4.26808 0
M  V30 9751 H 901.221 -3.86611 -4.73648 0
M  V30 9752 H 905.395 -4.80555 -5.04024 0
M  V30 9753 H 903.022 -5.47747 -5.27141 0
M  V30 9754 N 904.597 1.47463 -0.556102 0
M  V30 9755 C 905.837 2.04372 -0.0339743 0
M  V30 9756 C 906.201 1.42125 1.29091 0
M  V30 9757 O 907.402 1.90074 1.90066 0
M  V30 9758 C 905.673 3.57352 0.0585316 0
M  V30 9759 S 907.232 4.35625 0.526943 0
M  V30 9760 H 904.05 0.710574 -0.0246115 0
M  V30 9761 H 906.652 1.80848 -0.742585 0
M  V30 9762 H 905.356 4.00181 -0.910116 0
M  V30 9763 H 904.887 3.85371 0.790731 0
M  V30 9764 H 906.902 4.62911 1.78683 0
M  V30 9765 N 906.075 0.2925 1.54862 0
M  V30 9766 C 907.323 -0.318633 1.99572 0
M  V30 9767 C 907.644 -1.55062 1.1824 0
M  V30 9768 O 906.914 -1.93943 0.276226 0
M  V30 9769 H 905.494 -0.120722 0.737181 0
M  V30 9770 H 908.156 0.401862 1.90712 0
M  V30 9771 H 907.252 -0.596542 3.06346 0
M  V30 9772 N 907.553 -1.57587 0.0200696 0
M  V30 9773 C 908.516 -2.08595 -0.949767 0
M  V30 9774 C 909.516 -0.999215 -1.25985 0
M  V30 9775 O 910.706 -1.26115 -1.2017 0
M  V30 9776 C 907.838 -2.54424 -2.26895 0
M  V30 9777 H 909.031 -2.95563 -0.508161 0
M  V30 9778 H 906.584 -1.54631 -0.227798 0
M  V30 9779 H 907.319 -1.70758 -2.75703 0
M  V30 9780 H 907.104 -3.3381 -2.05702 0
M  V30 9781 H 908.594 -2.94144 -2.96427 0
M  V30 9782 N 909.032 0.252966 -1.55557 0
M  V30 9783 C 910.309 1.00432 -1.67847 0
M  V30 9784 C 910.689 2.03587 -0.55816 0
M  V30 9785 O 910.037 2.24239 0.439197 0
M  V30 9786 C 910.247 1.64313 -3.079 0
M  V30 9787 C 911.595 2.14726 -3.66303 0
M  V30 9788 O 912.619 1.74264 -3.10661 0
M  V30 9789 O 911.478 2.89 -4.63833 0
M  V30 9790 H 908.572 0.467102 -0.682455 0
M  V30 9791 H 911.118 0.247233 -1.67889 0
M  V30 9792 H 909.89 0.896681 -3.80888 0
M  V30 9793 H 909.513 2.46657 -3.11843 0
M  V30 9794 N 910.51 1.48831 0.518367 0
M  V30 9795 C 911.759 1.5669 1.27008 0
M  V30 9796 C 912.072 0.250934 1.93984 0
M  V30 9797 O 913.278 0.207884 2.70703 0
M  V30 9798 C 911.734 2.76387 2.30517 0
M  V30 9799 C 911.342 4.14673 1.69559 0
M  V30 9800 C 913.086 2.93566 3.06625 0
M  V30 9801 C 910.993 5.25616 2.71076 0
M  V30 9802 H 909.923 0.583362 0.477708 0
M  V30 9803 H 912.574 1.75187 0.546052 0
M  V30 9804 H 910.956 2.51348 3.06006 0
M  V30 9805 H 912.13 4.49779 1.00179 0
M  V30 9806 H 910.445 4.02708 1.05902 0
M  V30 9807 H 913.042 3.7362 3.82508 0
M  V30 9808 H 913.385 2.03462 3.63193 0
M  V30 9809 H 913.918 3.18562 2.38251 0
M  V30 9810 H 910.657 6.17723 2.19313 0
M  V30 9811 H 910.177 4.94985 3.38748 0
M  V30 9812 H 911.856 5.5422 3.3384 0
M  V30 9813 N 911.988 -0.768124 1.37614 0
M  V30 9814 C 913.236 -1.52379 1.3276 0
M  V30 9815 C 913.557 -1.94809 -0.0863564 0
M  V30 9816 O 912.827 -1.66568 -1.03112 0
M  V30 9817 H 911.407 -0.565179 0.488448 0
M  V30 9818 H 914.069 -0.913974 1.72141 0
M  V30 9819 H 913.165 -2.4215 1.96901 0
M  V30 9820 N 913.466 -1.22244 -0.994698 0
M  V30 9821 C 914.714 -1.04384 -1.73056 0
M  V30 9822 C 915.035 0.422204 -1.90374 0
M  V30 9823 O 914.305 1.30383 -1.46209 0
M  V30 9824 H 912.885 -0.383263 -0.641185 0
M  V30 9825 H 915.547 -1.53725 -1.1981 0
M  V30 9826 H 914.643 -1.52021 -2.72573 0
M  V30 9827 N 914.944 1.19125 -1.03184 0
M  V30 9828 C 916.191 1.88883 -0.730029 0
M  V30 9829 C 916.519 1.79807 0.741602 0
M  V30 9830 O 915.774 1.18686 1.55603 0
M  V30 9831 C 916.073 3.39052 -1.13041 0
M  V30 9832 C 915.739 3.68332 -2.60082 0
M  V30 9833 C 914.401 3.76033 -3.00254 0
M  V30 9834 C 916.753 3.81423 -3.55199 0
M  V30 9835 C 914.081 3.94296 -4.34451 0
M  V30 9836 C 916.433 4.012 -4.89103 0
M  V30 9837 C 915.097 4.07134 -5.28959 0
M  V30 9838 H 914.367 0.691172 -0.267137 0
M  V30 9839 H 917.014 1.41053 -1.29523 0
M  V30 9840 H 915.319 3.88801 -0.48386 0
M  V30 9841 H 917.016 3.91351 -0.874368 0
M  V30 9842 H 913.606 3.62948 -2.27961 0
M  V30 9843 H 917.79 3.74814 -3.25313 0
M  V30 9844 H 913.046 3.97131 -4.64863 0
M  V30 9845 H 917.22 4.10271 -5.62717 0
M  V30 9846 H 914.847 4.21038 -6.32954 0
M  V30 9847 N 916.422 0.810101 1.35185 0
M  V30 9848 C 917.671 0.388589 1.97921 0
M  V30 9849 C 917.984 -1.05079 1.64978 0
M  V30 9850 O 919.19 -1.57559 2.21105 0
M  V30 9851 C 917.646 0.643864 3.54094 0
M  V30 9852 C 917.254 2.09602 3.95943 0
M  V30 9853 C 918.998 0.287883 4.23523 0
M  V30 9854 C 916.905 2.29686 5.44976 0
M  V30 9855 H 915.835 0.141562 0.740592 0
M  V30 9856 H 918.486 0.994653 1.54204 0
M  V30 9857 H 916.868 -0.0321978 3.95987 0
M  V30 9858 H 918.042 2.81018 3.65192 0
M  V30 9859 H 916.357 2.4122 3.39414 0
M  V30 9860 H 918.954 0.415946 5.3308 0
M  V30 9861 H 919.297 -0.766305 4.09186 0
M  V30 9862 H 919.83 0.918004 3.87063 0
M  V30 9863 H 916.569 3.33563 5.64284 0
M  V30 9864 H 916.089 1.62798 5.77284 0
M  V30 9865 H 917.768 2.11411 6.11485 0
M  V30 9866 N 917.9 -1.47166 0.563914 0
M  V30 9867 C 919.148 -2.02056 0.0422873 0
M  V30 9868 C 919.469 -1.43992 -1.31497 0
M  V30 9869 O 918.739 -0.617578 -1.85911 0
M  V30 9870 H 917.319 -0.746893 0.0126427 0
M  V30 9871 H 919.981 -1.80492 0.735441 0
M  V30 9872 H 919.077 -3.12073 -0.0408044 0
M  V30 9873 N 919.378 -0.300708 -1.54705 0
M  V30 9874 C 920.326 0.591264 -2.2496 0
M  V30 9875 C 921.32 1.13725 -1.2555 0
M  V30 9876 O 922.526 1.08793 -1.43402 0
M  V30 9877 H 918.901 0.209278 -0.722293 0
M  V30 9878 H 920.872 -0.0238175 -2.9839 0
M  V30 9879 C 919.621 1.75179 -3.00346 0
M  V30 9880 H 918.944 1.34089 -3.76643 0
M  V30 9881 H 920.384 2.35198 -3.52786 0
M  V30 9882 C 918.843 2.65574 -2.07298 0
M  V30 9883 O 919.373 3.6666 -1.64083 0
M  V30 9884 N 917.579 2.33301 -1.7326 0
M  V30 9885 H 917.126 1.51142 -2.08599 0
M  V30 9886 H 917.084 2.94049 -1.11278 0
M  V30 9887 N 920.856 1.57574 -0.0284266 0
M  V30 9888 C 922.267 1.79585 0.510502 0
M  V30 9889 C 922.618 0.938625 1.72291 0
M  V30 9890 O 921.743 0.14884 2.15888 0
M  V30 9891 C 922.338 3.25703 0.932912 0
M  V30 9892 C 920.897 3.48711 1.41696 0
M  V30 9893 C 920.044 2.74665 0.381356 0
M  V30 9894 H 922.995 1.56647 -0.254464 0
M  V30 9895 H 923.016 3.35376 1.79731 0
M  V30 9896 H 922.528 3.88067 0.0503036 0
M  V30 9897 H 920.629 2.91597 2.31952 0
M  V30 9898 H 920.742 4.57423 1.42481 0
M  V30 9899 H 919.106 2.40123 0.8493 0
M  V30 9900 H 919.889 3.39745 -0.492775 0
M  V30 9901 N 922.334 -0.244713 1.55689 0
M  V30 9902 C 923.244 -1.32447 1.93636 0
M  V30 9903 C 924.26 -1.52541 0.837086 0
M  V30 9904 O 925.436 -1.66121 1.13867 0
M  V30 9905 C 922.501 -2.65864 2.22525 0
M  V30 9906 C 921.562 -2.54273 3.45896 0
M  V30 9907 C 920.795 -3.81327 3.73397 0
M  V30 9908 O 921.018 -4.83307 3.02936 0
M  V30 9909 O 919.952 -3.79829 4.66919 0
M  V30 9910 H 923.778 -1.03255 2.85608 0
M  V30 9911 H 921.363 -0.445652 1.42598 0
M  V30 9912 H 923.245 -3.447 2.42404 0
M  V30 9913 H 921.92 -2.94784 1.33731 0
M  V30 9914 H 920.827 -1.73715 3.31321 0
M  V30 9915 H 922.16 -2.30297 4.34999 0
M  V30 9916 N 923.813 -1.49104 -0.510467 0
M  V30 9917 C 925.041 -1.61806 -1.28944 0
M  V30 9918 C 925.456 -0.285774 -1.86625 0
M  V30 9919 O 924.813 0.727551 -1.67371 0
M  V30 9920 C 924.864 -2.67966 -2.42645 0
M  V30 9921 O 924.585 -3.96026 -1.87337 0
M  V30 9922 C 926.086 -2.91286 -3.34166 0
M  V30 9923 H 923.306 -0.544999 -0.391429 0
M  V30 9924 H 925.85 -1.95071 -0.613805 0
M  V30 9925 H 924.005 -2.37505 -3.06056 0
M  V30 9926 H 924.419 -4.54427 -2.61909 0
M  V30 9927 H 925.893 -3.69323 -4.1025 0
M  V30 9928 H 926.37 -2.00842 -3.90588 0
M  V30 9929 H 926.976 -3.23127 -2.76531 0
M  V30 9930 N 925.291 0.760815 -1.38019 0
M  V30 9931 C 926.201 1.90526 -1.36884 0
M  V30 9932 C 927.217 1.71941 -0.266908 0
M  V30 9933 O 928.393 1.94988 -0.50413 0
M  V30 9934 C 925.458 3.25799 -1.18558 0
M  V30 9935 C 924.519 3.56961 -2.3849 0
M  V30 9936 C 923.752 4.8578 -2.21029 0
M  V30 9937 O 923.975 5.57629 -1.20023 0
M  V30 9938 O 922.909 5.16254 -3.0946 0
M  V30 9939 H 926.735 1.94437 -2.33298 0
M  V30 9940 H 924.32 0.905091 -1.18863 0
M  V30 9941 H 926.202 4.0669 -1.1037 0
M  V30 9942 H 924.877 3.22716 -0.252241 0
M  V30 9943 H 923.784 2.7626 -2.52252 0
M  V30 9944 H 925.117 3.64798 -3.30429 0
M  V30 9945 N 926.769 1.22769 0.988202 0
M  V30 9946 C 927.699 1.02627 2.09738 0
M  V30 9947 C 928.68 -0.0543211 1.70013 0
M  V30 9948 O 929.865 0.108811 1.93895 0
M  V30 9949 C 926.995 0.608302 3.41931 0
M  V30 9950 C 925.949 1.63536 3.95525 0
M  V30 9951 C 925.275 1.07308 5.23822 0
M  V30 9952 C 926.575 3.02649 4.25677 0
M  V30 9953 H 928.269 1.954 2.26847 0
M  V30 9954 H 925.815 0.940888 1.09011 0
M  V30 9955 H 927.768 0.454478 4.18942 0
M  V30 9956 H 926.492 -0.355095 3.24664 0
M  V30 9957 H 925.151 1.77704 3.20651 0
M  V30 9958 H 924.799 0.100894 5.02899 0
M  V30 9959 H 924.499 1.75925 5.60646 0
M  V30 9960 H 926.023 0.930938 6.03462 0
M  V30 9961 H 927.437 2.91828 4.93467 0
M  V30 9962 H 925.834 3.68434 4.73684 0
M  V30 9963 H 926.904 3.52228 3.33262 0
M  V30 9964 N 928.247 -1.18576 1.03814 0
M  V30 9965 C 929.177 -2.24334 0.647795 0
M  V30 9966 C 930.158 -1.66508 -0.34774 0
M  V30 9967 O 931.343 -1.92852 -0.228401 0
M  V30 9968 C 928.473 -3.47299 0.00734922 0
M  V30 9969 C 927.427 -4.17859 0.926152 0
M  V30 9970 C 926.753 -5.34489 0.150317 0
M  V30 9971 C 928.053 -4.71632 2.24411 0
M  V30 9972 H 929.747 -2.57241 1.53191 0
M  V30 9973 H 927.293 -1.23649 0.738028 0
M  V30 9974 H 929.246 -4.20486 -0.277434 0
M  V30 9975 H 927.97 -3.13619 -0.911626 0
M  V30 9976 H 926.629 -3.46567 1.19528 0
M  V30 9977 H 926.277 -4.97056 -0.770985 0
M  V30 9978 H 925.977 -5.82633 0.762407 0
M  V30 9979 H 927.501 -6.10467 -0.127508 0
M  V30 9980 H 928.915 -5.36526 2.02021 0
M  V30 9981 H 927.312 -5.303 2.80894 0
M  V30 9982 H 928.382 -3.89192 2.89236 0
M  V30 9983 N 929.725 -0.817259 -1.34754 0
M  V30 9984 C 930.971 -0.403244 -1.98751 0
M  V30 9985 C 931.304 1.02963 -1.64658 0
M  V30 9986 O 930.579 1.71617 -0.915314 0
M  V30 9987 C 930.862 -0.599188 -3.5508 0
M  V30 9988 C 930.715 -2.07777 -3.98934 0
M  V30 9989 C 932.034 -0.0315656 -4.40089 0
M  V30 9990 H 929.153 -0.147988 -0.721989 0
M  V30 9991 H 931.795 -1.02877 -1.59738 0
M  V30 9992 H 929.945 -0.0667116 -3.88443 0
M  V30 9993 H 931.617 -2.67345 -3.75931 0
M  V30 9994 H 929.86 -2.57031 -3.49453 0
M  V30 9995 H 930.531 -2.16571 -5.07741 0
M  V30 9996 H 933.007 -0.48644 -4.13247 0
M  V30 9997 H 931.883 -0.198507 -5.48541 0
M  V30 9998 H 932.144 1.06302 -4.2913 0
M  V30 9999 N 931.203 1.46865 -0.571711 0
M  V30 10000 C 932.619 1.57897 -0.23255 0
M  V30 10001 C 932.819 1.56836 1.26509 0
M  V30 10002 O 931.875 1.47947 2.04617 0
M  V30 10003 C 933.188 2.87778 -0.872036 0
M  V30 10004 C 934.736 3.01389 -0.844605 0
M  V30 10005 C 935.211 4.33991 -1.46343 0
M  V30 10006 N 936.702 4.40662 -1.42727 0
M  V30 10007 C 937.437 5.41858 -1.87557 0
M  V30 10008 N 936.933 6.49787 -2.4031 0
M  V30 10009 N 938.726 5.32992 -1.7854 0
M  V30 10010 H 930.877 1.45798 -1.54457 0
M  V30 10011 H 933.14 0.694785 -0.644964 0
M  V30 10012 H 932.846 2.94332 -1.92513 0
M  V30 10013 H 932.72 3.75345 -0.373677 0
M  V30 10014 H 935.107 2.94423 0.19984 0
M  V30 10015 H 935.188 2.15327 -1.38087 0
M  V30 10016 H 934.832 4.41714 -2.50701 0
M  V30 10017 H 934.762 5.18809 -0.902479 0
M  V30 10018 H 937.253 3.63263 -1.04155 0
M  V30 10019 H 937.566 7.23199 -2.72403 0
M  V30 10020 H 935.911 6.50637 -2.44329 0
M  V30 10021 H 939.102 4.47575 -1.37093 0
M  V30 10022 H 939.275 6.11716 -2.13794 0
M  V30 10023 N 932.681 0.308908 1.54543 0
M  V30 10024 C 933.927 -0.291311 2.01303 0
M  V30 10025 C 934.282 -1.50917 1.19339 0
M  V30 10026 O 933.575 -1.89776 0.263724 0
M  V30 10027 C 933.769 -0.691522 3.50646 0
M  V30 10028 C 933.598 0.486007 4.47066 0
M  V30 10029 C 932.368 0.980515 4.95695 0
M  V30 10030 C 934.566 1.33352 4.96711 0
M  V30 10031 N 932.548 2.12398 5.75986 0
M  V30 10032 C 933.919 2.32436 5.74781 0
M  V30 10033 C 935.974 1.36298 4.78881 0
M  V30 10034 C 934.677 3.34252 6.36921 0
M  V30 10035 C 936.703 2.36976 5.41845 0
M  V30 10036 C 936.065 3.34789 6.19755 0
M  V30 10037 H 932.164 -0.0708418 0.778785 0
M  V30 10038 H 934.748 0.440621 1.89649 0
M  V30 10039 H 932.919 -1.39261 3.62575 0
M  V30 10040 H 934.651 -1.27196 3.84192 0
M  V30 10041 H 931.406 0.55419 4.70346 0
M  V30 10042 H 931.83 2.70036 6.20814 0
M  V30 10043 H 936.472 0.620472 4.18222 0
M  V30 10044 H 934.19 4.09417 6.96709 0
M  V30 10045 H 937.776 2.40039 5.29974 0
M  V30 10046 H 936.656 4.11418 6.67611 0
M  V30 10047 N 934.159 -1.57557 0.0367827 0
M  V30 10048 C 935.389 -1.96134 -0.649225 0
M  V30 10049 C 935.797 -0.912279 -1.65753 0
M  V30 10050 O 935.14 0.113569 -1.83349 0
M  V30 10051 C 935.202 -3.30889 -1.40545 0
M  V30 10052 C 934.866 -4.53622 -0.554609 0
M  V30 10053 C 935.863 -5.19611 0.17331 0
M  V30 10054 C 933.548 -4.99907 -0.48976 0
M  V30 10055 C 935.542 -6.3021 0.95467 0
M  V30 10056 C 933.229 -6.10386 0.295299 0
M  V30 10057 C 934.227 -6.75398 1.01621 0
M  V30 10058 O 933.915 -7.83755 1.78839 0
M  V30 10059 H 933.647 -0.650662 -0.183344 0
M  V30 10060 H 936.201 -2.05179 0.0951512 0
M  V30 10061 H 934.431 -3.18356 -2.19513 0
M  V30 10062 H 936.12 -3.54315 -1.9803 0
M  V30 10063 H 936.886 -4.84819 0.132589 0
M  V30 10064 H 932.765 -4.49105 -1.04046 0
M  V30 10065 H 936.309 -6.80886 1.51789 0
M  V30 10066 H 932.206 -6.44616 0.33771 0
M  V30 10067 H 932.974 -8.0046 1.70898 0
M  V30 10068 N 935.637 0.236453 -1.55816 0
M  V30 10069 C 936.569 1.31602 -1.87653 0
M  V30 10070 C 937.582 1.43782 -0.763584 0
M  V30 10071 O 938.771 1.44945 -1.04178 0
M  V30 10072 C 935.871 2.69342 -2.05689 0
M  V30 10073 C 935.044 2.79298 -3.36617 0
M  V30 10074 C 934.103 3.97952 -3.44268 0
M  V30 10075 O 933.129 3.86989 -4.17406 0
M  V30 10076 N 934.331 5.11594 -2.74321 0
M  V30 10077 H 937.096 1.04623 -2.80845 0
M  V30 10078 H 934.657 0.426534 -1.5618 0
M  V30 10079 H 936.649 3.47074 -2.08138 0
M  V30 10080 H 935.219 2.88984 -1.19192 0
M  V30 10081 H 934.439 1.8816 -3.46395 0
M  V30 10082 H 935.727 2.82908 -4.22895 0
M  V30 10083 H 935.125 5.23394 -2.14651 0
M  V30 10084 H 933.682 5.87422 -2.8245 0
M  V30 10085 N 937.115 1.49373 0.502552 0
M  V30 10086 C 938.078 1.65413 1.58654 0
M  V30 10087 C 939.078 0.526003 1.51953 0
M  V30 10088 O 940.268 0.792421 1.55133 0
M  V30 10089 C 937.4 1.65005 2.98306 0
M  V30 10090 H 938.593 2.62095 1.45762 0
M  V30 10091 H 936.146 1.38381 0.726672 0
M  V30 10092 H 936.881 0.699014 3.16677 0
M  V30 10093 H 936.666 2.46931 3.04578 0
M  V30 10094 H 938.156 1.79477 3.77065 0
M  V30 10095 N 938.594 -0.753485 1.38421 0
M  V30 10096 C 939.842 -1.50962 1.34368 0
M  V30 10097 C 940.163 -1.94889 -0.0656895 0
M  V30 10098 O 939.433 -1.67652 -1.01339 0
M  V30 10099 H 938.013 -0.559967 0.494415 0
M  V30 10100 H 940.675 -0.895665 1.73101 0
M  V30 10101 H 939.771 -2.40048 1.99458 0
M  V30 10102 N 940.072 -1.23292 -0.981677 0
M  V30 10103 C 941.035 -1.01417 -2.05542 0
M  V30 10104 C 942.035 0.0235354 -1.60783 0
M  V30 10105 O 943.225 -0.216082 -1.72855 0
M  V30 10106 C 940.357 -0.534239 -3.36688 0
M  V30 10107 H 941.55 -1.96702 -2.26381 0
M  V30 10108 H 939.103 -1.05318 -1.1549 0
M  V30 10109 H 939.838 0.422452 -3.21537 0
M  V30 10110 H 939.623 -1.28304 -3.70514 0
M  V30 10111 H 941.113 -0.40179 -4.15663 0
M  V30 10112 N 941.55 1.18024 -1.04442 0
M  V30 10113 C 942.78 1.91753 -0.769044 0
M  V30 10114 C 943.188 1.76629 0.678141 0
M  V30 10115 O 942.531 1.09589 1.47431 0
M  V30 10116 C 942.593 3.43505 -1.0604 0
M  V30 10117 C 942.257 3.82409 -2.50225 0
M  V30 10118 C 943.254 3.8588 -3.48414 0
M  V30 10119 C 940.939 4.13594 -2.85036 0
M  V30 10120 C 942.933 4.19993 -4.79463 0
M  V30 10121 C 940.62 4.47377 -4.1629 0
M  V30 10122 C 941.618 4.50553 -5.13314 0
M  V30 10123 O 941.306 4.83546 -6.42214 0
M  V30 10124 H 941.038 0.615466 -0.279603 0
M  V30 10125 H 943.592 1.5065 -1.3962 0
M  V30 10126 H 941.822 3.84866 -0.376125 0
M  V30 10127 H 943.511 3.98486 -0.772235 0
M  V30 10128 H 944.277 3.6192 -3.2286 0
M  V30 10129 H 940.156 4.10297 -2.10185 0
M  V30 10130 H 943.7 4.22387 -5.55189 0
M  V30 10131 H 939.597 4.70798 -4.4161 0
M  V30 10132 H 940.365 5.01433 -6.46921 0
M  V30 10133 N 943.028 0.824394 1.34319 0
M  V30 10134 C 943.96 0.204805 2.28283 0
M  V30 10135 C 944.973 -0.606162 1.51094 0
M  V30 10136 O 946.162 -0.435602 1.73103 0
M  V30 10137 C 943.262 -0.73139 3.30914 0
M  V30 10138 C 942.435 0.0370723 4.37384 0
M  V30 10139 C 941.494 -0.820272 5.19767 0
M  V30 10140 O 940.52 -0.264721 5.68584 0
M  V30 10141 N 941.722 -2.13984 5.39621 0
M  V30 10142 H 944.487 1.0121 2.82093 0
M  V30 10143 H 942.048 0.681494 1.46858 0
M  V30 10144 H 944.04 -1.30958 3.82926 0
M  V30 10145 H 942.61 -1.43943 2.77487 0
M  V30 10146 H 941.83 0.796578 3.86068 0
M  V30 10147 H 943.118 0.566014 5.05642 0
M  V30 10148 H 942.516 -2.61492 5.01636 0
M  V30 10149 H 941.073 -2.66685 5.94746 0
M  V30 10150 N 944.506 -1.46559 0.579492 0
M  V30 10151 C 945.917 -1.8608 0.152052 0
M  V30 10152 C 946.268 -1.48346 -1.28405 0
M  V30 10153 O 945.393 -0.89685 -1.9694 0
M  V30 10154 C 945.988 -3.37729 0.269171 0
M  V30 10155 C 944.547 -3.76258 -0.103376 0
M  V30 10156 C 943.694 -2.70584 0.60659 0
M  V30 10157 H 946.645 -1.3776 0.787904 0
M  V30 10158 H 946.666 -3.77116 -0.506339 0
M  V30 10159 H 946.178 -3.65162 1.31448 0
M  V30 10160 H 944.279 -3.54443 -1.14895 0
M  V30 10161 H 944.392 -4.78335 0.270701 0
M  V30 10162 H 942.756 -2.54656 0.0471984 0
M  V30 10163 H 943.539 -3.00856 1.65349 0
M  V30 10164 N 945.984 -0.3171 -1.54377 0
M  V30 10165 C 947.231 0.28741 -2.0045 0
M  V30 10166 C 947.559 1.52648 -1.20535 0
M  V30 10167 O 946.814 1.93775 -0.273831 0
M  V30 10168 C 947.113 0.672917 -3.51008 0
M  V30 10169 C 946.779 -0.466245 -4.48483 0
M  V30 10170 C 945.441 -0.778933 -4.74854 0
M  V30 10171 C 947.793 -1.23176 -5.06436 0
M  V30 10172 C 945.121 -1.85997 -5.56437 0
M  V30 10173 C 947.473 -2.30284 -5.89196 0
M  V30 10174 C 946.137 -2.62141 -6.13872 0
M  V30 10175 H 945.407 0.105171 -0.733499 0
M  V30 10176 H 948.054 -0.439538 -1.86388 0
M  V30 10177 H 946.359 1.48019 -3.62764 0
M  V30 10178 H 948.056 1.15209 -3.84094 0
M  V30 10179 H 944.646 -0.212449 -4.28073 0
M  V30 10180 H 948.83 -1.00344 -4.8605 0
M  V30 10181 H 944.086 -2.11134 -5.73788 0
M  V30 10182 H 948.26 -2.90048 -6.33123 0
M  V30 10183 H 945.887 -3.46037 -6.76877 0
M  V30 10184 N 947.462 1.57535 -0.0451378 0
M  V30 10185 C 948.709 1.92451 0.629987 0
M  V30 10186 C 949.037 0.92298 1.71206 0
M  V30 10187 O 948.292 -0.0656626 1.9559 0
M  V30 10188 C 948.591 3.34065 1.27024 0
M  V30 10189 C 948.257 4.49785 0.316971 0
M  V30 10190 C 946.919 4.81169 0.0546406 0
M  V30 10191 C 949.271 5.20111 -0.336693 0
M  V30 10192 C 946.599 5.8023 -0.86889 0
M  V30 10193 C 948.951 6.2016 -1.24838 0
M  V30 10194 C 947.615 6.49976 -1.51944 0
M  V30 10195 H 946.885 0.704228 0.230529 0
M  V30 10196 H 949.532 1.91182 -0.110328 0
M  V30 10197 H 947.837 3.31672 2.08568 0
M  V30 10198 H 949.534 3.58359 1.79945 0
M  V30 10199 H 946.124 4.2529 0.531614 0
M  V30 10200 H 950.308 4.96082 -0.147105 0
M  V30 10201 H 945.564 6.0167 -1.08643 0
M  V30 10202 H 949.738 6.73767 -1.76098 0
M  V30 10203 H 947.365 7.26551 -2.2367 0
M  V30 10204 N 948.94 -0.228186 1.55939 0
M  V30 10205 C 950.356 -0.577583 1.48782 0
M  V30 10206 C 950.556 -1.87461 0.738972 0
M  V30 10207 O 949.612 -2.50988 0.275929 0
M  V30 10208 C 950.925 -0.662961 2.93301 0
M  V30 10209 C 952.473 -0.754035 3.03782 0
M  V30 10210 C 952.948 -0.870815 4.49645 0
M  V30 10211 N 954.439 -0.935208 4.53661 0
M  V30 10212 C 955.174 -1.04516 5.63794 0
M  V30 10213 N 954.67 -1.11948 6.83696 0
M  V30 10214 N 956.463 -1.07978 5.51631 0
M  V30 10215 H 948.614 0.623018 2.03057 0
M  V30 10216 H 950.877 0.217692 0.922667 0
M  V30 10217 H 950.583 0.220375 3.51009 0
M  V30 10218 H 950.457 -1.52876 3.44831 0
M  V30 10219 H 952.844 -1.62782 2.46143 0
M  V30 10220 H 952.925 0.137301 2.55431 0
M  V30 10221 H 952.569 -0.0015186 5.079 0
M  V30 10222 H 952.499 -1.77747 4.95695 0
M  V30 10223 H 954.99 -0.88836 3.6731 0
M  V30 10224 H 955.303 -1.20297 7.6338 0
M  V30 10225 H 953.648 -1.08873 6.8642 0
M  V30 10226 H 956.839 -1.01833 4.56889 0
M  V30 10227 H 957.012 -1.16202 6.37496 0
M  V30 10228 N 950.418 -1.49637 -0.494624 0
M  V30 10229 C 951.666 -1.5913 -1.24587 0
M  V30 10230 C 951.987 -0.282828 -1.92938 0
M  V30 10231 O 951.257 0.69825 -1.83034 0
M  V30 10232 H 949.837 -0.586329 -0.462847 0
M  V30 10233 H 952.499 -1.86296 -0.572696 0
M  V30 10234 H 951.595 -2.3906 -2.00641 0
M  V30 10235 N 951.896 0.746133 -1.38819 0
M  V30 10236 C 952.846 1.85085 -1.33145 0
M  V30 10237 C 953.83 1.59466 -0.214339 0
M  V30 10238 O 955.022 1.71159 -0.450943 0
M  V30 10239 C 952.151 3.22884 -1.16623 0
M  V30 10240 C 951.237 3.54369 -2.32988 0
M  V30 10241 N 951.628 3.56863 -3.58445 0
M  V30 10242 C 949.926 3.84674 -2.25703 0
M  V30 10243 C 950.627 3.85827 -4.3533 0
M  V30 10244 N 949.603 4.03037 -3.64777 0
M  V30 10245 H 953.405 1.85301 -2.28124 0
M  V30 10246 H 950.919 0.943847 -1.32156 0
M  V30 10247 H 952.916 4.0195 -1.10642 0
M  V30 10248 H 951.576 3.23914 -0.225841 0
M  V30 10249 H 952.587 3.38443 -3.92017 0
M  V30 10250 H 949.264 3.93375 -1.39864 0
M  V30 10251 H 950.654 3.94317 -5.44025 0
M  V30 10252 N 953.375 1.23811 0.975125 0
M  V30 10253 C 954.338 1.02505 2.05001 0
M  V30 10254 C 955.338 -0.0150084 1.60793 0
M  V30 10255 O 956.528 0.225246 1.72738 0
M  V30 10256 C 953.66 0.552087 3.364 0
M  V30 10257 H 954.853 1.979 2.25335 0
M  V30 10258 H 952.406 1.05929 1.1493 0
M  V30 10259 H 953.141 -0.405394 3.21756 0
M  V30 10260 H 952.926 1.30267 3.69828 0
M  V30 10261 H 954.416 0.423828 4.15444 0
M  V30 10262 N 954.853 -1.17469 1.05066 0
M  V30 10263 C 956.081 -1.9162 0.780334 0
M  V30 10264 C 956.496 -1.76745 -0.663817 0
M  V30 10265 O 955.853 -1.10377 -1.45338 0
M  V30 10266 C 955.904 -3.42723 1.14992 0
M  V30 10267 O 955.625 -3.57139 2.53739 0
M  V30 10268 C 957.126 -4.33952 0.905549 0
M  V30 10269 H 954.346 -0.608022 0.283814 0
M  V30 10270 H 956.89 -1.4897 1.401 0
M  V30 10271 H 955.045 -3.83124 0.57403 0
M  V30 10272 H 955.459 -4.5075 2.68189 0
M  V30 10273 H 956.933 -5.38487 1.21391 0
M  V30 10274 H 957.41 -4.38911 -0.159295 0
M  V30 10275 H 958.016 -3.99263 1.46522 0
M  V30 10276 N 956.331 -0.831506 -1.3388 0
M  V30 10277 C 957.264 -0.2046 -2.27281 0
M  V30 10278 C 958.242 0.643992 -1.49303 0
M  V30 10279 O 959.426 0.605863 -1.78498 0
M  V30 10280 C 956.553 0.713409 -3.31101 0
M  V30 10281 C 955.599 -0.0587654 -4.2646 0
M  V30 10282 S 956.432 -1.41172 -5.16557 0
M  V30 10283 C 957.588 -0.498807 -6.23909 0
M  V30 10284 H 957.821 -0.996442 -2.80104 0
M  V30 10285 H 955.354 -0.62786 -1.41058 0
M  V30 10286 H 957.312 1.23748 -3.91403 0
M  V30 10287 H 955.973 1.47885 -2.77108 0
M  V30 10288 H 955.166 0.639466 -4.99927 0
M  V30 10289 H 954.768 -0.513665 -3.70456 0
M  V30 10290 H 957.06 0.306268 -6.76807 0
M  V30 10291 H 958.003 -1.20342 -6.97799 0
M  V30 10292 H 958.411 -0.0834242 -5.64438 0
M  V30 10293 N 957.809 1.4625 -0.587256 0
M  V30 10294 C 958.757 2.32076 0.156108 0
M  V30 10295 C 959.751 1.44756 0.879887 0
M  V30 10296 O 960.957 1.61356 0.797759 0
M  V30 10297 H 957.332 0.748808 0.0692098 0
M  V30 10298 H 959.303 2.9258 -0.586497 0
M  V30 10299 C 958.052 3.28008 1.15352 0
M  V30 10300 H 957.375 3.9518 0.60601 0
M  V30 10301 H 958.815 3.90832 1.64396 0
M  V30 10302 C 957.274 2.53691 2.21681 0
M  V30 10303 O 957.804 2.30329 3.29107 0
M  V30 10304 N 956.01 2.14174 1.96412 0
M  V30 10305 H 955.557 2.33374 1.09061 0
M  V30 10306 H 955.515 1.6477 2.67765 0
M  V30 10307 N 959.287 0.325282 1.54207 0
M  V30 10308 C 960.515 -0.27869 2.05014 0
M  V30 10309 C 960.93 -1.45649 1.20133 0
M  V30 10310 O 960.287 -1.81014 0.232398 0
M  V30 10311 C 960.338 -0.711486 3.54429 0
M  V30 10312 O 960.059 0.419458 4.36087 0
M  V30 10313 C 961.56 -1.37809 4.21336 0
M  V30 10314 H 958.78 -0.0570388 0.668571 0
M  V30 10315 H 961.324 0.47197 1.98979 0
M  V30 10316 H 959.479 -1.41212 3.60746 0
M  V30 10317 H 959.893 0.0781037 5.24442 0
M  V30 10318 H 961.367 -1.63184 5.27328 0
M  V30 10319 H 961.844 -2.32593 3.72555 0
M  V30 10320 H 962.45 -0.719987 4.19161 0
M  V30 10321 N 960.765 -1.57509 0.0534917 0
M  V30 10322 C 961.712 -2.11667 -0.920101 0
M  V30 10323 C 962.682 -1.0246 -1.30733 0
M  V30 10324 O 963.867 -1.30021 -1.39639 0
M  V30 10325 C 961.007 -2.66803 -2.18883 0
M  V30 10326 C 960.12 -3.90104 -1.85588 0
M  V30 10327 C 959.255 -4.33547 -3.06937 0
M  V30 10328 C 958.294 -5.49542 -2.69573 0
M  V30 10329 N 957.431 -5.88029 -3.83623 0
M  V30 10330 H 962.271 -2.94562 -0.451371 0
M  V30 10331 H 959.808 -1.45576 -0.211168 0
M  V30 10332 H 961.766 -2.96871 -2.93127 0
M  V30 10333 H 960.396 -1.86702 -2.63329 0
M  V30 10334 H 959.448 -3.66613 -1.01484 0
M  V30 10335 H 960.76 -4.74404 -1.54087 0
M  V30 10336 H 959.914 -4.6518 -3.89477 0
M  V30 10337 H 958.653 -3.48064 -3.41618 0
M  V30 10338 H 957.658 -5.17579 -1.8545 0
M  V30 10339 H 958.883 -6.36743 -2.36082 0
M  V30 10340 H 956.829 -5.05498 -4.181 0
M  V30 10341 H 956.746 -6.67025 -3.55828 0
M  V30 10342 H 958.014 -6.24277 -4.66796 0
M  V30 10343 N 962.243 0.219913 -1.56058 0
M  V30 10344 C 963.659 0.569685 -1.49086 0
M  V30 10345 C 963.859 1.87066 -0.748903 0
M  V30 10346 O 962.915 2.50838 -0.289235 0
M  V30 10347 C 964.228 0.647397 -2.93648 0
M  V30 10348 C 965.776 0.737914 -3.04177 0
M  V30 10349 C 966.251 0.846957 -4.50101 0
M  V30 10350 N 967.742 0.911136 -4.5415 0
M  V30 10351 C 968.477 1.01525 -5.64341 0
M  V30 10352 N 967.973 1.0832 -6.8428 0
M  V30 10353 N 969.766 1.05051 -5.52196 0
M  V30 10354 H 961.917 -0.633778 -2.02724 0
M  V30 10355 H 964.18 -0.222583 -0.921499 0
M  V30 10356 H 963.886 -0.238987 -3.50887 0
M  V30 10357 H 963.76 1.51046 -3.45637 0
M  V30 10358 H 966.147 1.61474 -2.47002 0
M  V30 10359 H 966.228 -0.150845 -2.55355 0
M  V30 10360 H 965.872 -0.0254166 -5.07894 0
M  V30 10361 H 965.802 1.75116 -4.96631 0
M  V30 10362 H 968.293 0.868869 -3.67776 0
M  V30 10363 H 968.606 1.16247 -7.64007 0
M  V30 10364 H 966.951 1.05231 -6.86987 0
M  V30 10365 H 970.142 0.994086 -4.57423 0
M  V30 10366 H 970.315 1.12819 -6.38103 0
M  V30 10367 N 963.721 1.49897 0.486681 0
M  V30 10368 C 965.137 1.36977 0.819109 0
M  V30 10369 C 965.337 0.41385 1.97204 0
M  V30 10370 O 964.393 -0.149249 2.52059 0
M  V30 10371 C 965.706 2.78013 1.14584 0
M  V30 10372 C 967.254 2.86816 1.25321 0
M  V30 10373 C 967.729 4.28651 1.61316 0
M  V30 10374 N 969.22 4.31528 1.68337 0
M  V30 10375 C 969.955 5.38254 1.97662 0
M  V30 10376 N 969.451 6.55207 2.25113 0
M  V30 10377 N 971.244 5.25683 1.99033 0
M  V30 10378 H 963.395 2.10634 -0.273364 0
M  V30 10379 H 965.658 0.946116 -0.0597418 0
M  V30 10380 H 965.364 3.49728 0.371892 0
M  V30 10381 H 965.238 3.1428 2.08585 0
M  V30 10382 H 967.625 2.15329 2.01785 0
M  V30 10383 H 967.706 2.54112 0.293368 0
M  V30 10384 H 967.35 5.00669 0.853968 0
M  V30 10385 H 967.28 4.5883 2.58424 0
M  V30 10386 H 969.771 3.47189 1.49226 0
M  V30 10387 H 970.084 7.32359 2.46717 0
M  V30 10388 H 968.429 6.58408 2.22538 0
M  V30 10389 H 971.62 4.33316 1.77074 0
M  V30 10390 H 971.793 6.08949 2.21552 0
M  V30 10391 N 965.199 -0.738761 1.39212 0
M  V30 10392 C 966.109 -1.88324 1.39897 0
M  V30 10393 C 967.125 -1.71494 0.294229 0
M  V30 10394 O 968.301 -1.94162 0.535087 0
M  V30 10395 C 965.366 -3.23871 1.23726 0
M  V30 10396 C 964.427 -3.53121 2.44139 0
M  V30 10397 C 963.66 -4.82202 2.2873 0
M  V30 10398 O 963.883 -5.55649 1.28879 0
M  V30 10399 O 962.817 -5.11265 3.17634 0
M  V30 10400 H 966.643 -1.90701 2.36362 0
M  V30 10401 H 964.228 -0.886067 1.20288 0
M  V30 10402 H 966.11 -4.04882 1.16826 0
M  V30 10403 H 964.785 -3.22274 0.303551 0
M  V30 10404 H 963.692 -2.72212 2.56615 0
M  V30 10405 H 965.025 -3.59495 3.36191 0
M  V30 10406 N 966.677 -1.24326 -0.968545 0
M  V30 10407 C 968.088 -1.07561 -1.52603 0
M  V30 10408 C 968.439 0.353245 -1.92994 0
M  V30 10409 O 967.564 1.24151 -1.77244 0
M  V30 10410 C 968.159 -1.94634 -2.77314 0
M  V30 10411 C 966.718 -1.82095 -3.29421 0
M  V30 10412 C 965.865 -1.8962 -2.02335 0
M  V30 10413 H 968.816 -1.37815 -0.786932 0
M  V30 10414 H 968.837 -1.47812 -3.50616 0
M  V30 10415 H 968.349 -2.98621 -2.47885 0
M  V30 10416 H 966.45 -0.809376 -3.63703 0
M  V30 10417 H 966.563 -2.66142 -3.98378 0
M  V30 10418 H 964.927 -1.33339 -2.17009 0
M  V30 10419 H 965.71 -2.95185 -1.75273 0
M  V30 10420 N 968.156 1.1691 -1.05688 0
M  V30 10421 C 969.402 1.87814 -0.780871 0
M  V30 10422 C 969.757 1.79796 0.684926 0
M  V30 10423 O 969.05 1.19853 1.49485 0
M  V30 10424 C 969.244 3.36578 -1.20207 0
M  V30 10425 C 969.073 3.59078 -2.70727 0
M  V30 10426 C 967.843 3.75515 -3.38107 0
M  V30 10427 C 970.041 3.58307 -3.68946 0
M  V30 10428 N 968.023 3.85906 -4.77441 0
M  V30 10429 C 969.394 3.74608 -4.94033 0
M  V30 10430 C 971.449 3.41484 -3.62343 0
M  V30 10431 C 970.152 3.75828 -6.13307 0
M  V30 10432 C 972.178 3.43995 -4.81063 0
M  V30 10433 C 971.54 3.60809 -6.04976 0
M  V30 10434 H 967.639 0.705158 -0.338047 0
M  V30 10435 H 970.223 1.40315 -1.34981 0
M  V30 10436 H 968.394 3.82734 -0.661031 0
M  V30 10437 H 970.126 3.95119 -0.875377 0
M  V30 10438 H 966.881 3.7558 -2.88508 0
M  V30 10439 H 967.305 3.94886 -5.49904 0
M  V30 10440 H 971.947 3.27417 -2.67503 0
M  V30 10441 H 969.665 3.88679 -7.08487 0
M  V30 10442 H 973.251 3.3223 -4.77613 0
M  V30 10443 H 972.131 3.62663 -6.95302 0
M  V30 10444 N 969.634 0.838594 1.33437 0
M  V30 10445 C 970.564 0.286672 2.31734 0
M  V30 10446 C 971.545 -0.605451 1.5896 0
M  V30 10447 O 972.73 -0.529059 1.86854 0
M  V30 10448 C 969.86 -0.539311 3.43087 0
M  V30 10449 C 968.814 0.256997 4.27228 0
M  V30 10450 C 968.14 -0.692718 5.30194 0
M  V30 10451 C 969.44 1.47391 5.01072 0
M  V30 10452 H 971.134 1.10798 2.78144 0
M  V30 10453 H 968.68 0.534235 1.33723 0
M  V30 10454 H 970.633 -0.935724 4.1088 0
M  V30 10455 H 969.357 -1.39383 2.95364 0
M  V30 10456 H 968.016 0.634967 3.61059 0
M  V30 10457 H 967.664 -1.54363 4.78729 0
M  V30 10458 H 967.364 -0.164023 5.87371 0
M  V30 10459 H 968.888 -1.08665 6.00853 0
M  V30 10460 H 970.302 1.15067 5.61634 0
M  V30 10461 H 968.699 1.93937 5.67898 0
M  V30 10462 H 969.769 2.24382 4.29861 0
M  V30 10463 N 971.112 -1.45937 0.595003 0
M  V30 10464 C 972.359 -2.0232 0.0853053 0
M  V30 10465 C 972.687 -1.465 -1.27937 0
M  V30 10466 O 971.942 -0.624767 -1.85459 0
M  V30 10467 C 972.241 -3.57396 -0.0173747 0
M  V30 10468 C 971.907 -4.32311 1.28131 0
M  V30 10469 C 970.569 -4.52496 1.63708 0
M  V30 10470 C 972.921 -4.75233 2.14017 0
M  V30 10471 C 970.249 -5.12857 2.84947 0
M  V30 10472 C 972.601 -5.36933 3.34493 0
M  V30 10473 C 971.265 -5.55343 3.70338 0
M  V30 10474 H 970.535 -0.740342 0.0312154 0
M  V30 10475 H 973.182 -1.75157 0.774103 0
M  V30 10476 H 971.487 -3.83766 -0.789371 0
M  V30 10477 H 973.184 -3.98713 -0.427699 0
M  V30 10478 H 969.774 -4.16905 0.994374 0
M  V30 10479 H 973.958 -4.59383 1.87833 0
M  V30 10480 H 969.214 -5.253 3.12841 0
M  V30 10481 H 973.388 -5.69147 4.01304 0
M  V30 10482 H 971.015 -6.01883 4.64371 0
M  V30 10483 N 972.59 -0.333456 -1.54032 0
M  V30 10484 C 973.838 0.265608 -2.00347 0
M  V30 10485 C 974.159 1.51873 -1.2231 0
M  V30 10486 O 973.429 1.93142 -0.327549 0
M  V30 10487 H 972.009 0.101135 -0.740122 0
M  V30 10488 H 974.671 -0.452285 -1.8958 0
M  V30 10489 H 973.767 0.51511 -3.0782 0
M  V30 10490 N 974.068 1.57479 -0.061844 0
M  V30 10491 C 974.978 2.15645 0.923826 0
M  V30 10492 C 975.994 1.117 1.33413 0
M  V30 10493 O 977.17 1.4392 1.40887 0
M  V30 10494 C 974.235 2.69857 2.17665 0
M  V30 10495 C 973.296 3.88638 1.8237 0
M  V30 10496 C 972.529 4.40256 3.01679 0
M  V30 10497 O 972.752 3.90908 4.15388 0
M  V30 10498 O 971.686 5.31713 2.82073 0
M  V30 10499 H 975.512 3.0021 0.459094 0
M  V30 10500 H 973.097 1.48534 0.160665 0
M  V30 10501 H 974.979 3.04647 2.9115 0
M  V30 10502 H 973.654 1.88357 2.63255 0
M  V30 10503 H 972.561 3.58719 1.06167 0
M  V30 10504 H 973.894 4.71401 1.4157 0
M  V30 10505 N 975.546 -0.211634 1.56173 0
M  V30 10506 C 976.456 -1.2831 1.96402 0
M  V30 10507 C 977.472 -1.50731 0.869254 0
M  V30 10508 O 978.648 -1.63669 1.17365 0
M  V30 10509 C 975.713 -2.61084 2.28114 0
M  V30 10510 C 974.774 -2.46879 3.51211 0
M  V30 10511 C 974.007 -3.73321 3.81401 0
M  V30 10512 O 974.23 -4.76773 3.13119 0
M  V30 10513 O 973.164 -3.69839 4.74871 0
M  V30 10514 H 976.99 -0.971733 2.87734 0
M  V30 10515 H 974.575 -0.415305 1.43512 0
M  V30 10516 H 976.457 -3.39481 2.49661 0
M  V30 10517 H 975.132 -2.91881 1.39954 0
M  V30 10518 H 974.039 -1.66648 3.34932 0
M  V30 10519 H 975.372 -2.21018 4.39786 0
M  V30 10520 N 977.024 -1.50153 -0.478725 0
M  V30 10521 C 977.974 -1.64848 -1.57509 0
M  V30 10522 C 978.958 -0.503327 -1.52825 0
M  V30 10523 O 980.15 -0.75737 -1.59978 0
M  V30 10524 C 977.279 -1.73893 -2.96 0
M  V30 10525 C 976.365 -2.9406 -3.05597 0
M  V30 10526 N 976.756 -4.17844 -2.85027 0
M  V30 10527 C 975.054 -2.92459 -3.36725 0
M  V30 10528 C 975.755 -4.98739 -2.9939 0
M  V30 10529 N 974.731 -4.32542 -3.29255 0
M  V30 10530 H 978.533 -2.58254 -1.40293 0
M  V30 10531 H 976.047 -1.47232 -0.685307 0
M  V30 10532 H 978.044 -1.82523 -3.74821 0
M  V30 10533 H 976.704 -0.816402 -3.14269 0
M  V30 10534 H 977.715 -4.47465 -2.60759 0
M  V30 10535 H 974.392 -2.09675 -3.6103 0
M  V30 10536 H 975.782 -6.07146 -2.8779 0
M  V30 10537 N 978.502 0.731368 -1.39602 0
M  V30 10538 C 979.73 1.52059 -1.40305 0
M  V30 10539 C 980.145 1.888 0.00147921 0
M  V30 10540 O 979.502 1.54354 0.973715 0
M  V30 10541 C 979.553 2.80588 -2.27931 0
M  V30 10542 O 979.274 2.45406 -3.62915 0
M  V30 10543 C 980.775 3.74592 -2.37056 0
M  V30 10544 H 977.995 0.469787 -0.479104 0
M  V30 10545 H 980.539 0.903436 -1.83462 0
M  V30 10546 H 978.694 3.38626 -1.88178 0
M  V30 10547 H 979.108 3.27996 -4.09291 0
M  V30 10548 H 980.582 4.61662 -3.02609 0
M  V30 10549 H 981.059 4.16597 -1.39081 0
M  V30 10550 H 981.665 3.22471 -2.77295 0
M  V30 10551 N 979.98 1.24838 0.961938 0
M  V30 10552 C 981.396 1.01502 1.23165 0
M  V30 10553 C 981.596 -0.272651 1.99647 0
M  V30 10554 O 980.652 -0.987297 2.32398 0
M  V30 10555 C 981.965 2.23366 2.01316 0
M  V30 10556 C 983.513 2.28051 2.14387 0
M  V30 10557 C 983.988 3.49552 2.95935 0
M  V30 10558 N 985.479 3.49904 3.03515 0
M  V30 10559 C 986.214 4.40577 3.66987 0
M  V30 10560 N 985.71 5.41512 4.3213 0
M  V30 10561 N 987.503 4.28275 3.64056 0
M  V30 10562 H 979.654 2.07576 0.450086 0
M  V30 10563 H 981.917 0.911205 0.261551 0
M  V30 10564 H 981.623 3.16913 1.5251 0
M  V30 10565 H 981.497 2.25949 3.02038 0
M  V30 10566 H 983.884 1.35032 2.62393 0
M  V30 10567 H 983.965 2.29491 1.12994 0
M  V30 10568 H 983.609 4.42889 2.4862 0
M  V30 10569 H 983.539 3.45357 3.97538 0
M  V30 10570 H 986.03 2.76885 2.57183 0
M  V30 10571 H 986.343 6.06924 4.78396 0
M  V30 10572 H 984.688 5.45393 4.3078 0
M  V30 10573 H 987.879 3.48653 3.12344 0
M  V30 10574 H 988.052 4.99138 4.13237 0
M  V30 10575 N 981.458 -1.16348 1.06306 0
M  V30 10576 C 982.388 -2.2291 0.695234 0
M  V30 10577 C 983.369 -1.67208 -0.312343 0
M  V30 10578 O 984.554 -1.93293 -0.187442 0
M  V30 10579 C 981.684 -3.47205 0.0810149 0
M  V30 10580 C 980.638 -4.15801 1.01458 0
M  V30 10581 C 979.964 -5.3405 0.263656 0
M  V30 10582 C 981.264 -4.66766 2.34365 0
M  V30 10583 H 982.958 -2.53934 1.58613 0
M  V30 10584 H 980.504 -1.22056 0.76409 0
M  V30 10585 H 982.457 -4.2098 -0.18818 0
M  V30 10586 H 981.181 -3.15482 -0.844897 0
M  V30 10587 H 979.84 -3.43954 1.26852 0
M  V30 10588 H 979.488 -4.9858 -0.665378 0
M  V30 10589 H 979.188 -5.80885 0.88582 0
M  V30 10590 H 980.712 -6.106 0.00200994 0
M  V30 10591 H 982.126 -5.3212 2.13356 0
M  V30 10592 H 980.523 -5.24223 2.9208 0
M  V30 10593 H 981.593 -3.82969 2.97426 0
M  V30 10594 N 982.937 -0.845659 -1.3299 0
M  V30 10595 C 984.186 -0.440928 -1.96822 0
M  V30 10596 C 984.499 1.00668 -1.67706 0
M  V30 10597 O 985.705 1.51641 -2.25205 0
M  V30 10598 C 984.161 -0.73752 -3.52262 0
M  V30 10599 C 983.769 -2.20026 -3.90247 0
M  V30 10600 C 985.513 -0.400072 -4.22611 0
M  V30 10601 C 983.42 -2.44054 -5.38694 0
M  V30 10602 H 982.35 -0.161148 -0.736578 0
M  V30 10603 H 985.001 -1.03519 -1.51513 0
M  V30 10604 H 983.383 -0.0728025 -3.95933 0
M  V30 10605 H 984.557 -2.90602 -3.57613 0
M  V30 10606 H 982.872 -2.50135 -3.32899 0
M  V30 10607 H 985.469 -0.557136 -5.3179 0
M  V30 10608 H 985.812 0.657547 -4.11074 0
M  V30 10609 H 986.345 -1.0203 -3.84493 0
M  V30 10610 H 983.084 -3.48407 -5.55241 0
M  V30 10611 H 982.604 -1.78047 -5.72765 0
M  V30 10612 H 984.283 -2.27549 -6.05665 0
M  V30 10613 N 984.415 1.45619 -0.602734 0
M  V30 10614 C 985.831 1.57368 -0.26599 0
M  V30 10615 C 986.031 1.59485 1.23154 0
M  V30 10616 O 985.087 1.52254 2.01432 0
M  V30 10617 C 986.4 2.85863 -0.932881 0
M  V30 10618 C 987.948 2.9953 -0.908344 0
M  V30 10619 C 988.423 4.30789 -1.55515 0
M  V30 10620 N 989.914 4.37536 -1.52042 0
M  V30 10621 C 990.649 5.37758 -1.99008 0
M  V30 10622 N 990.145 6.44544 -2.54038 0
M  V30 10623 N 991.938 5.29085 -1.89805 0
M  V30 10624 H 984.089 1.42489 -1.57514 0
M  V30 10625 H 986.352 0.680948 -0.659556 0
M  V30 10626 H 986.058 2.90183 -1.98713 0
M  V30 10627 H 985.932 3.74467 -0.453209 0
M  V30 10628 H 988.319 2.9478 0.137344 0
M  V30 10629 H 988.4 2.12349 -1.42623 0
M  V30 10630 H 988.044 4.36297 -2.60014 0
M  V30 10631 H 987.974 5.16778 -1.01232 0
M  V30 10632 H 990.465 3.60972 -1.11837 0
M  V30 10633 H 990.778 7.17258 -2.87682 0
M  V30 10634 H 989.123 6.45308 -2.58075 0
M  V30 10635 H 992.314 4.44566 -1.46556 0
M  V30 10636 H 992.487 6.07043 -2.26722 0
M  V30 10637 N 985.893 0.34162 1.53853 0
M  V30 10638 C 986.803 -0.524555 2.2866 0
M  V30 10639 C 987.819 -1.1136 1.33697 0
M  V30 10640 O 988.995 -1.1297 1.66732 0
M  V30 10641 C 986.06 -1.66065 3.04341 0
M  V30 10642 C 985.121 -1.10158 4.14926 0
M  V30 10643 C 984.354 -2.18353 4.86988 0
M  V30 10644 O 984.577 -3.39038 4.58704 0
M  V30 10645 O 983.511 -1.82756 5.73484 0
M  V30 10646 H 987.337 0.0835014 3.03585 0
M  V30 10647 H 984.922 0.106727 1.49018 0
M  V30 10648 H 986.804 -2.3217 3.51674 0
M  V30 10649 H 985.479 -2.25456 2.32275 0
M  V30 10650 H 984.386 -0.405109 3.719 0
M  V30 10651 H 985.719 -0.552567 4.89088 0
M  V30 10652 N 987.371 -1.57444 0.0701946 0
M  V30 10653 C 988.334 -2.11511 -0.882923 0
M  V30 10654 C 989.334 -1.03879 -1.22743 0
M  V30 10655 O 990.524 -1.29874 -1.16097 0
M  V30 10656 C 987.656 -2.61514 -2.18686 0
M  V30 10657 H 988.849 -2.9703 -0.413873 0
M  V30 10658 H 986.402 -1.55278 -0.178488 0
M  V30 10659 H 987.137 -1.79443 -2.70131 0
M  V30 10660 H 986.922 -3.40185 -1.94978 0
M  V30 10661 H 988.412 -3.03425 -2.86919 0
M  V30 10662 N 988.849 0.203349 -1.56283 0
M  V30 10663 C 990.098 0.92315 -1.79334 0
M  V30 10664 C 990.411 1.84765 -0.641977 0
M  V30 10665 O 991.617 2.60745 -0.756584 0
M  V30 10666 C 990.073 1.69184 -3.17655 0
M  V30 10667 C 989.681 0.812581 -4.40569 0
M  V30 10668 C 991.425 2.40177 -3.50022 0
M  V30 10669 C 989.332 1.57967 -5.69913 0
M  V30 10670 H 988.262 0.348442 -0.668659 0
M  V30 10671 H 990.913 0.1766 -1.82648 0
M  V30 10672 H 989.295 2.48197 -3.08568 0
M  V30 10673 H 990.469 0.0616956 -4.60759 0
M  V30 10674 H 988.784 0.21389 -4.1585 0
M  V30 10675 H 991.381 2.98103 -4.4389 0
M  V30 10676 H 991.724 3.13961 -2.73376 0
M  V30 10677 H 992.257 1.68138 -3.6052 0
M  V30 10678 H 988.996 0.884767 -6.49501 0
M  V30 10679 H 988.516 2.3047 -5.53754 0
M  V30 10680 H 990.195 2.13562 -6.10737 0
M  V30 10681 N 990.327 1.50405 0.470755 0
M  V30 10682 C 991.743 1.37838 0.804534 0
M  V30 10683 C 991.943 0.434743 1.96754 0
M  V30 10684 O 990.999 -0.122507 2.52203 0
M  V30 10685 C 992.312 2.79212 1.11629 0
M  V30 10686 C 993.86 2.88129 1.22272 0
M  V30 10687 C 994.335 4.30337 1.5676 0
M  V30 10688 N 995.826 4.3329 1.63751 0
M  V30 10689 C 996.561 5.4032 1.91942 0
M  V30 10690 N 996.057 6.57558 2.18151 0
M  V30 10691 N 997.85 5.27764 1.93446 0
M  V30 10692 H 990.001 2.10332 -0.295689 0
M  V30 10693 H 992.264 0.945429 -0.0697733 0
M  V30 10694 H 991.97 3.50103 0.334778 0
M  V30 10695 H 991.844 3.16475 2.0524 0
M  V30 10696 H 994.231 2.17457 1.9949 0
M  V30 10697 H 994.312 2.54409 0.2664 0
M  V30 10698 H 993.956 5.01547 0.800817 0
M  V30 10699 H 993.886 4.61545 2.53543 0
M  V30 10700 H 996.377 3.48752 1.45535 0
M  V30 10701 H 996.69 7.34935 2.38936 0
M  V30 10702 H 995.035 6.60732 2.15542 0
M  V30 10703 H 998.226 4.35169 1.72468 0
M  V30 10704 H 998.399 6.11264 2.15081 0
M  V30 10705 N 991.805 -0.723954 1.39988 0
M  V30 10706 C 992.715 -1.86829 1.41887 0
M  V30 10707 C 993.731 -1.71173 0.312401 0
M  V30 10708 O 994.907 -1.93583 0.555651 0
M  V30 10709 C 991.972 -3.22541 1.27154 0
M  V30 10710 C 991.033 -3.50512 2.47871 0
M  V30 10711 C 990.266 -4.79749 2.33831 0
M  V30 10712 O 990.489 -5.54251 1.34765 0
M  V30 10713 O 989.423 -5.07868 3.23039 0
M  V30 10714 H 993.249 -1.88183 2.38371 0
M  V30 10715 H 990.834 -0.873259 1.21221 0
M  V30 10716 H 992.716 -4.0362 1.21114 0
M  V30 10717 H 991.391 -3.21933 0.337715 0
M  V30 10718 H 990.298 -2.69475 2.59488 0
M  V30 10719 H 991.631 -3.55909 3.39985 0
M  V30 10720 N 993.283 -1.25346 -0.955304 0
M  V30 10721 C 994.699 -1.02154 -1.22625 0
M  V30 10722 C 994.899 0.26206 -1.99789 0
M  V30 10723 O 993.955 0.974958 -2.32918 0
M  V30 10724 C 995.268 -2.2443 -2.00129 0
M  V30 10725 C 996.816 -2.29185 -2.13174 0
M  V30 10726 C 997.291 -3.51117 -2.94077 0
M  V30 10727 N 998.782 -3.51509 -3.01655 0
M  V30 10728 C 999.517 -4.42517 -3.64645 0
M  V30 10729 N 999.013 -5.43796 -4.29252 0
M  V30 10730 N 1000.81 -4.302 -3.61779 0
M  V30 10731 H 992.957 -2.07812 -0.439071 0
M  V30 10732 H 995.22 -0.91258 -0.256715 0
M  V30 10733 H 994.926 -3.17717 -1.50827 0
M  V30 10734 H 994.8 -2.27548 -3.00835 0
M  V30 10735 H 997.187 -1.36422 -2.61674 0
M  V30 10736 H 997.268 -2.30087 -1.11775 0
M  V30 10737 H 996.912 -4.44201 -2.46268 0
M  V30 10738 H 996.842 -3.4746 -3.95701 0
M  V30 10739 H 999.333 -2.78245 -2.55711 0
M  V30 10740 H 999.646 -6.09453 -4.75171 0
M  V30 10741 H 997.991 -5.4767 -4.27882 0
M  V30 10742 H 1001.18 -3.50304 -3.10491 0
M  V30 10743 H 1001.36 -5.01323 -4.10584 0
M  V30 10744 N 994.761 1.15782 -1.06922 0
M  V30 10745 C 995.991 1.90079 -0.809545 0
M  V30 10746 C 996.399 1.78028 0.640523 0
M  V30 10747 O 995.742 1.12692 1.45073 0
M  V30 10748 C 995.804 3.41179 -1.13302 0
M  V30 10749 C 995.468 3.77015 -2.5828 0
M  V30 10750 C 996.465 3.78403 -3.56521 0
M  V30 10751 C 994.15 4.07455 -2.93745 0
M  V30 10752 C 996.144 4.09729 -4.88264 0
M  V30 10753 C 993.831 4.38446 -4.25686 0
M  V30 10754 C 994.829 4.39564 -5.22755 0
M  V30 10755 O 994.517 4.69814 -6.52326 0
M  V30 10756 H 994.249 0.609397 -0.292595 0
M  V30 10757 H 996.803 1.47654 -1.42784 0
M  V30 10758 H 995.033 3.83982 -0.457676 0
M  V30 10759 H 996.722 3.96759 -0.856586 0
M  V30 10760 H 997.488 3.54991 -3.30464 0
M  V30 10761 H 993.367 4.05746 -2.1884 0
M  V30 10762 H 996.911 4.10516 -5.64023 0
M  V30 10763 H 992.808 4.61325 -4.51497 0
M  V30 10764 H 993.576 4.87598 -6.57412 0
M  V30 10765 N 996.239 0.8527 1.3254 0
M  V30 10766 C 997.487 0.454224 1.96929 0
M  V30 10767 C 997.808 -0.993034 1.67821 0
M  V30 10768 O 997.078 -1.69371 0.984393 0
M  V30 10769 H 995.658 0.164977 0.728554 0
M  V30 10770 H 998.32 1.0887 1.61658 0
M  V30 10771 H 997.416 0.597667 3.06324 0
M  V30 10772 N 997.718 -1.45297 0.610449 0
M  V30 10773 C 998.648 -2.33311 -0.0939698 0
M  V30 10774 C 999.629 -1.46999 -0.85588 0
M  V30 10775 O 1000.81 -1.75764 -0.825865 0
M  V30 10776 C 997.944 -3.29751 -1.09003 0
M  V30 10777 C 996.898 -4.2572 -0.441146 0
M  V30 10778 C 996.224 -5.11873 -1.54566 0
M  V30 10779 C 997.524 -5.1837 0.639489 0
M  V30 10780 H 999.218 -2.92459 0.640941 0
M  V30 10781 H 996.764 -1.40631 0.309675 0
M  V30 10782 H 998.717 -3.90195 -1.59141 0
M  V30 10783 H 997.441 -2.68768 -1.85557 0
M  V30 10784 H 996.1 -3.66579 0.0393908 0
M  V30 10785 H 995.748 -4.47256 -2.30155 0
M  V30 10786 H 995.448 -5.76886 -1.11698 0
M  V30 10787 H 996.972 -5.75185 -2.04925 0
M  V30 10788 H 998.386 -5.7287 0.22207 0
M  V30 10789 H 996.783 -5.91876 0.990089 0
M  V30 10790 H 997.853 -4.60627 1.51495 0
M  V30 10791 N 999.196 -0.349774 -1.5367 0
M  V30 10792 C 1000.13 0.496338 -2.28164 0
M  V30 10793 C 1001.11 1.09737 -1.29968 0
M  V30 10794 O 1002.29 1.11759 -1.58819 0
M  V30 10795 C 999.422 1.64428 -3.0591 0
M  V30 10796 C 998.376 1.17127 -4.11661 0
M  V30 10797 C 997.702 2.40822 -4.77398 0
M  V30 10798 C 999.002 0.267293 -5.21616 0
M  V30 10799 H 1000.7 -0.125117 -2.99138 0
M  V30 10800 H 998.242 -0.0616152 -1.43868 0
M  V30 10801 H 1000.19 2.2427 -3.56765 0
M  V30 10802 H 998.919 2.29272 -2.32598 0
M  V30 10803 H 997.578 0.595634 -3.61729 0
M  V30 10804 H 997.226 3.04088 -4.00674 0
M  V30 10805 H 996.926 2.09852 -5.48849 0
M  V30 10806 H 998.45 3.01378 -5.3104 0
M  V30 10807 H 999.864 0.772734 -5.68068 0
M  V30 10808 H 998.261 0.0491991 -6.0008 0
M  V30 10809 H 999.331 -0.694892 -4.79895 0
M  V30 10810 N 1000.67 1.57404 -0.0785433 0
M  V30 10811 C 1002.08 1.81118 0.45311 0
M  V30 10812 C 1002.44 0.992963 1.69218 0
M  V30 10813 O 1001.56 0.217448 2.15305 0
M  V30 10814 C 1002.16 3.28506 0.82882 0
M  V30 10815 C 1000.71 3.53042 1.3053 0
M  V30 10816 C 999.862 2.75739 0.29378 0
M  V30 10817 H 1002.81 1.55758 -0.304171 0
M  V30 10818 H 1002.83 3.40924 1.68971 0
M  V30 10819 H 1002.35 3.88031 -0.0731826 0
M  V30 10820 H 1000.45 2.98829 2.22558 0
M  V30 10821 H 1000.56 4.61724 1.27857 0
M  V30 10822 H 998.924 2.42703 0.772477 0
M  V30 10823 H 999.707 3.38005 -0.600613 0
M  V30 10824 N 1002.15 -0.195058 1.56388 0
M  V30 10825 C 1003.38 -0.930291 1.8447 0
M  V30 10826 C 1003.79 -1.77356 0.658901 0
M  V30 10827 O 1003.13 -1.79691 -0.381664 0
M  V30 10828 C 1003.19 -1.87626 3.06654 0
M  V30 10829 C 1002.86 -1.21494 4.40555 0
M  V30 10830 C 1003.86 -0.591847 5.1652 0
M  V30 10831 C 1001.54 -1.21878 4.8729 0
M  V30 10832 C 1003.53 0.0185743 6.37397 0
M  V30 10833 C 1001.22 -0.604524 6.08103 0
M  V30 10834 C 1002.22 0.0130731 6.82999 0
M  V30 10835 O 1001.91 0.617703 8.01523 0
M  V30 10836 H 1001.64 -0.276933 0.616672 0
M  V30 10837 H 1004.19 -0.207277 2.04351 0
M  V30 10838 H 1002.42 -2.63897 2.82658 0
M  V30 10839 H 1004.11 -2.47929 3.21382 0
M  V30 10840 H 1004.88 -0.581018 4.81507 0
M  V30 10841 H 1000.76 -1.68888 4.2895 0
M  V30 10842 H 1004.3 0.50124 6.95797 0
M  V30 10843 H 1000.2 -0.612855 6.42584 0
M  V30 10844 H 1000.97 0.514612 8.16881 0
M  V30 10845 N 1003.63 -1.50653 -0.462772 0
M  V30 10846 C 1004.88 -1.63264 -1.21311 0
M  V30 10847 C 1005.23 -0.332647 -1.89503 0
M  V30 10848 O 1004.52 0.669994 -1.79504 0
M  V30 10849 C 1004.72 -2.75637 -2.27507 0
M  V30 10850 C 1004.55 -4.16438 -1.69734 0
M  V30 10851 C 1003.32 -4.82727 -1.49341 0
M  V30 10852 C 1005.51 -5.00399 -1.18765 0
M  V30 10853 N 1003.5 -6.07718 -0.868991 0
M  V30 10854 C 1004.87 -6.16182 -0.68697 0
M  V30 10855 C 1006.92 -4.86112 -1.07699 0
M  V30 10856 C 1005.63 -7.19248 -0.0865268 0
M  V30 10857 C 1007.65 -5.89363 -0.490473 0
M  V30 10858 C 1007.01 -7.044 -0.000208479 0
M  V30 10859 H 1003.11 -0.651518 -0.432491 0
M  V30 10860 H 1005.7 -1.878 -0.51375 0
M  V30 10861 H 1003.87 -2.52809 -2.9486 0
M  V30 10862 H 1005.6 -2.77562 -2.94519 0
M  V30 10863 H 1002.35 -4.40161 -1.74801 0
M  V30 10864 H 1002.78 -6.74554 -0.574957 0
M  V30 10865 H 1007.42 -3.97452 -1.44194 0
M  V30 10866 H 1005.14 -8.07577 0.290614 0
M  V30 10867 H 1008.72 -5.80374 -0.407099 0
M  V30 10868 H 1007.6 -7.82928 0.44652 0
M  V30 10869 N 1005.11 0.71652 -1.4037 0
M  V30 10870 C 1006.34 1.50344 -1.41704 0
M  V30 10871 C 1006.75 1.89194 -0.0148011 0
M  V30 10872 O 1006.09 1.55916 0.971391 0
M  V30 10873 C 1006.15 2.80928 -2.2432 0
M  V30 10874 C 1005.82 2.64406 -3.72744 0
M  V30 10875 C 1006.81 2.31727 -4.65401 0
M  V30 10876 C 1004.5 2.807 -4.16549 0
M  V30 10877 C 1006.49 2.15551 -5.99847 0
M  V30 10878 C 1004.18 2.64141 -5.51065 0
M  V30 10879 C 1005.18 2.31614 -6.42529 0
M  V30 10880 O 1004.86 2.15179 -7.74566 0
M  V30 10881 H 1004.6 0.470574 -0.48532 0
M  V30 10882 H 1007.15 0.89152 -1.85043 0
M  V30 10883 H 1005.38 3.4445 -1.75759 0
M  V30 10884 H 1007.07 3.4264 -2.17607 0
M  V30 10885 H 1007.84 2.18773 -4.32855 0
M  V30 10886 H 1003.71 3.05005 -3.45677 0
M  V30 10887 H 1007.26 1.90084 -6.71203 0
M  V30 10888 H 1003.16 2.76679 -5.83197 0
M  V30 10889 H 1003.92 2.30106 -7.85489 0
M  V30 10890 N 1006.59 1.25851 0.948643 0
M  V30 10891 C 1007.81 1.13813 1.73382 0
M  V30 10892 C 1008.24 -0.303615 1.85633 0
M  V30 10893 O 1007.59 -1.21997 1.34114 0
M  V30 10894 C 1007.64 1.80388 3.12238 0
M  V30 10895 O 1006.75 1.08759 3.978 0
M  V30 10896 H 1006.09 0.397006 0.532243 0
M  V30 10897 H 1008.62 1.66529 1.18866 0
M  V30 10898 H 1008.63 1.86913 3.62667 0
M  V30 10899 H 1007.3 2.85278 3.02637 0
M  V30 10900 H 1005.88 1.10157 3.56258 0
M  V30 10901 N 1008.06 -1.15214 1.07534 0
M  V30 10902 C 1008.99 -2.2216 0.718837 0
M  V30 10903 C 1009.98 -1.6753 -0.29459 0
M  V30 10904 O 1011.16 -1.93481 -0.166931 0
M  V30 10905 C 1008.29 -3.471 0.117836 0
M  V30 10906 C 1007.24 -4.14701 1.05862 0
M  V30 10907 C 1006.57 -5.3374 0.320284 0
M  V30 10908 C 1007.87 -4.64254 2.39302 0
M  V30 10909 H 1009.56 -2.52237 1.61297 0
M  V30 10910 H 1007.11 -1.21239 0.776992 0
M  V30 10911 H 1009.06 -4.21156 -0.143519 0
M  V30 10912 H 1007.79 -3.16361 -0.811389 0
M  V30 10913 H 1006.45 -3.42589 1.30493 0
M  V30 10914 H 1006.09 -4.99257 -0.61246 0
M  V30 10915 H 1005.79 -5.79912 0.947381 0
M  V30 10916 H 1007.32 -6.10563 0.0667721 0
M  V30 10917 H 1008.73 -5.29827 2.18988 0
M  V30 10918 H 1007.13 -5.21095 2.97623 0
M  V30 10919 H 1008.2 -3.79793 3.01472 0
M  V30 10920 N 1009.54 -0.859717 -1.32086 0
M  V30 10921 C 1010.79 -0.465581 -1.97075 0
M  V30 10922 C 1011.12 0.979917 -1.68012 0
M  V30 10923 O 1010.37 1.70337 -0.96353 0
M  V30 10924 C 1010.67 -0.657397 -3.51302 0
M  V30 10925 C 1010.34 -2.07413 -4.00363 0
M  V30 10926 C 1009 -2.4616 -4.13472 0
M  V30 10927 C 1011.35 -2.99855 -4.26305 0
M  V30 10928 C 1008.68 -3.76611 -4.49868 0
M  V30 10929 C 1011.03 -4.2981 -4.64161 0
M  V30 10930 C 1009.7 -4.68485 -4.75476 0
M  V30 10931 H 1008.97 -0.170368 -0.721149 0
M  V30 10932 H 1011.61 -1.09074 -1.57401 0
M  V30 10933 H 1009.92 0.0509638 -3.91767 0
M  V30 10934 H 1011.61 -0.332416 -3.9962 0
M  V30 10935 H 1008.2 -1.76327 -3.90649 0
M  V30 10936 H 1012.39 -2.7115 -4.15682 0
M  V30 10937 H 1007.64 -4.06352 -4.56824 0
M  V30 10938 H 1011.82 -5.015 -4.83188 0
M  V30 10939 H 1009.45 -5.69612 -5.03435 0
M  V30 10940 N 1011.02 1.44971 -0.618145 0
M  V30 10941 C 1012.25 2.06228 -0.123985 0
M  V30 10942 C 1012.66 1.46166 1.20134 0
M  V30 10943 O 1012 0.574099 1.74499 0
M  V30 10944 C 1012.06 3.59413 0.0789098 0
M  V30 10945 C 1011.73 4.41869 -1.16624 0
M  V30 10946 C 1012.72 4.76177 -2.0869 0
M  V30 10947 C 1010.41 4.82453 -1.39802 0
M  V30 10948 C 1012.4 5.49938 -3.22254 0
M  V30 10949 C 1010.09 5.55965 -2.53665 0
M  V30 10950 C 1011.09 5.89626 -3.44718 0
M  V30 10951 O 1010.78 6.61644 -4.56598 0
M  V30 10952 H 1010.51 0.672274 -0.0708822 0
M  V30 10953 H 1013.06 1.87038 -0.848868 0
M  V30 10954 H 1011.29 3.77043 0.8588 0
M  V30 10955 H 1012.98 4.02478 0.52599 0
M  V30 10956 H 1013.75 4.45372 -1.92012 0
M  V30 10957 H 1009.63 4.55681 -0.698245 0
M  V30 10958 H 1013.17 5.76129 -3.93347 0
M  V30 10959 H 1009.07 5.86185 -2.70291 0
M  V30 10960 H 1009.84 6.80103 -4.55414 0
M  V30 10961 N 1012.5 0.357919 1.53482 0
M  V30 10962 C 1013.45 -0.50845 2.22258 0
M  V30 10963 C 1014.43 -1.05476 1.21506 0
M  V30 10964 O 1015.62 -0.986075 1.46988 0
M  V30 10965 C 1012.75 -1.65157 3.00962 0
M  V30 10966 C 1011.84 -1.11851 4.09084 0
M  V30 10967 N 1012.23 -0.307818 5.04862 0
M  V30 10968 C 1010.53 -1.39405 4.23653 0
M  V30 10969 C 1011.23 -0.016842 5.81698 0
M  V30 10970 N 1010.21 -0.612396 5.40139 0
M  V30 10971 H 1014.01 0.117836 2.93664 0
M  V30 10972 H 1011.52 0.16553 1.61554 0
M  V30 10973 H 1013.52 -2.28435 3.48745 0
M  V30 10974 H 1012.18 -2.281 2.31086 0
M  V30 10975 H 1013.19 0.0523313 5.17874 0
M  V30 10976 H 1009.87 -2.02682 3.65002 0
M  V30 10977 H 1011.26 0.638046 6.68864 0
M  V30 10978 N 1013.98 -1.5736 0.0868897 0
M  V30 10979 C 1014.94 -2.12436 -0.860439 0
M  V30 10980 C 1015.94 -1.05175 -1.21634 0
M  V30 10981 O 1017.13 -1.31098 -1.14713 0
M  V30 10982 C 1014.26 -2.63818 -2.159 0
M  V30 10983 H 1015.45 -2.97453 -0.382346 0
M  V30 10984 H 1013.01 -1.55458 -0.162009 0
M  V30 10985 H 1013.74 -1.82298 -2.68212 0
M  V30 10986 H 1013.53 -3.42234 -1.91359 0
M  V30 10987 H 1015.02 -3.06452 -2.83685 0
M  V30 10988 N 1015.45 0.186762 -1.56489 0
M  V30 10989 C 1016.4 1.2357 -1.9161 0
M  V30 10990 C 1017.39 1.4058 -0.782686 0
M  V30 10991 O 1018.58 1.42811 -1.04566 0
M  V30 10992 C 1015.71 2.57865 -2.26628 0
M  V30 10993 C 1014.8 2.44613 -3.46447 0
M  V30 10994 N 1015.19 2.01052 -4.64125 0
M  V30 10995 C 1013.48 2.75483 -3.50749 0
M  V30 10996 C 1014.19 1.99891 -5.46277 0
M  V30 10997 N 1013.16 2.41711 -4.86905 0
M  V30 10998 H 1016.96 0.890359 -2.80089 0
M  V30 10999 H 1014.48 0.395144 -1.57519 0
M  V30 11000 H 1016.47 3.33642 -2.49977 0
M  V30 11001 H 1015.13 2.93215 -1.39481 0
M  V30 11002 H 1016.15 1.7163 -4.88634 0
M  V30 11003 H 1012.82 3.14974 -2.7404 0
M  V30 11004 H 1014.21 1.68042 -6.50547 0
M  V30 11005 N 1016.93 1.50896 0.454776 0
M  V30 11006 C 1018.18 1.6294 1.20741 0
M  V30 11007 C 1018.51 0.336339 1.91265 0
M  V30 11008 O 1017.79 -0.663153 1.82846 0
M  V30 11009 C 1018.07 2.82092 2.23822 0
M  V30 11010 C 1017.92 4.21326 1.57495 0
M  V30 11011 C 1019.24 2.96777 3.24979 0
M  V30 11012 H 1016.36 0.59302 0.437603 0
M  V30 11013 H 1019 1.83331 0.498959 0
M  V30 11014 H 1017.15 2.64837 2.84243 0
M  V30 11015 H 1018.82 4.50209 1.00546 0
M  V30 11016 H 1017.07 4.24829 0.877664 0
M  V30 11017 H 1017.74 5.00656 2.32482 0
M  V30 11018 H 1020.21 3.12627 2.74597 0
M  V30 11019 H 1019.09 3.81742 3.94416 0
M  V30 11020 H 1019.35 2.08091 3.90065 0
M  V30 11021 N 1018.41 -0.709066 1.40748 0
M  V30 11022 C 1019.37 -1.80485 1.41272 0
M  V30 11023 C 1020.37 -1.57872 0.305463 0
M  V30 11024 O 1021.56 -1.64793 0.564691 0
M  V30 11025 C 1018.7 -3.1867 1.21087 0
M  V30 11026 H 1019.89 -1.81417 2.38805 0
M  V30 11027 H 1017.44 -0.915356 1.26692 0
M  V30 11028 H 1018.18 -3.23385 0.243406 0
M  V30 11029 H 1017.96 -3.36484 2.01299 0
M  V30 11030 H 1019.45 -3.98685 1.24257 0
M  V30 11031 N 1019.89 -1.26353 -0.941956 0
M  V30 11032 C 1021.11 -1.14731 -1.72776 0
M  V30 11033 C 1021.54 0.293766 -1.85792 0
M  V30 11034 O 1020.9 1.21284 -1.34759 0
M  V30 11035 C 1020.95 -1.82041 -3.11277 0
M  V30 11036 O 1020.05 -1.10867 -3.97218 0
M  V30 11037 H 1019.39 -0.399823 -0.53013 0
M  V30 11038 H 1021.92 -1.67157 -1.17981 0
M  V30 11039 H 1021.93 -1.88834 -3.61671 0
M  V30 11040 H 1020.61 -2.86879 -3.0112 0
M  V30 11041 H 1019.18 -1.12044 -3.55669 0
M  V30 11042 N 1021.37 1.14642 -1.08144 0
M  V30 11043 C 1022.3 2.19283 -0.6669 0
M  V30 11044 C 1023.31 1.60292 0.284668 0
M  V30 11045 O 1024.5 1.78352 0.0727383 0
M  V30 11046 C 1021.6 3.38877 0.0398572 0
M  V30 11047 C 1020.77 4.274 -0.929929 0
M  V30 11048 C 1019.83 5.25562 -0.258991 0
M  V30 11049 O 1018.86 5.61999 -0.902563 0
M  V30 11050 N 1020.06 5.71958 0.992177 0
M  V30 11051 H 1022.83 2.55464 -1.5671 0
M  V30 11052 H 1020.39 1.29836 -0.96717 0
M  V30 11053 H 1022.38 4.01605 0.499583 0
M  V30 11054 H 1020.95 3.01043 0.842118 0
M  V30 11055 H 1020.17 3.61649 -1.56857 0
M  V30 11056 H 1021.46 4.83411 -1.58717 0
M  V30 11057 H 1020.86 5.44481 1.53484 0
M  V30 11058 H 1019.41 6.36687 1.39544 0
M  V30 11059 N 1022.85 0.866709 1.31628 0
M  V30 11060 C 1024.26 0.529032 1.79048 0
M  V30 11061 C 1024.61 -0.953871 1.71452 0
M  V30 11062 O 1023.73 -1.74462 1.28031 0
M  V30 11063 C 1024.33 0.953522 3.25105 0
M  V30 11064 C 1022.89 0.667554 3.70433 0
M  V30 11065 C 1022.03 1.14664 2.52483 0
M  V30 11066 H 1024.98 1.05275 1.18756 0
M  V30 11067 H 1025.01 0.274844 3.79506 0
M  V30 11068 H 1024.52 2.03283 3.30602 0
M  V30 11069 H 1022.62 -0.400532 3.70441 0
M  V30 11070 H 1022.73 1.2423 4.62714 0
M  V30 11071 H 1021.1 0.566502 2.4832 0
M  V30 11072 H 1021.88 2.2333 2.60727 0
M  V30 11073 N 1024.32 -1.44642 0.625825 0
M  V30 11074 C 1025.57 -2.02393 0.128391 0
M  V30 11075 C 1025.9 -1.49075 -1.2446 0
M  V30 11076 O 1025.18 -0.672684 -1.82497 0
M  V30 11077 C 1025.46 -3.59934 0.109279 0
M  V30 11078 C 1025.31 -4.23546 1.51423 0
M  V30 11079 C 1026.63 -4.36406 -0.568985 0
M  V30 11080 H 1023.75 -0.735427 0.0481299 0
M  V30 11081 H 1026.39 -1.72277 0.801286 0
M  V30 11082 H 1024.54 -3.85722 -0.463726 0
M  V30 11083 H 1026.22 -4.08882 2.13572 0
M  V30 11084 H 1024.46 -3.81245 2.06966 0
M  V30 11085 H 1025.13 -5.32535 1.45294 0
M  V30 11086 H 1027.61 -4.1602 -0.0817516 0
M  V30 11087 H 1026.48 -5.46122 -0.551527 0
M  V30 11088 H 1026.74 -4.1062 -1.6384 0
M  V30 11089 N 1025.8 -0.366053 -1.5329 0
M  V30 11090 C 1026.73 0.523781 -2.22108 0
M  V30 11091 C 1027.71 1.08262 -1.21318 0
M  V30 11092 O 1028.9 1.13866 -1.50222 0
M  V30 11093 C 1026.02 1.72273 -2.91616 0
M  V30 11094 C 1025.07 1.29129 -4.06482 0
M  V30 11095 S 1025.9 0.292195 -5.34702 0
M  V30 11096 C 1027.06 1.49746 -6.07723 0
M  V30 11097 H 1027.29 -0.0606687 -2.97238 0
M  V30 11098 H 1024.82 -0.15016 -1.53668 0
M  V30 11099 H 1026.78 2.41045 -3.32277 0
M  V30 11100 H 1025.44 2.27843 -2.16209 0
M  V30 11101 H 1024.64 2.18583 -4.54134 0
M  V30 11102 H 1024.24 0.682783 -3.67715 0
M  V30 11103 H 1026.53 2.4284 -6.32483 0
M  V30 11104 H 1027.47 1.06232 -7.00086 0
M  V30 11105 H 1027.88 1.70373 -5.38176 0
M  V30 11106 N 1027.28 1.57312 -0.0952337 0
M  V30 11107 C 1028.7 1.57445 0.261416 0
M  V30 11108 C 1028.9 1.10639 1.68408 0
M  V30 11109 O 1027.95 0.782912 2.40056 0
M  V30 11110 C 1029.26 3.00659 0.0497206 0
M  V30 11111 C 1030.81 3.1278 0.117459 0
M  V30 11112 C 1031.29 4.57952 -0.0662441 0
M  V30 11113 N 1032.78 4.63199 -0.0114146 0
M  V30 11114 C 1033.51 5.73255 -0.128799 0
M  V30 11115 N 1033.01 6.92146 -0.301026 0
M  V30 11116 N 1034.8 5.62056 -0.0700599 0
M  V30 11117 H 1026.95 1.86045 -1.02475 0
M  V30 11118 H 1029.22 0.858726 -0.401614 0
M  V30 11119 H 1028.92 3.39102 -0.932888 0
M  V30 11120 H 1028.8 3.68792 0.791975 0
M  V30 11121 H 1031.18 2.74209 1.09057 0
M  V30 11122 H 1031.26 2.47238 -0.656288 0
M  V30 11123 H 1030.91 4.97217 -1.03623 0
M  V30 11124 H 1030.84 5.21555 0.727198 0
M  V30 11125 H 1033.33 3.77712 0.119154 0
M  V30 11126 H 1033.64 7.71855 -0.382104 0
M  V30 11127 H 1031.99 6.94184 -0.336695 0
M  V30 11128 H 1035.18 4.68057 0.0633587 0
M  V30 11129 H 1035.35 6.4779 -0.164991 0
M  V30 11130 N 1028.76 -0.17846 1.56586 0
M  V30 11131 C 1030.17 -0.741599 1.71339 0
M  V30 11132 C 1030.52 -1.83112 0.704579 0
M  V30 11133 O 1029.64 -2.15975 -0.135557 0
M  V30 11134 C 1030.24 -1.35198 3.10656 0
M  V30 11135 C 1028.8 -1.86202 3.27118 0
M  V30 11136 C 1027.95 -0.738255 2.67292 0
M  V30 11137 H 1030.9 0.0468424 1.58631 0
M  V30 11138 H 1030.92 -2.2216 3.0891 0
M  V30 11139 H 1030.43 -0.558776 3.84056 0
M  V30 11140 H 1028.53 -2.68188 2.58661 0
M  V30 11141 H 1028.64 -2.01237 4.34788 0
M  V30 11142 H 1027.01 -1.15686 2.26912 0
M  V30 11143 H 1027.79 0.0429821 3.43273 0
M  V30 11144 N 1030.24 -1.51135 -0.446768 0
M  V30 11145 C 1031.17 -1.74709 -1.54916 0
M  V30 11146 C 1032.15 -0.596628 -1.59293 0
M  V30 11147 O 1033.33 -0.838356 -1.75172 0
M  V30 11148 C 1030.46 -1.86353 -2.9307 0
M  V30 11149 C 1029.42 -3.01725 -3.03556 0
M  V30 11150 C 1028.74 -2.9854 -4.43597 0
M  V30 11151 C 1030.04 -4.41848 -2.7851 0
M  V30 11152 H 1031.74 -2.67014 -1.3544 0
M  V30 11153 H 1029.28 -1.28489 -0.650131 0
M  V30 11154 H 1031.23 -2.01428 -3.70141 0
M  V30 11155 H 1029.96 -0.906887 -3.13756 0
M  V30 11156 H 1028.62 -2.86339 -2.28922 0
M  V30 11157 H 1028.27 -2.00673 -4.61237 0
M  V30 11158 H 1027.97 -3.76008 -4.51544 0
M  V30 11159 H 1029.49 -3.15696 -5.22655 0
M  V30 11160 H 1030.9 -4.57633 -3.45319 0
M  V30 11161 H 1029.3 -5.2095 -2.97877 0
M  V30 11162 H 1030.37 -4.52536 -1.74182 0
M  V30 11163 N 1031.71 0.701592 -1.41122 0
M  V30 11164 C 1032.96 1.46245 -1.41364 0
M  V30 11165 C 1033.31 1.9239 -0.0200662 0
M  V30 11166 O 1032.61 1.6622 0.952971 0
M  V30 11167 C 1032.8 2.693 -2.34973 0
M  V30 11168 C 1032.63 2.35193 -3.83294 0
M  V30 11169 C 1031.4 2.2585 -4.52018 0
M  V30 11170 C 1033.6 1.98555 -4.74426 0
M  V30 11171 N 1031.58 1.84565 -5.85499 0
M  V30 11172 C 1032.95 1.67981 -5.9681 0
M  V30 11173 C 1035.01 1.85313 -4.62129 0
M  V30 11174 C 1033.71 1.25496 -7.08268 0
M  V30 11175 C 1035.74 1.44232 -5.73543 0
M  V30 11176 C 1035.1 1.14564 -6.95021 0
M  V30 11177 H 1031.2 0.532679 -0.572518 0
M  V30 11178 H 1033.78 0.812296 -1.76946 0
M  V30 11179 H 1031.95 3.32045 -2.01496 0
M  V30 11180 H 1033.68 3.35734 -2.25976 0
M  V30 11181 H 1030.44 2.4405 -4.05878 0
M  V30 11182 H 1030.86 1.66421 -6.56226 0
M  V30 11183 H 1035.5 2.06905 -3.68714 0
M  V30 11184 H 1033.22 1.02647 -8.01554 0
M  V30 11185 H 1036.81 1.34544 -5.66029 0
M  V30 11186 H 1035.69 0.832556 -7.79768 0
M  V30 11187 N 1033.19 1.2685 0.935242 0
M  V30 11188 C 1034.44 1.12912 1.6846 0
M  V30 11189 C 1034.77 -0.325708 1.91449 0
M  V30 11190 O 1034.05 -1.23884 1.49944 0
M  V30 11191 C 1034.33 1.90513 3.05576 0
M  V30 11192 C 1034.18 3.43936 2.89876 0
M  V30 11193 C 1035.5 1.70363 4.05789 0
M  V30 11194 H 1032.62 0.411559 0.611382 0
M  V30 11195 H 1035.26 1.55917 1.08582 0
M  V30 11196 H 1033.41 1.53963 3.5669 0
M  V30 11197 H 1035.08 3.90272 2.45939 0
M  V30 11198 H 1033.33 3.70659 2.25376 0
M  V30 11199 H 1034 3.93467 3.87153 0
M  V30 11200 H 1036.47 2.02217 3.63659 0
M  V30 11201 H 1035.35 2.27066 4.99732 0
M  V30 11202 H 1035.61 0.649674 4.373 0
M  V30 11203 N 1034.67 -1.14067 1.0875 0
M  V30 11204 C 1035.58 -2.22871 0.732498 0
M  V30 11205 C 1036.6 -1.72008 -0.26253 0
M  V30 11206 O 1037.77 -2.01123 -0.105601 0
M  V30 11207 C 1034.84 -3.46371 0.150913 0
M  V30 11208 C 1033.9 -4.12158 1.201 0
M  V30 11209 C 1033.13 -5.29763 0.647075 0
M  V30 11210 O 1033.35 -5.67911 -0.532307 0
M  V30 11211 O 1032.29 -5.8542 1.3988 0
M  V30 11212 H 1036.11 -2.55596 1.64025 0
M  V30 11213 H 1033.7 -1.22065 0.861417 0
M  V30 11214 H 1035.58 -4.21055 -0.170442 0
M  V30 11215 H 1034.26 -3.15362 -0.729948 0
M  V30 11216 H 1033.16 -3.39332 1.57494 0
M  V30 11217 H 1034.5 -4.47282 2.05426 0
M  V30 11218 N 1036.15 -0.873678 -1.31166 0
M  V30 11219 C 1037.4 -0.486457 -1.9657 0
M  V30 11220 C 1037.72 0.962042 -1.69041 0
M  V30 11221 O 1036.98 1.69305 -0.981543 0
M  V30 11222 C 1037.28 -0.69462 -3.50585 0
M  V30 11223 C 1036.94 -2.11647 -3.98141 0
M  V30 11224 C 1035.61 -2.50531 -4.10838 0
M  V30 11225 C 1037.96 -3.0436 -4.23101 0
M  V30 11226 C 1035.29 -3.81361 -4.45848 0
M  V30 11227 C 1037.64 -4.34709 -4.59577 0
M  V30 11228 C 1036.3 -4.73502 -4.70481 0
M  V30 11229 H 1035.57 -0.178007 -0.719301 0
M  V30 11230 H 1038.22 -1.10737 -1.56235 0
M  V30 11231 H 1036.52 0.00940878 -3.91799 0
M  V30 11232 H 1038.22 -0.374782 -3.99245 0
M  V30 11233 H 1034.81 -1.8046 -3.88757 0
M  V30 11234 H 1038.99 -2.75544 -4.12782 0
M  V30 11235 H 1034.25 -4.11174 -4.52488 0
M  V30 11236 H 1038.42 -5.06596 -4.77842 0
M  V30 11237 H 1036.05 -5.74919 -4.97365 0
M  V30 11238 N 1037.63 1.44308 -0.633487 0
M  V30 11239 C 1039.04 1.85387 -0.221009 0
M  V30 11240 C 1039.39 1.5301 1.22811 0
M  V30 11241 O 1038.51 0.969325 1.93476 0
M  V30 11242 C 1039.11 3.36497 -0.394331 0
M  V30 11243 C 1037.67 3.76382 -0.0363405 0
M  V30 11244 C 1036.81 2.68146 -0.706598 0
M  V30 11245 H 1039.77 1.34741 -0.83849 0
M  V30 11246 H 1039.79 3.78735 0.366026 0
M  V30 11247 H 1039.3 3.60031 -1.44911 0
M  V30 11248 H 1037.4 3.58463 1.01661 0
M  V30 11249 H 1037.51 4.77 -0.448045 0
M  V30 11250 H 1035.88 2.54306 -0.14168 0
M  V30 11251 H 1036.66 2.94512 -1.76401 0
M  V30 11252 N 1039.1 0.374177 1.53094 0
M  V30 11253 C 1040.38 -0.269632 1.93733 0
M  V30 11254 C 1040.76 -1.6566 1.30843 0
M  V30 11255 O 1040.11 -2.23598 0.470759 0
M  V30 11256 C 1040.32 -0.311204 3.4761 0
M  V30 11257 C 1041.67 -0.547432 4.21056 0
M  V30 11258 O 1042.69 -0.392053 3.54036 0
M  V30 11259 O 1041.55 -0.850645 5.39839 0
M  V30 11260 H 1038.64 -0.163723 0.810632 0
M  V30 11261 H 1041.19 0.427586 1.64225 0
M  V30 11262 H 1039.96 0.660897 3.85678 0
M  V30 11263 H 1039.59 -1.05397 3.83376 0
M  V30 11264 N 1040.58 -1.57259 0.103575 0
M  V30 11265 C 1041.49 -2.18018 -0.866327 0
M  V30 11266 C 1042.51 -1.15198 -1.30404 0
M  V30 11267 O 1043.68 -1.47605 -1.37021 0
M  V30 11268 C 1040.75 -2.75533 -2.10434 0
M  V30 11269 C 1039.81 -3.93337 -1.72002 0
M  V30 11270 C 1039.04 -4.481 -2.89901 0
M  V30 11271 O 1039.27 -4.01784 -4.04877 0
M  V30 11272 O 1038.2 -5.39004 -2.67877 0
M  V30 11273 H 1042.03 -3.01322 -0.379338 0
M  V30 11274 H 1039.61 -1.48907 -0.121228 0
M  V30 11275 H 1041.49 -3.12259 -2.8297 0
M  V30 11276 H 1040.17 -1.9527 -2.58169 0
M  V30 11277 H 1039.08 -3.61408 -0.966193 0
M  V30 11278 H 1040.41 -4.74989 -1.29022 0
M  V30 11279 N 1042.06 0.170153 -1.56679 0
M  V30 11280 C 1042.99 1.21285 -1.9953 0
M  V30 11281 C 1043.97 1.46104 -0.871071 0
M  V30 11282 O 1045.16 1.57419 -1.13724 0
M  V30 11283 C 1042.29 2.5515 -2.35618 0
M  V30 11284 C 1041.24 2.44898 -3.51011 0
M  V30 11285 C 1040.57 3.83263 -3.72845 0
M  V30 11286 C 1041.87 1.95271 -4.84424 0
M  V30 11287 H 1043.56 0.856646 -2.86883 0
M  V30 11288 H 1041.11 0.410634 -1.38021 0
M  V30 11289 H 1043.06 3.28299 -2.64193 0
M  V30 11290 H 1041.78 2.92561 -1.45175 0
M  V30 11291 H 1040.44 1.74203 -3.22566 0
M  V30 11292 H 1040.09 4.18069 -2.79691 0
M  V30 11293 H 1039.79 3.77272 -4.50488 0
M  V30 11294 H 1041.31 4.57996 -4.03822 0
M  V30 11295 H 1042.73 2.58195 -5.11867 0
M  V30 11296 H 1041.13 2.00225 -5.65712 0
M  V30 11297 H 1042.2 0.90709 -4.7634 0
M  V30 11298 N 1043.54 1.5137 0.438746 0
M  V30 11299 C 1044.49 1.72582 1.53245 0
M  V30 11300 C 1045.46 0.567488 1.56105 0
M  V30 11301 O 1046.64 0.80176 1.73137 0
M  V30 11302 C 1043.78 1.85551 2.90972 0
M  V30 11303 C 1042.89 3.13094 2.97652 0
M  V30 11304 C 1042.03 3.16666 4.26493 0
M  V30 11305 C 1041.07 4.38529 4.27035 0
M  V30 11306 N 1040.2 4.39659 5.47398 0
M  V30 11307 H 1045.04 2.65941 1.3446 0
M  V30 11308 H 1042.58 1.31801 0.653206 0
M  V30 11309 H 1044.54 1.91053 3.70884 0
M  V30 11310 H 1043.17 0.956025 3.08318 0
M  V30 11311 H 1042.22 3.16909 2.10412 0
M  V30 11312 H 1043.53 4.03009 2.93914 0
M  V30 11313 H 1042.69 3.21075 5.14777 0
M  V30 11314 H 1041.43 2.24637 4.32885 0
M  V30 11315 H 1040.43 4.34297 3.37144 0
M  V30 11316 H 1041.66 5.31821 4.22307 0
M  V30 11317 H 1039.6 3.50499 5.54514 0
M  V30 11318 H 1039.52 5.23382 5.45534 0
M  V30 11319 H 1040.79 4.48259 6.37718 0
M  V30 11320 N 1045.02 -0.694098 1.41492 0
M  V30 11321 C 1046.24 -1.48286 1.44288 0
M  V30 11322 C 1046.66 -1.88737 0.0485783 0
M  V30 11323 O 1046.02 -1.56881 -0.932449 0
M  V30 11324 C 1046.07 -2.74446 2.3529 0
M  V30 11325 O 1045.79 -2.35698 3.69294 0
M  V30 11326 C 1047.29 -3.68175 2.46905 0
M  V30 11327 H 1044.51 -0.45692 0.491391 0
M  V30 11328 H 1047.05 -0.854477 1.85793 0
M  V30 11329 H 1045.21 -3.33518 1.9709 0
M  V30 11330 H 1045.62 -3.17029 4.17843 0
M  V30 11331 H 1047.1 -4.53476 3.14743 0
M  V30 11332 H 1047.57 -4.12763 1.50078 0
M  V30 11333 H 1048.18 -3.15006 2.85747 0
M  V30 11334 N 1046.49 -1.27344 -0.928501 0
M  V30 11335 C 1047.74 -1.13635 -1.6761 0
M  V30 11336 C 1048.07 0.317957 -1.91884 0
M  V30 11337 O 1047.32 1.24904 -1.50657 0
M  V30 11338 C 1047.62 -1.86439 -3.04918 0
M  V30 11339 C 1047.29 -3.36298 -3.00358 0
M  V30 11340 C 1045.95 -3.77173 -2.98821 0
M  V30 11341 C 1048.3 -4.31921 -2.91708 0
M  V30 11342 C 1045.63 -5.12037 -2.86417 0
M  V30 11343 C 1047.98 -5.66841 -2.80846 0
M  V30 11344 C 1046.65 -6.07011 -2.77659 0
M  V30 11345 H 1045.92 -0.415821 -0.61333 0
M  V30 11346 H 1048.56 -1.57943 -1.08288 0
M  V30 11347 H 1046.87 -1.34638 -3.6794 0
M  V30 11348 H 1048.57 -1.73261 -3.61637 0
M  V30 11349 H 1045.16 -3.0379 -3.0234 0
M  V30 11350 H 1049.34 -4.01314 -2.91994 0
M  V30 11351 H 1044.6 -5.42307 -2.82336 0
M  V30 11352 H 1048.77 -6.40608 -2.73119 0
M  V30 11353 H 1046.4 -7.11467 -2.67804 0
M  V30 11354 N 1047.97 1.13488 -1.09353 0
M  V30 11355 C 1049.25 1.80998 -0.741559 0
M  V30 11356 C 1049.63 1.96418 0.773505 0
M  V30 11357 O 1048.98 1.53168 1.69563 0
M  V30 11358 C 1049.19 3.16078 -1.47972 0
M  V30 11359 C 1050.54 3.91438 -1.64504 0
M  V30 11360 O 1051.56 3.25699 -1.44218 0
M  V30 11361 O 1050.42 5.0935 -1.98054 0
M  V30 11362 H 1047.51 0.782953 -0.266297 0
M  V30 11363 H 1050.06 1.20422 -1.19569 0
M  V30 11364 H 1048.83 3.00076 -2.51137 0
M  V30 11365 H 1048.45 3.84354 -1.01772 0
M  V30 11366 N 1049.45 0.880621 1.30701 0
M  V30 11367 C 1050.38 0.288813 2.26365 0
M  V30 11368 C 1051.36 -0.588135 1.51591 0
M  V30 11369 O 1052.55 -0.539197 1.80624 0
M  V30 11370 C 1049.67 -0.590032 3.33521 0
M  V30 11371 C 1048.72 0.217003 4.25948 0
M  V30 11372 S 1049.55 1.60246 5.10961 0
M  V30 11373 C 1050.71 0.730023 6.21628 0
M  V30 11374 H 1050.94 1.09971 2.76213 0
M  V30 11375 H 1048.47 0.67978 1.3863 0
M  V30 11376 H 1050.43 -1.09136 3.95727 0
M  V30 11377 H 1049.09 -1.37498 2.82406 0
M  V30 11378 H 1048.29 -0.453481 5.01956 0
M  V30 11379 H 1047.89 0.650803 3.68294 0
M  V30 11380 H 1050.18 -0.0548644 6.77478 0
M  V30 11381 H 1051.12 1.46157 6.92852 0
M  V30 11382 H 1051.53 0.292854 5.6374 0
M  V30 11383 N 1050.93 -1.4397 0.641131 0
M  V30 11384 C 1051.84 -2.34526 -0.058742 0
M  V30 11385 C 1052.86 -1.53194 -0.825088 0
M  V30 11386 O 1054.03 -1.85888 -0.775081 0
M  V30 11387 C 1051.1 -3.31313 -1.02139 0
M  V30 11388 C 1050.16 -4.28552 -0.253319 0
M  V30 11389 C 1049.39 -5.20715 -1.17012 0
M  V30 11390 O 1049.61 -5.17028 -2.40911 0
M  V30 11391 O 1048.55 -5.9839 -0.649039 0
M  V30 11392 H 1052.37 -2.95843 0.686329 0
M  V30 11393 H 1049.96 -1.43909 0.401316 0
M  V30 11394 H 1051.84 -3.90862 -1.57496 0
M  V30 11395 H 1050.52 -2.72516 -1.7469 0
M  V30 11396 H 1049.42 -3.72519 0.343531 0
M  V30 11397 H 1050.76 -4.90297 0.432372 0
M  V30 11398 N 1052.41 -0.382291 -1.52893 0
M  V30 11399 C 1053.68 0.259354 -1.93873 0
M  V30 11400 C 1054.06 1.64964 -1.3172 0
M  V30 11401 O 1053.41 2.23345 -0.482611 0
M  V30 11402 C 1053.62 0.292765 -3.4777 0
M  V30 11403 C 1054.97 0.525095 -4.21341 0
M  V30 11404 O 1055.99 0.373272 -3.54239 0
M  V30 11405 O 1054.85 0.822004 -5.40283 0
M  V30 11406 H 1051.95 0.159422 -0.811489 0
M  V30 11407 H 1054.49 -0.436289 -1.63996 0
M  V30 11408 H 1053.27 -0.681341 -3.85323 0
M  V30 11409 H 1052.89 1.03362 -3.8393 0
M  V30 11410 N 1053.89 1.57202 -0.111913 0
M  V30 11411 C 1054.8 2.18475 0.854753 0
M  V30 11412 C 1055.81 1.15888 1.29792 0
M  V30 11413 O 1056.99 1.48329 1.36237 0
M  V30 11414 C 1054.05 2.76645 2.0897 0
M  V30 11415 C 1053.11 3.94244 1.69913 0
M  V30 11416 C 1052.35 4.49631 2.8752 0
M  V30 11417 O 1052.57 4.03926 4.02741 0
M  V30 11418 O 1051.5 5.40417 2.65015 0
M  V30 11419 H 1055.33 3.01519 0.363352 0
M  V30 11420 H 1052.91 1.4897 0.113329 0
M  V30 11421 H 1054.8 3.13755 2.81311 0
M  V30 11422 H 1053.47 1.96637 2.5713 0
M  V30 11423 H 1052.38 3.61915 0.947013 0
M  V30 11424 H 1053.71 4.75666 1.26501 0
M  V30 11425 N 1055.36 -0.161842 1.56767 0
M  V30 11426 C 1056.59 -0.890953 1.86402 0
M  V30 11427 C 1057 -1.75918 0.696373 0
M  V30 11428 O 1056.34 -1.80461 -0.343463 0
M  V30 11429 C 1056.41 -1.81079 3.10565 0
M  V30 11430 C 1056.07 -1.12121 4.43032 0
M  V30 11431 C 1057.07 -0.482152 5.17659 0
M  V30 11432 C 1054.75 -1.11514 4.89765 0
M  V30 11433 C 1056.75 0.153772 6.37214 0
M  V30 11434 C 1054.43 -0.4754 6.09248 0
M  V30 11435 C 1055.43 0.157944 6.82817 0
M  V30 11436 O 1055.12 0.787579 8.00033 0
M  V30 11437 H 1054.85 -0.26379 0.622407 0
M  V30 11438 H 1057.41 -0.163884 2.04745 0
M  V30 11439 H 1055.64 -2.57842 2.88192 0
M  V30 11440 H 1057.32 -2.41056 3.26568 0
M  V30 11441 H 1058.09 -0.478752 4.82631 0
M  V30 11442 H 1053.97 -1.59752 4.32435 0
M  V30 11443 H 1057.51 0.648716 6.94577 0
M  V30 11444 H 1053.41 -0.476416 6.43739 0
M  V30 11445 H 1054.18 0.687769 8.15605 0
M  V30 11446 N 1056.84 -1.516 -0.430713 0
M  V30 11447 C 1057.77 -1.68084 -1.54347 0
M  V30 11448 C 1058.75 -0.528401 -1.53775 0
M  V30 11449 O 1059.94 -0.753072 -1.72804 0
M  V30 11450 C 1057.06 -1.70048 -2.92919 0
M  V30 11451 C 1056.11 -2.91336 -3.11489 0
M  V30 11452 S 1056.94 -4.52043 -2.87084 0
M  V30 11453 C 1058.1 -4.56761 -4.27926 0
M  V30 11454 H 1058.33 -2.62203 -1.40131 0
M  V30 11455 H 1055.86 -1.41368 -0.620853 0
M  V30 11456 H 1057.82 -1.71864 -3.72791 0
M  V30 11457 H 1056.48 -0.770946 -3.04492 0
M  V30 11458 H 1055.68 -2.8913 -4.1282 0
M  V30 11459 H 1055.28 -2.87296 -2.39451 0
M  V30 11460 H 1057.57 -4.32809 -5.21232 0
M  V30 11461 H 1058.51 -5.58604 -4.35163 0
M  V30 11462 H 1058.92 -3.86014 -4.1189 0
M  V30 11463 N 1058.32 0.686584 -1.41858 0
M  V30 11464 C 1059.25 1.81264 -1.47193 0
M  V30 11465 C 1060.23 1.66875 -0.329657 0
M  V30 11466 O 1061.42 1.86473 -0.542347 0
M  V30 11467 C 1058.55 3.19472 -1.36216 0
M  V30 11468 C 1057.5 3.4858 -2.48347 0
M  V30 11469 C 1056.83 4.86239 -2.22432 0
M  V30 11470 C 1058.13 3.46653 -3.90678 0
M  V30 11471 H 1059.82 1.77057 -2.41436 0
M  V30 11472 H 1057.37 0.850415 -1.16206 0
M  V30 11473 H 1059.32 3.97969 -1.38558 0
M  V30 11474 H 1058.04 3.24327 -0.384611 0
M  V30 11475 H 1056.7 2.72437 -2.45303 0
M  V30 11476 H 1056.35 4.8773 -1.22999 0
M  V30 11477 H 1056.05 5.06677 -2.97577 0
M  V30 11478 H 1057.57 5.67034 -2.26505 0
M  V30 11479 H 1058.99 4.15139 -3.95389 0
M  V30 11480 H 1057.38 3.78625 -4.65578 0
M  V30 11481 H 1058.45 2.45451 -4.18189 0
M  V30 11482 N 1059.8 1.27835 0.921735 0
M  V30 11483 C 1061.05 1.14296 1.66676 0
M  V30 11484 C 1061.37 -0.310493 1.92512 0
M  V30 11485 O 1060.64 -1.21637 1.53562 0
M  V30 11486 H 1059.22 0.419994 0.617749 0
M  V30 11487 H 1061.88 1.60449 1.10644 0
M  V30 11488 H 1060.97 1.67654 2.63246 0
M  V30 11489 N 1061.28 -1.12907 1.09954 0
M  V30 11490 C 1062.5 -1.88679 0.861099 0
M  V30 11491 C 1062.93 -1.78853 -0.582499 0
M  V30 11492 O 1062.28 -1.13992 -1.4098 0
M  V30 11493 C 1062.33 -3.36047 1.30785 0
M  V30 11494 O 1061.44 -4.09716 0.469728 0
M  V30 11495 H 1060.78 -0.586447 0.31141 0
M  V30 11496 H 1063.31 -1.42818 1.46507 0
M  V30 11497 H 1063.32 -3.86882 1.29562 0
M  V30 11498 H 1061.99 -3.42516 2.35914 0
M  V30 11499 H 1060.57 -3.6887 0.54674 0
M  V30 11500 N 1062.75 -0.88754 -1.30232 0
M  V30 11501 C 1063.72 -0.361095 -2.26338 0
M  V30 11502 C 1064.72 0.497871 -1.52898 0
M  V30 11503 O 1065.91 0.30466 -1.71515 0
M  V30 11504 C 1063.04 0.485135 -3.3743 0
M  V30 11505 H 1064.23 -1.20973 -2.74419 0
M  V30 11506 H 1061.78 -0.664619 -1.41466 0
M  V30 11507 H 1062.52 1.35425 -2.9467 0
M  V30 11508 H 1062.3 -0.130173 -3.91884 0
M  V30 11509 H 1063.79 0.845169 -4.08958 0
M  V30 11510 N 1064.23 1.43628 -0.648757 0
M  V30 11511 C 1065.16 2.33478 0.0320785 0
M  V30 11512 C 1066.14 1.49217 0.816605 0
M  V30 11513 O 1067.33 1.77892 0.778974 0
M  V30 11514 C 1064.46 3.32525 1.00222 0
M  V30 11515 C 1063.41 4.2674 0.328119 0
M  V30 11516 C 1062.74 5.15791 1.4094 0
M  V30 11517 C 1064.04 5.16493 -0.776701 0
M  V30 11518 H 1065.73 2.90657 -0.718257 0
M  V30 11519 H 1063.28 1.3976 -0.346852 0
M  V30 11520 H 1065.23 3.94277 1.4874 0
M  V30 11521 H 1063.96 2.73593 1.78366 0
M  V30 11522 H 1062.61 3.66346 -0.136569 0
M  V30 11523 H 1062.26 4.53201 2.18216 0
M  V30 11524 H 1061.96 5.79645 0.963631 0
M  V30 11525 H 1063.49 5.80416 1.89603 0
M  V30 11526 H 1064.9 5.7208 -0.373878 0
M  V30 11527 H 1063.3 5.89043 -1.14667 0
M  V30 11528 H 1064.37 4.56448 -1.63654 0
M  V30 11529 N 1065.71 0.390394 1.52688 0
M  V30 11530 C 1066.64 -0.43567 2.294 0
M  V30 11531 C 1067.62 -1.06253 1.32832 0
M  V30 11532 O 1068.81 -1.07509 1.61726 0
M  V30 11533 C 1065.94 -1.56259 3.10162 0
M  V30 11534 C 1064.89 -1.06172 4.14622 0
M  V30 11535 C 1064.22 -2.2808 4.83615 0
M  V30 11536 C 1065.52 -0.128902 5.22141 0
M  V30 11537 H 1067.21 0.204384 2.98702 0
M  V30 11538 H 1064.76 0.0997377 1.43654 0
M  V30 11539 H 1066.71 -2.14732 3.62585 0
M  V30 11540 H 1065.43 -2.23025 2.38595 0
M  V30 11541 H 1064.09 -0.499518 3.63181 0
M  V30 11542 H 1063.74 -2.93358 4.08595 0
M  V30 11543 H 1063.44 -1.95227 5.5422 0
M  V30 11544 H 1064.96 -2.87193 5.38844 0
M  V30 11545 H 1066.38 -0.621849 5.69917 0
M  V30 11546 H 1064.78 0.109919 5.99999 0
M  V30 11547 H 1065.85 0.821884 4.77884 0
M  V30 11548 N 1067.19 -1.57141 0.120249 0
M  V30 11549 C 1068.43 -1.95527 -0.538245 0
M  V30 11550 C 1068.77 -1.00373 -1.6625 0
M  V30 11551 O 1068.04 -0.0411734 -1.94456 0
M  V30 11552 C 1068.33 -3.43843 -1.06976 0
M  V30 11553 C 1068.18 -4.49771 0.0511596 0
M  V30 11554 C 1069.5 -3.94035 -1.96022 0
M  V30 11555 H 1066.62 -0.710958 -0.194183 0
M  V30 11556 H 1069.26 -1.88986 0.196061 0
M  V30 11557 H 1067.41 -3.49548 -1.69553 0
M  V30 11558 H 1069.08 -4.56163 0.686503 0
M  V30 11559 H 1067.32 -4.27882 0.714127 0
M  V30 11560 H 1067.99 -5.50812 -0.361995 0
M  V30 11561 H 1070.47 -3.9064 -1.43315 0
M  V30 11562 H 1069.35 -4.98329 -2.3013 0
M  V30 11563 H 1069.61 -3.34803 -2.8872 0
M  V30 11564 N 1068.67 0.153526 -1.5685 0
M  V30 11565 C 1069.62 1.19478 -1.94188 0
M  V30 11566 C 1070.6 1.38889 -0.812329 0
M  V30 11567 O 1071.79 1.4056 -1.07572 0
M  V30 11568 C 1068.92 2.53 -2.32047 0
M  V30 11569 C 1068.01 2.37209 -3.51557 0
M  V30 11570 N 1068.4 1.91162 -4.68285 0
M  V30 11571 C 1066.7 2.67981 -3.56514 0
M  V30 11572 C 1067.4 1.88259 -5.50394 0
M  V30 11573 N 1066.37 2.31329 -4.91923 0
M  V30 11574 H 1070.18 0.830748 -2.81915 0
M  V30 11575 H 1067.69 0.361643 -1.58322 0
M  V30 11576 H 1069.69 3.28264 -2.56998 0
M  V30 11577 H 1068.35 2.90191 -1.45669 0
M  V30 11578 H 1069.36 1.61227 -4.92165 0
M  V30 11579 H 1066.03 3.0909 -2.80659 0
M  V30 11580 H 1067.42 1.54205 -6.53965 0
M  V30 11581 N 1070.14 1.51827 0.422667 0
M  V30 11582 C 1071.56 1.57533 1.00201 0
M  V30 11583 C 1071.91 0.407623 1.91919 0
M  V30 11584 O 1071.03 -0.473763 2.1115 0
M  V30 11585 C 1071.63 2.85508 1.82403 0
M  V30 11586 C 1070.19 2.93737 2.35362 0
M  V30 11587 C 1069.33 2.52343 1.14971 0
M  V30 11588 H 1072.28 1.57391 0.20339 0
M  V30 11589 H 1072.3 2.70097 2.68007 0
M  V30 11590 H 1071.82 3.70477 1.15623 0
M  V30 11591 H 1069.92 2.13231 3.05554 0
M  V30 11592 H 1070.03 3.977 2.67155 0
M  V30 11593 H 1068.39 2.05878 1.49955 0
M  V30 11594 H 1069.18 3.39672 0.497786 0
M  V30 11595 N 1071.62 -0.679052 1.4222 0
M  V30 11596 C 1072.87 -1.44125 1.42674 0
M  V30 11597 C 1073.2 -1.94156 0.041438 0
M  V30 11598 O 1072.48 -1.70628 -0.93361 0
M  V30 11599 C 1072.76 -2.64133 2.44756 0
M  V30 11600 C 1072.61 -2.19761 3.9246 0
M  V30 11601 C 1073.93 -3.66347 2.43881 0
M  V30 11602 H 1071.05 -0.522729 0.519541 0
M  V30 11603 H 1073.69 -0.772067 1.73606 0
M  V30 11604 H 1071.84 -3.21225 2.1851 0
M  V30 11605 H 1073.51 -1.67869 4.29671 0
M  V30 11606 H 1071.76 -1.51377 4.06531 0
M  V30 11607 H 1072.43 -3.05944 4.59459 0
M  V30 11608 H 1074.9 -3.18963 2.67211 0
M  V30 11609 H 1073.78 -4.47902 3.17293 0
M  V30 11610 H 1074.04 -4.17183 1.46325 0
M  V30 11611 N 1073.1 -1.28322 -0.914942 0
M  V30 11612 C 1074.33 -1.18254 -1.69775 0
M  V30 11613 C 1074.74 0.258978 -1.87015 0
M  V30 11614 O 1074.1 1.17514 -1.3963 0
M  V30 11615 C 1074.15 -1.8753 -3.09054 0
M  V30 11616 O 1073.87 -3.26051 -2.92613 0
M  V30 11617 C 1075.37 -1.83749 -4.03424 0
M  V30 11618 H 1072.59 -0.41055 -0.530744 0
M  V30 11619 H 1075.14 -1.69425 -1.14523 0
M  V30 11620 H 1073.29 -1.40233 -3.61128 0
M  V30 11621 H 1073.71 -3.60729 -3.80756 0
M  V30 11622 H 1075.18 -2.36813 -4.98622 0
M  V30 11623 H 1075.66 -0.809601 -4.31674 0
M  V30 11624 H 1076.26 -2.3072 -3.57279 0
M  V30 11625 N 1074.58 1.12322 -1.10551 0
M  V30 11626 C 1075.49 2.21678 -0.767862 0
M  V30 11627 C 1076.5 1.72404 0.235132 0
M  V30 11628 O 1077.68 2.01266 0.0735912 0
M  V30 11629 C 1074.75 3.46087 -0.205999 0
M  V30 11630 C 1073.81 4.10195 -1.26642 0
M  V30 11631 C 1073.04 5.28666 -0.731274 0
M  V30 11632 O 1073.26 5.68686 0.44189 0
M  V30 11633 O 1072.2 5.83121 -1.49176 0
M  V30 11634 H 1076.02 2.52955 -1.6807 0
M  V30 11635 H 1073.61 1.2068 -0.880728 0
M  V30 11636 H 1075.49 4.21273 0.103435 0
M  V30 11637 H 1074.16 3.16484 0.679685 0
M  V30 11638 H 1073.07 3.36784 -1.62873 0
M  V30 11639 H 1074.4 4.43957 -2.12516 0
M  V30 11640 N 1076.06 0.894434 1.2976 0
M  V30 11641 C 1077.47 0.566892 1.77885 0
M  V30 11642 C 1077.82 -0.917289 1.73437 0
M  V30 11643 O 1076.94 -1.71707 1.31703 0
M  V30 11644 C 1077.54 1.02227 3.2301 0
M  V30 11645 C 1076.1 0.745978 3.68934 0
M  V30 11646 C 1075.24 1.19993 2.49994 0
M  V30 11647 H 1078.2 1.0777 1.16496 0
M  V30 11648 H 1078.22 0.355281 3.78838 0
M  V30 11649 H 1077.73 2.1025 3.26215 0
M  V30 11650 H 1075.83 -0.321866 3.71207 0
M  V30 11651 H 1075.94 1.34017 4.59974 0
M  V30 11652 H 1074.31 0.619047 2.47063 0
M  V30 11653 H 1075.09 2.28811 2.55931 0
M  V30 11654 N 1077.53 -1.43282 0.656365 0
M  V30 11655 C 1078.48 -2.30776 -0.0333155 0
M  V30 11656 C 1079.45 -1.44928 -0.811493 0
M  V30 11657 O 1080.64 -1.73792 -0.787465 0
M  V30 11658 C 1077.78 -3.30548 -0.991566 0
M  V30 11659 C 1076.89 -4.31493 -0.209159 0
M  V30 11660 C 1076.02 -5.18346 -1.16149 0
M  V30 11661 C 1075.06 -6.10983 -0.369699 0
M  V30 11662 N 1074.2 -6.90449 -1.27378 0
M  V30 11663 H 1079.04 -2.89204 0.718668 0
M  V30 11664 H 1076.58 -1.4247 0.366161 0
M  V30 11665 H 1078.54 -3.86905 -1.56078 0
M  V30 11666 H 1077.17 -2.73762 -1.71039 0
M  V30 11667 H 1076.22 -3.77405 0.476394 0
M  V30 11668 H 1077.53 -4.97142 0.406394 0
M  V30 11669 H 1076.68 -5.79345 -1.80124 0
M  V30 11670 H 1075.42 -4.52831 -1.81095 0
M  V30 11671 H 1074.43 -5.49069 0.283377 0
M  V30 11672 H 1075.65 -6.78541 0.275399 0
M  V30 11673 H 1073.6 -6.27579 -1.90999 0
M  V30 11674 H 1073.52 -7.52631 -0.71287 0
M  V30 11675 H 1074.78 -7.5595 -1.90158 0
M  V30 11676 N 1079.01 -0.398486 -1.52479 0
M  V30 11677 C 1079.98 0.420206 -2.25315 0
M  V30 11678 C 1080.98 0.982559 -1.27289 0
M  V30 11679 O 1082.17 0.863113 -1.51314 0
M  V30 11680 C 1079.3 1.59045 -3.01525 0
M  V30 11681 H 1080.49 -0.217599 -2.9911 0
M  V30 11682 H 1078.04 -0.150784 -1.55571 0
M  V30 11683 H 1078.78 2.26542 -2.32054 0
M  V30 11684 H 1078.56 1.19382 -3.73484 0
M  V30 11685 H 1080.05 2.16984 -3.56802 0
M  V30 11686 N 1080.49 1.57075 -0.12858 0
M  V30 11687 C 1081.72 1.99876 0.534544 0
M  V30 11688 C 1082.13 1.00843 1.59612 0
M  V30 11689 O 1081.49 0.00268947 1.825 0
M  V30 11690 C 1081.54 3.42654 1.15198 0
M  V30 11691 O 1081.26 4.37899 0.132823 0
M  V30 11692 C 1082.76 4.00637 1.8975 0
M  V30 11693 H 1079.98 0.656073 0.140744 0
M  V30 11694 H 1082.53 2.03337 -0.217742 0
M  V30 11695 H 1080.68 3.40101 1.85499 0
M  V30 11696 H 1081.1 5.21253 0.582682 0
M  V30 11697 H 1082.57 5.02592 2.28266 0
M  V30 11698 H 1083.05 3.40313 2.7764 0
M  V30 11699 H 1083.65 4.06764 1.2419 0
M  V30 11700 N 1081.97 -0.145205 1.5693 0
M  V30 11701 C 1083.2 -0.872398 1.87608 0
M  V30 11702 C 1083.61 -1.74657 0.716975 0
M  V30 11703 O 1082.97 -1.79792 -0.3132 0
M  V30 11704 C 1083.02 -1.72762 3.17546 0
M  V30 11705 O 1082.74 -0.888681 4.28992 0
M  V30 11706 C 1084.24 -2.56224 3.61751 0
M  V30 11707 H 1081.46 -0.252166 0.621815 0
M  V30 11708 H 1084.01 -0.137456 2.04038 0
M  V30 11709 H 1082.16 -2.41561 3.02865 0
M  V30 11710 H 1082.58 -1.47601 5.03303 0
M  V30 11711 H 1084.05 -3.11804 4.55502 0
M  V30 11712 H 1084.53 -3.32347 2.87127 0
M  V30 11713 H 1085.13 -1.92714 3.79133 0
M  V30 11714 N 1083.45 -1.52049 -0.414609 0
M  V30 11715 C 1084.69 -1.66084 -1.16379 0
M  V30 11716 C 1085.03 -0.386932 -1.90306 0
M  V30 11717 O 1084.3 0.614441 -1.8454 0
M  V30 11718 C 1084.58 -2.87927 -2.16264 0
M  V30 11719 C 1084.44 -4.25353 -1.46269 0
M  V30 11720 C 1085.76 -3.05289 -3.16996 0
M  V30 11721 H 1082.88 -0.604414 -0.421726 0
M  V30 11722 H 1085.52 -1.8459 -0.450177 0
M  V30 11723 H 1083.67 -2.7228 -2.77121 0
M  V30 11724 H 1085.34 -4.52717 -0.885743 0
M  V30 11725 H 1083.58 -4.27006 -0.76472 0
M  V30 11726 H 1084.25 -5.06644 -2.19126 0
M  V30 11727 H 1086.73 -3.19798 -2.66212 0
M  V30 11728 H 1085.61 -3.92065 -3.84156 0
M  V30 11729 H 1085.87 -2.1836 -3.84411 0
M  V30 11730 N 1084.93 0.6715 -1.42579 0
M  V30 11731 C 1086.2 1.42766 -1.33706 0
M  V30 11732 C 1086.58 2.11086 0.0239748 0
M  V30 11733 O 1085.93 2.03479 1.03964 0
M  V30 11734 C 1086.14 2.42739 -2.50756 0
M  V30 11735 C 1087.49 3.07284 -2.93021 0
M  V30 11736 O 1088.51 2.53066 -2.50671 0
M  V30 11737 O 1087.37 4.05541 -3.66331 0
M  V30 11738 H 1084.47 0.636955 -0.527463 0
M  V30 11739 H 1087.01 0.699946 -1.54593 0
M  V30 11740 H 1085.78 1.91076 -3.41476 0
M  V30 11741 H 1085.41 3.22986 -2.31874 0
M  V30 11742 N 1086.4 1.28806 0.908124 0
M  V30 11743 C 1087.65 1.1646 1.66027 0
M  V30 11744 C 1087.98 -0.285025 1.92097 0
M  V30 11745 O 1087.26 -1.20675 1.52538 0
M  V30 11746 C 1087.54 1.96951 3.01467 0
M  V30 11747 C 1087.39 3.50007 2.82515 0
M  V30 11748 C 1088.71 1.78932 4.02084 0
M  V30 11749 H 1085.83 0.424435 0.602515 0
M  V30 11750 H 1088.47 1.58185 1.0525 0
M  V30 11751 H 1086.62 1.61495 3.53344 0
M  V30 11752 H 1088.3 3.95401 2.37605 0
M  V30 11753 H 1086.54 3.75356 2.17463 0
M  V30 11754 H 1087.21 4.01591 3.7872 0
M  V30 11755 H 1089.69 2.09885 3.59287 0
M  V30 11756 H 1088.56 2.37615 4.94803 0
M  V30 11757 H 1088.82 0.742286 4.35824 0
M  V30 11758 N 1087.88 -1.11734 1.11145 0
M  V30 11759 C 1089.13 -1.83405 0.858413 0
M  V30 11760 C 1089.46 -1.84488 -0.615975 0
M  V30 11761 O 1088.71 -1.29123 -1.47057 0
M  V30 11762 C 1089.01 -3.3046 1.36129 0
M  V30 11763 C 1088.68 -3.4954 2.84837 0
M  V30 11764 C 1087.34 -3.54456 3.25445 0
M  V30 11765 C 1089.69 -3.56048 3.8063 0
M  V30 11766 C 1087.02 -3.63431 4.60581 0
M  V30 11767 C 1089.37 -3.66554 5.15579 0
M  V30 11768 C 1088.03 -3.69728 5.55749 0
M  V30 11769 H 1087.3 -0.671128 0.314115 0
M  V30 11770 H 1089.95 -1.31795 1.38933 0
M  V30 11771 H 1088.26 -3.84544 0.750547 0
M  V30 11772 H 1089.95 -3.84398 1.14188 0
M  V30 11773 H 1086.54 -3.46382 2.52423 0
M  V30 11774 H 1090.73 -3.51513 3.5036 0
M  V30 11775 H 1085.98 -3.64164 4.91116 0
M  V30 11776 H 1090.16 -3.70532 5.89643 0
M  V30 11777 H 1087.78 -3.76435 6.60455 0
M  V30 11778 N 1089.36 -0.901303 -1.29284 0
M  V30 11779 C 1090.29 -0.396909 -2.30102 0
M  V30 11780 C 1091.27 0.528919 -1.61668 0
M  V30 11781 O 1092.46 0.439306 -1.89166 0
M  V30 11782 C 1089.59 0.375006 -3.45269 0
M  V30 11783 C 1088.54 -0.46054 -4.25515 0
M  V30 11784 C 1087.87 0.438967 -5.32895 0
M  V30 11785 C 1089.17 -1.7113 -4.93469 0
M  V30 11786 H 1090.86 -1.23943 -2.72541 0
M  V30 11787 H 1088.41 -0.597428 -1.31022 0
M  V30 11788 H 1090.36 0.738622 -4.14876 0
M  V30 11789 H 1089.08 1.25132 -3.01678 0
M  V30 11790 H 1087.74 -0.80651 -3.57618 0
M  V30 11791 H 1087.39 1.31346 -4.85548 0
M  V30 11792 H 1087.09 -0.116406 -5.87485 0
M  V30 11793 H 1088.61 0.79874 -6.05353 0
M  V30 11794 H 1090.03 -1.41732 -5.55504 0
M  V30 11795 H 1088.42 -2.20811 -5.57999 0
M  V30 11796 H 1089.49 -2.44636 -4.18666 0
M  V30 11797 N 1090.84 1.42931 -0.663954 0
M  V30 11798 C 1092.25 1.84877 -0.260283 0
M  V30 11799 C 1092.6 1.5558 1.19538 0
M  V30 11800 O 1091.72 1.01015 1.91377 0
M  V30 11801 C 1092.32 3.35585 -0.465618 0
M  V30 11802 C 1090.88 3.76221 -0.116169 0
M  V30 11803 C 1090.03 2.66587 -0.763317 0
M  V30 11804 H 1092.98 1.32932 -0.866882 0
M  V30 11805 H 1093 3.79427 0.285608 0
M  V30 11806 H 1092.51 3.56877 -1.52515 0
M  V30 11807 H 1090.61 3.60539 0.940342 0
M  V30 11808 H 1090.72 4.75943 -0.549123 0
M  V30 11809 H 1089.09 2.53948 -0.19559 0
M  V30 11810 H 1089.87 2.90704 -1.82609 0
M  V30 11811 N 1092.32 0.406567 1.52266 0
M  V30 11812 C 1093.56 -0.169717 2.01386 0
M  V30 11813 C 1093.88 -1.45864 1.29417 0
M  V30 11814 O 1093.15 -1.9136 0.419327 0
M  V30 11815 H 1091.73 -0.0657075 0.744105 0
M  V30 11816 H 1094.4 0.542221 1.87206 0
M  V30 11817 H 1093.49 -0.367659 3.09927 0
M  V30 11818 N 1093.79 -1.57004 0.136909 0
M  V30 11819 C 1095.02 -2.00587 -0.527209 0
M  V30 11820 C 1095.44 -1.01628 -1.58283 0
M  V30 11821 O 1094.8 0.00946934 -1.81298 0
M  V30 11822 C 1094.85 -3.42967 -1.11384 0
M  V30 11823 O 1093.95 -3.46973 -2.22898 0
M  V30 11824 H 1093.3 -0.651155 -0.129976 0
M  V30 11825 H 1095.83 -2.03296 0.230667 0
M  V30 11826 H 1095.84 -3.81555 -1.44499 0
M  V30 11827 H 1094.51 -4.14502 -0.340736 0
M  V30 11828 H 1093.09 -3.20219 -1.91087 0
M  V30 11829 N 1095.27 0.136881 -1.57004 0
M  V30 11830 C 1096.22 1.18782 -1.99984 0
M  V30 11831 C 1097.21 1.43899 -0.893841 0
M  V30 11832 O 1098.42 1.44072 -1.07904 0
M  V30 11833 H 1094.8 0.400065 -0.636751 0
M  V30 11834 H 1096.77 0.798696 -2.87512 0
M  V30 11835 C 1095.52 2.51105 -2.40502 0
M  V30 11836 H 1094.84 2.32611 -3.25165 0
M  V30 11837 H 1096.28 3.23244 -2.74389 0
M  V30 11838 C 1094.74 3.12386 -1.26161 0
M  V30 11839 O 1095.27 3.97666 -0.567836 0
M  V30 11840 N 1093.47 2.71989 -1.02326 0
M  V30 11841 H 1093.02 2.02736 -1.58921 0
M  V30 11842 H 1092.98 3.13322 -0.26013 0
M  V30 11843 N 1096.75 1.52266 0.40654 0
M  V30 11844 C 1097.66 1.78688 1.52012 0
M  V30 11845 C 1098.68 0.6726 1.60475 0
M  V30 11846 O 1099.85 0.95829 1.77141 0
M  V30 11847 C 1096.92 1.93434 2.87722 0
M  V30 11848 C 1095.98 3.17341 2.89125 0
M  V30 11849 C 1095.21 3.31374 4.18362 0
M  V30 11850 O 1095.43 2.50613 5.12396 0
M  V30 11851 O 1094.37 4.24539 4.26674 0
M  V30 11852 H 1098.19 2.73213 1.3262 0
M  V30 11853 H 1095.78 1.37142 0.592653 0
M  V30 11854 H 1097.66 2.04941 3.68208 0
M  V30 11855 H 1096.34 1.02099 3.07177 0
M  V30 11856 H 1095.24 3.1129 2.07483 0
M  V30 11857 H 1096.58 4.08466 2.7462 0
M  V30 11858 N 1098.23 -0.663929 1.42933 0
M  V30 11859 C 1099.47 -1.42603 1.44195 0
M  V30 11860 C 1099.81 -1.94101 0.0620284 0
M  V30 11861 O 1099.08 -1.71609 -0.91546 0
M  V30 11862 C 1099.37 -2.61522 2.47544 0
M  V30 11863 C 1099.22 -2.15587 3.94769 0
M  V30 11864 C 1100.54 -3.6374 2.47753 0
M  V30 11865 H 1097.66 -0.517189 0.525056 0
M  V30 11866 H 1100.3 -0.75361 1.74415 0
M  V30 11867 H 1098.45 -3.1889 2.21904 0
M  V30 11868 H 1100.12 -1.63303 4.31428 0
M  V30 11869 H 1098.36 -1.47057 4.08114 0
M  V30 11870 H 1099.03 -3.01053 4.62678 0
M  V30 11871 H 1101.51 -3.16111 2.70579 0
M  V30 11872 H 1100.39 -4.44512 3.22025 0
M  V30 11873 H 1100.65 -4.15607 1.50742 0
M  V30 11874 N 1099.71 -1.29285 -0.901281 0
M  V30 11875 C 1100.95 -1.18348 -1.65424 0
M  V30 11876 C 1101.31 0.26276 -1.90597 0
M  V30 11877 O 1100.6 1.1868 -1.50418 0
M  V30 11878 C 1100.79 -1.92865 -3.00895 0
M  V30 11879 C 1100.62 -3.44588 -2.88945 0
M  V30 11880 C 1099.39 -4.13938 -2.89799 0
M  V30 11881 C 1101.59 -4.40113 -2.66092 0
M  V30 11882 N 1099.57 -5.52036 -2.68569 0
M  V30 11883 C 1100.94 -5.65661 -2.53827 0
M  V30 11884 C 1103 -4.29895 -2.51187 0
M  V30 11885 C 1101.7 -6.8215 -2.28175 0
M  V30 11886 C 1103.73 -5.46134 -2.26917 0
M  V30 11887 C 1103.09 -6.70653 -2.15416 0
M  V30 11888 H 1099.19 -0.48806 -0.611 0
M  V30 11889 H 1101.77 -1.63094 -1.06341 0
M  V30 11890 H 1099.94 -1.50535 -3.58042 0
M  V30 11891 H 1101.68 -1.74207 -3.65286 0
M  V30 11892 H 1098.43 -3.65625 -3.01023 0
M  V30 11893 H 1098.86 -6.24662 -2.61011 0
M  V30 11894 H 1103.5 -3.34321 -2.58823 0
M  V30 11895 H 1101.22 -7.77781 -2.19277 0
M  V30 11896 H 1104.8 -5.40126 -2.1623 0
M  V30 11897 H 1103.68 -7.5908 -1.96896 0
M  V30 11898 N 1101.18 1.11143 -1.11736 0
M  V30 11899 C 1102.41 1.86474 -0.889435 0
M  V30 11900 C 1102.82 1.80584 0.564438 0
M  V30 11901 O 1102.17 1.18743 1.40163 0
M  V30 11902 C 1102.23 3.36066 -1.27671 0
M  V30 11903 C 1101.89 3.65721 -2.74038 0
M  V30 11904 C 1102.89 3.62941 -3.7225 0
M  V30 11905 C 1100.57 3.94629 -3.10762 0
M  V30 11906 C 1102.57 3.88651 -5.05202 0
M  V30 11907 C 1100.25 4.19997 -4.43899 0
M  V30 11908 C 1101.25 4.16996 -5.40928 0
M  V30 11909 O 1100.94 4.41724 -6.71666 0
M  V30 11910 H 1100.67 0.596438 -0.318178 0
M  V30 11911 H 1103.23 1.41465 -1.48918 0
M  V30 11912 H 1101.46 3.81695 -0.620124 0
M  V30 11913 H 1103.15 3.92769 -1.02409 0
M  V30 11914 H 1103.91 3.40655 -3.45223 0
M  V30 11915 H 1099.79 3.96099 -2.35853 0
M  V30 11916 H 1103.33 3.86224 -5.80927 0
M  V30 11917 H 1099.23 4.4176 -4.70657 0
M  V30 11918 H 1100 4.59276 -6.77501 0
M  V30 11919 N 1102.66 0.908147 1.28804 0
M  V30 11920 C 1103.94 0.457561 1.90173 0
M  V30 11921 C 1104.32 -1.06333 1.82364 0
M  V30 11922 O 1103.67 -1.90892 1.25589 0
M  V30 11923 C 1103.88 0.981624 3.34911 0
M  V30 11924 C 1105.23 1.03037 4.11908 0
M  V30 11925 O 1106.25 0.929878 3.43848 0
M  V30 11926 O 1105.11 1.18257 5.33552 0
M  V30 11927 H 1102.2 0.144081 0.814352 0
M  V30 11928 H 1104.75 0.998565 1.37211 0
M  V30 11929 H 1103.52 2.02561 3.34791 0
M  V30 11930 H 1103.14 0.421122 3.95364 0
M  V30 11931 N 1104.14 -1.42577 0.671525 0
M  V30 11932 C 1105.37 -2.05625 0.20044 0
M  V30 11933 C 1105.78 -1.50524 -1.14626 0
M  V30 11934 O 1105.12 -0.638468 -1.72248 0
M  V30 11935 C 1105.18 -3.59459 0.0545385 0
M  V30 11936 C 1104.85 -4.37236 1.32943 0
M  V30 11937 C 1105.84 -4.68104 2.26219 0
M  V30 11938 C 1103.53 -4.76932 1.57612 0
M  V30 11939 C 1105.52 -5.37599 3.42442 0
M  V30 11940 C 1103.21 -5.46167 2.74125 0
M  V30 11941 C 1104.21 -5.76425 3.66364 0
M  V30 11942 O 1103.9 -6.44242 4.8084 0
M  V30 11943 H 1103.63 -0.66918 0.0957843 0
M  V30 11944 H 1106.18 -1.83759 0.917701 0
M  V30 11945 H 1104.41 -3.79971 -0.718271 0
M  V30 11946 H 1106.1 -4.04152 -0.376251 0
M  V30 11947 H 1106.87 -4.37939 2.08409 0
M  V30 11948 H 1102.75 -4.52776 0.866887 0
M  V30 11949 H 1106.29 -5.61133 4.14458 0
M  V30 11950 H 1102.19 -5.75749 2.91861 0
M  V30 11951 H 1102.96 -6.62732 4.80342 0
M  V30 11952 N 1105.62 -0.414636 -1.52048 0
M  V30 11953 C 1106.57 0.408141 -2.27163 0
M  V30 11954 C 1107.54 1.03636 -1.29803 0
M  V30 11955 O 1108.72 1.05959 -1.58674 0
M  V30 11956 C 1105.86 1.51588 -3.10024 0
M  V30 11957 C 1104.97 0.908034 -4.22349 0
M  V30 11958 C 1104.11 1.98893 -4.9256 0
M  V30 11959 C 1103.15 1.35831 -5.96839 0
M  V30 11960 N 1102.28 2.37958 -6.60545 0
M  V30 11961 H 1107.12 -0.238822 -2.97041 0
M  V30 11962 H 1104.66 -0.129614 -1.46528 0
M  V30 11963 H 1106.62 2.16916 -3.56375 0
M  V30 11964 H 1105.25 2.13279 -2.42305 0
M  V30 11965 H 1104.3 0.143652 -3.80129 0
M  V30 11966 H 1105.61 0.407426 -4.97133 0
M  V30 11967 H 1104.77 2.71935 -5.42343 0
M  V30 11968 H 1103.51 2.5232 -4.17356 0
M  V30 11969 H 1102.51 0.613246 -5.46369 0
M  V30 11970 H 1103.74 0.831655 -6.73988 0
M  V30 11971 H 1101.68 2.90508 -5.88167 0
M  V30 11972 H 1101.6 1.92725 -7.31022 0
M  V30 11973 H 1102.87 3.10553 -7.14966 0
M  V30 11974 N 1107.1 1.56929 -0.145233 0
M  V30 11975 C 1108.32 2.00431 0.513314 0
M  V30 11976 C 1108.74 1.0253 1.58534 0
M  V30 11977 O 1108.1 0.0220459 1.82487 0
M  V30 11978 C 1108.15 3.43856 1.11557 0
M  V30 11979 O 1107.87 4.38015 0.0863707 0
M  V30 11980 C 1109.37 4.02627 1.8549 0
M  V30 11981 H 1106.59 0.657529 0.133778 0
M  V30 11982 H 1109.13 2.03095 -0.239296 0
M  V30 11983 H 1107.29 3.4205 1.81881 0
M  V30 11984 H 1107.7 5.21842 0.527363 0
M  V30 11985 H 1109.18 5.04985 2.22923 0
M  V30 11986 H 1109.65 3.43239 2.74014 0
M  V30 11987 H 1110.26 4.08058 1.19869 0
M  V30 11988 N 1108.58 -0.128553 1.57075 0
M  V30 11989 C 1109.82 -0.83801 1.84347 0
M  V30 11990 C 1110.15 -1.80325 0.728906 0
M  V30 11991 O 1109.41 -1.93678 -0.280571 0
M  V30 11992 C 1109.7 -1.63027 3.18052 0
M  V30 11993 C 1109.37 -0.810171 4.43562 0
M  V30 11994 C 1108.03 -0.583984 4.77643 0
M  V30 11995 C 1110.38 -0.237896 5.20657 0
M  V30 11996 C 1107.71 0.224887 5.86269 0
M  V30 11997 C 1110.06 0.558114 6.30133 0
M  V30 11998 C 1108.73 0.794706 6.62752 0
M  V30 11999 H 1108 -0.30665 0.674572 0
M  V30 12000 H 1110.65 -0.100797 1.91235 0
M  V30 12001 H 1108.95 -2.43812 3.06697 0
M  V30 12002 H 1110.65 -2.183 3.36372 0
M  V30 12003 H 1107.24 -0.996547 4.16854 0
M  V30 12004 H 1111.42 -0.399881 4.94686 0
M  V30 12005 H 1106.68 0.417507 6.09973 0
M  V30 12006 H 1110.85 1.00859 6.89058 0
M  V30 12007 H 1108.48 1.42331 7.46757 0
M  V30 12008 N 1110.05 -1.5248 -0.398459 0
M  V30 12009 C 1111.02 -1.75949 -1.46883 0
M  V30 12010 C 1112.02 -0.629431 -1.47969 0
M  V30 12011 O 1113.21 -0.897407 -1.49306 0
M  V30 12012 C 1110.34 -1.85162 -2.8623 0
M  V30 12013 H 1111.53 -2.71513 -1.2736 0
M  V30 12014 H 1109.08 -1.43058 -0.629619 0
M  V30 12015 H 1109.82 -0.915505 -3.11109 0
M  V30 12016 H 1109.6 -2.67326 -2.86844 0
M  V30 12017 H 1111.09 -2.05025 -3.63805 0
M  V30 12018 N 1111.53 0.65634 -1.43283 0
M  V30 12019 C 1112.48 1.76243 -1.44646 0
M  V30 12020 C 1113.47 1.5778 -0.31532 0
M  V30 12021 O 1114.66 1.67945 -0.558881 0
M  V30 12022 C 1111.79 3.14813 -1.36921 0
M  V30 12023 C 1110.87 3.38835 -2.55053 0
M  V30 12024 N 1111.26 3.33345 -3.80414 0
M  V30 12025 C 1109.56 3.69542 -2.4971 0
M  V30 12026 C 1110.26 3.57361 -4.58986 0
M  V30 12027 N 1109.24 3.79022 -3.8967 0
M  V30 12028 H 1113.04 1.70419 -2.39447 0
M  V30 12029 H 1110.55 0.85789 -1.37891 0
M  V30 12030 H 1112.55 3.941 -1.3598 0
M  V30 12031 H 1111.21 3.21822 -0.431381 0
M  V30 12032 H 1112.22 3.12827 -4.12747 0
M  V30 12033 H 1108.9 3.83684 -1.64598 0
M  V30 12034 H 1110.29 3.58921 -5.68001 0
M  V30 12035 N 1113.01 1.29761 0.894412 0
M  V30 12036 C 1114.26 1.19224 1.64794 0
M  V30 12037 C 1114.61 -0.252648 1.90734 0
M  V30 12038 O 1113.9 -1.17881 1.51045 0
M  V30 12039 C 1114.1 1.94458 2.99868 0
M  V30 12040 C 1113.93 3.46115 2.87114 0
M  V30 12041 C 1112.7 4.15469 2.87599 0
M  V30 12042 C 1114.89 4.41518 2.63754 0
M  V30 12043 N 1112.88 5.53453 2.65637 0
M  V30 12044 C 1114.25 5.66999 2.50823 0
M  V30 12045 C 1116.3 4.31221 2.48903 0
M  V30 12046 C 1115.01 6.83351 2.24554 0
M  V30 12047 C 1117.03 5.4733 2.24018 0
M  V30 12048 C 1116.39 6.71786 2.11856 0
M  V30 12049 H 1112.49 0.491294 0.608403 0
M  V30 12050 H 1115.08 1.63656 1.05474 0
M  V30 12051 H 1113.25 1.52432 3.57238 0
M  V30 12052 H 1114.98 1.76142 3.64357 0
M  V30 12053 H 1111.73 3.67217 2.9908 0
M  V30 12054 H 1112.16 6.26037 2.57695 0
M  V30 12055 H 1116.8 3.35689 2.57046 0
M  V30 12056 H 1114.52 7.78933 2.15149 0
M  V30 12057 H 1118.1 5.41265 2.13363 0
M  V30 12058 H 1116.98 7.60113 1.92867 0
M  V30 12059 N 1114.49 -1.10549 1.12324 0
M  V30 12060 C 1115.4 -2.20428 0.803032 0
M  V30 12061 C 1116.41 -1.72756 -0.207674 0
M  V30 12062 O 1117.59 -2.01357 -0.0415623 0
M  V30 12063 C 1114.65 -3.45716 0.261032 0
M  V30 12064 C 1113.72 -4.08129 1.33152 0
M  V30 12065 C 1112.95 -5.27436 0.815288 0
M  V30 12066 O 1113.17 -5.69317 -0.351361 0
M  V30 12067 O 1112.11 -5.80674 1.58434 0
M  V30 12068 H 1115.93 -2.50249 1.72073 0
M  V30 12069 H 1113.52 -1.19263 0.899815 0
M  V30 12070 H 1115.4 -4.21384 -0.0364007 0
M  V30 12071 H 1114.07 -3.17525 -0.629249 0
M  V30 12072 H 1112.98 -3.3415 1.6821 0
M  V30 12073 H 1114.31 -4.4052 2.19552 0
M  V30 12074 N 1115.97 -0.914965 -1.28321 0
M  V30 12075 C 1117.21 -0.547665 -1.94538 0
M  V30 12076 C 1117.53 0.911834 -1.72368 0
M  V30 12077 O 1116.8 1.64481 -1.06408 0
M  V30 12078 H 1115.38 -0.199549 -0.719853 0
M  V30 12079 H 1118.05 -1.16459 -1.5628 0
M  V30 12080 H 1117.14 -0.743138 -3.03124 0
M  V30 12081 N 1117.44 1.42219 -0.679077 0
M  V30 12082 C 1118.69 2.01081 -0.202718 0
M  V30 12083 C 1119.01 1.53986 1.19639 0
M  V30 12084 O 1118.28 0.763359 1.80415 0
M  V30 12085 H 1116.86 0.743526 -0.0719547 0
M  V30 12086 H 1119.52 1.74077 -0.876544 0
M  V30 12087 H 1118.62 3.11411 -0.207314 0
M  V30 12088 N 1118.92 0.422693 1.51826 0
M  V30 12089 C 1120.16 -0.147997 2.03864 0
M  V30 12090 C 1120.53 -1.41224 1.30076 0
M  V30 12091 O 1121.73 -2.06224 1.72409 0
M  V30 12092 C 1120 -0.376248 3.55414 0
M  V30 12093 S 1121.56 -0.912444 4.29208 0
M  V30 12094 H 1118.37 -0.0387084 0.709946 0
M  V30 12095 H 1120.98 0.578733 1.86738 0
M  V30 12096 H 1119.68 0.550451 4.06692 0
M  V30 12097 H 1119.21 -1.13047 3.76807 0
M  V30 12098 H 1121.23 -2.19161 4.45177 0
M  V30 12099 N 1120.4 -1.5685 0.153553 0
M  V30 12100 C 1121.63 -2.00701 -0.502678 0
M  V30 12101 C 1122.04 -1.0337 -1.57988 0
M  V30 12102 O 1121.4 -0.0317233 -1.82472 0
M  V30 12103 C 1121.45 -3.44443 -1.09732 0
M  V30 12104 O 1121.17 -4.38054 -0.0631405 0
M  V30 12105 C 1122.67 -4.03605 -1.83352 0
M  V30 12106 H 1119.89 -0.658229 -0.130289 0
M  V30 12107 H 1122.44 -2.02965 0.250063 0
M  V30 12108 H 1120.59 -3.43009 -1.80065 0
M  V30 12109 H 1121.01 -5.22114 -0.499681 0
M  V30 12110 H 1122.48 -5.0616 -2.20241 0
M  V30 12111 H 1122.96 -3.44687 -2.7219 0
M  V30 12112 H 1123.56 -4.08688 -1.17703 0
M  V30 12113 N 1121.88 0.120221 -1.57141 0
M  V30 12114 C 1123.12 0.829449 -1.85062 0
M  V30 12115 C 1123.46 1.79585 -0.739116 0
M  V30 12116 O 1122.73 1.92819 0.255147 0
M  V30 12117 C 1123.01 1.58042 -3.23566 0
M  V30 12118 C 1122.87 0.633706 -4.45314 0
M  V30 12119 C 1124.19 2.53688 -3.59625 0
M  V30 12120 H 1121.31 0.300086 -0.67314 0
M  V30 12121 H 1123.95 0.0937393 -1.89769 0
M  V30 12122 H 1122.1 2.20758 -3.19684 0
M  V30 12123 H 1123.77 0.0154836 -4.61297 0
M  V30 12124 H 1122.01 -0.054846 -4.33765 0
M  V30 12125 H 1122.68 1.19577 -5.38893 0
M  V30 12126 H 1125.16 2.01078 -3.6429 0
M  V30 12127 H 1124.04 3.03265 -4.57516 0
M  V30 12128 H 1124.3 3.36296 -2.8698 0
M  V30 12129 N 1123.36 1.52689 0.390367 0
M  V30 12130 C 1124.3 1.7737 1.47677 0
M  V30 12131 C 1125.27 0.616864 1.54221 0
M  V30 12132 O 1126.46 0.856437 1.70499 0
M  V30 12133 C 1123.6 1.94715 2.84921 0
M  V30 12134 C 1122.71 3.22405 2.8754 0
M  V30 12135 C 1121.85 3.30074 4.16202 0
M  V30 12136 C 1120.89 4.51893 4.12867 0
M  V30 12137 N 1120.02 4.56851 5.33134 0
M  V30 12138 H 1124.86 2.70084 1.25932 0
M  V30 12139 H 1122.4 1.33813 0.610943 0
M  V30 12140 H 1124.36 2.02755 3.64618 0
M  V30 12141 H 1122.99 1.05363 3.0512 0
M  V30 12142 H 1122.04 3.23442 2.00223 0
M  V30 12143 H 1123.35 4.12156 2.80943 0
M  V30 12144 H 1122.51 3.3729 5.04302 0
M  V30 12145 H 1121.24 2.38295 4.25519 0
M  V30 12146 H 1120.25 4.44803 3.23156 0
M  V30 12147 H 1121.47 5.44987 4.05174 0
M  V30 12148 H 1119.42 3.67963 5.43083 0
M  V30 12149 H 1119.34 5.40472 5.28607 0
M  V30 12150 H 1120.61 4.6832 6.23134 0
M  V30 12151 N 1124.83 -0.648732 1.43629 0
M  V30 12152 C 1126.08 -1.40446 1.44768 0
M  V30 12153 C 1126.4 -1.95447 0.0773445 0
M  V30 12154 O 1127.6 -2.71479 -0.0337942 0
M  V30 12155 C 1126.06 -2.54194 2.54781 0
M  V30 12156 C 1125.67 -2.05781 3.97942 0
M  V30 12157 C 1127.41 -3.31529 2.65121 0
M  V30 12158 C 1125.32 -3.16767 4.99412 0
M  V30 12159 H 1124.25 -0.527717 0.538545 0
M  V30 12160 H 1126.9 -0.699756 1.69634 0
M  V30 12161 H 1125.28 -3.27156 2.23125 0
M  V30 12162 H 1126.45 -1.398 4.39081 0
M  V30 12163 H 1124.77 -1.41312 3.91688 0
M  V30 12164 H 1127.37 -4.14233 3.38105 0
M  V30 12165 H 1127.71 -3.79855 1.70341 0
M  V30 12166 H 1128.24 -2.65649 2.961 0
M  V30 12167 H 1124.98 -2.73404 5.9576 0
M  V30 12168 H 1124.5 -3.81445 4.62882 0
M  V30 12169 H 1126.18 -3.81827 5.22319 0
M  V30 12170 N 1126.31 -1.30234 -0.887518 0
M  V30 12171 C 1127.72 -1.17048 -1.45453 0
M  V30 12172 C 1128.07 0.229793 -1.9485 0
M  V30 12173 O 1127.2 1.12628 -1.84781 0
M  V30 12174 C 1127.79 -2.11876 -2.64375 0
M  V30 12175 C 1126.35 -2.02676 -3.17174 0
M  V30 12176 C 1125.5 -2.02104 -1.89866 0
M  V30 12177 H 1128.45 -1.42541 -0.697694 0
M  V30 12178 H 1128.47 -1.69811 -3.40506 0
M  V30 12179 H 1127.98 -3.13781 -2.28392 0
M  V30 12180 H 1126.09 -1.03904 -3.57819 0
M  V30 12181 H 1126.2 -2.90939 -3.80646 0
M  V30 12182 H 1124.56 -1.4687 -2.0809 0
M  V30 12183 H 1125.35 -3.05735 -1.56145 0
M  V30 12184 N 1127.79 1.09952 -1.12909 0
M  V30 12185 C 1129.04 1.82286 -0.888797 0
M  V30 12186 C 1129.37 1.85218 0.58379 0
M  V30 12187 O 1128.64 1.31645 1.43177 0
M  V30 12188 C 1128.93 3.28706 -1.47053 0
M  V30 12189 C 1128.78 3.34078 -3.01184 0
M  V30 12190 C 1130.1 4.25233 -1.13424 0
M  V30 12191 H 1127.22 0.661803 -0.324324 0
M  V30 12192 H 1129.86 1.28833 -1.3965 0
M  V30 12193 H 1128.01 3.74356 -1.03874 0
M  V30 12194 H 1129.68 2.96871 -3.5308 0
M  V30 12195 H 1127.93 2.73825 -3.36455 0
M  V30 12196 H 1128.6 4.37202 -3.36984 0
M  V30 12197 H 1131.07 3.87841 -1.50726 0
M  V30 12198 H 1129.95 5.26033 -1.56783 0
M  V30 12199 H 1130.21 4.42075 -0.0471496 0
M  V30 12200 N 1129.27 0.921757 1.27833 0
M  V30 12201 C 1130.23 0.420978 2.25301 0
M  V30 12202 C 1131.23 -0.457158 1.54165 0
M  V30 12203 O 1132.42 -0.259079 1.72263 0
M  V30 12204 C 1129.55 -0.395501 3.38598 0
M  V30 12205 H 1130.75 1.28206 2.71115 0
M  V30 12206 H 1128.3 0.701893 1.39654 0
M  V30 12207 H 1129.03 -1.27565 2.98157 0
M  V30 12208 H 1128.82 0.234029 3.91401 0
M  V30 12209 H 1130.31 -0.736444 4.11055 0
M  V30 12210 N 1130.75 -1.41857 0.686609 0
M  V30 12211 C 1131.68 -2.33481 0.0298353 0
M  V30 12212 C 1132.66 -1.51329 -0.776756 0
M  V30 12213 O 1133.84 -1.79895 -0.731535 0
M  V30 12214 C 1130.97 -3.35065 -0.913707 0
M  V30 12215 C 1129.93 -4.2746 -0.214861 0
M  V30 12216 C 1129.25 -5.19346 -1.27215 0
M  V30 12217 C 1130.55 -5.14252 0.913367 0
M  V30 12218 H 1132.25 -2.8865 0.795067 0
M  V30 12219 H 1129.79 -1.38792 0.383785 0
M  V30 12220 H 1131.75 -3.98082 -1.38234 0
M  V30 12221 H 1130.47 -2.78226 -1.7105 0
M  V30 12222 H 1129.13 -3.65855 0.233651 0
M  V30 12223 H 1128.78 -4.58827 -2.06124 0
M  V30 12224 H 1128.48 -5.81996 -0.80961 0
M  V30 12225 H 1130 -5.85239 -1.74147 0
M  V30 12226 H 1131.41 -5.70887 0.525424 0
M  V30 12227 H 1129.81 -5.85796 1.30244 0
M  V30 12228 H 1130.88 -4.51949 1.75699 0
M  V30 12229 N 1132.22 -0.430739 -1.51599 0
M  V30 12230 C 1133.5 0.197543 -1.946 0
M  V30 12231 C 1133.88 1.6069 -1.36901 0
M  V30 12232 O 1133.23 2.21697 -0.553422 0
M  V30 12233 C 1133.44 0.181976 -3.48525 0
M  V30 12234 C 1134.79 0.390783 -4.22798 0
M  V30 12235 O 1135.81 0.260384 -3.55247 0
M  V30 12236 O 1134.67 0.649701 -5.42624 0
M  V30 12237 H 1131.76 0.133524 -0.81615 0
M  V30 12238 H 1134.31 -0.488243 -1.62525 0
M  V30 12239 H 1133.08 -0.803584 -3.8296 0
M  V30 12240 H 1132.71 0.910952 -3.87024 0
M  V30 12241 N 1133.7 1.56767 -0.161869 0
M  V30 12242 C 1134.93 2.00964 0.492027 0
M  V30 12243 C 1135.35 1.04206 1.57437 0
M  V30 12244 O 1134.7 0.0413998 1.82453 0
M  V30 12245 C 1134.75 3.4502 1.07904 0
M  V30 12246 O 1134.47 4.38082 0.0399085 0
M  V30 12247 C 1135.98 4.04572 1.81209 0
M  V30 12248 H 1133.2 0.658911 0.126797 0
M  V30 12249 H 1135.74 2.0283 -0.260824 0
M  V30 12250 H 1133.89 3.43959 1.78243 0
M  V30 12251 H 1134.31 5.22372 0.471985 0
M  V30 12252 H 1135.78 5.07321 2.17554 0
M  V30 12253 H 1136.26 3.46126 2.70359 0
M  V30 12254 H 1136.87 4.09307 1.15534 0
M  V30 12255 N 1135.18 -0.111886 1.57202 0
M  V30 12256 C 1136.43 -0.817022 1.84412 0
M  V30 12257 C 1136.74 -1.80708 0.748608 0
M  V30 12258 O 1137.95 -2.55891 0.907319 0
M  V30 12259 C 1136.4 -1.50376 3.26979 0
M  V30 12260 C 1136.01 -0.554334 4.44557 0
M  V30 12261 C 1137.76 -2.19361 3.63429 0
M  V30 12262 C 1135.66 -1.24471 5.78153 0
M  V30 12263 H 1134.59 -0.308864 0.687836 0
M  V30 12264 H 1137.24 -0.0698109 1.83367 0
M  V30 12265 H 1135.63 -2.29785 3.22514 0
M  V30 12266 H 1136.8 0.207045 4.60335 0
M  V30 12267 H 1135.12 0.0289261 4.1639 0
M  V30 12268 H 1137.71 -2.71716 4.60515 0
M  V30 12269 H 1138.06 -2.97488 2.91215 0
M  V30 12270 H 1138.59 -1.46833 3.69709 0
M  V30 12271 H 1135.33 -0.504584 6.53555 0
M  V30 12272 H 1134.85 -1.97792 5.66249 0
M  V30 12273 H 1136.53 -1.77591 6.2215 0
M  V30 12274 N 1136.66 -1.52894 -0.382264 0
M  V30 12275 C 1138.07 -1.60135 -0.959887 0
M  V30 12276 C 1138.42 -0.458363 -1.90771 0
M  V30 12277 O 1137.55 0.417614 -2.12332 0
M  V30 12278 C 1138.14 -2.90243 -1.74769 0
M  V30 12279 C 1136.7 -2.99874 -2.27491 0
M  V30 12280 C 1135.85 -2.55302 -1.0824 0
M  V30 12281 H 1138.8 -1.57875 -0.161589 0
M  V30 12282 H 1138.82 -2.77108 -2.60751 0
M  V30 12283 H 1138.33 -3.73412 -1.0576 0
M  V30 12284 H 1136.43 -2.21258 -2.99793 0
M  V30 12285 H 1136.54 -4.04643 -2.56516 0
M  V30 12286 H 1134.91 -2.09781 -1.44444 0
M  V30 12287 H 1135.69 -3.40872 -0.407553 0
M  V30 12288 N 1138.14 0.641106 -1.43971 0
M  V30 12289 C 1139.38 1.40291 -1.46445 0
M  V30 12290 C 1139.72 1.93978 -0.0929004 0
M  V30 12291 O 1138.99 1.73043 0.888043 0
M  V30 12292 C 1139.27 2.57551 -2.51673 0
M  V30 12293 C 1139.13 2.09279 -3.98149 0
M  V30 12294 C 1140.45 3.59752 -2.53508 0
M  V30 12295 H 1137.57 0.508771 -0.533218 0
M  V30 12296 H 1140.21 0.725767 -1.75592 0
M  V30 12297 H 1138.36 3.15319 -2.2695 0
M  V30 12298 H 1140.03 1.56418 -4.33971 0
M  V30 12299 H 1138.27 1.40545 -4.10402 0
M  V30 12300 H 1138.94 2.93655 -4.67409 0
M  V30 12301 H 1141.42 3.11766 -2.75574 0
M  V30 12302 H 1140.3 4.39332 -3.29057 0
M  V30 12303 H 1140.56 4.13156 -1.57335 0
M  V30 12304 N 1139.62 1.30703 0.880598 0
M  V30 12305 C 1140.86 1.19778 1.63277 0
M  V30 12306 C 1141.19 -0.246521 1.92931 0
M  V30 12307 O 1140.45 -1.19226 1.55189 0
M  V30 12308 C 1140.74 1.97628 2.97789 0
M  V30 12309 C 1140.41 3.47213 2.87669 0
M  V30 12310 C 1139.07 3.88004 2.84617 0
M  V30 12311 C 1141.42 4.4245 2.75477 0
M  V30 12312 C 1138.75 5.22315 2.67216 0
M  V30 12313 C 1141.1 5.76874 2.59614 0
M  V30 12314 C 1139.77 6.16898 2.54939 0
M  V30 12315 H 1139.04 0.438298 0.597475 0
M  V30 12316 H 1141.69 1.61853 1.02352 0
M  V30 12317 H 1139.99 1.48201 3.6269 0
M  V30 12318 H 1141.69 1.86563 3.54958 0
M  V30 12319 H 1138.28 3.14802 2.90857 0
M  V30 12320 H 1142.46 4.11875 2.76899 0
M  V30 12321 H 1137.72 5.52412 2.62014 0
M  V30 12322 H 1141.89 6.50304 2.49155 0
M  V30 12323 H 1139.52 7.20916 2.41214 0
M  V30 12324 N 1141.09 -1.09351 1.1349 0
M  V30 12325 C 1142.03 -2.15852 0.770763 0
M  V30 12326 C 1143.04 -1.61468 -0.207866 0
M  V30 12327 O 1144.23 -1.78496 0.0124385 0
M  V30 12328 C 1141.33 -3.38681 0.121871 0
M  V30 12329 C 1140.5 -4.22477 1.13279 0
M  V30 12330 C 1139.56 -5.23728 0.509448 0
M  V30 12331 O 1138.59 -5.57052 1.16967 0
M  V30 12332 N 1139.79 -5.76041 -0.718159 0
M  V30 12333 H 1142.55 -2.47696 1.6872 0
M  V30 12334 H 1140.11 -1.25074 1.02801 0
M  V30 12335 H 1142.11 -4.03531 -0.307404 0
M  V30 12336 H 1140.68 -3.04718 -0.697527 0
M  V30 12337 H 1139.9 -3.53753 1.73933 0
M  V30 12338 H 1141.18 -4.75288 1.81601 0
M  V30 12339 H 1140.58 -5.51183 -1.27331 0
M  V30 12340 H 1139.14 -6.4262 -1.09008 0
M  V30 12341 N 1142.57 -0.928524 -1.27343 0
M  V30 12342 C 1143.99 -0.62889 -1.46687 0
M  V30 12343 C 1144.19 0.821592 -1.83989 0
M  V30 12344 O 1143.24 1.59941 -1.95385 0
M  V30 12345 C 1144.56 -1.57947 -2.55878 0
M  V30 12346 C 1146.1 -1.58778 -2.69738 0
M  V30 12347 C 1146.58 -2.52535 -3.82087 0
M  V30 12348 N 1148.07 -2.50747 -3.89462 0
M  V30 12349 C 1148.81 -3.19981 -4.75814 0
M  V30 12350 N 1148.3 -3.98598 -5.66649 0
M  V30 12351 N 1150.09 -3.08996 -4.69551 0
M  V30 12352 H 1142.25 -1.86625 -1.01414 0
M  V30 12353 H 1144.51 -0.801293 -0.50659 0
M  V30 12354 H 1144.21 -2.61427 -2.35264 0
M  V30 12355 H 1144.09 -1.3218 -3.53282 0
M  V30 12356 H 1146.48 -0.560292 -2.89732 0
M  V30 12357 H 1146.56 -1.88594 -1.72817 0
M  V30 12358 H 1146.2 -3.55395 -3.62846 0
M  V30 12359 H 1146.13 -2.20015 -4.78436 0
M  V30 12360 H 1148.62 -1.93651 -3.24511 0
M  V30 12361 H 1148.93 -4.4841 -6.29403 0
M  V30 12362 H 1147.28 -4.02701 -5.66442 0
M  V30 12363 H 1150.47 -2.4707 -3.97585 0
M  V30 12364 H 1150.64 -3.63223 -5.36631 0
M  V30 12365 N 1144.05 1.41491 -0.694123 0
M  V30 12366 C 1145.3 2.00854 -0.224033 0
M  V30 12367 C 1145.62 1.55246 1.17999 0
M  V30 12368 O 1144.89 0.782452 1.79595 0
M  V30 12369 H 1143.47 0.742721 -0.0798368 0
M  V30 12370 H 1146.13 1.73137 -0.894958 0
M  V30 12371 H 1145.23 3.11173 -0.240332 0
M  V30 12372 N 1145.53 0.438773 1.51369 0
M  V30 12373 C 1146.78 -0.126962 2.01701 0
M  V30 12374 C 1147.1 -1.43086 1.32481 0
M  V30 12375 O 1146.37 -1.90427 0.459823 0
M  V30 12376 H 1144.95 -0.0499092 0.745331 0
M  V30 12377 H 1147.61 0.581808 1.86013 0
M  V30 12378 H 1146.7 -0.301836 3.10637 0
M  V30 12379 N 1147.01 -1.56678 0.170181 0
M  V30 12380 C 1148.23 -2.0166 -0.484543 0
M  V30 12381 C 1148.66 -1.04962 -1.56091 0
M  V30 12382 O 1148.01 -0.0289887 -1.81277 0
M  V30 12383 C 1148.06 -3.45252 -1.04084 0
M  V30 12384 O 1147.17 -3.51623 -2.15488 0
M  V30 12385 H 1146.51 -0.653765 -0.116135 0
M  V30 12386 H 1149.04 -2.02761 0.273737 0
M  V30 12387 H 1149.05 -3.84534 -1.36373 0
M  V30 12388 H 1147.72 -4.15131 -0.252738 0
M  V30 12389 H 1146.3 -3.242 -1.84252 0
M  V30 12390 N 1148.48 0.103547 -1.57259 0
M  V30 12391 C 1149.73 0.809774 -1.85931 0
M  V30 12392 C 1150.06 1.78791 -0.758122 0
M  V30 12393 O 1149.34 1.93079 0.234682 0
M  V30 12394 C 1149.62 1.54601 -3.25224 0
M  V30 12395 C 1149.47 0.586439 -4.45961 0
M  V30 12396 C 1150.79 2.4986 -3.62296 0
M  V30 12397 H 1147.91 0.29293 -0.676285 0
M  V30 12398 H 1150.55 0.0736065 -1.89857 0
M  V30 12399 H 1148.7 2.17355 -3.22008 0
M  V30 12400 H 1150.38 -0.0334441 -4.61288 0
M  V30 12401 H 1148.62 -0.10085 -4.33683 0
M  V30 12402 H 1149.29 1.13855 -5.40131 0
M  V30 12403 H 1151.77 1.97203 -3.66402 0
M  V30 12404 H 1150.64 2.98396 -4.60707 0
M  V30 12405 H 1150.9 3.33233 -2.90531 0
M  V30 12406 N 1149.96 1.53094 0.37415 0
M  V30 12407 C 1151.21 1.68082 1.11495 0
M  V30 12408 C 1151.52 0.434685 1.90709 0
M  V30 12409 O 1152.73 0.464956 2.67489 0
M  V30 12410 C 1151.19 2.97101 2.03124 0
M  V30 12411 C 1150.79 4.28947 1.29262 0
M  V30 12412 C 1152.54 3.21456 2.77248 0
M  V30 12413 C 1150.44 5.4906 2.19743 0
M  V30 12414 H 1149.37 0.626238 0.419931 0
M  V30 12415 H 1152.03 1.79594 0.376588 0
M  V30 12416 H 1150.41 2.79371 2.80656 0
M  V30 12417 H 1151.58 4.57279 0.568528 0
M  V30 12418 H 1149.9 4.10968 0.670362 0
M  V30 12419 H 1152.49 4.08377 3.45155 0
M  V30 12420 H 1152.84 2.37153 3.42146 0
M  V30 12421 H 1153.37 3.3982 2.06803 0
M  V30 12422 H 1150.11 6.35815 1.59437 0
M  V30 12423 H 1149.63 5.25019 2.90027 0
M  V30 12424 H 1151.31 5.83517 2.79495 0
M  V30 12425 N 1151.44 -0.633461 1.44309 0
M  V30 12426 C 1152.85 -1.21504 1.41752 0
M  V30 12427 C 1153.2 -1.95758 0.131667 0
M  V30 12428 O 1152.33 -2.02311 -0.768072 0
M  V30 12429 C 1152.92 -2.21005 2.56792 0
M  V30 12430 C 1151.48 -2.74596 2.57438 0
M  V30 12431 C 1150.63 -1.49555 2.33513 0
M  V30 12432 H 1153.58 -0.424277 1.52923 0
M  V30 12433 H 1153.6 -3.03563 2.29412 0
M  V30 12434 H 1153.11 -1.66934 3.50364 0
M  V30 12435 H 1151.21 -3.32676 1.67801 0
M  V30 12436 H 1151.33 -3.20794 3.55849 0
M  V30 12437 H 1149.69 -1.77605 1.82561 0
M  V30 12438 H 1150.47 -0.973899 3.29196 0
M  V30 12439 N 1152.92 -1.31168 -0.873655 0
M  V30 12440 C 1154.17 -1.20003 -1.62118 0
M  V30 12441 C 1154.48 0.241505 -1.94103 0
M  V30 12442 O 1155.69 0.474801 -2.67316 0
M  V30 12443 C 1154.14 -2.10055 -2.92241 0
M  V30 12444 C 1153.75 -3.59183 -2.67752 0
M  V30 12445 C 1155.49 -2.07681 -3.70228 0
M  V30 12446 C 1153.4 -4.41255 -3.93761 0
M  V30 12447 H 1152.33 -0.445564 -0.608267 0
M  V30 12448 H 1154.98 -1.55997 -0.966287 0
M  V30 12449 H 1153.36 -1.66956 -3.59085 0
M  V30 12450 H 1154.54 -4.10504 -2.09339 0
M  V30 12451 H 1152.85 -3.63496 -2.03125 0
M  V30 12452 H 1155.45 -2.66246 -4.637 0
M  V30 12453 H 1155.79 -1.06304 -4.02499 0
M  V30 12454 H 1156.33 -2.48961 -3.10263 0
M  V30 12455 H 1153.07 -5.43372 -3.66643 0
M  V30 12456 H 1152.59 -3.94694 -4.51638 0
M  V30 12457 H 1154.26 -4.53278 -4.6168 0
M  V30 12458 N 1154.4 1.08748 -1.14068 0
M  V30 12459 C 1155.34 2.15573 -0.824425 0
M  V30 12460 C 1156.31 1.64683 0.216522 0
M  V30 12461 O 1157.5 1.90601 0.0872193 0
M  V30 12462 C 1154.64 3.43756 -0.30423 0
M  V30 12463 C 1153.75 4.08512 -1.40506 0
M  V30 12464 C 1152.89 5.24477 -0.842479 0
M  V30 12465 C 1151.93 5.81167 -1.92123 0
M  V30 12466 N 1151.06 6.88483 -1.37608 0
M  V30 12467 H 1155.9 2.41968 -1.73941 0
M  V30 12468 H 1153.44 1.18751 -0.868143 0
M  V30 12469 H 1155.4 4.17197 0.0155546 0
M  V30 12470 H 1154.03 3.17658 0.573868 0
M  V30 12471 H 1153.08 3.32866 -1.84131 0
M  V30 12472 H 1154.39 4.46669 -2.2201 0
M  V30 12473 H 1153.55 6.04842 -0.474389 0
M  V30 12474 H 1152.28 4.877 0.00355212 0
M  V30 12475 H 1151.29 4.99458 -2.29831 0
M  V30 12476 H 1152.51 6.20003 -2.77079 0
M  V30 12477 H 1150.46 6.53672 -0.552168 0
M  V30 12478 H 1150.38 7.25446 -2.12752 0
M  V30 12479 H 1151.65 7.72588 -1.03578 0
M  V30 12480 N 1155.87 0.935264 1.26849 0
M  V30 12481 C 1157.1 0.596249 1.98122 0
M  V30 12482 C 1157.52 -0.827452 1.69702 0
M  V30 12483 O 1156.87 -1.55095 0.961864 0
M  V30 12484 C 1156.93 0.821773 3.52036 0
M  V30 12485 O 1156.65 2.18947 3.79465 0
M  V30 12486 C 1158.15 0.492498 4.40556 0
M  V30 12487 H 1155.37 0.225242 0.632066 0
M  V30 12488 H 1157.91 1.25435 1.61512 0
M  V30 12489 H 1156.07 0.210363 3.86828 0
M  V30 12490 H 1156.48 2.24509 4.74021 0
M  V30 12491 H 1157.95 0.700953 5.47531 0
M  V30 12492 H 1158.43 -0.57228 4.35456 0
M  V30 12493 H 1159.04 1.08238 4.11296 0
M  V30 12494 N 1157.35 -1.41121 0.701616 0
M  V30 12495 C 1158.58 -2.05452 0.244365 0
M  V30 12496 C 1159 -1.5282 -1.10866 0
M  V30 12497 O 1158.35 -0.67893 -1.69401 0
M  V30 12498 C 1158.4 -3.60946 0.200112 0
M  V30 12499 O 1158.12 -4.11632 1.4997 0
M  V30 12500 C 1159.63 -4.42431 -0.277394 0
M  V30 12501 H 1156.85 -0.66151 0.112453 0
M  V30 12502 H 1159.39 -1.80784 0.9559 0
M  V30 12503 H 1157.54 -3.84632 -0.462287 0
M  V30 12504 H 1157.96 -5.05723 1.39084 0
M  V30 12505 H 1159.43 -5.514 -0.257225 0
M  V30 12506 H 1159.91 -4.1898 -1.31728 0
M  V30 12507 H 1160.52 -4.23822 0.354223 0
M  V30 12508 N 1158.83 -0.446794 -1.51134 0
M  V30 12509 C 1160.08 0.116666 -2.02464 0
M  V30 12510 C 1160.41 1.41532 -1.32975 0
M  V30 12511 O 1159.68 1.89278 -0.447651 0
M  V30 12512 C 1159.97 0.325659 -3.58624 0
M  V30 12513 C 1159.82 -0.992307 -4.38718 0
M  V30 12514 C 1161.14 1.09121 -4.26357 0
M  V30 12515 H 1158.26 0.0409262 -0.735863 0
M  V30 12516 H 1160.9 -0.587641 -1.80684 0
M  V30 12517 H 1159.05 0.925585 -3.77313 0
M  V30 12518 H 1160.72 -1.62694 -4.31658 0
M  V30 12519 H 1158.97 -1.5947 -4.03425 0
M  V30 12520 H 1159.64 -0.800005 -5.46172 0
M  V30 12521 H 1162.11 0.582944 -4.11996 0
M  V30 12522 H 1160.99 1.20621 -5.35483 0
M  V30 12523 H 1161.25 2.12171 -3.87861 0
M  V30 12524 N 1160.31 1.56586 -0.178487 0
M  V30 12525 C 1161.56 1.96709 0.4637 0
M  V30 12526 C 1161.88 1.06586 1.63292 0
M  V30 12527 O 1161.15 0.133683 1.95443 0
M  V30 12528 H 1159.73 0.726381 0.174299 0
M  V30 12529 H 1162.39 1.9314 -0.261345 0
M  V30 12530 H 1161.49 3.01164 0.818934 0
M  V30 12531 N 1161.79 -0.095206 1.57312 0
M  V30 12532 C 1162.73 -1.11551 2.02052 0
M  V30 12533 C 1163.7 -1.39808 0.896818 0
M  V30 12534 O 1164.89 -1.51273 1.1628 0
M  V30 12535 C 1162.03 -2.43056 2.44985 0
M  V30 12536 C 1161.14 -2.21531 3.70875 0
M  V30 12537 C 1160.28 -3.46434 4.02687 0
M  V30 12538 C 1159.32 -3.2017 5.21687 0
M  V30 12539 N 1158.45 -4.37339 5.49253 0
M  V30 12540 H 1163.29 -0.727 2.88996 0
M  V30 12541 H 1160.83 -0.347441 1.42938 0
M  V30 12542 H 1162.79 -3.19803 2.67921 0
M  V30 12543 H 1161.42 -2.79754 1.61051 0
M  V30 12544 H 1160.47 -1.35587 3.55416 0
M  V30 12545 H 1161.78 -1.98116 4.57768 0
M  V30 12546 H 1160.94 -4.31589 4.26399 0
M  V30 12547 H 1159.67 -3.72904 3.14315 0
M  V30 12548 H 1158.68 -2.33409 4.97796 0
M  V30 12549 H 1159.9 -2.95047 6.11657 0
M  V30 12550 H 1157.85 -4.63885 4.6384 0
M  V30 12551 H 1157.77 -4.17114 6.30517 0
M  V30 12552 H 1159.04 -5.23559 5.775 0
M  V30 12553 N 1163.26 -1.53291 -0.366026 0
M  V30 12554 C 1164.49 -1.73665 -1.13381 0
M  V30 12555 C 1164.91 -0.464284 -1.8228 0
M  V30 12556 O 1164.27 0.581645 -1.71717 0
M  V30 12557 C 1164.32 -2.90225 -2.14013 0
M  V30 12558 O 1163.42 -2.58803 -3.21084 0
M  V30 12559 H 1162.77 -0.576762 -0.329 0
M  V30 12560 H 1165.3 -2.00174 -0.423287 0
M  V30 12561 H 1165.31 -3.16378 -2.57622 0
M  V30 12562 H 1163.98 -3.82518 -1.63257 0
M  V30 12563 H 1162.56 -2.43466 -2.82451 0
M  V30 12564 N 1164.74 0.6258 -1.44643 0
M  V30 12565 C 1165.97 1.41233 -1.51198 0
M  V30 12566 C 1166.39 1.88291 -0.138572 0
M  V30 12567 O 1165.74 1.61151 0.856537 0
M  V30 12568 C 1165.79 2.62908 -2.48117 0
M  V30 12569 O 1165.51 2.1781 -3.80119 0
M  V30 12570 C 1167.02 3.55976 -2.6419 0
M  V30 12571 H 1164.24 0.432954 -0.512632 0
M  V30 12572 H 1166.78 0.76486 -1.89658 0
M  V30 12573 H 1164.93 3.23735 -2.12778 0
M  V30 12574 H 1165.35 2.96732 -4.32493 0
M  V30 12575 H 1166.82 4.37943 -3.3602 0
M  V30 12576 H 1167.3 4.05133 -1.696 0
M  V30 12577 H 1167.91 3.01014 -3.00451 0
M  V30 12578 N 1166.22 1.31629 0.866686 0
M  V30 12579 C 1167.47 1.21263 1.61678 0
M  V30 12580 C 1167.79 -0.228562 1.93656 0
M  V30 12581 O 1167.06 -1.15014 1.58583 0
M  V30 12582 H 1165.64 0.445817 0.59938 0
M  V30 12583 H 1168.3 1.64998 1.03739 0
M  V30 12584 H 1167.4 1.78669 2.55898 0
M  V30 12585 N 1167.7 -1.08142 1.14644 0
M  V30 12586 C 1168.95 -1.81015 0.927648 0
M  V30 12587 C 1169.3 -1.8467 -0.539885 0
M  V30 12588 O 1168.59 -1.31353 -1.39488 0
M  V30 12589 C 1168.79 -3.25962 1.46573 0
M  V30 12590 C 1168.62 -3.36429 2.98405 0
M  V30 12591 C 1167.39 -3.4746 3.66878 0
M  V30 12592 C 1169.58 -3.27855 3.96252 0
M  V30 12593 N 1167.57 -3.46746 5.06597 0
M  V30 12594 C 1168.94 -3.34165 5.22239 0
M  V30 12595 C 1170.99 -3.11611 3.88334 0
M  V30 12596 C 1169.7 -3.25903 6.41233 0
M  V30 12597 C 1171.72 -3.04679 5.06877 0
M  V30 12598 C 1171.08 -3.11594 6.31735 0
M  V30 12599 H 1167.18 -0.676065 0.393014 0
M  V30 12600 H 1169.77 -1.29145 1.45704 0
M  V30 12601 H 1167.94 -3.7627 0.96308 0
M  V30 12602 H 1169.67 -3.86914 1.18659 0
M  V30 12603 H 1166.42 -3.51466 3.17441 0
M  V30 12604 H 1166.85 -3.49939 5.79544 0
M  V30 12605 H 1171.49 -3.05125 2.92675 0
M  V30 12606 H 1169.21 -3.3115 7.37133 0
M  V30 12607 H 1172.79 -2.93226 5.02503 0
M  V30 12608 H 1171.67 -3.06264 7.21922 0
M  V30 12609 N 1169.18 -0.941978 -1.26351 0
M  V30 12610 C 1170.11 -0.396486 -2.24729 0
M  V30 12611 C 1171.09 0.51514 -1.54224 0
M  V30 12612 O 1172.27 0.452405 -1.82991 0
M  V30 12613 C 1169.4 0.430232 -3.35956 0
M  V30 12614 C 1168.45 -0.419981 -4.24427 0
M  V30 12615 S 1169.28 -1.84442 -5.02734 0
M  V30 12616 C 1170.43 -1.02578 -6.17437 0
M  V30 12617 H 1170.67 -1.23025 -2.70651 0
M  V30 12618 H 1168.2 -0.745148 -1.35229 0
M  V30 12619 H 1170.16 0.901315 -4.00483 0
M  V30 12620 H 1168.82 1.23868 -2.88644 0
M  V30 12621 H 1168.01 0.213475 -5.03548 0
M  V30 12622 H 1167.61 -0.82578 -3.6477 0
M  V30 12623 H 1169.91 -0.268431 -6.76968 0
M  V30 12624 H 1170.85 -1.79047 -6.85089 0
M  V30 12625 H 1171.26 -0.561488 -5.61701 0
M  V30 12626 N 1170.66 1.40747 -0.709091 0
M  V30 12627 C 1171.88 2.05319 -0.255258 0
M  V30 12628 C 1172.3 1.53406 1.10054 0
M  V30 12629 O 1171.66 0.687905 1.69039 0
M  V30 12630 C 1171.71 3.60835 -0.219251 0
M  V30 12631 O 1171.43 4.1083 -1.52151 0
M  V30 12632 C 1172.93 4.42572 0.253927 0
M  V30 12633 H 1170.15 0.660904 -0.115959 0
M  V30 12634 H 1172.69 1.80274 -0.965474 0
M  V30 12635 H 1170.85 3.84872 0.441882 0
M  V30 12636 H 1171.26 5.04979 -1.41764 0
M  V30 12637 H 1172.74 5.51529 0.22798 0
M  V30 12638 H 1173.21 4.19673 1.29504 0
M  V30 12639 H 1173.82 4.23629 -0.376694 0
M  V30 12640 N 1172.13 0.454803 1.50895 0
M  V30 12641 C 1173.04 -0.353495 2.31921 0
M  V30 12642 C 1174.06 -1.01136 1.41589 0
M  V30 12643 O 1175.24 -1.00291 1.74653 0
M  V30 12644 C 1172.3 -1.43032 3.15821 0
M  V30 12645 C 1171.36 -0.790763 4.21954 0
M  V30 12646 C 1170.59 -1.81628 5.01843 0
M  V30 12647 O 1170.82 -3.04078 4.8259 0
M  V30 12648 O 1169.75 -1.39713 5.8546 0
M  V30 12649 H 1173.58 0.308463 3.02129 0
M  V30 12650 H 1171.16 0.216971 1.47816 0
M  V30 12651 H 1173.04 -2.05444 3.67927 0
M  V30 12652 H 1171.72 -2.07605 2.48358 0
M  V30 12653 H 1170.63 -0.128127 3.73881 0
M  V30 12654 H 1171.96 -0.188251 4.9184 0
M  V30 12655 N 1173.61 -1.56489 0.186789 0
M  V30 12656 C 1174.84 -2.02163 -0.463126 0
M  V30 12657 C 1175.26 -1.06612 -1.54969 0
M  V30 12658 O 1174.62 -0.0482139 -1.81236 0
M  V30 12659 C 1174.67 -3.46337 -1.00416 0
M  V30 12660 O 1173.77 -3.53889 -2.11747 0
M  V30 12661 H 1173.11 -0.65496 -0.109194 0
M  V30 12662 H 1175.64 -2.02459 0.295227 0
M  V30 12663 H 1175.65 -3.85959 -1.32287 0
M  V30 12664 H 1174.33 -4.15376 -0.208693 0
M  V30 12665 H 1172.9 -3.26136 -1.80803 0
M  V30 12666 N 1175.09 0.086862 -1.5736 0
M  V30 12667 C 1176.31 0.806017 -1.91097 0
M  V30 12668 C 1176.74 1.71082 -0.78183 0
M  V30 12669 O 1176.1 1.79335 0.266175 0
M  V30 12670 C 1176.15 1.5884 -3.23732 0
M  V30 12671 O 1175.25 2.69798 -3.11902 0
M  V30 12672 H 1174.59 0.220899 -0.626179 0
M  V30 12673 H 1177.12 0.059619 -2.04513 0
M  V30 12674 H 1177.13 1.97088 -3.5724 0
M  V30 12675 H 1175.81 0.924426 -4.05496 0
M  V30 12676 H 1174.38 2.34519 -2.89923 0
M  V30 12677 N 1176.57 1.53483 0.357892 0
M  V30 12678 C 1177.8 1.73704 1.11851 0
M  V30 12679 C 1178.21 0.469388 1.83285 0
M  V30 12680 O 1177.55 -0.567894 1.74702 0
M  V30 12681 C 1177.61 2.85301 2.18732 0
M  V30 12682 C 1177.27 4.25395 1.66998 0
M  V30 12683 C 1178.27 5.07472 1.12994 0
M  V30 12684 C 1175.96 4.71832 1.72279 0
M  V30 12685 C 1177.95 6.34081 0.649574 0
M  V30 12686 C 1175.64 5.98417 1.23854 0
M  V30 12687 C 1176.64 6.79374 0.702839 0
M  V30 12688 O 1176.32 8.03583 0.225763 0
M  V30 12689 H 1176.06 0.584251 0.34004 0
M  V30 12690 H 1178.61 2.01054 0.420313 0
M  V30 12691 H 1176.84 2.53442 2.92068 0
M  V30 12692 H 1178.53 2.93627 2.80247 0
M  V30 12693 H 1179.29 4.72766 1.08248 0
M  V30 12694 H 1175.17 4.08886 2.12916 0
M  V30 12695 H 1178.72 6.97218 0.230774 0
M  V30 12696 H 1174.61 6.32622 1.28296 0
M  V30 12697 H 1175.38 8.17775 0.344381 0
M  V30 12698 N 1178.05 -0.61812 1.44973 0
M  V30 12699 C 1179.29 -1.37468 1.48145 0
M  V30 12700 C 1179.61 -1.94628 0.120366 0
M  V30 12701 O 1178.88 -1.76548 -0.848982 0
M  V30 12702 H 1177.46 -0.510293 0.545536 0
M  V30 12703 H 1180.13 -0.726598 1.8085 0
M  V30 12704 H 1179.22 -2.19944 2.2143 0
M  V30 12705 N 1179.52 -1.32087 -0.859693 0
M  V30 12706 C 1180.45 -1.23204 -1.98351 0
M  V30 12707 C 1181.43 -0.116974 -1.69697 0
M  V30 12708 O 1182.62 -0.303301 -1.91817 0
M  V30 12709 C 1179.75 -0.949171 -3.34078 0
M  V30 12710 C 1178.7 -2.02493 -3.77069 0
M  V30 12711 C 1178.03 -1.59455 -5.1037 0
M  V30 12712 C 1179.33 -3.43934 -3.93074 0
M  V30 12713 H 1181.02 -2.17227 -2.0604 0
M  V30 12714 H 1178.57 -1.04577 -0.989931 0
M  V30 12715 H 1180.52 -0.873594 -4.12245 0
M  V30 12716 H 1179.25 0.0267095 -3.26589 0
M  V30 12717 H 1177.91 -2.09057 -3.01149 0
M  V30 12718 H 1177.55 -0.606256 -4.99333 0
M  V30 12719 H 1177.25 -2.31429 -5.40106 0
M  V30 12720 H 1178.78 -1.53325 -5.91036 0
M  V30 12721 H 1180.19 -3.39986 -4.61608 0
M  V30 12722 H 1178.59 -4.14214 -4.3422 0
M  V30 12723 H 1179.66 -3.83965 -2.9614 0
M  V30 12724 N 1181 1.07532 -1.15215 0
M  V30 12725 C 1182.42 1.32183 -0.894411 0
M  V30 12726 C 1182.62 1.96188 0.459614 0
M  V30 12727 O 1181.67 2.22057 1.20195 0
M  V30 12728 C 1182.99 2.21473 -2.03397 0
M  V30 12729 C 1184.53 2.34927 -2.06829 0
M  V30 12730 C 1185.01 3.27564 -3.20103 0
M  V30 12731 N 1186.5 3.35144 -3.19738 0
M  V30 12732 C 1187.24 4.0688 -4.04025 0
M  V30 12733 N 1186.73 4.81246 -4.98371 0
M  V30 12734 N 1188.52 4.02802 -3.92055 0
M  V30 12735 H 1180.68 0.643732 -2.0241 0
M  V30 12736 H 1182.94 0.346272 -0.882496 0
M  V30 12737 H 1182.64 1.81701 -3.01127 0
M  V30 12738 H 1182.52 3.2199 -1.96475 0
M  V30 12739 H 1184.91 2.73953 -1.09699 0
M  V30 12740 H 1184.99 1.34121 -2.17819 0
M  V30 12741 H 1184.63 2.89258 -4.17483 0
M  V30 12742 H 1184.56 4.2832 -3.06349 0
M  V30 12743 H 1187.05 2.82135 -2.51412 0
M  V30 12744 H 1187.36 5.33472 -5.59131 0
M  V30 12745 H 1185.71 4.80268 -5.02362 0
M  V30 12746 H 1188.9 3.43816 -3.17661 0
M  V30 12747 H 1189.07 4.58443 -4.57967 0
M  V30 12748 N 1182.48 0.948665 1.2585 0
M  V30 12749 C 1183.73 0.601125 1.93686 0
M  V30 12750 C 1184.06 -0.858779 1.7418 0
M  V30 12751 O 1183.33 -1.61539 1.0833 0
M  V30 12752 C 1183.62 0.95333 3.47252 0
M  V30 12753 C 1183.47 2.46853 3.7601 0
M  V30 12754 C 1184.79 0.474098 4.37539 0
M  V30 12755 H 1181.91 0.219864 0.703441 0
M  V30 12756 H 1184.55 1.18424 1.48579 0
M  V30 12757 H 1182.7 0.457114 3.85801 0
M  V30 12758 H 1184.37 3.03804 3.47132 0
M  V30 12759 H 1182.62 2.9088 3.21825 0
M  V30 12760 H 1183.29 2.66547 4.83381 0
M  V30 12761 H 1185.76 0.899664 4.06258 0
M  V30 12762 H 1184.64 0.749287 5.43762 0
M  V30 12763 H 1184.9 -0.625961 4.37646 0
M  V30 12764 N 1183.96 -1.40369 0.716545 0
M  V30 12765 C 1184.92 -2.29083 0.0733105 0
M  V30 12766 C 1185.92 -1.45415 -0.686378 0
M  V30 12767 O 1187.11 -1.66316 -0.518139 0
M  V30 12768 C 1184.24 -3.28639 -0.906032 0
M  V30 12769 H 1185.44 -2.87464 0.85467 0
M  V30 12770 H 1182.99 -1.48706 0.481256 0
M  V30 12771 H 1183.72 -2.75279 -1.71441 0
M  V30 12772 H 1183.51 -3.90405 -0.364163 0
M  V30 12773 H 1185 -3.95066 -1.35324 0
M  V30 12774 N 1185.44 -0.462799 -1.50652 0
M  V30 12775 C 1186.37 0.325724 -2.31217 0
M  V30 12776 C 1187.35 0.997942 -1.3775 0
M  V30 12777 O 1188.53 0.996707 -1.66671 0
M  V30 12778 C 1185.66 1.41283 -3.17264 0
M  V30 12779 C 1184.62 0.862687 -4.19216 0
M  V30 12780 C 1183.94 2.04746 -4.93946 0
M  V30 12781 C 1185.24 -0.120365 -5.22161 0
M  V30 12782 H 1186.94 -0.346666 -2.97386 0
M  V30 12783 H 1184.48 -0.168163 -1.43015 0
M  V30 12784 H 1186.44 1.97188 -3.72418 0
M  V30 12785 H 1185.16 2.11387 -2.48964 0
M  V30 12786 H 1183.82 0.325671 -3.65151 0
M  V30 12787 H 1183.47 2.73529 -4.22127 0
M  V30 12788 H 1183.17 1.68562 -5.62904 0
M  V30 12789 H 1184.69 2.61157 -5.51932 0
M  V30 12790 H 1186.1 0.349226 -5.72235 0
M  V30 12791 H 1184.5 -0.396061 -5.98792 0
M  V30 12792 H 1185.57 -1.04895 -4.73418 0
M  V30 12793 N 1186.91 1.56388 -0.195085 0
M  V30 12794 C 1188.14 2.02406 0.452399 0
M  V30 12795 C 1188.56 1.07432 1.54402 0
M  V30 12796 O 1187.92 0.0578246 1.81208 0
M  V30 12797 C 1187.97 3.46864 0.985778 0
M  V30 12798 O 1187.07 3.55007 2.09867 0
M  V30 12799 H 1186.42 0.65553 0.105719 0
M  V30 12800 H 1188.95 2.02299 -0.30596 0
M  V30 12801 H 1188.96 3.86655 1.30238 0
M  V30 12802 H 1187.63 4.15481 0.186662 0
M  V30 12803 H 1186.21 3.2709 1.79071 0
M  V30 12804 N 1188.39 -0.0785156 1.57404 0
M  V30 12805 C 1189.62 -0.792042 1.9114 0
M  V30 12806 C 1190.04 -1.71458 0.790408 0
M  V30 12807 O 1189.39 -1.80959 -0.236662 0
M  V30 12808 C 1189.44 -1.59138 3.24588 0
M  V30 12809 O 1189.16 -0.705931 4.32375 0
M  V30 12810 C 1190.67 -2.4065 3.72293 0
M  V30 12811 H 1187.89 -0.225566 0.63195 0
M  V30 12812 H 1190.43 -0.0507929 2.04437 0
M  V30 12813 H 1188.58 -2.28498 3.12838 0
M  V30 12814 H 1189 -1.26121 5.09111 0
M  V30 12815 H 1190.47 -2.92204 4.68317 0
M  V30 12816 H 1190.95 -3.1987 3.00965 0
M  V30 12817 H 1191.56 -1.7646 3.86965 0
M  V30 12818 N 1189.87 -1.5367 -0.349747 0
M  V30 12819 C 1190.82 -1.81223 -1.42922 0
M  V30 12820 C 1191.79 -0.657536 -1.52531 0
M  V30 12821 O 1192.97 -0.90134 -1.68168 0
M  V30 12822 C 1190.11 -2.022 -2.79659 0
M  V30 12823 C 1189.23 -3.29915 -2.78891 0
M  V30 12824 C 1188.36 -3.40993 -4.07305 0
M  V30 12825 C 1187.4 -4.6268 -4.00741 0
M  V30 12826 N 1186.54 -4.70826 -5.20833 0
M  V30 12827 H 1191.38 -2.73328 -1.18727 0
M  V30 12828 H 1188.91 -1.35386 -0.57525 0
M  V30 12829 H 1190.87 -2.12351 -3.59114 0
M  V30 12830 H 1189.5 -1.13416 -3.0222 0
M  V30 12831 H 1188.55 -3.28637 -1.91577 0
M  V30 12832 H 1189.87 -4.19459 -2.69917 0
M  V30 12833 H 1189.02 -3.50542 -4.95182 0
M  V30 12834 H 1187.76 -2.49493 -4.19052 0
M  V30 12835 H 1186.76 -4.53215 -3.11249 0
M  V30 12836 H 1187.99 -5.55538 -3.90582 0
M  V30 12837 H 1185.93 -3.82233 -5.33136 0
M  V30 12838 H 1185.85 -5.54297 -5.14092 0
M  V30 12839 H 1187.12 -4.84677 -6.10499 0
M  V30 12840 N 1191.35 0.610423 -1.45298 0
M  V30 12841 C 1192.6 1.3668 -1.48872 0
M  V30 12842 C 1192.92 1.94562 -0.130686 0
M  V30 12843 O 1192.19 1.76996 0.839607 0
M  V30 12844 H 1190.77 0.507393 -0.548235 0
M  V30 12845 H 1193.43 0.716997 -1.81232 0
M  V30 12846 H 1192.53 2.18766 -2.22593 0
M  V30 12847 N 1192.83 1.32541 0.852676 0
M  V30 12848 C 1194.05 1.2636 1.64462 0
M  V30 12849 C 1194.48 -0.16508 1.87374 0
M  V30 12850 O 1193.83 -1.11712 1.42794 0
M  V30 12851 C 1193.88 2.03052 2.97997 0
M  V30 12852 O 1192.99 1.37967 3.88637 0
M  V30 12853 H 1192.33 0.435393 0.501327 0
M  V30 12854 H 1194.86 1.74888 1.06186 0
M  V30 12855 H 1194.87 2.133 3.47803 0
M  V30 12856 H 1193.54 3.06941 2.80642 0
M  V30 12857 H 1192.12 1.36279 3.47106 0
M  V30 12858 N 1194.3 -1.0692 1.15784 0
M  V30 12859 C 1195.53 -1.83849 0.959903 0
M  V30 12860 C 1195.95 -1.8169 -0.486873 0
M  V30 12861 O 1195.31 -1.21305 -1.34739 0
M  V30 12862 C 1195.36 -3.28642 1.48414 0
M  V30 12863 O 1194.46 -4.0665 0.686249 0
M  V30 12864 H 1193.81 -0.569115 0.342059 0
M  V30 12865 H 1196.34 -1.34851 1.53871 0
M  V30 12866 H 1196.35 -3.7947 1.49888 0
M  V30 12867 H 1195.02 -3.29529 2.53739 0
M  V30 12868 H 1193.6 -3.65453 0.741501 0
M  V30 12869 N 1195.78 -0.955326 -1.25345 0
M  V30 12870 C 1197.03 -0.611388 -1.93365 0
M  V30 12871 C 1197.36 0.84953 -1.74633 0
M  V30 12872 O 1196.64 1.60962 -1.09185 0
M  V30 12873 C 1196.92 -0.971732 -3.46741 0
M  V30 12874 C 1196.77 -2.48843 -3.74696 0
M  V30 12875 C 1198.09 -0.497295 -4.37281 0
M  V30 12876 H 1195.21 -0.223591 -0.702265 0
M  V30 12877 H 1197.85 -1.1921 -1.47949 0
M  V30 12878 H 1196 -0.477568 -3.85554 0
M  V30 12879 H 1197.67 -3.05641 -3.45516 0
M  V30 12880 H 1195.92 -2.92582 -3.20278 0
M  V30 12881 H 1196.59 -2.69107 -4.8196 0
M  V30 12882 H 1199.06 -0.921196 -4.05775 0
M  V30 12883 H 1197.94 -0.778113 -5.43357 0
M  V30 12884 H 1198.2 0.602743 -4.37972 0
M  V30 12885 N 1197.26 1.39987 -0.723979 0
M  V30 12886 C 1198.51 2.00334 -0.266587 0
M  V30 12887 C 1198.83 1.57714 1.14679 0
M  V30 12888 O 1198.1 0.82037 1.77895 0
M  V30 12889 H 1196.68 0.740861 -0.095573 0
M  V30 12890 H 1199.34 1.712 -0.931481 0
M  V30 12891 H 1198.44 3.10594 -0.306282 0
M  V30 12892 N 1198.74 0.470782 1.50404 0
M  V30 12893 C 1199.65 -0.328877 2.32283 0
M  V30 12894 C 1200.67 -0.99629 1.42654 0
M  V30 12895 O 1201.84 -0.984331 1.75707 0
M  V30 12896 C 1198.91 -1.39675 3.1732 0
M  V30 12897 C 1197.97 -0.745965 4.22769 0
M  V30 12898 C 1197.2 -1.76295 5.03742 0
M  V30 12899 O 1197.42 -2.98943 4.85788 0
M  V30 12900 O 1196.36 -1.33495 5.86909 0
M  V30 12901 H 1200.18 0.340491 3.01785 0
M  V30 12902 H 1197.77 0.232637 1.47578 0
M  V30 12903 H 1199.65 -2.0153 3.70086 0
M  V30 12904 H 1198.33 -2.04959 2.50546 0
M  V30 12905 H 1197.23 -0.0884647 3.73995 0
M  V30 12906 H 1198.57 -0.136074 4.92012 0
M  V30 12907 N 1200.22 -1.56282 0.203376 0
M  V30 12908 C 1201.15 -2.2247 -0.709183 0
M  V30 12909 C 1202.13 -1.19046 -1.21499 0
M  V30 12910 O 1203.31 -1.47578 -1.26231 0
M  V30 12911 C 1200.44 -2.8905 -1.92529 0
M  V30 12912 C 1199.4 -3.98789 -1.55407 0
M  V30 12913 C 1198.72 -4.52574 -2.84747 0
M  V30 12914 C 1200.02 -5.16774 -0.75775 0
M  V30 12915 H 1201.72 -2.98986 -0.157392 0
M  V30 12916 H 1199.26 -1.43808 -0.0742613 0
M  V30 12917 H 1201.22 -3.34038 -2.56898 0
M  V30 12918 H 1199.94 -2.09952 -2.50175 0
M  V30 12919 H 1198.6 -3.54504 -0.933928 0
M  V30 12920 H 1198.25 -3.70229 -3.40499 0
M  V30 12921 H 1197.95 -5.26627 -2.6065 0
M  V30 12922 H 1199.47 -5.00269 -3.5009 0
M  V30 12923 H 1200.89 -5.58256 -1.30472 0
M  V30 12924 H 1199.28 -5.96945 -0.614583 0
M  V30 12925 H 1200.35 -4.84308 0.239476 0
M  V30 12926 N 1201.7 0.070167 -1.57444 0
M  V30 12927 C 1202.93 0.78076 -1.91279 0
M  V30 12928 C 1203.33 1.71559 -0.797754 0
M  V30 12929 O 1202.68 1.82156 0.237665 0
M  V30 12930 C 1202.74 1.62664 -3.20594 0
M  V30 12931 C 1202.4 0.861007 -4.48816 0
M  V30 12932 C 1203.4 0.179522 -5.1959 0
M  V30 12933 C 1201.08 0.8277 -4.95434 0
M  V30 12934 C 1203.08 -0.525024 -6.35234 0
M  V30 12935 C 1200.77 0.119382 -6.10983 0
M  V30 12936 C 1201.76 -0.555778 -6.80735 0
M  V30 12937 O 1201.45 -1.25268 -7.9408 0
M  V30 12938 H 1201.18 0.227053 -0.636728 0
M  V30 12939 H 1203.74 0.0442334 -2.05352 0
M  V30 12940 H 1201.97 2.40601 -3.02734 0
M  V30 12941 H 1203.66 2.21606 -3.40067 0
M  V30 12942 H 1204.42 0.19655 -4.84602 0
M  V30 12943 H 1200.3 1.34268 -4.41014 0
M  V30 12944 H 1203.85 -1.05257 -6.89613 0
M  V30 12945 H 1199.74 0.100287 -6.45422 0
M  V30 12946 H 1200.51 -1.16212 -8.10208 0
M  V30 12947 N 1203.17 1.53854 0.341593 0
M  V30 12948 C 1204.1 1.84966 1.42513 0
M  V30 12949 C 1205.08 0.704944 1.54805 0
M  V30 12950 O 1206.27 0.957036 1.68981 0
M  V30 12951 C 1203.4 2.06099 2.79536 0
M  V30 12952 C 1202.35 3.21919 2.82049 0
M  V30 12953 C 1201.68 3.28389 4.21977 0
M  V30 12954 C 1202.98 4.59984 2.4741 0
M  V30 12955 H 1204.67 2.7571 1.16724 0
M  V30 12956 H 1202.22 1.32662 0.560073 0
M  V30 12957 H 1204.17 2.26448 3.55386 0
M  V30 12958 H 1202.9 1.12087 3.06764 0
M  V30 12959 H 1201.56 3.01429 2.08653 0
M  V30 12960 H 1201.2 2.3197 4.46317 0
M  V30 12961 H 1200.9 4.0622 4.24569 0
M  V30 12962 H 1202.43 3.50951 4.99666 0
M  V30 12963 H 1203.84 4.80334 3.12973 0
M  V30 12964 H 1202.24 5.40233 2.61282 0
M  V30 12965 H 1203.31 4.6346 1.42594 0
M  V30 12966 N 1204.65 -0.602709 1.4562 0
M  V30 12967 C 1205.93 -1.36224 1.40366 0
M  V30 12968 C 1206.31 -2.1096 0.0767645 0
M  V30 12969 O 1205.66 -2.08207 -0.941378 0
M  V30 12970 C 1205.87 -2.30499 2.62052 0
M  V30 12971 C 1207.21 -2.92954 3.07348 0
M  V30 12972 O 1208.24 -2.40818 2.62459 0
M  V30 12973 O 1207.1 -3.87601 3.85263 0
M  V30 12974 H 1204.19 -0.611064 0.557253 0
M  V30 12975 H 1206.74 -0.625391 1.57756 0
M  V30 12976 H 1205.51 -1.74566 3.50203 0
M  V30 12977 H 1205.13 -3.11556 2.4702 0
M  V30 12978 N 1206.13 -1.32992 -0.845635 0
M  V30 12979 C 1207.41 -1.14671 -1.58461 0
M  V30 12980 C 1207.79 0.289498 -2.09106 0
M  V30 12981 O 1207.13 1.28751 -1.88773 0
M  V30 12982 C 1207.34 -2.18206 -2.72373 0
M  V30 12983 C 1208.69 -2.5201 -3.41726 0
M  V30 12984 O 1209.72 -2.16821 -2.82608 0
M  V30 12985 O 1208.58 -3.12368 -4.48429 0
M  V30 12986 H 1205.67 -0.443088 -0.698285 0
M  V30 12987 H 1208.22 -1.44552 -0.888978 0
M  V30 12988 H 1206.99 -3.14707 -2.32541 0
M  V30 12989 H 1206.61 -1.89372 -3.49605 0
M  V30 12990 N 1207.61 1.06304 -1.1635 0
M  V30 12991 C 1208.86 1.78747 -0.943074 0
M  V30 12992 C 1209.18 1.87646 0.530483 0
M  V30 12993 O 1208.45 1.38506 1.38538 0
M  V30 12994 H 1207.03 0.662072 -0.345932 0
M  V30 12995 H 1209.69 1.28413 -1.46615 0
M  V30 12996 H 1208.78 2.80828 -1.3617 0
M  V30 12997 N 1209.09 0.96196 1.24836 0
M  V30 12998 C 1210.04 0.458643 2.23339 0
M  V30 12999 C 1211.02 -0.456178 1.54298 0
M  V30 13000 O 1212.21 -0.288036 1.74641 0
M  V30 13001 C 1209.34 -0.255381 3.42349 0
M  V30 13002 C 1208.43 0.677934 4.18646 0
M  V30 13003 N 1208.82 1.81273 4.72201 0
M  V30 13004 C 1207.12 0.487577 4.43327 0
M  V30 13005 C 1207.82 2.39604 5.30061 0
M  V30 13006 N 1206.79 1.68179 5.1693 0
M  V30 13007 H 1210.59 1.32459 2.62358 0
M  V30 13008 H 1208.11 0.820343 1.40158 0
M  V30 13009 H 1210.11 -0.633142 4.12064 0
M  V30 13010 H 1208.77 -1.11784 3.04852 0
M  V30 13011 H 1209.78 2.19441 4.69112 0
M  V30 13012 H 1206.45 -0.331392 4.16183 0
M  V30 13013 H 1207.84 3.35334 5.82237 0
M  V30 13014 N 1210.56 -1.39601 0.731392 0
M  V30 13015 C 1211.79 -2.05411 0.286532 0
M  V30 13016 C 1212.21 -1.54777 -1.06892 0
M  V30 13017 O 1211.57 -0.689942 -1.67659 0
M  V30 13018 C 1211.62 -3.594 0.293914 0
M  V30 13019 O 1210.72 -4.06072 -0.719657 0
M  V30 13020 H 1210.06 -0.650949 0.131004 0
M  V30 13021 H 1212.59 -1.78703 0.996305 0
M  V30 13022 H 1212.6 -4.0777 0.137052 0
M  V30 13023 H 1211.28 -3.95617 1.28298 0
M  V30 13024 H 1209.86 -3.69125 -0.529226 0
M  V30 13025 N 1212.04 -0.478751 -1.50152 0
M  V30 13026 C 1213.29 0.073585 -2.02366 0
M  V30 13027 C 1213.62 1.3903 -1.36018 0
M  V30 13028 O 1212.87 1.89787 -0.477435 0
M  V30 13029 C 1213.17 0.297535 -3.56159 0
M  V30 13030 C 1212.84 -0.938419 -4.41027 0
M  V30 13031 C 1211.5 -1.27727 -4.63939 0
M  V30 13032 C 1213.85 -1.76098 -4.9055 0
M  V30 13033 C 1211.18 -2.4386 -5.33619 0
M  V30 13034 C 1213.53 -2.91366 -5.61506 0
M  V30 13035 C 1212.2 -3.25657 -5.8267 0
M  V30 13036 H 1211.47 0.0269267 -0.740511 0
M  V30 13037 H 1214.11 -0.63439 -1.80687 0
M  V30 13038 H 1212.42 1.08783 -3.76395 0
M  V30 13039 H 1214.11 0.73899 -3.94132 0
M  V30 13040 H 1210.7 -0.664441 -4.23418 0
M  V30 13041 H 1214.89 -1.51237 -4.72696 0
M  V30 13042 H 1210.14 -2.70692 -5.48211 0
M  V30 13043 H 1214.32 -3.55445 -5.98859 0
M  V30 13044 H 1211.95 -4.15751 -6.36439 0
M  V30 13045 N 1213.52 1.56172 -0.211661 0
M  V30 13046 C 1214.45 2.17107 0.734657 0
M  V30 13047 C 1215.47 1.1374 1.16478 0
M  V30 13048 O 1216.65 1.40763 1.09764 0
M  V30 13049 C 1213.75 2.73182 2.00561 0
M  V30 13050 C 1212.93 4.0162 1.73264 0
M  V30 13051 C 1211.99 4.42357 2.84968 0
M  V30 13052 O 1211.01 5.09453 2.53863 0
M  V30 13053 N 1212.21 4.07223 4.13702 0
M  V30 13054 H 1214.98 2.98939 0.213475 0
M  V30 13055 H 1212.54 1.61872 -0.0302898 0
M  V30 13056 H 1214.53 2.97411 2.74461 0
M  V30 13057 H 1213.1 1.9571 2.43754 0
M  V30 13058 H 1212.32 3.85351 0.830575 0
M  V30 13059 H 1213.61 4.85426 1.52445 0
M  V30 13060 H 1213.01 3.53286 4.4182 0
M  V30 13061 H 1211.57 4.36366 4.84178 0
M  V30 13062 N 1215 -0.0618163 1.57479 0
M  V30 13063 C 1216.23 -0.770605 1.9169 0
M  V30 13064 C 1216.64 -1.71134 0.806841 0
M  V30 13065 O 1215.98 -1.8228 -0.228002 0
M  V30 13066 C 1216.04 -1.60962 3.21452 0
M  V30 13067 C 1215.71 -0.837193 4.49266 0
M  V30 13068 C 1216.7 -0.151964 5.19678 0
M  V30 13069 C 1214.39 -0.801414 4.95866 0
M  V30 13070 C 1216.38 0.558705 6.34947 0
M  V30 13071 C 1214.07 -0.0869788 6.11038 0
M  V30 13072 C 1215.07 0.591871 6.80431 0
M  V30 13073 O 1214.75 1.29478 7.93405 0
M  V30 13074 H 1214.49 -0.223673 0.637923 0
M  V30 13075 H 1217.04 -0.0333424 2.05373 0
M  V30 13076 H 1215.27 -2.38992 3.04006 0
M  V30 13077 H 1216.96 -2.19799 3.41238 0
M  V30 13078 H 1217.73 -0.170848 4.84699 0
M  V30 13079 H 1213.6 -1.31927 4.4172 0
M  V30 13080 H 1217.15 1.08913 6.89046 0
M  V30 13081 H 1213.05 -0.066057 6.45466 0
M  V30 13082 H 1213.81 1.20507 8.0958 0
M  V30 13083 N 1216.48 -1.54033 -0.333429 0
M  V30 13084 C 1217.41 -1.85719 -1.4153 0
M  V30 13085 C 1218.39 -0.713144 -1.54429 0
M  V30 13086 O 1219.57 -0.965984 -1.68471 0
M  V30 13087 C 1216.7 -2.07578 -2.78439 0
M  V30 13088 C 1215.66 -3.23411 -2.80338 0
M  V30 13089 C 1214.98 -3.30622 -4.2023 0
M  V30 13090 C 1216.28 -4.6129 -2.44968 0
M  V30 13091 H 1217.98 -2.76325 -1.15261 0
M  V30 13092 H 1215.52 -1.32957 -0.55303 0
M  V30 13093 H 1217.48 -2.28329 -3.5418 0
M  V30 13094 H 1216.2 -1.13713 -3.06165 0
M  V30 13095 H 1214.86 -3.02531 -2.07052 0
M  V30 13096 H 1214.51 -2.34333 -4.45081 0
M  V30 13097 H 1214.21 -4.08466 -4.22409 0
M  V30 13098 H 1215.73 -3.53596 -4.97798 0
M  V30 13099 H 1217.14 -4.81987 -3.10421 0
M  V30 13100 H 1215.54 -5.41611 -2.58414 0
M  V30 13101 H 1216.61 -4.6421 -1.40134 0
M  V30 13102 N 1217.95 0.594978 -1.45938 0
M  V30 13103 C 1218.9 1.69949 -1.51991 0
M  V30 13104 C 1219.89 1.56301 -0.381956 0
M  V30 13105 O 1221.08 1.65423 -0.62961 0
M  V30 13106 C 1218.21 3.08723 -1.5015 0
M  V30 13107 C 1217.3 3.27712 -2.69194 0
M  V30 13108 N 1217.69 3.1691 -3.9421 0
M  V30 13109 C 1215.98 3.58618 -2.65158 0
M  V30 13110 C 1216.69 3.37572 -4.7373 0
M  V30 13111 N 1215.66 3.62154 -4.05395 0
M  V30 13112 H 1219.46 1.60109 -2.46459 0
M  V30 13113 H 1216.98 0.798634 -1.41406 0
M  V30 13114 H 1218.97 3.87978 -1.52573 0
M  V30 13115 H 1217.63 3.19702 -0.567488 0
M  V30 13116 H 1218.65 2.95039 -4.25643 0
M  V30 13117 H 1215.32 3.76358 -1.80724 0
M  V30 13118 H 1216.71 3.34507 -5.82713 0
M  V30 13119 N 1219.43 1.33438 0.838571 0
M  V30 13120 C 1220.36 1.19552 1.9555 0
M  V30 13121 C 1221.38 0.12642 1.62308 0
M  V30 13122 O 1222.57 0.376868 1.74476 0
M  V30 13123 C 1219.67 0.811273 3.29046 0
M  V30 13124 C 1218.84 1.97207 3.9042 0
M  V30 13125 C 1217.9 1.56875 5.02271 0
M  V30 13126 O 1216.92 2.28314 5.21403 0
M  V30 13127 N 1218.13 0.473924 5.78562 0
M  V30 13128 H 1220.89 2.15769 2.07999 0
M  V30 13129 H 1218.45 1.26187 1.01432 0
M  V30 13130 H 1220.44 0.523553 4.01299 0
M  V30 13131 H 1219.01 -0.0602291 3.12542 0
M  V30 13132 H 1218.23 2.4254 3.10754 0
M  V30 13133 H 1219.52 2.74878 4.28158 0
M  V30 13134 H 1218.92 -0.120306 5.65572 0
M  V30 13135 H 1217.48 0.245877 6.51336 0
M  V30 13136 N 1220.91 -1.05686 1.16912 0
M  V30 13137 C 1221.86 -2.13312 0.88129 0
M  V30 13138 C 1222.83 -1.65199 -0.172783 0
M  V30 13139 O 1224.01 -1.90765 -0.0366542 0
M  V30 13140 C 1221.15 -3.42829 0.395264 0
M  V30 13141 C 1220.27 -4.04643 1.51288 0
M  V30 13142 C 1219.4 -5.22059 0.981238 0
M  V30 13143 C 1218.44 -5.75869 2.07464 0
M  V30 13144 N 1217.58 -6.84592 1.55813 0
M  V30 13145 H 1222.42 -2.37271 1.80295 0
M  V30 13146 H 1219.95 -1.16407 0.899322 0
M  V30 13147 H 1221.91 -4.17092 0.0950633 0
M  V30 13148 H 1220.54 -3.19068 -0.489445 0
M  V30 13149 H 1219.59 -3.27867 1.92891 0
M  V30 13150 H 1220.91 -4.40626 2.33774 0
M  V30 13151 H 1220.06 -6.03372 0.634586 0
M  V30 13152 H 1218.8 -4.87538 0.125754 0
M  V30 13153 H 1217.8 -4.93188 2.42992 0
M  V30 13154 H 1219.03 -6.12439 2.93419 0
M  V30 13155 H 1216.97 -6.51978 0.725283 0
M  V30 13156 H 1216.89 -7.19551 2.31911 0
M  V30 13157 H 1218.16 -7.6957 1.24025 0
M  V30 13158 N 1222.39 -0.968567 -1.24324 0
M  V30 13159 C 1223.32 -0.457247 -2.24593 0
M  V30 13160 C 1224.33 0.434483 -1.56895 0
M  V30 13161 O 1225.52 0.240519 -1.76872 0
M  V30 13162 C 1222.62 0.359086 -3.36992 0
M  V30 13163 C 1221.8 -0.522945 -4.34263 0
M  V30 13164 C 1220.85 0.237528 -5.25664 0
M  V30 13165 O 1219.88 -0.368835 -5.68004 0
M  V30 13166 N 1221.08 1.52686 -5.6006 0
M  V30 13167 H 1223.85 -1.31934 -2.69098 0
M  V30 13168 H 1221.41 -0.840488 -1.38374 0
M  V30 13169 H 1223.4 0.87589 -3.95108 0
M  V30 13170 H 1221.97 1.12212 -2.91766 0
M  V30 13171 H 1221.19 -1.22071 -3.74823 0
M  V30 13172 H 1222.48 -1.12447 -4.96219 0
M  V30 13173 H 1221.88 2.0412 -5.2759 0
M  V30 13174 H 1220.43 1.98934 -6.207 0
M  V30 13175 N 1223.87 1.39211 -0.738786 0
M  V30 13176 C 1225.11 2.00436 -0.28839 0
M  V30 13177 C 1225.44 1.58626 1.12552 0
M  V30 13178 O 1224.7 0.808154 1.78234 0
M  V30 13179 C 1225 3.55758 -0.342224 0
M  V30 13180 C 1224.66 4.1723 -1.70968 0
M  V30 13181 C 1223.32 4.33734 -2.08395 0
M  V30 13182 C 1225.68 4.51294 -2.60736 0
M  V30 13183 C 1223 4.81592 -3.35091 0
M  V30 13184 C 1225.36 5.00562 -3.86808 0
M  V30 13185 C 1224.02 5.15274 -4.24322 0
M  V30 13186 H 1223.29 0.733447 -0.105529 0
M  V30 13187 H 1225.94 1.66481 -0.94637 0
M  V30 13188 H 1224.24 3.8976 0.399331 0
M  V30 13189 H 1225.94 4.00993 0.0244582 0
M  V30 13190 H 1222.53 4.04788 -1.4087 0
M  V30 13191 H 1226.71 4.38158 -2.3309 0
M  V30 13192 H 1221.97 4.91167 -3.64095 0
M  V30 13193 H 1226.14 5.25892 -4.5652 0
M  V30 13194 H 1223.77 5.52119 -5.2256 0
M  V30 13195 N 1225.34 0.486708 1.49896 0
M  V30 13196 C 1226.27 -0.288898 2.31706 0
M  V30 13197 C 1227.26 -0.975901 1.3932 0
M  V30 13198 O 1228.44 -0.970065 1.68236 0
M  V30 13199 C 1225.57 -1.36218 3.19471 0
M  V30 13200 C 1224.52 -0.795884 4.20535 0
M  V30 13201 C 1223.85 -1.96862 4.97141 0
M  V30 13202 C 1225.15 0.203421 5.21904 0
M  V30 13203 H 1226.84 0.393934 2.96797 0
M  V30 13204 H 1224.39 0.190894 1.42729 0
M  V30 13205 H 1226.34 -1.91238 3.75508 0
M  V30 13206 H 1225.07 -2.074 2.52295 0
M  V30 13207 H 1223.73 -0.267538 3.65622 0
M  V30 13208 H 1223.37 -2.66779 4.26425 0
M  V30 13209 H 1223.07 -1.59585 5.65514 0
M  V30 13210 H 1224.6 -2.52343 5.56017 0
M  V30 13211 H 1226.01 -0.258144 5.72719 0
M  V30 13212 H 1224.41 0.491273 5.98086 0
M  V30 13213 H 1225.48 1.12414 4.7169 0
M  V30 13214 N 1226.82 -1.56058 0.219941 0
M  V30 13215 C 1227.77 -2.16853 -0.704185 0
M  V30 13216 C 1228.76 -1.11639 -1.15869 0
M  V30 13217 O 1229.95 -1.37632 -1.11295 0
M  V30 13218 C 1227.08 -2.85073 -1.9128 0
M  V30 13219 C 1226.16 -3.9751 -1.47805 0
M  V30 13220 N 1226.56 -5.00121 -0.755792 0
M  V30 13221 C 1224.85 -4.0957 -1.76546 0
M  V30 13222 C 1225.55 -5.79241 -0.534332 0
M  V30 13223 N 1224.53 -5.32549 -1.09055 0
M  V30 13224 H 1228.33 -2.93547 -0.143914 0
M  V30 13225 H 1225.85 -1.62386 0.021133 0
M  V30 13226 H 1227.84 -3.27037 -2.58558 0
M  V30 13227 H 1226.5 -2.09874 -2.47756 0
M  V30 13228 H 1227.51 -5.16285 -0.408647 0
M  V30 13229 H 1224.19 -3.45521 -2.34353 0
M  V30 13230 H 1225.58 -6.71888 0.0404032 0
M  V30 13231 N 1228.3 0.053464 -1.57509 0
M  V30 13232 C 1229.72 0.408651 -1.5428 0
M  V30 13233 C 1229.92 1.78086 -0.942735 0
M  V30 13234 O 1228.97 2.46366 -0.553163 0
M  V30 13235 C 1230.29 0.332884 -2.98852 0
M  V30 13236 C 1231.83 0.411745 -3.1028 0
M  V30 13237 C 1232.31 0.365691 -4.56538 0
M  V30 13238 N 1233.8 0.425222 -4.61244 0
M  V30 13239 C 1234.54 0.412093 -5.71917 0
M  V30 13240 N 1234.03 0.352693 -6.91902 0
M  V30 13241 N 1235.82 0.460016 -5.60214 0
M  V30 13242 H 1227.98 -0.844834 -1.94875 0
M  V30 13243 H 1230.24 -0.318888 -0.892757 0
M  V30 13244 H 1229.94 -0.609116 -3.46385 0
M  V30 13245 H 1229.82 1.13605 -3.59686 0
M  V30 13246 H 1232.21 1.34417 -2.62709 0
M  V30 13247 H 1232.29 -0.420333 -2.52323 0
M  V30 13248 H 1231.93 -0.562963 -5.0477 0
M  V30 13249 H 1231.86 1.21555 -5.12379 0
M  V30 13250 H 1234.35 0.474634 -3.74908 0
M  V30 13251 H 1234.66 0.347105 -7.7202 0
M  V30 13252 H 1233.01 0.319104 -6.94267 0
M  V30 13253 H 1236.2 0.504242 -4.65376 0
M  V30 13254 H 1236.37 0.446315 -6.46461 0
M  V30 13255 N 1229.78 1.54207 0.325255 0
M  V30 13256 C 1230.73 1.83474 1.40021 0
M  V30 13257 C 1231.7 0.681719 1.51466 0
M  V30 13258 O 1232.88 0.92798 1.66713 0
M  V30 13259 C 1230.02 2.06624 2.76407 0
M  V30 13260 C 1229.13 3.3431 2.73607 0
M  V30 13261 C 1228.27 3.4743 4.01828 0
M  V30 13262 C 1227.31 4.68997 3.93329 0
M  V30 13263 N 1226.45 4.79052 5.13277 0
M  V30 13264 H 1231.29 2.75182 1.14363 0
M  V30 13265 H 1228.82 1.36284 0.553639 0
M  V30 13266 H 1230.78 2.18037 3.5569 0
M  V30 13267 H 1229.41 1.18209 3.00377 0
M  V30 13268 H 1228.46 3.31643 1.86324 0
M  V30 13269 H 1229.77 4.237 2.6321 0
M  V30 13270 H 1228.93 3.58376 4.89542 0
M  V30 13271 H 1227.67 2.56128 4.1503 0
M  V30 13272 H 1226.67 4.58109 3.04 0
M  V30 13273 H 1227.9 5.61681 3.81695 0
M  V30 13274 H 1225.84 3.90666 5.26988 0
M  V30 13275 H 1225.76 5.62406 5.05208 0
M  V30 13276 H 1227.03 4.94328 6.02711 0
M  V30 13277 N 1231.26 -0.58723 1.46251 0
M  V30 13278 C 1232.5 -1.3456 1.51327 0
M  V30 13279 C 1232.83 -1.93815 0.163146 0
M  V30 13280 O 1232.09 -1.76723 -0.840677 0
M  V30 13281 C 1232.39 -2.49776 2.5563 0
M  V30 13282 C 1232.05 -2.08543 3.99776 0
M  V30 13283 C 1230.71 -1.97013 4.39021 0
M  V30 13284 C 1233.07 -1.76669 4.90344 0
M  V30 13285 C 1230.39 -1.5186 5.66706 0
M  V30 13286 C 1232.75 -1.32996 6.18462 0
M  V30 13287 C 1231.41 -1.20039 6.56618 0
M  V30 13288 H 1230.68 -0.492391 0.553744 0
M  V30 13289 H 1233.33 -0.661715 1.79704 0
M  V30 13290 H 1231.63 -3.23592 2.20897 0
M  V30 13291 H 1233.33 -3.07995 2.56788 0
M  V30 13292 H 1229.92 -2.18451 3.68751 0
M  V30 13293 H 1234.1 -1.84465 4.60746 0
M  V30 13294 H 1229.36 -1.40467 5.95045 0
M  V30 13295 H 1233.53 -1.07385 6.88071 0
M  V30 13296 H 1231.16 -0.848268 7.55452 0
M  V30 13297 N 1232.74 -1.33881 -0.831482 0
M  V30 13298 C 1233.96 -1.28961 -1.62431 0
M  V30 13299 C 1234.39 0.135249 -1.87613 0
M  V30 13300 O 1233.74 1.09426 -1.44553 0
M  V30 13301 C 1233.79 -2.07767 -2.94729 0
M  V30 13302 O 1232.9 -1.44133 -3.86393 0
M  V30 13303 H 1232.24 -0.443313 -0.494337 0
M  V30 13304 H 1234.77 -1.76555 -1.0339 0
M  V30 13305 H 1234.78 -2.18806 -3.44366 0
M  V30 13306 H 1233.45 -3.11367 -2.75724 0
M  V30 13307 H 1232.03 -1.41784 -3.44894 0
M  V30 13308 N 1234.21 1.05064 -1.1747 0
M  V30 13309 C 1235.46 1.78089 -0.963883 0
M  V30 13310 C 1235.79 1.87766 0.507365 0
M  V30 13311 O 1235.04 1.37477 1.39279 0
M  V30 13312 C 1235.34 3.21961 -1.55164 0
M  V30 13313 C 1235.01 3.32339 -3.04732 0
M  V30 13314 C 1233.67 3.34878 -3.45557 0
M  V30 13315 C 1236.02 3.3325 -4.00741 0
M  V30 13316 C 1233.35 3.35959 -4.80987 0
M  V30 13317 C 1235.7 3.3587 -5.36073 0
M  V30 13318 C 1234.37 3.36697 -5.7636 0
M  V30 13319 H 1233.64 0.651672 -0.35271 0
M  V30 13320 H 1236.28 1.23471 -1.4638 0
M  V30 13321 H 1234.59 3.79514 -0.973471 0
M  V30 13322 H 1236.29 3.77087 -1.36406 0
M  V30 13323 H 1232.88 3.31076 -2.72188 0
M  V30 13324 H 1237.06 3.30488 -3.70258 0
M  V30 13325 H 1232.32 3.34911 -5.11512 0
M  V30 13326 H 1236.49 3.35524 -6.10243 0
M  V30 13327 H 1234.12 3.37288 -6.81279 0
M  V30 13328 N 1235.69 0.975146 1.23809 0
M  V30 13329 C 1236.93 0.649078 1.9382 0
M  V30 13330 C 1237.3 -0.801879 1.74453 0
M  V30 13331 O 1238.5 -1.23853 2.38567 0
M  V30 13332 C 1236.77 1.0225 3.42461 0
M  V30 13333 S 1238.33 0.812107 4.3122 0
M  V30 13334 H 1235.14 0.237878 0.670026 0
M  V30 13335 H 1237.75 1.25368 1.50011 0
M  V30 13336 H 1236.45 2.07523 3.54065 0
M  V30 13337 H 1235.98 0.408976 3.91268 0
M  V30 13338 H 1238 -0.306716 4.95251 0
M  V30 13339 N 1237.17 -1.38817 0.746158 0
M  V30 13340 C 1238.39 -2.05096 0.308302 0
M  V30 13341 C 1238.82 -1.55902 -1.05244 0
M  V30 13342 O 1238.18 -0.707685 -1.66918 0
M  V30 13343 C 1238.23 -3.59068 0.332016 0
M  V30 13344 O 1237.33 -4.06813 -0.676547 0
M  V30 13345 H 1236.67 -0.649523 0.1379 0
M  V30 13346 H 1239.2 -1.77637 1.0152 0
M  V30 13347 H 1239.21 -4.07601 0.180293 0
M  V30 13348 H 1237.89 -3.94234 1.32487 0
M  V30 13349 H 1236.46 -3.69666 -0.490046 0
M  V30 13350 N 1238.65 -0.49465 -1.49636 0
M  V30 13351 C 1239.87 0.051305 -2.07337 0
M  V30 13352 C 1240.3 1.30637 -1.35335 0
M  V30 13353 O 1239.66 1.76647 -0.408126 0
M  V30 13354 C 1239.7 0.294425 -3.59396 0
M  V30 13355 O 1238.81 1.3704 -3.88965 0
M  V30 13356 H 1238.15 -0.023408 -0.663587 0
M  V30 13357 H 1240.68 -0.692451 -1.92526 0
M  V30 13358 H 1240.69 0.527854 -4.04571 0
M  V30 13359 H 1239.36 -0.622583 -4.11214 0
M  V30 13360 H 1237.94 1.12242 -3.55607 0
M  V30 13361 N 1240.13 1.55939 -0.228214 0
M  V30 13362 C 1241.37 1.9877 0.402272 0
M  V30 13363 C 1241.7 1.11587 1.5894 0
M  V30 13364 O 1240.98 0.175032 1.93711 0
M  V30 13365 C 1241.26 3.50396 0.830353 0
M  V30 13366 C 1241.12 4.4835 -0.360876 0
M  V30 13367 C 1242.43 4.06602 1.68413 0
M  V30 13368 H 1239.55 0.722646 0.144746 0
M  V30 13369 H 1242.2 1.87186 -0.325784 0
M  V30 13370 H 1240.35 3.60398 1.4507 0
M  V30 13371 H 1242.02 4.5035 -0.999113 0
M  V30 13372 H 1240.26 4.21946 -1.00719 0
M  V30 13373 H 1240.93 5.51997 -0.0183074 0
M  V30 13374 H 1243.41 3.99585 1.16064 0
M  V30 13375 H 1242.28 5.12998 1.95254 0
M  V30 13376 H 1242.54 3.53897 2.64971 0
M  V30 13377 N 1241.6 -0.0451101 1.57535 0
M  V30 13378 C 1242.53 -1.05046 2.08537 0
M  V30 13379 C 1243.52 -1.3872 0.984418 0
M  V30 13380 O 1244.7 -1.47884 1.25873 0
M  V30 13381 C 1241.83 -2.3562 2.55148 0
M  V30 13382 C 1240.78 -2.16231 3.69362 0
M  V30 13383 C 1240.11 -3.52423 4.02122 0
M  V30 13384 C 1241.41 -1.56159 4.98409 0
M  V30 13385 H 1243.1 -0.625965 2.92783 0
M  V30 13386 H 1240.65 -0.299657 1.40848 0
M  V30 13387 H 1242.6 -3.06266 2.89446 0
M  V30 13388 H 1241.33 -2.80099 1.67964 0
M  V30 13389 H 1239.99 -1.4802 3.35389 0
M  V30 13390 H 1239.63 -3.94522 3.12028 0
M  V30 13391 H 1239.33 -3.4028 4.79044 0
M  V30 13392 H 1240.86 -4.24458 4.38939 0
M  V30 13393 H 1242.27 -2.16703 5.30766 0
M  V30 13394 H 1240.67 -1.54638 5.79834 0
M  V30 13395 H 1241.74 -0.525698 4.82042 0
M  V30 13396 N 1243.08 -1.54377 -0.317073 0
M  V30 13397 C 1244.33 -1.72105 -1.0518 0
M  V30 13398 C 1244.64 -0.505166 -1.88964 0
M  V30 13399 O 1245.85 -0.563912 -2.65579 0
M  V30 13400 C 1244.31 -3.04435 -1.91957 0
M  V30 13401 C 1243.91 -4.33449 -1.13253 0
M  V30 13402 C 1245.66 -3.31524 -2.65127 0
M  V30 13403 C 1243.57 -5.56837 -1.99214 0
M  V30 13404 H 1242.5 -0.641392 -0.396399 0
M  V30 13405 H 1245.15 -1.80868 -0.309673 0
M  V30 13406 H 1243.53 -2.89595 -2.70094 0
M  V30 13407 H 1244.7 -4.59074 -0.39842 0
M  V30 13408 H 1243.02 -4.13173 -0.517372 0
M  V30 13409 H 1245.61 -4.20906 -3.29761 0
M  V30 13410 H 1245.96 -2.49688 -3.33109 0
M  V30 13411 H 1246.49 -3.47261 -1.94048 0
M  V30 13412 H 1243.23 -6.41294 -1.35729 0
M  V30 13413 H 1242.75 -5.35421 -2.70341 0
M  V30 13414 H 1244.43 -5.93488 -2.57646 0
M  V30 13415 N 1244.56 0.579466 -1.4656 0
M  V30 13416 C 1245.51 1.70937 -1.57744 0
M  V30 13417 C 1246.5 1.6343 -0.44577 0
M  V30 13418 O 1247.71 1.68884 -0.622762 0
M  V30 13419 H 1244.08 0.565218 -0.496017 0
M  V30 13420 H 1246.05 1.58636 -2.52739 0
M  V30 13421 C 1244.8 3.09321 -1.58794 0
M  V30 13422 H 1244.13 3.1577 -2.45213 0
M  V30 13423 H 1245.57 3.88132 -1.70674 0
M  V30 13424 C 1244.03 3.35404 -0.317165 0
M  V30 13425 O 1244.56 3.97325 0.591228 0
M  V30 13426 N 1242.76 2.89883 -0.204071 0
M  V30 13427 H 1242.31 2.39672 -0.944194 0
M  V30 13428 H 1242.27 3.07706 0.645303 0
M  V30 13429 N 1246.04 1.3432 0.824371 0
M  V30 13430 C 1247.26 1.2982 1.61745 0
M  V30 13431 C 1247.69 -0.125298 1.87682 0
M  V30 13432 O 1247.05 -1.08658 1.45131 0
M  V30 13433 C 1247.09 2.09327 2.93623 0
M  V30 13434 O 1246.2 1.4618 3.85623 0
M  V30 13435 H 1245.54 0.445929 0.491979 0
M  V30 13436 H 1248.07 1.77101 1.02452 0
M  V30 13437 H 1248.08 2.20629 3.43201 0
M  V30 13438 H 1246.75 3.12825 2.74069 0
M  V30 13439 H 1245.33 1.43611 3.44137 0
M  V30 13440 N 1247.52 -1.0444 1.18026 0
M  V30 13441 C 1248.76 -1.77575 0.973314 0
M  V30 13442 C 1249.09 -1.88032 -0.4974 0
M  V30 13443 O 1248.35 -1.38214 -1.38548 0
M  V30 13444 C 1248.65 -3.21134 1.56869 0
M  V30 13445 C 1248.31 -3.30718 3.0649 0
M  V30 13446 C 1246.97 -3.33041 3.47328 0
M  V30 13447 C 1249.33 -3.3112 4.02503 0
M  V30 13448 C 1246.65 -3.33404 4.82762 0
M  V30 13449 C 1249.01 -3.33023 5.37846 0
M  V30 13450 C 1247.67 -3.33636 5.78138 0
M  V30 13451 H 1246.94 -0.649793 0.356161 0
M  V30 13452 H 1249.59 -1.22693 1.47033 0
M  V30 13453 H 1247.89 -3.78992 0.993584 0
M  V30 13454 H 1249.59 -3.76358 1.38404 0
M  V30 13455 H 1246.18 -3.29628 2.7394 0
M  V30 13456 H 1250.36 -3.2852 3.72006 0
M  V30 13457 H 1245.62 -3.32194 5.13281 0
M  V30 13458 H 1249.79 -3.32283 6.12014 0
M  V30 13459 H 1247.42 -3.33671 6.83058 0
M  V30 13460 N 1248.99 -0.981699 -1.2329 0
M  V30 13461 C 1249.96 -0.527992 -2.23036 0
M  V30 13462 C 1250.96 0.383083 -1.5617 0
M  V30 13463 O 1252.15 0.176595 -1.73303 0
M  V30 13464 C 1249.28 0.233501 -3.40099 0
M  V30 13465 H 1250.47 -1.40995 -2.64689 0
M  V30 13466 H 1248.03 -0.767724 -1.36146 0
M  V30 13467 H 1248.76 1.13194 -3.03904 0
M  V30 13468 H 1248.55 -0.420505 -3.89839 0
M  V30 13469 H 1250.04 0.539485 -4.14101 0
M  V30 13470 N 1250.47 1.3842 -0.753509 0
M  V30 13471 C 1251.75 1.94181 -0.235142 0
M  V30 13472 C 1252.13 1.68881 1.26659 0
M  V30 13473 O 1251.48 1.02731 2.04104 0
M  V30 13474 C 1251.69 3.43998 -0.588751 0
M  V30 13475 C 1253.04 4.21044 -0.548352 0
M  V30 13476 O 1254.06 3.52279 -0.52704 0
M  V30 13477 O 1252.92 5.43631 -0.559221 0
M  V30 13478 H 1250.01 0.825536 -0.0491834 0
M  V30 13479 H 1252.56 1.47813 -0.833626 0
M  V30 13480 H 1251.33 3.55921 -1.6259 0
M  V30 13481 H 1250.95 3.97582 0.0377429 0
M  V30 13482 N 1251.95 0.502579 1.49372 0
M  V30 13483 C 1252.88 -0.311743 2.2707 0
M  V30 13484 C 1253.9 -0.929204 1.33677 0
M  V30 13485 O 1255.08 -0.812277 1.58948 0
M  V30 13486 C 1252.18 -1.45404 3.06122 0
M  V30 13487 C 1251.36 -0.943591 4.27101 0
M  V30 13488 C 1250.42 -1.96368 4.88186 0
M  V30 13489 O 1249.44 -1.5316 5.48207 0
M  V30 13490 N 1250.64 -3.29419 4.77978 0
M  V30 13491 H 1253.41 0.354503 2.97596 0
M  V30 13492 H 1250.97 0.335222 1.58392 0
M  V30 13493 H 1252.96 -2.13404 3.43862 0
M  V30 13494 H 1251.53 -2.02441 2.38194 0
M  V30 13495 H 1250.75 -0.0884372 3.94101 0
M  V30 13496 H 1252.04 -0.580983 5.05472 0
M  V30 13497 H 1251.44 -3.67211 4.30317 0
M  V30 13498 H 1250 -3.93129 5.19897 0
M  V30 13499 N 1253.43 -1.55816 0.23648 0
M  V30 13500 C 1254.84 -1.59159 -0.118601 0
M  V30 13501 C 1255.04 -1.25352 -1.57763 0
M  V30 13502 O 1254.1 -0.995863 -2.32032 0
M  V30 13503 C 1255.41 -2.99885 0.221175 0
M  V30 13504 C 1256.96 -3.12567 0.164624 0
M  V30 13505 C 1257.44 -4.55496 0.478285 0
M  V30 13506 N 1258.93 -4.61215 0.428402 0
M  V30 13507 C 1259.66 -5.69768 0.644398 0
M  V30 13508 N 1259.16 -6.86624 0.922966 0
M  V30 13509 N 1260.95 -5.59143 0.575814 0
M  V30 13510 H 1253.1 -1.76063 1.18809 0
M  V30 13511 H 1255.37 -0.819079 0.477297 0
M  V30 13512 H 1255.07 -3.29326 1.2344 0
M  V30 13513 H 1254.95 -3.74425 -0.456723 0
M  V30 13514 H 1257.33 -2.82914 -0.839263 0
M  V30 13515 H 1257.41 -2.40325 0.876219 0
M  V30 13516 H 1257.06 -4.85868 1.47968 0
M  V30 13517 H 1256.99 -5.25984 -0.254671 0
M  V30 13518 H 1259.48 -3.77251 0.221398 0
M  V30 13519 H 1259.79 -7.6528 1.07548 0
M  V30 13520 H 1258.14 -6.88333 0.960325 0
M  V30 13521 H 1261.33 -4.66727 0.358307 0
M  V30 13522 H 1261.5 -6.43674 0.747548 0
M  V30 13523 N 1254.91 0.036755 -1.57557 0
M  V30 13524 C 1256.15 0.727665 -1.88546 0
M  V30 13525 C 1256.48 1.76304 -0.833179 0
M  V30 13526 O 1255.75 1.9544 0.13414 0
M  V30 13527 H 1254.33 0.271744 -0.695819 0
M  V30 13528 H 1256.99 0.00452915 -1.94899 0
M  V30 13529 H 1256.08 1.22205 -2.8718 0
M  V30 13530 N 1256.39 1.54543 0.308881 0
M  V30 13531 C 1257.34 1.81332 1.38212 0
M  V30 13532 C 1258.32 0.670056 1.46284 0
M  V30 13533 O 1259.51 0.930476 1.50569 0
M  V30 13534 C 1256.64 2.05713 2.7484 0
M  V30 13535 C 1255.73 3.26202 2.71023 0
M  V30 13536 N 1256.12 4.46933 2.36822 0
M  V30 13537 C 1254.42 3.28071 3.02135 0
M  V30 13538 C 1255.12 5.28923 2.42106 0
M  V30 13539 N 1254.09 4.66455 2.79143 0
M  V30 13540 H 1257.89 2.72246 1.10722 0
M  V30 13541 H 1255.41 1.53936 0.51743 0
M  V30 13542 H 1257.41 2.23049 3.52214 0
M  V30 13543 H 1256.07 1.16062 3.03249 0
M  V30 13544 H 1257.08 4.73674 2.09413 0
M  V30 13545 H 1253.75 2.48501 3.3549 0
M  V30 13546 H 1255.14 6.35369 2.1853 0
M  V30 13547 N 1257.86 -0.571685 1.46866 0
M  V30 13548 C 1259.09 -1.35327 1.56109 0
M  V30 13549 C 1259.5 -1.88086 0.20504 0
M  V30 13550 O 1258.84 -1.64896 -0.809626 0
M  V30 13551 C 1258.91 -2.56939 2.51441 0
M  V30 13552 C 1258.57 -2.2557 3.97451 0
M  V30 13553 C 1259.57 -1.83737 4.86351 0
M  V30 13554 C 1257.25 -2.37375 4.42672 0
M  V30 13555 C 1259.25 -1.54118 6.18487 0
M  V30 13556 C 1256.93 -2.07368 5.7484 0
M  V30 13557 C 1257.93 -1.65806 6.62569 0
M  V30 13558 O 1257.62 -1.36173 7.92283 0
M  V30 13559 H 1257.35 -0.419368 0.530194 0
M  V30 13560 H 1259.91 -0.700859 1.93073 0
M  V30 13561 H 1258.14 -3.25023 2.09517 0
M  V30 13562 H 1259.82 -3.19012 2.5097 0
M  V30 13563 H 1260.59 -1.74122 4.52666 0
M  V30 13564 H 1256.47 -2.68686 3.74605 0
M  V30 13565 H 1260.01 -1.21603 6.8692 0
M  V30 13566 H 1255.91 -2.16611 6.08071 0
M  V30 13567 H 1256.68 -1.49926 8.04652 0
M  V30 13568 N 1259.34 -1.34755 -0.817236 0
M  V30 13569 C 1260.75 -1.24594 -1.39044 0
M  V30 13570 C 1261.1 0.126184 -1.95794 0
M  V30 13571 O 1260.23 1.02675 -1.90491 0
M  V30 13572 C 1260.82 -2.25592 -2.52772 0
M  V30 13573 C 1259.38 -2.19204 -3.05984 0
M  V30 13574 C 1258.53 -2.11884 -1.78886 0
M  V30 13575 H 1261.48 -1.46039 -0.621155 0
M  V30 13576 H 1261.5 -1.87622 -3.31026 0
M  V30 13577 H 1261.01 -3.25447 -2.11438 0
M  V30 13578 H 1259.11 -1.22725 -3.51809 0
M  V30 13579 H 1259.23 -3.10707 -3.64689 0
M  V30 13580 H 1257.59 -1.57694 -2.00012 0
M  V30 13581 H 1258.37 -3.13582 -1.39719 0
M  V30 13582 N 1260.82 1.03812 -1.18578 0
M  V30 13583 C 1262.04 1.8124 -1.00831 0
M  V30 13584 C 1262.47 1.82917 0.43853 0
M  V30 13585 O 1261.83 1.24835 1.31476 0
M  V30 13586 C 1261.88 3.24592 -1.57075 0
M  V30 13587 O 1260.98 4.04688 -0.793824 0
M  V30 13588 H 1260.32 0.559846 -0.357028 0
M  V30 13589 H 1262.85 1.30724 -1.57393 0
M  V30 13590 H 1262.86 3.75363 -1.59896 0
M  V30 13591 H 1261.54 3.22686 -2.62387 0
M  V30 13592 H 1260.11 3.63359 -0.838134 0
M  V30 13593 N 1262.3 0.988223 1.22768 0
M  V30 13594 C 1263.24 0.534605 2.24523 0
M  V30 13595 C 1264.21 -0.430615 1.60421 0
M  V30 13596 O 1265.4 -0.336417 1.87811 0
M  V30 13597 C 1262.54 -0.149195 3.44777 0
M  V30 13598 C 1261.65 0.85721 4.2341 0
M  V30 13599 C 1260.79 0.147411 5.30995 0
M  V30 13600 C 1259.83 1.1425 6.01343 0
M  V30 13601 N 1258.96 0.461327 7.00583 0
M  V30 13602 H 1263.8 1.40708 2.62689 0
M  V30 13603 H 1261.34 0.704918 1.2911 0
M  V30 13604 H 1263.3 -0.562527 4.1339 0
M  V30 13605 H 1261.93 -0.985485 3.07389 0
M  V30 13606 H 1260.98 1.38889 3.54138 0
M  V30 13607 H 1262.29 1.61517 4.71926 0
M  V30 13608 H 1261.45 -0.32289 6.0584 0
M  V30 13609 H 1260.19 -0.643085 4.83442 0
M  V30 13610 H 1259.19 1.62348 5.25284 0
M  V30 13611 H 1260.42 1.93379 6.50985 0
M  V30 13612 H 1258.36 -0.309818 6.55268 0
M  V30 13613 H 1258.28 1.15781 7.47082 0
M  V30 13614 H 1259.55 0.0136734 7.79499 0
M  V30 13615 N 1263.78 -1.38018 0.760839 0
M  V30 13616 C 1265.02 -2.01795 0.325264 0
M  V30 13617 C 1265.38 -1.59092 -1.07489 0
M  V30 13618 O 1266.58 -2.15251 -1.60998 0
M  V30 13619 C 1264.85 -3.5453 0.452007 0
M  V30 13620 S 1266.41 -4.38686 0.100084 0
M  V30 13621 H 1263.23 -0.69979 0.125758 0
M  V30 13622 H 1265.83 -1.684 0.993054 0
M  V30 13623 H 1264.53 -3.83099 1.47186 0
M  V30 13624 H 1264.07 -3.92711 -0.232716 0
M  V30 13625 H 1266.08 -4.83672 -1.10797 0
M  V30 13626 N 1265.25 -0.510493 -1.49103 0
M  V30 13627 C 1266.5 0.030689 -2.02777 0
M  V30 13628 C 1266.83 1.35765 -1.38858 0
M  V30 13629 O 1266.11 1.87209 -0.527528 0
M  V30 13630 C 1266.39 0.173261 -3.59683 0
M  V30 13631 C 1266.24 -1.17749 -4.34114 0
M  V30 13632 C 1267.56 0.909395 -4.30602 0
M  V30 13633 H 1264.68 0.0096789 -0.736936 0
M  V30 13634 H 1267.32 -0.663746 -1.78029 0
M  V30 13635 H 1265.47 0.764721 -3.80899 0
M  V30 13636 H 1267.15 -1.80856 -4.24369 0
M  V30 13637 H 1265.39 -1.76438 -3.96298 0
M  V30 13638 H 1266.06 -1.03094 -5.42287 0
M  V30 13639 H 1268.54 0.407677 -4.14098 0
M  V30 13640 H 1267.41 0.978012 -5.40117 0
M  V30 13641 H 1267.67 1.9553 -3.96511 0
M  V30 13642 N 1266.73 1.55688 -0.24474 0
M  V30 13643 C 1267.98 1.99186 0.381167 0
M  V30 13644 C 1268.31 1.13266 1.57748 0
M  V30 13645 O 1267.59 0.195568 1.93514 0
M  V30 13646 C 1267.87 3.51257 0.793142 0
M  V30 13647 C 1267.72 4.47942 -0.408409 0
M  V30 13648 C 1269.04 4.08365 1.64091 0
M  V30 13649 H 1266.16 0.724141 0.137073 0
M  V30 13650 H 1268.8 1.8683 -0.345619 0
M  V30 13651 H 1266.95 3.61917 1.4124 0
M  V30 13652 H 1268.62 4.49265 -1.04682 0
M  V30 13653 H 1266.87 4.20854 -1.05189 0
M  V30 13654 H 1267.54 5.51946 -0.0768531 0
M  V30 13655 H 1270.01 4.00794 1.1182 0
M  V30 13656 H 1268.89 5.1504 1.89802 0
M  V30 13657 H 1269.15 3.56687 2.61202 0
M  V30 13658 N 1268.21 -0.0283989 1.57574 0
M  V30 13659 C 1269.12 -1.04575 2.10003 0
M  V30 13660 C 1270.14 -1.39588 1.03881 0
M  V30 13661 O 1271.31 -1.48894 1.35619 0
M  V30 13662 C 1268.38 -2.32755 2.56955 0
M  V30 13663 C 1267.44 -2.04317 3.77562 0
M  V30 13664 C 1266.67 -3.26385 4.22266 0
M  V30 13665 O 1266.89 -4.37082 3.66491 0
M  V30 13666 O 1265.83 -3.12046 5.14695 0
M  V30 13667 H 1269.65 -0.630183 2.9709 0
M  V30 13668 H 1267.24 -0.245423 1.4737 0
M  V30 13669 H 1269.12 -3.08111 2.87482 0
M  V30 13670 H 1267.8 -2.73605 1.72979 0
M  V30 13671 H 1266.7 -1.26527 3.52054 0
M  V30 13672 H 1268.04 -1.68321 4.62524 0
M  V30 13673 N 1269.69 -1.54705 -0.300681 0
M  V30 13674 C 1270.63 -1.85678 -1.37084 0
M  V30 13675 C 1271.6 -0.70573 -1.50362 0
M  V30 13676 O 1272.79 -0.954385 -1.65215 0
M  V30 13677 C 1269.93 -2.10995 -2.73084 0
M  V30 13678 C 1269.04 -3.38621 -2.68254 0
M  V30 13679 C 1268.18 -3.53779 -3.9625 0
M  V30 13680 C 1267.22 -4.75195 -3.85818 0
M  V30 13681 N 1266.35 -4.87157 -5.05591 0
M  V30 13682 H 1271.19 -2.76967 -1.09971 0
M  V30 13683 H 1268.73 -1.37147 -0.531887 0
M  V30 13684 H 1270.69 -2.23669 -3.52176 0
M  V30 13685 H 1269.32 -1.22973 -2.98458 0
M  V30 13686 H 1268.37 -3.34566 -1.81025 0
M  V30 13687 H 1269.68 -4.27834 -2.56436 0
M  V30 13688 H 1268.84 -3.66119 -4.83779 0
M  V30 13689 H 1267.58 -2.62699 -4.10902 0
M  V30 13690 H 1266.58 -4.62888 -2.96673 0
M  V30 13691 H 1267.81 -5.67683 -3.72711 0
M  V30 13692 H 1265.75 -3.99001 -5.20706 0
M  V30 13693 H 1265.67 -5.70372 -4.96197 0
M  V30 13694 H 1266.94 -5.03854 -5.9477 0
M  V30 13695 N 1271.17 0.563888 -1.47167 0
M  V30 13696 C 1272.42 1.31766 -1.5271 0
M  V30 13697 C 1272.73 1.94664 -0.191164 0
M  V30 13698 O 1273.93 2.71214 -0.124543 0
M  V30 13699 C 1272.39 2.38907 -2.69168 0
M  V30 13700 C 1272 1.8223 -4.09263 0
M  V30 13701 C 1273.74 3.15508 -2.83999 0
M  V30 13702 C 1271.65 2.87111 -5.17031 0
M  V30 13703 H 1270.58 0.495421 -0.568396 0
M  V30 13704 H 1273.23 0.599665 -1.73425 0
M  V30 13705 H 1271.61 3.13591 -2.4182 0
M  V30 13706 H 1272.79 1.13963 -4.46485 0
M  V30 13707 H 1271.1 1.18235 -3.99261 0
M  V30 13708 H 1273.7 3.93816 -3.61681 0
M  V30 13709 H 1274.04 3.69277 -1.92197 0
M  V30 13710 H 1274.57 2.47934 -3.11085 0
M  V30 13711 H 1271.31 2.38204 -6.10687 0
M  V30 13712 H 1270.83 3.53809 -4.84334 0
M  V30 13713 H 1272.51 3.50724 -5.43692 0
M  V30 13714 N 1272.64 1.35187 0.810078 0
M  V30 13715 C 1273.57 1.30481 1.93641 0
M  V30 13716 C 1274.56 0.179875 1.69146 0
M  V30 13717 O 1275.74 0.374284 1.90559 0
M  V30 13718 C 1272.87 1.07251 3.30325 0
M  V30 13719 C 1271.82 2.16348 3.69293 0
M  V30 13720 C 1271.15 1.78288 5.04101 0
M  V30 13721 C 1272.45 3.58285 3.80038 0
M  V30 13722 H 1274.14 2.24725 1.97836 0
M  V30 13723 H 1271.69 1.08179 0.950436 0
M  V30 13724 H 1273.64 1.02599 4.08719 0
M  V30 13725 H 1272.37 0.0945203 3.26463 0
M  V30 13726 H 1271.03 2.2009 2.93182 0
M  V30 13727 H 1270.67 0.791163 4.96739 0
M  V30 13728 H 1270.37 2.51315 5.31144 0
M  V30 13729 H 1271.9 1.75155 5.84938 0
M  V30 13730 H 1273.31 3.56884 4.48672 0
M  V30 13731 H 1271.71 4.30044 4.18548 0
M  V30 13732 H 1272.78 3.94691 2.81685 0
M  V30 13733 N 1274.12 -1.03182 1.19127 0
M  V30 13734 C 1275.37 -1.76794 0.993563 0
M  V30 13735 C 1275.7 -1.88306 -0.474809 0
M  V30 13736 O 1274.98 -1.39769 -1.35258 0
M  V30 13737 C 1275.26 -3.19573 1.65968 0
M  V30 13738 C 1275.11 -3.1595 3.2015 0
M  V30 13739 C 1276.43 -4.17897 1.38023 0
M  V30 13740 H 1273.55 -0.641768 0.362357 0
M  V30 13741 H 1276.19 -1.20472 1.46924 0
M  V30 13742 H 1274.34 -3.67663 1.25524 0
M  V30 13743 H 1276.01 -2.7578 3.69788 0
M  V30 13744 H 1274.26 -2.53743 3.51848 0
M  V30 13745 H 1274.93 -4.16811 3.61901 0
M  V30 13746 H 1277.4 -3.78394 1.73082 0
M  V30 13747 H 1276.28 -5.15997 1.87186 0
M  V30 13748 H 1276.54 -4.41048 0.304812 0
M  V30 13749 N 1275.6 -0.99472 -1.22242 0
M  V30 13750 C 1276.53 -0.566499 -2.26524 0
M  V30 13751 C 1277.51 0.407541 -1.65146 0
M  V30 13752 O 1278.7 0.297777 -1.91903 0
M  V30 13753 C 1275.83 0.11786 -3.471 0
M  V30 13754 C 1274.78 -0.774908 -4.20927 0
M  V30 13755 C 1274.11 0.0424687 -5.34683 0
M  V30 13756 C 1275.41 -2.07263 -4.79416 0
M  V30 13757 H 1277.1 -1.43818 -2.62596 0
M  V30 13758 H 1274.65 -0.692971 -1.2623 0
M  V30 13759 H 1276.6 0.428842 -4.19212 0
M  V30 13760 H 1275.32 1.0241 -3.10129 0
M  V30 13761 H 1273.98 -1.06956 -3.50651 0
M  V30 13762 H 1273.63 0.949677 -4.93954 0
M  V30 13763 H 1273.33 -0.551867 -5.85003 0
M  V30 13764 H 1274.85 0.347504 -6.0961 0
M  V30 13765 H 1276.27 -1.82548 -5.4346 0
M  V30 13766 H 1274.67 -2.61594 -5.40082 0
M  V30 13767 H 1275.74 -2.75017 -3.99366 0
M  V30 13768 N 1277.08 1.37613 -0.768148 0
M  V30 13769 C 1278.33 1.99384 -0.330187 0
M  V30 13770 C 1278.65 1.61283 1.09604 0
M  V30 13771 O 1277.92 0.876551 1.75195 0
M  V30 13772 H 1276.5 0.737445 -0.119095 0
M  V30 13773 H 1279.16 1.6815 -0.985476 0
M  V30 13774 H 1278.26 3.09462 -0.40494 0
M  V30 13775 N 1278.56 0.518393 1.4883 0
M  V30 13776 C 1279.8 -0.0199053 2.0249 0
M  V30 13777 C 1280.13 -1.35375 1.39657 0
M  V30 13778 O 1279.39 -1.88454 0.527586 0
M  V30 13779 C 1279.69 -0.203001 3.56823 0
M  V30 13780 C 1279.35 1.05502 4.38384 0
M  V30 13781 C 1278.01 1.39982 4.60389 0
M  V30 13782 C 1280.37 1.89042 4.85708 0
M  V30 13783 C 1277.69 2.57922 5.26966 0
M  V30 13784 C 1280.05 3.06151 5.53583 0
M  V30 13785 C 1278.71 3.40991 5.73831 0
M  V30 13786 H 1277.98 -0.00728388 0.740964 0
M  V30 13787 H 1280.63 0.682073 1.78941 0
M  V30 13788 H 1278.93 -0.987653 3.79147 0
M  V30 13789 H 1280.63 -0.634234 3.95953 0
M  V30 13790 H 1277.22 0.77647 4.21508 0
M  V30 13791 H 1281.4 1.63716 4.6852 0
M  V30 13792 H 1276.66 2.85132 5.40842 0
M  V30 13793 H 1280.83 3.71198 5.89224 0
M  V30 13794 H 1278.46 4.32479 6.25193 0
M  V30 13795 N 1280.03 -1.55556 0.252993 0
M  V30 13796 C 1281.45 -1.59276 -0.101714 0
M  V30 13797 C 1281.65 -1.27018 -1.56424 0
M  V30 13798 O 1280.71 -1.02042 -2.30963 0
M  V30 13799 C 1282.02 -2.99634 0.252969 0
M  V30 13800 C 1283.57 -3.12375 0.197767 0
M  V30 13801 C 1284.04 -4.54963 0.52657 0
M  V30 13802 N 1285.53 -4.60734 0.477296 0
M  V30 13803 C 1286.27 -5.69052 0.704793 0
M  V30 13804 N 1285.76 -6.85607 0.99574 0
M  V30 13805 N 1287.56 -5.58501 0.635086 0
M  V30 13806 H 1279.71 -1.74793 1.2067 0
M  V30 13807 H 1281.97 -0.813971 0.485958 0
M  V30 13808 H 1281.68 -3.27998 1.26926 0
M  V30 13809 H 1281.55 -3.74888 -0.416984 0
M  V30 13810 H 1283.94 -2.83788 -0.809209 0
M  V30 13811 H 1284.02 -2.39382 0.901659 0
M  V30 13812 H 1283.66 -4.84271 1.53113 0
M  V30 13813 H 1283.59 -5.26224 -0.198869 0
M  V30 13814 H 1286.08 -3.76995 0.261398 0
M  V30 13815 H 1286.4 -7.64096 1.15659 0
M  V30 13816 H 1284.74 -6.87276 1.03328 0
M  V30 13817 H 1287.93 -4.6632 0.407789 0
M  V30 13818 H 1288.11 -6.42845 0.815777 0
M  V30 13819 N 1281.51 0.0200419 -1.57587 0
M  V30 13820 C 1282.46 1.01784 -2.07144 0
M  V30 13821 C 1283.43 1.3537 -0.962501 0
M  V30 13822 O 1284.61 1.45553 -1.23365 0
M  V30 13823 C 1281.75 2.31091 -2.56302 0
M  V30 13824 C 1280.87 2.03584 -3.81022 0
M  V30 13825 C 1280 3.26827 -4.18757 0
M  V30 13826 C 1279.04 2.94915 -5.36369 0
M  V30 13827 N 1278.18 4.10636 -5.69493 0
M  V30 13828 H 1283.02 0.588288 -2.92136 0
M  V30 13829 H 1280.56 0.278848 -1.44433 0
M  V30 13830 H 1282.51 3.06656 -2.82874 0
M  V30 13831 H 1281.14 2.71752 -1.74215 0
M  V30 13832 H 1280.2 1.18475 -3.6148 0
M  V30 13833 H 1281.51 1.76049 -4.66699 0
M  V30 13834 H 1280.66 4.10753 -4.46505 0
M  V30 13835 H 1279.4 3.57483 -3.31749 0
M  V30 13836 H 1278.41 2.09392 -5.08365 0
M  V30 13837 H 1279.63 2.65528 -6.25037 0
M  V30 13838 H 1277.58 4.41226 -4.85444 0
M  V30 13839 H 1277.49 3.86556 -6.497 0
M  V30 13840 H 1278.76 4.95409 -6.01822 0
M  V30 13841 N 1282.99 1.54862 0.292472 0
M  V30 13842 C 1283.9 1.89472 1.38339 0
M  V30 13843 C 1284.92 0.789783 1.55043 0
M  V30 13844 O 1286.09 1.08705 1.69544 0
M  V30 13845 C 1283.16 2.14244 2.72581 0
M  V30 13846 C 1282.22 3.37913 2.64789 0
M  V30 13847 C 1281.45 3.61494 3.92629 0
M  V30 13848 O 1281.67 2.87931 4.92394 0
M  V30 13849 O 1280.61 4.55019 3.94007 0
M  V30 13850 H 1284.43 2.82298 1.11989 0
M  V30 13851 H 1282.02 1.41161 0.489291 0
M  V30 13852 H 1283.9 2.31689 3.51991 0
M  V30 13853 H 1282.58 1.24603 2.98757 0
M  V30 13854 H 1281.48 3.25823 1.83821 0
M  V30 13855 H 1282.82 4.27711 2.43565 0
M  V30 13856 N 1284.47 -0.556076 1.47464 0
M  V30 13857 C 1285.88 -1.1382 1.47993 0
M  V30 13858 C 1286.23 -1.94785 0.235249 0
M  V30 13859 O 1285.36 -2.06098 -0.659752 0
M  V30 13860 C 1285.95 -2.07082 2.68146 0
M  V30 13861 C 1284.51 -2.60564 2.71631 0
M  V30 13862 C 1283.66 -1.36967 2.41113 0
M  V30 13863 H 1286.61 -0.34262 1.54957 0
M  V30 13864 H 1286.63 -2.90975 2.45181 0
M  V30 13865 H 1286.14 -1.48127 3.5872 0
M  V30 13866 H 1284.24 -3.23314 1.852 0
M  V30 13867 H 1284.35 -3.0148 3.72353 0
M  V30 13868 H 1282.72 -1.67678 1.91719 0
M  V30 13869 H 1283.5 -0.79803 3.33896 0
M  V30 13870 N 1285.95 -1.35615 -0.802897 0
M  V30 13871 C 1287.17 -1.32377 -1.59659 0
M  V30 13872 C 1287.6 0.0954235 -1.87858 0
M  V30 13873 O 1286.96 1.06336 -1.46842 0
M  V30 13874 C 1287 -2.13972 -2.90256 0
M  V30 13875 O 1286.11 -1.52296 -3.83249 0
M  V30 13876 H 1285.45 -0.453699 -0.484823 0
M  V30 13877 H 1287.98 -1.78708 -0.996217 0
M  V30 13878 H 1287.99 -2.26061 -3.39647 0
M  V30 13879 H 1286.66 -3.17145 -2.69057 0
M  V30 13880 H 1285.24 -1.49068 -3.41809 0
M  V30 13881 N 1287.43 1.02549 -1.19673 0
M  V30 13882 C 1288.65 1.8016 -1.02748 0
M  V30 13883 C 1289.08 1.83372 0.419105 0
M  V30 13884 O 1288.43 1.26222 1.30144 0
M  V30 13885 C 1288.48 3.22907 -1.60509 0
M  V30 13886 O 1287.59 4.03823 -0.836702 0
M  V30 13887 H 1286.93 0.556027 -0.362946 0
M  V30 13888 H 1289.46 1.29047 -1.5877 0
M  V30 13889 H 1289.47 3.73646 -1.63868 0
M  V30 13890 H 1288.14 3.19885 -2.65794 0
M  V30 13891 H 1286.72 3.6245 -0.876626 0
M  V30 13892 N 1288.9 1.00119 1.21713 0
M  V30 13893 C 1290.15 0.682733 1.90962 0
M  V30 13894 C 1290.48 -0.784131 1.77665 0
M  V30 13895 O 1289.76 -1.56799 1.15084 0
M  V30 13896 C 1290.04 1.09975 3.42896 0
M  V30 13897 C 1289.89 2.62578 3.65202 0
M  V30 13898 C 1291.21 0.659247 4.35134 0
M  V30 13899 H 1288.33 0.249501 0.693483 0
M  V30 13900 H 1290.97 1.24619 1.43423 0
M  V30 13901 H 1289.12 0.620334 3.83515 0
M  V30 13902 H 1290.8 3.18254 3.33934 0
M  V30 13903 H 1289.04 3.04268 3.09198 0
M  V30 13904 H 1289.71 2.86809 4.7164 0
M  V30 13905 H 1292.19 1.07116 4.02076 0
M  V30 13906 H 1291.06 0.979241 5.40095 0
M  V30 13907 H 1291.32 -0.439777 4.39907 0
M  V30 13908 N 1290.38 -1.37203 0.775435 0
M  V30 13909 C 1291.61 -2.03868 0.352927 0
M  V30 13910 C 1292.02 -1.58482 -1.0261 0
M  V30 13911 O 1291.38 -0.767772 -1.65564 0
M  V30 13912 C 1291.43 -3.59378 0.39116 0
M  V30 13913 O 1291.15 -4.03103 1.71579 0
M  V30 13914 C 1292.65 -4.4328 -0.0424808 0
M  V30 13915 H 1289.87 -0.654619 0.14736 0
M  V30 13916 H 1292.42 -1.75463 1.05039 0
M  V30 13917 H 1290.57 -3.86542 -0.257752 0
M  V30 13918 H 1290.99 -4.9764 1.65695 0
M  V30 13919 H 1292.46 -5.51989 0.0354215 0
M  V30 13920 H 1292.94 -4.25374 -1.09333 0
M  V30 13921 H 1293.54 -4.21349 0.578384 0
M  V30 13922 N 1291.86 -0.526279 -1.48553 0
M  V30 13923 C 1293.09 0.0052277 -2.06899 0
M  V30 13924 C 1293.5 1.2849 -1.38332 0
M  V30 13925 O 1292.86 1.76354 -0.469648 0
M  V30 13926 C 1292.91 0.236709 -3.60724 0
M  V30 13927 O 1292.63 -0.992256 -4.26715 0
M  V30 13928 C 1294.13 0.809014 -4.35855 0
M  V30 13929 H 1291.35 -0.0318426 -0.670244 0
M  V30 13930 H 1293.9 -0.730865 -1.90994 0
M  V30 13931 H 1292.05 0.922842 -3.76248 0
M  V30 13932 H 1292.47 -0.770697 -5.18807 0
M  V30 13933 H 1293.94 0.920428 -5.44272 0
M  V30 13934 H 1294.42 1.81302 -4.00033 0
M  V30 13935 H 1295.02 0.159564 -4.25001 0
M  V30 13936 N 1293.34 1.5542 -0.261239 0
M  V30 13937 C 1294.29 2.18644 0.646442 0
M  V30 13938 C 1295.27 1.14672 1.12868 0
M  V30 13939 O 1296.46 1.40534 1.07606 0
M  V30 13940 C 1293.59 2.90045 1.83655 0
M  V30 13941 C 1292.68 4.01289 1.37214 0
M  V30 13942 N 1293.07 5.01949 0.622927 0
M  V30 13943 C 1291.37 4.14107 1.65625 0
M  V30 13944 C 1292.07 5.80454 0.380569 0
M  V30 13945 N 1291.04 5.35253 0.94897 0
M  V30 13946 H 1294.85 2.93826 0.0660348 0
M  V30 13947 H 1292.36 1.62273 -0.0641794 0
M  V30 13948 H 1294.36 3.33778 2.49796 0
M  V30 13949 H 1293.02 2.16369 2.42104 0
M  V30 13950 H 1294.03 5.17187 0.271619 0
M  V30 13951 H 1290.71 3.51613 2.2511 0
M  V30 13952 H 1292.1 6.71545 -0.218528 0
M  V30 13953 N 1294.82 -0.0116844 1.57596 0
M  V30 13954 C 1296.04 -0.713924 1.94725 0
M  V30 13955 C 1296.47 -1.67157 0.862565 0
M  V30 13956 O 1295.82 -1.80401 -0.180308 0
M  V30 13957 C 1295.87 -1.43214 3.30941 0
M  V30 13958 O 1294.98 -2.5461 3.24419 0
M  V30 13959 H 1294.32 -0.190772 0.636005 0
M  V30 13960 H 1296.85 0.0380247 2.04565 0
M  V30 13961 H 1296.86 -1.79819 3.66237 0
M  V30 13962 H 1295.53 -0.729906 4.09445 0
M  V30 13963 H 1294.11 -2.20419 3.00782 0
M  V30 13964 N 1296.29 -1.55015 -0.284256 0
M  V30 13965 C 1297.52 -1.79431 -1.04016 0
M  V30 13966 C 1297.94 -0.560254 -1.79563 0
M  V30 13967 O 1297.3 0.489804 -1.74558 0
M  V30 13968 C 1297.35 -3.01162 -1.98328 0
M  V30 13969 O 1296.45 -2.75459 -3.06914 0
M  V30 13970 H 1295.79 -0.593391 -0.297965 0
M  V30 13971 H 1298.32 -2.02136 -0.316585 0
M  V30 13972 H 1298.33 -3.29589 -2.40489 0
M  V30 13973 H 1297.01 -3.90634 -1.42751 0
M  V30 13974 H 1295.59 -2.58096 -2.69148 0
M  V30 13975 N 1297.77 0.548248 -1.47757 0
M  V30 13976 C 1299.05 1.3092 -1.45325 0
M  V30 13977 C 1299.43 2.1053 -0.155008 0
M  V30 13978 O 1298.78 2.11558 0.863455 0
M  V30 13979 C 1298.99 2.20614 -2.70426 0
M  V30 13980 C 1300.33 2.81345 -3.18009 0
M  V30 13981 O 1301.36 2.30911 -2.71216 0
M  V30 13982 O 1300.22 3.73036 -3.99383 0
M  V30 13983 H 1297.31 0.58996 -0.579548 0
M  V30 13984 H 1299.86 0.56641 -1.59968 0
M  V30 13985 H 1298.63 1.61449 -3.56441 0
M  V30 13986 H 1298.25 3.02173 -2.58413 0
M  V30 13987 N 1299.25 1.36039 0.795694 0
M  V30 13988 C 1300.5 1.29663 1.55023 0
M  V30 13989 C 1300.82 -0.125588 1.94595 0
M  V30 13990 O 1300.09 -1.06447 1.64456 0
M  V30 13991 H 1298.67 0.476962 0.574906 0
M  V30 13992 H 1301.33 1.70265 0.948471 0
M  V30 13993 H 1300.43 1.91982 2.46068 0
M  V30 13994 N 1300.73 -1.01913 1.20215 0
M  V30 13995 C 1301.68 -2.104 0.948708 0
M  V30 13996 C 1302.65 -1.65665 -0.120139 0
M  V30 13997 O 1303.83 -1.90785 0.0240547 0
M  V30 13998 C 1300.97 -3.41398 0.504132 0
M  V30 13999 C 1300.08 -3.99625 1.64085 0
M  V30 14000 C 1299.22 -5.18673 1.14683 0
M  V30 14001 C 1298.26 -5.68977 2.2568 0
M  V30 14002 N 1297.39 -6.79289 1.77514 0
M  V30 14003 H 1302.23 -2.31415 1.87753 0
M  V30 14004 H 1299.77 -1.13487 0.935901 0
M  V30 14005 H 1301.73 -4.16578 0.22771 0
M  V30 14006 H 1300.36 -3.20463 -0.387689 0
M  V30 14007 H 1299.41 -3.21565 2.03225 0
M  V30 14008 H 1300.72 -4.32965 2.47674 0
M  V30 14009 H 1299.88 -6.01048 0.826223 0
M  V30 14010 H 1298.62 -4.86891 0.280797 0
M  V30 14011 H 1297.62 -4.85208 2.5856 0
M  V30 14012 H 1298.85 -6.02794 3.12755 0
M  V30 14013 H 1296.79 -6.49341 0.932338 0
M  V30 14014 H 1296.71 -7.11808 2.54686 0
M  V30 14015 H 1297.98 -7.65235 1.48446 0
M  V30 14016 N 1302.21 -1.00763 -1.2118 0
M  V30 14017 C 1303.48 -0.607236 -1.85935 0
M  V30 14018 C 1303.86 0.915048 -1.90237 0
M  V30 14019 O 1303.21 1.80308 -1.40361 0
M  V30 14020 C 1303.42 -1.24466 -3.26051 0
M  V30 14021 C 1304.77 -1.35443 -4.02418 0
M  V30 14022 O 1305.79 -1.20018 -3.35372 0
M  V30 14023 O 1304.65 -1.60282 -5.22467 0
M  V30 14024 H 1301.75 -0.208338 -0.800328 0
M  V30 14025 H 1304.29 -1.10444 -1.28842 0
M  V30 14026 H 1303.06 -2.28524 -3.17635 0
M  V30 14027 H 1302.69 -0.733966 -3.90767 0
M  V30 14028 N 1303.68 1.3679 -0.7827 0
M  V30 14029 C 1304.62 2.28805 -0.13451 0
M  V30 14030 C 1305.63 1.49159 0.652338 0
M  V30 14031 O 1306.82 1.71682 0.488626 0
M  V30 14032 C 1303.92 3.28508 0.832802 0
M  V30 14033 C 1303.09 4.37291 0.0974435 0
M  V30 14034 C 1302.15 5.16999 0.979715 0
M  V30 14035 O 1301.18 5.67501 0.439439 0
M  V30 14036 N 1302.38 5.32786 2.30477 0
M  V30 14037 H 1305.14 2.85072 -0.924873 0
M  V30 14038 H 1302.7 1.48884 -0.636012 0
M  V30 14039 H 1304.7 3.78718 1.42671 0
M  V30 14040 H 1303.27 2.7293 1.52408 0
M  V30 14041 H 1302.49 3.88335 -0.677483 0
M  V30 14042 H 1303.77 5.07143 -0.410259 0
M  V30 14043 H 1303.17 4.93358 2.76793 0
M  V30 14044 H 1301.73 5.86264 2.84848 0
M  V30 14045 N 1305.16 0.53415 1.48272 0
M  V30 14046 C 1306.57 0.0947592 1.86459 0
M  V30 14047 C 1306.92 -1.32906 1.44328 0
M  V30 14048 O 1306.05 -1.99605 0.835866 0
M  V30 14049 C 1306.64 0.16519 3.38397 0
M  V30 14050 C 1305.2 -0.219029 3.75762 0
M  V30 14051 C 1304.35 0.523097 2.72321 0
M  V30 14052 H 1307.3 0.74517 1.40117 0
M  V30 14053 H 1307.32 -0.622065 3.75381 0
M  V30 14054 H 1306.83 1.20157 3.69031 0
M  V30 14055 H 1304.94 -1.2574 3.50742 0
M  V30 14056 H 1305.05 0.123482 4.78941 0
M  V30 14057 H 1303.41 -0.0311323 2.54681 0
M  V30 14058 H 1304.2 1.56019 3.05799 0
M  V30 14059 N 1306.64 -1.55279 0.269478 0
M  V30 14060 C 1307.89 -1.99767 -0.34943 0
M  V30 14061 C 1308.22 -1.15762 -1.55926 0
M  V30 14062 O 1307.49 -0.22633 -1.93179 0
M  V30 14063 C 1307.78 -3.52474 -0.73716 0
M  V30 14064 C 1307.63 -4.47236 0.479621 0
M  V30 14065 C 1308.95 -4.10924 -1.57573 0
M  V30 14066 H 1306.07 -0.72623 -0.125535 0
M  V30 14067 H 1308.71 -1.86257 0.375298 0
M  V30 14068 H 1306.86 -3.64118 -1.35464 0
M  V30 14069 H 1308.53 -4.47543 1.11816 0
M  V30 14070 H 1306.78 -4.19127 1.11871 0
M  V30 14071 H 1307.45 -5.51754 0.164653 0
M  V30 14072 H 1309.92 -4.02522 -1.05429 0
M  V30 14073 H 1308.8 -5.17995 -1.81584 0
M  V30 14074 H 1309.06 -3.60798 -2.55495 0
M  V30 14075 N 1308.12 0.00332656 -1.576 0
M  V30 14076 C 1309.08 0.980628 -2.07163 0
M  V30 14077 C 1310.08 1.27455 -0.980402 0
M  V30 14078 O 1311.27 1.22029 -1.24317 0
M  V30 14079 C 1308.4 2.30647 -2.51028 0
M  V30 14080 H 1309.6 0.551982 -2.94776 0
M  V30 14081 H 1307.15 0.250728 -1.54276 0
M  V30 14082 H 1307.88 2.78207 -1.66647 0
M  V30 14083 H 1307.67 2.10635 -3.30719 0
M  V30 14084 H 1309.16 3.00761 -2.89711 0
M  V30 14085 N 1309.6 1.55164 0.276031 0
M  V30 14086 C 1310.84 1.75627 1.00803 0
M  V30 14087 C 1311.17 0.555696 1.86393 0
M  V30 14088 O 1310.43 -0.461872 1.90172 0
M  V30 14089 C 1310.73 3.0127 1.92279 0
M  V30 14090 C 1310.39 4.33951 1.22464 0
M  V30 14091 C 1309.05 4.70013 1.03158 0
M  V30 14092 C 1311.41 5.16097 0.72758 0
M  V30 14093 C 1308.73 5.85779 0.328699 0
M  V30 14094 C 1311.09 6.32588 0.0383001 0
M  V30 14095 C 1309.75 6.67292 -0.166494 0
M  V30 14096 H 1309.02 0.642665 0.368866 0
M  V30 14097 H 1311.67 1.89433 0.280595 0
M  V30 14098 H 1309.97 2.82351 2.71634 0
M  V30 14099 H 1311.67 3.14299 2.49032 0
M  V30 14100 H 1308.26 4.05605 1.38501 0
M  V30 14101 H 1312.44 4.88715 0.864365 0
M  V30 14102 H 1307.7 6.11192 0.159279 0
M  V30 14103 H 1311.87 6.95496 -0.354631 0
M  V30 14104 H 1309.5 7.56848 -0.713124 0
M  V30 14105 N 1311.07 -0.540404 1.48045 0
M  V30 14106 C 1312.3 -1.32177 1.59175 0
M  V30 14107 C 1312.72 -1.87163 0.248115 0
M  V30 14108 O 1312.07 -1.65871 -0.761124 0
M  V30 14109 C 1312.13 -2.47995 2.63023 0
M  V30 14110 O 1311.85 -1.95278 3.92171 0
M  V30 14111 C 1313.35 -3.39967 2.84495 0
M  V30 14112 H 1310.57 -0.40233 0.537002 0
M  V30 14113 H 1313.11 -0.652983 1.93795 0
M  V30 14114 H 1311.27 -3.10779 2.31291 0
M  V30 14115 H 1311.68 -2.71012 4.49058 0
M  V30 14116 H 1313.15 -4.17607 3.60982 0
M  V30 14117 H 1313.63 -3.94555 1.92932 0
M  V30 14118 H 1314.24 -2.82985 3.1749 0
M  V30 14119 N 1312.55 -1.36459 -0.788468 0
M  V30 14120 C 1313.78 -1.33703 -1.57502 0
M  V30 14121 C 1314.19 0.0834961 -1.89016 0
M  V30 14122 O 1313.53 1.05107 -1.50659 0
M  V30 14123 C 1313.6 -2.09424 -2.92201 0
M  V30 14124 C 1313.26 -3.58507 -2.83411 0
M  V30 14125 C 1314.26 -4.52736 -2.5559 0
M  V30 14126 C 1311.94 -4.01405 -3.01959 0
M  V30 14127 C 1313.94 -5.87841 -2.46419 0
M  V30 14128 C 1311.62 -5.366 -2.92409 0
M  V30 14129 C 1312.62 -6.29631 -2.64677 0
M  V30 14130 O 1312.31 -7.62343 -2.55124 0
M  V30 14131 H 1312.04 -0.460221 -0.495149 0
M  V30 14132 H 1314.59 -1.80163 -0.986437 0
M  V30 14133 H 1312.82 -1.5763 -3.53114 0
M  V30 14134 H 1314.51 -1.99515 -3.53481 0
M  V30 14135 H 1315.28 -4.20906 -2.40962 0
M  V30 14136 H 1311.16 -3.29367 -3.2255 0
M  V30 14137 H 1314.7 -6.60423 -2.24694 0
M  V30 14138 H 1310.6 -5.68038 -3.066 0
M  V30 14139 H 1311.37 -7.72476 -2.70598 0
M  V30 14140 N 1314.03 1.01274 -1.20754 0
M  V30 14141 C 1315.27 1.7647 -1.03139 0
M  V30 14142 C 1315.63 1.87157 0.428531 0
M  V30 14143 O 1316.84 2.58839 0.724973 0
M  V30 14144 C 1315.11 3.14346 -1.70063 0
M  V30 14145 S 1316.67 4.05531 -1.67602 0
M  V30 14146 H 1313.48 0.60729 -0.369756 0
M  V30 14147 H 1316.09 1.21232 -1.53372 0
M  V30 14148 H 1314.79 3.04197 -2.75486 0
M  V30 14149 H 1314.32 3.74659 -1.19977 0
M  V30 14150 H 1316.34 4.91071 -0.711623 0
M  V30 14151 N 1315.51 1.01404 1.20644 0
M  V30 14152 C 1316.47 0.586941 2.21557 0
M  V30 14153 C 1317.47 -0.341543 1.57131 0
M  V30 14154 O 1318.66 -0.130585 1.7371 0
M  V30 14155 C 1315.79 -0.143248 3.40599 0
M  V30 14156 H 1316.99 1.47964 2.60858 0
M  V30 14157 H 1314.54 0.803551 1.34063 0
M  V30 14158 H 1315.28 -1.05097 3.06798 0
M  V30 14159 H 1315.06 0.523716 3.88587 0
M  V30 14160 H 1316.55 -0.429504 4.15385 0
M  V30 14161 N 1316.99 -1.36373 0.789944 0
M  V30 14162 C 1317.93 -2.30043 0.186798 0
M  V30 14163 C 1318.9 -1.52002 -0.669663 0
M  V30 14164 O 1320.09 -1.80506 -0.618232 0
M  V30 14165 C 1317.23 -3.38494 -0.671994 0
M  V30 14166 C 1316.34 -4.31522 0.203067 0
M  V30 14167 C 1315.48 -5.27057 -0.662148 0
M  V30 14168 C 1314.52 -6.11725 0.214335 0
M  V30 14169 N 1313.65 -6.99446 -0.609892 0
M  V30 14170 H 1318.49 -2.81038 0.991048 0
M  V30 14171 H 1316.03 -1.38331 0.500288 0
M  V30 14172 H 1317.99 -4.0002 -1.1849 0
M  V30 14173 H 1316.62 -2.88818 -1.44167 0
M  V30 14174 H 1315.67 -3.71146 0.833945 0
M  V30 14175 H 1316.98 -4.91005 0.878389 0
M  V30 14176 H 1316.14 -5.93875 -1.24084 0
M  V30 14177 H 1314.88 -4.6803 -1.37109 0
M  V30 14178 H 1313.88 -5.43868 0.805426 0
M  V30 14179 H 1315.11 -6.72827 0.92089 0
M  V30 14180 H 1313.05 -6.42927 -1.30312 0
M  V30 14181 H 1312.97 -7.56 0.00773786 0
M  V30 14182 H 1314.24 -7.70633 -1.1724 0
M  V30 14183 N 1318.47 -0.542005 -1.47987 0
M  V30 14184 C 1319.69 -0.016717 -2.06893 0
M  V30 14185 C 1320.11 1.27015 -1.39687 0
M  V30 14186 O 1319.47 1.75845 -0.488326 0
M  V30 14187 C 1319.52 0.198437 -3.60955 0
M  V30 14188 O 1319.24 -1.03746 -4.25639 0
M  V30 14189 C 1320.74 0.762741 -4.36689 0
M  V30 14190 H 1317.96 -0.0389497 -0.669869 0
M  V30 14191 H 1320.5 -0.751082 -1.90208 0
M  V30 14192 H 1318.66 0.882884 -3.77205 0
M  V30 14193 H 1319.07 -0.82568 -5.1796 0
M  V30 14194 H 1320.55 0.862649 -5.45218 0
M  V30 14195 H 1321.02 1.77049 -4.01933 0
M  V30 14196 H 1321.63 0.114478 -4.25146 0
M  V30 14197 N 1319.94 1.55134 -0.277709 0
M  V30 14198 C 1321.17 2.04519 0.344472 0
M  V30 14199 C 1321.59 1.15466 1.4849 0
M  V30 14200 O 1320.95 0.153798 1.80646 0
M  V30 14201 C 1321 3.51602 0.800527 0
M  V30 14202 O 1320.1 3.65632 1.90754 0
M  V30 14203 H 1319.44 0.660212 0.0708226 0
M  V30 14204 H 1321.97 2.00393 -0.412764 0
M  V30 14205 H 1321.98 3.93015 1.09559 0
M  V30 14206 H 1320.66 4.15886 -0.033838 0
M  V30 14207 H 1319.24 3.36122 1.61481 0
M  V30 14208 N 1321.42 0.00503138 1.57599 0
M  V30 14209 C 1322.67 -0.677979 1.89964 0
M  V30 14210 C 1322.98 -1.74657 0.88059 0
M  V30 14211 O 1324.19 -2.48455 1.09463 0
M  V30 14212 C 1322.65 -1.25708 3.37232 0
M  V30 14213 C 1322.25 -0.223045 4.47444 0
M  V30 14214 C 1324 -1.91799 3.787 0
M  V30 14215 C 1321.9 -0.812416 5.85793 0
M  V30 14216 H 1320.83 -0.256991 0.708852 0
M  V30 14217 H 1323.49 0.0663988 1.8338 0
M  V30 14218 H 1321.87 -2.05228 3.3867 0
M  V30 14219 H 1323.04 0.54794 4.57531 0
M  V30 14220 H 1321.36 0.337714 4.15028 0
M  V30 14221 H 1323.95 -2.36808 4.79402 0
M  V30 14222 H 1324.3 -2.75067 3.1248 0
M  V30 14223 H 1324.83 -1.19004 3.79583 0
M  V30 14224 H 1321.57 -0.0184031 6.55497 0
M  V30 14225 H 1321.09 -1.55244 5.79361 0
M  V30 14226 H 1322.77 -1.30952 6.33609 0
M  V30 14227 N 1322.9 -1.55308 -0.267798 0
M  V30 14228 C 1323.83 -1.91555 -1.33525 0
M  V30 14229 C 1324.81 -0.778001 -1.51265 0
M  V30 14230 O 1326 -1.03657 -1.64222 0
M  V30 14231 C 1323.13 -2.19201 -2.69385 0
M  V30 14232 C 1322.08 -3.3501 -2.66369 0
M  V30 14233 C 1321.41 -3.48148 -4.05829 0
M  V30 14234 C 1322.71 -4.71265 -2.25182 0
M  V30 14235 H 1324.4 -2.80965 -1.03437 0
M  V30 14236 H 1321.95 -1.35183 -0.496141 0
M  V30 14237 H 1323.9 -2.43146 -3.44177 0
M  V30 14238 H 1322.62 -1.26596 -3.01067 0
M  V30 14239 H 1321.28 -3.11041 -1.94034 0
M  V30 14240 H 1320.93 -2.53 -4.34741 0
M  V30 14241 H 1320.63 -4.26014 -4.04704 0
M  V30 14242 H 1322.15 -3.74391 -4.82352 0
M  V30 14243 H 1323.57 -4.94719 -2.89699 0
M  V30 14244 H 1321.96 -5.52084 -2.3521 0
M  V30 14245 H 1323.03 -4.69735 -1.20319 0
M  V30 14246 N 1324.38 0.532545 -1.4833 0
M  V30 14247 C 1325.6 1.31809 -1.60129 0
M  V30 14248 C 1326.03 1.86283 -0.260807 0
M  V30 14249 O 1325.39 1.6427 0.767137 0
M  V30 14250 C 1325.43 2.44661 -2.64903 0
M  V30 14251 O 1324.54 3.47622 -2.21885 0
M  V30 14252 H 1323.88 0.390492 -0.53704 0
M  V30 14253 H 1326.41 0.641068 -1.94297 0
M  V30 14254 H 1326.42 2.90883 -2.86096 0
M  V30 14255 H 1325.09 2.04373 -3.62222 0
M  V30 14256 H 1323.67 3.07536 -2.10894 0
M  V30 14257 N 1325.86 1.36875 0.78122 0
M  V30 14258 C 1326.79 1.34559 1.9083 0
M  V30 14259 C 1327.77 0.215713 1.68727 0
M  V30 14260 O 1328.95 0.41462 1.89722 0
M  V30 14261 C 1326.08 1.14233 3.27976 0
M  V30 14262 C 1325.04 2.24132 3.64621 0
M  V30 14263 C 1324.36 1.8894 5.00206 0
M  V30 14264 C 1325.66 3.66266 3.72353 0
M  V30 14265 H 1327.36 2.28871 1.93025 0
M  V30 14266 H 1324.9 1.10171 0.927275 0
M  V30 14267 H 1326.85 1.11246 4.06451 0
M  V30 14268 H 1325.58 0.163747 3.26189 0
M  V30 14269 H 1324.24 2.26259 2.88448 0
M  V30 14270 H 1323.89 0.896351 4.94949 0
M  V30 14271 H 1323.59 2.62525 5.25694 0
M  V30 14272 H 1325.11 1.87523 5.81092 0
M  V30 14273 H 1326.52 3.66321 4.41001 0
M  V30 14274 H 1324.92 4.38825 4.09332 0
M  V30 14275 H 1325.99 4.00578 2.7325 0
M  V30 14276 N 1327.33 -1.00632 1.21289 0
M  V30 14277 C 1328.24 -2.12829 0.986957 0
M  V30 14278 C 1329.26 -1.73895 -0.0605152 0
M  V30 14279 O 1330.44 -2.00985 0.129238 0
M  V30 14280 C 1327.5 -3.4226 0.553089 0
M  V30 14281 C 1326.56 -3.95376 1.67262 0
M  V30 14282 C 1325.79 -5.18629 1.25936 0
M  V30 14283 O 1326.02 -5.70246 0.132402 0
M  V30 14284 O 1324.95 -5.65157 2.07077 0
M  V30 14285 H 1328.78 -2.34765 1.92663 0
M  V30 14286 H 1326.36 -1.11208 0.997654 0
M  V30 14287 H 1328.24 -4.20177 0.320856 0
M  V30 14288 H 1326.92 -3.21716 -0.357881 0
M  V30 14289 H 1325.83 -3.18692 1.95924 0
M  V30 14290 H 1327.16 -4.20328 2.56097 0
M  V30 14291 N 1328.81 -1.02043 -1.20104 0
M  V30 14292 C 1329.76 -0.593945 -2.23027 0
M  V30 14293 C 1330.73 0.387931 -1.61506 0
M  V30 14294 O 1331.91 0.286504 -1.88637 0
M  V30 14295 C 1329.05 0.0577309 -3.45052 0
M  V30 14296 C 1328.17 -0.969169 -4.20988 0
M  V30 14297 C 1327.3 -0.288143 -5.30418 0
M  V30 14298 C 1326.34 -1.30154 -5.98102 0
M  V30 14299 N 1325.48 -0.646912 -6.99113 0
M  V30 14300 H 1330.32 -1.47623 -2.58866 0
M  V30 14301 H 1327.85 -0.738901 -1.27195 0
M  V30 14302 H 1329.81 0.452726 -4.14736 0
M  V30 14303 H 1328.44 0.90364 -3.09894 0
M  V30 14304 H 1327.49 -1.48229 -3.50332 0
M  V30 14305 H 1328.81 -1.73972 -4.67477 0
M  V30 14306 H 1327.96 0.162149 -6.06483 0
M  V30 14307 H 1326.7 0.514683 -4.84977 0
M  V30 14308 H 1325.7 -1.76218 -5.20795 0
M  V30 14309 H 1326.93 -2.10571 -6.45629 0
M  V30 14310 H 1324.88 0.135976 -6.55859 0
M  V30 14311 H 1324.79 -1.35548 -7.43749 0
M  V30 14312 H 1326.06 -0.220339 -7.79189 0
M  V30 14313 N 1330.29 1.35952 -0.797165 0
M  V30 14314 C 1331.22 2.32506 -0.215277 0
M  V30 14315 C 1332.2 1.57023 0.654046 0
M  V30 14316 O 1333.39 1.85139 0.586268 0
M  V30 14317 C 1330.52 3.41266 0.644557 0
M  V30 14318 C 1329.47 4.27816 -0.125501 0
M  V30 14319 C 1328.8 5.27813 0.855428 0
M  V30 14320 C 1330.1 5.05367 -1.31913 0
M  V30 14321 H 1331.79 2.8142 -1.02193 0
M  V30 14322 H 1329.34 1.35303 -0.492862 0
M  V30 14323 H 1331.29 4.07808 1.06163 0
M  V30 14324 H 1330.01 2.90938 1.484 0
M  V30 14325 H 1328.67 3.62841 -0.523639 0
M  V30 14326 H 1328.32 4.73755 1.69011 0
M  V30 14327 H 1328.02 5.86589 0.344566 0
M  V30 14328 H 1329.54 5.97227 1.2709 0
M  V30 14329 H 1330.96 5.64907 -0.977418 0
M  V30 14330 H 1329.36 5.73593 -1.76382 0
M  V30 14331 H 1330.43 4.36558 -2.11057 0
M  V30 14332 N 1331.77 0.549846 1.47697 0
M  V30 14333 C 1332.99 0.0256819 2.07384 0
M  V30 14334 C 1333.42 -1.25525 1.4009 0
M  V30 14335 O 1332.78 -1.7501 0.473406 0
M  V30 14336 C 1332.82 -0.160835 3.60241 0
M  V30 14337 O 1331.93 -1.22509 3.93783 0
M  V30 14338 H 1331.27 0.0480204 0.662261 0
M  V30 14339 H 1333.8 0.763429 1.89823 0
M  V30 14340 H 1333.81 -0.377337 4.06251 0
M  V30 14341 H 1332.48 0.774774 4.0862 0
M  V30 14342 H 1331.06 -0.98967 3.59527 0
M  V30 14343 N 1333.25 -1.54984 0.285932 0
M  V30 14344 C 1334.18 -2.25916 -0.590259 0
M  V30 14345 C 1335.16 -1.25319 -1.15018 0
M  V30 14346 O 1336.34 -1.54062 -1.18231 0
M  V30 14347 C 1333.47 -2.98849 -1.76936 0
M  V30 14348 C 1332.43 -4.06466 -1.3405 0
M  V30 14349 C 1331.75 -4.67032 -2.60356 0
M  V30 14350 C 1333.05 -5.20064 -0.482754 0
M  V30 14351 H 1334.75 -2.994 0.00131571 0
M  V30 14352 H 1332.29 -1.44 0.00207281 0
M  V30 14353 H 1334.25 -3.47186 -2.3883 0
M  V30 14354 H 1332.97 -2.22918 -2.38694 0
M  V30 14355 H 1331.63 -3.58957 -0.7447 0
M  V30 14356 H 1331.28 -3.87757 -3.20396 0
M  V30 14357 H 1330.98 -5.39703 -2.32368 0
M  V30 14358 H 1332.5 -5.18124 -3.23079 0
M  V30 14359 H 1333.91 -5.64387 -1.00697 0
M  V30 14360 H 1332.31 -5.99363 -0.297291 0
M  V30 14361 H 1333.38 -4.82358 0.495861 0
M  V30 14362 N 1334.72 -0.0133892 -1.57594 0
M  V30 14363 C 1335.67 0.991796 -2.10395 0
M  V30 14364 C 1336.67 1.34724 -1.02693 0
M  V30 14365 O 1337.87 1.33131 -1.21145 0
M  V30 14366 H 1334.25 0.337553 -0.671984 0
M  V30 14367 H 1336.22 0.52102 -2.93816 0
M  V30 14368 C 1334.97 2.27039 -2.63341 0
M  V30 14369 H 1334.29 2.00559 -3.45855 0
M  V30 14370 H 1335.73 2.95619 -3.0395 0
M  V30 14371 C 1334.19 2.98939 -1.55362 0
M  V30 14372 O 1334.72 3.90444 -0.944282 0
M  V30 14373 N 1332.93 2.60997 -1.27784 0
M  V30 14374 H 1332.47 1.86666 -1.77521 0
M  V30 14375 H 1332.43 3.09416 -0.557585 0
M  V30 14376 N 1336.2 1.55448 0.259558 0
M  V30 14377 C 1337.45 1.7589 0.987201 0
M  V30 14378 C 1337.76 0.574951 1.86959 0
M  V30 14379 O 1338.97 0.662091 2.63303 0
M  V30 14380 C 1337.43 3.11349 1.80526 0
M  V30 14381 C 1337.03 4.37353 0.970882 0
M  V30 14382 C 1338.78 3.41136 2.5264 0
M  V30 14383 C 1336.69 5.63847 1.7841 0
M  V30 14384 H 1335.62 0.655662 0.372321 0
M  V30 14385 H 1338.27 1.81893 0.242332 0
M  V30 14386 H 1336.65 2.9942 2.5916 0
M  V30 14387 H 1337.82 4.60237 0.227763 0
M  V30 14388 H 1336.14 4.14809 0.363669 0
M  V30 14389 H 1338.73 4.32855 3.13912 0
M  V30 14390 H 1339.08 2.61879 3.23612 0
M  V30 14391 H 1339.61 3.54224 1.81026 0
M  V30 14392 H 1336.35 6.4589 1.11834 0
M  V30 14393 H 1335.87 5.45086 2.50283 0
M  V30 14394 H 1337.55 6.02641 2.35441 0
M  V30 14395 N 1337.68 -0.524672 1.4861 0
M  V30 14396 C 1338.64 -1.61092 1.63039 0
M  V30 14397 C 1339.64 -1.52718 0.503387 0
M  V30 14398 O 1340.83 -1.56293 0.769304 0
M  V30 14399 C 1337.97 -3.00722 1.60558 0
M  V30 14400 H 1339.16 -1.49636 2.59902 0
M  V30 14401 H 1336.71 -0.747135 1.37287 0
M  V30 14402 H 1337.45 -3.1768 0.651926 0
M  V30 14403 H 1337.23 -3.0821 2.42382 0
M  V30 14404 H 1338.72 -3.79688 1.73859 0
M  V30 14405 N 1339.16 -1.37287 -0.77395 0
M  V30 14406 C 1340.39 -1.35563 -1.56302 0
M  V30 14407 C 1340.8 0.0595356 -1.88706 0
M  V30 14408 O 1340.16 1.02072 -1.51286 0
M  V30 14409 C 1340.21 -2.19195 -2.87464 0
M  V30 14410 O 1339.93 -3.55197 -2.5645 0
M  V30 14411 C 1341.43 -2.25425 -3.81704 0
M  V30 14412 H 1338.65 -0.464431 -0.484298 0
M  V30 14413 H 1341.2 -1.80597 -0.959425 0
M  V30 14414 H 1339.35 -1.77676 -3.44253 0
M  V30 14415 H 1339.76 -3.99011 -3.40427 0
M  V30 14416 H 1341.24 -2.8827 -4.70749 0
M  V30 14417 H 1341.72 -1.26205 -4.20677 0
M  V30 14418 H 1342.32 -2.67247 -3.30846 0
M  V30 14419 N 1340.64 0.999871 -1.21821 0
M  V30 14420 C 1341.91 1.71135 -0.947213 0
M  V30 14421 C 1342.29 2.04087 0.539601 0
M  V30 14422 O 1341.64 1.71866 1.5058 0
M  V30 14423 C 1341.85 2.96704 -1.8376 0
M  V30 14424 C 1343.2 3.69627 -2.08952 0
M  V30 14425 O 1344.22 3.06697 -1.81151 0
M  V30 14426 O 1343.08 4.82832 -2.55999 0
M  V30 14427 H 1340.18 0.746631 -0.355628 0
M  V30 14428 H 1342.72 1.05684 -1.32774 0
M  V30 14429 H 1341.49 2.68802 -2.84361 0
M  V30 14430 H 1341.12 3.69894 -1.45821 0
M  V30 14431 N 1342.11 1.02678 1.19562 0
M  V30 14432 C 1343.36 0.73282 1.8974 0
M  V30 14433 C 1343.72 -0.730461 1.77994 0
M  V30 14434 O 1343.01 -1.52487 1.1601 0
M  V30 14435 C 1343.2 1.11603 3.39529 0
M  V30 14436 C 1343.03 2.61501 3.65851 0
M  V30 14437 C 1341.8 3.28441 3.83998 0
M  V30 14438 C 1344 3.59707 3.6758 0
M  V30 14439 N 1341.98 4.67465 3.97932 0
M  V30 14440 C 1343.35 4.84339 3.8706 0
M  V30 14441 C 1345.41 3.53535 3.50595 0
M  V30 14442 C 1344.11 6.03544 3.91315 0
M  V30 14443 C 1346.14 4.72153 3.56126 0
M  V30 14444 C 1345.5 5.95598 3.76089 0
M  V30 14445 H 1341.6 0.319992 0.713533 0
M  V30 14446 H 1344.18 1.31366 1.43704 0
M  V30 14447 H 1342.35 0.563414 3.84292 0
M  V30 14448 H 1344.08 0.774538 3.97219 0
M  V30 14449 H 1340.84 2.78856 3.82801 0
M  V30 14450 H 1341.26 5.39676 4.08753 0
M  V30 14451 H 1345.91 2.59083 3.34119 0
M  V30 14452 H 1343.62 6.98366 4.06583 0
M  V30 14453 H 1347.21 4.69003 3.44278 0
M  V30 14454 H 1346.09 6.85847 3.80241 0
M  V30 14455 N 1343.59 -1.35528 0.804364 0
M  V30 14456 C 1344.5 -2.33616 0.214663 0
M  V30 14457 C 1345.52 -1.61757 -0.64115 0
M  V30 14458 O 1346.69 -1.93647 -0.553424 0
M  V30 14459 C 1343.76 -3.40951 -0.628778 0
M  V30 14460 C 1342.82 -4.28587 0.247269 0
M  V30 14461 C 1342.05 -5.30796 -0.556012 0
M  V30 14462 O 1342.28 -5.41557 -1.79088 0
M  V30 14463 O 1341.21 -6.01878 0.0519437 0
M  V30 14464 H 1345.04 -2.85843 1.02605 0
M  V30 14465 H 1342.62 -1.38259 0.566108 0
M  V30 14466 H 1344.5 -4.06538 -1.10926 0
M  V30 14467 H 1343.18 -2.90999 -1.4178 0
M  V30 14468 H 1342.09 -3.65988 0.774835 0
M  V30 14469 H 1343.42 -4.81931 1.00017 0
M  V30 14470 N 1345.07 -0.557671 -1.47404 0
M  V30 14471 C 1346.32 -0.0338384 -2.02772 0
M  V30 14472 C 1346.65 1.31278 -1.43107 0
M  V30 14473 O 1345.93 1.85436 -0.58682 0
M  V30 14474 C 1346.21 0.0587427 -3.60052 0
M  V30 14475 C 1346.06 -1.315 -4.30148 0
M  V30 14476 C 1347.38 0.771942 -4.33277 0
M  V30 14477 H 1344.5 -0.0137711 -0.736871 0
M  V30 14478 H 1347.14 -0.720049 -1.75827 0
M  V30 14479 H 1345.29 0.643154 -3.83139 0
M  V30 14480 H 1346.96 -1.94265 -4.184 0
M  V30 14481 H 1345.21 -1.88956 -3.90484 0
M  V30 14482 H 1345.88 -1.20294 -5.38733 0
M  V30 14483 H 1348.35 0.275729 -4.15185 0
M  V30 14484 H 1347.23 0.805683 -5.42955 0
M  V30 14485 H 1347.49 1.82816 -4.0253 0
M  V30 14486 N 1346.55 1.54831 -0.294147 0
M  V30 14487 C 1347.97 1.59489 0.0594489 0
M  V30 14488 C 1348.17 1.31121 1.53002 0
M  V30 14489 O 1347.22 1.08129 2.28176 0
M  V30 14490 C 1348.53 2.98858 -0.332323 0
M  V30 14491 C 1350.08 3.1174 -0.280518 0
M  V30 14492 C 1350.56 4.53407 -0.64701 0
M  V30 14493 N 1352.05 4.59307 -0.599284 0
M  V30 14494 C 1352.78 5.66983 -0.85542 0
M  V30 14495 N 1352.28 6.82726 -1.17717 0
M  V30 14496 N 1354.07 5.56621 -0.78294 0
M  V30 14497 H 1346.22 1.71532 -1.25262 0
M  V30 14498 H 1348.49 0.800801 -0.507368 0
M  V30 14499 H 1348.19 3.24517 -1.35578 0
M  V30 14500 H 1348.07 3.75862 0.317443 0
M  V30 14501 H 1350.45 2.85834 0.733683 0
M  V30 14502 H 1350.53 2.36907 -0.96481 0
M  V30 14503 H 1350.18 4.80042 -1.65899 0
M  V30 14504 H 1350.11 5.26567 0.0592796 0
M  V30 14505 H 1352.6 3.76169 -0.361259 0
M  V30 14506 H 1352.91 7.60761 -1.35877 0
M  V30 14507 H 1351.26 6.84295 -1.21513 0
M  V30 14508 H 1354.45 4.65075 -0.531282 0
M  V30 14509 H 1354.62 6.40456 -0.985929 0
M  V30 14510 N 1348.03 0.0217466 1.57585 0
M  V30 14511 C 1349.28 -0.657793 1.90672 0
M  V30 14512 C 1349.59 -1.73713 0.899066 0
M  V30 14513 O 1350.8 -2.4728 1.12092 0
M  V30 14514 C 1349.25 -1.22124 3.38547 0
M  V30 14515 C 1348.86 -0.175575 4.47656 0
M  V30 14516 C 1350.6 -1.87771 3.80713 0
M  V30 14517 C 1348.51 -0.750239 5.86622 0
M  V30 14518 H 1347.44 -0.249459 0.711538 0
M  V30 14519 H 1350.09 0.0858449 1.83299 0
M  V30 14520 H 1348.47 -2.01625 3.40828 0
M  V30 14521 H 1349.65 0.596436 4.56924 0
M  V30 14522 H 1347.96 0.381715 4.14647 0
M  V30 14523 H 1350.56 -2.3171 4.81887 0
M  V30 14524 H 1350.9 -2.71737 3.1538 0
M  V30 14525 H 1351.44 -1.14971 3.80823 0
M  V30 14526 H 1348.17 0.0511222 6.5548 0
M  V30 14527 H 1347.69 -1.49091 5.80975 0
M  V30 14528 H 1349.37 -1.24225 6.34962 0
M  V30 14529 N 1349.51 -1.55583 -0.251311 0
M  V30 14530 C 1350.75 -1.76411 -0.977859 0
M  V30 14531 C 1351.07 -0.584857 -1.86651 0
M  V30 14532 O 1352.27 -0.676046 -2.62948 0
M  V30 14533 C 1350.73 -3.12302 -1.78872 0
M  V30 14534 C 1350.34 -4.37862 -0.947674 0
M  V30 14535 C 1352.08 -3.42471 -2.50827 0
M  V30 14536 C 1349.99 -5.64786 -1.75417 0
M  V30 14537 H 1348.92 -0.657628 -0.368839 0
M  V30 14538 H 1351.57 -1.82019 -0.232682 0
M  V30 14539 H 1349.95 -3.0079 -2.57569 0
M  V30 14540 H 1351.13 -4.60351 -0.203352 0
M  V30 14541 H 1349.44 -4.14996 -0.341666 0
M  V30 14542 H 1352.04 -4.34514 -3.11612 0
M  V30 14543 H 1352.38 -2.63592 -3.22219 0
M  V30 14544 H 1352.91 -3.55179 -1.79145 0
M  V30 14545 H 1349.65 -6.46474 -1.08407 0
M  V30 14546 H 1349.17 -5.46405 -2.47389 0
M  V30 14547 H 1350.85 -6.03881 -2.32242 0
M  V30 14548 O 1351.02 0.396972 -1.56545 0
M  V30 14549 H 1351.71 1.04909 -1.6283 0
M  V30 END ATOM
M  V30 BEGIN BOND
M  V30 END BOND
M  V30 END CTAB
M  END
$$$$
