drugbank_target|Q8TED1 Probable glutathione peroxidase 8 (DB00143; DB03310)
 OpenBabel12092121243D

  0  0  0     0  0            999 V3000
M  V30 BEGIN CTAB
M  V30 COUNTS 3439 3484 0 0 0
M  V30 BEGIN ATOM
M  V30 1 H -0.908 1.98254 -0.117106 0
M  V30 2 N 0 1.576 0 0
M  V30 3 C 0.933 2.03868 1.02534 0
M  V30 4 C 1.911 0.928543 1.3348 0
M  V30 5 O 3.095 1.19667 1.45644 0
M  V30 6 C 0.222 2.43627 2.35294 0
M  V30 7 C -0.732 3.65373 2.2001 0
M  V30 8 S 0.101 5.13292 1.52614 0
M  V30 9 C 1.257 5.56322 2.86805 0
M  V30 10 H 1.49 2.90518 0.631377 0
M  V30 11 H -0.977 1.52953 0.210867 0
M  V30 12 H 0.981 2.67203 3.11629 0
M  V30 13 H -0.358 1.57376 2.7183 0
M  V30 14 H -1.165 3.90944 3.18086 0
M  V30 15 H -1.563 3.418 1.51819 0
M  V30 16 H 0.729 5.58782 3.83104 0
M  V30 17 H 1.672 6.56266 2.65933 0
M  V30 18 H 2.08 4.83886 2.90714 0
M  V30 19 N 1.4781 -0.272755 1.55222 0
M  V30 20 C 2.3881 -1.35918 1.91216 0
M  V30 21 C 3.4041 -1.54026 0.809436 0
M  V30 22 O 4.5801 -1.68148 1.10852 0
M  V30 23 C 1.6451 -2.69834 2.17693 0
M  V30 24 C 0.7061 -2.6047 3.41253 0
M  V30 25 C -0.0609 -3.88 3.66458 0
M  V30 26 O 0.1621 -4.88693 2.94169 0
M  V30 27 O -0.9039 -3.88189 4.59992 0
M  V30 28 H 2.9221 -1.0839 2.83699 0
M  V30 29 H 0.5071 -0.471301 1.41771 0
M  V30 30 H 2.3891 -3.49017 2.36147 0
M  V30 31 H 1.0641 -2.97148 1.28392 0
M  V30 32 H -0.0289 -1.79663 3.28134 0
M  V30 33 H 1.3041 -2.38106 4.30774 0
M  V30 34 N 2.9562 -1.48159 -0.537278 0
M  V30 35 C 4.3672 -1.49429 -1.11928 0
M  V30 36 C 4.7182 -0.26 -1.9447 0
M  V30 37 O 3.8432 0.633489 -2.0692 0
M  V30 38 C 4.4382 -2.70758 -2.03656 0
M  V30 39 C 2.9972 -2.74923 -2.57088 0
M  V30 40 C 2.1442 -2.42835 -1.3389 0
M  V30 41 H 5.0952 -1.55381 -0.322886 0
M  V30 42 H 5.1162 -2.48861 -2.87834 0
M  V30 43 H 4.6282 -3.60575 -1.43553 0
M  V30 44 H 2.7292 -1.89296 -3.20933 0
M  V30 45 H 2.8422 -3.76157 -2.9672 0
M  V30 46 H 1.2062 -1.93836 -1.65226 0
M  V30 47 H 1.9892 -3.34884 -0.755504 0
M  V30 48 N 4.4343 0.785586 -1.36625 0
M  V30 49 C 5.3643 1.91259 -1.33949 0
M  V30 50 C 6.3453 1.68795 -0.210325 0
M  V30 51 O 7.5303 1.89854 -0.408561 0
M  V30 52 C 4.6603 3.28339 -1.13186 0
M  V30 53 C 3.6143 3.65335 -2.22967 0
M  V30 54 C 2.9403 5.00806 -1.87342 0
M  V30 55 C 4.2403 3.7352 -3.65075 0
M  V30 56 H 5.9343 1.93755 -2.28253 0
M  V30 57 H 3.4803 0.930788 -1.09874 0
M  V30 58 H 5.4333 4.06804 -1.09948 0
M  V30 59 H 4.1573 3.2624 -0.153332 0
M  V30 60 H 2.8163 2.89169 -2.25337 0
M  V30 61 H 2.4643 4.95233 -0.880545 0
M  V30 62 H 2.1643 5.26529 -2.60846 0
M  V30 63 H 3.6883 5.81687 -1.85667 0
M  V30 64 H 5.1023 4.42168 -3.64911 0
M  V30 65 H 3.4993 4.10731 -4.37516 0
M  V30 66 H 4.5693 2.74527 -3.99703 0
M  V30 67 N 5.9124 1.20967 1.01018 0
M  V30 68 C 6.8754 0.965918 2.07853 0
M  V30 69 C 7.8754 -0.0610545 1.60684 0
M  V30 70 O 9.0654 0.175681 1.73312 0
M  V30 71 C 6.1974 0.455513 3.37843 0
M  V30 72 H 7.3904 1.91365 2.3091 0
M  V30 73 H 4.9434 1.02594 1.17916 0
M  V30 74 H 5.6784 -0.497381 3.20463 0
M  V30 75 H 5.4634 1.19622 3.73407 0
M  V30 76 H 6.9534 0.304667 4.16487 0
M  V30 77 N 7.3905 -1.2043 1.01659 0
M  V30 78 C 8.3535 -2.21433 0.591616 0
M  V30 79 C 9.3535 -1.57203 -0.338226 0
M  V30 80 O 10.5435 -1.73737 -0.126918 0
M  V30 81 C 7.6755 -3.40628 -0.136058 0
M  V30 82 H 8.8685 -2.60545 1.48514 0
M  V30 83 H 6.4215 -1.33893 0.806379 0
M  V30 84 H 7.1565 -3.07019 -1.04449 0
M  V30 85 H 6.9415 -3.88475 0.531917 0
M  V30 86 H 8.4315 -4.15475 -0.420735 0
M  V30 87 N 8.8686 -0.792821 -1.36206 0
M  V30 88 C 10.0986 -0.378275 -2.03107 0
M  V30 89 C 10.5066 1.01119 -1.59911 0
M  V30 90 O 9.8496 1.66052 -0.785658 0
M  V30 91 C 9.9116 -0.366535 -3.57627 0
M  V30 92 C 9.5756 -1.70416 -4.24037 0
M  V30 93 C 10.5726 -2.6602 -4.46687 0
M  V30 94 C 8.2576 -1.98439 -4.6144 0
M  V30 95 C 10.2516 -3.8784 -5.05825 0
M  V30 96 C 7.9386 -3.20525 -5.20295 0
M  V30 97 C 8.9366 -4.15044 -5.42427 0
M  V30 98 O 8.6246 -5.34978 -6.00045 0
M  V30 99 H 8.3566 -0.153543 -0.658332 0
M  V30 100 H 10.9106 -1.07383 -1.75094 0
M  V30 101 H 9.1406 0.385539 -3.84773 0
M  V30 102 H 10.8296 0.0238088 -4.05893 0
M  V30 103 H 11.5956 -2.45658 -4.18183 0
M  V30 104 H 7.4746 -1.25686 -4.43536 0
M  V30 105 H 11.0186 -4.61628 -5.23015 0
M  V30 106 H 6.9156 -3.40764 -5.48225 0
M  V30 107 H 7.6836 -5.36088 -6.18508 0
M  V30 108 N 10.3467 1.47872 -0.545128 0
M  V30 109 C 11.7577 1.86384 -0.108581 0
M  V30 110 C 12.1087 1.45309 1.31832 0
M  V30 111 O 11.2337 0.850641 1.9898 0
M  V30 112 C 11.8287 3.38265 -0.190274 0
M  V30 113 C 10.3877 3.75914 0.191164 0
M  V30 114 C 9.5347 2.71926 -0.543273 0
M  V30 115 H 12.4857 1.39561 -0.755537 0
M  V30 116 H 12.5067 3.75831 0.594217 0
M  V30 117 H 12.0187 3.6813 -1.2289 0
M  V30 118 H 10.1197 3.51665 1.23136 0
M  V30 119 H 10.2327 4.78836 -0.158987 0
M  V30 120 H 8.5967 2.54697 0.0122495 0
M  V30 121 H 9.3797 3.04634 -1.58282 0
M  V30 122 N 11.8248 0.280983 1.55075 0
M  V30 123 C 12.7548 -0.597469 2.25727 0
M  V30 124 C 13.7358 -1.15417 1.24952 0
M  V30 125 O 14.9208 -1.18722 1.53684 0
M  V30 126 C 12.0508 -1.7789 2.98283 0
M  V30 127 C 11.0048 -1.35347 4.06036 0
M  V30 128 C 10.3308 -2.61846 4.66198 0
M  V30 129 C 11.6308 -0.499354 5.19907 0
M  V30 130 H 13.3248 -0.00824265 2.99399 0
M  V30 131 H 10.8708 -0.0025244 1.44 0
M  V30 132 H 12.8238 -2.39937 3.46422 0
M  V30 133 H 11.5478 -2.39405 2.22155 0
M  V30 134 H 10.2068 -0.756156 3.58717 0
M  V30 135 H 9.8548 -3.21632 3.86732 0
M  V30 136 H 9.5548 -2.3409 5.38958 0
M  V30 137 H 11.0788 -3.24732 5.1709 0
M  V30 138 H 12.4928 -1.02498 5.64063 0
M  V30 139 H 10.8898 -0.316424 5.99265 0
M  V30 140 H 11.9598 0.480459 4.82514 0
M  V30 141 N 13.3029 -1.57598 0.00835791 0
M  V30 142 C 14.2499 -2.08945 -0.980346 0
M  V30 143 C 15.2199 -0.986738 -1.33614 0
M  V30 144 O 16.4049 -1.25968 -1.43306 0
M  V30 145 C 13.5449 -2.60425 -2.26435 0
M  V30 146 C 12.6579 -3.84628 -1.96685 0
M  V30 147 C 11.7929 -4.24579 -3.19228 0
M  V30 148 C 10.8319 -5.41596 -2.85202 0
M  V30 149 N 9.9689 -5.768 -4.00307 0
M  V30 150 H 14.8089 -2.93148 -0.535551 0
M  V30 151 H 12.3459 -1.44912 -0.252776 0
M  V30 152 H 14.3039 -2.88354 -3.01509 0
M  V30 153 H 12.9339 -1.79083 -2.68568 0
M  V30 154 H 11.9859 -3.63556 -1.11942 0
M  V30 155 H 13.2979 -4.69796 -1.67611 0
M  V30 156 H 12.4519 -4.53834 -4.02641 0
M  V30 157 H 11.1909 -3.38137 -3.51447 0
M  V30 158 H 10.1959 -5.12056 -2.00198 0
M  V30 159 H 11.4209 -6.29721 -2.54222 0
M  V30 160 H 9.3669 -4.93316 -4.32407 0
M  V30 161 H 9.2839 -6.5656 -3.74786 0
M  V30 162 H 10.5519 -6.10652 -4.84484 0
M  V30 163 N 14.781 0.264519 -1.55364 0
M  V30 164 C 16.021 1.00254 -1.78125 0
M  V30 165 C 16.385 1.83187 -0.575017 0
M  V30 166 O 17.586 2.60029 -0.681042 0
M  V30 167 C 15.857 1.85478 -3.05504 0
M  V30 168 S 17.416 2.6543 -3.49417 0
M  V30 169 H 14.234 0.337522 -0.625779 0
M  V30 170 H 16.836 0.272111 -1.93597 0
M  V30 171 H 15.54 1.23491 -3.9138 0
M  V30 172 H 15.071 2.62827 -2.92721 0
M  V30 173 H 17.086 3.87958 -3.09359 0
M  V30 174 N 16.2591 1.48442 0.529413 0
M  V30 175 C 17.4841 1.60406 1.31471 0
M  V30 176 C 17.9091 0.264738 1.86228 0
M  V30 177 O 17.2671 -0.763668 1.64432 0
M  V30 178 C 17.3151 2.65419 2.44101 0
M  V30 179 O 16.4191 2.22618 3.47153 0
M  V30 180 H 15.7601 0.537863 0.389357 0
M  V30 181 H 18.2901 1.94432 0.636965 0
M  V30 182 H 18.3001 2.86709 2.90279 0
M  V30 183 H 16.9751 3.62652 2.03608 0
M  V30 184 H 15.5521 2.11543 3.0709 0
M  V30 185 N 17.7372 -0.778329 1.37039 0
M  V30 186 C 18.9852 -1.53361 1.31623 0
M  V30 187 C 19.3062 -1.94739 -0.100831 0
M  V30 188 O 18.5762 -1.65797 -1.04347 0
M  V30 189 H 17.1562 -0.568794 0.484234 0
M  V30 190 H 19.8182 -0.926742 1.71457 0
M  V30 191 H 18.9142 -2.43606 1.95096 0
M  V30 192 N 19.2153 -1.21501 -1.00376 0
M  V30 193 C 20.6263 -1.03146 -1.55621 0
M  V30 194 C 20.9773 0.408375 -1.91903 0
M  V30 195 O 20.1023 1.29177 -1.73616 0
M  V30 196 C 20.6973 -1.86612 -2.82775 0
M  V30 197 C 19.2563 -1.72586 -3.34501 0
M  V30 198 C 18.4033 -1.83747 -2.07683 0
M  V30 199 H 21.3543 -1.35505 -0.826081 0
M  V30 200 H 21.3753 -1.3771 -3.54706 0
M  V30 201 H 20.8873 -2.91399 -2.56336 0
M  V30 202 H 18.9883 -0.704877 -3.65872 0
M  V30 203 H 19.1013 -2.54623 -4.05837 0
M  V30 204 H 17.4653 -1.27069 -2.20739 0
M  V30 205 H 18.2483 -2.90044 -1.83655 0
M  V30 206 N 20.6934 1.19889 -1.02296 0
M  V30 207 C 22.1094 1.41462 -0.738954 0
M  V30 208 C 22.3094 1.89721 0.678846 0
M  V30 209 O 21.3654 2.07016 1.4457 0
M  V30 210 C 22.6784 2.43083 -1.77005 0
M  V30 211 C 24.2264 2.5684 -1.78892 0
M  V30 212 C 24.7014 3.61709 -2.80945 0
M  V30 213 N 26.1924 3.69199 -2.79725 0
M  V30 214 C 26.9274 4.50019 -3.55345 0
M  V30 215 N 26.4234 5.34592 -4.40662 0
M  V30 216 N 28.2164 4.44612 -3.43914 0
M  V30 217 H 20.3674 0.868827 -1.93817 0
M  V30 218 H 22.6304 0.44399 -0.837602 0
M  V30 219 H 22.3364 2.14636 -2.78612 0
M  V30 220 H 22.2104 3.4217 -1.58744 0
M  V30 221 H 24.5974 2.84614 -0.779674 0
M  V30 222 H 24.6784 1.57927 -2.01228 0
M  V30 223 H 24.3224 3.34678 -3.82038 0
M  V30 224 H 24.2524 4.60259 -2.5587 0
M  V30 225 H 26.7434 3.08794 -2.17842 0
M  V30 226 H 27.0564 5.93363 -4.95116 0
M  V30 227 H 25.4014 5.34073 -4.44737 0
M  V30 228 H 28.5924 3.7758 -2.76679 0
M  V30 229 H 28.7654 5.0736 -4.031 0
M  V30 230 N 22.1715 0.800033 1.35784 0
M  V30 231 C 23.1345 0.211565 2.28221 0
M  V30 232 C 24.1345 -0.59728 1.49296 0
M  V30 233 O 25.3245 -0.416721 1.69142 0
M  V30 234 C 22.4565 -0.705846 3.33513 0
M  V30 235 H 23.6495 1.02677 2.81776 0
M  V30 236 H 21.2025 0.570211 1.45528 0
M  V30 237 H 21.9375 -1.54498 2.85133 0
M  V30 238 H 21.7225 -0.127655 3.91892 0
M  V30 239 H 23.2125 -1.11211 4.02519 0
M  V30 240 N 23.6496 -1.47581 0.552962 0
M  V30 241 C 24.5966 -2.29957 -0.197108 0
M  V30 242 C 25.5666 -1.38799 -0.912359 0
M  V30 243 O 26.7516 -1.67761 -0.908888 0
M  V30 244 C 23.8916 -3.22672 -1.22379 0
M  V30 245 C 23.0046 -4.28919 -0.515038 0
M  V30 246 C 22.1396 -5.0879 -1.52664 0
M  V30 247 C 21.1786 -6.06815 -0.802631 0
M  V30 248 N 20.3156 -6.7966 -1.76086 0
M  V30 249 H 25.1556 -2.93578 0.511486 0
M  V30 250 H 22.6926 -1.4471 0.264067 0
M  V30 251 H 24.6506 -3.74845 -1.83159 0
M  V30 252 H 23.2806 -2.60925 -1.90047 0
M  V30 253 H 22.3326 -3.79835 0.207192 0
M  V30 254 H 23.6446 -4.98773 0.0523425 0
M  V30 255 H 22.7986 -5.65091 -2.20809 0
M  V30 256 H 21.5376 -4.38828 -2.12794 0
M  V30 257 H 20.5426 -5.49695 -0.107238 0
M  V30 258 H 21.7676 -6.78784 -0.207135 0
M  V30 259 H 19.7136 -6.12432 -2.35081 0
M  V30 260 H 19.6306 -7.45669 -1.24552 0
M  V30 261 H 20.8986 -7.40538 -2.43359 0
M  V30 262 N 25.1277 -0.289203 -1.54924 0
M  V30 263 C 26.3737 0.323998 -2.00195 0
M  V30 264 C 26.7067 1.54441 -1.17735 0
M  V30 265 O 25.9817 1.92875 -0.250878 0
M  V30 266 C 26.2647 0.692276 -3.53383 0
M  V30 267 C 26.1177 -0.536457 -4.46589 0
M  V30 268 C 27.4367 1.52335 -4.12895 0
M  V30 269 H 24.5557 0.116289 -0.727768 0
M  V30 270 H 27.1977 -0.398954 -1.85764 0
M  V30 271 H 25.3477 1.30822 -3.65811 0
M  V30 272 H 27.0197 -1.17499 -4.46085 0
M  V30 273 H 25.2627 -1.17192 -4.1767 0
M  V30 274 H 25.9337 -0.234806 -5.515 0
M  V30 275 H 28.4097 1.00302 -4.0383 0
M  V30 276 H 27.2857 1.74982 -5.20262 0
M  V30 277 H 27.5467 2.50886 -3.64018 0
M  V30 278 N 26.6058 1.57591 -0.0167156 0
M  V30 279 C 27.8528 1.91283 0.664597 0
M  V30 280 C 28.1808 0.891949 1.72842 0
M  V30 281 O 27.4358 -0.100931 1.9544 0
M  V30 282 C 27.7348 3.3172 1.33029 0
M  V30 283 C 27.4008 4.4914 0.398047 0
M  V30 284 C 26.0628 4.80992 0.141421 0
M  V30 285 C 28.4148 5.20634 -0.242825 0
M  V30 286 C 25.7428 5.81703 -0.764092 0
M  V30 287 C 28.0948 6.22311 -1.13632 0
M  V30 288 C 26.7588 6.52611 -1.40196 0
M  V30 289 H 26.0288 0.699956 0.243193 0
M  V30 290 H 28.6758 1.9135 -0.0758267 0
M  V30 291 H 26.9808 3.27856 2.14517 0
M  V30 292 H 28.6778 3.55055 1.86379 0
M  V30 293 H 25.2678 4.24262 0.608238 0
M  V30 294 H 29.4518 4.96267 -0.0576019 0
M  V30 295 H 24.7078 6.03532 -0.977732 0
M  V30 296 H 28.8818 6.76834 -1.63917 0
M  V30 297 H 26.5088 7.30467 -2.10529 0
M  V30 298 N 28.0839 -0.256276 1.55502 0
M  V30 299 C 29.0469 -1.30047 1.88734 0
M  V30 300 C 30.0469 -1.4154 0.763086 0
M  V30 301 O 31.2369 -1.40403 1.03115 0
M  V30 302 C 28.3689 -2.67953 2.10747 0
M  V30 303 H 29.5619 -1.01802 2.82093 0
M  V30 304 H 27.1149 -0.495134 1.4825 0
M  V30 305 H 27.8499 -3.01351 1.19825 0
M  V30 306 H 27.6349 -2.60993 2.92617 0
M  V30 307 H 29.1249 -3.43368 2.37673 0
M  V30 308 N 29.562 -1.4872 -0.521534 0
M  V30 309 C 30.808 -1.574 -1.27879 0
M  V30 310 C 31.141 -0.250817 -1.92573 0
M  V30 311 O 30.416 0.743934 -1.79711 0
M  V30 312 C 30.699 -2.71843 -2.36164 0
M  V30 313 C 30.552 -4.13893 -1.76105 0
M  V30 314 C 31.871 -2.82008 -3.37875 0
M  V30 315 H 28.99 -0.572941 -0.463581 0
M  V30 316 H 31.632 -1.80927 -0.580119 0
M  V30 317 H 29.782 -2.51914 -2.95756 0
M  V30 318 H 31.454 -4.45284 -1.20499 0
M  V30 319 H 29.697 -4.20498 -1.06601 0
M  V30 320 H 30.368 -4.89804 -2.5455 0
M  V30 321 H 32.844 -3.00086 -2.88249 0
M  V30 322 H 31.72 -3.63796 -4.11028 0
M  V30 323 H 31.981 -1.90511 -3.98946 0
M  V30 324 N 31.0401 0.771051 -1.3745 0
M  V30 325 C 31.9701 1.89827 -1.3597 0
M  V30 326 C 32.9511 1.68562 -0.228216 0
M  V30 327 O 34.1361 1.8941 -0.428675 0
M  V30 328 C 31.2661 3.2712 -1.16662 0
M  V30 329 C 30.2201 3.6295 -2.2683 0
M  V30 330 C 29.5461 4.98791 -1.92644 0
M  V30 331 C 30.8461 3.69627 -3.69017 0
M  V30 332 H 32.5401 1.91323 -2.30295 0
M  V30 333 H 30.0861 0.919082 -1.10855 0
M  V30 334 H 32.0391 4.05615 -1.14256 0
M  V30 335 H 30.7631 3.26059 -0.187926 0
M  V30 336 H 29.4221 2.86763 -2.28392 0
M  V30 337 H 29.0701 4.94271 -0.933021 0
M  V30 338 H 28.7701 5.23733 -2.66416 0
M  V30 339 H 30.2941 5.79685 -1.91826 0
M  V30 340 H 31.7081 4.38273 -3.69581 0
M  V30 341 H 30.1051 4.06067 -4.41848 0
M  V30 342 H 31.1751 2.70273 -4.02592 0
M  V30 343 N 32.5182 1.22032 0.997298 0
M  V30 344 C 33.4482 1.01065 2.10495 0
M  V30 345 C 34.4292 -0.0669542 1.69968 0
M  V30 346 O 35.6142 0.0943987 1.9397 0
M  V30 347 C 32.7442 0.582874 3.42374 0
M  V30 348 C 31.6982 1.60592 3.96729 0
M  V30 349 C 31.0242 1.03412 5.24605 0
M  V30 350 C 32.3242 2.99478 4.27914 0
M  V30 351 H 34.0182 1.93708 2.28292 0
M  V30 352 H 31.5642 0.932761 1.09707 0
M  V30 353 H 33.5172 0.423332 4.19268 0
M  V30 354 H 32.2412 -0.379213 3.24391 0
M  V30 355 H 30.9002 1.75316 3.21963 0
M  V30 356 H 30.5482 0.063518 5.0296 0
M  V30 357 H 30.2482 1.71754 5.61938 0
M  V30 358 H 31.7722 0.886066 6.04137 0
M  V30 359 H 33.1862 2.88153 4.95622 0
M  V30 360 H 31.5832 3.64903 4.76409 0
M  V30 361 H 32.6532 3.49742 3.3587 0
M  V30 362 N 33.9963 -1.19345 1.0293 0
M  V30 363 C 35.2213 -1.93538 0.745511 0
M  V30 364 C 35.6463 -1.75007 -0.689511 0
M  V30 365 O 35.0043 -1.05265 -1.47611 0
M  V30 366 C 35.0523 -3.43336 1.10239 0
M  V30 367 O 34.1563 -4.11806 0.221289 0
M  V30 368 H 33.4973 -0.604193 0.275404 0
M  V30 369 H 36.0273 -1.5141 1.37609 0
M  V30 370 H 36.0373 -3.94004 1.05947 0
M  V30 371 H 34.7123 -3.56146 2.14786 0
M  V30 372 H 33.2893 -3.715 0.322842 0
M  V30 373 N 35.4744 -0.807222 -1.35358 0
M  V30 374 C 36.7234 -0.384376 -1.98004 0
M  V30 375 C 37.0364 1.0543 -1.64754 0
M  V30 376 O 38.2424 1.58029 -2.20769 0
M  V30 377 C 36.6984 -0.636326 -3.5423 0
M  V30 378 C 36.3064 -2.08759 -3.96388 0
M  V30 379 C 38.0504 -0.278869 -4.23583 0
M  V30 380 C 35.9574 -2.28525 -5.45463 0
M  V30 381 H 34.8874 -0.139986 -0.740891 0
M  V30 382 H 37.5384 -0.991369 -1.54415 0
M  V30 383 H 35.9204 0.0406256 -3.95979 0
M  V30 384 H 37.0944 -2.8024 -3.6579 0
M  V30 385 H 35.4094 -2.40497 -3.39926 0
M  V30 386 H 38.0064 -0.404599 -5.33167 0
M  V30 387 H 38.3494 0.775012 -4.09022 0
M  V30 388 H 38.8824 -0.909764 -3.87257 0
M  V30 389 H 35.6214 -3.32361 -5.64992 0
M  V30 390 H 35.1414 -1.61569 -5.77629 0
M  V30 391 H 36.8204 -2.10109 -6.11934 0
M  V30 392 N 36.9525 1.47285 -0.560781 0
M  V30 393 C 38.1985 2.02764 -0.0381184 0
M  V30 394 C 38.5315 1.43384 1.30976 0
M  V30 395 O 37.8065 0.590733 1.85312 0
M  V30 396 C 38.0895 3.60064 0.0511427 0
M  V30 397 C 37.9425 4.2987 -1.32408 0
M  V30 398 C 39.2615 4.33439 0.762795 0
M  V30 399 H 36.3805 0.736841 -0.0153264 0
M  V30 400 H 39.0225 1.75675 -0.723759 0
M  V30 401 H 37.1725 3.83274 0.635065 0
M  V30 402 H 38.8445 4.17989 -1.95148 0
M  V30 403 H 37.0875 3.90085 -1.8978 0
M  V30 404 H 37.7585 5.38478 -1.21431 0
M  V30 405 H 40.2345 4.15243 0.266965 0
M  V30 406 H 39.1105 5.43124 0.794221 0
M  V30 407 H 39.3715 4.02915 1.81966 0
M  V30 408 N 38.4306 0.297415 1.54768 0
M  V30 409 C 39.3606 -0.573494 2.26348 0
M  V30 410 C 40.3416 -1.14085 1.26169 0
M  V30 411 O 41.5266 -1.17086 1.54934 0
M  V30 412 C 38.6566 -1.74716 3.00153 0
M  V30 413 C 37.6106 -1.31032 4.07449 0
M  V30 414 C 36.9366 -2.56887 4.68949 0
M  V30 415 C 38.2366 -0.444183 5.20408 0
M  V30 416 H 39.9306 0.0235131 2.99391 0
M  V30 417 H 37.4766 0.0127488 1.43994 0
M  V30 418 H 39.4296 -2.3625 3.48947 0
M  V30 419 H 38.1536 -2.37035 2.24682 0
M  V30 420 H 36.8126 -0.718066 3.59499 0
M  V30 421 H 36.4606 -3.17512 3.90122 0
M  V30 422 H 36.1606 -2.2836 5.41411 0
M  V30 423 H 37.6846 -3.19229 5.20505 0
M  V30 424 H 39.0986 -0.9651 5.65118 0
M  V30 425 H 37.4956 -0.252846 5.99567 0
M  V30 426 H 38.5656 0.531609 4.81977 0
M  V30 427 N 39.9087 -1.5758 0.0250728 0
M  V30 428 C 41.1487 -1.93497 -0.65865 0
M  V30 429 C 41.5127 -0.901409 -1.69525 0
M  V30 430 O 42.7137 -1.14664 -2.43116 0
M  V30 431 C 40.9847 -3.34352 -1.26267 0
M  V30 432 S 42.5437 -3.92191 -1.96803 0
M  V30 433 H 39.3617 -0.67709 -0.216958 0
M  V30 434 H 41.9637 -1.95303 0.0877692 0
M  V30 435 H 40.6677 -4.07395 -0.495741 0
M  V30 436 H 40.1987 -3.3598 -2.04648 0
M  V30 437 H 42.2137 -3.75298 -3.24601 0
M  V30 438 N 41.3868 0.248026 -1.55636 0
M  V30 439 C 42.6148 0.993808 -1.81469 0
M  V30 440 C 43.0298 1.78991 -0.60064 0
M  V30 441 O 42.3868 1.77345 0.430682 0
M  V30 442 C 42.4378 1.93258 -3.05506 0
M  V30 443 O 42.1588 1.16869 -4.22224 0
M  V30 444 C 43.6598 2.79444 -3.4413 0
M  V30 445 H 40.8798 0.292486 -0.603898 0
M  V30 446 H 43.4238 0.271253 -2.02693 0
M  V30 447 H 41.5788 2.60943 -2.86335 0
M  V30 448 H 41.9928 1.80359 -4.92515 0
M  V30 449 H 43.4668 3.41066 -4.34026 0
M  V30 450 H 43.9438 3.50499 -2.64665 0
M  V30 451 H 44.5498 2.17214 -3.65648 0
M  V30 452 N 42.8649 1.48995 0.513639 0
M  V30 453 C 44.1109 1.58076 1.27042 0
M  V30 454 C 44.4439 0.261026 1.92438 0
M  V30 455 O 43.7189 -0.734393 1.80103 0
M  V30 456 C 44.0019 2.73091 2.34719 0
M  V30 457 C 43.8549 4.14821 1.73907 0
M  V30 458 C 45.1739 2.83796 3.36375 0
M  V30 459 H 42.2929 0.575391 0.460536 0
M  V30 460 H 44.9349 1.81232 0.570516 0
M  V30 461 H 43.0849 2.53479 2.94416 0
M  V30 462 H 44.7569 4.45917 1.18135 0
M  V30 463 H 42.9999 4.21058 1.0437 0
M  V30 464 H 43.6709 4.91147 2.51949 0
M  V30 465 H 46.1469 3.01611 2.86653 0
M  V30 466 H 45.0229 3.65971 4.09093 0
M  V30 467 H 45.2839 1.92624 3.9793 0
M  V30 468 N 44.343 -0.763751 1.37857 0
M  V30 469 C 45.571 -1.55293 1.36718 0
M  V30 470 C 45.986 -1.88745 -0.0455434 0
M  V30 471 O 45.343 -1.52039 -1.00947 0
M  V30 472 C 45.394 -2.85831 2.2132 0
M  V30 473 O 45.115 -2.5381 3.57089 0
M  V30 474 C 46.616 -3.80023 2.28249 0
M  V30 475 H 43.836 -0.480841 0.468009 0
M  V30 476 H 46.38 -0.946009 1.81303 0
M  V30 477 H 44.535 -3.42926 1.80223 0
M  V30 478 H 44.949 -3.37459 4.01524 0
M  V30 479 H 46.423 -4.68599 2.91752 0
M  V30 480 H 46.9 -4.1973 1.2932 0
M  V30 481 H 47.506 -3.28855 2.69693 0
M  V30 482 N 45.8211 -1.22559 -0.990812 0
M  V30 483 C 46.7511 -1.0218 -2.09956 0
M  V30 484 C 47.7321 0.0579394 -1.70001 0
M  V30 485 O 48.9171 -0.104684 -1.93918 0
M  V30 486 C 46.0471 -0.601023 -3.4206 0
M  V30 487 C 45.0011 -1.62694 -3.95872 0
M  V30 488 C 44.3271 -1.06193 -5.24049 0
M  V30 489 C 45.6271 -3.01743 -4.2632 0
M  V30 490 H 47.3211 -1.94916 -2.27262 0
M  V30 491 H 44.8671 -0.938566 -1.09211 0
M  V30 492 H 46.8201 -0.445561 -4.19038 0
M  V30 493 H 45.5441 0.362005 -3.24588 0
M  V30 494 H 44.2031 -1.77021 -3.21028 0
M  V30 495 H 43.8511 -0.0901903 -5.02919 0
M  V30 496 H 43.5511 -1.74732 -5.61019 0
M  V30 497 H 45.0751 -0.918092 -6.03658 0
M  V30 498 H 46.4891 -2.90777 -4.94087 0
M  V30 499 H 44.8861 -3.67425 -4.74467 0
M  V30 500 H 45.9561 -3.51518 -3.34011 0
M  V30 501 N 47.2992 1.18797 -1.03562 0
M  V30 502 C 48.5462 1.8865 -0.736023 0
M  V30 503 C 48.8742 1.80041 0.735889 0
M  V30 504 O 48.1292 1.19179 1.55225 0
M  V30 505 C 48.4282 3.38692 -1.14117 0
M  V30 506 C 48.0942 3.67504 -2.6125 0
M  V30 507 C 46.7562 3.75078 -3.01447 0
M  V30 508 C 49.1082 3.80293 -3.56408 0
M  V30 509 C 46.4362 3.92915 -4.35701 0
M  V30 510 C 48.7882 3.99645 -4.90374 0
M  V30 511 C 47.4522 4.05453 -5.30249 0
M  V30 512 H 46.7222 0.690321 -0.26933 0
M  V30 513 H 49.3692 1.40641 -1.29971 0
M  V30 514 H 47.6742 3.88645 -0.496202 0
M  V30 515 H 49.3712 3.91072 -0.886789 0
M  V30 516 H 45.9612 3.62223 -2.29113 0
M  V30 517 H 50.1452 3.73779 -3.26501 0
M  V30 518 H 45.4012 3.95653 -4.66121 0
M  V30 519 H 49.5752 4.08482 -5.64017 0
M  V30 520 H 47.2022 4.19027 -6.34288 0
M  V30 521 N 48.7773 0.814389 1.34928 0
M  V30 522 C 49.7073 0.244827 2.32213 0
M  V30 523 C 50.6883 -0.634024 1.57842 0
M  V30 524 O 51.8733 -0.562676 1.8587 0
M  V30 525 C 49.0033 -0.601106 3.42058 0
M  V30 526 C 47.9573 0.179896 4.27622 0
M  V30 527 C 47.2833 -0.788237 5.28858 0
M  V30 528 C 48.5833 1.38329 5.03649 0
M  V30 529 H 50.2773 1.05763 2.80097 0
M  V30 530 H 47.8233 0.510029 1.34665 0
M  V30 531 H 49.7763 -1.00968 4.09125 0
M  V30 532 H 48.5003 -1.44688 2.92802 0
M  V30 533 H 47.1593 0.569739 3.62146 0
M  V30 534 H 46.8073 -1.62973 4.75866 0
M  V30 535 H 46.5073 -0.269942 5.8698 0
M  V30 536 H 48.0313 -1.19485 5.98795 0
M  V30 537 H 49.4453 1.04918 5.63618 0
M  V30 538 H 47.8423 1.83662 5.71304 0
M  V30 539 H 48.9123 2.16592 4.33839 0
M  V30 540 N 50.2554 -1.46986 0.568584 0
M  V30 541 C 51.1854 -2.32946 -0.160753 0
M  V30 542 C 52.1664 -1.44487 -0.897631 0
M  V30 543 O 53.3514 -1.73327 -0.875867 0
M  V30 544 C 50.4814 -3.26494 -1.18403 0
M  V30 545 C 49.4354 -4.24282 -0.562895 0
M  V30 546 C 48.7614 -5.07236 -1.69163 0
M  V30 547 C 50.0614 -5.19989 0.490761 0
M  V30 548 H 51.7554 -2.94175 0.556916 0
M  V30 549 H 49.3014 -1.4146 0.26927 0
M  V30 550 H 51.2544 -3.85477 -1.70251 0
M  V30 551 H 49.9784 -2.63343 -1.93179 0
M  V30 552 H 48.6374 -3.66541 -0.0656164 0
M  V30 553 H 48.2854 -4.4048 -2.42871 0
M  V30 554 H 47.9854 -5.7345 -1.28174 0
M  V30 555 H 49.5094 -5.6908 -2.21314 0
M  V30 556 H 50.9234 -5.73271 0.0579047 0
M  V30 557 H 49.3204 -5.94469 0.820165 0
M  V30 558 H 50.3904 -4.64777 1.3824 0
M  V30 559 N 51.7335 -0.305618 -1.54608 0
M  V30 560 C 52.6655 0.602161 -2.21149 0
M  V30 561 C 53.6785 1.09394 -1.20569 0
M  V30 562 O 54.8675 1.0106 -1.47136 0
M  V30 563 C 51.9675 1.83692 -2.84799 0
M  V30 564 C 51.1405 1.48686 -4.11353 0
M  V30 565 C 50.1995 2.57725 -4.58764 0
M  V30 566 O 49.2255 2.22623 -5.23858 0
M  V30 567 N 50.4275 3.88346 -4.31471 0
M  V30 568 H 53.1925 0.0324966 -2.99682 0
M  V30 569 H 50.7535 -0.128021 -1.61393 0
M  V30 570 H 52.7455 2.55994 -3.13448 0
M  V30 571 H 51.3155 2.31486 -2.10078 0
M  V30 572 H 50.5355 0.596269 -3.89664 0
M  V30 573 H 51.8235 1.22842 -4.93748 0
M  V30 574 H 51.2215 4.19671 -3.79331 0
M  V30 575 H 49.7785 4.56932 -4.64818 0
M  V30 576 N 53.2116 1.57565 -0.0334293 0
M  V30 577 C 54.1416 2.13511 0.945265 0
M  V30 578 C 55.1226 1.05231 1.33643 0
M  V30 579 O 56.3076 1.33084 1.41429 0
M  V30 580 C 53.4376 2.6657 2.22616 0
M  V30 581 C 52.3916 3.79676 1.97561 0
M  V30 582 C 51.7176 4.1918 3.31952 0
M  V30 583 C 53.0176 5.0557 1.31135 0
M  V30 584 H 54.7116 2.95538 0.479325 0
M  V30 585 H 52.2576 1.42166 0.229115 0
M  V30 586 H 54.2106 3.04344 2.91466 0
M  V30 587 H 52.9346 1.8171 2.71384 0
M  V30 588 H 51.5936 3.42347 1.31127 0
M  V30 589 H 51.2416 3.31296 3.78487 0
M  V30 590 H 50.9416 4.95402 3.15992 0
M  V30 591 H 52.4656 4.59541 4.02063 0
M  V30 592 H 53.8796 5.40903 1.89992 0
M  V30 593 H 52.2766 5.86818 1.25559 0
M  V30 594 H 53.3466 4.84062 0.284894 0
M  V30 595 N 54.6897 -0.239769 1.55765 0
M  V30 596 C 55.6367 -1.29696 1.90913 0
M  V30 597 C 56.6067 -1.47478 0.764164 0
M  V30 598 O 57.7917 -1.61345 1.01845 0
M  V30 599 C 54.9317 -2.64598 2.21544 0
M  V30 600 C 54.0447 -2.54765 3.48882 0
M  V30 601 C 53.1797 -3.82069 3.69049 0
M  V30 602 C 52.2187 -3.66883 4.89963 0
M  V30 603 N 51.3557 -4.86094 5.06614 0
M  V30 604 H 56.1957 -0.990224 2.81067 0
M  V30 605 H 53.7327 -0.477684 1.39128 0
M  V30 606 H 55.6907 -3.43132 2.3731 0
M  V30 607 H 54.3207 -2.93405 1.34585 0
M  V30 608 H 53.3727 -1.67763 3.41409 0
M  V30 609 H 54.6847 -2.39457 4.37563 0
M  V30 610 H 53.8387 -4.69046 3.84812 0
M  V30 611 H 52.5777 -4.00282 2.78614 0
M  V30 612 H 51.5827 -2.78289 4.74168 0
M  V30 613 H 52.8077 -3.50157 5.81865 0
M  V30 614 H 50.7537 -5.04655 4.19117 0
M  V30 615 H 50.6707 -4.73443 5.89396 0
M  V30 616 H 51.9387 -5.74549 5.26795 0
M  V30 617 N 56.1678 -1.49265 -0.50573 0
M  V30 618 C 57.4148 -1.58513 -1.26015 0
M  V30 619 C 57.7428 -0.26972 -1.92621 0
M  V30 620 O 56.9978 0.741997 -1.81088 0
M  V30 621 C 57.2968 -2.69008 -2.35308 0
M  V30 622 C 56.9628 -4.10662 -1.86192 0
M  V30 623 C 55.6248 -4.49212 -1.72516 0
M  V30 624 C 57.9768 -4.99336 -1.49375 0
M  V30 625 C 55.3048 -5.74214 -1.20394 0
M  V30 626 C 57.6568 -6.24852 -0.987072 0
M  V30 627 C 56.3208 -6.62236 -0.836669 0
M  V30 628 H 55.5908 -0.580041 -0.461122 0
M  V30 629 H 58.2378 -1.83078 -0.561665 0
M  V30 630 H 56.5428 -2.38396 -3.10926 0
M  V30 631 H 58.2398 -2.73373 -2.93374 0
M  V30 632 H 54.8298 -3.8023 -1.97795 0
M  V30 633 H 59.0138 -4.70212 -1.5879 0
M  V30 634 H 54.2698 -6.01883 -1.07458 0
M  V30 635 H 58.4438 -6.92944 -0.692983 0
M  V30 636 H 56.0708 -7.58979 -0.430607 0
M  V30 637 N 57.6459 0.756429 -1.3826 0
M  V30 638 C 58.5759 1.88374 -1.37976 0
M  V30 639 C 59.5569 1.68311 -0.246082 0
M  V30 640 O 60.7419 1.88944 -0.44874 0
M  V30 641 C 57.8719 3.25864 -1.20125 0
M  V30 642 C 56.8259 3.60523 -2.30666 0
M  V30 643 C 56.1519 4.9672 -1.97923 0
M  V30 644 C 57.4519 3.65692 -3.72916 0
M  V30 645 H 59.1459 1.88869 -2.32312 0
M  V30 646 H 56.6919 0.907272 -1.11824 0
M  V30 647 H 58.6449 4.0438 -1.18552 0
M  V30 648 H 57.3689 3.25841 -0.222498 0
M  V30 649 H 56.0279 2.84324 -2.3142 0
M  V30 650 H 55.6759 4.93253 -0.985393 0
M  V30 651 H 55.3759 5.20878 -2.71955 0
M  V30 652 H 56.8999 5.77618 -1.97964 0
M  V30 653 H 58.3139 4.34328 -3.74208 0
M  V30 654 H 56.7109 4.01358 -4.4613 0
M  V30 655 H 57.7809 2.65987 -4.05436 0
M  V30 656 N 59.124 1.23083 0.984299 0
M  V30 657 C 60.071 1.00854 2.07598 0
M  V30 658 C 61.041 -0.0726709 1.65941 0
M  V30 659 O 62.226 0.0786535 1.90638 0
M  V30 660 C 59.366 0.601645 3.39815 0
M  V30 661 C 58.479 1.75456 3.94765 0
M  V30 662 C 57.614 1.29482 5.15177 0
M  V30 663 C 56.653 2.41873 5.62284 0
M  V30 664 N 55.79 1.96885 6.73929 0
M  V30 665 H 60.63 1.943 2.25946 0
M  V30 666 H 58.167 0.968001 1.10762 0
M  V30 667 H 60.125 0.346854 4.15756 0
M  V30 668 H 58.755 -0.295803 3.21442 0
M  V30 669 H 57.807 2.12346 3.15616 0
M  V30 670 H 59.119 2.59965 4.25699 0
M  V30 671 H 58.273 0.997923 5.98437 0
M  V30 672 H 57.012 0.420046 4.85888 0
M  V30 673 H 56.017 2.72342 4.77608 0
M  V30 674 H 57.242 3.29881 5.93595 0
M  V30 675 H 55.188 1.11782 6.46406 0
M  V30 676 H 55.105 2.74956 7.04227 0
M  V30 677 H 56.373 1.70289 7.60672 0
M  V30 678 N 60.6021 -1.18246 1.0419 0
M  V30 679 C 62.0131 -1.69914 0.773698 0
M  V30 680 C 62.3641 -1.83085 -0.705297 0
M  V30 681 O 61.4891 -1.51123 -1.5489 0
M  V30 682 C 62.0841 -3.08619 1.39784 0
M  V30 683 C 60.6431 -3.57494 1.17792 0
M  V30 684 C 59.7901 -2.34013 1.48773 0
M  V30 685 H 62.7411 -1.02904 1.20816 0
M  V30 686 H 62.7621 -3.71958 0.801714 0
M  V30 687 H 62.2741 -2.99001 2.47426 0
M  V30 688 H 60.3751 -3.72406 0.120295 0
M  V30 689 H 60.4881 -4.40852 1.87581 0
M  V30 690 H 58.8521 -2.37986 0.907463 0
M  V30 691 H 59.6351 -2.27013 2.57527 0
M  V30 692 N 62.0802 -0.821533 -1.34494 0
M  V30 693 C 63.0272 -0.240397 -2.29545 0
M  V30 694 C 63.9972 0.634031 -1.53523 0
M  V30 695 O 65.1822 0.575966 -1.81899 0
M  V30 696 C 62.3222 0.592869 -3.39969 0
M  V30 697 C 61.4352 -0.30365 -4.30932 0
M  V30 698 C 60.5702 0.539049 -5.28458 0
M  V30 699 C 59.6092 -0.356942 -6.11058 0
M  V30 700 N 58.7462 0.446603 -7.00678 0
M  V30 701 H 63.5862 -1.05632 -2.7865 0
M  V30 702 H 61.1232 -0.532413 -1.37127 0
M  V30 703 H 63.0812 1.09129 -4.02675 0
M  V30 704 H 61.7112 1.37392 -2.92102 0
M  V30 705 H 60.7632 -0.920276 -3.691 0
M  V30 706 H 62.0752 -0.992661 -4.88823 0
M  V30 707 H 61.2292 1.102 -5.96608 0
M  V30 708 H 59.9682 1.26157 -4.71101 0
M  V30 709 H 58.9732 -0.932047 -5.41842 0
M  V30 710 H 60.1982 -1.07755 -6.70497 0
M  V30 711 H 58.1442 1.15282 -6.45791 0
M  V30 712 H 58.0612 -0.184048 -7.55776 0
M  V30 713 H 59.3292 0.992352 -7.73158 0
M  V30 714 N 63.5583 1.46682 -0.576371 0
M  V30 715 C 64.8073 2.01619 -0.0572825 0
M  V30 716 C 65.1203 1.45417 1.30818 0
M  V30 717 O 66.3263 1.92133 1.91825 0
M  V30 718 C 64.7823 3.59863 -0.0518371 0
M  V30 719 C 64.3903 4.25059 -1.41523 0
M  V30 720 C 66.1343 4.2248 0.413639 0
M  V30 721 C 64.0413 5.75364 -1.36785 0
M  V30 722 H 62.9713 0.753794 -0.0176448 0
M  V30 723 H 65.6223 1.68481 -0.727076 0
M  V30 724 H 64.0043 3.90048 0.683994 0
M  V30 725 H 65.1783 4.06491 -2.17029 0
M  V30 726 H 63.4933 3.7451 -1.8202 0
M  V30 727 H 66.0903 5.3265 0.467779 0
M  V30 728 H 66.4333 3.90976 1.42982 0
M  V30 729 H 66.9663 3.96897 -0.267929 0
M  V30 730 H 63.7053 6.11518 -2.36063 0
M  V30 731 H 63.2253 5.96214 -0.654895 0
M  V30 732 H 64.9043 6.37955 -1.07805 0
M  V30 733 N 65.0364 0.313813 1.54444 0
M  V30 734 C 65.9844 -0.572171 2.25453 0
M  V30 735 C 66.9784 -1.12657 1.2651 0
M  V30 736 O 68.1844 -1.07573 1.44319 0
M  V30 737 H 64.5594 -0.203146 0.724041 0
M  V30 738 H 66.5304 0.0491145 2.9836 0
M  V30 739 C 65.2794 -1.72626 3.0182 0
M  V30 740 H 64.6024 -1.30891 3.77767 0
M  V30 741 H 66.0424 -2.32199 3.54767 0
M  V30 742 C 64.5014 -2.63806 2.09542 0
M  V30 743 O 65.0314 -3.65256 1.67185 0
M  V30 744 N 63.2374 -2.31824 1.75232 0
M  V30 745 H 62.7844 -1.49368 2.09873 0
M  V30 746 H 62.7424 -2.93095 1.13767 0
M  V30 747 N 66.5145 -1.57545 0.0417849 0
M  V30 748 C 67.7395 -1.97035 -0.647455 0
M  V30 749 C 68.1645 -0.918775 -1.64135 0
M  V30 750 O 67.5225 0.119006 -1.80909 0
M  V30 751 C 67.5705 -3.35609 -1.31905 0
M  V30 752 O 66.6745 -3.3287 -2.43457 0
M  V30 753 H 66.0155 -0.64211 -0.169086 0
M  V30 754 H 68.5455 -2.04318 0.107399 0
M  V30 755 H 68.5555 -3.72126 -1.67291 0
M  V30 756 H 67.2305 -4.11685 -0.590586 0
M  V30 757 H 65.8075 -3.08087 -2.10088 0
M  V30 758 N 67.9926 0.231505 -1.5589 0
M  V30 759 C 69.2396 0.957352 -1.78441 0
M  V30 760 C 69.5676 1.84726 -0.60882 0
M  V30 761 O 68.8226 1.91416 0.40725 0
M  V30 762 C 69.1216 1.83577 -3.0665 0
M  V30 763 C 68.7876 1.09993 -4.37278 0
M  V30 764 C 67.4496 0.896629 -4.72773 0
M  V30 765 C 69.8016 0.579558 -5.17968 0
M  V30 766 C 67.1296 0.160896 -5.86479 0
M  V30 767 C 69.4816 -0.142783 -6.32439 0
M  V30 768 C 68.1456 -0.357427 -6.66542 0
M  V30 769 H 67.4156 0.35032 -0.65296 0
M  V30 770 H 70.0626 0.226259 -1.90159 0
M  V30 771 H 68.3676 2.63441 -2.90011 0
M  V30 772 H 70.0646 2.39934 -3.21298 0
M  V30 773 H 66.6546 1.26835 -4.09403 0
M  V30 774 H 70.8386 0.724125 -4.90989 0
M  V30 775 H 66.0946 -0.0157293 -6.11398 0
M  V30 776 H 70.2686 -0.553559 -6.94196 0
M  V30 777 H 67.8956 -0.929466 -7.54497 0
M  V30 778 N 69.4707 1.49531 0.497807 0
M  V30 779 C 70.7007 1.62657 1.27382 0
M  V30 780 C 71.1087 0.298488 1.86831 0
M  V30 781 O 70.4517 -0.72647 1.68725 0
M  V30 782 C 70.5137 2.6393 2.44093 0
M  V30 783 C 70.1777 4.08195 2.05489 0
M  V30 784 C 71.1747 4.949 1.59279 0
M  V30 785 C 68.8597 4.53948 2.15026 0
M  V30 786 C 70.8537 6.25397 1.23113 0
M  V30 787 C 68.5407 5.84458 1.78473 0
M  V30 788 C 69.5387 6.70006 1.32591 0
M  V30 789 O 69.2267 7.98083 0.965327 0
M  V30 790 H 68.9587 0.550429 0.392434 0
M  V30 791 H 71.5127 1.96325 0.603801 0
M  V30 792 H 69.7427 2.25449 3.14181 0
M  V30 793 H 71.4317 2.66552 3.06113 0
M  V30 794 H 72.1977 4.60779 1.51354 0
M  V30 795 H 68.0767 3.87525 2.4969 0
M  V30 796 H 71.6207 6.92125 0.872299 0
M  V30 797 H 67.5177 6.18107 1.86048 0
M  V30 798 H 68.2857 8.11122 1.09652 0
M  V30 799 N 70.9488 -0.749086 1.3866 0
M  V30 800 C 71.9118 -1.84457 1.36045 0
M  V30 801 C 72.9118 -1.58682 0.260122 0
M  V30 802 O 74.1018 -1.66343 0.517261 0
M  V30 803 C 71.2338 -3.22008 1.11911 0
M  V30 804 H 72.4268 -1.88182 2.33512 0
M  V30 805 H 69.9798 -0.951266 1.24019 0
M  V30 806 H 70.7148 -3.2395 0.150686 0
M  V30 807 H 70.4998 -3.42111 1.91579 0
M  V30 808 H 71.9898 -4.0208 1.12788 0
M  V30 809 N 72.4269 -1.23603 -0.977757 0
M  V30 810 C 73.6739 -1.06971 -1.71941 0
M  V30 811 C 74.0019 0.393009 -1.90488 0
M  V30 812 O 73.2569 1.30719 -1.4564 0
M  V30 813 C 73.5559 -1.7433 -3.11999 0
M  V30 814 C 73.2219 -3.24252 -3.13323 0
M  V30 815 C 71.8839 -3.65156 -3.13392 0
M  V30 816 C 74.2359 -4.20141 -3.08433 0
M  V30 817 C 71.5639 -5.00403 -3.0629 0
M  V30 818 C 73.9159 -5.55384 -3.02873 0
M  V30 819 C 72.5799 -5.95647 -3.01265 0
M  V30 820 H 71.8499 -0.391433 -0.629175 0
M  V30 821 H 74.4969 -1.53572 -1.14403 0
M  V30 822 H 72.8019 -1.20096 -3.7294 0
M  V30 823 H 74.4989 -1.58936 -3.68158 0
M  V30 824 H 71.0889 -2.91692 -3.14029 0
M  V30 825 H 75.2729 -3.89547 -3.07517 0
M  V30 826 H 70.5289 -5.3081 -3.03399 0
M  V30 827 H 74.7029 -6.29398 -2.98046 0
M  V30 828 H 72.3299 -7.0041 -2.95516 0
M  V30 829 N 73.905 1.17692 -1.04816 0
M  V30 830 C 74.815 2.25229 -0.65643 0
M  V30 831 C 75.831 1.71018 0.320761 0
M  V30 832 O 77.007 2.00649 0.173805 0
M  V30 833 C 74.072 3.46684 -0.0332629 0
M  V30 834 C 73.133 4.15997 -1.06042 0
M  V30 835 C 72.366 5.31654 -0.466893 0
M  V30 836 O 72.589 5.65777 0.724758 0
M  V30 837 O 71.523 5.89831 -1.1993 0
M  V30 838 H 75.349 2.61016 -1.55255 0
M  V30 839 H 72.934 1.24919 -0.81949 0
M  V30 840 H 74.816 4.20234 0.313256 0
M  V30 841 H 73.491 3.12703 0.836566 0
M  V30 842 H 72.398 3.44482 -1.45886 0
M  V30 843 H 73.731 4.53996 -1.90127 0
M  V30 844 N 75.3831 0.828654 1.34056 0
M  V30 845 C 76.6291 0.42008 1.98402 0
M  V30 846 C 76.9621 -1.01564 1.65525 0
M  V30 847 O 76.2371 -1.70834 0.929831 0
M  V30 848 C 76.5201 0.62927 3.54559 0
M  V30 849 C 76.3731 2.11152 3.97159 0
M  V30 850 C 77.6921 0.0688756 4.40046 0
M  V30 851 H 74.8111 0.154104 0.720709 0
M  V30 852 H 77.4531 1.04228 1.5886 0
M  V30 853 H 75.6031 0.0996418 3.88372 0
M  V30 854 H 77.2751 2.70522 3.73651 0
M  V30 855 H 75.5181 2.59985 3.47261 0
M  V30 856 H 76.1891 2.20868 5.05887 0
M  V30 857 H 78.6651 0.521458 4.1282 0
M  V30 858 H 77.5411 0.245006 5.48353 0
M  V30 859 H 77.8021 -1.0266 4.30015 0
M  V30 860 N 76.8612 -1.46375 0.584142 0
M  V30 861 C 77.8082 -2.30323 -0.148286 0
M  V30 862 C 78.7782 -1.40703 -0.882713 0
M  V30 863 O 79.9632 -1.69651 -0.873099 0
M  V30 864 C 77.1032 -3.25196 -1.15507 0
M  V30 865 C 76.2162 -4.29915 -0.423943 0
M  V30 866 C 75.3512 -5.11914 -1.41838 0
M  V30 867 C 74.3902 -6.08381 -0.673736 0
M  V30 868 N 73.5272 -6.83242 -1.6163 0
M  V30 869 H 78.3672 -2.92427 0.573644 0
M  V30 870 H 75.9042 -1.44118 0.294703 0
M  V30 871 H 77.8622 -3.78646 -1.75166 0
M  V30 872 H 76.4922 -2.64898 -1.8447 0
M  V30 873 H 75.5442 -3.7931 0.287714 0
M  V30 874 H 76.8562 -4.98549 0.158128 0
M  V30 875 H 76.0102 -5.69648 -2.08773 0
M  V30 876 H 74.7492 -4.43243 -2.03438 0
M  V30 877 H 73.7542 -5.49799 0.00938483 0
M  V30 878 H 74.9792 -6.79071 -0.0631082 0
M  V30 879 H 72.9252 -6.1728 -2.22038 0
M  V30 880 H 72.8422 -7.48144 -1.08707 0
M  V30 881 H 74.1102 -7.45534 -2.27596 0
M  V30 882 N 78.3393 -0.321999 -1.54275 0
M  V30 883 C 79.6163 0.335232 -1.92706 0
M  V30 884 C 79.9963 1.70006 -1.25145 0
M  V30 885 O 79.3443 2.25067 -0.394596 0
M  V30 886 C 79.5543 0.429008 -3.46353 0
M  V30 887 C 80.9023 0.690029 -4.18956 0
M  V30 888 O 81.9263 0.511992 -3.52501 0
M  V30 889 O 80.7853 1.03338 -5.36641 0
M  V30 890 H 77.8793 0.191143 -0.804608 0
M  V30 891 H 80.4253 -0.3716 -1.65581 0
M  V30 892 H 79.1973 -0.529611 -3.87699 0
M  V30 893 H 78.8203 1.18348 -3.79578 0
M  V30 894 N 79.8174 1.5752 -0.0501392 0
M  V30 895 C 80.7804 2.1037 0.909786 0
M  V30 896 C 81.7804 1.02308 1.24056 0
M  V30 897 O 82.9704 1.28385 1.17741 0
M  V30 898 C 80.1024 2.58708 2.21998 0
M  V30 899 H 81.2954 2.96479 0.451665 0
M  V30 900 H 78.8484 1.55038 0.198248 0
M  V30 901 H 79.5834 1.75989 2.72394 0
M  V30 902 H 79.3684 3.37675 1.99295 0
M  V30 903 H 80.8584 2.99747 2.9076 0
M  V30 904 N 81.2955 -0.223234 1.56011 0
M  V30 905 C 82.2425 -1.27664 1.92277 0
M  V30 906 C 83.2125 -1.46659 0.779763 0
M  V30 907 O 84.3975 -1.60256 1.03551 0
M  V30 908 C 81.5375 -2.62234 2.24338 0
M  V30 909 C 80.6505 -2.51051 3.51564 0
M  V30 910 C 79.7855 -3.78133 3.7308 0
M  V30 911 C 78.8245 -3.61665 4.93827 0
M  V30 912 N 77.9615 -4.80693 5.11741 0
M  V30 913 H 82.8015 -0.960358 2.82101 0
M  V30 914 H 80.3385 -0.462901 1.39627 0
M  V30 915 H 82.2965 -3.40596 2.40936 0
M  V30 916 H 80.9265 -2.91961 1.3769 0
M  V30 917 H 79.9785 -1.64132 3.43169 0
M  V30 918 H 81.2905 -2.34803 4.40079 0
M  V30 919 H 80.4445 -4.64938 3.89766 0
M  V30 920 H 79.1835 -3.97304 2.82844 0
M  V30 921 H 78.1885 -2.73244 4.77093 0
M  V30 922 H 79.4135 -3.43966 5.85546 0
M  V30 923 H 77.3595 -5.00181 4.24446 0
M  V30 924 H 77.2765 -4.67165 5.94384 0
M  V30 925 H 78.5445 -5.6893 5.3286 0
M  V30 926 N 82.7736 -1.49793 -0.48987 0
M  V30 927 C 84.0216 -1.59525 -1.24081 0
M  V30 928 C 84.3426 -0.288953 -1.92847 0
M  V30 929 O 83.6126 0.692436 -1.83254 0
M  V30 930 H 82.1926 -0.587796 -0.460983 0
M  V30 931 H 84.8546 -1.86477 -0.566778 0
M  V30 932 H 83.9506 -2.39696 -1.99881 0
M  V30 933 N 84.2517 0.741722 -1.39055 0
M  V30 934 C 85.6677 1.04638 -1.20512 0
M  V30 935 C 85.8677 2.01405 -0.0620218 0
M  V30 936 O 84.9237 2.45547 0.588457 0
M  V30 937 C 86.2367 1.6151 -2.53643 0
M  V30 938 C 87.7847 1.73623 -2.6043 0
M  V30 939 C 88.2597 2.33906 -3.93767 0
M  V30 940 N 89.7507 2.41323 -3.9537 0
M  V30 941 C 90.4857 2.88888 -4.95309 0
M  V30 942 N 89.9817 3.36401 -6.05645 0
M  V30 943 N 91.7747 2.88037 -4.82692 0
M  V30 944 H 83.9257 0.0998155 -2.12165 0
M  V30 945 H 86.1887 0.106907 -0.941953 0
M  V30 946 H 85.8947 0.978739 -3.37807 0
M  V30 947 H 85.7687 2.60411 -2.72885 0
M  V30 948 H 88.1557 2.36384 -1.76655 0
M  V30 949 H 88.2367 0.733945 -2.45045 0
M  V30 950 H 87.8807 1.71776 -4.7797 0
M  V30 951 H 87.8107 3.34799 -4.06469 0
M  V30 952 H 90.3017 2.07734 -3.15682 0
M  V30 953 H 90.6147 3.71186 -6.77821 0
M  V30 954 H 88.9597 3.34427 -6.09248 0
M  V30 955 H 92.1507 2.50237 -3.95599 0
M  V30 956 H 92.3237 3.24792 -5.60726 0
M  V30 957 N 85.7298 1.2412 0.971189 0
M  V30 958 C 86.9578 1.10575 1.74874 0
M  V30 959 C 87.3728 -0.342017 1.85676 0
M  V30 960 O 86.7298 -1.23617 1.34258 0
M  V30 961 C 86.7808 1.73579 3.171 0
M  V30 962 O 86.5018 3.12695 3.06844 0
M  V30 963 C 88.0028 1.65598 4.11208 0
M  V30 964 H 85.2228 0.386504 0.548503 0
M  V30 965 H 87.7668 1.64156 1.21955 0
M  V30 966 H 85.9218 1.24009 3.67016 0
M  V30 967 H 86.3358 3.43412 3.96445 0
M  V30 968 H 87.8098 2.1437 5.08674 0
M  V30 969 H 88.2868 0.616532 4.34851 0
M  V30 970 H 88.8928 2.14578 3.67201 0
M  V30 971 N 87.2079 -1.17134 1.05439 0
M  V30 972 C 88.4539 -1.87733 0.767077 0
M  V30 973 C 88.7869 -1.8098 -0.704253 0
M  V30 974 O 88.0619 -1.21951 -1.5152 0
M  V30 975 C 88.3449 -3.37659 1.25133 0
M  V30 976 C 88.1979 -3.53149 2.78578 0
M  V30 977 C 89.5169 -4.31768 0.852324 0
M  V30 978 H 86.6359 -0.681687 0.280129 0
M  V30 979 H 89.2779 -1.37732 1.30881 0
M  V30 980 H 87.4279 -3.80373 0.790469 0
M  V30 981 H 89.0999 -3.19434 3.32806 0
M  V30 982 H 87.3429 -2.95345 3.17732 0
M  V30 983 H 88.0139 -4.58403 3.07523 0
M  V30 984 H 90.4899 -3.96909 1.24911 0
M  V30 985 H 89.3659 -5.35199 1.21873 0
M  V30 986 H 89.6269 -4.41429 -0.243485 0
M  V30 987 N 88.686 -0.835752 -1.33615 0
M  V30 988 C 89.911 -0.442389 -2.02627 0
M  V30 989 C 90.336 0.947735 -1.62479 0
M  V30 990 O 89.694 1.61907 -0.815826 0
M  V30 991 C 89.742 -0.567216 -3.56111 0
M  V30 992 O 88.846 0.407799 -4.10379 0
M  V30 993 H 88.187 -0.180278 -0.639059 0
M  V30 994 H 90.717 -1.12972 -1.70583 0
M  V30 995 H 90.727 -0.447708 -4.05536 0
M  V30 996 H 89.402 -1.58103 -3.84677 0
M  V30 997 H 87.979 0.246107 -3.72087 0
M  V30 998 N 90.1641 1.46063 -0.591896 0
M  V30 999 C 91.0941 2.33172 0.123673 0
M  V30 1000 C 92.0751 1.45897 0.87453 0
M  V30 1001 O 93.2601 1.74698 0.848181 0
M  V30 1002 C 90.3901 3.28336 1.13194 0
M  V30 1003 C 89.3441 4.25124 0.495324 0
M  V30 1004 C 88.6701 5.09863 1.61071 0
M  V30 1005 C 89.9701 5.19143 -0.573425 0
M  V30 1006 H 91.6641 2.93252 -0.603646 0
M  V30 1007 H 89.2101 1.41014 -0.291741 0
M  V30 1008 H 91.1631 3.88137 1.64097 0
M  V30 1009 H 89.8871 2.66383 1.88965 0
M  V30 1010 H 88.5461 3.66599 0.00729452 0
M  V30 1011 H 88.1941 4.44288 2.35832 0
M  V30 1012 H 87.8941 5.75417 1.19035 0
M  V30 1013 H 89.4181 5.72529 2.12233 0
M  V30 1014 H 90.8321 5.73106 -0.1491 0
M  V30 1015 H 89.2291 5.93089 -0.914636 0
M  V30 1016 H 90.2991 4.62519 -1.45617 0
M  V30 1017 N 91.6422 0.330177 1.54103 0
M  V30 1018 C 92.5522 -0.541534 2.28264 0
M  V30 1019 C 93.5682 -1.12351 1.32866 0
M  V30 1020 O 94.7442 -1.14206 1.65888 0
M  V30 1021 C 91.8092 -1.68322 3.03098 0
M  V30 1022 C 90.8702 -1.13238 4.14096 0
M  V30 1023 C 90.1032 -2.21966 4.85352 0
M  V30 1024 O 90.3262 -3.42437 4.56172 0
M  V30 1025 O 89.2602 -1.87013 5.7211 0
M  V30 1026 H 93.0862 0.060938 3.03639 0
M  V30 1027 H 90.6712 0.09565 1.49093 0
M  V30 1028 H 92.5532 -2.34777 3.49939 0
M  V30 1029 H 91.2282 -2.27176 2.30593 0
M  V30 1030 H 90.1352 -0.432736 3.71589 0
M  V30 1031 H 91.4682 -0.588898 4.88664 0
M  V30 1032 N 93.1203 -1.57491 0.0584922 0
M  V30 1033 C 94.0673 -2.11958 -0.913376 0
M  V30 1034 C 95.0373 -1.02875 -1.30407 0
M  V30 1035 O 96.2223 -1.30464 -1.39226 0
M  V30 1036 C 93.3623 -2.67497 -2.18035 0
M  V30 1037 C 92.4753 -3.90691 -1.84349 0
M  V30 1038 C 91.6103 -4.3452 -3.05559 0
M  V30 1039 C 90.6493 -5.50395 -2.67827 0
M  V30 1040 N 89.7863 -5.89244 -3.81754 0
M  V30 1041 H 94.6263 -2.94704 -0.442017 0
M  V30 1042 H 92.1633 -1.45643 -0.206545 0
M  V30 1043 H 94.1213 -2.978 -2.92183 0
M  V30 1044 H 92.7513 -1.87537 -2.62735 0
M  V30 1045 H 91.8033 -3.66934 -1.00319 0
M  V30 1046 H 93.1153 -4.7489 -1.5258 0
M  V30 1047 H 92.2693 -4.66414 -3.87998 0
M  V30 1048 H 91.0083 -3.49147 -3.40511 0
M  V30 1049 H 90.0133 -5.18165 -1.83806 0
M  V30 1050 H 91.2383 -6.3749 -2.34059 0
M  V30 1051 H 89.1843 -5.06823 -4.16493 0
M  V30 1052 H 89.1013 -6.68151 -3.53708 0
M  V30 1053 H 90.3693 -6.25756 -4.64811 0
M  V30 1054 N 94.5984 0.214957 -1.56127 0
M  V30 1055 C 95.8284 0.953707 -1.8327 0
M  V30 1056 C 96.2364 1.78181 -0.636262 0
M  V30 1057 O 95.5794 1.79191 0.404516 0
M  V30 1058 C 95.6414 1.91516 -3.0424 0
M  V30 1059 C 95.3054 1.27094 -4.38972 0
M  V30 1060 C 96.3024 0.657575 -5.15725 0
M  V30 1061 C 93.9874 1.28073 -4.85698 0
M  V30 1062 C 95.9814 0.0625968 -6.37369 0
M  V30 1063 C 93.6684 0.681914 -6.07283 0
M  V30 1064 C 94.6664 0.0739046 -6.8296 0
M  V30 1065 O 94.3544 -0.515582 -8.02245 0
M  V30 1066 H 94.0864 0.284764 -0.613095 0
M  V30 1067 H 96.6404 0.233283 -2.04071 0
M  V30 1068 H 94.8704 2.67475 -2.79274 0
M  V30 1069 H 96.5594 2.52001 -3.18198 0
M  V30 1070 H 97.3254 0.642288 -4.80728 0
M  V30 1071 H 93.2044 1.74337 -4.26764 0
M  V30 1072 H 96.7484 -0.412593 -6.96379 0
M  V30 1073 H 92.6454 0.694636 -6.41752 0
M  V30 1074 H 93.4134 -0.410544 -8.1747 0
M  V30 1075 N 96.0765 1.50051 0.48192 0
M  V30 1076 C 97.0235 1.68122 1.58125 0
M  V30 1077 C 97.9935 0.522545 1.57666 0
M  V30 1078 O 99.1785 0.751844 1.75362 0
M  V30 1079 C 96.3185 1.77142 2.96167 0
M  V30 1080 C 95.4315 3.0444 3.06497 0
M  V30 1081 C 94.5665 3.04321 4.35387 0
M  V30 1082 C 93.6055 4.26118 4.3942 0
M  V30 1083 N 92.7425 4.238 5.59766 0
M  V30 1084 H 97.5825 2.6198 1.42022 0
M  V30 1085 H 95.1195 1.29877 0.690687 0
M  V30 1086 H 97.0775 1.80352 3.76203 0
M  V30 1087 H 95.7075 0.867329 3.1093 0
M  V30 1088 H 94.7595 3.10752 2.19402 0
M  V30 1089 H 96.0715 3.94426 3.05336 0
M  V30 1090 H 95.2255 3.062 5.23762 0
M  V30 1091 H 93.9645 2.12147 4.39141 0
M  V30 1092 H 92.9695 4.24463 3.49444 0
M  V30 1093 H 94.1945 5.19507 4.37366 0
M  V30 1094 H 92.1405 3.34474 5.64326 0
M  V30 1095 H 92.0575 5.07542 5.60301 0
M  V30 1096 H 93.3255 4.2981 6.50295 0
M  V30 1097 N 97.5546 -0.734337 1.39446 0
M  V30 1098 C 98.8026 -1.49096 1.36436 0
M  V30 1099 C 99.1236 -1.94961 -0.0388255 0
M  V30 1100 O 98.3936 -1.69033 -0.990191 0
M  V30 1101 H 96.9736 -0.5531 0.502085 0
M  V30 1102 H 99.6356 -0.871725 1.74319 0
M  V30 1103 H 98.7316 -2.37276 2.02747 0
M  V30 1104 N 99.0327 -1.24633 -0.964593 0
M  V30 1105 C 99.9797 -1.04144 -2.05968 0
M  V30 1106 C 100.95 0.046262 -1.66036 0
M  V30 1107 O 102.135 -0.108972 -1.90489 0
M  V30 1108 C 99.2747 -0.65563 -3.38815 0
M  V30 1109 C 98.3877 -1.81714 -3.91923 0
M  V30 1110 C 97.5227 -1.37662 -5.13052 0
M  V30 1111 C 96.5617 -2.50788 -5.58365 0
M  V30 1112 N 95.6987 -2.07582 -6.70712 0
M  V30 1113 H 100.539 -1.9787 -2.22827 0
M  V30 1114 H 98.0757 -0.9855 -1.09208 0
M  V30 1115 H 100.034 -0.412954 -4.15151 0
M  V30 1116 H 98.6637 0.244627 -3.21872 0
M  V30 1117 H 97.7157 -2.1734 -3.12198 0
M  V30 1118 H 99.0277 -2.66705 -4.21509 0
M  V30 1119 H 98.1817 -1.093 -5.96773 0
M  V30 1120 H 96.9207 -0.497293 -4.85158 0
M  V30 1121 H 95.9257 -2.79906 -4.73215 0
M  V30 1122 H 97.1507 -3.39283 -5.88272 0
M  V30 1123 H 95.0967 -1.22051 -6.44546 0
M  V30 1124 H 95.0137 -2.86125 -6.99763 0
M  V30 1125 H 96.2817 -1.82369 -7.57867 0
M  V30 1126 N 100.511 1.16574 -1.06058 0
M  V30 1127 C 101.757 1.87324 -0.777022 0
M  V30 1128 C 102.09 1.81351 0.694645 0
M  V30 1129 O 101.365 1.22753 1.50871 0
M  V30 1130 C 101.648 3.36991 -1.26922 0
M  V30 1131 C 101.501 3.51667 -2.80447 0
M  V30 1132 C 102.82 4.3131 -0.87521 0
M  V30 1133 H 99.9388 0.680191 -0.28374 0
M  V30 1134 H 102.581 1.37036 -1.3161 0
M  V30 1135 H 100.731 3.79949 -0.81063 0
M  V30 1136 H 102.403 3.17664 -3.34495 0
M  V30 1137 H 100.646 2.93656 -3.19294 0
M  V30 1138 H 101.317 4.56766 -3.0995 0
M  V30 1139 H 103.793 3.9624 -1.27014 0
M  V30 1140 H 102.669 5.34545 -1.2471 0
M  V30 1141 H 102.93 4.41552 0.220071 0
M  V30 1142 N 101.989 0.842826 1.3317 0
M  V30 1143 C 103.214 0.453129 2.02389 0
M  V30 1144 C 103.639 -0.939105 1.6298 0
M  V30 1145 O 102.997 -1.61472 0.8244 0
M  V30 1146 C 103.045 0.586094 3.55805 0
M  V30 1147 O 102.149 -0.386029 4.10589 0
M  V30 1148 H 101.49 0.183664 0.638094 0
M  V30 1149 H 104.02 1.13875 1.69981 0
M  V30 1150 H 104.03 0.469209 4.05293 0
M  V30 1151 H 102.705 1.6014 3.83833 0
M  V30 1152 H 101.282 -0.226371 3.72212 0
M  V30 1153 N 103.467 -1.45747 0.599634 0
M  V30 1154 C 104.397 -2.33235 -0.111306 0
M  V30 1155 C 105.378 -1.46359 -0.866781 0
M  V30 1156 O 106.563 -1.75146 -0.838904 0
M  V30 1157 C 103.693 -3.28932 -1.11451 0
M  V30 1158 C 102.647 -4.25381 -0.472772 0
M  V30 1159 C 101.973 -5.1071 -1.58365 0
M  V30 1160 C 103.273 -5.18831 0.600948 0
M  V30 1161 H 104.967 -2.92927 0.61919 0
M  V30 1162 H 102.513 -1.40857 0.299215 0
M  V30 1163 H 104.466 -3.89002 -1.62036 0
M  V30 1164 H 103.19 -2.67381 -1.8755 0
M  V30 1165 H 101.849 -3.66598 0.0121472 0
M  V30 1166 H 101.497 -4.45533 -2.33473 0
M  V30 1167 H 101.197 -5.7604 -1.15982 0
M  V30 1168 H 102.721 -5.73647 -2.09194 0
M  V30 1169 H 104.135 -5.73019 0.179491 0
M  V30 1170 H 102.532 -5.92595 0.946076 0
M  V30 1171 H 103.602 -4.6174 1.48068 0
M  V30 1172 N 104.945 -0.338344 -1.53925 0
M  V30 1173 C 106.191 0.260143 -2.01125 0
M  V30 1174 C 106.524 1.50617 -1.22589 0
M  V30 1175 O 105.799 1.91979 -0.312113 0
M  V30 1176 C 106.082 0.579499 -3.55407 0
M  V30 1177 C 105.935 -0.678264 -4.44657 0
M  V30 1178 C 107.254 1.39122 -4.17532 0
M  V30 1179 H 104.373 0.0930772 -0.731099 0
M  V30 1180 H 107.015 -0.457852 -1.84401 0
M  V30 1181 H 105.165 1.19118 -3.69788 0
M  V30 1182 H 106.837 -1.31631 -4.42121 0
M  V30 1183 H 105.08 -1.3042 -4.13731 0
M  V30 1184 H 105.751 -0.410143 -5.50474 0
M  V30 1185 H 108.227 0.874035 -4.06817 0
M  V30 1186 H 107.103 1.58342 -5.25565 0
M  V30 1187 H 107.364 2.39178 -3.71815 0
M  V30 1188 N 106.423 1.57458 -0.0668435 0
M  V30 1189 C 107.669 1.93587 0.6043 0
M  V30 1190 C 108.002 0.946722 1.69561 0
M  V30 1191 O 107.277 -0.0248516 1.94484 0
M  V30 1192 C 107.56 3.40014 1.18585 0
M  V30 1193 C 107.413 4.49685 0.101529 0
M  V30 1194 C 108.732 3.87154 2.09284 0
M  V30 1195 H 105.851 0.703958 0.218202 0
M  V30 1196 H 108.493 1.89542 -0.131804 0
M  V30 1197 H 106.643 3.43592 1.81319 0
M  V30 1198 H 108.315 4.5823 -0.531279 0
M  V30 1199 H 106.558 4.30059 -0.568487 0
M  V30 1200 H 107.229 5.49266 0.54874 0
M  V30 1201 H 109.705 3.85551 1.56491 0
M  V30 1202 H 108.581 4.90231 2.46911 0
M  V30 1203 H 108.842 3.2481 2.99918 0
M  V30 1204 N 107.901 -0.206675 1.56239 0
M  V30 1205 C 108.849 -1.27571 1.94495 0
M  V30 1206 C 109.843 -1.47737 0.828862 0
M  V30 1207 O 111.049 -1.48735 1.0138 0
M  V30 1208 H 107.424 -0.428029 0.6183 0
M  V30 1209 H 109.395 -0.925961 2.8367 0
M  V30 1210 C 108.144 -2.61568 2.29079 0
M  V30 1211 H 107.467 -2.46863 3.14482 0
M  V30 1212 H 108.907 -3.35144 2.5972 0
M  V30 1213 C 107.366 -3.17695 1.12123 0
M  V30 1214 O 107.896 -3.99801 0.390153 0
M  V30 1215 N 106.102 -2.76276 0.901097 0
M  V30 1216 H 105.649 -2.09613 1.49733 0
M  V30 1217 H 105.607 -3.1417 0.120319 0
M  V30 1218 N 109.379 -1.50304 -0.473955 0
M  V30 1219 C 110.625 -1.61389 -1.22806 0
M  V30 1220 C 110.958 -0.311955 -1.91678 0
M  V30 1221 O 110.233 0.686384 -1.81986 0
M  V30 1222 C 110.516 -2.79219 -2.27396 0
M  V30 1223 C 110.369 -4.19286 -1.62848 0
M  V30 1224 C 111.688 -2.92614 -3.28732 0
M  V30 1225 H 108.807 -0.587399 -0.445119 0
M  V30 1226 H 111.449 -1.82681 -0.522265 0
M  V30 1227 H 109.599 -2.61195 -2.87592 0
M  V30 1228 H 111.271 -4.48892 -1.06271 0
M  V30 1229 H 109.514 -4.23677 -0.931693 0
M  V30 1230 H 110.185 -4.97655 -2.38838 0
M  V30 1231 H 112.661 -3.09105 -2.78556 0
M  V30 1232 H 111.537 -3.76688 -3.99246 0
M  V30 1233 H 111.798 -2.03107 -3.92683 0
M  V30 1234 N 110.857 0.726932 -1.39834 0
M  V30 1235 C 111.82 1.82269 -1.38962 0
M  V30 1236 C 112.82 1.58248 -0.285334 0
M  V30 1237 O 114.01 1.65499 -0.54366 0
M  V30 1238 C 111.142 3.20186 -1.17019 0
M  V30 1239 H 112.335 1.84443 -2.36476 0
M  V30 1240 H 109.888 0.931416 -1.25516 0
M  V30 1241 H 110.623 3.23669 -0.202204 0
M  V30 1242 H 110.408 3.3902 -1.96998 0
M  V30 1243 H 111.898 4.00235 -1.1917 0
M  V30 1244 N 112.336 1.25143 0.95797 0
M  V30 1245 C 113.561 1.12521 1.74223 0
M  V30 1246 C 113.986 -0.317402 1.85403 0
M  V30 1247 O 113.344 -1.2299 1.33204 0
M  V30 1248 C 113.392 1.78062 3.1357 0
M  V30 1249 O 112.496 1.058 3.98598 0
M  V30 1250 H 111.837 0.39304 0.535178 0
M  V30 1251 H 114.367 1.65641 1.201 0
M  V30 1252 H 114.377 1.84213 3.64046 0
M  V30 1253 H 113.052 2.83021 3.04749 0
M  V30 1254 H 111.629 1.07506 3.57067 0
M  V30 1255 N 113.814 -1.1601 1.06675 0
M  V30 1256 C 115.091 -1.82679 0.699114 0
M  V30 1257 C 115.471 -1.94559 -0.819137 0
M  V30 1258 O 114.819 -1.49169 -1.73092 0
M  V30 1259 C 115.029 -3.19445 1.40555 0
M  V30 1260 C 116.377 -3.95171 1.55323 0
M  V30 1261 O 117.401 -3.28976 1.36577 0
M  V30 1262 O 116.26 -5.13833 1.86112 0
M  V30 1263 H 113.354 -0.788954 0.247951 0
M  V30 1264 H 115.9 -1.23179 1.16726 0
M  V30 1265 H 114.672 -3.05856 2.44065 0
M  V30 1266 H 114.295 -3.86625 0.927733 0
M  V30 1267 N 115.292 -0.849877 -1.32721 0
M  V30 1268 C 116.532 -0.457146 -1.99222 0
M  V30 1269 C 116.896 0.968038 -1.6581 0
M  V30 1270 O 118.097 1.46507 -2.25364 0
M  V30 1271 C 116.368 -0.683966 -3.50794 0
M  V30 1272 S 117.927 -0.388095 -4.3708 0
M  V30 1273 H 114.745 -0.171464 -0.690015 0
M  V30 1274 H 117.347 -1.10155 -1.61512 0
M  V30 1275 H 116.051 -1.72038 -3.726 0
M  V30 1276 H 115.582 -0.0258086 -3.93392 0
M  V30 1277 H 117.597 0.787791 -4.89906 0
M  V30 1278 N 116.77 1.45427 -0.607355 0
M  V30 1279 C 117.702 2.2871 0.149752 0
M  V30 1280 C 118.715 1.39937 0.831958 0
M  V30 1281 O 119.904 1.64313 0.697385 0
M  V30 1282 C 117.004 3.15673 1.23304 0
M  V30 1283 C 116.177 4.32722 0.637996 0
M  V30 1284 C 115.236 5.00895 1.61215 0
M  V30 1285 O 114.262 5.57697 1.13854 0
M  V30 1286 N 115.464 5.00159 2.94655 0
M  V30 1287 H 118.229 2.94328 -0.564882 0
M  V30 1288 H 115.79 1.55612 -0.446823 0
M  V30 1289 H 117.782 3.58144 1.88454 0
M  V30 1290 H 116.352 2.51965 1.8502 0
M  V30 1291 H 115.572 3.93734 -0.191572 0
M  V30 1292 H 116.86 5.08321 0.220665 0
M  V30 1293 H 116.258 4.553 3.35735 0
M  V30 1294 H 114.815 5.46495 3.55228 0
M  V30 1295 N 118.248 0.346503 1.53744 0
M  V30 1296 C 119.178 -0.501193 2.28058 0
M  V30 1297 C 120.159 -1.10014 1.29734 0
M  V30 1298 O 121.344 -1.12097 1.58581 0
M  V30 1299 C 118.474 -1.65078 3.05559 0
M  V30 1300 C 117.428 -1.18003 4.11411 0
M  V30 1301 C 116.754 -2.41837 4.76884 0
M  V30 1302 C 118.054 -0.278394 5.21558 0
M  V30 1303 H 119.748 0.11875 2.99164 0
M  V30 1304 H 117.294 0.0585531 1.43881 0
M  V30 1305 H 119.247 -2.25028 3.56287 0
M  V30 1306 H 117.971 -2.29767 2.32109 0
M  V30 1307 H 116.63 -0.603331 3.61601 0
M  V30 1308 H 116.278 -3.0494 4.00026 0
M  V30 1309 H 115.978 -2.1102 5.48402 0
M  V30 1310 H 117.502 -3.02508 5.30397 0
M  V30 1311 H 118.916 -0.784823 5.67903 0
M  V30 1312 H 117.313 -0.0619707 6.00068 0
M  V30 1313 H 118.383 0.684677 4.80042 0
M  V30 1314 N 119.726 -1.57421 0.075193 0
M  V30 1315 C 120.954 -1.97946 -0.602076 0
M  V30 1316 C 121.369 -0.953674 -1.62943 0
M  V30 1317 O 120.726 0.0592551 -1.82404 0
M  V30 1318 C 120.777 -3.38546 -1.26762 0
M  V30 1319 O 120.498 -4.37195 -0.281376 0
M  V30 1320 C 121.999 -3.93966 -2.03239 0
M  V30 1321 H 119.219 -0.650918 -0.162931 0
M  V30 1322 H 121.763 -2.03959 0.148601 0
M  V30 1323 H 119.918 -3.33609 -1.96936 0
M  V30 1324 H 120.332 -5.18975 -0.759267 0
M  V30 1325 H 121.806 -4.94555 -2.45193 0
M  V30 1326 H 122.283 -3.30693 -2.8903 0
M  V30 1327 H 122.889 -4.02315 -1.37924 0
M  V30 1328 N 121.204 0.198386 -1.56346 0
M  V30 1329 C 122.481 0.944982 -1.71258 0
M  V30 1330 C 122.861 2.0151 -0.629048 0
M  V30 1331 O 122.209 2.25639 0.360473 0
M  V30 1332 C 122.419 1.5344 -3.1346 0
M  V30 1333 C 123.767 2.01778 -3.73591 0
M  V30 1334 O 124.791 1.63288 -3.16568 0
M  V30 1335 O 123.65 2.72594 -4.73661 0
M  V30 1336 H 120.744 0.442939 -0.69838 0
M  V30 1337 H 123.29 0.188342 -1.68652 0
M  V30 1338 H 122.062 0.762869 -3.83792 0
M  V30 1339 H 121.685 2.35596 -3.20282 0
M  V30 1340 N 122.682 1.50554 0.465978 0
M  V30 1341 C 124.098 1.38093 0.800154 0
M  V30 1342 C 124.298 0.440988 1.96615 0
M  V30 1343 O 123.354 -0.114499 2.5224 0
M  V30 1344 C 124.667 2.79565 1.10742 0
M  V30 1345 C 126.215 2.88516 1.21357 0
M  V30 1346 C 126.69 4.30833 1.55393 0
M  V30 1347 N 128.181 4.33807 1.62375 0
M  V30 1348 C 128.916 5.40927 1.90225 0
M  V30 1349 N 128.412 6.58247 2.16062 0
M  V30 1350 N 130.205 5.28376 1.9177 0
M  V30 1351 H 122.356 2.10237 -0.302366 0
M  V30 1352 H 124.619 0.945203 -0.0727746 0
M  V30 1353 H 124.325 3.50208 0.323661 0
M  V30 1354 H 124.199 3.17125 2.04234 0
M  V30 1355 H 126.586 2.1809 1.98799 0
M  V30 1356 H 126.667 2.54492 0.258321 0
M  V30 1357 H 126.311 5.01799 0.784889 0
M  V30 1358 H 126.241 4.62347 2.52076 0
M  V30 1359 H 128.732 3.49212 1.44427 0
M  V30 1360 H 129.045 7.3569 2.36601 0
M  V30 1361 H 127.39 6.61413 2.13444 0
M  V30 1362 H 130.581 4.35715 1.71085 0
M  V30 1363 H 130.754 6.11944 2.13139 0
M  V30 1364 N 124.16 -0.719506 1.40217 0
M  V30 1365 C 125.108 -1.85493 1.40339 0
M  V30 1366 C 126.102 -1.66995 0.284415 0
M  V30 1367 O 127.308 -1.74148 0.455252 0
M  V30 1368 H 123.683 -0.610857 0.438586 0
M  V30 1369 H 125.654 -1.82506 2.36081 0
M  V30 1370 C 124.403 -3.23321 1.27901 0
M  V30 1371 H 123.726 -3.38159 2.1328 0
M  V30 1372 H 125.166 -4.02914 1.32045 0
M  V30 1373 C 123.625 -3.36898 -0.0111355 0
M  V30 1374 O 124.155 -3.89674 -0.975538 0
M  V30 1375 N 122.361 -2.90492 -0.0793393 0
M  V30 1376 H 121.908 -2.47731 0.706183 0
M  V30 1377 H 121.866 -2.99955 -0.942038 0
M  V30 1378 N 125.638 -1.25649 -0.95132 0
M  V30 1379 C 126.868 -1.13179 -1.72841 0
M  V30 1380 C 127.276 0.316827 -1.86528 0
M  V30 1381 O 126.619 1.22948 -1.3649 0
M  V30 1382 C 126.681 -1.71644 -3.15878 0
M  V30 1383 C 126.345 -3.20667 -3.25609 0
M  V30 1384 C 127.342 -4.17616 -3.09666 0
M  V30 1385 C 125.027 -3.6094 -3.49324 0
M  V30 1386 C 127.021 -5.52817 -3.17289 0
M  V30 1387 C 124.708 -4.96278 -3.56584 0
M  V30 1388 C 125.706 -5.92025 -3.40581 0
M  V30 1389 O 125.394 -7.24899 -3.47528 0
M  V30 1390 H 125.126 -0.395389 -0.54831 0
M  V30 1391 H 127.68 -1.66566 -1.20187 0
M  V30 1392 H 125.91 -1.12707 -3.69911 0
M  V30 1393 H 127.599 -1.54225 -3.75459 0
M  V30 1394 H 128.365 -3.87842 -2.91211 0
M  V30 1395 H 124.244 -2.86907 -3.6084 0
M  V30 1396 H 127.788 -6.2753 -3.04716 0
M  V30 1397 H 123.685 -5.25716 -3.74556 0
M  V30 1398 H 124.453 -7.33039 -3.64138 0
M  V30 1399 N 127.117 1.15442 -1.07289 0
M  V30 1400 C 128.047 2.22312 -0.714107 0
M  V30 1401 C 129.028 1.67467 0.298155 0
M  V30 1402 O 130.213 1.93445 0.171048 0
M  V30 1403 C 127.343 3.47124 -0.110448 0
M  V30 1404 C 126.297 4.14926 -1.04979 0
M  V30 1405 C 125.623 5.33807 -0.308924 0
M  V30 1406 C 126.923 4.64762 -2.38314 0
M  V30 1407 H 128.617 2.5258 -1.6076 0
M  V30 1408 H 126.163 1.21404 -0.77441 0
M  V30 1409 H 128.116 4.21124 0.152482 0
M  V30 1410 H 126.84 3.16187 0.81812 0
M  V30 1411 H 125.499 3.42866 -1.29764 0
M  V30 1412 H 125.147 4.99126 0.623084 0
M  V30 1413 H 124.847 5.80113 -0.935036 0
M  V30 1414 H 126.371 6.10576 -0.0537771 0
M  V30 1415 H 127.785 5.30292 -2.1786 0
M  V30 1416 H 126.182 5.21728 -2.96514 0
M  V30 1417 H 127.252 3.80434 -3.00663 0
M  V30 1418 N 128.595 0.856903 1.32268 0
M  V30 1419 C 129.843 0.460474 1.96784 0
M  V30 1420 C 130.164 -0.987701 1.68135 0
M  V30 1421 O 129.434 -1.69058 0.989765 0
M  V30 1422 H 128.014 0.167289 0.728027 0
M  V30 1423 H 130.676 1.09383 1.61312 0
M  V30 1424 H 129.772 0.60739 3.06133 0
M  V30 1425 N 130.073 -1.45103 0.615059 0
M  V30 1426 C 131.003 -2.33339 -0.0865619 0
M  V30 1427 C 131.984 -1.4727 -0.851209 0
M  V30 1428 O 133.169 -1.76026 -0.820281 0
M  V30 1429 C 130.299 -3.30095 -1.07956 0
M  V30 1430 C 129.253 -4.25858 -0.427628 0
M  V30 1431 C 128.579 -5.12361 -1.5294 0
M  V30 1432 C 129.879 -5.18165 0.655944 0
M  V30 1433 H 131.573 -2.92254 0.650224 0
M  V30 1434 H 129.119 -1.40532 0.314138 0
M  V30 1435 H 131.072 -3.90698 -1.57901 0
M  V30 1436 H 129.796 -2.69355 -1.84703 0
M  V30 1437 H 128.455 -3.66564 0.0510292 0
M  V30 1438 H 128.103 -4.47984 -2.28734 0
M  V30 1439 H 127.803 -5.77238 -1.09865 0
M  V30 1440 H 129.327 -5.75833 -2.03098 0
M  V30 1441 H 130.741 -5.72796 0.240257 0
M  V30 1442 H 129.138 -5.91559 1.00888 0
M  V30 1443 H 130.208 -4.60144 1.52957 0
M  V30 1444 N 131.551 -0.354651 -1.53558 0
M  V30 1445 C 132.498 0.496968 -2.25386 0
M  V30 1446 C 133.468 1.0865 -1.25636 0
M  V30 1447 O 134.653 1.12104 -1.54394 0
M  V30 1448 C 131.793 1.63637 -3.03837 0
M  V30 1449 C 130.906 1.07307 -4.18461 0
M  V30 1450 C 130.041 2.18068 -4.84376 0
M  V30 1451 C 129.08 1.59147 -5.91049 0
M  V30 1452 N 128.217 2.63695 -6.50699 0
M  V30 1453 H 133.057 -0.122075 -2.9775 0
M  V30 1454 H 130.594 -0.0720154 -1.46924 0
M  V30 1455 H 132.552 2.30734 -3.47589 0
M  V30 1456 H 131.182 2.22623 -2.33749 0
M  V30 1457 H 130.234 0.292708 -3.79272 0
M  V30 1458 H 131.546 0.602193 -4.95152 0
M  V30 1459 H 130.7 2.93007 -5.31255 0
M  V30 1460 H 129.439 2.68504 -4.07133 0
M  V30 1461 H 128.444 0.827175 -5.43542 0
M  V30 1462 H 129.669 1.09549 -6.70206 0
M  V30 1463 H 127.615 3.13365 -5.76315 0
M  V30 1464 H 127.532 2.21263 -7.22896 0
M  V30 1465 H 128.8 3.3837 -7.02229 0
M  V30 1466 N 133.029 1.57378 -0.0835403 0
M  V30 1467 C 133.939 2.16897 0.894021 0
M  V30 1468 C 134.955 1.13528 1.31861 0
M  V30 1469 O 136.131 1.45848 1.3889 0
M  V30 1470 C 133.196 2.72831 2.13925 0
M  V30 1471 C 132.257 3.91115 1.76997 0
M  V30 1472 C 131.49 4.44371 2.95584 0
M  V30 1473 O 131.713 3.96596 4.09961 0
M  V30 1474 O 130.647 5.35549 2.74719 0
M  V30 1475 H 134.473 3.00814 0.417679 0
M  V30 1476 H 132.058 1.48741 0.140181 0
M  V30 1477 H 133.94 3.0863 2.86924 0
M  V30 1478 H 132.615 1.91967 2.60635 0
M  V30 1479 H 131.522 3.60148 1.01214 0
M  V30 1480 H 132.855 4.73307 1.3506 0
M  V30 1481 N 134.507 -0.190092 1.56449 0
M  V30 1482 C 135.437 -1.23816 1.97969 0
M  V30 1483 C 136.418 -1.47201 0.852395 0
M  V30 1484 O 137.603 -1.58854 1.1171 0
M  V30 1485 C 134.733 -2.5813 2.3235 0
M  V30 1486 C 133.687 -2.49348 3.47864 0
M  V30 1487 C 133.013 -3.8798 3.67934 0
M  V30 1488 C 134.313 -2.01424 4.81898 0
M  V30 1489 H 136.007 -0.89311 2.85769 0
M  V30 1490 H 133.553 -0.428177 1.37487 0
M  V30 1491 H 135.506 -3.31637 2.59991 0
M  V30 1492 H 134.23 -2.94386 1.41438 0
M  V30 1493 H 132.889 -1.78297 3.20321 0
M  V30 1494 H 132.537 -4.21597 2.74344 0
M  V30 1495 H 132.237 -3.82978 4.45648 0
M  V30 1496 H 133.761 -4.63101 3.97957 0
M  V30 1497 H 135.175 -2.64693 5.08538 0
M  V30 1498 H 133.572 -2.07413 5.63116 0
M  V30 1499 H 134.642 -0.967677 4.75146 0
M  V30 1500 N 135.985 -1.50799 -0.457987 0
M  V30 1501 C 136.935 -1.67003 -1.55222 0
M  V30 1502 C 137.919 -0.52434 -1.52117 0
M  V30 1503 O 139.111 -0.779345 -1.58919 0
M  V30 1504 C 136.24 -1.77956 -2.93576 0
M  V30 1505 C 135.326 -2.98243 -3.01516 0
M  V30 1506 N 135.717 -4.21732 -2.79241 0
M  V30 1507 C 134.015 -2.97072 -3.32662 0
M  V30 1508 C 134.716 -5.02817 -2.92489 0
M  V30 1509 N 133.692 -4.37038 -3.23262 0
M  V30 1510 H 137.494 -2.60163 -1.36721 0
M  V30 1511 H 135.008 -1.48163 -0.664952 0
M  V30 1512 H 137.005 -1.87671 -3.72271 0
M  V30 1513 H 135.665 -0.859634 -3.13114 0
M  V30 1514 H 136.676 -4.51016 -2.54567 0
M  V30 1515 H 133.353 -2.14631 -3.58106 0
M  V30 1516 H 134.743 -6.11054 -2.79396 0
M  V30 1517 N 137.463 0.71206 -1.40597 0
M  V30 1518 C 138.41 1.82613 -1.41142 0
M  V30 1519 C 139.38 1.63925 -0.267903 0
M  V30 1520 O 140.565 1.85009 -0.466495 0
M  V30 1521 C 137.705 3.20354 -1.28324 0
M  V30 1522 C 136.818 3.50589 -2.52411 0
M  V30 1523 C 135.953 4.77855 -2.32009 0
M  V30 1524 C 134.992 5.01005 -3.51654 0
M  V30 1525 N 134.129 6.19487 -3.30425 0
M  V30 1526 H 138.969 1.81482 -2.36365 0
M  V30 1527 H 136.506 0.886475 -1.17388 0
M  V30 1528 H 138.464 3.99899 -1.18899 0
M  V30 1529 H 137.094 3.20705 -0.367189 0
M  V30 1530 H 136.146 2.65573 -2.72351 0
M  V30 1531 H 137.458 3.63604 -3.41458 0
M  V30 1532 H 136.612 5.65424 -2.19956 0
M  V30 1533 H 135.351 4.67056 -1.40392 0
M  V30 1534 H 134.356 4.1189 -3.64179 0
M  V30 1535 H 135.581 5.13674 -4.44202 0
M  V30 1536 H 133.527 6.09932 -2.41494 0
M  V30 1537 H 133.444 6.33194 -4.13039 0
M  V30 1538 H 134.712 7.09834 -3.22113 0
M  V30 1539 N 138.941 1.26152 0.944643 0
M  V30 1540 C 139.851 1.09176 2.07648 0
M  V30 1541 C 140.867 0.0261935 1.7398 0
M  V30 1542 O 142.043 0.229208 2.00091 0
M  V30 1543 C 139.108 0.722915 3.39079 0
M  V30 1544 C 138.169 1.86752 3.86552 0
M  V30 1545 C 137.402 1.51617 5.11711 0
M  V30 1546 O 137.625 0.416331 5.68879 0
M  V30 1547 O 136.559 2.34975 5.54139 0
M  V30 1548 H 140.385 2.0412 2.24875 0
M  V30 1549 H 137.97 1.05182 1.061 0
M  V30 1550 H 139.852 0.529787 4.18056 0
M  V30 1551 H 138.527 -0.197159 3.23099 0
M  V30 1552 H 137.434 2.11558 3.08535 0
M  V30 1553 H 138.767 2.76719 4.07047 0
M  V30 1554 N 140.419 -1.14872 1.07899 0
M  V30 1555 C 141.666 -1.85789 0.805532 0
M  V30 1556 C 141.994 -1.82649 -0.668561 0
M  V30 1557 O 141.249 -1.24858 -1.50695 0
M  V30 1558 C 141.548 -3.34223 1.26609 0
M  V30 1559 C 141.214 -3.57555 2.74709 0
M  V30 1560 C 139.876 -3.63631 3.1516 0
M  V30 1561 C 142.228 -3.66803 3.70277 0
M  V30 1562 C 139.556 -3.76473 4.49983 0
M  V30 1563 C 141.908 -3.8117 5.04869 0
M  V30 1564 C 140.572 -3.85494 5.44932 0
M  V30 1565 H 139.842 -0.679849 0.294765 0
M  V30 1566 H 142.489 -1.3572 1.35101 0
M  V30 1567 H 140.794 -3.86536 0.640103 0
M  V30 1568 H 142.491 -3.87511 1.03132 0
M  V30 1569 H 139.081 -3.5347 2.42398 0
M  V30 1570 H 143.265 -3.61404 3.40149 0
M  V30 1571 H 138.521 -3.7808 4.80484 0
M  V30 1572 H 142.695 -3.87268 5.78789 0
M  V30 1573 H 140.322 -3.95197 6.49403 0
M  V30 1574 N 141.898 -0.863906 -1.31812 0
M  V30 1575 C 143.146 -0.470904 -1.96537 0
M  V30 1576 C 143.467 0.978771 -1.68657 0
M  V30 1577 O 142.737 1.6853 -0.998717 0
M  V30 1578 H 141.317 -0.171148 -0.72713 0
M  V30 1579 H 143.979 -1.10236 -1.60729 0
M  V30 1580 H 143.075 -0.623616 -3.05806 0
M  V30 1581 N 143.376 1.44774 -0.622745 0
M  V30 1582 C 144.787 1.85546 -0.207226 0
M  V30 1583 C 145.138 1.52093 1.23944 0
M  V30 1584 O 144.263 0.95492 1.94191 0
M  V30 1585 C 144.858 3.36781 -0.369313 0
M  V30 1586 C 143.417 3.76399 -0.00836847 0
M  V30 1587 C 142.564 2.68664 -0.686651 0
M  V30 1588 H 145.515 1.3536 -0.828454 0
M  V30 1589 H 145.536 3.78453 0.394162 0
M  V30 1590 H 145.048 3.61098 -1.42231 0
M  V30 1591 H 143.149 3.57698 1.04322 0
M  V30 1592 H 143.262 4.7732 -0.412584 0
M  V30 1593 H 141.626 2.54404 -0.122777 0
M  V30 1594 H 142.409 2.95815 -1.74208 0
M  V30 1595 N 144.854 0.36279 1.53368 0
M  V30 1596 C 146.079 -0.231226 2.06107 0
M  V30 1597 C 146.504 -1.419 1.23474 0
M  V30 1598 O 145.862 -1.79524 0.253128 0
M  V30 1599 C 145.91 -0.605523 3.5548 0
M  V30 1600 O 145.014 -1.70312 3.7559 0
M  V30 1601 H 144.355 -0.034327 0.663112 0
M  V30 1602 H 146.885 0.522584 1.97814 0
M  V30 1603 H 146.895 -0.877314 3.98456 0
M  V30 1604 H 145.57 0.263004 4.15068 0
M  V30 1605 H 144.147 -1.4271 3.44512 0
M  V30 1606 N 146.332 -1.57332 0.0918853 0
M  V30 1607 C 147.282 -2.10385 -0.87876 0
M  V30 1608 C 148.266 -1.01814 -1.24591 0
M  V30 1609 O 149.458 -1.28093 -1.22152 0
M  V30 1610 C 146.587 -2.68517 -2.13901 0
M  V30 1611 C 145.673 -3.84126 -1.79744 0
M  V30 1612 N 146.064 -4.92288 -1.1613 0
M  V30 1613 C 144.362 -3.93801 -2.09373 0
M  V30 1614 C 145.063 -5.7295 -1.00513 0
M  V30 1615 N 144.039 -5.21876 -1.5214 0
M  V30 1616 H 147.841 -2.91395 -0.38293 0
M  V30 1617 H 145.355 -1.62017 -0.111423 0
M  V30 1618 H 147.352 -3.04852 -2.84378 0
M  V30 1619 H 146.012 -1.88961 -2.64053 0
M  V30 1620 H 147.023 -5.1123 -0.828504 0
M  V30 1621 H 143.7 -3.25249 -2.61762 0
M  V30 1622 H 145.09 -6.69978 -0.507902 0
M  V30 1623 N 147.81 0.181792 -1.56548 0
M  V30 1624 C 149.057 0.900097 -1.81396 0
M  V30 1625 C 149.385 1.82695 -0.667281 0
M  V30 1626 O 148.64 1.92614 0.346146 0
M  V30 1627 C 148.939 1.73728 -3.12335 0
M  V30 1628 C 148.605 0.960255 -4.40556 0
M  V30 1629 C 147.267 0.745766 -4.75386 0
M  V30 1630 C 149.619 0.414477 -5.19549 0
M  V30 1631 C 146.947 -0.0257694 -5.86694 0
M  V30 1632 C 149.299 -0.343916 -6.31664 0
M  V30 1633 C 147.963 -0.569301 -6.65068 0
M  V30 1634 H 147.233 0.329369 -0.663775 0
M  V30 1635 H 149.88 0.165647 -1.90782 0
M  V30 1636 H 148.185 2.54081 -2.98245 0
M  V30 1637 H 149.882 2.29591 -3.28769 0
M  V30 1638 H 146.472 1.13746 -4.13231 0
M  V30 1639 H 150.656 0.567554 -4.93044 0
M  V30 1640 H 145.912 -0.210233 -6.11038 0
M  V30 1641 H 150.086 -0.774133 -6.92084 0
M  V30 1642 H 147.713 -1.16903 -7.51158 0
M  V30 1643 N 149.288 1.51039 0.449983 0
M  V30 1644 C 150.513 1.6715 1.22783 0
M  V30 1645 C 150.938 0.363081 1.84563 0
M  V30 1646 O 150.296 -0.675433 1.68249 0
M  V30 1647 C 150.344 2.77985 2.29689 0
M  V30 1648 O 149.448 2.40707 3.34864 0
M  V30 1649 H 148.789 0.557746 0.360299 0
M  V30 1650 H 151.319 1.97535 0.533005 0
M  V30 1651 H 151.329 3.01693 2.74673 0
M  V30 1652 H 150.004 3.72935 1.84098 0
M  V30 1653 H 148.581 2.27523 2.95445 0
M  V30 1654 N 150.766 -0.704594 1.40972 0
M  V30 1655 C 152.012 -1.46675 1.40051 0
M  V30 1656 C 152.345 -1.94199 0.00641102 0
M  V30 1657 O 151.62 -1.68916 -0.964235 0
M  V30 1658 C 151.903 -2.68505 2.39952 0
M  V30 1659 C 151.756 -2.26805 3.88432 0
M  V30 1660 C 153.075 -3.70686 2.37233 0
M  V30 1661 H 150.194 -0.532015 0.510028 0
M  V30 1662 H 152.836 -0.803255 1.72185 0
M  V30 1663 H 150.986 -3.25114 2.1268 0
M  V30 1664 H 152.658 -1.75592 4.26574 0
M  V30 1665 H 150.901 -1.58685 4.03734 0
M  V30 1666 H 151.572 -3.14181 4.53866 0
M  V30 1667 H 154.048 -3.23731 2.61415 0
M  V30 1668 H 152.924 -4.53553 3.09162 0
M  V30 1669 H 153.185 -4.19754 1.38777 0
M  V30 1670 N 152.244 -1.26651 -0.937939 0
M  V30 1671 C 153.174 -1.10993 -2.05433 0
M  V30 1672 C 154.155 -0.0142161 -1.70094 0
M  V30 1673 O 155.34 -0.186837 -1.93299 0
M  V30 1674 C 152.47 -0.745561 -3.39203 0
M  V30 1675 C 151.424 -1.79337 -3.88616 0
M  V30 1676 C 150.75 -1.28324 -5.19073 0
M  V30 1677 C 152.05 -3.19553 -4.13138 0
M  V30 1678 H 153.744 -2.0438 -2.1879 0
M  V30 1679 H 151.29 -0.984041 -1.05131 0
M  V30 1680 H 153.243 -0.622888 -4.16771 0
M  V30 1681 H 151.967 0.22401 -3.25831 0
M  V30 1682 H 150.626 -1.90477 -3.13231 0
M  V30 1683 H 150.274 -0.303414 -5.02084 0
M  V30 1684 H 149.974 -1.98369 -5.53103 0
M  V30 1685 H 151.498 -1.1733 -5.99221 0
M  V30 1686 H 152.912 -3.11471 -4.81309 0
M  V30 1687 H 151.309 -3.87218 -4.58457 0
M  V30 1688 H 152.379 -3.65368 -3.18801 0
M  V30 1689 N 153.722 1.14298 -1.08507 0
M  V30 1690 C 154.685 2.17607 -0.719711 0
M  V30 1691 C 155.685 1.58907 0.245997 0
M  V30 1692 O 156.875 1.74181 0.0254081 0
M  V30 1693 C 154.007 3.40842 -0.0627695 0
M  V30 1694 H 155.2 2.51443 -1.63452 0
M  V30 1695 H 152.753 1.28963 -0.88307 0
M  V30 1696 H 153.488 3.12587 0.863716 0
M  V30 1697 H 153.273 3.84713 -0.757504 0
M  V30 1698 H 154.763 4.17221 0.177786 0
M  V30 1699 N 155.201 0.870884 1.31352 0
M  V30 1700 C 156.448 0.482273 1.96673 0
M  V30 1701 C 156.776 -0.965638 1.68836 0
M  V30 1702 O 156.031 -1.69514 0.977937 0
M  V30 1703 C 156.33 0.687157 3.50732 0
M  V30 1704 C 155.996 2.108 3.9859 0
M  V30 1705 C 154.658 2.49656 4.1137 0
M  V30 1706 C 157.01 3.03459 4.23748 0
M  V30 1707 C 154.338 3.80412 4.46659 0
M  V30 1708 C 156.69 4.3373 4.60501 0
M  V30 1709 C 155.354 4.725 4.71487 0
M  V30 1710 H 154.624 0.176476 0.719679 0
M  V30 1711 H 157.271 1.10405 1.56471 0
M  V30 1712 H 155.576 -0.0177476 3.91796 0
M  V30 1713 H 157.273 0.366284 3.99324 0
M  V30 1714 H 153.863 1.79633 3.8914 0
M  V30 1715 H 158.047 2.74665 4.13368 0
M  V30 1716 H 153.303 4.1021 4.53362 0
M  V30 1717 H 157.477 5.05578 4.78919 0
M  V30 1718 H 155.104 5.73859 4.98588 0
M  V30 1719 N 156.679 -1.44442 0.630414 0
M  V30 1720 C 158.09 -1.85434 0.217063 0
M  V30 1721 C 158.441 -1.52748 -1.23136 0
M  V30 1722 O 157.566 -0.965205 -1.93682 0
M  V30 1723 C 158.161 -3.36581 0.387168 0
M  V30 1724 C 156.72 -3.76389 0.0283297 0
M  V30 1725 C 155.867 -2.68296 0.700889 0
M  V30 1726 H 158.818 -1.34919 0.83562 0
M  V30 1727 H 158.839 -3.78657 -0.374086 0
M  V30 1728 H 158.351 -3.60339 1.44144 0
M  V30 1729 H 156.452 -3.58246 -1.02423 0
M  V30 1730 H 156.565 -4.77095 0.437892 0
M  V30 1731 H 154.929 -2.54335 0.136267 0
M  V30 1732 H 155.712 -2.94887 1.75774 0
M  V30 1733 N 158.157 -0.370918 -1.53173 0
M  V30 1734 C 159.397 0.217106 -2.03244 0
M  V30 1735 C 159.761 1.45558 -1.25207 0
M  V30 1736 O 160.962 2.11957 -1.65311 0
M  V30 1737 C 159.233 0.496664 -3.53932 0
M  V30 1738 S 160.792 1.0576 -4.25864 0
M  V30 1739 H 157.61 0.0627827 -0.708223 0
M  V30 1740 H 160.212 -0.515019 -1.88594 0
M  V30 1741 H 158.916 -0.412096 -4.08326 0
M  V30 1742 H 158.447 1.25772 -3.72753 0
M  V30 1743 H 160.462 2.34145 -4.37482 0
M  V30 1744 N 159.635 1.57281 -0.100228 0
M  V30 1745 C 160.583 2.15542 0.874328 0
M  V30 1746 C 161.577 1.09962 1.28859 0
M  V30 1747 O 162.783 1.28298 1.26252 0
M  V30 1748 H 159.158 0.689567 0.300003 0
M  V30 1749 H 161.129 2.96241 0.35829 0
M  V30 1750 C 159.878 2.75454 2.1218 0
M  V30 1751 H 159.201 3.56384 1.81193 0
M  V30 1752 H 160.641 3.19781 2.78417 0
M  V30 1753 C 159.1 1.71602 2.89921 0
M  V30 1754 O 159.63 1.15804 3.84646 0
M  V30 1755 N 157.836 1.41975 2.53558 0
M  V30 1756 H 157.383 1.87539 1.76598 0
M  V30 1757 H 157.341 0.727274 3.05873 0
M  V30 1758 N 161.113 -0.173488 1.56642 0
M  V30 1759 C 162.045 -1.23935 1.92802 0
M  V30 1760 C 163.058 -1.40589 0.820889 0
M  V30 1761 O 164.247 -1.40631 1.09933 0
M  V30 1762 C 161.347 -2.60837 2.16373 0
M  V30 1763 C 160.52 -2.6551 3.47596 0
M  V30 1764 C 159.579 -3.8376 3.60021 0
M  V30 1765 O 158.605 -3.69859 4.32658 0
M  V30 1766 N 159.807 -5.00127 2.94709 0
M  V30 1767 H 162.572 -0.932236 2.84832 0
M  V30 1768 H 160.133 -0.363268 1.57772 0
M  V30 1769 H 162.125 -3.38407 2.21952 0
M  V30 1770 H 160.695 -2.83948 1.30738 0
M  V30 1771 H 159.915 -1.74052 3.53694 0
M  V30 1772 H 161.203 -2.65641 4.33949 0
M  V30 1773 H 160.601 -5.14322 2.35563 0
M  V30 1774 H 159.158 -5.75567 3.05886 0
M  V30 1775 N 162.591 -1.51276 -0.441967 0
M  V30 1776 C 163.838 -1.63715 -1.19179 0
M  V30 1777 C 164.166 -0.351175 -1.91303 0
M  V30 1778 O 163.421 0.664524 -1.84072 0
M  V30 1779 C 163.72 -2.78746 -2.23686 0
M  V30 1780 C 163.386 -4.18189 -1.68607 0
M  V30 1781 C 162.048 -4.56125 -1.53308 0
M  V30 1782 C 164.4 -5.05222 -1.28062 0
M  V30 1783 C 161.728 -5.78804 -0.959317 0
M  V30 1784 C 164.08 -6.28476 -0.721162 0
M  V30 1785 C 162.744 -6.65188 -0.55504 0
M  V30 1786 H 162.014 -0.599076 -0.436106 0
M  V30 1787 H 164.661 -1.85296 -0.48351 0
M  V30 1788 H 162.966 -2.51369 -3.00535 0
M  V30 1789 H 164.663 -2.8557 -2.81515 0
M  V30 1790 H 161.253 -3.88277 -1.8149 0
M  V30 1791 H 165.437 -4.76524 -1.38704 0
M  V30 1792 H 160.693 -6.05899 -0.81833 0
M  V30 1793 H 164.867 -6.95259 -0.398458 0
M  V30 1794 H 162.494 -7.60123 -0.108311 0
M  V30 1795 N 164.069 0.697108 -1.41344 0
M  V30 1796 C 165.317 1.45426 -1.40341 0
M  V30 1797 C 165.638 1.94996 -0.0128787 0
M  V30 1798 O 164.908 1.71599 0.945027 0
M  V30 1799 H 163.488 0.539594 -0.516573 0
M  V30 1800 H 166.15 0.825201 -1.76569 0
M  V30 1801 H 165.246 2.31817 -2.08967 0
M  V30 1802 N 165.547 1.27147 0.931209 0
M  V30 1803 C 166.457 1.11372 2.06478 0
M  V30 1804 C 167.473 0.044645 1.73943 0
M  V30 1805 O 168.649 0.250417 1.99837 0
M  V30 1806 C 165.714 0.758838 3.38294 0
M  V30 1807 C 164.775 1.90841 3.84549 0
M  V30 1808 C 164.008 1.57036 5.10074 0
M  V30 1809 O 164.231 0.476645 5.68405 0
M  V30 1810 O 163.165 2.40839 5.51616 0
M  V30 1811 H 166.991 2.06493 2.22698 0
M  V30 1812 H 164.576 1.06301 1.04978 0
M  V30 1813 H 166.458 0.574098 4.17471 0
M  V30 1814 H 165.133 -0.162879 3.2329 0
M  V30 1815 H 164.04 2.14819 3.06274 0
M  V30 1816 H 165.373 2.81021 4.04089 0
M  V30 1817 N 167.025 -1.13721 1.09112 0
M  V30 1818 C 168.25 -1.89314 0.847053 0
M  V30 1819 C 168.675 -1.78416 -0.595774 0
M  V30 1820 O 168.033 -1.12942 -1.41823 0
M  V30 1821 C 168.081 -3.3701 1.28284 0
M  V30 1822 O 167.185 -4.10054 0.439267 0
M  V30 1823 H 166.526 -0.588745 0.307044 0
M  V30 1824 H 169.056 -1.43902 1.45442 0
M  V30 1825 H 169.066 -3.87834 1.26683 0
M  V30 1826 H 167.741 -3.4426 2.33363 0
M  V30 1827 H 166.318 -3.69266 0.519312 0
M  V30 1828 N 168.503 -0.877838 -1.30888 0
M  V30 1829 C 169.413 -0.343096 -2.32078 0
M  V30 1830 C 170.429 0.551022 -1.65045 0
M  V30 1831 O 171.605 0.445854 -1.96403 0
M  V30 1832 C 168.67 0.439905 -3.43898 0
M  V30 1833 C 167.731 -0.483111 -4.26573 0
M  V30 1834 C 166.964 0.262616 -5.33053 0
M  V30 1835 O 167.187 1.48967 -5.50604 0
M  V30 1836 O 166.121 -0.383593 -6.00676 0
M  V30 1837 H 169.947 -1.18203 -2.79753 0
M  V30 1838 H 167.532 -0.64145 -1.34929 0
M  V30 1839 H 169.414 0.883504 -4.12034 0
M  V30 1840 H 168.089 1.25526 -2.98371 0
M  V30 1841 H 166.996 -0.975374 -3.61161 0
M  V30 1842 H 168.329 -1.26427 -4.75686 0
M  V30 1843 N 169.982 1.44106 -0.638065 0
M  V30 1844 C 171.393 1.85316 -0.226894 0
M  V30 1845 C 171.744 1.53399 1.22324 0
M  V30 1846 O 170.869 0.975463 1.93167 0
M  V30 1847 C 171.464 3.3637 -0.405013 0
M  V30 1848 C 170.023 3.76369 -0.0482902 0
M  V30 1849 C 169.17 2.67921 -0.715108 0
M  V30 1850 H 172.121 1.34474 -0.842764 0
M  V30 1851 H 172.142 3.7885 0.354 0
M  V30 1852 H 171.654 3.59569 -1.46053 0
M  V30 1853 H 169.755 3.58784 1.00522 0
M  V30 1854 H 169.868 4.76856 -0.463187 0
M  V30 1855 H 168.232 2.54259 -0.149753 0
M  V30 1856 H 169.015 2.93951 -1.77335 0
M  V30 1857 N 171.46 0.379036 1.52974 0
M  V30 1858 C 172.876 0.0285448 1.59574 0
M  V30 1859 C 173.076 -1.45542 1.39355 0
M  V30 1860 O 172.132 -2.2187 1.20541 0
M  V30 1861 C 173.445 0.496535 2.96572 0
M  V30 1862 C 174.993 0.451909 3.0972 0
M  V30 1863 C 175.468 0.895924 4.49152 0
M  V30 1864 N 176.959 0.851522 4.55306 0
M  V30 1865 C 177.694 1.16661 5.61407 0
M  V30 1866 N 177.19 1.55166 6.752 0
M  V30 1867 N 178.983 1.08853 5.51459 0
M  V30 1868 H 171.134 1.34525 1.64367 0
M  V30 1869 H 173.397 0.550733 0.771619 0
M  V30 1870 H 173.103 1.53258 3.16552 0
M  V30 1871 H 172.977 -0.109802 3.7704 0
M  V30 1872 H 175.364 -0.575029 2.89443 0
M  V30 1873 H 175.445 1.09392 2.3123 0
M  V30 1874 H 175.089 1.92104 4.70168 0
M  V30 1875 H 175.019 0.23103 5.26093 0
M  V30 1876 H 177.51 0.568038 3.73606 0
M  V30 1877 H 177.823 1.776 7.52116 0
M  V30 1878 H 176.168 1.59044 6.76557 0
M  V30 1879 H 179.359 0.786803 4.6144 0
M  V30 1880 H 179.532 1.33742 6.34048 0
M  V30 1881 N 172.938 -1.57226 0.108567 0
M  V30 1882 C 174.349 -1.8195 -0.418464 0
M  V30 1883 C 174.7 -1.02508 -1.67292 0
M  V30 1884 O 173.825 -0.258496 -2.14851 0
M  V30 1885 C 174.42 -3.30028 -0.765979 0
M  V30 1886 C 172.979 -3.55469 -1.23769 0
M  V30 1887 C 172.126 -2.7625 -0.241106 0
M  V30 1888 H 175.077 -1.55149 0.33384 0
M  V30 1889 H 175.098 -3.44086 -1.62434 0
M  V30 1890 H 174.61 -3.87821 0.147219 0
M  V30 1891 H 172.711 -3.03022 -2.16814 0
M  V30 1892 H 172.824 -4.6408 -1.19022 0
M  V30 1893 H 171.188 -2.44133 -0.72602 0
M  V30 1894 H 171.971 -3.36797 0.665007 0
M  V30 1895 N 174.416 0.165178 -1.56732 0
M  V30 1896 C 175.641 0.900253 -1.86843 0
M  V30 1897 C 176.066 1.74766 -0.695596 0
M  V30 1898 O 175.424 1.77786 0.35522 0
M  V30 1899 C 175.472 1.74777 -3.15413 0
M  V30 1900 O 174.576 2.85007 -2.98068 0
M  V30 1901 H 173.917 0.251832 -0.614391 0
M  V30 1902 H 176.447 0.161468 -2.03962 0
M  V30 1903 H 176.457 2.14646 -3.46974 0
M  V30 1904 H 175.132 1.12537 -4.00385 0
M  V30 1905 H 173.709 2.48676 -2.77875 0
M  V30 1906 N 175.894 1.51508 0.433938 0
M  V30 1907 C 176.841 1.73068 1.52696 0
M  V30 1908 C 177.811 0.572441 1.55924 0
M  V30 1909 O 178.996 0.807253 1.72882 0
M  V30 1910 C 176.136 1.86474 2.90381 0
M  V30 1911 C 175.249 3.14037 2.96656 0
M  V30 1912 C 174.384 3.18019 4.25485 0
M  V30 1913 C 173.423 4.39882 4.2564 0
M  V30 1914 N 172.56 4.41394 5.45999 0
M  V30 1915 H 177.4 2.66366 1.33615 0
M  V30 1916 H 174.937 1.32008 0.649018 0
M  V30 1917 H 176.895 1.92229 3.70275 0
M  V30 1918 H 175.525 0.965809 3.08013 0
M  V30 1919 H 174.577 3.17575 2.09404 0
M  V30 1920 H 175.889 4.0394 2.92633 0
M  V30 1921 H 175.043 3.22708 5.13755 0
M  V30 1922 H 173.782 2.2601 4.3217 0
M  V30 1923 H 172.787 4.35366 3.35763 0
M  V30 1924 H 174.012 5.33159 4.20617 0
M  V30 1925 H 171.958 3.52258 5.53399 0
M  V30 1926 H 171.875 5.25111 5.4387 0
M  V30 1927 H 173.143 4.50281 6.36292 0
M  V30 1928 N 177.372 -0.689602 1.41712 0
M  V30 1929 C 178.282 -1.83314 1.46401 0
M  V30 1930 C 179.298 -1.7036 0.35405 0
M  V30 1931 O 180.474 -1.92171 0.602692 0
M  V30 1932 C 177.539 -3.19344 1.34982 0
M  V30 1933 C 176.6 -3.44363 2.56344 0
M  V30 1934 C 175.833 -4.73904 2.45461 0
M  V30 1935 O 176.056 -5.508 1.48241 0
M  V30 1936 O 174.99 -4.99839 3.35328 0
M  V30 1937 H 178.816 -1.82314 2.42889 0
M  V30 1938 H 176.401 -0.843438 1.23315 0
M  V30 1939 H 178.283 -4.00547 1.3092 0
M  V30 1940 H 176.958 -3.21014 0.41612 0
M  V30 1941 H 175.865 -2.63067 2.65982 0
M  V30 1942 H 177.198 -3.47512 3.48563 0
M  V30 1943 N 178.85 -1.27639 -0.924453 0
M  V30 1944 C 180.096 -1.14336 -1.67497 0
M  V30 1945 C 180.429 0.309465 -1.91718 0
M  V30 1946 O 179.704 1.22608 -1.50989 0
M  V30 1947 C 179.987 -1.93096 -3.0395 0
M  V30 1948 C 179.84 -3.46381 -2.8695 0
M  V30 1949 C 181.159 -1.73798 -4.0433 0
M  V30 1950 H 178.278 -0.416728 -0.607871 0
M  V30 1951 H 180.92 -1.56832 -1.07256 0
M  V30 1952 H 179.07 -1.56982 -3.55372 0
M  V30 1953 H 180.742 -3.92343 -2.42621 0
M  V30 1954 H 178.985 -3.72557 -2.22225 0
M  V30 1955 H 179.656 -3.96735 -3.83804 0
M  V30 1956 H 182.132 -2.05293 -3.61931 0
M  V30 1957 H 181.008 -2.31294 -4.97789 0
M  V30 1958 H 181.269 -0.686725 -4.36734 0
M  V30 1959 N 180.328 1.1314 -1.09713 0
M  V30 1960 C 181.238 2.22242 -0.751367 0
M  V30 1961 C 182.254 1.72224 0.247938 0
M  V30 1962 O 183.43 2.01205 0.0885463 0
M  V30 1963 C 180.495 3.46231 -0.180274 0
M  V30 1964 C 179.556 4.11125 -1.2359 0
M  V30 1965 C 178.789 5.29195 -0.691966 0
M  V30 1966 O 179.012 5.68342 0.48414 0
M  V30 1967 O 177.946 5.84214 -1.44838 0
M  V30 1968 H 181.772 2.54197 -1.66186 0
M  V30 1969 H 179.357 1.21331 -0.871735 0
M  V30 1970 H 181.239 4.21185 0.134739 0
M  V30 1971 H 179.914 3.1597 0.703185 0
M  V30 1972 H 178.821 3.37985 -1.60366 0
M  V30 1973 H 180.154 4.45524 -2.09211 0
M  V30 1974 N 181.806 0.884767 1.30421 0
M  V30 1975 C 183.031 0.517288 2.00845 0
M  V30 1976 C 183.456 -0.886779 1.65885 0
M  V30 1977 O 182.814 -1.58768 0.875354 0
M  V30 1978 C 182.862 0.698994 3.5376 0
M  V30 1979 O 181.966 -0.255208 4.1161 0
M  V30 1980 H 181.307 0.203872 0.631927 0
M  V30 1981 H 183.837 1.19225 1.66272 0
M  V30 1982 H 183.847 0.597912 4.03595 0
M  V30 1983 H 182.522 1.72271 3.78544 0
M  V30 1984 H 181.099 -0.10784 3.72744 0
M  V30 1985 N 183.284 -1.43765 0.645699 0
M  V30 1986 C 184.531 -2.01898 0.15604 0
M  V30 1987 C 184.859 -1.50887 -1.22733 0
M  V30 1988 O 184.114 -0.689271 -1.8316 0
M  V30 1989 C 184.413 -3.57238 0.107679 0
M  V30 1990 C 184.079 -4.27564 1.43178 0
M  V30 1991 C 182.741 -4.46492 1.7944 0
M  V30 1992 C 185.093 -4.67454 2.30513 0
M  V30 1993 C 182.421 -5.02573 3.02716 0
M  V30 1994 C 184.773 -5.24901 3.53074 0
M  V30 1995 C 183.437 -5.42046 3.89541 0
M  V30 1996 H 182.707 -0.738797 0.057099 0
M  V30 1997 H 185.354 -1.72341 0.834912 0
M  V30 1998 H 183.659 -3.86293 -0.654618 0
M  V30 1999 H 185.356 -3.99965 -0.287938 0
M  V30 2000 H 181.946 -4.13171 1.13963 0
M  V30 2001 H 186.13 -4.5253 2.0379 0
M  V30 2002 H 181.386 -5.14033 3.31028 0
M  V30 2003 H 185.56 -5.54758 4.20971 0
M  V30 2004 H 183.187 -5.85268 4.85145 0
M  V30 2005 N 184.763 -0.387143 -1.52771 0
M  V30 2006 C 185.726 0.436939 -2.24997 0
M  V30 2007 C 186.726 0.991991 -1.26555 0
M  V30 2008 O 187.916 0.874335 -1.50669 0
M  V30 2009 C 185.048 1.61281 -3.00335 0
M  V30 2010 H 186.241 -0.195365 -2.99263 0
M  V30 2011 H 183.794 -0.139218 -1.55679 0
M  V30 2012 H 184.529 2.2826 -2.30364 0
M  V30 2013 H 184.314 1.22154 -3.72587 0
M  V30 2014 H 185.804 2.19629 -3.5518 0
M  V30 2015 N 186.241 1.57166 -0.116904 0
M  V30 2016 C 187.657 1.5779 0.239693 0
M  V30 2017 C 187.857 1.1295 1.66867 0
M  V30 2018 O 186.913 0.81592 2.38954 0
M  V30 2019 C 188.226 3.00699 0.00828202 0
M  V30 2020 C 189.774 3.12912 0.0743438 0
M  V30 2021 C 190.249 4.57817 -0.129348 0
M  V30 2022 N 191.74 4.63139 -0.075247 0
M  V30 2023 C 192.475 5.73023 -0.207788 0
M  V30 2024 N 191.971 6.91665 -0.396382 0
M  V30 2025 N 193.764 5.61906 -0.14751 0
M  V30 2026 H 185.915 1.84615 -1.05029 0
M  V30 2027 H 188.178 0.85311 -0.41341 0
M  V30 2028 H 187.884 3.37784 -0.979531 0
M  V30 2029 H 187.758 3.69848 0.741077 0
M  V30 2030 H 190.145 2.75686 1.05268 0
M  V30 2031 H 190.226 2.4631 -0.690297 0
M  V30 2032 H 189.87 4.95742 -1.10465 0
M  V30 2033 H 189.8 5.22507 0.655253 0
M  V30 2034 H 192.291 3.7784 0.0670898 0
M  V30 2035 H 192.604 7.71255 -0.488437 0
M  V30 2036 H 190.949 6.93654 -0.432329 0
M  V30 2037 H 194.14 4.681 -0.00115036 0
M  V30 2038 H 194.313 6.47501 -0.254247 0
M  V30 2039 N 187.719 -0.156864 1.56817 0
M  V30 2040 C 188.666 -1.19394 1.97519 0
M  V30 2041 C 189.636 -1.4322 0.841265 0
M  V30 2042 O 190.821 -1.55719 1.10255 0
M  V30 2043 C 187.961 -2.52483 2.35258 0
M  V30 2044 C 187.074 -2.35914 3.61896 0
M  V30 2045 C 186.209 -3.61969 3.88782 0
M  V30 2046 C 185.248 -3.40395 5.08722 0
M  V30 2047 N 184.385 -4.58556 5.31668 0
M  V30 2048 H 189.225 -0.839845 2.85921 0
M  V30 2049 H 186.762 -0.403264 1.41464 0
M  V30 2050 H 188.72 -3.30071 2.55165 0
M  V30 2051 H 187.35 -2.85859 1.49949 0
M  V30 2052 H 186.402 -1.49429 3.49821 0
M  V30 2053 H 187.714 -2.15926 4.49641 0
M  V30 2054 H 186.868 -4.47989 4.09135 0
M  V30 2055 H 185.607 -3.84951 2.9944 0
M  V30 2056 H 184.612 -2.52763 4.88253 0
M  V30 2057 H 185.837 -3.18822 5.99608 0
M  V30 2058 H 183.783 -4.81729 4.45279 0
M  V30 2059 H 183.7 -4.41535 6.13664 0
M  V30 2060 H 184.968 -5.45817 5.5651 0
M  V30 2061 N 189.197 -1.51736 -0.425897 0
M  V30 2062 C 190.145 -1.74464 -1.53834 0
M  V30 2063 C 191.139 -0.611241 -1.57988 0
M  V30 2064 O 192.345 -0.792899 -1.61596 0
M  V30 2065 H 188.72 -0.551437 -0.511293 0
M  V30 2066 H 190.691 -2.67694 -1.31843 0
M  V30 2067 C 189.44 -1.8972 -2.91379 0
M  V30 2068 H 188.763 -2.76344 -2.88919 0
M  V30 2069 H 190.203 -2.09629 -3.68553 0
M  V30 2070 C 188.662 -0.65992 -3.30374 0
M  V30 2071 O 189.192 0.180083 -4.01296 0
M  V30 2072 N 187.398 -0.500677 -2.86254 0
M  V30 2073 H 186.945 -1.18532 -2.28709 0
M  V30 2074 H 186.903 0.325903 -3.12706 0
M  V30 2075 N 190.675 0.682077 -1.42076 0
M  V30 2076 C 191.905 1.46844 -1.45329 0
M  V30 2077 C 192.313 1.89102 -0.0609328 0
M  V30 2078 O 191.656 1.58238 0.933082 0
M  V30 2079 C 191.718 2.75375 -2.31104 0
M  V30 2080 C 191.382 2.55238 -3.79081 0
M  V30 2081 C 192.379 2.20309 -4.70914 0
M  V30 2082 C 190.064 2.70459 -4.2327 0
M  V30 2083 C 192.058 2.00859 -6.04925 0
M  V30 2084 C 189.745 2.50624 -5.57343 0
M  V30 2085 C 190.743 2.15876 -6.47986 0
M  V30 2086 O 190.431 1.96227 -7.79583 0
M  V30 2087 H 190.163 0.4586 -0.496651 0
M  V30 2088 H 192.717 0.846131 -1.87162 0
M  V30 2089 H 190.947 3.40061 -1.84107 0
M  V30 2090 H 192.636 3.37231 -2.25898 0
M  V30 2091 H 193.402 2.08153 -4.38061 0
M  V30 2092 H 189.281 2.96485 -3.53012 0
M  V30 2093 H 192.825 1.7366 -6.75639 0
M  V30 2094 H 188.722 2.62375 -5.89771 0
M  V30 2095 H 189.49 2.10883 -7.90867 0
M  V30 2096 N 192.153 1.28127 0.917671 0
M  V30 2097 C 193.401 1.14825 1.66312 0
M  V30 2098 C 193.722 -0.304379 1.9261 0
M  V30 2099 O 192.992 -1.21149 1.53947 0
M  V30 2100 H 191.572 0.421953 0.616413 0
M  V30 2101 H 194.234 1.608 1.10134 0
M  V30 2102 H 193.33 1.68489 2.62712 0
M  V30 2103 N 193.631 -1.12557 1.10312 0
M  V30 2104 C 194.877 -1.84311 0.846011 0
M  V30 2105 C 195.21 -1.83805 -0.626859 0
M  V30 2106 O 194.485 -1.28268 -1.46211 0
M  V30 2107 C 194.768 -3.32048 1.39341 0
M  V30 2108 C 194.621 -3.41016 2.93305 0
M  V30 2109 C 195.94 -4.27764 1.03468 0
M  V30 2110 H 193.059 -0.669192 0.30879 0
M  V30 2111 H 195.701 -1.32057 1.36605 0
M  V30 2112 H 193.851 -3.76678 0.951087 0
M  V30 2113 H 195.523 -3.05031 3.46055 0
M  V30 2114 H 193.766 -2.81603 3.29973 0
M  V30 2115 H 194.437 -4.44948 3.26689 0
M  V30 2116 H 196.913 -3.91253 1.41633 0
M  V30 2117 H 195.789 -5.29549 1.44463 0
M  V30 2118 H 196.05 -4.42064 -0.0560404 0
M  V30 2119 N 195.109 -0.891671 -1.2995 0
M  V30 2120 C 196.337 -0.52866 -2.00032 0
M  V30 2121 C 196.752 0.884574 -1.66795 0
M  V30 2122 O 196.109 1.5827 -0.908669 0
M  V30 2123 C 196.16 -0.701814 -3.54622 0
M  V30 2124 O 195.881 -2.05942 -3.86678 0
M  V30 2125 C 197.382 -0.342683 -4.41973 0
M  V30 2126 H 194.602 -0.203659 -0.639347 0
M  V30 2127 H 197.146 -1.19881 -1.65677 0
M  V30 2128 H 195.301 -0.0789468 -3.8732 0
M  V30 2129 H 195.715 -2.08291 -4.81368 0
M  V30 2130 H 197.189 -0.514709 -5.49595 0
M  V30 2131 H 197.666 0.71975 -4.33262 0
M  V30 2132 H 198.272 -0.942154 -4.14733 0
M  V30 2133 N 196.587 1.43421 -0.653314 0
M  V30 2134 C 197.834 2.01812 -0.166745 0
M  V30 2135 C 198.162 1.51535 1.21931 0
M  V30 2136 O 197.417 0.698975 1.82792 0
M  V30 2137 C 197.716 3.57176 -0.126623 0
M  V30 2138 C 197.382 4.26798 -1.45444 0
M  V30 2139 C 196.044 4.45534 -1.81805 0
M  V30 2140 C 198.396 4.66225 -2.32989 0
M  V30 2141 C 195.724 5.00961 -3.05377 0
M  V30 2142 C 198.076 5.23021 -3.55853 0
M  V30 2143 C 196.74 5.39973 -3.9241 0
M  V30 2144 H 196.01 0.738484 -0.0610162 0
M  V30 2145 H 198.657 1.71896 -0.84404 0
M  V30 2146 H 196.962 3.86634 0.634123 0
M  V30 2147 H 198.659 4.00112 0.266723 0
M  V30 2148 H 195.249 4.12561 -1.16153 0
M  V30 2149 H 199.433 4.51443 -2.06187 0
M  V30 2150 H 194.689 5.12271 -3.3375 0
M  V30 2151 H 198.863 5.52518 -4.23907 0
M  V30 2152 H 196.49 5.82687 -4.88242 0
M  V30 2153 N 198.065 0.39524 1.52563 0
M  V30 2154 C 199.476 -0.0774719 1.86539 0
M  V30 2155 C 199.827 -1.45641 1.31466 0
M  V30 2156 O 198.952 -2.06459 0.648367 0
M  V30 2157 C 199.547 -0.147356 3.38479 0
M  V30 2158 C 198.106 -0.564373 3.72145 0
M  V30 2159 C 197.253 0.269919 2.75983 0
M  V30 2160 H 200.204 0.612876 1.46388 0
M  V30 2161 H 200.225 -0.965343 3.68051 0
M  V30 2162 H 199.737 0.856387 3.78534 0
M  V30 2163 H 197.838 -1.57527 3.37663 0
M  V30 2164 H 197.951 -0.318402 4.78041 0
M  V30 2165 H 196.315 -0.265696 2.5331 0
M  V30 2166 H 197.098 1.27175 3.18875 0
M  V30 2167 N 199.544 -1.57102 0.125237 0
M  V30 2168 C 200.793 -1.94582 -0.531095 0
M  V30 2169 C 201.106 -1.01126 -1.6743 0
M  V30 2170 O 202.312 -1.28097 -2.39381 0
M  V30 2171 C 200.768 -3.45839 -0.996164 0
M  V30 2172 C 200.376 -4.47842 0.118926 0
M  V30 2173 C 202.12 -3.92227 -1.62352 0
M  V30 2174 C 200.027 -5.90284 -0.363192 0
M  V30 2175 H 198.957 -0.726391 -0.20217 0
M  V30 2176 H 201.608 -1.82339 0.206092 0
M  V30 2177 H 199.99 -3.53338 -1.78796 0
M  V30 2178 H 201.164 -4.52018 0.895358 0
M  V30 2179 H 199.479 -4.11243 0.653324 0
M  V30 2180 H 202.076 -4.96069 -1.99548 0
M  V30 2181 H 202.419 -3.32552 -2.50429 0
M  V30 2182 H 202.952 -3.87554 -0.897019 0
M  V30 2183 H 199.691 -6.53728 0.481679 0
M  V30 2184 H 199.211 -5.89515 -1.10597 0
M  V30 2185 H 200.89 -6.41752 -0.822377 0
M  V30 2186 N 201.022 0.148545 -1.56898 0
M  V30 2187 C 202.269 0.861418 -1.83264 0
M  V30 2188 C 202.597 1.81239 -0.705883 0
M  V30 2189 O 201.852 1.93305 0.305212 0
M  V30 2190 C 202.151 1.67064 -3.1595 0
M  V30 2191 C 201.817 0.866591 -4.42494 0
M  V30 2192 C 200.479 0.644762 -4.76861 0
M  V30 2193 C 202.831 0.30418 -5.20312 0
M  V30 2194 C 200.159 -0.15021 -5.86508 0
M  V30 2195 C 202.511 -0.477824 -6.30793 0
M  V30 2196 C 201.175 -0.710244 -6.63711 0
M  V30 2197 H 200.445 0.315215 -0.670612 0
M  V30 2198 H 203.092 0.125142 -1.91091 0
M  V30 2199 H 201.397 2.47698 -3.03567 0
M  V30 2200 H 203.094 2.22566 -3.33565 0
M  V30 2201 H 199.684 1.04955 -4.15551 0
M  V30 2202 H 203.868 0.462844 -4.94137 0
M  V30 2203 H 199.124 -0.339796 -6.10455 0
M  V30 2204 H 203.298 -0.92076 -6.90286 0
M  V30 2205 H 200.925 -1.3281 -7.48509 0
M  V30 2206 N 202.5 1.5196 0.417844 0
M  V30 2207 C 203.45 1.7106 1.5074 0
M  V30 2208 C 204.434 0.564487 1.50673 0
M  V30 2209 O 205.626 0.821206 1.56797 0
M  V30 2210 C 202.755 1.85677 2.88754 0
M  V30 2211 C 201.841 3.06133 2.93502 0
M  V30 2212 N 202.232 4.28987 2.67962 0
M  V30 2213 C 200.53 3.05787 3.24669 0
M  V30 2214 C 201.231 5.10395 2.79055 0
M  V30 2215 N 200.207 4.45455 3.11561 0
M  V30 2216 H 204.009 2.63696 1.29775 0
M  V30 2217 H 201.523 1.49873 0.625436 0
M  V30 2218 H 203.52 1.97475 3.67164 0
M  V30 2219 H 202.18 0.942348 3.10725 0
M  V30 2220 H 203.191 4.57607 2.4252 0
M  V30 2221 H 199.868 2.2405 3.52289 0
M  V30 2222 H 201.258 6.18247 2.63097 0
M  V30 2223 N 203.978 -0.674533 1.42435 0
M  V30 2224 C 204.925 -1.78807 1.45934 0
M  V30 2225 C 205.895 -1.63157 0.311271 0
M  V30 2226 O 207.08 -1.83707 0.515383 0
M  V30 2227 C 204.22 -3.16839 1.36773 0
M  V30 2228 C 203.333 -3.43774 2.61617 0
M  V30 2229 C 202.468 -4.71536 2.44597 0
M  V30 2230 C 201.507 -4.91505 3.64814 0
M  V30 2231 N 200.644 -6.10508 3.46734 0
M  V30 2232 H 205.484 -1.75151 2.41093 0
M  V30 2233 H 203.021 -0.85504 1.19697 0
M  V30 2234 H 204.979 -3.96606 1.29459 0
M  V30 2235 H 203.609 -3.19619 0.452089 0
M  V30 2236 H 202.661 -2.58259 2.79297 0
M  V30 2237 H 203.973 -3.54423 3.50978 0
M  V30 2238 H 203.127 -5.59393 2.3487 0
M  V30 2239 H 201.866 -4.6317 1.52726 0
M  V30 2240 H 200.871 -4.0209 3.74972 0
M  V30 2241 H 202.096 -5.01716 4.57665 0
M  V30 2242 H 200.042 -6.03315 2.5758 0
M  V30 2243 H 199.959 -6.2202 4.29682 0
M  V30 2244 H 201.227 -7.01044 3.40819 0
M  V30 2245 N 205.456 -1.28612 -0.910864 0
M  V30 2246 C 206.705 -1.15311 -1.65488 0
M  V30 2247 C 207.018 0.296999 -1.93332 0
M  V30 2248 O 208.224 0.551168 -2.65847 0
M  V30 2249 C 206.68 -2.01599 -2.98137 0
M  V30 2250 C 206.288 -3.51367 -2.7793 0
M  V30 2251 C 208.032 -1.96993 -3.76024 0
M  V30 2252 C 205.939 -4.29797 -4.06237 0
M  V30 2253 H 204.869 -0.42796 -0.620779 0
M  V30 2254 H 207.52 -1.53166 -1.01057 0
M  V30 2255 H 205.902 -1.56603 -3.63719 0
M  V30 2256 H 207.076 -4.0434 -2.21011 0
M  V30 2257 H 205.391 -3.57529 -2.13452 0
M  V30 2258 H 207.988 -2.52856 -4.71135 0
M  V30 2259 H 208.331 -0.94733 -4.05378 0
M  V30 2260 H 208.864 -2.39973 -3.17266 0
M  V30 2261 H 205.603 -5.32648 -3.82055 0
M  V30 2262 H 205.123 -3.81596 -4.62757 0
M  V30 2263 H 206.802 -4.39869 -4.74473 0
M  V30 2264 N 206.934 1.1197 -1.10907 0
M  V30 2265 C 207.881 2.17846 -0.762345 0
M  V30 2266 C 208.851 1.63995 0.263599 0
M  V30 2267 O 210.036 1.90273 0.141773 0
M  V30 2268 C 207.176 3.44487 -0.205651 0
M  V30 2269 C 206.289 4.12369 -1.28748 0
M  V30 2270 C 205.424 5.26674 -0.691919 0
M  V30 2271 C 204.463 5.86431 -1.75399 0
M  V30 2272 N 203.6 6.92142 -1.17833 0
M  V30 2273 H 208.44 2.46851 -1.6694 0
M  V30 2274 H 205.977 1.21188 -0.833776 0
M  V30 2275 H 207.935 4.16981 0.135037 0
M  V30 2276 H 206.565 3.15884 0.664613 0
M  V30 2277 H 205.617 3.38003 -1.74522 0
M  V30 2278 H 206.929 4.52844 -2.09125 0
M  V30 2279 H 206.083 6.05953 -0.300963 0
M  V30 2280 H 204.822 4.8749 0.143232 0
M  V30 2281 H 203.827 5.05835 -2.15432 0
M  V30 2282 H 205.052 6.27685 -2.59208 0
M  V30 2283 H 202.998 6.54985 -0.364725 0
M  V30 2284 H 202.915 7.31242 -1.91887 0
M  V30 2285 H 204.183 7.75237 -0.81408 0
M  V30 2286 N 208.412 0.89855 1.29475 0
M  V30 2287 C 209.661 0.519863 1.94885 0
M  V30 2288 C 209.974 -0.9383 1.71625 0
M  V30 2289 O 211.18 -1.42445 2.31131 0
M  V30 2290 C 209.636 0.878836 3.49005 0
M  V30 2291 C 209.244 2.35569 3.81066 0
M  V30 2292 C 210.988 0.570004 4.20656 0
M  V30 2293 C 208.895 2.65558 5.28425 0
M  V30 2294 H 207.825 0.190692 0.729488 0
M  V30 2295 H 210.476 1.09539 1.47219 0
M  V30 2296 H 208.858 0.232253 3.95318 0
M  V30 2297 H 210.032 3.04773 3.45616 0
M  V30 2298 H 208.347 2.63343 3.22552 0
M  V30 2299 H 210.944 0.770925 5.29113 0
M  V30 2300 H 211.287 -0.491404 4.1339 0
M  V30 2301 H 211.82 1.17438 3.8007 0
M  V30 2302 H 208.559 3.70493 5.40754 0
M  V30 2303 H 208.079 2.00977 5.65127 0
M  V30 2304 H 209.758 2.51765 5.96006 0
M  V30 2305 N 209.89 -1.43072 0.660911 0
M  V30 2306 C 210.82 -2.33497 -0.0122829 0
M  V30 2307 C 211.801 -1.49903 -0.803925 0
M  V30 2308 O 212.986 -1.78546 -0.763864 0
M  V30 2309 C 210.116 -3.33363 -0.973994 0
M  V30 2310 C 209.07 -4.27003 -0.291928 0
M  V30 2311 C 208.396 -5.16967 -1.36562 0
M  V30 2312 C 209.696 -5.15816 0.820462 0
M  V30 2313 H 211.39 -2.90038 0.742873 0
M  V30 2314 H 208.936 -1.39461 0.358688 0
M  V30 2315 H 210.889 -3.95524 -1.45392 0
M  V30 2316 H 209.613 -2.75095 -1.7604 0
M  V30 2317 H 208.272 -3.66217 0.167623 0
M  V30 2318 H 207.92 -4.55034 -2.14366 0
M  V30 2319 H 207.62 -5.80441 -0.914454 0
M  V30 2320 H 209.144 -5.82003 -1.84675 0
M  V30 2321 H 210.558 -5.71742 0.422366 0
M  V30 2322 H 208.955 -5.8805 1.19656 0
M  V30 2323 H 210.025 -4.55045 1.67518 0
M  V30 2324 N 211.368 -0.403325 -1.52352 0
M  V30 2325 C 212.616 0.174003 -2.0135 0
M  V30 2326 C 212.937 1.46139 -1.29106 0
M  V30 2327 O 212.207 1.91448 -0.415253 0
M  V30 2328 H 210.787 0.0672911 -0.743963 0
M  V30 2329 H 213.449 -0.538235 -1.87321 0
M  V30 2330 H 212.545 0.374254 -3.09848 0
M  V30 2331 N 212.846 1.57033 -0.133567 0
M  V30 2332 C 214.071 2.00475 0.531477 0
M  V30 2333 C 214.496 1.01291 1.58499 0
M  V30 2334 O 213.854 -0.0133279 1.81295 0
M  V30 2335 C 213.902 3.42729 1.12113 0
M  V30 2336 O 213.006 3.46498 2.23636 0
M  V30 2337 H 212.347 0.650876 0.131362 0
M  V30 2338 H 214.877 2.03344 -0.22634 0
M  V30 2339 H 214.887 3.81246 1.4531 0
M  V30 2340 H 213.562 4.14428 0.349557 0
M  V30 2341 H 212.139 3.19811 1.91769 0
M  V30 2342 N 214.325 -0.140222 1.56975 0
M  V30 2343 C 215.235 -1.19223 2.02047 0
M  V30 2344 C 216.251 -1.46612 0.937062 0
M  V30 2345 O 217.427 -1.58148 1.24704 0
M  V30 2346 C 214.492 -2.50414 2.39778 0
M  V30 2347 C 213.553 -2.30612 3.621 0
M  V30 2348 C 212.786 -3.55547 3.98023 0
M  V30 2349 O 213.009 -4.62004 3.34528 0
M  V30 2350 O 211.943 -3.47808 4.91237 0
M  V30 2351 H 215.769 -0.839559 2.91865 0
M  V30 2352 H 213.354 -0.349453 1.45256 0
M  V30 2353 H 215.236 -3.27747 2.64877 0
M  V30 2354 H 213.911 -2.85198 1.53114 0
M  V30 2355 H 212.818 -1.51207 3.4218 0
M  V30 2356 H 214.151 -2.00741 4.49404 0
M  V30 2357 N 215.803 -1.52179 -0.40978 0
M  V30 2358 C 217.051 -1.65878 -1.15451 0
M  V30 2359 C 217.372 -0.390771 -1.91044 0
M  V30 2360 O 216.642 0.594323 -1.86667 0
M  V30 2361 H 215.222 -0.611405 -0.429177 0
M  V30 2362 H 217.884 -1.89219 -0.467134 0
M  V30 2363 H 216.98 -2.49954 -1.86894 0
M  V30 2364 N 217.281 0.66697 -1.42791 0
M  V30 2365 C 218.191 1.80962 -1.49299 0
M  V30 2366 C 219.207 1.69775 -0.381108 0
M  V30 2367 O 220.383 1.91188 -0.633188 0
M  V30 2368 C 217.448 3.17156 -1.40045 0
M  V30 2369 C 216.509 3.40242 -2.6179 0
M  V30 2370 C 215.742 4.69939 -2.52969 0
M  V30 2371 O 215.965 5.48372 -1.56985 0
M  V30 2372 O 214.899 4.94441 -3.43237 0
M  V30 2373 H 218.725 1.78427 -2.45759 0
M  V30 2374 H 216.31 0.823713 -1.24641 0
M  V30 2375 H 218.192 3.98413 -1.37276 0
M  V30 2376 H 216.867 3.20312 -0.467138 0
M  V30 2377 H 215.774 2.58802 -2.70134 0
M  V30 2378 H 217.107 3.41923 -3.54047 0
M  V30 2379 N 218.759 1.29093 0.90403 0
M  V30 2380 C 220.17 1.15186 1.46932 0
M  V30 2381 C 220.521 -0.254587 1.94541 0
M  V30 2382 O 219.646 -1.14972 1.83332 0
M  V30 2383 C 220.241 2.08492 2.67051 0
M  V30 2384 C 218.8 1.98621 3.19729 0
M  V30 2385 C 217.947 1.9967 1.92425 0
M  V30 2386 H 220.898 1.41641 0.715789 0
M  V30 2387 H 220.919 1.65461 3.42641 0
M  V30 2388 H 220.431 3.10847 2.3237 0
M  V30 2389 H 218.532 0.993389 3.59114 0
M  V30 2390 H 218.645 2.86068 3.8432 0
M  V30 2391 H 217.009 1.44208 2.09943 0
M  V30 2392 H 217.792 3.03721 1.60026 0
M  V30 2393 N 220.237 -1.11381 1.11499 0
M  V30 2394 C 221.2 -2.15622 0.777153 0
M  V30 2395 C 222.2 -1.59504 -0.203779 0
M  V30 2396 O 223.39 -1.74188 0.020782 0
M  V30 2397 C 220.522 -3.40556 0.153116 0
M  V30 2398 H 221.715 -2.47021 1.70061 0
M  V30 2399 H 219.268 -1.26577 0.916952 0
M  V30 2400 H 220.003 -3.14767 -0.780536 0
M  V30 2401 H 219.788 -3.8257 0.859238 0
M  V30 2402 H 221.278 -4.17546 -0.0671044 0
M  V30 2403 N 221.715 -0.905404 -1.28997 0
M  V30 2404 C 222.962 -0.534248 -1.95325 0
M  V30 2405 C 223.29 0.920535 -1.71337 0
M  V30 2406 O 222.545 1.66861 -1.02254 0
M  V30 2407 C 222.844 -0.779906 -3.48787 0
M  V30 2408 C 222.51 -2.21293 -3.92861 0
M  V30 2409 C 221.172 -2.60475 -4.04606 0
M  V30 2410 C 223.524 -3.14587 -4.15553 0
M  V30 2411 C 220.852 -3.9212 -4.36416 0
M  V30 2412 C 223.204 -4.45787 -4.48839 0
M  V30 2413 C 221.868 -4.84834 -4.58794 0
M  V30 2414 H 221.138 -0.195495 -0.714747 0
M  V30 2415 H 223.785 -1.14514 -1.53488 0
M  V30 2416 H 222.09 -0.0861365 -3.91705 0
M  V30 2417 H 223.787 -0.472029 -3.98212 0
M  V30 2418 H 220.377 -1.89887 -3.84241 0
M  V30 2419 H 224.561 -2.85528 -4.0594 0
M  V30 2420 H 219.817 -4.22086 -4.42327 0
M  V30 2421 H 223.991 -5.18098 -4.65346 0
M  V30 2422 H 221.618 -5.86877 -4.83197 0
M  V30 2423 N 223.193 1.4272 -0.668489 0
M  V30 2424 C 224.609 1.55992 -0.33745 0
M  V30 2425 C 224.809 1.64933 1.15756 0
M  V30 2426 O 223.865 1.61278 1.94282 0
M  V30 2427 C 225.178 2.81314 -1.06222 0
M  V30 2428 C 226.726 2.95078 -1.04394 0
M  V30 2429 C 227.201 4.23252 -1.74991 0
M  V30 2430 N 228.692 4.3015 -1.71829 0
M  V30 2431 C 229.427 5.28127 -2.23315 0
M  V30 2432 N 228.923 6.32293 -2.83156 0
M  V30 2433 N 230.716 5.19882 -2.13726 0
M  V30 2434 H 222.867 1.3516 -1.63846 0
M  V30 2435 H 225.13 0.650174 -0.689912 0
M  V30 2436 H 224.836 2.80823 -2.11734 0
M  V30 2437 H 224.71 3.72012 -0.62344 0
M  V30 2438 H 227.097 2.951 0.0028244 0
M  V30 2439 H 227.178 2.05627 -1.52155 0
M  V30 2440 H 226.822 4.2399 -2.79633 0
M  V30 2441 H 226.752 5.11626 -1.24685 0
M  V30 2442 H 229.243 3.55499 -1.28175 0
M  V30 2443 H 229.556 7.03398 -3.20079 0
M  V30 2444 H 227.901 6.32873 -2.87223 0
M  V30 2445 H 231.092 4.37423 -1.66669 0
M  V30 2446 H 231.265 5.96077 -2.54158 0
M  V30 2447 N 224.671 0.411399 1.52136 0
M  V30 2448 C 225.918 -0.163645 2.01838 0
M  V30 2449 C 226.246 -1.4495 1.29691 0
M  V30 2450 O 225.501 -1.91725 0.392431 0
M  V30 2451 C 225.8 -0.455872 3.54481 0
M  V30 2452 C 225.466 0.741055 4.44769 0
M  V30 2453 C 224.128 1.06936 4.69167 0
M  V30 2454 C 226.48 1.54075 4.97906 0
M  V30 2455 C 223.808 2.19851 5.43951 0
M  V30 2456 C 226.16 2.66067 5.73926 0
M  V30 2457 C 224.824 2.99381 5.96596 0
M  V30 2458 H 224.094 -0.0598821 0.738576 0
M  V30 2459 H 226.741 0.553283 1.83333 0
M  V30 2460 H 225.046 -1.2544 3.71177 0
M  V30 2461 H 226.743 -0.913802 3.90449 0
M  V30 2462 H 223.333 0.475192 4.25958 0
M  V30 2463 H 227.517 1.30033 4.78963 0
M  V30 2464 H 222.773 2.46006 5.59724 0
M  V30 2465 H 226.947 3.28419 6.14096 0
M  V30 2466 H 224.574 3.86992 6.54325 0
M  V30 2467 N 226.149 -1.5696 0.141893 0
M  V30 2468 C 227.079 -2.19516 -0.795936 0
M  V30 2469 C 228.06 -1.14187 -1.26077 0
M  V30 2470 O 229.245 -1.42511 -1.31925 0
M  V30 2471 C 226.375 -2.81272 -2.03723 0
M  V30 2472 C 225.329 -3.92384 -1.70936 0
M  V30 2473 C 224.655 -4.41052 -3.02287 0
M  V30 2474 C 225.955 -5.13403 -0.959954 0
M  V30 2475 H 227.649 -2.98138 -0.274596 0
M  V30 2476 H 225.195 -1.43406 -0.130636 0
M  V30 2477 H 227.148 -3.237 -2.69808 0
M  V30 2478 H 225.872 -1.99973 -2.58221 0
M  V30 2479 H 224.531 -3.50566 -1.07232 0
M  V30 2480 H 224.179 -3.56582 -3.54765 0
M  V30 2481 H 223.879 -5.15993 -2.81114 0
M  V30 2482 H 225.403 -4.86146 -3.69451 0
M  V30 2483 H 226.817 -5.52706 -1.52279 0
M  V30 2484 H 225.214 -5.94073 -0.848357 0
M  V30 2485 H 226.284 -4.84875 0.0492434 0
M  V30 2486 N 227.627 0.131896 -1.57047 0
M  V30 2487 C 228.873 0.843179 -1.84441 0
M  V30 2488 C 229.206 1.80129 -0.725749 0
M  V30 2489 O 228.481 1.92624 0.269469 0
M  V30 2490 C 228.764 1.60442 -3.22382 0
M  V30 2491 C 228.617 0.666782 -4.4483 0
M  V30 2492 C 229.936 2.56354 -3.5773 0
M  V30 2493 H 227.055 0.305081 -0.670891 0
M  V30 2494 H 229.697 0.107839 -1.89694 0
M  V30 2495 H 227.847 2.23128 -3.18035 0
M  V30 2496 H 229.519 0.0497646 -4.61273 0
M  V30 2497 H 227.762 -0.022609 -4.33794 0
M  V30 2498 H 228.433 1.23579 -5.37989 0
M  V30 2499 H 230.909 2.0378 -3.62785 0
M  V30 2500 H 229.785 3.06657 -4.5525 0
M  V30 2501 H 230.046 3.38419 -2.84473 0
M  V30 2502 N 229.106 1.52395 0.401703 0
M  V30 2503 C 230.383 1.57387 1.16141 0
M  V30 2504 C 230.763 0.359359 2.08019 0
M  V30 2505 O 230.111 -0.65326 2.18963 0
M  V30 2506 C 230.321 2.90631 1.93221 0
M  V30 2507 C 231.669 3.43904 2.49028 0
M  V30 2508 O 232.693 2.92421 2.03393 0
M  V30 2509 O 231.552 4.33823 3.32356 0
M  V30 2510 H 228.646 0.634262 0.530698 0
M  V30 2511 H 231.192 1.64725 0.407883 0
M  V30 2512 H 229.964 3.70473 1.25958 0
M  V30 2513 H 229.587 2.8662 2.75563 0
M  V30 2514 N 230.584 -0.659388 1.43143 0
M  V30 2515 C 231.809 -1.45221 1.48073 0
M  V30 2516 C 232.234 -1.87845 0.097995 0
M  V30 2517 O 231.592 -1.56985 -0.90694 0
M  V30 2518 C 231.64 -2.66748 2.42647 0
M  V30 2519 O 230.744 -3.65583 1.90848 0
M  V30 2520 H 230.085 -0.435669 0.501088 0
M  V30 2521 H 232.615 -0.807432 1.87994 0
M  V30 2522 H 232.625 -3.14637 2.59745 0
M  V30 2523 H 231.3 -2.35067 3.43098 0
M  V30 2524 H 229.877 -3.24693 1.83381 0
M  V30 2525 N 232.062 -1.29571 -0.897171 0
M  V30 2526 C 233.287 -1.20705 -1.68656 0
M  V30 2527 C 233.712 0.228582 -1.86706 0
M  V30 2528 O 233.07 1.16494 -1.3892 0
M  V30 2529 C 233.118 -1.9282 -3.04717 0
M  V30 2530 O 232.222 -1.24697 -3.93096 0
M  V30 2531 H 231.563 -0.418126 -0.515816 0
M  V30 2532 H 234.093 -1.71183 -1.12061 0
M  V30 2533 H 234.103 -2.01372 -3.54843 0
M  V30 2534 H 232.778 -2.97239 -2.90899 0
M  V30 2535 H 231.355 -1.2442 -3.51531 0
M  V30 2536 N 233.54 1.10788 -1.12088 0
M  V30 2537 C 234.487 2.17025 -0.785407 0
M  V30 2538 C 235.457 1.64265 0.246191 0
M  V30 2539 O 236.642 1.90412 0.121584 0
M  V30 2540 C 233.782 3.44249 -0.242177 0
M  V30 2541 C 232.895 4.1098 -1.33115 0
M  V30 2542 C 232.03 5.25911 -0.747741 0
M  V30 2543 C 231.069 5.84538 -1.81609 0
M  V30 2544 N 230.206 6.90853 -1.25167 0
M  V30 2545 H 235.046 2.45066 -1.69548 0
M  V30 2546 H 232.583 1.20297 -0.846582 0
M  V30 2547 H 234.541 4.17101 0.0908026 0
M  V30 2548 H 233.171 3.16571 0.631072 0
M  V30 2549 H 232.223 3.36133 -1.78097 0
M  V30 2550 H 233.535 4.50601 -2.13917 0
M  V30 2551 H 232.689 6.056 -0.365216 0
M  V30 2552 H 231.428 4.87614 0.0915188 0
M  V30 2553 H 230.433 5.03522 -2.20785 0
M  V30 2554 H 231.658 6.249 -2.6585 0
M  V30 2555 H 229.604 6.54562 -0.434174 0
M  V30 2556 H 229.521 7.29166 -1.99633 0
M  V30 2557 H 230.789 7.7433 -0.896259 0
M  V30 2558 N 235.018 0.912232 1.28515 0
M  V30 2559 C 235.965 0.397954 2.27343 0
M  V30 2560 C 236.935 -0.526766 1.57526 0
M  V30 2561 O 238.12 -0.449292 1.85435 0
M  V30 2562 C 235.26 -0.357263 3.43246 0
M  V30 2563 C 234.373 0.599788 4.27816 0
M  V30 2564 C 233.508 -0.173725 5.30916 0
M  V30 2565 C 232.547 0.777039 6.07148 0
M  V30 2566 N 231.684 0.0371398 7.0209 0
M  V30 2567 H 236.524 1.24577 2.70711 0
M  V30 2568 H 234.061 0.625612 1.33133 0
M  V30 2569 H 236.019 -0.8113 4.09236 0
M  V30 2570 H 234.649 -1.16943 3.00872 0
M  V30 2571 H 233.701 1.17235 3.61884 0
M  V30 2572 H 235.013 1.32704 4.80823 0
M  V30 2573 H 234.167 -0.688394 6.02782 0
M  V30 2574 H 232.906 -0.934041 4.78672 0
M  V30 2575 H 231.911 1.3031 5.34134 0
M  V30 2576 H 233.136 1.53689 6.61481 0
M  V30 2577 H 231.082 -0.705213 6.52198 0
M  V30 2578 H 230.999 0.704249 7.52713 0
M  V30 2579 H 232.267 -0.457383 7.78157 0
M  V30 2580 N 236.496 -1.42363 0.676048 0
M  V30 2581 C 237.406 -2.346 -0.00153389 0
M  V30 2582 C 238.422 -1.5516 -0.787485 0
M  V30 2583 O 239.598 -1.87723 -0.729521 0
M  V30 2584 C 236.663 -3.33705 -0.940298 0
M  V30 2585 C 235.724 -4.29042 -0.148739 0
M  V30 2586 C 234.957 -5.23413 -1.04279 0
M  V30 2587 O 235.18 -5.22749 -2.28232 0
M  V30 2588 O 234.114 -5.99795 -0.502925 0
M  V30 2589 H 237.94 -2.94082 0.758268 0
M  V30 2590 H 235.525 -1.42888 0.436289 0
M  V30 2591 H 237.407 -3.94586 -1.47917 0
M  V30 2592 H 236.082 -2.76695 -1.67993 0
M  V30 2593 H 234.989 -3.71571 0.43427 0
M  V30 2594 H 236.322 -4.89097 0.551805 0
M  V30 2595 N 237.974 -0.419461 -1.51915 0
M  V30 2596 C 239.385 0.0477853 -1.86639 0
M  V30 2597 C 239.736 1.43531 -1.33766 0
M  V30 2598 O 238.861 2.05401 -0.68113 0
M  V30 2599 C 239.456 0.0934885 -3.38671 0
M  V30 2600 C 238.015 0.505097 -3.72996 0
M  V30 2601 C 237.162 -0.313792 -2.75519 0
M  V30 2602 H 240.113 -0.636088 -1.45395 0
M  V30 2603 H 240.134 0.906667 -3.6954 0
M  V30 2604 H 239.646 -0.916501 -3.77123 0
M  V30 2605 H 237.747 1.52135 -3.40126 0
M  V30 2606 H 237.86 0.242309 -4.78487 0
M  V30 2607 H 236.224 0.225363 -2.53701 0
M  V30 2608 H 237.007 -1.32232 -3.16812 0
M  V30 2609 N 239.452 1.56882 -0.150215 0
M  V30 2610 C 240.868 1.58263 0.20617 0
M  V30 2611 C 241.068 1.16464 1.64434 0
M  V30 2612 O 240.124 0.866422 2.3717 0
M  V30 2613 C 241.437 3.00649 -0.0555025 0
M  V30 2614 C 242.985 3.12999 0.00795388 0
M  V30 2615 C 243.46 4.5744 -0.226429 0
M  V30 2616 N 244.951 4.62875 -0.173469 0
M  V30 2617 C 245.686 5.72454 -0.329288 0
M  V30 2618 N 245.182 6.90669 -0.543005 0
M  V30 2619 N 246.975 5.61467 -0.266666 0
M  V30 2620 H 239.126 1.82345 -1.08922 0
M  V30 2621 H 241.389 0.844149 -0.431413 0
M  V30 2622 H 241.095 3.3563 -1.05096 0
M  V30 2623 H 240.969 3.71337 0.66246 0
M  V30 2624 H 243.356 2.77857 0.993966 0
M  V30 2625 H 243.437 2.4479 -0.742388 0
M  V30 2626 H 243.081 4.93287 -1.20956 0
M  V30 2627 H 243.011 5.2378 0.544274 0
M  V30 2628 H 245.502 3.77898 -0.0130709 0
M  V30 2629 H 245.815 7.70045 -0.651922 0
M  V30 2630 H 244.16 6.92581 -0.579366 0
M  V30 2631 H 247.351 4.67992 -0.100441 0
M  V30 2632 H 247.524 6.46816 -0.391535 0
M  V30 2633 N 240.93 -0.123565 1.57115 0
M  V30 2634 C 242.176 -0.828428 1.85765 0
M  V30 2635 C 242.531 -1.77709 0.737371 0
M  V30 2636 O 241.824 -1.89787 -0.262978 0
M  V30 2637 C 242.018 -1.62016 3.18568 0
M  V30 2638 C 241.847 -0.749663 4.43407 0
M  V30 2639 C 240.617 -0.406251 5.03664 0
M  V30 2640 C 242.815 -0.0693505 5.14253 0
M  V30 2641 N 240.797 0.475389 6.12057 0
M  V30 2642 C 242.168 0.671474 6.16353 0
M  V30 2643 C 244.223 0.00754393 4.97899 0
M  V30 2644 C 242.926 1.48197 7.03868 0
M  V30 2645 C 244.952 0.804845 5.85898 0
M  V30 2646 C 244.314 1.53388 6.87497 0
M  V30 2647 H 240.413 -0.280219 0.73007 0
M  V30 2648 H 242.997 -0.0924183 1.94481 0
M  V30 2649 H 241.168 -2.32724 3.10957 0
M  V30 2650 H 242.9 -2.27 3.35042 0
M  V30 2651 H 239.655 -0.747446 4.67665 0
M  V30 2652 H 240.079 0.907924 6.70884 0
M  V30 2653 H 244.721 -0.541741 4.19315 0
M  V30 2654 H 242.439 2.04242 7.81864 0
M  V30 2655 H 246.025 0.866642 5.75309 0
M  V30 2656 H 244.905 2.1409 7.5441 0
M  V30 2657 N 242.408 -1.52605 -0.393616 0
M  V30 2658 C 243.356 -1.77688 -1.50099 0
M  V30 2659 C 244.35 -0.644615 -1.56656 0
M  V30 2660 O 245.556 -0.826997 -1.59877 0
M  V30 2661 H 241.931 -0.562159 -0.499481 0
M  V30 2662 H 243.902 -2.7043 -1.26135 0
M  V30 2663 C 242.651 -1.95858 -2.87289 0
M  V30 2664 H 241.974 -2.8241 -2.82992 0
M  V30 2665 H 243.414 -2.174 -3.64024 0
M  V30 2666 C 241.873 -0.729848 -3.28899 0
M  V30 2667 O 242.403 0.0949217 -4.01588 0
M  V30 2668 N 240.609 -0.561283 -2.85128 0
M  V30 2669 H 240.156 -1.23357 -2.26143 0
M  V30 2670 H 240.114 0.2595 -3.13327 0
M  V30 2671 N 243.887 0.651787 -1.4349 0
M  V30 2672 C 245.134 1.41167 -1.45183 0
M  V30 2673 C 245.462 1.94349 -0.0766601 0
M  V30 2674 O 244.717 1.72804 0.918555 0
M  V30 2675 C 245.016 2.60914 -2.44251 0
M  V30 2676 C 244.682 2.26142 -3.9009 0
M  V30 2677 C 243.344 2.16371 -4.2981 0
M  V30 2678 C 245.696 1.98334 -4.81989 0
M  V30 2679 C 243.024 1.7695 -5.5938 0
M  V30 2680 C 245.376 1.6041 -6.11924 0
M  V30 2681 C 244.04 1.49166 -6.5062 0
M  V30 2682 H 243.31 0.516566 -0.531263 0
M  V30 2683 H 245.957 0.741099 -1.76579 0
M  V30 2684 H 244.262 3.3311 -2.06265 0
M  V30 2685 H 245.959 3.19127 -2.42815 0
M  V30 2686 H 242.549 2.34658 -3.58655 0
M  V30 2687 H 246.733 2.04803 -4.52072 0
M  V30 2688 H 241.989 1.66831 -5.88198 0
M  V30 2689 H 246.163 1.37925 -6.82605 0
M  V30 2690 H 243.79 1.1839 -7.50925 0
M  V30 2691 N 245.365 1.30045 0.890287 0
M  V30 2692 C 246.611 1.19747 1.64415 0
M  V30 2693 C 246.966 -0.246591 1.90813 0
M  V30 2694 O 246.259 -1.174 1.51419 0
M  V30 2695 C 246.453 1.95409 2.99249 0
M  V30 2696 C 246.282 3.47025 2.86013 0
M  V30 2697 C 245.052 4.1638 2.86279 0
M  V30 2698 C 247.25 4.42353 2.62351 0
M  V30 2699 N 245.232 5.54293 2.63879 0
M  V30 2700 C 246.603 5.67792 2.49022 0
M  V30 2701 C 248.658 4.32009 2.47533 0
M  V30 2702 C 247.361 6.8406 2.22383 0
M  V30 2703 C 249.387 5.48038 2.22279 0
M  V30 2704 C 248.749 6.72455 2.09722 0
M  V30 2705 H 244.848 0.493223 0.60684 0
M  V30 2706 H 247.432 1.6399 1.04954 0
M  V30 2707 H 245.603 1.53565 3.56752 0
M  V30 2708 H 247.335 1.77298 3.63796 0
M  V30 2709 H 244.09 3.68164 2.97913 0
M  V30 2710 H 244.514 6.26852 2.55706 0
M  V30 2711 H 249.156 3.36503 2.55979 0
M  V30 2712 H 246.874 7.79612 2.12675 0
M  V30 2713 H 250.46 5.41939 2.11643 0
M  V30 2714 H 249.34 7.60722 1.90453 0
M  V30 2715 N 246.843 -1.10192 1.12674 0
M  V30 2716 C 247.79 -2.16606 0.796906 0
M  V30 2717 C 248.76 -1.64394 -0.237476 0
M  V30 2718 O 249.945 -1.90474 -0.111484 0
M  V30 2719 C 247.085 -3.44116 0.26043 0
M  V30 2720 C 246.198 -4.10268 1.35293 0
M  V30 2721 C 245.333 -5.25507 0.775621 0
M  V30 2722 C 244.372 -5.83567 1.84706 0
M  V30 2723 N 243.509 -6.90179 1.28829 0
M  V30 2724 H 248.349 -2.44163 1.70846 0
M  V30 2725 H 245.886 -1.19846 0.85295 0
M  V30 2726 H 247.844 -4.17143 -0.0686814 0
M  V30 2727 H 246.474 -3.16901 -0.614274 0
M  V30 2728 H 245.526 -3.35184 1.79877 0
M  V30 2729 H 246.838 -4.4946 2.16303 0
M  V30 2730 H 245.992 -6.05398 0.397327 0
M  V30 2731 H 244.731 -4.87656 -0.0656581 0
M  V30 2732 H 243.736 -5.02344 2.23452 0
M  V30 2733 H 244.961 -6.23482 2.69161 0
M  V30 2734 H 242.907 -6.54322 0.468881 0
M  V30 2735 H 242.824 -7.28097 2.03497 0
M  V30 2736 H 244.092 -7.73844 0.937311 0
M  V30 2737 N 248.321 -0.919034 -1.28029 0
M  V30 2738 C 249.551 -0.570143 -1.98577 0
M  V30 2739 C 249.959 0.854172 -1.68821 0
M  V30 2740 O 249.302 1.57807 -0.940351 0
M  V30 2741 C 249.364 -0.705734 -3.52505 0
M  V30 2742 C 249.028 -2.10057 -4.05863 0
M  V30 2743 C 250.025 -3.07385 -4.19298 0
M  V30 2744 C 247.71 -2.41517 -4.40426 0
M  V30 2745 C 249.704 -4.34287 -4.66555 0
M  V30 2746 C 247.391 -3.68657 -4.87376 0
M  V30 2747 C 248.389 -4.64856 -5.00398 0
M  V30 2748 O 248.077 -5.89735 -5.46322 0
M  V30 2749 H 247.809 -0.215592 -0.6407 0
M  V30 2750 H 250.363 -1.23583 -1.64062 0
M  V30 2751 H 248.593 0.0170414 -3.86696 0
M  V30 2752 H 250.282 -0.363172 -4.04272 0
M  V30 2753 H 251.048 -2.84398 -3.92865 0
M  V30 2754 H 246.927 -1.67389 -4.29537 0
M  V30 2755 H 250.471 -5.09377 -4.76635 0
M  V30 2756 H 246.368 -3.91466 -5.13249 0
M  V30 2757 H 247.136 -5.92599 -5.64596 0
M  V30 2758 N 249.799 1.42003 -0.683588 0
M  V30 2759 C 250.729 2.33487 -0.024866 0
M  V30 2760 C 251.71 1.51163 0.779975 0
M  V30 2761 O 252.895 1.79739 0.735362 0
M  V30 2762 C 250.025 3.3487 0.920836 0
M  V30 2763 C 248.979 4.27414 0.223958 0
M  V30 2764 C 248.305 5.19074 1.2832 0
M  V30 2765 C 249.605 5.14445 -0.90242 0
M  V30 2766 H 251.299 2.88819 -0.788921 0
M  V30 2767 H 248.845 1.38873 -0.38083 0
M  V30 2768 H 250.798 3.97787 1.39081 0
M  V30 2769 H 249.522 2.77861 1.71642 0
M  V30 2770 H 248.181 3.65904 -0.225864 0
M  V30 2771 H 247.829 4.58387 2.071 0
M  V30 2772 H 247.529 5.81822 0.821995 0
M  V30 2773 H 249.053 5.84867 1.75392 0
M  V30 2774 H 250.467 5.70998 -0.513272 0
M  V30 2775 H 248.864 5.86072 -1.28997 0
M  V30 2776 H 249.934 4.52322 -1.74737 0
M  V30 2777 N 251.277 0.427512 1.51691 0
M  V30 2778 C 252.523 -0.142439 2.02299 0
M  V30 2779 C 252.856 -1.43214 1.31162 0
M  V30 2780 O 252.131 -1.89833 0.423511 0
M  V30 2781 C 252.414 -0.371301 3.58181 0
M  V30 2782 C 252.267 0.936358 4.39946 0
M  V30 2783 C 253.586 -1.14542 4.24933 0
M  V30 2784 H 250.705 -0.0502937 0.735282 0
M  V30 2785 H 253.347 0.564584 1.81418 0
M  V30 2786 H 251.497 -0.973559 3.76104 0
M  V30 2787 H 253.169 1.57184 4.33694 0
M  V30 2788 H 251.412 1.5432 4.05423 0
M  V30 2789 H 252.083 0.730388 5.47147 0
M  V30 2790 H 254.559 -0.635362 4.11221 0
M  V30 2791 H 253.435 -1.27431 5.33903 0
M  V30 2792 H 253.696 -2.17093 3.85127 0
M  V30 2793 N 252.755 -1.56801 0.158532 0
M  V30 2794 C 253.703 -2.18638 -0.793729 0
M  V30 2795 C 254.697 -1.14669 -1.24689 0
M  V30 2796 O 255.903 -1.32895 -1.21403 0
M  V30 2797 H 252.278 -0.700226 -0.274204 0
M  V30 2798 H 254.249 -2.97367 -0.248095 0
M  V30 2799 C 252.998 -2.83139 -2.0181 0
M  V30 2800 H 252.321 -3.62863 -1.67841 0
M  V30 2801 H 253.761 -3.29894 -2.66357 0
M  V30 2802 C 252.22 -1.82244 -2.83353 0
M  V30 2803 O 252.75 -1.3 -3.80083 0
M  V30 2804 N 250.956 -1.51288 -2.48114 0
M  V30 2805 H 250.503 -1.93964 -1.69516 0
M  V30 2806 H 250.461 -0.840296 -3.02963 0
M  V30 2807 N 254.233 0.115231 -1.57178 0
M  V30 2808 C 255.644 0.67197 -1.74188 0
M  V30 2809 C 255.995 1.80125 -0.777777 0
M  V30 2810 O 255.12 2.16346 0.0484376 0
M  V30 2811 C 255.715 1.22573 -3.1585 0
M  V30 2812 C 254.274 1.72872 -3.34353 0
M  V30 2813 C 253.421 0.629972 -2.70049 0
M  V30 2814 H 256.372 -0.110712 -1.58313 0
M  V30 2815 H 256.393 2.09535 -3.17609 0
M  V30 2816 H 255.905 0.403598 -3.85996 0
M  V30 2817 H 254.006 2.5755 -2.69256 0
M  V30 2818 H 254.119 1.83557 -4.42542 0
M  V30 2819 H 252.483 1.0645 -2.31388 0
M  V30 2820 H 253.266 -0.181241 -3.42821 0
M  V30 2821 N 255.711 1.52812 0.385517 0
M  V30 2822 C 256.621 1.80766 1.49535 0
M  V30 2823 C 257.637 0.694651 1.59532 0
M  V30 2824 O 258.813 0.982611 1.75803 0
M  V30 2825 C 255.878 1.97381 2.85029 0
M  V30 2826 C 254.939 3.21295 2.84724 0
M  V30 2827 C 254.172 3.37108 4.13756 0
M  V30 2828 O 254.395 2.5765 5.08893 0
M  V30 2829 O 253.329 4.30378 4.20783 0
M  V30 2830 H 257.155 2.75015 1.28842 0
M  V30 2831 H 254.74 1.37946 0.573697 0
M  V30 2832 H 256.622 2.09996 3.65349 0
M  V30 2833 H 255.297 1.06322 3.05741 0
M  V30 2834 H 254.204 3.1412 2.03174 0
M  V30 2835 H 255.537 4.12212 2.68965 0
M  V30 2836 N 257.189 -0.644168 1.43834 0
M  V30 2837 C 258.437 -1.40117 1.45642 0
M  V30 2838 C 258.758 -1.94814 0.0852413 0
M  V30 2839 O 258.028 -1.74988 -0.880688 0
M  V30 2840 H 256.608 -0.52005 0.536243 0
M  V30 2841 H 259.27 -0.7591 1.7951 0
M  V30 2842 H 258.366 -2.23902 2.17427 0
M  V30 2843 N 258.668 -1.30515 -0.883378 0
M  V30 2844 C 259.6 -1.12846 -1.99496 0
M  V30 2845 C 260.613 -0.0712571 -1.62644 0
M  V30 2846 O 261.802 -0.317432 -1.75655 0
M  V30 2847 C 258.902 -0.699123 -3.3161 0
M  V30 2848 C 258.075 -1.83842 -3.96889 0
M  V30 2849 C 257.134 -1.39737 -5.07307 0
M  V30 2850 O 256.16 -2.10485 -5.28852 0
M  V30 2851 N 257.362 -0.277279 -5.79837 0
M  V30 2852 H 260.127 -2.08585 -2.15203 0
M  V30 2853 H 257.688 -1.22672 -1.05656 0
M  V30 2854 H 259.68 -0.387044 -4.02845 0
M  V30 2855 H 258.25 0.166276 -3.12157 0
M  V30 2856 H 257.47 -2.31853 -3.18807 0
M  V30 2857 H 258.758 -2.60187 -4.37241 0
M  V30 2858 H 258.156 0.3122 -5.64838 0
M  V30 2859 H 256.713 -0.0246623 -6.51795 0
M  V30 2860 N 260.146 1.09593 -1.13257 0
M  V30 2861 C 261.392 1.82003 -0.89458 0
M  V30 2862 C 261.725 1.85402 0.577906 0
M  V30 2863 O 261 1.32099 1.42759 0
M  V30 2864 C 261.283 3.28237 -1.48096 0
M  V30 2865 C 261.136 3.3312 -3.02244 0
M  V30 2866 C 262.455 4.24871 -1.14774 0
M  V30 2867 H 259.574 0.66077 -0.326424 0
M  V30 2868 H 262.216 1.28389 -1.40058 0
M  V30 2869 H 260.366 3.74024 -1.05062 0
M  V30 2870 H 262.038 2.95748 -3.54021 0
M  V30 2871 H 260.281 2.72756 -3.37323 0
M  V30 2872 H 260.952 4.3613 -3.38371 0
M  V30 2873 H 263.428 3.87361 -1.51957 0
M  V30 2874 H 262.304 5.25532 -1.58452 0
M  V30 2875 H 262.565 4.42058 -0.0611849 0
M  V30 2876 N 261.624 0.925811 1.2754 0
M  V30 2877 C 262.87 0.566092 1.94739 0
M  V30 2878 C 263.203 -0.890057 1.72603 0
M  V30 2879 O 262.478 -1.63467 1.05399 0
M  V30 2880 C 262.761 0.89054 3.48915 0
M  V30 2881 C 262.614 2.4003 3.80402 0
M  V30 2882 C 263.933 0.395101 4.38323 0
M  V30 2883 H 261.052 0.20714 0.707292 0
M  V30 2884 H 263.694 1.15725 1.50691 0
M  V30 2885 H 261.844 0.387452 3.86563 0
M  V30 2886 H 263.516 2.97494 3.52555 0
M  V30 2887 H 261.759 2.85028 3.2702 0
M  V30 2888 H 262.43 2.57785 4.8811 0
M  V30 2889 H 264.906 0.826241 4.07814 0
M  V30 2890 H 263.782 0.651086 5.45025 0
M  V30 2891 H 264.043 -0.704798 4.36446 0
M  V30 2892 N 263.102 -1.41638 0.69111 0
M  V30 2893 C 264.049 -2.30789 0.0229705 0
M  V30 2894 C 265.019 -1.46863 -0.775911 0
M  V30 2895 O 266.204 -1.75661 -0.74485 0
M  V30 2896 C 263.344 -3.32868 -0.910666 0
M  V30 2897 C 262.457 -4.31875 -0.103874 0
M  V30 2898 C 261.592 -5.21024 -1.03475 0
M  V30 2899 C 260.631 -6.11702 -0.220598 0
M  V30 2900 N 259.768 -6.93349 -1.10504 0
M  V30 2901 H 264.608 -2.87366 0.788978 0
M  V30 2902 H 262.145 -1.41535 0.400794 0
M  V30 2903 H 264.103 -3.90596 -1.46597 0
M  V30 2904 H 262.733 -2.77851 -1.64312 0
M  V30 2905 H 261.785 -3.76131 0.568285 0
M  V30 2906 H 263.097 -4.96003 0.527504 0
M  V30 2907 H 262.251 -5.83565 -1.65943 0
M  V30 2908 H 260.99 -4.57112 -1.69999 0
M  V30 2909 H 259.995 -5.48215 0.417187 0
M  V30 2910 H 261.22 -6.77668 0.440784 0
M  V30 2911 H 259.166 -6.3205 -1.75638 0
M  V30 2912 H 259.083 -7.54146 -0.529125 0
M  V30 2913 H 260.351 -7.60362 -1.71667 0
M  V30 2914 N 264.58 -0.43555 -1.51462 0
M  V30 2915 C 265.827 0.131514 -2.02072 0
M  V30 2916 C 266.155 1.42868 -1.31981 0
M  V30 2917 O 265.41 1.91076 -0.422883 0
M  V30 2918 C 265.709 0.39942 -3.55161 0
M  V30 2919 C 265.375 -0.81172 -4.43533 0
M  V30 2920 C 264.037 -1.14387 -4.67407 0
M  V30 2921 C 266.389 -1.61976 -4.95392 0
M  V30 2922 C 263.717 -2.28477 -5.40384 0
M  V30 2923 C 266.069 -2.75164 -5.6962 0
M  V30 2924 C 264.733 -3.08835 -5.91758 0
M  V30 2925 H 264.003 0.0481244 -0.739436 0
M  V30 2926 H 266.65 -0.58238 -1.8243 0
M  V30 2927 H 264.955 1.19519 -3.73125 0
M  V30 2928 H 266.652 0.85157 -3.91854 0
M  V30 2929 H 263.242 -0.542898 -4.25148 0
M  V30 2930 H 267.426 -1.37637 -4.76833 0
M  V30 2931 H 262.682 -2.5488 -5.55739 0
M  V30 2932 H 266.856 -3.38147 -6.08793 0
M  V30 2933 H 264.483 -3.97353 -6.48086 0
M  V30 2934 N 266.058 1.56714 -0.166846 0
M  V30 2935 C 267.304 1.97813 0.473473 0
M  V30 2936 C 267.659 1.05095 1.61161 0
M  V30 2937 O 266.952 0.0897541 1.9139 0
M  V30 2938 C 267.146 3.42889 1.00806 0
M  V30 2939 C 266.975 4.49635 -0.0767392 0
M  V30 2940 C 265.745 5.02566 -0.524894 0
M  V30 2941 C 267.943 5.06793 -0.875504 0
M  V30 2942 N 265.925 5.9294 -1.59047 0
M  V30 2943 C 267.296 5.93565 -1.79111 0
M  V30 2944 C 269.351 4.89306 -0.921083 0
M  V30 2945 C 268.054 6.64721 -2.74843 0
M  V30 2946 C 270.08 5.61179 -1.86633 0
M  V30 2947 C 269.442 6.47675 -2.76942 0
M  V30 2948 H 265.541 0.769093 0.141489 0
M  V30 2949 H 268.125 1.92874 -0.266031 0
M  V30 2950 H 266.296 3.48382 1.7171 0
M  V30 2951 H 268.028 3.71008 1.61664 0
M  V30 2952 H 264.783 4.73439 -0.123432 0
M  V30 2953 H 265.207 6.42831 -2.12361 0
M  V30 2954 H 269.849 4.22136 -0.23692 0
M  V30 2955 H 267.567 7.31107 -3.44249 0
M  V30 2956 H 271.153 5.49636 -1.90764 0
M  V30 2957 H 270.033 7.02313 -3.48893 0
M  V30 2958 N 267.536 -0.106894 1.57237 0
M  V30 2959 C 268.483 -1.13049 2.01217 0
M  V30 2960 C 269.453 -1.40471 0.886403 0
M  V30 2961 O 270.638 -1.52133 1.15153 0
M  V30 2962 C 267.778 -2.4487 2.43172 0
M  V30 2963 C 266.891 -2.24281 3.69218 0
M  V30 2964 C 266.026 -3.49417 4.00101 0
M  V30 2965 C 265.065 -3.24038 5.19294 0
M  V30 2966 N 264.202 -4.41409 5.45988 0
M  V30 2967 H 269.042 -0.748456 2.88448 0
M  V30 2968 H 266.579 -0.358054 1.42676 0
M  V30 2969 H 268.537 -3.21786 2.65537 0
M  V30 2970 H 267.167 -2.80944 1.58967 0
M  V30 2971 H 266.219 -1.38224 3.54398 0
M  V30 2972 H 267.531 -2.01512 4.56283 0
M  V30 2973 H 266.685 -4.34746 4.2318 0
M  V30 2974 H 265.424 -3.75229 3.11535 0
M  V30 2975 H 264.429 -2.37102 4.96047 0
M  V30 2976 H 265.654 -2.99584 6.09447 0
M  V30 2977 H 263.6 -4.67319 4.60379 0
M  V30 2978 H 263.517 -4.21788 6.274 0
M  V30 2979 H 264.785 -5.27836 5.73593 0
M  V30 2980 N 269.014 -1.53014 -0.377408 0
M  V30 2981 C 270.425 -1.60438 -0.954798 0
M  V30 2982 C 270.776 -0.464418 -1.90624 0
M  V30 2983 O 269.901 0.41087 -2.12464 0
M  V30 2984 C 270.496 -2.90797 -1.73847 0
M  V30 2985 C 269.055 -3.00595 -2.26538 0
M  V30 2986 C 268.202 -2.55645 -1.07429 0
M  V30 2987 H 271.153 -1.57926 -0.156575 0
M  V30 2988 H 271.174 -2.77935 -2.5987 0
M  V30 2989 H 270.686 -3.73746 -1.04574 0
M  V30 2990 H 268.787 -2.22208 -2.99089 0
M  V30 2991 H 268.9 -4.05456 -2.5523 0
M  V30 2992 H 267.264 -2.10239 -1.43777 0
M  V30 2993 H 268.047 -3.41 -0.396728 0
M  V30 2994 N 270.492 0.636531 -1.44174 0
M  V30 2995 C 271.402 1.77754 -1.53103 0
M  V30 2996 C 272.418 1.68928 -0.417034 0
M  V30 2997 O 273.594 1.89801 -0.6736 0
M  V30 2998 C 270.659 3.14115 -1.46741 0
M  V30 2999 C 269.72 3.34612 -2.68948 0
M  V30 3000 C 268.953 4.64467 -2.6288 0
M  V30 3001 O 269.176 5.44919 -1.68581 0
M  V30 3002 O 268.11 4.87049 -3.53648 0
M  V30 3003 H 271.936 1.73174 -2.49489 0
M  V30 3004 H 269.521 0.79709 -1.2636 0
M  V30 3005 H 271.403 3.95412 -1.45696 0
M  V30 3006 H 270.078 3.19249 -0.534975 0
M  V30 3007 H 268.985 2.53014 -2.75562 0
M  V30 3008 H 270.318 3.34336 -3.61221 0
M  V30 3009 N 271.97 1.30982 0.876444 0
M  V30 3010 C 272.88 1.2003 2.01569 0
M  V30 3011 C 273.896 0.11838 1.73597 0
M  V30 3012 O 275.072 0.33495 1.98595 0
M  V30 3013 C 272.137 0.901637 3.34771 0
M  V30 3014 C 271.198 2.06979 3.76109 0
M  V30 3015 C 270.431 1.78529 5.02954 0
M  V30 3016 O 270.654 0.717296 5.65872 0
M  V30 3017 O 269.588 2.64019 5.40905 0
M  V30 3018 H 273.414 2.15753 2.13739 0
M  V30 3019 H 270.999 1.10658 1.00375 0
M  V30 3020 H 272.881 0.750645 4.1466 0
M  V30 3021 H 271.556 -0.0256141 3.2369 0
M  V30 3022 H 270.463 2.27616 2.96887 0
M  V30 3023 H 271.796 2.97907 3.91807 0
M  V30 3024 N 273.449 -1.08991 1.13837 0
M  V30 3025 C 274.86 -1.62746 0.914917 0
M  V30 3026 C 275.211 -1.88403 -0.547594 0
M  V30 3027 O 274.336 -1.63706 -1.41525 0
M  V30 3028 C 274.931 -2.95662 1.65437 0
M  V30 3029 C 273.49 -3.46225 1.47666 0
M  V30 3030 C 272.637 -2.20562 1.6807 0
M  V30 3031 H 275.588 -0.922946 1.29102 0
M  V30 3032 H 275.609 -3.63825 1.11407 0
M  V30 3033 H 275.121 -2.76956 2.71877 0
M  V30 3034 H 273.222 -3.70046 0.435478 0
M  V30 3035 H 273.335 -4.23368 2.24268 0
M  V30 3036 H 271.699 -2.29439 1.10589 0
M  V30 3037 H 272.482 -2.0437 2.7584 0
M  V30 3038 N 274.927 -0.932562 -1.27047 0
M  V30 3039 C 276.176 -0.571351 -1.93439 0
M  V30 3040 C 276.489 0.892467 -1.74053 0
M  V30 3041 O 277.695 1.36267 -2.34826 0
M  V30 3042 C 276.151 -0.97106 -3.46552 0
M  V30 3043 C 275.759 -2.4559 -3.74686 0
M  V30 3044 C 277.503 -0.681333 -4.18997 0
M  V30 3045 C 275.41 -2.79475 -5.21198 0
M  V30 3046 H 274.34 -0.209966 -0.724176 0
M  V30 3047 H 276.991 -1.13403 -1.44263 0
M  V30 3048 H 275.373 -0.336983 -3.94564 0
M  V30 3049 H 276.547 -3.13829 -3.37414 0
M  V30 3050 H 274.862 -2.71802 -3.15456 0
M  V30 3051 H 277.459 -0.910939 -5.26883 0
M  V30 3052 H 277.802 0.381628 -4.14547 0
M  V30 3053 H 278.335 -1.27473 -3.76823 0
M  V30 3054 H 275.074 -3.847 -5.30741 0
M  V30 3055 H 274.594 -2.1589 -5.596 0
M  V30 3056 H 276.273 -2.67478 -5.89122 0
M  V30 3057 N 276.405 1.4127 -0.698611 0
M  V30 3058 C 277.315 2.34573 -0.0357891 0
M  V30 3059 C 278.331 1.56393 0.762701 0
M  V30 3060 O 279.507 1.8886 0.699564 0
M  V30 3061 C 276.572 3.35159 0.887089 0
M  V30 3062 C 275.633 4.29225 0.0804634 0
M  V30 3063 C 274.866 5.25006 0.959387 0
M  V30 3064 O 275.089 5.26314 2.19886 0
M  V30 3065 O 274.023 6.00519 0.407439 0
M  V30 3066 H 277.849 2.92838 -0.804957 0
M  V30 3067 H 275.434 1.42175 -0.458966 0
M  V30 3068 H 277.316 3.9689 1.41621 0
M  V30 3069 H 275.991 2.79333 1.6357 0
M  V30 3070 H 274.898 3.70833 -0.493328 0
M  V30 3071 H 276.231 4.88157 -0.629547 0
M  V30 3072 N 277.883 0.443576 1.51229 0
M  V30 3073 C 279.129 -0.120975 2.02439 0
M  V30 3074 C 279.462 -1.41815 1.32674 0
M  V30 3075 O 278.737 -1.89373 0.443622 0
M  V30 3076 C 279.02 -0.333291 3.58554 0
M  V30 3077 C 278.873 0.982968 4.38928 0
M  V30 3078 C 280.192 -1.10028 4.26124 0
M  V30 3079 H 277.311 -0.0424923 0.735774 0
M  V30 3080 H 279.953 0.583794 1.80809 0
M  V30 3081 H 278.103 -0.933614 3.77115 0
M  V30 3082 H 279.775 1.61775 4.32003 0
M  V30 3083 H 278.018 1.58611 4.03763 0
M  V30 3084 H 278.689 0.788379 5.46341 0
M  V30 3085 H 281.165 -0.591711 4.11871 0
M  V30 3086 H 280.041 -1.21761 5.35225 0
M  V30 3087 H 280.302 -2.12996 3.87408 0
M  V30 3088 N 279.361 -1.56624 0.175154 0
M  V30 3089 C 280.61 -1.96173 -0.468921 0
M  V30 3090 C 280.923 -1.06401 -1.64128 0
M  V30 3091 O 282.129 -1.35648 -2.35185 0
M  V30 3092 C 280.585 -3.48833 -0.885633 0
M  V30 3093 C 280.193 -4.47237 0.261343 0
M  V30 3094 C 281.937 -3.97194 -1.49791 0
M  V30 3095 C 279.844 -5.9114 -0.175214 0
M  V30 3096 H 278.774 -0.732455 -0.178958 0
M  V30 3097 H 281.425 -1.81591 0.263997 0
M  V30 3098 H 279.807 -3.58848 -1.67464 0
M  V30 3099 H 280.981 -4.4894 1.03871 0
M  V30 3100 H 279.296 -4.08956 0.783827 0
M  V30 3101 H 281.893 -5.02167 -1.83665 0
M  V30 3102 H 282.236 -3.40351 -2.39722 0
M  V30 3103 H 282.769 -3.90212 -0.773267 0
M  V30 3104 H 279.508 -6.51865 0.689414 0
M  V30 3105 H 279.028 -5.92735 -0.91786 0
M  V30 3106 H 280.707 -6.44044 -0.617792 0
M  V30 3107 N 280.839 0.0985539 -1.57292 0
M  V30 3108 C 282.255 0.45267 -1.53046 0
M  V30 3109 C 282.455 1.80713 -0.891342 0
M  V30 3110 O 281.511 2.4785 -0.482375 0
M  V30 3111 C 282.824 0.418341 -2.97776 0
M  V30 3112 C 284.372 0.500443 -3.08973 0
M  V30 3113 C 284.847 0.496297 -4.55303 0
M  V30 3114 N 286.338 0.557151 -4.59837 0
M  V30 3115 C 287.073 0.575726 -5.70502 0
M  V30 3116 N 286.569 0.550714 -6.90608 0
M  V30 3117 N 288.362 0.620277 -5.58667 0
M  V30 3118 H 280.513 -0.788673 -1.97215 0
M  V30 3119 H 282.776 -0.293188 -0.901524 0
M  V30 3120 H 282.482 -0.509659 -3.47988 0
M  V30 3121 H 282.356 1.2386 -3.56284 0
M  V30 3122 H 284.743 1.41886 -2.58751 0
M  V30 3123 H 284.824 -0.347894 -2.53423 0
M  V30 3124 H 284.468 -0.418162 -5.06176 0
M  V30 3125 H 284.398 1.3618 -5.08687 0
M  V30 3126 H 286.889 0.581816 -3.73394 0
M  V30 3127 H 287.202 0.568075 -7.70709 0
M  V30 3128 H 285.547 0.517816 -6.93068 0
M  V30 3129 H 288.738 0.637322 -4.63741 0
M  V30 3130 H 288.911 0.631283 -6.44918 0
M  V30 3131 N 282.317 1.53212 0.369288 0
M  V30 3132 C 283.728 1.60943 0.946276 0
M  V30 3133 C 284.079 0.47452 1.90375 0
M  V30 3134 O 283.204 -0.399597 2.12679 0
M  V30 3135 C 283.799 2.91715 1.72302 0
M  V30 3136 C 282.358 3.01792 2.24941 0
M  V30 3137 C 281.505 2.56211 1.06072 0
M  V30 3138 H 284.456 1.58007 0.148198 0
M  V30 3139 H 284.477 2.79309 2.58393 0
M  V30 3140 H 283.989 3.74295 1.0259 0
M  V30 3141 H 282.09 2.23791 2.97906 0
M  V30 3142 H 282.203 4.06803 2.53077 0
M  V30 3143 H 280.567 2.10998 1.4266 0
M  V30 3144 H 281.35 3.41206 0.378639 0
M  V30 3145 N 283.795 -0.628877 1.44509 0
M  V30 3146 C 285.072 -1.38733 1.37886 0
M  V30 3147 C 285.452 -2.11065 0.0387008 0
M  V30 3148 O 284.8 -2.06476 -0.97878 0
M  V30 3149 C 285.01 -2.35188 2.57852 0
M  V30 3150 C 286.358 -2.9845 3.02014 0
M  V30 3151 O 287.382 -2.45513 2.58073 0
M  V30 3152 O 286.241 -3.94487 3.78209 0
M  V30 3153 H 283.335 -0.621015 0.54614 0
M  V30 3154 H 285.881 -0.653744 1.56602 0
M  V30 3155 H 284.653 -1.80855 3.46998 0
M  V30 3156 H 284.276 -3.1596 2.4136 0
M  V30 3157 N 285.273 -1.31445 -0.869486 0
M  V30 3158 C 286.522 -1.20517 -1.61736 0
M  V30 3159 C 286.835 0.235341 -1.94179 0
M  V30 3160 O 288.041 0.466312 -2.67465 0
M  V30 3161 C 286.497 -2.10982 -2.91573 0
M  V30 3162 C 286.105 -3.60032 -2.66611 0
M  V30 3163 C 287.849 -2.08856 -3.69567 0
M  V30 3164 C 285.756 -4.42503 -3.92358 0
M  V30 3165 H 284.686 -0.447493 -0.606849 0
M  V30 3166 H 287.337 -1.56303 -0.96133 0
M  V30 3167 H 285.719 -1.68095 -3.58553 0
M  V30 3168 H 286.893 -4.11167 -2.08035 0
M  V30 3169 H 285.208 -3.64139 -2.0197 0
M  V30 3170 H 287.805 -2.67716 -4.62852 0
M  V30 3171 H 288.148 -1.07582 -4.02159 0
M  V30 3172 H 288.681 -2.49945 -3.09471 0
M  V30 3173 H 285.42 -5.44533 -3.64916 0
M  V30 3174 H 284.94 -3.96125 -4.50383 0
M  V30 3175 H 286.619 -4.54741 -4.60238 0
M  V30 3176 N 286.751 1.08385 -1.14413 0
M  V30 3177 C 287.714 2.13486 -0.834048 0
M  V30 3178 C 288.714 1.59988 0.161418 0
M  V30 3179 O 289.904 1.74071 -0.0669575 0
M  V30 3180 C 287.036 3.4003 -0.243354 0
M  V30 3181 H 288.229 2.42425 -1.7655 0
M  V30 3182 H 285.782 1.24101 -0.950189 0
M  V30 3183 H 286.517 3.16726 0.696807 0
M  V30 3184 H 286.302 3.80157 -0.960367 0
M  V30 3185 H 287.792 4.17577 -0.0436242 0
M  V30 3186 N 288.23 0.939286 1.26551 0
M  V30 3187 C 289.193 0.451987 2.24699 0
M  V30 3188 C 290.193 -0.435869 1.5478 0
M  V30 3189 O 291.383 -0.235314 1.72603 0
M  V30 3190 C 288.515 -0.348801 3.39111 0
M  V30 3191 H 289.708 1.3193 2.69322 0
M  V30 3192 H 287.261 0.721072 1.38673 0
M  V30 3193 H 287.996 -1.23444 2.99887 0
M  V30 3194 H 287.781 0.287945 3.91041 0
M  V30 3195 H 289.271 -0.679726 4.12031 0
M  V30 3196 N 289.708 -1.40897 0.706093 0
M  V30 3197 C 290.638 -2.33418 0.0620085 0
M  V30 3198 C 291.619 -1.52385 -0.755827 0
M  V30 3199 O 292.804 -1.80886 -0.706674 0
M  V30 3200 C 289.934 -3.36293 -0.867445 0
M  V30 3201 C 288.888 -4.27716 -0.155932 0
M  V30 3202 C 288.214 -5.2105 -1.20046 0
M  V30 3203 C 289.514 -5.12944 0.984149 0
M  V30 3204 H 291.208 -2.87527 0.83477 0
M  V30 3205 H 288.754 -1.38249 0.402875 0
M  V30 3206 H 290.707 -3.99949 -1.32735 0
M  V30 3207 H 289.431 -2.80556 -1.67199 0
M  V30 3208 H 288.09 -3.65498 0.284047 0
M  V30 3209 H 287.738 -4.61624 -1.99781 0
M  V30 3210 H 287.438 -5.83056 -0.729328 0
M  V30 3211 H 288.962 -5.87584 -1.66066 0
M  V30 3212 H 290.376 -5.70109 0.604048 0
M  V30 3213 H 288.773 -5.83945 1.38304 0
M  V30 3214 H 289.843 -4.49485 1.81911 0
M  V30 3215 N 291.186 -0.45159 -1.50991 0
M  V30 3216 C 292.432 0.110237 -2.025 0
M  V30 3217 C 292.765 1.41109 -1.33424 0
M  V30 3218 O 292.04 1.89135 -0.453659 0
M  V30 3219 C 292.323 0.314271 -3.58726 0
M  V30 3220 C 292.176 -1.00623 -4.38401 0
M  V30 3221 C 293.495 1.07767 -4.26702 0
M  V30 3222 H 290.614 0.0385897 -0.735989 0
M  V30 3223 H 293.256 -0.593374 -1.80497 0
M  V30 3224 H 291.406 0.913601 -3.77605 0
M  V30 3225 H 293.078 -1.64064 -4.31139 0
M  V30 3226 H 291.321 -1.6075 -4.02917 0
M  V30 3227 H 291.992 -0.817341 -5.45915 0
M  V30 3228 H 294.468 0.56986 -4.12179 0
M  V30 3229 H 293.344 1.18921 -5.35863 0
M  V30 3230 H 293.605 2.10939 -3.88532 0
M  V30 3231 N 292.664 1.56529 -0.183458 0
M  V30 3232 C 294.08 1.58664 0.172554 0
M  V30 3233 C 294.28 1.19925 1.61926 0
M  V30 3234 O 293.336 0.916534 2.35278 0
M  V30 3235 C 294.649 3.00463 -0.119262 0
M  V30 3236 C 296.197 3.12945 -0.0584396 0
M  V30 3237 C 296.672 4.56857 -0.323408 0
M  V30 3238 N 298.163 4.62403 -0.271612 0
M  V30 3239 C 298.898 5.71626 -0.450639 0
M  V30 3240 N 298.394 6.89362 -0.689384 0
M  V30 3241 N 300.187 5.60775 -0.385701 0
M  V30 3242 H 292.338 1.79994 -1.12765 0
M  V30 3243 H 294.601 0.834808 -0.449222 0
M  V30 3244 H 294.307 3.33326 -1.12192 0
M  V30 3245 H 294.181 3.72659 0.583544 0
M  V30 3246 H 296.568 2.79902 0.934805 0
M  V30 3247 H 296.649 2.4316 -0.794144 0
M  V30 3248 H 296.293 4.9061 -1.31392 0
M  V30 3249 H 296.223 5.24816 0.43305 0
M  V30 3250 H 298.714 3.77785 -0.0932256 0
M  V30 3251 H 299.027 7.68489 -0.815113 0
M  V30 3252 H 297.372 6.91196 -0.726142 0
M  V30 3253 H 300.563 4.67674 -0.199687 0
M  V30 3254 H 300.736 6.4584 -0.528646 0
M  V30 3255 N 294.142 -0.090211 1.57342 0
M  V30 3256 C 295.074 -1.13541 1.99101 0
M  V30 3257 C 296.087 -1.3604 0.894258 0
M  V30 3258 O 297.276 -1.34606 1.17233 0
M  V30 3259 C 294.376 -2.49001 2.29895 0
M  V30 3260 C 293.549 -2.46712 3.61182 0
M  V30 3261 C 292.608 -3.64136 3.79857 0
M  V30 3262 O 291.634 -3.46405 4.51655 0
M  V30 3263 N 292.836 -4.83802 3.20806 0
M  V30 3264 H 295.601 -0.779942 2.89373 0
M  V30 3265 H 293.162 -0.279125 1.59476 0
M  V30 3266 H 295.154 -3.26166 2.39578 0
M  V30 3267 H 293.724 -2.76619 1.45605 0
M  V30 3268 H 292.944 -1.55058 3.62423 0
M  V30 3269 H 294.232 -2.42265 4.4742 0
M  V30 3270 H 293.63 -5.01112 2.62494 0
M  V30 3271 H 292.187 -5.58543 3.35966 0
M  V30 3272 N 295.62 -1.53406 -0.361157 0
M  V30 3273 C 296.866 -1.70054 -1.10496 0
M  V30 3274 C 297.199 -0.453278 -1.88836 0
M  V30 3275 O 296.474 0.5495 -1.86576 0
M  V30 3276 C 296.757 -2.95317 -2.06058 0
M  V30 3277 C 296.61 -4.3021 -1.31298 0
M  V30 3278 C 297.929 -3.16193 -3.06121 0
M  V30 3279 H 295.048 -0.618799 -0.400321 0
M  V30 3280 H 297.69 -1.86052 -0.385318 0
M  V30 3281 H 295.84 -2.81809 -2.67425 0
M  V30 3282 H 297.512 -4.55538 -0.726807 0
M  V30 3283 H 295.755 -4.29421 -0.614853 0
M  V30 3284 H 296.426 -5.14 -2.01265 0
M  V30 3285 H 298.902 -3.28916 -2.5486 0
M  V30 3286 H 297.778 -4.05266 -3.70204 0
M  V30 3287 H 298.039 -2.31676 -3.76535 0
M  V30 3288 N 297.098 0.621204 -1.44841 0
M  V30 3289 C 298.347 1.37658 -1.47422 0
M  V30 3290 C 298.66 1.95264 -0.114629 0
M  V30 3291 O 299.866 2.71494 -0.0180199 0
M  V30 3292 C 298.322 2.49285 -2.59586 0
M  V30 3293 C 297.93 1.98149 -4.01797 0
M  V30 3294 C 299.674 3.26409 -2.71399 0
M  V30 3295 C 297.581 3.07178 -5.05367 0
M  V30 3296 H 296.511 0.517344 -0.548517 0
M  V30 3297 H 299.162 0.667257 -1.70938 0
M  V30 3298 H 297.544 3.22839 -2.29328 0
M  V30 3299 H 298.718 1.31395 -4.41669 0
M  V30 3300 H 297.033 1.33812 -3.94314 0
M  V30 3301 H 299.63 4.07706 -3.45948 0
M  V30 3302 H 299.973 3.76535 -1.77559 0
M  V30 3303 H 300.506 2.5995 -3.01116 0
M  V30 3304 H 297.245 2.61985 -6.00869 0
M  V30 3305 H 296.765 3.72542 -4.70077 0
M  V30 3306 H 298.444 3.71789 -5.29511 0
M  V30 3307 N 298.576 1.31904 0.862503 0
M  V30 3308 C 299.825 1.21373 1.61094 0
M  V30 3309 C 300.138 -0.22504 1.94301 0
M  V30 3310 O 301.344 -0.452121 2.67709 0
M  V30 3311 C 299.8 2.12525 2.9045 0
M  V30 3312 C 299.408 3.61441 2.64697 0
M  V30 3313 C 301.152 2.10813 3.68454 0
M  V30 3314 C 299.059 4.44578 3.90006 0
M  V30 3315 H 297.989 0.450705 0.604468 0
M  V30 3316 H 300.64 1.56811 0.953027 0
M  V30 3317 H 299.022 1.69994 3.57656 0
M  V30 3318 H 300.196 4.12264 2.05851 0
M  V30 3319 H 298.511 3.65205 2.00036 0
M  V30 3320 H 301.108 2.70167 4.61426 0
M  V30 3321 H 301.451 1.09713 4.01583 0
M  V30 3322 H 301.984 2.51583 3.08141 0
M  V30 3323 H 298.723 5.46461 3.62023 0
M  V30 3324 H 298.243 3.98508 4.48276 0
M  V30 3325 H 299.922 4.57176 4.5782 0
M  V30 3326 N 300.054 -1.07777 1.14986 0
M  V30 3327 C 301.001 -2.14867 0.842672 0
M  V30 3328 C 301.971 -1.6486 -0.202552 0
M  V30 3329 O 303.156 -1.90668 -0.0710568 0
M  V30 3330 C 300.296 -3.43486 0.333363 0
M  V30 3331 C 299.409 -4.07306 1.43965 0
M  V30 3332 C 298.544 -5.23744 0.886914 0
M  V30 3333 C 297.583 -5.79517 1.97043 0
M  V30 3334 N 296.72 -6.87291 1.4344 0
M  V30 3335 H 301.56 -2.40485 1.75986 0
M  V30 3336 H 299.097 -1.1801 0.878179 0
M  V30 3337 H 301.055 -4.17195 0.0198163 0
M  V30 3338 H 299.685 -3.18133 -0.546916 0
M  V30 3339 H 298.737 -3.31293 1.86946 0
M  V30 3340 H 300.049 -4.44771 2.25788 0
M  V30 3341 H 299.203 -6.04419 0.525651 0
M  V30 3342 H 297.942 -4.87685 0.0377957 0
M  V30 3343 H 296.947 -4.97491 2.34057 0
M  V30 3344 H 298.172 -6.17632 2.82325 0
M  V30 3345 H 296.118 -6.5318 0.607567 0
M  V30 3346 H 296.035 -7.23617 2.18895 0
M  V30 3347 H 297.303 -7.71682 1.10124 0
M  V30 3348 N 301.532 -0.945985 -1.26051 0
M  V30 3349 C 302.479 -0.45809 -2.26208 0
M  V30 3350 C 303.449 0.484816 -1.58867 0
M  V30 3351 O 304.634 0.399969 -1.86561 0
M  V30 3352 C 301.774 0.266131 -3.44072 0
M  V30 3353 C 300.887 -0.713005 -4.26075 0
M  V30 3354 C 300.022 0.0329013 -5.3119 0
M  V30 3355 C 299.061 -0.93774 -6.04874 0
M  V30 3356 N 298.198 -0.223274 -7.01745 0
M  V30 3357 H 303.038 -1.3171 -2.67313 0
M  V30 3358 H 300.575 -0.66069 -1.31428 0
M  V30 3359 H 302.533 0.702514 -4.11243 0
M  V30 3360 H 301.163 1.08925 -3.03867 0
M  V30 3361 H 300.215 -1.26789 -3.58648 0
M  V30 3362 H 301.527 -1.45406 -4.77136 0
M  V30 3363 H 300.681 0.528335 -6.04395 0
M  V30 3364 H 299.42 0.806801 -4.8098 0
M  V30 3365 H 298.425 -1.44425 -5.30492 0
M  V30 3366 H 299.65 -1.71172 -6.57173 0
M  V30 3367 H 297.596 0.532046 -6.53839 0
M  V30 3368 H 297.513 -0.90357 -7.50581 0
M  V30 3369 H 298.781 0.250907 -7.79096 0
M  V30 3370 N 303.011 1.40521 -0.713556 0
M  V30 3371 C 303.958 2.30723 -0.059684 0
M  V30 3372 C 304.928 1.48079 0.752448 0
M  V30 3373 O 306.113 1.76823 0.71681 0
M  V30 3374 C 303.253 3.34274 0.857594 0
M  V30 3375 C 302.366 4.31986 0.0351536 0
M  V30 3376 C 301.501 5.22605 0.951724 0
M  V30 3377 C 300.54 6.11976 0.123253 0
M  V30 3378 N 299.677 6.9502 0.99459 0
M  V30 3379 H 304.517 2.86074 -0.834596 0
M  V30 3380 H 302.054 1.40879 -0.42326 0
M  V30 3381 H 304.012 3.92879 1.40364 0
M  V30 3382 H 302.642 2.8043 1.59871 0
M  V30 3383 H 301.694 3.7518 -0.628052 0
M  V30 3384 H 303.006 4.95101 -0.606347 0
M  V30 3385 H 302.16 5.86131 1.56638 0
M  V30 3386 H 300.899 4.59759 1.62705 0
M  V30 3387 H 299.904 5.47482 -0.50435 0
M  V30 3388 H 301.129 6.76881 -0.548539 0
M  V30 3389 H 299.075 6.34764 1.6556 0
M  V30 3390 H 298.992 7.54892 0.40908 0
M  V30 3391 H 300.26 7.62997 1.59549 0
M  V30 3392 N 304.489 0.459591 1.5075 0
M  V30 3393 C 305.399 -0.34613 2.32033 0
M  V30 3394 C 306.415 -1.00686 1.41909 0
M  V30 3395 O 307.591 -0.997361 1.7497 0
M  V30 3396 C 304.656 -1.42029 3.16273 0
M  V30 3397 C 303.717 -0.777362 4.22203 0
M  V30 3398 C 302.95 -1.80034 5.02418 0
M  V30 3399 O 303.173 -3.02544 4.83553 0
M  V30 3400 O 302.107 -1.37853 5.85901 0
M  V30 3401 H 305.933 0.318054 3.0203 0
M  V30 3402 H 303.518 0.221663 1.47746 0
M  V30 3403 H 305.4 -2.04275 3.68578 0
M  V30 3404 H 304.075 -2.06815 2.49016 0
M  V30 3405 H 302.982 -0.116256 3.73919 0
M  V30 3406 H 304.315 -0.172634 4.91897 0
M  V30 3407 N 305.967 -1.56429 0.191757 0
M  V30 3408 C 307.244 -1.89224 -0.495332 0
M  V30 3409 C 307.624 -1.10478 -1.79883 0
M  V30 3410 O 306.972 -0.204852 -2.2758 0
M  V30 3411 C 307.182 -3.41548 -0.717367 0
M  V30 3412 C 308.53 -4.11711 -1.03823 0
M  V30 3413 O 309.554 -3.4698 -0.805204 0
M  V30 3414 O 308.413 -5.2611 -1.47887 0
M  V30 3415 H 305.507 -0.785788 -0.25781 0
M  V30 3416 H 308.053 -1.68111 0.231721 0
M  V30 3417 H 306.825 -3.90772 0.203287 0
M  V30 3418 H 306.448 -3.68342 -1.497 0
M  V30 3419 N 307.445 0.0818655 -1.57387 0
M  V30 3420 C 308.375 1.09885 -2.06028 0
M  V30 3421 C 309.356 1.4098 -0.951774 0
M  V30 3422 O 310.541 1.50781 -1.22387 0
M  V30 3423 C 307.671 2.4151 -2.4958 0
M  V30 3424 C 306.625 2.24792 -3.64215 0
M  V30 3425 C 305.951 3.61712 -3.93787 0
M  V30 3426 C 307.251 1.67749 -4.94629 0
M  V30 3427 H 308.945 0.694128 -2.91243 0
M  V30 3428 H 306.491 0.332448 -1.4011 0
M  V30 3429 H 308.444 3.12939 -2.82219 0
M  V30 3430 H 307.168 2.83943 -1.61381 0
M  V30 3431 H 305.827 1.55807 -3.31843 0
M  V30 3432 H 305.475 4.01697 -3.02735 0
M  V30 3433 H 305.175 3.51368 -4.70971 0
M  V30 3434 H 306.699 4.34587 -4.28913 0
M  V30 3435 H 308.113 2.29032 -5.25564 0
M  V30 3436 H 306.51 1.68128 -5.76067 0
M  V30 3437 H 307.58 0.638059 -4.80684 0
M  V30 3438 O 308.962 1.59916 0.225637 0
M  V30 3439 H 309.653 1.73205 0.867161 0
M  V30 END ATOM
M  V30 BEGIN BOND
M  V30 END BOND
M  V30 END CTAB
M  END
$$$$
