drugbank_target|Q8TF61 F-box only protein 41 (DB12695)
 OpenBabel12092121073D

  0  0  0     0  0            999 V3000
M  V30 BEGIN CTAB
M  V30 COUNTS 13263 13394 0 0 0
M  V30 BEGIN ATOM
M  V30 1 H -0.908 1.98254 -0.117106 0
M  V30 2 N 0 1.576 0 0
M  V30 3 C 0.933 2.03868 1.02534 0
M  V30 4 C 1.911 0.928543 1.3348 0
M  V30 5 O 3.095 1.19667 1.45644 0
M  V30 6 C 0.222 2.43627 2.35294 0
M  V30 7 C -0.732 3.65373 2.2001 0
M  V30 8 S 0.101 5.13292 1.52614 0
M  V30 9 C 1.257 5.56322 2.86805 0
M  V30 10 H 1.49 2.90518 0.631377 0
M  V30 11 H -0.977 1.52953 0.210867 0
M  V30 12 H 0.981 2.67203 3.11629 0
M  V30 13 H -0.358 1.57376 2.7183 0
M  V30 14 H -1.165 3.90944 3.18086 0
M  V30 15 H -1.563 3.418 1.51819 0
M  V30 16 H 0.729 5.58782 3.83104 0
M  V30 17 H 1.672 6.56266 2.65933 0
M  V30 18 H 2.08 4.83886 2.90714 0
M  V30 19 N 1.4781 -0.272755 1.55222 0
M  V30 20 C 2.4411 -1.32041 1.87344 0
M  V30 21 C 3.4411 -1.42342 0.74803 0
M  V30 22 O 4.6311 -1.41488 1.0162 0
M  V30 23 C 1.7631 -2.70173 2.07893 0
M  V30 24 H 2.9561 -1.04789 2.80997 0
M  V30 25 H 0.5091 -0.51083 1.47717 0
M  V30 26 H 1.2441 -3.02605 1.16622 0
M  V30 27 H 1.0291 -2.64082 2.89833 0
M  V30 28 H 2.5191 -3.45869 2.34017 0
M  V30 29 N 2.9562 -1.48159 -0.537278 0
M  V30 30 C 4.1812 -1.59707 -1.32319 0
M  V30 31 C 4.6062 -0.254859 -1.86365 0
M  V30 32 O 3.9642 0.772378 -1.64024 0
M  V30 33 C 4.0122 -2.6412 -2.45505 0
M  V30 34 O 3.1162 -2.20774 -3.48328 0
M  V30 35 H 2.4572 -0.535791 -0.392204 0
M  V30 36 H 4.9872 -1.94092 -0.647268 0
M  V30 37 H 4.9972 -2.85166 -2.91795 0
M  V30 38 H 3.6722 -3.61567 -2.05528 0
M  V30 39 H 2.2492 -2.09911 -3.08207 0
M  V30 40 N 4.4343 0.785586 -1.36625 0
M  V30 41 C 5.3643 1.91259 -1.33949 0
M  V30 42 C 6.3453 1.68795 -0.210325 0
M  V30 43 O 7.5303 1.89854 -0.408561 0
M  V30 44 C 4.6603 3.28339 -1.13186 0
M  V30 45 C 3.6143 3.65335 -2.22967 0
M  V30 46 C 2.9403 5.00806 -1.87342 0
M  V30 47 C 4.2403 3.7352 -3.65075 0
M  V30 48 H 5.9343 1.93755 -2.28253 0
M  V30 49 H 3.4803 0.930788 -1.09874 0
M  V30 50 H 5.4333 4.06804 -1.09948 0
M  V30 51 H 4.1573 3.2624 -0.153332 0
M  V30 52 H 2.8163 2.89169 -2.25337 0
M  V30 53 H 2.4643 4.95233 -0.880545 0
M  V30 54 H 2.1643 5.26529 -2.60846 0
M  V30 55 H 3.6883 5.81687 -1.85667 0
M  V30 56 H 5.1023 4.42168 -3.64911 0
M  V30 57 H 3.4993 4.10731 -4.37516 0
M  V30 58 H 4.5693 2.74527 -3.99703 0
M  V30 59 N 5.9124 1.20967 1.01018 0
M  V30 60 C 7.1894 0.93264 1.71934 0
M  V30 61 C 7.5694 -0.55692 2.03621 0
M  V30 62 O 6.9174 -1.52035 1.7058 0
M  V30 63 C 7.1274 1.81233 2.98254 0
M  V30 64 C 8.4754 2.05804 3.71389 0
M  V30 65 O 9.4994 1.78539 3.08225 0
M  V30 66 O 8.3584 2.51888 4.84989 0
M  V30 67 H 5.4524 0.349272 0.749625 0
M  V30 68 H 7.9984 1.31871 1.06808 0
M  V30 69 H 6.7704 2.82067 2.71208 0
M  V30 70 H 6.3934 1.42674 3.7112 0
M  V30 71 N 7.3905 -1.2043 1.01659 0
M  V30 72 C 8.3205 -2.25466 0.607226 0
M  V30 73 C 9.3015 -1.65853 -0.377716 0
M  V30 74 O 10.4865 -1.92409 -0.263149 0
M  V30 75 C 7.6165 -3.47256 -0.0552949 0
M  V30 76 C 6.5705 -4.19462 0.850632 0
M  V30 77 C 5.8965 -5.34673 0.0538859 0
M  V30 78 C 7.1965 -4.75603 2.15868 0
M  V30 79 H 8.8905 -2.59962 1.48526 0
M  V30 80 H 6.4365 -1.2496 0.715605 0
M  V30 81 H 8.3895 -4.19917 -0.353233 0
M  V30 82 H 7.1135 -3.11924 -0.968045 0
M  V30 83 H 5.7725 -3.48667 1.13257 0
M  V30 84 H 5.4205 -4.95585 -0.860514 0
M  V30 85 H 5.1205 -5.83913 0.657192 0
M  V30 86 H 6.6445 -6.10138 -0.237598 0
M  V30 87 H 8.0585 -5.40083 1.92311 0
M  V30 88 H 6.4555 -5.3528 2.71284 0
M  V30 89 H 7.5255 -3.94346 2.82169 0
M  V30 90 N 8.8686 -0.792821 -1.36206 0
M  V30 91 C 10.2796 -0.429513 -1.81692 0
M  V30 92 C 10.6306 1.04695 -1.65932 0
M  V30 93 O 9.7556 1.81256 -1.18218 0
M  V30 94 C 10.3506 -0.772831 -3.29868 0
M  V30 95 C 8.9096 -0.462307 -3.7355 0
M  V30 96 C 8.0566 -1.00569 -2.5842 0
M  V30 97 H 11.0076 -0.985672 -1.24379 0
M  V30 98 H 11.0286 -0.0651928 -3.80444 0
M  V30 99 H 10.5406 -1.84747 -3.41307 0
M  V30 100 H 8.6416 0.604158 -3.67669 0
M  V30 101 H 8.7546 -0.985299 -4.68859 0
M  V30 102 H 7.1186 -0.428734 -2.51066 0
M  V30 103 H 7.9016 -2.08616 -2.72643 0
M  V30 104 N 10.3467 1.47872 -0.545128 0
M  V30 105 C 11.5767 2.06589 -0.0210534 0
M  V30 106 C 11.9847 1.39997 1.27269 0
M  V30 107 O 11.3277 0.486421 1.77143 0
M  V30 108 C 11.3897 3.58574 0.257933 0
M  V30 109 C 11.0537 4.47132 -0.944573 0
M  V30 110 C 12.0507 4.85986 -1.84699 0
M  V30 111 C 9.7357 4.88821 -1.15584 0
M  V30 112 C 11.7297 5.65314 -2.94446 0
M  V30 113 C 9.4167 5.67916 -2.25642 0
M  V30 114 C 10.4147 6.06073 -3.14905 0
M  V30 115 O 10.1027 6.83578 -4.23057 0
M  V30 116 H 9.8347 0.674971 -0.0372899 0
M  V30 117 H 12.3887 1.91037 -0.754599 0
M  V30 118 H 10.6187 3.72295 1.04564 0
M  V30 119 H 12.3077 3.99356 0.72592 0
M  V30 120 H 13.0737 4.54388 -1.69577 0
M  V30 121 H 8.9527 4.58595 -0.470279 0
M  V30 122 H 12.4967 5.95016 -3.64145 0
M  V30 123 H 8.3937 5.98927 -2.40742 0
M  V30 124 H 9.1617 7.01954 -4.20954 0
M  V30 125 N 11.8248 0.280983 1.55075 0
M  V30 126 C 13.2408 -0.0729964 1.59433 0
M  V30 127 C 13.4408 -1.5411 1.29817 0
M  V30 128 O 12.4968 -2.29086 1.06187 0
M  V30 129 C 13.8098 0.306921 2.9913 0
M  V30 130 C 15.3578 0.254023 3.11968 0
M  V30 131 C 15.8328 0.608467 4.5394 0
M  V30 132 N 17.3238 0.560241 4.59799 0
M  V30 133 C 18.0588 0.80722 5.6769 0
M  V30 134 N 17.5548 1.11912 6.83701 0
M  V30 135 N 19.3478 0.735623 5.57266 0
M  V30 136 H 11.4988 1.238 1.7259 0
M  V30 137 H 13.7618 0.500547 0.805082 0
M  V30 138 H 13.4678 1.32816 3.25657 0
M  V30 139 H 13.3418 -0.349363 3.75579 0
M  V30 140 H 15.7288 -0.75794 2.852 0
M  V30 141 H 15.8098 0.944649 2.37718 0
M  V30 142 H 15.4538 1.61814 4.81434 0
M  V30 143 H 15.3838 -0.104013 5.26497 0
M  V30 144 H 17.8748 0.329288 3.76463 0
M  V30 145 H 18.1878 1.29409 7.61888 0
M  V30 146 H 16.5328 1.15695 6.85303 0
M  V30 147 H 19.7238 0.491752 4.6551 0
M  V30 148 H 19.8968 0.931482 6.4127 0
M  V30 149 N 13.3029 -1.57598 0.00835791 0
M  V30 150 C 14.5429 -1.92788 -0.679136 0
M  V30 151 C 14.9069 -0.883378 -1.70471 0
M  V30 152 O 16.1079 -1.12079 -2.44319 0
M  V30 153 C 14.3789 -3.32994 -1.29807 0
M  V30 154 S 15.9379 -3.90082 -2.00952 0
M  V30 155 H 12.7559 -0.67475 -0.224127 0
M  V30 156 H 15.3579 -1.95385 0.0670497 0
M  V30 157 H 14.0619 -4.06846 -0.538922 0
M  V30 158 H 13.5929 -3.33791 -2.082 0
M  V30 159 H 15.6079 -3.71834 -3.28563 0
M  V30 160 N 14.781 0.264519 -1.55364 0
M  V30 161 C 16.192 0.834936 -1.6699 0
M  V30 162 C 16.543 1.86718 -0.602552 0
M  V30 163 O 15.668 2.14899 0.254425 0
M  V30 164 C 16.263 1.5212 -3.02729 0
M  V30 165 C 14.822 2.03954 -3.16354 0
M  V30 166 C 13.969 0.884498 -2.62815 0
M  V30 167 H 16.92 0.0406869 -1.58648 0
M  V30 168 H 16.941 2.38853 -2.96191 0
M  V30 169 H 16.453 0.769668 -3.80392 0
M  V30 170 H 14.554 2.82041 -2.43482 0
M  V30 171 H 14.667 2.24902 -4.23032 0
M  V30 172 H 13.031 1.2802 -2.20188 0
M  V30 173 H 13.814 0.14634 -3.42988 0
M  V30 174 N 16.2591 1.48442 0.529413 0
M  V30 175 C 17.6751 1.34575 0.858004 0
M  V30 176 C 17.8751 0.3572 1.98309 0
M  V30 177 O 16.9311 -0.221379 2.51528 0
M  V30 178 C 18.2441 2.74617 1.22499 0
M  V30 179 C 19.7921 2.83109 1.33484 0
M  V30 180 C 20.2671 4.23854 1.73526 0
M  V30 181 N 21.7581 4.2653 1.80628 0
M  V30 182 C 22.4931 5.32372 2.12997 0
M  V30 183 N 21.9891 6.48491 2.43786 0
M  V30 184 N 23.7821 5.19766 2.14008 0
M  V30 185 H 15.9331 2.1133 -0.212925 0
M  V30 186 H 18.1961 0.947439 -0.0326199 0
M  V30 187 H 17.9021 3.4852 0.471905 0
M  V30 188 H 17.7761 3.08177 2.17501 0
M  V30 189 H 20.1631 2.09462 2.0787 0
M  V30 190 H 20.2441 2.53168 0.366027 0
M  V30 191 H 19.8881 4.98018 0.997013 0
M  V30 192 H 19.8181 4.5124 2.71459 0
M  V30 193 H 22.3091 3.42772 1.59108 0
M  V30 194 H 22.6221 7.24993 2.67592 0
M  V30 195 H 20.9671 6.51765 2.41304 0
M  V30 196 H 24.1581 4.28066 1.89412 0
M  V30 197 H 24.3311 6.02354 2.38902 0
M  V30 198 N 17.7372 -0.778329 1.37039 0
M  V30 199 C 18.9772 -1.54973 1.33276 0
M  V30 200 C 19.3412 -1.91816 -0.0839376 0
M  V30 201 O 20.5422 -2.6767 -0.246228 0
M  V30 202 C 18.8132 -2.78517 2.23971 0
M  V30 203 S 20.3722 -3.6865 2.37997 0
M  V30 204 H 17.1902 -0.530639 0.473226 0
M  V30 205 H 19.7922 -0.915806 1.72723 0
M  V30 206 H 18.4962 -2.4952 3.25835 0
M  V30 207 H 18.0272 -3.46875 1.85584 0
M  V30 208 H 20.0422 -4.70182 1.58567 0
M  V30 209 N 19.2153 -1.21501 -1.00376 0
M  V30 210 C 20.4633 -1.03095 -1.73827 0
M  V30 211 C 20.7843 0.436341 -1.90055 0
M  V30 212 O 20.0543 1.31466 -1.45236 0
M  V30 213 H 18.6343 -0.378487 -0.644016 0
M  V30 214 H 21.2963 -1.52831 -1.20949 0
M  V30 215 H 20.3923 -1.49991 -2.73695 0
M  V30 216 N 20.6934 1.19889 -1.02296 0
M  V30 217 C 21.6034 2.26571 -0.608508 0
M  V30 218 C 22.6194 1.70299 0.356964 0
M  V30 219 O 23.7954 2.00235 0.216326 0
M  V30 220 C 20.8604 3.46677 0.0402814 0
M  V30 221 C 19.9214 4.18153 -0.97194 0
M  V30 222 C 19.1544 5.32525 -0.354016 0
M  V30 223 O 19.3774 5.64112 0.844604 0
M  V30 224 O 18.3114 5.92242 -1.07391 0
M  V30 225 H 22.1374 2.64251 -1.49684 0
M  V30 226 H 19.7224 1.26629 -0.792809 0
M  V30 227 H 21.6044 4.19475 0.402324 0
M  V30 228 H 20.2794 3.10858 0.902707 0
M  V30 229 H 19.1864 3.47499 -1.38546 0
M  V30 230 H 20.5194 4.57927 -1.80454 0
M  V30 231 N 22.1715 0.800033 1.35784 0
M  V30 232 C 23.1215 0.178654 2.27299 0
M  V30 233 C 24.1055 -0.643667 1.47464 0
M  V30 234 O 25.2975 -0.502 1.69732 0
M  V30 235 C 22.4265 -0.677194 3.36555 0
M  V30 236 C 21.5125 0.154497 4.23818 0
M  V30 237 N 21.9035 1.21427 4.91008 0
M  V30 238 C 20.2015 -0.0649462 4.45953 0
M  V30 239 C 20.9025 1.72147 5.55644 0
M  V30 240 N 19.8785 1.02897 5.33773 0
M  V30 241 H 23.6805 0.989637 2.76737 0
M  V30 242 H 21.1945 0.64054 1.49234 0
M  V30 243 H 23.1915 -1.13835 4.01058 0
M  V30 244 H 21.8515 -1.4866 2.8867 0
M  V30 245 H 22.8625 1.59684 4.92668 0
M  V30 246 H 19.5395 -0.844016 4.0888 0
M  V30 247 H 20.9295 2.60683 6.19269 0
M  V30 248 N 23.6496 -1.47581 0.552962 0
M  V30 249 C 24.5966 -2.29957 -0.197108 0
M  V30 250 C 25.5666 -1.38799 -0.912359 0
M  V30 251 O 26.7516 -1.67761 -0.908888 0
M  V30 252 C 23.8916 -3.22672 -1.22379 0
M  V30 253 C 23.0046 -4.28919 -0.515038 0
M  V30 254 C 22.1396 -5.0879 -1.52664 0
M  V30 255 C 21.1786 -6.06815 -0.802631 0
M  V30 256 N 20.3156 -6.7966 -1.76086 0
M  V30 257 H 25.1556 -2.93578 0.511486 0
M  V30 258 H 22.6926 -1.4471 0.264067 0
M  V30 259 H 24.6506 -3.74845 -1.83159 0
M  V30 260 H 23.2806 -2.60925 -1.90047 0
M  V30 261 H 22.3326 -3.79835 0.207192 0
M  V30 262 H 23.6446 -4.98773 0.0523425 0
M  V30 263 H 22.7986 -5.65091 -2.20809 0
M  V30 264 H 21.5376 -4.38828 -2.12794 0
M  V30 265 H 20.5426 -5.49695 -0.107238 0
M  V30 266 H 21.7676 -6.78784 -0.207135 0
M  V30 267 H 19.7136 -6.12432 -2.35081 0
M  V30 268 H 19.6306 -7.45669 -1.24552 0
M  V30 269 H 20.8986 -7.40538 -2.43359 0
M  V30 270 N 25.1277 -0.289203 -1.54924 0
M  V30 271 C 26.5437 0.0645403 -1.59469 0
M  V30 272 C 26.7437 1.53419 -1.30632 0
M  V30 273 O 25.7997 2.2852 -1.074 0
M  V30 274 C 27.1127 -0.32278 -2.98963 0
M  V30 275 C 28.6607 -0.270564 -3.11828 0
M  V30 276 C 29.1357 -0.632532 -4.53611 0
M  V30 277 N 30.6267 -0.584617 -4.59496 0
M  V30 278 C 31.3617 -0.837314 -5.67254 0
M  V30 279 N 30.8577 -1.15536 -6.83098 0
M  V30 280 N 32.6507 -0.765166 -5.56868 0
M  V30 281 H 24.8017 -1.24714 -1.71931 0
M  V30 282 H 27.0647 -0.504809 -0.802416 0
M  V30 283 H 26.7707 -1.34541 -3.24948 0
M  V30 284 H 26.6447 0.32944 -3.75759 0
M  V30 285 H 29.0317 0.742805 -2.85598 0
M  V30 286 H 29.1127 -0.957242 -2.37214 0
M  V30 287 H 28.7567 -1.64365 -4.80569 0
M  V30 288 H 28.6867 0.07609 -5.26545 0
M  V30 289 H 31.1777 -0.349248 -3.76283 0
M  V30 290 H 31.4907 -1.33447 -7.61191 0
M  V30 291 H 29.8357 -1.19328 -6.84679 0
M  V30 292 H 33.0267 -0.516432 -4.65243 0
M  V30 293 H 33.1997 -0.965477 -6.40767 0
M  V30 294 N 26.6058 1.57591 -0.0167156 0
M  V30 295 C 27.8528 1.91283 0.664597 0
M  V30 296 C 28.1808 0.891949 1.72842 0
M  V30 297 O 27.4358 -0.100931 1.9544 0
M  V30 298 C 27.7348 3.3172 1.33029 0
M  V30 299 C 27.4008 4.4914 0.398047 0
M  V30 300 C 26.0628 4.80992 0.141421 0
M  V30 301 C 28.4148 5.20634 -0.242825 0
M  V30 302 C 25.7428 5.81703 -0.764092 0
M  V30 303 C 28.0948 6.22311 -1.13632 0
M  V30 304 C 26.7588 6.52611 -1.40196 0
M  V30 305 H 26.0288 0.699956 0.243193 0
M  V30 306 H 28.6758 1.9135 -0.0758267 0
M  V30 307 H 26.9808 3.27856 2.14517 0
M  V30 308 H 28.6778 3.55055 1.86379 0
M  V30 309 H 25.2678 4.24262 0.608238 0
M  V30 310 H 29.4518 4.96267 -0.0576019 0
M  V30 311 H 24.7078 6.03532 -0.977732 0
M  V30 312 H 28.8818 6.76834 -1.63917 0
M  V30 313 H 26.5088 7.30467 -2.10529 0
M  V30 314 N 28.0839 -0.256276 1.55502 0
M  V30 315 C 29.4999 -0.604325 1.47716 0
M  V30 316 C 29.6999 -1.88763 0.705039 0
M  V30 317 O 28.7559 -2.51445 0.230613 0
M  V30 318 C 30.0689 -0.715756 2.92057 0
M  V30 319 C 31.6169 -0.808706 3.02372 0
M  V30 320 C 32.0919 -0.951777 4.48001 0
M  V30 321 N 33.5829 -1.01688 4.519 0
M  V30 322 C 34.3179 -1.14668 5.61817 0
M  V30 323 N 33.8139 -1.24261 6.81565 0
M  V30 324 N 35.6069 -1.1791 5.49594 0
M  V30 325 H 27.7579 0.586291 2.04148 0
M  V30 326 H 30.0209 0.201015 0.926443 0
M  V30 327 H 29.7269 0.157027 3.51349 0
M  V30 328 H 29.6009 -1.59071 3.42018 0
M  V30 329 H 31.9879 -1.67195 2.43166 0
M  V30 330 H 32.0689 0.0912063 2.55637 0
M  V30 331 H 31.7129 -0.0931291 5.07815 0
M  V30 332 H 31.6429 -1.86659 4.92408 0
M  V30 333 H 34.1339 -0.954468 3.65648 0
M  V30 334 H 34.4469 -1.34046 7.61086 0
M  V30 335 H 32.7919 -1.21236 6.84344 0
M  V30 336 H 35.9829 -1.10057 4.54978 0
M  V30 337 H 36.1559 -1.27681 6.35296 0
M  V30 338 N 29.562 -1.4872 -0.521534 0
M  V30 339 C 30.787 -1.61101 -1.30618 0
M  V30 340 C 31.212 -0.274611 -1.86085 0
M  V30 341 O 30.57 0.754937 -1.64834 0
M  V30 342 C 30.618 -2.66709 -2.4269 0
M  V30 343 O 29.722 -2.24456 -3.45967 0
M  V30 344 H 29.063 -0.539921 -0.386499 0
M  V30 345 H 31.593 -1.94767 -0.626645 0
M  V30 346 H 31.603 -2.88245 -2.88754 0
M  V30 347 H 30.278 -3.63727 -2.01682 0
M  V30 348 H 28.855 -2.13168 -3.05964 0
M  V30 349 N 31.0401 0.771051 -1.3745 0
M  V30 350 C 31.9701 1.89827 -1.3597 0
M  V30 351 C 32.9511 1.68562 -0.228216 0
M  V30 352 O 34.1361 1.8941 -0.428675 0
M  V30 353 C 31.2661 3.2712 -1.16662 0
M  V30 354 C 30.2201 3.6295 -2.2683 0
M  V30 355 C 29.5461 4.98791 -1.92644 0
M  V30 356 C 30.8461 3.69627 -3.69017 0
M  V30 357 H 32.5401 1.91323 -2.30295 0
M  V30 358 H 30.0861 0.919082 -1.10855 0
M  V30 359 H 32.0391 4.05615 -1.14256 0
M  V30 360 H 30.7631 3.26059 -0.187926 0
M  V30 361 H 29.4221 2.86763 -2.28392 0
M  V30 362 H 29.0701 4.94271 -0.933021 0
M  V30 363 H 28.7701 5.23733 -2.66416 0
M  V30 364 H 30.2941 5.79685 -1.91826 0
M  V30 365 H 31.7081 4.38273 -3.69581 0
M  V30 366 H 30.1051 4.06067 -4.41848 0
M  V30 367 H 31.1751 2.70273 -4.02592 0
M  V30 368 N 32.5182 1.22032 0.997298 0
M  V30 369 C 33.7432 1.06921 1.77715 0
M  V30 370 C 34.1682 -0.376226 1.84299 0
M  V30 371 O 33.5262 -1.27165 1.29223 0
M  V30 372 C 33.5742 1.67996 3.19076 0
M  V30 373 O 32.6782 0.930653 4.01762 0
M  V30 374 H 32.0192 0.375814 0.547412 0
M  V30 375 H 34.5492 1.61737 1.25309 0
M  V30 376 H 34.5592 1.72538 3.69723 0
M  V30 377 H 33.2342 2.73182 3.13599 0
M  V30 378 H 31.8112 0.960917 3.60307 0
M  V30 379 N 33.9963 -1.19345 1.0293 0
M  V30 380 C 35.2213 -1.93538 0.745511 0
M  V30 381 C 35.6463 -1.75007 -0.689511 0
M  V30 382 O 35.0043 -1.05265 -1.47611 0
M  V30 383 C 35.0523 -3.43336 1.10239 0
M  V30 384 O 34.1563 -4.11806 0.221289 0
M  V30 385 H 33.4973 -0.604193 0.275404 0
M  V30 386 H 36.0273 -1.5141 1.37609 0
M  V30 387 H 36.0373 -3.94004 1.05947 0
M  V30 388 H 34.7123 -3.56146 2.14786 0
M  V30 389 H 33.2893 -3.715 0.322842 0
M  V30 390 N 35.4744 -0.807222 -1.35358 0
M  V30 391 C 36.4044 -0.232509 -2.3234 0
M  V30 392 C 37.3854 0.642386 -1.57504 0
M  V30 393 O 38.5704 0.572526 -1.85569 0
M  V30 394 C 35.7004 0.619238 -3.41735 0
M  V30 395 C 34.6544 -0.157215 -4.27711 0
M  V30 396 C 33.9804 0.816273 -5.28433 0
M  V30 397 C 35.2804 -1.35656 -5.04376 0
M  V30 398 H 36.9744 -1.04276 -2.80654 0
M  V30 399 H 34.5204 -0.50288 -1.34934 0
M  V30 400 H 36.4734 1.03137 -4.08584 0
M  V30 401 H 35.1974 1.46239 -2.92031 0
M  V30 402 H 33.8564 -0.550525 -3.62443 0
M  V30 403 H 33.5044 1.65494 -4.74996 0
M  V30 404 H 33.2044 0.301067 -5.86828 0
M  V30 405 H 34.7284 1.22659 -5.98153 0
M  V30 406 H 36.1424 -1.01927 -5.64166 0
M  V30 407 H 34.5394 -1.8063 -5.7227 0
M  V30 408 H 35.6094 -2.14288 -4.34981 0
M  V30 409 N 36.9525 1.47285 -0.560781 0
M  V30 410 C 38.3685 1.58065 -0.22081 0
M  V30 411 C 38.5685 1.55892 1.27671 0
M  V30 412 O 37.6245 1.46422 2.0571 0
M  V30 413 C 38.9375 2.88418 -0.850625 0
M  V30 414 C 40.4855 3.02009 -0.822184 0
M  V30 415 C 40.9605 4.35066 -1.43113 0
M  V30 416 N 42.4515 4.41711 -1.39448 0
M  V30 417 C 43.1865 5.43237 -1.83525 0
M  V30 418 N 42.6825 6.51555 -2.35474 0
M  V30 419 N 44.4755 5.34304 -1.74574 0
M  V30 420 H 36.6265 1.46941 -1.53369 0
M  V30 421 H 38.8895 0.699558 -0.639783 0
M  V30 422 H 38.5955 2.95755 -1.9032 0
M  V30 423 H 38.4695 3.75612 -0.345773 0
M  V30 424 H 40.8565 2.94266 0.221714 0
M  V30 425 H 40.9375 2.16347 -1.36483 0
M  V30 426 H 40.5815 4.43565 -2.47412 0
M  V30 427 H 40.5115 5.19465 -0.863899 0
M  V30 428 H 43.0025 3.64027 -1.01452 0
M  V30 429 H 43.3155 7.25203 -2.67021 0
M  V30 430 H 41.6605 6.52435 -2.39487 0
M  V30 431 H 44.8515 4.48581 -1.33763 0
M  V30 432 H 45.0245 6.13288 -2.09242 0
M  V30 433 N 38.4306 0.297415 1.54768 0
M  V30 434 C 39.3936 -0.567375 2.22066 0
M  V30 435 C 40.3936 -1.06409 1.20556 0
M  V30 436 O 41.5836 -0.960691 1.45315 0
M  V30 437 C 38.7156 -1.78517 2.90421 0
M  V30 438 H 39.9086 0.0205534 2.99893 0
M  V30 439 H 37.4616 0.0482163 1.56226 0
M  V30 440 H 38.1966 -2.41303 2.16664 0
M  V30 441 H 37.9816 -1.43669 3.64831 0
M  V30 442 H 39.4716 -2.39964 3.41771 0
M  V30 443 N 39.9087 -1.5758 0.0250728 0
M  V30 444 C 40.8587 -2.06468 -0.967201 0
M  V30 445 C 41.8427 -0.964376 -1.28797 0
M  V30 446 O 43.0347 -1.22797 -1.27475 0
M  V30 447 C 40.1637 -2.59203 -2.25097 0
M  V30 448 C 39.2497 -3.76157 -1.95874 0
M  V30 449 N 39.6407 -4.86919 -1.36905 0
M  V30 450 C 37.9387 -3.84566 -2.25887 0
M  V30 451 C 38.6397 -5.68172 -1.24724 0
M  V30 452 N 37.6157 -5.14953 -1.74138 0
M  V30 453 H 41.4177 -2.89508 -0.506176 0
M  V30 454 H 38.9317 -1.61399 -0.18004 0
M  V30 455 H 40.9287 -2.92517 -2.97052 0
M  V30 456 H 39.5887 -1.77592 -2.71829 0
M  V30 457 H 40.5997 -5.07256 -1.04459 0
M  V30 458 H 37.2767 -3.13854 -2.75321 0
M  V30 459 H 38.6667 -6.67221 -0.791605 0
M  V30 460 N 41.3868 0.248026 -1.55636 0
M  V30 461 C 42.3168 1.31079 -1.93237 0
M  V30 462 C 43.2978 1.50264 -0.797174 0
M  V30 463 O 44.4828 1.62891 -1.05737 0
M  V30 464 C 41.6128 2.66575 -2.22609 0
M  V30 465 C 40.5668 2.62087 -3.3837 0
M  V30 466 C 39.8928 4.01369 -3.53281 0
M  V30 467 C 41.1928 2.19171 -4.7409 0
M  V30 468 H 42.8868 0.998556 -2.82257 0
M  V30 469 H 40.4328 0.47891 -1.35803 0
M  V30 470 H 42.3858 3.41057 -2.47503 0
M  V30 471 H 41.1098 2.99432 -1.30414 0
M  V30 472 H 39.7688 1.90063 -3.13483 0
M  V30 473 H 39.4168 4.31489 -2.58508 0
M  V30 474 H 39.1168 3.99254 -4.31127 0
M  V30 475 H 40.6408 4.77552 -3.80495 0
M  V30 476 H 42.0548 2.83384 -4.98363 0
M  V30 477 H 40.4518 2.2817 -5.5503 0
M  V30 478 H 41.5218 1.14336 -4.71227 0
M  V30 479 N 42.8649 1.48995 0.513639 0
M  V30 480 C 43.7749 1.67443 1.64317 0
M  V30 481 C 44.7909 0.556947 1.64846 0
M  V30 482 O 45.9669 0.830082 1.83498 0
M  V30 483 C 43.0319 1.72515 3.00732 0
M  V30 484 C 42.0929 2.96009 3.1093 0
M  V30 485 C 41.3259 3.00829 4.40837 0
M  V30 486 O 41.5489 2.13594 5.28898 0
M  V30 487 O 40.4829 3.93168 4.55744 0
M  V30 488 H 44.3089 2.63106 1.51687 0
M  V30 489 H 41.8939 1.32588 0.688543 0
M  V30 490 H 43.7759 1.78277 3.81831 0
M  V30 491 H 42.4509 0.800278 3.13651 0
M  V30 492 H 41.3579 2.9577 2.29065 0
M  V30 493 H 42.6909 3.87934 3.02933 0
M  V30 494 N 44.343 -0.763751 1.37857 0
M  V30 495 C 45.573 -1.55067 1.3652 0
M  V30 496 C 45.981 -1.89135 -0.0494227 0
M  V30 497 O 45.324 -1.52529 -1.02375 0
M  V30 498 C 45.386 -2.8838 2.14656 0
M  V30 499 C 45.05 -2.76905 3.63555 0
M  V30 500 C 46.047 -2.4739 4.57268 0
M  V30 501 C 43.732 -2.94676 4.06781 0
M  V30 502 C 45.726 -2.35786 5.92186 0
M  V30 503 C 43.413 -2.82692 5.41782 0
M  V30 504 C 44.411 -2.53289 6.34298 0
M  V30 505 O 44.099 -2.41345 7.66817 0
M  V30 506 H 43.831 -0.486776 0.469069 0
M  V30 507 H 46.385 -0.953812 1.81911 0
M  V30 508 H 44.615 -3.50217 1.63967 0
M  V30 509 H 46.304 -3.49828 2.05852 0
M  V30 510 H 47.07 -2.33339 4.2518 0
M  V30 511 H 42.949 -3.16563 3.35126 0
M  V30 512 H 46.493 -2.12757 6.64365 0
M  V30 513 H 42.39 -2.96314 5.7347 0
M  V30 514 H 43.158 -2.56634 7.77226 0
M  V30 515 N 45.8211 -1.22559 -0.990812 0
M  V30 516 C 47.0461 -1.07862 -1.77145 0
M  V30 517 C 47.4711 0.366447 -1.84496 0
M  V30 518 O 46.8291 1.26478 -1.29896 0
M  V30 519 C 46.8771 -1.69686 -3.18181 0
M  V30 520 O 45.9811 -0.951946 -4.01263 0
M  V30 521 H 45.3221 -0.378712 -0.545411 0
M  V30 522 H 47.8521 -1.62399 -1.2445 0
M  V30 523 H 47.8621 -1.74496 -3.68802 0
M  V30 524 H 46.5371 -2.74841 -3.12146 0
M  V30 525 H 45.1141 -0.980011 -3.59792 0
M  V30 526 N 47.2992 1.18797 -1.03562 0
M  V30 527 C 48.2492 2.20161 -0.592724 0
M  V30 528 C 49.2332 1.56772 0.362133 0
M  V30 529 O 50.4252 1.76062 0.182009 0
M  V30 530 C 47.5542 3.43266 0.0481024 0
M  V30 531 C 46.6402 4.13786 -0.9296 0
M  V30 532 N 47.0312 4.60388 -2.09467 0
M  V30 533 C 45.3292 4.39572 -0.754499 0
M  V30 534 C 46.0302 5.14619 -2.71187 0
M  V30 535 N 45.0062 5.05826 -1.991 0
M  V30 536 H 48.8082 2.53877 -1.48066 0
M  V30 537 H 46.3222 1.34946 -0.903514 0
M  V30 538 H 48.3192 4.15136 0.383058 0
M  V30 539 H 46.9792 3.11048 0.931636 0
M  V30 540 H 47.9902 4.54999 -2.47379 0
M  V30 541 H 44.6672 4.17425 0.0793713 0
M  V30 542 H 46.0572 5.60917 -3.69895 0
M  V30 543 N 48.7773 0.814389 1.34928 0
M  V30 544 C 50.0053 0.411136 2.02774 0
M  V30 545 C 50.4203 -0.980316 1.61354 0
M  V30 546 O 49.7773 -1.63299 0.814847 0
M  V30 547 C 49.8283 0.493865 3.58111 0
M  V30 548 O 49.5493 1.83047 3.98027 0
M  V30 549 C 51.0503 0.0844174 4.4322 0
M  V30 550 H 48.2703 0.166037 0.650133 0
M  V30 551 H 50.8143 1.10018 1.72384 0
M  V30 552 H 48.9693 -0.147006 3.87121 0
M  V30 553 H 49.3833 1.79872 4.92693 0
M  V30 554 H 50.8573 0.193404 5.51661 0
M  V30 555 H 51.3343 -0.97113 4.28329 0
M  V30 556 H 51.9403 0.69875 4.19521 0
M  V30 557 N 50.2554 -1.46986 0.568584 0
M  V30 558 C 51.4854 -2.0653 0.0539173 0
M  V30 559 C 51.8934 -1.42004 -1.25026 0
M  V30 560 O 51.2364 -0.514541 -1.76347 0
M  V30 561 C 51.2984 -3.58938 -0.200854 0
M  V30 562 C 50.9624 -4.45572 1.01559 0
M  V30 563 C 51.9594 -4.82986 1.92407 0
M  V30 564 C 49.6444 -4.8692 1.23346 0
M  V30 565 C 51.6384 -5.60559 3.03402 0
M  V30 566 C 49.3254 -5.64255 2.34649 0
M  V30 567 C 50.3234 -6.00986 3.24507 0
M  V30 568 O 50.0114 -6.76761 4.33878 0
M  V30 569 H 49.7434 -0.674292 0.0480234 0
M  V30 570 H 52.2974 -1.89812 0.784896 0
M  V30 571 H 50.5274 -3.73911 -0.986279 0
M  V30 572 H 52.2164 -4.0046 -0.662294 0
M  V30 573 H 52.9824 -4.51633 1.76785 0
M  V30 574 H 48.8614 -4.57789 0.543178 0
M  V30 575 H 52.4054 -5.89147 3.73565 0
M  V30 576 H 48.3024 -5.95021 2.5024 0
M  V30 577 H 49.0704 -6.95168 4.32068 0
M  V30 578 N 51.7335 -0.305618 -1.54608 0
M  V30 579 C 52.6435 0.57778 -2.27374 0
M  V30 580 C 53.6595 1.14451 -1.31061 0
M  V30 581 O 54.8355 1.16831 -1.6405 0
M  V30 582 C 51.9005 1.73123 -3.00382 0
M  V30 583 C 50.9615 1.19812 -4.12242 0
M  V30 584 C 50.1945 2.2966 -4.81759 0
M  V30 585 O 50.4175 3.49651 -4.50666 0
M  V30 586 O 49.3515 1.96091 -5.69062 0
M  V30 587 H 53.1775 -0.012624 -3.03697 0
M  V30 588 H 50.7625 -0.0719184 -1.49227 0
M  V30 589 H 52.6445 2.40315 -3.4616 0
M  V30 590 H 51.3195 2.30815 -2.26949 0
M  V30 591 H 50.2265 0.491798 -3.70853 0
M  V30 592 H 51.5595 0.666566 -4.87666 0
M  V30 593 N 53.2116 1.57565 -0.0334293 0
M  V30 594 C 54.4396 1.9628 0.654347 0
M  V30 595 C 54.8546 0.910138 1.65414 0
M  V30 596 O 54.2116 -0.107595 1.82183 0
M  V30 597 C 54.2626 3.35067 1.35693 0
M  V30 598 O 53.9836 4.36296 0.397191 0
M  V30 599 C 55.4846 3.88439 2.13613 0
M  V30 600 H 52.7046 0.646369 0.180132 0
M  V30 601 H 55.2486 2.04282 -0.0944721 0
M  V30 602 H 53.4036 3.2827 2.05712 0
M  V30 603 H 53.8176 5.1678 0.896597 0
M  V30 604 H 55.2916 4.8788 2.58219 0
M  V30 605 H 55.7686 3.22914 2.97696 0
M  V30 606 H 56.3746 3.98516 1.48543 0
M  V30 607 N 54.6897 -0.239769 1.55765 0
M  V30 608 C 55.6197 -1.30052 1.9393 0
M  V30 609 C 56.6007 -1.49839 0.805132 0
M  V30 610 O 57.7857 -1.62328 1.06599 0
M  V30 611 C 54.9157 -2.65391 2.2402 0
M  V30 612 C 53.8697 -2.60289 3.39755 0
M  V30 613 C 53.1957 -3.99489 3.55405 0
M  V30 614 C 54.4957 -2.16654 4.75246 0
M  V30 615 H 56.1897 -0.983573 2.82783 0
M  V30 616 H 53.7357 -0.471701 1.36055 0
M  V30 617 H 55.6887 -3.3974 2.49308 0
M  V30 618 H 54.4127 -2.98736 1.32 0
M  V30 619 H 53.0717 -1.88398 3.14487 0
M  V30 620 H 52.7197 -4.30112 2.60793 0
M  V30 621 H 52.4197 -3.96962 4.33238 0
M  V30 622 H 53.9437 -4.75528 3.83022 0
M  V30 623 H 55.3577 -2.80737 4.99859 0
M  V30 624 H 53.7547 -2.25223 5.56232 0
M  V30 625 H 54.8247 -1.11835 4.71827 0
M  V30 626 N 56.1678 -1.49265 -0.50573 0
M  V30 627 C 57.3978 -1.61979 -1.28243 0
M  V30 628 C 57.8058 -0.288576 -1.86986 0
M  V30 629 O 57.1488 0.735408 -1.68337 0
M  V30 630 C 57.2108 -2.62632 -2.45489 0
M  V30 631 C 56.8748 -4.071 -2.07651 0
M  V30 632 C 57.8718 -4.94049 -1.61901 0
M  V30 633 C 55.5568 -4.52801 -2.17431 0
M  V30 634 C 57.5508 -6.24736 -1.26428 0
M  V30 635 C 55.2378 -5.83503 -1.8157 0
M  V30 636 C 56.2358 -6.69294 -1.36142 0
M  V30 637 O 55.9238 -7.9756 -1.00764 0
M  V30 638 H 55.6558 -0.54834 -0.395347 0
M  V30 639 H 58.2098 -1.96002 -0.614204 0
M  V30 640 H 56.4398 -2.2378 -3.15372 0
M  V30 641 H 58.1288 -2.64925 -3.07522 0
M  V30 642 H 58.8948 -4.5997 -1.53795 0
M  V30 643 H 54.7738 -3.86196 -2.51742 0
M  V30 644 H 58.3178 -6.91652 -0.908992 0
M  V30 645 H 54.2148 -6.17112 -1.89324 0
M  V30 646 H 54.9828 -8.10529 -1.13952 0
M  V30 647 N 57.6459 0.756429 -1.3826 0
M  V30 648 C 58.8949 1.51082 -1.3363 0
M  V30 649 C 59.2079 1.95467 0.0720068 0
M  V30 650 O 60.4139 2.7043 0.240834 0
M  V30 651 C 58.8699 2.72893 -2.34644 0
M  V30 652 C 58.4779 2.35544 -3.81081 0
M  V30 653 C 60.2219 3.50791 -2.39052 0
M  V30 654 C 58.1289 3.53948 -4.73787 0
M  V30 655 H 57.0589 0.56727 -0.49671 0
M  V30 656 H 59.7099 0.827147 -1.638 0
M  V30 657 H 58.0919 3.43227 -1.97513 0
M  V30 658 H 59.2659 1.72894 -4.27135 0
M  V30 659 H 57.5809 1.70786 -3.79764 0
M  V30 660 H 60.1779 4.38823 -3.05513 0
M  V30 661 H 60.5209 3.91745 -1.40861 0
M  V30 662 H 61.0539 2.87467 -2.74968 0
M  V30 663 H 57.7929 3.18064 -5.73163 0
M  V30 664 H 57.3129 4.15651 -4.32428 0
M  V30 665 H 58.9919 4.20566 -4.91663 0
M  V30 666 N 59.124 1.23083 0.984299 0
M  V30 667 C 60.054 1.03292 2.09411 0
M  V30 668 C 61.035 -0.048923 1.7003 0
M  V30 669 O 62.22 0.114967 1.93859 0
M  V30 670 C 59.35 0.619155 3.41736 0
M  V30 671 C 58.304 1.64791 3.95004 0
M  V30 672 C 57.63 1.0897 5.23478 0
M  V30 673 C 58.93 3.03999 4.24714 0
M  V30 674 H 60.624 1.96119 2.26225 0
M  V30 675 H 58.17 0.944344 1.08711 0
M  V30 676 H 60.123 0.467777 4.18796 0
M  V30 677 H 58.847 -0.344786 3.24775 0
M  V30 678 H 57.506 1.78721 3.20085 0
M  V30 679 H 57.154 0.11686 5.02864 0
M  V30 680 H 56.854 1.77704 5.60085 0
M  V30 681 H 58.378 0.950093 6.03163 0
M  V30 682 H 59.792 2.93393 4.92538 0
M  V30 683 H 58.189 3.69936 4.72512 0
M  V30 684 H 59.259 3.53285 3.32142 0
M  V30 685 N 60.6021 -1.18246 1.0419 0
M  V30 686 C 61.8271 -1.92736 0.765996 0
M  V30 687 C 62.2521 -1.75728 -0.67091 0
M  V30 688 O 61.6101 -1.06825 -1.46486 0
M  V30 689 C 61.6581 -3.42148 1.13875 0
M  V30 690 O 60.7621 -4.11548 0.264954 0
M  V30 691 H 60.1031 -0.601238 0.281797 0
M  V30 692 H 62.6331 -1.49942 1.39207 0
M  V30 693 H 62.6431 -3.92858 1.1012 0
M  V30 694 H 61.3181 -3.53848 2.18551 0
M  V30 695 H 59.8951 -3.71137 0.362226 0
M  V30 696 N 62.0802 -0.821533 -1.34494 0
M  V30 697 C 63.0272 -0.240397 -2.29545 0
M  V30 698 C 63.9972 0.634031 -1.53523 0
M  V30 699 O 65.1822 0.575966 -1.81899 0
M  V30 700 C 62.3222 0.592869 -3.39969 0
M  V30 701 C 61.4352 -0.30365 -4.30932 0
M  V30 702 C 60.5702 0.539049 -5.28458 0
M  V30 703 C 59.6092 -0.356942 -6.11058 0
M  V30 704 N 58.7462 0.446603 -7.00678 0
M  V30 705 H 63.5862 -1.05632 -2.7865 0
M  V30 706 H 61.1232 -0.532413 -1.37127 0
M  V30 707 H 63.0812 1.09129 -4.02675 0
M  V30 708 H 61.7112 1.37392 -2.92102 0
M  V30 709 H 60.7632 -0.920276 -3.691 0
M  V30 710 H 62.0752 -0.992661 -4.88823 0
M  V30 711 H 61.2292 1.102 -5.96608 0
M  V30 712 H 59.9682 1.26157 -4.71101 0
M  V30 713 H 58.9732 -0.932047 -5.41842 0
M  V30 714 H 60.1982 -1.07755 -6.70497 0
M  V30 715 H 58.1442 1.15282 -6.45791 0
M  V30 716 H 58.0612 -0.184048 -7.55776 0
M  V30 717 H 59.3292 0.992352 -7.73158 0
M  V30 718 N 63.5583 1.46682 -0.576371 0
M  V30 719 C 64.7863 2.06798 -0.0649635 0
M  V30 720 C 65.2013 1.42612 1.23723 0
M  V30 721 O 64.5583 0.529203 1.74659 0
M  V30 722 C 64.6093 3.6132 0.114202 0
M  V30 723 O 64.3303 4.23104 -1.13644 0
M  V30 724 C 65.8313 4.38349 0.66069 0
M  V30 725 H 63.0513 0.668778 -0.0545616 0
M  V30 726 H 65.5953 1.88404 -0.795237 0
M  V30 727 H 63.7503 3.79162 0.794673 0
M  V30 728 H 64.1643 5.15894 -0.946253 0
M  V30 729 H 65.6383 5.47081 0.73526 0
M  V30 730 H 66.1153 4.05953 1.67627 0
M  V30 731 H 66.7213 4.25297 0.0152951 0
M  V30 732 N 65.0364 0.313813 1.54444 0
M  V30 733 C 65.9844 -0.572171 2.25453 0
M  V30 734 C 66.9784 -1.12657 1.2651 0
M  V30 735 O 68.1844 -1.07573 1.44319 0
M  V30 736 H 64.5594 -0.203146 0.724041 0
M  V30 737 H 66.5304 0.0491145 2.9836 0
M  V30 738 C 65.2794 -1.72626 3.0182 0
M  V30 739 H 64.6024 -1.30891 3.77767 0
M  V30 740 H 66.0424 -2.32199 3.54767 0
M  V30 741 C 64.5014 -2.63806 2.09542 0
M  V30 742 O 65.0314 -3.65256 1.67185 0
M  V30 743 N 63.2374 -2.31824 1.75232 0
M  V30 744 H 62.7844 -1.49368 2.09873 0
M  V30 745 H 62.7424 -2.93095 1.13767 0
M  V30 746 N 66.5145 -1.57545 0.0417849 0
M  V30 747 C 67.7395 -1.97035 -0.647455 0
M  V30 748 C 68.1645 -0.918775 -1.64135 0
M  V30 749 O 67.5225 0.119006 -1.80909 0
M  V30 750 C 67.5705 -3.35609 -1.31905 0
M  V30 751 O 66.6745 -3.3287 -2.43457 0
M  V30 752 H 66.0155 -0.64211 -0.169086 0
M  V30 753 H 68.5455 -2.04318 0.107399 0
M  V30 754 H 68.5555 -3.72126 -1.67291 0
M  V30 755 H 67.2305 -4.11685 -0.590586 0
M  V30 756 H 65.8075 -3.08087 -2.10088 0
M  V30 757 N 67.9926 0.231505 -1.5589 0
M  V30 758 C 69.2416 0.955346 -1.7764 0
M  V30 759 C 69.5546 1.85893 -0.608546 0
M  V30 760 O 70.7606 2.62067 -0.70943 0
M  V30 761 C 69.2166 1.74886 -3.14552 0
M  V30 762 C 68.8246 0.891915 -4.39032 0
M  V30 763 C 70.5686 2.46452 -3.45633 0
M  V30 764 C 68.4756 1.68221 -5.66971 0
M  V30 765 H 67.4056 0.360446 -0.662265 0
M  V30 766 H 70.0566 0.209516 -1.823 0
M  V30 767 H 68.4386 2.53723 -3.04041 0
M  V30 768 H 69.6126 0.144793 -4.60572 0
M  V30 769 H 67.9276 0.288863 -4.15397 0
M  V30 770 H 70.5246 3.06061 -4.38441 0
M  V30 771 H 70.8676 3.18841 -2.67668 0
M  V30 772 H 71.4006 1.74613 -3.57428 0
M  V30 773 H 68.1396 1.00178 -6.478 0
M  V30 774 H 67.6596 2.4042 -5.49507 0
M  V30 775 H 69.3386 2.24544 -6.06786 0
M  V30 776 N 69.4707 1.49531 0.497807 0
M  V30 777 C 70.7107 1.60799 1.26187 0
M  V30 778 C 71.0747 0.289627 1.89803 0
M  V30 779 O 72.2757 0.277512 2.67364 0
M  V30 780 C 70.5467 2.73729 2.29798 0
M  V30 781 S 72.1057 3.04968 3.155 0
M  V30 782 H 68.9237 0.567145 0.428798 0
M  V30 783 H 71.5257 1.87204 0.563477 0
M  V30 784 H 70.2297 3.68036 1.81597 0
M  V30 785 H 69.7607 2.49328 3.04301 0
M  V30 786 H 71.7757 2.46735 4.30507 0
M  V30 787 N 70.9488 -0.749086 1.3866 0
M  V30 788 C 72.2258 -1.4992 1.25632 0
M  V30 789 C 72.6058 -2.10633 -0.140317 0
M  V30 790 O 71.9538 -1.97437 -1.15025 0
M  V30 791 C 72.1638 -2.56195 2.36992 0
M  V30 792 C 73.5118 -3.22972 2.75634 0
M  V30 793 O 74.5358 -2.66502 2.36337 0
M  V30 794 O 73.3948 -4.25122 3.43415 0
M  V30 795 H 70.4888 -0.665067 0.491544 0
M  V30 796 H 73.0348 -0.784113 1.50498 0
M  V30 797 H 71.8068 -2.09612 3.30422 0
M  V30 798 H 71.4298 -3.35279 2.13714 0
M  V30 799 N 72.4269 -1.23603 -0.977757 0
M  V30 800 C 73.6749 -1.06759 -1.71601 0
M  V30 801 C 73.9959 0.395929 -1.90938 0
M  V30 802 O 73.2659 1.28356 -1.47992 0
M  V30 803 H 71.8459 -0.392062 -0.635843 0
M  V30 804 H 74.5079 -1.55362 -1.1768 0
M  V30 805 H 73.6039 -1.55763 -2.70452 0
M  V30 806 N 73.905 1.17692 -1.04816 0
M  V30 807 C 74.868 2.19787 -0.650117 0
M  V30 808 C 75.868 1.58044 0.296427 0
M  V30 809 O 77.058 1.74012 0.0808097 0
M  V30 810 C 74.19 3.40869 0.0456987 0
M  V30 811 H 75.383 2.56516 -1.5537 0
M  V30 812 H 72.936 1.31708 -0.841594 0
M  V30 813 H 73.671 3.09681 0.962726 0
M  V30 814 H 73.456 3.86928 -0.634727 0
M  V30 815 H 74.946 4.16445 0.310432 0
M  V30 816 N 75.3831 0.828654 1.34056 0
M  V30 817 C 76.3461 0.259927 2.27721 0
M  V30 818 C 77.3461 -0.565478 1.50529 0
M  V30 819 O 78.5361 -0.38075 1.69988 0
M  V30 820 C 75.6681 -0.634944 3.34935 0
M  V30 821 H 76.8611 1.0863 2.79534 0
M  V30 822 H 74.4141 0.600951 1.44285 0
M  V30 823 H 75.1491 -1.48416 2.88346 0
M  V30 824 H 74.9341 -0.0444999 3.92075 0
M  V30 825 H 76.4241 -1.02648 4.04788 0
M  V30 826 N 76.8612 -1.46375 0.584142 0
M  V30 827 C 77.8242 -2.28784 -0.138108 0
M  V30 828 C 78.8242 -1.38471 -0.817462 0
M  V30 829 O 80.0142 -1.60833 -0.669199 0
M  V30 830 C 77.1462 -3.18892 -1.20503 0
M  V30 831 H 78.3392 -2.94117 0.586127 0
M  V30 832 H 75.8922 -1.52509 0.342171 0
M  V30 833 H 76.6272 -2.58309 -1.96079 0
M  V30 834 H 76.4122 -3.85388 -0.722384 0
M  V30 835 H 77.9022 -3.80914 -1.71155 0
M  V30 836 N 78.3393 -0.321999 -1.54275 0
M  V30 837 C 79.3023 0.531975 -2.22941 0
M  V30 838 C 80.3023 1.04478 -1.22234 0
M  V30 839 O 81.4923 0.937452 -1.46825 0
M  V30 840 C 78.6243 1.73874 -2.93224 0
M  V30 841 H 79.8173 -0.0682612 -2.99822 0
M  V30 842 H 77.3703 -0.0730644 -1.56129 0
M  V30 843 H 78.1053 2.37825 -2.20476 0
M  V30 844 H 77.8903 1.37847 -3.6707 0
M  V30 845 H 79.3803 2.34496 -3.45545 0
M  V30 846 N 79.8174 1.5752 -0.0501392 0
M  V30 847 C 80.7804 2.1037 0.909786 0
M  V30 848 C 81.7804 1.02308 1.24056 0
M  V30 849 O 82.9704 1.28385 1.17741 0
M  V30 850 C 80.1024 2.58708 2.21998 0
M  V30 851 H 81.2954 2.96479 0.451665 0
M  V30 852 H 78.8484 1.55038 0.198248 0
M  V30 853 H 79.5834 1.75989 2.72394 0
M  V30 854 H 79.3684 3.37675 1.99295 0
M  V30 855 H 80.8584 2.99747 2.9076 0
M  V30 856 N 81.2955 -0.223234 1.56011 0
M  V30 857 C 82.2585 -1.26014 1.9145 0
M  V30 858 C 83.2585 -1.3989 0.792937 0
M  V30 859 O 84.4485 -1.38184 1.0607 0
M  V30 860 C 81.5805 -2.63422 2.16383 0
M  V30 861 H 82.7735 -0.95796 2.84189 0
M  V30 862 H 80.3265 -0.463576 1.49267 0
M  V30 863 H 81.0615 -2.98741 1.2619 0
M  V30 864 H 80.8465 -2.54728 2.98088 0
M  V30 865 H 82.3365 -3.38249 2.44903 0
M  V30 866 N 82.7736 -1.49793 -0.48987 0
M  V30 867 C 83.7366 -1.66752 -1.57246 0
M  V30 868 C 84.7366 -0.538867 -1.51502 0
M  V30 869 O 85.9266 -0.805545 -1.54456 0
M  V30 870 C 83.0586 -1.67528 -2.96896 0
M  V30 871 H 84.2516 -2.63321 -1.43534 0
M  V30 872 H 81.8046 -1.38992 -0.714914 0
M  V30 873 H 82.5396 -0.725837 -3.16073 0
M  V30 874 H 82.3246 -2.49504 -3.02473 0
M  V30 875 H 83.8146 -1.82667 -3.7553 0
M  V30 876 N 84.2517 0.741722 -1.39055 0
M  V30 877 C 85.2147 1.83733 -1.37021 0
M  V30 878 C 86.2147 1.58542 -0.268534 0
M  V30 879 O 87.4047 1.66067 -0.526076 0
M  V30 880 C 84.5367 3.2141 -1.13617 0
M  V30 881 H 85.7297 1.86941 -2.34506 0
M  V30 882 H 83.2827 0.944676 -1.24521 0
M  V30 883 H 84.0177 3.23865 -0.167863 0
M  V30 884 H 83.8027 3.4109 -1.93391 0
M  V30 885 H 85.2927 4.01477 -1.14918 0
M  V30 886 N 85.7298 1.2412 0.971189 0
M  V30 887 C 86.6928 1.03156 2.04674 0
M  V30 888 C 87.6928 -0.00990322 1.60797 0
M  V30 889 O 88.8828 0.230729 1.72665 0
M  V30 890 C 86.0148 0.562765 3.36223 0
M  V30 891 H 87.2078 1.98614 2.24705 0
M  V30 892 H 84.7608 1.06293 1.14593 0
M  V30 893 H 85.4958 -0.395176 3.21883 0
M  V30 894 H 85.2808 1.31441 3.69413 0
M  V30 895 H 86.7708 0.437015 4.15307 0
M  V30 896 N 87.2079 -1.17134 1.05439 0
M  V30 897 C 88.1709 -2.19439 0.661764 0
M  V30 898 C 89.1709 -1.58199 -0.288042 0
M  V30 899 O 90.3609 -1.74053 -0.0715803 0
M  V30 900 C 87.4929 -3.40889 -0.0276209 0
M  V30 901 H 88.6859 -2.55688 1.56728 0
M  V30 902 H 86.2389 -1.31259 0.848567 0
M  V30 903 H 86.9739 -3.10187 -0.94629 0
M  V30 904 H 86.7589 -3.86586 0.655238 0
M  V30 905 H 88.2489 -4.16603 -0.288342 0
M  V30 906 N 88.686 -0.835752 -1.33615 0
M  V30 907 C 89.649 -0.272 -2.2758 0
M  V30 908 C 90.649 0.557487 -1.50827 0
M  V30 909 O 91.839 0.37173 -1.70188 0
M  V30 910 C 88.971 0.617173 -3.35267 0
M  V30 911 H 90.164 -1.10111 -2.78954 0
M  V30 912 H 87.717 -0.608594 -1.43965 0
M  V30 913 H 88.452 1.46884 -2.89129 0
M  V30 914 H 88.237 0.0237066 -3.92093 0
M  V30 915 H 89.727 1.005 -4.05326 0
M  V30 916 N 90.1641 1.46063 -0.591896 0
M  V30 917 C 91.3891 2.07226 -0.0850314 0
M  V30 918 C 91.8141 1.43625 1.21463 0
M  V30 919 O 91.1721 0.523305 1.73583 0
M  V30 920 C 91.2201 3.60554 0.0576567 0
M  V30 921 O 90.3241 3.97128 1.11188 0
M  V30 922 H 89.6651 0.660615 -0.0669568 0
M  V30 923 H 92.1951 1.8756 -0.81745 0
M  V30 924 H 92.2051 4.07165 0.2609 0
M  V30 925 H 90.8801 4.06235 -0.891416 0
M  V30 926 H 89.4571 3.62213 0.886356 0
M  V30 927 N 91.6422 0.330177 1.54103 0
M  V30 928 C 92.8902 -0.269871 2.0029 0
M  V30 929 C 93.2112 -1.52133 1.21986 0
M  V30 930 O 92.4812 -1.93212 0.323438 0
M  V30 931 H 91.0612 -0.10271 0.739905 0
M  V30 932 H 93.7232 0.448249 1.89675 0
M  V30 933 H 92.8192 -0.52166 3.07709 0
M  V30 934 N 93.1203 -1.57491 0.0584922 0
M  V30 935 C 94.3673 -1.92978 -0.613648 0
M  V30 936 C 94.6953 -0.937461 -1.70417 0
M  V30 937 O 93.9503 0.049078 -1.95638 0
M  V30 938 C 94.2493 -3.3513 -1.24188 0
M  V30 939 C 93.9153 -4.50037 -0.278826 0
M  V30 940 C 92.5773 -4.81198 -0.0138447 0
M  V30 941 C 94.9293 -5.19807 0.380777 0
M  V30 942 C 92.2573 -5.79473 0.918052 0
M  V30 943 C 94.6093 -6.19079 1.30091 0
M  V30 944 C 93.2733 -6.48665 1.57449 0
M  V30 945 H 92.5433 -0.706157 -0.22455 0
M  V30 946 H 95.1903 -1.91082 0.126533 0
M  V30 947 H 93.4953 -3.33429 -2.05749 0
M  V30 948 H 95.1923 -3.59871 -1.769 0
M  V30 949 H 91.7823 -4.25726 -0.495539 0
M  V30 950 H 95.9663 -4.95939 0.189158 0
M  V30 951 H 91.2223 -6.00727 1.1374 0
M  V30 952 H 95.3963 -6.7225 1.81804 0
M  V30 953 H 93.0233 -7.24628 2.29822 0
M  V30 954 N 94.5984 0.214957 -1.56127 0
M  V30 955 C 96.0094 0.781386 -1.69562 0
M  V30 956 C 96.3604 1.84707 -0.66165 0
M  V30 957 O 95.4854 2.156 0.185927 0
M  V30 958 C 96.0804 1.42411 -3.07416 0
M  V30 959 C 94.6394 1.93786 -3.22683 0
M  V30 960 C 93.7864 0.800438 -2.65496 0
M  V30 961 H 96.7374 -0.00980633 -1.58697 0
M  V30 962 H 96.7584 2.29309 -3.0364 0
M  V30 963 H 96.2704 0.64826 -3.82648 0
M  V30 964 H 94.3714 2.74152 -2.52332 0
M  V30 965 H 94.4844 2.1133 -4.29973 0
M  V30 966 H 92.8484 1.2095 -2.2415 0
M  V30 967 H 93.6314 0.0371471 -3.4328 0
M  V30 968 N 96.0765 1.50051 0.48192 0
M  V30 969 C 97.0065 1.71046 1.58951 0
M  V30 970 C 97.9875 0.559288 1.60642 0
M  V30 971 O 99.1725 0.797243 1.77081 0
M  V30 972 C 96.3025 1.79462 2.97339 0
M  V30 973 C 95.2565 2.94558 3.10515 0
M  V30 974 C 94.5825 2.88105 4.50444 0
M  V30 975 C 95.8825 4.35227 2.88747 0
M  V30 976 H 97.5765 2.6378 1.41635 0
M  V30 977 H 95.1225 1.26936 0.679942 0
M  V30 978 H 97.0755 1.92734 3.74742 0
M  V30 979 H 95.7995 0.833412 3.15788 0
M  V30 980 H 94.4585 2.80918 2.35543 0
M  V30 981 H 94.1065 1.89853 4.65795 0
M  V30 982 H 93.8065 3.65366 4.60197 0
M  V30 983 H 95.3305 3.03412 5.29881 0
M  V30 984 H 96.7445 4.49449 3.55905 0
M  V30 985 H 95.1415 5.13856 3.09955 0
M  V30 986 H 96.2115 4.48347 1.84696 0
M  V30 987 N 97.5546 -0.734337 1.39446 0
M  V30 988 C 98.5176 -1.83004 1.37994 0
M  V30 989 C 99.5176 -1.58397 0.276938 0
M  V30 990 O 100.708 -1.65785 0.534875 0
M  V30 991 C 97.8396 -3.20802 1.1532 0
M  V30 992 H 99.0326 -1.85694 2.35494 0
M  V30 993 H 96.5856 -0.938059 1.25021 0
M  V30 994 H 97.3206 -3.23772 0.185036 0
M  V30 995 H 97.1056 -3.4006 1.95197 0
M  V30 996 H 98.5956 -4.00862 1.17046 0
M  V30 997 N 99.0327 -1.24633 -0.964593 0
M  V30 998 C 100.444 -1.08045 -1.5226 0
M  V30 999 C 100.795 0.347116 -1.93105 0
M  V30 1000 O 99.9197 1.23588 -1.77637 0
M  V30 1001 C 100.515 -1.95514 -2.76695 0
M  V30 1002 C 99.0737 -1.8314 -3.28841 0
M  V30 1003 C 98.2207 -1.90262 -2.01732 0
M  V30 1004 H 101.172 -1.38064 -0.782553 0
M  V30 1005 H 101.193 -1.48925 -3.50145 0
M  V30 1006 H 100.705 -2.99407 -2.46936 0
M  V30 1007 H 98.8057 -0.82092 -3.63444 0
M  V30 1008 H 98.9187 -2.67406 -3.97531 0
M  V30 1009 H 97.2827 -1.34027 -2.16584 0
M  V30 1010 H 98.0657 -2.9574 -1.74334 0
M  V30 1011 N 100.511 1.16574 -1.06058 0
M  V30 1012 C 101.421 2.2452 -0.680282 0
M  V30 1013 C 102.437 1.71348 0.302604 0
M  V30 1014 O 103.613 2.00822 0.152513 0
M  V30 1015 C 100.678 3.46629 -0.0700315 0
M  V30 1016 C 99.7388 4.14849 -1.10448 0
M  V30 1017 C 98.9718 5.31129 -0.523256 0
M  V30 1018 O 99.1948 5.66514 0.664709 0
M  V30 1019 O 98.1288 5.88526 -1.26179 0
M  V30 1020 H 101.955 2.59355 -1.58015 0
M  V30 1021 H 99.5398 1.24043 -0.832694 0
M  V30 1022 H 101.422 4.20543 0.268667 0
M  V30 1023 H 100.097 3.13573 0.803353 0
M  V30 1024 H 99.0038 3.42916 -1.49532 0
M  V30 1025 H 100.337 4.51954 -1.94931 0
M  V30 1026 N 101.989 0.842826 1.3317 0
M  V30 1027 C 103.4 0.496651 1.79973 0
M  V30 1028 C 103.751 -0.984641 1.69703 0
M  V30 1029 O 102.876 -1.76743 1.24863 0
M  V30 1030 C 103.471 0.894727 3.26772 0
M  V30 1031 C 102.03 0.600629 3.71577 0
M  V30 1032 C 101.177 1.10091 2.5451 0
M  V30 1033 H 104.128 1.03116 1.20635 0
M  V30 1034 H 104.149 0.206347 3.7994 0
M  V30 1035 H 103.661 1.97287 3.34215 0
M  V30 1036 H 101.762 -0.467284 3.69658 0
M  V30 1037 H 101.875 1.15863 4.64879 0
M  V30 1038 H 100.239 0.52162 2.49301 0
M  V30 1039 H 101.022 2.18591 2.64713 0
M  V30 1040 N 103.467 -1.45747 0.599634 0
M  V30 1041 C 104.43 -2.28917 -0.113835 0
M  V30 1042 C 105.43 -1.3933 -0.802729 0
M  V30 1043 O 106.62 -1.61534 -0.652103 0
M  V30 1044 C 103.752 -3.20152 -1.17114 0
M  V30 1045 H 104.945 -2.93478 0.617289 0
M  V30 1046 H 102.498 -1.52137 0.358327 0
M  V30 1047 H 103.233 -2.60374 -1.93329 0
M  V30 1048 H 103.018 -3.86133 -0.681468 0
M  V30 1049 H 104.508 -3.82708 -1.67105 0
M  V30 1050 N 104.945 -0.338344 -1.53925 0
M  V30 1051 C 105.908 0.508299 -2.23493 0
M  V30 1052 C 106.908 1.03175 -1.23335 0
M  V30 1053 O 108.098 0.921826 -1.47811 0
M  V30 1054 C 105.23 1.70754 -2.95052 0
M  V30 1055 H 106.423 -0.100058 -2.99733 0
M  V30 1056 H 103.976 -0.0896198 -1.56043 0
M  V30 1057 H 104.711 2.35474 -2.22986 0
M  V30 1058 H 104.496 1.33946 -3.68512 0
M  V30 1059 H 105.986 2.30818 -3.48013 0
M  V30 1060 N 106.423 1.57458 -0.0668435 0
M  V30 1061 C 107.353 2.15468 0.899764 0
M  V30 1062 C 108.334 1.08042 1.31381 0
M  V30 1063 O 109.519 1.36054 1.38574 0
M  V30 1064 C 106.649 2.71232 2.16911 0
M  V30 1065 C 105.603 3.83781 1.89463 0
M  V30 1066 C 104.929 4.26127 3.22986 0
M  V30 1067 C 106.229 5.08238 1.20381 0
M  V30 1068 H 107.923 2.96488 0.416529 0
M  V30 1069 H 105.469 1.4262 0.198908 0
M  V30 1070 H 107.422 3.10458 2.84945 0
M  V30 1071 H 106.146 1.87426 2.67468 0
M  V30 1072 H 104.805 3.45051 1.23836 0
M  V30 1073 H 104.453 3.39249 3.71374 0
M  V30 1074 H 104.153 5.01993 3.05413 0
M  V30 1075 H 105.677 4.67966 3.92225 0
M  V30 1076 H 107.091 5.44811 1.78475 0
M  V30 1077 H 105.488 5.89349 1.13083 0
M  V30 1078 H 106.558 4.84558 0.182153 0
M  V30 1079 N 107.901 -0.206675 1.56239 0
M  V30 1080 C 108.831 -1.25909 1.96645 0
M  V30 1081 C 109.812 -1.48097 0.836734 0
M  V30 1082 O 110.997 -1.6003 1.10019 0
M  V30 1083 C 108.127 -2.6058 2.29599 0
M  V30 1084 C 107.081 -2.53024 3.452 0
M  V30 1085 C 106.407 -3.91861 3.63798 0
M  V30 1086 C 107.707 -2.06524 4.79734 0
M  V30 1087 H 109.401 -0.923369 2.84806 0
M  V30 1088 H 106.947 -0.442735 1.37025 0
M  V30 1089 H 108.9 -3.34375 2.56459 0
M  V30 1090 H 107.624 -2.95869 1.38307 0
M  V30 1091 H 106.283 -1.81684 3.18412 0
M  V30 1092 H 105.931 -4.24483 2.69857 0
M  V30 1093 H 105.631 -3.87683 4.4156 0
M  V30 1094 H 107.155 -4.67296 3.93022 0
M  V30 1095 H 108.569 -2.70072 5.05702 0
M  V30 1096 H 106.966 -2.13374 5.60885 0
M  V30 1097 H 108.036 -1.01802 4.74093 0
M  V30 1098 N 109.379 -1.50304 -0.473955 0
M  V30 1099 C 110.342 -1.6841 -1.55469 0
M  V30 1100 C 111.342 -0.554905 -1.50922 0
M  V30 1101 O 112.532 -0.821882 -1.53593 0
M  V30 1102 C 109.664 -1.70667 -2.95102 0
M  V30 1103 H 110.857 -2.64828 -1.40733 0
M  V30 1104 H 108.41 -1.39742 -0.700132 0
M  V30 1105 H 109.145 -0.75932 -3.15285 0
M  V30 1106 H 108.93 -2.52698 -2.9981 0
M  V30 1107 H 110.42 -1.8664 -3.73571 0
M  V30 1108 N 110.857 0.726932 -1.39834 0
M  V30 1109 C 112.103 1.48884 -1.377 0
M  V30 1110 C 112.436 1.94185 0.0244852 0
M  V30 1111 O 111.711 1.67361 0.990986 0
M  V30 1112 C 111.994 2.72288 -2.3565 0
M  V30 1113 C 111.847 2.32956 -3.84775 0
M  V30 1114 C 113.166 3.74414 -2.31306 0
M  V30 1115 H 110.285 0.540062 -0.5015 0
M  V30 1116 H 112.927 0.830547 -1.70886 0
M  V30 1117 H 111.077 3.28457 -2.07481 0
M  V30 1118 H 112.749 1.82356 -4.23726 0
M  V30 1119 H 110.992 1.65088 -4.01159 0
M  V30 1120 H 111.663 3.21362 -4.4881 0
M  V30 1121 H 114.139 3.27849 -2.56231 0
M  V30 1122 H 113.015 4.58414 -3.01907 0
M  V30 1123 H 113.276 4.21909 -1.32081 0
M  V30 1124 N 112.336 1.25143 0.95797 0
M  V30 1125 C 113.747 1.08851 1.51685 0
M  V30 1126 C 114.098 -0.33687 1.93286 0
M  V30 1127 O 113.223 -1.22644 1.7829 0
M  V30 1128 C 113.818 1.96978 2.75654 0
M  V30 1129 C 112.377 1.84881 3.27866 0
M  V30 1130 C 111.524 1.91329 2.0072 0
M  V30 1131 H 114.475 1.38478 0.77522 0
M  V30 1132 H 114.496 1.5078 3.4935 0
M  V30 1133 H 114.008 3.00712 2.45345 0
M  V30 1134 H 112.109 0.840182 3.63004 0
M  V30 1135 H 112.222 2.6951 3.96107 0
M  V30 1136 H 110.586 1.35174 2.15871 0
M  V30 1137 H 111.369 2.96661 1.72764 0
M  V30 1138 N 113.814 -1.1601 1.06675 0
M  V30 1139 C 115.062 -1.86264 0.784229 0
M  V30 1140 C 115.383 -1.82328 -0.691488 0
M  V30 1141 O 114.653 -1.25947 -1.50047 0
M  V30 1142 H 113.233 -0.689621 0.28711 0
M  V30 1143 H 115.895 -1.40664 1.34906 0
M  V30 1144 H 114.991 -2.91595 1.11259 0
M  V30 1145 N 115.292 -0.849877 -1.32721 0
M  V30 1146 C 116.255 -0.296122 -2.27279 0
M  V30 1147 C 117.255 0.541458 -1.5141 0
M  V30 1148 O 118.445 0.353658 -1.70572 0
M  V30 1149 C 115.577 0.581579 -3.35902 0
M  V30 1150 H 116.77 -1.13064 -2.77771 0
M  V30 1151 H 114.323 -0.62383 -1.43311 0
M  V30 1152 H 115.058 1.43809 -2.9067 0
M  V30 1153 H 114.843 -0.0178814 -3.92096 0
M  V30 1154 H 116.333 0.961951 -4.0637 0
M  V30 1155 N 116.77 1.45427 -0.607355 0
M  V30 1156 C 118.186 1.57283 -0.270985 0
M  V30 1157 C 118.386 1.59875 1.22647 0
M  V30 1158 O 117.442 1.52893 2.00948 0
M  V30 1159 C 118.755 2.85566 -0.941952 0
M  V30 1160 C 120.303 2.9924 -0.917849 0
M  V30 1161 C 120.778 4.30293 -1.56882 0
M  V30 1162 N 122.269 4.37051 -1.5343 0
M  V30 1163 C 123.004 5.37123 -2.00715 0
M  V30 1164 N 122.5 6.43734 -2.56084 0
M  V30 1165 N 124.293 5.28479 -1.91484 0
M  V30 1166 H 116.444 1.41988 -1.57966 0
M  V30 1167 H 118.707 0.67885 -0.661715 0
M  V30 1168 H 118.413 2.8955 -1.99633 0
M  V30 1169 H 118.287 3.74322 -0.465096 0
M  V30 1170 H 120.674 2.94822 0.127984 0
M  V30 1171 H 120.755 2.11895 -1.43297 0
M  V30 1172 H 120.399 4.35469 -2.61398 0
M  V30 1173 H 120.329 5.16454 -1.02873 0
M  V30 1174 H 122.82 3.60615 -1.12982 0
M  V30 1175 H 123.133 7.16341 -2.89958 0
M  V30 1176 H 121.478 6.44485 -2.60122 0
M  V30 1177 H 124.669 4.44098 -1.47967 0
M  V30 1178 H 124.842 6.0632 -2.28648 0
M  V30 1179 N 118.248 0.346503 1.53744 0
M  V30 1180 C 119.664 -0.00530975 1.59599 0
M  V30 1181 C 119.864 -1.48465 1.36236 0
M  V30 1182 O 118.92 -2.24376 1.15808 0
M  V30 1183 C 120.233 0.433516 2.97559 0
M  V30 1184 C 121.781 0.386111 3.10609 0
M  V30 1185 C 122.256 0.800451 4.50951 0
M  V30 1186 N 123.747 0.754753 4.5701 0
M  V30 1187 C 124.482 1.04727 5.63755 0
M  V30 1188 N 123.978 1.4081 6.7834 0
M  V30 1189 N 125.771 0.971316 5.53644 0
M  V30 1190 H 117.922 1.31009 1.67184 0
M  V30 1191 H 120.185 0.534242 0.783128 0
M  V30 1192 H 119.891 1.46509 3.19731 0
M  V30 1193 H 119.765 -0.189753 3.76722 0
M  V30 1194 H 122.152 -0.636295 2.88158 0
M  V30 1195 H 122.233 1.04462 2.33498 0
M  V30 1196 H 121.877 1.82088 4.74137 0
M  V30 1197 H 121.807 0.119386 5.26465 0
M  V30 1198 H 124.298 0.488662 3.74727 0
M  V30 1199 H 124.611 1.61607 7.55714 0
M  V30 1200 H 122.956 1.44657 6.79779 0
M  V30 1201 H 126.147 0.688748 4.63005 0
M  V30 1202 H 126.32 1.20263 6.36742 0
M  V30 1203 N 119.726 -1.57421 0.075193 0
M  V30 1204 C 120.636 -2.1642 -0.905511 0
M  V30 1205 C 121.652 -1.12828 -1.32461 0
M  V30 1206 O 122.828 -1.45109 -1.39661 0
M  V30 1207 C 119.893 -2.71693 -2.15369 0
M  V30 1208 C 118.954 -3.90171 -1.79068 0
M  V30 1209 C 118.187 -4.42798 -2.97936 0
M  V30 1210 O 118.41 -3.94416 -4.12058 0
M  V30 1211 O 117.344 -5.34085 -2.77555 0
M  V30 1212 H 121.17 -3.00588 -0.433626 0
M  V30 1213 H 118.755 -1.48664 -0.148067 0
M  V30 1214 H 120.637 -3.07104 -2.88557 0
M  V30 1215 H 119.312 -1.90582 -2.61649 0
M  V30 1216 H 118.219 -3.59606 -1.03122 0
M  V30 1217 H 119.552 -4.72584 -1.37569 0
M  V30 1218 N 121.204 0.198386 -1.56346 0
M  V30 1219 C 122.45 0.920648 -1.80698 0
M  V30 1220 C 122.783 1.83045 -0.648697 0
M  V30 1221 O 122.058 1.91308 0.350925 0
M  V30 1222 C 122.341 1.73971 -3.15287 0
M  V30 1223 C 122.194 0.85485 -4.41602 0
M  V30 1224 C 123.513 2.71296 -3.46535 0
M  V30 1225 H 120.632 0.333261 -0.657348 0
M  V30 1226 H 123.274 0.188198 -1.89066 0
M  V30 1227 H 121.424 2.36416 -3.08285 0
M  V30 1228 H 123.096 0.245362 -4.60647 0
M  V30 1229 H 121.339 0.161398 -4.335 0
M  V30 1230 H 122.01 1.46286 -5.32264 0
M  V30 1231 H 124.486 2.18983 -3.53816 0
M  V30 1232 H 123.362 3.2569 -4.41834 0
M  V30 1233 H 123.623 3.5018 -2.69864 0
M  V30 1234 N 122.682 1.50554 0.465978 0
M  V30 1235 C 123.929 1.61798 1.21768 0
M  V30 1236 C 124.257 0.320696 1.91838 0
M  V30 1237 O 123.512 -0.693724 1.82992 0
M  V30 1238 C 123.811 2.75152 2.28093 0
M  V30 1239 C 123.477 4.15454 1.75239 0
M  V30 1240 C 122.139 4.53628 1.60546 0
M  V30 1241 C 124.491 5.03121 1.36083 0
M  V30 1242 C 121.819 5.77204 1.05128 0
M  V30 1243 C 124.171 6.27249 0.821056 0
M  V30 1244 C 122.835 6.64221 0.660795 0
M  V30 1245 H 122.105 0.592063 0.445582 0
M  V30 1246 H 124.752 1.84503 0.512927 0
M  V30 1247 H 123.057 2.46556 3.04496 0
M  V30 1248 H 124.754 2.81055 2.86023 0
M  V30 1249 H 121.344 3.85341 1.87644 0
M  V30 1250 H 125.528 4.74257 1.46267 0
M  V30 1251 H 120.784 6.0452 0.91462 0
M  V30 1252 H 124.958 6.94537 0.509018 0
M  V30 1253 H 122.585 7.59854 0.229226 0
M  V30 1254 N 124.16 -0.719506 1.40217 0
M  V30 1255 C 125.07 -1.86378 1.42479 0
M  V30 1256 C 126.086 -1.71073 0.317834 0
M  V30 1257 O 127.262 -1.93406 0.561794 0
M  V30 1258 C 124.327 -3.22136 1.28178 0
M  V30 1259 C 123.388 -3.49723 2.48982 0
M  V30 1260 C 122.621 -4.79004 2.35353 0
M  V30 1261 O 122.844 -5.53821 1.36524 0
M  V30 1262 O 121.778 -5.06839 3.2465 0
M  V30 1263 H 125.604 -1.87425 2.38968 0
M  V30 1264 H 123.189 -0.869405 1.21498 0
M  V30 1265 H 125.071 -4.03234 1.22395 0
M  V30 1266 H 123.746 -3.21825 0.347934 0
M  V30 1267 H 122.653 -2.6865 2.60342 0
M  V30 1268 H 123.986 -3.54828 3.41113 0
M  V30 1269 N 125.638 -1.25649 -0.95132 0
M  V30 1270 C 126.863 -1.13443 -1.73624 0
M  V30 1271 C 127.288 0.307565 -1.85568 0
M  V30 1272 O 126.646 1.22282 -1.33854 0
M  V30 1273 C 126.694 -1.79723 -3.12621 0
M  V30 1274 O 125.798 -1.07912 -3.98031 0
M  V30 1275 H 125.139 -0.395872 -0.533086 0
M  V30 1276 H 127.669 -1.66276 -1.1922 0
M  V30 1277 H 127.679 -1.86141 -3.63064 0
M  V30 1278 H 126.354 -2.84633 -3.03244 0
M  V30 1279 H 124.931 -1.09398 -3.56492 0
M  V30 1280 N 127.117 1.15442 -1.07289 0
M  V30 1281 C 128.345 1.90096 -0.81676 0
M  V30 1282 C 128.76 1.7798 0.629966 0
M  V30 1283 O 128.117 1.1313 1.43206 0
M  V30 1284 C 128.168 3.40466 -1.21512 0
M  V30 1285 O 127.889 3.52232 -2.60508 0
M  V30 1286 C 129.39 4.32145 -0.988198 0
M  V30 1287 H 126.61 0.602495 -0.295366 0
M  V30 1288 H 129.154 1.4627 -1.42918 0
M  V30 1289 H 127.309 3.81958 -0.647039 0
M  V30 1290 H 127.723 4.45549 -2.76742 0
M  V30 1291 H 129.197 5.36072 -1.31645 0
M  V30 1292 H 129.674 4.39135 0.0755063 0
M  V30 1293 H 130.28 3.96395 -1.54115 0
M  V30 1294 N 128.595 0.856903 1.32268 0
M  V30 1295 C 129.82 0.474569 2.01897 0
M  V30 1296 C 130.245 -0.921766 1.63967 0
M  V30 1297 O 129.603 -1.60589 0.84148 0
M  V30 1298 C 129.651 0.623799 3.55164 0
M  V30 1299 O 128.755 -0.342459 4.10976 0
M  V30 1300 H 128.096 0.190422 0.63611 0
M  V30 1301 H 130.626 1.15672 1.68764 0
M  V30 1302 H 130.636 0.512169 4.04773 0
M  V30 1303 H 129.311 1.64202 3.82113 0
M  V30 1304 H 127.888 -0.18688 3.72431 0
M  V30 1305 N 130.073 -1.45103 0.615059 0
M  V30 1306 C 131.32 -2.02183 0.113179 0
M  V30 1307 C 131.648 -1.48249 -1.25906 0
M  V30 1308 O 130.903 -0.650265 -1.84581 0
M  V30 1309 C 131.202 -3.57386 0.0318797 0
M  V30 1310 C 130.868 -4.30505 1.34077 0
M  V30 1311 C 129.53 -4.50197 1.69929 0
M  V30 1312 C 131.882 -4.72238 2.20546 0
M  V30 1313 C 129.21 -5.08881 2.91988 0
M  V30 1314 C 131.562 -5.32272 3.41861 0
M  V30 1315 C 130.226 -5.50187 3.77956 0
M  V30 1316 H 129.496 -0.739842 0.0414151 0
M  V30 1317 H 132.143 -1.74073 0.798168 0
M  V30 1318 H 130.448 -3.84817 -0.736409 0
M  V30 1319 H 132.145 -3.99264 -0.372712 0
M  V30 1320 H 128.735 -4.15496 1.05173 0
M  V30 1321 H 132.919 -4.56751 1.94146 0
M  V30 1322 H 128.175 -5.20939 3.2005 0
M  V30 1323 H 132.349 -5.63563 4.09109 0
M  V30 1324 H 129.976 -5.95427 4.72622 0
M  V30 1325 N 131.551 -0.354651 -1.53558 0
M  V30 1326 C 132.483 0.5315 -2.22952 0
M  V30 1327 C 133.496 1.05503 -1.23988 0
M  V30 1328 O 134.685 0.963279 -1.50277 0
M  V30 1329 C 131.785 1.74538 -2.90499 0
M  V30 1330 C 130.958 1.35524 -4.15875 0
M  V30 1331 C 130.017 2.42999 -4.66731 0
M  V30 1332 O 129.043 2.05844 -5.30676 0
M  V30 1333 N 130.245 3.74423 -4.43608 0
M  V30 1334 H 133.01 -0.0628615 -2.99634 0
M  V30 1335 H 130.571 -0.179302 -1.60904 0
M  V30 1336 H 132.563 2.45892 -3.21433 0
M  V30 1337 H 131.133 2.24686 -2.17336 0
M  V30 1338 H 130.353 0.471998 -3.91364 0
M  V30 1339 H 131.641 1.07071 -4.97406 0
M  V30 1340 H 131.039 4.07391 -3.92491 0
M  V30 1341 H 129.596 4.41913 -4.7912 0
M  V30 1342 N 133.029 1.57378 -0.0835403 0
M  V30 1343 C 134.277 1.93547 0.581718 0
M  V30 1344 C 134.598 0.96524 1.69435 0
M  V30 1345 O 133.868 0.0153369 1.95894 0
M  V30 1346 H 132.448 0.714521 0.217874 0
M  V30 1347 H 135.11 1.94366 -0.144158 0
M  V30 1348 H 134.206 2.95665 0.999423 0
M  V30 1349 N 134.507 -0.190092 1.56449 0
M  V30 1350 C 135.454 -1.23557 1.94942 0
M  V30 1351 C 136.424 -1.44972 0.810696 0
M  V30 1352 O 137.609 -1.58023 1.06927 0
M  V30 1353 C 134.749 -2.57416 2.2985 0
M  V30 1354 C 133.862 -2.43537 3.5681 0
M  V30 1355 C 132.997 -3.70134 3.81017 0
M  V30 1356 C 132.036 -3.51109 5.01387 0
M  V30 1357 N 131.173 -4.6973 5.21822 0
M  V30 1358 H 136.013 -0.900304 2.84075 0
M  V30 1359 H 133.55 -0.43318 1.40577 0
M  V30 1360 H 135.508 -3.35409 2.48106 0
M  V30 1361 H 134.138 -2.88975 1.43852 0
M  V30 1362 H 133.19 -1.56816 3.46573 0
M  V30 1363 H 134.502 -2.25415 4.4496 0
M  V30 1364 H 133.656 -4.56566 3.9954 0
M  V30 1365 H 132.395 -3.91215 2.91207 0
M  V30 1366 H 131.4 -2.63063 4.82782 0
M  V30 1367 H 132.625 -3.31468 5.9271 0
M  V30 1368 H 130.571 -4.91065 4.34961 0
M  V30 1369 H 130.488 -4.54452 6.0416 0
M  V30 1370 H 131.756 -5.57499 5.44808 0
M  V30 1371 N 135.985 -1.50799 -0.457987 0
M  V30 1372 C 136.895 -1.73426 -1.57989 0
M  V30 1373 C 137.911 -0.617745 -1.62665 0
M  V30 1374 O 139.087 -0.897614 -1.80291 0
M  V30 1375 C 136.152 -1.83557 -2.94122 0
M  V30 1376 C 135.213 -3.07345 -2.99729 0
M  V30 1377 C 134.446 -3.16983 -4.29368 0
M  V30 1378 O 134.669 -2.33077 -5.20607 0
M  V30 1379 O 133.603 -4.09812 -4.40837 0
M  V30 1380 H 137.429 -2.68555 -1.41817 0
M  V30 1381 H 135.014 -1.35052 -0.638859 0
M  V30 1382 H 136.896 -1.92326 -3.74952 0
M  V30 1383 H 135.571 -0.916137 -3.10465 0
M  V30 1384 H 134.478 -3.04068 -2.1793 0
M  V30 1385 H 135.811 -3.9891 -2.88326 0
M  V30 1386 N 137.463 0.71206 -1.40597 0
M  V30 1387 C 138.395 1.83704 -1.37061 0
M  V30 1388 C 139.408 1.60453 -0.275426 0
M  V30 1389 O 140.597 1.70262 -0.53602 0
M  V30 1390 C 137.697 3.20172 -1.11099 0
M  V30 1391 C 136.87 3.7059 -2.3234 0
M  V30 1392 C 135.929 4.85681 -2.02485 0
M  V30 1393 O 134.955 4.9815 -2.75382 0
M  V30 1394 N 136.157 5.71735 -1.00497 0
M  V30 1395 H 138.922 1.87235 -2.34016 0
M  V30 1396 H 136.483 0.893739 -1.34996 0
M  V30 1397 H 138.475 3.94768 -0.891064 0
M  V30 1398 H 137.045 3.11767 -0.227989 0
M  V30 1399 H 136.265 2.87085 -2.7014 0
M  V30 1400 H 137.553 4.01011 -3.13157 0
M  V30 1401 H 136.951 5.64275 -0.401298 0
M  V30 1402 H 135.508 6.463 -0.844942 0
M  V30 1403 N 138.941 1.26152 0.944643 0
M  V30 1404 C 139.904 1.07474 2.0244 0
M  V30 1405 C 140.904 0.0242064 1.60782 0
M  V30 1406 O 142.094 0.267302 1.72137 0
M  V30 1407 C 139.226 0.633956 3.34953 0
M  V30 1408 H 140.419 2.03336 2.20442 0
M  V30 1409 H 137.972 1.087 1.12312 0
M  V30 1410 H 138.707 -0.326811 3.22649 0
M  V30 1411 H 138.492 1.39247 3.66542 0
M  V30 1412 H 139.982 0.52501 4.14287 0
M  V30 1413 N 140.419 -1.14872 1.07899 0
M  V30 1414 C 141.382 -2.17986 0.708161 0
M  V30 1415 C 142.382 -1.58775 -0.25442 0
M  V30 1416 O 143.572 -1.74166 -0.034645 0
M  V30 1417 C 140.704 -3.40871 0.0446929 0
M  V30 1418 H 141.897 -2.52306 1.62116 0
M  V30 1419 H 139.45 -1.2943 0.876218 0
M  V30 1420 H 140.185 -3.12124 -0.880281 0
M  V30 1421 H 139.97 -3.8511 0.737091 0
M  V30 1422 H 141.46 -4.17121 -0.19991 0
M  V30 1423 N 141.898 -0.863906 -1.31812 0
M  V30 1424 C 143.146 -0.470904 -1.96537 0
M  V30 1425 C 143.467 0.978771 -1.68657 0
M  V30 1426 O 142.737 1.6853 -0.998717 0
M  V30 1427 H 141.317 -0.171148 -0.72713 0
M  V30 1428 H 143.979 -1.10236 -1.60729 0
M  V30 1429 H 143.075 -0.623616 -3.05806 0
M  V30 1430 N 143.376 1.44774 -0.622745 0
M  V30 1431 C 144.787 1.85546 -0.207226 0
M  V30 1432 C 145.138 1.52093 1.23944 0
M  V30 1433 O 144.263 0.95492 1.94191 0
M  V30 1434 C 144.858 3.36781 -0.369313 0
M  V30 1435 C 143.417 3.76399 -0.00836847 0
M  V30 1436 C 142.564 2.68664 -0.686651 0
M  V30 1437 H 145.515 1.3536 -0.828454 0
M  V30 1438 H 145.536 3.78453 0.394162 0
M  V30 1439 H 145.048 3.61098 -1.42231 0
M  V30 1440 H 143.149 3.57698 1.04322 0
M  V30 1441 H 143.262 4.7732 -0.412584 0
M  V30 1442 H 141.626 2.54404 -0.122777 0
M  V30 1443 H 142.409 2.95815 -1.74208 0
M  V30 1444 N 144.854 0.36279 1.53368 0
M  V30 1445 C 146.079 -0.231226 2.06107 0
M  V30 1446 C 146.504 -1.419 1.23474 0
M  V30 1447 O 145.862 -1.79524 0.253128 0
M  V30 1448 C 145.91 -0.605523 3.5548 0
M  V30 1449 O 145.014 -1.70312 3.7559 0
M  V30 1450 H 144.355 -0.034327 0.663112 0
M  V30 1451 H 146.885 0.522584 1.97814 0
M  V30 1452 H 146.895 -0.877314 3.98456 0
M  V30 1453 H 145.57 0.263004 4.15068 0
M  V30 1454 H 144.147 -1.4271 3.44512 0
M  V30 1455 N 146.332 -1.57332 0.0918853 0
M  V30 1456 C 147.743 -1.81496 -0.437739 0
M  V30 1457 C 148.094 -1.00727 -1.6837 0
M  V30 1458 O 147.219 -0.235694 -2.15113 0
M  V30 1459 C 147.814 -3.29197 -0.800939 0
M  V30 1460 C 146.373 -3.54136 -1.27532 0
M  V30 1461 C 145.52 -2.75979 -0.270392 0
M  V30 1462 H 148.471 -1.55494 0.317366 0
M  V30 1463 H 148.492 -3.42344 -1.66074 0
M  V30 1464 H 148.004 -3.87955 0.106078 0
M  V30 1465 H 146.105 -3.00705 -2.20016 0
M  V30 1466 H 146.218 -4.62792 -1.23938 0
M  V30 1467 H 144.582 -2.43349 -0.751872 0
M  V30 1468 H 145.365 -3.37484 0.629248 0
M  V30 1469 N 147.81 0.181792 -1.56548 0
M  V30 1470 C 148.773 1.20894 -1.94724 0
M  V30 1471 C 149.773 1.37738 -0.829747 0
M  V30 1472 O 150.963 1.35323 -1.09697 0
M  V30 1473 C 148.095 2.57593 -2.23291 0
M  V30 1474 H 149.288 0.882275 -2.86629 0
M  V30 1475 H 146.841 0.423838 -1.50444 0
M  V30 1476 H 147.576 2.95291 -1.34067 0
M  V30 1477 H 147.361 2.46735 -3.04736 0
M  V30 1478 H 148.851 3.31637 -2.53785 0
M  V30 1479 N 149.288 1.51039 0.449983 0
M  V30 1480 C 150.251 1.70863 1.5277 0
M  V30 1481 C 151.251 0.578846 1.5002 0
M  V30 1482 O 152.441 0.846213 1.52266 0
M  V30 1483 C 149.573 1.75341 2.9235 0
M  V30 1484 H 150.766 2.67034 1.36502 0
M  V30 1485 H 148.319 1.40838 0.677812 0
M  V30 1486 H 149.054 0.809383 3.14037 0
M  V30 1487 H 148.839 2.57436 2.95752 0
M  V30 1488 H 150.329 1.92559 3.70555 0
M  V30 1489 N 150.766 -0.704594 1.40972 0
M  V30 1490 C 152.177 -1.28418 1.3552 0
M  V30 1491 C 152.528 -1.96171 0.0339434 0
M  V30 1492 O 151.653 -1.98231 -0.867944 0
M  V30 1493 C 152.248 -2.33528 2.45459 0
M  V30 1494 C 150.807 -2.87085 2.43433 0
M  V30 1495 C 149.954 -1.61007 2.2577 0
M  V30 1496 H 152.905 -0.499963 1.50619 0
M  V30 1497 H 152.926 -3.14619 2.13998 0
M  V30 1498 H 152.438 -1.84187 3.41609 0
M  V30 1499 H 150.539 -3.40626 1.51013 0
M  V30 1500 H 150.652 -3.3813 3.39419 0
M  V30 1501 H 149.016 -1.86482 1.73483 0
M  V30 1502 H 149.799 -1.13675 3.23933 0
M  V30 1503 N 152.244 -1.26651 -0.937939 0
M  V30 1504 C 153.194 -1.05156 -2.02302 0
M  V30 1505 C 154.178 0.0171233 -1.60891 0
M  V30 1506 O 155.37 -0.200213 -1.75864 0
M  V30 1507 C 152.499 -0.689962 -3.36295 0
M  V30 1508 C 151.585 -1.79626 -3.84181 0
M  V30 1509 N 151.976 -3.03422 -4.04684 0
M  V30 1510 C 150.274 -1.6806 -4.13124 0
M  V30 1511 C 150.975 -3.75345 -4.444 0
M  V30 1512 N 149.951 -3.03051 -4.51288 0
M  V30 1513 H 153.753 -1.99117 -2.1617 0
M  V30 1514 H 151.267 -1.17216 -1.12402 0
M  V30 1515 H 153.264 -0.517112 -4.13681 0
M  V30 1516 H 151.924 0.242139 -3.23796 0
M  V30 1517 H 152.935 -3.39293 -3.91281 0
M  V30 1518 H 149.612 -0.818629 -4.09396 0
M  V30 1519 H 151.002 -4.81691 -4.68427 0
M  V30 1520 N 153.722 1.14298 -1.08507 0
M  V30 1521 C 154.652 2.21542 -0.737646 0
M  V30 1522 C 155.633 1.67773 0.280377 0
M  V30 1523 O 156.818 1.93616 0.150521 0
M  V30 1524 C 153.948 3.46988 -0.147259 0
M  V30 1525 C 152.902 4.13789 -1.09374 0
M  V30 1526 C 152.228 5.33449 -0.365524 0
M  V30 1527 C 153.528 4.62208 -2.4323 0
M  V30 1528 H 155.222 2.5086 -1.6343 0
M  V30 1529 H 152.768 1.20576 -0.787243 0
M  V30 1530 H 154.721 4.21262 0.107808 0
M  V30 1531 H 153.445 3.17037 0.784538 0
M  V30 1532 H 152.104 3.4147 -1.33393 0
M  V30 1533 H 151.752 4.99759 0.57011 0
M  V30 1534 H 151.452 5.79088 -0.996512 0
M  V30 1535 H 152.976 6.10485 -0.118534 0
M  V30 1536 H 154.39 5.27952 -2.23472 0
M  V30 1537 H 152.787 5.18553 -3.02031 0
M  V30 1538 H 153.857 3.77224 -3.04681 0
M  V30 1539 N 155.201 0.870884 1.31352 0
M  V30 1540 C 156.131 0.343096 2.30966 0
M  V30 1541 C 157.112 -0.566507 1.60389 0
M  V30 1542 O 158.297 -0.483336 1.88089 0
M  V30 1543 C 155.427 -0.455487 3.443 0
M  V30 1544 C 154.381 0.361103 4.26474 0
M  V30 1545 C 153.707 -0.563221 5.31725 0
M  V30 1546 C 155.007 1.59566 4.97329 0
M  V30 1547 H 156.701 1.17548 2.75359 0
M  V30 1548 H 154.247 0.566686 1.32381 0
M  V30 1549 H 156.2 -0.83525 4.13039 0
M  V30 1550 H 154.924 -1.32139 2.98675 0
M  V30 1551 H 153.583 0.722825 3.59403 0
M  V30 1552 H 153.231 -1.42643 4.82351 0
M  V30 1553 H 152.931 -0.0207409 5.87596 0
M  V30 1554 H 154.455 -0.939808 6.03324 0
M  V30 1555 H 155.869 1.28728 5.58661 0
M  V30 1556 H 154.266 2.07728 5.63 0
M  V30 1557 H 155.336 2.34798 4.24262 0
M  V30 1558 N 156.679 -1.44442 0.630414 0
M  V30 1559 C 157.629 -2.27794 -0.0968103 0
M  V30 1560 C 158.613 -1.38624 -0.816834 0
M  V30 1561 O 159.805 -1.62438 -0.70306 0
M  V30 1562 C 156.934 -3.25929 -1.07819 0
M  V30 1563 C 156.02 -4.22588 -0.357826 0
M  V30 1564 N 156.411 -5.0207 0.613169 0
M  V30 1565 C 154.709 -4.41914 -0.602365 0
M  V30 1566 C 155.41 -5.72351 1.03871 0
M  V30 1567 N 154.386 -5.42287 0.377642 0
M  V30 1568 H 158.188 -2.86653 0.648621 0
M  V30 1569 H 155.702 -1.55871 0.455862 0
M  V30 1570 H 157.699 -3.84399 -1.61378 0
M  V30 1571 H 156.359 -2.68631 -1.82393 0
M  V30 1572 H 157.37 -5.08331 0.990947 0
M  V30 1573 H 154.047 -3.95714 -1.33103 0
M  V30 1574 H 155.437 -6.4619 1.84086 0
M  V30 1575 N 158.157 -0.370918 -1.53173 0
M  V30 1576 C 159.107 0.489588 -2.22681 0
M  V30 1577 C 160.091 1.04442 -1.22395 0
M  V30 1578 O 161.283 0.973578 -1.47819 0
M  V30 1579 C 158.412 1.626 -3.02351 0
M  V30 1580 C 157.498 1.08379 -4.10018 0
M  V30 1581 N 157.889 0.265004 -5.05105 0
M  V30 1582 C 156.187 1.35809 -4.2482 0
M  V30 1583 C 156.888 -0.0324755 -5.81691 0
M  V30 1584 N 155.864 0.566581 -5.40639 0
M  V30 1585 H 159.666 -0.142729 -2.93553 0
M  V30 1586 H 157.18 -0.179221 -1.61408 0
M  V30 1587 H 159.177 2.2547 -3.50669 0
M  V30 1588 H 157.837 2.26132 -2.33011 0
M  V30 1589 H 158.848 -0.0962352 -5.17811 0
M  V30 1590 H 155.525 1.9958 -3.66707 0
M  V30 1591 H 156.915 -0.69473 -6.68299 0
M  V30 1592 N 159.635 1.57281 -0.100228 0
M  V30 1593 C 160.585 2.10848 0.86759 0
M  V30 1594 C 161.569 1.02473 1.24049 0
M  V30 1595 O 162.761 1.28739 1.21471 0
M  V30 1596 C 159.89 2.69648 2.12474 0
M  V30 1597 C 158.976 3.85074 1.77704 0
M  V30 1598 N 159.367 4.92897 1.13518 0
M  V30 1599 C 157.665 3.94905 2.07282 0
M  V30 1600 C 158.366 5.73475 0.974735 0
M  V30 1601 N 157.342 5.22675 1.4937 0
M  V30 1602 H 161.144 2.91594 0.367471 0
M  V30 1603 H 158.658 1.62074 0.102829 0
M  V30 1604 H 160.655 3.06356 2.82757 0
M  V30 1605 H 159.315 1.90359 2.63047 0
M  V30 1606 H 160.326 5.11662 0.801381 0
M  V30 1607 H 157.003 3.26633 2.60033 0
M  V30 1608 H 158.393 6.70238 0.472364 0
M  V30 1609 N 161.113 -0.173488 1.56642 0
M  V30 1610 C 162.063 -1.21941 1.92651 0
M  V30 1611 C 163.047 -1.39912 0.794577 0
M  V30 1612 O 164.239 -1.41919 1.05773 0
M  V30 1613 C 161.368 -2.55935 2.28806 0
M  V30 1614 C 160.454 -2.41667 3.48508 0
M  V30 1615 N 160.845 -1.9711 4.65813 0
M  V30 1616 C 159.143 -2.72499 3.53072 0
M  V30 1617 C 159.844 -1.95253 5.47952 0
M  V30 1618 N 158.82 -2.37575 4.88937 0
M  V30 1619 H 162.622 -0.866581 2.80834 0
M  V30 1620 H 160.136 -0.381776 1.57849 0
M  V30 1621 H 162.133 -3.31511 2.52797 0
M  V30 1622 H 160.793 -2.92022 1.41961 0
M  V30 1623 H 161.804 -1.67481 4.90072 0
M  V30 1624 H 158.481 -3.12639 2.767 0
M  V30 1625 H 159.871 -1.6252 6.51948 0
M  V30 1626 N 162.591 -1.51276 -0.441967 0
M  V30 1627 C 163.541 -1.6864 -1.53442 0
M  V30 1628 C 164.525 -0.540444 -1.51552 0
M  V30 1629 O 165.717 -0.796157 -1.58083 0
M  V30 1630 C 162.846 -1.8106 -2.91672 0
M  V30 1631 C 161.932 -3.01424 -2.98336 0
M  V30 1632 N 162.323 -4.2467 -2.74752 0
M  V30 1633 C 160.621 -3.00584 -3.29493 0
M  V30 1634 C 161.322 -5.05891 -2.87139 0
M  V30 1635 N 160.298 -4.40442 -3.18609 0
M  V30 1636 H 164.1 -2.61598 -1.33954 0
M  V30 1637 H 161.614 -1.4886 -0.6492 0
M  V30 1638 H 163.611 -1.91609 -3.70259 0
M  V30 1639 H 162.271 -0.892795 -3.12185 0
M  V30 1640 H 163.282 -4.53691 -2.49769 0
M  V30 1641 H 159.959 -2.18417 -3.55809 0
M  V30 1642 H 161.349 -6.13983 -2.72899 0
M  V30 1643 N 164.069 0.697108 -1.41344 0
M  V30 1644 C 165.019 1.80313 -1.39539 0
M  V30 1645 C 166.003 1.58618 -0.270001 0
M  V30 1646 O 167.195 1.69477 -0.510551 0
M  V30 1647 C 164.324 3.18606 -1.27848 0
M  V30 1648 C 163.41 3.46001 -2.45244 0
M  V30 1649 N 163.801 3.44103 -3.70711 0
M  V30 1650 C 162.099 3.76542 -2.39023 0
M  V30 1651 C 162.8 3.7036 -4.48563 0
M  V30 1652 N 161.776 3.90027 -3.78655 0
M  V30 1653 H 165.578 1.77207 -2.34468 0
M  V30 1654 H 163.092 0.897031 -1.35378 0
M  V30 1655 H 165.089 3.97833 -1.24637 0
M  V30 1656 H 163.749 3.22925 -0.339032 0
M  V30 1657 H 164.76 3.2452 -4.03618 0
M  V30 1658 H 161.437 3.88241 -1.53542 0
M  V30 1659 H 162.827 3.75042 -5.57488 0
M  V30 1660 N 165.547 1.27147 0.931209 0
M  V30 1661 C 166.51 1.09615 2.01289 0
M  V30 1662 C 167.51 0.0412581 1.60747 0
M  V30 1663 O 168.7 0.285545 1.71844 0
M  V30 1664 C 165.832 0.669447 3.34262 0
M  V30 1665 H 167.025 2.05662 2.18273 0
M  V30 1666 H 164.578 1.09885 1.11153 0
M  V30 1667 H 165.313 -0.292572 3.22978 0
M  V30 1668 H 165.098 1.43127 3.65044 0
M  V30 1669 H 166.588 0.568921 4.13706 0
M  V30 1670 N 167.025 -1.13721 1.09112 0
M  V30 1671 C 168.436 -1.6648 0.845068 0
M  V30 1672 C 168.787 -1.85911 -0.62701 0
M  V30 1673 O 167.912 -1.57556 -1.48341 0
M  V30 1674 C 168.507 -3.02413 1.52748 0
M  V30 1675 C 167.066 -3.52176 1.32849 0
M  V30 1676 C 166.213 -2.27492 1.58564 0
M  V30 1677 H 169.164 -0.976872 1.25072 0
M  V30 1678 H 169.185 -3.68223 0.958752 0
M  V30 1679 H 168.697 -2.88238 2.59885 0
M  V30 1680 H 166.798 -3.7156 0.278137 0
M  V30 1681 H 166.911 -4.32499 2.0611 0
M  V30 1682 H 165.275 -2.33923 1.00758 0
M  V30 1683 H 166.058 -2.15886 2.66924 0
M  V30 1684 N 168.503 -0.877838 -1.30888 0
M  V30 1685 C 169.433 -0.35534 -2.3078 0
M  V30 1686 C 170.414 0.557994 -1.60687 0
M  V30 1687 O 171.599 0.473355 -1.88343 0
M  V30 1688 C 168.729 0.437221 -3.44537 0
M  V30 1689 C 167.683 -0.383715 -4.26276 0
M  V30 1690 C 167.009 0.535014 -5.32017 0
M  V30 1691 C 168.309 -1.62201 -4.96476 0
M  V30 1692 H 170.003 -1.19007 -2.74732 0
M  V30 1693 H 167.549 -0.573698 -1.32078 0
M  V30 1694 H 169.502 0.813334 -4.13477 0
M  V30 1695 H 168.226 1.30553 -2.99372 0
M  V30 1696 H 166.885 -0.741874 -3.59015 0
M  V30 1697 H 166.533 1.40083 -4.831 0
M  V30 1698 H 166.233 -0.0104211 -5.87599 0
M  V30 1699 H 167.757 0.907799 -6.03814 0
M  V30 1700 H 169.171 -1.31689 -5.5797 0
M  V30 1701 H 167.568 -2.10711 -5.61891 0
M  V30 1702 H 168.638 -2.37044 -4.23011 0
M  V30 1703 N 169.982 1.44106 -0.638065 0
M  V30 1704 C 170.945 2.29138 0.0531013 0
M  V30 1705 C 171.945 1.41409 0.765506 0
M  V30 1706 O 173.135 1.63206 0.609046 0
M  V30 1707 C 170.267 3.23144 1.08584 0
M  V30 1708 H 171.46 2.91739 -0.694883 0
M  V30 1709 H 169.013 1.51134 -0.398538 0
M  V30 1710 H 169.748 2.65408 1.86357 0
M  V30 1711 H 169.533 3.87804 0.578852 0
M  V30 1712 H 171.023 3.87004 1.56899 0
M  V30 1713 N 171.46 0.379036 1.52974 0
M  V30 1714 C 172.41 -0.477772 2.22938 0
M  V30 1715 C 173.394 -1.03792 1.22948 0
M  V30 1716 O 174.586 -0.965725 1.48333 0
M  V30 1717 C 171.715 -1.60994 3.03209 0
M  V30 1718 C 170.801 -1.06203 4.10587 0
M  V30 1719 N 171.192 -0.238214 5.05239 0
M  V30 1720 C 169.49 -1.33554 4.25534 0
M  V30 1721 C 170.191 0.0633235 5.81666 0
M  V30 1722 N 169.167 -0.537901 5.40932 0
M  V30 1723 H 172.969 0.158295 2.93473 0
M  V30 1724 H 170.483 0.187778 1.61311 0
M  V30 1725 H 172.48 -2.23607 3.5186 0
M  V30 1726 H 171.14 -2.24893 2.34207 0
M  V30 1727 H 172.151 0.123695 5.17752 0
M  V30 1728 H 168.828 -1.97632 3.6776 0
M  V30 1729 H 170.218 0.730161 6.67921 0
M  V30 1730 N 172.938 -1.57226 0.108567 0
M  V30 1731 C 174.185 -1.94833 -0.551943 0
M  V30 1732 C 174.513 -0.991204 -1.67348 0
M  V30 1733 O 173.768 -0.0131878 -1.95696 0
M  V30 1734 C 174.067 -3.38911 -1.13463 0
M  V30 1735 C 173.733 -4.50696 -0.135509 0
M  V30 1736 C 172.395 -4.80998 0.139252 0
M  V30 1737 C 174.747 -5.18333 0.545957 0
M  V30 1738 C 172.075 -5.76259 1.10194 0
M  V30 1739 C 174.427 -6.14627 1.49721 0
M  V30 1740 C 173.091 -6.43327 1.78006 0
M  V30 1741 H 172.361 -0.712944 -0.20197 0
M  V30 1742 H 175.008 -1.90582 0.18726 0
M  V30 1743 H 173.313 -3.39805 -1.95037 0
M  V30 1744 H 175.01 -3.65317 -1.65362 0
M  V30 1745 H 171.6 -4.27087 -0.359846 0
M  V30 1746 H 175.784 -4.95087 0.346842 0
M  V30 1747 H 171.04 -5.96804 1.32795 0
M  V30 1748 H 175.214 -6.66126 2.03099 0
M  V30 1749 H 172.841 -7.1695 2.52759 0
M  V30 1750 N 174.416 0.165178 -1.56732 0
M  V30 1751 C 175.827 0.727046 -1.71962 0
M  V30 1752 C 176.178 1.82508 -0.720078 0
M  V30 1753 O 175.303 2.16082 0.117242 0
M  V30 1754 C 175.898 1.32559 -3.11791 0
M  V30 1755 C 174.457 1.83422 -3.28684 0
M  V30 1756 C 173.604 0.715567 -2.67908 0
M  V30 1757 H 176.555 -0.0602896 -1.58585 0
M  V30 1758 H 176.576 2.19533 -3.10782 0
M  V30 1759 H 176.088 0.526195 -3.84516 0
M  V30 1760 H 174.189 2.65986 -2.60926 0
M  V30 1761 H 174.302 1.97543 -4.36478 0
M  V30 1762 H 172.666 1.13758 -2.27884 0
M  V30 1763 H 173.449 -0.0720836 -3.43224 0
M  V30 1764 N 175.894 1.51508 0.433938 0
M  V30 1765 C 177.142 1.6402 1.18075 0
M  V30 1766 C 177.463 0.360328 1.91642 0
M  V30 1767 O 176.733 -0.623945 1.85698 0
M  V30 1768 H 175.313 0.6045 0.43885 0
M  V30 1769 H 177.975 1.88452 0.497178 0
M  V30 1770 H 177.071 2.46949 1.90847 0
M  V30 1771 N 177.372 -0.689602 1.41712 0
M  V30 1772 C 178.649 -1.44457 1.31877 0
M  V30 1773 C 179.029 -2.11039 -0.0508537 0
M  V30 1774 O 178.377 -2.02138 -1.06547 0
M  V30 1775 C 178.587 -2.45913 2.47645 0
M  V30 1776 C 179.935 -3.10991 2.89084 0
M  V30 1777 O 180.959 -2.56238 2.47428 0
M  V30 1778 O 179.818 -4.10174 3.61137 0
M  V30 1779 H 176.912 -0.64362 0.519309 0
M  V30 1780 H 179.458 -0.719576 1.53689 0
M  V30 1781 H 178.23 -1.95409 3.39015 0
M  V30 1782 H 177.853 -3.25913 2.27742 0
M  V30 1783 N 178.85 -1.27639 -0.924453 0
M  V30 1784 C 179.78 -1.13166 -2.04244 0
M  V30 1785 C 180.761 -0.032256 -1.70069 0
M  V30 1786 O 181.946 -0.207328 -1.9309 0
M  V30 1787 C 179.076 -0.781496 -3.38393 0
M  V30 1788 C 178.03 -1.83449 -3.86692 0
M  V30 1789 C 177.356 -1.33822 -5.17683 0
M  V30 1790 C 178.656 -3.23917 -4.09726 0
M  V30 1791 H 180.35 -2.06689 -2.1661 0
M  V30 1792 H 177.896 -0.995136 -1.04082 0
M  V30 1793 H 179.849 -0.667057 -4.16087 0
M  V30 1794 H 178.573 0.189439 -3.2605 0
M  V30 1795 H 177.232 -1.93789 -3.11193 0
M  V30 1796 H 176.88 -0.35665 -5.01734 0
M  V30 1797 H 176.58 -2.04224 -5.50968 0
M  V30 1798 H 178.104 -1.23679 -5.97943 0
M  V30 1799 H 179.518 -3.16559 -4.77978 0
M  V30 1800 H 177.915 -3.92059 -4.54324 0
M  V30 1801 H 178.985 -3.68729 -3.14908 0
M  V30 1802 N 180.328 1.1314 -1.09713 0
M  V30 1803 C 181.574 1.84757 -0.836224 0
M  V30 1804 C 181.907 1.8347 0.636598 0
M  V30 1805 O 181.182 1.27491 1.46889 0
M  V30 1806 C 181.465 3.32782 -1.37578 0
M  V30 1807 C 181.318 3.42567 -2.91493 0
M  V30 1808 C 182.637 4.28307 -1.01198 0
M  V30 1809 H 179.756 0.67082 -0.305236 0
M  V30 1810 H 182.398 1.3278 -1.35903 0
M  V30 1811 H 180.548 3.77177 -0.931097 0
M  V30 1812 H 182.22 3.06862 -3.44432 0
M  V30 1813 H 180.463 2.83349 -3.28475 0
M  V30 1814 H 181.134 4.46674 -3.24324 0
M  V30 1815 H 183.61 3.91999 -1.39556 0
M  V30 1816 H 182.486 5.30307 -1.41653 0
M  V30 1817 H 182.747 4.42029 0.0794833 0
M  V30 1818 N 181.806 0.884767 1.30421 0
M  V30 1819 C 183.217 0.553656 1.78302 0
M  V30 1820 C 183.568 -0.930153 1.7275 0
M  V30 1821 O 182.693 -1.72681 1.30423 0
M  V30 1822 C 183.288 0.998234 3.2376 0
M  V30 1823 C 181.847 0.71854 3.69478 0
M  V30 1824 C 180.994 1.18132 2.50879 0
M  V30 1825 H 183.945 1.06901 1.17294 0
M  V30 1826 H 183.966 0.327118 3.79091 0
M  V30 1827 H 183.478 2.0782 3.27769 0
M  V30 1828 H 181.579 -0.349444 3.70958 0
M  V30 1829 H 181.692 1.30595 4.60958 0
M  V30 1830 H 180.056 0.600669 2.47516 0
M  V30 1831 H 180.839 2.26902 2.57624 0
M  V30 1832 N 183.284 -1.43765 0.645699 0
M  V30 1833 C 184.247 -2.29163 -0.0409488 0
M  V30 1834 C 185.247 -1.41813 -0.757996 0
M  V30 1835 O 186.437 -1.63527 -0.600382 0
M  V30 1836 C 183.569 -3.23716 -1.06869 0
M  V30 1837 H 184.762 -2.91366 0.710345 0
M  V30 1838 H 182.315 -1.5092 0.406547 0
M  V30 1839 H 183.05 -2.66393 -1.84947 0
M  V30 1840 H 182.835 -3.88105 -0.558277 0
M  V30 1841 H 184.325 -3.87831 -1.54845 0
M  V30 1842 N 184.763 -0.387143 -1.52771 0
M  V30 1843 C 185.988 0.198407 -2.06449 0
M  V30 1844 C 186.413 1.39918 -1.25716 0
M  V30 1845 O 185.771 1.79099 -0.281657 0
M  V30 1846 C 185.819 0.548893 -3.56398 0
M  V30 1847 O 184.923 1.64315 -3.78252 0
M  V30 1848 H 184.264 0.0237731 -0.663574 0
M  V30 1849 H 186.794 -0.553989 -1.96957 0
M  V30 1850 H 186.804 0.813812 -3.99801 0
M  V30 1851 H 185.479 -0.329005 -4.14597 0
M  V30 1852 H 184.056 1.37211 -3.46738 0
M  V30 1853 N 186.241 1.57166 -0.116904 0
M  V30 1854 C 187.171 2.18222 0.830759 0
M  V30 1855 C 188.152 1.12167 1.27877 0
M  V30 1856 O 189.337 1.40394 1.34176 0
M  V30 1857 C 186.467 2.77996 2.08172 0
M  V30 1858 C 185.421 3.89614 1.77157 0
M  V30 1859 C 184.747 4.36187 3.09265 0
M  V30 1860 C 186.047 5.1181 1.04151 0
M  V30 1861 H 187.741 2.97664 0.321992 0
M  V30 1862 H 185.287 1.4318 0.153434 0
M  V30 1863 H 187.24 3.19366 2.74924 0
M  V30 1864 H 185.964 1.9584 2.6137 0
M  V30 1865 H 184.623 3.48816 1.12796 0
M  V30 1866 H 184.271 3.50893 3.60393 0
M  V30 1867 H 183.971 5.11455 2.89288 0
M  V30 1868 H 185.495 4.80207 3.77139 0
M  V30 1869 H 186.909 5.50214 1.61052 0
M  V30 1870 H 185.306 5.92648 0.942762 0
M  V30 1871 H 186.376 4.84892 0.0279022 0
M  V30 1872 N 187.719 -0.156864 1.56817 0
M  V30 1873 C 189.13 -0.717916 1.72345 0
M  V30 1874 C 189.481 -1.82124 0.729747 0
M  V30 1875 O 188.606 -2.16141 -0.105781 0
M  V30 1876 C 189.201 -1.30904 3.12489 0
M  V30 1877 C 187.76 -1.81676 3.29653 0
M  V30 1878 C 186.907 -0.701349 2.68284 0
M  V30 1879 H 189.858 0.0686989 1.58551 0
M  V30 1880 H 189.879 -2.17882 3.11942 0
M  V30 1881 H 189.391 -0.505796 3.8479 0
M  V30 1882 H 187.492 -2.64598 2.62333 0
M  V30 1883 H 187.605 -1.95226 4.3752 0
M  V30 1884 H 185.969 -1.12548 2.28484 0
M  V30 1885 H 186.752 0.0902846 3.43181 0
M  V30 1886 N 189.197 -1.51736 -0.425897 0
M  V30 1887 C 190.437 -1.66636 -1.18371 0
M  V30 1888 C 190.801 -0.379854 -1.88205 0
M  V30 1889 O 192.002 -0.404758 -2.65735 0
M  V30 1890 C 190.273 -2.84382 -2.16476 0
M  V30 1891 S 191.832 -3.19673 -3.0059 0
M  V30 1892 H 188.65 -0.586957 -0.40125 0
M  V30 1893 H 191.252 -1.89679 -0.473518 0
M  V30 1894 H 189.956 -3.76281 -1.63831 0
M  V30 1895 H 189.487 -2.63562 -2.92059 0
M  V30 1896 H 191.502 -2.66994 -4.18245 0
M  V30 1897 N 190.675 0.682077 -1.42076 0
M  V30 1898 C 191.585 1.82535 -1.47371 0
M  V30 1899 C 192.601 1.7017 -0.363079 0
M  V30 1900 O 193.777 1.91848 -0.612875 0
M  V30 1901 C 190.842 3.18624 -1.36674 0
M  V30 1902 C 189.903 3.42999 -2.58167 0
M  V30 1903 C 189.136 4.72595 -2.4797 0
M  V30 1904 O 189.359 5.50006 -1.5116 0
M  V30 1905 O 188.293 4.98054 -3.37974 0
M  V30 1906 H 192.119 1.81023 -2.43853 0
M  V30 1907 H 189.704 0.836887 -1.2376 0
M  V30 1908 H 191.586 3.99847 -1.33043 0
M  V30 1909 H 190.261 3.20789 -0.433138 0
M  V30 1910 H 189.168 2.61653 -2.67373 0
M  V30 1911 H 190.501 3.45659 -3.50401 0
M  V30 1912 N 192.153 1.28127 0.917671 0
M  V30 1913 C 193.063 1.13556 2.05286 0
M  V30 1914 C 194.079 0.0630914 1.73886 0
M  V30 1915 O 195.255 0.271598 1.9956 0
M  V30 1916 C 192.32 0.794676 3.3747 0
M  V30 1917 C 191.381 1.94909 3.82504 0
M  V30 1918 C 190.614 1.62437 5.0838 0
M  V30 1919 O 190.837 0.536905 5.67867 0
M  V30 1920 O 189.771 2.46677 5.4903 0
M  V30 1921 H 193.597 2.08844 2.20495 0
M  V30 1922 H 191.182 1.07409 1.03845 0
M  V30 1923 H 193.064 0.618344 4.16839 0
M  V30 1924 H 191.739 -0.128581 3.23445 0
M  V30 1925 H 190.646 2.18055 3.03978 0
M  V30 1926 H 191.979 2.85291 4.01086 0
M  V30 1927 N 193.631 -1.12557 1.10312 0
M  V30 1928 C 194.561 -2.20341 0.772798 0
M  V30 1929 C 195.542 -1.68198 -0.25365 0
M  V30 1930 O 196.727 -1.93831 -0.119699 0
M  V30 1931 C 193.857 -3.46709 0.202443 0
M  V30 1932 C 192.811 -4.11996 1.15943 0
M  V30 1933 C 192.137 -5.328 0.450345 0
M  V30 1934 C 193.437 -4.5828 2.50552 0
M  V30 1935 H 195.131 -2.48229 1.674 0
M  V30 1936 H 192.677 -1.19308 0.806326 0
M  V30 1937 H 194.63 -4.2138 -0.0407752 0
M  V30 1938 H 193.354 -3.18245 -0.734001 0
M  V30 1939 H 192.013 -3.39305 1.38808 0
M  V30 1940 H 191.661 -5.00602 -0.490531 0
M  V30 1941 H 191.361 -5.7743 1.08851 0
M  V30 1942 H 192.885 -6.10219 0.215642 0
M  V30 1943 H 194.299 -5.2433 2.31843 0
M  V30 1944 H 192.696 -5.13683 3.10242 0
M  V30 1945 H 193.766 -3.72329 3.10643 0
M  V30 1946 N 195.109 -0.891671 -1.2995 0
M  V30 1947 C 196.072 -0.36828 -2.26222 0
M  V30 1948 C 197.072 0.493014 -1.53056 0
M  V30 1949 O 198.262 0.299213 -1.71611 0
M  V30 1950 C 195.394 0.47442 -3.37583 0
M  V30 1951 H 196.587 -1.21844 -2.74033 0
M  V30 1952 H 194.14 -0.669107 -1.41254 0
M  V30 1953 H 194.875 1.34489 -2.95099 0
M  V30 1954 H 194.66 -0.142615 -3.91841 0
M  V30 1955 H 196.15 0.83218 -4.09224 0
M  V30 1956 N 196.587 1.43421 -0.653314 0
M  V30 1957 C 197.497 2.34568 0.0388565 0
M  V30 1958 C 198.513 1.53888 0.81207 0
M  V30 1959 O 199.689 1.86539 0.759294 0
M  V30 1960 C 196.754 3.32167 0.993269 0
M  V30 1961 C 195.815 4.28751 0.216977 0
M  V30 1962 C 195.048 5.21688 1.12593 0
M  V30 1963 O 195.271 5.19052 2.36519 0
M  V30 1964 O 194.205 5.98919 0.598284 0
M  V30 1965 H 198.031 2.95251 -0.711386 0
M  V30 1966 H 195.616 1.43564 -0.413502 0
M  V30 1967 H 197.498 3.92183 1.54176 0
M  V30 1968 H 196.173 2.73987 1.72374 0
M  V30 1969 H 195.08 3.72215 -0.375101 0
M  V30 1970 H 196.413 4.89913 -0.473924 0
M  V30 1971 N 198.065 0.39524 1.52563 0
M  V30 1972 C 199.476 -0.0774719 1.86539 0
M  V30 1973 C 199.827 -1.45641 1.31466 0
M  V30 1974 O 198.952 -2.06459 0.648367 0
M  V30 1975 C 199.547 -0.147356 3.38479 0
M  V30 1976 C 198.106 -0.564373 3.72145 0
M  V30 1977 C 197.253 0.269919 2.75983 0
M  V30 1978 H 200.204 0.612876 1.46388 0
M  V30 1979 H 200.225 -0.965343 3.68051 0
M  V30 1980 H 199.737 0.856387 3.78534 0
M  V30 1981 H 197.838 -1.57527 3.37663 0
M  V30 1982 H 197.951 -0.318402 4.78041 0
M  V30 1983 H 196.315 -0.265696 2.5331 0
M  V30 1984 H 197.098 1.27175 3.18875 0
M  V30 1985 N 199.544 -1.57102 0.125237 0
M  V30 1986 C 200.792 -1.95021 -0.530198 0
M  V30 1987 C 201.113 -1.00982 -1.66816 0
M  V30 1988 O 200.383 -0.0672693 -1.95784 0
M  V30 1989 H 198.963 -0.720046 -0.198853 0
M  V30 1990 H 201.625 -1.93916 0.19564 0
M  V30 1991 H 200.721 -2.98211 -0.920681 0
M  V30 1992 N 201.022 0.148545 -1.56898 0
M  V30 1993 C 201.952 1.18524 -2.01182 0
M  V30 1994 C 202.933 1.4489 -0.891123 0
M  V30 1995 O 204.118 1.55836 -1.15882 0
M  V30 1996 C 201.248 2.51879 -2.39112 0
M  V30 1997 C 200.202 2.40038 -3.54353 0
M  V30 1998 C 199.528 3.78089 -3.78091 0
M  V30 1999 C 200.828 1.88577 -4.87069 0
M  V30 2000 H 202.522 0.817029 -2.88036 0
M  V30 2001 H 200.068 0.391575 -1.38574 0
M  V30 2002 H 202.021 3.24627 -2.68692 0
M  V30 2003 H 200.745 2.90532 -1.49193 0
M  V30 2004 H 199.404 1.69742 -3.24936 0
M  V30 2005 H 199.052 4.14175 -2.85426 0
M  V30 2006 H 198.752 3.71028 -4.55645 0
M  V30 2007 H 200.276 4.52387 -4.10095 0
M  V30 2008 H 201.69 2.51117 -5.15377 0
M  V30 2009 H 200.087 1.9241 -5.68417 0
M  V30 2010 H 201.157 0.84136 -4.77545 0
M  V30 2011 N 202.5 1.5196 0.417844 0
M  V30 2012 C 203.746 1.65836 1.16732 0
M  V30 2013 C 204.079 0.382881 1.90388 0
M  V30 2014 O 203.354 -0.618368 1.84408 0
M  V30 2015 C 203.637 2.87466 2.16876 0
M  V30 2016 C 203.49 4.25041 1.47174 0
M  V30 2017 C 204.809 3.04613 3.17646 0
M  V30 2018 H 201.928 0.603515 0.423011 0
M  V30 2019 H 204.57 1.84494 0.454105 0
M  V30 2020 H 202.72 2.71689 2.777 0
M  V30 2021 H 204.392 4.52527 0.895376 0
M  V30 2022 H 202.635 4.26843 0.773806 0
M  V30 2023 H 203.306 5.06176 2.20204 0
M  V30 2024 H 205.782 3.1923 2.66892 0
M  V30 2025 H 204.658 3.91247 3.8499 0
M  V30 2026 H 204.919 2.17541 3.84874 0
M  V30 2027 N 203.978 -0.674533 1.42435 0
M  V30 2028 C 205.389 -1.25514 1.38214 0
M  V30 2029 C 205.74 -1.96055 0.0755464 0
M  V30 2030 O 204.865 -2.00028 -0.8257 0
M  V30 2031 C 205.46 -2.28269 2.50357 0
M  V30 2032 C 204.019 -2.81856 2.49467 0
M  V30 2033 C 203.166 -1.56182 2.29134 0
M  V30 2034 H 206.117 -0.467902 1.51646 0
M  V30 2035 H 206.138 -3.10009 2.20624 0
M  V30 2036 H 205.65 -1.769 3.45439 0
M  V30 2037 H 203.751 -3.37346 1.58204 0
M  V30 2038 H 203.864 -3.30854 3.46515 0
M  V30 2039 H 202.228 -1.82761 1.774 0
M  V30 2040 H 203.011 -1.06778 3.26272 0
M  V30 2041 N 205.456 -1.28612 -0.910864 0
M  V30 2042 C 206.419 -1.12803 -1.9952 0
M  V30 2043 C 207.419 -0.0668264 -1.60661 0
M  V30 2044 O 208.609 -0.312847 -1.71368 0
M  V30 2045 C 205.741 -0.72254 -3.33155 0
M  V30 2046 H 206.934 -2.09109 -2.14973 0
M  V30 2047 H 204.487 -1.11639 -1.09391 0
M  V30 2048 H 205.222 0.241152 -3.23402 0
M  V30 2049 H 205.007 -1.48916 -3.62721 0
M  V30 2050 H 206.497 -0.634666 -4.12749 0
M  V30 2051 N 206.934 1.1197 -1.10907 0
M  V30 2052 C 207.897 2.16031 -0.765707 0
M  V30 2053 C 208.897 1.59393 0.212235 0
M  V30 2054 O 210.087 1.74196 -0.0115441 0
M  V30 2055 C 207.219 3.40632 -0.135053 0
M  V30 2056 H 208.412 2.47919 -1.68748 0
M  V30 2057 H 205.965 1.27061 -0.910226 0
M  V30 2058 H 206.7 3.14348 0.797218 0
M  V30 2059 H 206.485 3.8302 -0.838937 0
M  V30 2060 H 207.975 4.17505 0.0892469 0
M  V30 2061 N 208.412 0.89855 1.29475 0
M  V30 2062 C 209.375 0.380272 2.26023 0
M  V30 2063 C 210.375 -0.484891 1.53315 0
M  V30 2064 O 211.565 -0.290108 1.71767 0
M  V30 2065 C 208.697 -0.45651 3.3783 0
M  V30 2066 H 209.89 1.23295 2.73383 0
M  V30 2067 H 207.443 0.676589 1.40897 0
M  V30 2068 H 208.178 -1.32922 2.95808 0
M  V30 2069 H 207.963 0.163393 3.91759 0
M  V30 2070 H 209.453 -0.810466 4.0966 0
M  V30 2071 N 209.89 -1.43072 0.660911 0
M  V30 2072 C 210.853 -2.29194 -0.0166406 0
M  V30 2073 C 211.853 -1.42609 -0.742912 0
M  V30 2074 O 213.043 -1.64155 -0.583004 0
M  V30 2075 C 210.175 -3.24831 -1.0343 0
M  V30 2076 H 211.368 -2.90596 0.741208 0
M  V30 2077 H 208.921 -1.5048 0.422532 0
M  V30 2078 H 209.656 -2.68339 -1.82111 0
M  V30 2079 H 209.441 -3.88676 -0.517082 0
M  V30 2080 H 210.931 -3.89451 -1.50723 0
M  V30 2081 N 211.368 -0.403325 -1.52352 0
M  V30 2082 C 212.784 -0.0539281 -1.59509 0
M  V30 2083 C 212.984 1.43307 -1.41652 0
M  V30 2084 O 212.04 2.19924 -1.24056 0
M  V30 2085 C 213.353 -0.543654 -2.95745 0
M  V30 2086 C 214.901 -0.501125 -3.08962 0
M  V30 2087 C 215.376 -0.967267 -4.47669 0
M  V30 2088 N 216.867 -0.923849 -4.53893 0
M  V30 2089 C 217.602 -1.25578 -5.5948 0
M  V30 2090 N 217.098 -1.65889 -6.72646 0
M  V30 2091 N 218.891 -1.17613 -5.49658 0
M  V30 2092 H 211.042 -1.37123 -1.62206 0
M  V30 2093 H 213.305 -0.56294 -0.76276 0
M  V30 2094 H 213.011 -1.58275 -3.14073 0
M  V30 2095 H 212.885 0.0498042 -3.77167 0
M  V30 2096 H 215.272 0.528909 -2.90321 0
M  V30 2097 H 215.353 -1.13056 -2.2946 0
M  V30 2098 H 214.997 -1.9956 -4.67053 0
M  V30 2099 H 214.927 -0.314698 -5.25659 0
M  V30 2100 H 217.418 -0.627403 -3.72655 0
M  V30 2101 H 217.731 -1.89543 -7.49195 0
M  V30 2102 H 216.076 -1.69787 -6.73942 0
M  V30 2103 H 219.267 -0.860115 -4.6013 0
M  V30 2104 H 219.44 -1.43812 -6.3184 0
M  V30 2105 N 212.846 1.57033 -0.133567 0
M  V30 2106 C 214.076 1.99754 0.527429 0
M  V30 2107 C 214.484 1.01245 1.59832 0
M  V30 2108 O 213.827 -0.000645496 1.837 0
M  V30 2109 C 213.889 3.38903 1.19939 0
M  V30 2110 C 213.553 4.56174 0.274709 0
M  V30 2111 C 214.55 5.17563 -0.492398 0
M  V30 2112 C 212.235 5.01972 0.18153 0
M  V30 2113 C 214.229 6.2315 -1.34027 0
M  V30 2114 C 211.916 6.07416 -0.669958 0
M  V30 2115 C 212.914 6.67874 -1.42947 0
M  V30 2116 O 212.602 7.71279 -2.2668 0
M  V30 2117 H 212.334 0.660702 0.142999 0
M  V30 2118 H 214.888 2.04207 -0.221099 0
M  V30 2119 H 213.118 3.31248 1.99528 0
M  V30 2120 H 214.807 3.65818 1.75875 0
M  V30 2121 H 215.573 4.83087 -0.430367 0
M  V30 2122 H 211.452 4.54652 0.762422 0
M  V30 2123 H 214.996 6.70268 -1.93357 0
M  V30 2124 H 210.893 6.41321 -0.73333 0
M  V30 2125 H 211.661 7.88441 -2.1978 0
M  V30 2126 N 214.325 -0.140222 1.56975 0
M  V30 2127 C 215.288 -1.15689 1.97861 0
M  V30 2128 C 216.288 -1.3549 0.865974 0
M  V30 2129 O 217.478 -1.32367 1.13246 0
M  V30 2130 C 214.61 -2.51582 2.30042 0
M  V30 2131 H 215.803 -0.805971 2.88867 0
M  V30 2132 H 213.356 -0.383801 1.51515 0
M  V30 2133 H 214.091 -2.91632 1.41849 0
M  V30 2134 H 213.876 -2.38569 3.11171 0
M  V30 2135 H 215.366 -3.24792 2.62488 0
M  V30 2136 N 215.803 -1.52179 -0.40978 0
M  V30 2137 C 216.733 -1.78435 -1.5061 0
M  V30 2138 C 217.714 -0.635295 -1.57791 0
M  V30 2139 O 218.899 -0.880823 -1.73076 0
M  V30 2140 C 216.029 -1.93444 -2.88439 0
M  V30 2141 C 214.983 -3.09038 -2.96108 0
M  V30 2142 C 214.309 -3.09268 -4.36185 0
M  V30 2143 C 215.609 -4.48508 -2.67652 0
M  V30 2144 H 217.303 -2.70237 -1.28889 0
M  V30 2145 H 214.849 -1.30036 -0.618605 0
M  V30 2146 H 216.802 -2.10394 -3.65119 0
M  V30 2147 H 215.526 -0.983129 -3.11452 0
M  V30 2148 H 214.185 -2.91837 -2.21872 0
M  V30 2149 H 213.833 -2.11861 -4.56206 0
M  V30 2150 H 213.533 -3.86907 -4.42241 0
M  V30 2151 H 215.057 -3.28348 -5.14801 0
M  V30 2152 H 216.471 -4.65918 -3.34056 0
M  V30 2153 H 214.868 -5.28059 -2.85085 0
M  V30 2154 H 215.938 -4.56649 -1.63095 0
M  V30 2155 N 217.281 0.66697 -1.42791 0
M  V30 2156 C 218.697 0.981027 -1.25889 0
M  V30 2157 C 218.897 2.00793 -0.168695 0
M  V30 2158 O 217.953 2.48321 0.45747 0
M  V30 2159 C 219.266 1.47838 -2.61848 0
M  V30 2160 C 220.814 1.59575 -2.69267 0
M  V30 2161 C 221.289 2.12704 -4.05612 0
M  V30 2162 N 222.78 2.20026 -4.07606 0
M  V30 2163 C 223.515 2.62227 -5.09926 0
M  V30 2164 N 223.011 3.03824 -6.22626 0
M  V30 2165 N 224.804 2.62045 -4.97281 0
M  V30 2166 H 216.955 -0.0127891 -2.12396 0
M  V30 2167 H 219.218 0.0568258 -0.946295 0
M  V30 2168 H 218.924 0.798299 -3.4252 0
M  V30 2169 H 218.798 2.45579 -2.86305 0
M  V30 2170 H 221.185 2.26687 -1.88936 0
M  V30 2171 H 221.266 0.60302 -2.48591 0
M  V30 2172 H 220.91 1.46198 -4.86404 0
M  V30 2173 H 220.84 3.12782 -4.23645 0
M  V30 2174 H 223.331 1.90708 -3.2625 0
M  V30 2175 H 223.644 3.34734 -6.96544 0
M  V30 2176 H 221.989 3.01662 -6.26119 0
M  V30 2177 H 225.18 2.28916 -4.08308 0
M  V30 2178 H 225.353 2.94613 -5.77154 0
M  V30 2179 N 218.759 1.29093 0.90403 0
M  V30 2180 C 219.669 1.15727 2.0407 0
M  V30 2181 C 220.685 0.0815308 1.73809 0
M  V30 2182 O 221.861 0.292749 1.99261 0
M  V30 2183 C 218.926 0.830424 3.36608 0
M  V30 2184 C 217.987 1.98955 3.80415 0
M  V30 2185 C 217.22 1.6782 5.06628 0
M  V30 2186 O 217.443 0.597105 5.67266 0
M  V30 2187 O 216.377 2.52486 5.46383 0
M  V30 2188 H 220.203 2.11171 2.18267 0
M  V30 2189 H 217.788 1.08504 1.027 0
M  V30 2190 H 219.67 0.662521 4.16159 0
M  V30 2191 H 218.345 -0.0942678 3.23563 0
M  V30 2192 H 217.252 2.21267 3.01648 0
M  V30 2193 H 218.585 2.89529 3.98037 0
M  V30 2194 N 220.237 -1.11381 1.11499 0
M  V30 2195 C 221.486 -1.82494 0.858993 0
M  V30 2196 C 221.799 -1.85605 -0.617278 0
M  V30 2197 O 223.005 -2.52824 -0.989552 0
M  V30 2198 C 221.461 -3.27745 1.48699 0
M  V30 2199 C 221.069 -3.32961 2.99735 0
M  V30 2200 C 222.813 -4.03754 1.31085 0
M  V30 2201 C 220.72 -4.72612 3.55516 0
M  V30 2202 H 219.65 -0.683802 0.317696 0
M  V30 2203 H 222.301 -1.25331 1.34031 0
M  V30 2204 H 220.683 -3.84844 0.933339 0
M  V30 2205 H 221.857 -2.85741 3.61509 0
M  V30 2206 H 220.172 -2.70433 3.16631 0
M  V30 2207 H 222.769 -5.06891 1.70192 0
M  V30 2208 H 223.112 -4.15527 0.253496 0
M  V30 2209 H 223.645 -3.53043 1.83318 0
M  V30 2210 H 220.384 -4.66036 4.60967 0
M  V30 2211 H 219.904 -5.2024 2.98513 0
M  V30 2212 H 221.583 -5.4157 3.53992 0
M  V30 2213 N 221.715 -0.905404 -1.28997 0
M  V30 2214 C 222.625 -0.392246 -2.31298 0
M  V30 2215 C 223.641 0.515889 -1.66176 0
M  V30 2216 O 224.817 0.404093 -1.97304 0
M  V30 2217 C 221.882 0.36686 -3.44754 0
M  V30 2218 C 220.943 -0.573485 -4.25452 0
M  V30 2219 C 220.176 0.149488 -5.33491 0
M  V30 2220 O 220.399 1.37255 -5.5364 0
M  V30 2221 O 219.333 -0.510919 -5.99728 0
M  V30 2222 H 223.159 -1.2411 -2.77183 0
M  V30 2223 H 220.744 -0.669926 -1.33538 0
M  V30 2224 H 222.626 0.795907 -4.13816 0
M  V30 2225 H 221.301 1.19169 -3.00966 0
M  V30 2226 H 220.208 -1.05176 -3.59011 0
M  V30 2227 H 221.541 -1.36489 -4.72897 0
M  V30 2228 N 223.193 1.4272 -0.668489 0
M  V30 2229 C 224.442 2.00846 -0.185389 0
M  V30 2230 C 224.755 1.53442 1.21305 0
M  V30 2231 O 225.961 2.03944 1.79218 0
M  V30 2232 C 224.417 3.58805 -0.280591 0
M  V30 2233 C 224.025 4.15198 -1.68268 0
M  V30 2234 C 225.769 4.24255 0.14412 0
M  V30 2235 C 223.676 5.655 -1.73099 0
M  V30 2236 H 222.606 0.751145 -0.0655475 0
M  V30 2237 H 225.257 1.63516 -0.832752 0
M  V30 2238 H 223.639 3.93608 0.434553 0
M  V30 2239 H 224.813 3.91866 -2.42441 0
M  V30 2240 H 223.128 3.62176 -2.05469 0
M  V30 2241 H 225.725 5.34547 0.128086 0
M  V30 2242 H 226.068 3.99277 1.17827 0
M  V30 2243 H 226.601 3.94389 -0.519798 0
M  V30 2244 H 223.34 5.95268 -2.74475 0
M  V30 2245 H 222.86 5.90842 -1.03274 0
M  V30 2246 H 224.539 6.29808 -1.48158 0
M  V30 2247 N 224.671 0.411399 1.52136 0
M  V30 2248 C 226.082 -0.0576826 1.86611 0
M  V30 2249 C 226.433 -1.44238 1.33003 0
M  V30 2250 O 225.558 -2.05759 0.670228 0
M  V30 2251 C 226.153 -0.111448 3.38617 0
M  V30 2252 C 224.712 -0.52487 3.72723 0
M  V30 2253 C 223.859 0.299176 2.75681 0
M  V30 2254 H 226.81 0.628368 1.4573 0
M  V30 2255 H 226.831 -0.926252 3.69054 0
M  V30 2256 H 226.343 0.896488 3.77604 0
M  V30 2257 H 224.444 -1.53936 3.39315 0
M  V30 2258 H 224.557 -0.267681 4.78352 0
M  V30 2259 H 222.921 -0.238814 2.53578 0
M  V30 2260 H 223.704 1.3055 3.17508 0
M  V30 2261 N 226.149 -1.5696 0.141893 0
M  V30 2262 C 227.079 -2.19516 -0.795936 0
M  V30 2263 C 228.06 -1.14187 -1.26077 0
M  V30 2264 O 229.245 -1.42511 -1.31925 0
M  V30 2265 C 226.375 -2.81272 -2.03723 0
M  V30 2266 C 225.329 -3.92384 -1.70936 0
M  V30 2267 C 224.655 -4.41052 -3.02287 0
M  V30 2268 C 225.955 -5.13403 -0.959954 0
M  V30 2269 H 227.649 -2.98138 -0.274596 0
M  V30 2270 H 225.195 -1.43406 -0.130636 0
M  V30 2271 H 227.148 -3.237 -2.69808 0
M  V30 2272 H 225.872 -1.99973 -2.58221 0
M  V30 2273 H 224.531 -3.50566 -1.07232 0
M  V30 2274 H 224.179 -3.56582 -3.54765 0
M  V30 2275 H 223.879 -5.15993 -2.81114 0
M  V30 2276 H 225.403 -4.86146 -3.69451 0
M  V30 2277 H 226.817 -5.52706 -1.52279 0
M  V30 2278 H 225.214 -5.94073 -0.848357 0
M  V30 2279 H 226.284 -4.84875 0.0492434 0
M  V30 2280 N 227.627 0.131896 -1.57047 0
M  V30 2281 C 228.875 0.840269 -1.83804 0
M  V30 2282 C 229.196 1.81017 -0.72512 0
M  V30 2283 O 228.466 1.94272 0.251995 0
M  V30 2284 H 227.046 0.313294 -0.678127 0
M  V30 2285 H 229.708 0.122294 -1.94516 0
M  V30 2286 H 228.804 1.39335 -2.79271 0
M  V30 2287 N 229.106 1.52395 0.401703 0
M  V30 2288 C 230.016 1.7917 1.51444 0
M  V30 2289 C 231.032 0.677691 1.6026 0
M  V30 2290 O 232.208 0.963909 1.76835 0
M  V30 2291 C 229.273 1.94347 2.87107 0
M  V30 2292 C 228.334 3.18257 2.88116 0
M  V30 2293 C 227.567 3.32701 4.17308 0
M  V30 2294 O 227.79 2.52238 5.11598 0
M  V30 2295 O 226.724 4.25891 4.25324 0
M  V30 2296 H 230.55 2.73633 1.31752 0
M  V30 2297 H 228.135 1.3733 0.588296 0
M  V30 2298 H 230.017 2.06109 3.67555 0
M  V30 2299 H 228.692 1.03073 3.06851 0
M  V30 2300 H 227.599 3.11947 2.06494 0
M  V30 2301 H 228.932 4.09336 2.73322 0
M  V30 2302 N 230.584 -0.659388 1.43143 0
M  V30 2303 C 231.514 -1.78422 1.50625 0
M  V30 2304 C 232.495 -1.66216 0.361443 0
M  V30 2305 O 233.68 -1.85404 0.577834 0
M  V30 2306 C 230.81 -3.16815 1.42287 0
M  V30 2307 C 229.764 -3.43777 2.54954 0
M  V30 2308 C 229.09 -4.81905 2.31671 0
M  V30 2309 C 230.39 -3.39134 3.97222 0
M  V30 2310 H 232.084 -1.72417 2.44771 0
M  V30 2311 H 229.63 -0.828084 1.17808 0
M  V30 2312 H 231.583 -3.95253 1.46127 0
M  V30 2313 H 230.307 -3.23534 0.446435 0
M  V30 2314 H 228.966 -2.67707 2.50457 0
M  V30 2315 H 228.614 -4.85294 1.32284 0
M  V30 2316 H 228.314 -5.00906 3.07192 0
M  V30 2317 H 229.838 -5.62609 2.37284 0
M  V30 2318 H 231.252 -4.07518 4.03239 0
M  V30 2319 H 229.649 -3.69671 4.72719 0
M  V30 2320 H 230.719 -2.37426 4.22797 0
M  V30 2321 N 232.062 -1.29571 -0.897171 0
M  V30 2322 C 233.309 -1.17689 -1.6479 0
M  V30 2323 C 233.637 0.27107 -1.92602 0
M  V30 2324 O 232.892 1.21193 -1.53658 0
M  V30 2325 C 233.191 -1.9382 -3.00281 0
M  V30 2326 C 232.857 -3.43522 -2.92068 0
M  V30 2327 C 231.519 -3.84348 -2.89535 0
M  V30 2328 C 233.871 -4.38906 -2.81089 0
M  V30 2329 C 231.199 -5.18869 -2.73846 0
M  V30 2330 C 233.551 -5.73521 -2.66939 0
M  V30 2331 C 232.215 -6.13601 -2.62774 0
M  V30 2332 H 231.485 -0.430654 -0.603008 0
M  V30 2333 H 234.132 -1.60536 -1.04404 0
M  V30 2334 H 232.437 -1.4357 -3.64547 0
M  V30 2335 H 234.134 -1.82028 -3.57305 0
M  V30 2336 H 230.724 -3.11072 -2.94842 0
M  V30 2337 H 234.908 -4.08315 -2.82121 0
M  V30 2338 H 230.164 -5.4903 -2.69027 0
M  V30 2339 H 234.338 -6.47078 -2.57416 0
M  V30 2340 H 231.965 -7.17786 -2.50375 0
M  V30 2341 N 233.54 1.10788 -1.12088 0
M  V30 2342 C 234.503 2.15207 -0.788577 0
M  V30 2343 C 235.503 1.59609 0.195317 0
M  V30 2344 O 236.693 1.74174 -0.0300193 0
M  V30 2345 C 233.825 3.4047 -0.171174 0
M  V30 2346 H 235.018 2.46116 -1.71368 0
M  V30 2347 H 232.571 1.26089 -0.923652 0
M  V30 2348 H 233.306 3.15176 0.763832 0
M  V30 2349 H 233.091 3.82109 -0.879514 0
M  V30 2350 H 234.581 4.17576 0.04496 0
M  V30 2351 N 235.018 0.912232 1.28515 0
M  V30 2352 C 236.434 0.610159 1.47476 0
M  V30 2353 C 236.634 -0.844955 1.82928 0
M  V30 2354 O 235.69 -1.62416 1.93332 0
M  V30 2355 C 237.003 1.54675 2.57868 0
M  V30 2356 C 238.551 1.55331 2.71738 0
M  V30 2357 C 239.026 2.47649 3.85272 0
M  V30 2358 N 240.517 2.45767 3.92623 0
M  V30 2359 C 241.252 3.13896 4.79851 0
M  V30 2360 N 240.748 3.9135 5.71679 0
M  V30 2361 N 242.541 3.02991 4.73448 0
M  V30 2362 H 234.692 1.85318 1.03783 0
M  V30 2363 H 236.955 0.794777 0.516753 0
M  V30 2364 H 236.661 2.5841 2.38574 0
M  V30 2365 H 236.535 1.27671 3.54937 0
M  V30 2366 H 238.922 0.52335 2.90422 0
M  V30 2367 H 239.003 1.86378 1.75205 0
M  V30 2368 H 238.647 3.50745 3.67342 0
M  V30 2369 H 238.577 2.13904 4.81199 0
M  V30 2370 H 241.068 1.89503 3.26951 0
M  V30 2371 H 241.381 4.40359 6.35062 0
M  V30 2372 H 239.726 3.95455 5.71524 0
M  V30 2373 H 242.917 2.41987 4.007 0
M  V30 2374 H 243.09 3.5636 5.41213 0
M  V30 2375 N 236.496 -1.42363 0.676048 0
M  V30 2376 C 237.443 -2.308 -0.00150904 0
M  V30 2377 C 238.413 -1.46032 -0.791444 0
M  V30 2378 O 239.598 -1.74861 -0.76344 0
M  V30 2379 C 236.738 -3.31883 -0.945919 0
M  V30 2380 C 235.851 -4.31741 -0.149675 0
M  V30 2381 C 234.986 -5.19898 -1.08995 0
M  V30 2382 C 234.025 -6.11434 -0.285465 0
M  V30 2383 N 233.162 -6.92138 -1.17851 0
M  V30 2384 H 238.002 -2.88187 0.758455 0
M  V30 2385 H 235.539 -1.41952 0.38576 0
M  V30 2386 H 237.497 -3.89019 -1.50731 0
M  V30 2387 H 236.127 -2.76093 -1.6725 0
M  V30 2388 H 235.179 -3.76713 0.528359 0
M  V30 2389 H 236.491 -4.96534 0.474866 0
M  V30 2390 H 235.645 -5.81772 -1.72123 0
M  V30 2391 H 234.384 -4.55284 -1.74837 0
M  V30 2392 H 233.389 -5.48627 0.359018 0
M  V30 2393 H 234.614 -6.78097 0.368883 0
M  V30 2394 H 232.56 -6.30152 -1.82332 0
M  V30 2395 H 232.477 -7.53542 -0.609082 0
M  V30 2396 H 233.745 -7.58499 -1.79722 0
M  V30 2397 N 237.974 -0.419461 -1.51915 0
M  V30 2398 C 239.199 0.154572 -2.06823 0
M  V30 2399 C 239.624 1.3722 -1.28656 0
M  V30 2400 O 238.982 1.78461 -0.319583 0
M  V30 2401 C 239.03 0.473172 -3.57482 0
M  V30 2402 O 238.134 1.56255 -3.81652 0
M  V30 2403 H 237.475 0.0096924 -0.663929 0
M  V30 2404 H 240.005 -0.595642 -1.95738 0
M  V30 2405 H 240.015 0.728825 -4.01438 0
M  V30 2406 H 238.69 -0.416873 -4.13805 0
M  V30 2407 H 237.267 1.29825 -3.49571 0
M  V30 2408 N 239.452 1.56882 -0.150215 0
M  V30 2409 C 240.698 1.96518 0.500834 0
M  V30 2410 C 241.031 1.03527 1.64304 0
M  V30 2411 O 240.306 0.0782751 1.94342 0
M  V30 2412 C 240.589 3.45822 1.00395 0
M  V30 2413 C 240.442 4.49591 -0.136983 0
M  V30 2414 C 241.761 3.97704 1.88467 0
M  V30 2415 H 238.88 0.714535 0.18058 0
M  V30 2416 H 241.522 1.88577 -0.232091 0
M  V30 2417 H 239.672 3.5272 1.62851 0
M  V30 2418 H 241.344 4.5477 -0.77343 0
M  V30 2419 H 239.587 4.26441 -0.795652 0
M  V30 2420 H 240.258 5.51402 0.256815 0
M  V30 2421 H 242.734 3.93304 1.35834 0
M  V30 2422 H 241.61 5.0263 2.20578 0
M  V30 2423 H 241.871 3.40252 2.82279 0
M  V30 2424 N 240.93 -0.123565 1.57115 0
M  V30 2425 C 241.893 -1.13583 1.99076 0
M  V30 2426 C 242.893 -1.34564 0.880296 0
M  V30 2427 O 244.083 -1.31158 1.14644 0
M  V30 2428 C 241.215 -2.49128 2.32698 0
M  V30 2429 H 242.408 -0.775287 2.89706 0
M  V30 2430 H 239.961 -0.36771 1.51913 0
M  V30 2431 H 240.696 -2.90111 1.44934 0
M  V30 2432 H 240.481 -2.35255 3.13684 0
M  V30 2433 H 241.971 -3.2199 2.65918 0
M  V30 2434 N 242.408 -1.52605 -0.393616 0
M  V30 2435 C 243.633 -1.71592 -1.16495 0
M  V30 2436 C 244.058 -0.43133 -1.83088 0
M  V30 2437 O 243.416 0.612523 -1.7064 0
M  V30 2438 C 243.464 -2.86318 -2.19213 0
M  V30 2439 O 242.568 -2.52969 -3.257 0
M  V30 2440 H 241.909 -0.570734 -0.33935 0
M  V30 2441 H 244.439 -1.99377 -0.459324 0
M  V30 2442 H 244.449 -3.1168 -2.63286 0
M  V30 2443 H 243.124 -3.79511 -1.7013 0
M  V30 2444 H 241.701 -2.38332 -2.86797 0
M  V30 2445 N 243.887 0.651787 -1.4349 0
M  V30 2446 C 245.112 1.44434 -1.48841 0
M  V30 2447 C 245.537 1.8779 -0.107955 0
M  V30 2448 O 244.895 1.57464 0.898602 0
M  V30 2449 C 244.943 2.65458 -2.44059 0
M  V30 2450 O 244.047 3.64566 -1.92784 0
M  V30 2451 H 243.388 0.433005 -0.503391 0
M  V30 2452 H 245.918 0.797451 -1.88419 0
M  V30 2453 H 245.928 3.13255 -2.6141 0
M  V30 2454 H 244.603 2.33244 -3.4434 0
M  V30 2455 H 243.18 3.23716 -1.851 0
M  V30 2456 N 245.365 1.30045 0.890287 0
M  V30 2457 C 246.328 1.15963 1.977 0
M  V30 2458 C 247.328 0.0923777 1.60534 0
M  V30 2459 O 248.518 0.340071 1.70848 0
M  V30 2460 C 245.65 0.775451 3.31963 0
M  V30 2461 H 246.843 2.12502 2.11619 0
M  V30 2462 H 244.396 1.13366 1.07601 0
M  V30 2463 H 245.131 -0.189671 3.23745 0
M  V30 2464 H 244.916 1.54668 3.60306 0
M  V30 2465 H 246.406 0.700251 4.11687 0
M  V30 2466 N 246.843 -1.10192 1.12674 0
M  V30 2467 C 248.083 -1.83825 0.893736 0
M  V30 2468 C 248.447 -1.83341 -0.570082 0
M  V30 2469 O 249.648 -2.52553 -0.920354 0
M  V30 2470 C 247.919 -3.26405 1.45582 0
M  V30 2471 S 249.478 -4.17136 1.36171 0
M  V30 2472 H 246.296 -0.633732 0.322342 0
M  V30 2473 H 248.898 -1.32581 1.43675 0
M  V30 2474 H 247.602 -3.24329 2.51473 0
M  V30 2475 H 247.133 -3.82721 0.910405 0
M  V30 2476 H 249.148 -4.95069 0.334863 0
M  V30 2477 N 248.321 -0.919034 -1.28029 0
M  V30 2478 C 249.546 -0.570357 -1.99403 0
M  V30 2479 C 249.971 0.842486 -1.68178 0
M  V30 2480 O 249.329 1.56391 -0.917141 0
M  V30 2481 C 249.377 -0.792541 -3.51783 0
M  V30 2482 O 248.481 0.145988 -4.12142 0
M  V30 2483 H 247.822 -0.220555 -0.6263 0
M  V30 2484 H 250.352 -1.23592 -1.63053 0
M  V30 2485 H 250.362 -0.704708 -4.01868 0
M  V30 2486 H 249.037 -1.82247 -3.73844 0
M  V30 2487 H 247.614 0.00897528 -3.72899 0
M  V30 2488 N 249.799 1.42003 -0.683588 0
M  V30 2489 C 251.027 2.05746 -0.218182 0
M  V30 2490 C 251.442 1.51396 1.12804 0
M  V30 2491 O 250.799 0.657303 1.70252 0
M  V30 2492 C 250.85 3.61171 -0.154131 0
M  V30 2493 O 250.571 4.13508 -1.44716 0
M  V30 2494 C 252.072 4.42042 0.333713 0
M  V30 2495 H 249.292 0.662888 -0.10402 0
M  V30 2496 H 251.836 1.81987 -0.9328 0
M  V30 2497 H 249.991 3.84012 0.511231 0
M  V30 2498 H 250.405 5.07453 -1.32632 0
M  V30 2499 H 251.879 5.51028 0.327423 0
M  V30 2500 H 252.356 4.17269 1.37053 0
M  V30 2501 H 252.962 4.24239 -0.300222 0
M  V30 2502 N 251.277 0.427512 1.51691 0
M  V30 2503 C 252.688 -0.0378867 1.86662 0
M  V30 2504 C 253.039 -1.42819 1.34525 0
M  V30 2505 O 252.164 -2.05037 0.692014 0
M  V30 2506 C 252.759 -0.0755266 3.38716 0
M  V30 2507 C 251.318 -0.485309 3.73258 0
M  V30 2508 C 250.465 0.328399 2.75349 0
M  V30 2509 H 253.416 0.64379 1.45055 0
M  V30 2510 H 253.437 -0.887056 3.70016 0
M  V30 2511 H 252.949 0.936487 3.76632 0
M  V30 2512 H 251.05 -1.50329 3.40928 0
M  V30 2513 H 251.163 -0.21693 4.78609 0
M  V30 2514 H 249.527 -0.211905 2.53817 0
M  V30 2515 H 250.31 1.3391 3.16106 0
M  V30 2516 N 252.755 -1.56801 0.158532 0
M  V30 2517 C 254.166 -1.83189 -0.360366 0
M  V30 2518 C 254.517 -1.07778 -1.63946 0
M  V30 2519 O 253.642 -0.326718 -2.13919 0
M  V30 2520 C 254.237 -3.32297 -0.660595 0
M  V30 2521 C 252.796 -3.59227 -1.12398 0
M  V30 2522 C 251.943 -2.76877 -0.153097 0
M  V30 2523 H 254.894 -1.54008 0.383031 0
M  V30 2524 H 254.915 -3.4908 -1.51405 0
M  V30 2525 H 254.427 -3.87156 0.270527 0
M  V30 2526 H 252.528 -3.09766 -2.07064 0
M  V30 2527 H 252.641 -4.67632 -1.04197 0
M  V30 2528 H 251.005 -2.46319 -0.647983 0
M  V30 2529 H 251.788 -3.34511 0.77182 0
M  V30 2530 N 254.233 0.115231 -1.57178 0
M  V30 2531 C 255.644 0.67197 -1.74188 0
M  V30 2532 C 255.995 1.80125 -0.777777 0
M  V30 2533 O 255.12 2.16346 0.0484376 0
M  V30 2534 C 255.715 1.22573 -3.1585 0
M  V30 2535 C 254.274 1.72872 -3.34353 0
M  V30 2536 C 253.421 0.629972 -2.70049 0
M  V30 2537 H 256.372 -0.110712 -1.58313 0
M  V30 2538 H 256.393 2.09535 -3.17609 0
M  V30 2539 H 255.905 0.403598 -3.85996 0
M  V30 2540 H 254.006 2.5755 -2.69256 0
M  V30 2541 H 254.119 1.83557 -4.42542 0
M  V30 2542 H 252.483 1.0645 -2.31388 0
M  V30 2543 H 253.266 -0.181241 -3.42821 0
M  V30 2544 N 255.711 1.52812 0.385517 0
M  V30 2545 C 256.959 1.67694 1.12797 0
M  V30 2546 C 257.28 0.421115 1.90399 0
M  V30 2547 O 256.55 -0.564551 1.87589 0
M  V30 2548 H 255.13 0.618155 0.419396 0
M  V30 2549 H 257.792 1.89938 0.436972 0
M  V30 2550 H 256.888 2.52896 1.82894 0
M  V30 2551 N 257.189 -0.644168 1.43834 0
M  V30 2552 C 258.6 -1.22554 1.40845 0
M  V30 2553 C 258.951 -1.9585 0.117115 0
M  V30 2554 O 258.076 -2.01734 -0.783086 0
M  V30 2555 C 258.671 -2.22907 2.55143 0
M  V30 2556 C 257.23 -2.76501 2.5539 0
M  V30 2557 C 256.377 -1.51287 2.32396 0
M  V30 2558 H 259.328 -0.43563 1.52604 0
M  V30 2559 H 259.349 -3.05259 2.2715 0
M  V30 2560 H 258.861 -1.69533 3.49114 0
M  V30 2561 H 256.962 -3.33914 1.65324 0
M  V30 2562 H 257.075 -3.23429 3.53455 0
M  V30 2563 H 255.439 -1.78957 1.81236 0
M  V30 2564 H 256.222 -0.998336 3.28463 0
M  V30 2565 N 258.668 -1.30515 -0.883378 0
M  V30 2566 C 259.916 -1.19194 -1.63209 0
M  V30 2567 C 260.237 0.253205 -1.93349 0
M  V30 2568 O 259.507 1.17025 -1.57105 0
M  V30 2569 H 258.087 -0.438148 -0.605009 0
M  V30 2570 H 260.749 -1.63663 -1.05832 0
M  V30 2571 H 259.845 -1.75396 -2.58153 0
M  V30 2572 N 260.146 1.09593 -1.13257 0
M  V30 2573 C 261.557 1.63229 -0.906274 0
M  V30 2574 C 261.908 1.8811 0.557578 0
M  V30 2575 O 261.033 1.62953 1.42391 0
M  V30 2576 C 261.628 2.96535 -1.63867 0
M  V30 2577 C 260.187 3.47003 -1.45828 0
M  V30 2578 C 259.334 2.2145 -1.66898 0
M  V30 2579 H 262.285 0.92978 -1.28611 0
M  V30 2580 H 262.306 3.64411 -1.09476 0
M  V30 2581 H 261.818 2.78394 -2.70404 0
M  V30 2582 H 259.919 3.70272 -0.415848 0
M  V30 2583 H 260.032 4.24551 -2.2202 0
M  V30 2584 H 258.396 2.30022 -1.09371 0
M  V30 2585 H 259.179 2.0583 -2.74752 0
M  V30 2586 N 261.624 0.925811 1.2754 0
M  V30 2587 C 262.872 0.564138 1.94067 0
M  V30 2588 C 263.193 -0.897188 1.73134 0
M  V30 2589 O 262.463 -1.63573 1.07799 0
M  V30 2590 H 261.043 0.205645 0.718136 0
M  V30 2591 H 263.705 1.1778 1.55287 0
M  V30 2592 H 262.801 0.76881 3.02483 0
M  V30 2593 N 263.102 -1.41638 0.69111 0
M  V30 2594 C 264.513 -1.84346 0.295517 0
M  V30 2595 C 264.864 -1.57833 -1.16547 0
M  V30 2596 O 263.989 -1.04648 -1.89414 0
M  V30 2597 C 264.584 -3.34636 0.529575 0
M  V30 2598 C 263.143 -3.7593 0.187944 0
M  V30 2599 C 262.29 -2.65082 0.814052 0
M  V30 2600 H 265.241 -1.31253 0.892092 0
M  V30 2601 H 265.262 -3.79903 -0.213148 0
M  V30 2602 H 264.774 -3.53901 1.59297 0
M  V30 2603 H 262.875 -3.62268 -0.871367 0
M  V30 2604 H 262.988 -4.74808 0.63985 0
M  V30 2605 H 261.352 -2.53528 0.244017 0
M  V30 2606 H 262.135 -2.87167 1.88123 0
M  V30 2607 N 264.58 -0.43555 -1.51462 0
M  V30 2608 C 265.82 0.130708 -2.03982 0
M  V30 2609 C 266.184 1.40117 -1.31268 0
M  V30 2610 O 267.385 2.04755 -1.74152 0
M  V30 2611 C 265.656 0.346102 -3.5572 0
M  V30 2612 S 267.215 0.876022 -4.29967 0
M  V30 2613 H 264.033 0.0326881 -0.710248 0
M  V30 2614 H 266.635 -0.594544 -1.8624 0
M  V30 2615 H 265.339 -0.584911 -4.0621 0
M  V30 2616 H 264.87 1.09849 -3.77752 0
M  V30 2617 H 266.885 2.15379 -4.47019 0
M  V30 2618 N 266.058 1.56714 -0.166846 0
M  V30 2619 C 267.469 1.83378 0.350646 0
M  V30 2620 C 267.82 1.08646 1.63372 0
M  V30 2621 O 266.945 0.338058 2.13743 0
M  V30 2622 C 267.54 3.32643 0.642963 0
M  V30 2623 C 266.099 3.59818 1.10491 0
M  V30 2624 C 265.246 2.76954 0.138411 0
M  V30 2625 H 268.197 1.53803 -0.391193 0
M  V30 2626 H 268.218 3.49878 1.49551 0
M  V30 2627 H 267.73 3.87007 -0.291055 0
M  V30 2628 H 265.831 3.1086 2.05418 0
M  V30 2629 H 265.944 4.68178 1.01716 0
M  V30 2630 H 264.308 2.4666 0.634911 0
M  V30 2631 H 265.091 3.34097 -0.789549 0
M  V30 2632 N 267.536 -0.106894 1.57237 0
M  V30 2633 C 268.784 -0.810921 1.85117 0
M  V30 2634 C 269.105 -1.7984 0.753827 0
M  V30 2635 O 268.375 -1.94649 -0.221056 0
M  V30 2636 H 266.955 -0.302466 0.683025 0
M  V30 2637 H 269.617 -0.0913324 1.94686 0
M  V30 2638 H 268.713 -1.34875 2.81452 0
M  V30 2639 N 269.014 -1.53014 -0.377408 0
M  V30 2640 C 270.425 -1.60438 -0.954798 0
M  V30 2641 C 270.776 -0.464418 -1.90624 0
M  V30 2642 O 269.901 0.41087 -2.12464 0
M  V30 2643 C 270.496 -2.90797 -1.73847 0
M  V30 2644 C 269.055 -3.00595 -2.26538 0
M  V30 2645 C 268.202 -2.55645 -1.07429 0
M  V30 2646 H 271.153 -1.57926 -0.156575 0
M  V30 2647 H 271.174 -2.77935 -2.5987 0
M  V30 2648 H 270.686 -3.73746 -1.04574 0
M  V30 2649 H 268.787 -2.22208 -2.99089 0
M  V30 2650 H 268.9 -4.05456 -2.5523 0
M  V30 2651 H 267.264 -2.10239 -1.43777 0
M  V30 2652 H 268.047 -3.41 -0.396728 0
M  V30 2653 N 270.492 0.636531 -1.44174 0
M  V30 2654 C 271.455 1.73063 -1.50273 0
M  V30 2655 C 272.455 1.56113 -0.385397 0
M  V30 2656 O 273.645 1.61707 -0.64781 0
M  V30 2657 C 270.777 3.12096 -1.37145 0
M  V30 2658 H 271.97 1.69031 -2.47727 0
M  V30 2659 H 269.523 0.849706 -1.31186 0
M  V30 2660 H 270.258 3.21728 -0.407636 0
M  V30 2661 H 270.043 3.25805 -2.18159 0
M  V30 2662 H 271.533 3.91846 -1.44382 0
M  V30 2663 N 271.97 1.30982 0.876444 0
M  V30 2664 C 273.195 1.23373 1.66715 0
M  V30 2665 C 273.62 -0.19885 1.87046 0
M  V30 2666 O 272.978 -1.1427 1.40756 0
M  V30 2667 C 273.026 1.97644 3.01611 0
M  V30 2668 O 272.13 1.30935 3.91062 0
M  V30 2669 H 271.471 0.426279 0.509099 0
M  V30 2670 H 274.001 1.72944 1.09323 0
M  V30 2671 H 274.011 2.06992 3.51594 0
M  V30 2672 H 272.686 3.01829 2.86133 0
M  V30 2673 H 271.263 1.29996 3.49507 0
M  V30 2674 N 273.449 -1.08991 1.13837 0
M  V30 2675 C 274.412 -2.13925 0.822715 0
M  V30 2676 C 275.412 -1.599 -0.1699 0
M  V30 2677 O 276.602 -1.74104 0.0577251 0
M  V30 2678 C 273.734 -3.40155 0.225318 0
M  V30 2679 H 274.927 -2.43358 1.75262 0
M  V30 2680 H 272.48 -1.24603 0.943594 0
M  V30 2681 H 273.215 -3.16352 -0.713594 0
M  V30 2682 H 273 -3.80661 0.940193 0
M  V30 2683 H 274.49 -4.17594 0.0214784 0
M  V30 2684 N 274.927 -0.932562 -1.27047 0
M  V30 2685 C 276.152 -0.591474 -1.98787 0
M  V30 2686 C 276.577 0.824601 -1.69062 0
M  V30 2687 O 275.935 1.5541 -0.933677 0
M  V30 2688 C 275.983 -0.829808 -3.50922 0
M  V30 2689 O 275.087 0.102266 -4.12273 0
M  V30 2690 H 274.428 -0.227185 -0.623926 0
M  V30 2691 H 276.958 -1.25314 -1.61733 0
M  V30 2692 H 276.968 -0.747292 -4.01098 0
M  V30 2693 H 275.643 -1.86201 -3.7189 0
M  V30 2694 H 274.22 -0.0305761 -3.72887 0
M  V30 2695 N 276.405 1.4127 -0.698611 0
M  V30 2696 C 277.816 1.84187 -0.305289 0
M  V30 2697 C 278.167 1.58449 1.15708 0
M  V30 2698 O 277.292 1.05651 1.88856 0
M  V30 2699 C 277.887 3.3435 -0.547314 0
M  V30 2700 C 276.446 3.75826 -0.207878 0
M  V30 2701 C 275.593 2.64647 -0.828099 0
M  V30 2702 H 278.544 1.30778 -0.89904 0
M  V30 2703 H 278.565 3.8001 0.192998 0
M  V30 2704 H 278.077 3.53051 -1.61172 0
M  V30 2705 H 276.178 3.62725 0.852143 0
M  V30 2706 H 276.291 4.74462 -0.665021 0
M  V30 2707 H 274.655 2.53395 -0.257458 0
M  V30 2708 H 275.438 2.86165 -1.89643 0
M  V30 2709 N 277.883 0.443576 1.51229 0
M  V30 2710 C 278.846 -0.353132 2.26463 0
M  V30 2711 C 279.846 -0.944338 1.3015 0
M  V30 2712 O 281.036 -0.817813 1.5381 0
M  V30 2713 C 278.168 -1.50023 3.06114 0
M  V30 2714 H 279.361 0.3063 2.98332 0
M  V30 2715 H 276.914 0.196902 1.55055 0
M  V30 2716 H 277.649 -2.19553 2.38677 0
M  V30 2717 H 277.434 -1.08241 3.76864 0
M  V30 2718 H 278.924 -2.06296 3.63087 0
M  V30 2719 N 279.361 -1.56624 0.175154 0
M  V30 2720 C 280.586 -2.01813 -0.478137 0
M  V30 2721 C 281.011 -1.05457 -1.55757 0
M  V30 2722 O 280.369 -0.0347439 -1.81267 0
M  V30 2723 C 280.417 -3.45581 -1.02987 0
M  V30 2724 O 279.521 -3.52305 -2.14371 0
M  V30 2725 H 278.862 -0.65413 -0.114059 0
M  V30 2726 H 281.392 -2.02673 0.280173 0
M  V30 2727 H 281.402 -3.84965 -1.35151 0
M  V30 2728 H 280.077 -4.1521 -0.239556 0
M  V30 2729 H 278.654 -3.24783 -1.83222 0
M  V30 2730 N 280.839 0.0985539 -1.57292 0
M  V30 2731 C 282.25 0.653457 -1.74891 0
M  V30 2732 C 282.601 1.7929 -0.796838 0
M  V30 2733 O 281.726 2.16385 0.0254886 0
M  V30 2734 C 282.321 1.19216 -3.17133 0
M  V30 2735 C 280.88 1.69316 -3.36168 0
M  V30 2736 C 280.027 0.601294 -2.70702 0
M  V30 2737 H 282.978 -0.127497 -1.58187 0
M  V30 2738 H 282.999 2.06154 -3.19814 0
M  V30 2739 H 282.511 0.362635 -3.86402 0
M  V30 2740 H 280.612 2.5468 -2.71972 0
M  V30 2741 H 280.725 1.78853 -4.44464 0
M  V30 2742 H 279.089 1.0399 -2.32504 0
M  V30 2743 H 279.872 -0.217592 -3.4261 0
M  V30 2744 N 282.317 1.53212 0.369288 0
M  V30 2745 C 283.542 1.73423 1.1375 0
M  V30 2746 C 283.967 0.460404 1.82378 0
M  V30 2747 O 283.325 -0.585298 1.71592 0
M  V30 2748 C 283.373 2.89769 2.1463 0
M  V30 2749 O 282.477 2.58119 3.21634 0
M  V30 2750 H 281.818 0.576061 0.330227 0
M  V30 2751 H 284.348 2.00083 0.427547 0
M  V30 2752 H 284.358 3.15829 2.58294 0
M  V30 2753 H 283.033 3.8217 1.64071 0
M  V30 2754 H 281.61 2.42864 2.82969 0
M  V30 2755 N 283.795 -0.628877 1.44509 0
M  V30 2756 C 285.206 -1.21054 1.42137 0
M  V30 2757 C 285.557 -1.95715 0.137881 0
M  V30 2758 O 284.682 -2.02554 -0.761645 0
M  V30 2759 C 285.277 -2.20189 2.57493 0
M  V30 2760 C 283.836 -2.73777 2.58308 0
M  V30 2761 C 282.983 -1.48813 2.33987 0
M  V30 2762 H 285.934 -0.41942 1.53057 0
M  V30 2763 H 285.955 -3.02833 2.30375 0
M  V30 2764 H 285.467 -1.6582 3.50892 0
M  V30 2765 H 283.568 -3.32142 1.68856 0
M  V30 2766 H 283.681 -3.19662 3.56865 0
M  V30 2767 H 282.045 -1.77024 1.83124 0
M  V30 2768 H 282.828 -0.963442 3.29504 0
M  V30 2769 N 285.273 -1.31445 -0.869486 0
M  V30 2770 C 286.236 -1.19094 -1.9583 0
M  V30 2771 C 287.236 -0.117906 -1.60367 0
M  V30 2772 O 288.426 -0.367208 -1.70286 0
M  V30 2773 C 285.558 -0.828165 -3.30688 0
M  V30 2774 H 286.751 -2.15842 -2.08212 0
M  V30 2775 H 284.304 -1.15063 -1.05784 0
M  V30 2776 H 285.039 0.138142 -3.24006 0
M  V30 2777 H 284.824 -1.6038 -3.578 0
M  V30 2778 H 286.314 -0.765658 -4.10521 0
M  V30 2779 N 286.751 1.08385 -1.14413 0
M  V30 2780 C 288.028 1.77429 -0.823297 0
M  V30 2781 C 288.408 1.9974 0.683163 0
M  V30 2782 O 287.756 1.60739 1.62405 0
M  V30 2783 C 287.966 3.09004 -1.62227 0
M  V30 2784 C 289.314 3.83532 -1.82177 0
M  V30 2785 O 290.338 3.18786 -1.58915 0
M  V30 2786 O 289.197 4.99792 -2.21067 0
M  V30 2787 H 286.291 0.769999 -0.301712 0
M  V30 2788 H 288.837 1.14846 -1.24934 0
M  V30 2789 H 287.609 2.88316 -2.64555 0
M  V30 2790 H 287.232 3.79316 -1.19187 0
M  V30 2791 N 288.23 0.939286 1.26551 0
M  V30 2792 C 289.476 0.586715 1.94128 0
M  V30 2793 C 289.809 -0.8717 1.73537 0
M  V30 2794 O 289.084 -1.62339 1.07127 0
M  V30 2795 C 289.367 0.927497 3.4795 0
M  V30 2796 C 289.22 2.44052 3.77834 0
M  V30 2797 C 290.539 0.441569 4.37879 0
M  V30 2798 H 287.658 0.21463 0.705055 0
M  V30 2799 H 290.3 1.17316 1.49455 0
M  V30 2800 H 288.45 0.428431 3.8613 0
M  V30 2801 H 290.122 3.01216 3.4938 0
M  V30 2802 H 288.365 2.8848 3.23978 0
M  V30 2803 H 289.036 2.62947 4.85348 0
M  V30 2804 H 291.512 0.869448 4.06915 0
M  V30 2805 H 290.388 0.708856 5.44304 0
M  V30 2806 H 290.649 -0.658467 4.37169 0
M  V30 2807 N 289.708 -1.40897 0.706093 0
M  V30 2808 C 290.671 -2.29131 0.0562841 0
M  V30 2809 C 291.671 -1.44901 -0.697166 0
M  V30 2810 O 292.861 -1.65926 -0.530484 0
M  V30 2811 C 289.993 -3.27957 -0.93043 0
M  V30 2812 H 291.186 -2.88091 0.833284 0
M  V30 2813 H 288.739 -1.4906 0.470192 0
M  V30 2814 H 289.474 -2.73997 -1.73482 0
M  V30 2815 H 289.259 -3.90124 -0.393166 0
M  V30 2816 H 290.749 -3.94049 -1.38256 0
M  V30 2817 N 291.186 -0.45159 -1.50991 0
M  V30 2818 C 292.416 0.108177 -2.06317 0
M  V30 2819 C 292.824 1.35774 -1.31765 0
M  V30 2820 O 292.167 1.79838 -0.374694 0
M  V30 2821 C 292.229 0.481659 -3.56259 0
M  V30 2822 C 291.893 -0.663114 -4.52163 0
M  V30 2823 C 292.89 -1.53947 -4.96585 0
M  V30 2824 C 290.575 -0.8479 -4.95092 0
M  V30 2825 C 292.569 -2.58518 -5.82621 0
M  V30 2826 C 290.256 -1.89686 -5.80915 0
M  V30 2827 C 291.254 -2.76388 -6.24579 0
M  V30 2828 O 290.942 -3.79482 -7.08695 0
M  V30 2829 H 290.674 0.00499183 -0.675982 0
M  V30 2830 H 293.228 -0.633659 -1.95381 0
M  V30 2831 H 291.458 1.27641 -3.65027 0
M  V30 2832 H 293.147 0.974233 -3.94035 0
M  V30 2833 H 293.913 -1.4083 -4.64103 0
M  V30 2834 H 289.792 -0.18258 -4.60638 0
M  V30 2835 H 293.336 -3.26224 -6.16623 0
M  V30 2836 H 289.233 -2.02817 -6.12809 0
M  V30 2837 H 290.001 -3.76234 -7.26905 0
M  V30 2838 N 292.664 1.56529 -0.183458 0
M  V30 2839 C 293.574 2.22144 0.754272 0
M  V30 2840 C 294.59 1.21684 1.24374 0
M  V30 2841 O 295.766 1.54385 1.29333 0
M  V30 2842 C 292.831 2.85884 1.96141 0
M  V30 2843 C 291.892 4.01579 1.51765 0
M  V30 2844 C 291.125 4.6227 2.66725 0
M  V30 2845 O 291.348 4.21865 3.83909 0
M  V30 2846 O 290.282 5.51936 2.40104 0
M  V30 2847 H 294.108 3.02861 0.225527 0
M  V30 2848 H 291.693 1.49331 0.0453032 0
M  V30 2849 H 293.575 3.26253 2.66715 0
M  V30 2850 H 292.25 2.08154 2.47899 0
M  V30 2851 H 291.157 3.65856 0.781049 0
M  V30 2852 H 292.49 4.80938 1.04686 0
M  V30 2853 N 294.142 -0.090211 1.57342 0
M  V30 2854 C 295.052 -1.12735 2.05738 0
M  V30 2855 C 296.068 -1.43557 0.983231 0
M  V30 2856 O 297.244 -1.54101 1.29672 0
M  V30 2857 C 294.309 -2.42659 2.47624 0
M  V30 2858 C 293.37 -2.18975 3.69254 0
M  V30 2859 C 292.603 -3.42704 4.09133 0
M  V30 2860 O 292.826 -4.51127 3.49057 0
M  V30 2861 O 291.76 -3.32003 5.02053 0
M  V30 2862 H 295.586 -0.746279 2.94388 0
M  V30 2863 H 293.171 -0.303064 1.46294 0
M  V30 2864 H 295.053 -3.19155 2.7517 0
M  V30 2865 H 293.728 -2.80182 1.62109 0
M  V30 2866 H 292.635 -1.40244 3.46818 0
M  V30 2867 H 293.968 -1.86342 4.55563 0
M  V30 2868 N 295.62 -1.53406 -0.361157 0
M  V30 2869 C 296.868 -1.69467 -1.10115 0
M  V30 2870 C 297.189 -0.451352 -1.89705 0
M  V30 2871 O 296.459 0.534636 -1.88463 0
M  V30 2872 H 295.039 -0.624749 -0.409508 0
M  V30 2873 H 297.701 -1.90609 -0.406699 0
M  V30 2874 H 296.797 -2.55774 -1.78847 0
M  V30 2875 N 297.098 0.621204 -1.44841 0
M  V30 2876 C 298.028 1.74366 -1.55303 0
M  V30 2877 C 299.009 1.65199 -0.405385 0
M  V30 2878 O 300.194 1.83807 -0.626787 0
M  V30 2879 C 297.324 3.12931 -1.50637 0
M  V30 2880 C 296.278 3.36896 -2.63979 0
M  V30 2881 C 295.604 4.75594 -2.44366 0
M  V30 2882 C 296.904 3.28483 -4.06074 0
M  V30 2883 H 298.598 1.65867 -2.49256 0
M  V30 2884 H 296.144 0.796558 -1.19962 0
M  V30 2885 H 298.097 3.9124 -1.56555 0
M  V30 2886 H 296.821 3.22237 -0.532057 0
M  V30 2887 H 295.48 2.60972 -2.57467 0
M  V30 2888 H 295.128 4.81616 -1.45105 0
M  V30 2889 H 294.828 4.92586 -3.20364 0
M  V30 2890 H 296.352 5.5612 -2.52117 0
M  V30 2891 H 297.766 3.96684 -4.13902 0
M  V30 2892 H 296.163 3.57008 -4.82354 0
M  V30 2893 H 297.233 2.26133 -4.28943 0
M  V30 2894 N 298.576 1.31904 0.862503 0
M  V30 2895 C 299.539 1.20131 1.95195 0
M  V30 2896 C 300.539 0.126409 1.60302 0
M  V30 2897 O 301.729 0.376234 1.70089 0
M  V30 2898 C 298.861 0.845691 3.30244 0
M  V30 2899 H 300.054 2.16943 2.07064 0
M  V30 2900 H 297.607 1.15622 1.05172 0
M  V30 2901 H 298.342 -0.120957 3.24074 0
M  V30 2902 H 298.127 1.62276 3.56944 0
M  V30 2903 H 299.617 0.787418 4.10109 0
M  V30 2904 N 300.054 -1.07777 1.14986 0
M  V30 2905 C 301.47 -1.32373 0.891596 0
M  V30 2906 C 301.67 -1.9609 -0.463788 0
M  V30 2907 O 300.726 -2.21801 -1.20667 0
M  V30 2908 C 302.039 -2.21905 2.02925 0
M  V30 2909 C 303.587 -2.35367 2.06329 0
M  V30 2910 C 304.062 -3.28245 3.19405 0
M  V30 2911 N 305.553 -3.35824 3.19024 0
M  V30 2912 C 306.288 -4.07739 4.03158 0
M  V30 2913 N 305.784 -4.82306 4.97346 0
M  V30 2914 N 307.577 -4.03635 3.91197 0
M  V30 2915 H 299.728 -0.648039 2.02273 0
M  V30 2916 H 301.991 -0.348149 0.881757 0
M  V30 2917 H 301.697 -1.82342 3.0074 0
M  V30 2918 H 301.571 -3.22407 1.95789 0
M  V30 2919 H 303.958 -2.74186 1.09116 0
M  V30 2920 H 304.039 -1.34585 2.17533 0
M  V30 2921 H 303.683 -2.90146 4.16867 0
M  V30 2922 H 303.613 -4.28971 3.05437 0
M  V30 2923 H 306.104 -2.8267 2.50811 0
M  V30 2924 H 306.417 -5.34661 5.57994 0
M  V30 2925 H 304.762 -4.81337 5.01338 0
M  V30 2926 H 307.953 -3.44491 3.16928 0
M  V30 2927 H 308.126 -4.59417 4.5699 0
M  V30 2928 N 301.532 -0.945985 -1.26051 0
M  V30 2929 C 302.462 -0.477172 -2.28572 0
M  V30 2930 C 303.443 0.472032 -1.63419 0
M  V30 2931 O 304.628 0.372853 -1.90587 0
M  V30 2932 C 301.758 0.253975 -3.4637 0
M  V30 2933 C 300.712 -0.609135 -4.23643 0
M  V30 2934 C 300.038 0.252252 -5.34105 0
M  V30 2935 C 301.338 -1.8829 -4.8718 0
M  V30 2936 H 303.032 -1.33402 -2.68038 0
M  V30 2937 H 300.578 -0.642904 -1.28852 0
M  V30 2938 H 302.531 0.593016 -4.17207 0
M  V30 2939 H 301.255 1.145 -3.05871 0
M  V30 2940 H 299.914 -0.931138 -3.54578 0
M  V30 2941 H 299.562 1.14278 -4.89846 0
M  V30 2942 H 299.262 -0.32188 -5.86718 0
M  V30 2943 H 300.786 0.586454 -6.07777 0
M  V30 2944 H 302.2 -1.61081 -5.50205 0
M  V30 2945 H 300.597 -2.40199 -5.49931 0
M  V30 2946 H 301.667 -2.59134 -4.09851 0
M  V30 2947 N 303.011 1.40521 -0.713556 0
M  V30 2948 C 303.958 2.30723 -0.059684 0
M  V30 2949 C 304.928 1.48079 0.752448 0
M  V30 2950 O 306.113 1.76823 0.71681 0
M  V30 2951 C 303.253 3.34274 0.857594 0
M  V30 2952 C 302.366 4.31986 0.0351536 0
M  V30 2953 C 301.501 5.22605 0.951724 0
M  V30 2954 C 300.54 6.11976 0.123253 0
M  V30 2955 N 299.677 6.9502 0.99459 0
M  V30 2956 H 304.517 2.86074 -0.834596 0
M  V30 2957 H 302.054 1.40879 -0.42326 0
M  V30 2958 H 304.012 3.92879 1.40364 0
M  V30 2959 H 302.642 2.8043 1.59871 0
M  V30 2960 H 301.694 3.7518 -0.628052 0
M  V30 2961 H 303.006 4.95101 -0.606347 0
M  V30 2962 H 302.16 5.86131 1.56638 0
M  V30 2963 H 300.899 4.59759 1.62705 0
M  V30 2964 H 299.904 5.47482 -0.50435 0
M  V30 2965 H 301.129 6.76881 -0.548539 0
M  V30 2966 H 299.075 6.34764 1.6556 0
M  V30 2967 H 298.992 7.54892 0.40908 0
M  V30 2968 H 300.26 7.62997 1.59549 0
M  V30 2969 N 304.489 0.459591 1.5075 0
M  V30 2970 C 305.738 -0.100971 2.01447 0
M  V30 2971 C 306.051 -1.41816 1.34713 0
M  V30 2972 O 307.257 -2.06299 1.76502 0
M  V30 2973 C 305.713 -0.23047 3.59161 0
M  V30 2974 C 305.321 1.0776 4.34847 0
M  V30 2975 C 307.065 -0.743608 4.17936 0
M  V30 2976 C 304.972 0.91253 5.84317 0
M  V30 2977 H 303.902 -0.0415102 0.752856 0
M  V30 2978 H 306.553 0.592742 1.73663 0
M  V30 2979 H 304.935 -0.987703 3.83485 0
M  V30 2980 H 306.109 1.8449 4.22256 0
M  V30 2981 H 304.424 1.52097 3.87628 0
M  V30 2982 H 307.021 -0.883959 5.27343 0
M  V30 2983 H 307.364 -1.73196 3.78562 0
M  V30 2984 H 307.897 -0.04408 3.97776 0
M  V30 2985 H 304.636 1.87391 6.28144 0
M  V30 2986 H 304.156 0.185422 5.99513 0
M  V30 2987 H 305.835 0.574547 6.44444 0
M  V30 2988 N 305.967 -1.56429 0.191757 0
M  V30 2989 C 307.383 -1.58754 -0.164137 0
M  V30 2990 C 307.583 -1.20782 -1.61288 0
M  V30 2991 O 306.639 -0.928999 -2.34789 0
M  V30 2992 C 307.952 -3.00396 0.135195 0
M  V30 2993 C 309.5 -3.1291 0.0750351 0
M  V30 2994 C 309.975 -4.56679 0.347632 0
M  V30 2995 N 311.466 -4.62252 0.296131 0
M  V30 2996 C 312.201 -5.71379 0.480948 0
M  V30 2997 N 311.697 -6.88986 0.725933 0
M  V30 2998 N 313.49 -5.60563 0.415435 0
M  V30 2999 H 305.641 -1.79393 1.13718 0
M  V30 3000 H 307.904 -0.832414 0.453643 0
M  V30 3001 H 307.61 -3.32726 1.13958 0
M  V30 3002 H 307.484 -3.72963 -0.563773 0
M  V30 3003 H 309.871 -2.80394 -0.919948 0
M  V30 3004 H 309.952 -2.42736 0.807029 0
M  V30 3005 H 309.596 -4.89907 1.33992 0
M  V30 3006 H 309.526 -5.25039 -0.405212 0
M  V30 3007 H 312.017 -3.7773 0.113259 0
M  V30 3008 H 312.33 -7.68046 0.855857 0
M  V30 3009 H 310.675 -6.90801 0.762788 0
M  V30 3010 H 313.866 -4.67561 0.224486 0
M  V30 3011 H 314.039 -6.45551 0.562889 0
M  V30 3012 N 307.445 0.0818655 -1.57387 0
M  V30 3013 C 308.408 1.08265 -2.02018 0
M  V30 3014 C 309.408 1.32183 -0.915664 0
M  V30 3015 O 310.598 1.28073 -1.18081 0
M  V30 3016 C 307.73 2.42871 -2.39221 0
M  V30 3017 H 308.923 0.698204 -2.91659 0
M  V30 3018 H 306.476 0.327303 -1.52835 0
M  V30 3019 H 307.211 2.86167 -1.52575 0
M  V30 3020 H 306.996 2.26855 -3.19811 0
M  V30 3021 H 308.486 3.14826 -2.74362 0
M  V30 3022 N 308.923 1.53595 0.353017 0
M  V30 3023 C 309.853 1.83902 1.43883 0
M  V30 3024 C 310.834 0.693421 1.55324 0
M  V30 3025 O 312.019 0.944452 1.69687 0
M  V30 3026 C 309.149 2.04016 2.8106 0
M  V30 3027 C 308.103 3.19814 2.84434 0
M  V30 3028 C 307.429 3.25244 4.24406 0
M  V30 3029 C 308.729 4.58133 2.50822 0
M  V30 3030 H 310.423 2.74835 1.1877 0
M  V30 3031 H 307.969 1.32242 0.569917 0
M  V30 3032 H 309.922 2.238 3.57059 0
M  V30 3033 H 308.646 1.09804 3.07588 0
M  V30 3034 H 307.305 2.9987 2.10887 0
M  V30 3035 H 306.953 2.28646 4.48029 0
M  V30 3036 H 306.653 4.03054 4.27576 0
M  V30 3037 H 308.177 3.47228 5.0226 0
M  V30 3038 H 309.591 4.77995 3.16534 0
M  V30 3039 H 307.988 5.38276 2.6529 0
M  V30 3040 H 309.058 4.62387 1.46034 0
M  V30 3041 N 310.401 -0.613514 1.45168 0
M  V30 3042 C 311.311 -1.75296 1.55912 0
M  V30 3043 C 312.327 -1.68244 0.443856 0
M  V30 3044 O 313.503 -1.88706 0.70371 0
M  V30 3045 C 310.568 -3.1174 1.5172 0
M  V30 3046 C 309.629 -3.30291 2.74238 0
M  V30 3047 C 308.862 -4.60226 2.70236 0
M  V30 3048 O 309.085 -5.42168 1.77229 0
M  V30 3049 O 308.019 -4.81361 3.61352 0
M  V30 3050 H 311.845 -1.69183 2.52212 0
M  V30 3051 H 309.43 -0.776886 1.27612 0
M  V30 3052 H 311.312 -3.93044 1.51968 0
M  V30 3053 H 309.987 -3.18357 0.585697 0
M  V30 3054 H 308.894 -2.48598 2.79553 0
M  V30 3055 H 310.227 -3.28547 3.66494 0
M  V30 3056 N 311.879 -1.3236 -0.855495 0
M  V30 3057 C 312.826 -1.21225 -1.964 0
M  V30 3058 C 313.796 -0.0946204 -1.6583 0
M  V30 3059 O 314.981 -0.27002 -1.8888 0
M  V30 3060 C 312.121 -0.940419 -3.32039 0
M  V30 3061 C 311.234 -2.14276 -3.75113 0
M  V30 3062 C 310.369 -1.80648 -4.9954 0
M  V30 3063 C 309.408 -2.97208 -5.35102 0
M  V30 3064 N 308.545 -2.63678 -6.50706 0
M  V30 3065 H 313.385 -2.16042 -2.05255 0
M  V30 3066 H 310.922 -1.07451 -1.00463 0
M  V30 3067 H 312.88 -0.763311 -4.10158 0
M  V30 3068 H 311.51 -0.0290413 -3.22787 0
M  V30 3069 H 310.562 -2.43017 -2.92655 0
M  V30 3070 H 311.874 -3.01468 -3.97389 0
M  V30 3071 H 311.028 -1.59484 -5.85363 0
M  V30 3072 H 309.767 -0.906678 -4.79198 0
M  V30 3073 H 308.772 -3.19004 -4.47791 0
M  V30 3074 H 309.997 -3.87918 -5.57401 0
M  V30 3075 H 307.943 -1.76238 -6.31883 0
M  V30 3076 H 307.86 -3.444 -6.72997 0
M  V30 3077 H 309.128 -2.45942 -7.39684 0
M  V30 3078 N 313.357 1.07166 -1.15556 0
M  V30 3079 C 314.287 2.16403 -0.877046 0
M  V30 3080 C 315.268 1.69217 0.173111 0
M  V30 3081 O 316.453 1.94181 0.027084 0
M  V30 3082 C 313.583 3.45349 -0.367632 0
M  V30 3083 C 312.537 4.05995 -1.35468 0
M  V30 3084 C 311.863 5.30045 -0.704038 0
M  V30 3085 C 313.163 4.45804 -2.72132 0
M  V30 3086 H 314.857 2.39959 -1.79053 0
M  V30 3087 H 312.403 1.15325 -0.862331 0
M  V30 3088 H 314.356 4.21095 -0.160317 0
M  V30 3089 H 313.08 3.21385 0.581326 0
M  V30 3090 H 311.739 3.32296 -1.54839 0
M  V30 3091 H 311.387 5.02373 0.251128 0
M  V30 3092 H 311.087 5.71579 -1.36277 0
M  V30 3093 H 312.611 6.08495 -0.50654 0
M  V30 3094 H 314.025 5.12671 -2.56595 0
M  V30 3095 H 312.422 4.98296 -3.34397 0
M  V30 3096 H 313.492 3.57083 -3.28054 0
M  V30 3097 N 314.835 0.952656 1.25548 0
M  V30 3098 C 315.745 0.47782 2.29682 0
M  V30 3099 C 316.761 -0.453859 1.67977 0
M  V30 3100 O 317.937 -0.330587 1.98668 0
M  V30 3101 C 315.002 -0.238655 3.45878 0
M  V30 3102 C 314.063 0.730994 4.23031 0
M  V30 3103 C 313.296 0.0486165 5.33678 0
M  V30 3104 O 313.519 -1.16612 5.58353 0
M  V30 3105 O 312.453 0.733152 5.97418 0
M  V30 3106 H 316.279 1.34312 2.72386 0
M  V30 3107 H 313.864 0.719026 1.30959 0
M  V30 3108 H 315.746 -0.641774 4.16484 0
M  V30 3109 H 314.421 -1.07916 3.05181 0
M  V30 3110 H 313.328 1.18428 3.5486 0
M  V30 3111 H 314.661 1.53946 4.67506 0
M  V30 3112 N 316.313 -1.40141 0.720998 0
M  V30 3113 C 317.559 -2.01084 0.263231 0
M  V30 3114 C 317.892 -1.57052 -1.14229 0
M  V30 3115 O 317.167 -0.793027 -1.77599 0
M  V30 3116 C 317.45 -3.58401 0.349344 0
M  V30 3117 C 317.303 -4.12491 1.79363 0
M  V30 3118 C 318.622 -4.39231 -0.276351 0
M  V30 3119 H 315.741 -0.730572 0.0971228 0
M  V30 3120 H 318.383 -1.66543 0.914518 0
M  V30 3121 H 316.533 -3.87958 -0.205165 0
M  V30 3122 H 318.205 -3.93711 2.40394 0
M  V30 3123 H 316.448 -3.66576 2.31958 0
M  V30 3124 H 317.119 -5.21646 1.80524 0
M  V30 3125 H 319.595 -4.15637 0.196184 0
M  V30 3126 H 318.471 -5.48586 -0.185681 0
M  V30 3127 H 318.732 -4.20643 -1.36059 0
M  V30 3128 N 317.792 -0.46758 -1.50504 0
M  V30 3129 C 319.069 0.15003 -1.95024 0
M  V30 3130 C 319.449 1.57304 -1.40779 0
M  V30 3131 O 318.797 2.20281 -0.607319 0
M  V30 3132 C 319.007 0.0969324 -3.48865 0
M  V30 3133 C 320.355 0.287565 -4.23625 0
M  V30 3134 O 321.379 0.173678 -3.55776 0
M  V30 3135 O 320.238 0.517186 -5.44047 0
M  V30 3136 H 317.332 0.113582 -0.819163 0
M  V30 3137 H 319.878 -0.52773 -1.61286 0
M  V30 3138 H 318.65 -0.896732 -3.80886 0
M  V30 3139 H 318.273 0.816303 -3.8913 0
M  V30 3140 N 319.27 1.56325 -0.20005 0
M  V30 3141 C 320.686 1.58839 0.155716 0
M  V30 3142 C 320.886 1.21636 1.60645 0
M  V30 3143 O 319.942 0.941437 2.34293 0
M  V30 3144 C 321.255 3.0032 -0.151124 0
M  V30 3145 C 322.803 3.12866 -0.0916284 0
M  V30 3146 C 323.278 4.56488 -0.371845 0
M  V30 3147 N 324.769 4.62089 -0.320641 0
M  V30 3148 C 325.504 5.71116 -0.511243 0
M  V30 3149 N 325 6.88592 -0.762461 0
M  V30 3150 N 326.793 5.60335 -0.445157 0
M  V30 3151 H 318.944 1.78788 -1.14668 0
M  V30 3152 H 321.207 0.829996 -0.458051 0
M  V30 3153 H 320.913 3.32117 -1.15721 0
M  V30 3154 H 320.787 3.73257 0.543986 0
M  V30 3155 H 323.174 2.80878 0.905065 0
M  V30 3156 H 323.255 2.42304 -0.81989 0
M  V30 3157 H 322.899 4.89189 -1.36588 0
M  V30 3158 H 322.829 5.25246 0.377362 0
M  V30 3159 H 325.32 3.77665 -0.13329 0
M  V30 3160 H 325.633 7.67581 -0.896576 0
M  V30 3161 H 323.978 6.90387 -0.799412 0
M  V30 3162 H 327.169 4.67436 -0.249278 0
M  V30 3163 H 327.342 6.45243 -0.597116 0
M  V30 3164 N 320.748 -0.0735177 1.57428 0
M  V30 3165 C 322.164 -0.428264 1.53747 0
M  V30 3166 C 322.364 -1.79272 0.91998 0
M  V30 3167 O 321.42 -2.47051 0.521745 0
M  V30 3168 C 322.733 -0.370914 2.98404 0
M  V30 3169 C 324.281 -0.451224 3.0973 0
M  V30 3170 C 324.756 -0.4238 4.56035 0
M  V30 3171 N 326.247 -0.483925 4.60665 0
M  V30 3172 C 326.982 -0.484891 5.71346 0
M  V30 3173 N 326.478 -0.440775 6.91396 0
M  V30 3174 N 328.271 -0.531319 5.59583 0
M  V30 3175 H 320.422 0.819949 1.95935 0
M  V30 3176 H 322.685 0.307493 0.896745 0
M  V30 3177 H 322.391 0.564956 3.47133 0
M  V30 3178 H 322.265 -1.18176 3.5821 0
M  V30 3179 H 324.652 -1.37752 2.60976 0
M  V30 3180 H 324.733 0.388167 2.52838 0
M  V30 3181 H 324.377 0.498638 5.05446 0
M  V30 3182 H 324.307 -1.2807 5.10789 0
M  V30 3183 H 326.798 -0.522338 3.74273 0
M  V30 3184 H 327.111 -0.44539 7.71515 0
M  V30 3185 H 325.456 -0.40749 6.93804 0
M  V30 3186 H 328.647 -0.563464 4.64696 0
M  V30 3187 H 328.82 -0.528603 6.4584 0
M  V30 3188 N 322.226 -1.5378 -0.344866 0
M  V30 3189 C 323.156 -1.84662 -1.42906 0
M  V30 3190 C 324.137 -0.701648 -1.54955 0
M  V30 3191 O 325.322 -0.953438 -1.69184 0
M  V30 3192 C 322.452 -2.05503 -2.79974 0
M  V30 3193 C 321.406 -3.21318 -2.82734 0
M  V30 3194 C 320.732 -3.2749 -4.22675 0
M  V30 3195 C 322.032 -4.59456 -2.48389 0
M  V30 3196 H 323.726 -2.75461 -1.17311 0
M  V30 3197 H 321.272 -1.32542 -0.562896 0
M  V30 3198 H 323.225 -2.25691 -3.55867 0
M  V30 3199 H 321.949 -1.11434 -3.07002 0
M  V30 3200 H 320.608 -3.00984 -2.09294 0
M  V30 3201 H 320.256 -2.31019 -4.4681 0
M  V30 3202 H 319.956 -4.05316 -4.25433 0
M  V30 3203 H 321.48 -3.49887 -5.00412 0
M  V30 3204 H 322.894 -4.79667 -3.13995 0
M  V30 3205 H 321.291 -5.39675 -2.62432 0
M  V30 3206 H 322.361 -4.63155 -1.4358 0
M  V30 3207 N 323.704 0.605807 -1.45491 0
M  V30 3208 C 324.614 1.74466 -1.56839 0
M  V30 3209 C 325.63 1.68006 -0.452772 0
M  V30 3210 O 326.806 1.8833 -0.713708 0
M  V30 3211 C 323.871 3.10931 -1.53371 0
M  V30 3212 C 322.932 3.28832 -2.75986 0
M  V30 3213 C 322.165 4.58787 -2.72673 0
M  V30 3214 O 322.388 5.4122 -1.80102 0
M  V30 3215 O 321.322 4.79438 -3.63899 0
M  V30 3216 H 325.148 1.67843 -2.53106 0
M  V30 3217 H 322.733 0.770108 -1.28022 0
M  V30 3218 H 324.615 3.92233 -1.54051 0
M  V30 3219 H 323.29 3.18042 -0.602572 0
M  V30 3220 H 322.197 2.47112 -2.80867 0
M  V30 3221 H 323.53 3.26599 -3.68231 0
M  V30 3222 N 325.182 1.32811 0.848464 0
M  V30 3223 C 326.598 1.11937 1.13764 0
M  V30 3224 C 326.798 -0.0960789 2.01271 0
M  V30 3225 O 325.854 -0.779165 2.40178 0
M  V30 3226 C 327.167 2.402 1.809 0
M  V30 3227 C 328.715 2.46016 1.93508 0
M  V30 3228 C 329.19 3.74215 2.64059 0
M  V30 3229 N 330.681 3.75232 2.71579 0
M  V30 3230 C 331.416 4.71134 3.26833 0
M  V30 3231 N 330.912 5.77406 3.8285 0
M  V30 3232 N 332.705 4.58623 3.24995 0
M  V30 3233 H 324.856 2.1073 0.265855 0
M  V30 3234 H 327.119 0.930671 0.180431 0
M  V30 3235 H 326.825 3.29093 1.24058 0
M  V30 3236 H 326.699 2.51628 2.81004 0
M  V30 3237 H 329.086 1.57577 2.49506 0
M  V30 3238 H 329.167 2.38536 0.923811 0
M  V30 3239 H 328.811 4.63031 2.08722 0
M  V30 3240 H 328.741 3.78968 3.65637 0
M  V30 3241 H 331.232 2.98423 2.31845 0
M  V30 3242 H 331.545 6.46632 4.23187 0
M  V30 3243 H 329.89 5.81152 3.81165 0
M  V30 3244 H 333.081 3.74762 2.80484 0
M  V30 3245 H 333.254 5.33535 3.67756 0
M  V30 3246 N 326.66 -1.06551 1.16123 0
M  V30 3247 C 327.59 -2.15935 0.88851 0
M  V30 3248 C 328.571 -1.69306 -0.164135 0
M  V30 3249 O 329.756 -1.94193 -0.0167857 0
M  V30 3250 C 326.886 -3.45149 0.385942 0
M  V30 3251 C 325.84 -4.05271 1.3762 0
M  V30 3252 C 325.166 -5.29664 0.732137 0
M  V30 3253 C 326.466 -4.44355 2.74493 0
M  V30 3254 H 328.16 -2.39006 1.80323 0
M  V30 3255 H 325.706 -1.14866 0.868435 0
M  V30 3256 H 327.659 -4.21004 0.182647 0
M  V30 3257 H 326.383 -3.21689 -0.564274 0
M  V30 3258 H 325.042 -3.3147 1.56599 0
M  V30 3259 H 324.69 -5.02499 -0.224483 0
M  V30 3260 H 324.39 -5.70848 1.39307 0
M  V30 3261 H 325.914 -6.08218 0.538802 0
M  V30 3262 H 327.328 -5.11303 2.59311 0
M  V30 3263 H 325.725 -4.96515 3.37035 0
M  V30 3264 H 326.795 -3.55339 3.29943 0
M  V30 3265 N 328.138 -0.959301 -1.25041 0
M  V30 3266 C 329.363 -0.633507 -1.97488 0
M  V30 3267 C 329.788 0.788555 -1.70773 0
M  V30 3268 O 329.146 1.53394 -0.966431 0
M  V30 3269 C 329.194 -0.904057 -3.49083 0
M  V30 3270 O 328.298 0.0147939 -4.12397 0
M  V30 3271 H 327.639 -0.240368 -0.618966 0
M  V30 3272 H 330.169 -1.28717 -1.59038 0
M  V30 3273 H 330.179 -0.832203 -3.99423 0
M  V30 3274 H 328.854 -1.94048 -3.67856 0
M  V30 3275 H 327.431 -0.109664 -3.72739 0
M  V30 3276 N 329.616 1.39756 -0.72842 0
M  V30 3277 C 330.526 2.34444 -0.0855374 0
M  V30 3278 C 331.542 1.57976 0.729356 0
M  V30 3279 O 332.718 1.90301 0.659346 0
M  V30 3280 C 329.783 3.36965 0.815798 0
M  V30 3281 C 328.844 4.29299 -0.0105996 0
M  V30 3282 C 328.077 5.26923 0.84781 0
M  V30 3283 O 328.3 5.30859 2.08673 0
M  V30 3284 O 327.234 6.01249 0.279969 0
M  V30 3285 H 331.06 2.91065 -0.866892 0
M  V30 3286 H 328.645 1.4117 -0.48902 0
M  V30 3287 H 330.527 3.99804 1.33171 0
M  V30 3288 H 329.202 2.82739 1.57608 0
M  V30 3289 H 328.109 3.69703 -0.571877 0
M  V30 3290 H 329.442 4.86712 -0.73295 0
M  V30 3291 N 331.094 0.475555 1.50254 0
M  V30 3292 C 332.004 -0.321501 2.32387 0
M  V30 3293 C 333.02 -0.991755 1.42969 0
M  V30 3294 O 334.196 -0.978747 1.76018 0
M  V30 3295 C 331.261 -1.38667 3.17762 0
M  V30 3296 C 330.322 -0.732538 4.23004 0
M  V30 3297 C 329.555 -1.74695 5.04299 0
M  V30 3298 O 329.778 -2.97399 4.86734 0
M  V30 3299 O 328.712 -1.31631 5.8733 0
M  V30 3300 H 332.538 0.350071 3.01676 0
M  V30 3301 H 330.123 0.237321 1.47503 0
M  V30 3302 H 332.005 -2.00354 3.70724 0
M  V30 3303 H 330.68 -2.04163 2.51196 0
M  V30 3304 H 329.587 -0.0765902 3.74022 0
M  V30 3305 H 330.92 -0.120452 4.92053 0
M  V30 3306 N 332.573 -1.56217 0.208337 0
M  V30 3307 C 333.819 -1.98242 -0.427552 0
M  V30 3308 C 334.152 -1.09554 -1.60348 0
M  V30 3309 O 333.427 -0.15035 -1.93918 0
M  V30 3310 C 333.71 -3.4931 -0.874907 0
M  V30 3311 C 333.563 -4.48773 0.303751 0
M  V30 3312 C 334.882 -4.04424 -1.73577 0
M  V30 3313 H 332.001 -0.720744 -0.153936 0
M  V30 3314 H 334.643 -1.87586 0.30192 0
M  V30 3315 H 332.793 -3.58522 -1.49648 0
M  V30 3316 H 334.465 -4.51586 0.941682 0
M  V30 3317 H 332.708 -4.23194 0.953375 0
M  V30 3318 H 333.379 -5.51976 -0.0519883 0
M  V30 3319 H 335.855 -3.98075 -1.21143 0
M  V30 3320 H 334.731 -5.1047 -2.01771 0
M  V30 3321 H 334.992 -3.50494 -2.69456 0
M  V30 3322 N 334.051 0.0651679 -1.57465 0
M  V30 3323 C 334.961 1.09448 -2.07505 0
M  V30 3324 C 335.977 1.41974 -1.00595 0
M  V30 3325 O 337.153 1.52018 -1.32107 0
M  V30 3326 C 334.218 2.38689 -2.51453 0
M  V30 3327 C 333.279 2.13073 -3.72691 0
M  V30 3328 C 332.512 3.36152 -4.14533 0
M  V30 3329 O 332.735 4.45517 -3.56189 0
M  V30 3330 O 331.669 3.23974 -5.07272 0
M  V30 3331 H 335.495 0.69935 -2.95538 0
M  V30 3332 H 333.08 0.279752 -1.46757 0
M  V30 3333 H 334.962 3.14736 -2.80212 0
M  V30 3334 H 333.637 2.77568 -1.66546 0
M  V30 3335 H 332.544 1.34709 -3.49005 0
M  V30 3336 H 333.877 1.79071 -4.5847 0
M  V30 3337 N 335.529 1.53961 0.336706 0
M  V30 3338 C 336.461 1.78751 1.4346 0
M  V30 3339 C 337.474 0.669019 1.48418 0
M  V30 3340 O 338.663 0.945884 1.51378 0
M  V30 3341 C 335.763 1.87844 2.82078 0
M  V30 3342 C 334.936 3.17854 3.00479 0
M  V30 3343 C 333.995 3.17816 4.19379 0
M  V30 3344 O 333.021 3.91511 4.13168 0
M  V30 3345 N 334.223 2.40669 5.2826 0
M  V30 3346 H 336.988 2.73493 1.22563 0
M  V30 3347 H 334.549 1.53096 0.526625 0
M  V30 3348 H 336.541 1.85261 3.59806 0
M  V30 3349 H 335.111 1.00257 2.96086 0
M  V30 3350 H 334.331 3.33504 2.10163 0
M  V30 3351 H 335.619 4.03718 3.0966 0
M  V30 3352 H 335.017 1.8036 5.36178 0
M  V30 3353 H 333.574 2.43877 6.04456 0
M  V30 3354 N 337.007 -0.598083 1.45811 0
M  V30 3355 C 337.954 -1.7082 1.55207 0
M  V30 3356 C 338.924 -1.61278 0.39732 0
M  V30 3357 O 340.109 -1.80717 0.612038 0
M  V30 3358 C 337.249 -3.09144 1.53376 0
M  V30 3359 C 336.362 -3.29423 2.79472 0
M  V30 3360 C 335.497 -4.57907 2.69248 0
M  V30 3361 C 334.536 -4.71476 3.90354 0
M  V30 3362 N 333.673 -5.9127 3.78608 0
M  V30 3363 H 338.513 -1.62125 2.50039 0
M  V30 3364 H 336.05 -0.790389 1.24062 0
M  V30 3365 H 338.008 -3.89186 1.50301 0
M  V30 3366 H 336.638 -3.16773 0.620876 0
M  V30 3367 H 335.69 -2.43091 2.92594 0
M  V30 3368 H 337.002 -3.3532 3.69272 0
M  V30 3369 H 336.156 -5.46157 2.64192 0
M  V30 3370 H 334.895 -4.54423 1.77063 0
M  V30 3371 H 333.9 -3.81648 3.95759 0
M  V30 3372 H 335.125 -4.76751 4.83617 0
M  V30 3373 H 333.071 -5.88813 2.89199 0
M  V30 3374 H 332.988 -5.98369 4.6205 0
M  V30 3375 H 334.256 -6.81992 3.77501 0
M  V30 3376 N 338.485 -1.33259 -0.841409 0
M  V30 3377 C 339.734 -1.23921 -1.59143 0
M  V30 3378 C 340.047 0.1941 -1.94635 0
M  V30 3379 O 341.253 0.409474 -2.68394 0
M  V30 3380 C 339.709 -2.17119 -2.87032 0
M  V30 3381 C 339.317 -3.65606 -2.58914 0
M  V30 3382 C 341.061 -2.16648 -3.65053 0
M  V30 3383 C 338.968 -4.50726 -3.82884 0
M  V30 3384 H 337.898 -0.460264 -0.597221 0
M  V30 3385 H 340.549 -1.58307 -0.927959 0
M  V30 3386 H 338.931 -1.75663 -3.54906 0
M  V30 3387 H 340.105 -4.15487 -1.99267 0
M  V30 3388 H 338.42 -3.68341 -1.942 0
M  V30 3389 H 341.017 -2.77474 -4.57069 0
M  V30 3390 H 341.36 -1.16088 -3.99787 0
M  V30 3391 H 341.893 -2.56453 -3.041 0
M  V30 3392 H 338.632 -5.52151 -3.53283 0
M  V30 3393 H 338.152 -4.0559 -4.41879 0
M  V30 3394 H 339.831 -4.64401 -4.50489 0
M  V30 3395 N 339.963 1.05934 -1.16686 0
M  V30 3396 C 340.926 2.11669 -0.879144 0
M  V30 3397 C 341.926 1.60294 0.127445 0
M  V30 3398 O 343.116 1.7389 -0.103865 0
M  V30 3399 C 340.248 3.39438 -0.315425 0
M  V30 3400 H 341.441 2.38626 -1.81653 0
M  V30 3401 H 338.994 1.22058 -0.976299 0
M  V30 3402 H 339.729 3.18132 0.629468 0
M  V30 3403 H 339.514 3.78034 -1.04079 0
M  V30 3404 H 341.004 4.17391 -0.132189 0
M  V30 3405 N 341.441 0.965919 1.2453 0
M  V30 3406 C 342.689 0.625593 1.92174 0
M  V30 3407 C 343.01 -0.841652 1.75901 0
M  V30 3408 O 342.28 -1.60061 1.12948 0
M  V30 3409 H 340.86 0.228388 0.71123 0
M  V30 3410 H 343.522 1.2266 1.51461 0
M  V30 3411 H 342.618 0.864653 2.99884 0
M  V30 3412 N 342.919 -1.39368 0.735821 0
M  V30 3413 C 343.851 -2.2913 0.0567723 0
M  V30 3414 C 344.864 -1.46859 -0.702589 0
M  V30 3415 O 346.053 -1.69925 -0.546616 0
M  V30 3416 C 343.153 -3.25492 -0.943823 0
M  V30 3417 C 342.326 -4.36709 -0.24581 0
M  V30 3418 C 341.385 -5.13376 -1.15463 0
M  V30 3419 O 340.411 -5.65683 -0.631803 0
M  V30 3420 N 341.613 -5.24656 -2.48427 0
M  V30 3421 H 344.378 -2.88047 0.827582 0
M  V30 3422 H 341.939 -1.50957 0.585112 0
M  V30 3423 H 343.931 -3.73657 -1.55443 0
M  V30 3424 H 342.501 -2.676 -1.61583 0
M  V30 3425 H 341.721 -3.9041 0.545286 0
M  V30 3426 H 343.009 -5.08244 0.237891 0
M  V30 3427 H 342.407 -4.83679 -2.93379 0
M  V30 3428 H 340.964 -5.76258 -3.04582 0
M  V30 3429 N 344.397 -0.483516 -1.5 0
M  V30 3430 C 345.643 0.0672592 -2.02688 0
M  V30 3431 C 345.976 1.38247 -1.36387 0
M  V30 3432 O 345.251 1.88131 -0.493675 0
M  V30 3433 C 345.534 0.238109 -3.59312 0
M  V30 3434 C 345.387 -1.099 -4.36168 0
M  V30 3435 C 346.706 0.986916 -4.28892 0
M  V30 3436 H 343.825 0.0229696 -0.736642 0
M  V30 3437 H 346.467 -0.631527 -1.79197 0
M  V30 3438 H 344.617 0.8333 -3.79458 0
M  V30 3439 H 346.289 -1.73172 -4.27562 0
M  V30 3440 H 344.532 -1.69261 -3.99416 0
M  V30 3441 H 345.203 -0.932954 -5.44059 0
M  V30 3442 H 347.679 0.482302 -4.13295 0
M  V30 3443 H 346.555 1.07527 -5.38265 0
M  V30 3444 H 346.816 2.0265 -3.92919 0
M  V30 3445 N 345.875 1.56104 -0.216619 0
M  V30 3446 C 347.123 1.97781 0.415593 0
M  V30 3447 C 347.444 1.10536 1.60645 0
M  V30 3448 O 346.714 0.181303 1.95059 0
M  V30 3449 H 345.294 0.730415 0.156534 0
M  V30 3450 H 347.956 1.92445 -0.308366 0
M  V30 3451 H 347.052 3.03072 0.74525 0
M  V30 3452 N 347.353 -0.0568162 1.57498 0
M  V30 3453 C 348.769 -0.411933 1.54192 0
M  V30 3454 C 348.969 -1.78287 0.938942 0
M  V30 3455 O 348.025 -2.46483 0.547919 0
M  V30 3456 C 349.338 -0.339244 2.9878 0
M  V30 3457 C 350.886 -0.418348 3.10192 0
M  V30 3458 C 351.361 -0.375407 4.56459 0
M  V30 3459 N 352.852 -0.435038 4.61153 0
M  V30 3460 C 353.587 -0.424265 5.71828 0
M  V30 3461 N 353.083 -0.367418 6.91825 0
M  V30 3462 N 354.876 -0.471938 5.60115 0
M  V30 3463 H 347.027 0.840684 1.95055 0
M  V30 3464 H 349.29 0.316987 0.893433 0
M  V30 3465 H 348.996 0.601742 3.46514 0
M  V30 3466 H 348.87 -1.14371 3.59443 0
M  V30 3467 H 351.257 -1.34976 2.62422 0
M  V30 3468 H 351.338 0.414962 2.52412 0
M  V30 3469 H 350.982 0.552219 5.04889 0
M  V30 3470 H 350.912 -1.22645 5.12119 0
M  V30 3471 H 353.403 -0.482612 3.74806 0
M  V30 3472 H 353.716 -0.363535 7.71944 0
M  V30 3473 H 352.061 -0.333879 6.94198 0
M  V30 3474 H 355.252 -0.514145 4.65268 0
M  V30 3475 H 355.425 -0.460073 6.46365 0
M  V30 3476 N 348.832 -1.54138 -0.328536 0
M  V30 3477 C 349.762 -1.86167 -1.40939 0
M  V30 3478 C 350.743 -0.718044 -1.54202 0
M  V30 3479 O 351.928 -0.971328 -1.68163 0
M  V30 3480 C 349.058 -2.08461 -2.77779 0
M  V30 3481 C 348.012 -3.24299 -2.7931 0
M  V30 3482 C 347.338 -3.31955 -4.19178 0
M  V30 3483 C 348.638 -4.62065 -2.43502 0
M  V30 3484 H 350.332 -2.76689 -1.14383 0
M  V30 3485 H 347.878 -1.33132 -0.548806 0
M  V30 3486 H 349.831 -2.29453 -3.53454 0
M  V30 3487 H 348.555 -1.14684 -3.05802 0
M  V30 3488 H 347.214 -3.03187 -2.0609 0
M  V30 3489 H 346.862 -2.35745 -4.44335 0
M  V30 3490 H 346.562 -4.09805 -4.2111 0
M  V30 3491 H 348.086 -3.55175 -4.96672 0
M  V30 3492 H 349.5 -4.8297 -3.08889 0
M  V30 3493 H 347.897 -5.42429 -2.56693 0
M  V30 3494 H 348.967 -4.64652 -1.38659 0
M  V30 3495 N 350.31 0.590341 -1.46126 0
M  V30 3496 C 351.242 1.71427 -1.52136 0
M  V30 3497 C 352.255 1.57542 -0.41042 0
M  V30 3498 O 353.444 1.65106 -0.678389 0
M  V30 3499 C 350.544 3.09605 -1.37834 0
M  V30 3500 C 349.717 3.49566 -2.62912 0
M  V30 3501 C 348.776 4.66773 -2.42918 0
M  V30 3502 O 347.802 4.73019 -3.1661 0
M  V30 3503 N 349.004 5.61161 -1.4859 0
M  V30 3504 H 351.769 1.66728 -2.49042 0
M  V30 3505 H 349.33 0.776113 -1.42085 0
M  V30 3506 H 351.322 3.85796 -1.22243 0
M  V30 3507 H 349.892 3.08714 -0.491393 0
M  V30 3508 H 349.112 2.63158 -2.93499 0
M  V30 3509 H 350.4 3.73028 -3.46017 0
M  V30 3510 H 349.798 5.58844 -0.87808 0
M  V30 3511 H 348.355 6.36814 -1.38965 0
M  V30 3512 N 351.788 1.33704 0.83433 0
M  V30 3513 C 352.751 1.24244 1.92603 0
M  V30 3514 C 353.751 0.160383 1.59998 0
M  V30 3515 O 354.941 0.412228 1.69252 0
M  V30 3516 C 352.073 0.91555 3.28376 0
M  V30 3517 H 353.266 2.21287 2.02416 0
M  V30 3518 H 350.819 1.17827 1.02696 0
M  V30 3519 H 351.554 -0.0521886 3.24258 0
M  V30 3520 H 351.339 1.69811 3.53422 0
M  V30 3521 H 352.829 0.874231 4.08347 0
M  V30 3522 N 353.266 -1.05314 1.17247 0
M  V30 3523 C 354.176 -2.16538 0.90268 0
M  V30 3524 C 355.192 -1.73523 -0.128707 0
M  V30 3525 O 356.368 -2.01337 0.0502701 0
M  V30 3526 C 353.433 -3.44167 0.418356 0
M  V30 3527 C 352.494 -4.01635 1.51618 0
M  V30 3528 C 351.727 -5.23171 1.05487 0
M  V30 3529 O 351.95 -5.70327 -0.0914715 0
M  V30 3530 O 350.884 -5.72848 1.8474 0
M  V30 3531 H 354.71 -2.42145 1.83302 0
M  V30 3532 H 352.295 -1.15037 0.953246 0
M  V30 3533 H 354.177 -4.21112 0.155726 0
M  V30 3534 H 352.852 -3.20063 -0.48385 0
M  V30 3535 H 351.759 -3.26135 1.83268 0
M  V30 3536 H 353.092 -4.30053 2.39405 0
M  V30 3537 N 354.744 -0.972509 -1.24016 0
M  V30 3538 C 355.674 -0.525548 -2.27509 0
M  V30 3539 C 356.655 0.437262 -1.64384 0
M  V30 3540 O 357.84 0.332343 -1.91335 0
M  V30 3541 C 354.97 0.180448 -3.46831 0
M  V30 3542 C 353.924 -0.698859 -4.22256 0
M  V30 3543 C 353.25 0.138903 -5.3452 0
M  V30 3544 C 354.55 -1.98582 -4.83076 0
M  V30 3545 H 356.244 -1.39058 -2.65148 0
M  V30 3546 H 353.79 -0.67009 -1.27459 0
M  V30 3547 H 355.743 0.504387 -4.18371 0
M  V30 3548 H 354.467 1.07987 -3.08231 0
M  V30 3549 H 353.126 -1.00614 -3.52523 0
M  V30 3550 H 352.774 1.03862 -4.9216 0
M  V30 3551 H 352.474 -0.446259 -5.85903 0
M  V30 3552 H 353.998 0.457404 -6.08884 0
M  V30 3553 H 355.412 -1.72715 -5.46665 0
M  V30 3554 H 353.809 -2.5181 -5.44713 0
M  V30 3555 H 354.879 -2.67769 -4.04262 0
M  V30 3556 N 356.222 1.38976 -0.743202 0
M  V30 3557 C 357.132 2.3434 -0.110399 0
M  V30 3558 C 358.148 1.58741 0.712559 0
M  V30 3559 O 359.324 1.9099 0.639125 0
M  V30 3560 C 356.389 3.37812 0.780012 0
M  V30 3561 C 355.45 4.29263 -0.0561319 0
M  V30 3562 C 354.683 5.27793 0.791875 0
M  V30 3563 O 354.906 5.33043 2.03031 0
M  V30 3564 O 353.84 6.01512 0.216183 0
M  V30 3565 H 357.666 2.90129 -0.897714 0
M  V30 3566 H 355.251 1.40643 -0.503966 0
M  V30 3567 H 357.133 4.01194 1.28923 0
M  V30 3568 H 355.808 2.84395 1.546 0
M  V30 3569 H 354.715 3.69076 -0.611056 0
M  V30 3570 H 356.048 4.85907 -0.784531 0
M  V30 3571 N 357.7 0.491464 1.49741 0
M  V30 3572 C 359.116 0.146835 1.58923 0
M  V30 3573 C 359.316 -1.34804 1.49767 0
M  V30 3574 O 358.372 -2.12317 1.36667 0
M  V30 3575 C 359.685 0.715157 2.92072 0
M  V30 3576 C 361.233 0.680407 3.05515 0
M  V30 3577 C 361.708 1.22663 4.41269 0
M  V30 3578 N 363.199 1.18691 4.47735 0
M  V30 3579 C 363.934 1.57984 5.51207 0
M  V30 3580 N 363.43 2.04824 6.6183 0
M  V30 3581 N 365.223 1.49459 5.41866 0
M  V30 3582 H 357.374 1.46347 1.53936 0
M  V30 3583 H 359.637 0.606453 0.728642 0
M  V30 3584 H 359.343 1.76317 3.04311 0
M  V30 3585 H 359.217 0.17018 3.76816 0
M  V30 3586 H 361.604 -0.358743 2.92911 0
M  V30 3587 H 361.685 1.26242 2.22478 0
M  V30 3588 H 361.329 2.26451 4.54623 0
M  V30 3589 H 361.259 0.620637 5.2293 0
M  V30 3590 H 363.75 0.843605 3.68364 0
M  V30 3591 H 364.063 2.32901 7.3687 0
M  V30 3592 H 362.408 2.08791 6.62896 0
M  V30 3593 H 365.599 1.12692 4.54333 0
M  V30 3594 H 365.772 1.80406 6.22381 0
M  V30 3595 N 359.178 -1.55987 0.224894 0
M  V30 3596 C 360.125 -2.20436 -0.68385 0
M  V30 3597 C 361.095 -1.16102 -1.18783 0
M  V30 3598 O 362.28 -1.4447 -1.24632 0
M  V30 3599 C 359.42 -2.89076 -1.88491 0
M  V30 3600 C 358.533 -4.08012 -1.41951 0
M  V30 3601 C 357.668 -4.64426 -2.5784 0
M  V30 3602 C 356.707 -5.75656 -2.08053 0
M  V30 3603 N 355.844 -6.26347 -3.17227 0
M  V30 3604 H 360.684 -2.97727 -0.12754 0
M  V30 3605 H 358.221 -1.47011 -0.0511978 0
M  V30 3606 H 360.179 -3.27059 -2.59014 0
M  V30 3607 H 358.809 -2.14298 -2.41405 0
M  V30 3608 H 357.861 -3.75492 -0.609095 0
M  V30 3609 H 359.173 -4.88375 -1.01447 0
M  V30 3610 H 358.327 -5.04869 -3.3644 0
M  V30 3611 H 357.066 -3.83233 -3.01635 0
M  V30 3612 H 356.071 -5.34712 -1.27916 0
M  V30 3613 H 357.296 -6.58686 -1.65255 0
M  V30 3614 H 355.242 -5.48067 -3.60497 0
M  V30 3615 H 355.159 -7.01843 -2.80986 0
M  V30 3616 H 356.427 -6.71447 -3.95953 0
M  V30 3617 N 360.656 0.0484629 -1.57525 0
M  V30 3618 C 361.619 1.03956 -2.04269 0
M  V30 3619 C 362.619 1.30211 -0.943496 0
M  V30 3620 O 363.809 1.25539 -1.20771 0
M  V30 3621 C 360.941 2.37742 -2.44319 0
M  V30 3622 H 362.134 0.636182 -2.93075 0
M  V30 3623 H 359.687 0.294811 -1.53494 0
M  V30 3624 H 360.422 2.82866 -1.5861 0
M  V30 3625 H 360.207 2.20021 -3.24551 0
M  V30 3626 H 361.697 3.08936 -2.80978 0
M  V30 3627 N 362.134 1.5431 0.320358 0
M  V30 3628 C 363.097 1.83195 1.3774 0
M  V30 3629 C 364.097 0.703906 1.44575 0
M  V30 3630 O 365.287 0.972214 1.44546 0
M  V30 3631 C 362.419 1.99487 2.76438 0
M  V30 3632 H 363.612 2.77642 1.1338 0
M  V30 3633 H 361.165 1.46076 0.556012 0
M  V30 3634 H 361.9 1.07262 3.06048 0
M  V30 3635 H 361.685 2.81575 2.7287 0
M  V30 3636 H 363.175 2.23271 3.52902 0
M  V30 3637 N 363.613 -0.582584 1.46437 0
M  V30 3638 C 364.523 -1.71949 1.59595 0
M  V30 3639 C 365.539 -1.67264 0.479443 0
M  V30 3640 O 366.715 -1.87171 0.743579 0
M  V30 3641 C 363.78 -3.08452 1.58298 0
M  V30 3642 C 362.841 -3.244 2.81182 0
M  V30 3643 C 362.074 -4.54391 2.79937 0
M  V30 3644 O 362.297 -5.38287 1.8869 0
M  V30 3645 O 361.231 -4.73588 3.71481 0
M  V30 3646 H 365.057 -1.63795 2.55744 0
M  V30 3647 H 362.642 -0.749643 1.29231 0
M  V30 3648 H 364.524 -3.89732 1.60271 0
M  V30 3649 H 363.199 -3.17043 0.653094 0
M  V30 3650 H 362.106 -2.42613 2.84763 0
M  V30 3651 H 363.439 -3.20699 3.7338 0
M  V30 3652 N 365.091 -1.34144 -0.827227 0
M  V30 3653 C 366.021 -1.28005 -1.95287 0
M  V30 3654 C 367.002 -0.158321 -1.69362 0
M  V30 3655 O 368.187 -0.349987 -1.9102 0
M  V30 3656 C 365.317 -1.03036 -3.31664 0
M  V30 3657 C 364.271 -2.11628 -3.72019 0
M  V30 3658 C 363.597 -1.71854 -5.0633 0
M  V30 3659 C 364.897 -3.53417 -3.8457 0
M  V30 3660 H 366.591 -2.22187 -2.00682 0
M  V30 3661 H 364.137 -1.0696 -0.964135 0
M  V30 3662 H 366.09 -0.973863 -4.09993 0
M  V30 3663 H 364.814 -0.0529391 -3.26557 0
M  V30 3664 H 363.473 -2.16339 -2.95961 0
M  V30 3665 H 363.121 -0.727841 -4.97706 0
M  V30 3666 H 362.821 -2.44531 -5.34302 0
M  V30 3667 H 364.345 -1.67692 -5.87122 0
M  V30 3668 H 365.759 -3.51142 -4.5318 0
M  V30 3669 H 364.156 -4.24679 -4.2399 0
M  V30 3670 H 365.226 -3.91072 -2.86689 0
M  V30 3671 N 366.569 1.04691 -1.17803 0
M  V30 3672 C 367.479 2.16057 -0.914151 0
M  V30 3673 C 368.495 1.73589 0.119503 0
M  V30 3674 O 369.671 2.01308 -0.0609468 0
M  V30 3675 C 366.736 3.4394 -0.436603 0
M  V30 3676 C 365.797 4.00825 -1.53746 0
M  V30 3677 C 365.03 5.22604 -1.0826 0
M  V30 3678 O 365.253 5.70367 0.0612244 0
M  V30 3679 O 364.187 5.7186 -1.87775 0
M  V30 3680 H 368.013 2.41169 -1.84584 0
M  V30 3681 H 365.598 1.1453 -0.959334 0
M  V30 3682 H 367.48 4.21024 -0.178057 0
M  V30 3683 H 366.155 3.20316 0.466869 0
M  V30 3684 H 365.062 3.25158 -1.84995 0
M  V30 3685 H 366.395 4.28778 -2.41683 0
M  V30 3686 N 368.047 0.979072 1.23499 0
M  V30 3687 C 369.275 0.665202 1.95915 0
M  V30 3688 C 369.69 -0.767571 1.72493 0
M  V30 3689 O 369.047 -1.51635 1.01554 0
M  V30 3690 C 369.098 0.944438 3.48945 0
M  V30 3691 O 368.819 2.3209 3.71572 0
M  V30 3692 C 370.32 0.646336 4.38563 0
M  V30 3693 H 367.54 0.247218 0.623798 0
M  V30 3694 H 370.084 1.31009 1.57025 0
M  V30 3695 H 368.239 0.345575 3.85856 0
M  V30 3696 H 368.653 2.40957 4.65876 0
M  V30 3697 H 370.127 0.892091 5.44744 0
M  V30 3698 H 370.604 -0.419575 4.37191 0
M  V30 3699 H 371.21 1.22562 4.07258 0
M  V30 3700 N 369.525 -1.3858 0.750561 0
M  V30 3701 C 370.488 -2.28836 0.129152 0
M  V30 3702 C 371.488 -1.47045 -0.650714 0
M  V30 3703 O 372.678 -1.6753 -0.477428 0
M  V30 3704 C 369.81 -3.30751 -0.825622 0
M  V30 3705 H 371.003 -2.85294 0.924516 0
M  V30 3706 H 368.556 -1.47489 0.517376 0
M  V30 3707 H 369.291 -2.79378 -1.64677 0
M  V30 3708 H 369.076 -3.91177 -0.268852 0
M  V30 3709 H 370.566 -3.98249 -1.2565 0
M  V30 3710 N 371.003 -0.499398 -1.49478 0
M  V30 3711 C 372.419 -0.155261 -1.58843 0
M  V30 3712 C 372.619 1.34008 -1.50479 0
M  V30 3713 O 371.675 2.11589 -1.37791 0
M  V30 3714 C 372.988 -0.730636 -2.91689 0
M  V30 3715 C 374.536 -0.696599 -3.0515 0
M  V30 3716 C 375.011 -1.25001 -4.40612 0
M  V30 3717 N 376.502 -1.21064 -4.47099 0
M  V30 3718 C 377.237 -1.60905 -5.50361 0
M  V30 3719 N 376.733 -2.08331 -6.60735 0
M  V30 3720 N 378.526 -1.52331 -5.41065 0
M  V30 3721 H 370.677 -1.47162 -1.53158 0
M  V30 3722 H 372.94 -0.610309 -0.725415 0
M  V30 3723 H 372.646 -1.77928 -3.03372 0
M  V30 3724 H 372.52 -0.190161 -3.7672 0
M  V30 3725 H 374.907 0.343204 -2.93097 0
M  V30 3726 H 374.988 -1.2742 -2.21806 0
M  V30 3727 H 374.632 -2.28859 -4.53416 0
M  V30 3728 H 374.562 -0.64836 -5.22593 0
M  V30 3729 H 377.053 -0.863128 -3.67911 0
M  V30 3730 H 377.366 -2.36805 -7.35624 0
M  V30 3731 H 375.711 -2.12304 -6.6178 0
M  V30 3732 H 378.902 -1.151 -4.53729 0
M  V30 3733 H 379.075 -1.83704 -6.21415 0
M  V30 3734 N 372.481 1.55866 -0.233164 0
M  V30 3735 C 373.413 2.18099 0.704668 0
M  V30 3736 C 374.426 1.15334 1.14899 0
M  V30 3737 O 375.615 1.42262 1.07814 0
M  V30 3738 C 372.715 2.7592 1.96777 0
M  V30 3739 C 371.888 4.03969 1.67713 0
M  V30 3740 C 370.947 4.46242 2.78845 0
M  V30 3741 O 369.973 5.12903 2.46818 0
M  V30 3742 N 371.175 4.12886 4.08051 0
M  V30 3743 H 373.94 2.99205 0.172258 0
M  V30 3744 H 371.501 1.61815 -0.0525945 0
M  V30 3745 H 373.493 3.01165 2.70337 0
M  V30 3746 H 372.063 1.99051 2.41034 0
M  V30 3747 H 371.283 3.86459 0.777391 0
M  V30 3748 H 372.571 4.8748 1.4574 0
M  V30 3749 H 371.969 3.59342 4.3691 0
M  V30 3750 H 370.526 4.42997 4.78118 0
M  V30 3751 N 373.959 -0.0401083 1.57549 0
M  V30 3752 C 374.869 -1.06133 2.0922 0
M  V30 3753 C 375.885 -1.40356 1.0284 0
M  V30 3754 O 377.061 -1.49897 1.34509 0
M  V30 3755 C 374.126 -2.34658 2.55218 0
M  V30 3756 C 373.187 -2.07117 3.76033 0
M  V30 3757 C 372.42 -3.29514 4.19829 0
M  V30 3758 O 372.643 -4.39794 3.63232 0
M  V30 3759 O 371.577 -3.15863 5.12362 0
M  V30 3760 H 375.403 -0.652244 2.96613 0
M  V30 3761 H 372.988 -0.256368 1.47184 0
M  V30 3762 H 374.87 -3.10239 2.85184 0
M  V30 3763 H 373.545 -2.74883 1.70941 0
M  V30 3764 H 372.452 -1.29139 3.51104 0
M  V30 3765 H 373.785 -1.71754 4.61261 0
M  V30 3766 N 375.437 -1.54477 -0.31217 0
M  V30 3767 C 376.662 -1.77526 -1.07235 0
M  V30 3768 C 377.087 -0.527775 -1.80544 0
M  V30 3769 O 376.445 0.52121 -1.73646 0
M  V30 3770 C 376.493 -2.97535 -2.03728 0
M  V30 3771 O 375.597 -2.69878 -3.11833 0
M  V30 3772 H 374.938 -0.58792 -0.30862 0
M  V30 3773 H 377.468 -2.01532 -0.352993 0
M  V30 3774 H 377.478 -3.25198 -2.46395 0
M  V30 3775 H 376.153 -3.87996 -1.49774 0
M  V30 3776 H 374.73 -2.53199 -2.7376 0
M  V30 3777 N 376.915 0.57481 -1.46744 0
M  V30 3778 C 377.878 1.66533 -1.57478 0
M  V30 3779 C 378.878 1.54338 -0.451263 0
M  V30 3780 O 380.068 1.58814 -0.715813 0
M  V30 3781 C 377.2 3.05999 -1.50259 0
M  V30 3782 H 378.393 1.58372 -2.54673 0
M  V30 3783 H 375.946 0.793301 -1.34672 0
M  V30 3784 H 376.681 3.19709 -0.543725 0
M  V30 3785 H 376.466 3.16259 -2.31781 0
M  V30 3786 H 377.956 3.8537 -1.60872 0
M  V30 3787 N 378.394 1.34581 0.820102 0
M  V30 3788 C 379.81 1.14325 1.11364 0
M  V30 3789 C 380.01 -0.0533648 2.01429 0
M  V30 3790 O 379.066 -0.728044 2.41776 0
M  V30 3791 C 380.379 2.43983 1.75764 0
M  V30 3792 C 381.927 2.50065 1.88246 0
M  V30 3793 C 382.402 3.79732 2.56061 0
M  V30 3794 N 383.893 3.80908 2.63558 0
M  V30 3795 C 384.628 4.77961 3.16766 0
M  V30 3796 N 384.124 5.85397 3.70517 0
M  V30 3797 N 385.917 4.65413 3.15194 0
M  V30 3798 H 378.068 2.11246 0.221096 0
M  V30 3799 H 380.331 0.934289 0.160649 0
M  V30 3800 H 380.037 3.31651 1.1705 0
M  V30 3801 H 379.911 2.57531 2.75604 0
M  V30 3802 H 382.298 1.62834 2.46108 0
M  V30 3803 H 382.379 2.40442 0.873006 0
M  V30 3804 H 382.023 4.67354 1.98853 0
M  V30 3805 H 381.953 3.86639 3.57516 0
M  V30 3806 H 384.444 3.03274 2.25463 0
M  V30 3807 H 384.757 6.55463 4.09376 0
M  V30 3808 H 383.102 5.89107 3.68752 0
M  V30 3809 H 386.293 3.80627 2.72471 0
M  V30 3810 H 386.466 5.41216 3.56356 0
M  V30 3811 N 379.872 -1.04064 1.18357 0
M  V30 3812 C 380.802 -2.14001 0.934113 0
M  V30 3813 C 381.783 -1.69616 -0.128186 0
M  V30 3814 O 382.968 -1.94185 0.0244093 0
M  V30 3815 C 380.098 -3.44253 0.459066 0
M  V30 3816 C 379.052 -4.02261 1.46185 0
M  V30 3817 C 378.378 -5.27992 0.844322 0
M  V30 3818 C 379.678 -4.38432 2.83856 0
M  V30 3819 H 381.372 -2.35127 1.85352 0
M  V30 3820 H 378.918 -1.12998 0.892604 0
M  V30 3821 H 380.871 -4.20522 0.271907 0
M  V30 3822 H 379.595 -3.22813 -0.495912 0
M  V30 3823 H 378.254 -3.28074 1.63595 0
M  V30 3824 H 377.902 -5.02862 -0.117845 0
M  V30 3825 H 377.602 -5.67765 1.51384 0
M  V30 3826 H 379.126 -6.06938 0.667693 0
M  V30 3827 H 380.54 -5.05688 2.70098 0
M  V30 3828 H 378.937 -4.89254 3.47491 0
M  V30 3829 H 380.007 -3.4826 3.37406 0
M  V30 3830 N 381.35 -0.985608 -1.22978 0
M  V30 3831 C 382.598 -0.656087 -1.91154 0
M  V30 3832 C 382.919 0.813561 -1.77218 0
M  V30 3833 O 382.189 1.58244 -1.1548 0
M  V30 3834 H 380.769 -0.239674 -0.707506 0
M  V30 3835 H 383.431 -1.25054 -1.49491 0
M  V30 3836 H 382.527 -0.912253 -2.9847 0
M  V30 3837 N 382.828 1.3818 -0.7579 0
M  V30 3838 C 384.244 1.5353 -0.435972 0
M  V30 3839 C 384.444 1.71961 1.05032 0
M  V30 3840 O 383.5 1.73307 1.83633 0
M  V30 3841 C 384.813 2.73989 -1.23898 0
M  V30 3842 C 386.361 2.87841 -1.22949 0
M  V30 3843 C 386.836 4.11266 -2.01554 0
M  V30 3844 N 388.327 4.18352 -1.98837 0
M  V30 3845 C 389.062 5.12856 -2.5645 0
M  V30 3846 N 388.558 6.13005 -3.22794 0
M  V30 3847 N 390.351 5.05238 -2.46356 0
M  V30 3848 H 382.502 1.24467 -1.7211 0
M  V30 3849 H 384.765 0.604982 -0.729864 0
M  V30 3850 H 384.471 2.66789 -2.29165 0
M  V30 3851 H 384.345 3.67294 -0.858764 0
M  V30 3852 H 386.732 2.9452 -0.184854 0
M  V30 3853 H 386.813 1.95534 -1.64924 0
M  V30 3854 H 386.457 4.05349 -3.06031 0
M  V30 3855 H 386.387 5.02661 -1.5697 0
M  V30 3856 H 388.878 3.46628 -1.50524 0
M  V30 3857 H 389.191 6.81619 -3.64165 0
M  V30 3858 H 387.536 6.13325 -3.2689 0
M  V30 3859 H 390.727 4.25938 -1.9415 0
M  V30 3860 H 390.9 5.78707 -2.91552 0
M  V30 3861 N 384.306 0.507319 1.49211 0
M  V30 3862 C 385.216 -0.272136 2.33016 0
M  V30 3863 C 386.232 -0.961206 1.45041 0
M  V30 3864 O 387.408 -0.941191 1.78055 0
M  V30 3865 C 384.473 -1.31895 3.20631 0
M  V30 3866 C 383.534 -0.642648 4.24463 0
M  V30 3867 C 382.767 -1.63959 5.07891 0
M  V30 3868 O 382.99 -2.87007 4.92933 0
M  V30 3869 O 381.924 -1.19143 5.8999 0
M  V30 3870 H 385.75 0.413982 3.00865 0
M  V30 3871 H 383.335 0.268556 1.46966 0
M  V30 3872 H 385.217 -1.92446 3.7489 0
M  V30 3873 H 383.892 -1.98788 2.5547 0
M  V30 3874 H 382.799 0.00276252 3.741 0
M  V30 3875 H 384.132 -0.0160534 4.92197 0
M  V30 3876 N 385.784 -1.5574 0.241426 0
M  V30 3877 C 386.731 -2.21149 -0.660432 0
M  V30 3878 C 387.701 -1.17356 -1.17545 0
M  V30 3879 O 388.886 -1.45784 -1.23093 0
M  V30 3880 C 386.026 -2.91059 -1.85414 0
M  V30 3881 C 385.139 -4.09495 -1.37616 0
M  V30 3882 C 384.274 -4.67135 -2.529 0
M  V30 3883 C 383.313 -5.77831 -2.01936 0
M  V30 3884 N 382.45 -6.29677 -3.10566 0
M  V30 3885 H 387.29 -2.97845 -0.095955 0
M  V30 3886 H 384.827 -1.47057 -0.0356024 0
M  V30 3887 H 386.785 -3.29788 -2.5553 0
M  V30 3888 H 385.415 -2.16846 -2.39118 0
M  V30 3889 H 384.467 -3.76117 -0.569235 0
M  V30 3890 H 385.779 -4.89423 -0.962618 0
M  V30 3891 H 384.933 -5.08409 -3.31067 0
M  V30 3892 H 383.672 -3.86411 -2.97553 0
M  V30 3893 H 382.677 -5.36039 -1.22238 0
M  V30 3894 H 383.902 -6.60402 -1.58259 0
M  V30 3895 H 381.848 -5.5186 -3.54664 0
M  V30 3896 H 381.765 -7.04783 -2.73526 0
M  V30 3897 H 383.033 -6.75609 -3.88809 0
M  V30 3898 N 387.262 0.0317525 -1.57568 0
M  V30 3899 C 388.172 1.05021 -2.0978 0
M  V30 3900 C 389.188 1.39809 -1.03583 0
M  V30 3901 O 390.364 1.49182 -1.35302 0
M  V30 3902 C 387.429 2.33301 -2.56459 0
M  V30 3903 C 386.49 2.0512 -3.77127 0
M  V30 3904 C 385.723 3.27283 -4.2157 0
M  V30 3905 O 385.946 4.37861 -3.65559 0
M  V30 3906 O 384.88 3.13141 -5.14029 0
M  V30 3907 H 388.706 0.636505 -2.96955 0
M  V30 3908 H 386.291 0.248559 -1.47318 0
M  V30 3909 H 388.173 3.08722 -2.86825 0
M  V30 3910 H 386.848 2.73973 -1.72397 0
M  V30 3911 H 385.755 1.27276 -3.51784 0
M  V30 3912 H 387.088 1.69305 -4.62165 0
M  V30 3913 N 388.74 1.54641 0.303973 0
M  V30 3914 C 389.65 1.88439 1.39743 0
M  V30 3915 C 390.666 0.778239 1.55626 0
M  V30 3916 O 391.842 1.07442 1.70347 0
M  V30 3917 C 388.907 2.12212 2.74166 0
M  V30 3918 C 387.968 3.35936 2.67293 0
M  V30 3919 C 387.201 3.58566 3.95305 0
M  V30 3920 O 387.424 2.84263 4.9452 0
M  V30 3921 O 386.358 4.52078 3.97378 0
M  V30 3922 H 390.184 2.81458 1.14083 0
M  V30 3923 H 387.769 1.40793 0.499768 0
M  V30 3924 H 389.651 2.29067 3.53704 0
M  V30 3925 H 388.326 1.22379 2.99675 0
M  V30 3926 H 387.233 3.24448 1.86237 0
M  V30 3927 H 388.566 4.2589 2.46736 0
M  V30 3928 N 390.218 -0.567019 1.47046 0
M  V30 3929 C 391.148 -1.68482 1.61667 0
M  V30 3930 C 392.129 -1.6358 0.466418 0
M  V30 3931 O 393.314 -1.81354 0.694574 0
M  V30 3932 C 390.444 -3.07124 1.62148 0
M  V30 3933 C 389.398 -3.26867 2.76301 0
M  V30 3934 C 388.724 -4.66196 2.61849 0
M  V30 3935 C 390.024 -3.13186 4.17986 0
M  V30 3936 H 391.718 -1.56502 2.5524 0
M  V30 3937 H 389.264 -0.751486 1.22836 0
M  V30 3938 H 391.217 -3.8516 1.70968 0
M  V30 3939 H 389.941 -3.2004 0.651287 0
M  V30 3940 H 388.6 -2.51237 2.66975 0
M  V30 3941 H 388.248 -4.75898 1.62879 0
M  V30 3942 H 387.948 -4.80356 3.38425 0
M  V30 3943 H 389.472 -5.46379 2.72584 0
M  V30 3944 H 390.886 -3.81049 4.2834 0
M  V30 3945 H 389.283 -3.3886 4.95272 0
M  V30 3946 H 390.353 -2.10057 4.3704 0
M  V30 3947 N 391.696 -1.35014 -0.812953 0
M  V30 3948 C 392.606 -1.2951 -1.95613 0
M  V30 3949 C 393.622 -0.20107 -1.72834 0
M  V30 3950 O 394.798 -0.42932 -1.96771 0
M  V30 3951 C 391.863 -1.06033 -3.30088 0
M  V30 3952 C 390.924 -2.24688 -3.65805 0
M  V30 3953 C 390.157 -2.02322 -4.93864 0
M  V30 3954 O 390.38 -0.986464 -5.61805 0
M  V30 3955 O 389.314 -2.89525 -5.27692 0
M  V30 3956 H 393.14 -2.25705 -2.03202 0
M  V30 3957 H 390.725 -1.15321 -0.949811 0
M  V30 3958 H 392.607 -0.94763 -4.10607 0
M  V30 3959 H 391.282 -0.128852 -3.23443 0
M  V30 3960 H 390.189 -2.41521 -2.85689 0
M  V30 3961 H 391.522 -3.16261 -3.77147 0
M  V30 3962 N 393.175 1.03435 -1.18907 0
M  V30 3963 C 394.085 2.15075 -0.937015 0
M  V30 3964 C 395.101 1.73706 0.101085 0
M  V30 3965 O 396.277 2.01232 -0.0822948 0
M  V30 3966 C 393.342 3.43458 -0.473057 0
M  V30 3967 C 392.403 3.99172 -1.57989 0
M  V30 3968 C 391.636 5.21427 -1.13797 0
M  V30 3969 O 391.859 5.704 0.000725941 0
M  V30 3970 O 390.793 5.69837 -1.9383 0
M  V30 3971 H 394.619 2.39198 -1.87131 0
M  V30 3972 H 392.204 1.13506 -0.971427 0
M  V30 3973 H 394.086 4.20811 -0.222702 0
M  V30 3974 H 392.761 3.20793 0.432869 0
M  V30 3975 H 391.668 3.23178 -1.88433 0
M  V30 3976 H 393.001 4.2619 -2.46217 0
M  V30 3977 N 394.653 0.992116 1.22453 0
M  V30 3978 C 396.069 0.702713 1.43297 0
M  V30 3979 C 396.269 -0.726909 1.87932 0
M  V30 3980 O 395.325 -1.49792 2.0327 0
M  V30 3981 C 396.638 1.70762 2.47509 0
M  V30 3982 C 398.186 1.72298 2.61309 0
M  V30 3983 C 398.661 2.71649 3.68742 0
M  V30 3984 N 400.152 2.70239 3.76199 0
M  V30 3985 C 400.887 3.43778 4.58917 0
M  V30 3986 N 400.383 4.26914 5.45633 0
M  V30 3987 N 402.176 3.32487 4.5322 0
M  V30 3988 H 394.327 1.91543 0.917871 0
M  V30 3989 H 396.59 0.826031 0.465162 0
M  V30 3990 H 396.296 2.73059 2.21657 0
M  V30 3991 H 396.17 1.49985 3.46099 0
M  V30 3992 H 398.557 0.706989 2.86506 0
M  V30 3993 H 398.638 1.97143 1.62997 0
M  V30 3994 H 398.282 3.73397 3.44292 0
M  V30 3995 H 398.212 2.44074 4.66622 0
M  V30 3996 H 400.703 2.09912 3.14237 0
M  V30 3997 H 401.016 4.79855 6.05771 0
M  V30 3998 H 399.361 4.31002 5.45218 0
M  V30 3999 H 402.552 2.6698 3.84499 0
M  V30 4000 H 402.725 3.90058 5.17454 0
M  V30 4001 N 396.131 -1.37776 0.765217 0
M  V30 4002 C 397.094 -2.28686 0.153416 0
M  V30 4003 C 398.094 -1.47727 -0.635081 0
M  V30 4004 O 399.284 -1.68027 -0.459632 0
M  V30 4005 C 396.416 -3.31608 -0.790495 0
M  V30 4006 H 397.609 -2.84297 0.954723 0
M  V30 4007 H 395.162 -1.46932 0.53299 0
M  V30 4008 H 395.897 -2.81109 -1.61705 0
M  V30 4009 H 395.682 -3.9144 -0.227348 0
M  V30 4010 H 397.172 -3.99559 -1.21419 0
M  V30 4011 N 397.609 -0.515225 -1.4894 0
M  V30 4012 C 398.834 0.022727 -2.07388 0
M  V30 4013 C 399.259 1.2876 -1.37122 0
M  V30 4014 O 398.617 1.76067 -0.432431 0
M  V30 4015 C 398.665 0.244869 -3.59768 0
M  V30 4016 O 397.769 1.31667 -3.90817 0
M  V30 4017 H 397.11 -0.0325506 -0.663202 0
M  V30 4018 H 399.64 -0.718918 -1.91553 0
M  V30 4019 H 399.65 0.47205 -4.0526 0
M  V30 4020 H 398.325 -0.679194 -4.10317 0
M  V30 4021 H 396.902 1.07331 -3.5712 0
M  V30 4022 N 399.087 1.5561 -0.249682 0
M  V30 4023 C 399.997 2.25143 0.659375 0
M  V30 4024 C 401.013 1.2685 1.19101 0
M  V30 4025 O 402.189 1.59732 1.22669 0
M  V30 4026 C 399.254 2.93945 1.8384 0
M  V30 4027 C 398.315 4.07655 1.34596 0
M  V30 4028 C 397.548 4.73167 2.46878 0
M  V30 4029 O 397.771 4.37768 3.65671 0
M  V30 4030 O 396.705 5.61623 2.16478 0
M  V30 4031 H 400.531 3.03545 0.0968698 0
M  V30 4032 H 398.116 1.49389 -0.018074 0
M  V30 4033 H 399.998 3.37271 2.52638 0
M  V30 4034 H 398.673 2.18481 2.38847 0
M  V30 4035 H 397.58 3.68839 0.625174 0
M  V30 4036 H 398.913 4.84946 0.841941 0
M  V30 4037 N 400.565 -0.0233959 1.57583 0
M  V30 4038 C 401.495 -1.02162 2.09965 0
M  V30 4039 C 402.476 -1.3735 1.00344 0
M  V30 4040 O 403.661 -1.46135 1.27899 0
M  V30 4041 C 400.791 -2.32081 2.58371 0
M  V30 4042 C 399.745 -2.1112 3.72307 0
M  V30 4043 C 399.071 -3.46848 4.06941 0
M  V30 4044 C 400.371 -1.49276 5.00514 0
M  V30 4045 H 402.065 -0.585557 2.93618 0
M  V30 4046 H 399.611 -0.280218 1.41247 0
M  V30 4047 H 401.564 -3.02249 2.93639 0
M  V30 4048 H 400.288 -2.77758 1.71808 0
M  V30 4049 H 398.947 -1.43384 3.37397 0
M  V30 4050 H 398.595 -3.90184 3.17436 0
M  V30 4051 H 398.295 -3.33646 4.83688 0
M  V30 4052 H 399.819 -4.18369 4.44747 0
M  V30 4053 H 401.233 -2.09368 5.33702 0
M  V30 4054 H 399.63 -1.46632 5.8191 0
M  V30 4055 H 400.7 -0.459217 4.82721 0
M  V30 4056 N 402.043 -1.548 -0.295768 0
M  V30 4057 C 403.268 -1.78653 -1.05346 0
M  V30 4058 C 403.693 -0.546894 -1.79974 0
M  V30 4059 O 403.051 0.502763 -1.7419 0
M  V30 4060 C 403.099 -2.99679 -2.00561 0
M  V30 4061 O 402.203 -2.7317 -3.08953 0
M  V30 4062 H 401.544 -0.59116 -0.302367 0
M  V30 4063 H 404.074 -2.01895 -0.331598 0
M  V30 4064 H 404.084 -3.27793 -2.42932 0
M  V30 4065 H 402.759 -3.89562 -1.4565 0
M  V30 4066 H 401.336 -2.56089 -2.71059 0
M  V30 4067 N 403.521 0.559213 -1.47345 0
M  V30 4068 C 404.937 0.884943 -1.32819 0
M  V30 4069 C 405.137 1.98988 -0.317173 0
M  V30 4070 O 404.193 2.51031 0.272011 0
M  V30 4071 C 405.506 1.28007 -2.72093 0
M  V30 4072 C 407.054 1.39161 -2.80363 0
M  V30 4073 C 407.529 1.82031 -4.20272 0
M  V30 4074 N 409.02 1.89185 -4.22804 0
M  V30 4075 C 409.755 2.2368 -5.27973 0
M  V30 4076 N 409.251 2.56802 -6.43447 0
M  V30 4077 N 411.044 2.24436 -5.15349 0
M  V30 4078 H 403.195 -0.170304 -2.11716 0
M  V30 4079 H 405.458 -0.0135247 -0.947904 0
M  V30 4080 H 405.164 0.542027 -3.47498 0
M  V30 4081 H 405.038 2.23665 -3.03733 0
M  V30 4082 H 407.425 2.12048 -2.05231 0
M  V30 4083 H 407.506 0.41696 -2.52379 0
M  V30 4084 H 407.15 1.09715 -4.95908 0
M  V30 4085 H 407.08 2.80495 -4.45679 0
M  V30 4086 H 409.571 1.65982 -3.39497 0
M  V30 4087 H 409.884 2.82144 -7.19454 0
M  V30 4088 H 408.229 2.54387 -6.46771 0
M  V30 4089 H 411.42 1.97998 -4.24163 0
M  V30 4090 H 411.593 2.50989 -5.97418 0
M  V30 4091 N 404.999 1.35443 0.805782 0
M  V30 4092 C 405.931 1.24285 1.92577 0
M  V30 4093 C 406.944 0.165962 1.61952 0
M  V30 4094 O 408.133 0.419303 1.73505 0
M  V30 4095 C 405.233 0.891272 3.2697 0
M  V30 4096 C 404.406 2.06669 3.85495 0
M  V30 4097 C 403.465 1.69077 4.98297 0
M  V30 4098 O 402.491 2.4096 5.15681 0
M  V30 4099 N 403.693 0.614869 5.77234 0
M  V30 4100 H 406.458 2.20777 2.02676 0
M  V30 4101 H 404.019 1.28623 0.983243 0
M  V30 4102 H 406.011 0.621256 3.99903 0
M  V30 4103 H 404.581 0.016004 3.12596 0
M  V30 4104 H 403.801 2.50046 3.04747 0
M  V30 4105 H 405.089 2.85237 4.21328 0
M  V30 4106 H 404.487 0.017648 5.65697 0
M  V30 4107 H 403.044 0.404636 6.50543 0
M  V30 4108 N 406.477 -1.02803 1.19454 0
M  V30 4109 C 407.723 -1.76478 0.999171 0
M  V30 4110 C 408.056 -1.88456 -0.468828 0
M  V30 4111 O 407.331 -1.40198 -1.34814 0
M  V30 4112 C 407.614 -3.19044 1.66981 0
M  V30 4113 C 407.467 -3.14932 3.21151 0
M  V30 4114 C 408.786 -4.17456 1.39349 0
M  V30 4115 H 405.905 -0.640614 0.364393 0
M  V30 4116 H 408.547 -1.20005 1.47305 0
M  V30 4117 H 406.697 -3.67263 1.2669 0
M  V30 4118 H 408.369 -2.74605 3.70661 0
M  V30 4119 H 406.612 -2.52625 3.52652 0
M  V30 4120 H 407.283 -4.1566 3.63223 0
M  V30 4121 H 409.759 -3.77842 1.74283 0
M  V30 4122 H 408.635 -5.154 1.88823 0
M  V30 4123 H 408.896 -4.40949 0.318813 0
M  V30 4124 N 407.956 -0.998596 -1.21925 0
M  V30 4125 C 409.233 -0.593401 -1.86382 0
M  V30 4126 C 409.613 0.92916 -1.89552 0
M  V30 4127 O 408.961 1.81347 -1.39017 0
M  V30 4128 C 409.171 -1.22039 -3.26967 0
M  V30 4129 C 410.519 -1.32449 -4.03413 0
M  V30 4130 O 411.543 -1.17522 -3.36254 0
M  V30 4131 O 410.402 -1.56395 -5.23644 0
M  V30 4132 H 407.496 -0.202385 -0.801854 0
M  V30 4133 H 410.042 -1.09484 -1.29659 0
M  V30 4134 H 408.814 -2.26158 -3.19325 0
M  V30 4135 H 408.437 -0.704906 -3.91301 0
M  V30 4136 N 409.434 1.37368 -0.772513 0
M  V30 4137 C 410.68 1.99969 -0.337681 0
M  V30 4138 C 411.013 1.61184 1.08321 0
M  V30 4139 O 410.288 0.858395 1.74533 0
M  V30 4140 C 410.571 3.56858 -0.482121 0
M  V30 4141 C 410.424 4.0555 -1.94549 0
M  V30 4142 C 411.743 4.39955 0.113143 0
M  V30 4143 H 408.862 0.726464 -0.124171 0
M  V30 4144 H 411.504 1.63034 -0.975699 0
M  V30 4145 H 409.654 3.88452 0.0610361 0
M  V30 4146 H 411.326 3.84518 -2.54841 0
M  V30 4147 H 409.569 3.57715 -2.45403 0
M  V30 4148 H 410.24 5.14587 -1.9976 0
M  V30 4149 H 412.716 4.14623 -0.35031 0
M  V30 4150 H 411.592 5.48897 -0.0180514 0
M  V30 4151 H 411.853 4.25403 1.20354 0
M  V30 4152 N 410.912 0.523116 1.48665 0
M  V30 4153 C 412.137 -0.0117284 2.07397 0
M  V30 4154 C 412.562 -1.28031 1.37803 0
M  V30 4155 O 411.92 -1.75836 0.441762 0
M  V30 4156 C 411.968 -0.225786 3.59892 0
M  V30 4157 O 411.072 -1.29592 3.91509 0
M  V30 4158 H 410.413 0.0360673 0.66302 0
M  V30 4159 H 412.943 0.729066 1.9117 0
M  V30 4160 H 412.953 -0.450552 4.05505 0
M  V30 4161 H 411.628 0.700944 4.09951 0
M  V30 4162 H 410.205 -1.05436 3.57684 0
M  V30 4163 N 412.39 -1.55475 0.257931 0
M  V30 4164 C 413.636 -1.99502 -0.364266 0
M  V30 4165 C 413.969 -1.146 -1.56782 0
M  V30 4166 O 413.244 -0.211968 -1.93342 0
M  V30 4167 C 413.527 -3.51917 -0.763333 0
M  V30 4168 C 413.38 -4.4758 0.446371 0
M  V30 4169 C 414.699 -4.09742 -1.60623 0
M  V30 4170 H 411.818 -0.725277 -0.130929 0
M  V30 4171 H 414.46 -1.8653 0.361446 0
M  V30 4172 H 412.61 -3.63101 -1.38166 0
M  V30 4173 H 414.282 -4.48362 1.08487 0
M  V30 4174 H 412.525 -4.19947 1.08753 0
M  V30 4175 H 413.196 -5.51862 0.123645 0
M  V30 4176 H 415.672 -4.01727 -1.08418 0
M  V30 4177 H 414.548 -5.16631 -1.85429 0
M  V30 4178 H 414.809 -3.58889 -2.58169 0
M  V30 4179 N 413.868 0.0150385 -1.57593 0
M  V30 4180 C 414.778 1.02791 -2.10882 0
M  V30 4181 C 415.794 1.38702 -1.0506 0
M  V30 4182 O 416.97 1.47739 -1.36877 0
M  V30 4183 C 414.035 2.30568 -2.58919 0
M  V30 4184 C 413.096 2.01108 -3.79281 0
M  V30 4185 C 412.329 3.22794 -4.25018 0
M  V30 4186 O 412.552 4.33959 -3.70183 0
M  V30 4187 O 411.486 3.07672 -5.17322 0
M  V30 4188 H 415.312 0.604973 -2.97613 0
M  V30 4189 H 412.897 0.23292 -1.47573 0
M  V30 4190 H 414.779 3.05662 -2.90084 0
M  V30 4191 H 413.454 2.72129 -1.75293 0
M  V30 4192 H 412.361 1.23537 -3.53114 0
M  V30 4193 H 413.694 1.64394 -4.63935 0
M  V30 4194 N 415.346 1.54954 0.287554 0
M  V30 4195 C 416.276 1.89839 1.35954 0
M  V30 4196 C 417.257 0.758675 1.52244 0
M  V30 4197 O 418.442 1.01557 1.65529 0
M  V30 4198 C 415.572 2.15753 2.72154 0
M  V30 4199 C 414.526 3.3159 2.70614 0
M  V30 4200 C 413.852 3.42952 4.10229 0
M  V30 4201 C 415.152 4.68359 2.31165 0
M  V30 4202 H 416.846 2.79625 1.07007 0
M  V30 4203 H 414.392 1.3454 0.513316 0
M  V30 4204 H 416.345 2.38743 3.47246 0
M  V30 4205 H 415.069 1.22752 3.02654 0
M  V30 4206 H 413.728 3.08545 1.97979 0
M  V30 4207 H 413.376 2.47443 4.37928 0
M  V30 4208 H 413.076 4.20826 4.10097 0
M  V30 4209 H 414.6 3.68218 4.87081 0
M  V30 4210 H 416.014 4.9099 2.95976 0
M  V30 4211 H 414.411 5.49044 2.42221 0
M  V30 4212 H 415.481 4.68165 1.26291 0
M  V30 4213 N 416.824 -0.551391 1.4764 0
M  V30 4214 C 417.754 -1.66757 1.63445 0
M  V30 4215 C 418.735 -1.63077 0.483742 0
M  V30 4216 O 419.92 -1.80607 0.71377 0
M  V30 4217 C 417.05 -3.05387 1.65396 0
M  V30 4218 C 416.004 -3.23918 2.79752 0
M  V30 4219 C 415.33 -4.63393 2.66779 0
M  V30 4220 C 416.63 -3.08735 4.21284 0
M  V30 4221 H 418.324 -1.53786 2.56886 0
M  V30 4222 H 415.87 -0.738415 1.23626 0
M  V30 4223 H 417.823 -3.83325 1.75043 0
M  V30 4224 H 416.547 -3.19332 0.685195 0
M  V30 4225 H 415.206 -2.48391 2.69625 0
M  V30 4226 H 414.854 -4.74144 1.67918 0
M  V30 4227 H 414.554 -4.7674 3.43501 0
M  V30 4228 H 416.078 -5.43458 2.78364 0
M  V30 4229 H 417.492 -3.76484 4.32357 0
M  V30 4230 H 415.889 -3.33588 4.98838 0
M  V30 4231 H 416.959 -2.0541 4.39243 0
M  V30 4232 N 418.302 -1.35869 -0.798587 0
M  V30 4233 C 419.265 -1.29307 -1.89242 0
M  V30 4234 C 420.265 -0.202747 -1.59517 0
M  V30 4235 O 421.455 -0.456957 -1.681 0
M  V30 4236 C 418.587 -1.00229 -3.25833 0
M  V30 4237 H 419.78 -2.26576 -1.96478 0
M  V30 4238 H 417.333 -1.20509 -0.995358 0
M  V30 4239 H 418.068 -0.033801 -3.24282 0
M  V30 4240 H 417.853 -1.79121 -3.48795 0
M  V30 4241 H 419.343 -0.98219 -4.05885 0
M  V30 4242 N 419.78 1.02168 -1.19998 0
M  V30 4243 C 421.005 1.79833 -1.03319 0
M  V30 4244 C 421.43 1.83504 0.413281 0
M  V30 4245 O 420.788 1.26635 1.29743 0
M  V30 4246 C 420.836 3.22396 -1.61533 0
M  V30 4247 O 419.94 4.03555 -0.849519 0
M  V30 4248 H 419.281 0.554872 -0.364709 0
M  V30 4249 H 421.811 1.28542 -1.59179 0
M  V30 4250 H 421.821 3.73124 -1.65054 0
M  V30 4251 H 420.496 3.19039 -2.66809 0
M  V30 4252 H 419.073 3.62169 -0.888129 0
M  V30 4253 N 421.258 1.00505 1.21394 0
M  V30 4254 C 422.188 0.585684 2.26035 0
M  V30 4255 C 423.169 -0.393525 1.65485 0
M  V30 4256 O 424.354 -0.281497 1.92149 0
M  V30 4257 C 421.484 -0.0884283 3.47187 0
M  V30 4258 C 420.438 0.810567 4.20254 0
M  V30 4259 C 419.764 0.00286382 5.347 0
M  V30 4260 C 421.064 2.1132 4.77641 0
M  V30 4261 H 422.758 1.46039 2.61368 0
M  V30 4262 H 420.304 0.703648 1.25638 0
M  V30 4263 H 422.257 -0.393286 4.19561 0
M  V30 4264 H 420.981 -0.997766 3.10986 0
M  V30 4265 H 419.64 1.09925 3.49731 0
M  V30 4266 H 419.288 -0.907765 4.94741 0
M  V30 4267 H 418.988 0.601444 5.84514 0
M  V30 4268 H 420.512 -0.295808 6.09883 0
M  V30 4269 H 421.926 1.87148 5.41893 0
M  V30 4270 H 420.323 2.66164 5.37845 0
M  V30 4271 H 421.393 2.78393 3.9702 0
M  V30 4272 N 422.737 -1.36956 0.779787 0
M  V30 4273 C 423.684 -2.30175 0.169697 0
M  V30 4274 C 424.654 -1.51501 -0.68094 0
M  V30 4275 O 425.839 -1.80042 -0.631629 0
M  V30 4276 C 422.979 -3.37985 -0.697131 0
M  V30 4277 C 422.092 -4.31661 0.170992 0
M  V30 4278 C 421.227 -5.2655 -0.701298 0
M  V30 4279 C 420.266 -6.11867 0.168869 0
M  V30 4280 N 419.403 -6.98973 -0.661855 0
M  V30 4281 H 424.243 -2.81767 0.970135 0
M  V30 4282 H 421.78 -1.38699 0.489994 0
M  V30 4283 H 423.738 -3.99128 -1.2146 0
M  V30 4284 H 422.368 -2.87739 -1.46309 0
M  V30 4285 H 421.42 -3.71756 0.80634 0
M  V30 4286 H 422.732 -4.91644 0.841875 0
M  V30 4287 H 421.886 -5.92937 -1.28494 0
M  V30 4288 H 420.625 -4.66998 -1.40584 0
M  V30 4289 H 419.63 -5.44452 0.764986 0
M  V30 4290 H 420.855 -6.73493 0.870863 0
M  V30 4291 H 418.801 -6.41941 -1.35086 0
M  V30 4292 H 418.718 -7.55984 -0.0484447 0
M  V30 4293 H 419.986 -7.6974 -1.22963 0
M  V30 4294 N 424.215 -0.530993 -1.48385 0
M  V30 4295 C 425.147 0.268353 -2.27624 0
M  V30 4296 C 426.16 0.903525 -1.35426 0
M  V30 4297 O 427.349 0.781796 -1.60469 0
M  V30 4298 C 424.449 1.39535 -3.08842 0
M  V30 4299 C 423.622 0.861913 -4.28824 0
M  V30 4300 C 422.681 1.87016 -4.91845 0
M  V30 4301 O 421.707 1.4267 -5.5103 0
M  V30 4302 N 422.909 3.20238 -4.84178 0
M  V30 4303 H 425.674 -0.41123 -2.96865 0
M  V30 4304 H 423.235 -0.365387 -1.57723 0
M  V30 4305 H 425.227 2.06803 -3.47871 0
M  V30 4306 H 423.797 1.97859 -2.42014 0
M  V30 4307 H 423.017 0.0132126 -3.94198 0
M  V30 4308 H 424.305 0.484415 -5.06489 0
M  V30 4309 H 423.703 3.58932 -4.37246 0
M  V30 4310 H 422.26 3.83136 -5.27305 0
M  V30 4311 N 425.693 1.55336 -0.266172 0
M  V30 4312 C 426.97 1.91372 0.404486 0
M  V30 4313 C 427.35 1.18935 1.74407 0
M  V30 4314 O 426.698 0.3132 2.26343 0
M  V30 4315 C 426.908 3.44581 0.553593 0
M  V30 4316 C 428.256 4.16196 0.840618 0
M  V30 4317 O 429.28 3.50426 0.638739 0
M  V30 4318 O 428.139 5.32567 1.22618 0
M  V30 4319 H 425.233 0.797194 0.220025 0
M  V30 4320 H 427.779 1.66813 -0.311664 0
M  V30 4321 H 426.551 3.89357 -0.389498 0
M  V30 4322 H 426.174 3.75065 1.31955 0
M  V30 4323 N 427.171 -0.0066808 1.57599 0
M  V30 4324 C 428.101 -0.999296 2.11036 0
M  V30 4325 C 429.082 -1.36278 1.01795 0
M  V30 4326 O 430.267 -1.4477 1.29442 0
M  V30 4327 C 427.397 -2.29328 2.60818 0
M  V30 4328 C 426.351 -2.07159 3.74525 0
M  V30 4329 C 425.677 -3.42512 4.10596 0
M  V30 4330 C 426.977 -1.43959 5.02069 0
M  V30 4331 H 428.671 -0.554382 2.94223 0
M  V30 4332 H 426.217 -0.265221 1.41536 0
M  V30 4333 H 428.17 -2.99117 2.96828 0
M  V30 4334 H 426.894 -2.7592 1.74745 0
M  V30 4335 H 425.553 -1.39797 3.38899 0
M  V30 4336 H 425.201 -3.86795 3.21556 0
M  V30 4337 H 424.901 -3.28498 4.87199 0
M  V30 4338 H 426.425 -4.13628 4.4916 0
M  V30 4339 H 427.839 -2.03696 5.35893 0
M  V30 4340 H 426.236 -1.40452 5.83432 0
M  V30 4341 H 427.306 -0.407992 4.83181 0
M  V30 4342 N 428.649 -1.55105 -0.279332 0
M  V30 4343 C 429.895 -1.75672 -1.01327 0
M  V30 4344 C 430.228 -0.552739 -1.86168 0
M  V30 4345 O 429.503 0.449827 -1.89227 0
M  V30 4346 C 429.786 -3.05825 -1.90114 0
M  V30 4347 C 429.639 -4.36565 -1.08309 0
M  V30 4348 C 430.958 -3.31975 -2.8893 0
M  V30 4349 H 428.077 -0.639149 -0.366957 0
M  V30 4350 H 430.719 -1.87833 -0.286154 0
M  V30 4351 H 428.869 -2.95588 -2.52111 0
M  V30 4352 H 430.541 -4.58751 -0.484314 0
M  V30 4353 H 428.784 -4.32076 -0.386362 0
M  V30 4354 H 429.455 -5.23946 -1.73737 0
M  V30 4355 H 431.931 -3.41963 -2.37067 0
M  V30 4356 H 430.807 -4.2432 -3.48201 0
M  V30 4357 H 431.068 -2.51309 -3.63725 0
M  V30 4358 N 430.127 0.543554 -1.4793 0
M  V30 4359 C 431.077 1.64527 -1.57844 0
M  V30 4360 C 432.061 1.54869 -0.436408 0
M  V30 4361 O 433.253 1.63119 -0.687101 0
M  V30 4362 C 430.382 3.03281 -1.6086 0
M  V30 4363 C 429.468 3.18093 -2.80495 0
M  V30 4364 N 429.859 3.02923 -4.05057 0
M  V30 4365 C 428.157 3.49121 -2.77543 0
M  V30 4366 C 428.858 3.20791 -4.85251 0
M  V30 4367 N 427.834 3.47749 -4.17818 0
M  V30 4368 H 431.636 1.51388 -2.5191 0
M  V30 4369 H 429.15 0.748671 -1.44113 0
M  V30 4370 H 431.147 3.82403 -1.66054 0
M  V30 4371 H 429.807 3.17521 -0.678996 0
M  V30 4372 H 430.818 2.79966 -4.35705 0
M  V30 4373 H 427.495 3.69804 -1.93781 0
M  V30 4374 H 428.885 3.13915 -5.9406 0
M  V30 4375 N 431.605 1.3629 0.791371 0
M  V30 4376 C 432.552 1.30458 1.90393 0
M  V30 4377 C 433.522 0.173632 1.6519 0
M  V30 4378 O 434.707 0.35983 1.87376 0
M  V30 4379 C 431.847 1.09777 3.27174 0
M  V30 4380 C 430.96 2.31929 3.64462 0
M  V30 4381 C 430.095 2.04276 4.90352 0
M  V30 4382 C 429.134 3.224 5.20312 0
M  V30 4383 N 428.271 2.94424 6.37385 0
M  V30 4384 H 433.111 2.25589 1.94714 0
M  V30 4385 H 430.648 1.12122 0.952216 0
M  V30 4386 H 432.606 0.958133 4.06049 0
M  V30 4387 H 431.236 0.183014 3.22281 0
M  V30 4388 H 430.288 2.56703 2.80727 0
M  V30 4389 H 431.6 3.20085 3.82553 0
M  V30 4390 H 430.754 1.87231 5.77087 0
M  V30 4391 H 429.493 1.13428 4.74326 0
M  V30 4392 H 428.498 3.40005 4.32061 0
M  V30 4393 H 429.723 4.14071 5.38258 0
M  V30 4394 H 427.669 2.06185 6.22755 0
M  V30 4395 H 427.586 3.76118 6.55798 0
M  V30 4396 H 428.854 2.80953 7.27108 0
M  V30 4397 N 433.083 -1.0153 1.20538 0
M  V30 4398 C 433.993 -2.13557 0.971113 0
M  V30 4399 C 435.009 -1.73845 -0.0734366 0
M  V30 4400 O 436.185 -2.01075 0.114299 0
M  V30 4401 C 433.25 -3.42661 0.527639 0
M  V30 4402 C 432.311 -3.96608 1.64319 0
M  V30 4403 C 431.544 -5.1955 1.22078 0
M  V30 4404 O 431.767 -5.70329 0.0900198 0
M  V30 4405 O 430.701 -5.66681 2.02871 0
M  V30 4406 H 434.527 -2.3619 1.90913 0
M  V30 4407 H 432.112 -1.11946 0.989362 0
M  V30 4408 H 433.994 -4.20404 0.289621 0
M  V30 4409 H 432.669 -3.21441 -0.381779 0
M  V30 4410 H 431.576 -3.20139 1.93551 0
M  V30 4411 H 432.909 -4.22219 2.52966 0
M  V30 4412 N 434.561 -1.01147 -1.20859 0
M  V30 4413 C 435.493 -0.535546 -2.22855 0
M  V30 4414 C 436.506 0.379323 -1.58319 0
M  V30 4415 O 437.695 0.178489 -1.77605 0
M  V30 4416 C 434.795 0.240962 -3.38042 0
M  V30 4417 C 433.968 -0.674562 -4.32167 0
M  V30 4418 C 433.027 0.053467 -5.26173 0
M  V30 4419 O 432.053 -0.567339 -5.66366 0
M  V30 4420 N 433.255 1.32997 -5.65059 0
M  V30 4421 H 436.02 -1.41268 -2.64317 0
M  V30 4422 H 433.581 -0.888386 -1.35349 0
M  V30 4423 H 435.573 0.737115 -3.97931 0
M  V30 4424 H 434.143 1.01935 -2.95513 0
M  V30 4425 H 433.363 -1.35111 -3.70322 0
M  V30 4426 H 434.651 -1.2974 -4.91981 0
M  V30 4427 H 434.049 1.85536 -5.34409 0
M  V30 4428 H 432.606 1.77095 -6.2728 0
M  V30 4429 N 436.039 1.36541 -0.78704 0
M  V30 4430 C 436.949 2.3387 -0.184896 0
M  V30 4431 C 437.965 1.60927 0.661697 0
M  V30 4432 O 439.141 1.92927 0.57804 0
M  V30 4433 C 436.206 3.40122 0.672145 0
M  V30 4434 C 435.267 4.28867 -0.19267 0
M  V30 4435 C 434.5 5.30045 0.623561 0
M  V30 4436 O 434.723 5.39232 1.8597 0
M  V30 4437 O 433.657 6.01895 0.0247068 0
M  V30 4438 H 437.483 2.87126 -0.989562 0
M  V30 4439 H 435.068 1.38969 -0.548455 0
M  V30 4440 H 436.95 4.05093 1.16094 0
M  V30 4441 H 435.625 2.89169 1.45474 0
M  V30 4442 H 434.532 3.66945 -0.728166 0
M  V30 4443 H 435.865 4.83165 -0.938722 0
M  V30 4444 N 437.518 0.538854 1.48102 0
M  V30 4445 C 438.448 -0.207654 2.32575 0
M  V30 4446 C 439.429 -0.926559 1.4265 0
M  V30 4447 O 440.614 -0.91061 1.71527 0
M  V30 4448 C 437.744 -1.24957 3.24042 0
M  V30 4449 C 436.698 -0.648263 4.23062 0
M  V30 4450 C 436.024 -1.79348 5.03725 0
M  V30 4451 C 437.324 0.385897 5.20872 0
M  V30 4452 H 439.018 0.497534 2.95237 0
M  V30 4453 H 436.564 0.240715 1.41974 0
M  V30 4454 H 438.517 -1.77983 3.81969 0
M  V30 4455 H 437.241 -1.98446 2.59397 0
M  V30 4456 H 435.9 -0.139452 3.66335 0
M  V30 4457 H 435.548 -2.51696 4.35498 0
M  V30 4458 H 435.248 -1.39702 5.70751 0
M  V30 4459 H 436.772 -2.32735 5.64506 0
M  V30 4460 H 438.186 -0.057607 5.73271 0
M  V30 4461 H 436.583 0.700227 5.96001 0
M  V30 4462 H 437.653 1.28848 4.67468 0
M  V30 4463 N 438.996 -1.55193 0.274407 0
M  V30 4464 C 440.221 -2.04446 -0.348824 0
M  V30 4465 C 440.646 -1.15149 -1.48735 0
M  V30 4466 O 440.004 -0.149952 -1.80679 0
M  V30 4467 C 440.052 -3.51431 -0.808009 0
M  V30 4468 O 439.156 -3.65225 -1.91531 0
M  V30 4469 H 438.497 -0.66006 -0.0722276 0
M  V30 4470 H 441.027 -2.00481 0.408498 0
M  V30 4471 H 441.037 -3.92781 -1.10395 0
M  V30 4472 H 439.712 -4.15892 0.0249865 0
M  V30 4473 H 438.289 -3.35778 -1.62196 0
M  V30 4474 N 440.474 -0.00167713 -1.576 0
M  V30 4475 C 441.89 0.354422 -1.55615 0
M  V30 4476 C 442.09 1.74679 -1.00447 0
M  V30 4477 O 441.146 2.4428 -0.639022 0
M  V30 4478 C 442.459 0.22812 -2.99833 0
M  V30 4479 C 444.007 0.302934 -3.11531 0
M  V30 4480 C 444.482 0.205737 -4.57538 0
M  V30 4481 N 445.973 0.263584 -4.62449 0
M  V30 4482 C 446.708 0.211742 -5.73009 0
M  V30 4483 N 446.204 0.110399 -6.92712 0
M  V30 4484 N 447.997 0.263729 -5.61481 0
M  V30 4485 H 440.148 -0.912498 -1.918 0
M  V30 4486 H 442.411 -0.349928 -0.881053 0
M  V30 4487 H 442.117 -0.729934 -3.44042 0
M  V30 4488 H 441.991 1.00951 -3.6344 0
M  V30 4489 H 444.378 1.25143 -2.67251 0
M  V30 4490 H 444.459 -0.508357 -2.50698 0
M  V30 4491 H 444.103 -0.739225 -5.02492 0
M  V30 4492 H 444.033 1.03554 -5.16318 0
M  V30 4493 H 446.524 0.343173 -3.76339 0
M  V30 4494 H 446.837 0.0767828 -7.72762 0
M  V30 4495 H 445.182 0.0760025 -6.94958 0
M  V30 4496 H 448.373 0.34111 -4.66855 0
M  V30 4497 H 448.546 0.219862 -6.47627 0
M  V30 4498 N 441.952 1.55251 0.271103 0
M  V30 4499 C 442.899 1.88261 1.33516 0
M  V30 4500 C 443.869 0.734296 1.48988 0
M  V30 4501 O 445.054 0.985741 1.63364 0
M  V30 4502 C 442.194 2.16168 2.69008 0
M  V30 4503 C 441.307 3.43678 2.61743 0
M  V30 4504 C 440.442 3.61276 3.89427 0
M  V30 4505 C 439.481 4.82472 3.7668 0
M  V30 4506 N 438.618 4.96717 4.96202 0
M  V30 4507 H 443.458 2.79015 1.04665 0
M  V30 4508 H 440.995 1.38137 0.505618 0
M  V30 4509 H 442.953 2.30349 3.47844 0
M  V30 4510 H 441.583 1.28646 2.96057 0
M  V30 4511 H 440.635 3.37959 1.74607 0
M  V30 4512 H 441.947 4.3265 2.48224 0
M  V30 4513 H 441.101 3.75284 4.76704 0
M  V30 4514 H 439.84 2.70492 4.05814 0
M  V30 4515 H 438.845 4.68465 2.87786 0
M  V30 4516 H 440.07 5.74692 3.61809 0
M  V30 4517 H 438.016 4.08865 5.12997 0
M  V30 4518 H 437.933 5.79738 4.85222 0
M  V30 4519 H 439.201 5.15113 5.85046 0
M  V30 4520 N 443.43 -0.535701 1.48216 0
M  V30 4521 C 444.362 -1.65662 1.58394 0
M  V30 4522 C 445.375 -1.5591 0.468607 0
M  V30 4523 O 446.564 -1.62475 0.7392 0
M  V30 4524 C 443.664 -3.04276 1.4923 0
M  V30 4525 C 442.837 -3.39567 2.75705 0
M  V30 4526 C 441.896 -4.57436 2.60075 0
M  V30 4527 O 440.922 -4.60942 3.33948 0
M  V30 4528 N 442.124 -5.55259 1.69315 0
M  V30 4529 H 444.889 -1.5737 2.55058 0
M  V30 4530 H 442.45 -0.722845 1.44867 0
M  V30 4531 H 444.442 -3.80994 1.36477 0
M  V30 4532 H 443.012 -3.06677 0.605632 0
M  V30 4533 H 442.232 -2.52083 3.03064 0
M  V30 4534 H 443.52 -3.59929 3.59623 0
M  V30 4535 H 442.918 -5.552 1.08489 0
M  V30 4536 H 441.475 -6.31218 1.62504 0
M  V30 4537 N 444.908 -1.36708 -0.784132 0
M  V30 4538 C 445.84 -1.27333 -1.90575 0
M  V30 4539 C 446.853 -0.191706 -1.61667 0
M  V30 4540 O 448.042 -0.446854 -1.72816 0
M  V30 4541 C 445.142 -0.943177 -3.25511 0
M  V30 4542 C 444.315 -2.12776 -3.82158 0
M  V30 4543 C 443.374 -1.76983 -4.95544 0
M  V30 4544 O 442.4 -2.49134 -5.11782 0
M  V30 4545 N 443.602 -0.706624 -5.76183 0
M  V30 4546 H 446.367 -2.23974 -1.99138 0
M  V30 4547 H 443.928 -1.30171 -0.962656 0
M  V30 4548 H 445.92 -0.684799 -3.98864 0
M  V30 4549 H 444.49 -0.0657333 -3.12531 0
M  V30 4550 H 443.71 -2.54863 -3.0073 0
M  V30 4551 H 444.998 -2.91904 -4.16737 0
M  V30 4552 H 444.396 -0.107643 -5.65598 0
M  V30 4553 H 442.953 -0.50808 -6.49817 0
M  V30 4554 N 446.386 1.0089 -1.21074 0
M  V30 4555 C 447.296 2.13039 -0.982425 0
M  V30 4556 C 448.312 1.73881 0.0642161 0
M  V30 4557 O 449.488 2.01012 -0.12496 0
M  V30 4558 C 446.553 3.42377 -0.545803 0
M  V30 4559 C 445.614 3.95731 -1.6642 0
M  V30 4560 C 444.847 5.18896 -1.24832 0
M  V30 4561 O 445.07 5.70273 -0.120265 0
M  V30 4562 O 444.004 5.65597 -2.05873 0
M  V30 4563 H 447.83 2.35175 -1.92163 0
M  V30 4564 H 445.415 1.1142 -0.995285 0
M  V30 4565 H 447.297 4.20244 -0.311912 0
M  V30 4566 H 445.972 3.21639 0.364727 0
M  V30 4567 H 444.879 3.19108 -1.95246 0
M  V30 4568 H 446.212 4.20872 -2.55201 0
M  V30 4569 N 447.864 1.01787 1.20321 0
M  V30 4570 C 449.11 0.708985 1.90003 0
M  V30 4571 C 449.443 -0.759572 1.78729 0
M  V30 4572 O 448.718 -1.55198 1.17234 0
M  V30 4573 C 449.001 1.1469 3.41348 0
M  V30 4574 C 448.854 2.67586 3.61549 0
M  V30 4575 C 450.173 0.71915 4.34185 0
M  V30 4576 H 447.292 0.259034 0.689978 0
M  V30 4577 H 449.934 1.26584 1.41692 0
M  V30 4578 H 448.084 0.673128 3.82624 0
M  V30 4579 H 449.756 3.22826 3.29517 0
M  V30 4580 H 447.999 3.085 3.04976 0
M  V30 4581 H 448.67 2.93281 4.67643 0
M  V30 4582 H 451.146 1.12647 4.00562 0
M  V30 4583 H 450.022 1.05358 5.38694 0
M  V30 4584 H 450.283 -0.379111 4.40472 0
M  V30 4585 N 449.342 -1.36122 0.79427 0
M  V30 4586 C 450.588 -1.99406 0.369452 0
M  V30 4587 C 450.921 -1.62886 -1.05743 0
M  V30 4588 O 450.196 -0.886053 -1.73145 0
M  V30 4589 C 450.479 -3.56046 0.538833 0
M  V30 4590 C 450.332 -4.02404 2.00976 0
M  V30 4591 C 451.651 -4.40079 -0.0431359 0
M  V30 4592 H 448.77 -0.724397 0.135712 0
M  V30 4593 H 451.412 -1.61461 1.00151 0
M  V30 4594 H 449.562 -3.885 0.000771004 0
M  V30 4595 H 451.234 -3.80415 2.60926 0
M  V30 4596 H 449.477 -3.53765 2.51063 0
M  V30 4597 H 450.148 -5.11344 2.07922 0
M  V30 4598 H 452.624 -4.14013 0.416228 0
M  V30 4599 H 451.5 -5.48799 0.105374 0
M  V30 4600 H 451.761 -4.27264 -1.13571 0
M  V30 4601 N 450.82 -0.546701 -1.47814 0
M  V30 4602 C 451.752 0.244196 -2.27895 0
M  V30 4603 C 452.765 0.88911 -1.36377 0
M  V30 4604 O 453.954 0.764733 -1.61289 0
M  V30 4605 C 451.054 1.36252 -3.10304 0
M  V30 4606 C 450.227 0.816382 -4.29714 0
M  V30 4607 C 449.286 1.81789 -4.93801 0
M  V30 4608 O 448.312 1.36818 -5.52512 0
M  V30 4609 N 449.514 3.15085 -4.87547 0
M  V30 4610 H 452.279 -0.442694 -2.96412 0
M  V30 4611 H 449.84 -0.382095 -1.57327 0
M  V30 4612 H 451.832 2.03102 -3.50045 0
M  V30 4613 H 450.402 1.95281 -2.44099 0
M  V30 4614 H 449.622 -0.0285981 -3.9419 0
M  V30 4615 H 450.91 0.430668 -5.06974 0
M  V30 4616 H 450.308 3.54275 -4.41028 0
M  V30 4617 H 448.865 3.77522 -5.31339 0
M  V30 4618 N 452.299 1.55045 -0.282633 0
M  V30 4619 C 453.548 1.98938 0.332667 0
M  V30 4620 C 453.861 1.17455 1.56409 0
M  V30 4621 O 455.067 1.51527 2.25282 0
M  V30 4622 C 453.523 3.54105 0.643226 0
M  V30 4623 C 453.131 4.44374 -0.568814 0
M  V30 4624 C 454.875 4.06569 1.22074 0
M  V30 4625 C 452.782 5.90943 -0.232426 0
M  V30 4626 H 451.712 0.743043 0.128075 0
M  V30 4627 H 454.363 1.79341 -0.388464 0
M  V30 4628 H 452.745 3.69532 1.42346 0
M  V30 4629 H 453.919 4.40718 -1.34551 0
M  V30 4630 H 452.234 4.02585 -1.06369 0
M  V30 4631 H 454.831 5.13626 1.48635 0
M  V30 4632 H 455.174 3.56057 2.15707 0
M  V30 4633 H 455.707 3.94612 0.502621 0
M  V30 4634 H 452.446 6.45567 -1.13683 0
M  V30 4635 H 451.966 5.9765 0.507357 0
M  V30 4636 H 453.645 6.4677 0.172657 0
M  V30 4637 N 453.777 0.010035 1.57597 0
M  V30 4638 C 455.054 -0.710296 1.82248 0
M  V30 4639 C 455.434 -1.91426 0.889911 0
M  V30 4640 O 454.782 -2.28424 -0.0590292 0
M  V30 4641 C 454.992 -1.10655 3.30993 0
M  V30 4642 C 456.34 -1.50621 3.96987 0
M  V30 4643 O 457.364 -1.20007 3.35375 0
M  V30 4644 O 456.223 -2.07587 5.05539 0
M  V30 4645 H 453.317 -0.34673 0.750804 0
M  V30 4646 H 455.863 0.0362578 1.69661 0
M  V30 4647 H 454.635 -0.248826 3.90508 0
M  V30 4648 H 454.258 -1.91189 3.48615 0
M  V30 4649 N 455.255 -1.55392 -0.262866 0
M  V30 4650 C 456.187 -1.85392 -1.34768 0
M  V30 4651 C 457.2 -0.739069 -1.45057 0
M  V30 4652 O 458.389 -1.01703 -1.46693 0
M  V30 4653 C 455.489 -2.01088 -2.72795 0
M  V30 4654 C 454.662 -3.31828 -2.84972 0
M  V30 4655 C 453.721 -3.37464 -4.03738 0
M  V30 4656 O 452.747 -4.10778 -3.94018 0
M  V30 4657 N 453.949 -2.65599 -5.16176 0
M  V30 4658 H 456.714 -2.79029 -1.09375 0
M  V30 4659 H 454.275 -1.55434 -0.452981 0
M  V30 4660 H 456.267 -2.02217 -3.50557 0
M  V30 4661 H 454.837 -1.1427 -2.90966 0
M  V30 4662 H 454.057 -3.43152 -1.94012 0
M  V30 4663 H 455.345 -4.18032 -2.90045 0
M  V30 4664 H 454.743 -2.05736 -5.26962 0
M  V30 4665 H 453.3 -2.72439 -5.92132 0
M  V30 4666 N 456.733 0.527833 -1.48498 0
M  V30 4667 C 457.98 1.28354 -1.56625 0
M  V30 4668 C 458.308 1.93 -0.241096 0
M  V30 4669 O 457.563 1.79967 0.768798 0
M  V30 4670 C 457.862 2.39275 -2.65485 0
M  V30 4671 C 457.528 1.92268 -4.07853 0
M  V30 4672 C 456.19 1.79166 -4.46602 0
M  V30 4673 C 458.542 1.56771 -4.97064 0
M  V30 4674 C 455.87 1.28905 -5.72364 0
M  V30 4675 C 458.222 1.07972 -6.23318 0
M  V30 4676 C 456.886 0.934887 -6.60921 0
M  V30 4677 H 456.156 0.469682 -0.573131 0
M  V30 4678 H 458.803 0.588781 -1.82224 0
M  V30 4679 H 457.108 3.1443 -2.33754 0
M  V30 4680 H 458.805 2.974 -2.68988 0
M  V30 4681 H 455.395 2.03417 -3.77252 0
M  V30 4682 H 459.579 1.65753 -4.67803 0
M  V30 4683 H 454.835 1.16381 -6.00221 0
M  V30 4684 H 459.009 0.795775 -6.91838 0
M  V30 4685 H 456.636 0.543231 -7.58257 0
M  V30 4686 N 458.211 1.37122 0.776871 0
M  V30 4687 C 459.141 1.35164 1.90402 0
M  V30 4688 C 460.122 0.221069 1.68657 0
M  V30 4689 O 461.307 0.420642 1.8959 0
M  V30 4690 C 458.437 1.15274 3.27611 0
M  V30 4691 C 457.391 2.25289 3.63908 0
M  V30 4692 C 456.717 1.90527 4.99603 0
M  V30 4693 C 458.017 3.67446 3.71188 0
M  V30 4694 H 459.711 2.29482 1.92297 0
M  V30 4695 H 457.257 1.10465 0.923773 0
M  V30 4696 H 459.21 1.12536 4.06096 0
M  V30 4697 H 457.934 0.174102 3.26136 0
M  V30 4698 H 456.593 2.27174 2.87728 0
M  V30 4699 H 456.241 0.91206 4.94662 0
M  V30 4700 H 455.941 2.64193 5.24858 0
M  V30 4701 H 457.465 1.89367 5.80493 0
M  V30 4702 H 458.879 3.67719 4.39836 0
M  V30 4703 H 457.276 4.40123 4.07936 0
M  V30 4704 H 458.346 4.01443 2.71977 0
M  V30 4705 N 459.689 -1.00246 1.21608 0
M  V30 4706 C 460.636 -2.09073 0.977613 0
M  V30 4707 C 461.606 -1.65815 -0.097297 0
M  V30 4708 O 462.791 -1.90734 0.0503445 0
M  V30 4709 C 459.931 -3.40671 0.551133 0
M  V30 4710 C 459.044 -3.97326 1.69576 0
M  V30 4711 C 458.179 -5.17043 1.2182 0
M  V30 4712 C 457.218 -5.65813 2.335 0
M  V30 4713 N 456.355 -6.76778 1.86859 0
M  V30 4714 H 461.195 -2.28806 1.90924 0
M  V30 4715 H 458.732 -1.12186 0.951452 0
M  V30 4716 H 460.69 -4.16225 0.285097 0
M  V30 4717 H 459.32 -3.20967 -0.343489 0
M  V30 4718 H 458.372 -3.18734 2.07637 0
M  V30 4719 H 459.684 -4.29511 2.53617 0
M  V30 4720 H 458.838 -5.99852 0.908975 0
M  V30 4721 H 457.577 -4.86458 0.347869 0
M  V30 4722 H 456.582 -4.81599 2.65222 0
M  V30 4723 H 457.807 -5.98427 3.21033 0
M  V30 4724 H 455.753 -6.47994 1.02174 0
M  V30 4725 H 455.67 -7.08231 2.64471 0
M  V30 4726 H 456.938 -7.63116 1.58978 0
M  V30 4727 N 461.167 -1.02423 -1.1978 0
M  V30 4728 C 462.077 -0.610919 -2.26506 0
M  V30 4729 C 463.093 0.355152 -1.70337 0
M  V30 4730 O 464.269 0.214195 -2.00258 0
M  V30 4731 C 461.334 0.0365921 -3.46681 0
M  V30 4732 C 460.395 -0.976389 -4.18049 0
M  V30 4733 C 459.628 -0.359683 -5.32487 0
M  V30 4734 O 459.851 0.838601 -5.64202 0
M  V30 4735 O 458.785 -1.08022 -5.92127 0
M  V30 4736 H 462.611 -1.49965 -2.64091 0
M  V30 4737 H 460.196 -0.794156 -1.26545 0
M  V30 4738 H 462.078 0.39786 -4.19518 0
M  V30 4739 H 460.753 0.899398 -3.10954 0
M  V30 4740 H 459.66 -1.38916 -3.47352 0
M  V30 4741 H 460.993 -1.80941 -4.57735 0
M  V30 4742 N 462.645 1.35699 -0.801477 0
M  V30 4743 C 463.873 2.03157 -0.391768 0
M  V30 4744 C 464.288 1.60412 0.995668 0
M  V30 4745 O 463.645 0.799228 1.64069 0
M  V30 4746 C 463.696 3.58566 -0.459671 0
M  V30 4747 O 463.417 3.99756 -1.7924 0
M  V30 4748 C 464.918 4.4328 -0.0421205 0
M  V30 4749 H 462.138 0.651688 -0.159825 0
M  V30 4750 H 464.682 1.73426 -1.08368 0
M  V30 4751 H 462.837 3.86963 0.183939 0
M  V30 4752 H 463.251 4.94387 -1.75162 0
M  V30 4753 H 464.725 5.51821 -0.140754 0
M  V30 4754 H 465.202 4.27383 1.01196 0
M  V30 4755 H 465.808 4.20168 -0.658687 0
M  V30 4756 N 464.123 0.554532 1.47522 0
M  V30 4757 C 465.086 -0.184174 2.28459 0
M  V30 4758 C 466.086 -0.845195 1.36796 0
M  V30 4759 O 467.276 -0.701467 1.59452 0
M  V30 4760 C 464.408 -1.26903 3.16399 0
M  V30 4761 H 465.601 0.526751 2.95238 0
M  V30 4762 H 463.154 0.311375 1.53167 0
M  V30 4763 H 463.889 -2.01244 2.54306 0
M  V30 4764 H 463.674 -0.799883 3.83854 0
M  V30 4765 H 465.164 -1.78794 3.77389 0
M  V30 4766 N 465.601 -1.54893 0.290851 0
M  V30 4767 C 466.564 -2.21824 -0.576784 0
M  V30 4768 C 467.564 -1.20104 -1.06919 0
M  V30 4769 O 468.754 -1.44906 -0.966843 0
M  V30 4770 C 465.886 -2.89662 -1.79747 0
M  V30 4771 H 467.079 -2.99899 0.00784051 0
M  V30 4772 H 464.632 -1.56245 0.0415934 0
M  V30 4773 H 465.367 -2.15639 -2.42219 0
M  V30 4774 H 465.152 -3.64219 -1.45214 0
M  V30 4775 H 466.642 -3.4075 -2.4141 0
M  V30 4776 N 467.08 -0.0183926 -1.57589 0
M  V30 4777 C 468.496 0.337897 -1.55982 0
M  V30 4778 C 468.696 1.73604 -1.02294 0
M  V30 4779 O 467.752 2.43589 -0.664895 0
M  V30 4780 C 469.065 0.196305 -3.00059 0
M  V30 4781 C 470.613 0.269875 -3.11834 0
M  V30 4782 C 471.088 0.157197 -4.5773 0
M  V30 4783 N 472.579 0.214521 -4.62703 0
M  V30 4784 C 473.314 0.150955 -5.73201 0
M  V30 4785 N 472.81 0.0369212 -6.9279 0
M  V30 4786 N 474.603 0.204162 -5.61729 0
M  V30 4787 H 466.754 -0.93279 -1.90821 0
M  V30 4788 H 469.017 -0.359253 -0.877292 0
M  V30 4789 H 468.723 -0.766383 -3.43248 0
M  V30 4790 H 468.597 0.970908 -3.6449 0
M  V30 4791 H 470.984 1.22302 -2.68563 0
M  V30 4792 H 471.065 -0.534918 -2.50144 0
M  V30 4793 H 470.709 -0.792479 -5.01679 0
M  V30 4794 H 470.639 0.980717 -5.17387 0
M  V30 4795 H 473.13 0.303238 -3.76681 0
M  V30 4796 H 473.443 -0.00518321 -7.728 0
M  V30 4797 H 471.788 0.0022886 -6.95 0
M  V30 4798 H 474.979 0.291575 -4.67191 0
M  V30 4799 H 475.152 0.15116 -6.47824 0
M  V30 4800 N 468.558 1.5553 0.254621 0
M  V30 4801 C 469.468 1.92789 1.33677 0
M  V30 4802 C 470.484 0.827356 1.53071 0
M  V30 4803 O 471.66 1.12807 1.66843 0
M  V30 4804 C 468.725 2.20827 2.67275 0
M  V30 4805 C 467.786 3.4427 2.5647 0
M  V30 4806 C 467.019 3.70961 3.83697 0
M  V30 4807 O 467.242 2.99852 4.85227 0
M  V30 4808 O 466.176 4.64491 3.82794 0
M  V30 4809 H 470.002 2.84945 1.05071 0
M  V30 4810 H 467.587 1.42312 0.454723 0
M  V30 4811 H 469.469 2.40204 3.46237 0
M  V30 4812 H 468.144 1.31851 2.9563 0
M  V30 4813 H 467.051 3.30209 1.75821 0
M  V30 4814 H 468.384 4.33524 2.33062 0
M  V30 4815 N 470.036 -0.519951 1.48776 0
M  V30 4816 C 470.999 -1.60574 1.6355 0
M  V30 4817 C 471.999 -1.52557 0.508234 0
M  V30 4818 O 473.189 -1.56047 0.774262 0
M  V30 4819 C 470.321 -3.00211 1.61512 0
M  V30 4820 H 471.514 -1.4881 2.60376 0
M  V30 4821 H 469.067 -0.742772 1.37523 0
M  V30 4822 H 469.802 -3.17471 0.662009 0
M  V30 4823 H 469.587 -3.07439 2.43359 0
M  V30 4824 H 471.077 -3.79134 1.75064 0
M  V30 4825 N 471.514 -1.37532 -0.769588 0
M  V30 4826 C 472.739 -1.36231 -1.56384 0
M  V30 4827 C 473.164 0.0495849 -1.88035 0
M  V30 4828 O 472.522 1.02723 -1.49391 0
M  V30 4829 C 472.57 -2.20986 -2.84952 0
M  V30 4830 O 471.674 -1.61597 -3.79421 0
M  V30 4831 H 471.015 -0.465387 -0.473615 0
M  V30 4832 H 473.545 -1.81085 -0.952342 0
M  V30 4833 H 473.555 -2.34277 -3.34034 0
M  V30 4834 H 472.23 -3.23612 -2.61243 0
M  V30 4835 H 470.807 -1.57359 -3.38072 0
M  V30 4836 N 472.992 0.995999 -1.22138 0
M  V30 4837 C 473.955 2.06711 -0.990109 0
M  V30 4838 C 474.955 1.60744 0.0422978 0
M  V30 4839 O 476.145 1.73095 -0.195895 0
M  V30 4840 C 473.277 3.37288 -0.49491 0
M  V30 4841 H 474.47 2.28661 -1.94047 0
M  V30 4842 H 472.023 1.16711 -1.03963 0
M  V30 4843 H 472.758 3.21022 0.459948 0
M  V30 4844 H 472.543 3.71986 -1.23971 0
M  V30 4845 H 474.033 4.16103 -0.353253 0
M  V30 4846 N 474.47 1.03057 1.19235 0
M  V30 4847 C 475.417 0.612832 2.22515 0
M  V30 4848 C 476.387 -0.374224 1.61829 0
M  V30 4849 O 477.572 -0.270501 1.88873 0
M  V30 4850 C 474.712 -0.028475 3.45088 0
M  V30 4851 C 473.825 1.00483 4.20151 0
M  V30 4852 C 472.96 0.333102 5.30155 0
M  V30 4853 C 471.999 1.3522 5.96977 0
M  V30 4854 N 471.136 0.70616 6.9854 0
M  V30 4855 H 475.976 1.49812 2.57605 0
M  V30 4856 H 473.513 0.749658 1.26564 0
M  V30 4857 H 475.471 -0.417548 4.15105 0
M  V30 4858 H 474.101 -0.877334 3.10649 0
M  V30 4859 H 473.153 1.51194 3.49062 0
M  V30 4860 H 474.465 1.77929 4.65986 0
M  V30 4861 H 473.619 -0.110725 6.06599 0
M  V30 4862 H 472.358 -0.473547 4.85396 0
M  V30 4863 H 471.363 1.80627 5.19282 0
M  V30 4864 H 472.588 2.16037 6.4382 0
M  V30 4865 H 470.534 -0.0803667 6.55951 0
M  V30 4866 H 470.451 1.41848 7.42573 0
M  V30 4867 H 471.719 0.286391 7.78974 0
M  V30 4868 N 475.948 -1.35272 0.808662 0
M  V30 4869 C 476.878 -2.32315 0.234981 0
M  V30 4870 C 477.859 -1.57572 -0.64071 0
M  V30 4871 O 479.044 -1.8563 -0.570551 0
M  V30 4872 C 476.174 -3.41801 -0.615601 0
M  V30 4873 C 475.128 -4.27694 0.161767 0
M  V30 4874 C 474.454 -5.28519 -0.810649 0
M  V30 4875 C 475.754 -5.04231 1.36193 0
M  V30 4876 H 477.448 -2.80543 1.04575 0
M  V30 4877 H 474.994 -1.3488 0.504315 0
M  V30 4878 H 476.947 -4.08693 -1.02702 0
M  V30 4879 H 475.671 -2.92186 -1.45928 0
M  V30 4880 H 474.33 -3.62384 0.554382 0
M  V30 4881 H 473.978 -4.75171 -1.64988 0
M  V30 4882 H 473.678 -5.8686 -0.294822 0
M  V30 4883 H 475.202 -5.98283 -1.22023 0
M  V30 4884 H 476.616 -5.64058 1.02528 0
M  V30 4885 H 475.013 -5.72077 1.81239 0
M  V30 4886 H 476.083 -4.34753 2.14751 0
M  V30 4887 N 477.426 -0.562348 -1.47226 0
M  V30 4888 C 478.842 -0.222492 -1.58042 0
M  V30 4889 C 479.042 1.27505 -1.56028 0
M  V30 4890 O 478.098 2.05555 -1.46641 0
M  V30 4891 C 479.411 -0.853694 -2.88327 0
M  V30 4892 C 480.959 -0.825397 -3.01921 0
M  V30 4893 C 481.434 -1.43576 -4.34914 0
M  V30 4894 N 482.925 -1.39918 -4.41562 0
M  V30 4895 C 483.66 -1.84103 -5.43041 0
M  V30 4896 N 483.156 -2.36167 -6.51304 0
M  V30 4897 N 484.949 -1.75142 -5.34118 0
M  V30 4898 H 477.1 -1.53525 -1.46778 0
M  V30 4899 H 479.363 -0.640527 -0.698877 0
M  V30 4900 H 479.069 -1.90635 -2.95552 0
M  V30 4901 H 478.943 -0.34977 -3.75575 0
M  V30 4902 H 481.33 0.218583 -2.94289 0
M  V30 4903 H 481.411 -1.36713 -2.16202 0
M  V30 4904 H 481.055 -2.47884 -4.43301 0
M  V30 4905 H 480.985 -0.869427 -5.19373 0
M  V30 4906 H 483.476 -1.0184 -3.63919 0
M  V30 4907 H 483.789 -2.67793 -7.24919 0
M  V30 4908 H 482.134 -2.40181 -6.52179 0
M  V30 4909 H 485.325 -1.34241 -4.48439 0
M  V30 4910 H 485.498 -2.09895 -6.13065 0
M  V30 4911 N 478.904 1.54736 -0.299062 0
M  V30 4912 C 479.834 2.26409 0.571085 0
M  V30 4913 C 480.815 1.2629 1.13951 0
M  V30 4914 O 482 1.55059 1.16921 0
M  V30 4915 C 479.13 3.00338 1.74396 0
M  V30 4916 C 478.084 4.07588 1.30599 0
M  V30 4917 C 477.41 4.69222 2.56387 0
M  V30 4918 C 478.71 5.20455 0.438645 0
M  V30 4919 H 480.404 2.99388 -0.0266991 0
M  V30 4920 H 477.95 1.43993 -0.0142812 0
M  V30 4921 H 479.903 3.49198 2.35878 0
M  V30 4922 H 478.627 2.24934 2.36796 0
M  V30 4923 H 477.286 3.59575 0.71424 0
M  V30 4924 H 476.934 3.9046 3.17097 0
M  V30 4925 H 476.634 5.41653 2.27784 0
M  V30 4926 H 478.158 5.20844 3.18675 0
M  V30 4927 H 479.572 5.65221 0.959085 0
M  V30 4928 H 477.969 5.99594 0.246466 0
M  V30 4929 H 479.039 4.8192 -0.536738 0
M  V30 4930 N 480.382 0.0267497 1.57577 0
M  V30 4931 C 481.314 -0.984594 2.06974 0
M  V30 4932 C 482.327 -1.29032 0.992705 0
M  V30 4933 O 483.516 -1.25539 1.26895 0
M  V30 4934 C 480.616 -2.31262 2.47732 0
M  V30 4935 C 479.789 -2.1924 3.78487 0
M  V30 4936 C 478.848 -3.34956 4.05821 0
M  V30 4937 O 477.874 -3.11948 4.76106 0
M  V30 4938 N 479.076 -4.58672 3.55809 0
M  V30 4939 H 481.841 -0.563143 2.94362 0
M  V30 4940 H 479.402 -0.160061 1.61107 0
M  V30 4941 H 481.394 -3.07496 2.63112 0
M  V30 4942 H 479.964 -2.65056 1.65723 0
M  V30 4943 H 479.184 -1.27747 3.72927 0
M  V30 4944 H 480.472 -2.08409 4.64158 0
M  V30 4945 H 479.87 -4.8026 2.98942 0
M  V30 4946 H 478.427 -5.32083 3.76472 0
M  V30 4947 N 481.861 -1.55662 -0.24637 0
M  V30 4948 C 482.793 -1.86811 -1.32794 0
M  V30 4949 C 483.806 -0.754413 -1.44265 0
M  V30 4950 O 484.995 -1.03253 -1.45606 0
M  V30 4951 C 482.095 -2.0397 -2.70646 0
M  V30 4952 C 481.268 -3.34832 -2.81436 0
M  V30 4953 C 480.327 -3.41727 -4.00136 0
M  V30 4954 O 479.353 -4.14934 -3.89639 0
M  V30 4955 N 480.555 -2.71058 -5.1333 0
M  V30 4956 H 483.32 -2.80174 -1.06409 0
M  V30 4957 H 480.881 -1.55906 -0.43647 0
M  V30 4958 H 482.873 -2.05924 -3.48393 0
M  V30 4959 H 481.443 -1.1735 -2.89738 0
M  V30 4960 H 480.663 -3.4519 -1.90361 0
M  V30 4961 H 481.951 -4.21085 -2.85595 0
M  V30 4962 H 481.349 -2.11314 -5.2475 0
M  V30 4963 H 479.906 -2.78704 -5.89209 0
M  V30 4964 N 483.339 0.512053 -1.4905 0
M  V30 4965 C 484.586 1.26686 -1.57978 0
M  V30 4966 C 484.914 1.92733 -0.261553 0
M  V30 4967 O 484.169 1.80772 0.749667 0
M  V30 4968 C 484.468 2.36446 -2.68008 0
M  V30 4969 C 484.134 1.87932 -4.09869 0
M  V30 4970 C 482.796 1.74419 -4.48477 0
M  V30 4971 C 485.148 1.5149 -4.98698 0
M  V30 4972 C 482.476 1.22827 -5.73699 0
M  V30 4973 C 484.828 1.01355 -6.24428 0
M  V30 4974 C 483.492 0.864735 -6.61875 0
M  V30 4975 H 482.762 0.463577 -0.578081 0
M  V30 4976 H 485.409 0.569421 -1.82838 0
M  V30 4977 H 483.714 3.11933 -2.37076 0
M  V30 4978 H 485.411 2.9453 -2.72127 0
M  V30 4979 H 482.001 1.99405 -3.79389 0
M  V30 4980 H 486.185 1.60782 -4.69535 0
M  V30 4981 H 481.441 1.10008 -6.01422 0
M  V30 4982 H 485.615 0.722351 -6.92644 0
M  V30 4983 H 483.242 0.462777 -7.5879 0
M  V30 4984 N 484.817 1.37938 0.762283 0
M  V30 4985 C 486.066 1.32989 1.51647 0
M  V30 4986 C 486.379 -0.0802922 1.95435 0
M  V30 4987 O 487.585 -0.252295 2.70325 0
M  V30 4988 C 486.041 2.33485 2.73885 0
M  V30 4989 C 485.649 3.80079 2.37157 0
M  V30 4990 C 487.393 2.37563 3.51801 0
M  V30 4991 C 485.3 4.72283 3.55954 0
M  V30 4992 H 484.23 0.494301 0.56937 0
M  V30 4993 H 486.881 1.63448 0.834083 0
M  V30 4994 H 485.263 1.96056 3.44061 0
M  V30 4995 H 486.437 4.26398 1.74704 0
M  V30 4996 H 484.752 3.79037 1.72395 0
M  V30 4997 H 487.349 3.0365 4.40114 0
M  V30 4998 H 487.692 1.39199 3.92338 0
M  V30 4999 H 488.225 2.73747 2.8863 0
M  V30 5000 H 484.964 5.7181 3.2049 0
M  V30 5001 H 484.484 4.30663 4.1748 0
M  V30 5002 H 486.163 4.89876 4.22647 0
M  V30 5003 N 486.295 -0.989507 1.22664 0
M  V30 5004 C 487.205 -2.11449 1.01619 0
M  V30 5005 C 488.221 -1.73962 -0.036545 0
M  V30 5006 O 489.397 -2.00788 0.156924 0
M  V30 5007 C 486.462 -3.41465 0.600204 0
M  V30 5008 C 485.523 -3.93033 1.72695 0
M  V30 5009 C 484.756 -5.16844 1.33071 0
M  V30 5010 O 484.979 -5.7001 0.210975 0
M  V30 5011 O 483.913 -5.6225 2.14845 0
M  V30 5012 H 487.739 -2.32088 1.9588 0
M  V30 5013 H 485.324 -1.09823 1.01289 0
M  V30 5014 H 487.206 -4.19695 0.37873 0
M  V30 5015 H 485.881 -3.22178 -0.313511 0
M  V30 5016 H 484.788 -3.15961 2.00298 0
M  V30 5017 H 486.121 -4.16758 2.61865 0
M  V30 5018 N 487.773 -1.03688 -1.18687 0
M  V30 5019 C 488.683 -0.634908 -2.25845 0
M  V30 5020 C 489.699 0.337065 -1.70704 0
M  V30 5021 O 490.875 0.192943 -2.00474 0
M  V30 5022 C 487.94 -0.000180054 -3.467 0
M  V30 5023 C 487.001 -1.02067 -4.1699 0
M  V30 5024 C 486.234 -0.41614 -5.32075 0
M  V30 5025 O 486.457 0.778712 -5.65059 0
M  V30 5026 O 485.391 -1.14296 -5.90948 0
M  V30 5027 H 489.217 -1.52757 -2.62486 0
M  V30 5028 H 486.802 -0.807533 -1.25695 0
M  V30 5029 H 488.684 0.353342 -4.19916 0
M  V30 5030 H 487.359 0.866367 -3.11891 0
M  V30 5031 H 486.266 -1.42592 -3.45859 0
M  V30 5032 H 487.599 -1.85786 -4.5579 0
M  V30 5033 N 489.251 1.34841 -0.815825 0
M  V30 5034 C 490.181 2.32187 -0.247298 0
M  V30 5035 C 491.162 1.5791 0.632344 0
M  V30 5036 O 492.347 1.8593 0.560698 0
M  V30 5037 C 489.477 3.42122 0.597466 0
M  V30 5038 C 488.431 4.27602 -0.184446 0
M  V30 5039 C 487.757 5.28942 0.782609 0
M  V30 5040 C 489.057 5.03502 -1.38865 0
M  V30 5041 H 490.751 2.79985 -1.06061 0
M  V30 5042 H 488.297 1.34611 -0.511461 0
M  V30 5043 H 490.25 4.09232 1.00533 0
M  V30 5044 H 488.974 2.92956 1.44376 0
M  V30 5045 H 487.633 3.62085 -0.573592 0
M  V30 5046 H 487.281 4.7604 1.62466 0
M  V30 5047 H 486.981 5.87008 0.263695 0
M  V30 5048 H 488.505 5.98922 1.18848 0
M  V30 5049 H 489.919 5.63506 -1.05518 0
M  V30 5050 H 488.316 5.71108 -1.8427 0
M  V30 5051 H 489.386 4.33608 -2.17054 0
M  V30 5052 N 490.729 0.570148 1.46925 0
M  V30 5053 C 491.659 -0.158274 2.32963 0
M  V30 5054 C 492.64 -0.896093 1.44583 0
M  V30 5055 O 493.825 -0.874022 1.7342 0
M  V30 5056 C 490.955 -1.18055 3.26619 0
M  V30 5057 C 489.909 -0.558379 4.24342 0
M  V30 5058 C 489.235 -1.68623 5.07415 0
M  V30 5059 C 490.535 0.496295 5.19937 0
M  V30 5060 H 492.229 0.560046 2.94115 0
M  V30 5061 H 489.775 0.270775 1.41431 0
M  V30 5062 H 491.728 -1.69841 3.85658 0
M  V30 5063 H 490.452 -1.92899 2.63548 0
M  V30 5064 H 489.111 -0.0617157 3.66548 0
M  V30 5065 H 488.759 -2.42402 4.40738 0
M  V30 5066 H 488.459 -1.27564 5.73586 0
M  V30 5067 H 489.983 -2.20709 5.69315 0
M  V30 5068 H 491.397 0.0640052 5.73264 0
M  V30 5069 H 489.794 0.82649 5.94381 0
M  V30 5070 H 490.864 1.38735 4.6463 0
M  V30 5071 N 492.207 -1.54576 0.307264 0
M  V30 5072 C 493.117 -2.27435 -0.57536 0
M  V30 5073 C 494.133 -1.31183 -1.14311 0
M  V30 5074 O 495.309 -1.64175 -1.16656 0
M  V30 5075 C 492.374 -3.00566 -1.72803 0
M  V30 5076 C 491.435 -4.12369 -1.19373 0
M  V30 5077 C 490.668 -4.82003 -2.29147 0
M  V30 5078 O 490.891 -4.51038 -3.49171 0
M  V30 5079 O 489.825 -5.69271 -1.95485 0
M  V30 5080 H 493.651 -3.03696 0.0158558 0
M  V30 5081 H 491.236 -1.49219 0.0735064 0
M  V30 5082 H 493.118 -3.46416 -2.39946 0
M  V30 5083 H 491.793 -2.27195 -2.30574 0
M  V30 5084 H 490.7 -3.70905 -0.487851 0
M  V30 5085 H 492.033 -4.87736 -0.661376 0
M  V30 5086 N 493.685 -0.035106 -1.57561 0
M  V30 5087 C 495.101 0.321334 -1.56332 0
M  V30 5088 C 495.301 1.72509 -1.04129 0
M  V30 5089 O 494.357 2.4287 -0.690694 0
M  V30 5090 C 495.67 0.164469 -3.0025 0
M  V30 5091 C 497.218 0.236786 -3.12103 0
M  V30 5092 C 497.693 0.10864 -4.57871 0
M  V30 5093 N 499.184 0.165433 -4.62904 0
M  V30 5094 C 499.919 0.0901506 -5.73329 0
M  V30 5095 N 499.415 -0.0365606 -6.9279 0
M  V30 5096 N 501.208 0.144572 -5.61914 0
M  V30 5097 H 493.359 -0.952976 -1.89821 0
M  V30 5098 H 495.622 -0.368537 -0.873432 0
M  V30 5099 H 495.328 -0.802746 -3.42416 0
M  V30 5100 H 495.202 0.932194 -3.655 0
M  V30 5101 H 497.589 1.19446 -2.69845 0
M  V30 5102 H 497.67 -0.561419 -2.49563 0
M  V30 5103 H 497.314 -0.845644 -5.00811 0
M  V30 5104 H 497.244 0.925786 -5.18398 0
M  V30 5105 H 499.735 0.263269 -3.76982 0
M  V30 5106 H 500.048 -0.0871487 -7.72751 0
M  V30 5107 H 498.393 -0.0714256 -6.94963 0
M  V30 5108 H 501.584 0.242006 -4.67474 0
M  V30 5109 H 501.757 0.0824413 -6.47948 0
M  V30 5110 N 495.163 1.55791 0.238111 0
M  V30 5111 C 496.126 1.90239 1.27835 0
M  V30 5112 C 497.126 0.779552 1.4064 0
M  V30 5113 O 498.316 1.04747 1.3919 0
M  V30 5114 C 495.448 2.13859 2.65475 0
M  V30 5115 H 496.641 2.83262 0.985034 0
M  V30 5116 H 494.194 1.48818 0.477799 0
M  V30 5117 H 494.929 1.23334 2.99932 0
M  V30 5118 H 494.714 2.95643 2.57561 0
M  V30 5119 H 496.204 2.41664 3.40571 0
M  V30 5120 N 496.642 -0.504142 1.49319 0
M  V30 5121 C 497.919 -1.26548 1.49147 0
M  V30 5122 C 498.299 -2.09977 0.21744 0
M  V30 5123 O 497.647 -2.14028 -0.800269 0
M  V30 5124 C 497.857 -2.12489 2.76857 0
M  V30 5125 C 499.205 -2.7178 3.26222 0
M  V30 5126 O 500.229 -2.22758 2.77952 0
M  V30 5127 O 499.088 -3.61015 4.10281 0
M  V30 5128 H 496.182 -0.572495 0.596806 0
M  V30 5129 H 498.728 -0.51867 1.61579 0
M  V30 5130 H 497.5 -1.50796 3.61077 0
M  V30 5131 H 497.123 -2.94368 2.6727 0
M  V30 5132 N 498.12 -1.38341 -0.754957 0
M  V30 5133 C 499.536 -1.19508 -1.05783 0
M  V30 5134 C 499.736 -0.0428005 -2.01455 0
M  V30 5135 O 498.792 0.611861 -2.44975 0
M  V30 5136 C 500.105 -2.52091 -1.63923 0
M  V30 5137 C 501.653 -2.58762 -1.76101 0
M  V30 5138 C 502.128 -3.91517 -2.37652 0
M  V30 5139 N 503.619 -3.93049 -2.45085 0
M  V30 5140 C 504.354 -4.9253 -2.93602 0
M  V30 5141 N 503.85 -6.02408 -3.42165 0
M  V30 5142 N 505.643 -4.79921 -2.92629 0
M  V30 5143 H 497.794 -2.1206 -0.120056 0
M  V30 5144 H 500.057 -0.94089 -0.11589 0
M  V30 5145 H 499.763 -3.36858 -1.01093 0
M  V30 5146 H 499.637 -2.70388 -2.63003 0
M  V30 5147 H 502.024 -1.74391 -2.38058 0
M  V30 5148 H 502.105 -2.44333 -0.757294 0
M  V30 5149 H 501.749 -4.76309 -1.76329 0
M  V30 5150 H 501.679 -4.03256 -3.38662 0
M  V30 5151 H 504.17 -3.13685 -2.10736 0
M  V30 5152 H 504.483 -6.74248 -3.77637 0
M  V30 5153 H 502.828 -6.0603 -3.40225 0
M  V30 5154 H 506.019 -3.93194 -2.54001 0
M  V30 5155 H 506.192 -5.57601 -3.30128 0
M  V30 5156 N 499.598 0.982988 -1.23187 0
M  V30 5157 C 500.561 2.05649 -1.01198 0
M  V30 5158 C 501.561 1.6078 0.0252464 0
M  V30 5159 O 502.751 1.72878 -0.214243 0
M  V30 5160 C 499.883 3.36744 -0.530656 0
M  V30 5161 H 501.076 2.2659 -1.96461 0
M  V30 5162 H 498.629 1.15602 -1.05195 0
M  V30 5163 H 499.364 3.21492 0.425873 0
M  V30 5164 H 499.149 3.7065 -1.2791 0
M  V30 5165 H 500.639 4.15705 -0.397366 0
M  V30 5166 N 501.076 1.04316 1.18135 0
M  V30 5167 C 501.986 0.646876 2.25505 0
M  V30 5168 C 503.002 -0.328008 1.7088 0
M  V30 5169 O 504.178 -0.182309 2.00573 0
M  V30 5170 C 501.243 0.0185664 3.46695 0
M  V30 5171 C 500.304 1.04277 4.16443 0
M  V30 5172 C 499.537 0.444352 5.31847 0
M  V30 5173 O 499.76 -0.748735 5.65465 0
M  V30 5174 O 498.694 1.17428 5.90334 0
M  V30 5175 H 502.52 1.54147 2.61672 0
M  V30 5176 H 500.105 0.814188 1.25265 0
M  V30 5177 H 501.987 -0.331068 4.20097 0
M  V30 5178 H 500.662 -0.849814 3.12346 0
M  V30 5179 H 499.569 1.44425 3.45098 0
M  V30 5180 H 500.902 1.882 4.54798 0
M  V30 5181 N 502.554 -1.34406 0.822964 0
M  V30 5182 C 503.97 -1.51275 0.508727 0
M  V30 5183 C 504.17 -1.76776 -0.967083 0
M  V30 5184 O 503.226 -1.81871 -1.75155 0
M  V30 5185 C 504.539 -2.67765 1.36829 0
M  V30 5186 C 506.087 -2.81647 1.36542 0
M  V30 5187 C 506.562 -4.01181 2.20947 0
M  V30 5188 N 508.053 -4.08388 2.18571 0
M  V30 5189 C 508.788 -5.00036 2.80627 0
M  V30 5190 N 508.284 -5.96906 3.51674 0
M  V30 5191 N 510.077 -4.92908 2.70181 0
M  V30 5192 H 502.228 -1.16113 1.77852 0
M  V30 5193 H 504.491 -0.56947 0.757897 0
M  V30 5194 H 504.197 -2.55551 2.41633 0
M  V30 5195 H 504.071 -3.62779 1.03303 0
M  V30 5196 H 506.458 -2.93303 0.325163 0
M  V30 5197 H 506.539 -1.87443 1.74066 0
M  V30 5198 H 506.183 -3.90286 3.25022 0
M  V30 5199 H 506.113 -4.94599 1.80774 0
M  V30 5200 H 508.604 -3.39051 1.66891 0
M  V30 5201 H 508.917 -6.63468 3.96271 0
M  V30 5202 H 507.262 -5.9703 3.5578 0
M  V30 5203 H 510.453 -4.1619 2.14251 0
M  V30 5204 H 510.626 -5.64137 3.18831 0
M  V30 5205 N 504.032 -0.577932 -1.46621 0
M  V30 5206 C 504.964 0.195801 -2.28362 0
M  V30 5207 C 505.977 0.859983 -1.38232 0
M  V30 5208 O 507.166 0.730349 -1.62875 0
M  V30 5209 C 504.266 1.29639 -3.13124 0
M  V30 5210 C 503.439 0.725049 -4.31349 0
M  V30 5211 C 502.498 1.71274 -4.97546 0
M  V30 5212 O 501.524 1.25067 -5.5529 0
M  V30 5213 N 502.726 3.04672 -4.94121 0
M  V30 5214 H 505.491 -0.505468 -2.95407 0
M  V30 5215 H 503.052 -0.415381 -1.56481 0
M  V30 5216 H 505.044 1.95631 -3.54275 0
M  V30 5217 H 503.614 1.90059 -2.48186 0
M  V30 5218 H 502.834 -0.112205 -3.9404 0
M  V30 5219 H 504.122 0.323034 -5.07774 0
M  V30 5220 H 503.52 3.4484 -4.48444 0
M  V30 5221 H 502.077 3.66166 -5.39227 0
M  V30 5222 N 505.51 1.54411 -0.315457 0
M  V30 5223 C 506.44 2.27002 0.547039 0
M  V30 5224 C 507.421 1.27492 1.12605 0
M  V30 5225 O 508.606 1.5629 1.15269 0
M  V30 5226 C 505.736 3.02171 1.71201 0
M  V30 5227 C 504.69 4.0895 1.26268 0
M  V30 5228 C 504.016 4.71915 2.51396 0
M  V30 5229 C 505.316 5.20891 0.383419 0
M  V30 5230 H 507.01 2.99343 -0.0584517 0
M  V30 5231 H 504.556 1.4397 -0.0295527 0
M  V30 5232 H 506.509 3.51681 2.32161 0
M  V30 5233 H 505.233 2.27433 2.34397 0
M  V30 5234 H 503.892 3.60312 0.676062 0
M  V30 5235 H 503.54 3.93801 3.12937 0
M  V30 5236 H 503.24 5.44039 2.22026 0
M  V30 5237 H 504.764 5.24195 3.13133 0
M  V30 5238 H 506.178 5.66206 0.899082 0
M  V30 5239 H 504.575 5.99821 0.182857 0
M  V30 5240 H 505.645 4.81324 -0.587821 0
M  V30 5241 N 506.988 0.0434614 1.5754 0
M  V30 5242 C 507.92 -0.962586 2.08007 0
M  V30 5243 C 508.933 -1.27972 1.00634 0
M  V30 5244 O 510.122 -1.24186 1.28219 0
M  V30 5245 C 507.222 -2.28621 2.50171 0
M  V30 5246 C 506.395 -2.15214 3.80791 0
M  V30 5247 C 505.454 -3.30633 4.09351 0
M  V30 5248 O 504.48 -3.0688 4.79388 0
M  V30 5249 N 505.682 -4.54873 3.60654 0
M  V30 5250 H 508.447 -0.531891 2.94942 0
M  V30 5251 H 506.008 -0.142965 1.61268 0
M  V30 5252 H 508 -3.04689 2.66359 0
M  V30 5253 H 506.57 -2.63283 1.68525 0
M  V30 5254 H 505.79 -1.23785 3.74261 0
M  V30 5255 H 507.078 -2.03475 4.66343 0
M  V30 5256 H 506.476 -4.77063 3.04019 0
M  V30 5257 H 505.033 -5.2806 3.82094 0
M  V30 5258 N 508.466 -1.55915 -0.229846 0
M  V30 5259 C 509.712 -1.78807 -0.956868 0
M  V30 5260 C 510.045 -0.611687 -1.84315 0
M  V30 5261 O 509.32 0.389398 -1.90562 0
M  V30 5262 C 509.603 -3.11718 -1.80288 0
M  V30 5263 C 509.456 -4.3979 -0.943649 0
M  V30 5264 C 510.775 -3.40999 -2.78222 0
M  V30 5265 H 507.894 -0.6505 -0.346437 0
M  V30 5266 H 510.536 -1.88648 -0.226252 0
M  V30 5267 H 508.686 -3.03459 -2.42579 0
M  V30 5268 H 510.358 -4.60059 -0.338121 0
M  V30 5269 H 508.601 -4.33086 -0.248705 0
M  V30 5270 H 509.272 -5.29208 -1.5698 0
M  V30 5271 H 511.748 -3.49332 -2.26067 0
M  V30 5272 H 510.624 -4.35183 -3.34526 0
M  V30 5273 H 510.885 -2.62754 -3.55546 0
M  V30 5274 N 509.944 0.496216 -1.49584 0
M  V30 5275 C 511.193 1.24668 -1.58558 0
M  V30 5276 C 511.506 1.9359 -0.279703 0
M  V30 5277 O 512.712 2.70365 -0.248048 0
M  V30 5278 C 511.168 2.26388 -2.79779 0
M  V30 5279 C 510.776 1.63384 -4.17145 0
M  V30 5280 C 512.52 3.02233 -2.98086 0
M  V30 5281 C 510.427 2.63243 -5.29582 0
M  V30 5282 H 509.357 0.468995 -0.590389 0
M  V30 5283 H 512.008 0.519985 -1.75978 0
M  V30 5284 H 510.39 3.02241 -2.55863 0
M  V30 5285 H 511.564 0.93491 -4.51216 0
M  V30 5286 H 509.879 0.999121 -4.04236 0
M  V30 5287 H 512.476 3.76919 -3.79257 0
M  V30 5288 H 512.819 3.60132 -2.08831 0
M  V30 5289 H 513.352 2.33495 -3.22063 0
M  V30 5290 H 510.091 2.10119 -6.20911 0
M  V30 5291 H 509.611 3.31363 -4.99959 0
M  V30 5292 H 511.29 3.25575 -5.59115 0
M  V30 5293 N 511.423 1.38739 0.74761 0
M  V30 5294 C 512.648 1.38702 1.54197 0
M  V30 5295 C 513.073 -0.019664 1.8809 0
M  V30 5296 O 512.431 -1.00333 1.51006 0
M  V30 5297 C 512.479 2.25492 2.814 0
M  V30 5298 O 511.583 1.67613 3.76802 0
M  V30 5299 H 510.924 0.472863 0.466151 0
M  V30 5300 H 513.454 1.82577 0.923413 0
M  V30 5301 H 513.464 2.39561 3.30264 0
M  V30 5302 H 512.139 3.27727 2.56062 0
M  V30 5303 H 510.716 1.62718 3.35526 0
M  V30 5304 N 512.901 -0.976442 1.23707 0
M  V30 5305 C 514.126 -1.75875 1.09922 0
M  V30 5306 C 514.551 -1.84911 -0.34489 0
M  V30 5307 O 513.909 -1.31363 -1.24954 0
M  V30 5308 C 513.957 -3.16179 1.73388 0
M  V30 5309 O 513.061 -4.00124 0.99871 0
M  V30 5310 H 512.402 -0.540954 0.385052 0
M  V30 5311 H 514.932 -1.22546 1.6384 0
M  V30 5312 H 514.942 -3.66741 1.78788 0
M  V30 5313 H 513.617 -3.08917 2.78466 0
M  V30 5314 H 512.194 -3.58624 1.02193 0
M  V30 5315 N 514.379 -1.04941 -1.1758 0
M  V30 5316 C 515.604 -0.778253 -1.92245 0
M  V30 5317 C 516.029 0.659707 -1.76152 0
M  V30 5318 O 515.387 1.45803 -1.07755 0
M  V30 5319 C 515.435 -1.16051 -3.41416 0
M  V30 5320 O 514.539 -0.291153 -4.11371 0
M  V30 5321 H 513.88 -0.285619 -0.599431 0
M  V30 5322 H 516.41 -1.40159 -1.49052 0
M  V30 5323 H 516.42 -1.12619 -3.92149 0
M  V30 5324 H 515.095 -2.208 -3.52449 0
M  V30 5325 H 513.672 -0.385851 -3.70898 0
M  V30 5326 N 515.857 1.33968 -0.830081 0
M  V30 5327 C 517.097 1.99879 -0.427521 0
M  V30 5328 C 517.461 1.64355 0.992546 0
M  V30 5329 O 518.662 2.23164 1.49837 0
M  V30 5330 C 516.933 3.51771 -0.631815 0
M  V30 5331 S 518.492 4.37608 -0.323168 0
M  V30 5332 H 515.31 0.692485 -0.161202 0
M  V30 5333 H 517.912 1.63129 -1.07745 0
M  V30 5334 H 516.616 3.75113 -1.66488 0
M  V30 5335 H 516.147 3.93386 0.0325936 0
M  V30 5336 H 518.162 4.88683 0.860432 0
M  V30 5337 N 517.335 0.585699 1.46312 0
M  V30 5338 C 518.583 0.072278 2.01971 0
M  V30 5339 C 518.904 -1.29345 1.45928 0
M  V30 5340 O 518.174 -1.84973 0.645109 0
M  V30 5341 H 516.754 0.023729 0.746623 0
M  V30 5342 H 519.416 0.762155 1.7938 0
M  V30 5343 H 518.512 0.00552767 3.121 0
M  V30 5344 N 518.813 -1.54241 0.323641 0
M  V30 5345 C 520.038 -2.05452 -0.283605 0
M  V30 5346 C 520.463 -1.19823 -1.44997 0
M  V30 5347 O 519.821 -0.207358 -1.8011 0
M  V30 5348 C 519.869 -3.53823 -0.695795 0
M  V30 5349 O 518.973 -3.71134 -1.79815 0
M  V30 5350 H 518.314 -0.662024 -0.0511917 0
M  V30 5351 H 520.844 -1.99079 0.472073 0
M  V30 5352 H 520.854 -3.96094 -0.978434 0
M  V30 5353 H 519.529 -4.15602 0.157287 0
M  V30 5354 H 518.106 -3.40768 -1.51431 0
M  V30 5355 N 520.291 -0.0518155 -1.57515 0
M  V30 5356 C 521.519 0.631395 -1.9703 0
M  V30 5357 C 521.934 1.64341 -0.92938 0
M  V30 5358 O 521.291 1.82296 0.0863266 0
M  V30 5359 C 521.342 1.31774 -3.36627 0
M  V30 5360 O 521.063 0.346247 -4.3673 0
M  V30 5361 C 522.564 2.09065 -3.90905 0
M  V30 5362 H 519.784 0.172576 -0.648428 0
M  V30 5363 H 522.328 -0.118306 -2.04158 0
M  V30 5364 H 520.483 2.01867 -3.30649 0
M  V30 5365 H 520.897 0.836226 -5.17791 0
M  V30 5366 H 522.371 2.52508 -4.9086 0
M  V30 5367 H 522.848 2.93908 -3.26366 0
M  V30 5368 H 523.454 1.43882 -4.00223 0
M  V30 5369 N 521.769 1.56035 0.221574 0
M  V30 5370 C 523.18 1.69229 0.788567 0
M  V30 5371 C 523.531 0.653814 1.84986 0
M  V30 5372 O 522.656 -0.195065 2.15519 0
M  V30 5373 C 523.251 3.06809 1.43713 0
M  V30 5374 C 521.81 3.21858 1.95152 0
M  V30 5375 C 520.957 2.65155 0.811685 0
M  V30 5376 H 523.908 1.587 -0.00307894 0
M  V30 5377 H 523.929 3.02666 2.30594 0
M  V30 5378 H 523.441 3.82369 0.664475 0
M  V30 5379 H 521.542 2.51167 2.7522 0
M  V30 5380 H 521.655 4.29073 2.1315 0
M  V30 5381 H 520.019 2.23635 1.21899 0
M  V30 5382 H 520.802 3.43261 0.0516987 0
M  V30 5383 N 523.247 -0.488276 1.49845 0
M  V30 5384 C 524.472 -1.26997 1.63971 0
M  V30 5385 C 524.897 -1.85427 0.315994 0
M  V30 5386 O 524.255 -1.66475 -0.718032 0
M  V30 5387 C 524.303 -2.36689 2.72049 0
M  V30 5388 O 523.407 -3.40882 2.32107 0
M  V30 5389 H 522.748 -0.374376 0.548396 0
M  V30 5390 H 525.278 -0.583104 1.96115 0
M  V30 5391 H 525.288 -2.82262 2.94605 0
M  V30 5392 H 523.963 -1.93529 3.68129 0
M  V30 5393 H 522.54 -3.01139 2.19931 0
M  V30 5394 N 524.725 -1.39134 -0.740242 0
M  V30 5395 C 525.688 -1.37217 -1.83587 0
M  V30 5396 C 526.688 -0.270221 -1.58513 0
M  V30 5397 O 527.878 -0.527843 -1.6601 0
M  V30 5398 C 525.01 -1.13959 -3.21288 0
M  V30 5399 H 526.203 -2.34705 -1.86691 0
M  V30 5400 H 523.756 -1.24622 -0.94335 0
M  V30 5401 H 524.491 -0.17131 -3.23847 0
M  V30 5402 H 524.276 -1.93754 -3.40884 0
M  V30 5403 H 525.766 -1.15346 -4.01354 0
M  V30 5404 N 526.204 0.969867 -1.24223 0
M  V30 5405 C 527.429 1.75289 -1.10853 0
M  V30 5406 C 527.854 1.85091 0.335079 0
M  V30 5407 O 527.212 1.32024 1.24255 0
M  V30 5408 C 527.26 3.15255 -1.75062 0
M  V30 5409 O 526.364 3.99589 -1.01992 0
M  V30 5410 H 525.705 0.538904 -0.387915 0
M  V30 5411 H 528.235 1.21675 -1.64488 0
M  V30 5412 H 528.245 3.65787 -1.80731 0
M  V30 5413 H 526.92 3.07436 -2.801 0
M  V30 5414 H 525.497 3.58077 -1.04094 0
M  V30 5415 N 527.682 1.05563 1.17022 0
M  V30 5416 C 528.612 0.681026 2.23348 0
M  V30 5417 C 529.593 -0.322983 1.67005 0
M  V30 5418 O 530.778 -0.199746 1.9317 0
M  V30 5419 C 527.908 0.0589053 3.4725 0
M  V30 5420 C 526.862 0.988082 4.16438 0
M  V30 5421 C 526.188 0.229646 5.34207 0
M  V30 5422 C 527.488 2.31388 4.68249 0
M  V30 5423 H 529.182 1.56993 2.54938 0
M  V30 5424 H 526.728 0.756302 1.2254 0
M  V30 5425 H 528.681 -0.214982 4.20851 0
M  V30 5426 H 527.405 -0.864968 3.14938 0
M  V30 5427 H 526.064 1.24659 3.44754 0
M  V30 5428 H 525.712 -0.697111 4.98146 0
M  V30 5429 H 525.412 0.848815 5.81437 0
M  V30 5430 H 526.936 -0.0368694 6.10589 0
M  V30 5431 H 528.35 2.09964 5.33468 0
M  V30 5432 H 526.747 2.88736 5.26072 0
M  V30 5433 H 527.817 2.94982 3.84855 0
M  V30 5434 N 529.16 -1.33526 0.837174 0
M  V30 5435 C 530.408 -1.97446 0.431211 0
M  V30 5436 C 530.729 -1.6665 -1.01255 0
M  V30 5437 O 529.999 -0.964559 -1.70508 0
M  V30 5438 H 528.579 -0.73043 0.156463 0
M  V30 5439 H 531.241 -1.62918 1.06976 0
M  V30 5440 H 530.337 -3.07001 0.561877 0
M  V30 5441 N 530.638 -0.59345 -1.46 0
M  V30 5442 C 532.054 -0.255965 -1.57534 0
M  V30 5443 C 532.254 1.24167 -1.58697 0
M  V30 5444 O 531.31 2.02398 -1.50968 0
M  V30 5445 C 532.623 -0.91466 -2.86451 0
M  V30 5446 C 534.171 -0.889253 -3.00102 0
M  V30 5447 C 534.646 -1.52769 -4.3177 0
M  V30 5448 N 536.137 -1.49253 -4.38495 0
M  V30 5449 C 536.872 -1.9558 -5.39014 0
M  V30 5450 N 536.368 -2.49929 -6.46148 0
M  V30 5451 N 538.161 -1.86432 -5.30282 0
M  V30 5452 H 530.312 -1.56604 -1.43489 0
M  V30 5453 H 532.575 -0.655207 -0.685133 0
M  V30 5454 H 532.281 -1.96861 -2.91442 0
M  V30 5455 H 532.155 -0.429356 -3.74748 0
M  V30 5456 H 534.542 0.156111 -2.94687 0
M  V30 5457 H 534.623 -1.41268 -2.13253 0
M  V30 5458 H 534.267 -2.57231 -4.37944 0
M  V30 5459 H 534.197 -0.979398 -5.17412 0
M  V30 5460 H 536.688 -1.09536 -3.61677 0
M  V30 5461 H 537.001 -2.83109 -7.19075 0
M  V30 5462 H 535.346 -2.53961 -6.46938 0
M  V30 5463 H 538.537 -1.43722 -4.4549 0
M  V30 5464 H 538.71 -2.22852 -6.08474 0
M  V30 5465 N 532.116 1.54067 -0.331816 0
M  V30 5466 C 533.364 2.00319 0.267739 0
M  V30 5467 C 533.685 1.22148 1.52003 0
M  V30 5468 O 532.955 0.325494 1.93177 0
M  V30 5469 H 531.535 0.740014 0.101922 0
M  V30 5470 H 534.197 1.89628 -0.450267 0
M  V30 5471 H 533.293 3.07765 0.518385 0
M  V30 5472 N 533.594 0.0601682 1.57485 0
M  V30 5473 C 534.842 -0.610386 1.92662 0
M  V30 5474 C 535.163 -1.70849 0.939981 0
M  V30 5475 O 534.433 -1.95895 -0.0137455 0
M  V30 5476 H 533.013 -0.228457 0.711208 0
M  V30 5477 H 535.675 0.115288 1.94559 0
M  V30 5478 H 534.771 -1.0432 2.94149 0
M  V30 5479 N 535.072 -1.5615 -0.213296 0
M  V30 5480 C 536.32 -1.79191 -0.934612 0
M  V30 5481 C 536.641 -0.630112 -1.84539 0
M  V30 5482 O 535.911 0.35257 -1.92701 0
M  V30 5483 H 534.491 -0.660937 -0.348097 0
M  V30 5484 H 537.153 -1.93618 -0.22317 0
M  V30 5485 H 536.249 -2.71656 -1.53654 0
M  V30 5486 N 536.55 0.480323 -1.50102 0
M  V30 5487 C 537.798 1.23063 -1.60312 0
M  V30 5488 C 538.119 1.92659 -0.301226 0
M  V30 5489 O 537.389 1.83691 0.680753 0
M  V30 5490 H 535.969 0.457231 -0.590719 0
M  V30 5491 H 538.631 0.554893 -1.86834 0
M  V30 5492 H 537.727 1.9835 -2.40964 0
M  V30 5493 N 538.028 1.39524 0.732853 0
M  V30 5494 C 539.276 1.36594 1.48951 0
M  V30 5495 C 539.597 -0.0367507 1.94965 0
M  V30 5496 O 538.867 -0.988391 1.69138 0
M  V30 5497 H 537.447 0.502673 0.552566 0
M  V30 5498 H 540.109 1.74411 0.869869 0
M  V30 5499 H 539.205 2.03 2.3706 0
M  V30 5500 N 539.506 -0.963266 1.24736 0
M  V30 5501 C 540.754 -1.70343 1.08755 0
M  V30 5502 C 541.075 -1.91387 -0.373619 0
M  V30 5503 O 540.345 -1.4948 -1.2662 0
M  V30 5504 H 538.925 -0.631224 0.399456 0
M  V30 5505 H 541.587 -1.15859 1.56725 0
M  V30 5506 H 540.683 -2.68616 1.58909 0
M  V30 5507 N 540.985 -1.06182 -1.16461 0
M  V30 5508 C 541.948 -0.675723 -2.19013 0
M  V30 5509 C 542.948 0.277963 -1.58379 0
M  V30 5510 O 544.138 0.0604962 -1.74095 0
M  V30 5511 C 541.27 0.00591459 -3.40899 0
M  V30 5512 H 542.463 -1.58353 -2.54685 0
M  V30 5513 H 540.016 -0.856908 -1.30716 0
M  V30 5514 H 540.751 0.92652 -3.10783 0
M  V30 5515 H 540.536 -0.67984 -3.86161 0
M  V30 5516 H 542.026 0.26181 -4.16778 0
M  V30 5517 N 542.463 1.3308 -0.844243 0
M  V30 5518 C 543.711 1.97215 -0.441676 0
M  V30 5519 C 544.032 1.67185 1.0037 0
M  V30 5520 O 543.302 0.973588 1.69994 0
M  V30 5521 H 541.882 0.72959 -0.160335 0
M  V30 5522 H 544.544 1.62348 -1.07838 0
M  V30 5523 H 543.64 3.06698 -0.57815 0
M  V30 5524 N 543.941 0.601185 1.45683 0
M  V30 5525 C 545.352 0.179659 1.85834 0
M  V30 5526 C 545.703 -1.26189 1.50236 0
M  V30 5527 O 544.828 -1.95587 0.925987 0
M  V30 5528 C 545.423 0.319277 3.37292 0
M  V30 5529 C 543.982 -0.0475092 3.7637 0
M  V30 5530 C 543.129 0.646692 2.69654 0
M  V30 5531 H 546.08 0.808268 1.36575 0
M  V30 5532 H 546.101 -0.4503 3.77826 0
M  V30 5533 H 545.613 1.36855 3.6317 0
M  V30 5534 H 543.714 -1.0962 3.5611 0
M  V30 5535 H 543.827 0.34168 4.7788 0
M  V30 5536 H 542.191 0.0849971 2.54558 0
M  V30 5537 H 542.974 1.69797 2.98369 0
M  V30 5538 N 545.419 -1.53889 0.339982 0
M  V30 5539 C 546.367 -2.26391 -0.533822 0
M  V30 5540 C 547.361 -1.28404 -1.10493 0
M  V30 5541 O 548.567 -1.46124 -1.05108 0
M  V30 5542 H 544.942 -0.727385 -0.190828 0
M  V30 5543 H 546.913 -2.98233 0.0997484 0
M  V30 5544 C 545.662 -3.04707 -1.67479 0
M  V30 5545 H 544.985 -3.79934 -1.2446 0
M  V30 5546 H 546.425 -3.58657 -2.26144 0
M  V30 5547 C 544.884 -2.13989 -2.60212 0
M  V30 5548 O 545.414 -1.73361 -3.62366 0
M  V30 5549 N 543.62 -1.79141 -2.28816 0
M  V30 5550 H 543.167 -2.12378 -1.45785 0
M  V30 5551 H 543.125 -1.18725 -2.91121 0
M  V30 5552 N 546.897 -0.0685191 -1.57451 0
M  V30 5553 C 547.86 0.885173 -2.11417 0
M  V30 5554 C 548.86 1.22853 -1.03748 0
M  V30 5555 O 550.05 1.16235 -1.2975 0
M  V30 5556 C 547.182 2.18964 -2.61281 0
M  V30 5557 H 548.375 0.417034 -2.96986 0
M  V30 5558 H 545.928 0.18014 -1.55258 0
M  V30 5559 H 546.663 2.70321 -1.79156 0
M  V30 5560 H 546.448 1.9534 -3.39977 0
M  V30 5561 H 547.938 2.87242 -3.0312 0
M  V30 5562 N 548.375 1.56261 0.205012 0
M  V30 5563 C 549.791 1.49623 0.555433 0
M  V30 5564 C 549.991 0.766719 1.86343 0
M  V30 5565 O 549.047 0.313158 2.50551 0
M  V30 5566 C 550.36 2.94253 0.619347 0
M  V30 5567 C 551.908 3.04868 0.708855 0
M  V30 5568 C 552.383 4.50888 0.803969 0
M  V30 5569 N 553.874 4.54999 0.867758 0
M  V30 5570 C 554.609 5.65284 0.96135 0
M  V30 5571 N 554.105 6.85282 1.01786 0
M  V30 5572 N 555.898 5.53174 0.997771 0
M  V30 5573 H 548.049 2.0211 -0.653094 0
M  V30 5574 H 550.312 0.919333 -0.231366 0
M  V30 5575 H 550.018 3.50643 -0.272458 0
M  V30 5576 H 549.892 3.47063 1.47741 0
M  V30 5577 H 552.279 2.48532 1.5911 0
M  V30 5578 H 552.36 2.55199 -0.175205 0
M  V30 5579 H 552.004 5.07846 -0.0738798 0
M  V30 5580 H 551.934 4.98279 1.70369 0
M  V30 5581 H 554.425 3.68588 0.833735 0
M  V30 5582 H 554.738 7.65081 1.08951 0
M  V30 5583 H 553.083 6.8796 0.986706 0
M  V30 5584 H 556.274 4.5835 0.950392 0
M  V30 5585 H 556.447 6.39151 1.06725 0
M  V30 5586 N 549.853 -0.472356 1.50355 0
M  V30 5587 C 551.101 -1.22211 1.60962 0
M  V30 5588 C 551.422 -1.92497 0.311439 0
M  V30 5589 O 550.692 -1.8405 -0.671002 0
M  V30 5590 H 549.272 -0.454092 0.593135 0
M  V30 5591 H 551.934 -0.544977 1.87126 0
M  V30 5592 H 551.03 -1.9707 2.42012 0
M  V30 5593 N 551.331 -1.39911 -0.725443 0
M  V30 5594 C 552.742 -1.33599 -1.30415 0
M  V30 5595 C 553.093 -0.00481792 -1.96199 0
M  V30 5596 O 552.218 0.897275 -1.96921 0
M  V30 5597 C 552.813 -2.41965 -2.37146 0
M  V30 5598 C 551.372 -2.39144 -2.90667 0
M  V30 5599 C 550.519 -2.23355 -1.64341 0
M  V30 5600 H 553.47 -1.4986 -0.522267 0
M  V30 5601 H 553.491 -2.09304 -3.17761 0
M  V30 5602 H 553.003 -3.38837 -1.89238 0
M  V30 5603 H 551.104 -1.4594 -3.4283 0
M  V30 5604 H 551.217 -3.34362 -3.43131 0
M  V30 5605 H 549.581 -1.70696 -1.89037 0
M  V30 5606 H 550.364 -3.2221 -1.18471 0
M  V30 5607 N 552.809 0.956637 -1.25245 0
M  V30 5608 C 554.057 1.69764 -1.09657 0
M  V30 5609 C 554.378 1.91583 0.363464 0
M  V30 5610 O 553.648 1.50149 1.25825 0
M  V30 5611 H 552.228 0.629097 -0.402798 0
M  V30 5612 H 554.89 1.15026 -1.57337 0
M  V30 5613 H 553.986 2.67769 -1.60331 0
M  V30 5614 N 554.287 1.06798 1.15896 0
M  V30 5615 C 555.703 0.792423 1.38538 0
M  V30 5616 C 555.903 -0.60592 1.92174 0
M  V30 5617 O 554.959 -1.36561 2.12385 0
M  V30 5618 C 556.272 1.86157 2.36149 0
M  V30 5619 C 557.82 1.88567 2.49823 0
M  V30 5620 C 558.295 2.9455 3.5072 0
M  V30 5621 N 559.786 2.93616 3.58251 0
M  V30 5622 C 560.521 3.72267 4.36125 0
M  V30 5623 N 560.017 4.60751 5.17379 0
M  V30 5624 N 561.81 3.60637 4.31158 0
M  V30 5625 H 553.961 1.96993 0.794198 0
M  V30 5626 H 556.224 0.853942 0.411688 0
M  V30 5627 H 555.93 2.86603 2.03843 0
M  V30 5628 H 555.804 1.71692 3.3586 0
M  V30 5629 H 558.191 0.887765 2.8143 0
M  V30 5630 H 558.272 2.0711 1.5013 0
M  V30 5631 H 557.916 3.94537 3.19849 0
M  V30 5632 H 557.846 2.73255 4.50155 0
M  V30 5633 H 560.337 2.29472 3.00252 0
M  V30 5634 H 560.65 5.17408 5.74028 0
M  V30 5635 H 558.995 4.64803 5.16704 0
M  V30 5636 H 562.186 2.90892 3.66742 0
M  V30 5637 H 562.359 4.22176 4.91601 0
M  V30 5638 N 555.766 -1.3263 0.851289 0
M  V30 5639 C 556.699 -2.26952 0.238318 0
M  V30 5640 C 557.677 -1.50243 -0.621757 0
M  V30 5641 O 558.861 -1.79378 -0.579298 0
M  V30 5642 C 555.988 -3.32124 -0.664178 0
M  V30 5643 C 555.034 -4.26325 0.122067 0
M  V30 5644 S 555.867 -5.14404 1.48824 0
M  V30 5645 C 557.023 -6.231 0.591372 0
M  V30 5646 H 557.256 -2.78594 1.03791 0
M  V30 5647 H 554.789 -1.4011 0.648731 0
M  V30 5648 H 556.747 -3.93197 -1.17924 0
M  V30 5649 H 555.408 -2.79273 -1.43755 0
M  V30 5650 H 554.601 -5.00821 -0.565181 0
M  V30 5651 H 554.203 -3.69652 0.568602 0
M  V30 5652 H 556.495 -6.77187 -0.205762 0
M  V30 5653 H 557.438 -6.95936 1.30687 0
M  V30 5654 H 557.846 -5.64252 0.167206 0
M  V30 5655 N 557.244 -0.608902 -1.45362 0
M  V30 5656 C 558.66 -0.272659 -1.57254 0
M  V30 5657 C 558.86 1.22477 -1.60005 0
M  V30 5658 O 557.916 2.00785 -1.53106 0
M  V30 5659 C 559.229 -0.944991 -2.85465 0
M  V30 5660 C 560.777 -0.921033 -2.99142 0
M  V30 5661 C 561.252 -1.5734 -4.30126 0
M  V30 5662 N 562.743 -1.53895 -4.36887 0
M  V30 5663 C 563.478 -2.01286 -5.36909 0
M  V30 5664 N 562.974 -2.56768 -6.43461 0
M  V30 5665 N 564.767 -1.92046 -5.28275 0
M  V30 5666 H 556.918 -1.58117 -1.4182 0
M  V30 5667 H 559.181 -0.662437 -0.678146 0
M  V30 5668 H 558.887 -1.99941 -2.89338 0
M  V30 5669 H 558.761 -0.469079 -3.74272 0
M  V30 5670 H 561.148 0.124846 -2.94836 0
M  V30 5671 H 561.229 -1.43522 -2.11743 0
M  V30 5672 H 560.873 -2.61862 -4.35191 0
M  V30 5673 H 560.803 -1.03422 -5.16344 0
M  V30 5674 H 563.294 -1.13366 -3.60495 0
M  V30 5675 H 563.607 -2.9072 -7.16032 0
M  V30 5676 H 561.952 -2.60808 -6.44208 0
M  V30 5677 H 565.143 -1.48439 -4.43941 0
M  V30 5678 H 565.316 -2.29293 -6.06077 0
M  V30 5679 N 558.722 1.53707 -0.348139 0
M  V30 5680 C 559.632 2.28881 0.514857 0
M  V30 5681 C 560.648 1.34168 1.10793 0
M  V30 5682 O 561.824 1.6721 1.12262 0
M  V30 5683 C 558.889 3.05042 1.64774 0
M  V30 5684 C 557.95 4.15389 1.08398 0
M  V30 5685 C 557.183 4.87909 2.16287 0
M  V30 5686 O 557.406 4.60137 3.3709 0
M  V30 5687 O 556.34 5.74254 1.80323 0
M  V30 5688 H 560.166 3.03547 -0.0963699 0
M  V30 5689 H 557.751 1.48972 -0.113043 0
M  V30 5690 H 559.633 3.52656 2.30677 0
M  V30 5691 H 558.308 2.33228 2.24469 0
M  V30 5692 H 557.215 3.72068 0.389341 0
M  V30 5693 H 558.548 4.89318 0.531829 0
M  V30 5694 N 560.2 0.0768682 1.57412 0
M  V30 5695 C 561.15 -0.898795 2.09537 0
M  V30 5696 C 562.134 -1.25556 1.0062 0
M  V30 5697 O 563.326 -1.23369 1.26921 0
M  V30 5698 C 560.455 -2.16453 2.66464 0
M  V30 5699 C 559.541 -1.83401 3.82393 0
M  V30 5700 N 559.932 -1.20823 4.91157 0
M  V30 5701 C 558.23 -2.13121 3.91785 0
M  V30 5702 C 558.931 -1.05976 5.71965 0
M  V30 5703 N 557.907 -1.57113 5.204 0
M  V30 5704 H 561.709 -0.410718 2.91016 0
M  V30 5705 H 559.223 -0.126878 1.61904 0
M  V30 5706 H 561.22 -2.87274 3.02125 0
M  V30 5707 H 559.88 -2.65844 1.86433 0
M  V30 5708 H 560.891 -0.877249 5.10416 0
M  V30 5709 H 557.568 -2.64854 3.22736 0
M  V30 5710 H 558.958 -0.571809 6.69462 0
M  V30 5711 N 561.678 -1.56367 -0.196722 0
M  V30 5712 C 562.628 -1.9082 -1.24787 0
M  V30 5713 C 563.612 -0.773719 -1.41076 0
M  V30 5714 O 564.804 -1.03655 -1.43474 0
M  V30 5715 C 561.933 -2.24982 -2.59303 0
M  V30 5716 C 561.019 -3.44882 -2.46814 0
M  V30 5717 N 561.41 -4.62835 -2.04003 0
M  V30 5718 C 559.708 -3.48988 -2.77711 0
M  V30 5719 C 560.409 -5.44993 -2.03366 0
M  V30 5720 N 559.385 -4.85356 -2.44807 0
M  V30 5721 H 563.187 -2.79516 -0.908175 0
M  V30 5722 H 560.701 -1.57265 -0.405166 0
M  V30 5723 H 562.698 -2.47848 -3.35227 0
M  V30 5724 H 561.358 -1.37611 -2.94098 0
M  V30 5725 H 562.369 -4.87532 -1.74738 0
M  V30 5726 H 559.046 -2.72029 -3.16712 0
M  V30 5727 H 560.436 -6.49464 -1.72181 0
M  V30 5728 N 563.156 0.464375 -1.50603 0
M  V30 5729 C 564.402 1.21776 -1.62168 0
M  V30 5730 C 564.735 1.91476 -0.324154 0
M  V30 5731 O 564.01 1.8242 0.674782 0
M  V30 5732 C 564.293 2.25614 -2.80661 0
M  V30 5733 C 564.146 1.60175 -4.20314 0
M  V30 5734 C 565.465 3.26862 -2.94702 0
M  V30 5735 H 562.584 0.44137 -0.590222 0
M  V30 5736 H 565.226 0.510623 -1.8301 0
M  V30 5737 H 563.376 2.85923 -2.63021 0
M  V30 5738 H 565.048 1.03411 -4.4956 0
M  V30 5739 H 563.291 0.904697 -4.24261 0
M  V30 5740 H 563.962 2.35665 -4.99165 0
M  V30 5741 H 566.438 2.76582 -3.10872 0
M  V30 5742 H 565.314 3.96839 -3.79223 0
M  V30 5743 H 565.575 3.91382 -2.05603 0
M  V30 5744 N 564.634 1.40294 0.718013 0
M  V30 5745 C 565.882 1.38167 1.47494 0
M  V30 5746 C 566.203 -0.01607 1.94993 0
M  V30 5747 O 565.473 -0.970396 1.70177 0
M  V30 5748 H 564.053 0.508505 0.547203 0
M  V30 5749 H 566.715 1.75324 0.851322 0
M  V30 5750 H 565.811 2.05503 2.34894 0
M  V30 5751 N 566.112 -0.949982 1.2575 0
M  V30 5752 C 567.523 -1.50989 1.09815 0
M  V30 5753 C 567.874 -1.93497 -0.324556 0
M  V30 5754 O 566.999 -1.79068 -1.21506 0
M  V30 5755 C 567.594 -2.74394 1.98729 0
M  V30 5756 C 566.153 -3.26682 1.86965 0
M  V30 5757 C 565.3 -1.99498 1.92603 0
M  V30 5758 H 568.251 -0.766387 1.38968 0
M  V30 5759 H 568.272 -3.48383 1.53001 0
M  V30 5760 H 567.784 -2.43425 3.02268 0
M  V30 5761 H 565.885 -3.62461 0.863279 0
M  V30 5762 H 565.998 -3.94383 2.72027 0
M  V30 5763 H 564.362 -2.15005 1.36546 0
M  V30 5764 H 565.145 -1.70871 2.97755 0
M  V30 5765 N 567.59 -1.07411 -1.15328 0
M  V30 5766 C 568.553 -0.698914 -2.18284 0
M  V30 5767 C 569.553 0.261149 -1.58665 0
M  V30 5768 O 570.743 0.0420277 -1.74149 0
M  V30 5769 C 567.875 -0.0302427 -3.40887 0
M  V30 5770 H 569.068 -1.61045 -2.52991 0
M  V30 5771 H 566.621 -0.870724 -1.298 0
M  V30 5772 H 567.356 0.893505 -3.11748 0
M  V30 5773 H 567.141 -0.720759 -3.85419 0
M  V30 5774 H 568.631 0.21759 -4.17033 0
M  V30 5775 N 569.068 1.32177 -0.85831 0
M  V30 5776 C 570.314 1.97417 -0.46417 0
M  V30 5777 C 570.647 1.67746 0.978514 0
M  V30 5778 O 569.922 0.967654 1.68721 0
M  V30 5779 C 570.205 3.53069 -0.708094 0
M  V30 5780 C 570.058 3.92357 -2.19946 0
M  V30 5781 C 571.377 4.39783 -0.166881 0
M  V30 5782 H 568.496 0.717097 -0.17012 0
M  V30 5783 H 571.138 1.56499 -1.07741 0
M  V30 5784 H 569.288 3.88054 -0.186128 0
M  V30 5785 H 570.96 3.67533 -2.78779 0
M  V30 5786 H 569.203 3.41384 -2.67656 0
M  V30 5787 H 569.874 5.00841 -2.32082 0
M  V30 5788 H 572.35 4.11556 -0.613285 0
M  V30 5789 H 571.226 5.47671 -0.367093 0
M  V30 5790 H 571.487 4.32196 0.930559 0
M  V30 5791 N 570.547 0.616602 1.45037 0
M  V30 5792 C 571.958 0.199359 1.85633 0
M  V30 5793 C 572.309 -1.24588 1.51566 0
M  V30 5794 O 571.434 -1.94594 0.94668 0
M  V30 5795 C 572.029 0.355033 3.36935 0
M  V30 5796 C 570.588 -0.00758748 3.76399 0
M  V30 5797 C 569.735 0.675256 2.68953 0
M  V30 5798 H 572.686 0.822708 1.3571 0
M  V30 5799 H 572.707 -0.410201 3.78282 0
M  V30 5800 H 572.219 1.40699 3.61698 0
M  V30 5801 H 570.32 -1.05837 3.57252 0
M  V30 5802 H 570.433 0.392346 4.77491 0
M  V30 5803 H 568.797 0.111992 2.54454 0
M  V30 5804 H 569.58 1.72952 2.96551 0
M  V30 5805 N 572.025 -1.5352 0.356285 0
M  V30 5806 C 572.973 -2.26945 -0.50978 0
M  V30 5807 C 573.967 -1.29569 -1.09125 0
M  V30 5808 O 575.173 -1.47231 -1.03552 0
M  V30 5809 H 571.548 -0.729368 -0.183102 0
M  V30 5810 H 573.519 -2.98111 0.131374 0
M  V30 5811 C 572.268 -3.06466 -1.64237 0
M  V30 5812 H 571.591 -3.81233 -1.20423 0
M  V30 5813 H 573.031 -3.61035 -2.22327 0
M  V30 5814 C 571.49 -2.16737 -2.57928 0
M  V30 5815 O 572.02 -1.77195 -3.60507 0
M  V30 5816 N 570.226 -1.81558 -2.26903 0
M  V30 5817 H 569.773 -2.13913 -1.43524 0
M  V30 5818 H 569.731 -1.21806 -2.89846 0
M  V30 5819 N 573.503 -0.0852151 -1.57369 0
M  V30 5820 C 574.731 0.58946 -1.98325 0
M  V30 5821 C 575.146 1.62333 -0.96403 0
M  V30 5822 O 574.503 1.82438 0.0476395 0
M  V30 5823 C 574.554 1.24604 -3.39347 0
M  V30 5824 O 574.275 0.253532 -4.37366 0
M  V30 5825 C 575.776 2.00726 -3.95252 0
M  V30 5826 H 572.996 0.158783 -0.651942 0
M  V30 5827 H 575.54 -0.161584 -2.03861 0
M  V30 5828 H 573.695 1.94808 -3.34856 0
M  V30 5829 H 574.109 0.726207 -5.19448 0
M  V30 5830 H 575.583 2.42039 -4.96106 0
M  V30 5831 H 576.06 2.86919 -3.32527 0
M  V30 5832 H 576.666 1.3536 -4.03185 0
M  V30 5833 N 574.981 1.5647 0.188427 0
M  V30 5834 C 576.211 1.84863 0.922463 0
M  V30 5835 C 576.619 0.666413 1.77075 0
M  V30 5836 O 575.962 -0.374044 1.79852 0
M  V30 5837 C 576.024 3.07447 1.86324 0
M  V30 5838 C 575.688 4.41066 1.19625 0
M  V30 5839 C 576.685 5.16767 0.569946 0
M  V30 5840 C 574.37 4.87802 1.19811 0
M  V30 5841 C 576.364 6.37384 -0.045594 0
M  V30 5842 C 574.051 6.08353 0.57874 0
M  V30 5843 C 575.049 6.82987 -0.0420259 0
M  V30 5844 O 574.737 8.01254 -0.651675 0
M  V30 5845 H 574.469 0.61784 0.274316 0
M  V30 5846 H 577.023 2.04437 0.198613 0
M  V30 5847 H 575.253 2.83774 2.62696 0
M  V30 5848 H 576.942 3.2243 2.46564 0
M  V30 5849 H 577.708 4.81749 0.560601 0
M  V30 5850 H 573.587 4.29662 1.67069 0
M  V30 5851 H 577.131 6.95578 -0.530731 0
M  V30 5852 H 573.028 6.42838 0.58561 0
M  V30 5853 H 573.796 8.16655 -0.549236 0
M  V30 5854 N 576.459 -0.456382 1.50847 0
M  V30 5855 C 577.422 -1.53493 1.70213 0
M  V30 5856 C 578.422 -1.50264 0.572481 0
M  V30 5857 O 579.612 -1.52623 0.839751 0
M  V30 5858 C 576.744 -2.93091 1.741 0
M  V30 5859 H 577.937 -1.37633 2.66453 0
M  V30 5860 H 575.49 -0.683776 1.4055 0
M  V30 5861 H 576.225 -3.14378 0.796063 0
M  V30 5862 H 576.01 -2.9684 2.5618 0
M  V30 5863 H 577.5 -3.71368 1.90987 0
M  V30 5864 N 577.937 -1.40673 -0.710563 0
M  V30 5865 C 579.183 -1.39428 -1.47267 0
M  V30 5866 C 579.516 0.00182129 -1.942 0
M  V30 5867 O 578.791 0.971387 -1.68506 0
M  V30 5868 C 579.074 -2.38812 -2.6952 0
M  V30 5869 C 578.927 -3.87467 -2.28449 0
M  V30 5870 C 580.246 -2.3566 -3.71689 0
M  V30 5871 H 577.365 -0.507768 -0.534173 0
M  V30 5872 H 580.007 -1.71843 -0.810547 0
M  V30 5873 H 578.157 -2.113 -3.26013 0
M  V30 5874 H 579.829 -4.25825 -1.77399 0
M  V30 5875 H 578.072 -4.03058 -1.60395 0
M  V30 5876 H 578.743 -4.5253 -3.16103 0
M  V30 5877 H 581.219 -2.6004 -3.24836 0
M  V30 5878 H 580.095 -3.07237 -4.54859 0
M  V30 5879 H 580.356 -1.36996 -4.20339 0
M  V30 5880 N 579.415 0.9433 -1.26252 0
M  V30 5881 C 580.64 1.72898 -1.14547 0
M  V30 5882 C 581.065 1.85761 0.295743 0
M  V30 5883 O 580.423 1.3463 1.21427 0
M  V30 5884 C 580.471 3.11471 -1.8171 0
M  V30 5885 O 579.575 3.97336 -1.10445 0
M  V30 5886 H 578.916 0.530555 -0.399259 0
M  V30 5887 H 581.446 1.18159 -1.67032 0
M  V30 5888 H 581.456 3.61872 -1.88449 0
M  V30 5889 H 580.131 3.01425 -2.86558 0
M  V30 5890 H 578.708 3.55788 -1.11666 0
M  V30 5891 N 580.893 1.08022 1.14757 0
M  V30 5892 C 582.309 0.807072 1.3769 0
M  V30 5893 C 582.509 -0.585504 1.92806 0
M  V30 5894 O 581.565 -1.34301 2.13821 0
M  V30 5895 C 582.878 1.88651 2.34161 0
M  V30 5896 C 584.426 1.91206 2.47809 0
M  V30 5897 C 584.901 2.98253 3.47576 0
M  V30 5898 N 586.392 2.974 3.55117 0
M  V30 5899 C 587.127 3.76872 4.32152 0
M  V30 5900 N 586.623 4.66212 5.12463 0
M  V30 5901 N 588.416 3.6519 4.27309 0
M  V30 5902 H 580.567 1.97824 0.77326 0
M  V30 5903 H 582.83 0.85826 0.402608 0
M  V30 5904 H 582.536 2.88749 2.00791 0
M  V30 5905 H 582.41 1.75244 3.3402 0
M  V30 5906 H 584.797 0.917564 2.80472 0
M  V30 5907 H 584.878 2.08691 1.47925 0
M  V30 5908 H 584.522 3.97907 3.15646 0
M  V30 5909 H 584.452 2.78014 4.47231 0
M  V30 5910 H 586.943 2.32643 2.97801 0
M  V30 5911 H 587.256 5.23468 5.68508 0
M  V30 5912 H 585.601 4.70257 5.11745 0
M  V30 5913 H 588.792 2.94765 3.63636 0
M  V30 5914 H 588.965 4.27366 4.87095 0
M  V30 5915 N 582.371 -1.3172 0.865308 0
M  V30 5916 C 583.321 -2.26157 0.289305 0
M  V30 5917 C 584.305 -1.50428 -0.570977 0
M  V30 5918 O 585.497 -1.71978 -0.418617 0
M  V30 5919 C 582.626 -3.39457 -0.512237 0
M  V30 5920 C 581.712 -4.22561 0.361028 0
M  V30 5921 N 582.103 -4.84501 1.45231 0
M  V30 5922 C 580.401 -4.45739 0.152641 0
M  V30 5923 C 581.102 -5.46586 1.99043 0
M  V30 5924 N 580.078 -5.28119 1.28809 0
M  V30 5925 H 583.88 -2.71581 1.12344 0
M  V30 5926 H 581.394 -1.45932 0.712565 0
M  V30 5927 H 583.391 -4.06133 -0.941379 0
M  V30 5928 H 582.051 -2.95577 -1.34404 0
M  V30 5929 H 583.062 -4.84293 1.83524 0
M  V30 5930 H 579.739 -4.1251 -0.643583 0
M  V30 5931 H 581.129 -6.05817 2.90577 0
M  V30 5932 N 583.85 -0.624285 -1.44708 0
M  V30 5933 C 585.098 -0.125802 -2.01708 0
M  V30 5934 C 585.418 1.2543 -1.49306 0
M  V30 5935 O 584.689 1.83198 -0.693924 0
M  V30 5936 H 583.269 -0.0435161 -0.745731 0
M  V30 5937 H 585.931 -0.809446 -1.77296 0
M  V30 5938 H 585.027 -0.0882734 -3.11975 0
M  V30 5939 N 585.328 1.53329 -0.364422 0
M  V30 5940 C 586.553 2.06132 0.229033 0
M  V30 5941 C 586.978 1.23625 1.41769 0
M  V30 5942 O 586.336 0.255038 1.79497 0
M  V30 5943 C 586.384 3.55544 0.60174 0
M  V30 5944 O 585.488 3.75771 1.69912 0
M  V30 5945 H 584.829 0.663148 0.0336213 0
M  V30 5946 H 587.359 1.97758 -0.524689 0
M  V30 5947 H 587.369 3.98549 0.873073 0
M  V30 5948 H 586.044 4.15039 -0.267421 0
M  V30 5949 H 584.621 3.44663 1.42343 0
M  V30 5950 N 586.806 0.0935595 1.57322 0
M  V30 5951 C 588.031 -0.582324 1.99057 0
M  V30 5952 C 588.456 -1.61025 0.972242 0
M  V30 5953 O 587.814 -1.81202 -0.0594622 0
M  V30 5954 C 587.862 -1.20799 3.39765 0
M  V30 5955 O 586.966 -2.32382 3.40694 0
M  V30 5956 H 586.307 -0.147884 0.647323 0
M  V30 5957 H 588.837 0.174516 2.03854 0
M  V30 5958 H 588.847 -1.54966 3.77425 0
M  V30 5959 H 587.522 -0.454914 4.13405 0
M  V30 5960 H 586.099 -1.99845 3.14827 0
M  V30 5961 N 588.284 -1.56567 -0.180126 0
M  V30 5962 C 589.695 -1.7126 -0.743422 0
M  V30 5963 C 590.046 -0.70263 -1.83187 0
M  V30 5964 O 589.171 0.137856 -2.1596 0
M  V30 5965 C 589.766 -3.10512 -1.35528 0
M  V30 5966 C 588.325 -3.26919 -1.8655 0
M  V30 5967 C 587.472 -2.67213 -0.741099 0
M  V30 5968 H 590.423 -1.58636 0.0451543 0
M  V30 5969 H 590.444 -3.08673 -2.22489 0
M  V30 5970 H 589.956 -3.83997 -0.562862 0
M  V30 5971 H 588.057 -2.58376 -2.68464 0
M  V30 5972 H 588.17 -4.34574 -2.01699 0
M  V30 5973 H 586.534 -2.26788 -1.15927 0
M  V30 5974 H 587.317 -3.43277 0.0393291 0
M  V30 5975 N 589.762 0.448376 -1.51087 0
M  V30 5976 C 590.987 1.22605 -1.6728 0
M  V30 5977 C 591.412 1.84524 -0.365045 0
M  V30 5978 O 590.77 1.6832 0.673642 0
M  V30 5979 C 590.818 2.29393 -2.78229 0
M  V30 5980 O 589.922 3.34608 -2.41063 0
M  V30 5981 H 589.263 0.359705 -0.558129 0
M  V30 5982 H 591.793 0.530903 -1.97592 0
M  V30 5983 H 591.803 2.74352 -3.01986 0
M  V30 5984 H 590.478 1.83701 -3.73131 0
M  V30 5985 H 589.055 2.95202 -2.27838 0
M  V30 5986 N 591.24 1.41047 0.703093 0
M  V30 5987 C 592.468 1.4334 1.49202 0
M  V30 5988 C 592.883 0.0365596 1.88765 0
M  V30 5989 O 592.24 -0.942419 1.56284 0
M  V30 5990 C 592.291 2.33538 2.75939 0
M  V30 5991 O 592.012 3.67786 2.38045 0
M  V30 5992 C 593.513 2.44555 3.6974 0
M  V30 5993 H 590.733 0.488472 0.460039 0
M  V30 5994 H 593.277 1.85245 0.86629 0
M  V30 5995 H 591.432 1.94962 3.34766 0
M  V30 5996 H 591.846 4.15816 3.19683 0
M  V30 5997 H 593.32 3.11849 4.55471 0
M  V30 5998 H 593.797 1.47447 4.1371 0
M  V30 5999 H 594.403 2.83735 3.16819 0
M  V30 6000 N 592.718 -0.936591 1.26751 0
M  V30 6001 C 593.966 -1.67998 1.12343 0
M  V30 6002 C 594.287 -1.92137 -0.332938 0
M  V30 6003 O 593.557 -1.52132 -1.23421 0
M  V30 6004 H 592.137 -0.622609 0.412756 0
M  V30 6005 H 594.799 -1.12509 1.59147 0
M  V30 6006 H 593.895 -2.65185 1.64571 0
M  V30 6007 N 594.196 -1.08629 -1.14182 0
M  V30 6008 C 595.159 -0.722027 -2.1753 0
M  V30 6009 C 596.159 0.244305 -1.58933 0
M  V30 6010 O 597.349 0.0235545 -1.74184 0
M  V30 6011 C 594.481 -0.0663966 -3.40835 0
M  V30 6012 H 595.674 -1.63719 -2.51269 0
M  V30 6013 H 593.227 -0.884442 -1.28869 0
M  V30 6014 H 593.962 0.860389 -3.12678 0
M  V30 6015 H 593.747 -0.761598 -3.84632 0
M  V30 6016 H 595.237 0.173346 -4.1724 0
M  V30 6017 N 595.674 1.31259 -0.872281 0
M  V30 6018 C 596.899 2.0133 -0.498099 0
M  V30 6019 C 597.324 1.65031 0.902568 0
M  V30 6020 O 596.682 0.860164 1.59596 0
M  V30 6021 C 596.73 3.54411 -0.665205 0
M  V30 6022 O 595.834 4.11347 0.294473 0
M  V30 6023 H 595.175 0.633844 -0.197832 0
M  V30 6024 H 597.705 1.67402 -1.17633 0
M  V30 6025 H 597.715 4.04147 -0.559373 0
M  V30 6026 H 596.39 3.80171 -1.68651 0
M  V30 6027 H 594.967 3.72624 0.143403 0
M  V30 6028 N 597.152 0.631951 1.44375 0
M  V30 6029 C 598.377 0.142146 2.06912 0
M  V30 6030 C 598.802 -1.17456 1.4692 0
M  V30 6031 O 598.16 -1.72074 0.570975 0
M  V30 6032 C 598.208 0.0417952 3.60576 0
M  V30 6033 O 597.312 -1.00194 4.00044 0
M  V30 6034 H 596.653 0.0851491 0.658518 0
M  V30 6035 H 599.183 0.868863 1.85235 0
M  V30 6036 H 599.193 -0.148517 4.0773 0
M  V30 6037 H 597.868 1.0031 4.03622 0
M  V30 6038 H 596.445 -0.786131 3.64519 0
M  V30 6039 N 598.631 -1.53133 0.372548 0
M  V30 6040 C 600.047 -1.59585 0.02178 0
M  V30 6041 C 600.247 -1.38736 -1.46132 0
M  V30 6042 O 599.303 -1.19599 -2.22379 0
M  V30 6043 C 600.616 -2.9678 0.483959 0
M  V30 6044 C 602.164 -3.09909 0.438775 0
M  V30 6045 C 602.639 -4.49527 0.876876 0
M  V30 6046 N 604.13 -4.55663 0.832214 0
M  V30 6047 C 604.865 -5.61896 1.14281 0
M  V30 6048 N 604.361 -6.75852 1.52303 0
M  V30 6049 N 606.154 -5.51916 1.06515 0
M  V30 6050 H 598.305 -1.64936 1.33827 0
M  V30 6051 H 600.568 -0.773947 0.547458 0
M  V30 6052 H 600.274 -3.17198 1.51915 0
M  V30 6053 H 600.148 -3.7699 -0.125784 0
M  V30 6054 H 602.535 -2.89197 -0.587294 0
M  V30 6055 H 602.616 -2.31691 1.0841 0
M  V30 6056 H 602.26 -4.70979 1.90109 0
M  V30 6057 H 602.19 -5.26186 0.208727 0
M  V30 6058 H 604.681 -3.73844 0.552195 0
M  V30 6059 H 604.994 -7.52862 1.7441 0
M  V30 6060 H 603.339 -6.77226 1.56175 0
M  V30 6061 H 606.53 -4.6177 0.767235 0
M  V30 6062 H 606.703 -6.34609 1.31053 0
M  V30 6063 N 600.109 -0.101901 -1.5727 0
M  V30 6064 C 601.355 0.561027 -1.94885 0
M  V30 6065 C 601.688 1.6741 -0.984258 0
M  V30 6066 O 600.963 1.94491 -0.0184767 0
M  V30 6067 C 601.246 1.10982 -3.42571 0
M  V30 6068 C 601.099 0.00133418 -4.498 0
M  V30 6069 C 602.418 2.00608 -3.9172 0
M  V30 6070 H 599.537 0.202467 -0.708644 0
M  V30 6071 H 602.179 -0.173992 -1.89202 0
M  V30 6072 H 600.329 1.73621 -3.47546 0
M  V30 6073 H 602.001 -0.63322 -4.56933 0
M  V30 6074 H 600.244 -0.664143 -4.28686 0
M  V30 6075 H 600.915 0.426253 -5.50352 0
M  V30 6076 H 603.391 1.47864 -3.88941 0
M  V30 6077 H 602.267 2.3593 -4.95609 0
M  V30 6078 H 602.528 2.92608 -3.3141 0
M  V30 6079 N 601.587 1.56661 0.17182 0
M  V30 6080 C 602.998 1.71652 0.734329 0
M  V30 6081 C 603.349 0.712335 1.82812 0
M  V30 6082 O 602.474 -0.126401 2.16031 0
M  V30 6083 C 603.069 3.11226 1.3388 0
M  V30 6084 C 601.628 3.27904 1.84813 0
M  V30 6085 C 600.775 2.67603 0.726917 0
M  V30 6086 H 603.726 1.5861 -0.0535665 0
M  V30 6087 H 603.747 3.09849 2.20849 0
M  V30 6088 H 603.259 3.8429 0.54249 0
M  V30 6089 H 601.36 2.59796 2.6709 0
M  V30 6090 H 601.473 4.35637 1.99392 0
M  V30 6091 H 599.837 2.274 1.14723 0
M  V30 6092 H 600.62 3.43252 -0.0575334 0
M  V30 6093 N 603.065 -0.440357 1.51323 0
M  V30 6094 C 604.028 -1.51679 1.71832 0
M  V30 6095 C 605.028 -1.49648 0.588386 0
M  V30 6096 O 606.218 -1.51724 0.855891 0
M  V30 6097 C 603.35 -2.91228 1.77199 0
M  V30 6098 H 604.543 -1.34799 2.67898 0
M  V30 6099 H 602.096 -0.66883 1.41267 0
M  V30 6100 H 602.831 -3.13516 0.829363 0
M  V30 6101 H 602.616 -2.94107 2.59314 0
M  V30 6102 H 604.106 -3.69321 1.94915 0
M  V30 6103 N 604.543 -1.41418 -0.695603 0
M  V30 6104 C 605.506 -1.42988 -1.79129 0
M  V30 6105 C 606.506 -0.320514 -1.57573 0
M  V30 6106 O 607.696 -0.58039 -1.64247 0
M  V30 6107 C 604.828 -1.24122 -3.175 0
M  V30 6108 H 606.021 -2.40526 -1.7913 0
M  V30 6109 H 603.574 -1.2756 -0.903225 0
M  V30 6110 H 604.309 -0.274253 -3.23138 0
M  V30 6111 H 604.094 -2.045 -3.34547 0
M  V30 6112 H 605.584 -1.28056 -3.97481 0
M  V30 6113 N 606.021 0.929856 -1.27246 0
M  V30 6114 C 607.246 1.71674 -1.16374 0
M  V30 6115 C 607.671 1.86064 0.276024 0
M  V30 6116 O 607.029 1.3591 1.19992 0
M  V30 6117 C 607.077 3.09526 -1.85003 0
M  V30 6118 O 606.181 3.96142 -1.14653 0
M  V30 6119 H 605.522 0.52629 -0.404863 0
M  V30 6120 H 608.052 1.16381 -1.68276 0
M  V30 6121 H 608.062 3.59852 -1.92276 0
M  V30 6122 H 606.737 2.98369 -2.89739 0
M  V30 6123 H 605.314 3.54584 -1.15433 0
M  V30 6124 N 607.499 1.09233 1.13605 0
M  V30 6125 C 608.431 0.687794 2.18637 0
M  V30 6126 C 609.444 -0.26936 1.60556 0
M  V30 6127 O 610.633 -0.0557162 1.78413 0
M  V30 6128 C 607.733 -0.00751901 3.38899 0
M  V30 6129 C 606.906 0.97067 4.26494 0
M  V30 6130 C 605.965 0.309129 5.25291 0
M  V30 6131 O 604.991 0.956149 5.61112 0
M  V30 6132 N 606.193 -0.937555 5.72879 0
M  V30 6133 H 608.958 1.59141 2.53957 0
M  V30 6134 H 606.519 0.979515 1.28907 0
M  V30 6135 H 608.511 -0.461238 4.02063 0
M  V30 6136 H 607.081 -0.813353 3.01833 0
M  V30 6137 H 606.301 1.603 3.60135 0
M  V30 6138 H 607.589 1.63323 4.81875 0
M  V30 6139 H 606.987 -1.48281 5.4592 0
M  V30 6140 H 605.544 -1.33463 6.3799 0
M  V30 6141 N 608.977 -1.30795 0.87923 0
M  V30 6142 C 610.202 -2.01063 0.508769 0
M  V30 6143 C 610.627 -1.65508 -0.893803 0
M  V30 6144 O 609.985 -0.868616 -1.59138 0
M  V30 6145 C 610.033 -3.54054 0.683991 0
M  V30 6146 O 609.137 -4.11498 -0.272654 0
M  V30 6147 H 608.478 -0.632786 0.201191 0
M  V30 6148 H 611.008 -1.66776 1.18519 0
M  V30 6149 H 611.018 -4.03845 0.580798 0
M  V30 6150 H 609.693 -3.79271 1.70665 0
M  V30 6151 H 608.27 -3.72695 -0.12364 0
M  V30 6152 N 610.455 -0.639598 -1.44038 0
M  V30 6153 C 611.68 -0.153117 -2.06834 0
M  V30 6154 C 612.105 1.16676 -1.47541 0
M  V30 6155 O 611.463 1.71769 -0.580093 0
M  V30 6156 C 611.511 -0.0609169 -3.60549 0
M  V30 6157 O 610.615 0.98071 -4.00569 0
M  V30 6158 H 609.956 -0.0886402 -0.658057 0
M  V30 6159 H 612.486 -0.878674 -1.84771 0
M  V30 6160 H 612.496 0.126892 -4.07803 0
M  V30 6161 H 611.171 -1.0245 -4.03084 0
M  V30 6162 H 609.748 0.766789 -3.64931 0
M  V30 6163 N 611.933 1.52934 -0.380664 0
M  V30 6164 C 613.181 2.01069 0.203874 0
M  V30 6165 C 613.502 1.26922 1.4804 0
M  V30 6166 O 612.772 0.386787 1.92044 0
M  V30 6167 H 611.352 0.742882 0.0783279 0
M  V30 6168 H 614.014 1.88099 -0.510368 0
M  V30 6169 H 613.11 3.09258 0.42021 0
M  V30 6170 N 613.412 0.11024 1.57214 0
M  V30 6171 C 614.652 -0.553061 1.96775 0
M  V30 6172 C 615.016 -1.64403 0.991753 0
M  V30 6173 O 616.217 -2.36561 1.27642 0
M  V30 6174 C 614.488 -1.08004 3.4069 0
M  V30 6175 S 616.047 -1.75309 4.02259 0
M  V30 6176 H 612.865 -0.18003 0.68783 0
M  V30 6177 H 615.467 0.193242 1.94543 0
M  V30 6178 H 614.171 -0.274735 4.09479 0
M  V30 6179 H 613.702 -1.86182 3.46554 0
M  V30 6180 H 615.717 -3.03834 3.923 0
M  V30 6181 N 614.89 -1.56749 -0.16351 0
M  V30 6182 C 616.12 -1.86307 -0.892936 0
M  V30 6183 C 616.528 -0.6945 -1.75992 0
M  V30 6184 O 615.871 0.345384 -1.80424 0
M  V30 6185 C 615.933 -3.10372 -1.81409 0
M  V30 6186 C 615.597 -4.42913 -1.12593 0
M  V30 6187 C 616.594 -5.17608 -0.487661 0
M  V30 6188 C 614.279 -4.89646 -1.12035 0
M  V30 6189 C 616.273 -6.3723 0.14699 0
M  V30 6190 C 613.96 -6.09197 -0.481883 0
M  V30 6191 C 614.958 -6.82834 0.150678 0
M  V30 6192 O 614.646 -8.00116 0.779065 0
M  V30 6193 H 614.378 -0.622126 -0.264452 0
M  V30 6194 H 616.932 -2.04728 -0.166063 0
M  V30 6195 H 615.162 -2.87917 -2.58148 0
M  V30 6196 H 616.851 -3.26312 -2.41403 0
M  V30 6197 H 617.617 -4.8258 -0.483888 0
M  V30 6198 H 613.496 -4.32265 -1.60212 0
M  V30 6199 H 617.04 -6.94646 0.641325 0
M  V30 6200 H 612.937 -6.43688 -0.483266 0
M  V30 6201 H 613.705 -8.15678 0.679089 0
M  V30 6202 N 616.368 0.432326 -1.51554 0
M  V30 6203 C 617.645 1.19288 -1.55015 0
M  V30 6204 C 618.025 2.08701 -0.317375 0
M  V30 6205 O 617.373 2.17602 0.697243 0
M  V30 6206 C 617.583 1.99037 -2.86679 0
M  V30 6207 C 618.931 2.55907 -3.38817 0
M  V30 6208 O 619.955 2.09243 -2.88263 0
M  V30 6209 O 618.814 3.41029 -4.27038 0
M  V30 6210 H 615.908 0.543369 -0.623441 0
M  V30 6211 H 618.454 0.440988 -1.6387 0
M  V30 6212 H 617.226 1.33397 -3.6786 0
M  V30 6213 H 616.849 2.81281 -2.8101 0
M  V30 6214 N 617.846 1.41785 0.688094 0
M  V30 6215 C 619.071 1.45117 1.48175 0
M  V30 6216 C 619.496 0.060129 1.88004 0
M  V30 6217 O 618.854 -0.938385 1.55126 0
M  V30 6218 C 618.902 2.37224 2.71583 0
M  V30 6219 O 618.006 1.83443 3.69354 0
M  V30 6220 H 617.347 0.492208 0.445676 0
M  V30 6221 H 619.877 1.86329 0.845145 0
M  V30 6222 H 619.887 2.53353 3.19806 0
M  V30 6223 H 618.562 3.38293 2.41931 0
M  V30 6224 H 617.139 1.76802 3.28322 0
M  V30 6225 N 619.324 -0.923095 1.27737 0
M  V30 6226 C 620.601 -1.64989 1.05062 0
M  V30 6227 C 620.981 -2.07018 -0.413124 0
M  V30 6228 O 620.329 -1.80797 -1.39731 0
M  V30 6229 C 620.539 -2.84847 2.01652 0
M  V30 6230 C 621.887 -3.56083 2.31279 0
M  V30 6231 O 622.911 -2.94981 1.99662 0
M  V30 6232 O 621.77 -4.66182 2.85196 0
M  V30 6233 H 618.864 -0.723357 0.400853 0
M  V30 6234 H 621.41 -0.973224 1.3902 0
M  V30 6235 H 620.182 -2.50814 3.00347 0
M  V30 6236 H 619.805 -3.60231 1.68284 0
M  V30 6237 N 620.802 -1.09834 -1.13024 0
M  V30 6238 C 622.027 -0.85909 -1.88771 0
M  V30 6239 C 622.452 0.584402 -1.78791 0
M  V30 6240 O 621.81 1.41101 -1.13842 0
M  V30 6241 C 621.858 -1.30427 -3.36186 0
M  V30 6242 O 620.962 -0.465368 -4.09766 0
M  V30 6243 H 620.303 -0.310786 -0.586778 0
M  V30 6244 H 622.833 -1.46355 -1.42973 0
M  V30 6245 H 622.843 -1.2915 -3.8702 0
M  V30 6246 H 621.518 -2.3555 -3.42767 0
M  V30 6247 H 620.095 -0.542814 -3.68928 0
M  V30 6248 N 622.28 1.30327 -0.886154 0
M  V30 6249 C 623.21 2.30549 -0.370028 0
M  V30 6250 C 624.191 1.61039 0.547751 0
M  V30 6251 O 625.376 1.8864 0.461353 0
M  V30 6252 C 622.506 3.44808 0.415275 0
M  V30 6253 C 621.46 4.26024 -0.41085 0
M  V30 6254 C 620.786 5.32347 0.501128 0
M  V30 6255 C 622.086 4.95433 -1.65359 0
M  V30 6256 H 623.78 2.73969 -1.20754 0
M  V30 6257 H 621.326 1.3171 -0.582097 0
M  V30 6258 H 623.279 4.13986 0.78699 0
M  V30 6259 H 622.003 3.00197 1.28644 0
M  V30 6260 H 620.662 3.58535 -0.764719 0
M  V30 6261 H 620.31 4.83982 1.37004 0
M  V30 6262 H 620.01 5.87581 -0.0478356 0
M  V30 6263 H 621.534 6.0438 0.869333 0
M  V30 6264 H 622.948 5.5712 -1.35239 0
M  V30 6265 H 621.345 5.60537 -2.14284 0
M  V30 6266 H 622.415 4.21493 -2.39733 0
M  V30 6267 N 623.758 0.647228 1.43697 0
M  V30 6268 C 624.668 -0.0487997 2.34549 0
M  V30 6269 C 625.684 -0.818586 1.53542 0
M  V30 6270 O 626.86 -0.767195 1.86215 0
M  V30 6271 C 623.925 -1.00734 3.31743 0
M  V30 6272 C 622.986 -0.23515 4.28655 0
M  V30 6273 C 622.219 -1.14803 5.21206 0
M  V30 6274 O 622.442 -2.38717 5.18045 0
M  V30 6275 O 621.376 -0.623667 5.9866 0
M  V30 6276 H 625.202 0.698863 2.9555 0
M  V30 6277 H 622.787 0.407412 1.43738 0
M  V30 6278 H 624.669 -1.55837 3.91526 0
M  V30 6279 H 623.344 -1.73534 2.73254 0
M  V30 6280 H 622.251 0.359319 3.7237 0
M  V30 6281 H 623.584 0.453152 4.9011 0
M  V30 6282 N 625.236 -1.5273 0.388769 0
M  V30 6283 C 626.166 -2.29353 -0.438111 0
M  V30 6284 C 627.147 -1.32719 -1.06394 0
M  V30 6285 O 628.332 -1.61612 -1.07681 0
M  V30 6286 C 625.462 -3.09995 -1.56589 0
M  V30 6287 C 624.416 -4.14509 -1.06613 0
M  V30 6288 C 623.742 -4.83372 -2.28594 0
M  V30 6289 C 625.042 -5.22127 -0.134459 0
M  V30 6290 H 626.736 -2.98723 0.201206 0
M  V30 6291 H 624.282 -1.43665 0.0982089 0
M  V30 6292 H 626.235 -3.62357 -2.15118 0
M  V30 6293 H 624.959 -2.38357 -2.23279 0
M  V30 6294 H 623.618 -3.63128 -0.503383 0
M  V30 6295 H 623.266 -4.08283 -2.93792 0
M  V30 6296 H 622.966 -5.54012 -1.95817 0
M  V30 6297 H 624.49 -5.38538 -2.87766 0
M  V30 6298 H 625.904 -5.69851 -0.627914 0
M  V30 6299 H 624.301 -6.00011 0.103534 0
M  V30 6300 H 625.371 -4.77971 0.816798 0
M  V30 6301 N 626.714 -0.118576 -1.57153 0
M  V30 6302 C 628.125 0.40687 -1.82213 0
M  V30 6303 C 628.476 1.66636 -1.03571 0
M  V30 6304 O 627.601 2.14682 -0.272171 0
M  V30 6305 C 628.196 0.744949 -3.30509 0
M  V30 6306 C 626.755 1.21503 -3.5625 0
M  V30 6307 C 625.902 0.223511 -2.76398 0
M  V30 6308 H 628.853 -0.343712 -1.54933 0
M  V30 6309 H 628.874 1.6024 -3.45114 0
M  V30 6310 H 628.386 -0.171911 -3.87719 0
M  V30 6311 H 626.487 2.1488 -3.04396 0
M  V30 6312 H 626.6 1.16065 -4.64829 0
M  V30 6313 H 624.964 0.71046 -2.44591 0
M  V30 6314 H 625.747 -0.686439 -3.36367 0
M  V30 6315 N 628.193 1.56834 0.155195 0
M  V30 6316 C 629.609 1.51315 0.50755 0
M  V30 6317 C 629.809 0.825614 1.83809 0
M  V30 6318 O 628.865 0.39271 2.49427 0
M  V30 6319 C 630.178 2.96074 0.52542 0
M  V30 6320 C 631.726 3.06968 0.611505 0
M  V30 6321 C 632.201 4.53218 0.660115 0
M  V30 6322 N 633.692 4.5753 0.722564 0
M  V30 6323 C 634.427 5.68056 0.781023 0
M  V30 6324 N 633.923 6.88173 0.799327 0
M  V30 6325 N 635.716 5.56068 0.821278 0
M  V30 6326 H 627.867 1.9993 -0.717063 0
M  V30 6327 H 630.13 0.911507 -0.260496 0
M  V30 6328 H 629.836 3.49599 -0.383875 0
M  V30 6329 H 629.71 3.51587 1.36624 0
M  V30 6330 H 632.097 2.53468 1.51122 0
M  V30 6331 H 632.178 2.54513 -0.256306 0
M  V30 6332 H 631.822 5.07354 -0.23541 0
M  V30 6333 H 631.752 5.03447 1.5443 0
M  V30 6334 H 634.243 3.71054 0.716049 0
M  V30 6335 H 634.556 7.6816 0.845553 0
M  V30 6336 H 632.901 6.90751 0.767337 0
M  V30 6337 H 636.092 4.61142 0.804091 0
M  V30 6338 H 636.265 6.42223 0.863372 0
M  V30 6339 N 629.671 -0.424282 1.51781 0
M  V30 6340 C 631.082 -1.00368 1.57427 0
M  V30 6341 C 631.433 -1.91962 0.40558 0
M  V30 6342 O 630.558 -2.111 -0.47601 0
M  V30 6343 C 631.153 -1.82707 2.85313 0
M  V30 6344 C 629.712 -2.35675 2.93487 0
M  V30 6345 C 628.859 -1.1524 2.5222 0
M  V30 6346 H 631.81 -0.205064 1.5737 0
M  V30 6347 H 631.831 -2.68294 2.69812 0
M  V30 6348 H 631.343 -1.16017 3.70353 0
M  V30 6349 H 629.444 -3.05781 2.12906 0
M  V30 6350 H 629.557 -2.67578 3.97415 0
M  V30 6351 H 627.921 -1.50174 2.05718 0
M  V30 6352 H 628.704 -0.5014 3.39619 0
M  V30 6353 N 631.149 -1.42148 -0.680565 0
M  V30 6354 C 632.059 -1.47565 -1.82378 0
M  V30 6355 C 633.075 -0.36489 -1.70131 0
M  V30 6356 O 634.251 -0.614916 -1.91783 0
M  V30 6357 C 631.316 -1.37013 -3.18478 0
M  V30 6358 C 630.377 -2.58532 -3.42724 0
M  V30 6359 C 629.61 -2.48473 -4.72331 0
M  V30 6360 O 629.833 -1.51745 -5.49845 0
M  V30 6361 O 628.767 -3.38503 -4.97694 0
M  V30 6362 H 632.593 -2.44045 -1.80764 0
M  V30 6363 H 630.178 -1.23849 -0.835569 0
M  V30 6364 H 632.06 -1.33468 -3.99705 0
M  V30 6365 H 630.735 -0.436552 -3.20743 0
M  V30 6366 H 629.642 -2.67652 -2.61368 0
M  V30 6367 H 630.975 -3.50769 -3.45286 0
M  V30 6368 N 632.627 0.916307 -1.28225 0
M  V30 6369 C 633.537 2.05165 -1.13775 0
M  V30 6370 C 634.553 1.73879 -0.0649418 0
M  V30 6371 O 635.729 1.99531 -0.273722 0
M  V30 6372 C 632.794 3.37385 -0.798267 0
M  V30 6373 C 631.855 3.82296 -1.95316 0
M  V30 6374 C 631.088 5.08206 -1.62978 0
M  V30 6375 O 631.311 5.6781 -0.542948 0
M  V30 6376 O 630.245 5.48768 -2.47261 0
M  V30 6377 H 634.071 2.20273 -2.09078 0
M  V30 6378 H 631.656 1.0373 -1.07519 0
M  V30 6379 H 633.538 4.16773 -0.62278 0
M  V30 6380 H 632.213 3.23458 0.125139 0
M  V30 6381 H 631.12 3.03746 -2.18378 0
M  V30 6382 H 632.453 4.00782 -2.85718 0
M  V30 6383 N 634.105 1.10431 1.1244 0
M  V30 6384 C 635.353 0.845045 1.83585 0
M  V30 6385 C 635.674 -0.631168 1.84503 0
M  V30 6386 O 634.944 -1.45825 1.30813 0
M  V30 6387 H 633.524 0.309628 0.679809 0
M  V30 6388 H 636.186 1.39458 1.36153 0
M  V30 6389 H 635.282 1.20786 2.8778 0
M  V30 6390 N 635.583 -1.29855 0.893053 0
M  V30 6391 C 636.546 -2.26183 0.370687 0
M  V30 6392 C 637.546 -1.53108 -0.491385 0
M  V30 6393 O 638.736 -1.71643 -0.297386 0
M  V30 6394 C 635.868 -3.37633 -0.470827 0
M  V30 6395 H 637.061 -2.73903 1.22135 0
M  V30 6396 H 634.614 -1.41183 0.67061 0
M  V30 6397 H 635.349 -2.95241 -1.34175 0
M  V30 6398 H 635.134 -3.91825 0.146784 0
M  V30 6399 H 636.624 -4.09313 -0.827825 0
M  V30 6400 N 637.061 -0.65484 -1.43351 0
M  V30 6401 C 638.472 -0.248506 -1.85039 0
M  V30 6402 C 638.823 1.20526 -1.54816 0
M  V30 6403 O 637.948 1.92016 -0.99794 0
M  V30 6404 C 638.543 -0.444241 -3.35875 0
M  V30 6405 C 637.102 -0.0922108 -3.76287 0
M  V30 6406 C 636.249 -0.746327 -2.67068 0
M  V30 6407 H 639.2 -0.8584 -1.33481 0
M  V30 6408 H 639.221 0.309762 -3.79237 0
M  V30 6409 H 638.733 -1.50239 -3.5784 0
M  V30 6410 H 636.834 0.96328 -3.59933 0
M  V30 6411 H 636.947 -0.518807 -4.76283 0
M  V30 6412 H 635.311 -0.179416 -2.54067 0
M  V30 6413 H 636.094 -1.80754 -2.91861 0
M  V30 6414 N 638.539 1.52521 -0.396863 0
M  V30 6415 C 639.449 2.30403 0.44178 0
M  V30 6416 C 640.465 1.37625 1.06468 0
M  V30 6417 O 641.641 1.70697 1.06886 0
M  V30 6418 C 638.706 3.1013 1.54986 0
M  V30 6419 C 637.767 4.18628 0.951279 0
M  V30 6420 C 637 4.94543 2.00655 0
M  V30 6421 O 637.223 4.70629 3.22281 0
M  V30 6422 O 636.157 5.797 1.61962 0
M  V30 6423 H 639.983 3.03087 -0.192892 0
M  V30 6424 H 637.568 1.48537 -0.16038 0
M  V30 6425 H 639.45 3.59816 2.19341 0
M  V30 6426 H 638.125 2.40251 2.16935 0
M  V30 6427 H 637.032 3.73119 0.270773 0
M  V30 6428 H 638.365 4.90763 0.375887 0
M  V30 6429 N 640.017 0.126909 1.57088 0
M  V30 6430 C 641.294 -0.573152 1.87014 0
M  V30 6431 C 641.674 -1.84297 1.02945 0
M  V30 6432 O 641.022 -2.28232 0.110573 0
M  V30 6433 C 641.232 -0.857984 3.38289 0
M  V30 6434 C 642.58 -1.20759 4.07066 0
M  V30 6435 O 643.604 -0.947992 3.43353 0
M  V30 6436 O 642.463 -1.69516 5.19545 0
M  V30 6437 H 639.557 -0.290082 0.774456 0
M  V30 6438 H 642.103 0.162008 1.68925 0
M  V30 6439 H 640.875 0.0415286 3.91278 0
M  V30 6440 H 640.498 -1.64803 3.61837 0
M  V30 6441 N 641.495 -1.56914 -0.146875 0
M  V30 6442 C 642.72 -1.87881 -0.878386 0
M  V30 6443 C 643.145 -0.715945 -1.73942 0
M  V30 6444 O 642.503 0.334447 -1.78189 0
M  V30 6445 C 642.551 -3.17431 -1.71084 0
M  V30 6446 O 641.655 -3.01374 -2.81509 0
M  V30 6447 H 640.996 -0.617289 -0.244644 0
M  V30 6448 H 643.526 -2.04136 -0.137654 0
M  V30 6449 H 643.536 -3.49455 -2.10582 0
M  V30 6450 H 642.211 -4.01671 -1.07856 0
M  V30 6451 H 640.788 -2.80758 -2.45416 0
M  V30 6452 N 642.974 0.416227 -1.52004 0
M  V30 6453 C 644.222 1.16153 -1.65387 0
M  V30 6454 C 644.543 1.91208 -0.382669 0
M  V30 6455 O 643.813 1.86413 0.602231 0
M  V30 6456 H 642.393 0.431765 -0.60958 0
M  V30 6457 H 645.055 0.475151 -1.89019 0
M  V30 6458 H 644.151 1.87952 -2.4916 0
M  V30 6459 N 644.452 1.42507 0.673017 0
M  V30 6460 C 645.863 1.38347 1.25367 0
M  V30 6461 C 646.214 0.0776327 1.96046 0
M  V30 6462 O 645.339 -0.823571 2.00116 0
M  V30 6463 C 645.934 2.506 2.28002 0
M  V30 6464 C 644.493 2.49767 2.81591 0
M  V30 6465 C 643.64 2.293 1.55938 0
M  V30 6466 H 646.591 1.51695 0.466288 0
M  V30 6467 H 646.612 2.20953 3.09774 0
M  V30 6468 H 646.124 3.45627 1.76532 0
M  V30 6469 H 644.225 1.58563 3.37177 0
M  V30 6470 H 644.338 3.46867 3.30485 0
M  V30 6471 H 642.702 1.77594 1.82572 0
M  V30 6472 H 643.485 3.26385 1.06431 0
M  V30 6473 N 645.93 -0.909495 1.28709 0
M  V30 6474 C 647.178 -1.65577 1.15882 0
M  V30 6475 C 647.499 -1.928 -0.292108 0
M  V30 6476 O 646.769 -1.54716 -1.20166 0
M  V30 6477 H 645.349 -0.613714 0.425869 0
M  V30 6478 H 648.011 -1.09108 1.61498 0
M  V30 6479 H 647.107 -2.61634 1.70159 0
M  V30 6480 N 647.408 -1.11026 -1.11852 0
M  V30 6481 C 648.656 -0.854769 -1.83134 0
M  V30 6482 C 648.977 0.621375 -1.84835 0
M  V30 6483 O 648.247 1.45129 -1.31584 0
M  V30 6484 H 646.827 -0.313229 -0.678157 0
M  V30 6485 H 649.489 -1.40178 -1.35411 0
M  V30 6486 H 648.585 -1.22311 -2.87135 0
M  V30 6487 N 648.886 1.2938 -0.899927 0
M  V30 6488 C 649.816 2.30144 -0.39446 0
M  V30 6489 C 650.797 1.61611 0.530639 0
M  V30 6490 O 651.982 1.89119 0.441319 0
M  V30 6491 C 649.112 3.45229 0.37868 0
M  V30 6492 C 648.066 4.25564 -0.456012 0
M  V30 6493 C 647.392 5.32848 0.444637 0
M  V30 6494 C 648.692 4.93651 -1.70605 0
M  V30 6495 H 650.386 2.72673 -1.23653 0
M  V30 6496 H 647.932 1.31086 -0.596034 0
M  V30 6497 H 649.885 4.14797 0.743037 0
M  V30 6498 H 648.609 3.01545 1.25453 0
M  V30 6499 H 647.268 3.57704 -0.802704 0
M  V30 6500 H 646.916 4.85408 1.31863 0
M  V30 6501 H 646.616 5.87497 -0.110154 0
M  V30 6502 H 648.14 6.05268 0.805182 0
M  V30 6503 H 649.554 5.55655 -1.41141 0
M  V30 6504 H 647.951 5.58233 -2.20217 0
M  V30 6505 H 649.021 4.18926 -2.4419 0
M  V30 6506 N 650.364 0.662433 1.43002 0
M  V30 6507 C 651.612 0.179237 2.01304 0
M  V30 6508 C 651.933 -1.21428 1.52579 0
M  V30 6509 O 651.203 -1.81294 0.742252 0
M  V30 6510 H 649.783 0.0632725 0.744316 0
M  V30 6511 H 652.445 0.856169 1.75088 0
M  V30 6512 H 651.541 0.170957 3.11631 0
M  V30 6513 N 651.842 -1.52309 0.404946 0
M  V30 6514 C 653.07 -2.06185 -0.171818 0
M  V30 6515 C 653.485 -1.27536 -1.39212 0
M  V30 6516 O 652.842 -0.326112 -1.79563 0
M  V30 6517 C 652.893 -3.57647 -0.526417 0
M  V30 6518 O 652.614 -4.3332 0.645417 0
M  V30 6519 C 654.115 -4.27925 -1.15736 0
M  V30 6520 H 651.335 -0.670632 -0.0222328 0
M  V30 6521 H 653.879 -1.96259 0.574692 0
M  V30 6522 H 652.034 -3.67595 -1.22282 0
M  V30 6523 H 652.448 -5.23328 0.35042 0
M  V30 6524 H 653.922 -5.35093 -1.35572 0
M  V30 6525 H 654.399 -3.84134 -2.12926 0
M  V30 6526 H 655.005 -4.22335 -0.501281 0
M  V30 6527 N 653.32 -0.135238 -1.57019 0
M  V30 6528 C 654.736 0.221262 -1.58059 0
M  V30 6529 C 654.936 1.65538 -1.14889 0
M  V30 6530 O 653.992 2.37985 -0.843751 0
M  V30 6531 C 655.305 -0.0268114 -3.00688 0
M  V30 6532 C 656.853 0.0378206 -3.12977 0
M  V30 6533 C 657.328 -0.182769 -4.57635 0
M  V30 6534 N 658.819 -0.129292 -4.6302 0
M  V30 6535 C 659.554 -0.274648 -5.72742 0
M  V30 6536 N 659.05 -0.477075 -6.91155 0
M  V30 6537 N 660.843 -0.213077 -5.61696 0
M  V30 6538 H 652.994 -1.07177 -1.83376 0
M  V30 6539 H 655.257 -0.423338 -0.848227 0
M  V30 6540 H 654.963 -1.01889 -3.36618 0
M  V30 6541 H 654.837 0.697863 -3.70688 0
M  V30 6542 H 657.224 1.02043 -2.76896 0
M  V30 6543 H 657.305 -0.718996 -2.45487 0
M  V30 6544 H 656.949 -1.16243 -4.94419 0
M  V30 6545 H 656.879 0.59423 -5.23237 0
M  V30 6546 H 659.37 0.0229896 -3.77893 0
M  V30 6547 H 659.683 -0.578413 -7.70632 0
M  V30 6548 H 658.028 -0.513252 -6.93102 0
M  V30 6549 H 661.219 -0.0557796 -4.68067 0
M  V30 6550 H 661.392 -0.329796 -6.4716 0
M  V30 6551 N 654.798 1.5699 0.138552 0
M  V30 6552 C 655.761 1.97984 1.15478 0
M  V30 6553 C 656.761 0.867416 1.35398 0
M  V30 6554 O 657.951 1.13387 1.32246 0
M  V30 6555 C 655.083 2.3031 2.51337 0
M  V30 6556 H 656.276 2.88953 0.802896 0
M  V30 6557 H 653.829 1.51555 0.382189 0
M  V30 6558 H 654.564 1.42159 2.91481 0
M  V30 6559 H 654.349 3.11425 2.38237 0
M  V30 6560 H 655.839 2.62834 3.24512 0
M  V30 6561 N 656.276 -0.40816 1.52223 0
M  V30 6562 C 657.208 -1.51642 1.71864 0
M  V30 6563 C 658.221 -1.51378 0.599056 0
M  V30 6564 O 659.41 -1.55626 0.874239 0
M  V30 6565 C 656.51 -2.90534 1.74481 0
M  V30 6566 C 655.683 -3.14979 3.03491 0
M  V30 6567 C 654.742 -4.33749 2.97907 0
M  V30 6568 O 653.768 -4.30982 3.71811 0
M  V30 6569 N 654.97 -5.38912 2.15764 0
M  V30 6570 H 657.735 -1.35188 2.67478 0
M  V30 6571 H 655.296 -0.597468 1.50472 0
M  V30 6572 H 657.288 -3.68056 1.68275 0
M  V30 6573 H 655.858 -3.00441 0.863363 0
M  V30 6574 H 655.078 -2.25492 3.23337 0
M  V30 6575 H 656.366 -3.28156 3.88833 0
M  V30 6576 H 655.764 -5.44008 1.55152 0
M  V30 6577 H 654.321 -6.15174 2.15415 0
M  V30 6578 N 657.755 -1.42862 -0.66545 0
M  V30 6579 C 658.718 -1.46756 -1.76055 0
M  V30 6580 C 659.718 -0.353866 -1.56858 0
M  V30 6581 O 660.908 -0.615099 -1.62979 0
M  V30 6582 C 658.04 -1.30829 -3.14796 0
M  V30 6583 H 659.233 -2.44271 -1.73987 0
M  V30 6584 H 656.786 -1.29447 -0.875965 0
M  V30 6585 H 657.521 -0.342733 -3.22484 0
M  V30 6586 H 657.306 -2.11551 -3.30134 0
M  V30 6587 H 658.796 -1.36458 -3.94676 0
M  V30 6588 N 659.233 0.902656 -1.29189 0
M  V30 6589 C 660.196 1.98797 -1.14071 0
M  V30 6590 C 661.196 1.60615 -0.0770549 0
M  V30 6591 O 662.386 1.71165 -0.323753 0
M  V30 6592 C 659.518 3.32688 -0.743739 0
M  V30 6593 H 660.711 2.13637 -2.10473 0
M  V30 6594 H 658.264 1.08678 -1.12334 0
M  V30 6595 H 658.999 3.23549 0.220554 0
M  V30 6596 H 658.784 3.61765 -1.51223 0
M  V30 6597 H 660.274 4.12337 -0.660935 0
M  V30 6598 N 660.711 1.11618 1.11262 0
M  V30 6599 C 661.659 0.771291 2.1944 0
M  V30 6600 C 662.653 -0.238073 1.67719 0
M  V30 6601 O 663.859 -0.0971628 1.79738 0
M  V30 6602 H 660.234 0.231548 0.715465 0
M  V30 6603 H 662.205 1.69226 2.45775 0
M  V30 6604 C 660.954 0.232765 3.4692 0
M  V30 6605 H 660.277 1.00072 3.87073 0
M  V30 6606 H 661.717 0.0296561 4.2399 0
M  V30 6607 C 660.176 -1.03738 3.20531 0
M  V30 6608 O 660.706 -2.11675 3.41404 0
M  V30 6609 N 658.912 -0.960906 2.74253 0
M  V30 6610 H 658.459 -0.0824323 2.57468 0
M  V30 6611 H 658.417 -1.8114 2.56974 0
M  V30 6612 N 662.189 -1.289 0.906776 0
M  V30 6613 C 663.437 -1.94883 0.535266 0
M  V30 6614 C 663.758 -1.71784 -0.922791 0
M  V30 6615 O 663.028 -1.05359 -1.65156 0
M  V30 6616 H 661.608 -0.721109 0.194962 0
M  V30 6617 H 664.27 -1.57018 1.15461 0
M  V30 6618 H 663.366 -3.03591 0.723821 0
M  V30 6619 N 663.667 -0.670007 -1.42649 0
M  V30 6620 C 664.915 -0.18991 -2.01206 0
M  V30 6621 C 665.236 1.20617 -1.53221 0
M  V30 6622 O 664.506 1.80898 -0.751856 0
M  V30 6623 H 663.086 -0.0672189 -0.743969 0
M  V30 6624 H 665.748 -0.865442 -1.74631 0
M  V30 6625 H 664.844 -0.187481 -3.11536 0
M  V30 6626 N 665.145 1.52092 -0.413018 0
M  V30 6627 C 666.37 2.06756 0.163338 0
M  V30 6628 C 666.795 1.28073 1.37764 0
M  V30 6629 O 666.153 0.312015 1.78595 0
M  V30 6630 C 666.201 3.57278 0.488322 0
M  V30 6631 O 665.305 3.80986 1.57871 0
M  V30 6632 H 664.646 0.663882 0.0125068 0
M  V30 6633 H 667.176 1.95988 -0.587339 0
M  V30 6634 H 667.186 4.01125 0.745836 0
M  V30 6635 H 665.861 4.13978 -0.399327 0
M  V30 6636 H 664.438 3.49017 1.31306 0
M  V30 6637 N 666.623 0.143563 1.56945 0
M  V30 6638 C 667.533 -0.810562 2.20152 0
M  V30 6639 C 668.549 -1.27431 1.1848 0
M  V30 6640 O 669.725 -1.33221 1.51044 0
M  V30 6641 C 666.79 -2.03353 2.80799 0
M  V30 6642 C 665.851 -1.61936 3.97587 0
M  V30 6643 C 665.084 -2.78403 4.55332 0
M  V30 6644 O 665.307 -3.94521 4.11958 0
M  V30 6645 O 664.241 -2.54073 5.45647 0
M  V30 6646 H 668.067 -0.30253 3.02189 0
M  V30 6647 H 665.652 -0.0832925 1.49168 0
M  V30 6648 H 667.534 -2.74932 3.19359 0
M  V30 6649 H 666.209 -2.53116 2.01777 0
M  V30 6650 H 665.116 -0.873904 3.6375 0
M  V30 6651 H 666.449 -1.16892 4.78118 0
M  V30 6652 N 668.101 -1.57061 -0.130224 0
M  V30 6653 C 669.517 -1.52103 -0.483413 0
M  V30 6654 C 669.717 -0.854752 -1.82473 0
M  V30 6655 O 668.773 -0.432342 -2.48771 0
M  V30 6656 C 670.086 -2.96872 -0.47825 0
M  V30 6657 C 671.634 -3.07902 -0.562592 0
M  V30 6658 C 672.109 -4.54211 -0.587929 0
M  V30 6659 N 673.6 -4.58621 -0.649684 0
M  V30 6660 C 674.335 -5.69227 -0.690551 0
M  V30 6661 N 673.831 -6.89358 -0.689743 0
M  V30 6662 N 675.624 -5.57304 -0.732708 0
M  V30 6663 H 667.775 -1.98764 0.748779 0
M  V30 6664 H 670.038 -0.907248 0.274965 0
M  V30 6665 H 669.744 -3.48944 0.439444 0
M  V30 6666 H 669.618 -3.53716 -1.31013 0
M  V30 6667 H 672.005 -2.5584 -1.47071 0
M  V30 6668 H 672.086 -2.54073 0.296764 0
M  V30 6669 H 671.73 -5.06915 0.316096 0
M  V30 6670 H 671.66 -5.0584 -1.46401 0
M  V30 6671 H 674.151 -3.72146 -0.656927 0
M  V30 6672 H 674.464 -7.69408 -0.723239 0
M  V30 6673 H 672.809 -6.91884 -0.657347 0
M  V30 6674 H 676 -4.62363 -0.730625 0
M  V30 6675 H 676.173 -6.43515 -0.76109 0
M  V30 6676 N 669.579 0.400081 -1.52437 0
M  V30 6677 C 670.804 1.17221 -1.71096 0
M  V30 6678 C 671.229 1.83269 -0.423565 0
M  V30 6679 O 670.587 1.70378 0.619751 0
M  V30 6680 C 670.635 2.20425 -2.85386 0
M  V30 6681 O 669.739 3.26769 -2.51586 0
M  V30 6682 H 669.08 0.341766 -0.569291 0
M  V30 6683 H 671.61 0.467772 -1.99181 0
M  V30 6684 H 671.62 2.64605 -3.10561 0
M  V30 6685 H 670.295 1.71737 -3.78786 0
M  V30 6686 H 668.872 2.87804 -2.37114 0
M  V30 6687 N 671.057 1.43213 0.657864 0
M  V30 6688 C 671.989 1.43974 1.78337 0
M  V30 6689 C 673.002 0.336482 1.59285 0
M  V30 6690 O 674.191 0.600631 1.68091 0
M  V30 6691 C 671.291 1.23242 3.15697 0
M  V30 6692 C 670.464 2.46319 3.61449 0
M  V30 6693 C 669.523 2.2088 4.77597 0
M  V30 6694 O 668.549 2.942 4.87273 0
M  V30 6695 N 669.751 1.22251 5.67481 0
M  V30 6696 H 672.516 2.40993 1.78164 0
M  V30 6697 H 670.077 1.3831 0.841549 0
M  V30 6698 H 672.069 1.04113 3.91079 0
M  V30 6699 H 670.639 0.346849 3.1067 0
M  V30 6700 H 669.859 2.80904 2.76563 0
M  V30 6701 H 671.147 3.28239 3.88763 0
M  V30 6702 H 670.545 0.616433 5.62331 0
M  V30 6703 H 669.102 1.09107 6.42603 0
M  V30 6704 N 672.536 -0.895792 1.29666 0
M  V30 6705 C 673.947 -1.46195 1.1612 0
M  V30 6706 C 674.298 -1.94699 -0.242195 0
M  V30 6707 O 673.423 -1.8406 -1.13802 0
M  V30 6708 C 674.018 -2.65718 2.10189 0
M  V30 6709 C 672.577 -3.18458 2.00653 0
M  V30 6710 C 671.724 -1.91149 2.00891 0
M  V30 6711 H 674.675 -0.706756 1.42094 0
M  V30 6712 H 674.696 -3.4158 1.6764 0
M  V30 6713 H 674.208 -2.30386 3.12321 0
M  V30 6714 H 672.309 -3.58474 1.01623 0
M  V30 6715 H 672.422 -3.82491 2.88509 0
M  V30 6716 H 670.786 -2.09021 1.45542 0
M  V30 6717 H 671.569 -1.58089 3.04734 0
M  V30 6718 N 674.014 -1.12206 -1.10668 0
M  V30 6719 C 675.425 -0.890657 -1.64086 0
M  V30 6720 C 675.776 0.575502 -1.8757 0
M  V30 6721 O 674.901 1.4394 -1.61587 0
M  V30 6722 C 675.496 -1.61029 -2.98085 0
M  V30 6723 C 674.055 -1.4251 -3.48379 0
M  V30 6724 C 673.202 -1.64778 -2.23033 0
M  V30 6725 H 676.153 -1.27718 -0.94201 0
M  V30 6726 H 676.174 -1.05993 -3.65439 0
M  V30 6727 H 675.686 -2.67735 -2.80962 0
M  V30 6728 H 673.787 -0.380497 -3.70652 0
M  V30 6729 H 673.9 -2.17959 -4.26651 0
M  V30 6730 H 672.264 -1.07171 -2.31055 0
M  V30 6731 H 673.047 -2.72776 -2.08443 0
M  V30 6732 N 675.492 1.28418 -0.913599 0
M  V30 6733 C 676.908 1.47411 -0.611728 0
M  V30 6734 C 677.108 1.83018 0.843008 0
M  V30 6735 O 676.164 1.93505 1.6221 0
M  V30 6736 C 677.477 2.57703 -1.5495 0
M  V30 6737 C 679.025 2.71572 -1.5562 0
M  V30 6738 C 679.5 3.85008 -2.48058 0
M  V30 6739 N 680.991 3.92361 -2.46184 0
M  V30 6740 C 681.726 4.79516 -3.14407 0
M  V30 6741 N 681.222 5.71262 -3.91958 0
M  V30 6742 N 683.015 4.73125 -3.03495 0
M  V30 6743 H 675.166 1.03585 -1.85429 0
M  V30 6744 H 677.429 0.515907 -0.795326 0
M  V30 6745 H 677.135 2.38298 -2.58663 0
M  V30 6746 H 677.009 3.54801 -1.28048 0
M  V30 6747 H 679.396 2.90366 -0.526441 0
M  V30 6748 H 679.477 1.75006 -1.86565 0
M  V30 6749 H 679.121 3.66969 -3.51136 0
M  V30 6750 H 679.051 4.80971 -2.14416 0
M  V30 6751 H 681.542 3.26749 -1.89851 0
M  V30 6752 H 681.855 6.34593 -4.41034 0
M  V30 6753 H 680.2 5.71103 -3.96063 0
M  V30 6754 H 683.391 4.00442 -2.42413 0
M  V30 6755 H 683.564 5.40834 -3.56935 0
M  V30 6756 N 676.97 0.677563 1.42291 0
M  V30 6757 C 678.195 0.207901 2.06355 0
M  V30 6758 C 678.62 -1.12723 1.50583 0
M  V30 6759 O 677.978 -1.70171 0.62543 0
M  V30 6760 C 678.026 0.156489 3.6026 0
M  V30 6761 O 677.13 -0.874162 4.03029 0
M  V30 6762 H 676.471 0.106056 0.655475 0
M  V30 6763 H 679.001 0.927354 1.82377 0
M  V30 6764 H 679.011 -0.0187258 4.07996 0
M  V30 6765 H 677.686 1.13101 4.00226 0
M  V30 6766 H 676.263 -0.669764 3.66836 0
M  V30 6767 N 678.448 -1.51871 0.421078 0
M  V30 6768 C 679.673 -2.0684 -0.152371 0
M  V30 6769 C 680.098 -1.28802 -1.37083 0
M  V30 6770 O 679.456 -0.321482 -1.78427 0
M  V30 6771 C 679.504 -3.57532 -0.469368 0
M  V30 6772 O 678.608 -3.81818 -1.55848 0
M  V30 6773 H 677.949 -0.663939 -0.00898586 0
M  V30 6774 H 680.479 -1.95674 0.597724 0
M  V30 6775 H 680.489 -4.01515 -0.724553 0
M  V30 6776 H 679.164 -4.13761 0.421276 0
M  V30 6777 H 677.741 -3.49709 -1.29453 0
M  V30 6778 N 679.926 -0.151884 -1.56866 0
M  V30 6779 C 681.174 0.497021 -1.95893 0
M  V30 6780 C 681.495 1.65078 -1.03799 0
M  V30 6781 O 680.765 1.95642 -0.10049 0
M  V30 6782 H 679.345 0.186603 -0.723318 0
M  V30 6783 H 682.007 -0.228525 -1.93556 0
M  V30 6784 H 681.103 0.869933 -2.99731 0
M  V30 6785 N 681.404 1.57128 0.121893 0
M  V30 6786 C 682.334 2.03165 1.15092 0
M  V30 6787 C 683.315 0.915587 1.43356 0
M  V30 6788 O 684.5 1.1851 1.53847 0
M  V30 6789 C 681.63 2.43352 2.47784 0
M  V30 6790 C 680.584 3.58376 2.33989 0
M  V30 6791 C 679.91 3.84454 3.71617 0
M  V30 6792 C 681.21 4.90199 1.80283 0
M  V30 6793 H 682.904 2.89382 0.768023 0
M  V30 6794 H 680.45 1.39218 0.367998 0
M  V30 6795 H 682.403 2.74163 3.20019 0
M  V30 6796 H 681.127 1.54103 2.87958 0
M  V30 6797 H 679.786 3.2777 1.64202 0
M  V30 6798 H 679.434 2.92414 4.09271 0
M  V30 6799 H 679.134 4.61877 3.6324 0
M  V30 6800 H 680.658 4.17714 4.45362 0
M  V30 6801 H 682.072 5.19565 2.42333 0
M  V30 6802 H 680.469 5.71601 1.82735 0
M  V30 6803 H 681.539 4.78904 0.760184 0
M  V30 6804 N 682.882 -0.391992 1.52647 0
M  V30 6805 C 684.298 -0.731848 1.41831 0
M  V30 6806 C 684.498 -1.9423 0.536361 0
M  V30 6807 O 683.554 -2.52499 0.00866571 0
M  V30 6808 C 684.867 -0.969743 2.84634 0
M  V30 6809 C 686.415 -1.0714 2.94092 0
M  V30 6810 C 686.89 -1.34195 4.37899 0
M  V30 6811 N 688.381 -1.41023 4.41211 0
M  V30 6812 C 689.116 -1.63616 5.49561 0
M  V30 6813 N 688.612 -1.83699 6.68002 0
M  V30 6814 N 690.405 -1.65771 5.371 0
M  V30 6815 H 682.556 0.404547 2.08512 0
M  V30 6816 H 684.819 0.11879 0.940528 0
M  V30 6817 H 684.525 -0.152465 3.51369 0
M  V30 6818 H 684.399 -1.88523 3.26709 0
M  V30 6819 H 686.786 -1.87925 2.27526 0
M  V30 6820 H 686.867 -0.133887 2.55449 0
M  V30 6821 H 686.511 -0.539207 5.0503 0
M  V30 6822 H 686.441 -2.29226 4.74092 0
M  V30 6823 H 688.932 -1.27223 3.55841 0
M  V30 6824 H 689.245 -2.00437 7.46354 0
M  V30 6825 H 687.59 -1.8093 6.71036 0
M  V30 6826 H 690.781 -1.4963 4.43541 0
M  V30 6827 H 690.954 -1.83038 6.21612 0
M  V30 6828 N 684.36 -1.4356 -0.65026 0
M  V30 6829 C 685.776 -1.27025 -0.966269 0
M  V30 6830 C 685.976 -0.192117 -2.00582 0
M  V30 6831 O 685.032 0.428459 -2.48838 0
M  V30 6832 C 686.345 -2.63556 -1.44772 0
M  V30 6833 C 687.893 -2.71111 -1.56421 0
M  V30 6834 C 688.368 -4.08067 -2.07956 0
M  V30 6835 N 689.859 -4.10146 -2.15254 0
M  V30 6836 C 690.594 -5.12952 -2.56258 0
M  V30 6837 N 690.09 -6.26129 -2.96537 0
M  V30 6838 N 691.883 -5.00306 -2.56224 0
M  V30 6839 H 684.034 -2.12367 0.0375758 0
M  V30 6840 H 686.297 -0.946894 -0.0457782 0
M  V30 6841 H 686.003 -3.43429 -0.758271 0
M  V30 6842 H 685.877 -2.89152 -2.42221 0
M  V30 6843 H 688.264 -1.91569 -2.24467 0
M  V30 6844 H 688.345 -2.49277 -0.573967 0
M  V30 6845 H 687.989 -4.88077 -1.40511 0
M  V30 6846 H 687.919 -4.27266 -3.07817 0
M  V30 6847 H 690.41 -3.28453 -1.86887 0
M  V30 6848 H 690.723 -7.00403 -3.26582 0
M  V30 6849 H 689.068 -6.29597 -2.94334 0
M  V30 6850 H 692.259 -4.10952 -2.24135 0
M  V30 6851 H 692.432 -5.80553 -2.87857 0
M  V30 6852 N 685.838 0.888903 -1.30139 0
M  V30 6853 C 686.77 1.99972 -1.11999 0
M  V30 6854 C 687.783 1.62673 -0.0643619 0
M  V30 6855 O 688.972 1.75788 -0.309983 0
M  V30 6856 C 686.072 3.31904 -0.685059 0
M  V30 6857 C 685.245 3.97665 -1.82158 0
M  V30 6858 C 684.304 5.07894 -1.37585 0
M  V30 6859 O 683.33 5.2974 -2.08241 0
M  V30 6860 N 684.532 5.7995 -0.252697 0
M  V30 6861 H 687.297 2.16085 -2.07671 0
M  V30 6862 H 684.858 1.06175 -1.22223 0
M  V30 6863 H 686.85 4.03005 -0.369964 0
M  V30 6864 H 685.42 3.12084 0.179507 0
M  V30 6865 H 684.64 3.19787 -2.305 0
M  V30 6866 H 685.928 4.3834 -2.58332 0
M  V30 6867 H 685.326 5.647 0.336141 0
M  V30 6868 H 683.883 6.518 0.00296813 0
M  V30 6869 N 687.317 1.12792 1.10072 0
M  V30 6870 C 688.28 0.802264 2.14701 0
M  V30 6871 C 689.28 -0.18515 1.59731 0
M  V30 6872 O 690.47 0.041109 1.74151 0
M  V30 6873 C 687.602 0.19285 3.40354 0
M  V30 6874 H 688.795 1.72932 2.45019 0
M  V30 6875 H 686.348 0.931662 1.25498 0
M  V30 6876 H 687.083 -0.743748 3.15656 0
M  V30 6877 H 686.868 0.903827 3.81541 0
M  V30 6878 H 688.358 -0.0183704 4.17596 0
M  V30 6879 N 688.795 -1.27931 0.920396 0
M  V30 6880 C 690.044 -1.93975 0.552867 0
M  V30 6881 C 690.357 -1.73193 -0.909035 0
M  V30 6882 O 691.563 -2.33515 -1.38502 0
M  V30 6883 C 690.019 -3.47463 0.937947 0
M  V30 6884 C 689.627 -3.77013 2.42003 0
M  V30 6885 C 691.371 -4.19628 0.64132 0
M  V30 6886 C 689.278 -5.23841 2.74489 0
M  V30 6887 H 688.208 -0.726146 0.203046 0
M  V30 6888 H 690.859 -1.45339 1.12022 0
M  V30 6889 H 689.241 -3.94867 0.299317 0
M  V30 6890 H 690.415 -3.40393 3.10595 0
M  V30 6891 H 688.73 -3.18035 2.6878 0
M  V30 6892 H 691.327 -5.27729 0.860622 0
M  V30 6893 H 691.67 -4.14164 -0.421168 0
M  V30 6894 H 692.203 -3.78022 1.23872 0
M  V30 6895 H 688.942 -5.34388 3.79618 0
M  V30 6896 H 688.462 -5.61634 2.1054 0
M  V30 6897 H 690.141 -5.91647 2.61845 0
M  V30 6898 N 690.273 -0.685099 -1.4193 0
M  V30 6899 C 691.205 0.0258679 -2.29185 0
M  V30 6900 C 692.218 0.755076 -1.44231 0
M  V30 6901 O 693.407 0.60752 -1.67844 0
M  V30 6902 C 690.507 1.06055 -3.21878 0
M  V30 6903 C 689.68 0.403088 -4.35539 0
M  V30 6904 C 688.739 1.33895 -5.0888 0
M  V30 6905 O 687.765 0.835326 -5.63037 0
M  V30 6906 N 688.967 2.6718 -5.15359 0
M  V30 6907 H 691.732 -0.723201 -2.90843 0
M  V30 6908 H 689.293 -0.53031 -1.52968 0
M  V30 6909 H 691.285 1.68813 -3.6781 0
M  V30 6910 H 689.855 1.71126 -2.616 0
M  V30 6911 H 689.075 -0.404185 -3.92122 0
M  V30 6912 H 690.363 -0.0545098 -5.08771 0
M  V30 6913 H 689.761 3.10626 -4.72788 0
M  V30 6914 H 688.318 3.25159 -5.64903 0
M  V30 6915 N 691.751 1.51645 -0.429126 0
M  V30 6916 C 692.699 2.29119 0.400921 0
M  V30 6917 C 693.693 1.34628 1.02819 0
M  V30 6918 O 694.899 1.52004 0.964098 0
M  V30 6919 H 691.274 0.737273 0.148095 0
M  V30 6920 H 693.245 2.97144 -0.273457 0
M  V30 6921 C 691.994 3.13953 1.49429 0
M  V30 6922 H 691.317 3.86544 1.02097 0
M  V30 6923 H 692.757 3.71232 2.04849 0
M  V30 6924 C 691.216 2.28796 2.47293 0
M  V30 6925 O 691.746 1.94193 3.51642 0
M  V30 6926 N 689.952 1.92177 2.17982 0
M  V30 6927 H 689.499 2.20517 1.33154 0
M  V30 6928 H 689.457 1.35497 2.83704 0
M  V30 6929 N 693.229 0.160201 1.56784 0
M  V30 6930 C 694.475 -0.481855 1.9761 0
M  V30 6931 C 694.83 -1.61605 1.04411 0
M  V30 6932 O 694.123 -1.91426 0.0816402 0
M  V30 6933 C 694.317 -1.02259 3.42459 0
M  V30 6934 C 694.146 0.0576781 4.49663 0
M  V30 6935 C 692.916 0.503585 5.02784 0
M  V30 6936 C 695.114 0.854013 5.0716 0
M  V30 6937 N 693.096 1.56532 5.93608 0
M  V30 6938 C 694.467 1.76593 5.94319 0
M  V30 6939 C 696.522 0.900333 4.89692 0
M  V30 6940 C 695.225 2.72023 6.6588 0
M  V30 6941 C 697.251 1.84252 5.61965 0
M  V30 6942 C 696.613 2.74194 6.48843 0
M  V30 6943 H 692.712 -0.144748 0.768487 0
M  V30 6944 H 695.296 0.257853 1.92985 0
M  V30 6945 H 693.467 -1.73186 3.47651 0
M  V30 6946 H 695.199 -1.63235 3.70319 0
M  V30 6947 H 691.954 0.103361 4.73487 0
M  V30 6948 H 692.378 2.09634 6.43726 0
M  V30 6949 H 697.02 0.219023 4.22232 0
M  V30 6950 H 694.738 3.41147 7.3256 0
M  V30 6951 H 698.324 1.88433 5.5044 0
M  V30 6952 H 697.204 3.45912 7.03786 0
M  V30 6953 N 694.707 -1.5719 -0.113559 0
M  V30 6954 C 695.639 -1.97393 -1.16484 0
M  V30 6955 C 696.652 -0.873964 -1.37352 0
M  V30 6956 O 697.841 -1.15222 -1.36331 0
M  V30 6957 C 694.941 -2.26174 -2.52386 0
M  V30 6958 C 694.114 -3.57479 -2.52046 0
M  V30 6959 C 693.173 -3.74409 -3.69735 0
M  V30 6960 O 692.199 -4.46463 -3.53071 0
M  V30 6961 N 693.401 -3.13588 -4.88511 0
M  V30 6962 H 696.166 -2.88184 -0.822814 0
M  V30 6963 H 693.727 -1.59044 -0.302769 0
M  V30 6964 H 695.719 -2.3471 -3.29687 0
M  V30 6965 H 694.289 -1.41483 -2.7875 0
M  V30 6966 H 693.509 -3.60081 -1.60421 0
M  V30 6967 H 694.797 -4.43775 -2.48881 0
M  V30 6968 H 694.195 -2.55026 -5.04953 0
M  V30 6969 H 692.752 -3.27637 -5.63469 0
M  V30 6970 N 696.185 0.383891 -1.52853 0
M  V30 6971 C 697.601 0.724316 -1.42218 0
M  V30 6972 C 697.801 1.93943 -0.546654 0
M  V30 6973 O 696.857 2.5249 -0.0220562 0
M  V30 6974 C 698.17 0.954635 -2.85144 0
M  V30 6975 C 699.718 1.05579 -2.94656 0
M  V30 6976 C 700.193 1.3187 -4.38605 0
M  V30 6977 N 701.684 1.38681 -4.41952 0
M  V30 6978 C 702.419 1.60699 -5.50421 0
M  V30 6979 N 701.915 1.80154 -6.68967 0
M  V30 6980 N 703.708 1.6292 -5.37972 0
M  V30 6981 H 695.859 -0.4156 -2.08294 0
M  V30 6982 H 698.122 -0.123776 -0.939885 0
M  V30 6983 H 697.828 0.133829 -3.51445 0
M  V30 6984 H 697.702 1.86788 -3.27704 0
M  V30 6985 H 700.089 1.86716 -2.2852 0
M  V30 6986 H 700.17 0.120338 -2.55517 0
M  V30 6987 H 699.814 0.512416 -5.05309 0
M  V30 6988 H 699.744 2.26708 -4.75301 0
M  V30 6989 H 702.235 1.25334 -3.56511 0
M  V30 6990 H 702.548 1.96476 -7.47407 0
M  V30 6991 H 700.893 1.77368 -6.71986 0
M  V30 6992 H 704.084 1.47276 -4.44328 0
M  V30 6993 H 704.257 1.79739 -6.22574 0
M  V30 6994 N 697.663 1.43903 0.642637 0
M  V30 6995 C 699.079 1.27536 0.959519 0
M  V30 6996 C 699.279 0.202751 2.00477 0
M  V30 6997 O 698.335 -0.415256 2.49062 0
M  V30 6998 C 699.648 2.6432 1.43372 0
M  V30 6999 C 701.196 2.71937 1.54981 0
M  V30 7000 C 701.671 4.09164 2.05789 0
M  V30 7001 N 703.162 4.11282 2.13076 0
M  V30 7002 C 703.897 5.14303 2.53534 0
M  V30 7003 N 703.393 6.27693 2.93212 0
M  V30 7004 N 705.186 5.01657 2.53567 0
M  V30 7005 H 697.337 2.12344 -0.0488376 0
M  V30 7006 H 699.6 0.947124 0.0407559 0
M  V30 7007 H 699.306 3.43826 0.740048 0
M  V30 7008 H 699.18 2.90432 2.40685 0
M  V30 7009 H 701.567 1.92757 2.23448 0
M  V30 7010 H 701.648 2.49578 0.560739 0
M  V30 7011 H 701.292 4.88815 1.37921 0
M  V30 7012 H 701.222 4.28893 3.05546 0
M  V30 7013 H 703.713 3.2944 1.85143 0
M  V30 7014 H 704.026 7.02125 3.22863 0
M  V30 7015 H 702.371 6.31149 2.90991 0
M  V30 7016 H 705.562 4.12134 2.21952 0
M  V30 7017 H 705.735 5.82072 2.84774 0
M  V30 7018 N 699.141 -0.881989 1.30609 0
M  V30 7019 C 700.552 -1.44956 1.17664 0
M  V30 7020 C 700.903 -1.94945 -0.221531 0
M  V30 7021 O 700.028 -1.85257 -1.11844 0
M  V30 7022 C 700.623 -2.63474 2.12995 0
M  V30 7023 C 699.182 -3.16312 2.04019 0
M  V30 7024 C 698.329 -1.89008 2.02907 0
M  V30 7025 H 701.28 -0.691645 1.42835 0
M  V30 7026 H 701.301 -3.39783 1.71253 0
M  V30 7027 H 700.813 -2.2706 3.14746 0
M  V30 7028 H 698.914 -3.57376 1.0542 0
M  V30 7029 H 699.027 -3.79409 2.9255 0
M  V30 7030 H 697.391 -2.07465 1.47751 0
M  V30 7031 H 698.174 -1.54848 3.06394 0
M  V30 7032 N 700.619 -1.13374 -1.09472 0
M  V30 7033 C 702.035 -0.871846 -1.33682 0
M  V30 7034 C 702.235 0.492847 -1.9538 0
M  V30 7035 O 701.291 1.23946 -2.19985 0
M  V30 7036 C 702.604 -1.99608 -2.24893 0
M  V30 7037 C 704.152 -2.02812 -2.38404 0
M  V30 7038 C 704.627 -3.14497 -3.3295 0
M  V30 7039 N 706.118 -3.14004 -3.40523 0
M  V30 7040 C 706.853 -3.97061 -4.13679 0
M  V30 7041 N 706.349 -4.90131 -4.89636 0
M  V30 7042 N 708.142 -3.85162 -4.09398 0
M  V30 7043 H 700.293 -2.01288 -0.677995 0
M  V30 7044 H 702.556 -0.876492 -0.361201 0
M  V30 7045 H 702.262 -2.98 -1.86786 0
M  V30 7046 H 702.136 -1.90981 -3.25278 0
M  V30 7047 H 704.523 -1.05034 -2.75775 0
M  V30 7048 H 704.604 -2.15511 -1.37799 0
M  V30 7049 H 704.248 -4.12514 -2.96302 0
M  V30 7050 H 704.178 -2.99035 -4.33458 0
M  V30 7051 H 706.669 -2.46587 -2.86362 0
M  V30 7052 H 706.982 -5.49996 -5.42885 0
M  V30 7053 H 705.327 -4.94138 -4.88726 0
M  V30 7054 H 708.518 -3.11779 -3.49158 0
M  V30 7055 H 708.691 -4.5012 -4.6615 0
M  V30 7056 N 702.098 1.27442 -0.927168 0
M  V30 7057 C 703.514 1.46754 -0.627329 0
M  V30 7058 C 703.714 1.83902 0.823549 0
M  V30 7059 O 702.77 1.95215 1.60148 0
M  V30 7060 C 704.083 2.56045 -1.57674 0
M  V30 7061 C 705.631 2.69906 -1.58491 0
M  V30 7062 C 706.106 3.82355 -2.52128 0
M  V30 7063 N 707.597 3.89728 -2.50332 0
M  V30 7064 C 708.332 4.76155 -3.19475 0
M  V30 7065 N 707.828 5.67073 -3.97995 0
M  V30 7066 N 709.621 4.6988 -3.08496 0
M  V30 7067 H 701.772 1.01613 -1.86517 0
M  V30 7068 H 704.035 0.507443 -0.800753 0
M  V30 7069 H 703.741 2.35542 -2.61176 0
M  V30 7070 H 703.615 3.53423 -1.31804 0
M  V30 7071 H 706.002 2.89792 -0.557208 0
M  V30 7072 H 706.083 1.73018 -1.8841 0
M  V30 7073 H 705.727 3.63224 -3.55008 0
M  V30 7074 H 705.657 4.7867 -2.19505 0
M  V30 7075 H 708.148 3.24717 -1.93306 0
M  V30 7076 H 708.461 6.2988 -4.4774 0
M  V30 7077 H 706.806 5.6687 -4.02098 0
M  V30 7078 H 709.997 3.97848 -2.46646 0
M  V30 7079 H 710.17 5.37017 -3.62652 0
M  V30 7080 N 703.576 0.692616 1.41565 0
M  V30 7081 C 704.526 0.00231847 2.28 0
M  V30 7082 C 705.51 -0.755793 1.42044 0
M  V30 7083 O 706.702 -0.631772 1.65341 0
M  V30 7084 C 703.831 -0.935468 3.30309 0
M  V30 7085 C 702.917 -0.173761 4.23744 0
M  V30 7086 N 703.308 0.830872 4.98929 0
M  V30 7087 C 701.606 -0.409666 4.44115 0
M  V30 7088 C 702.307 1.28656 5.67294 0
M  V30 7089 N 701.283 0.613053 5.40132 0
M  V30 7090 H 705.085 0.772635 2.83562 0
M  V30 7091 H 702.599 0.523198 1.53741 0
M  V30 7092 H 704.596 -1.44513 3.91052 0
M  V30 7093 H 703.256 -1.70542 2.76307 0
M  V30 7094 H 704.267 1.21101 5.03542 0
M  V30 7095 H 700.944 -1.15773 4.01127 0
M  V30 7096 H 702.334 2.12006 6.37576 0
M  V30 7097 N 705.054 -1.51416 0.437162 0
M  V30 7098 C 706.279 -2.0699 -0.130424 0
M  V30 7099 C 706.704 -1.30249 -1.35709 0
M  V30 7100 O 706.062 -0.340388 -1.78076 0
M  V30 7101 C 706.11 -3.5801 -0.43142 0
M  V30 7102 O 705.214 -3.8345 -1.5179 0
M  V30 7103 H 704.555 -0.663997 -0.00194339 0
M  V30 7104 H 707.085 -1.95029 0.618445 0
M  V30 7105 H 707.095 -4.02261 -0.681926 0
M  V30 7106 H 705.77 -4.13291 0.465137 0
M  V30 7107 H 704.347 -3.51062 -1.25737 0
M  V30 7108 N 706.532 -0.168513 -1.56696 0
M  V30 7109 C 707.76 0.483503 -2.01171 0
M  V30 7110 C 708.175 1.56994 -1.04872 0
M  V30 7111 O 707.532 1.82434 -0.0491337 0
M  V30 7112 C 707.583 1.0644 -3.45475 0
M  V30 7113 O 707.304 0.0213375 -4.38095 0
M  V30 7114 C 708.805 1.79493 -4.05336 0
M  V30 7115 H 706.025 0.124002 -0.659443 0
M  V30 7116 H 708.569 -0.269419 -2.02717 0
M  V30 7117 H 706.724 1.76784 -3.44712 0
M  V30 7118 H 707.138 0.449837 -5.22567 0
M  V30 7119 H 708.612 2.15401 -5.08238 0
M  V30 7120 H 709.089 2.68889 -3.47269 0
M  V30 7121 H 709.695 1.13798 -4.09793 0
M  V30 7122 N 708.01 1.57248 0.105221 0
M  V30 7123 C 708.92 2.04653 1.14693 0
M  V30 7124 C 709.936 0.969488 1.44489 0
M  V30 7125 O 711.112 1.28196 1.55331 0
M  V30 7126 C 708.177 2.45297 2.45011 0
M  V30 7127 C 707.238 3.67148 2.22489 0
M  V30 7128 C 706.471 4.05844 3.46592 0
M  V30 7129 O 706.694 3.44736 4.54437 0
M  V30 7130 O 705.628 4.98862 3.36779 0
M  V30 7131 H 709.454 2.93663 0.774336 0
M  V30 7132 H 707.039 1.45998 0.31701 0
M  V30 7133 H 708.921 2.72112 3.21766 0
M  V30 7134 H 707.596 1.59429 2.81717 0
M  V30 7135 H 706.503 3.45463 1.43547 0
M  V30 7136 H 707.836 4.53764 1.9068 0
M  V30 7137 N 709.488 -0.375779 1.53054 0
M  V30 7138 C 710.736 -1.11727 1.68409 0
M  V30 7139 C 711.057 -1.90127 0.43323 0
M  V30 7140 O 710.327 -1.87945 -0.552595 0
M  V30 7141 H 708.907 -0.415451 0.620813 0
M  V30 7142 H 711.569 -0.424869 1.90213 0
M  V30 7143 H 710.665 -1.8128 2.54055 0
M  V30 7144 N 710.966 -1.44241 -0.634997 0
M  V30 7145 C 711.876 -1.53293 -1.77591 0
M  V30 7146 C 712.892 -0.418831 -1.68884 0
M  V30 7147 O 714.068 -0.675619 -1.8973 0
M  V30 7148 C 711.133 -1.47075 -3.13958 0
M  V30 7149 C 710.194 -2.69304 -3.34326 0
M  V30 7150 C 709.427 -2.63374 -4.64187 0
M  V30 7151 O 709.65 -1.69161 -5.44739 0
M  V30 7152 O 708.584 -3.54166 -4.86673 0
M  V30 7153 H 712.41 -2.49673 -1.72908 0
M  V30 7154 H 709.995 -1.26445 -0.795745 0
M  V30 7155 H 711.877 -1.46117 -3.95257 0
M  V30 7156 H 710.552 -0.538373 -3.19192 0
M  V30 7157 H 709.459 -2.75831 -2.52721 0
M  V30 7158 H 710.792 -3.61576 -3.33951 0
M  V30 7159 N 712.444 0.87505 -1.31075 0
M  V30 7160 C 713.354 2.01441 -1.20244 0
M  V30 7161 C 714.37 1.73584 -0.120227 0
M  V30 7162 O 715.546 1.98559 -0.337063 0
M  V30 7163 C 712.611 3.34675 -0.905199 0
M  V30 7164 C 711.672 3.75889 -2.0738 0
M  V30 7165 C 710.905 5.02764 -1.79064 0
M  V30 7166 O 711.128 5.65795 -0.723318 0
M  V30 7167 O 710.062 5.40623 -2.64594 0
M  V30 7168 H 713.888 2.13509 -2.1598 0
M  V30 7169 H 711.473 1.00257 -1.10765 0
M  V30 7170 H 713.355 4.1458 -0.755057 0
M  V30 7171 H 712.03 3.23692 0.0221695 0
M  V30 7172 H 710.937 2.96645 -2.27931 0
M  V30 7173 H 712.27 3.91489 -2.98324 0
M  V30 7174 N 713.922 1.13953 1.08869 0
M  V30 7175 C 715.17 0.903023 1.80803 0
M  V30 7176 C 715.491 -0.572151 1.86417 0
M  V30 7177 O 714.761 -1.41589 1.35386 0
M  V30 7178 H 713.341 0.331099 0.669614 0
M  V30 7179 H 716.003 1.43719 1.31647 0
M  V30 7180 H 715.099 1.29881 2.83791 0
M  V30 7181 N 715.4 -1.26948 0.933913 0
M  V30 7182 C 716.677 -1.89212 0.495784 0
M  V30 7183 C 717.057 -1.84469 -1.02637 0
M  V30 7184 O 716.405 -1.29409 -1.88323 0
M  V30 7185 C 716.615 -3.32865 1.0489 0
M  V30 7186 C 717.963 -4.09749 1.11315 0
M  V30 7187 O 718.987 -3.41905 0.998966 0
M  V30 7188 O 717.846 -5.31061 1.28983 0
M  V30 7189 H 714.94 -0.811284 0.160459 0
M  V30 7190 H 717.486 -1.35171 1.02601 0
M  V30 7191 H 716.258 -3.30642 2.09265 0
M  V30 7192 H 715.881 -3.94435 0.500692 0
M  V30 7193 N 716.879 -0.700114 -1.41195 0
M  V30 7194 C 718.125 -0.233351 -2.01453 0
M  V30 7195 C 718.458 1.16548 -1.55339 0
M  V30 7196 O 717.733 1.78756 -0.766575 0
M  V30 7197 C 718.016 -0.2961 -3.58881 0
M  V30 7198 C 717.869 -1.7322 -4.15108 0
M  V30 7199 C 719.188 0.341525 -4.38773 0
M  V30 7200 H 716.307 -0.0862667 -0.731934 0
M  V30 7201 H 718.949 -0.889693 -1.67882 0
M  V30 7202 H 717.099 0.262736 -3.87611 0
M  V30 7203 H 718.771 -2.34523 -3.97236 0
M  V30 7204 H 717.014 -2.2649 -3.69979 0
M  V30 7205 H 717.685 -1.7276 -5.24269 0
M  V30 7206 H 720.161 -0.134461 -4.15883 0
M  V30 7207 H 719.037 0.267098 -5.4825 0
M  V30 7208 H 719.298 1.42289 -4.18577 0
M  V30 7209 N 718.357 1.51182 -0.445186 0
M  V30 7210 C 719.582 2.07056 0.119445 0
M  V30 7211 C 720.007 1.30966 1.35016 0
M  V30 7212 O 719.365 0.349827 1.77893 0
M  V30 7213 C 719.413 3.58234 0.412428 0
M  V30 7214 O 718.517 3.84249 1.49754 0
M  V30 7215 H 717.858 0.663998 -0.00157797 0
M  V30 7216 H 720.388 1.94699 -0.628779 0
M  V30 7217 H 720.398 4.02617 0.660583 0
M  V30 7218 H 719.073 4.13038 -0.487049 0
M  V30 7219 H 717.65 3.51724 1.23873 0
M  V30 7220 N 719.835 0.176821 1.56605 0
M  V30 7221 C 721.112 -0.513365 1.88743 0
M  V30 7222 C 721.492 -1.80929 1.08757 0
M  V30 7223 O 720.84 -2.27765 0.183127 0
M  V30 7224 C 721.05 -0.749925 3.40848 0
M  V30 7225 C 722.398 -1.07747 4.10701 0
M  V30 7226 O 723.422 -0.838277 3.46196 0
M  V30 7227 O 722.281 -1.52901 5.24675 0
M  V30 7228 H 719.375 -0.265296 0.783292 0
M  V30 7229 H 721.921 0.215669 1.68324 0
M  V30 7230 H 720.693 0.16599 3.90948 0
M  V30 7231 H 720.316 -1.53208 3.66897 0
M  V30 7232 N 721.313 -1.57302 -0.09688 0
M  V30 7233 C 722.559 -1.86273 -0.801885 0
M  V30 7234 C 722.892 -0.765694 -1.78468 0
M  V30 7235 O 722.167 0.226495 -1.93177 0
M  V30 7236 C 722.45 -3.25876 -1.53221 0
M  V30 7237 C 722.303 -4.46205 -0.567529 0
M  V30 7238 C 723.622 -3.63352 -2.48321 0
M  V30 7239 H 720.741 -0.67752 -0.29006 0
M  V30 7240 H 723.383 -1.89887 -0.0655577 0
M  V30 7241 H 721.533 -3.22926 -2.15988 0
M  V30 7242 H 723.205 -4.6127 0.0529982 0
M  V30 7243 H 721.448 -4.33636 0.119233 0
M  V30 7244 H 722.119 -5.40608 -1.11564 0
M  V30 7245 H 724.595 -3.67234 -1.95648 0
M  V30 7246 H 723.471 -4.61968 -2.9644 0
M  V30 7247 H 723.732 -2.91941 -3.31998 0
M  V30 7248 N 722.791 0.367657 -1.53252 0
M  V30 7249 C 724.039 1.10832 -1.68999 0
M  V30 7250 C 724.36 1.89894 -0.443306 0
M  V30 7251 O 723.63 1.88235 0.54262 0
M  V30 7252 H 722.21 0.412153 -0.623008 0
M  V30 7253 H 724.872 0.414775 -1.90435 0
M  V30 7254 H 723.968 1.7993 -2.55013 0
M  V30 7255 N 724.269 1.44576 0.627338 0
M  V30 7256 C 725.494 1.51271 1.41887 0
M  V30 7257 C 725.919 0.139814 1.8758 0
M  V30 7258 O 725.277 -0.871746 1.58966 0
M  V30 7259 C 725.325 2.48529 2.61277 0
M  V30 7260 O 724.429 1.98944 3.61241 0
M  V30 7261 H 723.77 0.510668 0.424399 0
M  V30 7262 H 726.3 1.89746 0.765356 0
M  V30 7263 H 726.31 2.66689 3.08773 0
M  V30 7264 H 724.985 3.48249 2.27366 0
M  V30 7265 H 723.562 1.90568 3.20528 0
M  V30 7266 N 725.747 -0.868086 1.31537 0
M  V30 7267 C 727.163 -1.15414 1.10235 0
M  V30 7268 C 727.363 -2.01106 -0.125947 0
M  V30 7269 O 726.419 -2.38994 -0.814734 0
M  V30 7270 C 727.732 -1.84445 2.37488 0
M  V30 7271 C 729.28 -1.97139 2.43116 0
M  V30 7272 C 729.755 -2.69585 3.70254 0
M  V30 7273 N 731.246 -2.77119 3.71159 0
M  V30 7274 C 731.981 -3.33791 4.6623 0
M  V30 7275 N 731.477 -3.9138 5.71659 0
M  V30 7276 N 733.27 -3.31767 4.53747 0
M  V30 7277 H 725.421 -0.297109 2.10312 0
M  V30 7278 H 727.684 -0.194227 0.92789 0
M  V30 7279 H 727.39 -1.2893 3.27215 0
M  V30 7280 H 727.264 -2.84709 2.47428 0
M  V30 7281 H 729.651 -2.51818 1.53856 0
M  V30 7282 H 729.732 -0.95912 2.37138 0
M  V30 7283 H 729.376 -2.15572 4.59881 0
M  V30 7284 H 729.306 -3.71223 3.73499 0
M  V30 7285 H 731.797 -2.3625 2.94948 0
M  V30 7286 H 732.11 -4.3274 6.40278 0
M  V30 7287 H 730.455 -3.8975 5.7543 0
M  V30 7288 H 733.646 -2.86016 3.70557 0
M  V30 7289 H 733.819 -3.75636 5.28017 0
M  V30 7290 N 727.225 -1.14528 -1.08264 0
M  V30 7291 C 728.453 -0.937964 -1.84418 0
M  V30 7292 C 728.868 0.51357 -1.81681 0
M  V30 7293 O 728.225 1.35591 -1.22153 0
M  V30 7294 C 728.276 -1.43272 -3.31897 0
M  V30 7295 O 727.997 -2.82738 -3.34651 0
M  V30 7296 C 729.498 -1.26555 -4.24851 0
M  V30 7297 H 726.718 -0.333704 -0.582136 0
M  V30 7298 H 729.262 -1.52076 -1.36723 0
M  V30 7299 H 727.417 -0.892653 -3.76975 0
M  V30 7300 H 727.831 -3.04971 -4.26724 0
M  V30 7301 H 729.305 -1.66031 -5.26439 0
M  V30 7302 H 729.782 -0.208589 -4.38704 0
M  V30 7303 H 730.388 -1.79423 -3.856 0
M  V30 7304 N 728.703 1.26451 -0.940633 0
M  V30 7305 C 729.931 1.97868 -0.604642 0
M  V30 7306 C 730.346 1.70051 0.820251 0
M  V30 7307 O 729.703 0.96843 1.54686 0
M  V30 7308 C 729.754 3.51684 -0.836689 0
M  V30 7309 O 729.475 3.78533 -2.20554 0
M  V30 7310 C 730.976 4.40343 -0.511169 0
M  V30 7311 H 728.196 0.631105 -0.227919 0
M  V30 7312 H 730.74 1.60979 -1.26119 0
M  V30 7313 H 728.895 3.86736 -0.226759 0
M  V30 7314 H 729.309 4.73065 -2.26517 0
M  V30 7315 H 730.783 5.47229 -0.724157 0
M  V30 7316 H 731.26 4.35694 0.553815 0
M  V30 7317 H 731.866 4.10834 -1.0998 0
M  V30 7318 N 730.181 0.707592 1.40822 0
M  V30 7319 C 731.091 0.0507246 2.34545 0
M  V30 7320 C 732.107 -0.752727 1.56876 0
M  V30 7321 O 733.283 -0.687524 1.89302 0
M  V30 7322 C 730.348 -0.865731 3.35717 0
M  V30 7323 C 729.409 -0.0531313 4.29267 0
M  V30 7324 C 728.642 -0.925939 5.25606 0
M  V30 7325 O 728.865 -2.16531 5.27703 0
M  V30 7326 O 727.799 -0.369194 6.00767 0
M  V30 7327 H 731.625 0.823587 2.9232 0
M  V30 7328 H 729.21 0.46801 1.4188 0
M  V30 7329 H 731.092 -1.39091 3.97783 0
M  V30 7330 H 729.767 -1.61788 2.80368 0
M  V30 7331 H 728.674 0.516931 3.70511 0
M  V30 7332 H 730.007 0.660617 4.87747 0
M  V30 7333 N 731.66 -1.50943 0.453197 0
M  V30 7334 C 732.885 -2.07116 -0.108463 0
M  V30 7335 C 733.31 -1.31681 -1.3432 0
M  V30 7336 O 732.668 -0.359256 -1.77705 0
M  V30 7337 C 732.716 -3.58447 -0.393424 0
M  V30 7338 O 731.82 -3.85038 -1.47714 0
M  V30 7339 H 731.161 -0.66398 0.0050993 0
M  V30 7340 H 733.691 -1.94362 0.639095 0
M  V30 7341 H 733.701 -4.02961 -0.639222 0
M  V30 7342 H 732.376 -4.12774 0.508946 0
M  V30 7343 H 730.953 -3.52376 -1.22006 0
M  V30 7344 N 733.138 -0.185124 -1.56509 0
M  V30 7345 C 734.048 0.751908 -2.22224 0
M  V30 7346 C 735.064 1.24244 -1.21817 0
M  V30 7347 O 736.24 1.29169 -1.54523 0
M  V30 7348 C 733.305 1.95837 -2.86092 0
M  V30 7349 C 732.366 1.51337 -4.01741 0
M  V30 7350 C 731.599 2.66233 -4.62554 0
M  V30 7351 O 731.822 3.8346 -4.22273 0
M  V30 7352 O 730.756 2.39517 -5.52191 0
M  V30 7353 H 734.582 0.222304 -3.02885 0
M  V30 7354 H 732.167 0.0437141 -1.49336 0
M  V30 7355 H 734.049 2.66368 -3.26536 0
M  V30 7356 H 732.724 2.47677 -2.08417 0
M  V30 7357 H 731.631 0.777155 -3.65939 0
M  V30 7358 H 732.964 1.04175 -4.81049 0
M  V30 7359 N 734.616 1.57351 0.0885366 0
M  V30 7360 C 735.579 2.01557 1.09121 0
M  V30 7361 C 736.579 0.910052 1.3257 0
M  V30 7362 O 737.769 1.17537 1.28572 0
M  V30 7363 C 734.901 2.38189 2.43883 0
M  V30 7364 H 736.094 2.91361 0.710562 0
M  V30 7365 H 733.647 1.52694 0.333779 0
M  V30 7366 H 734.382 1.5136 2.86811 0
M  V30 7367 H 734.167 3.18846 2.28209 0
M  V30 7368 H 735.657 2.73025 3.15986 0
M  V30 7369 N 736.094 -0.359525 1.53444 0
M  V30 7370 C 737.004 -1.46445 1.83278 0
M  V30 7371 C 738.02 -1.5833 0.721629 0
M  V30 7372 O 739.196 -1.7411 1.01231 0
M  V30 7373 C 736.261 -2.81638 2.02191 0
M  V30 7374 C 735.322 -2.7923 3.26082 0
M  V30 7375 C 734.555 -4.07974 3.44082 0
M  V30 7376 O 734.778 -5.04447 2.66251 0
M  V30 7377 O 733.712 -4.13417 4.37458 0
M  V30 7378 H 737.538 -1.24156 2.77162 0
M  V30 7379 H 735.123 -0.550201 1.389 0
M  V30 7380 H 737.005 -3.61732 2.16167 0
M  V30 7381 H 735.68 -3.03892 1.11496 0
M  V30 7382 H 734.587 -1.97813 3.17523 0
M  V30 7383 H 735.92 -2.6193 4.16718 0
M  V30 7384 N 737.572 -1.44907 -0.619662 0
M  V30 7385 C 738.82 -1.47999 -1.37625 0
M  V30 7386 C 739.141 -0.118295 -1.94641 0
M  V30 7387 O 738.411 0.85086 -1.76457 0
M  V30 7388 H 736.991 -0.544993 -0.510873 0
M  V30 7389 H 739.653 -1.80772 -0.728522 0
M  V30 7390 H 738.749 -2.21196 -2.20179 0
M  V30 7391 N 739.05 0.861098 -1.31996 0
M  V30 7392 C 740.461 1.43065 -1.19955 0
M  V30 7393 C 740.812 1.95273 0.190489 0
M  V30 7394 O 739.937 1.87012 1.08882 0
M  V30 7395 C 740.532 2.60052 -2.1716 0
M  V30 7396 C 739.091 3.13026 -2.09026 0
M  V30 7397 C 738.238 1.85756 -2.05888 0
M  V30 7398 H 741.189 0.668834 -1.43918 0
M  V30 7399 H 741.21 3.37016 -1.76637 0
M  V30 7400 H 740.722 2.22024 -3.18319 0
M  V30 7401 H 738.823 3.55653 -1.11092 0
M  V30 7402 H 738.936 3.74707 -2.98549 0
M  V30 7403 H 737.3 2.05088 -1.51033 0
M  V30 7404 H 738.083 1.49954 -3.08818 0
M  V30 7405 N 740.528 1.15101 1.07655 0
M  V30 7406 C 741.458 0.867864 2.16773 0
M  V30 7407 C 742.439 -0.180283 1.69142 0
M  V30 7408 O 743.624 -0.0353152 1.94168 0
M  V30 7409 C 740.754 0.35299 3.45501 0
M  V30 7410 C 739.708 1.33746 4.06566 0
M  V30 7411 C 739.034 0.681562 5.30338 0
M  V30 7412 C 740.334 2.7024 4.46954 0
M  V30 7413 H 742.028 1.78034 2.40716 0
M  V30 7414 H 739.574 0.857435 1.15689 0
M  V30 7415 H 741.527 0.142465 4.21159 0
M  V30 7416 H 740.251 -0.594945 3.21135 0
M  V30 7417 H 738.91 1.53429 3.32949 0
M  V30 7418 H 738.558 -0.272422 5.02262 0
M  V30 7419 H 738.258 1.33853 5.72151 0
M  V30 7420 H 739.782 0.48074 6.08705 0
M  V30 7421 H 741.196 2.5442 5.13754 0
M  V30 7422 H 739.593 3.32282 4.99709 0
M  V30 7423 H 740.663 3.26537 3.58471 0
M  V30 7424 N 742.006 -1.2595 0.947325 0
M  V30 7425 C 743.283 -1.88676 0.515824 0
M  V30 7426 C 743.663 -1.85547 -1.00675 0
M  V30 7427 O 743.011 -1.31399 -1.8694 0
M  V30 7428 C 743.221 -3.31734 1.08415 0
M  V30 7429 C 744.569 -4.08545 1.15654 0
M  V30 7430 O 745.593 -3.40826 1.03517 0
M  V30 7431 O 744.452 -5.29663 1.34608 0
M  V30 7432 H 741.546 -0.809537 0.169055 0
M  V30 7433 H 744.092 -1.34075 1.04029 0
M  V30 7434 H 742.864 -3.28404 2.1276 0
M  V30 7435 H 742.487 -3.93882 0.542499 0
M  V30 7436 N 743.484 -0.715051 -1.40445 0
M  V30 7437 C 744.447 -0.0708726 -2.2909 0
M  V30 7438 C 745.447 0.687926 -1.45342 0
M  V30 7439 O 746.637 0.519908 -1.66261 0
M  V30 7440 C 743.769 0.909528 -3.28543 0
M  V30 7441 H 744.962 -0.851611 -2.87555 0
M  V30 7442 H 742.515 -0.479674 -1.48758 0
M  V30 7443 H 743.25 1.71734 -2.75096 0
M  V30 7444 H 743.035 0.368318 -3.90366 0
M  V30 7445 H 744.525 1.35744 -3.94922 0
M  V30 7446 N 744.962 1.50701 -0.461195 0
M  V30 7447 C 746.373 1.867 -0.00370227 0
M  V30 7448 C 746.724 1.37673 1.39787 0
M  V30 7449 O 745.849 0.737515 2.03445 0
M  V30 7450 C 746.444 3.388 5.75786e-05 0
M  V30 7451 C 745.003 3.74247 0.402044 0
M  V30 7452 C 744.15 2.74549 -0.389652 0
M  V30 7453 H 747.101 1.43585 -0.675942 0
M  V30 7454 H 747.122 3.719 0.804414 0
M  V30 7455 H 746.634 3.74452 -1.02015 0
M  V30 7456 H 744.735 3.44192 1.42697 0
M  V30 7457 H 744.848 4.78973 0.110265 0
M  V30 7458 H 743.212 2.54226 0.155314 0
M  V30 7459 H 743.995 3.13044 -1.40919 0
M  V30 7460 N 746.441 0.193421 1.56409 0
M  V30 7461 C 747.857 -0.162447 1.58771 0
M  V30 7462 C 748.057 -1.6116 1.20954 0
M  V30 7463 O 747.113 -2.3469 0.931497 0
M  V30 7464 C 748.426 0.138391 3.00381 0
M  V30 7465 C 749.974 0.0783649 3.12902 0
M  V30 7466 C 750.449 0.352491 4.56642 0
M  V30 7467 N 751.94 0.30105 4.62221 0
M  V30 7468 C 752.675 0.487028 5.71328 0
M  V30 7469 N 752.171 0.733265 6.88909 0
M  V30 7470 N 753.964 0.4214 5.60518 0
M  V30 7471 H 746.115 1.13909 1.79272 0
M  V30 7472 H 748.378 0.454528 0.83193 0
M  V30 7473 H 748.084 1.14312 3.32604 0
M  V30 7474 H 747.958 -0.559804 3.73023 0
M  V30 7475 H 750.345 -0.916963 2.80492 0
M  V30 7476 H 750.426 0.809611 2.4265 0
M  V30 7477 H 750.07 1.34513 4.89764 0
M  V30 7478 H 750 -0.399624 5.25081 0
M  V30 7479 H 752.491 0.117279 3.77718 0
M  V30 7480 H 752.804 0.86403 7.67955 0
M  V30 7481 H 751.149 0.770138 6.9072 0
M  V30 7482 H 754.34 0.229461 4.67537 0
M  V30 7483 H 754.513 0.569758 6.4549 0
M  V30 7484 N 747.919 -1.57396 -0.0801906 0
M  V30 7485 C 749.33 -1.75642 -0.633002 0
M  V30 7486 C 749.681 -0.817708 -1.78348 0
M  V30 7487 O 748.806 0.000233743 -2.164 0
M  V30 7488 C 749.401 -3.18502 -1.15507 0
M  V30 7489 C 747.96 -3.38121 -1.65381 0
M  V30 7490 C 747.107 -2.71386 -0.569661 0
M  V30 7491 H 750.058 -1.58027 0.145949 0
M  V30 7492 H 750.079 -3.22198 -2.02408 0
M  V30 7493 H 749.591 -3.86799 -0.317515 0
M  V30 7494 H 747.692 -2.74926 -2.51488 0
M  V30 7495 H 747.805 -4.46521 -1.73654 0
M  V30 7496 H 746.169 -2.33702 -1.0127 0
M  V30 7497 H 746.952 -3.42332 0.257561 0
M  V30 7498 N 749.397 0.351382 -1.53633 0
M  V30 7499 C 750.645 1.09034 -1.70165 0
M  V30 7500 C 750.966 1.89413 -0.463422 0
M  V30 7501 O 750.236 1.888 0.522624 0
M  V30 7502 H 748.816 0.405522 -0.627344 0
M  V30 7503 H 751.478 0.394554 -1.90865 0
M  V30 7504 H 750.574 1.77215 -2.56907 0
M  V30 7505 N 750.875 1.45233 0.611969 0
M  V30 7506 C 752.286 1.4354 1.19387 0
M  V30 7507 C 752.637 0.160713 1.95541 0
M  V30 7508 O 751.762 -0.737954 2.03429 0
M  V30 7509 C 752.357 2.60045 2.17169 0
M  V30 7510 C 750.916 2.61486 2.70744 0
M  V30 7511 C 750.063 2.35708 1.46072 0
M  V30 7512 H 753.014 1.53536 0.401529 0
M  V30 7513 H 753.035 2.33893 3.00124 0
M  V30 7514 H 752.547 3.52803 1.61714 0
M  V30 7515 H 750.648 1.72721 3.30149 0
M  V30 7516 H 750.761 3.60572 3.15476 0
M  V30 7517 H 749.125 1.85178 1.74875 0
M  V30 7518 H 749.908 3.30606 0.924922 0
M  V30 7519 N 752.353 -0.854086 1.3245 0
M  V30 7520 C 753.316 -1.94427 1.21371 0
M  V30 7521 C 754.316 -1.60219 0.136613 0
M  V30 7522 O 755.506 -1.69846 0.387057 0
M  V30 7523 C 752.638 -3.29698 0.866701 0
M  V30 7524 H 753.831 -2.05679 2.18257 0
M  V30 7525 H 751.384 -1.04434 1.1629 0
M  V30 7526 H 752.119 -3.24145 -0.100319 0
M  V30 7527 H 751.904 -3.55903 1.64545 0
M  V30 7528 H 753.394 -4.09599 0.813515 0
M  V30 7529 N 753.831 -1.1567 -1.07043 0
M  V30 7530 C 754.764 -0.799867 -2.13723 0
M  V30 7531 C 755.742 0.225098 -1.61034 0
M  V30 7532 O 756.926 0.11093 -1.88173 0
M  V30 7533 C 754.053 -0.18997 -3.38167 0
M  V30 7534 C 753.099 -1.18733 -4.0964 0
M  V30 7535 S 753.932 -2.73074 -4.60642 0
M  V30 7536 C 755.088 -2.13512 -5.88356 0
M  V30 7537 H 755.321 -1.70342 -2.43661 0
M  V30 7538 H 752.854 -0.979377 -1.19363 0
M  V30 7539 H 754.812 0.155471 -4.10205 0
M  V30 7540 H 753.473 0.691229 -3.064 0
M  V30 7541 H 752.666 -0.708873 -4.9899 0
M  V30 7542 H 752.268 -1.47747 -3.43579 0
M  V30 7543 H 754.56 -1.49911 -6.60706 0
M  V30 7544 H 755.503 -3.01042 -6.40921 0
M  V30 7545 H 755.911 -1.57693 -5.42027 0
M  V30 7546 N 755.309 1.25446 -0.953992 0
M  V30 7547 C 756.272 2.24156 -0.478179 0
M  V30 7548 C 757.272 1.55278 0.417776 0
M  V30 7549 O 758.462 1.72866 0.215155 0
M  V30 7550 C 755.594 3.39495 0.309202 0
M  V30 7551 H 756.787 2.67764 -1.35064 0
M  V30 7552 H 754.34 1.37822 -0.737206 0
M  V30 7553 H 755.075 3.01307 1.19936 0
M  V30 7554 H 754.86 3.90679 -0.333562 0
M  V30 7555 H 756.35 4.12796 0.631594 0
M  V30 7556 N 756.787 0.722489 1.40064 0
M  V30 7557 C 758.035 0.264455 2.00362 0
M  V30 7558 C 758.356 -1.14847 1.57592 0
M  V30 7559 O 757.626 -1.77982 0.818477 0
M  V30 7560 H 756.206 0.0947846 0.740962 0
M  V30 7561 H 758.868 0.929659 1.71299 0
M  V30 7562 H 757.964 0.302977 3.10626 0
M  V30 7563 N 758.265 -1.50454 0.469181 0
M  V30 7564 C 759.676 -1.86695 0.0136034 0
M  V30 7565 C 760.027 -1.38413 -1.39055 0
M  V30 7566 O 759.152 -0.748294 -2.03051 0
M  V30 7567 C 759.747 -3.38795 0.0179098 0
M  V30 7568 C 758.306 -3.74455 -0.382191 0
M  V30 7569 C 757.453 -2.74338 0.404207 0
M  V30 7570 H 760.404 -1.43225 0.683547 0
M  V30 7571 H 760.425 -3.72321 -0.78468 0
M  V30 7572 H 759.937 -3.73906 1.04 0
M  V30 7573 H 758.038 -3.44944 -1.4087 0
M  V30 7574 H 758.151 -4.79025 -0.084862 0
M  V30 7575 H 756.515 -2.54305 -0.141829 0
M  V30 7576 H 757.298 -3.12293 1.42577 0
M  V30 7577 N 759.743 -0.201713 -1.56304 0
M  V30 7578 C 760.673 0.71155 -2.22394 0
M  V30 7579 C 761.654 1.21625 -1.18917 0
M  V30 7580 O 762.839 1.26388 -1.47444 0
M  V30 7581 C 759.969 1.92837 -2.88845 0
M  V30 7582 C 758.923 1.55831 -3.98623 0
M  V30 7583 C 758.249 2.85228 -4.52271 0
M  V30 7584 C 759.549 0.763249 -5.16693 0
M  V30 7585 H 761.243 0.160573 -2.98969 0
M  V30 7586 H 758.789 0.0757916 -1.438 0
M  V30 7587 H 760.742 2.57253 -3.33764 0
M  V30 7588 H 759.466 2.50398 -2.09686 0
M  V30 7589 H 758.125 0.9377 -3.54405 0
M  V30 7590 H 757.773 3.40893 -3.69866 0
M  V30 7591 H 757.473 2.6121 -5.26349 0
M  V30 7592 H 758.997 3.50622 -4.99897 0
M  V30 7593 H 760.411 1.31066 -5.58117 0
M  V30 7594 H 758.808 0.620935 -5.96879 0
M  V30 7595 H 759.878 -0.234322 -4.84334 0
M  V30 7596 N 761.222 1.57436 0.0718424 0
M  V30 7597 C 762.447 1.91858 0.787745 0
M  V30 7598 C 762.872 0.798119 1.70328 0
M  V30 7599 O 762.23 -0.24905 1.79581 0
M  V30 7600 C 762.278 3.25232 1.55744 0
M  V30 7601 O 761.382 3.14462 2.6681 0
M  V30 7602 H 760.723 0.628258 0.214914 0
M  V30 7603 H 763.253 2.04561 0.0401012 0
M  V30 7604 H 763.263 3.59105 1.9367 0
M  V30 7605 H 761.938 4.0636 0.885691 0
M  V30 7606 H 760.515 2.92148 2.31741 0
M  V30 7607 N 762.7 -0.34323 1.53817 0
M  V30 7608 C 763.925 -1.1079 1.75329 0
M  V30 7609 C 764.35 -1.81571 0.491293 0
M  V30 7610 O 763.708 -1.72561 -0.556089 0
M  V30 7611 C 763.756 -2.09681 2.9337 0
M  V30 7612 O 762.86 -3.17207 2.63541 0
M  V30 7613 H 762.201 -0.320402 0.581583 0
M  V30 7614 H 764.731 -0.393525 2.0078 0
M  V30 7615 H 764.741 -2.52897 3.20168 0
M  V30 7616 H 763.416 -1.5756 3.84899 0
M  V30 7617 H 761.993 -2.78806 2.47632 0
M  V30 7618 N 764.178 -1.45556 -0.604258 0
M  V30 7619 C 765.418 -1.51289 -1.37445 0
M  V30 7620 C 765.782 -0.152112 -1.91397 0
M  V30 7621 O 766.983 -0.0841419 -2.68668 0
M  V30 7622 C 765.254 -2.5646 -2.48924 0
M  V30 7623 S 766.813 -2.81442 -3.36654 0
M  V30 7624 H 763.631 -0.534774 -0.468549 0
M  V30 7625 H 766.233 -1.82657 -0.696902 0
M  V30 7626 H 764.937 -3.53995 -2.07644 0
M  V30 7627 H 764.468 -2.26753 -3.21476 0
M  V30 7628 H 766.483 -2.15074 -4.47166 0
M  V30 7629 N 765.656 0.84705 -1.32902 0
M  V30 7630 C 767.072 1.13645 -1.12058 0
M  V30 7631 C 767.272 2.01281 0.093937 0
M  V30 7632 O 766.328 2.4026 0.776608 0
M  V30 7633 C 767.641 1.80644 -2.40392 0
M  V30 7634 C 769.189 1.93246 -2.46221 0
M  V30 7635 C 769.664 2.6366 -3.74496 0
M  V30 7636 N 771.155 2.71179 -3.75521 0
M  V30 7637 C 771.89 3.26332 -4.71482 0
M  V30 7638 N 771.386 3.82236 -5.77813 0
M  V30 7639 N 773.179 3.24507 -4.58968 0
M  V30 7640 H 765.33 0.263612 -2.10758 0
M  V30 7641 H 767.593 0.17944 -0.930863 0
M  V30 7642 H 767.299 1.23708 -3.29225 0
M  V30 7643 H 767.173 2.80736 -2.51926 0
M  V30 7644 H 769.56 2.49338 -1.57843 0
M  V30 7645 H 769.641 0.921272 -2.38634 0
M  V30 7646 H 769.285 2.08229 -4.63253 0
M  V30 7647 H 769.215 3.65234 -3.79357 0
M  V30 7648 H 771.706 2.31527 -2.9867 0
M  V30 7649 H 772.019 4.22499 -6.47082 0
M  V30 7650 H 770.364 3.80546 -5.81558 0
M  V30 7651 H 773.555 2.80085 -3.7506 0
M  V30 7652 H 773.728 3.67188 -5.33926 0
M  V30 7653 N 767.134 1.16236 1.06428 0
M  V30 7654 C 768.064 0.890807 2.1584 0
M  V30 7655 C 769.045 -0.162333 1.69324 0
M  V30 7656 O 770.23 -0.0147191 1.94194 0
M  V30 7657 C 767.36 0.389615 3.45108 0
M  V30 7658 C 766.314 1.38051 4.05125 0
M  V30 7659 C 765.64 0.737773 5.29586 0
M  V30 7660 C 766.94 2.74965 4.44062 0
M  V30 7661 H 768.634 1.80577 2.38814 0
M  V30 7662 H 766.18 0.869657 1.14774 0
M  V30 7663 H 768.133 0.187127 4.20984 0
M  V30 7664 H 766.857 -0.560851 3.21748 0
M  V30 7665 H 765.516 1.56952 3.31303 0
M  V30 7666 H 765.164 -0.219135 5.02522 0
M  V30 7667 H 764.864 1.39914 5.70699 0
M  V30 7668 H 766.388 0.545275 6.0816 0
M  V30 7669 H 767.802 2.59855 5.11027 0
M  V30 7670 H 766.199 3.37563 4.96156 0
M  V30 7671 H 767.269 3.30321 3.54987 0
M  V30 7672 N 768.612 -1.24939 0.960631 0
M  V30 7673 C 769.837 -1.9742 0.635608 0
M  V30 7674 C 770.262 -1.70857 -0.786737 0
M  V30 7675 O 769.62 -0.968063 -1.53291 0
M  V30 7676 C 769.668 -3.48987 0.907771 0
M  V30 7677 O 768.772 -4.12399 -0.0104053 0
M  V30 7678 H 768.113 -0.61871 0.241027 0
M  V30 7679 H 770.643 -1.58901 1.28886 0
M  V30 7680 H 770.653 -3.99334 0.836453 0
M  V30 7681 H 769.328 -3.6765 1.94439 0
M  V30 7682 H 767.905 -3.72727 0.113631 0
M  V30 7683 N 770.09 -0.729906 -1.39679 0
M  V30 7684 C 771.053 -0.0951668 -2.29002 0
M  V30 7685 C 772.053 0.672471 -1.46063 0
M  V30 7686 O 773.243 0.502245 -1.66803 0
M  V30 7687 C 770.375 0.874631 -3.29489 0
M  V30 7688 H 771.568 -0.882062 -2.86635 0
M  V30 7689 H 769.121 -0.495424 -1.4824 0
M  V30 7690 H 769.856 1.68807 -2.76902 0
M  V30 7691 H 769.641 0.326893 -3.90735 0
M  V30 7692 H 771.131 1.31548 -3.96339 0
M  V30 7693 N 771.568 1.50203 -0.477153 0
M  V30 7694 C 772.984 1.59056 -0.131663 0
M  V30 7695 C 773.184 1.48473 1.36227 0
M  V30 7696 O 772.24 1.34635 2.13611 0
M  V30 7697 C 773.553 2.92741 -0.687254 0
M  V30 7698 C 775.101 3.0615 -0.651223 0
M  V30 7699 C 775.576 4.42419 -1.18446 0
M  V30 7700 N 777.067 4.48847 -1.14413 0
M  V30 7701 C 777.802 5.52689 -1.52717 0
M  V30 7702 N 777.298 6.63754 -1.98499 0
M  V30 7703 N 779.091 5.43267 -1.44282 0
M  V30 7704 H 771.242 1.55325 -1.44872 0
M  V30 7705 H 773.505 0.734395 -0.599473 0
M  V30 7706 H 773.211 3.0598 -1.73405 0
M  V30 7707 H 773.085 3.76961 -0.134215 0
M  V30 7708 H 775.472 2.92556 0.386677 0
M  V30 7709 H 775.553 2.23673 -1.24114 0
M  V30 7710 H 775.197 4.56763 -2.22103 0
M  V30 7711 H 775.127 5.23498 -0.570709 0
M  V30 7712 H 777.618 3.69152 -0.808416 0
M  V30 7713 H 777.931 7.39059 -2.25859 0
M  V30 7714 H 776.276 6.64858 -2.02456 0
M  V30 7715 H 779.467 4.55387 -1.08352 0
M  V30 7716 H 779.64 6.24074 -1.74459 0
M  V30 7717 N 773.046 0.209999 1.56195 0
M  V30 7718 C 774.457 -0.299943 1.84275 0
M  V30 7719 C 774.808 -1.60314 1.1311 0
M  V30 7720 O 773.933 -2.1273 0.396874 0
M  V30 7721 C 774.528 -0.550986 3.3429 0
M  V30 7722 C 773.087 -1.00526 3.62728 0
M  V30 7723 C 772.234 -0.0619828 2.77231 0
M  V30 7724 H 775.185 0.433458 1.52666 0
M  V30 7725 H 775.206 -1.39846 3.53869 0
M  V30 7726 H 774.718 0.397669 3.86057 0
M  V30 7727 H 772.819 -1.96768 3.16407 0
M  V30 7728 H 772.932 -0.887664 4.70805 0
M  V30 7729 H 771.296 -0.566648 2.48317 0
M  V30 7730 H 772.079 0.881383 3.31793 0
M  V30 7731 N 774.524 -1.57472 -0.0634922 0
M  V30 7732 C 775.434 -2.07621 -1.09227 0
M  V30 7733 C 776.45 -1.00746 -1.41867 0
M  V30 7734 O 777.626 -1.32269 -1.51878 0
M  V30 7735 C 774.691 -2.51707 -2.38421 0
M  V30 7736 C 773.752 -3.72917 -2.12676 0
M  V30 7737 C 772.985 -4.14891 -3.3571 0
M  V30 7738 O 773.208 -3.56663 -4.45137 0
M  V30 7739 O 772.142 -5.07616 -3.23434 0
M  V30 7740 H 775.968 -2.95612 -0.696205 0
M  V30 7741 H 773.553 -1.46787 -0.27819 0
M  V30 7742 H 775.435 -2.80547 -3.14438 0
M  V30 7743 H 774.11 -1.66842 -2.77391 0
M  V30 7744 H 773.017 -3.49148 -1.34337 0
M  V30 7745 H 774.35 -4.5866 -1.78583 0
M  V30 7746 N 776.003 0.335068 -1.53997 0
M  V30 7747 C 777.251 1.07223 -1.71312 0
M  V30 7748 C 777.572 1.88911 -0.483486 0
M  V30 7749 O 776.842 1.89344 0.50257 0
M  V30 7750 H 775.422 0.398846 -0.63161 0
M  V30 7751 H 778.084 0.374288 -1.91272 0
M  V30 7752 H 777.18 1.7448 -2.58772 0
M  V30 7753 N 777.481 1.45874 0.596531 0
M  V30 7754 C 778.729 1.5017 1.35253 0
M  V30 7755 C 779.05 0.149246 1.94428 0
M  V30 7756 O 778.32 -0.82268 1.77789 0
M  V30 7757 H 776.9 0.553052 0.502138 0
M  V30 7758 H 779.562 1.81908 0.699671 0
M  V30 7759 H 778.658 2.24671 2.16632 0
M  V30 7760 N 778.959 -0.83999 1.33349 0
M  V30 7761 C 780.184 -1.63249 1.27924 0
M  V30 7762 C 780.609 -1.87523 -0.147193 0
M  V30 7763 O 779.967 -1.43853 -1.10345 0
M  V30 7764 C 780.015 -2.96046 2.05886 0
M  V30 7765 O 779.119 -3.87303 1.4167 0
M  V30 7766 H 778.46 -0.49715 0.440157 0
M  V30 7767 H 780.99 -1.04512 1.75893 0
M  V30 7768 H 781 -3.45752 2.16609 0
M  V30 7769 H 779.675 -2.77701 3.09605 0
M  V30 7770 H 778.252 -3.45789 1.39585 0
M  V30 7771 N 780.437 -1.16799 -1.0581 0
M  V30 7772 C 781.685 -0.950642 -1.78346 0
M  V30 7773 C 782.006 0.522524 -1.87869 0
M  V30 7774 O 781.276 1.3795 -1.39092 0
M  V30 7775 H 779.856 -0.348736 -0.6606 0
M  V30 7776 H 782.518 -1.47158 -1.27791 0
M  V30 7777 H 781.614 -1.37359 -2.80248 0
M  V30 7778 N 781.915 1.24427 -0.967243 0
M  V30 7779 C 783.331 1.44684 -0.6737 0
M  V30 7780 C 783.531 1.86429 0.764625 0
M  V30 7781 O 782.587 2.00211 1.53857 0
M  V30 7782 C 783.9 2.509 -1.6574 0
M  V30 7783 C 785.448 2.64728 -1.66998 0
M  V30 7784 C 785.923 3.7414 -2.64165 0
M  V30 7785 N 787.414 3.81567 -2.62604 0
M  V30 7786 C 788.149 4.6575 -3.34462 0
M  V30 7787 N 787.645 5.54124 -4.15835 0
M  V30 7788 N 789.438 4.59827 -3.23288 0
M  V30 7789 H 781.589 0.956276 -1.89655 0
M  V30 7790 H 783.852 0.48171 -0.816492 0
M  V30 7791 H 783.558 2.27113 -2.68538 0
M  V30 7792 H 783.432 3.4905 -1.42981 0
M  V30 7793 H 785.819 2.87872 -0.649121 0
M  V30 7794 H 785.9 1.66936 -1.93819 0
M  V30 7795 H 785.544 3.51745 -3.66384 0
M  V30 7796 H 785.474 4.71444 -2.34623 0
M  V30 7797 H 787.965 3.18403 -2.03539 0
M  V30 7798 H 788.278 6.15316 -4.67553 0
M  V30 7799 H 786.623 5.53791 -4.19929 0
M  V30 7800 H 789.814 3.898 -2.59179 0
M  V30 7801 H 789.987 5.25208 -3.79553 0
M  V30 7802 N 783.393 0.737304 1.3929 0
M  V30 7803 C 784.641 0.285691 2.00071 0
M  V30 7804 C 784.962 -1.13169 1.58801 0
M  V30 7805 O 784.232 -1.77104 0.837308 0
M  V30 7806 H 782.812 0.102638 0.739915 0
M  V30 7807 H 785.474 0.947775 1.70303 0
M  V30 7808 H 784.57 0.335906 3.10287 0
M  V30 7809 N 784.871 -1.49948 0.485112 0
M  V30 7810 C 786.287 -1.58984 0.140096 0
M  V30 7811 C 786.487 -1.49194 -1.35438 0
M  V30 7812 O 785.543 -1.35765 -2.12894 0
M  V30 7813 C 786.856 -2.92372 0.702769 0
M  V30 7814 C 788.404 -3.05801 0.66745 0
M  V30 7815 C 788.879 -4.41785 1.20791 0
M  V30 7816 N 790.37 -4.48234 1.16792 0
M  V30 7817 C 791.105 -5.51871 1.55646 0
M  V30 7818 N 790.601 -6.62692 2.02016 0
M  V30 7819 N 792.394 -5.42494 1.47161 0
M  V30 7820 H 784.545 -1.54555 1.45693 0
M  V30 7821 H 786.808 -0.731206 0.603359 0
M  V30 7822 H 786.514 -3.05056 1.75025 0
M  V30 7823 H 786.388 -3.76885 0.154205 0
M  V30 7824 H 788.775 -2.92757 -0.371157 0
M  V30 7825 H 788.856 -2.23011 1.25298 0
M  V30 7826 H 788.5 -4.55579 2.24522 0
M  V30 7827 H 788.43 -5.23188 0.598464 0
M  V30 7828 H 790.921 -3.68718 0.827982 0
M  V30 7829 H 791.234 -7.3785 2.29775 0
M  V30 7830 H 789.579 -6.63775 2.05979 0
M  V30 7831 H 792.77 -4.54806 1.10765 0
M  V30 7832 H 792.943 -6.2314 1.77766 0
M  V30 7833 N 786.349 -0.21828 -1.56081 0
M  V30 7834 C 787.765 0.137168 -1.59009 0
M  V30 7835 C 787.965 1.59215 -1.23503 0
M  V30 7836 O 787.021 2.33178 -0.968716 0
M  V30 7837 C 788.334 -0.186162 -3.00123 0
M  V30 7838 C 789.882 -0.128135 -3.12738 0
M  V30 7839 C 790.357 -0.425094 -4.56023 0
M  V30 7840 N 791.848 -0.374547 -4.61683 0
M  V30 7841 C 792.583 -0.57786 -5.70481 0
M  V30 7842 N 792.079 -0.842771 -6.87655 0
M  V30 7843 N 793.872 -0.510521 -5.59777 0
M  V30 7844 H 786.023 -1.16746 -1.77437 0
M  V30 7845 H 788.286 -0.467706 -0.824594 0
M  V30 7846 H 787.992 -1.19589 -3.30744 0
M  V30 7847 H 787.866 0.500388 -3.73866 0
M  V30 7848 H 790.253 0.872224 -2.81915 0
M  V30 7849 H 790.334 -0.848112 -2.41331 0
M  V30 7850 H 789.978 -1.42288 -4.87562 0
M  V30 7851 H 789.908 0.316038 -5.25651 0
M  V30 7852 H 792.399 -0.177356 -3.77484 0
M  V30 7853 H 792.712 -0.986095 -7.66483 0
M  V30 7854 H 791.057 -0.879929 -6.89407 0
M  V30 7855 H 794.248 -0.303813 -4.67113 0
M  V30 7856 H 794.421 -0.672378 -6.44502 0
M  V30 7857 N 787.827 1.57504 0.0551401 0
M  V30 7858 C 788.79 2.03826 1.04821 0
M  V30 7859 C 789.79 0.937968 1.30609 0
M  V30 7860 O 790.98 1.20237 1.2605 0
M  V30 7861 C 788.112 2.43309 2.38775 0
M  V30 7862 H 789.305 2.92802 0.6486 0
M  V30 7863 H 786.858 1.53368 0.301315 0
M  V30 7864 H 787.593 1.5741 2.83536 0
M  V30 7865 H 787.378 3.23615 2.21395 0
M  V30 7866 H 788.868 2.79666 3.10124 0
M  V30 7867 N 789.305 -0.326896 1.54172 0
M  V30 7868 C 790.215 -1.42525 1.86343 0
M  V30 7869 C 791.231 -1.56764 0.75505 0
M  V30 7870 O 792.407 -1.71924 1.04901 0
M  V30 7871 C 789.472 -2.77286 2.08119 0
M  V30 7872 C 788.533 -2.7225 3.31931 0
M  V30 7873 C 787.766 -4.00584 3.52659 0
M  V30 7874 O 787.989 -4.98686 2.76891 0
M  V30 7875 O 786.923 -4.04045 4.46129 0
M  V30 7876 H 790.749 -1.18249 2.79734 0
M  V30 7877 H 788.334 -0.520614 1.40036 0
M  V30 7878 H 790.216 -3.57065 2.23791 0
M  V30 7879 H 788.891 -3.01459 1.17917 0
M  V30 7880 H 787.798 -1.91033 3.21647 0
M  V30 7881 H 789.131 -2.53032 4.2218 0
M  V30 7882 N 790.784 -1.46188 -0.588786 0
M  V30 7883 C 792.2 -1.31009 -0.911524 0
M  V30 7884 C 792.4 -0.277017 -1.99587 0
M  V30 7885 O 791.456 0.322532 -2.50432 0
M  V30 7886 C 792.769 -2.69459 -1.33463 0
M  V30 7887 C 794.317 -2.77502 -1.44782 0
M  V30 7888 C 794.792 -4.1652 -1.90461 0
M  V30 7889 N 796.283 -4.18907 -1.97665 0
M  V30 7890 C 797.018 -5.23359 -2.34271 0
M  V30 7891 N 796.514 -6.38143 -2.69714 0
M  V30 7892 N 798.307 -5.10723 -2.34774 0
M  V30 7893 H 790.458 -2.12016 0.127614 0
M  V30 7894 H 792.721 -0.947984 -0.00557599 0
M  V30 7895 H 792.427 -3.46336 -0.611929 0
M  V30 7896 H 792.301 -2.99165 -2.2974 0
M  V30 7897 H 794.688 -2.00917 -2.1614 0
M  V30 7898 H 794.769 -2.51488 -0.467724 0
M  V30 7899 H 794.413 -4.93597 -1.19684 0
M  V30 7900 H 794.343 -4.39937 -2.89418 0
M  V30 7901 H 796.834 -3.36084 -1.72789 0
M  V30 7902 H 797.147 -7.13624 -2.96582 0
M  V30 7903 H 795.492 -6.41514 -2.67366 0
M  V30 7904 H 798.683 -4.20088 -2.06503 0
M  V30 7905 H 798.856 -5.9224 -2.62975 0
M  V30 7906 N 792.262 0.832906 -1.33792 0
M  V30 7907 C 793.508 1.59089 -1.25772 0
M  V30 7908 C 793.841 1.93414 0.174601 0
M  V30 7909 O 793.116 1.59195 1.11746 0
M  V30 7910 C 793.399 2.89699 -2.13885 0
M  V30 7911 C 793.252 2.62017 -3.65605 0
M  V30 7912 C 794.571 3.91182 -2.01654 0
M  V30 7913 H 791.69 0.577232 -0.458227 0
M  V30 7914 H 794.332 0.960227 -1.6395 0
M  V30 7915 H 792.482 3.4352 -1.81456 0
M  V30 7916 H 794.154 2.14582 -4.08353 0
M  V30 7917 H 792.397 1.95621 -3.87189 0
M  V30 7918 H 793.068 3.55112 -4.2261 0
M  V30 7919 H 795.544 3.46684 -2.30107 0
M  V30 7920 H 794.42 4.80391 -2.65548 0
M  V30 7921 H 794.681 4.30861 -0.990536 0
M  V30 7922 N 793.74 1.17359 1.05189 0
M  V30 7923 C 794.965 0.98709 1.82404 0
M  V30 7924 C 795.39 -0.459848 1.82392 0
M  V30 7925 O 794.748 -1.32924 1.23292 0
M  V30 7926 C 794.796 1.53276 3.26403 0
M  V30 7927 O 793.9 0.746541 4.05587 0
M  V30 7928 H 793.241 0.35047 0.563974 0
M  V30 7929 H 795.771 1.55856 1.32552 0
M  V30 7930 H 795.781 1.55504 3.77203 0
M  V30 7931 H 794.456 2.58603 3.25726 0
M  V30 7932 H 793.033 0.795671 3.64312 0
M  V30 7933 N 795.218 -1.23913 0.973828 0
M  V30 7934 C 796.629 -1.73992 0.677021 0
M  V30 7935 C 796.98 -1.78833 -0.807036 0
M  V30 7936 O 796.105 -1.42183 -1.63135 0
M  V30 7937 C 796.7 -3.15985 1.22226 0
M  V30 7938 C 795.259 -3.63547 0.975228 0
M  V30 7939 C 794.406 -2.42001 1.35392 0
M  V30 7940 H 797.357 -1.09529 1.14844 0
M  V30 7941 H 797.378 -3.75875 0.591489 0
M  V30 7942 H 796.89 -3.12429 2.30238 0
M  V30 7943 H 794.991 -3.72493 -0.0891047 0
M  V30 7944 H 795.104 -4.50693 1.62518 0
M  V30 7945 H 793.468 -2.42708 0.772334 0
M  V30 7946 H 794.251 -2.41122 2.44367 0
M  V30 7947 N 796.696 -0.74468 -1.38897 0
M  V30 7948 C 797.921 -0.306119 -2.05128 0
M  V30 7949 C 798.346 1.0541 -1.55789 0
M  V30 7950 O 797.704 1.66993 -0.705909 0
M  V30 7951 C 797.752 -0.328195 -3.59103 0
M  V30 7952 O 796.856 0.680876 -4.06741 0
M  V30 7953 H 796.197 -0.137209 -0.649669 0
M  V30 7954 H 798.727 -1.01331 -1.77745 0
M  V30 7955 H 798.737 -0.175956 -4.0762 0
M  V30 7956 H 797.412 -1.32067 -3.94374 0
M  V30 7957 H 795.989 0.49398 -3.69614 0
M  V30 7958 N 798.174 1.49689 -0.493057 0
M  V30 7959 C 799.59 1.58907 -0.148526 0
M  V30 7960 C 799.79 1.4991 1.34645 0
M  V30 7961 O 798.846 1.36893 2.12171 0
M  V30 7962 C 800.159 2.91996 -0.718265 0
M  V30 7963 C 801.707 3.05443 -0.683658 0
M  V30 7964 C 802.182 4.41138 -1.23132 0
M  V30 7965 N 803.673 4.47608 -1.19167 0
M  V30 7966 C 804.408 5.51038 -1.5857 0
M  V30 7967 N 803.904 6.61612 -2.05528 0
M  V30 7968 N 805.697 5.41706 -1.50036 0
M  V30 7969 H 797.848 1.5378 -1.46511 0
M  V30 7970 H 800.111 0.727996 -0.607228 0
M  V30 7971 H 799.817 3.04123 -1.7664 0
M  V30 7972 H 799.691 3.76798 -0.17419 0
M  V30 7973 H 802.078 2.92949 0.355626 0
M  V30 7974 H 802.159 2.22344 -1.26479 0
M  V30 7975 H 801.803 4.54382 -2.26935 0
M  V30 7976 H 801.733 5.22864 -0.626201 0
M  V30 7977 H 804.224 3.68274 -0.847524 0
M  V30 7978 H 804.537 7.36622 -2.33685 0
M  V30 7979 H 802.882 6.62674 -2.09497 0
M  V30 7980 H 806.073 4.54212 -1.13176 0
M  V30 7981 H 806.246 6.22188 -1.81068 0
M  V30 7982 N 799.652 0.226554 1.55963 0
M  V30 7983 C 800.877 -0.411527 2.03276 0
M  V30 7984 C 801.302 -1.52206 1.10521 0
M  V30 7985 O 800.66 -1.81054 0.0943217 0
M  V30 7986 C 800.708 -0.915694 3.4878 0
M  V30 7987 O 799.812 -2.02672 3.59163 0
M  V30 7988 H 799.153 -0.0924907 0.657527 0
M  V30 7989 H 801.683 0.346656 2.01642 0
M  V30 7990 H 801.693 -1.22421 3.892 0
M  V30 7991 H 800.368 -0.102915 4.15773 0
M  V30 7992 H 798.945 -1.72445 3.30632 0
M  V30 7993 N 801.13 -1.57531 -0.0467866 0
M  V30 7994 C 802.078 -2.06455 -1.0714 0
M  V30 7995 C 803.072 -0.974744 -1.38546 0
M  V30 7996 O 804.278 -1.15974 -1.37659 0
M  V30 7997 H 800.653 -0.658607 -0.362962 0
M  V30 7998 H 802.624 -2.91613 -0.632813 0
M  V30 7999 C 801.373 -2.54481 -2.36927 0
M  V30 8000 H 800.696 -3.37946 -2.13617 0
M  V30 8001 H 802.136 -2.92442 -3.07007 0
M  V30 8002 C 800.595 -1.43836 -3.04652 0
M  V30 8003 O 801.125 -0.794531 -3.93764 0
M  V30 8004 N 799.331 -1.17727 -2.65686 0
M  V30 8005 H 798.878 -1.70265 -1.93307 0
M  V30 8006 H 798.836 -0.439051 -3.11319 0
M  V30 8007 N 802.608 0.318715 -1.54344 0
M  V30 8008 C 803.518 1.41535 -1.87097 0
M  V30 8009 C 804.534 1.56361 -0.763353 0
M  V30 8010 O 805.71 1.71365 -1.05811 0
M  V30 8011 C 802.775 2.76178 -2.09587 0
M  V30 8012 C 801.836 2.70486 -3.3337 0
M  V30 8013 C 801.069 3.98708 -3.54778 0
M  V30 8014 O 801.292 4.9721 -2.79532 0
M  V30 8015 O 800.226 4.01674 -4.48266 0
M  V30 8016 H 804.052 1.16764 -2.80357 0
M  V30 8017 H 801.637 0.51318 -1.4031 0
M  V30 8018 H 803.519 3.55873 -2.25682 0
M  V30 8019 H 802.194 3.00829 -1.19514 0
M  V30 8020 H 801.101 1.89325 -3.22656 0
M  V30 8021 H 802.434 2.50789 -4.23516 0
M  V30 8022 N 804.086 1.46499 0.581025 0
M  V30 8023 C 805.332 1.52121 1.34116 0
M  V30 8024 C 805.665 0.173031 1.93428 0
M  V30 8025 O 804.94 -0.815729 1.76568 0
M  V30 8026 C 805.223 2.62108 2.46924 0
M  V30 8027 C 805.076 4.06462 1.92636 0
M  V30 8028 C 806.395 2.68167 3.48962 0
M  V30 8029 H 803.514 0.5538 0.486287 0
M  V30 8030 H 806.156 1.78443 0.652538 0
M  V30 8031 H 804.306 2.39794 3.05665 0
M  V30 8032 H 805.978 4.40068 1.3834 0
M  V30 8033 H 804.221 4.15862 1.23455 0
M  V30 8034 H 804.892 4.79152 2.74076 0
M  V30 8035 H 807.368 2.8823 3.00104 0
M  V30 8036 H 806.244 3.46942 4.2535 0
M  V30 8037 H 806.505 1.74284 4.06297 0
M  V30 8038 N 805.565 -0.825799 1.34232 0
M  V30 8039 C 806.814 -1.57686 1.2577 0
M  V30 8040 C 807.127 -1.94848 -0.171372 0
M  V30 8041 O 808.333 -2.68854 -0.378123 0
M  V30 8042 C 806.789 -2.84478 2.20454 0
M  V30 8043 C 806.397 -2.54629 3.68603 0
M  V30 8044 C 808.141 -3.625 2.20893 0
M  V30 8045 C 806.048 -3.77597 4.55164 0
M  V30 8046 H 804.978 -0.591809 0.467203 0
M  V30 8047 H 807.629 -0.909421 1.59379 0
M  V30 8048 H 806.011 -3.52832 1.79793 0
M  V30 8049 H 807.185 -1.94404 4.17784 0
M  V30 8050 H 805.5 -1.89888 3.70582 0
M  V30 8051 H 808.097 -4.538 2.82789 0
M  V30 8052 H 808.44 -3.98404 1.20746 0
M  V30 8053 H 808.973 -3.01086 2.59985 0
M  V30 8054 H 805.712 -3.46815 5.56237 0
M  V30 8055 H 805.232 -4.37116 4.10719 0
M  V30 8056 H 806.911 -4.45039 4.69627 0
M  V30 8057 N 807.043 -1.17915 -1.04565 0
M  V30 8058 C 808.268 -0.996749 -1.81878 0
M  V30 8059 C 808.693 0.450169 -1.82634 0
M  V30 8060 O 808.051 1.32268 -1.23995 0
M  V30 8061 C 808.099 -1.55005 -3.25585 0
M  V30 8062 O 807.203 -0.76804 -4.05185 0
M  V30 8063 H 806.544 -0.353456 -0.562108 0
M  V30 8064 H 809.074 -1.56557 -1.31723 0
M  V30 8065 H 809.084 -1.57503 -3.76373 0
M  V30 8066 H 807.759 -2.60327 -3.2435 0
M  V30 8067 H 806.336 -0.81498 -3.63885 0
M  V30 8068 N 808.521 1.23394 -0.980386 0
M  V30 8069 C 809.932 1.73631 -0.686239 0
M  V30 8070 C 810.283 1.79259 0.797541 0
M  V30 8071 O 809.408 1.43046 1.62379 0
M  V30 8072 C 810.003 3.15332 -1.239 0
M  V30 8073 C 808.562 3.63024 -0.994494 0
M  V30 8074 C 807.709 2.41279 -1.36673 0
M  V30 8075 H 810.66 1.08918 -1.15423 0
M  V30 8076 H 810.681 3.75556 -0.611414 0
M  V30 8077 H 810.193 3.11204 -2.31892 0
M  V30 8078 H 808.294 3.72535 0.0693492 0
M  V30 8079 H 808.407 4.49825 -1.64906 0
M  V30 8080 H 806.771 2.42295 -0.785195 0
M  V30 8081 H 807.554 2.39822 -2.45642 0
M  V30 8082 N 809.999 0.752036 1.385 0
M  V30 8083 C 810.909 0.125318 2.34265 0
M  V30 8084 C 811.925 -0.702437 1.59191 0
M  V30 8085 O 813.101 -0.626951 1.91393 0
M  V30 8086 C 810.166 -0.758486 3.38301 0
M  V30 8087 C 809.227 0.0834636 4.29219 0
M  V30 8088 C 808.46 -0.758252 5.28286 0
M  V30 8089 O 808.683 -1.99632 5.34325 0
M  V30 8090 O 807.617 -0.177878 6.01637 0
M  V30 8091 H 811.443 0.91617 2.89551 0
M  V30 8092 H 809.028 0.512911 1.4032 0
M  V30 8093 H 810.91 -1.26365 4.02007 0
M  V30 8094 H 809.585 -1.52786 2.85374 0
M  V30 8095 H 808.492 0.634545 3.68679 0
M  V30 8096 H 809.825 0.815455 4.85398 0
M  V30 8097 N 811.477 -1.49425 0.500989 0
M  V30 8098 C 812.726 -2.01649 -0.04538 0
M  V30 8099 C 813.039 -1.38572 -1.38047 0
M  V30 8100 O 814.245 -1.82124 -2.01353 0
M  V30 8101 C 812.701 -3.5966 -0.131337 0
M  V30 8102 C 812.309 -4.3171 1.19711 0
M  V30 8103 C 814.053 -4.19828 -0.628071 0
M  V30 8104 C 811.96 -5.81579 1.07332 0
M  V30 8105 H 810.89 -0.753715 -0.0207329 0
M  V30 8106 H 813.541 -1.71962 0.640407 0
M  V30 8107 H 811.923 -3.86063 -0.881574 0
M  V30 8108 H 813.097 -4.17008 1.96064 0
M  V30 8109 H 811.412 -3.83286 1.62729 0
M  V30 8110 H 814.009 -5.2958 -0.738198 0
M  V30 8111 H 814.352 -3.83194 -1.6269 0
M  V30 8112 H 814.885 -3.97746 0.0656314 0
M  V30 8113 H 811.624 -6.22738 2.04642 0
M  V30 8114 H 811.144 -5.98774 0.350679 0
M  V30 8115 H 812.823 -6.42614 0.752047 0
M  V30 8116 N 812.955 -0.234822 -1.55841 0
M  V30 8117 C 813.885 0.664217 -2.23854 0
M  V30 8118 C 814.866 1.19076 -1.2147 0
M  V30 8119 O 816.051 1.23232 -1.50091 0
M  V30 8120 C 813.181 1.86666 -2.9287 0
M  V30 8121 C 812.135 1.47341 -4.01839 0
M  V30 8122 C 811.461 2.75571 -4.58219 0
M  V30 8123 C 812.761 0.653479 -5.18196 0
M  V30 8124 H 814.455 0.0971213 -2.99242 0
M  V30 8125 H 812.001 0.0452724 -1.43929 0
M  V30 8126 H 813.954 2.50116 -3.39146 0
M  V30 8127 H 812.678 2.45894 -2.1495 0
M  V30 8128 H 811.337 0.862314 -3.56314 0
M  V30 8129 H 810.985 3.32971 -3.77014 0
M  V30 8130 H 810.685 2.49987 -5.31771 0
M  V30 8131 H 812.209 3.39939 -5.07221 0
M  V30 8132 H 813.623 1.19198 -5.60771 0
M  V30 8133 H 812.02 0.494188 -5.98062 0
M  V30 8134 H 813.09 -0.337004 -4.83728 0
M  V30 8135 N 814.433 1.57553 0.0384317 0
M  V30 8136 C 815.38 2.05942 1.04194 0
M  V30 8137 C 816.35 0.946637 1.36484 0
M  V30 8138 O 817.535 1.21658 1.46983 0
M  V30 8139 C 814.675 2.53588 2.34066 0
M  V30 8140 C 813.788 3.7862 2.08017 0
M  V30 8141 C 812.923 4.14915 3.31692 0
M  V30 8142 C 811.962 5.32891 3.01155 0
M  V30 8143 N 811.099 5.64662 4.17254 0
M  V30 8144 H 815.939 2.91429 0.622341 0
M  V30 8145 H 813.476 1.44098 0.295684 0
M  V30 8146 H 815.434 2.79276 3.09937 0
M  V30 8147 H 814.064 1.71031 2.73767 0
M  V30 8148 H 813.116 3.60073 1.22686 0
M  V30 8149 H 814.428 4.64613 1.81484 0
M  V30 8150 H 813.582 4.41681 4.15936 0
M  V30 8151 H 812.321 3.27555 3.6133 0
M  V30 8152 H 811.326 5.05887 2.15311 0
M  V30 8153 H 812.551 6.21896 2.72804 0
M  V30 8154 H 810.497 4.80261 4.46861 0
M  V30 8155 H 810.414 6.45145 3.94112 0
M  V30 8156 H 811.682 5.96 5.02399 0
M  V30 8157 N 815.911 -0.310526 1.54511 0
M  V30 8158 C 816.844 -1.40693 1.79668 0
M  V30 8159 C 817.822 -1.49159 0.64734 0
M  V30 8160 O 819.006 -1.66367 0.886239 0
M  V30 8161 C 816.133 -2.78685 1.92491 0
M  V30 8162 C 815.179 -2.87688 3.14861 0
M  V30 8163 S 816.012 -2.50759 4.7316 0
M  V30 8164 C 817.168 -3.90797 4.88906 0
M  V30 8165 H 817.401 -1.19142 2.72383 0
M  V30 8166 H 814.934 -0.508103 1.458 0
M  V30 8167 H 816.892 -3.58168 2.00563 0
M  V30 8168 H 815.553 -2.9751 1.00731 0
M  V30 8169 H 814.746 -3.8888 3.20607 0
M  V30 8170 H 814.348 -2.16189 3.05186 0
M  V30 8171 H 816.64 -4.85693 4.72344 0
M  V30 8172 H 817.583 -3.90027 5.91003 0
M  V30 8173 H 817.991 -3.80357 4.1712 0
M  V30 8174 N 817.389 -1.46805 -0.573248 0
M  V30 8175 C 818.805 -1.31969 -0.897577 0
M  V30 8176 C 819.005 -0.298171 -1.99282 0
M  V30 8177 O 818.061 0.295953 -2.5076 0
M  V30 8178 C 819.374 -2.70859 -1.30598 0
M  V30 8179 C 820.922 -2.79022 -1.4183 0
M  V30 8180 C 821.397 -4.18516 -1.86033 0
M  V30 8181 N 822.888 -4.2098 -1.9321 0
M  V30 8182 C 823.623 -5.25814 -2.28707 0
M  V30 8183 N 823.119 -6.40968 -2.6293 0
M  V30 8184 N 824.912 -5.13184 -2.29343 0
M  V30 8185 H 817.063 -2.11869 0.150094 0
M  V30 8186 H 819.326 -0.947989 0.00447895 0
M  V30 8187 H 819.032 -3.46965 -0.575161 0
M  V30 8188 H 818.906 -3.01585 -2.26554 0
M  V30 8189 H 821.293 -2.03198 -2.13996 0
M  V30 8190 H 821.374 -2.51969 -0.441024 0
M  V30 8191 H 821.018 -4.94839 -1.14442 0
M  V30 8192 H 820.948 -4.42982 -2.84735 0
M  V30 8193 H 823.439 -3.37898 -1.69214 0
M  V30 8194 H 823.752 -7.16729 -2.88996 0
M  V30 8195 H 822.097 -6.44314 -2.60547 0
M  V30 8196 H 825.288 -4.22255 -2.02036 0
M  V30 8197 H 825.461 -5.94996 -2.56679 0
M  V30 8198 N 818.867 0.818669 -1.34668 0
M  V30 8199 C 819.83 1.9114 -1.26483 0
M  V30 8200 C 820.83 1.598 -0.179044 0
M  V30 8201 O 822.02 1.6876 -0.431952 0
M  V30 8202 C 819.152 3.27285 -0.95381 0
M  V30 8203 H 820.345 1.9982 -2.23634 0
M  V30 8204 H 817.898 1.01314 -1.19018 0
M  V30 8205 H 818.633 3.24297 0.0143428 0
M  V30 8206 H 818.418 3.51416 -1.73924 0
M  V30 8207 H 819.908 4.07299 -0.921827 0
M  V30 8208 N 820.346 1.18468 1.03938 0
M  V30 8209 C 821.309 0.914944 2.10146 0
M  V30 8210 C 822.309 -0.10022 1.60487 0
M  V30 8211 O 823.499 0.133365 1.73689 0
M  V30 8212 C 820.631 0.372993 3.38853 0
M  V30 8213 H 821.824 1.85677 2.35508 0
M  V30 8214 H 819.377 0.996876 1.20383 0
M  V30 8215 H 820.112 -0.57538 3.19155 0
M  V30 8216 H 819.897 1.1048 3.76213 0
M  V30 8217 H 821.387 0.203014 4.17106 0
M  V30 8218 N 821.824 -1.22873 0.986916 0
M  V30 8219 C 822.754 -2.2688 0.552064 0
M  V30 8220 C 823.735 -1.64883 -0.418048 0
M  V30 8221 O 824.92 -1.9171 -0.30999 0
M  V30 8222 C 822.05 -3.47018 -0.139959 0
M  V30 8223 C 821.004 -4.21411 0.748091 0
M  V30 8224 C 820.33 -5.34645 -0.0765132 0
M  V30 8225 C 821.63 -4.80726 2.04206 0
M  V30 8226 H 823.324 -2.63507 1.42143 0
M  V30 8227 H 820.87 -1.26668 0.68492 0
M  V30 8228 H 822.823 -4.18931 -0.455527 0
M  V30 8229 H 821.547 -3.0947 -1.04382 0
M  V30 8230 H 820.206 -3.51325 1.04721 0
M  V30 8231 H 819.854 -4.93339 -0.981109 0
M  V30 8232 H 819.554 -5.85342 0.514606 0
M  V30 8233 H 821.078 -6.09377 -0.386313 0
M  V30 8234 H 822.492 -5.44612 1.79083 0
M  V30 8235 H 820.889 -5.41737 2.5815 0
M  V30 8236 H 821.959 -4.01109 2.72469 0
M  V30 8237 N 823.302 -0.75937 -1.38099 0
M  V30 8238 C 824.549 -0.318113 -1.99986 0
M  V30 8239 C 824.877 1.10184 -1.6028 0
M  V30 8240 O 824.132 1.77015 -0.834524 0
M  V30 8241 C 824.431 -0.394999 -3.55211 0
M  V30 8242 C 824.097 -1.77143 -4.14646 0
M  V30 8243 C 822.759 -2.14811 -4.30592 0
M  V30 8244 C 825.111 -2.67407 -4.47373 0
M  V30 8245 C 822.439 -3.42203 -4.76565 0
M  V30 8246 C 824.791 -3.94196 -4.94765 0
M  V30 8247 C 823.455 -4.31925 -5.08918 0
M  V30 8248 H 822.725 -0.116406 -0.7318 0
M  V30 8249 H 825.372 -0.97098 -1.65058 0
M  V30 8250 H 823.677 0.341426 -3.9031 0
M  V30 8251 H 825.374 -0.0350722 -4.00985 0
M  V30 8252 H 821.964 -1.46864 -4.02652 0
M  V30 8253 H 826.148 -2.39569 -4.3465 0
M  V30 8254 H 821.404 -3.71346 -4.85708 0
M  V30 8255 H 825.578 -4.64276 -5.19057 0
M  V30 8256 H 823.205 -5.30699 -5.443 0
M  V30 8257 N 824.78 1.49157 -0.508906 0
M  V30 8258 C 826.02 2.04376 0.0310623 0
M  V30 8259 C 826.384 1.37946 1.33547 0
M  V30 8260 O 827.585 1.83931 1.96017 0
M  V30 8261 C 825.856 3.56985 0.172191 0
M  V30 8262 S 827.415 4.33728 0.665267 0
M  V30 8263 H 824.233 0.710997 -0.00199266 0
M  V30 8264 H 826.835 1.83119 -0.684674 0
M  V30 8265 H 825.539 4.02874 -0.78234 0
M  V30 8266 H 825.07 3.82661 0.912933 0
M  V30 8267 H 827.085 4.56992 1.9332 0
M  V30 8268 N 826.258 0.243083 1.55714 0
M  V30 8269 C 827.507 -0.383188 1.98027 0
M  V30 8270 C 827.82 -1.59347 1.13436 0
M  V30 8271 O 829.026 -2.29065 1.45745 0
M  V30 8272 C 827.482 -0.733135 3.52354 0
M  V30 8273 C 827.09 0.455539 4.45678 0
M  V30 8274 C 828.834 -1.32381 4.03331 0
M  V30 8275 C 826.741 0.0819591 5.91343 0
M  V30 8276 H 825.671 -0.146944 0.739543 0
M  V30 8277 H 828.322 0.342697 1.80272 0
M  V30 8278 H 826.704 -1.51704 3.65789 0
M  V30 8279 H 827.878 1.23291 4.44 0
M  V30 8280 H 826.193 0.960886 4.05162 0
M  V30 8281 H 828.79 -1.61658 5.09677 0
M  V30 8282 H 829.133 -2.24698 3.50452 0
M  V30 8283 H 829.666 -0.602885 3.93205 0
M  V30 8284 H 826.405 0.972171 6.48251 0
M  V30 8285 H 825.925 -0.659291 5.96166 0
M  V30 8286 H 827.604 -0.3372 6.46121 0
M  V30 8287 N 827.736 -1.57571 -0.0300757 0
M  V30 8288 C 828.983 -1.89226 -0.721091 0
M  V30 8289 C 829.311 -0.840244 -1.75414 0
M  V30 8290 O 828.566 0.158906 -1.95054 0
M  V30 8291 C 828.865 -3.27624 -1.42818 0
M  V30 8292 C 828.531 -4.4776 -0.531208 0
M  V30 8293 C 827.193 -4.8036 -0.28415 0
M  V30 8294 C 829.545 -5.21125 0.0881582 0
M  V30 8295 C 826.873 -5.83715 0.591065 0
M  V30 8296 C 829.225 -6.2541 0.95107 0
M  V30 8297 C 827.889 -6.56486 1.2076 0
M  V30 8298 H 827.159 -0.692428 -0.263866 0
M  V30 8299 H 829.806 -1.91491 0.0189874 0
M  V30 8300 H 828.111 -3.21343 -2.24155 0
M  V30 8301 H 829.808 -3.49365 -1.96838 0
M  V30 8302 H 826.398 -4.2227 -0.73392 0
M  V30 8303 H 830.582 -4.96219 -0.0897496 0
M  V30 8304 H 825.838 -6.06168 0.798132 0
M  V30 8305 H 830.012 -6.81402 1.43751 0
M  V30 8306 H 827.639 -7.36395 1.88751 0
M  V30 8307 N 829.214 0.302327 -1.54673 0
M  V30 8308 C 830.442 1.05669 -1.77881 0
M  V30 8309 C 830.857 1.80983 -0.537648 0
M  V30 8310 O 830.214 1.7573 0.492467 0
M  V30 8311 C 830.265 2.03828 -2.98557 0
M  V30 8312 O 829.986 1.3157 -4.17877 0
M  V30 8313 C 831.487 2.91314 -3.34143 0
M  V30 8314 H 828.707 0.313436 -0.593295 0
M  V30 8315 H 831.251 0.342003 -2.0162 0
M  V30 8316 H 829.406 2.70801 -2.7703 0
M  V30 8317 H 829.82 1.97481 -4.85903 0
M  V30 8318 H 831.294 3.56042 -4.21827 0
M  V30 8319 H 831.771 3.59544 -2.52239 0
M  V30 8320 H 832.377 2.29874 -3.57824 0
M  V30 8321 N 830.692 1.47107 0.565454 0
M  V30 8322 C 831.922 1.56681 1.34664 0
M  V30 8323 C 832.33 0.213011 1.87997 0
M  V30 8324 O 831.673 -0.802629 1.65238 0
M  V30 8325 C 831.735 2.52528 2.55871 0
M  V30 8326 C 831.399 3.98403 2.23883 0
M  V30 8327 C 832.396 4.87125 1.81673 0
M  V30 8328 C 830.081 4.43674 2.35496 0
M  V30 8329 C 832.075 6.19135 1.51494 0
M  V30 8330 C 829.762 5.75714 2.0493 0
M  V30 8331 C 830.76 6.63266 1.62996 0
M  V30 8332 O 830.448 7.92853 1.32813 0
M  V30 8333 H 830.18 0.531967 0.417117 0
M  V30 8334 H 832.734 1.93368 0.692669 0
M  V30 8335 H 830.964 2.10893 3.24131 0
M  V30 8336 H 832.653 2.5232 3.17945 0
M  V30 8337 H 833.419 4.534 1.72201 0
M  V30 8338 H 829.298 3.7574 2.67096 0
M  V30 8339 H 832.842 6.87429 1.1869 0
M  V30 8340 H 828.739 6.08983 2.14031 0
M  V30 8341 H 829.507 8.0528 1.46513 0
M  V30 8342 N 832.17 -0.811516 1.35101 0
M  V30 8343 C 833.1 -1.9378 1.30275 0
M  V30 8344 C 834.081 -1.69165 0.178075 0
M  V30 8345 O 835.266 -1.90599 0.372256 0
M  V30 8346 C 832.396 -3.30439 1.06899 0
M  V30 8347 C 831.35 -3.69523 2.15955 0
M  V30 8348 C 830.676 -5.0429 1.77751 0
M  V30 8349 C 831.976 -3.80419 3.57881 0
M  V30 8350 H 833.67 -1.98075 2.24514 0
M  V30 8351 H 831.216 -0.951586 1.08078 0
M  V30 8352 H 833.169 -4.08828 1.02164 0
M  V30 8353 H 831.893 -3.26473 0.0910462 0
M  V30 8354 H 830.552 -2.93416 2.19778 0
M  V30 8355 H 830.2 -4.96823 0.785876 0
M  V30 8356 H 829.9 -5.31411 2.5075 0
M  V30 8357 H 831.424 -5.85125 1.74533 0
M  V30 8358 H 832.838 -4.49051 3.56407 0
M  V30 8359 H 831.235 -4.19005 4.29598 0
M  V30 8360 H 832.305 -2.82105 3.94391 0
M  V30 8361 N 833.648 -1.19017 -1.03309 0
M  V30 8362 C 834.925 -0.899659 -1.73682 0
M  V30 8363 C 835.305 0.595677 -2.02521 0
M  V30 8364 O 834.653 1.55263 -1.67648 0
M  V30 8365 C 834.863 -1.75508 -3.01659 0
M  V30 8366 C 836.211 -1.98679 -3.75249 0
M  V30 8367 O 837.235 -1.72624 -3.11576 0
M  V30 8368 O 836.094 -2.42587 -4.89708 0
M  V30 8369 H 833.188 -0.334903 -0.756154 0
M  V30 8370 H 835.734 -1.29809 -1.09305 0
M  V30 8371 H 834.506 -2.7684 -2.76542 0
M  V30 8372 H 834.129 -1.35565 -3.73775 0
M  V30 8373 N 835.127 1.22348 -0.993418 0
M  V30 8374 C 836.355 1.95125 -0.688021 0
M  V30 8375 C 836.77 1.73377 0.747388 0
M  V30 8376 O 836.127 1.03317 1.50439 0
M  V30 8377 C 836.178 3.47819 -0.985097 0
M  V30 8378 O 835.899 3.68838 -2.3641 0
M  V30 8379 C 837.4 4.37779 -0.697474 0
M  V30 8380 H 834.62 0.62087 -0.254481 0
M  V30 8381 H 837.164 1.55485 -1.32833 0
M  V30 8382 H 835.319 3.85426 -0.390583 0
M  V30 8383 H 835.733 4.63032 -2.46377 0
M  V30 8384 H 837.207 5.43666 -0.955604 0
M  V30 8385 H 837.684 4.37651 0.368524 0
M  V30 8386 H 838.29 4.05799 -1.27306 0
M  V30 8387 N 836.605 0.766683 1.37694 0
M  V30 8388 C 838.021 0.445739 1.53249 0
M  V30 8389 C 838.221 -1.03935 1.72626 0
M  V30 8390 O 837.277 -1.82525 1.74473 0
M  V30 8391 C 838.59 1.2564 2.73194 0
M  V30 8392 C 840.138 1.24779 2.87053 0
M  V30 8393 C 840.613 2.04169 4.09974 0
M  V30 8394 N 842.104 2.01497 4.17077 0
M  V30 8395 C 842.839 2.5971 5.11212 0
M  V30 8396 N 842.335 3.26691 6.10938 0
M  V30 8397 N 844.128 2.49568 5.03659 0
M  V30 8398 H 836.279 1.72899 1.23368 0
M  V30 8399 H 838.542 0.733701 0.600322 0
M  V30 8400 H 838.248 2.30859 2.65324 0
M  V30 8401 H 838.122 0.882133 3.6674 0
M  V30 8402 H 840.509 0.203603 2.94397 0
M  V30 8403 H 840.59 1.66166 1.9448 0
M  V30 8404 H 840.234 3.08606 4.03392 0
M  V30 8405 H 840.164 1.60167 5.01651 0
M  V30 8406 H 842.655 1.52728 3.45662 0
M  V30 8407 H 842.968 3.68497 6.79286 0
M  V30 8408 H 841.313 3.30789 6.11231 0
M  V30 8409 H 844.504 1.96859 4.24693 0
M  V30 8410 H 844.677 2.95231 5.76839 0
M  V30 8411 N 838.083 -1.48885 0.516809 0
M  V30 8412 C 839.311 -2.06892 -0.0184017 0
M  V30 8413 C 839.726 -1.37511 -1.29368 0
M  V30 8414 O 839.083 -0.458409 -1.76649 0
M  V30 8415 C 839.134 -3.60566 -0.259673 0
M  V30 8416 O 838.855 -4.27338 0.965065 0
M  V30 8417 C 840.356 -4.35331 -0.836751 0
M  V30 8418 H 837.576 -0.670433 0.0275743 0
M  V30 8419 H 840.12 -1.91455 0.718689 0
M  V30 8420 H 838.275 -3.75653 -0.94678 0
M  V30 8421 H 838.689 -5.19287 0.737647 0
M  V30 8422 H 840.163 -5.43675 -0.955065 0
M  V30 8423 H 840.64 -3.9887 -1.83845 0
M  V30 8424 H 841.246 -4.2489 -0.186622 0
M  V30 8425 N 839.561 -0.251338 -1.55583 0
M  V30 8426 C 840.491 0.640437 -2.24545 0
M  V30 8427 C 841.472 1.17781 -1.22726 0
M  V30 8428 O 842.657 1.21633 -1.5139 0
M  V30 8429 C 839.787 1.8355 -2.94834 0
M  V30 8430 C 838.741 1.4307 -4.03379 0
M  V30 8431 C 838.067 2.70695 -4.61116 0
M  V30 8432 C 839.367 0.59848 -5.1886 0
M  V30 8433 H 841.061 0.0653772 -2.99329 0
M  V30 8434 H 838.607 0.0300042 -1.43969 0
M  V30 8435 H 840.56 2.46505 -3.4178 0
M  V30 8436 H 839.284 2.43601 -2.17546 0
M  V30 8437 H 837.943 0.824474 -3.57209 0
M  V30 8438 H 837.591 3.28954 -3.80524 0
M  V30 8439 H 837.291 2.44332 -5.34393 0
M  V30 8440 H 838.815 3.34541 -5.10798 0
M  V30 8441 H 840.229 1.13244 -5.62004 0
M  V30 8442 H 838.626 0.430728 -5.98552 0
M  V30 8443 H 839.696 -0.38829 -4.83343 0
M  V30 8444 N 841.039 1.57585 0.0217189 0
M  V30 8445 C 841.969 2.10073 1.01939 0
M  V30 8446 C 842.95 1.0049 1.37243 0
M  V30 8447 O 844.135 1.28055 1.45999 0
M  V30 8448 C 841.265 2.58618 2.31806 0
M  V30 8449 C 840.219 3.72531 2.10724 0
M  V30 8450 C 839.545 4.07309 3.46415 0
M  V30 8451 C 840.845 5.00672 1.48743 0
M  V30 8452 H 842.539 2.9368 0.582432 0
M  V30 8453 H 840.085 1.41277 0.278715 0
M  V30 8454 H 842.038 2.9396 3.01936 0
M  V30 8455 H 840.762 1.72104 2.77575 0
M  V30 8456 H 839.421 3.37549 1.43025 0
M  V30 8457 H 839.069 3.17851 3.89846 0
M  V30 8458 H 838.769 4.84042 3.33132 0
M  V30 8459 H 840.293 4.45192 4.17895 0
M  V30 8460 H 841.707 5.33925 2.088 0
M  V30 8461 H 840.104 5.82065 1.46013 0
M  V30 8462 H 841.174 4.82769 0.45408 0
M  V30 8463 N 842.517 -0.29412 1.54831 0
M  V30 8464 C 843.467 -1.36476 1.82643 0
M  V30 8465 C 844.451 -1.45638 0.683984 0
M  V30 8466 O 845.643 -1.49675 0.944801 0
M  V30 8467 C 842.772 -2.72865 2.08326 0
M  V30 8468 C 841.858 -2.67898 3.28773 0
M  V30 8469 N 842.249 -2.32547 4.49172 0
M  V30 8470 C 840.547 -2.98991 3.30939 0
M  V30 8471 C 841.248 -2.37048 5.31209 0
M  V30 8472 N 840.224 -2.74679 4.69097 0
M  V30 8473 H 844.026 -1.08119 2.7329 0
M  V30 8474 H 841.54 -0.502718 1.54423 0
M  V30 8475 H 843.537 -3.5007 2.264 0
M  V30 8476 H 842.197 -3.02127 1.1895 0
M  V30 8477 H 843.208 -2.04883 4.7565 0
M  V30 8478 H 839.885 -3.33104 2.51691 0
M  V30 8479 H 841.275 -2.12457 6.37426 0
M  V30 8480 N 843.995 -1.47404 -0.557645 0
M  V30 8481 C 844.958 -1.59411 -1.64684 0
M  V30 8482 C 845.958 -0.469244 -1.53801 0
M  V30 8483 O 847.148 -0.734298 -1.57967 0
M  V30 8484 C 844.28 -1.5382 -3.04224 0
M  V30 8485 H 845.473 -2.56504 -1.55389 0
M  V30 8486 H 843.026 -1.35588 -0.777531 0
M  V30 8487 H 843.761 -0.581 -3.19053 0
M  V30 8488 H 843.546 -2.35456 -3.13533 0
M  V30 8489 H 845.036 -1.65358 -3.83466 0
M  V30 8490 N 845.473 0.80434 -1.35529 0
M  V30 8491 C 846.436 1.89788 -1.28503 0
M  V30 8492 C 847.436 1.59601 -0.195983 0
M  V30 8493 O 848.626 1.68292 -0.449827 0
M  V30 8494 C 845.758 3.26255 -0.98847 0
M  V30 8495 H 846.951 1.97436 -2.25741 0
M  V30 8496 H 844.504 1.00046 -1.20086 0
M  V30 8497 H 845.239 3.24294 -0.0200541 0
M  V30 8498 H 845.024 3.49551 -1.77641 0
M  V30 8499 H 846.514 4.06298 -0.964975 0
M  V30 8500 N 846.951 1.19563 1.02676 0
M  V30 8501 C 847.861 0.950691 2.14474 0
M  V30 8502 C 848.877 -0.0900219 1.73767 0
M  V30 8503 O 850.053 0.0951063 2.01175 0
M  V30 8504 C 847.118 0.494917 3.43149 0
M  V30 8505 C 846.179 1.60527 3.98158 0
M  V30 8506 C 845.412 1.17115 5.20692 0
M  V30 8507 O 845.635 0.0355937 5.70389 0
M  V30 8508 O 844.569 1.97454 5.68591 0
M  V30 8509 H 848.395 1.88651 2.38001 0
M  V30 8510 H 845.98 0.978635 1.12885 0
M  V30 8511 H 847.862 0.249492 4.20661 0
M  V30 8512 H 846.537 -0.412434 3.21062 0
M  V30 8513 H 845.444 1.90487 3.21971 0
M  V30 8514 H 846.777 2.48925 4.24614 0
M  V30 8515 N 848.429 -1.21819 0.999893 0
M  V30 8516 C 849.675 -1.91035 0.680701 0
M  V30 8517 C 850.008 -1.77582 -0.786021 0
M  V30 8518 O 849.283 -1.14917 -1.56921 0
M  V30 8519 C 849.566 -3.43013 1.0961 0
M  V30 8520 C 849.419 -3.65481 2.6219 0
M  V30 8521 C 850.738 -4.35204 0.654616 0
M  V30 8522 H 847.857 -0.693748 0.248763 0
M  V30 8523 H 850.499 -1.43555 1.24466 0
M  V30 8524 H 848.649 -3.83581 0.616253 0
M  V30 8525 H 850.321 -3.34273 3.17899 0
M  V30 8526 H 848.564 -3.09522 3.03938 0
M  V30 8527 H 849.235 -4.71945 2.86307 0
M  V30 8528 H 851.711 -4.0219 1.06688 0
M  V30 8529 H 850.587 -5.40198 0.973492 0
M  V30 8530 H 850.848 -4.3986 -0.444458 0
M  V30 8531 N 849.908 -0.773975 -1.37286 0
M  V30 8532 C 851.148 -0.344505 -2.01476 0
M  V30 8533 C 851.512 1.05966 -1.6011 0
M  V30 8534 O 852.713 1.58937 -2.16778 0
M  V30 8535 C 850.984 -0.485816 -3.54083 0
M  V30 8536 S 852.543 -0.141939 -4.3857 0
M  V30 8537 H 849.361 -0.13243 -0.698558 0
M  V30 8538 H 851.963 -1.00908 -1.67445 0
M  V30 8539 H 850.667 -1.50835 -3.81677 0
M  V30 8540 H 850.198 0.195232 -3.92915 0
M  V30 8541 H 852.213 1.06177 -4.84707 0
M  V30 8542 N 851.386 1.48609 -0.524698 0
M  V30 8543 C 852.802 1.58557 -0.182199 0
M  V30 8544 C 853.002 1.52732 1.31435 0
M  V30 8545 O 852.058 1.41362 2.0922 0
M  V30 8546 C 853.371 2.90406 -0.78004 0
M  V30 8547 C 854.919 3.03924 -0.748293 0
M  V30 8548 C 855.394 4.38427 -1.32462 0
M  V30 8549 N 856.885 4.4498 -1.28635 0
M  V30 8550 C 857.62 5.47551 -1.70223 0
M  V30 8551 N 857.116 6.57103 -2.19515 0
M  V30 8552 N 858.909 5.38402 -1.61493 0
M  V30 8553 H 851.06 1.50638 -1.4974 0
M  V30 8554 H 853.323 0.714952 -0.622533 0
M  V30 8555 H 853.029 3.00308 -1.83052 0
M  V30 8556 H 852.903 3.76343 -0.254075 0
M  V30 8557 H 855.29 2.93638 0.293407 0
M  V30 8558 H 855.371 2.19611 -1.31167 0
M  V30 8559 H 855.015 4.49466 -2.36522 0
M  V30 8560 H 854.945 5.21418 -0.736967 0
M  V30 8561 H 857.436 3.66393 -0.92545 0
M  V30 8562 H 857.749 7.31499 -2.49257 0
M  V30 8563 H 856.094 6.58081 -2.23506 0
M  V30 8564 H 859.285 4.5171 -1.22785 0
M  V30 8565 H 859.458 6.18208 -1.94225 0
M  V30 8566 N 852.864 0.259585 1.55447 0
M  V30 8567 C 854.141 -0.412595 1.91199 0
M  V30 8568 C 854.521 -1.74909 1.18194 0
M  V30 8569 O 853.869 -2.26474 0.303603 0
M  V30 8570 C 854.079 -0.568195 3.44344 0
M  V30 8571 C 855.427 -0.858253 4.15836 0
M  V30 8572 O 856.451 -0.653588 3.50152 0
M  V30 8573 O 855.31 -1.24874 5.32042 0
M  V30 8574 H 852.404 -0.223403 0.796254 0
M  V30 8575 H 854.95 0.30459 1.66944 0
M  V30 8576 H 853.722 0.372989 3.89518 0
M  V30 8577 H 853.345 -1.33544 3.74502 0
M  V30 8578 N 854.342 -1.57594 -0.0133615 0
M  V30 8579 C 855.588 -1.91105 -0.696457 0
M  V30 8580 C 855.943 -0.859872 -1.72116 0
M  V30 8581 O 855.236 0.129579 -1.91161 0
M  V30 8582 C 855.43 -3.29121 -1.39336 0
M  V30 8583 C 855.259 -4.47565 -0.437666 0
M  V30 8584 C 854.029 -5.05272 -0.0529454 0
M  V30 8585 C 856.227 -5.13479 0.290537 0
M  V30 8586 N 854.209 -6.07232 0.902355 0
M  V30 8587 C 855.58 -6.10147 1.10097 0
M  V30 8588 C 857.635 -4.96627 0.355804 0
M  V30 8589 C 856.338 -6.91778 1.97069 0
M  V30 8590 C 858.364 -5.78833 1.21271 0
M  V30 8591 C 857.726 -6.75083 2.01102 0
M  V30 8592 H 853.825 -0.747882 -0.228464 0
M  V30 8593 H 856.409 -1.94651 0.0438462 0
M  V30 8594 H 854.58 -3.26474 -2.10403 0
M  V30 8595 H 856.312 -3.501 -2.03008 0
M  V30 8596 H 853.067 -4.71747 -0.418486 0
M  V30 8597 H 853.491 -6.6289 1.37498 0
M  V30 8598 H 858.133 -4.22077 -0.247105 0
M  V30 8599 H 855.851 -7.65662 2.58433 0
M  V30 8600 H 859.437 -5.67838 1.26694 0
M  V30 8601 H 858.317 -7.37587 2.66337 0
M  V30 8602 N 855.82 0.285905 -1.54985 0
M  V30 8603 C 857.236 0.632405 -1.46536 0
M  V30 8604 C 857.436 1.90074 -0.668888 0
M  V30 8605 O 856.492 2.51839 -0.182586 0
M  V30 8606 C 857.805 0.771361 -2.90638 0
M  V30 8607 C 859.353 0.866262 -3.00774 0
M  V30 8608 C 859.828 1.0371 -4.46103 0
M  V30 8609 N 861.319 1.10294 -4.49877 0
M  V30 8610 C 862.054 1.25369 -5.59527 0
M  V30 8611 N 861.55 1.37246 -6.7907 0
M  V30 8612 N 863.343 1.28377 -5.47244 0
M  V30 8613 H 855.494 -0.547226 -2.0523 0
M  V30 8614 H 857.757 -0.183298 -0.930111 0
M  V30 8615 H 857.463 -0.0899485 -3.51585 0
M  V30 8616 H 857.337 1.65569 -3.3892 0
M  V30 8617 H 859.724 1.71805 -2.39931 0
M  V30 8618 H 859.805 -0.0424049 -2.55765 0
M  V30 8619 H 859.449 0.190021 -5.07544 0
M  V30 8620 H 859.379 1.96022 -4.88757 0
M  V30 8621 H 861.87 1.02407 -3.6376 0
M  V30 8622 H 862.183 1.48546 -7.58389 0
M  V30 8623 H 860.528 1.34274 -6.81906 0
M  V30 8624 H 863.719 1.1872 -4.52795 0
M  V30 8625 H 863.892 1.39782 -6.32744 0
M  V30 8626 N 857.298 1.47698 0.54982 0
M  V30 8627 C 858.545 1.54702 1.30665 0
M  V30 8628 C 858.873 0.212418 1.93337 0
M  V30 8629 O 858.128 -0.79543 1.78805 0
M  V30 8630 C 858.427 2.61903 2.4319 0
M  V30 8631 C 858.093 4.04953 1.98302 0
M  V30 8632 C 856.755 4.43893 1.85776 0
M  V30 8633 C 859.107 4.94682 1.64133 0
M  V30 8634 C 856.435 5.70387 1.37388 0
M  V30 8635 C 858.787 6.21646 1.17214 0
M  V30 8636 C 857.451 6.5946 1.0329 0
M  V30 8637 H 856.721 0.566096 0.478139 0
M  V30 8638 H 859.368 1.8133 0.615767 0
M  V30 8639 H 857.673 2.2906 3.17866 0
M  V30 8640 H 859.37 2.64543 3.0136 0
M  V30 8641 H 855.96 3.74191 2.08995 0
M  V30 8642 H 860.144 4.65291 1.72679 0
M  V30 8643 H 855.4 5.98427 1.25278 0
M  V30 8644 H 859.574 6.90581 0.898391 0
M  V30 8645 H 857.201 7.57367 0.655735 0
M  V30 8646 N 858.776 -0.797141 1.35954 0
M  V30 8647 C 860.022 -1.55698 1.29946 0
M  V30 8648 C 860.355 -1.93808 -0.123259 0
M  V30 8649 O 859.63 -1.62102 -1.07486 0
M  V30 8650 C 859.913 -2.83926 2.2149 0
M  V30 8651 C 859.766 -2.52232 3.72423 0
M  V30 8652 C 861.085 -3.85698 2.11955 0
M  V30 8653 H 858.204 -0.56488 0.47337 0
M  V30 8654 H 860.846 -0.916421 1.66438 0
M  V30 8655 H 858.996 -3.38588 1.905 0
M  V30 8656 H 860.668 -2.0368 4.13899 0
M  V30 8657 H 858.911 -1.85286 3.92239 0
M  V30 8658 H 859.582 -3.43782 4.31877 0
M  V30 8659 H 862.058 -3.40462 2.39218 0
M  V30 8660 H 860.934 -4.73182 2.78191 0
M  V30 8661 H 861.195 -4.28083 1.10442 0
M  V30 8662 N 860.254 -1.20106 -1.0204 0
M  V30 8663 C 861.217 -0.948261 -2.08664 0
M  V30 8664 C 862.217 0.0746753 -1.60627 0
M  V30 8665 O 863.407 -0.160981 -1.73455 0
M  V30 8666 C 860.539 -0.426854 -3.38217 0
M  V30 8667 H 861.732 -1.894 -2.32524 0
M  V30 8668 H 859.285 -1.0159 -1.18782 0
M  V30 8669 H 860.02 0.524532 -3.2003 0
M  V30 8670 H 859.805 -1.16451 -3.74408 0
M  V30 8671 H 861.295 -0.269346 -4.1673 0
M  V30 8672 N 861.732 1.21287 -1.00634 0
M  V30 8673 C 863.148 1.42467 -0.719389 0
M  V30 8674 C 863.348 1.88767 0.704927 0
M  V30 8675 O 862.404 2.05004 1.47409 0
M  V30 8676 C 863.717 2.455 -1.73639 0
M  V30 8677 C 865.265 2.59281 -1.75335 0
M  V30 8678 C 865.74 3.65547 -2.75934 0
M  V30 8679 N 867.231 3.73019 -2.74611 0
M  V30 8680 C 867.966 4.54873 -3.4911 0
M  V30 8681 N 867.462 5.40614 -4.33253 0
M  V30 8682 N 869.255 4.49309 -3.37754 0
M  V30 8683 H 861.406 0.895454 -1.92602 0
M  V30 8684 H 863.669 0.455491 -0.831404 0
M  V30 8685 H 863.375 2.18455 -2.75627 0
M  V30 8686 H 863.249 3.44325 -1.54014 0
M  V30 8687 H 865.636 2.85661 -0.740377 0
M  V30 8688 H 865.717 1.60685 -1.99032 0
M  V30 8689 H 865.361 3.39911 -3.77389 0
M  V30 8690 H 865.291 4.63741 -2.49503 0
M  V30 8691 H 867.782 3.11766 -2.13565 0
M  V30 8692 H 868.095 6.0013 -4.86892 0
M  V30 8693 H 866.44 5.40151 -4.37335 0
M  V30 8694 H 869.631 3.81357 -2.71449 0
M  V30 8695 H 869.804 5.12867 -3.9607 0
M  V30 8696 N 863.21 0.781244 1.36873 0
M  V30 8697 C 864.16 0.147313 2.27524 0
M  V30 8698 C 865.144 -0.663928 1.46563 0
M  V30 8699 O 866.336 -0.525343 1.69024 0
M  V30 8700 C 863.465 -0.723511 3.35589 0
M  V30 8701 C 862.551 0.0960763 4.23991 0
M  V30 8702 N 862.942 1.14649 4.92635 0
M  V30 8703 C 861.24 -0.126397 4.45821 0
M  V30 8704 C 861.941 1.64474 5.57964 0
M  V30 8705 N 860.917 0.955316 5.3514 0
M  V30 8706 H 864.719 0.951406 2.78075 0
M  V30 8707 H 862.233 0.619913 1.50103 0
M  V30 8708 H 864.23 -1.19351 3.99451 0
M  V30 8709 H 862.89 -1.52624 2.86594 0
M  V30 8710 H 863.901 1.5288 4.94821 0
M  V30 8711 H 860.578 -0.900284 4.07678 0
M  V30 8712 H 861.968 2.52124 6.22803 0
M  V30 8713 N 864.689 -1.48329 0.532571 0
M  V30 8714 C 866.1 -1.86469 0.0927749 0
M  V30 8715 C 866.451 -1.44186 -1.3306 0
M  V30 8716 O 865.576 -0.833741 -1.99694 0
M  V30 8717 C 866.171 -3.38414 0.161588 0
M  V30 8718 C 864.73 -3.75739 -0.223028 0
M  V30 8719 C 863.877 -2.72377 0.520199 0
M  V30 8720 H 866.828 -1.40197 0.743678 0
M  V30 8721 H 866.849 -3.75314 -0.626059 0
M  V30 8722 H 866.361 -3.69159 1.19765 0
M  V30 8723 H 864.462 -3.50608 -1.26113 0
M  V30 8724 H 864.575 -4.78954 0.118385 0
M  V30 8725 H 862.939 -2.54678 -0.0338425 0
M  V30 8726 H 863.722 -3.05965 1.55694 0
M  V30 8727 N 866.167 -0.267825 -1.55308 0
M  V30 8728 C 867.13 0.60965 -2.20943 0
M  V30 8729 C 868.13 1.0869 -1.18504 0
M  V30 8730 O 869.32 0.988248 -1.43455 0
M  V30 8731 C 866.452 1.84027 -2.86961 0
M  V30 8732 H 867.645 0.0366806 -2.99878 0
M  V30 8733 H 865.198 -0.0183941 -1.56289 0
M  V30 8734 H 865.933 2.45394 -2.1202 0
M  V30 8735 H 865.718 1.50605 -3.62023 0
M  V30 8736 H 867.208 2.46442 -3.37129 0
M  V30 8737 N 867.645 1.57599 0.00500368 0
M  V30 8738 C 868.891 1.90631 0.691919 0
M  V30 8739 C 869.224 0.868443 1.737 0
M  V30 8740 O 868.499 -0.113482 1.94169 0
M  V30 8741 C 868.782 3.34255 1.33961 0
M  V30 8742 C 868.635 4.48755 0.306413 0
M  V30 8743 C 869.954 3.77211 2.26715 0
M  V30 8744 H 867.073 0.693279 0.250066 0
M  V30 8745 H 869.715 1.89946 -0.0452634 0
M  V30 8746 H 867.865 3.3497 1.96793 0
M  V30 8747 H 869.537 4.60176 -0.321841 0
M  V30 8748 H 867.78 4.32203 -0.371852 0
M  V30 8749 H 868.451 5.46193 0.798554 0
M  V30 8750 H 870.927 3.78017 1.73904 0
M  V30 8751 H 869.803 4.78466 2.69002 0
M  V30 8752 H 870.064 3.10801 3.14413 0
M  V30 8753 N 869.123 -0.277682 1.55134 0
M  V30 8754 C 870.369 -1.00733 1.76704 0
M  V30 8755 C 870.724 -1.84107 0.55879 0
M  V30 8756 O 870.017 -1.86275 -0.448591 0
M  V30 8757 C 870.211 -1.92599 3.01065 0
M  V30 8758 C 870.04 -1.18266 4.3387 0
M  V30 8759 C 868.81 -0.900254 4.97216 0
M  V30 8760 C 871.008 -0.575419 5.11071 0
M  V30 8761 N 868.99 -0.129637 6.13763 0
M  V30 8762 C 870.361 0.0612637 6.1997 0
M  V30 8763 C 872.416 -0.482794 4.95554 0
M  V30 8764 C 871.119 0.781637 7.15041 0
M  V30 8765 C 873.145 0.223977 5.90976 0
M  V30 8766 C 872.507 0.849416 6.9926 0
M  V30 8767 H 868.606 -0.35075 0.698927 0
M  V30 8768 H 871.19 -0.283482 1.92625 0
M  V30 8769 H 869.361 -2.62214 2.86528 0
M  V30 8770 H 871.093 -2.5889 3.1106 0
M  V30 8771 H 867.848 -1.20434 4.58031 0
M  V30 8772 H 868.272 0.242865 6.76564 0
M  V30 8773 H 872.914 -0.952023 4.11942 0
M  V30 8774 H 870.632 1.26256 7.98176 0
M  V30 8775 H 874.218 0.2959 5.81047 0
M  V30 8776 H 873.098 1.3876 7.71826 0
M  V30 8777 N 870.601 -1.47988 -0.541979 0
M  V30 8778 C 871.829 -1.59034 -1.32347 0
M  V30 8779 C 872.244 -0.246123 -1.87189 0
M  V30 8780 O 871.601 0.762889 -1.6579 0
M  V30 8781 C 871.652 -2.62759 -2.48274 0
M  V30 8782 O 871.373 -3.91963 -1.95695 0
M  V30 8783 C 872.874 -2.84133 -3.4027 0
M  V30 8784 H 870.094 -0.536574 -0.402901 0
M  V30 8785 H 872.638 -1.93725 -0.655045 0
M  V30 8786 H 870.793 -2.3096 -3.11025 0
M  V30 8787 H 871.207 -4.48769 -2.7149 0
M  V30 8788 H 872.681 -3.60538 -4.17991 0
M  V30 8789 H 873.158 -1.92512 -3.9476 0
M  V30 8790 H 873.764 -3.17188 -2.83322 0
M  V30 8791 N 872.079 0.78992 -1.36375 0
M  V30 8792 C 873.495 1.0879 -1.16777 0
M  V30 8793 C 873.695 2.01498 0.00848236 0
M  V30 8794 O 872.751 2.43338 0.674007 0
M  V30 8795 C 874.064 1.70285 -2.47837 0
M  V30 8796 C 875.612 1.82629 -2.54196 0
M  V30 8797 C 876.087 2.47539 -3.85342 0
M  V30 8798 N 877.578 2.55008 -3.86685 0
M  V30 8799 C 878.313 3.06041 -4.84898 0
M  V30 8800 N 877.809 3.57385 -5.93505 0
M  V30 8801 N 879.602 3.04748 -4.72319 0
M  V30 8802 H 871.753 0.173985 -2.11686 0
M  V30 8803 H 874.016 0.139798 -0.937636 0
M  V30 8804 H 873.722 1.09633 -3.34176 0
M  V30 8805 H 873.596 2.69799 -2.63607 0
M  V30 8806 H 875.983 2.42419 -1.68276 0
M  V30 8807 H 876.064 0.81923 -2.42327 0
M  V30 8808 H 875.708 1.88393 -4.71668 0
M  V30 8809 H 875.638 3.48815 -3.94507 0
M  V30 8810 H 878.129 2.18651 -3.08221 0
M  V30 8811 H 878.442 3.94674 -6.64419 0
M  V30 8812 H 876.787 3.55538 -5.97175 0
M  V30 8813 H 879.978 2.63925 -3.86602 0
M  V30 8814 H 880.151 3.44212 -5.49019 0
M  V30 8815 N 873.557 1.20646 1.01402 0
M  V30 8816 C 874.803 1.0197 1.753 0
M  V30 8817 C 875.136 -0.446803 1.8899 0
M  V30 8818 O 874.411 -1.33169 1.41762 0
M  V30 8819 C 874.694 1.70693 3.17074 0
M  V30 8820 C 874.547 3.24805 3.11162 0
M  V30 8821 C 875.866 1.44212 4.15802 0
M  V30 8822 H 872.985 0.371844 0.636318 0
M  V30 8823 H 875.627 1.48696 1.18277 0
M  V30 8824 H 873.777 1.30968 3.65759 0
M  V30 8825 H 875.449 3.73841 2.70261 0
M  V30 8826 H 873.692 3.55576 2.48492 0
M  V30 8827 H 874.363 3.68049 4.11393 0
M  V30 8828 H 876.839 1.7868 3.75783 0
M  V30 8829 H 875.715 1.94825 5.13161 0
M  V30 8830 H 875.976 0.370252 4.40547 0
M  V30 8831 N 875.035 -1.20752 1.01276 0
M  V30 8832 C 875.965 -2.25658 0.600064 0
M  V30 8833 C 876.946 -1.65733 -0.38298 0
M  V30 8834 O 878.131 -1.92324 -0.269256 0
M  V30 8835 C 875.261 -3.47237 -0.0663197 0
M  V30 8836 C 874.215 -4.1973 0.83731 0
M  V30 8837 C 873.541 -5.34687 0.0369102 0
M  V30 8838 C 874.841 -4.76286 2.14357 0
M  V30 8839 H 876.535 -2.60432 1.477 0
M  V30 8840 H 874.081 -1.25187 0.711634 0
M  V30 8841 H 876.034 -4.19803 -0.366563 0
M  V30 8842 H 874.758 -3.11615 -0.977944 0
M  V30 8843 H 873.417 -3.49024 1.1215 0
M  V30 8844 H 873.065 -4.95309 -0.876244 0
M  V30 8845 H 872.765 -5.84119 0.63865 0
M  V30 8846 H 874.289 -6.10059 -0.256968 0
M  V30 8847 H 875.703 -5.40691 1.90595 0
M  V30 8848 H 874.1 -5.36139 2.69583 0
M  V30 8849 H 875.17 -3.9524 2.80916 0
M  V30 8850 N 876.513 -0.788492 -1.36457 0
M  V30 8851 C 877.443 -0.200468 -2.32638 0
M  V30 8852 C 878.424 0.664031 -1.56603 0
M  V30 8853 O 879.609 0.598045 -1.84762 0
M  V30 8854 C 876.739 0.666274 -3.40849 0
M  V30 8855 C 875.693 -0.0982574 -4.27887 0
M  V30 8856 C 875.019 0.889018 -5.27258 0
M  V30 8857 C 876.319 -1.28692 -5.06197 0
M  V30 8858 H 878.013 -1.00399 -2.82065 0
M  V30 8859 H 875.559 -0.484237 -1.35614 0
M  V30 8860 H 877.512 1.08757 -4.07124 0
M  V30 8861 H 876.236 1.50249 -2.89987 0
M  V30 8862 H 874.895 -0.500525 -3.63167 0
M  V30 8863 H 874.543 1.72024 -4.7267 0
M  V30 8864 H 874.243 0.381909 -5.86358 0
M  V30 8865 H 875.767 1.30891 -5.96406 0
M  V30 8866 H 877.181 -0.941429 -5.65517 0
M  V30 8867 H 875.578 -1.72726 -5.74705 0
M  V30 8868 H 876.648 -2.08273 -4.37893 0
M  V30 8869 N 877.991 1.48044 -0.54043 0
M  V30 8870 C 878.901 2.33565 0.220163 0
M  V30 8871 C 879.917 1.47146 0.928659 0
M  V30 8872 O 881.093 1.80107 0.901295 0
M  V30 8873 C 878.158 3.2349 1.2472 0
M  V30 8874 C 877.219 4.25789 0.547938 0
M  V30 8875 C 876.452 5.11417 1.52605 0
M  V30 8876 O 876.675 4.99204 2.75956 0
M  V30 8877 O 875.609 5.92498 1.05972 0
M  V30 8878 H 879.435 2.99868 -0.480898 0
M  V30 8879 H 877.02 1.46332 -0.301226 0
M  V30 8880 H 878.902 3.79084 1.84047 0
M  V30 8881 H 877.577 2.59835 1.93048 0
M  V30 8882 H 876.484 3.74001 -0.0860941 0
M  V30 8883 H 877.817 4.92111 -0.0935896 0
M  V30 8884 N 879.47 0.276058 1.55163 0
M  V30 8885 C 880.418 -0.626978 2.2399 0
M  V30 8886 C 881.412 -1.15708 1.23725 0
M  V30 8887 O 882.618 -1.1106 1.41653 0
M  V30 8888 H 878.993 -0.220742 0.718872 0
M  V30 8889 H 880.964 -0.0236569 2.98391 0
M  V30 8890 C 879.713 -1.79935 2.97521 0
M  V30 8891 H 879.036 -1.40064 3.74463 0
M  V30 8892 H 880.476 -2.40781 3.48999 0
M  V30 8893 C 878.935 -2.68838 2.03046 0
M  V30 8894 O 879.465 -3.69224 1.58229 0
M  V30 8895 N 877.671 -2.36028 1.69527 0
M  V30 8896 H 877.218 -1.54442 2.06169 0
M  V30 8897 H 877.176 -2.95782 1.06586 0
M  V30 8898 N 880.948 -1.576 0.00335426 0
M  V30 8899 C 881.911 -2.07576 -0.971838 0
M  V30 8900 C 882.911 -0.985796 -1.27038 0
M  V30 8901 O 884.101 -1.24833 -1.21501 0
M  V30 8902 C 881.233 -2.52003 -2.29581 0
M  V30 8903 H 882.426 -2.95008 -0.539481 0
M  V30 8904 H 879.979 -1.54381 -0.244186 0
M  V30 8905 H 880.714 -1.67825 -2.77498 0
M  V30 8906 H 880.499 -3.31609 -2.09231 0
M  V30 8907 H 881.989 -2.90983 -2.99531 0
M  V30 8908 N 882.426 0.269451 -1.5528 0
M  V30 8909 C 883.842 0.616827 -1.47199 0
M  V30 8910 C 884.042 1.89354 -0.68901 0
M  V30 8911 O 883.098 2.51631 -0.209287 0
M  V30 8912 C 884.411 0.740492 -2.9144 0
M  V30 8913 C 885.959 0.834312 -3.01676 0
M  V30 8914 C 886.434 0.989725 -4.47178 0
M  V30 8915 N 887.925 1.05516 -4.51022 0
M  V30 8916 C 888.66 1.19427 -5.60825 0
M  V30 8917 N 888.156 1.30035 -6.80487 0
M  V30 8918 N 889.949 1.22566 -5.48575 0
M  V30 8919 H 882.1 -0.568962 -2.04638 0
M  V30 8920 H 884.363 -0.193153 -0.928114 0
M  V30 8921 H 884.069 -0.127234 -3.5147 0
M  V30 8922 H 883.943 1.61965 -3.40657 0
M  V30 8923 H 886.33 1.6925 -2.4174 0
M  V30 8924 H 886.411 -0.0695298 -2.55705 0
M  V30 8925 H 886.055 0.136179 -5.07717 0
M  V30 8926 H 885.985 1.90827 -4.90808 0
M  V30 8927 H 888.476 0.985434 -3.64825 0
M  V30 8928 H 888.789 1.40494 -7.59922 0
M  V30 8929 H 887.134 1.27033 -6.83292 0
M  V30 8930 H 890.325 1.13911 -4.54029 0
M  V30 8931 H 890.498 1.33063 -6.34191 0
M  V30 8932 N 883.904 1.48273 0.534124 0
M  V30 8933 C 885.15 1.56311 1.29208 0
M  V30 8934 C 885.483 0.234481 1.92779 0
M  V30 8935 O 884.758 -0.759143 1.79073 0
M  V30 8936 C 885.041 2.69831 2.3846 0
M  V30 8937 C 884.894 4.12385 1.79608 0
M  V30 8938 C 886.213 2.79133 3.40254 0
M  V30 8939 H 883.332 0.56899 0.468422 0
M  V30 8940 H 885.974 1.80429 0.595438 0
M  V30 8941 H 884.124 2.49397 2.97881 0
M  V30 8942 H 885.796 4.44246 1.24269 0
M  V30 8943 H 884.039 4.19579 1.10162 0
M  V30 8944 H 884.71 4.87629 2.58693 0
M  V30 8945 H 887.186 2.97632 2.90783 0
M  V30 8946 H 886.062 3.60298 4.14097 0
M  V30 8947 H 886.323 1.87122 4.00547 0
M  V30 8948 N 885.382 -0.782676 1.36792 0
M  V30 8949 C 886.622 -1.55396 1.32784 0
M  V30 8950 C 886.986 -1.91789 -0.0900272 0
M  V30 8951 O 888.187 -2.6759 -0.254725 0
M  V30 8952 C 886.458 -2.79227 2.23085 0
M  V30 8953 S 888.017 -3.69404 2.36825 0
M  V30 8954 H 884.835 -0.532139 0.471539 0
M  V30 8955 H 887.437 -0.921285 1.72431 0
M  V30 8956 H 886.141 -2.50553 3.25041 0
M  V30 8957 H 885.672 -3.47462 1.84482 0
M  V30 8958 H 887.687 -4.70683 1.57074 0
M  V30 8959 N 886.86 -1.21182 -1.00761 0
M  V30 8960 C 888.085 -1.05411 -1.78615 0
M  V30 8961 C 888.51 0.391837 -1.83973 0
M  V30 8962 O 887.868 1.28256 -1.28141 0
M  V30 8963 C 887.916 -1.65285 -3.20489 0
M  V30 8964 O 887.02 -0.896558 -4.02536 0
M  V30 8965 H 886.361 -0.37116 -0.550578 0
M  V30 8966 H 888.891 -1.60669 -1.26676 0
M  V30 8967 H 888.901 -1.69397 -3.71172 0
M  V30 8968 H 887.576 -2.70514 -3.15904 0
M  V30 8969 H 886.153 -0.930335 -3.61108 0
M  V30 8970 N 888.338 1.20213 -1.01915 0
M  V30 8971 C 889.285 2.2309 -0.591571 0
M  V30 8972 C 890.255 1.61465 0.389649 0
M  V30 8973 O 891.44 1.88606 0.288511 0
M  V30 8974 C 888.58 3.45045 0.0614028 0
M  V30 8975 C 887.693 4.21091 -0.964688 0
M  V30 8976 C 886.828 5.30448 -0.282499 0
M  V30 8977 C 885.867 5.98241 -1.29517 0
M  V30 8978 N 885.004 6.99182 -0.639472 0
M  V30 8979 H 889.844 2.59023 -1.47347 0
M  V30 8980 H 887.381 1.27274 -0.737547 0
M  V30 8981 H 889.339 4.14688 0.45714 0
M  V30 8982 H 887.969 3.09797 0.906937 0
M  V30 8983 H 887.021 3.50489 -1.47857 0
M  V30 8984 H 888.333 4.67662 -1.73475 0
M  V30 8985 H 887.487 6.06466 0.168603 0
M  V30 8986 H 886.226 4.84922 0.519843 0
M  V30 8987 H 885.231 5.20982 -1.75663 0
M  V30 8988 H 886.456 6.45853 -2.09884 0
M  V30 8989 H 884.402 6.55844 0.142955 0
M  V30 8990 H 884.319 7.43893 -1.34756 0
M  V30 8991 H 885.587 7.79212 -0.212047 0
M  V30 8992 N 889.816 0.795718 1.36037 0
M  V30 8993 C 891.063 0.371024 1.99072 0
M  V30 8994 C 891.391 -1.05896 1.63145 0
M  V30 8995 O 890.646 -1.7474 0.881163 0
M  V30 8996 C 890.945 0.489038 3.54038 0
M  V30 8997 C 890.611 1.88075 4.09803 0
M  V30 8998 C 889.273 2.26152 4.24745 0
M  V30 8999 C 891.625 2.79174 4.40126 0
M  V30 9000 C 888.953 3.54718 4.67324 0
M  V30 9001 C 891.305 4.07175 4.8414 0
M  V30 9002 C 889.969 4.45266 4.97287 0
M  V30 9003 H 889.239 0.135767 0.728456 0
M  V30 9004 H 891.886 1.0144 1.62426 0
M  V30 9005 H 890.191 -0.237823 3.91078 0
M  V30 9006 H 891.888 0.141374 4.00751 0
M  V30 9007 H 888.478 1.57488 3.98617 0
M  V30 9008 H 892.662 2.51009 4.28145 0
M  V30 9009 H 887.918 3.84093 4.75691 0
M  V30 9010 H 892.092 4.77875 5.06565 0
M  V30 9011 H 889.719 5.44943 5.30038 0
M  V30 9012 N 891.294 -1.47756 0.548274 0
M  V30 9013 C 892.224 -2.32702 -0.19284 0
M  V30 9014 C 893.205 -1.43237 -0.917457 0
M  V30 9015 O 894.39 -1.72103 -0.89967 0
M  V30 9016 C 891.52 -3.24831 -1.22891 0
M  V30 9017 C 890.474 -4.23466 -0.621312 0
M  V30 9018 C 889.8 -5.04856 -1.76137 0
M  V30 9019 C 891.1 -5.20616 0.419055 0
M  V30 9020 H 892.794 -2.94914 0.516323 0
M  V30 9021 H 890.34 -1.41818 0.24975 0
M  V30 9022 H 892.293 -3.83094 -1.75547 0
M  V30 9023 H 891.017 -2.60656 -1.9679 0
M  V30 9024 H 889.676 -3.66416 -0.116123 0
M  V30 9025 H 889.324 -4.37091 -2.48918 0
M  V30 9026 H 889.024 -5.71629 -1.36065 0
M  V30 9027 H 890.548 -5.65976 -2.29136 0
M  V30 9028 H 891.962 -5.73296 -0.0211034 0
M  V30 9029 H 890.359 -5.95543 0.738163 0
M  V30 9030 H 891.429 -4.66638 1.31822 0
M  V30 9031 N 892.772 -0.284283 -1.55015 0
M  V30 9032 C 893.735 0.586182 -2.21577 0
M  V30 9033 C 894.735 1.07427 -1.1965 0
M  V30 9034 O 895.925 0.972977 -1.44495 0
M  V30 9035 C 893.057 1.80973 -2.88897 0
M  V30 9036 H 894.25 0.00487253 -2.999 0
M  V30 9037 H 891.803 -0.0349696 -1.56261 0
M  V30 9038 H 892.538 2.43131 -2.14611 0
M  V30 9039 H 892.323 1.46757 -3.636 0
M  V30 9040 H 893.813 2.42853 -3.39724 0
M  V30 9041 N 894.251 1.57596 -0.0117121 0
M  V30 9042 C 895.184 2.04624 1.01016 0
M  V30 9043 C 896.162 0.938437 1.32786 0
M  V30 9044 O 897.346 1.20746 1.44751 0
M  V30 9045 C 894.473 2.45369 2.33477 0
M  V30 9046 C 893.519 3.66998 2.17289 0
M  V30 9047 S 894.352 5.14412 1.48795 0
M  V30 9048 C 895.508 5.58438 2.82662 0
M  V30 9049 H 895.741 2.9098 0.60977 0
M  V30 9050 H 893.274 1.53106 0.199494 0
M  V30 9051 H 895.232 2.69511 3.09635 0
M  V30 9052 H 893.893 1.59391 2.70653 0
M  V30 9053 H 893.086 3.93297 3.15172 0
M  V30 9054 H 892.688 3.42918 1.49275 0
M  V30 9055 H 894.98 5.61614 3.78941 0
M  V30 9056 H 895.923 6.58224 2.61049 0
M  V30 9057 H 896.331 4.86033 2.8711 0
M  V30 9058 N 895.729 -0.261212 1.5542 0
M  V30 9059 C 896.659 -1.32712 1.92119 0
M  V30 9060 C 897.64 -1.50934 0.784406 0
M  V30 9061 O 898.825 -1.63781 1.04352 0
M  V30 9062 C 895.955 -2.68453 2.20341 0
M  V30 9063 C 894.909 -2.64947 3.36136 0
M  V30 9064 C 894.235 -4.04349 3.49865 0
M  V30 9065 C 895.535 -2.23182 4.72215 0
M  V30 9066 H 897.229 -1.02245 2.81401 0
M  V30 9067 H 894.775 -0.490406 1.35392 0
M  V30 9068 H 896.728 -3.43144 2.44603 0
M  V30 9069 H 895.452 -3.00527 1.27871 0
M  V30 9070 H 894.111 -1.92714 3.11861 0
M  V30 9071 H 893.759 -4.33665 2.5484 0
M  V30 9072 H 893.459 -4.02895 4.27726 0
M  V30 9073 H 894.983 -4.80761 3.76432 0
M  V30 9074 H 896.397 -2.87599 4.95943 0
M  V30 9075 H 894.794 -2.32867 5.53076 0
M  V30 9076 H 895.864 -1.18327 4.70241 0
M  V30 9077 N 897.207 -1.48554 -0.526253 0
M  V30 9078 C 898.17 -1.62868 -1.61266 0
M  V30 9079 C 899.17 -0.501762 -1.52771 0
M  V30 9080 O 900.36 -0.76764 -1.56374 0
M  V30 9081 C 897.492 -1.60238 -3.00893 0
M  V30 9082 H 898.685 -2.59742 -1.49913 0
M  V30 9083 H 896.238 -1.37207 -0.748595 0
M  V30 9084 H 896.973 -0.648545 -3.17749 0
M  V30 9085 H 896.758 -2.42054 -3.08468 0
M  V30 9086 H 898.248 -1.73455 -3.79872 0
M  V30 9087 N 898.685 0.775411 -1.37205 0
M  V30 9088 C 899.617 1.89761 -1.28544 0
M  V30 9089 C 900.63 1.61542 -0.201996 0
M  V30 9090 O 901.819 1.72528 -0.457848 0
M  V30 9091 C 898.919 3.24904 -0.963885 0
M  V30 9092 C 898.092 3.80796 -2.15205 0
M  V30 9093 C 897.151 4.94407 -1.80135 0
M  V30 9094 O 896.177 5.10185 -2.52388 0
M  V30 9095 N 897.379 5.75722 -0.743298 0
M  V30 9096 H 900.144 1.97708 -2.25237 0
M  V30 9097 H 897.705 0.954348 -1.30782 0
M  V30 9098 H 899.697 3.9842 -0.710182 0
M  V30 9099 H 898.267 3.12483 -0.085632 0
M  V30 9100 H 897.487 2.99101 -2.56773 0
M  V30 9101 H 898.775 4.1487 -2.94552 0
M  V30 9102 H 898.173 5.65518 -0.143655 0
M  V30 9103 H 896.73 6.4948 -0.549446 0
M  V30 9104 N 900.163 1.21714 1.00117 0
M  V30 9105 C 901.409 1.04829 1.74306 0
M  V30 9106 C 901.764 -0.413387 1.87907 0
M  V30 9107 O 901.057 -1.30258 1.40512 0
M  V30 9108 C 901.251 1.68345 3.15269 0
M  V30 9109 C 901.08 3.20537 3.15414 0
M  V30 9110 C 899.85 3.896 3.21776 0
M  V30 9111 C 902.048 4.17576 3.00224 0
M  V30 9112 N 900.03 5.28949 3.11587 0
M  V30 9113 C 901.401 5.43701 2.97974 0
M  V30 9114 C 903.456 4.08575 2.84554 0
M  V30 9115 C 902.159 6.61861 2.8166 0
M  V30 9116 C 904.185 5.26375 2.69598 0
M  V30 9117 C 903.547 6.51414 2.68028 0
M  V30 9118 H 899.646 0.437964 0.647852 0
M  V30 9119 H 902.23 1.54128 1.18965 0
M  V30 9120 H 900.401 1.21607 3.68872 0
M  V30 9121 H 902.133 1.44629 3.77974 0
M  V30 9122 H 898.888 3.40548 3.29126 0
M  V30 9123 H 899.312 6.01945 3.09825 0
M  V30 9124 H 903.954 3.12696 2.84571 0
M  V30 9125 H 901.672 7.57896 2.8039 0
M  V30 9126 H 905.258 5.21235 2.58468 0
M  V30 9127 H 904.138 7.41033 2.56593 0
M  V30 9128 N 901.641 -1.19671 1.02551 0
M  V30 9129 C 902.881 -1.90971 0.728668 0
M  V30 9130 C 903.245 -1.7762 -0.729057 0
M  V30 9131 O 904.446 -2.43484 -1.13882 0
M  V30 9132 C 902.717 -3.3794 1.16323 0
M  V30 9133 S 904.276 -4.27493 0.989722 0
M  V30 9134 H 901.094 -0.659617 0.265381 0
M  V30 9135 H 903.696 -1.44698 1.31463 0
M  V30 9136 H 902.4 -3.45181 2.21986 0
M  V30 9137 H 901.931 -3.89243 0.570417 0
M  V30 9138 H 903.946 -4.96096 -0.101666 0
M  V30 9139 N 903.119 -0.802921 -1.35613 0
M  V30 9140 C 904.347 -0.39393 -2.03115 0
M  V30 9141 C 904.762 0.993961 -1.60517 0
M  V30 9142 O 904.119 1.63984 -0.800973 0
M  V30 9143 C 904.17 -0.463486 -3.58516 0
M  V30 9144 O 903.891 -1.79666 -3.99565 0
M  V30 9145 C 905.392 -0.0468377 -4.43275 0
M  V30 9146 H 902.612 -0.160519 -0.651517 0
M  V30 9147 H 905.156 -1.08552 -1.73311 0
M  V30 9148 H 903.311 0.179821 -3.86982 0
M  V30 9149 H 903.725 -1.75688 -4.942 0
M  V30 9150 H 905.199 -0.146626 -5.51805 0
M  V30 9151 H 905.676 1.00741 -4.2749 0
M  V30 9152 H 906.282 -0.663158 -4.20098 0
M  V30 9153 N 904.597 1.47463 -0.556102 0
M  V30 9154 C 905.529 2.28046 0.22968 0
M  V30 9155 C 906.542 1.3694 0.880409 0
M  V30 9156 O 907.731 1.61773 0.754447 0
M  V30 9157 C 904.831 3.11165 1.34273 0
M  V30 9158 C 904.004 4.30225 0.789004 0
M  V30 9159 C 903.063 4.94948 1.78641 0
M  V30 9160 O 902.089 5.53372 1.33297 0
M  V30 9161 N 903.291 4.89543 3.11974 0
M  V30 9162 H 906.056 2.96125 -0.461558 0
M  V30 9163 H 903.617 1.5708 -0.392105 0
M  V30 9164 H 905.609 3.51331 2.00869 0
M  V30 9165 H 904.179 2.45337 1.93722 0
M  V30 9166 H 903.399 3.94163 -0.0536971 0
M  V30 9167 H 904.687 5.07238 0.398378 0
M  V30 9168 H 904.085 4.43275 3.51459 0
M  V30 9169 H 902.642 5.33732 3.74131 0
M  V30 9170 N 906.075 0.2925 1.54862 0
M  V30 9171 C 907.038 -0.574423 2.21885 0
M  V30 9172 C 908.038 -1.06791 1.20218 0
M  V30 9173 O 909.228 -0.9653 1.45009 0
M  V30 9174 C 906.36 -1.79438 2.89853 0
M  V30 9175 H 907.553 0.0110319 2.99898 0
M  V30 9176 H 905.106 0.043256 1.5624 0
M  V30 9177 H 905.841 -2.4199 2.15897 0
M  V30 9178 H 905.626 -1.44827 3.64373 0
M  V30 9179 H 907.116 -2.41048 3.41007 0
M  V30 9180 N 907.553 -1.57587 0.0200696 0
M  V30 9181 C 908.503 -2.0616 -0.973751 0
M  V30 9182 C 909.487 -0.960282 -1.29102 0
M  V30 9183 O 910.679 -1.22391 -1.27865 0
M  V30 9184 C 907.808 -2.58487 -2.25919 0
M  V30 9185 C 906.894 -3.75533 -1.97068 0
M  V30 9186 N 907.285 -4.86482 -1.38451 0
M  V30 9187 C 905.583 -3.83847 -2.27107 0
M  V30 9188 C 906.284 -5.67773 -1.26527 0
M  V30 9189 N 905.26 -5.14398 -1.75772 0
M  V30 9190 H 909.062 -2.89346 -0.515365 0
M  V30 9191 H 906.576 -1.61341 -0.185163 0
M  V30 9192 H 908.573 -2.91572 -2.97979 0
M  V30 9193 H 907.233 -1.76728 -2.72392 0
M  V30 9194 H 908.244 -5.06922 -1.06069 0
M  V30 9195 H 904.921 -3.12978 -2.76316 0
M  V30 9196 H 906.311 -6.66966 -0.812785 0
M  V30 9197 N 909.032 0.252966 -1.55557 0
M  V30 9198 C 910.257 1.0038 -1.8149 0
M  V30 9199 C 910.682 1.78397 -0.596318 0
M  V30 9200 O 910.04 1.7551 0.454535 0
M  V30 9201 C 910.088 1.9222 -3.05096 0
M  V30 9202 O 909.192 3.01302 -2.81587 0
M  V30 9203 H 908.533 0.285949 -0.599274 0
M  V30 9204 H 911.063 0.275795 -2.02733 0
M  V30 9205 H 911.073 2.338 -3.34368 0
M  V30 9206 H 909.748 1.34852 -3.93431 0
M  V30 9207 H 908.325 2.63894 -2.63466 0
M  V30 9208 N 910.51 1.48831 0.518367 0
M  V30 9209 C 911.44 1.67119 1.63075 0
M  V30 9210 C 912.421 0.519948 1.61958 0
M  V30 9211 O 913.606 0.753824 1.78972 0
M  V30 9212 C 910.736 1.72158 3.01627 0
M  V30 9213 C 909.69 2.86898 3.17606 0
M  V30 9214 C 909.016 2.77035 4.57335 0
M  V30 9215 C 910.316 4.28057 2.99274 0
M  V30 9216 H 912.01 2.60248 1.48025 0
M  V30 9217 H 909.556 1.2524 0.710694 0
M  V30 9218 H 911.509 1.83539 3.7933 0
M  V30 9219 H 910.233 0.756157 3.17726 0
M  V30 9220 H 908.892 2.75091 2.42323 0
M  V30 9221 H 908.54 1.78438 4.70286 0
M  V30 9222 H 908.24 3.54036 4.6897 0
M  V30 9223 H 909.764 2.904 5.37122 0
M  V30 9224 H 911.178 4.40636 3.6676 0
M  V30 9225 H 909.575 5.06145 3.22393 0
M  V30 9226 H 910.645 4.4371 1.95574 0
M  V30 9227 N 911.988 -0.768124 1.37614 0
M  V30 9228 C 913.216 -1.55726 1.36224 0
M  V30 9229 C 913.631 -1.8873 -0.0515357 0
M  V30 9230 O 912.988 -1.51718 -1.0143 0
M  V30 9231 C 913.039 -2.86533 2.20412 0
M  V30 9232 O 912.76 -2.54942 3.56281 0
M  V30 9233 C 914.261 -3.80745 2.27041 0
M  V30 9234 H 911.481 -0.482325 0.46648 0
M  V30 9235 H 914.025 -0.95176 1.81002 0
M  V30 9236 H 912.18 -3.43496 1.79134 0
M  V30 9237 H 912.594 -3.38732 4.00451 0
M  V30 9238 H 914.068 -4.69523 2.90263 0
M  V30 9239 H 914.545 -4.20138 1.27987 0
M  V30 9240 H 915.151 -3.2971 2.68647 0
M  V30 9241 N 913.466 -1.22244 -0.994698 0
M  V30 9242 C 914.396 -1.01513 -2.10279 0
M  V30 9243 C 915.377 0.0633365 -1.69982 0
M  V30 9244 O 916.562 -0.0985268 -1.9395 0
M  V30 9245 C 913.692 -0.59016 -3.42249 0
M  V30 9246 C 912.646 -1.61436 -3.96387 0
M  V30 9247 C 911.972 -1.04528 -5.24383 0
M  V30 9248 C 913.272 -3.00388 -4.27276 0
M  V30 9249 H 914.966 -1.94194 -2.2788 0
M  V30 9250 H 912.512 -0.935094 -1.09508 0
M  V30 9251 H 914.465 -0.432254 -4.19177 0
M  V30 9252 H 913.189 0.372308 -3.24471 0
M  V30 9253 H 911.848 -1.76001 -3.21589 0
M  V30 9254 H 911.496 -0.0742225 -5.02945 0
M  V30 9255 H 911.196 -1.72949 -5.61571 0
M  V30 9256 H 912.72 -0.898922 -6.03947 0
M  V30 9257 H 914.134 -2.89207 -4.95007 0
M  V30 9258 H 912.531 -3.65916 -4.75631 0
M  V30 9259 H 913.601 -3.50456 -3.35125 0
M  V30 9260 N 914.944 1.19125 -1.03184 0
M  V30 9261 C 915.876 2.21914 -0.573294 0
M  V30 9262 C 916.889 1.5894 0.352397 0
M  V30 9263 O 918.078 1.77883 0.148318 0
M  V30 9264 C 915.178 3.38403 0.18355 0
M  V30 9265 C 914.351 4.3096 -0.747817 0
M  V30 9266 C 913.41 5.26188 -0.0358489 0
M  V30 9267 O 912.436 5.65321 -0.663388 0
M  V30 9268 N 913.638 5.67235 1.23387 0
M  V30 9269 H 916.403 2.61881 -1.45734 0
M  V30 9270 H 913.964 1.33821 -0.911231 0
M  V30 9271 H 915.956 3.99124 0.669468 0
M  V30 9272 H 914.526 2.97201 0.969043 0
M  V30 9273 H 913.746 3.67976 -1.41377 0
M  V30 9274 H 915.034 4.89708 -1.38071 0
M  V30 9275 H 914.432 5.37481 1.76439 0
M  V30 9276 H 912.989 6.30196 1.66423 0
M  V30 9277 N 916.422 0.810101 1.35185 0
M  V30 9278 C 917.37 0.211071 2.3164 0
M  V30 9279 C 918.364 -0.641109 1.568 0
M  V30 9280 O 919.57 -0.533881 1.719 0
M  V30 9281 H 915.945 0.0494978 0.750369 0
M  V30 9282 H 917.916 1.03964 2.79703 0
M  V30 9283 C 916.665 -0.622933 3.42074 0
M  V30 9284 H 915.988 0.0234648 3.99793 0
M  V30 9285 H 917.428 -1.0084 4.11834 0
M  V30 9286 C 915.887 -1.78994 2.85417 0
M  V30 9287 O 916.417 -2.88758 2.79252 0
M  V30 9288 N 914.623 -1.60259 2.42416 0
M  V30 9289 H 914.17 -0.70974 2.4763 0
M  V30 9290 H 914.128 -2.38498 2.04857 0
M  V30 9291 N 917.9 -1.47166 0.563914 0
M  V30 9292 C 918.83 -2.32894 -0.168148 0
M  V30 9293 C 919.811 -1.44202 -0.902214 0
M  V30 9294 O 920.996 -1.73048 -0.881365 0
M  V30 9295 C 918.126 -3.26116 -1.19439 0
M  V30 9296 C 917.08 -4.24101 -0.576363 0
M  V30 9297 C 916.406 -5.06696 -1.70772 0
M  V30 9298 C 917.706 -5.20142 0.47425 0
M  V30 9299 H 919.4 -2.9435 0.547573 0
M  V30 9300 H 916.946 -1.41545 0.264778 0
M  V30 9301 H 918.899 -3.84935 -1.71474 0
M  V30 9302 H 917.623 -2.62728 -1.94014 0
M  V30 9303 H 916.282 -3.66519 -0.0772534 0
M  V30 9304 H 915.93 -4.39707 -2.44268 0
M  V30 9305 H 915.63 -5.7304 -1.29994 0
M  V30 9306 H 917.154 -5.68375 -2.2312 0
M  V30 9307 H 918.568 -5.73286 0.0397035 0
M  V30 9308 H 916.965 -5.94726 0.801287 0
M  V30 9309 H 918.035 -4.65214 1.36764 0
M  V30 9310 N 919.378 -0.300708 -1.54705 0
M  V30 9311 C 920.325 0.57552 -2.23509 0
M  V30 9312 C 921.295 1.12979 -1.21758 0
M  V30 9313 O 922.48 1.17437 -1.50377 0
M  V30 9314 C 919.62 1.74167 -2.97926 0
M  V30 9315 C 918.733 1.21882 -4.1445 0
M  V30 9316 C 917.868 2.34881 -4.7645 0
M  V30 9317 C 916.907 1.79729 -5.85119 0
M  V30 9318 N 916.044 2.863 -6.41075 0
M  V30 9319 H 920.884 -0.0178257 -2.97995 0
M  V30 9320 H 918.421 -0.0205666 -1.47086 0
M  V30 9321 H 920.379 2.42753 -3.39303 0
M  V30 9322 H 919.009 2.30665 -2.25817 0
M  V30 9323 H 918.061 0.425227 -3.78016 0
M  V30 9324 H 919.373 0.775065 -4.92741 0
M  V30 9325 H 918.527 3.11415 -5.20678 0
M  V30 9326 H 917.266 2.82584 -3.97489 0
M  V30 9327 H 916.271 1.01684 -5.40315 0
M  V30 9328 H 917.496 1.32931 -6.65963 0
M  V30 9329 H 915.442 3.33337 -5.64998 0
M  V30 9330 H 915.359 2.46419 -7.14712 0
M  V30 9331 H 916.627 3.62732 -6.89961 0
M  V30 9332 N 920.856 1.57574 -0.0284266 0
M  V30 9333 C 922.267 1.79585 0.510502 0
M  V30 9334 C 922.618 0.938625 1.72291 0
M  V30 9335 O 921.743 0.14884 2.15888 0
M  V30 9336 C 922.338 3.25703 0.932912 0
M  V30 9337 C 920.897 3.48711 1.41696 0
M  V30 9338 C 920.044 2.74665 0.381356 0
M  V30 9339 H 922.995 1.56647 -0.254464 0
M  V30 9340 H 923.016 3.35376 1.79731 0
M  V30 9341 H 922.528 3.88067 0.0503036 0
M  V30 9342 H 920.629 2.91597 2.31952 0
M  V30 9343 H 920.742 4.57423 1.42481 0
M  V30 9344 H 919.106 2.40123 0.8493 0
M  V30 9345 H 919.889 3.39745 -0.492775 0
M  V30 9346 N 922.334 -0.244713 1.55689 0
M  V30 9347 C 923.75 -0.593331 1.48161 0
M  V30 9348 C 923.95 -1.88234 0.719047 0
M  V30 9349 O 923.006 -2.51266 0.249292 0
M  V30 9350 C 924.319 -0.694032 2.92581 0
M  V30 9351 C 925.867 -0.786213 3.02965 0
M  V30 9352 C 926.342 -0.918457 4.48696 0
M  V30 9353 N 927.833 -0.983272 4.52643 0
M  V30 9354 C 928.568 -1.1049 5.62654 0
M  V30 9355 N 928.064 -1.19193 6.8247 0
M  V30 9356 N 929.857 -1.13823 5.50455 0
M  V30 9357 H 922.008 0.601446 2.03707 0
M  V30 9358 H 924.271 0.207894 0.924924 0
M  V30 9359 H 923.977 0.183133 3.51223 0
M  V30 9360 H 923.851 -1.56525 3.4319 0
M  V30 9361 H 926.238 -1.65383 2.44402 0
M  V30 9362 H 926.319 0.110202 2.55563 0
M  V30 9363 H 925.963 -0.0553881 5.0787 0
M  V30 9364 H 925.893 -1.82994 4.93782 0
M  V30 9365 H 928.384 -0.927269 3.66347 0
M  V30 9366 H 928.697 -1.28387 7.62061 0
M  V30 9367 H 927.042 -1.16147 6.85226 0
M  V30 9368 H 930.233 -1.06673 4.55783 0
M  V30 9369 H 930.406 -1.22957 6.36228 0
M  V30 9370 N 923.813 -1.49104 -0.510467 0
M  V30 9371 C 924.745 -1.61183 -1.6295 0
M  V30 9372 C 925.758 -0.495003 -1.55092 0
M  V30 9373 O 926.947 -0.766671 -1.61197 0
M  V30 9374 C 924.047 -1.54373 -3.01699 0
M  V30 9375 C 923.22 -2.81428 -3.34838 0
M  V30 9376 C 922.279 -2.67802 -4.52956 0
M  V30 9377 O 921.305 -3.41723 -4.55208 0
M  V30 9378 N 922.507 -1.78715 -5.52305 0
M  V30 9379 H 925.272 -2.57693 -1.53018 0
M  V30 9380 H 922.833 -1.46073 -0.698152 0
M  V30 9381 H 924.825 -1.42924 -3.78622 0
M  V30 9382 H 923.395 -0.657597 -3.05605 0
M  V30 9383 H 922.615 -3.07299 -2.46903 0
M  V30 9384 H 923.903 -3.6568 -3.53773 0
M  V30 9385 H 923.301 -1.17897 -5.53278 0
M  V30 9386 H 921.858 -1.73194 -6.28369 0
M  V30 9387 N 925.291 0.760815 -1.38019 0
M  V30 9388 C 926.707 1.06289 -1.19058 0
M  V30 9389 C 926.907 2.01471 -0.0342603 0
M  V30 9390 O 925.963 2.44713 0.62224 0
M  V30 9391 C 927.276 1.6499 -2.51394 0
M  V30 9392 C 928.824 1.77196 -2.58013 0
M  V30 9393 C 929.299 2.3931 -3.90506 0
M  V30 9394 N 930.79 2.46749 -3.92007 0
M  V30 9395 C 931.525 2.95687 -4.91281 0
M  V30 9396 N 931.021 3.44715 -6.00952 0
M  V30 9397 N 932.814 2.94661 -4.78677 0
M  V30 9398 H 924.965 0.129045 -2.12008 0
M  V30 9399 H 927.228 0.119878 -0.94039 0
M  V30 9400 H 926.934 1.0252 -3.36426 0
M  V30 9401 H 926.808 2.64146 -2.6927 0
M  V30 9402 H 929.195 2.38796 -1.7338 0
M  V30 9403 H 929.276 0.767645 -2.4401 0
M  V30 9404 H 928.92 1.78346 -4.75558 0
M  V30 9405 H 928.85 3.40369 -4.01817 0
M  V30 9406 H 931.341 2.12064 -3.12789 0
M  V30 9407 H 931.654 3.80492 -6.72641 0
M  V30 9408 H 929.999 3.42791 -6.04582 0
M  V30 9409 H 933.19 2.55665 -3.92113 0
M  V30 9410 H 933.363 3.32489 -5.56197 0
M  V30 9411 N 926.769 1.22769 0.988202 0
M  V30 9412 C 928.017 1.05301 1.725 0
M  V30 9413 C 928.338 -0.412103 1.90596 0
M  V30 9414 O 927.608 -1.29606 1.46898 0
M  V30 9415 H 926.188 0.386658 0.639144 0
M  V30 9416 H 928.85 1.54359 1.18993 0
M  V30 9417 H 927.946 1.53465 2.71763 0
M  V30 9418 N 928.247 -1.18576 1.03814 0
M  V30 9419 C 929.194 -2.2212 0.626988 0
M  V30 9420 C 930.164 -1.62064 -0.363912 0
M  V30 9421 O 931.349 -1.89041 -0.258469 0
M  V30 9422 C 928.489 -3.45099 -0.00650133 0
M  V30 9423 C 927.602 -4.19503 1.03156 0
M  V30 9424 C 926.737 -5.29932 0.366852 0
M  V30 9425 C 925.776 -5.96104 1.39018 0
M  V30 9426 N 924.913 -6.98076 0.750625 0
M  V30 9427 H 929.753 -2.56646 1.51449 0
M  V30 9428 H 927.29 -1.26084 0.757702 0
M  V30 9429 H 929.248 -4.15363 -0.391108 0
M  V30 9430 H 927.878 -3.11201 -0.857536 0
M  V30 9431 H 926.93 -3.48092 1.53414 0
M  V30 9432 H 928.242 -4.64843 1.80893 0
M  V30 9433 H 927.396 -6.06657 -0.0720979 0
M  V30 9434 H 926.135 -4.85687 -0.442631 0
M  V30 9435 H 925.14 -5.18122 1.8393 0
M  V30 9436 H 926.365 -6.42432 2.20132 0
M  V30 9437 H 924.311 -6.55989 -0.0385981 0
M  V30 9438 H 924.228 -7.41655 1.46574 0
M  V30 9439 H 925.496 -7.78776 0.335986 0
M  V30 9440 N 929.725 -0.817259 -1.34754 0
M  V30 9441 C 930.672 -0.233108 -2.2962 0
M  V30 9442 C 931.642 0.638902 -1.53321 0
M  V30 9443 O 932.827 0.581739 -1.81715 0
M  V30 9444 C 929.967 0.603659 -3.39779 0
M  V30 9445 C 929.08 -0.289967 -4.31026 0
M  V30 9446 C 928.215 0.555825 -5.28284 0
M  V30 9447 C 927.254 -0.337539 -6.11169 0
M  V30 9448 N 926.391 0.468847 -7.00533 0
M  V30 9449 H 931.231 -1.04747 -2.78984 0
M  V30 9450 H 928.768 -0.528056 -1.37295 0
M  V30 9451 H 930.726 1.10407 -4.02326 0
M  V30 9452 H 929.356 1.38319 -2.91664 0
M  V30 9453 H 928.408 -0.908552 -3.69391 0
M  V30 9454 H 929.72 -0.977136 -4.89135 0
M  V30 9455 H 928.874 1.12094 -5.96255 0
M  V30 9456 H 927.613 1.27652 -4.70698 0
M  V30 9457 H 926.618 -0.914839 -5.42135 0
M  V30 9458 H 927.843 -1.05626 -6.70835 0
M  V30 9459 H 925.789 1.17332 -6.45422 0
M  V30 9460 H 925.706 -0.160052 -7.55831 0
M  V30 9461 H 926.974 1.01689 -7.72839 0
M  V30 9462 N 931.203 1.46865 -0.571711 0
M  V30 9463 C 932.113 2.33979 0.170571 0
M  V30 9464 C 933.129 1.49083 0.897239 0
M  V30 9465 O 934.305 1.81979 0.862888 0
M  V30 9466 C 931.37 3.26063 1.17831 0
M  V30 9467 C 930.431 4.26855 0.457499 0
M  V30 9468 C 929.664 5.14539 1.41722 0
M  V30 9469 O 929.887 5.04945 2.65305 0
M  V30 9470 O 928.821 5.94612 0.9338 0
M  V30 9471 H 932.647 2.98781 -0.544396 0
M  V30 9472 H 930.232 1.4566 -0.332198 0
M  V30 9473 H 932.114 3.82903 1.75965 0
M  V30 9474 H 930.789 2.63871 1.87493 0
M  V30 9475 H 929.696 3.73734 -0.165406 0
M  V30 9476 H 931.029 4.91802 -0.197953 0
M  V30 9477 N 932.681 0.308908 1.54543 0
M  V30 9478 C 933.906 -0.303196 2.05172 0
M  V30 9479 C 934.331 -1.46133 1.18434 0
M  V30 9480 O 933.689 -1.803 0.190162 0
M  V30 9481 C 933.737 -0.729526 3.53143 0
M  V30 9482 O 932.841 -1.83348 3.69401 0
M  V30 9483 H 932.182 -0.0575066 0.661505 0
M  V30 9484 H 934.712 0.453055 1.99521 0
M  V30 9485 H 934.722 -1.01619 3.95143 0
M  V30 9486 H 933.397 0.117622 4.15734 0
M  V30 9487 H 931.974 -1.54676 3.39308 0
M  V30 9488 N 934.159 -1.57557 0.0367827 0
M  V30 9489 C 935.106 -2.10679 -0.942499 0
M  V30 9490 C 936.076 -1.01068 -1.31812 0
M  V30 9491 O 937.261 -1.28533 -1.41011 0
M  V30 9492 C 934.401 -2.64467 -2.21701 0
M  V30 9493 C 933.514 -3.88114 -1.89715 0
M  V30 9494 C 932.649 -4.30268 -3.11518 0
M  V30 9495 C 931.688 -5.46652 -2.75387 0
M  V30 9496 N 930.825 -5.83927 -3.89838 0
M  V30 9497 H 935.665 -2.94066 -0.482588 0
M  V30 9498 H 933.202 -1.45344 -0.226597 0
M  V30 9499 H 935.16 -2.93745 -2.96259 0
M  V30 9500 H 933.79 -1.83898 -2.65295 0
M  V30 9501 H 932.842 -3.65516 -1.05366 0
M  V30 9502 H 934.154 -4.72743 -1.5911 0
M  V30 9503 H 933.308 -4.61023 -3.94389 0
M  V30 9504 H 932.047 -3.44421 -3.4529 0
M  V30 9505 H 931.052 -5.15583 -1.90929 0
M  V30 9506 H 932.277 -6.34204 -2.42822 0
M  V30 9507 H 930.223 -5.01035 -4.23438 0
M  V30 9508 H 930.14 -6.63214 -3.62883 0
M  V30 9509 H 931.408 -6.19291 -4.73391 0
M  V30 9510 N 935.637 0.236453 -1.55816 0
M  V30 9511 C 936.547 1.31418 -1.94336 0
M  V30 9512 C 937.563 1.52095 -0.845164 0
M  V30 9513 O 938.739 1.65515 -1.14746 0
M  V30 9514 C 935.804 2.6468 -2.23932 0
M  V30 9515 C 934.865 2.52435 -3.47239 0
M  V30 9516 C 934.098 3.79342 -3.75414 0
M  V30 9517 O 934.321 4.81694 -3.05495 0
M  V30 9518 O 933.255 3.77347 -4.68927 0
M  V30 9519 H 937.081 1.01739 -2.86152 0
M  V30 9520 H 934.666 0.438084 -1.42833 0
M  V30 9521 H 936.548 3.4341 -2.44228 0
M  V30 9522 H 935.223 2.94071 -1.35292 0
M  V30 9523 H 934.13 1.71955 -3.32238 0
M  V30 9524 H 935.463 2.27987 -4.36214 0
M  V30 9525 N 937.115 1.49373 0.502552 0
M  V30 9526 C 938.025 1.68659 1.63068 0
M  V30 9527 C 939.041 0.569182 1.64427 0
M  V30 9528 O 940.217 0.843695 1.82876 0
M  V30 9529 C 937.282 1.74745 2.99441 0
M  V30 9530 C 936.343 2.98311 3.08721 0
M  V30 9531 C 935.576 3.04097 4.38589 0
M  V30 9532 O 935.799 2.17519 5.27297 0
M  V30 9533 O 934.733 3.96544 4.52809 0
M  V30 9534 H 938.559 2.64226 1.49727 0
M  V30 9535 H 936.144 1.33096 0.67867 0
M  V30 9536 H 938.026 1.8111 3.80496 0
M  V30 9537 H 936.701 0.823565 3.13048 0
M  V30 9538 H 935.608 2.97465 2.2686 0
M  V30 9539 H 936.941 3.90174 3.00041 0
M  V30 9540 N 938.594 -0.753485 1.38421 0
M  V30 9541 C 939.824 -1.54049 1.37669 0
M  V30 9542 C 940.232 -1.89167 -0.0353656 0
M  V30 9543 O 939.575 -1.53285 -1.01239 0
M  V30 9544 C 939.637 -2.86777 2.16793 0
M  V30 9545 C 939.301 -2.74196 3.65603 0
M  V30 9546 C 940.298 -2.43985 4.59094 0
M  V30 9547 C 937.983 -2.91645 4.0896 0
M  V30 9548 C 939.977 -2.31379 5.93921 0
M  V30 9549 C 937.664 -2.78658 5.43868 0
M  V30 9550 C 938.662 -2.48568 6.36163 0
M  V30 9551 O 938.35 -2.3564 7.68589 0
M  V30 9552 H 938.082 -0.483276 0.472673 0
M  V30 9553 H 940.636 -0.940267 1.82615 0
M  V30 9554 H 938.866 -3.48988 1.66565 0
M  V30 9555 H 940.555 -3.48289 2.08446 0
M  V30 9556 H 941.321 -2.30172 4.26902 0
M  V30 9557 H 937.2 -3.14063 3.37469 0
M  V30 9558 H 940.744 -2.07813 6.65927 0
M  V30 9559 H 936.641 -2.92044 5.75656 0
M  V30 9560 H 937.409 -2.50851 7.79112 0
M  V30 9561 N 940.072 -1.23292 -0.981677 0
M  V30 9562 C 941.035 -1.01417 -2.05542 0
M  V30 9563 C 942.035 0.0235354 -1.60783 0
M  V30 9564 O 943.225 -0.216082 -1.72855 0
M  V30 9565 C 940.357 -0.534239 -3.36688 0
M  V30 9566 H 941.55 -1.96702 -2.26381 0
M  V30 9567 H 939.103 -1.05318 -1.1549 0
M  V30 9568 H 939.838 0.422452 -3.21537 0
M  V30 9569 H 939.623 -1.28304 -3.70514 0
M  V30 9570 H 941.113 -0.40179 -4.15663 0
M  V30 9571 N 941.55 1.18024 -1.04442 0
M  V30 9572 C 942.966 1.40107 -0.76435 0
M  V30 9573 C 943.166 1.90914 0.644516 0
M  V30 9574 O 942.222 2.0959 1.40813 0
M  V30 9575 C 943.535 2.39851 -1.81361 0
M  V30 9576 C 945.083 2.53571 -1.83496 0
M  V30 9577 C 945.558 3.56583 -2.87424 0
M  V30 9578 N 947.049 3.64094 -2.86339 0
M  V30 9579 C 947.784 4.43537 -3.63405 0
M  V30 9580 N 947.28 5.26557 -4.50233 0
M  V30 9581 N 949.073 4.38336 -3.51877 0
M  V30 9582 H 941.224 0.833726 -1.95353 0
M  V30 9583 H 943.487 0.42881 -0.845474 0
M  V30 9584 H 943.193 2.09576 -2.82438 0
M  V30 9585 H 943.067 3.39251 -1.6489 0
M  V30 9586 H 945.454 2.83161 -0.830883 0
M  V30 9587 H 945.535 1.54272 -2.04044 0
M  V30 9588 H 945.179 3.27733 -3.88012 0
M  V30 9589 H 945.109 4.55569 -2.6413 0
M  V30 9590 H 947.6 3.04814 -2.23376 0
M  V30 9591 H 947.913 5.84336 -5.05738 0
M  V30 9592 H 946.258 5.25964 -4.54298 0
M  V30 9593 H 949.449 3.72528 -2.83444 0
M  V30 9594 H 949.622 5.00007 -4.12186 0
M  V30 9595 N 943.028 0.824394 1.34319 0
M  V30 9596 C 944.253 0.425194 2.02995 0
M  V30 9597 C 944.678 -0.961476 1.6167 0
M  V30 9598 O 944.036 -1.62593 0.80207 0
M  V30 9599 C 944.084 0.537004 3.56579 0
M  V30 9600 O 943.188 -0.442576 4.10018 0
M  V30 9601 H 942.529 0.174853 0.640564 0
M  V30 9602 H 945.059 1.11522 1.71534 0
M  V30 9603 H 945.069 0.413311 4.05901 0
M  V30 9604 H 943.744 1.54836 3.86004 0
M  V30 9605 H 942.321 -0.277644 3.71865 0
M  V30 9606 N 944.506 -1.46559 0.579492 0
M  V30 9607 C 945.734 -2.06784 0.0693648 0
M  V30 9608 C 946.149 -1.42875 -1.23419 0
M  V30 9609 O 945.506 -0.532919 -1.74546 0
M  V30 9610 C 945.557 -3.61343 -0.106511 0
M  V30 9611 O 945.278 -4.22861 1.14545 0
M  V30 9612 C 946.779 -4.38489 -0.651359 0
M  V30 9613 H 943.999 -0.66866 0.0559848 0
M  V30 9614 H 946.543 -1.88235 0.799245 0
M  V30 9615 H 944.698 -3.7933 -0.786601 0
M  V30 9616 H 945.112 -5.15691 0.95723 0
M  V30 9617 H 946.586 -5.47237 -0.723615 0
M  V30 9618 H 947.063 -4.06309 -1.66763 0
M  V30 9619 H 947.669 -4.253 -0.0062433 0
M  V30 9620 N 945.984 -0.3171 -1.54377 0
M  V30 9621 C 947.4 0.035766 -1.5956 0
M  V30 9622 C 947.6 1.51038 -1.33378 0
M  V30 9623 O 946.656 2.26546 -1.11505 0
M  V30 9624 C 947.969 -0.376652 -2.98332 0
M  V30 9625 C 949.517 -0.326765 -3.1129 0
M  V30 9626 C 949.992 -0.714247 -4.52396 0
M  V30 9627 N 951.483 -0.667402 -4.58367 0
M  V30 9628 C 952.218 -0.939494 -5.65651 0
M  V30 9629 N 951.714 -1.27839 -6.80903 0
M  V30 9630 N 953.507 -0.865484 -5.55397 0
M  V30 9631 H 945.658 -1.27794 -1.69654 0
M  V30 9632 H 947.921 -0.5192 -0.79318 0
M  V30 9633 H 947.627 -1.40381 -3.22469 0
M  V30 9634 H 947.501 0.261611 -3.76292 0
M  V30 9635 H 949.888 0.69117 -2.86892 0
M  V30 9636 H 949.969 -0.999873 -2.35449 0
M  V30 9637 H 949.613 -1.73007 -4.77526 0
M  V30 9638 H 949.543 -0.0188962 -5.26597 0
M  V30 9639 H 952.034 -0.417062 -3.75592 0
M  V30 9640 H 952.347 -1.47155 -7.5866 0
M  V30 9641 H 950.692 -1.31658 -6.82416 0
M  V30 9642 H 953.883 -0.600265 -4.64235 0
M  V30 9643 H 954.056 -1.0809 -6.38921 0
M  V30 9644 N 947.462 1.57535 -0.0451378 0
M  V30 9645 C 948.71 1.92071 0.628743 0
M  V30 9646 C 949.031 0.923635 1.71738 0
M  V30 9647 O 948.301 -0.0324376 1.95873 0
M  V30 9648 H 946.881 0.708995 0.235233 0
M  V30 9649 H 949.543 1.9466 -0.0967177 0
M  V30 9650 H 948.639 2.9314 1.07123 0
M  V30 9651 N 948.94 -0.228186 1.55939 0
M  V30 9652 C 950.18 -0.960695 1.80416 0
M  V30 9653 C 950.544 -1.81795 0.617615 0
M  V30 9654 O 951.745 -2.58369 0.741545 0
M  V30 9655 C 950.016 -1.78298 3.09749 0
M  V30 9656 S 951.575 -2.57203 3.55517 0
M  V30 9657 H 948.393 -0.322825 0.633486 0
M  V30 9658 H 950.995 -0.226852 1.94179 0
M  V30 9659 H 949.699 -1.14323 3.94155 0
M  V30 9660 H 949.23 -2.55924 2.98775 0
M  V30 9661 H 951.245 -3.80632 3.1833 0
M  V30 9662 N 950.418 -1.49637 -0.494624 0
M  V30 9663 C 951.348 -1.69692 -1.60396 0
M  V30 9664 C 952.329 -0.545648 -1.61111 0
M  V30 9665 O 953.514 -0.782202 -1.77751 0
M  V30 9666 C 950.644 -1.76934 -2.9885 0
M  V30 9667 C 949.598 -2.91915 -3.13001 0
M  V30 9668 C 948.924 -2.84276 -4.5287 0
M  V30 9669 C 950.224 -4.32764 -2.92426 0
M  V30 9670 H 951.918 -2.6257 -1.43866 0
M  V30 9671 H 949.464 -1.26355 -0.690679 0
M  V30 9672 H 951.417 -1.8955 -3.76362 0
M  V30 9673 H 950.141 -0.806609 -3.16483 0
M  V30 9674 H 948.8 -2.78911 -2.37916 0
M  V30 9675 H 948.448 -1.85897 -4.67388 0
M  V30 9676 H 948.148 -3.61452 -4.63278 0
M  V30 9677 H 949.672 -2.98909 -5.32434 0
M  V30 9678 H 951.086 -4.46415 -3.59703 0
M  V30 9679 H 949.483 -5.1121 -3.143 0
M  V30 9680 H 950.553 -4.46765 -1.88491 0
M  V30 9681 N 951.896 0.746133 -1.38819 0
M  V30 9682 C 952.806 1.89063 -1.38897 0
M  V30 9683 C 953.822 1.71648 -0.28513 0
M  V30 9684 O 954.998 1.94443 -0.524783 0
M  V30 9685 C 952.063 3.24523 -1.22007 0
M  V30 9686 C 951.124 3.54411 -2.42263 0
M  V30 9687 C 950.357 4.83408 -2.26169 0
M  V30 9688 O 950.58 5.56325 -1.25931 0
M  V30 9689 O 949.514 5.12943 -3.14918 0
M  V30 9690 H 953.34 1.91951 -2.35347 0
M  V30 9691 H 950.925 0.892433 -1.19816 0
M  V30 9692 H 952.807 4.05496 -1.14677 0
M  V30 9693 H 951.482 3.2243 -0.286455 0
M  V30 9694 H 950.389 2.73569 -2.55168 0
M  V30 9695 H 951.722 3.61273 -3.3428 0
M  V30 9696 N 953.375 1.23811 0.975125 0
M  V30 9697 C 954.338 1.02505 2.05001 0
M  V30 9698 C 955.338 -0.0150084 1.60793 0
M  V30 9699 O 956.528 0.225246 1.72738 0
M  V30 9700 C 953.66 0.552087 3.364 0
M  V30 9701 H 954.853 1.979 2.25335 0
M  V30 9702 H 952.406 1.05929 1.1493 0
M  V30 9703 H 953.141 -0.405394 3.21756 0
M  V30 9704 H 952.926 1.30267 3.69828 0
M  V30 9705 H 954.416 0.423828 4.15444 0
M  V30 9706 N 954.853 -1.17469 1.05066 0
M  V30 9707 C 956.101 -1.87327 0.758485 0
M  V30 9708 C 956.422 -1.81358 -0.716549 0
M  V30 9709 O 955.692 -1.23868 -1.51768 0
M  V30 9710 H 954.272 -0.693512 0.277579 0
M  V30 9711 H 956.934 -1.4251 1.32954 0
M  V30 9712 H 956.03 -2.93101 1.0723 0
M  V30 9713 N 956.331 -0.831506 -1.3388 0
M  V30 9714 C 957.261 -0.274378 -2.31882 0
M  V30 9715 C 958.242 0.613872 -1.58637 0
M  V30 9716 O 959.427 0.538961 -1.86571 0
M  V30 9717 C 956.557 0.557498 -3.42796 0
M  V30 9718 C 955.511 -0.234337 -4.27358 0
M  V30 9719 C 954.837 0.720825 -5.29819 0
M  V30 9720 C 956.137 -1.44732 -5.01847 0
M  V30 9721 H 957.831 -1.09322 -2.78728 0
M  V30 9722 H 955.377 -0.527136 -1.34005 0
M  V30 9723 H 957.33 0.957501 -4.10378 0
M  V30 9724 H 956.054 1.40947 -2.94621 0
M  V30 9725 H 954.713 -0.61581 -3.61391 0
M  V30 9726 H 954.361 1.569 -4.77903 0
M  V30 9727 H 954.061 0.195171 -5.87276 0
M  V30 9728 H 955.585 1.1185 -6.00268 0
M  V30 9729 H 956.999 -1.12087 -5.62236 0
M  V30 9730 H 955.396 -1.90923 -5.68919 0
M  V30 9731 H 956.466 -2.22099 -4.31045 0
M  V30 9732 N 957.809 1.4625 -0.587256 0
M  V30 9733 C 958.719 2.34147 0.145744 0
M  V30 9734 C 959.735 1.50026 0.881376 0
M  V30 9735 O 960.911 1.82884 0.843539 0
M  V30 9736 C 957.976 3.27294 1.14366 0
M  V30 9737 C 957.037 4.27317 0.412199 0
M  V30 9738 C 956.27 5.16013 1.36257 0
M  V30 9739 O 956.493 5.0773 2.59934 0
M  V30 9740 O 955.427 5.95569 0.870681 0
M  V30 9741 H 959.253 2.98187 -0.576055 0
M  V30 9742 H 956.838 1.45299 -0.347628 0
M  V30 9743 H 958.72 3.84747 1.71894 0
M  V30 9744 H 957.395 2.65845 1.84684 0
M  V30 9745 H 956.302 3.73538 -0.205036 0
M  V30 9746 H 957.635 4.91564 -0.250104 0
M  V30 9747 N 959.287 0.325282 1.54207 0
M  V30 9748 C 960.512 -0.281418 2.05482 0
M  V30 9749 C 960.937 -1.44869 1.19977 0
M  V30 9750 O 960.295 -1.80088 0.209275 0
M  V30 9751 C 960.343 -0.692029 3.53897 0
M  V30 9752 O 959.447 -1.7942 3.71325 0
M  V30 9753 H 958.788 -0.0504872 0.662078 0
M  V30 9754 H 961.318 0.474191 1.99029 0
M  V30 9755 H 961.328 -0.974219 3.96198 0
M  V30 9756 H 960.003 0.161709 4.15586 0
M  V30 9757 H 958.58 -1.51069 3.40929 0
M  V30 9758 N 960.765 -1.57509 0.0534917 0
M  V30 9759 C 961.695 -2.14698 -0.917999 0
M  V30 9760 C 962.676 -1.06924 -1.32292 0
M  V30 9761 O 963.861 -1.34875 -1.39723 0
M  V30 9762 C 960.991 -2.69383 -2.19203 0
M  V30 9763 C 959.945 -3.82161 -1.9271 0
M  V30 9764 C 959.271 -4.23373 -3.26587 0
M  V30 9765 C 960.571 -5.07199 -1.24686 0
M  V30 9766 H 962.265 -2.96125 -0.44165 0
M  V30 9767 H 959.811 -1.42446 -0.210993 0
M  V30 9768 H 961.764 -3.08031 -2.87567 0
M  V30 9769 H 960.488 -1.85151 -2.69048 0
M  V30 9770 H 959.147 -3.43989 -1.26757 0
M  V30 9771 H 958.795 -3.36089 -3.74237 0
M  V30 9772 H 958.495 -4.99385 -3.09658 0
M  V30 9773 H 960.019 -4.64623 -3.96178 0
M  V30 9774 H 961.433 -5.43279 -1.83088 0
M  V30 9775 H 959.83 -5.88369 -1.18076 0
M  V30 9776 H 960.9 -4.84386 -0.223227 0
M  V30 9777 N 962.243 0.219913 -1.56058 0
M  V30 9778 C 963.173 1.27572 -1.9557 0
M  V30 9779 C 964.154 1.48801 -0.824148 0
M  V30 9780 O 965.339 1.60957 -1.08658 0
M  V30 9781 C 962.469 2.62517 -2.27381 0
M  V30 9782 C 961.423 2.55941 -3.43042 0
M  V30 9783 C 960.749 3.94931 -3.60463 0
M  V30 9784 C 962.049 2.10584 -4.77966 0
M  V30 9785 H 963.743 0.947482 -2.84013 0
M  V30 9786 H 961.289 0.454337 -1.36645 0
M  V30 9787 H 963.242 3.36538 -2.53615 0
M  V30 9788 H 961.966 2.97031 -1.35794 0
M  V30 9789 H 960.625 1.84377 -3.1686 0
M  V30 9790 H 960.273 4.26756 -2.66249 0
M  V30 9791 H 959.973 3.91413 -4.38258 0
M  V30 9792 H 961.497 4.70611 -3.89046 0
M  V30 9793 H 962.911 2.74349 -5.03394 0
M  V30 9794 H 961.308 2.18122 -5.59055 0
M  V30 9795 H 962.378 1.05818 -4.73213 0
M  V30 9796 N 963.721 1.49897 0.486681 0
M  V30 9797 C 964.668 1.67619 1.58658 0
M  V30 9798 C 965.638 0.517537 1.57831 0
M  V30 9799 O 966.823 0.746272 1.756 0
M  V30 9800 C 963.963 1.762 2.96728 0
M  V30 9801 C 963.076 3.03465 3.07462 0
M  V30 9802 C 962.211 3.02937 4.36351 0
M  V30 9803 C 961.25 4.24721 4.4077 0
M  V30 9804 N 960.387 4.22021 5.61108 0
M  V30 9805 H 965.227 2.61528 1.42853 0
M  V30 9806 H 962.764 1.29657 0.694807 0
M  V30 9807 H 964.722 1.79156 3.76774 0
M  V30 9808 H 963.352 0.857452 3.11203 0
M  V30 9809 H 962.404 3.10054 2.20387 0
M  V30 9810 H 963.716 3.93454 3.06586 0
M  V30 9811 H 962.87 3.04536 5.24731 0
M  V30 9812 H 961.609 2.10751 4.39813 0
M  V30 9813 H 960.614 4.23352 3.5079 0
M  V30 9814 H 961.839 5.18116 4.39013 0
M  V30 9815 H 959.785 3.3268 5.65385 0
M  V30 9816 H 959.702 5.05761 5.61909 0
M  V30 9817 H 960.97 4.27743 6.51656 0
M  V30 9818 N 965.199 -0.738761 1.39212 0
M  V30 9819 C 966.162 -1.83441 1.37412 0
M  V30 9820 C 967.162 -1.58484 0.271908 0
M  V30 9821 O 968.352 -1.65954 0.529609 0
M  V30 9822 C 965.484 -3.21167 1.143 0
M  V30 9823 H 966.677 -1.86441 2.34904 0
M  V30 9824 H 964.23 -0.942023 1.24722 0
M  V30 9825 H 964.965 -3.23829 0.174756 0
M  V30 9826 H 964.75 -3.40678 1.94116 0
M  V30 9827 H 966.24 -4.01231 1.15773 0
M  V30 9828 N 966.677 -1.24326 -0.968545 0
M  V30 9829 C 967.64 -1.03591 -2.04454 0
M  V30 9830 C 968.64 0.0064809 -1.60799 0
M  V30 9831 O 969.83 -0.234404 -1.72616 0
M  V30 9832 C 966.962 -0.56992 -3.36102 0
M  V30 9833 H 968.155 -1.99092 -2.24282 0
M  V30 9834 H 965.708 -1.06537 -1.14366 0
M  V30 9835 H 966.443 0.388325 -3.21967 0
M  V30 9836 H 966.228 -1.32227 -3.69132 0
M  V30 9837 H 967.718 -0.445854 -4.15213 0
M  V30 9838 N 968.156 1.1691 -1.05688 0
M  V30 9839 C 969.404 1.86922 -0.768409 0
M  V30 9840 C 969.725 1.81735 0.706921 0
M  V30 9841 O 968.995 1.24671 1.51109 0
M  V30 9842 H 967.575 0.69203 -0.281253 0
M  V30 9843 H 970.237 1.41803 -1.33708 0
M  V30 9844 H 969.333 2.92528 -1.08783 0
M  V30 9845 N 969.634 0.838594 1.33437 0
M  V30 9846 C 970.882 0.433312 1.974 0
M  V30 9847 C 971.203 -1.01078 1.66758 0
M  V30 9848 O 970.473 -1.70406 0.966373 0
M  V30 9849 H 969.053 0.15724 0.730263 0
M  V30 9850 H 971.715 1.07149 1.62804 0
M  V30 9851 H 970.811 0.565144 3.06941 0
M  V30 9852 N 971.112 -1.45937 0.595003 0
M  V30 9853 C 972.06 -2.32155 -0.143798 0
M  V30 9854 C 973.054 -1.45221 -0.872198 0
M  V30 9855 O 974.26 -1.61777 -0.789191 0
M  V30 9856 H 970.635 -0.749165 -0.0652377 0
M  V30 9857 H 972.606 -2.92264 0.602005 0
M  V30 9858 C 971.355 -3.28615 -1.13611 0
M  V30 9859 H 970.678 -3.95496 -0.585044 0
M  V30 9860 H 972.118 -3.91699 -1.62321 0
M  V30 9861 C 970.577 -2.54863 -2.20333 0
M  V30 9862 O 971.107 -2.32071 -3.27881 0
M  V30 9863 N 969.313 -2.15213 -1.95274 0
M  V30 9864 H 968.86 -2.33949 -1.07822 0
M  V30 9865 H 968.818 -1.66188 -2.66888 0
M  V30 9866 N 972.59 -0.333456 -1.54032 0
M  V30 9867 C 973.52 0.52051 -2.27625 0
M  V30 9868 C 974.501 1.1111 -1.28797 0
M  V30 9869 O 975.686 1.13438 -1.57625 0
M  V30 9870 C 972.816 1.67663 -3.04149 0
M  V30 9871 C 971.77 1.21487 -4.10396 0
M  V30 9872 C 971.096 2.45872 -4.74817 0
M  V30 9873 C 972.396 0.322603 -5.21303 0
M  V30 9874 H 974.09 -0.0933823 -2.99254 0
M  V30 9875 H 971.636 -0.0463526 -1.43925 0
M  V30 9876 H 973.589 2.28041 -3.54366 0
M  V30 9877 H 972.313 2.31727 -2.30153 0
M  V30 9878 H 970.972 0.633966 -3.61077 0
M  V30 9879 H 970.62 3.0832 -3.97426 0
M  V30 9880 H 970.32 2.15662 -5.46593 0
M  V30 9881 H 971.844 3.06994 -5.27814 0
M  V30 9882 H 973.258 0.832942 -5.67217 0
M  V30 9883 H 971.655 0.112843 -5.99994 0
M  V30 9884 H 972.725 -0.643954 -4.80605 0
M  V30 9885 N 974.068 1.57479 -0.061844 0
M  V30 9886 C 974.998 2.15181 0.9066 0
M  V30 9887 C 975.979 1.07624 1.31724 0
M  V30 9888 O 977.164 1.35614 1.39006 0
M  V30 9889 C 974.294 2.70542 2.17771 0
M  V30 9890 C 973.248 3.83178 1.9068 0
M  V30 9891 C 972.574 4.25099 3.24337 0
M  V30 9892 C 973.874 5.07853 1.21994 0
M  V30 9893 H 975.568 2.96355 0.42594 0
M  V30 9894 H 973.114 1.42556 0.203435 0
M  V30 9895 H 975.067 3.09552 2.85929 0
M  V30 9896 H 973.791 1.86575 2.68062 0
M  V30 9897 H 972.45 3.44656 1.24931 0
M  V30 9898 H 972.098 3.38069 3.72449 0
M  V30 9899 H 971.798 5.01021 3.07005 0
M  V30 9900 H 973.322 4.66718 3.93709 0
M  V30 9901 H 974.736 5.44242 1.80204 0
M  V30 9902 H 973.133 5.88987 1.14954 0
M  V30 9903 H 974.203 4.84497 0.197536 0
M  V30 9904 N 975.546 -0.211634 1.56173 0
M  V30 9905 C 976.795 -0.932647 1.78842 0
M  V30 9906 C 977.108 -1.85103 0.63217 0
M  V30 9907 O 978.314 -2.61143 0.742746 0
M  V30 9908 C 976.77 -1.70866 3.16753 0
M  V30 9909 C 976.378 -0.835934 4.40132 0
M  V30 9910 C 978.122 -2.4203 3.48743 0
M  V30 9911 C 976.029 -1.60987 5.69067 0
M  V30 9912 H 974.959 -0.351983 0.666801 0
M  V30 9913 H 977.61 -0.186284 1.82552 0
M  V30 9914 H 975.992 -2.4983 3.07247 0
M  V30 9915 H 977.166 -0.0861298 4.60719 0
M  V30 9916 H 975.481 -0.235941 4.15731 0
M  V30 9917 H 978.078 -3.00453 4.42303 0
M  V30 9918 H 978.421 -3.15406 2.71707 0
M  V30 9919 H 978.954 -1.70048 3.59623 0
M  V30 9920 H 975.693 -0.9192 6.49023 0
M  V30 9921 H 975.213 -2.33403 5.52524 0
M  V30 9922 H 976.892 -2.16798 6.09596 0
M  V30 9923 N 977.024 -1.50153 -0.478725 0
M  V30 9924 C 977.954 -1.71384 -1.58587 0
M  V30 9925 C 978.935 -0.562705 -1.60523 0
M  V30 9926 O 980.12 -0.80101 -1.76911 0
M  V30 9927 C 977.25 -1.80094 -2.96957 0
M  V30 9928 C 976.204 -2.95218 -3.09888 0
M  V30 9929 C 975.53 -2.89063 -4.49829 0
M  V30 9930 C 976.83 -4.35841 -2.8782 0
M  V30 9931 H 978.524 -2.64081 -1.41073 0
M  V30 9932 H 976.07 -1.27081 -0.677239 0
M  V30 9933 H 978.023 -1.93531 -3.74331 0
M  V30 9934 H 976.747 -0.840131 -3.1561 0
M  V30 9935 H 975.406 -2.81419 -2.34944 0
M  V30 9936 H 975.054 -1.90844 -4.6539 0
M  V30 9937 H 974.754 -3.66345 -4.59418 0
M  V30 9938 H 976.278 -3.04539 -5.29234 0
M  V30 9939 H 977.692 -4.50205 -3.54948 0
M  V30 9940 H 976.089 -5.14515 -3.0886 0
M  V30 9941 H 977.159 -4.48739 -1.83742 0
M  V30 9942 N 978.502 0.731368 -1.39602 0
M  V30 9943 C 979.918 1.03739 -1.21286 0
M  V30 9944 C 980.118 2.01353 -0.0769875 0
M  V30 9945 O 979.174 2.45978 0.570193 0
M  V30 9946 C 980.487 1.59621 -2.54837 0
M  V30 9947 C 982.035 1.71683 -2.61713 0
M  V30 9948 C 982.51 2.30973 -3.95494 0
M  V30 9949 N 984.001 2.38378 -3.97153 0
M  V30 9950 C 984.736 2.852 -4.97442 0
M  V30 9951 N 984.232 3.31891 -6.08129 0
M  V30 9952 N 986.025 2.84441 -4.84819 0
M  V30 9953 H 978.176 0.0840456 -2.12234 0
M  V30 9954 H 980.439 0.0999038 -0.942721 0
M  V30 9955 H 980.145 0.953608 -3.38525 0
M  V30 9956 H 980.019 2.58375 -2.74813 0
M  V30 9957 H 982.406 2.35064 -1.78406 0
M  V30 9958 H 982.487 0.715714 -2.45583 0
M  V30 9959 H 982.131 1.68219 -4.79234 0
M  V30 9960 H 982.061 3.31769 -4.08946 0
M  V30 9961 H 984.552 2.05382 -3.17217 0
M  V30 9962 H 984.865 3.66138 -6.8056 0
M  V30 9963 H 983.21 3.2989 -6.11717 0
M  V30 9964 H 986.401 2.4729 -3.97448 0
M  V30 9965 H 986.574 3.20616 -5.63124 0
M  V30 9966 N 979.98 1.24838 0.961938 0
M  V30 9967 C 981.229 1.0855 1.69999 0
M  V30 9968 C 981.542 -0.374645 1.91979 0
M  V30 9969 O 982.748 -0.657822 2.6341 0
M  V30 9970 C 981.204 1.89424 3.06017 0
M  V30 9971 C 980.812 3.39885 2.9186 0
M  V30 9972 C 982.556 1.81684 3.83655 0
M  V30 9973 C 980.463 4.13082 4.23223 0
M  V30 9974 H 979.393 0.402603 0.637516 0
M  V30 9975 H 982.044 1.4897 1.07146 0
M  V30 9976 H 980.426 1.41823 3.69733 0
M  V30 9977 H 981.6 3.95108 2.37121 0
M  V30 9978 H 979.915 3.4864 2.27683 0
M  V30 9979 H 982.512 2.3367 4.80939 0
M  V30 9980 H 982.855 0.783247 4.08865 0
M  V30 9981 H 983.388 2.26997 3.26676 0
M  V30 9982 H 980.127 5.16824 4.03204 0
M  V30 9983 H 979.647 3.62644 4.77755 0
M  V30 9984 H 981.326 4.20397 4.91808 0
M  V30 9985 N 981.458 -1.16348 1.06306 0
M  V30 9986 C 982.683 -1.91323 0.800636 0
M  V30 9987 C 983.108 -1.7691 -0.639105 0
M  V30 9988 O 982.466 -1.0945 -1.44535 0
M  V30 9989 C 982.514 -3.40038 1.20027 0
M  V30 9990 O 981.618 -4.11003 0.339142 0
M  V30 9991 H 980.959 -0.596057 0.292595 0
M  V30 9992 H 983.489 -1.47406 1.41889 0
M  V30 9993 H 983.499 -3.90808 1.17188 0
M  V30 9994 H 982.174 -3.49848 2.24898 0
M  V30 9995 H 980.751 -3.70423 0.42911 0
M  V30 9996 N 982.937 -0.845659 -1.3299 0
M  V30 9997 C 983.887 -0.2557 -2.26562 0
M  V30 9998 C 984.871 0.593245 -1.49564 0
M  V30 9999 O 986.063 0.444101 -1.71338 0
M  V30 10000 C 983.192 0.562573 -3.38659 0
M  V30 10001 C 982.278 -0.298259 -4.2305 0
M  V30 10002 N 982.669 -1.38023 -4.86604 0
M  V30 10003 C 980.967 -0.0864539 -4.45916 0
M  V30 10004 C 981.668 -1.90907 -5.49481 0
M  V30 10005 N 980.644 -1.20955 -5.29973 0
M  V30 10006 H 984.446 -1.083 -2.73219 0
M  V30 10007 H 981.96 -0.690823 -1.46974 0
M  V30 10008 H 983.957 1.00157 -4.0469 0
M  V30 10009 H 982.617 1.38777 -2.93549 0
M  V30 10010 H 983.628 -1.76314 -4.86964 0
M  V30 10011 H 980.305 0.70475 -4.11509 0
M  V30 10012 H 981.695 -2.81552 -6.10064 0
M  V30 10013 N 984.415 1.45619 -0.602734 0
M  V30 10014 C 985.655 2.0416 -0.0989764 0
M  V30 10015 C 986.019 1.4616 1.24504 0
M  V30 10016 O 987.22 1.96025 1.83923 0
M  V30 10017 C 985.491 3.57357 -0.0551869 0
M  V30 10018 S 987.05 4.3708 0.388086 0
M  V30 10019 H 983.868 0.709431 -0.0472054 0
M  V30 10020 H 986.47 1.78394 -0.799745 0
M  V30 10021 H 985.174 3.97083 -1.03697 0
M  V30 10022 H 984.705 3.87692 0.667727 0
M  V30 10023 H 986.72 4.68362 1.63865 0
M  V30 10024 N 985.893 0.34162 1.53853 0
M  V30 10025 C 987.304 -0.14269 1.86154 0
M  V30 10026 C 987.655 -1.50151 1.2629 0
M  V30 10027 O 986.78 -2.08601 0.575735 0
M  V30 10028 C 987.375 -0.265691 3.37757 0
M  V30 10029 C 985.934 -0.694231 3.69942 0
M  V30 10030 C 985.081 0.173195 2.76759 0
M  V30 10031 H 988.032 0.561284 1.48443 0
M  V30 10032 H 988.053 -1.09352 3.64448 0
M  V30 10033 H 987.565 0.723424 3.81298 0
M  V30 10034 H 985.666 -1.69244 3.31945 0
M  V30 10035 H 985.779 -0.485461 4.76634 0
M  V30 10036 H 984.143 -0.35416 2.52226 0
M  V30 10037 H 984.926 1.15941 3.23129 0
M  V30 10038 N 987.371 -1.57444 0.0701946 0
M  V30 10039 C 988.319 -2.13834 -0.915302 0
M  V30 10040 C 989.313 -1.07483 -1.30934 0
M  V30 10041 O 990.519 -1.25865 -1.28678 0
M  V30 10042 H 986.894 -0.683716 -0.313108 0
M  V30 10043 H 988.865 -2.95503 -0.414758 0
M  V30 10044 C 987.614 -2.71355 -2.17398 0
M  V30 10045 H 986.937 -3.52861 -1.87961 0
M  V30 10046 H 988.377 -3.1441 -2.84469 0
M  V30 10047 C 986.836 -1.66038 -2.93143 0
M  V30 10048 O 987.366 -1.08443 -3.86786 0
M  V30 10049 N 985.572 -1.3711 -2.56221 0
M  V30 10050 H 985.119 -1.84135 -1.80145 0
M  V30 10051 H 985.077 -0.66877 -3.07205 0
M  V30 10052 N 988.849 0.203349 -1.56283 0
M  V30 10053 C 990.098 0.92315 -1.79334 0
M  V30 10054 C 990.411 1.84765 -0.641977 0
M  V30 10055 O 991.617 2.60745 -0.756584 0
M  V30 10056 C 990.073 1.69184 -3.17655 0
M  V30 10057 C 989.681 0.812581 -4.40569 0
M  V30 10058 C 991.425 2.40177 -3.50022 0
M  V30 10059 C 989.332 1.57967 -5.69913 0
M  V30 10060 H 988.262 0.348442 -0.668659 0
M  V30 10061 H 990.913 0.1766 -1.82648 0
M  V30 10062 H 989.295 2.48197 -3.08568 0
M  V30 10063 H 990.469 0.0616956 -4.60759 0
M  V30 10064 H 988.784 0.21389 -4.1585 0
M  V30 10065 H 991.381 2.98103 -4.4389 0
M  V30 10066 H 991.724 3.13961 -2.73376 0
M  V30 10067 H 992.257 1.68138 -3.6052 0
M  V30 10068 H 988.996 0.884767 -6.49501 0
M  V30 10069 H 988.516 2.3047 -5.53754 0
M  V30 10070 H 990.195 2.13562 -6.10737 0
M  V30 10071 N 990.327 1.50405 0.470755 0
M  V30 10072 C 991.257 1.72222 1.57676 0
M  V30 10073 C 992.238 0.57121 1.60222 0
M  V30 10074 O 993.423 0.810381 1.76484 0
M  V30 10075 C 990.553 1.81666 2.95998 0
M  V30 10076 C 989.507 2.96857 3.08318 0
M  V30 10077 C 988.833 2.91445 4.4829 0
M  V30 10078 C 990.133 4.37361 2.85504 0
M  V30 10079 H 991.827 2.64825 1.39671 0
M  V30 10080 H 989.373 1.27438 0.67049 0
M  V30 10081 H 991.326 1.95514 3.73299 0
M  V30 10082 H 990.05 0.856856 3.1516 0
M  V30 10083 H 988.709 2.82661 2.33449 0
M  V30 10084 H 988.357 1.93309 4.64371 0
M  V30 10085 H 988.057 3.68776 4.57469 0
M  V30 10086 H 989.581 3.07341 5.27611 0
M  V30 10087 H 990.995 4.52081 3.52555 0
M  V30 10088 H 989.392 5.16145 3.06127 0
M  V30 10089 H 990.462 4.49708 1.81359 0
M  V30 10090 N 991.805 -0.723954 1.39988 0
M  V30 10091 C 993.033 -1.51313 1.4111 0
M  V30 10092 C 993.448 -1.88798 0.00853333 0
M  V30 10093 O 992.805 -1.54868 -0.965516 0
M  V30 10094 C 992.856 -2.79375 2.29416 0
M  V30 10095 O 992.577 -2.43478 3.64211 0
M  V30 10096 C 994.078 -3.7333 2.3904 0
M  V30 10097 H 991.298 -0.46724 0.481589 0
M  V30 10098 H 993.842 -0.893694 1.83938 0
M  V30 10099 H 991.997 -3.37624 1.89971 0
M  V30 10100 H 992.411 -3.25821 4.11024 0
M  V30 10101 H 993.885 -4.60051 3.05053 0
M  V30 10102 H 994.362 -4.15854 1.41289 0
M  V30 10103 H 994.968 -3.20996 2.79001 0
M  V30 10104 N 993.283 -1.25346 -0.955304 0
M  V30 10105 C 994.56 -1.00829 -1.67609 0
M  V30 10106 C 994.94 0.465675 -2.059 0
M  V30 10107 O 994.288 1.44287 -1.77182 0
M  V30 10108 C 994.498 -1.94337 -2.89886 0
M  V30 10109 C 995.846 -2.22142 -3.61854 0
M  V30 10110 O 996.87 -1.9209 -2.99967 0
M  V30 10111 O 995.729 -2.73239 -4.73289 0
M  V30 10112 H 992.823 -0.382314 -0.733325 0
M  V30 10113 H 995.369 -1.36498 -1.00829 0
M  V30 10114 H 994.141 -2.93867 -2.58376 0
M  V30 10115 H 993.764 -1.59062 -3.64397 0
M  V30 10116 N 994.761 1.15782 -1.06922 0
M  V30 10117 C 996.177 1.38454 -0.793896 0
M  V30 10118 C 996.377 1.92238 0.603875 0
M  V30 10119 O 995.433 2.1253 1.36335 0
M  V30 10120 C 996.746 2.3595 -1.86408 0
M  V30 10121 C 998.294 2.49622 -1.88833 0
M  V30 10122 C 998.769 3.50406 -2.94923 0
M  V30 10123 N 1000.26 3.57938 -2.93997 0
M  V30 10124 C 1001 4.35728 -3.72731 0
M  V30 10125 N 1000.49 5.16888 -4.61301 0
M  V30 10126 N 1002.28 4.30774 -3.61096 0
M  V30 10127 H 994.435 0.792101 -1.97077 0
M  V30 10128 H 996.698 0.410779 -0.85438 0
M  V30 10129 H 996.404 2.03537 -2.86819 0
M  V30 10130 H 996.278 3.35677 -1.72049 0
M  V30 10131 H 998.665 2.81335 -0.890759 0
M  V30 10132 H 998.746 1.49909 -2.0727 0
M  V30 10133 H 998.39 3.19429 -3.94877 0
M  V30 10134 H 998.32 4.49864 -2.73734 0
M  V30 10135 H 1000.81 3.00007 -2.29791 0
M  V30 10136 H 1001.12 5.73477 -5.18019 0
M  V30 10137 H 999.469 5.16209 -4.65353 0
M  V30 10138 H 1002.66 3.66432 -2.91282 0
M  V30 10139 H 1002.83 4.91151 -4.22699 0
M  V30 10140 N 996.239 0.8527 1.3254 0
M  V30 10141 C 997.464 0.468157 2.02047 0
M  V30 10142 C 997.889 -0.926967 1.63673 0
M  V30 10143 O 997.247 -1.60855 0.836378 0
M  V30 10144 C 997.295 0.612519 3.5536 0
M  V30 10145 O 996.399 -0.355506 4.10865 0
M  V30 10146 H 995.74 0.188401 0.636711 0
M  V30 10147 H 998.27 1.15135 1.6913 0
M  V30 10148 H 998.28 0.499315 4.04933 0
M  V30 10149 H 996.955 1.62988 3.82632 0
M  V30 10150 H 995.532 -0.198703 3.7237 0
M  V30 10151 N 997.718 -1.45297 0.610449 0
M  V30 10152 C 998.648 -2.33311 -0.0939698 0
M  V30 10153 C 999.629 -1.46999 -0.85588 0
M  V30 10154 O 1000.81 -1.75764 -0.825865 0
M  V30 10155 C 997.944 -3.29751 -1.09003 0
M  V30 10156 C 996.898 -4.2572 -0.441146 0
M  V30 10157 C 996.224 -5.11873 -1.54566 0
M  V30 10158 C 997.524 -5.1837 0.639489 0
M  V30 10159 H 999.218 -2.92459 0.640941 0
M  V30 10160 H 996.764 -1.40631 0.309675 0
M  V30 10161 H 998.717 -3.90195 -1.59141 0
M  V30 10162 H 997.441 -2.68768 -1.85557 0
M  V30 10163 H 996.1 -3.66579 0.0393908 0
M  V30 10164 H 995.748 -4.47256 -2.30155 0
M  V30 10165 H 995.448 -5.76886 -1.11698 0
M  V30 10166 H 996.972 -5.75185 -2.04925 0
M  V30 10167 H 998.386 -5.7287 0.22207 0
M  V30 10168 H 996.783 -5.91876 0.990089 0
M  V30 10169 H 997.853 -4.60627 1.51495 0
M  V30 10170 N 999.196 -0.349774 -1.5367 0
M  V30 10171 C 1000.44 0.237837 -2.02005 0
M  V30 10172 C 1000.8 1.477 -1.23298 0
M  V30 10173 O 1000.09 1.8901 -0.313947 0
M  V30 10174 C 1000.28 0.598311 -3.52356 0
M  V30 10175 C 1000.11 -0.604368 -4.4562 0
M  V30 10176 C 998.883 -1.1116 -4.92922 0
M  V30 10177 C 1001.08 -1.46474 -4.93001 0
M  V30 10178 N 999.063 -2.27595 -5.70152 0
M  V30 10179 C 1000.43 -2.47593 -5.68417 0
M  V30 10180 C 1002.49 -1.48947 -4.75099 0
M  V30 10181 C 1001.19 -3.51021 -6.27835 0
M  V30 10182 C 1003.22 -2.51259 -5.35372 0
M  V30 10183 C 1002.58 -3.51103 -6.1066 0
M  V30 10184 H 998.679 0.0501688 -0.780389 0
M  V30 10185 H 1001.26 -0.490748 -1.88414 0
M  V30 10186 H 999.434 1.29599 -3.6614 0
M  V30 10187 H 1001.17 1.16965 -3.87429 0
M  V30 10188 H 997.921 -0.678699 -4.68712 0
M  V30 10189 H 998.345 -2.864 -6.13436 0
M  V30 10190 H 1002.99 -0.731138 -4.1643 0
M  V30 10191 H 1000.7 -4.27745 -6.85609 0
M  V30 10192 H 1004.29 -2.54006 -5.23423 0
M  V30 10193 H 1003.17 -4.28974 -6.56469 0
M  V30 10194 N 1000.67 1.57404 -0.0785433 0
M  V30 10195 C 1001.6 2.16131 0.883726 0
M  V30 10196 C 1002.58 1.09015 1.30575 0
M  V30 10197 O 1003.77 1.3708 1.37559 0
M  V30 10198 C 1000.9 2.72836 2.1489 0
M  V30 10199 C 999.854 3.85178 1.86605 0
M  V30 10200 C 999.18 4.28516 3.1981 0
M  V30 10201 C 1000.48 5.09118 1.16601 0
M  V30 10202 H 1002.17 2.9679 0.394484 0
M  V30 10203 H 999.72 1.42763 0.188304 0
M  V30 10204 H 1001.67 3.12567 2.8263 0
M  V30 10205 H 1000.4 1.89408 2.66068 0
M  V30 10206 H 999.056 3.45962 1.21268 0
M  V30 10207 H 998.704 3.42 3.68843 0
M  V30 10208 H 998.404 5.04249 3.01674 0
M  V30 10209 H 999.928 4.70868 3.88737 0
M  V30 10210 H 1001.34 5.46123 1.74422 0
M  V30 10211 H 999.739 5.90173 1.087 0
M  V30 10212 H 1000.81 4.8468 0.146138 0
M  V30 10213 N 1002.15 -0.195058 1.56388 0
M  V30 10214 C 1003.11 -1.2254 1.93692 0
M  V30 10215 C 1004.11 -1.38437 0.81804 0
M  V30 10216 O 1005.3 -1.36248 1.08545 0
M  V30 10217 C 1002.44 -2.59476 2.21099 0
M  V30 10218 H 1003.63 -0.906544 2.8587 0
M  V30 10219 H 1001.18 -0.436577 1.50079 0
M  V30 10220 H 1001.92 -2.96417 1.31558 0
M  V30 10221 H 1001.7 -2.4931 3.02634 0
M  V30 10222 H 1003.19 -3.33777 2.50964 0
M  V30 10223 N 1003.63 -1.50653 -0.462772 0
M  V30 10224 C 1004.85 -1.66103 -1.24196 0
M  V30 10225 C 1005.28 -0.347421 -1.84864 0
M  V30 10226 O 1004.64 0.689673 -1.6767 0
M  V30 10227 C 1004.69 -2.76027 -2.32037 0
M  V30 10228 O 1003.79 -2.37859 -3.36893 0
M  V30 10229 H 1003.13 -0.554672 -0.365014 0
M  V30 10230 H 1005.66 -1.97076 -0.549734 0
M  V30 10231 H 1005.67 -2.99354 -2.77221 0
M  V30 10232 H 1004.35 -3.71361 -1.87253 0
M  V30 10233 H 1002.92 -2.2501 -2.97363 0
M  V30 10234 N 1005.11 0.71652 -1.4037 0
M  V30 10235 C 1006.35 1.48883 -1.40047 0
M  V30 10236 C 1006.71 1.92 -0.00158027 0
M  V30 10237 O 1007.91 2.68501 0.126765 0
M  V30 10238 C 1006.18 2.68265 -2.36154 0
M  V30 10239 S 1007.74 3.57684 -2.5418 0
M  V30 10240 H 1004.56 0.509035 -0.496391 0
M  V30 10241 H 1007.16 0.837967 -1.76631 0
M  V30 10242 H 1005.87 2.34759 -3.36625 0
M  V30 10243 H 1005.4 3.38264 -2.0085 0
M  V30 10244 H 1007.41 4.62653 -1.79352 0
M  V30 10245 N 1006.59 1.25851 0.948643 0
M  V30 10246 C 1007.82 1.13546 1.726 0
M  V30 10247 C 1008.22 -0.312857 1.86595 0
M  V30 10248 O 1007.57 -1.22657 1.36751 0
M  V30 10249 C 1007.63 1.72315 3.15512 0
M  V30 10250 C 1007.29 3.2136 3.24926 0
M  V30 10251 C 1008.29 4.18274 3.08777 0
M  V30 10252 C 1005.98 3.61683 3.48555 0
M  V30 10253 C 1007.97 5.53491 3.16112 0
M  V30 10254 C 1005.66 4.97035 3.55526 0
M  V30 10255 C 1006.65 5.92749 3.3932 0
M  V30 10256 O 1006.34 7.25637 3.45985 0
M  V30 10257 H 1006.07 0.396555 0.547467 0
M  V30 10258 H 1008.63 1.66822 1.19832 0
M  V30 10259 H 1006.86 1.13494 3.6967 0
M  V30 10260 H 1008.55 1.55024 3.7513 0
M  V30 10261 H 1009.31 3.88461 2.90385 0
M  V30 10262 H 1005.19 2.87674 3.60229 0
M  V30 10263 H 1008.74 6.28177 3.0338 0
M  V30 10264 H 1004.63 5.26512 3.73437 0
M  V30 10265 H 1005.4 7.33812 3.62577 0
M  V30 10266 N 1008.06 -1.15214 1.07534 0
M  V30 10267 C 1009.3 -1.87708 0.809009 0
M  V30 10268 C 1009.67 -1.80552 -0.653066 0
M  V30 10269 O 1010.87 -2.48095 -1.03452 0
M  V30 10270 C 1009.14 -3.32703 1.30552 0
M  V30 10271 S 1010.7 -4.2291 1.17015 0
M  V30 10272 H 1007.52 -0.647767 0.293118 0
M  V30 10273 H 1010.12 -1.38992 1.37482 0
M  V30 10274 H 1008.82 -3.35456 2.36427 0
M  V30 10275 H 1008.35 -3.86473 0.734995 0
M  V30 10276 H 1010.37 -4.96081 0.108836 0
M  V30 10277 N 1009.54 -0.859717 -1.32086 0
M  V30 10278 C 1010.96 -0.55025 -1.49815 0
M  V30 10279 C 1011.16 0.917966 -1.79376 0
M  V30 10280 O 1010.21 1.70073 -1.86632 0
M  V30 10281 C 1011.53 -1.44161 -2.6389 0
M  V30 10282 C 1013.08 -1.44257 -2.77775 0
M  V30 10283 C 1013.55 -2.31926 -3.94936 0
M  V30 10284 N 1015.04 -2.2975 -4.02206 0
M  V30 10285 C 1015.78 -2.9431 -4.92107 0
M  V30 10286 N 1015.27 -3.68001 -5.86981 0
M  V30 10287 N 1017.07 -2.83671 -4.8527 0
M  V30 10288 H 1009.22 -1.80987 -1.11164 0
M  V30 10289 H 1011.48 -0.773313 -0.548353 0
M  V30 10290 H 1011.19 -2.48588 -2.4879 0
M  V30 10291 H 1011.06 -1.13268 -3.59792 0
M  V30 10292 H 1013.45 -0.405923 -2.92295 0
M  V30 10293 H 1013.53 -1.79169 -1.82571 0
M  V30 10294 H 1013.17 -3.35661 -3.81174 0
M  V30 10295 H 1013.1 -1.94344 -4.89426 0
M  V30 10296 H 1015.59 -1.76177 -3.3432 0
M  V30 10297 H 1015.91 -4.14417 -6.52287 0
M  V30 10298 H 1014.25 -3.72109 -5.86992 0
M  V30 10299 H 1017.44 -2.25647 -4.10123 0
M  V30 10300 H 1017.61 -3.34267 -5.5513 0
M  V30 10301 N 1011.02 1.44971 -0.618145 0
M  V30 10302 C 1011.98 2.29044 0.0846739 0
M  V30 10303 C 1012.98 1.40341 0.784921 0
M  V30 10304 O 1014.17 1.62351 0.631479 0
M  V30 10305 C 1011.31 3.21617 1.13027 0
M  V30 10306 H 1012.5 2.92668 -0.654612 0
M  V30 10307 H 1010.05 1.51668 -0.377672 0
M  V30 10308 H 1010.79 2.62815 1.89997 0
M  V30 10309 H 1010.57 3.86969 0.63224 0
M  V30 10310 H 1012.06 3.84805 1.62218 0
M  V30 10311 N 1012.5 0.357919 1.53482 0
M  V30 10312 C 1013.43 -0.484231 2.28424 0
M  V30 10313 C 1014.41 -1.09046 1.30548 0
M  V30 10314 O 1015.59 -1.10916 1.59409 0
M  V30 10315 C 1012.72 -1.62803 3.06778 0
M  V30 10316 C 1011.68 -1.14943 4.12277 0
M  V30 10317 C 1011 -2.38287 4.78669 0
M  V30 10318 C 1012.3 -0.239627 5.2175 0
M  V30 10319 H 1014 0.140979 2.99068 0
M  V30 10320 H 1011.54 0.069244 1.43833 0
M  V30 10321 H 1013.5 -2.22374 3.57949 0
M  V30 10322 H 1012.22 -2.28036 2.3381 0
M  V30 10323 H 1010.88 -0.576442 3.6204 0
M  V30 10324 H 1010.53 -3.01959 4.02281 0
M  V30 10325 H 1010.23 -2.06939 5.49955 0
M  V30 10326 H 1011.75 -2.98558 5.32631 0
M  V30 10327 H 1013.17 -0.742597 5.6847 0
M  V30 10328 H 1011.56 -0.0173747 6.00097 0
M  V30 10329 H 1012.63 0.720333 4.7952 0
M  V30 10330 N 1013.98 -1.5736 0.0868897 0
M  V30 10331 C 1014.91 -2.10582 -0.904858 0
M  V30 10332 C 1015.92 -1.04124 -1.25148 0
M  V30 10333 O 1017.11 -1.31595 -1.20603 0
M  V30 10334 C 1014.21 -2.56381 -2.21635 0
M  V30 10335 C 1013.38 -3.86581 -2.04631 0
M  V30 10336 C 1012.44 -4.18313 -3.19219 0
M  V30 10337 O 1011.47 -4.87669 -2.93544 0
M  V30 10338 N 1012.67 -3.73061 -4.44754 0
M  V30 10339 H 1015.44 -2.96297 -0.450352 0
M  V30 10340 H 1013 -1.616 -0.0984376 0
M  V30 10341 H 1014.99 -2.7466 -2.97227 0
M  V30 10342 H 1013.56 -1.75721 -2.58536 0
M  V30 10343 H 1012.78 -3.77532 -1.13417 0
M  V30 10344 H 1014.07 -4.71777 -1.90537 0
M  V30 10345 H 1013.46 -3.1706 -4.68497 0
M  V30 10346 H 1012.02 -3.96511 -5.17322 0
M  V30 10347 N 1015.45 0.186762 -1.56489 0
M  V30 10348 C 1016.42 1.21511 -1.94339 0
M  V30 10349 C 1017.42 1.38001 -0.82537 0
M  V30 10350 O 1018.61 1.3567 -1.09266 0
M  V30 10351 C 1015.74 2.583 -2.22472 0
M  V30 10352 H 1016.93 0.891371 -2.86347 0
M  V30 10353 H 1014.49 0.428612 -1.50308 0
M  V30 10354 H 1015.22 2.95715 -1.33129 0
M  V30 10355 H 1015.01 2.47701 -3.03951 0
M  V30 10356 H 1016.5 3.32441 -2.5273 0
M  V30 10357 N 1016.93 1.50896 0.454776 0
M  V30 10358 C 1018.18 1.6294 1.20741 0
M  V30 10359 C 1018.51 0.336339 1.91265 0
M  V30 10360 O 1017.79 -0.663153 1.82846 0
M  V30 10361 C 1018.07 2.82092 2.23822 0
M  V30 10362 C 1017.92 4.21326 1.57495 0
M  V30 10363 C 1019.24 2.96777 3.24979 0
M  V30 10364 H 1016.36 0.59302 0.437603 0
M  V30 10365 H 1019 1.83331 0.498959 0
M  V30 10366 H 1017.15 2.64837 2.84243 0
M  V30 10367 H 1018.82 4.50209 1.00546 0
M  V30 10368 H 1017.07 4.24829 0.877664 0
M  V30 10369 H 1017.74 5.00656 2.32482 0
M  V30 10370 H 1020.21 3.12627 2.74597 0
M  V30 10371 H 1019.09 3.81742 3.94416 0
M  V30 10372 H 1019.35 2.08091 3.90065 0
M  V30 10373 N 1018.41 -0.709066 1.40748 0
M  V30 10374 C 1019.64 -1.49808 1.42707 0
M  V30 10375 C 1020.05 -1.88778 0.0285574 0
M  V30 10376 O 1019.41 -1.55883 -0.949035 0
M  V30 10377 C 1019.46 -2.76926 2.32366 0
M  V30 10378 O 1019.18 -2.39602 3.66773 0
M  V30 10379 C 1020.68 -3.70773 2.42986 0
M  V30 10380 H 1017.9 -0.462106 0.486517 0
M  V30 10381 H 1020.45 -0.874135 1.84876 0
M  V30 10382 H 1018.6 -3.3559 1.93541 0
M  V30 10383 H 1019.02 -3.21443 4.14457 0
M  V30 10384 H 1020.49 -4.56789 3.09916 0
M  V30 10385 H 1020.97 -4.14332 1.45691 0
M  V30 10386 H 1021.57 -3.18019 2.8239 0
M  V30 10387 N 1019.89 -1.26353 -0.941956 0
M  V30 10388 C 1021.12 -1.1446 -1.71996 0
M  V30 10389 C 1021.53 0.302957 -1.86759 0
M  V30 10390 O 1020.87 1.2193 -1.374 0
M  V30 10391 C 1020.93 -1.73986 -3.14593 0
M  V30 10392 C 1020.6 -3.23078 -3.23217 0
M  V30 10393 C 1021.59 -4.19905 -3.06554 0
M  V30 10394 C 1019.28 -3.63526 -3.46632 0
M  V30 10395 C 1021.27 -5.55159 -3.13172 0
M  V30 10396 C 1018.96 -4.98914 -3.52886 0
M  V30 10397 C 1019.96 -5.9454 -3.36172 0
M  V30 10398 O 1019.65 -7.27462 -3.42132 0
M  V30 10399 H 1019.38 -0.399453 -0.545356 0
M  V30 10400 H 1021.93 -1.67455 -1.18945 0
M  V30 10401 H 1020.16 -1.15453 -3.69063 0
M  V30 10402 H 1021.85 -1.57011 -3.74302 0
M  V30 10403 H 1022.62 -3.89995 -2.88321 0
M  V30 10404 H 1018.5 -2.8958 -3.58698 0
M  V30 10405 H 1022.04 -6.29777 -3.00044 0
M  V30 10406 H 1017.94 -5.28485 -3.70639 0
M  V30 10407 H 1018.7 -7.35725 -3.5868 0
M  V30 10408 N 1021.37 1.14642 -1.08144 0
M  V30 10409 C 1022.78 1.37604 -0.808537 0
M  V30 10410 C 1022.98 1.92868 0.583452 0
M  V30 10411 O 1022.04 2.13964 1.34073 0
M  V30 10412 C 1023.35 2.3396 -1.889 0
M  V30 10413 C 1024.9 2.47605 -1.9147 0
M  V30 10414 C 1025.38 3.47258 -2.98623 0
M  V30 10415 N 1026.87 3.548 -2.97777 0
M  V30 10416 C 1027.6 4.31751 -3.77331 0
M  V30 10417 N 1027.1 5.11966 -4.66757 0
M  V30 10418 N 1028.89 4.2692 -3.65645 0
M  V30 10419 H 1021.04 0.771154 -1.97906 0
M  V30 10420 H 1023.3 0.401694 -0.858688 0
M  V30 10421 H 1023.01 2.00484 -2.88962 0
M  V30 10422 H 1022.88 3.33833 -1.756 0
M  V30 10423 H 1025.27 2.80375 -0.920548 0
M  V30 10424 H 1025.35 1.47702 -2.08848 0
M  V30 10425 H 1025 3.15223 -3.98243 0
M  V30 10426 H 1024.93 4.46935 -2.7849 0
M  V30 10427 H 1027.42 2.97553 -2.3296 0
M  V30 10428 H 1027.73 5.67951 -5.24072 0
M  V30 10429 H 1026.08 5.11245 -4.70801 0
M  V30 10430 H 1029.27 3.63322 -2.95152 0
M  V30 10431 H 1029.44 4.8664 -4.27885 0
M  V30 10432 N 1022.85 0.866709 1.31628 0
M  V30 10433 C 1024.07 0.48956 2.01539 0
M  V30 10434 C 1024.5 -0.909556 1.64647 0
M  V30 10435 O 1023.85 -1.59959 0.853391 0
M  V30 10436 C 1023.9 0.650176 3.5469 0
M  V30 10437 O 1023.01 -0.311908 4.11219 0
M  V30 10438 H 1022.35 0.195144 0.634677 0
M  V30 10439 H 1024.88 1.16923 1.679 0
M  V30 10440 H 1024.89 0.542236 4.04381 0
M  V30 10441 H 1023.56 1.67038 3.80882 0
M  V30 10442 H 1022.14 -0.159197 3.7256 0
M  V30 10443 N 1024.32 -1.44642 0.625825 0
M  V30 10444 C 1025.29 -2.29085 -0.072526 0
M  V30 10445 C 1026.29 -1.40755 -0.777467 0
M  V30 10446 O 1027.48 -1.62684 -0.622861 0
M  V30 10447 C 1024.61 -3.22212 -1.1132 0
M  V30 10448 H 1025.8 -2.92317 0.670124 0
M  V30 10449 H 1023.35 -1.51466 0.38571 0
M  V30 10450 H 1024.09 -2.63819 -1.88601 0
M  V30 10451 H 1023.87 -3.87299 -0.611709 0
M  V30 10452 H 1025.36 -3.8566 -1.60175 0
M  V30 10453 N 1025.8 -0.366053 -1.5329 0
M  V30 10454 C 1027.03 0.224236 -2.05681 0
M  V30 10455 C 1027.44 1.42412 -1.23952 0
M  V30 10456 O 1026.8 1.80334 -0.280309 0
M  V30 10457 C 1026.85 0.617266 -3.56191 0
M  V30 10458 O 1026.57 -0.534931 -4.34822 0
M  V30 10459 C 1028.07 1.26589 -4.24841 0
M  V30 10460 H 1025.29 0.0392928 -0.669849 0
M  V30 10461 H 1027.84 -0.52456 -1.97658 0
M  V30 10462 H 1025.99 1.31598 -3.64364 0
M  V30 10463 H 1026.41 -0.217123 -5.2405 0
M  V30 10464 H 1027.88 1.49146 -5.31469 0
M  V30 10465 H 1028.36 2.22633 -3.78591 0
M  V30 10466 H 1028.96 0.6086 -4.20923 0
M  V30 10467 N 1027.28 1.57312 -0.0952337 0
M  V30 10468 C 1028.56 1.85822 0.610715 0
M  V30 10469 C 1028.94 0.992114 1.86334 0
M  V30 10470 O 1028.28 0.0645669 2.28409 0
M  V30 10471 C 1028.49 3.36492 0.925967 0
M  V30 10472 C 1029.84 4.0455 1.28936 0
M  V30 10473 O 1030.87 3.41374 1.01698 0
M  V30 10474 O 1029.73 5.16024 1.79949 0
M  V30 10475 H 1026.82 0.768454 0.305626 0
M  V30 10476 H 1029.37 1.69217 -0.127941 0
M  V30 10477 H 1028.14 3.91282 0.0373127 0
M  V30 10478 H 1027.76 3.58443 1.7206 0
M  V30 10479 N 1028.76 -0.17846 1.56586 0
M  V30 10480 C 1030.17 -0.741599 1.71339 0
M  V30 10481 C 1030.52 -1.83112 0.704579 0
M  V30 10482 O 1029.64 -2.15975 -0.135557 0
M  V30 10483 C 1030.24 -1.35198 3.10656 0
M  V30 10484 C 1028.8 -1.86202 3.27118 0
M  V30 10485 C 1027.95 -0.738255 2.67292 0
M  V30 10486 H 1030.9 0.0468424 1.58631 0
M  V30 10487 H 1030.92 -2.2216 3.0891 0
M  V30 10488 H 1030.43 -0.558776 3.84056 0
M  V30 10489 H 1028.53 -2.68188 2.58661 0
M  V30 10490 H 1028.64 -2.01237 4.34788 0
M  V30 10491 H 1027.01 -1.15686 2.26912 0
M  V30 10492 H 1027.79 0.0429821 3.43273 0
M  V30 10493 N 1030.24 -1.51135 -0.446768 0
M  V30 10494 C 1031.48 -1.63578 -1.19875 0
M  V30 10495 C 1031.81 -0.346478 -1.91084 0
M  V30 10496 O 1031.09 0.653447 -1.83195 0
M  V30 10497 C 1031.37 -2.83275 -2.22323 0
M  V30 10498 C 1031.23 -4.22155 -1.55259 0
M  V30 10499 C 1032.54 -2.98496 -3.23401 0
M  V30 10500 H 1029.66 -0.595333 -0.434452 0
M  V30 10501 H 1032.31 -1.83593 -0.48923 0
M  V30 10502 H 1030.46 -2.6634 -2.82834 0
M  V30 10503 H 1032.13 -4.50736 -0.981571 0
M  V30 10504 H 1030.37 -4.25288 -0.855122 0
M  V30 10505 H 1031.04 -5.01882 -2.29823 0
M  V30 10506 H 1033.52 -3.14079 -2.72935 0
M  V30 10507 H 1032.39 -3.83828 -3.92386 0
M  V30 10508 H 1032.65 -2.10157 -3.88956 0
M  V30 10509 N 1031.71 0.701592 -1.41122 0
M  V30 10510 C 1032.96 1.45871 -1.39879 0
M  V30 10511 C 1033.28 1.94999 -0.00668769 0
M  V30 10512 O 1032.55 1.71298 0.95047 0
M  V30 10513 H 1031.13 0.541231 -0.514857 0
M  V30 10514 H 1033.79 0.830803 -1.76306 0
M  V30 10515 H 1032.89 2.32479 -2.0823 0
M  V30 10516 N 1033.19 1.2685 0.935242 0
M  V30 10517 C 1034.14 1.05586 2.02078 0
M  V30 10518 C 1035.13 -0.013699 1.60894 0
M  V30 10519 O 1036.32 0.203956 1.75821 0
M  V30 10520 C 1033.45 0.697118 3.36148 0
M  V30 10521 C 1032.53 1.80444 3.83798 0
M  V30 10522 N 1032.92 3.04283 4.04037 0
M  V30 10523 C 1031.22 1.68939 4.12766 0
M  V30 10524 C 1031.92 3.7629 4.436 0
M  V30 10525 N 1030.9 3.04011 4.50642 0
M  V30 10526 H 1034.7 1.99577 2.15746 0
M  V30 10527 H 1032.21 1.17455 1.12153 0
M  V30 10528 H 1034.21 0.525915 4.1357 0
M  V30 10529 H 1032.87 -0.235247 3.23847 0
M  V30 10530 H 1033.88 3.40125 3.90558 0
M  V30 10531 H 1030.56 0.827341 4.0922 0
M  V30 10532 H 1031.95 4.82687 4.67401 0
M  V30 10533 N 1034.67 -1.14067 1.0875 0
M  V30 10534 C 1035.58 -2.22871 0.732498 0
M  V30 10535 C 1036.6 -1.72008 -0.26253 0
M  V30 10536 O 1037.77 -2.01123 -0.105601 0
M  V30 10537 C 1034.84 -3.46371 0.150913 0
M  V30 10538 C 1033.9 -4.12158 1.201 0
M  V30 10539 C 1033.13 -5.29763 0.647075 0
M  V30 10540 O 1033.35 -5.67911 -0.532307 0
M  V30 10541 O 1032.29 -5.8542 1.3988 0
M  V30 10542 H 1036.11 -2.55596 1.64025 0
M  V30 10543 H 1033.7 -1.22065 0.861417 0
M  V30 10544 H 1035.58 -4.21055 -0.170442 0
M  V30 10545 H 1034.26 -3.15362 -0.729948 0
M  V30 10546 H 1033.16 -3.39332 1.57494 0
M  V30 10547 H 1034.5 -4.47282 2.05426 0
M  V30 10548 N 1036.15 -0.873678 -1.31166 0
M  V30 10549 C 1037.39 -0.487178 -1.96861 0
M  V30 10550 C 1037.73 0.95887 -1.68877 0
M  V30 10551 O 1037 1.6758 -0.987279 0
M  V30 10552 C 1037.29 -0.74925 -3.52219 0
M  V30 10553 C 1037.14 -2.2451 -3.89763 0
M  V30 10554 C 1038.46 -0.218194 -4.39559 0
M  V30 10555 H 1035.58 -0.178477 -0.715063 0
M  V30 10556 H 1038.22 -1.0956 -1.55231 0
M  V30 10557 H 1036.37 -0.231403 -3.8781 0
M  V30 10558 H 1038.04 -2.83049 -3.64254 0
M  V30 10559 H 1036.28 -2.71621 -3.38237 0
M  V30 10560 H 1036.95 -2.37911 -4.98099 0
M  V30 10561 H 1039.43 -0.661274 -4.10812 0
M  V30 10562 H 1038.31 -0.430983 -5.47205 0
M  V30 10563 H 1038.57 0.880056 -4.33252 0
M  V30 10564 N 1037.63 1.44308 -0.633487 0
M  V30 10565 C 1038.88 2.01239 -0.136356 0
M  V30 10566 C 1039.19 1.50438 1.25011 0
M  V30 10567 O 1040.39 1.99513 1.84138 0
M  V30 10568 C 1038.85 3.59382 -0.193011 0
M  V30 10569 C 1038.46 4.19178 -1.58093 0
M  V30 10570 C 1040.2 4.23778 0.247534 0
M  V30 10571 C 1038.11 5.69553 -1.59258 0
M  V30 10572 H 1037.04 0.752521 -0.0472109 0
M  V30 10573 H 1039.69 1.65498 -0.79263 0
M  V30 10574 H 1038.07 3.92432 0.530408 0
M  V30 10575 H 1039.25 3.97662 -2.32813 0
M  V30 10576 H 1037.56 3.67079 -1.96576 0
M  V30 10577 H 1040.16 5.34075 0.258401 0
M  V30 10578 H 1040.5 3.96285 1.27529 0
M  V30 10579 H 1041.03 3.9554 -0.423469 0
M  V30 10580 H 1037.77 6.01784 -2.59878 0
M  V30 10581 H 1037.29 5.93185 -0.888352 0
M  V30 10582 H 1038.97 6.33234 -1.32756 0
M  V30 10583 N 1039.1 0.374177 1.53094 0
M  V30 10584 C 1040.35 -0.205669 2.02358 0
M  V30 10585 C 1040.71 -1.4572 1.25633 0
M  V30 10586 O 1040 -1.88487 0.343977 0
M  V30 10587 C 1040.19 -0.542179 3.53264 0
M  V30 10588 C 1040.02 0.675186 4.44602 0
M  V30 10589 C 1038.79 1.18987 4.91091 0
M  V30 10590 C 1040.99 1.54299 4.90608 0
M  V30 10591 N 1038.97 2.36637 5.66459 0
M  V30 10592 C 1040.34 2.56605 5.64406 0
M  V30 10593 C 1042.4 1.56486 4.7267 0
M  V30 10594 C 1041.1 3.60965 6.22171 0
M  V30 10595 C 1043.13 2.59745 5.31307 0
M  V30 10596 C 1042.49 3.60774 6.04997 0
M  V30 10597 H 1038.59 -0.0377471 0.781088 0
M  V30 10598 H 1041.17 0.520661 1.87609 0
M  V30 10599 H 1039.34 -1.23758 3.68156 0
M  V30 10600 H 1041.07 -1.10786 3.89241 0
M  V30 10601 H 1037.83 0.753181 4.67573 0
M  V30 10602 H 1038.25 2.96123 6.08802 0
M  V30 10603 H 1042.9 0.797296 4.15214 0
M  V30 10604 H 1040.61 4.38599 6.78717 0
M  V30 10605 H 1044.2 2.62301 5.19316 0
M  V30 10606 H 1043.08 4.39363 6.49561 0
M  V30 10607 N 1040.58 -1.57259 0.103575 0
M  V30 10608 C 1041.55 -2.13337 -0.837859 0
M  V30 10609 C 1042.55 -1.06459 -1.20512 0
M  V30 10610 O 1043.74 -1.32307 -1.13316 0
M  V30 10611 C 1040.87 -2.66093 -2.13089 0
M  V30 10612 H 1042.06 -2.97842 -0.350775 0
M  V30 10613 H 1039.61 -1.55621 -0.145511 0
M  V30 10614 H 1040.35 -1.85133 -2.66264 0
M  V30 10615 H 1040.13 -3.44244 -1.87719 0
M  V30 10616 H 1041.62 -3.09443 -2.80419 0
M  V30 10617 N 1042.06 0.170153 -1.56679 0
M  V30 10618 C 1042.99 1.21285 -1.9953 0
M  V30 10619 C 1043.97 1.46104 -0.871071 0
M  V30 10620 O 1045.16 1.57419 -1.13724 0
M  V30 10621 C 1042.29 2.5515 -2.35618 0
M  V30 10622 C 1041.24 2.44898 -3.51011 0
M  V30 10623 C 1040.57 3.83263 -3.72845 0
M  V30 10624 C 1041.87 1.95271 -4.84424 0
M  V30 10625 H 1043.56 0.856646 -2.86883 0
M  V30 10626 H 1041.11 0.410634 -1.38021 0
M  V30 10627 H 1043.06 3.28299 -2.64193 0
M  V30 10628 H 1041.78 2.92561 -1.45175 0
M  V30 10629 H 1040.44 1.74203 -3.22566 0
M  V30 10630 H 1040.09 4.18069 -2.79691 0
M  V30 10631 H 1039.79 3.77272 -4.50488 0
M  V30 10632 H 1041.31 4.57996 -4.03822 0
M  V30 10633 H 1042.73 2.58195 -5.11867 0
M  V30 10634 H 1041.13 2.00225 -5.65712 0
M  V30 10635 H 1042.2 0.90709 -4.7634 0
M  V30 10636 N 1043.54 1.5137 0.438746 0
M  V30 10637 C 1044.79 1.63645 1.18595 0
M  V30 10638 C 1045.11 0.354241 1.91755 0
M  V30 10639 O 1044.38 -0.629838 1.85499 0
M  V30 10640 H 1042.96 0.603103 0.440767 0
M  V30 10641 H 1045.62 1.88293 0.503159 0
M  V30 10642 H 1044.72 2.46342 1.9163 0
M  V30 10643 N 1045.02 -0.694098 1.41492 0
M  V30 10644 C 1045.98 -1.78976 1.43179 0
M  V30 10645 C 1046.98 -1.57539 0.322191 0
M  V30 10646 O 1048.17 -1.64185 0.582138 0
M  V30 10647 C 1045.3 -3.17368 1.2446 0
M  V30 10648 H 1046.49 -1.78874 2.40716 0
M  V30 10649 H 1044.05 -0.901867 1.27656 0
M  V30 10650 H 1044.78 -3.23109 0.277691 0
M  V30 10651 H 1044.57 -3.3433 2.04856 0
M  V30 10652 H 1046.06 -3.97345 1.28479 0
M  V30 10653 N 1046.49 -1.27344 -0.928501 0
M  V30 10654 C 1047.74 -1.13411 -1.67279 0
M  V30 10655 C 1048.06 0.320698 -1.92345 0
M  V30 10656 O 1047.33 1.2245 -1.52915 0
M  V30 10657 H 1045.91 -0.416712 -0.619968 0
M  V30 10658 H 1048.58 -1.5986 -1.11493 0
M  V30 10659 H 1047.67 -1.66256 -2.64131 0
M  V30 10660 N 1047.97 1.13488 -1.09353 0
M  V30 10661 C 1049.21 1.86397 -0.83877 0
M  V30 10662 C 1049.58 1.81568 0.624259 0
M  V30 10663 O 1050.78 2.49709 0.994923 0
M  V30 10664 C 1049.05 3.30583 -1.35828 0
M  V30 10665 S 1050.61 4.20995 -1.23728 0
M  V30 10666 H 1047.43 0.643022 -0.303387 0
M  V30 10667 H 1050.03 1.36788 -1.39676 0
M  V30 10668 H 1048.73 3.31652 -2.41734 0
M  V30 10669 H 1048.26 3.85255 -0.796386 0
M  V30 10670 H 1050.28 4.95845 -0.187745 0
M  V30 10671 N 1049.45 0.880621 1.30701 0
M  V30 10672 C 1050.87 0.574015 1.4892 0
M  V30 10673 C 1051.07 -0.889312 1.80813 0
M  V30 10674 O 1050.12 -1.67082 1.89314 0
M  V30 10675 C 1051.44 1.48341 2.61563 0
M  V30 10676 C 1052.98 1.48658 2.75445 0
M  V30 10677 C 1053.46 2.3818 3.91196 0
M  V30 10678 N 1054.95 2.36119 3.985 0
M  V30 10679 C 1055.69 3.02101 4.87363 0
M  V30 10680 N 1055.18 3.77293 5.81052 0
M  V30 10681 N 1056.97 2.91356 4.80696 0
M  V30 10682 H 1049.13 1.82732 1.08271 0
M  V30 10683 H 1051.39 0.781939 0.535981 0
M  V30 10684 H 1051.09 2.52515 2.44804 0
M  V30 10685 H 1050.97 1.18977 3.57944 0
M  V30 10686 H 1053.36 0.452374 2.91612 0
M  V30 10687 H 1053.44 1.8205 1.79698 0
M  V30 10688 H 1053.08 3.41683 3.75786 0
M  V30 10689 H 1053.01 2.02106 4.86272 0
M  V30 10690 H 1055.5 1.81474 3.31475 0
M  V30 10691 H 1055.81 4.24742 6.45612 0
M  V30 10692 H 1054.16 3.81401 5.80998 0
M  V30 10693 H 1057.35 2.32143 4.06481 0
M  V30 10694 H 1057.52 3.43056 5.49742 0
M  V30 10695 N 1050.93 -1.4397 0.641131 0
M  V30 10696 C 1051.84 -2.34526 -0.058742 0
M  V30 10697 C 1052.86 -1.53194 -0.825088 0
M  V30 10698 O 1054.03 -1.85888 -0.775081 0
M  V30 10699 C 1051.1 -3.31313 -1.02139 0
M  V30 10700 C 1050.16 -4.28552 -0.253319 0
M  V30 10701 C 1049.39 -5.20715 -1.17012 0
M  V30 10702 O 1049.61 -5.17028 -2.40911 0
M  V30 10703 O 1048.55 -5.9839 -0.649039 0
M  V30 10704 H 1052.37 -2.95843 0.686329 0
M  V30 10705 H 1049.96 -1.43909 0.401316 0
M  V30 10706 H 1051.84 -3.90862 -1.57496 0
M  V30 10707 H 1050.52 -2.72516 -1.7469 0
M  V30 10708 H 1049.42 -3.72519 0.343531 0
M  V30 10709 H 1050.76 -4.90297 0.432372 0
M  V30 10710 N 1052.41 -0.382291 -1.52893 0
M  V30 10711 C 1053.66 0.203342 -2.00672 0
M  V30 10712 C 1053.97 1.48487 -1.27322 0
M  V30 10713 O 1055.18 2.15013 -1.65776 0
M  V30 10714 C 1053.63 0.412922 -3.57523 0
M  V30 10715 C 1053.24 -0.854949 -4.39767 0
M  V30 10716 C 1054.98 0.955301 -4.13611 0
M  V30 10717 C 1052.89 -0.614033 -5.88204 0
M  V30 10718 H 1051.82 0.0797635 -0.749769 0
M  V30 10719 H 1054.47 -0.50361 -1.76454 0
M  V30 10720 H 1052.85 1.18155 -3.77962 0
M  V30 10721 H 1054.03 -1.62765 -4.31096 0
M  V30 10722 H 1052.34 -1.32176 -3.94865 0
M  V30 10723 H 1054.94 1.15114 -5.22162 0
M  V30 10724 H 1055.28 1.92233 -3.69259 0
M  V30 10725 H 1055.82 0.24642 -3.97036 0
M  V30 10726 H 1052.55 -1.55187 -6.36865 0
M  V30 10727 H 1052.07 0.119865 -5.9968 0
M  V30 10728 H 1053.75 -0.245895 -6.46533 0
M  V30 10729 N 1053.89 1.57202 -0.111913 0
M  V30 10730 C 1055.13 1.95239 0.548607 0
M  V30 10731 C 1055.46 0.994897 1.6678 0
M  V30 10732 O 1054.74 0.0308603 1.94476 0
M  V30 10733 C 1055.02 3.43271 1.08798 0
M  V30 10734 C 1054.88 4.49792 -0.0273064 0
M  V30 10735 C 1056.19 3.92989 1.98109 0
M  V30 10736 H 1053.31 0.709919 0.197951 0
M  V30 10737 H 1055.96 1.89087 -0.186036 0
M  V30 10738 H 1054.11 3.48644 1.71404 0
M  V30 10739 H 1055.78 4.56521 -0.662302 0
M  V30 10740 H 1054.02 4.28254 -0.691426 0
M  V30 10741 H 1054.69 5.50612 0.391201 0
M  V30 10742 H 1057.17 3.89875 1.45385 0
M  V30 10743 H 1056.04 4.97101 2.32769 0
M  V30 10744 H 1056.3 3.33267 2.90492 0
M  V30 10745 N 1055.36 -0.161842 1.56767 0
M  V30 10746 C 1056.59 -0.896274 1.87034 0
M  V30 10747 C 1057.01 -1.74617 0.699314 0
M  V30 10748 O 1056.37 -1.77861 -0.351435 0
M  V30 10749 C 1056.42 -1.74105 3.15784 0
M  V30 10750 O 1055.52 -2.84372 2.98674 0
M  V30 10751 H 1054.86 -0.250523 0.614926 0
M  V30 10752 H 1057.39 -0.157127 2.03996 0
M  V30 10753 H 1057.4 -2.13907 3.4743 0
M  V30 10754 H 1056.08 -1.11684 4.00624 0
M  V30 10755 H 1054.66 -2.48084 2.78404 0
M  V30 10756 N 1056.84 -1.516 -0.430713 0
M  V30 10757 C 1057.77 -1.76342 -1.53054 0
M  V30 10758 C 1058.75 -0.61349 -1.58652 0
M  V30 10759 O 1059.94 -0.856888 -1.74273 0
M  V30 10760 C 1057.07 -1.8945 -2.91077 0
M  V30 10761 C 1056.02 -3.04928 -3.00339 0
M  V30 10762 C 1055.35 -3.03228 -4.40405 0
M  V30 10763 C 1056.65 -4.44777 -2.73808 0
M  V30 10764 H 1058.34 -2.68435 -1.326 0
M  V30 10765 H 1055.89 -1.29171 -0.636466 0
M  V30 10766 H 1057.84 -2.05343 -3.67984 0
M  V30 10767 H 1056.56 -0.940114 -3.12777 0
M  V30 10768 H 1055.22 -2.88751 -2.25872 0
M  V30 10769 H 1054.87 -2.05553 -4.59083 0
M  V30 10770 H 1054.57 -3.80776 -4.47531 0
M  V30 10771 H 1056.1 -3.21222 -5.19277 0
M  V30 10772 H 1057.51 -4.6127 -3.40445 0
M  V30 10773 H 1055.91 -5.2408 -2.92335 0
M  V30 10774 H 1056.98 -4.54358 -1.69372 0
M  V30 10775 N 1058.32 0.686584 -1.41858 0
M  V30 10776 C 1059.25 1.81202 -1.40352 0
M  V30 10777 C 1060.26 1.5993 -0.304322 0
M  V30 10778 O 1061.45 1.69267 -0.566643 0
M  V30 10779 C 1058.55 3.18116 -1.16856 0
M  V30 10780 C 1057.73 3.66339 -2.38987 0
M  V30 10781 C 1056.79 4.8195 -2.11212 0
M  V30 10782 O 1055.81 4.93102 -2.84323 0
M  V30 10783 N 1057.01 5.69829 -1.10793 0
M  V30 10784 H 1059.78 1.82983 -2.37355 0
M  V30 10785 H 1057.34 0.869244 -1.36586 0
M  V30 10786 H 1059.33 3.93097 -0.962125 0
M  V30 10787 H 1057.9 3.11306 -0.284186 0
M  V30 10788 H 1057.12 2.82166 -2.75274 0
M  V30 10789 H 1058.41 3.95297 -3.2034 0
M  V30 10790 H 1057.81 5.63459 -0.503012 0
M  V30 10791 H 1056.36 6.44671 -0.961379 0
M  V30 10792 N 1059.8 1.27835 0.921735 0
M  V30 10793 C 1061.04 1.14692 1.67253 0
M  V30 10794 C 1061.38 -0.305384 1.91784 0
M  V30 10795 O 1060.65 -1.22286 1.51249 0
M  V30 10796 C 1060.93 1.93743 3.03539 0
M  V30 10797 C 1060.79 3.46991 2.86212 0
M  V30 10798 C 1062.11 1.74658 4.03959 0
M  V30 10799 H 1059.23 0.418021 0.606983 0
M  V30 10800 H 1061.87 1.5706 1.06922 0
M  V30 10801 H 1060.02 1.57738 3.55037 0
M  V30 10802 H 1061.69 3.92858 2.41785 0
M  V30 10803 H 1059.93 3.73029 2.21432 0
M  V30 10804 H 1060.6 3.97551 3.82958 0
M  V30 10805 H 1063.08 2.06063 3.61493 0
M  V30 10806 H 1061.96 2.32353 4.97296 0
M  V30 10807 H 1062.22 0.696019 4.36587 0
M  V30 10808 N 1061.28 -1.12907 1.09954 0
M  V30 10809 C 1062.24 -2.16673 0.747364 0
M  V30 10810 C 1063.24 -1.59208 -0.225741 0
M  V30 10811 O 1064.43 -1.742 -0.00322482 0
M  V30 10812 C 1061.56 -3.40735 0.106169 0
M  V30 10813 H 1062.75 -2.49341 1.6664 0
M  V30 10814 H 1060.31 -1.27828 0.899421 0
M  V30 10815 H 1061.04 -3.13661 -0.82384 0
M  V30 10816 H 1060.83 -3.83717 0.806434 0
M  V30 10817 H 1062.32 -4.17414 -0.12464 0
M  V30 10818 N 1062.75 -0.88754 -1.30232 0
M  V30 10819 C 1064.16 -0.55745 -1.78184 0
M  V30 10820 C 1064.52 0.926474 -1.72948 0
M  V30 10821 O 1063.64 1.72403 -1.3079 0
M  V30 10822 C 1064.24 -1.00512 -3.23547 0
M  V30 10823 C 1062.79 -0.726402 -3.69324 0
M  V30 10824 C 1061.94 -1.18666 -2.50627 0
M  V30 10825 H 1064.89 -1.07151 -1.17066 0
M  V30 10826 H 1064.91 -0.335185 -3.79021 0
M  V30 10827 H 1064.43 -2.08517 -3.27326 0
M  V30 10828 H 1062.53 0.341548 -3.71031 0
M  V30 10829 H 1062.64 -1.31575 -4.60679 0
M  V30 10830 H 1061 -0.605936 -2.47387 0
M  V30 10831 H 1061.79 -2.2745 -2.57141 0
M  V30 10832 N 1064.23 1.43628 -0.648757 0
M  V30 10833 C 1065.16 2.33478 0.0320785 0
M  V30 10834 C 1066.14 1.49217 0.816605 0
M  V30 10835 O 1067.33 1.77892 0.778974 0
M  V30 10836 C 1064.46 3.32525 1.00222 0
M  V30 10837 C 1063.41 4.2674 0.328119 0
M  V30 10838 C 1062.74 5.15791 1.4094 0
M  V30 10839 C 1064.04 5.16493 -0.776701 0
M  V30 10840 H 1065.73 2.90657 -0.718257 0
M  V30 10841 H 1063.28 1.3976 -0.346852 0
M  V30 10842 H 1065.23 3.94277 1.4874 0
M  V30 10843 H 1063.96 2.73593 1.78366 0
M  V30 10844 H 1062.61 3.66346 -0.136569 0
M  V30 10845 H 1062.26 4.53201 2.18216 0
M  V30 10846 H 1061.96 5.79645 0.963631 0
M  V30 10847 H 1063.49 5.80416 1.89603 0
M  V30 10848 H 1064.9 5.7208 -0.373878 0
M  V30 10849 H 1063.3 5.89043 -1.14667 0
M  V30 10850 H 1064.37 4.56448 -1.63654 0
M  V30 10851 N 1065.71 0.390394 1.52688 0
M  V30 10852 C 1066.66 -0.461191 2.23287 0
M  V30 10853 C 1067.64 -1.02875 1.23716 0
M  V30 10854 O 1068.84 -0.954675 1.49047 0
M  V30 10855 C 1065.97 -1.58736 3.04397 0
M  V30 10856 C 1065.05 -1.03149 4.11365 0
M  V30 10857 N 1065.44 -0.20066 5.05402 0
M  V30 10858 C 1063.74 -1.30388 4.26515 0
M  V30 10859 C 1064.44 0.106548 5.81602 0
M  V30 10860 N 1063.42 -0.497687 5.41317 0
M  V30 10861 H 1067.22 0.1801 2.93348 0
M  V30 10862 H 1064.73 0.199761 1.61167 0
M  V30 10863 H 1066.73 -2.20986 3.53512 0
M  V30 10864 H 1065.39 -2.23147 2.35872 0
M  V30 10865 H 1066.4 0.162168 5.17646 0
M  V30 10866 H 1063.08 -1.94894 3.69219 0
M  V30 10867 H 1064.47 0.779778 6.6736 0
M  V30 10868 N 1067.19 -1.57141 0.120249 0
M  V30 10869 C 1068.6 -1.82256 -0.404931 0
M  V30 10870 C 1068.95 -1.03748 -1.66526 0
M  V30 10871 O 1068.08 -0.274456 -2.14653 0
M  V30 10872 C 1068.67 -3.30588 -0.741431 0
M  V30 10873 C 1067.23 -3.56379 -1.21124 0
M  V30 10874 C 1066.38 -2.76421 -0.220569 0
M  V30 10875 H 1069.33 -1.54897 0.345361 0
M  V30 10876 H 1069.35 -3.45284 -1.59872 0
M  V30 10877 H 1068.86 -3.87701 0.176036 0
M  V30 10878 H 1066.96 -3.04625 -2.14556 0
M  V30 10879 H 1067.07 -4.64952 -1.1557 0
M  V30 10880 H 1065.44 -2.44666 -0.707857 0
M  V30 10881 H 1066.22 -3.36294 0.690018 0
M  V30 10882 N 1068.67 0.153526 -1.5685 0
M  V30 10883 C 1069.91 0.873522 -1.84794 0
M  V30 10884 C 1070.27 1.78642 -0.703648 0
M  V30 10885 O 1071.47 2.54537 -0.863972 0
M  V30 10886 C 1069.74 1.63316 -3.17904 0
M  V30 10887 S 1071.3 2.39948 -3.67383 0
M  V30 10888 H 1068.12 0.292233 -0.648167 0
M  V30 10889 H 1070.72 0.133949 -1.95041 0
M  V30 10890 H 1069.43 0.95387 -3.99161 0
M  V30 10891 H 1068.96 2.41377 -3.10646 0
M  V30 10892 H 1070.97 3.65011 -3.36127 0
M  V30 10893 N 1070.14 1.51827 0.422667 0
M  V30 10894 C 1071.08 1.70409 1.53275 0
M  V30 10895 C 1072.09 0.584584 1.51942 0
M  V30 10896 O 1073.28 0.859349 1.56453 0
M  V30 10897 C 1070.38 1.717 2.92185 0
M  V30 10898 C 1069.55 3.00472 3.17861 0
M  V30 10899 C 1068.61 2.93755 4.36571 0
M  V30 10900 O 1067.64 3.67682 4.3451 0
M  V30 10901 N 1068.84 2.10612 5.40946 0
M  V30 10902 H 1071.6 2.66176 1.37734 0
M  V30 10903 H 1069.16 1.49895 0.611799 0
M  V30 10904 H 1071.16 1.64756 3.69645 0
M  V30 10905 H 1069.73 0.834655 3.01251 0
M  V30 10906 H 1068.95 3.21171 2.28567 0
M  V30 10907 H 1070.23 3.85684 3.31851 0
M  V30 10908 H 1069.63 1.49954 5.45463 0
M  V30 10909 H 1068.19 2.09535 6.17202 0
M  V30 10910 N 1071.62 -0.679052 1.4222 0
M  V30 10911 C 1072.55 -1.80455 1.41311 0
M  V30 10912 C 1073.57 -1.59767 0.312799 0
M  V30 10913 O 1074.76 -1.68964 0.575612 0
M  V30 10914 C 1071.86 -3.17492 1.18541 0
M  V30 10915 C 1071.03 -3.65066 2.40926 0
M  V30 10916 C 1070.09 -4.80823 2.13765 0
M  V30 10917 O 1069.11 -4.91587 2.86934 0
M  V30 10918 N 1070.32 -5.69233 1.13813 0
M  V30 10919 H 1073.08 -1.81722 2.38322 0
M  V30 10920 H 1070.64 -0.861988 1.37045 0
M  V30 10921 H 1072.63 -3.92581 0.982958 0
M  V30 10922 H 1071.2 -3.1115 0.300691 0
M  V30 10923 H 1070.42 -2.80702 2.76767 0
M  V30 10924 H 1071.71 -3.93593 3.22431 0
M  V30 10925 H 1071.11 -5.63185 0.532887 0
M  V30 10926 H 1069.67 -6.44152 0.995554 0
M  V30 10927 N 1073.1 -1.28322 -0.914942 0
M  V30 10928 C 1074.51 -1.13937 -1.47903 0
M  V30 10929 C 1074.86 0.271072 -1.94318 0
M  V30 10930 O 1073.99 1.16522 -1.8235 0
M  V30 10931 C 1074.58 -2.06221 -2.68809 0
M  V30 10932 C 1073.14 -1.95903 -3.21402 0
M  V30 10933 C 1072.29 -1.98031 -1.94111 0
M  V30 10934 H 1075.24 -1.41029 -0.727772 0
M  V30 10935 H 1075.26 -1.6255 -3.44031 0
M  V30 10936 H 1074.77 -3.08866 -2.34997 0
M  V30 10937 H 1072.87 -0.962907 -3.59943 0
M  V30 10938 H 1072.99 -2.82799 -3.86732 0
M  V30 10939 H 1071.35 -1.42423 -2.11158 0
M  V30 10940 H 1072.13 -3.02354 -1.62595 0
M  V30 10941 N 1074.58 1.12322 -1.10551 0
M  V30 10942 C 1075.81 1.87679 -0.87087 0
M  V30 10943 C 1076.22 1.79711 0.578733 0
M  V30 10944 O 1075.58 1.17185 1.39907 0
M  V30 10945 C 1075.63 3.36846 -1.31213 0
M  V30 10946 O 1075.35 3.44626 -2.70489 0
M  V30 10947 C 1076.85 4.29138 -1.11156 0
M  V30 10948 H 1074.07 0.593788 -0.3125 0
M  V30 10949 H 1076.62 1.42116 -1.47048 0
M  V30 10950 H 1074.77 3.79948 -0.756169 0
M  V30 10951 H 1075.18 4.37441 -2.89389 0
M  V30 10952 H 1076.66 5.32082 -1.46944 0
M  V30 10953 H 1077.14 4.39171 -0.0502963 0
M  V30 10954 H 1077.74 3.91818 -1.65405 0
M  V30 10955 N 1076.06 0.894434 1.2976 0
M  V30 10956 C 1077.47 0.589778 1.48303 0
M  V30 10957 C 1077.67 -0.870085 1.81746 0
M  V30 10958 O 1076.73 -1.65065 1.91076 0
M  V30 10959 C 1078.04 1.51107 2.59975 0
M  V30 10960 C 1079.59 1.51571 2.73853 0
M  V30 10961 C 1080.06 2.42316 3.88648 0
M  V30 10962 N 1081.56 2.40333 3.95973 0
M  V30 10963 C 1082.29 3.07254 4.84131 0
M  V30 10964 N 1081.79 3.83435 5.77018 0
M  V30 10965 N 1083.58 2.96438 4.77578 0
M  V30 10966 H 1075.73 1.83871 1.06327 0
M  V30 10967 H 1077.99 0.78758 0.527657 0
M  V30 10968 H 1077.7 2.55097 2.42112 0
M  V30 10969 H 1077.57 1.22767 3.56662 0
M  V30 10970 H 1079.96 0.483277 2.91116 0
M  V30 10971 H 1080.04 1.83946 1.77757 0
M  V30 10972 H 1079.69 3.4565 3.72141 0
M  V30 10973 H 1079.62 2.07252 4.84101 0
M  V30 10974 H 1082.11 1.84979 3.29532 0
M  V30 10975 H 1082.42 4.31565 6.4107 0
M  V30 10976 H 1080.76 3.87542 5.7692 0
M  V30 10977 H 1083.96 2.36442 4.03996 0
M  V30 10978 H 1084.13 3.48867 5.46073 0
M  V30 10979 N 1077.53 -1.43282 0.656365 0
M  V30 10980 C 1078.78 -2.01776 0.171039 0
M  V30 10981 C 1079.11 -1.51795 -1.21609 0
M  V30 10982 O 1078.36 -0.702864 -1.82643 0
M  V30 10983 C 1078.66 -3.57148 0.134225 0
M  V30 10984 C 1078.33 -4.26488 1.46352 0
M  V30 10985 C 1076.99 -4.45146 1.82753 0
M  V30 10986 C 1079.34 -4.65728 2.33981 0
M  V30 10987 C 1076.67 -5.0031 3.06443 0
M  V30 10988 C 1079.02 -5.22263 3.56966 0
M  V30 10989 C 1077.69 -5.39136 3.93559 0
M  V30 10990 H 1076.96 -0.738352 0.0625878 0
M  V30 10991 H 1079.6 -1.71716 0.847697 0
M  V30 10992 H 1077.91 -3.86768 -0.625892 0
M  V30 10993 H 1079.61 -4.00168 -0.258207 0
M  V30 10994 H 1076.2 -4.12313 1.1703 0
M  V30 10995 H 1080.38 -4.51003 2.07148 0
M  V30 10996 H 1075.64 -5.11559 3.34839 0
M  V30 10997 H 1079.81 -5.51614 4.25082 0
M  V30 10998 H 1077.44 -5.81646 4.89481 0
M  V30 10999 N 1079.01 -0.398486 -1.52479 0
M  V30 11000 C 1080.24 0.183059 -2.06591 0
M  V30 11001 C 1080.66 1.3898 -1.26753 0
M  V30 11002 O 1080.02 1.78885 -0.294959 0
M  V30 11003 C 1080.07 0.522392 -3.56796 0
M  V30 11004 O 1079.17 1.61499 -3.79462 0
M  V30 11005 H 1078.51 0.0188411 -0.663733 0
M  V30 11006 H 1081.04 -0.56861 -1.9654 0
M  V30 11007 H 1081.05 0.784078 -4.00395 0
M  V30 11008 H 1079.73 -0.359807 -4.14341 0
M  V30 11009 H 1078.31 1.3463 -3.47749 0
M  V30 11010 N 1080.49 1.57075 -0.12858 0
M  V30 11011 C 1081.44 2.17084 0.835308 0
M  V30 11012 C 1082.43 1.12268 1.26855 0
M  V30 11013 O 1083.64 1.30554 1.23917 0
M  V30 11014 H 1080.01 0.694866 0.287516 0
M  V30 11015 H 1081.99 2.96839 0.304798 0
M  V30 11016 C 1080.73 2.79237 2.07177 0
M  V30 11017 H 1080.06 3.59594 1.74735 0
M  V30 11018 H 1081.5 3.24751 2.72604 0
M  V30 11019 C 1079.96 1.76803 2.86779 0
M  V30 11020 O 1080.49 1.22723 3.82494 0
M  V30 11021 N 1078.69 1.46525 2.50956 0
M  V30 11022 H 1078.24 1.90694 1.73187 0
M  V30 11023 H 1078.2 0.782326 3.04511 0
M  V30 11024 N 1081.97 -0.145205 1.5693 0
M  V30 11025 C 1083.39 -0.497905 1.51635 0
M  V30 11026 C 1083.59 -1.8328 0.837301 0
M  V30 11027 O 1082.64 -2.49172 0.408584 0
M  V30 11028 C 1083.95 -0.506557 2.96403 0
M  V30 11029 C 1085.5 -0.591947 3.07352 0
M  V30 11030 C 1085.98 -0.631244 4.53629 0
M  V30 11031 N 1087.47 -0.693417 4.5798 0
M  V30 11032 C 1088.2 -0.744836 5.68542 0
M  V30 11033 N 1087.7 -0.755492 6.88668 0
M  V30 11034 N 1089.49 -0.785854 5.5658 0
M  V30 11035 H 1081.64 0.729779 1.99469 0
M  V30 11036 H 1083.91 0.266295 0.90983 0
M  V30 11037 H 1083.61 0.406127 3.49347 0
M  V30 11038 H 1083.49 -1.34383 3.5245 0
M  V30 11039 H 1085.87 -1.49505 2.54425 0
M  V30 11040 H 1085.95 0.272507 2.54344 0
M  V30 11041 H 1085.6 0.26771 5.07194 0
M  V30 11042 H 1085.53 -1.51221 5.0442 0
M  V30 11043 H 1088.02 -0.692408 3.71503 0
M  V30 11044 H 1088.33 -0.796624 7.68683 0
M  V30 11045 H 1086.68 -0.723339 6.91226 0
M  V30 11046 H 1089.87 -0.774712 4.61645 0
M  V30 11047 H 1090.04 -0.822461 6.42759 0
M  V30 11048 N 1083.45 -1.52049 -0.414609 0
M  V30 11049 C 1084.69 -1.67511 -1.17129 0
M  V30 11050 C 1085.05 -0.39383 -1.87917 0
M  V30 11051 O 1086.25 -0.424496 -2.65427 0
M  V30 11052 C 1084.52 -2.85982 -2.14357 0
M  V30 11053 S 1086.08 -3.21898 -2.98206 0
M  V30 11054 H 1082.9 -0.589923 -0.396877 0
M  V30 11055 H 1085.5 -1.90025 -0.459409 0
M  V30 11056 H 1084.21 -3.77488 -1.6103 0
M  V30 11057 H 1083.74 -2.65725 -2.90092 0
M  V30 11058 H 1085.75 -2.70095 -4.16249 0
M  V30 11059 N 1084.93 0.6715 -1.42579 0
M  V30 11060 C 1085.86 1.79693 -1.49107 0
M  V30 11061 C 1086.84 1.66516 -0.347338 0
M  V30 11062 O 1088.02 1.85887 -0.562094 0
M  V30 11063 C 1085.15 3.1801 -1.39596 0
M  V30 11064 C 1084.11 3.45926 -2.5203 0
M  V30 11065 C 1083.43 4.83852 -2.27577 0
M  V30 11066 C 1084.73 3.4249 -3.94333 0
M  V30 11067 H 1086.43 1.74486 -2.433 0
M  V30 11068 H 1083.97 0.838042 -1.17102 0
M  V30 11069 H 1085.92 3.96478 -1.42771 0
M  V30 11070 H 1084.65 3.23901 -0.418989 0
M  V30 11071 H 1083.31 2.6982 -2.48178 0
M  V30 11072 H 1082.96 4.86398 -1.28165 0
M  V30 11073 H 1082.66 5.03493 -3.02934 0
M  V30 11074 H 1084.18 5.646 -2.32506 0
M  V30 11075 H 1085.59 4.10922 -3.9977 0
M  V30 11076 H 1083.99 3.73666 -4.69568 0
M  V30 11077 H 1085.06 2.41002 -4.20768 0
M  V30 11078 N 1086.4 1.28806 0.908124 0
M  V30 11079 C 1087.34 1.09018 2.01613 0
M  V30 11080 C 1088.35 0.0402059 1.6275 0
M  V30 11081 O 1089.54 0.283853 1.76229 0
M  V30 11082 C 1086.64 0.635712 3.32884 0
M  V30 11083 C 1085.81 1.76235 4.00325 0
M  V30 11084 C 1084.87 1.3003 5.09881 0
M  V30 11085 O 1083.9 2.00354 5.32773 0
M  V30 11086 N 1085.1 0.166575 5.80261 0
M  V30 11087 H 1087.86 2.0444 2.19144 0
M  V30 11088 H 1085.42 1.20633 1.07978 0
M  V30 11089 H 1087.42 0.310097 4.0351 0
M  V30 11090 H 1085.99 -0.225816 3.11783 0
M  V30 11091 H 1085.21 2.25727 3.23173 0
M  V30 11092 H 1086.49 2.51796 4.42127 0
M  V30 11093 H 1085.89 -0.419934 5.64139 0
M  V30 11094 H 1084.45 -0.0997281 6.51724 0
M  V30 11095 N 1087.88 -1.11734 1.11145 0
M  V30 11096 C 1088.81 -2.16847 0.710809 0
M  V30 11097 C 1089.79 -1.59966 -0.291494 0
M  V30 11098 O 1090.98 -1.87554 -0.188645 0
M  V30 11099 C 1088.1 -3.38663 0.0499744 0
M  V30 11100 C 1087.15 -4.14199 1.01693 0
M  V30 11101 S 1087.98 -4.7154 2.53793 0
M  V30 11102 C 1089.14 -5.96682 1.89001 0
M  V30 11103 H 1089.37 -2.50497 1.60121 0
M  V30 11104 H 1086.9 -1.23311 0.929182 0
M  V30 11105 H 1088.86 -4.09212 -0.324959 0
M  V30 11106 H 1087.52 -3.03279 -0.817335 0
M  V30 11107 H 1086.72 -5.01494 0.501933 0
M  V30 11108 H 1086.32 -3.49395 1.33414 0
M  V30 11109 H 1088.61 -6.6634 1.22462 0
M  V30 11110 H 1089.55 -6.52821 2.74282 0
M  V30 11111 H 1089.96 -5.48084 1.35145 0
M  V30 11112 N 1089.36 -0.901303 -1.29284 0
M  V30 11113 C 1090.61 -0.52401 -1.94774 0
M  V30 11114 C 1090.92 0.934645 -1.71825 0
M  V30 11115 O 1092.13 1.41953 -2.31434 0
M  V30 11116 C 1090.58 -0.886262 -3.48817 0
M  V30 11117 C 1090.19 -2.3638 -3.80564 0
M  V30 11118 C 1091.94 -0.578955 -4.20533 0
M  V30 11119 C 1089.84 -2.66682 -5.27858 0
M  V30 11120 H 1088.77 -0.192244 -0.72908 0
M  V30 11121 H 1091.42 -1.09852 -1.46986 0
M  V30 11122 H 1089.81 -0.240666 -3.95268 0
M  V30 11123 H 1090.98 -3.05508 -3.44966 0
M  V30 11124 H 1089.29 -2.64029 -3.2199 0
M  V30 11125 H 1091.89 -0.782185 -5.28948 0
M  V30 11126 H 1092.23 0.482605 -4.13493 0
M  V30 11127 H 1092.77 -1.18246 -3.79819 0
M  V30 11128 H 1089.51 -3.71643 -5.39965 0
M  V30 11129 H 1089.03 -2.02179 -5.64698 0
M  V30 11130 H 1090.71 -2.53033 -5.95469 0
M  V30 11131 N 1090.84 1.42931 -0.663954 0
M  V30 11132 C 1092.09 2.01284 -0.181379 0
M  V30 11133 C 1092.41 1.52708 1.21265 0
M  V30 11134 O 1091.68 0.744181 1.81215 0
M  V30 11135 H 1090.26 0.744248 -0.0640646 0
M  V30 11136 H 1092.92 1.74997 -0.858031 0
M  V30 11137 H 1092.01 3.11613 -0.174273 0
M  V30 11138 N 1092.32 0.406567 1.52266 0
M  V30 11139 C 1093.73 0.0573228 1.59497 0
M  V30 11140 C 1093.93 -1.43005 1.41957 0
M  V30 11141 O 1092.99 -2.19659 1.24523 0
M  V30 11142 C 1094.3 0.549947 2.95628 0
M  V30 11143 C 1095.85 0.5077 3.08855 0
M  V30 11144 C 1096.32 0.976792 4.47463 0
M  V30 11145 N 1097.81 0.933508 4.53696 0
M  V30 11146 C 1098.55 1.26769 5.59211 0
M  V30 11147 N 1098.05 1.6732 6.72292 0
M  V30 11148 N 1099.84 1.18782 5.49406 0
M  V30 11149 H 1091.99 1.37468 1.61914 0
M  V30 11150 H 1094.25 0.564562 0.76156 0
M  V30 11151 H 1093.96 1.58943 3.13736 0
M  V30 11152 H 1093.83 -0.0417767 3.77177 0
M  V30 11153 H 1096.22 -0.522728 2.90433 0
M  V30 11154 H 1096.3 1.13545 2.29219 0
M  V30 11155 H 1095.94 2.00554 4.66627 0
M  V30 11156 H 1095.87 0.325885 5.25591 0
M  V30 11157 H 1098.37 0.635333 3.72521 0
M  V30 11158 H 1098.68 1.91137 7.4879 0
M  V30 11159 H 1097.02 1.71221 6.73579 0
M  V30 11160 H 1100.21 0.869906 4.59946 0
M  V30 11161 H 1100.39 1.45157 6.31533 0
M  V30 11162 N 1093.79 -1.57004 0.136909 0
M  V30 11163 C 1095.03 -1.97686 -0.519583 0
M  V30 11164 C 1095.4 -1.01951 -1.62696 0
M  V30 11165 O 1096.6 -1.31639 -2.3436 0
M  V30 11166 C 1094.87 -3.42474 -1.02206 0
M  V30 11167 S 1096.43 -4.05176 -1.68457 0
M  V30 11168 H 1093.25 -0.690787 -0.168329 0
M  V30 11169 H 1095.85 -1.94187 0.226234 0
M  V30 11170 H 1094.55 -4.09887 -0.205194 0
M  V30 11171 H 1094.08 -3.49664 -1.80273 0
M  V30 11172 H 1096.1 -3.97401 -2.97131 0
M  V30 11173 N 1095.27 0.136881 -1.57004 0
M  V30 11174 C 1096.52 0.844147 -1.85056 0
M  V30 11175 C 1096.87 1.78328 -0.722278 0
M  V30 11176 O 1096.17 1.89557 0.279059 0
M  V30 11177 C 1096.36 1.64711 -3.17183 0
M  V30 11178 C 1096.19 0.787229 -4.42756 0
M  V30 11179 C 1094.96 0.448938 -5.03302 0
M  V30 11180 C 1097.16 0.112947 -5.14176 0
M  V30 11181 N 1095.14 -0.423481 -6.12438 0
M  V30 11182 C 1096.51 -0.619195 -6.169 0
M  V30 11183 C 1098.57 0.0346687 -4.97888 0
M  V30 11184 C 1097.27 -1.42224 -7.05099 0
M  V30 11185 C 1099.29 -0.755143 -5.86559 0
M  V30 11186 C 1098.66 -1.47553 -6.88772 0
M  V30 11187 H 1094.76 0.286398 -0.727668 0
M  V30 11188 H 1097.34 0.108903 -1.94395 0
M  V30 11189 H 1095.51 2.35352 -3.08972 0
M  V30 11190 H 1097.24 2.29833 -3.33105 0
M  V30 11191 H 1094 0.787068 -4.67014 0
M  V30 11192 H 1094.42 -0.851013 -6.7163 0
M  V30 11193 H 1099.06 0.577271 -4.18841 0
M  V30 11194 H 1096.78 -1.97606 -7.83567 0
M  V30 11195 H 1100.37 -0.817835 -5.76023 0
M  V30 11196 H 1099.25 -2.07687 -7.56198 0
M  V30 11197 N 1096.75 1.52266 0.40654 0
M  V30 11198 C 1098.16 1.58587 0.985241 0
M  V30 11199 C 1098.51 0.427955 1.91476 0
M  V30 11200 O 1097.64 -0.451341 2.11641 0
M  V30 11201 C 1098.23 2.87426 1.79365 0
M  V30 11202 C 1096.79 2.96217 2.32233 0
M  V30 11203 C 1095.94 2.53548 1.12288 0
M  V30 11204 H 1098.89 1.57598 0.186685 0
M  V30 11205 H 1098.91 2.72925 2.65127 0
M  V30 11206 H 1098.42 3.71682 1.11687 0
M  V30 11207 H 1096.52 2.1646 3.03275 0
M  V30 11208 H 1096.64 4.00511 2.62922 0
M  V30 11209 H 1095 2.07457 1.47763 0
M  V30 11210 H 1095.78 3.40181 0.461731 0
M  V30 11211 N 1098.23 -0.663929 1.42933 0
M  V30 11212 C 1099.18 -1.77007 1.4371 0
M  V30 11213 C 1100.16 -1.57945 0.306948 0
M  V30 11214 O 1101.35 -1.68239 0.549967 0
M  V30 11215 C 1098.48 -3.15535 1.3525 0
M  V30 11216 C 1097.57 -3.40183 2.53252 0
M  V30 11217 N 1097.96 -3.35357 3.78641 0
M  V30 11218 C 1096.26 -3.70861 2.47746 0
M  V30 11219 C 1096.96 -3.5979 4.57085 0
M  V30 11220 N 1095.94 -3.81084 3.87655 0
M  V30 11221 H 1099.74 -1.71686 2.3854 0
M  V30 11222 H 1097.25 -0.865191 1.37434 0
M  V30 11223 H 1099.25 -3.94816 1.33888 0
M  V30 11224 H 1097.91 -3.22046 0.414308 0
M  V30 11225 H 1098.92 -3.15011 4.11082 0
M  V30 11226 H 1095.6 -3.84552 1.62561 0
M  V30 11227 H 1096.99 -3.61928 5.6609 0
M  V30 11228 N 1099.71 -1.29285 -0.901281 0
M  V30 11229 C 1100.64 -1.16832 -2.0217 0
M  V30 11230 C 1101.62 -0.0629265 -1.69984 0
M  V30 11231 O 1102.8 -0.242123 -1.92685 0
M  V30 11232 C 1099.93 -0.842406 -3.36929 0
M  V30 11233 C 1098.89 -1.90394 -3.8332 0
M  V30 11234 C 1098.21 -1.43138 -5.15185 0
M  V30 11235 C 1099.51 -3.31254 -4.03817 0
M  V30 11236 H 1101.21 -2.10562 -2.12847 0
M  V30 11237 H 1098.75 -1.01375 -1.0227 0
M  V30 11238 H 1100.71 -0.741999 -4.14816 0
M  V30 11239 H 1099.43 0.130598 -3.26339 0
M  V30 11240 H 1098.09 -1.99371 -3.07647 0
M  V30 11241 H 1097.74 -0.447091 -5.01009 0
M  V30 11242 H 1097.44 -2.14129 -5.47195 0
M  V30 11243 H 1098.96 -1.34444 -5.95615 0
M  V30 11244 H 1100.37 -3.25129 -4.72191 0
M  V30 11245 H 1098.77 -4.00189 -4.47178 0
M  V30 11246 H 1099.84 -3.74349 -3.08206 0
M  V30 11247 N 1101.18 1.11143 -1.11736 0
M  V30 11248 C 1102.6 1.34962 -0.851905 0
M  V30 11249 C 1102.8 1.94627 0.521797 0
M  V30 11250 O 1101.86 2.18121 1.27198 0
M  V30 11251 C 1103.17 2.27832 -1.96248 0
M  V30 11252 C 1104.72 2.41388 -1.9925 0
M  V30 11253 C 1105.19 3.37582 -3.09519 0
M  V30 11254 N 1106.68 3.45147 -3.08914 0
M  V30 11255 C 1107.42 4.19527 -3.90876 0
M  V30 11256 N 1106.91 4.96858 -4.82809 0
M  V30 11257 N 1108.71 4.15071 -3.79042 0
M  V30 11258 H 1100.86 0.707801 -2.0026 0
M  V30 11259 H 1103.12 0.374172 -0.871033 0
M  V30 11260 H 1102.83 1.91189 -2.95194 0
M  V30 11261 H 1102.7 3.28078 -1.86132 0
M  V30 11262 H 1105.09 2.77304 -1.00928 0
M  V30 11263 H 1105.17 1.40983 -2.13442 0
M  V30 11264 H 1104.81 3.02393 -4.0807 0
M  V30 11265 H 1104.74 4.37849 -2.92568 0
M  V30 11266 H 1107.23 2.89991 -2.42309 0
M  V30 11267 H 1107.55 5.5099 -5.41876 0
M  V30 11268 H 1105.89 4.96008 -4.86828 0
M  V30 11269 H 1109.08 3.53748 -3.06562 0
M  V30 11270 H 1109.26 4.72781 -4.4315 0
M  V30 11271 N 1102.66 0.908147 1.28804 0
M  V30 11272 C 1103.63 0.397058 2.25735 0
M  V30 11273 C 1104.63 -0.473483 1.53671 0
M  V30 11274 O 1105.82 -0.277335 1.71978 0
M  V30 11275 C 1102.95 -0.431392 3.38159 0
M  V30 11276 H 1104.14 1.25323 2.72459 0
M  V30 11277 H 1101.69 0.687041 1.4039 0
M  V30 11278 H 1102.43 -1.3072 2.96787 0
M  V30 11279 H 1102.21 0.192502 3.91627 0
M  V30 11280 H 1103.7 -0.78 4.10251 0
M  V30 11281 N 1104.14 -1.42577 0.671525 0
M  V30 11282 C 1105.07 -2.33499 0.00506984 0
M  V30 11283 C 1106.05 -1.50497 -0.792763 0
M  V30 11284 O 1107.24 -1.79109 -0.750574 0
M  V30 11285 C 1104.37 -3.34077 -0.949194 0
M  V30 11286 C 1103.32 -4.27208 -0.260187 0
M  V30 11287 C 1102.65 -5.17968 -1.32716 0
M  V30 11288 C 1103.95 -5.15192 0.858772 0
M  V30 11289 H 1105.64 -2.89477 0.764407 0
M  V30 11290 H 1103.19 -1.39191 0.369043 0
M  V30 11291 H 1105.14 -3.96594 -1.42448 0
M  V30 11292 H 1103.86 -2.76396 -1.73991 0
M  V30 11293 H 1102.52 -3.66082 0.194834 0
M  V30 11294 H 1102.17 -4.56615 -2.10979 0
M  V30 11295 H 1101.87 -5.81104 -0.871293 0
M  V30 11296 H 1103.39 -5.83359 -1.80345 0
M  V30 11297 H 1104.81 -5.71412 0.464844 0
M  V30 11298 H 1103.21 -5.87144 1.24023 0
M  V30 11299 H 1104.28 -4.53787 1.70895 0
M  V30 11300 N 1105.62 -0.414636 -1.52048 0
M  V30 11301 C 1106.87 0.159034 -2.01473 0
M  V30 11302 C 1107.19 1.45176 -1.30188 0
M  V30 11303 O 1106.46 1.91134 -0.429469 0
M  V30 11304 H 1105.04 0.0617604 -0.744443 0
M  V30 11305 H 1107.7 -0.552141 -1.86916 0
M  V30 11306 H 1106.8 0.351217 -3.10118 0
M  V30 11307 N 1107.1 1.56929 -0.145233 0
M  V30 11308 C 1108.34 1.96358 0.50707 0
M  V30 11309 C 1108.68 1.03005 1.64632 0
M  V30 11310 O 1107.95 0.0721045 1.94366 0
M  V30 11311 C 1108.23 3.45502 1.01492 0
M  V30 11312 C 1108.09 4.49633 -0.122708 0
M  V30 11313 C 1109.41 3.97103 1.89729 0
M  V30 11314 H 1106.52 0.713958 0.182848 0
M  V30 11315 H 1109.17 1.8865 -0.226102 0
M  V30 11316 H 1107.32 3.52202 1.6397 0
M  V30 11317 H 1108.99 4.55013 -0.758988 0
M  V30 11318 H 1107.23 4.26691 -0.782109 0
M  V30 11319 H 1107.9 5.51318 0.27432 0
M  V30 11320 H 1110.38 3.92871 1.37082 0
M  V30 11321 H 1109.25 5.01927 2.22173 0
M  V30 11322 H 1109.52 3.39354 2.83357 0
M  V30 11323 N 1108.58 -0.128553 1.57075 0
M  V30 11324 C 1109.82 -0.836355 1.83982 0
M  V30 11325 C 1110.14 -1.80862 0.728971 0
M  V30 11326 O 1109.41 -1.94326 -0.247859 0
M  V30 11327 H 1107.99 -0.31185 0.678792 0
M  V30 11328 H 1110.66 -0.118153 1.94542 0
M  V30 11329 H 1109.75 -1.38741 2.79567 0
M  V30 11330 N 1110.05 -1.5248 -0.398459 0
M  V30 11331 C 1111.3 -1.66731 -1.14215 0
M  V30 11332 C 1111.62 -0.404957 -1.90749 0
M  V30 11333 O 1110.89 0.580434 -1.87104 0
M  V30 11334 H 1109.47 -0.614577 -0.424622 0
M  V30 11335 H 1112.13 -1.89561 -0.453059 0
M  V30 11336 H 1111.23 -2.51336 -1.85031 0
M  V30 11337 N 1111.53 0.65634 -1.43283 0
M  V30 11338 C 1112.49 1.75117 -1.47874 0
M  V30 11339 C 1113.49 1.56629 -0.363846 0
M  V30 11340 O 1114.68 1.62584 -0.625464 0
M  V30 11341 C 1111.82 3.13957 -1.32831 0
M  V30 11342 H 1113.01 1.72429 -2.45374 0
M  V30 11343 H 1110.56 0.867704 -1.30002 0
M  V30 11344 H 1111.3 3.22259 -0.36326 0
M  V30 11345 H 1111.08 3.28781 -2.13649 0
M  V30 11346 H 1112.57 3.93799 -1.38969 0
M  V30 11347 N 1113.01 1.29761 0.894412 0
M  V30 11348 C 1114.26 1.17806 1.64214 0
M  V30 11349 C 1114.58 -0.269588 1.93127 0
M  V30 11350 O 1113.85 -1.18352 1.56107 0
M  V30 11351 H 1112.43 0.433002 0.608702 0
M  V30 11352 H 1115.09 1.6276 1.07216 0
M  V30 11353 H 1114.19 1.73201 2.5963 0
M  V30 11354 N 1114.49 -1.10549 1.12324 0
M  V30 11355 C 1115.73 -1.84108 0.887895 0
M  V30 11356 C 1116.09 -1.83159 -0.5759 0
M  V30 11357 O 1117.29 -2.52259 -0.928367 0
M  V30 11358 C 1115.56 -3.26866 1.44545 0
M  V30 11359 S 1117.12 -4.17567 1.34846 0
M  V30 11360 H 1113.94 -0.634752 0.320329 0
M  V30 11361 H 1116.54 -1.33036 1.43254 0
M  V30 11362 H 1115.25 -3.25126 2.50442 0
M  V30 11363 H 1114.78 -3.83008 0.89825 0
M  V30 11364 H 1116.79 -4.95173 0.319143 0
M  V30 11365 N 1115.97 -0.914965 -1.28321 0
M  V30 11366 C 1117.21 -0.547665 -1.94538 0
M  V30 11367 C 1117.53 0.911834 -1.72368 0
M  V30 11368 O 1116.8 1.64481 -1.06408 0
M  V30 11369 H 1115.38 -0.199549 -0.719853 0
M  V30 11370 H 1118.05 -1.16459 -1.5628 0
M  V30 11371 H 1117.14 -0.743138 -3.03124 0
M  V30 11372 N 1117.44 1.42219 -0.679077 0
M  V30 11373 C 1118.69 2.01777 -0.20342 0
M  V30 11374 C 1119.02 1.53592 1.18841 0
M  V30 11375 O 1118.3 0.739954 1.79875 0
M  V30 11376 C 1118.58 3.59281 -0.242791 0
M  V30 11377 C 1118.43 4.17634 -1.67038 0
M  V30 11378 C 1119.75 4.38218 0.406624 0
M  V30 11379 H 1116.87 0.733134 -0.0753916 0
M  V30 11380 H 1119.51 1.69185 -0.864673 0
M  V30 11381 H 1117.66 3.87178 0.320248 0
M  V30 11382 H 1119.34 4.00674 -2.286 0
M  V30 11383 H 1117.58 3.73301 -2.20973 0
M  V30 11384 H 1118.25 5.26776 -1.64958 0
M  V30 11385 H 1120.73 4.16036 -0.0727077 0
M  V30 11386 H 1119.6 5.47793 0.348457 0
M  V30 11387 H 1119.86 4.16418 1.48487 0
M  V30 11388 N 1118.92 0.422693 1.51826 0
M  V30 11389 C 1119.85 -0.43167 2.25098 0
M  V30 11390 C 1120.87 -0.998758 1.28564 0
M  V30 11391 O 1122.06 -0.89539 1.54418 0
M  V30 11392 C 1119.16 -1.61426 2.97985 0
M  V30 11393 C 1118.33 -1.16866 4.21499 0
M  V30 11394 C 1117.39 -2.2197 4.77091 0
M  V30 11395 O 1116.41 -1.82004 5.39317 0
M  V30 11396 N 1117.62 -3.54293 4.59844 0
M  V30 11397 H 1120.38 0.196255 2.99057 0
M  V30 11398 H 1117.94 0.25079 1.59946 0
M  V30 11399 H 1119.93 -2.31331 3.32066 0
M  V30 11400 H 1118.5 -2.14783 2.27128 0
M  V30 11401 H 1117.72 -0.297217 3.93078 0
M  V30 11402 H 1119.01 -0.848106 5.01682 0
M  V30 11403 H 1118.41 -3.89505 4.10247 0
M  V30 11404 H 1116.97 -4.20135 4.98327 0
M  V30 11405 N 1120.4 -1.5685 0.153553 0
M  V30 11406 C 1121.65 -1.95946 -0.494936 0
M  V30 11407 C 1121.97 -1.03975 -1.64967 0
M  V30 11408 O 1121.24 -0.102572 -1.95631 0
M  V30 11409 H 1119.82 -0.723516 -0.185833 0
M  V30 11410 H 1122.48 -1.93531 0.230585 0
M  V30 11411 H 1121.58 -2.99823 -0.866743 0
M  V30 11412 N 1121.88 0.120221 -1.57141 0
M  V30 11413 C 1122.81 1.14876 -2.03287 0
M  V30 11414 C 1123.79 1.43259 -0.917112 0
M  V30 11415 O 1124.97 1.53721 -1.18674 0
M  V30 11416 C 1122.1 2.47525 -2.43616 0
M  V30 11417 C 1121.06 2.33607 -3.58625 0
M  V30 11418 C 1120.38 3.71207 -3.84849 0
M  V30 11419 C 1121.68 1.79761 -4.90391 0
M  V30 11420 H 1123.38 0.764943 -2.89463 0
M  V30 11421 H 1120.92 0.366516 -1.39258 0
M  V30 11422 H 1122.88 3.19728 -2.74504 0
M  V30 11423 H 1121.6 2.87794 -1.54409 0
M  V30 11424 H 1120.26 1.63853 -3.27945 0
M  V30 11425 H 1119.91 4.0896 -2.9285 0
M  V30 11426 H 1119.61 3.62749 -4.62263 0
M  V30 11427 H 1121.13 4.44917 -4.18188 0
M  V30 11428 H 1122.55 2.4178 -5.19822 0
M  V30 11429 H 1120.94 1.82126 -5.71795 0
M  V30 11430 H 1122.01 0.755087 -4.78985 0
M  V30 11431 N 1123.36 1.52689 0.390367 0
M  V30 11432 C 1124.32 1.76726 1.45947 0
M  V30 11433 C 1125.32 0.637269 1.47633 0
M  V30 11434 O 1126.51 0.905312 1.48828 0
M  V30 11435 C 1123.64 1.86678 2.85244 0
M  V30 11436 H 1124.83 2.72185 1.25918 0
M  V30 11437 H 1122.39 1.4339 0.622023 0
M  V30 11438 H 1123.12 0.931991 3.10619 0
M  V30 11439 H 1122.91 2.68843 2.85422 0
M  V30 11440 H 1124.4 2.06952 3.62713 0
M  V30 11441 N 1124.83 -0.648732 1.43629 0
M  V30 11442 C 1126.06 -1.44117 1.49148 0
M  V30 11443 C 1126.48 -1.87767 0.111952 0
M  V30 11444 O 1125.84 -1.57655 -0.895249 0
M  V30 11445 C 1125.89 -2.64938 2.44623 0
M  V30 11446 O 1124.99 -3.64155 1.93559 0
M  V30 11447 H 1124.34 -0.431933 0.504312 0
M  V30 11448 H 1126.87 -0.793439 1.88589 0
M  V30 11449 H 1126.88 -3.12698 2.62076 0
M  V30 11450 H 1125.55 -2.3251 3.44836 0
M  V30 11451 H 1124.13 -3.23322 1.85789 0
M  V30 11452 N 1126.31 -1.30234 -0.887518 0
M  V30 11453 C 1127.24 -1.18969 -2.00919 0
M  V30 11454 C 1128.22 -0.080952 -1.69907 0
M  V30 11455 O 1129.41 -0.262546 -1.92417 0
M  V30 11456 C 1126.54 -0.878094 -3.36016 0
M  V30 11457 C 1125.49 -1.94449 -3.81279 0
M  V30 11458 C 1124.82 -1.48594 -5.13638 0
M  V30 11459 C 1126.12 -3.35519 -4.00281 0
M  V30 11460 H 1127.81 -2.12808 -2.10602 0
M  V30 11461 H 1125.36 -1.02454 -1.01189 0
M  V30 11462 H 1127.31 -0.785954 -4.14006 0
M  V30 11463 H 1126.04 0.0959779 -3.26459 0
M  V30 11464 H 1124.69 -2.02622 -3.05516 0
M  V30 11465 H 1124.34 -0.500204 -5.00507 0
M  V30 11466 H 1124.04 -2.19921 -5.44893 0
M  V30 11467 H 1125.57 -1.40754 -5.94156 0
M  V30 11468 H 1126.98 -3.30119 -4.68716 0
M  V30 11469 H 1125.38 -4.0491 -4.42909 0
M  V30 11470 H 1126.45 -3.77597 -3.04218 0
M  V30 11471 N 1127.79 1.09952 -1.12909 0
M  V30 11472 C 1128.75 2.14615 -0.804548 0
M  V30 11473 C 1129.75 1.5975 0.18345 0
M  V30 11474 O 1130.94 1.74147 -0.0429623 0
M  V30 11475 C 1128.08 3.40333 -0.196471 0
M  V30 11476 H 1129.27 2.44835 -1.73193 0
M  V30 11477 H 1126.82 1.25399 -0.932997 0
M  V30 11478 H 1127.56 3.15735 0.740388 0
M  V30 11479 H 1127.34 3.81444 -0.907886 0
M  V30 11480 H 1128.83 4.17598 0.0139264 0
M  V30 11481 N 1129.27 0.921757 1.27833 0
M  V30 11482 C 1130.68 0.621102 1.47019 0
M  V30 11483 C 1130.88 -0.831338 1.83551 0
M  V30 11484 O 1129.94 -1.60974 1.94534 0
M  V30 11485 C 1131.25 1.56588 2.56712 0
M  V30 11486 C 1132.8 1.57346 2.70576 0
M  V30 11487 C 1133.28 2.50505 3.8342 0
M  V30 11488 N 1134.77 2.48678 3.90786 0
M  V30 11489 C 1135.5 3.17454 4.77505 0
M  V30 11490 N 1135 3.95588 5.68755 0
M  V30 11491 N 1136.79 3.06501 4.71183 0
M  V30 11492 H 1128.94 1.86085 1.02403 0
M  V30 11493 H 1131.21 0.798595 0.510833 0
M  V30 11494 H 1130.91 2.60175 2.36647 0
M  V30 11495 H 1130.79 1.30305 3.53978 0
M  V30 11496 H 1133.17 0.544919 2.90025 0
M  V30 11497 H 1133.25 1.87675 1.73815 0
M  V30 11498 H 1132.9 3.53466 3.64725 0
M  V30 11499 H 1132.83 2.17474 4.79596 0
M  V30 11500 H 1135.32 1.91928 3.25534 0
M  V30 11501 H 1135.63 4.45066 6.31772 0
M  V30 11502 H 1133.98 3.99692 5.6857 0
M  V30 11503 H 1137.17 2.44958 3.9889 0
M  V30 11504 H 1137.34 3.60372 5.3855 0
M  V30 11505 N 1130.75 -1.41857 0.686609 0
M  V30 11506 C 1131.69 -2.326 0.0041351 0
M  V30 11507 C 1132.69 -1.50474 -0.778077 0
M  V30 11508 O 1133.89 -1.66468 -0.684709 0
M  V30 11509 H 1130.27 -0.751797 -0.0174615 0
M  V30 11510 H 1132.24 -2.87844 0.786656 0
M  V30 11511 C 1130.99 -3.35175 -0.924819 0
M  V30 11512 H 1130.31 -3.98416 -0.332339 0
M  V30 11513 H 1131.75 -4.01229 -1.37082 0
M  V30 11514 C 1130.21 -2.68359 -2.03679 0
M  V30 11515 O 1130.74 -2.52453 -3.12459 0
M  V30 11516 N 1128.95 -2.27196 -1.81192 0
M  V30 11517 H 1128.49 -2.40333 -0.92725 0
M  V30 11518 H 1128.45 -1.82824 -2.55778 0
M  V30 11519 N 1132.22 -0.430739 -1.51599 0
M  V30 11520 C 1133.46 0.137184 -2.03939 0
M  V30 11521 C 1133.83 1.40533 -1.30823 0
M  V30 11522 O 1135.03 2.05307 -1.73501 0
M  V30 11523 C 1133.3 0.357395 -3.55609 0
M  V30 11524 S 1134.86 0.889669 -4.29686 0
M  V30 11525 H 1131.68 0.0349429 -0.710141 0
M  V30 11526 H 1134.28 -0.588628 -1.86428 0
M  V30 11527 H 1132.98 -0.572011 -4.06394 0
M  V30 11528 H 1132.51 1.11047 -3.77402 0
M  V30 11529 H 1134.53 2.16797 -4.46333 0
M  V30 11530 N 1133.7 1.56767 -0.161869 0
M  V30 11531 C 1134.64 2.13321 0.810527 0
M  V30 11532 C 1135.61 1.06073 1.23237 0
M  V30 11533 O 1136.8 1.33993 1.32583 0
M  V30 11534 C 1133.92 2.66506 2.09027 0
M  V30 11535 C 1132.97 3.86038 1.8132 0
M  V30 11536 S 1133.8 5.26253 0.990873 0
M  V30 11537 C 1134.96 5.82837 2.28149 0
M  V30 11538 H 1135.19 2.95467 0.32965 0
M  V30 11539 H 1132.73 1.5431 0.052655 0
M  V30 11540 H 1134.68 2.97797 2.82537 0
M  V30 11541 H 1133.34 1.84463 2.54229 0
M  V30 11542 H 1132.54 4.21547 2.7625 0
M  V30 11543 H 1132.14 3.55585 1.1591 0
M  V30 11544 H 1134.43 5.95175 3.23686 0
M  V30 11545 H 1135.37 6.80109 1.97123 0
M  V30 11546 H 1135.78 5.11186 2.39477 0
M  V30 11547 N 1135.18 -0.111886 1.57202 0
M  V30 11548 C 1136.6 -0.465629 1.52657 0
M  V30 11549 C 1136.8 -1.81463 0.875989 0
M  V30 11550 O 1135.85 -2.4825 0.461345 0
M  V30 11551 C 1137.17 -0.443571 2.9741 0
M  V30 11552 C 1138.71 -0.52662 3.08538 0
M  V30 11553 C 1139.19 -0.53488 4.54866 0
M  V30 11554 N 1140.68 -0.596117 4.59348 0
M  V30 11555 C 1141.41 -0.624073 5.69994 0
M  V30 11556 N 1140.91 -0.609245 6.90116 0
M  V30 11557 N 1142.7 -0.667619 5.58121 0
M  V30 11558 H 1134.85 0.771925 1.97876 0
M  V30 11559 H 1137.12 0.285534 0.903977 0
M  V30 11560 H 1136.82 0.480138 3.48407 0
M  V30 11561 H 1136.7 -1.26876 3.55221 0
M  V30 11562 H 1139.08 -1.44075 2.57539 0
M  V30 11563 H 1139.17 0.326396 2.53709 0
M  V30 11564 H 1138.81 0.375233 5.06512 0
M  V30 11565 H 1138.74 -1.40488 5.07514 0
M  V30 11566 H 1141.23 -0.613452 3.72888 0
M  V30 11567 H 1141.54 -0.633396 7.702 0
M  V30 11568 H 1139.89 -0.576557 6.92604 0
M  V30 11569 H 1143.08 -0.676616 4.63184 0
M  V30 11570 H 1143.25 -0.685938 6.44359 0
M  V30 11571 N 1136.66 -1.52894 -0.382264 0
M  V30 11572 C 1137.59 -1.81122 -1.47367 0
M  V30 11573 C 1138.57 -0.663653 -1.56619 0
M  V30 11574 O 1139.75 -0.911898 -1.71459 0
M  V30 11575 C 1136.88 -1.98615 -2.84902 0
M  V30 11576 C 1135.84 -3.14328 -2.90485 0
M  V30 11577 C 1135.16 -3.17086 -4.30535 0
M  V30 11578 C 1136.46 -4.53263 -2.59519 0
M  V30 11579 H 1138.16 -2.72518 -1.23993 0
M  V30 11580 H 1135.7 -1.3113 -0.595049 0
M  V30 11581 H 1137.66 -2.16946 -3.61265 0
M  V30 11582 H 1136.38 -1.03915 -3.09628 0
M  V30 11583 H 1135.04 -2.95791 -2.16572 0
M  V30 11584 H 1134.69 -2.20055 -4.52311 0
M  V30 11585 H 1134.39 -3.94821 -4.3519 0
M  V30 11586 H 1135.91 -3.3758 -5.08795 0
M  V30 11587 H 1137.33 -4.71867 -3.25598 0
M  V30 11588 H 1135.72 -5.33115 -2.75514 0
M  V30 11589 H 1136.79 -4.59516 -1.54831 0
M  V30 11590 N 1138.14 0.641106 -1.43971 0
M  V30 11591 C 1139.07 1.76645 -1.46046 0
M  V30 11592 C 1140.08 1.58881 -0.355049 0
M  V30 11593 O 1141.27 1.67379 -0.620207 0
M  V30 11594 C 1138.37 3.14237 -1.26918 0
M  V30 11595 C 1137.54 3.5855 -2.50521 0
M  V30 11596 C 1136.6 4.74986 -2.26438 0
M  V30 11597 O 1135.63 4.83807 -2.99866 0
M  V30 11598 N 1136.83 5.66016 -1.28866 0
M  V30 11599 H 1139.6 1.75339 -2.43056 0
M  V30 11600 H 1137.16 0.82535 -1.39282 0
M  V30 11601 H 1139.15 3.89837 -1.0867 0
M  V30 11602 H 1137.72 3.10244 -0.383082 0
M  V30 11603 H 1136.94 2.73265 -2.84112 0
M  V30 11604 H 1138.23 3.84906 -3.32754 0
M  V30 11605 H 1137.63 5.61574 -0.682018 0
M  V30 11606 H 1136.18 6.41286 -1.16599 0
M  V30 11607 N 1139.62 1.30703 0.880598 0
M  V30 11608 C 1140.86 1.19955 1.63519 0
M  V30 11609 C 1141.19 -0.244214 1.92658 0
M  V30 11610 O 1140.47 -1.17412 1.55063 0
M  V30 11611 C 1140.75 2.03302 2.97221 0
M  V30 11612 C 1140.61 3.55921 2.75028 0
M  V30 11613 C 1141.92 1.87421 3.98198 0
M  V30 11614 H 1139.04 0.43712 0.593376 0
M  V30 11615 H 1141.69 1.60382 1.01871 0
M  V30 11616 H 1139.84 1.68953 3.49839 0
M  V30 11617 H 1141.51 4.00352 2.29164 0
M  V30 11618 H 1139.75 3.79885 2.09452 0
M  V30 11619 H 1140.42 4.09533 3.70117 0
M  V30 11620 H 1142.9 2.17459 3.54755 0
M  V30 11621 H 1141.77 2.48057 4.89652 0
M  V30 11622 H 1142.03 0.834563 4.34151 0
M  V30 11623 N 1141.09 -1.09351 1.1349 0
M  V30 11624 C 1142.02 -2.18037 0.835588 0
M  V30 11625 C 1143 -1.68856 -0.205373 0
M  V30 11626 O 1144.19 -1.94094 -0.0641357 0
M  V30 11627 C 1141.32 -3.45987 0.301661 0
M  V30 11628 C 1140.27 -4.08507 1.27696 0
M  V30 11629 C 1139.6 -5.31292 0.602758 0
M  V30 11630 C 1140.9 -4.50916 2.63575 0
M  V30 11631 H 1142.59 -2.43332 1.74441 0
M  V30 11632 H 1140.14 -1.1695 0.840166 0
M  V30 11633 H 1142.09 -4.21324 0.079928 0
M  V30 11634 H 1140.82 -3.20217 -0.642552 0
M  V30 11635 H 1139.48 -3.3519 1.4847 0
M  V30 11636 H 1139.12 -5.01802 -0.346953 0
M  V30 11637 H 1138.82 -5.74075 1.25345 0
M  V30 11638 H 1140.35 -6.09351 0.390325 0
M  V30 11639 H 1141.76 -5.17474 2.46765 0
M  V30 11640 H 1140.16 -5.04586 3.24827 0
M  V30 11641 H 1141.23 -3.63279 3.2118 0
M  V30 11642 N 1142.57 -0.928524 -1.27343 0
M  V30 11643 C 1143.48 -0.433901 -2.30553 0
M  V30 11644 C 1144.5 0.485832 -1.6708 0
M  V30 11645 O 1145.67 0.36844 -1.98001 0
M  V30 11646 C 1142.74 0.304617 -3.45359 0
M  V30 11647 C 1141.8 -0.650131 -4.24349 0
M  V30 11648 C 1141.03 0.0532372 -5.33673 0
M  V30 11649 O 1141.26 1.27246 -5.56026 0
M  V30 11650 O 1140.19 -0.619009 -5.98709 0
M  V30 11651 H 1144.02 -1.2909 -2.74899 0
M  V30 11652 H 1141.6 -0.693903 -1.32308 0
M  V30 11653 H 1143.48 0.721137 -4.15184 0
M  V30 11654 H 1142.16 1.13721 -3.03066 0
M  V30 11655 H 1141.06 -1.11635 -3.57055 0
M  V30 11656 H 1142.4 -1.44996 -4.70358 0
M  V30 11657 N 1144.05 1.41491 -0.694123 0
M  V30 11658 C 1144.98 2.33462 -0.0422169 0
M  V30 11659 C 1145.96 1.51739 0.76872 0
M  V30 11660 O 1147.15 1.8028 0.721985 0
M  V30 11661 C 1144.28 3.35545 0.895925 0
M  V30 11662 C 1143.23 4.27568 0.192188 0
M  V30 11663 C 1142.56 5.20014 1.24459 0
M  V30 11664 C 1143.86 5.1376 -0.940626 0
M  V30 11665 H 1145.55 2.88225 -0.810363 0
M  V30 11666 H 1143.1 1.38586 -0.39114 0
M  V30 11667 H 1145.05 3.9881 1.36121 0
M  V30 11668 H 1143.77 2.79129 1.69572 0
M  V30 11669 H 1142.43 3.65726 -0.25305 0
M  V30 11670 H 1142.08 4.59913 2.03687 0
M  V30 11671 H 1141.78 5.82417 0.778734 0
M  V30 11672 H 1143.3 5.86155 1.71041 0
M  V30 11673 H 1144.72 5.70601 -0.555692 0
M  V30 11674 H 1143.11 5.85097 -1.33349 0
M  V30 11675 H 1144.18 4.51011 -1.78093 0
M  V30 11676 N 1145.53 0.438773 1.51369 0
M  V30 11677 C 1146.8 -0.18722 1.94702 0
M  V30 11678 C 1147.18 -1.59962 1.37752 0
M  V30 11679 O 1146.53 -2.214 0.565171 0
M  V30 11680 C 1146.74 -0.163491 3.48617 0
M  V30 11681 C 1148.09 -0.368355 4.22999 0
M  V30 11682 O 1149.11 -0.241541 3.5538 0
M  V30 11683 O 1147.97 -0.620916 5.42961 0
M  V30 11684 H 1145.07 -0.129194 0.816846 0
M  V30 11685 H 1147.61 0.496855 1.62263 0
M  V30 11686 H 1146.39 0.823882 3.82528 0
M  V30 11687 H 1146.01 -0.890414 3.87501 0
M  V30 11688 N 1147.01 -1.56678 0.170181 0
M  V30 11689 C 1147.96 -2.14503 -0.772818 0
M  V30 11690 C 1148.94 -1.07896 -1.19362 0
M  V30 11691 O 1150.13 -1.34021 -1.15617 0
M  V30 11692 C 1147.26 -2.78844 -2.00253 0
M  V30 11693 C 1146.35 -3.92607 -1.60377 0
M  V30 11694 N 1146.74 -4.97464 -0.914519 0
M  V30 11695 C 1145.04 -4.03746 -1.89487 0
M  V30 11696 C 1145.74 -5.77248 -0.718343 0
M  V30 11697 N 1144.71 -5.2881 -1.25942 0
M  V30 11698 H 1148.51 -2.92941 -0.237231 0
M  V30 11699 H 1146.03 -1.62371 -0.0305396 0
M  V30 11700 H 1148.03 -3.18646 -2.68831 0
M  V30 11701 H 1146.69 -2.01886 -2.54307 0
M  V30 11702 H 1147.7 -5.14724 -0.572692 0
M  V30 11703 H 1144.37 -3.3789 -2.45227 0
M  V30 11704 H 1145.76 -6.71676 -0.173373 0
M  V30 11705 N 1148.48 0.103547 -1.57259 0
M  V30 11706 C 1149.73 0.809774 -1.85931 0
M  V30 11707 C 1150.06 1.78791 -0.758122 0
M  V30 11708 O 1149.34 1.93079 0.234682 0
M  V30 11709 C 1149.62 1.54601 -3.25224 0
M  V30 11710 C 1149.47 0.586439 -4.45961 0
M  V30 11711 C 1150.79 2.4986 -3.62296 0
M  V30 11712 H 1147.91 0.29293 -0.676285 0
M  V30 11713 H 1150.55 0.0736065 -1.89857 0
M  V30 11714 H 1148.7 2.17355 -3.22008 0
M  V30 11715 H 1150.38 -0.0334441 -4.61288 0
M  V30 11716 H 1148.62 -0.10085 -4.33683 0
M  V30 11717 H 1149.29 1.13855 -5.40131 0
M  V30 11718 H 1151.77 1.97203 -3.66402 0
M  V30 11719 H 1150.64 2.98396 -4.60707 0
M  V30 11720 H 1150.9 3.33233 -2.90531 0
M  V30 11721 N 1149.96 1.53094 0.37415 0
M  V30 11722 C 1151.19 1.73061 1.143 0
M  V30 11723 C 1151.61 0.454611 1.82524 0
M  V30 11724 O 1150.97 -0.590743 1.71406 0
M  V30 11725 C 1151.02 2.89086 2.15549 0
M  V30 11726 O 1150.12 2.57096 3.22452 0
M  V30 11727 H 1149.46 0.575009 0.332055 0
M  V30 11728 H 1151.99 1.99946 0.433897 0
M  V30 11729 H 1152 3.15007 2.59296 0
M  V30 11730 H 1150.68 3.81647 1.65283 0
M  V30 11731 H 1149.25 2.41965 2.83738 0
M  V30 11732 N 1151.44 -0.633461 1.44309 0
M  V30 11733 C 1152.35 -1.77428 1.53481 0
M  V30 11734 C 1153.37 -1.68839 0.420628 0
M  V30 11735 O 1154.54 -1.89658 0.677638 0
M  V30 11736 C 1151.61 -3.13801 1.47409 0
M  V30 11737 C 1150.67 -3.34039 2.6966 0
M  V30 11738 C 1149.9 -4.63907 2.63868 0
M  V30 11739 O 1150.12 -5.44559 1.69741 0
M  V30 11740 O 1149.06 -4.86295 3.54684 0
M  V30 11741 H 1152.88 -1.72642 2.49857 0
M  V30 11742 H 1150.47 -0.794399 1.26529 0
M  V30 11743 H 1152.35 -3.95101 1.46537 0
M  V30 11744 H 1151.03 -3.19134 0.541769 0
M  V30 11745 H 1149.93 -2.52427 2.761 0
M  V30 11746 H 1151.27 -3.33566 3.61931 0
M  V30 11747 N 1152.92 -1.31168 -0.873655 0
M  V30 11748 C 1154.17 -1.20003 -1.62118 0
M  V30 11749 C 1154.48 0.241505 -1.94103 0
M  V30 11750 O 1155.69 0.474801 -2.67316 0
M  V30 11751 C 1154.14 -2.10055 -2.92241 0
M  V30 11752 C 1153.75 -3.59183 -2.67752 0
M  V30 11753 C 1155.49 -2.07681 -3.70228 0
M  V30 11754 C 1153.4 -4.41255 -3.93761 0
M  V30 11755 H 1152.33 -0.445564 -0.608267 0
M  V30 11756 H 1154.98 -1.55997 -0.966287 0
M  V30 11757 H 1153.36 -1.66956 -3.59085 0
M  V30 11758 H 1154.54 -4.10504 -2.09339 0
M  V30 11759 H 1152.85 -3.63496 -2.03125 0
M  V30 11760 H 1155.45 -2.66246 -4.637 0
M  V30 11761 H 1155.79 -1.06304 -4.02499 0
M  V30 11762 H 1156.33 -2.48961 -3.10263 0
M  V30 11763 H 1153.07 -5.43372 -3.66643 0
M  V30 11764 H 1152.59 -3.94694 -4.51638 0
M  V30 11765 H 1154.26 -4.53278 -4.6168 0
M  V30 11766 N 1154.4 1.08748 -1.14068 0
M  V30 11767 C 1155.62 1.84814 -0.930138 0
M  V30 11768 C 1156.04 1.81461 0.521267 0
M  V30 11769 O 1155.4 1.21577 1.36108 0
M  V30 11770 C 1155.45 3.32501 -1.41863 0
M  V30 11771 O 1155.17 3.35846 -2.81317 0
M  V30 11772 C 1156.67 4.25384 -1.24753 0
M  V30 11773 H 1153.89 0.583546 -0.331233 0
M  V30 11774 H 1156.43 1.37366 -1.51495 0
M  V30 11775 H 1154.59 3.7735 -0.876664 0
M  V30 11776 H 1155 4.28013 -3.03159 0
M  V30 11777 H 1156.48 5.27138 -1.63798 0
M  V30 11778 H 1156.95 4.38789 -0.18999 0
M  V30 11779 H 1157.56 3.86357 -1.77787 0
M  V30 11780 N 1155.87 0.935264 1.26849 0
M  V30 11781 C 1156.81 0.397539 2.25726 0
M  V30 11782 C 1157.82 -0.475928 1.55688 0
M  V30 11783 O 1159.01 -0.287329 1.76172 0
M  V30 11784 C 1156.11 -0.448308 3.35922 0
M  V30 11785 C 1155.28 0.407624 4.35496 0
M  V30 11786 C 1154.34 -0.376815 5.24849 0
M  V30 11787 O 1153.37 0.218109 5.68782 0
M  V30 11788 N 1154.57 -1.67481 5.55815 0
M  V30 11789 H 1157.33 1.24753 2.72501 0
M  V30 11790 H 1154.89 0.803505 1.40554 0
M  V30 11791 H 1156.89 -0.980338 3.92647 0
M  V30 11792 H 1155.46 -1.19908 2.88688 0
M  V30 11793 H 1154.68 1.12091 3.77928 0
M  V30 11794 H 1155.96 0.992512 4.99026 0
M  V30 11795 H 1155.36 -2.18037 5.21993 0
M  V30 11796 H 1153.92 -2.15321 6.15207 0
M  V30 11797 N 1157.35 -1.41121 0.701616 0
M  V30 11798 C 1158.26 -2.34565 0.0407815 0
M  V30 11799 C 1159.28 -1.56555 -0.75937 0
M  V30 11800 O 1160.45 -1.89008 -0.695542 0
M  V30 11801 C 1157.52 -3.35347 -0.879954 0
M  V30 11802 C 1156.58 -4.29241 -0.0713279 0
M  V30 11803 C 1155.81 -5.25209 -0.948211 0
M  V30 11804 O 1156.04 -5.26781 -2.18766 0
M  V30 11805 O 1154.97 -6.00605 -0.394657 0
M  V30 11806 H 1158.8 -2.92666 0.811188 0
M  V30 11807 H 1156.38 -1.42077 0.461991 0
M  V30 11808 H 1158.26 -3.9719 -1.40776 0
M  V30 11809 H 1156.94 -2.7968 -1.62975 0
M  V30 11810 H 1155.85 -3.70727 0.50122 0
M  V30 11811 H 1157.18 -4.88022 0.639935 0
M  V30 11812 N 1158.83 -0.446794 -1.51134 0
M  V30 11813 C 1160.08 0.116666 -2.02464 0
M  V30 11814 C 1160.41 1.41532 -1.32975 0
M  V30 11815 O 1159.68 1.89278 -0.447651 0
M  V30 11816 C 1159.97 0.325659 -3.58624 0
M  V30 11817 C 1159.82 -0.992307 -4.38718 0
M  V30 11818 C 1161.14 1.09121 -4.26357 0
M  V30 11819 H 1158.26 0.0409262 -0.735863 0
M  V30 11820 H 1160.9 -0.587641 -1.80684 0
M  V30 11821 H 1159.05 0.925585 -3.77313 0
M  V30 11822 H 1160.72 -1.62694 -4.31658 0
M  V30 11823 H 1158.97 -1.5947 -4.03425 0
M  V30 11824 H 1159.64 -0.800005 -5.46172 0
M  V30 11825 H 1162.11 0.582944 -4.11996 0
M  V30 11826 H 1160.99 1.20621 -5.35483 0
M  V30 11827 H 1161.25 2.12171 -3.87861 0
M  V30 11828 N 1160.31 1.56586 -0.178487 0
M  V30 11829 C 1161.27 2.17091 0.73512 0
M  V30 11830 C 1162.27 1.12088 1.15295 0
M  V30 11831 O 1163.46 1.37563 1.06874 0
M  V30 11832 C 1160.59 2.75957 2.00151 0
M  V30 11833 H 1161.79 2.99176 0.208272 0
M  V30 11834 H 1159.34 1.56138 0.0710967 0
M  V30 11835 H 1160.07 1.97626 2.57127 0
M  V30 11836 H 1159.86 3.52809 1.7108 0
M  V30 11837 H 1161.35 3.2247 2.65335 0
M  V30 11838 N 1161.79 -0.095206 1.57312 0
M  V30 11839 C 1162.75 -1.09974 2.01093 0
M  V30 11840 C 1163.75 -1.32954 0.904424 0
M  V30 11841 O 1164.94 -1.29069 1.16991 0
M  V30 11842 C 1162.07 -2.4489 2.37153 0
M  V30 11843 H 1163.26 -0.722906 2.91057 0
M  V30 11844 H 1160.82 -0.340249 1.52552 0
M  V30 11845 H 1161.55 -2.8745 1.50143 0
M  V30 11846 H 1161.34 -2.29559 3.17876 0
M  V30 11847 H 1162.83 -3.17141 2.71683 0
M  V30 11848 N 1163.26 -1.53291 -0.366026 0
M  V30 11849 C 1164.17 -1.82656 -1.47221 0
M  V30 11850 C 1165.19 -0.71491 -1.58635 0
M  V30 11851 O 1166.37 -1.00492 -1.74538 0
M  V30 11852 C 1163.43 -2.00995 -2.82492 0
M  V30 11853 C 1162.49 -3.24895 -2.8061 0
M  V30 11854 C 1161.73 -3.4235 -4.09429 0
M  V30 11855 O 1161.95 -2.6411 -5.05571 0
M  V30 11856 O 1160.88 -4.35702 -4.15268 0
M  V30 11857 H 1164.71 -2.76634 -1.2533 0
M  V30 11858 H 1162.29 -1.38665 -0.556084 0
M  V30 11859 H 1164.18 -2.14632 -3.62645 0
M  V30 11860 H 1162.85 -1.10207 -3.04362 0
M  V30 11861 H 1161.76 -3.16682 -1.99157 0
M  V30 11862 H 1163.09 -4.15604 -2.63694 0
M  V30 11863 N 1164.74 0.6258 -1.44643 0
M  V30 11864 C 1165.99 1.3873 -1.47925 0
M  V30 11865 C 1166.32 1.93868 -0.113469 0
M  V30 11866 O 1165.6 1.73976 0.869639 0
M  V30 11867 C 1165.88 2.54867 -2.54391 0
M  V30 11868 C 1165.73 2.05044 -4.00346 0
M  V30 11869 C 1167.05 3.57043 -2.57309 0
M  V30 11870 H 1164.17 0.503087 -0.538584 0
M  V30 11871 H 1166.81 0.707102 -1.76352 0
M  V30 11872 H 1164.96 3.12894 -2.30281 0
M  V30 11873 H 1166.63 1.51807 -4.35606 0
M  V30 11874 H 1164.88 1.36185 -4.11869 0
M  V30 11875 H 1165.55 2.88681 -4.70497 0
M  V30 11876 H 1168.02 3.08826 -2.78865 0
M  V30 11877 H 1166.9 4.35818 -3.33698 0
M  V30 11878 H 1167.16 4.11464 -1.61708 0
M  V30 11879 N 1166.22 1.31629 0.866686 0
M  V30 11880 C 1167.46 1.22806 1.63395 0
M  V30 11881 C 1167.82 -0.209785 1.9085 0
M  V30 11882 O 1169.03 -0.421562 2.65474 0
M  V30 11883 C 1167.3 2.05187 2.92631 0
M  V30 11884 S 1168.86 2.13261 3.83491 0
M  V30 11885 H 1165.67 0.437339 0.560585 0
M  V30 11886 H 1168.28 1.66333 1.02731 0
M  V30 11887 H 1166.98 3.08736 2.70389 0
M  V30 11888 H 1166.51 1.62393 3.58318 0
M  V30 11889 H 1168.53 1.27333 4.79584 0
M  V30 11890 N 1167.7 -1.08142 1.14644 0
M  V30 11891 C 1169.12 -1.32656 0.887388 0
M  V30 11892 C 1169.32 -1.95942 -0.470012 0
M  V30 11893 O 1168.37 -2.21417 -1.21371 0
M  V30 11894 C 1169.68 -2.22549 2.02219 0
M  V30 11895 C 1171.23 -2.36021 2.0558 0
M  V30 11896 C 1171.71 -3.29257 3.18361 0
M  V30 11897 N 1173.2 -3.36835 3.17957 0
M  V30 11898 C 1173.93 -4.09017 4.01862 0
M  V30 11899 N 1173.43 -4.83882 4.95812 0
M  V30 11900 N 1175.22 -4.04875 3.89913 0
M  V30 11901 H 1167.37 -0.654457 2.02066 0
M  V30 11902 H 1169.64 -0.350947 0.880648 0
M  V30 11903 H 1169.34 -1.83296 3.00159 0
M  V30 11904 H 1169.22 -3.23027 1.94765 0
M  V30 11905 H 1171.6 -2.74531 1.08245 0
M  V30 11906 H 1171.68 -1.35275 2.17105 0
M  V30 11907 H 1171.33 -2.91468 4.15944 0
M  V30 11908 H 1171.26 -4.29938 3.04074 0
M  V30 11909 H 1173.75 -2.83465 2.49912 0
M  V30 11910 H 1174.06 -5.3643 5.56294 0
M  V30 11911 H 1172.41 -4.82926 4.99808 0
M  V30 11912 H 1175.6 -3.45496 3.15833 0
M  V30 11913 H 1175.77 -4.60866 4.55529 0
M  V30 11914 N 1169.18 -0.941978 -1.26351 0
M  V30 11915 C 1170.09 -0.45833 -2.30079 0
M  V30 11916 C 1171.1 0.468084 -1.67586 0
M  V30 11917 O 1172.28 0.347418 -1.98381 0
M  V30 11918 C 1169.34 0.26797 -3.45663 0
M  V30 11919 C 1168.41 -0.695102 -4.23635 0
M  V30 11920 C 1167.64 -0.003369 -5.337 0
M  V30 11921 O 1167.86 1.21342 -5.57344 0
M  V30 11922 O 1166.8 -0.682476 -5.98018 0
M  V30 11923 H 1170.62 -1.31998 -2.73514 0
M  V30 11924 H 1168.21 -0.707897 -1.31564 0
M  V30 11925 H 1170.09 0.677061 -4.15925 0
M  V30 11926 H 1168.76 1.105 -3.04256 0
M  V30 11927 H 1167.67 -1.15415 -3.55851 0
M  V30 11928 H 1169 -1.49977 -4.68794 0
M  V30 11929 N 1170.66 1.40747 -0.709091 0
M  V30 11930 C 1171.9 2.00606 -0.245324 0
M  V30 11931 C 1172.22 1.56489 1.16346 0
M  V30 11932 O 1171.49 0.801456 1.78755 0
M  V30 11933 H 1170.07 0.741833 -0.0877098 0
M  V30 11934 H 1172.74 1.72178 -0.913271 0
M  V30 11935 H 1171.83 3.10901 -0.273322 0
M  V30 11936 N 1172.13 0.454803 1.50895 0
M  V30 11937 C 1173.06 -0.337982 2.31041 0
M  V30 11938 C 1174.04 -1.00523 1.37219 0
M  V30 11939 O 1175.23 -1.00553 1.66141 0
M  V30 11940 C 1172.36 -1.42964 3.1651 0
M  V30 11941 C 1171.31 -0.884907 4.18752 0
M  V30 11942 C 1170.64 -2.07363 4.92854 0
M  V30 11943 C 1171.94 0.0926716 5.22218 0
M  V30 11944 H 1173.63 0.33089 2.97566 0
M  V30 11945 H 1171.18 0.160577 1.43102 0
M  V30 11946 H 1173.13 -1.9916 3.71367 0
M  V30 11947 H 1171.86 -2.12705 2.47839 0
M  V30 11948 H 1170.52 -0.345031 3.64973 0
M  V30 11949 H 1170.16 -2.75764 4.2067 0
M  V30 11950 H 1169.86 -1.71545 5.62002 0
M  V30 11951 H 1171.39 -2.6408 5.5054 0
M  V30 11952 H 1172.8 -0.379568 5.72042 0
M  V30 11953 H 1171.2 0.3643 5.98993 0
M  V30 11954 H 1172.27 1.02383 4.73968 0
M  V30 11955 N 1173.61 -1.56489 0.186789 0
M  V30 11956 C 1174.56 -2.18703 -0.737402 0
M  V30 11957 C 1175.53 -1.13171 -1.21579 0
M  V30 11958 O 1176.71 -1.41388 -1.28118 0
M  V30 11959 C 1173.85 -2.84394 -1.95484 0
M  V30 11960 C 1172.97 -4.04429 -1.51859 0
M  V30 11961 C 1172.1 -4.58001 -2.69089 0
M  V30 11962 C 1171.14 -5.70412 -2.22029 0
M  V30 11963 N 1170.28 -6.18425 -3.32407 0
M  V30 11964 H 1175.12 -2.97327 -0.200105 0
M  V30 11965 H 1172.65 -1.46842 -0.087032 0
M  V30 11966 H 1174.61 -3.20646 -2.66912 0
M  V30 11967 H 1173.24 -2.08347 -2.46559 0
M  V30 11968 H 1172.29 -3.73895 -0.70048 0
M  V30 11969 H 1173.61 -4.85756 -1.13327 0
M  V30 11970 H 1172.76 -4.96515 -3.48652 0
M  V30 11971 H 1171.5 -3.75764 -3.1089 0
M  V30 11972 H 1170.5 -5.31434 -1.40918 0
M  V30 11973 H 1171.73 -6.54461 -1.81268 0
M  V30 11974 H 1169.68 -5.39113 -3.73755 0
M  V30 11975 H 1169.59 -6.94782 -2.98017 0
M  V30 11976 H 1170.86 -6.61592 -4.12209 0
M  V30 11977 N 1175.09 0.086862 -1.5736 0
M  V30 11978 C 1176.34 0.787281 -1.86135 0
M  V30 11979 C 1176.66 1.78866 -0.776667 0
M  V30 11980 O 1175.93 1.94915 0.19625 0
M  V30 11981 H 1174.51 0.293744 -0.686821 0
M  V30 11982 H 1177.17 0.0665326 -1.94786 0
M  V30 11983 H 1176.27 1.3128 -2.83147 0
M  V30 11984 N 1176.57 1.53483 0.357892 0
M  V30 11985 C 1177.5 1.83444 1.44466 0
M  V30 11986 C 1178.48 0.688486 1.55544 0
M  V30 11987 O 1179.66 0.93906 1.69986 0
M  V30 11988 C 1176.79 2.03122 2.81707 0
M  V30 11989 C 1175.75 3.1891 2.85448 0
M  V30 11990 C 1175.07 3.23895 4.25436 0
M  V30 11991 C 1176.37 4.57334 2.52275 0
M  V30 11992 H 1178.07 2.74456 1.19642 0
M  V30 11993 H 1175.61 1.3206 0.574112 0
M  V30 11994 H 1177.57 2.22666 3.57768 0
M  V30 11995 H 1176.29 1.08827 3.07935 0
M  V30 11996 H 1174.95 2.99199 2.11838 0
M  V30 11997 H 1174.6 2.27223 4.48753 0
M  V30 11998 H 1174.3 4.01694 4.28854 0
M  V30 11999 H 1175.82 3.45632 5.0336 0
M  V30 12000 H 1177.24 4.76988 3.1805 0
M  V30 12001 H 1175.63 5.37431 2.66998 0
M  V30 12002 H 1176.7 4.61921 1.47501 0
M  V30 12003 N 1178.05 -0.61812 1.44973 0
M  V30 12004 C 1178.96 -1.7579 1.55355 0
M  V30 12005 C 1179.97 -1.68384 0.438512 0
M  V30 12006 O 1181.15 -1.88928 0.697715 0
M  V30 12007 C 1178.21 -3.1222 1.50729 0
M  V30 12008 C 1177.27 -3.3116 2.73188 0
M  V30 12009 C 1176.51 -4.61082 2.68774 0
M  V30 12010 O 1176.73 -5.42728 1.75507 0
M  V30 12011 O 1175.66 -4.82506 3.59821 0
M  V30 12012 H 1179.49 -1.69983 2.51674 0
M  V30 12013 H 1177.07 -0.780934 1.27365 0
M  V30 12014 H 1178.96 -3.93524 1.5072 0
M  V30 12015 H 1177.63 -3.18541 0.575587 0
M  V30 12016 H 1176.54 -2.49485 2.78762 0
M  V30 12017 H 1177.87 -3.29709 3.65449 0
M  V30 12018 N 1179.52 -1.32087 -0.859693 0
M  V30 12019 C 1180.46 -1.14934 -1.97143 0
M  V30 12020 C 1181.43 -0.0501084 -1.62523 0
M  V30 12021 O 1182.62 -0.208472 -1.87344 0
M  V30 12022 C 1179.75 -0.758374 -3.30101 0
M  V30 12023 C 1178.79 -1.86212 -3.83702 0
M  V30 12024 S 1179.62 -3.46949 -4.07905 0
M  V30 12025 C 1180.78 -3.09813 -5.43844 0
M  V30 12026 H 1181.01 -2.09047 -2.11392 0
M  V30 12027 H 1178.55 -1.1669 -1.01108 0
M  V30 12028 H 1180.5 -0.539563 -4.06939 0
M  V30 12029 H 1179.17 0.163817 -3.13673 0
M  V30 12030 H 1178.36 -1.54144 -4.7985 0
M  V30 12031 H 1177.96 -2.03652 -3.13691 0
M  V30 12032 H 1180.25 -2.59345 -6.25897 0
M  V30 12033 H 1181.2 -4.04963 -5.8087 0
M  V30 12034 H 1181.6 -2.46971 -5.07607 0
M  V30 12035 N 1181 1.07532 -1.15215 0
M  V30 12036 C 1181.93 2.1668 -0.870171 0
M  V30 12037 C 1182.91 1.69161 0.178483 0
M  V30 12038 O 1184.1 1.94172 0.0332489 0
M  V30 12039 C 1181.23 3.45464 -0.356666 0
M  V30 12040 C 1180.18 4.06424 -1.34179 0
M  V30 12041 C 1179.51 5.30266 -0.687206 0
M  V30 12042 C 1180.81 4.46666 -2.70715 0
M  V30 12043 H 1182.5 2.40526 -1.7829 0
M  V30 12044 H 1180.05 1.15598 -0.858665 0
M  V30 12045 H 1182 4.21144 -0.146947 0
M  V30 12046 H 1180.72 3.21199 0.591527 0
M  V30 12047 H 1179.38 3.32786 -1.53783 0
M  V30 12048 H 1179.03 5.0229 0.267077 0
M  V30 12049 H 1178.73 5.72009 -1.34462 0
M  V30 12050 H 1180.26 6.08653 -0.487218 0
M  V30 12051 H 1181.67 5.13483 -2.54966 0
M  V30 12052 H 1180.07 4.99355 -3.32813 0
M  V30 12053 H 1181.14 3.58123 -3.26919 0
M  V30 12054 N 1182.48 0.948665 1.2585 0
M  V30 12055 C 1183.73 0.601125 1.93686 0
M  V30 12056 C 1184.06 -0.858779 1.7418 0
M  V30 12057 O 1183.33 -1.61539 1.0833 0
M  V30 12058 C 1183.62 0.95333 3.47252 0
M  V30 12059 C 1183.47 2.46853 3.7601 0
M  V30 12060 C 1184.79 0.474098 4.37539 0
M  V30 12061 H 1181.91 0.219864 0.703441 0
M  V30 12062 H 1184.55 1.18424 1.48579 0
M  V30 12063 H 1182.7 0.457114 3.85801 0
M  V30 12064 H 1184.37 3.03804 3.47132 0
M  V30 12065 H 1182.62 2.9088 3.21825 0
M  V30 12066 H 1183.29 2.66547 4.83381 0
M  V30 12067 H 1185.76 0.899664 4.06258 0
M  V30 12068 H 1184.64 0.749287 5.43762 0
M  V30 12069 H 1184.9 -0.625961 4.37646 0
M  V30 12070 N 1183.96 -1.40369 0.716545 0
M  V30 12071 C 1184.89 -2.33365 0.0793533 0
M  V30 12072 C 1185.87 -1.52943 -0.744482 0
M  V30 12073 O 1187.05 -1.81406 -0.693212 0
M  V30 12074 C 1184.18 -3.36928 -0.842429 0
M  V30 12075 C 1183.14 -4.2782 -0.124142 0
M  V30 12076 C 1182.46 -5.21928 -1.1617 0
M  V30 12077 C 1183.76 -5.12199 1.02224 0
M  V30 12078 H 1185.46 -2.86899 0.856115 0
M  V30 12079 H 1183 -1.37946 0.413138 0
M  V30 12080 H 1184.96 -4.00925 -1.29759 0
M  V30 12081 H 1183.68 -2.81791 -1.6511 0
M  V30 12082 H 1182.34 -3.65277 0.311201 0
M  V30 12083 H 1181.99 -4.63096 -1.96345 0
M  V30 12084 H 1181.69 -5.83582 -0.685978 0
M  V30 12085 H 1183.21 -5.88802 -1.61694 0
M  V30 12086 H 1184.63 -5.69644 0.646399 0
M  V30 12087 H 1183.02 -5.82901 1.4264 0
M  V30 12088 H 1184.09 -4.4812 1.85246 0
M  V30 12089 N 1185.44 -0.462799 -1.50652 0
M  V30 12090 C 1186.66 0.0929761 -2.06691 0
M  V30 12091 C 1187.08 1.34241 -1.32758 0
M  V30 12092 O 1186.44 1.78187 -0.394427 0
M  V30 12093 C 1186.49 0.389492 -3.59396 0
M  V30 12094 O 1186.21 -0.810379 -4.3054 0
M  V30 12095 C 1187.71 0.993147 -4.32032 0
M  V30 12096 H 1184.93 -0.00338664 -0.670991 0
M  V30 12097 H 1187.47 -0.649201 -1.93922 0
M  V30 12098 H 1185.63 1.08159 -3.71995 0
M  V30 12099 H 1186.04 -0.54996 -5.21609 0
M  V30 12100 H 1187.52 1.15044 -5.39878 0
M  V30 12101 H 1187.99 1.98106 -3.91983 0
M  V30 12102 H 1188.6 0.339677 -4.23941 0
M  V30 12103 N 1186.91 1.56388 -0.195085 0
M  V30 12104 C 1187.88 2.17859 0.712053 0
M  V30 12105 C 1188.88 1.13304 1.141 0
M  V30 12106 O 1190.07 1.38689 1.05409 0
M  V30 12107 C 1187.2 2.78065 1.97213 0
M  V30 12108 H 1188.39 2.9938 0.176529 0
M  V30 12109 H 1185.95 1.56205 0.0545322 0
M  V30 12110 H 1186.68 2.00342 2.55017 0
M  V30 12111 H 1186.47 3.54603 1.67329 0
M  V30 12112 H 1187.96 3.25266 2.619 0
M  V30 12113 N 1188.39 -0.0785156 1.57404 0
M  V30 12114 C 1189.62 -0.792042 1.9114 0
M  V30 12115 C 1190.04 -1.71458 0.790408 0
M  V30 12116 O 1189.39 -1.80959 -0.236662 0
M  V30 12117 C 1189.44 -1.59138 3.24588 0
M  V30 12118 O 1189.16 -0.705931 4.32375 0
M  V30 12119 C 1190.67 -2.4065 3.72293 0
M  V30 12120 H 1187.89 -0.225566 0.63195 0
M  V30 12121 H 1190.43 -0.0507929 2.04437 0
M  V30 12122 H 1188.58 -2.28498 3.12838 0
M  V30 12123 H 1189 -1.26121 5.09111 0
M  V30 12124 H 1190.47 -2.92204 4.68317 0
M  V30 12125 H 1190.95 -3.1987 3.00965 0
M  V30 12126 H 1191.56 -1.7646 3.86965 0
M  V30 12127 N 1189.87 -1.5367 -0.349747 0
M  V30 12128 C 1191.28 -1.62135 -0.925704 0
M  V30 12129 C 1191.63 -0.498725 -1.89756 0
M  V30 12130 O 1190.76 0.372481 -2.1317 0
M  V30 12131 C 1191.35 -2.93885 -1.68573 0
M  V30 12132 C 1189.91 -3.04632 -2.2108 0
M  V30 12133 C 1189.06 -2.57541 -1.02801 0
M  V30 12134 H 1192.01 -1.58182 -0.128065 0
M  V30 12135 H 1192.03 -2.82577 -2.54815 0
M  V30 12136 H 1191.54 -3.75571 -0.978153 0
M  V30 12137 H 1189.64 -2.27567 -2.95032 0
M  V30 12138 H 1189.76 -4.09993 -2.47876 0
M  V30 12139 H 1188.12 -2.12798 -1.39962 0
M  V30 12140 H 1188.9 -3.4166 -0.335157 0
M  V30 12141 N 1191.35 0.610423 -1.45298 0
M  V30 12142 C 1192.59 1.37154 -1.49388 0
M  V30 12143 C 1192.93 1.93737 -0.134025 0
M  V30 12144 O 1192.2 1.74888 0.851138 0
M  V30 12145 C 1192.49 2.52155 -2.5708 0
M  V30 12146 C 1192.34 2.00786 -4.02498 0
M  V30 12147 C 1193.66 3.54294 -2.61082 0
M  V30 12148 H 1190.78 0.497346 -0.54389 0
M  V30 12149 H 1193.42 0.688358 -1.77092 0
M  V30 12150 H 1191.57 3.10434 -2.33587 0
M  V30 12151 H 1193.24 1.47178 -4.37191 0
M  V30 12152 H 1191.48 1.31809 -4.1329 0
M  V30 12153 H 1192.15 2.83674 -4.73533 0
M  V30 12154 H 1194.63 3.05851 -2.82125 0
M  V30 12155 H 1193.51 4.32254 -3.38301 0
M  V30 12156 H 1193.77 4.09726 -1.66063 0
M  V30 12157 N 1192.83 1.32541 0.852676 0
M  V30 12158 C 1194.05 1.2622 1.6394 0
M  V30 12159 C 1194.47 -0.169455 1.88038 0
M  V30 12160 O 1193.83 -1.10719 1.45078 0
M  V30 12161 C 1193.88 2.02062 2.99755 0
M  V30 12162 O 1193.6 3.39641 2.76723 0
M  V30 12163 C 1195.1 2.02787 3.94198 0
M  V30 12164 H 1192.32 0.435405 0.510552 0
M  V30 12165 H 1194.86 1.74696 1.06309 0
M  V30 12166 H 1193.02 1.57303 3.54026 0
M  V30 12167 H 1193.43 3.78484 3.63111 0
M  V30 12168 H 1194.91 2.60333 4.86755 0
M  V30 12169 H 1195.38 1.01464 4.27319 0
M  V30 12170 H 1195.99 2.47504 3.45864 0
M  V30 12171 N 1194.3 -1.0692 1.15784 0
M  V30 12172 C 1195.72 -1.61069 0.944123 0
M  V30 12173 C 1196.07 -1.8936 -0.513522 0
M  V30 12174 O 1195.19 -1.66232 -1.38549 0
M  V30 12175 C 1195.79 -2.9263 1.70743 0
M  V30 12176 C 1194.35 -3.43505 1.53887 0
M  V30 12177 C 1193.49 -2.17495 1.72021 0
M  V30 12178 H 1196.44 -0.89951 1.30746 0
M  V30 12179 H 1196.46 -3.61757 1.17951 0
M  V30 12180 H 1195.98 -2.72007 2.76828 0
M  V30 12181 H 1194.08 -3.69201 0.502153 0
M  V30 12182 H 1194.19 -4.19254 2.31868 0
M  V30 12183 H 1192.55 -2.27407 1.1471 0
M  V30 12184 H 1193.34 -1.99362 2.79481 0
M  V30 12185 N 1195.78 -0.955326 -1.25345 0
M  V30 12186 C 1196.73 -0.474888 -2.25862 0
M  V30 12187 C 1197.7 0.472996 -1.59223 0
M  V30 12188 O 1198.88 0.386094 -1.86853 0
M  V30 12189 C 1196.02 0.240554 -3.44261 0
M  V30 12190 C 1195.14 -0.74465 -4.25534 0
M  V30 12191 C 1194.27 -0.00657513 -5.312 0
M  V30 12192 C 1193.31 -0.982666 -6.04161 0
M  V30 12193 N 1192.45 -0.275418 -7.0156 0
M  V30 12194 H 1197.29 -1.33693 -2.66327 0
M  V30 12195 H 1194.83 -0.670439 -1.30933 0
M  V30 12196 H 1196.78 0.671933 -4.11753 0
M  V30 12197 H 1195.41 1.06664 -3.04668 0
M  V30 12198 H 1194.47 -1.29451 -3.57696 0
M  V30 12199 H 1195.78 -1.48948 -4.76042 0
M  V30 12200 H 1194.93 0.483404 -6.04771 0
M  V30 12201 H 1193.67 0.771035 -4.81567 0
M  V30 12202 H 1192.68 -1.48364 -5.29404 0
M  V30 12203 H 1193.9 -1.76052 -6.55883 0
M  V30 12204 H 1191.85 0.483441 -6.54216 0
M  V30 12205 H 1191.76 -0.959324 -7.49889 0
M  V30 12206 H 1193.03 0.193002 -7.79261 0
M  V30 12207 N 1197.26 1.39987 -0.723979 0
M  V30 12208 C 1198.22 2.29041 -0.0854583 0
M  V30 12209 C 1199.22 1.45777 0.678657 0
M  V30 12210 O 1200.41 1.66588 0.509311 0
M  V30 12211 C 1197.55 3.29115 0.88859 0
M  V30 12212 H 1198.74 2.87006 -0.869903 0
M  V30 12213 H 1196.29 1.48449 -0.489136 0
M  V30 12214 H 1197.03 2.76184 1.69979 0
M  V30 12215 H 1196.81 3.90593 0.343454 0
M  V30 12216 H 1198.3 3.95778 1.33227 0
M  V30 12217 N 1198.74 0.470782 1.50404 0
M  V30 12218 C 1199.67 -0.313458 2.31386 0
M  V30 12219 C 1200.65 -0.990623 1.38278 0
M  V30 12220 O 1201.84 -0.987854 1.67198 0
M  V30 12221 C 1198.97 -1.39599 3.18009 0
M  V30 12222 C 1197.92 -0.840443 4.19667 0
M  V30 12223 C 1197.25 -2.02124 4.95025 0
M  V30 12224 C 1198.55 0.148055 5.2209 0
M  V30 12225 H 1200.24 0.362432 2.97198 0
M  V30 12226 H 1197.79 0.175745 1.42924 0
M  V30 12227 H 1199.74 -1.9521 3.73458 0
M  V30 12228 H 1198.46 -2.10064 2.50081 0
M  V30 12229 H 1197.12 -0.306302 3.65318 0
M  V30 12230 H 1196.77 -2.71286 4.23571 0
M  V30 12231 H 1196.47 -1.65574 5.6379 0
M  V30 12232 H 1197.99 -2.58226 5.5331 0
M  V30 12233 H 1199.41 -0.318874 5.72413 0
M  V30 12234 H 1197.8 0.427811 5.98573 0
M  V30 12235 H 1198.87 1.07404 4.72855 0
M  V30 12236 N 1200.22 -1.56282 0.203376 0
M  V30 12237 C 1201.15 -2.2247 -0.709183 0
M  V30 12238 C 1202.13 -1.19046 -1.21499 0
M  V30 12239 O 1203.31 -1.47578 -1.26231 0
M  V30 12240 C 1200.44 -2.8905 -1.92529 0
M  V30 12241 C 1199.4 -3.98789 -1.55407 0
M  V30 12242 C 1198.72 -4.52574 -2.84747 0
M  V30 12243 C 1200.02 -5.16774 -0.75775 0
M  V30 12244 H 1201.72 -2.98986 -0.157392 0
M  V30 12245 H 1199.26 -1.43808 -0.0742613 0
M  V30 12246 H 1201.22 -3.34038 -2.56898 0
M  V30 12247 H 1199.94 -2.09952 -2.50175 0
M  V30 12248 H 1198.6 -3.54504 -0.933928 0
M  V30 12249 H 1198.25 -3.70229 -3.40499 0
M  V30 12250 H 1197.95 -5.26627 -2.6065 0
M  V30 12251 H 1199.47 -5.00269 -3.5009 0
M  V30 12252 H 1200.89 -5.58256 -1.30472 0
M  V30 12253 H 1199.28 -5.96945 -0.614583 0
M  V30 12254 H 1200.35 -4.84308 0.239476 0
M  V30 12255 N 1201.7 0.070167 -1.57444 0
M  V30 12256 C 1202.65 1.09016 -2.00249 0
M  V30 12257 C 1203.63 1.34387 -0.884809 0
M  V30 12258 O 1204.82 1.34661 -1.14872 0
M  V30 12259 C 1201.95 2.40344 -2.45132 0
M  V30 12260 C 1201.04 2.1824 -3.63637 0
M  V30 12261 N 1201.43 1.6607 -4.7776 0
M  V30 12262 C 1199.73 2.48706 -3.70218 0
M  V30 12263 C 1200.43 1.58819 -5.59599 0
M  V30 12264 N 1199.4 2.04928 -5.03493 0
M  V30 12265 H 1203.2 0.680143 -2.85922 0
M  V30 12266 H 1200.72 0.277212 -1.60017 0
M  V30 12267 H 1202.72 3.1418 -2.74037 0
M  V30 12268 H 1201.38 2.82061 -1.60846 0
M  V30 12269 H 1202.39 1.34911 -5.00019 0
M  V30 12270 H 1199.06 2.93778 -2.96649 0
M  V30 12271 H 1200.45 1.19323 -6.6122 0
M  V30 12272 N 1203.17 1.53854 0.341593 0
M  V30 12273 C 1204.42 1.71194 1.08162 0
M  V30 12274 C 1204.75 0.47614 1.88582 0
M  V30 12275 O 1204 -0.542115 1.88041 0
M  V30 12276 C 1204.3 2.92844 2.04884 0
M  V30 12277 C 1203.97 4.28366 1.40759 0
M  V30 12278 C 1202.63 4.65214 1.23 0
M  V30 12279 C 1204.98 5.12546 0.945819 0
M  V30 12280 C 1202.31 5.83857 0.576852 0
M  V30 12281 C 1204.66 6.31857 0.306568 0
M  V30 12282 C 1203.33 6.67398 0.116677 0
M  V30 12283 H 1202.6 0.626442 0.395792 0
M  V30 12284 H 1205.24 1.88073 0.360688 0
M  V30 12285 H 1203.55 2.70576 2.83365 0
M  V30 12286 H 1205.25 3.03454 2.62139 0
M  V30 12287 H 1201.84 3.99366 1.5558 0
M  V30 12288 H 1206.02 4.84609 1.07087 0
M  V30 12289 H 1201.28 6.09967 0.418363 0
M  V30 12290 H 1205.45 6.96375 -0.0593285 0
M  V30 12291 H 1203.08 7.59191 -0.391477 0
M  V30 12292 N 1204.65 -0.602709 1.4562 0
M  V30 12293 C 1205.6 -1.73425 1.55005 0
M  V30 12294 C 1206.59 -1.64118 0.419713 0
M  V30 12295 O 1207.8 -1.69853 0.595815 0
M  V30 12296 H 1204.17 -0.573038 0.486962 0
M  V30 12297 H 1206.15 -1.62637 2.50184 0
M  V30 12298 C 1204.89 -3.11808 1.53853 0
M  V30 12299 H 1204.22 -3.19631 2.40158 0
M  V30 12300 H 1205.66 -3.90798 1.64477 0
M  V30 12301 C 1204.12 -3.35866 0.263765 0
M  V30 12302 O 1204.65 -3.96334 -0.654364 0
M  V30 12303 N 1202.85 -2.90171 0.157927 0
M  V30 12304 H 1202.4 -2.41144 0.905944 0
M  V30 12305 H 1202.36 -3.06641 -0.694175 0
M  V30 12306 N 1206.13 -1.32992 -0.845635 0
M  V30 12307 C 1207.35 -1.27231 -1.6379 0
M  V30 12308 C 1207.78 0.155141 -1.87459 0
M  V30 12309 O 1207.14 1.10953 -1.43384 0
M  V30 12310 C 1207.19 -2.04629 -2.96916 0
M  V30 12311 O 1206.29 -1.40027 -3.879 0
M  V30 12312 H 1205.63 -0.438045 -0.499011 0
M  V30 12313 H 1208.16 -1.75448 -1.05257 0
M  V30 12314 H 1208.17 -2.15141 -3.46667 0
M  V30 12315 H 1206.85 -3.08425 -2.79011 0
M  V30 12316 H 1205.42 -1.38118 -3.46378 0
M  V30 12317 N 1207.61 1.06304 -1.1635 0
M  V30 12318 C 1208.86 1.78487 -0.939423 0
M  V30 12319 C 1209.17 1.8817 0.533998 0
M  V30 12320 O 1210.38 2.56981 0.875962 0
M  V30 12321 C 1208.83 3.20796 -1.63149 0
M  V30 12322 C 1208.44 3.19281 -3.14267 0
M  V30 12323 C 1210.18 3.97514 -1.48938 0
M  V30 12324 C 1208.09 4.56309 -3.76213 0
M  V30 12325 H 1207.02 0.668973 -0.347837 0
M  V30 12326 H 1209.67 1.19237 -1.3948 0
M  V30 12327 H 1208.05 3.80305 -1.10382 0
M  V30 12328 H 1209.23 2.69356 -3.73877 0
M  V30 12329 H 1207.54 2.56062 -3.28362 0
M  V30 12330 H 1210.14 4.98808 -1.926 0
M  V30 12331 H 1210.48 4.13986 -0.438319 0
M  V30 12332 H 1211.02 3.44528 -1.98861 0
M  V30 12333 H 1207.75 4.45042 -4.81267 0
M  V30 12334 H 1207.27 5.06429 -3.21388 0
M  V30 12335 H 1208.95 5.25266 -3.77762 0
M  V30 12336 N 1209.09 0.96196 1.24836 0
M  V30 12337 C 1210.33 0.628484 1.94498 0
M  V30 12338 C 1210.69 -0.820337 1.73593 0
M  V30 12339 O 1211.89 -1.26376 2.37239 0
M  V30 12340 C 1210.16 0.986119 3.43527 0
M  V30 12341 S 1211.72 0.766324 4.32057 0
M  V30 12342 H 1208.54 0.230758 0.672511 0
M  V30 12343 H 1211.14 1.23769 1.51332 0
M  V30 12344 H 1209.84 2.03756 3.56247 0
M  V30 12345 H 1209.38 0.367454 3.9168 0
M  V30 12346 H 1211.39 -0.359227 4.94898 0
M  V30 12347 N 1210.56 -1.39601 0.731392 0
M  V30 12348 C 1211.98 -1.54334 0.406594 0
M  V30 12349 C 1212.18 -1.69925 -1.08295 0
M  V30 12350 O 1211.24 -1.69771 -1.86906 0
M  V30 12351 C 1212.55 -2.76303 1.18647 0
M  V30 12352 C 1214.1 -2.90135 1.17433 0
M  V30 12353 C 1214.57 -4.15038 1.93669 0
M  V30 12354 N 1216.06 -4.2207 1.90817 0
M  V30 12355 C 1216.8 -5.17656 2.46616 0
M  V30 12356 N 1216.29 -6.19054 3.11037 0
M  V30 12357 N 1218.09 -5.09847 2.3667 0
M  V30 12358 H 1210.24 -1.27728 1.69703 0
M  V30 12359 H 1212.5 -0.6188 0.718186 0
M  V30 12360 H 1212.21 -2.71113 2.24032 0
M  V30 12361 H 1212.08 -3.68866 0.788514 0
M  V30 12362 H 1214.47 -2.9482 0.128615 0
M  V30 12363 H 1214.55 -1.98646 1.61163 0
M  V30 12364 H 1214.19 -4.11115 2.9824 0
M  V30 12365 H 1214.12 -5.05565 1.47349 0
M  V30 12366 H 1216.61 -3.49437 1.43882 0
M  V30 12367 H 1216.93 -6.88444 3.51091 0
M  V30 12368 H 1215.27 -6.19452 3.15126 0
M  V30 12369 H 1218.46 -4.29566 1.85987 0
M  V30 12370 H 1218.64 -5.84165 2.80455 0
M  V30 12371 N 1212.04 -0.478751 -1.50152 0
M  V30 12372 C 1212.99 0.325375 -2.30313 0
M  V30 12373 C 1213.98 0.983372 -1.37935 0
M  V30 12374 O 1215.19 0.913601 -1.55091 0
M  V30 12375 H 1211.57 0.123775 -0.741744 0
M  V30 12376 H 1213.54 -0.371004 -2.96085 0
M  V30 12377 C 1212.29 1.39026 -3.18696 0
M  V30 12378 H 1211.61 0.893329 -3.89692 0
M  V30 12379 H 1213.05 1.92533 -3.77766 0
M  V30 12380 C 1211.51 2.39637 -2.36803 0
M  V30 12381 O 1212.04 3.45067 -2.05649 0
M  V30 12382 N 1210.24 2.11546 -1.9924 0
M  V30 12383 H 1209.79 1.25832 -2.24775 0
M  V30 12384 H 1209.75 2.79096 -1.44751 0
M  V30 12385 N 1213.52 1.56172 -0.211661 0
M  V30 12386 C 1214.45 2.22843 0.697375 0
M  V30 12387 C 1215.43 1.19689 1.20866 0
M  V30 12388 O 1216.62 1.48245 1.25447 0
M  V30 12389 C 1213.75 2.90067 1.90993 0
M  V30 12390 C 1212.7 3.99608 1.5329 0
M  V30 12391 C 1212.03 4.54078 2.82343 0
M  V30 12392 C 1213.33 5.17169 0.730333 0
M  V30 12393 H 1215.02 2.99065 0.141533 0
M  V30 12394 H 1212.57 1.43846 0.0666337 0
M  V30 12395 H 1214.52 3.35396 2.55123 0
M  V30 12396 H 1213.24 2.11276 2.49058 0
M  V30 12397 H 1211.9 3.54995 0.915115 0
M  V30 12398 H 1211.55 3.72029 3.38531 0
M  V30 12399 H 1211.25 5.28001 2.57853 0
M  V30 12400 H 1212.77 5.02119 3.47432 0
M  V30 12401 H 1214.19 5.5894 1.2751 0
M  V30 12402 H 1212.59 5.97262 0.582916 0
M  V30 12403 H 1213.66 4.84174 -0.265157 0
M  V30 12404 N 1215 -0.0618163 1.57479 0
M  V30 12405 C 1215.95 -1.0724 2.04373 0
M  V30 12406 C 1216.92 -1.37875 0.926271 0
M  V30 12407 O 1218.1 -1.48772 1.19463 0
M  V30 12408 C 1215.24 -2.37805 2.50085 0
M  V30 12409 C 1214.35 -2.13614 3.7549 0
M  V30 12410 C 1213.49 -3.37814 4.09945 0
M  V30 12411 C 1212.53 -3.09032 5.28361 0
M  V30 12412 N 1211.66 -4.25591 5.58406 0
M  V30 12413 H 1216.5 -0.665536 2.90473 0
M  V30 12414 H 1214.04 -0.317043 1.43643 0
M  V30 12415 H 1216 -3.14048 2.74644 0
M  V30 12416 H 1214.63 -2.76275 1.66948 0
M  V30 12417 H 1213.68 -1.28017 3.58212 0
M  V30 12418 H 1214.99 -1.88361 4.61867 0
M  V30 12419 H 1214.15 -4.22447 4.35458 0
M  V30 12420 H 1212.89 -3.66153 3.22154 0
M  V30 12421 H 1211.89 -2.22797 5.02635 0
M  V30 12422 H 1213.12 -2.82006 6.17778 0
M  V30 12423 H 1211.06 -4.53941 4.73575 0
M  V30 12424 H 1210.98 -4.03646 6.39223 0
M  V30 12425 H 1212.25 -5.11191 5.88476 0
M  V30 12426 N 1216.48 -1.54033 -0.333429 0
M  V30 12427 C 1217.7 -1.76031 -1.09672 0
M  V30 12428 C 1218.13 -0.502844 -1.81254 0
M  V30 12429 O 1217.48 0.54509 -1.72912 0
M  V30 12430 C 1217.53 -2.947 -2.07809 0
M  V30 12431 O 1216.64 -2.65555 -3.15522 0
M  V30 12432 H 1215.98 -0.583611 -0.316692 0
M  V30 12433 H 1218.51 -2.01026 -0.380732 0
M  V30 12434 H 1218.52 -3.21771 -2.50853 0
M  V30 12435 H 1217.19 -3.85895 -1.55106 0
M  V30 12436 H 1215.77 -2.49403 -2.77223 0
M  V30 12437 N 1217.95 0.594978 -1.45938 0
M  V30 12438 C 1219.2 1.34976 -1.49881 0
M  V30 12439 C 1219.52 1.95025 -0.14983 0
M  V30 12440 O 1220.72 2.71417 -0.0669868 0
M  V30 12441 C 1219.18 2.44563 -2.6404 0
M  V30 12442 C 1218.79 1.9087 -4.05306 0
M  V30 12443 C 1220.53 3.21461 -2.77242 0
M  V30 12444 C 1218.44 2.98013 -5.10825 0
M  V30 12445 H 1217.37 0.507366 -0.55776 0
M  V30 12446 H 1220.02 0.636316 -1.72114 0
M  V30 12447 H 1218.4 3.1865 -2.35114 0
M  V30 12448 H 1219.57 1.23408 -4.43968 0
M  V30 12449 H 1217.89 1.26678 -3.96663 0
M  V30 12450 H 1220.49 4.01399 -3.53246 0
M  V30 12451 H 1220.83 3.73271 -1.84321 0
M  V30 12452 H 1221.36 2.54477 -3.05756 0
M  V30 12453 H 1218.1 2.51104 -6.05497 0
M  V30 12454 H 1217.62 3.64003 -4.7672 0
M  V30 12455 H 1219.3 3.62178 -5.36131 0
M  V30 12456 N 1219.43 1.33438 0.838571 0
M  V30 12457 C 1220.68 1.25097 1.5962 0
M  V30 12458 C 1221.01 -0.182798 1.93338 0
M  V30 12459 O 1220.29 -1.1242 1.5872 0
M  V30 12460 C 1220.57 2.12655 2.90603 0
M  V30 12461 C 1220.42 3.64491 2.63565 0
M  V30 12462 C 1221.74 1.99994 3.92033 0
M  V30 12463 H 1218.86 0.455776 0.579169 0
M  V30 12464 H 1221.5 1.63542 0.967169 0
M  V30 12465 H 1219.65 1.79998 3.44286 0
M  V30 12466 H 1221.32 4.0744 2.16312 0
M  V30 12467 H 1219.57 3.86356 1.9726 0
M  V30 12468 H 1220.24 4.21101 3.569 0
M  V30 12469 H 1222.71 2.28635 3.47657 0
M  V30 12470 H 1221.59 2.63509 4.81512 0
M  V30 12471 H 1221.85 0.972263 4.31277 0
M  V30 12472 N 1220.91 -1.05686 1.16912 0
M  V30 12473 C 1222.16 -1.78862 0.955839 0
M  V30 12474 C 1222.49 -1.87257 -0.514645 0
M  V30 12475 O 1221.76 -1.36869 -1.38193 0
M  V30 12476 C 1222.05 -3.23021 1.59152 0
M  V30 12477 C 1221.9 -3.22669 3.13376 0
M  V30 12478 C 1223.22 -4.2073 1.29128 0
M  V30 12479 H 1220.34 -0.64931 0.348663 0
M  V30 12480 H 1222.98 -1.23561 1.44335 0
M  V30 12481 H 1221.13 -3.70243 1.17697 0
M  V30 12482 H 1222.8 -2.83562 3.63855 0
M  V30 12483 H 1221.05 -2.61149 3.46386 0
M  V30 12484 H 1221.72 -4.24394 3.52979 0
M  V30 12485 H 1224.19 -3.8198 1.65017 0
M  V30 12486 H 1223.07 -5.19851 1.76198 0
M  V30 12487 H 1223.33 -4.41595 0.21119 0
M  V30 12488 N 1222.39 -0.968567 -1.24324 0
M  V30 12489 C 1223.32 -0.457247 -2.24593 0
M  V30 12490 C 1224.33 0.434483 -1.56895 0
M  V30 12491 O 1225.52 0.240519 -1.76872 0
M  V30 12492 C 1222.62 0.359086 -3.36992 0
M  V30 12493 C 1221.8 -0.522945 -4.34263 0
M  V30 12494 C 1220.85 0.237528 -5.25664 0
M  V30 12495 O 1219.88 -0.368835 -5.68004 0
M  V30 12496 N 1221.08 1.52686 -5.6006 0
M  V30 12497 H 1223.85 -1.31934 -2.69098 0
M  V30 12498 H 1221.41 -0.840488 -1.38374 0
M  V30 12499 H 1223.4 0.87589 -3.95108 0
M  V30 12500 H 1221.97 1.12212 -2.91766 0
M  V30 12501 H 1221.19 -1.22071 -3.74823 0
M  V30 12502 H 1222.48 -1.12447 -4.96219 0
M  V30 12503 H 1221.88 2.0412 -5.2759 0
M  V30 12504 H 1220.43 1.98934 -6.207 0
M  V30 12505 N 1223.87 1.39211 -0.738786 0
M  V30 12506 C 1225.12 1.99673 -0.285254 0
M  V30 12507 C 1225.43 1.59297 1.13507 0
M  V30 12508 O 1226.63 2.12622 1.68832 0
M  V30 12509 C 1225.09 3.5696 -0.45906 0
M  V30 12510 C 1224.7 4.06297 -1.88751 0
M  V30 12511 C 1226.44 4.24446 -0.0674954 0
M  V30 12512 C 1224.35 5.56171 -2.01067 0
M  V30 12513 H 1223.28 0.746945 -0.102901 0
M  V30 12514 H 1225.93 1.59163 -0.913209 0
M  V30 12515 H 1224.31 3.95285 0.23785 0
M  V30 12516 H 1225.49 3.79297 -2.61669 0
M  V30 12517 H 1223.8 3.51486 -2.23264 0
M  V30 12518 H 1226.4 5.34521 -0.138475 0
M  V30 12519 H 1226.74 4.04653 0.977823 0
M  V30 12520 H 1227.27 3.91309 -0.715704 0
M  V30 12521 H 1224.01 5.80849 -3.03801 0
M  V30 12522 H 1223.53 5.84961 -1.32591 0
M  V30 12523 H 1225.21 6.21642 -1.79362 0
M  V30 12524 N 1225.34 0.486708 1.49896 0
M  V30 12525 C 1226.59 -0.0627279 2.02003 0
M  V30 12526 C 1226.91 -1.38799 1.36967 0
M  V30 12527 O 1226.18 -1.88868 0.520173 0
M  V30 12528 H 1224.76 -0.0261718 0.746541 0
M  V30 12529 H 1227.43 0.640692 1.84068 0
M  V30 12530 H 1226.52 -0.202856 3.1144 0
M  V30 12531 N 1226.82 -1.56058 0.219941 0
M  V30 12532 C 1228.07 -1.97436 -0.412543 0
M  V30 12533 C 1228.39 -1.11058 -1.61014 0
M  V30 12534 O 1229.59 -1.42328 -2.31203 0
M  V30 12535 C 1228.05 -3.51227 -0.785362 0
M  V30 12536 C 1227.66 -4.46305 0.389328 0
M  V30 12537 C 1229.4 -4.01321 -1.38354 0
M  V30 12538 C 1227.31 -5.914 -0.00583531 0
M  V30 12539 H 1226.24 -0.73728 -0.157906 0
M  V30 12540 H 1228.89 -1.8076 0.315898 0
M  V30 12541 H 1227.27 -3.63497 -1.57118 0
M  V30 12542 H 1228.44 -4.45781 1.16686 0
M  V30 12543 H 1226.76 -4.06543 0.900633 0
M  V30 12544 H 1229.36 -5.07221 -1.69207 0
M  V30 12545 H 1229.7 -3.47077 -2.29876 0
M  V30 12546 H 1230.23 -3.92267 -0.66119 0
M  V30 12547 H 1226.97 -6.49623 0.87583 0
M  V30 12548 H 1226.49 -5.95121 -0.74772 0
M  V30 12549 H 1228.17 -6.45549 -0.43308 0
M  V30 12550 N 1228.3 0.053464 -1.57509 0
M  V30 12551 C 1229.26 1.04604 -2.03938 0
M  V30 12552 C 1230.26 1.30509 -0.939357 0
M  V30 12553 O 1231.45 1.25922 -1.20371 0
M  V30 12554 C 1228.59 2.38516 -2.43563 0
M  V30 12555 H 1229.78 0.645484 -2.92871 0
M  V30 12556 H 1227.33 0.299683 -1.534 0
M  V30 12557 H 1228.07 2.83368 -1.57712 0
M  V30 12558 H 1227.85 2.2105 -3.23851 0
M  V30 12559 H 1229.34 3.09826 -2.79996 0
M  V30 12560 N 1229.78 1.54207 0.325255 0
M  V30 12561 C 1231.06 1.6298 1.08153 0
M  V30 12562 C 1231.44 0.462583 2.05969 0
M  V30 12563 O 1230.78 -0.543323 2.21947 0
M  V30 12564 C 1230.99 2.999 1.78497 0
M  V30 12565 C 1232.34 3.55888 2.3158 0
M  V30 12566 O 1233.37 3.02194 1.88566 0
M  V30 12567 O 1232.23 4.49847 3.10322 0
M  V30 12568 H 1229.32 0.659923 0.498429 0
M  V30 12569 H 1231.87 1.66553 0.325282 0
M  V30 12570 H 1230.64 3.7629 1.07338 0
M  V30 12571 H 1230.26 2.99997 2.60936 0
M  V30 12572 N 1231.26 -0.58723 1.46251 0
M  V30 12573 C 1232.49 -1.36976 1.54665 0
M  V30 12574 C 1232.9 -1.88293 0.185079 0
M  V30 12575 O 1232.24 -1.64028 -0.82707 0
M  V30 12576 C 1232.3 -2.59591 2.48702 0
M  V30 12577 C 1231.96 -2.29773 3.95036 0
M  V30 12578 C 1232.96 -1.88885 4.84374 0
M  V30 12579 C 1230.65 -2.42057 4.40129 0
M  V30 12580 C 1232.64 -1.60669 6.16818 0
M  V30 12581 C 1230.33 -2.13454 5.72609 0
M  V30 12582 C 1231.33 -1.72824 6.60773 0
M  V30 12583 O 1231.01 -1.44569 7.90794 0
M  V30 12584 H 1230.75 -0.424968 0.525717 0
M  V30 12585 H 1233.3 -0.721298 1.92319 0
M  V30 12586 H 1231.53 -3.27226 2.06058 0
M  V30 12587 H 1233.22 -3.21656 2.47573 0
M  V30 12588 H 1233.98 -1.78913 4.50794 0
M  V30 12589 H 1229.86 -2.72644 3.71734 0
M  V30 12590 H 1233.41 -1.28882 6.85591 0
M  V30 12591 H 1229.3 -2.23048 6.05739 0
M  V30 12592 H 1230.07 -1.58452 8.03016 0
M  V30 12593 N 1232.74 -1.33881 -0.831482 0
M  V30 12594 C 1233.98 -1.25755 -1.58719 0
M  V30 12595 C 1234.31 0.174746 -1.93713 0
M  V30 12596 O 1233.57 1.13384 -1.59507 0
M  V30 12597 C 1233.86 -2.08544 -2.90249 0
M  V30 12598 C 1233.53 -3.57651 -2.74585 0
M  V30 12599 C 1232.19 -3.983 -2.7002 0
M  V30 12600 C 1234.54 -4.52369 -2.58866 0
M  V30 12601 C 1231.87 -5.31872 -2.47647 0
M  V30 12602 C 1234.22 -5.86112 -2.38025 0
M  V30 12603 C 1232.89 -6.25934 -2.31867 0
M  V30 12604 H 1232.16 -0.460171 -0.580796 0
M  V30 12605 H 1234.81 -1.6554 -0.96274 0
M  V30 12606 H 1233.11 -1.6156 -3.56939 0
M  V30 12607 H 1234.81 -1.99609 -3.47789 0
M  V30 12608 H 1231.4 -3.2538 -2.78973 0
M  V30 12609 H 1235.58 -4.21868 -2.61421 0
M  V30 12610 H 1230.84 -5.61756 -2.41331 0
M  V30 12611 H 1235.01 -6.59103 -2.24847 0
M  V30 12612 H 1232.64 -7.29372 -2.14291 0
M  V30 12613 N 1234.21 1.05064 -1.1747 0
M  V30 12614 C 1235.16 2.12841 -0.89259 0
M  V30 12615 C 1236.13 1.65288 0.16402 0
M  V30 12616 O 1237.32 1.90782 0.026537 0
M  V30 12617 C 1234.46 3.42614 -0.41344 0
M  V30 12618 C 1233.57 4.03835 -1.53432 0
M  V30 12619 C 1232.7 5.21531 -1.00891 0
M  V30 12620 C 1231.74 5.74761 -2.10515 0
M  V30 12621 N 1230.88 6.83756 -1.59442 0
M  V30 12622 H 1235.72 2.36312 -1.81551 0
M  V30 12623 H 1233.26 1.15929 -0.905483 0
M  V30 12624 H 1235.21 4.17035 -0.117181 0
M  V30 12625 H 1233.84 3.19323 0.472517 0
M  V30 12626 H 1232.9 3.2684 -1.94627 0
M  V30 12627 H 1234.21 4.3938 -2.36108 0
M  V30 12628 H 1233.36 6.03027 -0.666575 0
M  V30 12629 H 1232.1 4.87464 -0.151608 0
M  V30 12630 H 1231.11 4.91893 -2.45604 0
M  V30 12631 H 1232.33 6.10875 -2.96663 0
M  V30 12632 H 1230.28 6.51584 -0.759849 0
M  V30 12633 H 1230.19 7.18311 -2.35724 0
M  V30 12634 H 1231.46 7.68901 -1.28105 0
M  V30 12635 N 1235.69 0.975146 1.23809 0
M  V30 12636 C 1236.6 0.51917 2.28783 0
M  V30 12637 C 1237.62 -0.423487 1.68768 0
M  V30 12638 O 1238.79 -0.294699 1.99232 0
M  V30 12639 C 1235.86 -0.176229 3.46252 0
M  V30 12640 C 1234.92 0.807177 4.21643 0
M  V30 12641 C 1234.15 0.144869 5.33503 0
M  V30 12642 O 1234.38 -1.06522 5.60365 0
M  V30 12643 O 1233.31 0.84079 5.95999 0
M  V30 12644 H 1237.14 1.39204 2.69919 0
M  V30 12645 H 1234.72 0.74253 1.29641 0
M  V30 12646 H 1236.6 -0.566547 4.17574 0
M  V30 12647 H 1235.28 -1.02394 3.07078 0
M  V30 12648 H 1234.18 1.2481 3.52666 0
M  V30 12649 H 1235.52 1.62354 4.64653 0
M  V30 12650 N 1237.17 -1.38817 0.746158 0
M  V30 12651 C 1238.58 -1.83045 0.367629 0
M  V30 12652 C 1238.93 -1.62285 -1.10263 0
M  V30 12653 O 1238.06 -1.12001 -1.85162 0
M  V30 12654 C 1238.65 -3.323 0.660482 0
M  V30 12655 C 1237.21 -3.74903 0.335318 0
M  V30 12656 C 1236.36 -2.61683 0.917446 0
M  V30 12657 H 1239.31 -1.27651 0.94291 0
M  V30 12658 H 1239.33 -3.80446 -0.0639061 0
M  V30 12659 H 1238.84 -3.47377 1.73062 0
M  V30 12660 H 1236.94 -3.65408 -0.728538 0
M  V30 12661 H 1237.06 -4.71932 0.825677 0
M  V30 12662 H 1235.42 -2.52376 0.343316 0
M  V30 12663 H 1236.2 -2.79563 1.99247 0
M  V30 12664 N 1238.65 -0.49465 -1.49636 0
M  V30 12665 C 1239.87 0.051305 -2.07337 0
M  V30 12666 C 1240.3 1.30637 -1.35335 0
M  V30 12667 O 1239.66 1.76647 -0.408126 0
M  V30 12668 C 1239.7 0.294425 -3.59396 0
M  V30 12669 O 1238.81 1.3704 -3.88965 0
M  V30 12670 H 1238.15 -0.023408 -0.663587 0
M  V30 12671 H 1240.68 -0.692451 -1.92526 0
M  V30 12672 H 1240.69 0.527854 -4.04571 0
M  V30 12673 H 1239.36 -0.622583 -4.11214 0
M  V30 12674 H 1237.94 1.12242 -3.55607 0
M  V30 12675 N 1240.13 1.55939 -0.228214 0
M  V30 12676 C 1241.35 2.0332 0.409364 0
M  V30 12677 C 1241.78 1.10683 1.52088 0
M  V30 12678 O 1241.13 0.0962484 1.81044 0
M  V30 12679 C 1241.18 3.48877 0.911981 0
M  V30 12680 O 1240.29 3.59378 2.02289 0
M  V30 12681 H 1239.63 0.657625 0.0917909 0
M  V30 12682 H 1242.16 2.01605 -0.348802 0
M  V30 12683 H 1242.17 3.89331 1.22007 0
M  V30 12684 H 1240.84 4.15783 0.0984902 0
M  V30 12685 H 1239.42 3.30815 1.72093 0
M  V30 12686 N 1241.6 -0.0451101 1.57535 0
M  V30 12687 C 1243.02 -0.59372 1.77008 0
M  V30 12688 C 1243.37 -1.76482 0.857233 0
M  V30 12689 O 1242.49 -2.16347 0.0479703 0
M  V30 12690 C 1243.09 -1.08383 3.20996 0
M  V30 12691 C 1241.65 -1.57808 3.41721 0
M  V30 12692 C 1240.79 -0.509067 2.72587 0
M  V30 12693 H 1243.74 0.181114 1.57663 0
M  V30 12694 H 1243.76 -1.95181 3.26626 0
M  V30 12695 H 1243.28 -0.231276 3.8741 0
M  V30 12696 H 1241.38 -2.45302 2.8046 0
M  V30 12697 H 1241.49 -1.63664 4.50279 0
M  V30 12698 H 1239.85 -0.960389 2.359 0
M  V30 12699 H 1240.64 0.333753 3.41674 0
M  V30 12700 N 1243.08 -1.54377 -0.317073 0
M  V30 12701 C 1243.99 -1.87247 -1.41335 0
M  V30 12702 C 1245.01 -0.765017 -1.5628 0
M  V30 12703 O 1246.18 -1.05994 -1.71252 0
M  V30 12704 C 1243.25 -2.0988 -2.75955 0
M  V30 12705 C 1242.31 -3.33658 -2.70131 0
M  V30 12706 C 1241.54 -3.55202 -3.9833 0
M  V30 12707 O 1241.77 -2.80061 -4.96913 0
M  V30 12708 O 1240.7 -4.48693 -4.01196 0
M  V30 12709 H 1244.53 -2.80481 -1.16465 0
M  V30 12710 H 1242.11 -1.40364 -0.511687 0
M  V30 12711 H 1243.99 -2.2606 -3.55633 0
M  V30 12712 H 1242.67 -1.19834 -3.00702 0
M  V30 12713 H 1241.58 -3.22857 -1.88981 0
M  V30 12714 H 1242.91 -4.23782 -2.50338 0
M  V30 12715 N 1244.56 0.579466 -1.4656 0
M  V30 12716 C 1245.52 1.67033 -1.56948 0
M  V30 12717 C 1246.52 1.54481 -0.446361 0
M  V30 12718 O 1247.71 1.5904 -0.710767 0
M  V30 12719 C 1244.85 3.06474 -1.49286 0
M  V30 12720 H 1246.04 1.59179 -2.54169 0
M  V30 12721 H 1243.59 0.797573 -1.34419 0
M  V30 12722 H 1244.33 3.1988 -0.533572 0
M  V30 12723 H 1244.11 3.16993 -2.30776 0
M  V30 12724 H 1245.6 3.85879 -1.59648 0
M  V30 12725 N 1246.04 1.3432 0.824371 0
M  V30 12726 C 1246.97 1.21619 1.94271 0
M  V30 12727 C 1247.98 0.143628 1.62165 0
M  V30 12728 O 1249.17 0.395353 1.74067 0
M  V30 12729 C 1246.27 0.846128 3.28167 0
M  V30 12730 C 1245.45 2.01337 3.88307 0
M  V30 12731 C 1244.5 1.62194 5.00579 0
M  V30 12732 O 1243.53 2.33831 5.18953 0
M  V30 12733 N 1244.73 0.535262 5.78027 0
M  V30 12734 H 1247.5 2.17963 2.05699 0
M  V30 12735 H 1245.06 1.27256 1.00088 0
M  V30 12736 H 1247.05 0.566086 4.00721 0
M  V30 12737 H 1245.62 -0.0270764 3.12588 0
M  V30 12738 H 1244.84 2.45823 3.08164 0
M  V30 12739 H 1246.13 2.79404 4.25219 0
M  V30 12740 H 1245.53 -0.0603126 5.65668 0
M  V30 12741 H 1244.08 0.314946 6.51039 0
M  V30 12742 N 1247.52 -1.0444 1.18026 0
M  V30 12743 C 1248.46 -2.12365 0.903865 0
M  V30 12744 C 1249.43 -1.65373 -0.155252 0
M  V30 12745 O 1250.62 -1.90793 -0.016419 0
M  V30 12746 C 1247.76 -3.4239 0.431603 0
M  V30 12747 C 1246.87 -4.03016 1.55571 0
M  V30 12748 C 1246.01 -5.20988 1.03655 0
M  V30 12749 C 1245.05 -5.73636 2.1356 0
M  V30 12750 N 1244.18 -6.82901 1.63066 0
M  V30 12751 H 1249.02 -2.35346 1.82802 0
M  V30 12752 H 1246.56 -1.15447 0.911618 0
M  V30 12753 H 1248.52 -4.16967 0.139296 0
M  V30 12754 H 1247.15 -3.19569 -0.455576 0
M  V30 12755 H 1246.2 -3.25803 1.96358 0
M  V30 12756 H 1247.51 -4.38122 2.38434 0
M  V30 12757 H 1246.67 -6.02665 0.698546 0
M  V30 12758 H 1245.4 -4.87377 0.177457 0
M  V30 12759 H 1244.41 -4.90583 2.4821 0
M  V30 12760 H 1245.63 -6.09293 2.99899 0
M  V30 12761 H 1243.58 -6.51172 0.794394 0
M  V30 12762 H 1243.5 -7.1705 2.3953 0
M  V30 12763 H 1244.77 -7.68211 1.32181 0
M  V30 12764 N 1248.99 -0.981699 -1.2329 0
M  V30 12765 C 1249.92 -0.542441 -2.27112 0
M  V30 12766 C 1250.91 0.425034 -1.64704 0
M  V30 12767 O 1252.09 0.318114 -1.91577 0
M  V30 12768 C 1249.22 0.154668 -3.46955 0
M  V30 12769 C 1248.17 -0.73022 -4.21725 0
M  V30 12770 C 1247.5 0.0991766 -5.34608 0
M  V30 12771 C 1248.8 -2.02166 -4.81587 0
M  V30 12772 H 1250.49 -1.41024 -2.64107 0
M  V30 12773 H 1248.04 -0.679544 -1.26957 0
M  V30 12774 H 1249.99 0.473281 -4.18734 0
M  V30 12775 H 1248.72 1.05693 -3.09025 0
M  V30 12776 H 1247.38 -1.03231 -3.51765 0
M  V30 12777 H 1247.02 1.00201 -4.92919 0
M  V30 12778 H 1246.72 -0.489788 -5.85555 0
M  V30 12779 H 1248.25 0.412141 -6.09207 0
M  V30 12780 H 1249.66 -1.76773 -5.45366 0
M  V30 12781 H 1248.06 -2.55851 -5.42826 0
M  V30 12782 H 1249.13 -2.70766 -4.02261 0
M  V30 12783 N 1250.47 1.3842 -0.753509 0
M  V30 12784 C 1251.72 2.00119 -0.309633 0
M  V30 12785 C 1252.05 1.59811 1.10863 0
M  V30 12786 O 1251.3 0.827013 1.77367 0
M  V30 12787 C 1251.6 3.55375 -0.379937 0
M  V30 12788 C 1251.27 4.15393 -1.75384 0
M  V30 12789 C 1249.93 4.31499 -2.12984 0
M  V30 12790 C 1252.28 4.48503 -2.65508 0
M  V30 12791 C 1249.61 4.78011 -3.4018 0
M  V30 12792 C 1251.96 4.96431 -3.92095 0
M  V30 12793 C 1250.63 5.10744 -4.29764 0
M  V30 12794 H 1249.9 0.732286 -0.113303 0
M  V30 12795 H 1252.54 1.65468 -0.963975 0
M  V30 12796 H 1250.85 3.90161 0.357969 0
M  V30 12797 H 1252.54 4.00996 -0.0180738 0
M  V30 12798 H 1249.13 4.03271 -1.45156 0
M  V30 12799 H 1253.32 4.35661 -2.37724 0
M  V30 12800 H 1248.57 4.87277 -3.69284 0
M  V30 12801 H 1252.75 5.21021 -4.62072 0
M  V30 12802 H 1250.38 5.46545 -5.28387 0
M  V30 12803 N 1251.95 0.502579 1.49372 0
M  V30 12804 C 1252.86 -0.279532 2.32929 0
M  V30 12805 C 1253.88 -0.965806 1.44735 0
M  V30 12806 O 1255.05 -0.946839 1.77755 0
M  V30 12807 C 1252.12 -1.32913 3.20211 0
M  V30 12808 C 1251.18 -0.656121 4.24256 0
M  V30 12809 C 1250.41 -1.65571 5.07368 0
M  V30 12810 O 1250.63 -2.88571 4.92019 0
M  V30 12811 O 1249.57 -1.21016 5.89609 0
M  V30 12812 H 1253.39 0.404427 3.00995 0
M  V30 12813 H 1250.98 0.263888 1.47051 0
M  V30 12814 H 1252.86 -1.93635 3.74277 0
M  V30 12815 H 1251.54 -1.99598 2.54837 0
M  V30 12816 H 1250.44 -0.00911489 3.74099 0
M  V30 12817 H 1251.78 -0.0316802 4.9219 0
M  V30 12818 N 1253.43 -1.55816 0.23648 0
M  V30 12819 C 1254.71 -1.90565 -0.440933 0
M  V30 12820 C 1255.09 -1.15585 -1.76645 0
M  V30 12821 O 1254.43 -0.269949 -2.269 0
M  V30 12822 C 1254.64 -3.43462 -0.61925 0
M  V30 12823 C 1255.99 -4.14516 -0.91989 0
M  V30 12824 O 1257.02 -3.49144 -0.705496 0
M  V30 12825 O 1255.87 -5.3013 -1.32759 0
M  V30 12826 H 1252.97 -0.79285 -0.235199 0
M  V30 12827 H 1255.51 -1.67378 0.279774 0
M  V30 12828 H 1254.29 -3.90029 0.315124 0
M  V30 12829 H 1253.91 -3.72478 -1.39089 0
M  V30 12830 N 1254.91 0.036755 -1.57557 0
M  V30 12831 C 1255.84 1.07261 -2.01421 0
M  V30 12832 C 1256.82 1.35609 -0.897161 0
M  V30 12833 O 1258 1.48395 -1.16237 0
M  V30 12834 C 1255.13 2.40912 -2.38074 0
M  V30 12835 C 1254.17 2.28471 -3.60143 0
M  V30 12836 S 1255.01 1.64544 -5.09594 0
M  V30 12837 C 1256.16 2.99701 -5.49482 0
M  V30 12838 H 1256.4 0.698959 -2.88967 0
M  V30 12839 H 1253.93 0.246481 -1.5242 0
M  V30 12840 H 1255.89 3.17776 -2.59862 0
M  V30 12841 H 1254.55 2.75427 -1.50993 0
M  V30 12842 H 1253.74 3.27117 -3.8342 0
M  V30 12843 H 1253.34 1.59749 -3.38166 0
M  V30 12844 H 1255.64 3.96032 -5.49695 0
M  V30 12845 H 1256.58 2.81166 -6.49885 0
M  V30 12846 H 1256.99 3.0192 -4.76975 0
M  V30 12847 N 1256.39 1.54543 0.308881 0
M  V30 12848 C 1257.63 1.73706 1.04661 0
M  V30 12849 C 1257.96 0.517111 1.87189 0
M  V30 12850 O 1257.24 -0.485856 1.88334 0
M  V30 12851 C 1257.52 3.02141 1.95916 0
M  V30 12852 C 1257.38 4.34419 1.1662 0
M  V30 12853 C 1258.69 3.26401 2.95213 0
M  V30 12854 H 1255.81 0.63203 0.379087 0
M  V30 12855 H 1258.46 1.87253 0.321947 0
M  V30 12856 H 1256.61 2.90723 2.57706 0
M  V30 12857 H 1258.28 4.57743 0.571772 0
M  V30 12858 H 1256.52 4.3126 0.468747 0
M  V30 12859 H 1257.19 5.20535 1.83704 0
M  V30 12860 H 1259.67 3.37377 2.43549 0
M  V30 12861 H 1258.54 4.17597 3.56235 0
M  V30 12862 H 1258.8 2.44322 3.68455 0
M  V30 12863 N 1257.86 -0.571685 1.46866 0
M  V30 12864 C 1259.09 -1.35524 1.56336 0
M  V30 12865 C 1259.51 -1.87647 0.208359 0
M  V30 12866 O 1258.86 -1.64219 -0.796136 0
M  V30 12867 C 1258.91 -2.53518 2.57703 0
M  V30 12868 O 1258.64 -2.03552 3.87941 0
M  V30 12869 C 1260.14 -3.45925 2.77219 0
M  V30 12870 H 1257.36 -0.41363 0.528348 0
M  V30 12871 H 1259.9 -0.693943 1.92366 0
M  V30 12872 H 1258.06 -3.15615 2.24647 0
M  V30 12873 H 1258.47 -2.80476 4.43208 0
M  V30 12874 H 1259.94 -4.2517 3.52043 0
M  V30 12875 H 1260.42 -3.98559 1.8452 0
M  V30 12876 H 1261.03 -2.89655 3.11416 0
M  V30 12877 N 1259.34 -1.34755 -0.817236 0
M  V30 12878 C 1260.29 -1.26801 -1.92848 0
M  V30 12879 C 1261.26 -0.142077 -1.65491 0
M  V30 12880 O 1262.44 -0.324006 -1.88029 0
M  V30 12881 C 1259.58 -1.03513 -3.2921 0
M  V30 12882 C 1258.7 -2.24932 -3.68822 0
M  V30 12883 C 1257.83 -1.94881 -4.94161 0
M  V30 12884 C 1256.87 -3.12411 -5.2637 0
M  V30 12885 N 1256.01 -2.82207 -6.42887 0
M  V30 12886 H 1260.85 -2.21832 -1.98983 0
M  V30 12887 H 1258.38 -1.10284 -0.973439 0
M  V30 12888 H 1260.34 -0.88047 -4.07803 0
M  V30 12889 H 1258.97 -0.121478 -3.22571 0
M  V30 12890 H 1258.02 -2.51299 -2.85575 0
M  V30 12891 H 1259.34 -3.12726 -3.88592 0
M  V30 12892 H 1258.49 -1.76184 -5.80555 0
M  V30 12893 H 1257.23 -1.04355 -4.76405 0
M  V30 12894 H 1256.23 -3.31698 -4.3847 0
M  V30 12895 H 1257.46 -4.03724 -5.46062 0
M  V30 12896 H 1255.41 -1.94263 -6.26576 0
M  V30 12897 H 1255.32 -3.63534 -6.62857 0
M  V30 12898 H 1256.59 -2.67026 -7.32337 0
M  V30 12899 N 1260.82 1.03812 -1.18578 0
M  V30 12900 C 1261.75 2.13802 -0.938665 0
M  V30 12901 C 1262.73 1.69643 0.124575 0
M  V30 12902 O 1263.92 1.94179 -0.0285421 0
M  V30 12903 C 1261.05 3.44154 -0.466392 0
M  V30 12904 C 1260 4.01949 -1.47041 0
M  V30 12905 C 1259.33 5.27811 -0.855558 0
M  V30 12906 C 1260.63 4.37827 -2.84789 0
M  V30 12907 H 1262.32 2.34732 -1.85852 0
M  V30 12908 H 1259.87 1.12808 -0.895007 0
M  V30 12909 H 1261.82 4.20463 -0.280856 0
M  V30 12910 H 1260.54 3.22918 0.489041 0
M  V30 12911 H 1259.2 3.27725 -1.64293 0
M  V30 12912 H 1258.85 5.02886 0.107142 0
M  V30 12913 H 1258.55 5.67441 -1.52592 0
M  V30 12914 H 1260.07 6.06795 -0.680609 0
M  V30 12915 H 1261.49 5.05112 -2.71173 0
M  V30 12916 H 1259.88 4.88514 -3.48532 0
M  V30 12917 H 1260.95 3.47541 -3.38147 0
M  V30 12918 N 1262.3 0.988223 1.22768 0
M  V30 12919 C 1263.23 0.492919 2.23837 0
M  V30 12920 C 1264.24 -0.409467 1.57567 0
M  V30 12921 O 1265.43 -0.21235 1.77232 0
M  V30 12922 C 1262.53 -0.305428 3.37521 0
M  V30 12923 C 1261.7 0.591966 4.33376 0
M  V30 12924 C 1260.76 -0.15387 5.25975 0
M  V30 12925 O 1259.79 0.459153 5.67345 0
M  V30 12926 N 1260.99 -1.43756 5.62418 0
M  V30 12927 H 1263.76 1.36199 2.66965 0
M  V30 12928 H 1261.32 0.862395 1.3702 0
M  V30 12929 H 1263.31 -0.812921 3.96451 0
M  V30 12930 H 1261.88 -1.07556 2.93514 0
M  V30 12931 H 1261.1 1.28019 3.72833 0
M  V30 12932 H 1262.39 1.20327 4.94367 0
M  V30 12933 H 1261.79 -1.95701 5.30771 0
M  V30 12934 H 1260.34 -1.89034 6.23786 0
M  V30 12935 N 1263.78 -1.38018 0.760839 0
M  V30 12936 C 1264.74 -2.28734 0.146154 0
M  V30 12937 C 1265.74 -1.47525 -0.639768 0
M  V30 12938 O 1266.93 -1.6788 -0.464964 0
M  V30 12939 C 1264.06 -3.31356 -0.801019 0
M  V30 12940 H 1265.25 -2.84599 0.945692 0
M  V30 12941 H 1262.81 -1.471 0.528323 0
M  V30 12942 H 1263.54 -2.80594 -1.62597 0
M  V30 12943 H 1263.33 -3.91366 -0.239775 0
M  V30 12944 H 1264.82 -3.99171 -1.22687 0
M  V30 12945 N 1265.25 -0.510493 -1.49103 0
M  V30 12946 C 1266.18 0.251999 -2.32136 0
M  V30 12947 C 1267.16 0.953613 -1.40855 0
M  V30 12948 O 1268.35 0.943178 -1.69758 0
M  V30 12949 C 1265.48 1.31118 -3.21598 0
M  V30 12950 C 1264.43 0.72888 -4.21748 0
M  V30 12951 C 1263.76 1.88928 -5.0021 0
M  V30 12952 C 1265.06 -0.286425 -5.21514 0
M  V30 12953 H 1266.75 -0.441102 -2.96133 0
M  V30 12954 H 1264.3 -0.213577 -1.42407 0
M  V30 12955 H 1266.25 1.8524 -3.78503 0
M  V30 12956 H 1264.98 2.0336 -2.55563 0
M  V30 12957 H 1263.64 0.209336 -3.66002 0
M  V30 12958 H 1263.28 2.59961 -4.30615 0
M  V30 12959 H 1262.98 1.50568 -5.67981 0
M  V30 12960 H 1264.51 2.43465 -5.59962 0
M  V30 12961 H 1265.92 0.166997 -5.73057 0
M  V30 12962 H 1264.32 -0.586361 -5.97228 0
M  V30 12963 H 1265.39 -1.19904 -4.69842 0
M  V30 12964 N 1266.73 1.55688 -0.24474 0
M  V30 12965 C 1268.15 1.59219 0.110159 0
M  V30 12966 C 1268.35 1.26187 1.57096 0
M  V30 12967 O 1267.4 1.00815 2.31501 0
M  V30 12968 C 1268.72 2.99764 -0.237075 0
M  V30 12969 C 1270.26 3.12475 -0.181198 0
M  V30 12970 C 1270.74 4.55236 -0.502435 0
M  V30 12971 N 1272.23 4.60981 -0.452855 0
M  V30 12972 C 1272.97 5.69418 -0.674605 0
M  V30 12973 N 1272.46 6.86125 -0.959366 0
M  V30 12974 N 1274.25 5.5883 -0.605459 0
M  V30 12975 H 1266.41 1.7543 -1.19741 0
M  V30 12976 H 1268.67 0.816537 -0.481634 0
M  V30 12977 H 1268.37 3.28666 -1.25185 0
M  V30 12978 H 1268.25 3.74662 0.436859 0
M  V30 12979 H 1270.64 2.83355 0.824248 0
M  V30 12980 H 1270.72 2.39857 -0.888952 0
M  V30 12981 H 1270.36 4.85077 -1.50543 0
M  V30 12982 H 1270.29 5.26111 0.226773 0
M  V30 12983 H 1272.78 3.77128 -0.241401 0
M  V30 12984 H 1273.09 7.64699 -1.11605 0
M  V30 12985 H 1271.44 6.87814 -0.996816 0
M  V30 12986 H 1274.63 4.6653 -0.383053 0
M  V30 12987 H 1274.8 6.43268 -0.781673 0
M  V30 12988 N 1268.21 -0.0283989 1.57574 0
M  V30 12989 C 1269.63 -0.384054 1.5491 0
M  V30 12990 C 1269.83 -1.76564 0.970947 0
M  V30 12991 O 1268.88 -2.45455 0.592288 0
M  V30 12992 C 1270.19 -0.285297 2.99344 0
M  V30 12993 C 1271.74 -0.36233 3.10896 0
M  V30 12994 C 1272.22 -0.293014 4.57062 0
M  V30 12995 N 1273.71 -0.351788 4.61862 0
M  V30 12996 C 1274.44 -0.321054 5.725 0
M  V30 12997 N 1273.94 -0.242573 6.92375 0
M  V30 12998 N 1275.73 -0.370832 5.60875 0
M  V30 12999 H 1267.88 0.87573 1.93506 0
M  V30 13000 H 1270.15 0.33305 0.887571 0
M  V30 13001 H 1269.85 0.664146 3.45372 0
M  V30 13002 H 1269.73 -1.07869 3.61447 0
M  V30 13003 H 1272.11 -1.30221 2.64814 0
M  V30 13004 H 1272.19 0.460422 2.51622 0
M  V30 13005 H 1271.84 0.643197 5.03811 0
M  V30 13006 H 1271.77 -1.13388 5.14248 0
M  V30 13007 H 1274.26 -0.414929 3.75615 0
M  V30 13008 H 1274.57 -0.224239 7.72475 0
M  V30 13009 H 1272.92 -0.208612 6.94687 0
M  V30 13010 H 1276.11 -0.430141 4.6612 0
M  V30 13011 H 1276.28 -0.343412 6.47089 0
M  V30 13012 N 1269.69 -1.54705 -0.300681 0
M  V30 13013 C 1271.1 -1.45926 -0.646359 0
M  V30 13014 C 1271.3 -0.65072 -1.90704 0
M  V30 13015 O 1270.36 -0.158547 -2.52002 0
M  V30 13016 C 1271.67 -2.89889 -0.799059 0
M  V30 13017 C 1273.22 -2.99934 -0.894923 0
M  V30 13018 C 1273.7 -4.45093 -1.07962 0
M  V30 13019 N 1275.19 -4.48804 -1.14581 0
M  V30 13020 C 1275.92 -5.58305 -1.30702 0
M  V30 13021 N 1275.42 -6.77729 -1.43719 0
M  V30 13022 N 1277.21 -5.45994 -1.33593 0
M  V30 13023 H 1269.36 -2.05742 0.527617 0
M  V30 13024 H 1271.62 -0.931817 0.174415 0
M  V30 13025 H 1271.33 -3.51655 0.0563954 0
M  V30 13026 H 1271.2 -3.37325 -1.68796 0
M  V30 13027 H 1273.59 -2.38281 -1.74086 0
M  V30 13028 H 1273.67 -2.55794 0.0179973 0
M  V30 13029 H 1273.32 -5.0734 -0.238444 0
M  V30 13030 H 1273.25 -4.86864 -2.00677 0
M  V30 13031 H 1275.74 -3.62766 -1.05874 0
M  V30 13032 H 1276.05 -7.56937 -1.55776 0
M  V30 13033 H 1274.4 -6.80594 -1.40774 0
M  V30 13034 H 1277.59 -4.51641 -1.23035 0
M  V30 13035 H 1277.76 -6.31381 -1.45813 0
M  V30 13036 N 1271.17 0.563888 -1.47167 0
M  V30 13037 C 1272.58 1.14603 -1.47388 0
M  V30 13038 C 1272.93 1.94907 -0.224916 0
M  V30 13039 O 1272.05 2.05745 0.670672 0
M  V30 13040 C 1272.65 2.08501 -2.67044 0
M  V30 13041 C 1271.21 2.62 -2.70246 0
M  V30 13042 C 1270.35 1.38244 -2.40383 0
M  V30 13043 H 1273.31 0.350833 -1.54774 0
M  V30 13044 H 1273.33 2.92272 -2.43634 0
M  V30 13045 H 1272.84 1.50027 -3.57929 0
M  V30 13046 H 1270.94 3.24292 -1.83482 0
M  V30 13047 H 1271.05 3.0345 -3.70749 0
M  V30 13048 H 1269.42 1.68692 -1.90827 0
M  V30 13049 H 1270.2 0.815726 -3.33468 0
M  V30 13050 N 1272.64 1.35187 0.810078 0
M  V30 13051 C 1273.89 1.28011 1.56389 0
M  V30 13052 C 1274.21 -0.14622 1.94451 0
M  V30 13053 O 1273.48 -1.08185 1.63318 0
M  V30 13054 H 1272.06 0.470837 0.579932 0
M  V30 13055 H 1274.73 1.69249 0.966476 0
M  V30 13056 H 1273.82 1.89362 2.4809 0
M  V30 13057 N 1274.12 -1.03182 1.19127 0
M  V30 13058 C 1275.37 -1.76533 0.992093 0
M  V30 13059 C 1275.7 -1.88549 -0.477429 0
M  V30 13060 O 1274.95 -1.39675 -1.37074 0
M  V30 13061 C 1275.25 -3.19452 1.60267 0
M  V30 13062 C 1274.92 -3.27449 3.09981 0
M  V30 13063 C 1273.58 -3.29338 3.50841 0
M  V30 13064 C 1275.93 -3.26833 4.05992 0
M  V30 13065 C 1273.26 -3.28265 4.86271 0
M  V30 13066 C 1275.61 -3.27299 5.41348 0
M  V30 13067 C 1274.28 -3.27485 5.81644 0
M  V30 13068 H 1273.55 -0.645979 0.363033 0
M  V30 13069 H 1276.19 -1.21127 1.48326 0
M  V30 13070 H 1274.5 -3.77917 1.03372 0
M  V30 13071 H 1276.19 -3.74869 1.42388 0
M  V30 13072 H 1272.78 -3.26704 2.77421 0
M  V30 13073 H 1276.97 -3.24556 3.75469 0
M  V30 13074 H 1272.22 -3.26731 5.16775 0
M  V30 13075 H 1276.4 -3.25773 6.15504 0
M  V30 13076 H 1274.03 -3.26407 6.86558 0
M  V30 13077 N 1275.6 -0.99472 -1.22242 0
M  V30 13078 C 1276.83 -0.689809 -1.95592 0
M  V30 13079 C 1277.25 0.739321 -1.72961 0
M  V30 13080 O 1276.61 1.50563 -1.00997 0
M  V30 13081 C 1276.66 -1.00367 -3.46351 0
M  V30 13082 O 1275.76 -0.103326 -4.12271 0
M  V30 13083 H 1275.1 -0.257997 -0.611828 0
M  V30 13084 H 1277.63 -1.33219 -1.55286 0
M  V30 13085 H 1277.64 -0.946259 -3.96875 0
M  V30 13086 H 1276.32 -2.04504 -3.62148 0
M  V30 13087 H 1274.89 -0.216374 -3.72272 0
M  V30 13088 N 1277.08 1.37613 -0.768148 0
M  V30 13089 C 1278.03 2.30311 -0.150176 0
M  V30 13090 C 1279 1.50918 0.69376 0
M  V30 13091 O 1280.18 1.795 0.64687 0
M  V30 13092 C 1277.32 3.37382 0.72576 0
M  V30 13093 C 1276.43 4.31791 -0.13439 0
M  V30 13094 C 1275.57 5.25937 0.745915 0
M  V30 13095 C 1274.61 6.11988 -0.116988 0
M  V30 13096 N 1273.74 6.98387 0.721091 0
M  V30 13097 H 1278.58 2.82579 -0.946212 0
M  V30 13098 H 1276.12 1.3911 -0.478217 0
M  V30 13099 H 1278.08 3.98084 1.24839 0
M  V30 13100 H 1276.71 2.86488 1.48743 0
M  V30 13101 H 1275.76 3.72426 -0.774793 0
M  V30 13102 H 1277.07 4.9234 -0.800163 0
M  V30 13103 H 1276.23 5.91826 1.33516 0
M  V30 13104 H 1274.97 4.6579 1.44538 0
M  V30 13105 H 1273.97 5.45081 -0.7188 0
M  V30 13106 H 1275.2 6.74207 -0.813732 0
M  V30 13107 H 1273.14 6.40772 1.40524 0
M  V30 13108 H 1273.06 7.55916 0.112536 0
M  V30 13109 H 1274.33 7.6867 1.29485 0
M  V30 13110 N 1278.56 0.518393 1.4883 0
M  V30 13111 C 1279.81 -0.0218436 2.01688 0
M  V30 13112 C 1280.12 -1.36421 1.40174 0
M  V30 13113 O 1281.32 -1.99214 1.84461 0
M  V30 13114 C 1279.78 -0.0893538 3.59789 0
M  V30 13115 C 1279.39 1.24741 4.30283 0
M  V30 13116 C 1281.13 -0.579032 4.20532 0
M  V30 13117 C 1279.04 1.14112 5.80286 0
M  V30 13118 H 1277.97 -0.0119353 0.753906 0
M  V30 13119 H 1280.62 0.660432 1.71203 0
M  V30 13120 H 1279 -0.836458 3.87065 0
M  V30 13121 H 1280.18 2.00917 4.14691 0
M  V30 13122 H 1278.49 1.67191 3.81361 0
M  V30 13123 H 1281.09 -0.676343 5.30405 0
M  V30 13124 H 1281.43 -1.58207 3.85067 0
M  V30 13125 H 1281.96 0.112046 3.97642 0
M  V30 13126 H 1278.7 2.11895 6.20307 0
M  V30 13127 H 1278.22 0.420535 5.98324 0
M  V30 13128 H 1279.9 0.826992 6.41693 0
M  V30 13129 N 1280.03 -1.55556 0.252993 0
M  V30 13130 C 1280.96 -2.24613 -0.638047 0
M  V30 13131 C 1281.95 -1.22852 -1.1765 0
M  V30 13132 O 1283.13 -1.51519 -1.21472 0
M  V30 13133 C 1280.26 -2.95029 -1.83236 0
M  V30 13134 C 1279.21 -4.03531 -1.42641 0
M  V30 13135 C 1278.54 -4.61404 -2.70204 0
M  V30 13136 C 1279.84 -5.18923 -0.592958 0
M  V30 13137 H 1281.53 -2.99335 -0.0621918 0
M  V30 13138 H 1279.08 -1.43972 -0.0284722 0
M  V30 13139 H 1281.03 -3.42042 -2.46141 0
M  V30 13140 H 1279.76 -2.17805 -2.43369 0
M  V30 13141 H 1278.42 -3.57296 -0.820672 0
M  V30 13142 H 1278.06 -3.80874 -3.28548 0
M  V30 13143 H 1277.76 -5.34652 -2.43764 0
M  V30 13144 H 1279.29 -5.11154 -3.33997 0
M  V30 13145 H 1280.7 -5.62124 -1.12646 0
M  V30 13146 H 1279.1 -5.98598 -0.424358 0
M  V30 13147 H 1280.17 -4.83301 0.393434 0
M  V30 13148 N 1281.51 0.0200419 -1.57587 0
M  V30 13149 C 1282.46 1.0259 -2.03615 0
M  V30 13150 C 1283.45 1.31504 -0.927116 0
M  V30 13151 O 1284.64 1.30938 -1.19098 0
M  V30 13152 C 1281.77 2.32424 -2.52654 0
M  V30 13153 C 1280.85 2.06561 -3.70396 0
M  V30 13154 N 1281.24 1.50787 -4.82801 0
M  V30 13155 C 1279.54 2.36802 -3.77943 0
M  V30 13156 C 1280.24 1.40935 -5.64369 0
M  V30 13157 N 1279.22 1.88806 -5.09758 0
M  V30 13158 H 1283.02 0.588835 -2.87941 0
M  V30 13159 H 1280.54 0.226163 -1.60817 0
M  V30 13160 H 1282.53 3.05303 -2.83894 0
M  V30 13161 H 1281.19 2.76801 -1.69738 0
M  V30 13162 H 1282.2 1.18935 -5.04058 0
M  V30 13163 H 1278.88 2.84192 -3.05845 0
M  V30 13164 H 1280.27 0.982261 -6.64681 0
M  V30 13165 N 1282.99 1.54862 0.292472 0
M  V30 13166 C 1284.24 1.73756 1.02429 0
M  V30 13167 C 1284.55 0.535164 1.88137 0
M  V30 13168 O 1285.76 0.606092 2.64648 0
M  V30 13169 C 1284.21 3.0745 1.8709 0
M  V30 13170 C 1283.82 4.35195 1.06343 0
M  V30 13171 C 1285.57 3.357 2.59819 0
M  V30 13172 C 1283.47 5.59936 1.9033 0
M  V30 13173 H 1282.4 0.647617 0.386145 0
M  V30 13174 H 1285.05 1.81338 0.28086 0
M  V30 13175 H 1283.44 2.93855 2.65453 0
M  V30 13176 H 1284.61 4.5965 0.325335 0
M  V30 13177 H 1282.93 4.13944 0.451574 0
M  V30 13178 H 1285.52 4.26099 3.23023 0
M  V30 13179 H 1285.87 2.54956 3.29094 0
M  V30 13180 H 1286.4 3.50304 1.88499 0
M  V30 13181 H 1283.14 6.43372 1.25509 0
M  V30 13182 H 1282.66 5.39654 2.61789 0
M  V30 13183 H 1284.34 5.97512 2.48171 0
M  V30 13184 N 1284.47 -0.556076 1.47464 0
M  V30 13185 C 1285.42 -1.66304 1.60036 0
M  V30 13186 C 1286.39 -1.60074 0.443348 0
M  V30 13187 O 1287.57 -1.7889 0.663545 0
M  V30 13188 C 1284.71 -3.04624 1.62167 0
M  V30 13189 C 1283.82 -3.21283 2.88793 0
M  V30 13190 C 1282.96 -4.50008 2.82252 0
M  V30 13191 C 1282 -4.60103 4.03698 0
M  V30 13192 N 1281.13 -5.80184 3.95387 0
M  V30 13193 H 1285.97 -1.54897 2.5458 0
M  V30 13194 H 1283.51 -0.754533 1.26274 0
M  V30 13195 H 1285.47 -3.84721 1.61386 0
M  V30 13196 H 1284.1 -3.14865 0.711348 0
M  V30 13197 H 1283.15 -2.34611 2.99436 0
M  V30 13198 H 1284.46 -3.24607 3.78724 0
M  V30 13199 H 1283.62 -5.38366 2.79726 0
M  V30 13200 H 1282.36 -4.49165 1.90005 0
M  V30 13201 H 1281.36 -3.70157 4.06527 0
M  V30 13202 H 1282.59 -4.62704 4.97073 0
M  V30 13203 H 1280.53 -5.80288 3.05944 0
M  V30 13204 H 1280.45 -5.8489 4.78998 0
M  V30 13205 H 1281.72 -6.709 3.96879 0
M  V30 13206 N 1285.95 -1.35615 -0.802897 0
M  V30 13207 C 1287.19 -1.29285 -1.56247 0
M  V30 13208 C 1287.53 0.131474 -1.93754 0
M  V30 13209 O 1286.8 1.08172 -1.61645 0
M  V30 13210 C 1287.08 -2.20285 -2.84863 0
M  V30 13211 C 1286.94 -3.71351 -2.53808 0
M  V30 13212 C 1288.26 -2.10318 -3.86593 0
M  V30 13213 H 1285.38 -0.470972 -0.566882 0
M  V30 13214 H 1288.02 -1.66048 -0.923469 0
M  V30 13215 H 1286.17 -1.89063 -3.39393 0
M  V30 13216 H 1287.84 -4.13031 -2.05433 0
M  V30 13217 H 1286.08 -3.9145 -1.86947 0
M  V30 13218 H 1286.75 -4.30416 -3.4561 0
M  V30 13219 H 1289.23 -2.37772 -3.41473 0
M  V30 13220 H 1288.11 -2.76183 -4.74357 0
M  V30 13221 H 1288.37 -1.08627 -4.28547 0
M  V30 13222 N 1287.43 1.02549 -1.19673 0
M  V30 13223 C 1288.34 2.14373 -0.952972 0
M  V30 13224 C 1289.35 1.73776 0.0881727 0
M  V30 13225 O 1290.53 2.01165 -0.0972471 0
M  V30 13226 C 1287.59 3.43096 -0.498569 0
M  V30 13227 C 1286.65 3.97987 -1.60951 0
M  V30 13228 C 1285.89 5.20567 -1.17669 0
M  V30 13229 O 1286.11 5.70385 -0.0416636 0
M  V30 13230 O 1285.04 5.6838 -1.98059 0
M  V30 13231 H 1288.87 2.378 -1.88904 0
M  V30 13232 H 1286.45 1.12781 -0.979836 0
M  V30 13233 H 1288.34 4.20634 -0.253968 0
M  V30 13234 H 1287.01 3.21105 0.409018 0
M  V30 13235 H 1285.92 3.21768 -1.90829 0
M  V30 13236 H 1287.25 4.24349 -2.49377 0
M  V30 13237 N 1288.9 1.00119 1.21713 0
M  V30 13238 C 1290.15 0.680377 1.90303 0
M  V30 13239 C 1290.47 -0.790927 1.7824 0
M  V30 13240 O 1289.74 -1.5676 1.17486 0
M  V30 13241 H 1288.32 0.248665 0.704397 0
M  V30 13242 H 1290.98 1.26948 1.47886 0
M  V30 13243 H 1290.08 0.950188 2.97284 0
M  V30 13244 N 1290.38 -1.37203 0.775435 0
M  V30 13245 C 1291.63 -1.99207 0.340756 0
M  V30 13246 C 1291.95 -1.61861 -1.08747 0
M  V30 13247 O 1291.22 -0.88583 -1.74728 0
M  V30 13248 H 1289.8 -0.736803 0.123004 0
M  V30 13249 H 1292.46 -1.67625 0.994379 0
M  V30 13250 H 1291.56 -3.09243 0.421346 0
M  V30 13251 N 1291.86 -0.526279 -1.48553 0
M  V30 13252 C 1293.1 0.00720852 -2.04399 0
M  V30 13253 C 1293.46 1.31928 -1.39495 0
M  V30 13254 O 1294.66 1.93857 -1.86206 0
M  V30 13255 C 1292.94 0.130517 -3.57162 0
M  V30 13256 S 1294.49 0.614604 -4.34474 0
M  V30 13257 H 1291.31 -0.0102902 -0.710926 0
M  V30 13258 H 1293.91 -0.705998 -1.82307 0
M  V30 13259 H 1292.62 -0.829304 -4.01934 0
M  V30 13260 H 1292.15 0.868213 -3.837 0
M  V30 13261 H 1294.16 1.87973 -4.59217 0
M  V30 13262 O 1293.38 1.56388 -0.403108 0
M  V30 13263 H 1294.07 1.93202 0.138823 0
M  V30 END ATOM
M  V30 BEGIN BOND
M  V30 END BOND
M  V30 END CTAB
M  END
$$$$
