drugbank_target|Q8VTT5 D-hydantoinase (DB03801)
 OpenBabel12092119583D

  0  0  0     0  0            999 V3000
M  V30 BEGIN CTAB
M  V30 COUNTS 7000 7069 0 0 0
M  V30 BEGIN ATOM
M  V30 1 H -0.908 1.98254 -0.117106 0
M  V30 2 N 0 1.576 0 0
M  V30 3 C 0.933 2.03868 1.02534 0
M  V30 4 C 1.911 0.928543 1.3348 0
M  V30 5 O 3.095 1.19667 1.45644 0
M  V30 6 C 0.222 2.43627 2.35294 0
M  V30 7 C -0.732 3.65373 2.2001 0
M  V30 8 S 0.101 5.13292 1.52614 0
M  V30 9 C 1.257 5.56322 2.86805 0
M  V30 10 H 1.49 2.90518 0.631377 0
M  V30 11 H -0.977 1.52953 0.210867 0
M  V30 12 H 0.981 2.67203 3.11629 0
M  V30 13 H -0.358 1.57376 2.7183 0
M  V30 14 H -1.165 3.90944 3.18086 0
M  V30 15 H -1.563 3.418 1.51819 0
M  V30 16 H 0.729 5.58782 3.83104 0
M  V30 17 H 1.672 6.56266 2.65933 0
M  V30 18 H 2.08 4.83886 2.90714 0
M  V30 19 N 1.4781 -0.272755 1.55222 0
M  V30 20 C 2.7551 -1.02562 1.66555 0
M  V30 21 C 3.1351 -2.04282 0.532189 0
M  V30 22 O 2.4831 -2.23662 -0.467717 0
M  V30 23 C 2.6931 -1.6822 3.05782 0
M  V30 24 C 4.0411 -2.19373 3.63539 0
M  V30 25 O 5.0651 -1.78206 3.08417 0
M  V30 26 O 3.9241 -2.94883 4.60115 0
M  V30 27 H 1.0181 -0.475755 0.676451 0
M  V30 28 H 3.5641 -0.268593 1.67561 0
M  V30 29 H 2.3361 -0.945112 3.79715 0
M  V30 30 H 1.9591 -2.50609 3.08676 0
M  V30 31 N 2.9562 -1.48159 -0.537278 0
M  V30 32 C 4.2052 -1.5506 -1.28993 0
M  V30 33 C 4.5182 -0.226211 -1.94288 0
M  V30 34 O 5.7242 -0.173395 -2.70946 0
M  V30 35 C 4.1802 -2.73429 -2.34018 0
M  V30 36 C 3.7882 -4.1248 -1.74825 0
M  V30 37 C 5.5322 -2.89638 -3.10339 0
M  V30 38 C 3.4392 -5.22121 -2.77747 0
M  V30 39 H 2.3692 -0.577231 -0.485098 0
M  V30 40 H 5.0202 -1.74478 -0.568317 0
M  V30 41 H 3.4022 -2.47431 -3.09182 0
M  V30 42 H 4.5762 -4.48466 -1.05899 0
M  V30 43 H 2.8912 -4.01327 -1.11022 0
M  V30 44 H 5.4882 -3.68718 -3.87235 0
M  V30 45 H 5.8312 -1.9882 -3.65754 0
M  V30 46 H 6.3642 -3.15502 -2.42288 0
M  V30 47 H 3.1032 -6.1488 -2.27161 0
M  V30 48 H 2.6232 -4.90631 -3.45024 0
M  V30 49 H 4.3022 -5.49924 -3.4087 0
M  V30 50 N 4.4343 0.785586 -1.36625 0
M  V30 51 C 5.6833 1.53883 -1.30396 0
M  V30 52 C 5.9963 1.95271 0.113452 0
M  V30 53 O 7.2023 2.69858 0.298142 0
M  V30 54 C 5.6583 2.77808 -2.28802 0
M  V30 55 C 5.2663 2.43574 -3.75999 0
M  V30 56 C 7.0103 3.55783 -2.31558 0
M  V30 57 C 4.9173 3.63919 -4.66173 0
M  V30 58 H 3.8473 0.577678 -0.484566 0
M  V30 59 H 6.4983 0.861705 -1.62009 0
M  V30 60 H 4.8803 3.47339 -1.90188 0
M  V30 61 H 6.0543 1.81916 -4.23371 0
M  V30 62 H 4.3693 1.78803 -3.76056 0
M  V30 63 H 6.9663 4.45205 -2.96137 0
M  V30 64 H 7.3093 3.94644 -1.3252 0
M  V30 65 H 7.8423 2.93235 -2.68809 0
M  V30 66 H 4.5813 3.3015 -5.66287 0
M  V30 67 H 4.1013 4.2473 -4.23515 0
M  V30 68 H 5.7803 4.30901 -4.82632 0
M  V30 69 N 5.9124 1.20967 1.01018 0
M  V30 70 C 7.1614 1.01796 1.74128 0
M  V30 71 C 7.4744 -0.449691 1.90361 0
M  V30 72 O 8.6804 -0.76068 2.60626 0
M  V30 73 C 7.1364 1.7727 3.13215 0
M  V30 74 C 6.7444 3.28171 3.04972 0
M  V30 75 C 8.4884 1.66489 3.90489 0
M  V30 76 C 6.3954 3.96156 4.39107 0
M  V30 77 H 5.3254 0.377276 0.652824 0
M  V30 78 H 7.9764 1.44651 1.12909 0
M  V30 79 H 6.3584 1.27205 3.75013 0
M  V30 80 H 7.5324 3.85499 2.52443 0
M  V30 81 H 5.8474 3.39437 2.41188 0
M  V30 82 H 8.4444 2.14617 4.89738 0
M  V30 83 H 8.7874 0.6222 4.11624 0
M  V30 84 H 9.3204 2.14003 3.35332 0
M  V30 85 H 6.0594 5.00604 4.23174 0
M  V30 86 H 5.5794 3.43617 4.91617 0
M  V30 87 H 7.2584 4.00774 5.07926 0
M  V30 88 N 7.3905 -1.2043 1.01659 0
M  V30 89 C 8.3375 -2.23215 0.586822 0
M  V30 90 C 9.3075 -1.61382 -0.393085 0
M  V30 91 O 10.4925 -1.88544 -0.292525 0
M  V30 92 C 7.6325 -3.45032 -0.0687464 0
M  V30 93 C 6.7455 -4.21296 0.955724 0
M  V30 94 C 5.8805 -5.30507 0.271208 0
M  V30 95 C 4.9195 -5.98515 1.28244 0
M  V30 96 N 4.0565 -6.99316 0.62459 0
M  V30 97 H 8.8965 -2.59336 1.46796 0
M  V30 98 H 6.4335 -1.27431 0.734836 0
M  V30 99 H 8.3915 -4.1459 -0.465965 0
M  V30 100 H 7.0215 -3.09604 -0.913529 0
M  V30 101 H 6.0735 -3.50803 1.4711 0
M  V30 102 H 7.3855 -4.6803 1.72479 0
M  V30 103 H 6.5395 -6.06428 -0.18151 0
M  V30 104 H 5.2785 -4.8481 -0.530163 0
M  V30 105 H 4.2835 -5.21355 1.74554 0
M  V30 106 H 5.5085 -6.46298 2.08509 0
M  V30 107 H 3.4545 -6.55812 -0.156914 0
M  V30 108 H 3.3715 -7.44178 1.33172 0
M  V30 109 H 4.6395 -7.79255 0.195462 0
M  V30 110 N 8.8686 -0.792821 -1.36206 0
M  V30 111 C 9.8166 -0.181555 -2.3189 0
M  V30 112 C 10.8106 0.661025 -1.55971 0
M  V30 113 O 12.0166 0.555728 -1.71206 0
M  V30 114 H 8.3916 -0.0399382 -0.750939 0
M  V30 115 H 10.3626 -1.00394 -2.81005 0
M  V30 116 C 9.1116 0.666444 -3.41253 0
M  V30 117 H 8.4346 0.0274489 -3.99791 0
M  V30 118 H 9.8746 1.06076 -4.10517 0
M  V30 119 C 8.3336 1.82614 -2.83114 0
M  V30 120 O 8.8636 2.9229 -2.75553 0
M  V30 121 N 7.0696 1.63333 -2.40356 0
M  V30 122 H 6.6166 0.741217 -2.46706 0
M  V30 123 H 6.5746 2.41087 -2.01803 0
M  V30 124 N 10.3467 1.47872 -0.545128 0
M  V30 125 C 11.5947 2.02093 -0.016553 0
M  V30 126 C 11.9157 1.42305 1.3332 0
M  V30 127 O 11.1857 0.593853 1.86682 0
M  V30 128 H 9.7657 0.746993 -0.00313038 0
M  V30 129 H 12.4277 1.81414 -0.712397 0
M  V30 130 H 11.5237 3.11996 0.0805422 0
M  V30 131 N 11.8248 0.280983 1.55075 0
M  V30 132 C 13.0528 -0.337293 2.04132 0
M  V30 133 C 13.4678 -1.4903 1.15912 0
M  V30 134 O 12.8248 -1.81606 0.180459 0
M  V30 135 C 12.8758 -0.812706 3.52246 0
M  V30 136 O 12.5968 0.294387 4.3711 0
M  V30 137 C 14.0978 -1.4982 4.17216 0
M  V30 138 H 11.3178 -0.0761638 0.666663 0
M  V30 139 H 13.8618 0.414787 2.00249 0
M  V30 140 H 12.0168 -1.51486 3.56554 0
M  V30 141 H 12.4308 -0.0721325 5.2445 0
M  V30 142 H 13.9048 -1.7822 5.22438 0
M  V30 143 H 14.3818 -2.43168 3.65741 0
M  V30 144 H 14.9878 -0.839742 4.16927 0
M  V30 145 N 13.3029 -1.57598 0.00835791 0
M  V30 146 C 14.5519 -1.90107 -0.673968 0
M  V30 147 C 14.8649 -0.884275 -1.7447 0
M  V30 148 O 16.0709 -1.09987 -2.48224 0
M  V30 149 C 14.5269 -3.37497 -1.24995 0
M  V30 150 C 14.1349 -4.47491 -0.2136 0
M  V30 151 C 15.8789 -3.79104 -1.90999 0
M  V30 152 C 13.7859 -5.85963 -0.80005 0
M  V30 153 H 12.7159 -0.709393 -0.255495 0
M  V30 154 H 15.3669 -1.83365 0.0702693 0
M  V30 155 H 13.7489 -3.39102 -2.04513 0
M  V30 156 H 14.9229 -4.57414 0.557596 0
M  V30 157 H 13.2379 -4.14956 0.346474 0
M  V30 158 H 15.8349 -4.79901 -2.35795 0
M  V30 159 H 16.1779 -3.1306 -2.74407 0
M  V30 160 H 16.7109 -3.79833 -1.18203 0
M  V30 161 H 13.4499 -6.555 -0.00456708 0
M  V30 162 H 12.9699 -5.79687 -1.54021 0
M  V30 163 H 14.6489 -6.33884 -1.29615 0
M  V30 164 N 14.781 0.264519 -1.55364 0
M  V30 165 C 16.027 0.99646 -1.76631 0
M  V30 166 C 16.36 1.85632 -0.570478 0
M  V30 167 O 15.635 1.89647 0.43175 0
M  V30 168 C 15.918 1.87187 -3.07625 0
M  V30 169 C 15.771 1.04138 -4.37579 0
M  V30 170 C 17.09 2.85749 -3.34717 0
M  V30 171 H 14.209 0.360841 -0.642622 0
M  V30 172 H 16.851 0.268218 -1.88097 0
M  V30 173 H 15.001 2.49279 -2.9798 0
M  V30 174 H 16.673 0.440517 -4.59192 0
M  V30 175 H 14.916 0.345115 -4.32425 0
M  V30 176 H 15.587 1.68729 -5.2558 0
M  V30 177 H 18.063 2.33793 -3.4421 0
M  V30 178 H 16.939 3.44136 -4.27623 0
M  V30 179 H 17.2 3.61311 -2.54768 0
M  V30 180 N 16.2591 1.48442 0.529413 0
M  V30 181 C 17.4871 1.60151 1.30994 0
M  V30 182 C 17.9021 0.261985 1.86973 0
M  V30 183 O 17.2591 -0.748805 1.66431 0
M  V30 184 C 17.3101 2.64854 2.46038 0
M  V30 185 O 17.0311 3.93608 1.92365 0
M  V30 186 C 18.5321 2.87007 3.37849 0
M  V30 187 H 15.7521 0.539971 0.398338 0
M  V30 188 H 18.2961 1.94273 0.638597 0
M  V30 189 H 16.4511 2.33589 3.09055 0
M  V30 190 H 16.8651 4.51055 2.67675 0
M  V30 191 H 18.3391 3.64068 4.14919 0
M  V30 192 H 18.8161 1.95852 3.93114 0
M  V30 193 H 19.4221 3.19579 2.80623 0
M  V30 194 N 17.7372 -0.778329 1.37039 0
M  V30 195 C 18.7002 -1.87301 1.32102 0
M  V30 196 C 19.7002 -1.59198 0.226405 0
M  V30 197 O 20.8902 -1.67403 0.481861 0
M  V30 198 C 18.0222 -3.24309 1.05055 0
M  V30 199 H 19.2152 -1.93093 2.29467 0
M  V30 200 H 16.7682 -0.977358 1.21973 0
M  V30 201 H 17.5032 -3.24196 0.0819373 0
M  V30 202 H 17.2882 -3.46098 1.84279 0
M  V30 203 H 18.7782 -4.04382 1.04234 0
M  V30 204 N 19.2153 -1.21501 -1.00376 0
M  V30 205 C 20.4923 -0.941745 -1.71437 0
M  V30 206 C 20.8723 0.546114 -2.03914 0
M  V30 207 O 20.2203 1.51128 -1.71384 0
M  V30 208 C 20.4303 -1.82812 -2.97289 0
M  V30 209 C 21.7783 -2.07771 -3.70292 0
M  V30 210 O 22.8023 -1.80171 -3.07273 0
M  V30 211 O 21.6613 -2.54456 -4.83647 0
M  V30 212 H 18.7553 -0.353243 -0.747762 0
M  V30 213 H 21.3013 -1.32436 -1.06108 0
M  V30 214 H 20.0733 -2.83501 -2.69709 0
M  V30 215 H 19.6963 -1.4464 -3.70358 0
M  V30 216 N 20.6934 1.19889 -1.02296 0
M  V30 217 C 21.9414 1.89046 -0.714558 0
M  V30 218 C 22.2624 1.79636 0.758681 0
M  V30 219 O 21.5324 1.20292 1.54618 0
M  V30 220 H 20.1124 0.699802 -0.261317 0
M  V30 221 H 22.7744 1.45574 -1.29592 0
M  V30 222 H 21.8704 2.95524 -1.0036 0
M  V30 223 N 22.1715 0.800033 1.35784 0
M  V30 224 C 23.4205 0.37387 1.98205 0
M  V30 225 C 23.7335 -1.06302 1.64193 0
M  V30 226 O 24.9395 -1.59198 2.19928 0
M  V30 227 C 23.3955 0.617532 3.54562 0
M  V30 228 C 23.0035 2.06654 3.9749 0
M  V30 229 C 24.7475 0.256401 4.23725 0
M  V30 230 C 22.6545 2.2563 5.46667 0
M  V30 231 H 21.5845 0.136055 0.741623 0
M  V30 232 H 24.2355 0.983166 1.54939 0
M  V30 233 H 22.6175 -0.0616248 3.95952 0
M  V30 234 H 23.7915 2.78296 3.67271 0
M  V30 235 H 22.1065 2.38691 3.41197 0
M  V30 236 H 24.7035 0.376318 5.33374 0
M  V30 237 H 25.0465 -0.796692 4.08606 0
M  V30 238 H 25.5795 0.889214 3.87734 0
M  V30 239 H 22.3185 3.2936 5.66747 0
M  V30 240 H 21.8385 1.58504 5.78478 0
M  V30 241 H 23.5175 2.06861 6.1304 0
M  V30 242 N 23.6496 -1.47581 0.552962 0
M  V30 243 C 24.8746 -2.07378 0.0300593 0
M  V30 244 C 25.2996 -1.40355 -1.25229 0
M  V30 245 O 24.6576 -0.477099 -1.7491 0
M  V30 246 C 24.7056 -3.60274 -0.153231 0
M  V30 247 O 23.8096 -3.94041 -1.21678 0
M  V30 248 H 23.1506 -0.662158 0.0494182 0
M  V30 249 H 25.6806 -1.89662 0.767434 0
M  V30 250 H 25.6906 -4.0633 -0.368761 0
M  V30 251 H 24.3656 -4.08455 0.783397 0
M  V30 252 H 22.9426 -3.59735 -0.982079 0
M  V30 253 N 25.1277 -0.289203 -1.54924 0
M  V30 254 C 26.5437 0.0645403 -1.59469 0
M  V30 255 C 26.7437 1.53419 -1.30632 0
M  V30 256 O 25.7997 2.2852 -1.074 0
M  V30 257 C 27.1127 -0.32278 -2.98963 0
M  V30 258 C 28.6607 -0.270564 -3.11828 0
M  V30 259 C 29.1357 -0.632532 -4.53611 0
M  V30 260 N 30.6267 -0.584617 -4.59496 0
M  V30 261 C 31.3617 -0.837314 -5.67254 0
M  V30 262 N 30.8577 -1.15536 -6.83098 0
M  V30 263 N 32.6507 -0.765166 -5.56868 0
M  V30 264 H 24.8017 -1.24714 -1.71931 0
M  V30 265 H 27.0647 -0.504809 -0.802416 0
M  V30 266 H 26.7707 -1.34541 -3.24948 0
M  V30 267 H 26.6447 0.32944 -3.75759 0
M  V30 268 H 29.0317 0.742805 -2.85598 0
M  V30 269 H 29.1127 -0.957242 -2.37214 0
M  V30 270 H 28.7567 -1.64365 -4.80569 0
M  V30 271 H 28.6867 0.07609 -5.26545 0
M  V30 272 H 31.1777 -0.349248 -3.76283 0
M  V30 273 H 31.4907 -1.33447 -7.61191 0
M  V30 274 H 29.8357 -1.19328 -6.84679 0
M  V30 275 H 33.0267 -0.516432 -4.65243 0
M  V30 276 H 33.1997 -0.965477 -6.40767 0
M  V30 277 N 26.6058 1.57591 -0.0167156 0
M  V30 278 C 27.5688 2.08393 0.954204 0
M  V30 279 C 28.5688 0.996531 1.26198 0
M  V30 280 O 29.7588 1.25858 1.20438 0
M  V30 281 C 26.8908 2.5394 2.27436 0
M  V30 282 H 28.0838 2.95455 0.514451 0
M  V30 283 H 25.6368 1.54582 0.231089 0
M  V30 284 H 26.3718 1.70171 2.76066 0
M  V30 285 H 26.1568 3.33371 2.06412 0
M  V30 286 H 27.6468 2.93512 2.97053 0
M  V30 287 N 28.0839 -0.256276 1.55502 0
M  V30 288 C 29.3609 -1.00789 1.67633 0
M  V30 289 C 29.7409 -2.03706 0.553826 0
M  V30 290 O 29.0889 -2.24145 -0.443969 0
M  V30 291 C 29.2989 -1.64968 3.07549 0
M  V30 292 C 30.6469 -2.15505 3.65845 0
M  V30 293 O 31.6709 -1.74925 3.1029 0
M  V30 294 O 30.5299 -2.89986 4.63217 0
M  V30 295 H 27.6239 -0.468553 0.681459 0
M  V30 296 H 30.1699 -0.250806 1.67836 0
M  V30 297 H 28.9419 -0.904785 3.80696 0
M  V30 298 H 28.5649 -2.47321 3.11317 0
M  V30 299 N 29.562 -1.4872 -0.521534 0
M  V30 300 C 30.492 -1.66771 -1.63431 0
M  V30 301 C 31.473 -0.516499 -1.62069 0
M  V30 302 O 32.658 -0.750013 -1.79132 0
M  V30 303 C 29.788 -1.71515 -3.01993 0
M  V30 304 C 28.742 -2.86222 -3.18216 0
M  V30 305 C 28.068 -2.76061 -4.57924 0
M  V30 306 C 29.368 -4.27419 -3.00184 0
M  V30 307 H 31.062 -2.59932 -1.48579 0
M  V30 308 H 28.608 -1.25089 -0.713358 0
M  V30 309 H 30.561 -1.82731 -3.7972 0
M  V30 310 H 29.285 -0.749393 -3.17886 0
M  V30 311 H 27.944 -2.74575 -2.42908 0
M  V30 312 H 27.592 -1.77437 -4.70665 0
M  V30 313 H 27.292 -3.53037 -4.69722 0
M  V30 314 H 28.816 -2.89256 -5.37739 0
M  V30 315 H 30.23 -4.39855 -3.67697 0
M  V30 316 H 28.627 -5.05458 -3.2347 0
M  V30 317 H 29.697 -4.43293 -1.96518 0
M  V30 318 N 31.0401 0.771051 -1.3745 0
M  V30 319 C 32.2881 1.52661 -1.32435 0
M  V30 320 C 32.6091 1.9479 0.0905024 0
M  V30 321 O 31.8791 1.66348 1.03466 0
M  V30 322 H 30.4591 0.566218 -0.487244 0
M  V30 323 H 33.1211 0.917636 -1.71946 0
M  V30 324 H 32.2171 2.42568 -1.96385 0
M  V30 325 N 32.5182 1.22032 0.997298 0
M  V30 326 C 33.7672 1.03637 1.73038 0
M  V30 327 C 34.0802 -0.429475 1.90827 0
M  V30 328 O 35.2862 -0.732995 2.61418 0
M  V30 329 C 33.7422 1.80582 3.11317 0
M  V30 330 C 33.3502 3.31387 3.01474 0
M  V30 331 C 35.0942 1.70621 3.88701 0
M  V30 332 C 33.0012 4.00791 4.3488 0
M  V30 333 H 31.9312 0.384179 0.648785 0
M  V30 334 H 34.5822 1.4584 1.11368 0
M  V30 335 H 32.9642 1.31175 3.73643 0
M  V30 336 H 34.1382 3.88155 2.4834 0
M  V30 337 H 32.4532 3.41976 2.37575 0
M  V30 338 H 35.0502 2.19799 4.87434 0
M  V30 339 H 35.3932 0.665823 4.10941 0
M  V30 340 H 35.9262 2.17547 3.33044 0
M  V30 341 H 32.6652 5.05064 4.1784 0
M  V30 342 H 32.1852 3.48811 4.87945 0
M  V30 343 H 33.8642 4.06139 5.03647 0
M  V30 344 N 33.9963 -1.19345 1.0293 0
M  V30 345 C 34.9433 -2.2258 0.610464 0
M  V30 346 C 35.9133 -1.6179 -0.375946 0
M  V30 347 O 37.0983 -1.88844 -0.272511 0
M  V30 348 C 34.2383 -3.45085 -0.0321473 0
M  V30 349 C 33.3513 -4.20258 1.00035 0
M  V30 350 C 32.4863 -5.3019 0.32746 0
M  V30 351 C 31.5253 -5.97121 1.34584 0
M  V30 352 N 30.6623 -6.98615 0.698726 0
M  V30 353 H 35.5023 -2.57764 1.49538 0
M  V30 354 H 33.0393 -1.26644 0.748311 0
M  V30 355 H 34.9973 -4.15061 -0.421966 0
M  V30 356 H 33.6273 -3.10555 -0.88064 0
M  V30 357 H 32.6793 -3.49223 1.50823 0
M  V30 358 H 33.9913 -4.66175 1.77433 0
M  V30 359 H 33.1453 -6.06587 -0.11718 0
M  V30 360 H 31.8843 -4.85345 -0.478713 0
M  V30 361 H 30.8893 -5.19474 1.80074 0
M  V30 362 H 32.1143 -6.4405 2.15352 0
M  V30 363 H 30.0603 -6.55942 -0.0873471 0
M  V30 364 H 29.9773 -7.42724 1.41058 0
M  V30 365 H 31.2453 -7.79004 0.278102 0
M  V30 366 N 35.4744 -0.807222 -1.35358 0
M  V30 367 C 36.7514 -0.311126 -1.9311 0
M  V30 368 C 37.1314 1.19937 -1.73719 0
M  V30 369 O 36.4794 1.99918 -1.10657 0
M  V30 370 C 36.6894 -0.723226 -3.41424 0
M  V30 371 C 38.0374 -0.713078 -4.18569 0
M  V30 372 O 39.0614 -0.664811 -3.49941 0
M  V30 373 O 37.9204 -0.772022 -5.41019 0
M  V30 374 H 35.0144 -0.081526 -0.822972 0
M  V30 375 H 37.5604 -0.890962 -1.4443 0
M  V30 376 H 36.3324 -1.76426 -3.4927 0
M  V30 377 H 35.9554 -0.118232 -3.97424 0
M  V30 378 N 36.9525 1.47285 -0.560781 0
M  V30 379 C 38.2005 2.02064 -0.0379868 0
M  V30 380 C 38.5215 1.43711 1.31803 0
M  V30 381 O 37.7915 0.61362 1.86042 0
M  V30 382 H 36.3715 0.746918 -0.0110531 0
M  V30 383 H 39.0335 1.80648 -0.731598 0
M  V30 384 H 38.1295 3.12064 0.0474463 0
M  V30 385 N 38.4306 0.297415 1.54768 0
M  V30 386 C 39.3776 -0.580276 2.23386 0
M  V30 387 C 40.3476 -1.13238 1.21517 0
M  V30 388 O 41.5326 -1.17757 1.50126 0
M  V30 389 C 38.6726 -1.74801 2.97555 0
M  V30 390 C 37.7856 -1.22764 4.1419 0
M  V30 391 C 36.9206 -2.35895 4.75949 0
M  V30 392 C 35.9596 -1.80974 5.84735 0
M  V30 393 N 35.0966 -2.87664 6.40464 0
M  V30 394 H 39.9366 0.0114833 2.97998 0
M  V30 395 H 37.4736 0.0174361 1.4709 0
M  V30 396 H 39.4316 -2.43475 3.38786 0
M  V30 397 H 38.0616 -2.31145 2.25326 0
M  V30 398 H 37.1136 -0.433271 3.77924 0
M  V30 399 H 38.4256 -0.785551 4.92575 0
M  V30 400 H 37.5796 -3.12523 5.20014 0
M  V30 401 H 36.3186 -2.83429 3.96887 0
M  V30 402 H 35.3236 -1.02834 5.40097 0
M  V30 403 H 36.5486 -1.34348 6.65678 0
M  V30 404 H 34.4946 -3.34538 5.64287 0
M  V30 405 H 34.4116 -2.4794 7.14186 0
M  V30 406 H 35.6796 -3.642 6.89187 0
M  V30 407 N 39.9087 -1.5758 0.0250728 0
M  V30 408 C 41.1577 -1.90811 -0.653767 0
M  V30 409 C 41.4707 -0.90273 -1.73523 0
M  V30 410 O 42.6767 -1.12614 -2.47043 0
M  V30 411 C 41.1327 -3.38804 -1.21409 0
M  V30 412 C 40.7407 -4.47692 -0.166126 0
M  V30 413 C 42.4847 -3.81108 -1.86967 0
M  V30 414 C 40.3917 -5.86779 -0.737856 0
M  V30 415 H 39.3217 -0.712063 -0.247956 0
M  V30 416 H 41.9727 -1.83281 0.0897137 0
M  V30 417 H 40.3547 -3.41252 -2.00905 0
M  V30 418 H 41.5287 -4.56797 0.606079 0
M  V30 419 H 39.8437 -4.14565 0.390466 0
M  V30 420 H 42.4407 -4.82375 -2.30692 0
M  V30 421 H 42.7837 -3.15953 -2.71071 0
M  V30 422 H 43.3167 -3.81065 -1.14167 0
M  V30 423 H 40.0557 -6.55468 0.0649577 0
M  V30 424 H 39.5757 -5.81288 -1.47864 0
M  V30 425 H 41.2547 -6.35223 -1.22884 0
M  V30 426 N 41.3868 0.248026 -1.55636 0
M  V30 427 C 42.6148 0.993808 -1.81469 0
M  V30 428 C 43.0298 1.78991 -0.60064 0
M  V30 429 O 42.3868 1.77345 0.430682 0
M  V30 430 C 42.4378 1.93258 -3.05506 0
M  V30 431 O 42.1588 1.16869 -4.22224 0
M  V30 432 C 43.6598 2.79444 -3.4413 0
M  V30 433 H 40.8798 0.292486 -0.603898 0
M  V30 434 H 43.4238 0.271253 -2.02693 0
M  V30 435 H 41.5788 2.60943 -2.86335 0
M  V30 436 H 41.9928 1.80359 -4.92515 0
M  V30 437 H 43.4668 3.41066 -4.34026 0
M  V30 438 H 43.9438 3.50499 -2.64665 0
M  V30 439 H 44.5498 2.17214 -3.65648 0
M  V30 440 N 42.8649 1.48995 0.513639 0
M  V30 441 C 43.7969 1.60836 1.63293 0
M  V30 442 C 44.8099 0.491701 1.55197 0
M  V30 443 O 45.9989 0.763238 1.6136 0
M  V30 444 C 43.0989 1.53731 3.02027 0
M  V30 445 C 42.2719 2.80715 3.35437 0
M  V30 446 C 41.3309 2.66837 4.53525 0
M  V30 447 O 40.3569 3.40753 4.55934 0
M  V30 448 N 41.5589 1.77539 5.52684 0
M  V30 449 H 44.3239 2.57366 1.53566 0
M  V30 450 H 41.8849 1.45925 0.701259 0
M  V30 451 H 43.8769 1.42118 3.78926 0
M  V30 452 H 42.4469 0.651092 3.05744 0
M  V30 453 H 41.6669 3.06772 2.47557 0
M  V30 454 H 42.9549 3.64927 3.54551 0
M  V30 455 H 42.3529 1.16719 5.53528 0
M  V30 456 H 40.9099 1.71856 6.28736 0
M  V30 457 N 44.343 -0.763751 1.37857 0
M  V30 458 C 45.592 -1.51789 1.32827 0
M  V30 459 C 45.905 -1.95426 -0.0823719 0
M  V30 460 O 47.111 -2.70298 -0.255172 0
M  V30 461 C 45.567 -2.74133 2.33193 0
M  V30 462 C 45.175 -2.37562 3.79827 0
M  V30 463 C 46.919 -3.52054 2.37188 0
M  V30 464 C 44.826 -3.56456 4.71904 0
M  V30 465 H 43.756 -0.569896 0.493695 0
M  V30 466 H 46.407 -0.835822 1.63359 0
M  V30 467 H 44.789 -3.4427 1.9569 0
M  V30 468 H 45.963 -1.75157 4.26212 0
M  V30 469 H 44.278 -1.72798 3.78853 0
M  V30 470 H 46.875 -4.40437 3.03182 0
M  V30 471 H 47.218 -3.92486 1.38782 0
M  V30 472 H 47.751 -2.88921 2.7344 0
M  V30 473 H 44.49 -3.21099 5.71468 0
M  V30 474 H 44.01 -4.17938 4.30218 0
M  V30 475 H 45.689 -4.23168 4.89426 0
M  V30 476 N 45.8211 -1.22559 -0.990812 0
M  V30 477 C 47.0691 -1.04933 -1.72724 0
M  V30 478 C 47.3901 0.416158 -1.90508 0
M  V30 479 O 46.6601 1.29918 -1.46622 0
M  V30 480 H 45.2401 -0.385296 -0.639965 0
M  V30 481 H 47.9021 -1.54105 -1.19322 0
M  V30 482 H 46.9981 -1.52886 -2.72089 0
M  V30 483 N 47.2992 1.18797 -1.03562 0
M  V30 484 C 48.5472 1.88278 -0.734569 0
M  V30 485 C 48.8682 1.8043 0.739586 0
M  V30 486 O 48.1382 1.21925 1.53333 0
M  V30 487 H 46.7182 0.696991 -0.268725 0
M  V30 488 H 49.3802 1.44192 -1.31129 0
M  V30 489 H 48.4762 2.94443 -1.03489 0
M  V30 490 N 48.7773 0.814389 1.34928 0
M  V30 491 C 49.7403 0.235759 2.27984 0
M  V30 492 C 50.7403 -0.581412 1.49921 0
M  V30 493 O 51.9303 -0.398758 1.69575 0
M  V30 494 C 49.0623 -0.670433 3.34242 0
M  V30 495 H 50.2553 1.05659 2.80671 0
M  V30 496 H 47.8083 0.585614 1.44915 0
M  V30 497 H 48.5433 -1.51466 2.86755 0
M  V30 498 H 48.3283 -0.0860822 3.92005 0
M  V30 499 H 49.8183 -1.06935 4.03676 0
M  V30 500 N 50.2554 -1.46986 0.568584 0
M  V30 501 C 51.1854 -2.32946 -0.160753 0
M  V30 502 C 52.1664 -1.44487 -0.897631 0
M  V30 503 O 53.3514 -1.73327 -0.875867 0
M  V30 504 C 50.4814 -3.26494 -1.18403 0
M  V30 505 C 49.4354 -4.24282 -0.562895 0
M  V30 506 C 48.7614 -5.07236 -1.69163 0
M  V30 507 C 50.0614 -5.19989 0.490761 0
M  V30 508 H 51.7554 -2.94175 0.556916 0
M  V30 509 H 49.3014 -1.4146 0.26927 0
M  V30 510 H 51.2544 -3.85477 -1.70251 0
M  V30 511 H 49.9784 -2.63343 -1.93179 0
M  V30 512 H 48.6374 -3.66541 -0.0656164 0
M  V30 513 H 48.2854 -4.4048 -2.42871 0
M  V30 514 H 47.9854 -5.7345 -1.28174 0
M  V30 515 H 49.5094 -5.6908 -2.21314 0
M  V30 516 H 50.9234 -5.73271 0.0579047 0
M  V30 517 H 49.3204 -5.94469 0.820165 0
M  V30 518 H 50.3904 -4.64777 1.3824 0
M  V30 519 N 51.7335 -0.305618 -1.54608 0
M  V30 520 C 52.9815 0.301701 -1.99835 0
M  V30 521 C 53.3025 1.54054 -1.19551 0
M  V30 522 O 52.5725 1.93702 -0.292658 0
M  V30 523 H 51.1525 0.114468 -0.738178 0
M  V30 524 H 53.8145 -0.418016 -1.90364 0
M  V30 525 H 52.9105 0.570548 -3.06841 0
M  V30 526 N 53.2116 1.57565 -0.0334293 0
M  V30 527 C 54.6226 1.79746 0.504798 0
M  V30 528 C 54.9736 0.944091 1.71992 0
M  V30 529 O 54.0986 0.155694 2.15839 0
M  V30 530 C 54.6936 3.25997 0.922567 0
M  V30 531 C 53.2526 3.49159 1.40588 0
M  V30 532 C 52.3996 2.74785 0.372633 0
M  V30 533 H 55.3506 1.56565 -0.259436 0
M  V30 534 H 55.3716 3.35945 1.78666 0
M  V30 535 H 54.8836 3.88081 0.0379825 0
M  V30 536 H 52.9846 2.92332 2.31025 0
M  V30 537 H 53.0976 4.57873 1.41028 0
M  V30 538 H 51.4616 2.40391 0.841672 0
M  V30 539 H 52.2446 3.39587 -0.503559 0
M  V30 540 N 54.6897 -0.239769 1.55765 0
M  V30 541 C 55.6527 -1.28038 1.90103 0
M  V30 542 C 56.6527 -1.40723 0.778055 0
M  V30 543 O 57.8427 -1.39301 1.04599 0
M  V30 544 C 54.9747 -2.65702 2.13577 0
M  V30 545 H 56.1677 -0.988048 2.83157 0
M  V30 546 H 53.7207 -0.479382 1.48767 0
M  V30 547 H 54.4557 -3.00063 1.23015 0
M  V30 548 H 54.2407 -2.57875 2.95369 0
M  V30 549 H 55.7307 -3.40828 2.41301 0
M  V30 550 N 56.1678 -1.49265 -0.50573 0
M  V30 551 C 57.0778 -1.68312 -1.63427 0
M  V30 552 C 58.0938 -0.565682 -1.64548 0
M  V30 553 O 59.2698 -0.839801 -1.83055 0
M  V30 554 C 56.3348 -1.74107 -2.99813 0
M  V30 555 C 55.3958 -2.97653 -3.09356 0
M  V30 556 C 54.6288 -3.03163 -4.39236 0
M  V30 557 O 54.8518 -2.16396 -5.27758 0
M  V30 558 O 53.7858 -3.9558 -4.53652 0
M  V30 559 H 57.6118 -2.63907 -1.50289 0
M  V30 560 H 55.1968 -1.32951 -0.681502 0
M  V30 561 H 57.0788 -1.803 -3.80881 0
M  V30 562 H 55.7538 -0.816901 -3.13223 0
M  V30 563 H 54.6608 -2.96981 -2.27493 0
M  V30 564 H 55.9938 -3.89535 -3.00871 0
M  V30 565 N 57.6459 0.756429 -1.3826 0
M  V30 566 C 59.0619 1.0591 -1.19395 0
M  V30 567 C 59.2619 2.01459 -0.0406567 0
M  V30 568 O 58.3179 2.44909 0.614467 0
M  V30 569 C 59.6309 1.64191 -2.51916 0
M  V30 570 C 61.1789 1.76376 -2.58574 0
M  V30 571 C 61.6539 2.38069 -3.91264 0
M  V30 572 N 63.1449 2.45503 -3.92788 0
M  V30 573 C 63.8799 2.94126 -4.92217 0
M  V30 574 N 63.3759 3.42805 -6.02043 0
M  V30 575 N 65.1689 2.9314 -4.7961 0
M  V30 576 H 57.3199 0.122313 -2.12048 0
M  V30 577 H 59.5829 0.116892 -0.940766 0
M  V30 578 H 59.2889 1.01451 -3.3675 0
M  V30 579 H 59.1629 2.6329 -2.70108 0
M  V30 580 H 61.5499 2.38244 -1.74137 0
M  V30 581 H 61.6309 0.759894 -2.44252 0
M  V30 582 H 61.2749 1.76835 -4.76121 0
M  V30 583 H 61.2049 3.39091 -4.02895 0
M  V30 584 H 63.6959 2.1107 -3.13461 0
M  V30 585 H 64.0089 3.78354 -6.73846 0
M  V30 586 H 62.3539 3.4087 -6.05667 0
M  V30 587 H 65.5449 2.54419 -3.92923 0
M  V30 588 H 65.7179 3.30721 -5.5725 0
M  V30 589 N 59.124 1.23083 0.984299 0
M  V30 590 C 60.352 1.08714 1.76037 0
M  V30 591 C 60.767 -0.361691 1.85303 0
M  V30 592 O 60.124 -1.25034 1.32939 0
M  V30 593 C 60.175 1.70206 3.18923 0
M  V30 594 O 59.896 3.09423 3.10144 0
M  V30 595 C 61.397 1.61227 4.12941 0
M  V30 596 H 58.617 0.380664 0.552572 0
M  V30 597 H 61.161 1.62853 1.23689 0
M  V30 598 H 59.316 1.20109 3.6831 0
M  V30 599 H 59.73 3.39188 4.00065 0
M  V30 600 H 61.204 2.08962 5.10919 0
M  V30 601 H 61.681 0.570375 4.35481 0
M  V30 602 H 62.287 2.10671 3.69456 0
M  V30 603 N 60.6021 -1.18246 1.0419 0
M  V30 604 C 61.8511 -1.87588 0.741194 0
M  V30 605 C 62.1641 -1.81303 -0.734066 0
M  V30 606 O 63.3701 -2.46019 -1.14834 0
M  V30 607 C 61.8261 -3.36538 1.27555 0
M  V30 608 C 61.4341 -3.51349 2.77953 0
M  V30 609 C 63.1781 -4.11273 1.05143 0
M  V30 610 C 61.0851 -4.94265 3.2474 0
M  V30 611 H 60.0151 -0.702622 0.273565 0
M  V30 612 H 62.6661 -1.33601 1.25789 0
M  V30 613 H 61.0481 -3.9 0.686703 0
M  V30 614 H 62.2221 -3.08153 3.42605 0
M  V30 615 H 60.5371 -2.90022 2.98791 0
M  V30 616 H 63.1341 -5.16689 1.37611 0
M  V30 617 H 63.4771 -4.16298 -0.0112774 0
M  V30 618 H 64.0101 -3.63987 1.60495 0
M  V30 619 H 60.7491 -4.94408 4.30396 0
M  V30 620 H 60.2691 -5.38172 2.64823 0
M  V30 621 H 61.9481 -5.62987 3.18834 0
M  V30 622 N 62.0802 -0.821533 -1.34494 0
M  V30 623 C 63.3572 -0.33159 -1.92769 0
M  V30 624 C 63.7372 1.18088 -1.74981 0
M  V30 625 O 63.0852 1.98733 -1.12772 0
M  V30 626 C 63.2952 -0.759398 -3.40638 0
M  V30 627 C 64.6432 -0.757433 -4.1779 0
M  V30 628 O 65.6672 -0.70189 -3.49216 0
M  V30 629 O 64.5262 -0.829361 -5.4017 0
M  V30 630 H 61.6202 -0.0902502 -0.822061 0
M  V30 631 H 64.1662 -0.906231 -1.43477 0
M  V30 632 H 62.9382 -1.8012 -3.47379 0
M  V30 633 H 62.5612 -0.160378 -3.97276 0
M  V30 634 N 63.5583 1.46682 -0.576371 0
M  V30 635 C 64.5213 2.28707 0.150239 0
M  V30 636 C 65.5213 1.38035 0.824794 0
M  V30 637 O 66.7113 1.60476 0.677719 0
M  V30 638 C 63.8433 3.18248 1.22192 0
M  V30 639 H 65.0363 2.94423 -0.570521 0
M  V30 640 H 62.5893 1.52688 -0.334078 0
M  V30 641 H 63.3243 2.57265 1.97447 0
M  V30 642 H 63.1093 3.85 0.742812 0
M  V30 643 H 64.5993 3.80001 1.73172 0
M  V30 644 N 65.0364 0.313813 1.54444 0
M  V30 645 C 65.9994 -0.54379 2.22656 0
M  V30 646 C 66.9994 -1.05124 1.21678 0
M  V30 647 O 68.1894 -0.945225 1.46325 0
M  V30 648 C 65.3214 -1.75427 2.92298 0
M  V30 649 H 66.5144 0.0523599 2.99854 0
M  V30 650 H 64.0674 0.0647834 1.56166 0
M  V30 651 H 64.8024 -2.38991 2.19211 0
M  V30 652 H 64.5874 -1.39791 3.66334 0
M  V30 653 H 66.0774 -2.36325 3.44297 0
M  V30 654 N 66.5145 -1.57545 0.0417849 0
M  V30 655 C 67.7625 -1.91937 -0.632829 0
M  V30 656 C 68.0835 -0.919978 -1.71934 0
M  V30 657 O 67.3535 0.0366064 -1.95866 0
M  V30 658 H 65.9335 -0.708493 -0.236742 0
M  V30 659 H 68.5955 -1.9468 0.0925745 0
M  V30 660 H 67.6915 -2.92912 -1.07746 0
M  V30 661 N 67.9926 0.231505 -1.5589 0
M  V30 662 C 69.4086 0.580748 -1.48659 0
M  V30 663 C 69.6086 1.87617 -0.73498 0
M  V30 664 O 68.6646 2.51046 -0.270586 0
M  V30 665 C 69.9776 0.669202 -2.93159 0
M  V30 666 C 71.5256 0.760499 -3.03621 0
M  V30 667 C 72.0006 0.880383 -4.49459 0
M  V30 668 N 73.4916 0.944861 -4.53461 0
M  V30 669 C 74.2266 1.05716 -5.63571 0
M  V30 670 N 73.7226 1.13403 -6.83456 0
M  V30 671 N 75.5156 1.09152 -5.514 0
M  V30 672 H 67.6666 -0.618695 -2.03189 0
M  V30 673 H 69.9296 -0.215728 -0.923128 0
M  V30 674 H 69.6356 -0.212904 -3.51055 0
M  V30 675 H 69.5096 1.5361 -3.44505 0
M  V30 676 H 71.8966 1.63305 -2.45796 0
M  V30 677 H 71.9776 -0.131864 -2.5546 0
M  V30 678 H 71.6216 0.0123284 -5.07899 0
M  V30 679 H 71.5516 1.78802 -4.95316 0
M  V30 680 H 74.0426 0.896176 -3.6712 0
M  V30 681 H 74.3556 1.21921 -7.63122 0
M  V30 682 H 72.7006 1.10333 -6.86186 0
M  V30 683 H 75.8916 1.02805 -4.56671 0
M  V30 684 H 76.0646 1.17558 -6.37247 0
M  V30 685 N 69.4707 1.49531 0.497807 0
M  V30 686 C 70.7007 1.62657 1.27382 0
M  V30 687 C 71.1087 0.298488 1.86831 0
M  V30 688 O 70.4517 -0.72647 1.68725 0
M  V30 689 C 70.5137 2.6393 2.44093 0
M  V30 690 C 70.1777 4.08195 2.05489 0
M  V30 691 C 71.1747 4.949 1.59279 0
M  V30 692 C 68.8597 4.53948 2.15026 0
M  V30 693 C 70.8537 6.25397 1.23113 0
M  V30 694 C 68.5407 5.84458 1.78473 0
M  V30 695 C 69.5387 6.70006 1.32591 0
M  V30 696 O 69.2267 7.98083 0.965327 0
M  V30 697 H 68.9587 0.550429 0.392434 0
M  V30 698 H 71.5127 1.96325 0.603801 0
M  V30 699 H 69.7427 2.25449 3.14181 0
M  V30 700 H 71.4317 2.66552 3.06113 0
M  V30 701 H 72.1977 4.60779 1.51354 0
M  V30 702 H 68.0767 3.87525 2.4969 0
M  V30 703 H 71.6207 6.92125 0.872299 0
M  V30 704 H 67.5177 6.18107 1.86048 0
M  V30 705 H 68.2857 8.11122 1.09652 0
M  V30 706 N 70.9488 -0.749086 1.3866 0
M  V30 707 C 72.1948 -1.51056 1.35314 0
M  V30 708 C 72.5278 -1.94121 -0.0553751 0
M  V30 709 O 71.8028 -1.65763 -1.01749 0
M  V30 710 C 72.0858 -2.76003 2.31288 0
M  V30 711 C 71.9388 -2.39047 3.8102 0
M  V30 712 C 73.2578 -3.78046 2.2532 0
M  V30 713 H 70.3768 -0.547972 0.492844 0
M  V30 714 H 73.0188 -0.857628 1.69543 0
M  V30 715 H 71.1688 -3.31716 2.02229 0
M  V30 716 H 72.8408 -1.89074 4.20771 0
M  V30 717 H 71.0838 -1.71449 3.98482 0
M  V30 718 H 71.7548 -3.28462 4.4364 0
M  V30 719 H 74.2308 -3.31884 2.50983 0
M  V30 720 H 73.1068 -4.63159 2.94576 0
M  V30 721 H 73.3678 -4.23957 1.25352 0
M  V30 722 N 72.4269 -1.23603 -0.977757 0
M  V30 723 C 73.6739 -1.06971 -1.71941 0
M  V30 724 C 74.0019 0.393009 -1.90488 0
M  V30 725 O 73.2569 1.30719 -1.4564 0
M  V30 726 C 73.5559 -1.7433 -3.11999 0
M  V30 727 C 73.2219 -3.24252 -3.13323 0
M  V30 728 C 71.8839 -3.65156 -3.13392 0
M  V30 729 C 74.2359 -4.20141 -3.08433 0
M  V30 730 C 71.5639 -5.00403 -3.0629 0
M  V30 731 C 73.9159 -5.55384 -3.02873 0
M  V30 732 C 72.5799 -5.95647 -3.01265 0
M  V30 733 H 71.8499 -0.391433 -0.629175 0
M  V30 734 H 74.4969 -1.53572 -1.14403 0
M  V30 735 H 72.8019 -1.20096 -3.7294 0
M  V30 736 H 74.4989 -1.58936 -3.68158 0
M  V30 737 H 71.0889 -2.91692 -3.14029 0
M  V30 738 H 75.2729 -3.89547 -3.07517 0
M  V30 739 H 70.5289 -5.3081 -3.03399 0
M  V30 740 H 74.7029 -6.29398 -2.98046 0
M  V30 741 H 72.3299 -7.0041 -2.95516 0
M  V30 742 N 73.905 1.17692 -1.04816 0
M  V30 743 C 75.316 1.69501 -0.782698 0
M  V30 744 C 75.667 1.83456 0.695577 0
M  V30 745 O 74.792 1.51942 1.54086 0
M  V30 746 C 75.387 3.07874 -1.41419 0
M  V30 747 C 73.946 3.56864 -1.19686 0
M  V30 748 C 73.093 2.3322 -1.50012 0
M  V30 749 H 76.044 1.02262 -1.2136 0
M  V30 750 H 76.065 3.71528 -0.821428 0
M  V30 751 H 75.577 2.97685 -2.49009 0
M  V30 752 H 73.678 3.72337 -0.140043 0
M  V30 753 H 73.791 4.39851 -1.89916 0
M  V30 754 H 72.155 2.37501 -0.920071 0
M  V30 755 H 72.938 2.25644 -2.58727 0
M  V30 756 N 75.3831 0.828654 1.34056 0
M  V30 757 C 76.6311 0.41863 1.97717 0
M  V30 758 C 76.9521 -1.02314 1.66002 0
M  V30 759 O 76.2221 -1.71119 0.953683 0
M  V30 760 H 74.8021 0.151809 0.731412 0
M  V30 761 H 77.4641 1.05936 1.63596 0
M  V30 762 H 76.5601 0.542318 3.07352 0
M  V30 763 N 76.8612 -1.46375 0.584142 0
M  V30 764 C 78.1092 -2.01978 0.0701287 0
M  V30 765 C 78.4302 -1.4579 -1.295 0
M  V30 766 O 77.7002 -0.64314 -1.85042 0
M  V30 767 H 76.2802 -0.746648 0.0229345 0
M  V30 768 H 78.9422 -1.79461 0.760245 0
M  V30 769 H 78.0382 -3.121 0.0022064 0
M  V30 770 N 78.3393 -0.321999 -1.54275 0
M  V30 771 C 79.5883 0.281931 -1.9972 0
M  V30 772 C 79.9013 1.53369 -1.21397 0
M  V30 773 O 81.1073 2.21352 -1.57211 0
M  V30 774 C 79.5633 0.5529 -3.55628 0
M  V30 775 C 79.1713 -0.681721 -4.42783 0
M  V30 776 C 80.9153 1.11687 -4.09544 0
M  V30 777 C 78.8223 -0.382742 -5.9016 0
M  V30 778 H 77.7523 0.109124 -0.746062 0
M  V30 779 H 80.4033 -0.43398 -1.78294 0
M  V30 780 H 78.7853 1.32896 -3.73035 0
M  V30 781 H 79.9593 -1.45723 -4.37151 0
M  V30 782 H 78.2743 -1.1658 -3.99748 0
M  V30 783 H 80.8713 1.35515 -5.17242 0
M  V30 784 H 81.2143 2.06575 -3.61431 0
M  V30 785 H 81.7473 0.402032 -3.95763 0
M  V30 786 H 78.4863 -1.30076 -6.42464 0
M  V30 787 H 78.0063 0.355094 -5.98748 0
M  V30 788 H 79.6853 0.00800157 -6.47 0
M  V30 789 N 79.8174 1.5752 -0.0501392 0
M  V30 790 C 81.0944 1.83996 0.663685 0
M  V30 791 C 81.4744 0.938339 1.89099 0
M  V30 792 O 80.8224 -0.00087759 2.285 0
M  V30 793 C 81.0324 3.33702 1.02196 0
M  V30 794 C 82.3804 4.00691 1.40469 0
M  V30 795 O 83.4044 3.38321 1.11433 0
M  V30 796 O 82.2634 5.10658 1.94654 0
M  V30 797 H 79.3574 0.759385 0.32751 0
M  V30 798 H 81.9034 1.69514 -0.0794238 0
M  V30 799 H 80.6754 3.91015 0.149364 0
M  V30 800 H 80.2984 3.53368 1.82255 0
M  V30 801 N 81.2955 -0.223234 1.56011 0
M  V30 802 C 82.5415 -0.949279 1.79211 0
M  V30 803 C 82.8745 -1.84054 0.619494 0
M  V30 804 O 82.1495 -1.90726 -0.381317 0
M  V30 805 C 82.4325 -1.78965 3.12479 0
M  V30 806 C 82.2855 -0.924997 4.40186 0
M  V30 807 C 83.6045 -2.76774 3.42175 0
M  V30 808 H 80.7235 -0.343676 0.651963 0
M  V30 809 H 83.3655 -0.218253 1.88742 0
M  V30 810 H 81.5155 -2.41291 3.04485 0
M  V30 811 H 83.1875 -0.318615 4.60198 0
M  V30 812 H 81.4305 -0.230344 4.33188 0
M  V30 813 H 82.1015 -1.54735 5.29869 0
M  V30 814 H 84.5775 -2.24584 3.50287 0
M  V30 815 H 83.4535 -3.32678 4.36597 0
M  V30 816 H 83.7145 -3.54429 2.64258 0
M  V30 817 N 82.7736 -1.49793 -0.48987 0
M  V30 818 C 83.7236 -1.63673 -1.5873 0
M  V30 819 C 84.7076 -0.491956 -1.53195 0
M  V30 820 O 85.8996 -0.745461 -1.60536 0
M  V30 821 C 83.0286 -1.71689 -2.97284 0
M  V30 822 C 82.1146 -2.91781 -3.07774 0
M  V30 823 N 82.5056 -4.15714 -2.88124 0
M  V30 824 C 80.8036 -2.89949 -3.38889 0
M  V30 825 C 81.5046 -4.965 -3.03088 0
M  V30 826 N 80.4806 -4.30083 -3.3246 0
M  V30 827 H 84.2826 -2.57204 -1.42208 0
M  V30 828 H 81.7966 -1.46719 -0.69623 0
M  V30 829 H 83.7936 -1.79732 -3.76168 0
M  V30 830 H 82.4536 -0.793024 -3.14867 0
M  V30 831 H 83.4646 -4.45515 -2.64077 0
M  V30 832 H 80.1416 -2.06987 -3.62578 0
M  V30 833 H 81.5316 -6.04991 -2.92294 0
M  V30 834 N 84.2517 0.741722 -1.39055 0
M  V30 835 C 85.4797 1.53098 -1.39171 0
M  V30 836 C 85.8947 1.88794 0.0155099 0
M  V30 837 O 85.2517 1.53626 0.985159 0
M  V30 838 C 85.3027 2.82274 -2.2584 0
M  V30 839 O 85.0237 2.48097 -3.61081 0
M  V30 840 C 86.5247 3.76343 -2.34266 0
M  V30 841 H 83.7447 0.473335 -0.4756 0
M  V30 842 H 86.2887 0.917045 -1.82785 0
M  V30 843 H 84.4437 3.40015 -1.85656 0
M  V30 844 H 84.8577 3.31029 -4.06842 0
M  V30 845 H 86.3317 4.63898 -2.9917 0
M  V30 846 H 86.8087 4.17619 -1.35982 0
M  V30 847 H 87.4147 3.24523 -2.74891 0
M  V30 848 N 85.7298 1.2412 0.971189 0
M  V30 849 C 86.6798 0.997551 2.05019 0
M  V30 850 C 87.6638 -0.0597747 1.60789 0
M  V30 851 O 88.8558 0.153516 1.76333 0
M  V30 852 C 85.9848 0.600557 3.38006 0
M  V30 853 C 85.0708 1.69377 3.88809 0
M  V30 854 N 85.4618 2.92586 4.12586 0
M  V30 855 C 83.7598 1.57048 4.17435 0
M  V30 856 C 84.4608 3.63431 4.54195 0
M  V30 857 N 83.4368 2.90979 4.59165 0
M  V30 858 H 87.2388 1.93316 2.21374 0
M  V30 859 H 84.7528 1.14194 1.1547 0
M  V30 860 H 86.7498 0.40725 4.14906 0
M  V30 861 H 85.4098 -0.327903 3.2304 0
M  V30 862 H 86.4208 3.288 4.00139 0
M  V30 863 H 83.0978 0.709798 4.11422 0
M  V30 864 H 84.4878 4.69102 4.81033 0
M  V30 865 N 87.2079 -1.17134 1.05439 0
M  V30 866 C 88.4539 -1.87733 0.767077 0
M  V30 867 C 88.7869 -1.8098 -0.704253 0
M  V30 868 O 88.0619 -1.21951 -1.5152 0
M  V30 869 C 88.3449 -3.37659 1.25133 0
M  V30 870 C 88.1979 -3.53149 2.78578 0
M  V30 871 C 89.5169 -4.31768 0.852324 0
M  V30 872 H 86.6359 -0.681687 0.280129 0
M  V30 873 H 89.2779 -1.37732 1.30881 0
M  V30 874 H 87.4279 -3.80373 0.790469 0
M  V30 875 H 89.0999 -3.19434 3.32806 0
M  V30 876 H 87.3429 -2.95345 3.17732 0
M  V30 877 H 88.0139 -4.58403 3.07523 0
M  V30 878 H 90.4899 -3.96909 1.24911 0
M  V30 879 H 89.3659 -5.35199 1.21873 0
M  V30 880 H 89.6269 -4.41429 -0.243485 0
M  V30 881 N 88.686 -0.835752 -1.33615 0
M  V30 882 C 89.596 -0.269088 -2.33052 0
M  V30 883 C 90.612 0.603251 -1.63208 0
M  V30 884 O 91.788 0.508112 -1.94885 0
M  V30 885 C 88.853 0.549091 -3.42324 0
M  V30 886 C 87.914 -0.347156 -4.27894 0
M  V30 887 C 87.147 0.43207 -5.31948 0
M  V30 888 O 87.37 1.66409 -5.45586 0
M  V30 889 O 86.304 -0.192298 -6.01593 0
M  V30 890 H 90.13 -1.09243 -2.83372 0
M  V30 891 H 87.715 -0.598198 -1.36901 0
M  V30 892 H 89.597 1.01414 -4.09015 0
M  V30 893 H 88.272 1.34955 -2.94226 0
M  V30 894 H 87.179 -0.859979 -3.64081 0
M  V30 895 H 88.512 -1.1123 -4.79467 0
M  V30 896 N 90.1641 1.46063 -0.591896 0
M  V30 897 C 91.3921 2.06717 -0.0868936 0
M  V30 898 C 91.8071 1.43916 1.22203 0
M  V30 899 O 91.1641 0.547698 1.74088 0
M  V30 900 C 91.2151 3.6142 0.0758725 0
M  V30 901 O 90.9361 4.21874 -1.18126 0
M  V30 902 C 92.4371 4.39025 0.61416 0
M  V30 903 H 89.6571 0.668162 -0.0616518 0
M  V30 904 H 92.2011 1.8755 -0.815175 0
M  V30 905 H 90.3561 3.79983 0.754413 0
M  V30 906 H 90.7701 5.14861 -1.00092 0
M  V30 907 H 92.2441 5.4783 0.677193 0
M  V30 908 H 92.7211 4.07708 1.63312 0
M  V30 909 H 93.3271 4.2529 -0.0298142 0
M  V30 910 N 91.6422 0.330177 1.54103 0
M  V30 911 C 92.8882 -0.270806 2.00984 0
M  V30 912 C 93.2212 -1.51265 1.21789 0
M  V30 913 O 92.4962 -1.92142 0.301927 0
M  V30 914 C 92.7792 -0.598339 3.55094 0
M  V30 915 C 92.6322 0.654674 4.4501 0
M  V30 916 C 93.9512 -1.41334 4.16789 0
M  V30 917 H 91.0702 -0.0969531 0.730595 0
M  V30 918 H 93.7122 0.448066 1.84641 0
M  V30 919 H 91.8622 -1.21078 3.69151 0
M  V30 920 H 93.5342 1.29285 4.42813 0
M  V30 921 H 91.7772 1.28224 4.14416 0
M  V30 922 H 92.4482 0.380944 5.50684 0
M  V30 923 H 94.9242 -0.895597 4.06347 0
M  V30 924 H 93.8002 -1.61127 5.24718 0
M  V30 925 H 94.0612 -2.41146 3.70541 0
M  V30 926 N 93.1203 -1.57491 0.0584922 0
M  V30 927 C 94.3453 -1.97711 -0.62652 0
M  V30 928 C 94.7703 -0.936132 -1.63151 0
M  V30 929 O 94.1283 0.099811 -1.81025 0
M  V30 930 C 94.1763 -3.36989 -1.28338 0
M  V30 931 O 93.2803 -3.35433 -2.39913 0
M  V30 932 H 92.6213 -0.643868 -0.162266 0
M  V30 933 H 95.1513 -2.04193 0.129064 0
M  V30 934 H 95.1613 -3.73879 -1.63335 0
M  V30 935 H 93.8363 -4.12289 -0.546889 0
M  V30 936 H 92.4133 -3.10298 -2.06809 0
M  V30 937 N 94.5984 0.214957 -1.56127 0
M  V30 938 C 95.8454 0.938372 -1.79446 0
M  V30 939 C 96.1734 1.8407 -0.628378 0
M  V30 940 O 95.4284 1.91837 0.386925 0
M  V30 941 C 95.7274 1.80314 -3.0858 0
M  V30 942 C 95.3934 1.05349 -4.3842 0
M  V30 943 C 94.0554 0.846435 -4.73697 0
M  V30 944 C 96.4074 0.524588 -5.18553 0
M  V30 945 C 93.7354 0.098683 -5.86617 0
M  V30 946 C 96.0874 -0.209853 -6.32252 0
M  V30 947 C 94.7514 -0.428102 -6.66126 0
M  V30 948 H 94.0214 0.343375 -0.656639 0
M  V30 949 H 96.6684 0.206077 -1.90388 0
M  V30 950 H 94.9734 2.6035 -2.92789 0
M  V30 951 H 96.6704 2.36513 -3.23825 0
M  V30 952 H 93.2604 1.22486 -4.10725 0
M  V30 953 H 97.4444 0.672008 -4.91729 0
M  V30 954 H 92.7004 -0.0805753 -6.11347 0
M  V30 955 H 96.8744 -0.627157 -6.9357 0
M  V30 956 H 94.5014 -1.00944 -7.53468 0
M  V30 957 N 96.0765 1.50051 0.48192 0
M  V30 958 C 97.0245 1.68635 1.60203 0
M  V30 959 C 98.0185 0.552184 1.60148 0
M  V30 960 O 99.2245 0.732377 1.64427 0
M  V30 961 H 95.5995 0.532081 0.531407 0
M  V30 962 H 97.5705 2.62616 1.41688 0
M  V30 963 C 96.3195 1.78775 2.9822 0
M  V30 964 H 95.6425 2.6543 2.98976 0
M  V30 965 H 97.0825 1.95806 3.7608 0
M  V30 966 C 95.5415 0.536849 3.32595 0
M  V30 967 O 96.0715 -0.328897 4.00351 0
M  V30 968 N 94.2775 0.394091 2.87915 0
M  V30 969 H 93.8245 1.09962 2.32951 0
M  V30 970 H 93.7825 -0.441737 3.11281 0
M  V30 971 N 97.5546 -0.734337 1.39446 0
M  V30 972 C 98.7826 -1.52358 1.39981 0
M  V30 973 C 99.1976 -1.88799 -0.0054975 0
M  V30 974 O 98.5546 -1.54146 -0.976998 0
M  V30 975 C 98.6056 -2.81072 2.27333 0
M  V30 976 O 98.3266 -2.46178 3.62392 0
M  V30 977 C 99.8276 -3.75096 2.36259 0
M  V30 978 H 97.0476 -0.470806 0.478103 0
M  V30 979 H 99.5916 -0.907339 1.83269 0
M  V30 980 H 97.7466 -3.39026 1.87457 0
M  V30 981 H 98.1606 -3.28866 4.08592 0
M  V30 982 H 99.6346 -4.62305 3.01626 0
M  V30 983 H 100.112 -4.16892 1.38194 0
M  V30 984 H 100.718 -3.23061 2.76608 0
M  V30 985 N 99.0327 -1.24633 -0.964593 0
M  V30 986 C 99.9647 -0.999302 -2.06268 0
M  V30 987 C 100.978 0.0323226 -1.62768 0
M  V30 988 O 102.167 -0.205079 -1.77318 0
M  V30 989 C 99.2667 -0.486816 -3.35385 0
M  V30 990 C 98.4397 -1.5823 -4.07777 0
M  V30 991 C 97.4987 -1.07191 -5.15166 0
M  V30 992 O 96.5247 -1.76426 -5.41168 0
M  V30 993 N 97.7267 0.0920373 -5.80427 0
M  V30 994 H 100.492 -1.94477 -2.28033 0
M  V30 995 H 98.0527 -1.15704 -1.13244 0
M  V30 996 H 100.045 -0.130066 -4.04491 0
M  V30 997 H 98.6147 0.364459 -3.10468 0
M  V30 998 H 97.8347 -2.11109 -3.32906 0
M  V30 999 H 99.1227 -2.31854 -4.52903 0
M  V30 1000 H 98.5207 0.670784 -5.61709 0
M  V30 1001 H 97.0777 0.389905 -6.50633 0
M  V30 1002 N 100.511 1.16574 -1.06058 0
M  V30 1003 C 101.736 1.91493 -0.796562 0
M  V30 1004 C 102.161 1.76773 0.642868 0
M  V30 1005 O 101.519 1.09142 1.44768 0
M  V30 1006 C 101.567 3.40293 -1.19303 0
M  V30 1007 O 100.671 4.11074 -0.330394 0
M  V30 1008 H 100.012 0.596678 -0.291326 0
M  V30 1009 H 102.542 1.47708 -1.41575 0
M  V30 1010 H 102.552 3.91057 -1.16356 0
M  V30 1011 H 101.227 3.50326 -2.24153 0
M  V30 1012 H 99.8038 3.70513 -0.421225 0
M  V30 1013 N 101.989 0.842826 1.3317 0
M  V30 1014 C 102.952 0.284065 2.27433 0
M  V30 1015 C 103.952 -0.54948 1.5112 0
M  V30 1016 O 105.142 -0.362699 1.70382 0
M  V30 1017 C 102.274 -0.599384 3.35589 0
M  V30 1018 H 103.467 1.11589 2.78366 0
M  V30 1019 H 101.02 0.616221 1.4364 0
M  V30 1020 H 101.755 -1.45349 2.89904 0
M  V30 1021 H 101.54 -0.00291266 3.921 0
M  V30 1022 H 103.03 -0.983488 4.05854 0
M  V30 1023 N 103.467 -1.45747 0.599634 0
M  V30 1024 C 104.744 -1.95585 0.0240846 0
M  V30 1025 C 105.124 -1.54217 -1.44154 0
M  V30 1026 O 104.472 -0.800903 -2.14004 0
M  V30 1027 C 104.682 -3.48344 0.21385 0
M  V30 1028 C 106.03 -4.24504 0.0904902 0
M  V30 1029 O 107.054 -3.55911 0.143558 0
M  V30 1030 O 105.913 -5.46491 -0.0310766 0
M  V30 1031 H 103.007 -0.82602 -0.0402478 0
M  V30 1032 H 105.553 -1.55951 0.669139 0
M  V30 1033 H 104.325 -3.71397 1.23206 0
M  V30 1034 H 103.948 -3.9485 -0.466842 0
M  V30 1035 N 104.945 -0.338344 -1.53925 0
M  V30 1036 C 106.173 0.261298 -2.05243 0
M  V30 1037 C 106.588 1.44625 -1.21363 0
M  V30 1038 O 105.945 1.80811 -0.247736 0
M  V30 1039 C 105.996 0.681412 -3.5502 0
M  V30 1040 O 105.717 -0.456414 -4.35716 0
M  V30 1041 C 107.218 1.34232 -4.22489 0
M  V30 1042 H 104.438 0.0513685 -0.669031 0
M  V30 1043 H 106.982 -0.488822 -1.98572 0
M  V30 1044 H 105.137 1.38148 -3.61931 0
M  V30 1045 H 105.551 -0.122564 -5.24357 0
M  V30 1046 H 107.025 1.58708 -5.28693 0
M  V30 1047 H 107.502 2.29426 -3.74514 0
M  V30 1048 H 108.108 0.684424 -4.19757 0
M  V30 1049 N 106.423 1.57458 -0.0668435 0
M  V30 1050 C 107.67 1.93301 0.603406 0
M  V30 1051 C 107.998 0.946486 1.69917 0
M  V30 1052 O 107.253 -0.0387021 1.95662 0
M  V30 1053 C 107.552 3.35784 1.22409 0
M  V30 1054 C 107.218 4.50179 0.254955 0
M  V30 1055 C 105.88 4.81199 -0.0116746 0
M  V30 1056 C 108.232 5.19598 -0.408338 0
M  V30 1057 C 105.56 5.78978 -0.94877 0
M  V30 1058 C 107.912 6.18381 -1.33372 0
M  V30 1059 C 106.576 6.47821 -1.60887 0
M  V30 1060 H 105.846 0.707338 0.220802 0
M  V30 1061 H 108.493 1.91012 -0.136665 0
M  V30 1062 H 106.798 3.34515 2.03978 0
M  V30 1063 H 108.495 3.60804 1.74989 0
M  V30 1064 H 105.085 4.25983 0.472954 0
M  V30 1065 H 109.269 4.95832 -0.215456 0
M  V30 1066 H 104.525 6.00115 -1.16925 0
M  V30 1067 H 108.699 6.71277 -1.85367 0
M  V30 1068 H 106.326 7.23399 -2.33661 0
M  V30 1069 N 107.901 -0.206675 1.56239 0
M  V30 1070 C 108.864 -1.23976 1.92776 0
M  V30 1071 C 109.864 -1.39041 0.807729 0
M  V30 1072 O 111.054 -1.37051 1.0753 0
M  V30 1073 C 108.186 -2.61112 2.19165 0
M  V30 1074 H 109.379 -0.927764 2.85189 0
M  V30 1075 H 106.932 -0.447718 1.4975 0
M  V30 1076 H 107.667 -2.97386 1.29352 0
M  V30 1077 H 107.452 -2.51552 3.00772 0
M  V30 1078 H 108.942 -3.35633 2.48476 0
M  V30 1079 N 109.379 -1.50304 -0.473955 0
M  V30 1080 C 110.607 -1.64902 -1.24959 0
M  V30 1081 C 111.022 -0.331198 -1.85872 0
M  V30 1082 O 110.379 0.68652 -1.69095 0
M  V30 1083 C 110.43 -2.73803 -2.36038 0
M  V30 1084 O 110.151 -4.00477 -1.77624 0
M  V30 1085 C 111.652 -2.99349 -3.26964 0
M  V30 1086 H 108.872 -0.554383 -0.378022 0
M  V30 1087 H 111.416 -1.9651 -0.566054 0
M  V30 1088 H 109.571 -2.44898 -3.00173 0
M  V30 1089 H 109.985 -4.60678 -2.5075 0
M  V30 1090 H 111.459 -3.79217 -4.01121 0
M  V30 1091 H 111.936 -2.10307 -3.85574 0
M  V30 1092 H 112.542 -3.29774 -2.68569 0
M  V30 1093 N 110.857 0.726932 -1.39834 0
M  V30 1094 C 111.82 1.82269 -1.38962 0
M  V30 1095 C 112.82 1.58248 -0.285334 0
M  V30 1096 O 114.01 1.65499 -0.54366 0
M  V30 1097 C 111.142 3.20186 -1.17019 0
M  V30 1098 H 112.335 1.84443 -2.36476 0
M  V30 1099 H 109.888 0.931416 -1.25516 0
M  V30 1100 H 110.623 3.23669 -0.202204 0
M  V30 1101 H 110.408 3.3902 -1.96998 0
M  V30 1102 H 111.898 4.00235 -1.1917 0
M  V30 1103 N 112.336 1.25143 0.95797 0
M  V30 1104 C 113.564 1.12424 1.73691 0
M  V30 1105 C 113.979 -0.322304 1.86029 0
M  V30 1106 O 113.336 -1.22186 1.35561 0
M  V30 1107 C 113.387 1.76933 3.15241 0
M  V30 1108 O 113.108 3.15932 3.03511 0
M  V30 1109 C 114.609 1.6995 4.09429 0
M  V30 1110 H 111.829 0.3923 0.544373 0
M  V30 1111 H 114.373 1.6544 1.20207 0
M  V30 1112 H 112.528 1.27895 3.6568 0
M  V30 1113 H 112.942 3.47598 3.9278 0
M  V30 1114 H 114.416 2.19753 5.06372 0
M  V30 1115 H 114.893 0.662619 4.34173 0
M  V30 1116 H 115.499 2.18461 3.64904 0
M  V30 1117 N 113.814 -1.1601 1.06675 0
M  V30 1118 C 115.06 -1.86909 0.786945 0
M  V30 1119 C 115.393 -1.81717 -0.685018 0
M  V30 1120 O 114.668 -1.23551 -1.50218 0
M  V30 1121 C 114.951 -3.36313 1.28707 0
M  V30 1122 C 114.804 -3.50175 2.82308 0
M  V30 1123 C 116.123 -4.3084 0.898071 0
M  V30 1124 H 113.242 -0.678677 0.287343 0
M  V30 1125 H 115.884 -1.36336 1.32334 0
M  V30 1126 H 114.034 -3.79513 0.830768 0
M  V30 1127 H 115.706 -3.15886 3.36175 0
M  V30 1128 H 113.949 -2.91959 3.20847 0
M  V30 1129 H 114.62 -4.55116 3.12368 0
M  V30 1130 H 117.096 -3.95561 1.29114 0
M  V30 1131 H 115.972 -5.33876 1.27543 0
M  V30 1132 H 116.233 -4.41662 -0.196651 0
M  V30 1133 N 115.292 -0.849877 -1.32721 0
M  V30 1134 C 116.255 -0.296122 -2.27279 0
M  V30 1135 C 117.255 0.541458 -1.5141 0
M  V30 1136 O 118.445 0.353658 -1.70572 0
M  V30 1137 C 115.577 0.581579 -3.35902 0
M  V30 1138 H 116.77 -1.13064 -2.77771 0
M  V30 1139 H 114.323 -0.62383 -1.43311 0
M  V30 1140 H 115.058 1.43809 -2.9067 0
M  V30 1141 H 114.843 -0.0178814 -3.92096 0
M  V30 1142 H 116.333 0.961951 -4.0637 0
M  V30 1143 N 116.77 1.45427 -0.607355 0
M  V30 1144 C 117.733 2.28974 0.101693 0
M  V30 1145 C 118.733 1.39754 0.795329 0
M  V30 1146 O 119.923 1.61878 0.643527 0
M  V30 1147 C 117.055 3.20768 1.15414 0
M  V30 1148 H 118.248 2.93147 -0.632844 0
M  V30 1149 H 115.801 1.51945 -0.366391 0
M  V30 1150 H 116.536 2.61395 1.91945 0
M  V30 1151 H 116.321 3.86489 0.66098 0
M  V30 1152 H 117.811 3.83589 1.65073 0
M  V30 1153 N 118.248 0.346503 1.53744 0
M  V30 1154 C 119.211 -0.496439 2.23759 0
M  V30 1155 C 120.211 -1.0252 1.2388 0
M  V30 1156 O 121.401 -0.913974 1.48297 0
M  V30 1157 C 118.533 -1.69187 2.95954 0
M  V30 1158 H 119.726 0.115952 2.99676 0
M  V30 1159 H 117.279 0.0978939 1.55993 0
M  V30 1160 H 118.014 -2.34288 2.24231 0
M  V30 1161 H 117.799 -1.31989 3.69217 0
M  V30 1162 H 119.289 -2.28969 3.49232 0
M  V30 1163 N 119.726 -1.57421 0.075193 0
M  V30 1164 C 120.966 -1.95495 -0.596757 0
M  V30 1165 C 121.33 -0.954886 -1.66571 0
M  V30 1166 O 122.531 -1.22341 -2.39345 0
M  V30 1167 C 120.802 -3.382 -1.15566 0
M  V30 1168 S 122.361 -3.98254 -1.84226 0
M  V30 1169 H 119.179 -0.683649 -0.195307 0
M  V30 1170 H 121.781 -1.94925 0.149859 0
M  V30 1171 H 120.485 -4.08766 -0.36588 0
M  V30 1172 H 120.016 -3.42321 -1.93856 0
M  V30 1173 H 122.031 -3.85435 -3.12497 0
M  V30 1174 N 121.204 0.198386 -1.56346 0
M  V30 1175 C 122.452 0.91747 -1.80075 0
M  V30 1176 C 122.773 1.83929 -0.647692 0
M  V30 1177 O 122.043 1.93029 0.334166 0
M  V30 1178 H 120.623 0.341774 -0.664228 0
M  V30 1179 H 123.285 0.204684 -1.93822 0
M  V30 1180 H 122.381 1.51055 -2.7311 0
M  V30 1181 N 122.682 1.50554 0.465978 0
M  V30 1182 C 123.93 1.61479 1.21528 0
M  V30 1183 C 124.251 0.319596 1.92363 0
M  V30 1184 O 123.521 -0.663194 1.84333 0
M  V30 1185 H 122.101 0.595055 0.451573 0
M  V30 1186 H 124.763 1.87355 0.53704 0
M  V30 1187 H 123.859 2.42846 1.96042 0
M  V30 1188 N 124.16 -0.719506 1.40217 0
M  V30 1189 C 125.388 -1.50864 1.41589 0
M  V30 1190 C 125.803 -1.88794 0.0145275 0
M  V30 1191 O 125.16 -1.55174 -0.960594 0
M  V30 1192 C 125.211 -2.78646 2.30302 0
M  V30 1193 O 124.932 -2.42321 3.64983 0
M  V30 1194 C 126.433 -3.72569 2.40224 0
M  V30 1195 H 123.653 -0.465709 0.48307 0
M  V30 1196 H 126.197 -0.88785 1.84221 0
M  V30 1197 H 124.352 -3.37019 1.91042 0
M  V30 1198 H 124.766 -3.24514 4.12057 0
M  V30 1199 H 126.24 -4.5908 3.06512 0
M  V30 1200 H 126.717 -4.15403 1.42608 0
M  V30 1201 H 127.323 -3.20109 2.80019 0
M  V30 1202 N 125.638 -1.25649 -0.95132 0
M  V30 1203 C 126.866 -1.13343 -1.73092 0
M  V30 1204 C 127.281 0.312434 -1.86197 0
M  V30 1205 O 126.638 1.21465 -1.36207 0
M  V30 1206 C 126.689 -1.78602 -3.14299 0
M  V30 1207 O 126.41 -3.17537 -3.01831 0
M  V30 1208 C 127.911 -1.72119 -4.08522 0
M  V30 1209 H 125.131 -0.395181 -0.542285 0
M  V30 1210 H 127.675 -1.66076 -1.19328 0
M  V30 1211 H 125.83 -1.29832 -3.64996 0
M  V30 1212 H 126.244 -3.49676 -3.90931 0
M  V30 1213 H 127.718 -2.22435 -5.052 0
M  V30 1214 H 128.195 -0.685635 -4.33815 0
M  V30 1215 H 128.801 -2.20393 -3.63741 0
M  V30 1216 N 127.117 1.15442 -1.07289 0
M  V30 1217 C 128.345 1.90096 -0.81676 0
M  V30 1218 C 128.76 1.7798 0.629966 0
M  V30 1219 O 128.117 1.1313 1.43206 0
M  V30 1220 C 128.168 3.40466 -1.21512 0
M  V30 1221 O 127.889 3.52232 -2.60508 0
M  V30 1222 C 129.39 4.32145 -0.988198 0
M  V30 1223 H 126.61 0.602495 -0.295366 0
M  V30 1224 H 129.154 1.4627 -1.42918 0
M  V30 1225 H 127.309 3.81958 -0.647039 0
M  V30 1226 H 127.723 4.45549 -2.76742 0
M  V30 1227 H 129.197 5.36072 -1.31645 0
M  V30 1228 H 129.674 4.39135 0.0755063 0
M  V30 1229 H 130.28 3.96395 -1.54115 0
M  V30 1230 N 128.595 0.856903 1.32268 0
M  V30 1231 C 129.844 0.457599 1.96441 0
M  V30 1232 C 130.157 -0.992426 1.68553 0
M  V30 1233 O 131.363 -1.49727 2.26482 0
M  V30 1234 C 129.819 0.767358 3.51624 0
M  V30 1235 C 129.427 2.23326 3.88367 0
M  V30 1236 C 131.171 0.435887 4.22256 0
M  V30 1237 C 129.078 2.48613 5.36606 0
M  V30 1238 H 128.008 0.167387 0.735185 0
M  V30 1239 H 130.659 1.048 1.5063 0
M  V30 1240 H 129.041 0.106367 3.95857 0
M  V30 1241 H 130.215 2.93623 3.55137 0
M  V30 1242 H 128.53 2.52948 3.30766 0
M  V30 1243 H 131.127 0.602202 5.31298 0
M  V30 1244 H 131.47 -0.622672 4.11617 0
M  V30 1245 H 132.003 1.05286 3.83614 0
M  V30 1246 H 128.742 3.53101 5.52268 0
M  V30 1247 H 128.262 1.82896 5.71235 0
M  V30 1248 H 129.941 2.32676 6.03714 0
M  V30 1249 N 130.073 -1.45103 0.615059 0
M  V30 1250 C 131.319 -2.02483 0.113347 0
M  V30 1251 C 131.652 -1.48146 -1.25564 0
M  V30 1252 O 130.927 -0.659104 -1.82992 0
M  V30 1253 C 131.21 -3.60005 0.0825278 0
M  V30 1254 C 131.063 -4.2466 1.48271 0
M  V30 1255 C 132.382 -4.35972 -0.601401 0
M  V30 1256 H 129.501 -0.735764 0.0426632 0
M  V30 1257 H 132.143 -1.72868 0.788461 0
M  V30 1258 H 130.293 -3.85367 -0.492378 0
M  V30 1259 H 131.965 -4.10458 2.10527 0
M  V30 1260 H 130.208 -3.82772 2.04127 0
M  V30 1261 H 130.879 -5.336 1.41332 0
M  V30 1262 H 133.355 -4.15947 -0.112666 0
M  V30 1263 H 132.231 -5.45697 -0.592097 0
M  V30 1264 H 132.492 -4.09391 -1.66887 0
M  V30 1265 N 131.551 -0.354651 -1.53558 0
M  V30 1266 C 132.828 0.294281 -1.93374 0
M  V30 1267 C 133.208 1.67313 -1.28723 0
M  V30 1268 O 132.556 2.24179 -0.442247 0
M  V30 1269 C 132.766 0.355445 -3.47185 0
M  V30 1270 C 134.114 0.601007 -4.20325 0
M  V30 1271 O 135.138 0.437106 -3.53508 0
M  V30 1272 O 133.997 0.919322 -5.38712 0
M  V30 1273 H 131.091 0.174033 -0.808481 0
M  V30 1274 H 133.637 -0.406638 -1.64756 0
M  V30 1275 H 132.409 -0.611729 -3.86489 0
M  V30 1276 H 132.032 1.1027 -3.82003 0
M  V30 1277 N 133.029 1.57378 -0.0835403 0
M  V30 1278 C 134.276 1.9393 0.58287 0
M  V30 1279 C 134.604 0.964455 1.68904 0
M  V30 1280 O 133.859 -0.0179474 1.95692 0
M  V30 1281 C 134.158 3.37063 1.1884 0
M  V30 1282 C 133.824 4.50424 0.207194 0
M  V30 1283 C 132.486 4.81159 -0.0627115 0
M  V30 1284 C 134.838 5.19136 -0.463426 0
M  V30 1285 C 132.166 5.77939 -1.01012 0
M  V30 1286 C 134.518 6.16931 -1.39924 0
M  V30 1287 C 133.182 6.46078 -1.67749 0
M  V30 1288 H 132.452 0.70964 0.213287 0
M  V30 1289 H 135.099 1.90856 -0.156916 0
M  V30 1290 H 133.404 3.3666 2.00418 0
M  V30 1291 H 135.101 3.6264 1.71153 0
M  V30 1292 H 131.691 4.2646 0.427747 0
M  V30 1293 H 135.875 4.95576 -0.268034 0
M  V30 1294 H 131.131 5.98842 -1.23283 0
M  V30 1295 H 135.305 6.69273 -1.92476 0
M  V30 1296 H 132.932 7.2088 -2.41321 0
M  V30 1297 N 134.507 -0.190092 1.56449 0
M  V30 1298 C 135.747 -0.916414 1.82705 0
M  V30 1299 C 136.111 -1.80235 0.661763 0
M  V30 1300 O 137.312 -2.56484 0.80433 0
M  V30 1301 C 135.583 -1.70691 3.14005 0
M  V30 1302 S 137.142 -2.48457 3.61683 0
M  V30 1303 H 133.96 -0.307281 0.64117 0
M  V30 1304 H 136.562 -0.179433 1.94675 0
M  V30 1305 H 135.266 -1.04677 3.96826 0
M  V30 1306 H 134.797 -2.48562 3.04927 0
M  V30 1307 H 136.812 -3.72756 3.27517 0
M  V30 1308 N 135.985 -1.50799 -0.457987 0
M  V30 1309 C 136.917 -1.66786 -1.57211 0
M  V30 1310 C 137.93 -0.548962 -1.53265 0
M  V30 1311 O 139.119 -0.8226 -1.58416 0
M  V30 1312 C 136.219 -1.64834 -2.96113 0
M  V30 1313 C 135.392 -2.92971 -3.24787 0
M  V30 1314 C 134.451 -2.83485 -4.43309 0
M  V30 1315 O 133.477 -3.5744 -4.42973 0
M  V30 1316 N 134.679 -1.97929 -5.45714 0
M  V30 1317 H 137.444 -2.62889 -1.43909 0
M  V30 1318 H 135.005 -1.48427 -0.646617 0
M  V30 1319 H 136.997 -1.56084 -3.7339 0
M  V30 1320 H 135.567 -0.764118 -3.03117 0
M  V30 1321 H 134.787 -3.15749 -2.36 0
M  V30 1322 H 136.075 -3.77834 -3.40762 0
M  V30 1323 H 135.473 -1.37182 -5.48815 0
M  V30 1324 H 134.03 -1.95073 -6.21924 0
M  V30 1325 N 137.463 0.71206 -1.40597 0
M  V30 1326 C 138.395 1.83704 -1.37061 0
M  V30 1327 C 139.408 1.60453 -0.275426 0
M  V30 1328 O 140.597 1.70262 -0.53602 0
M  V30 1329 C 137.697 3.20172 -1.11099 0
M  V30 1330 C 136.87 3.7059 -2.3234 0
M  V30 1331 C 135.929 4.85681 -2.02485 0
M  V30 1332 O 134.955 4.9815 -2.75382 0
M  V30 1333 N 136.157 5.71735 -1.00497 0
M  V30 1334 H 138.922 1.87235 -2.34016 0
M  V30 1335 H 136.483 0.893739 -1.34996 0
M  V30 1336 H 138.475 3.94768 -0.891064 0
M  V30 1337 H 137.045 3.11767 -0.227989 0
M  V30 1338 H 136.265 2.87085 -2.7014 0
M  V30 1339 H 137.553 4.01011 -3.13157 0
M  V30 1340 H 136.951 5.64275 -0.401298 0
M  V30 1341 H 135.508 6.463 -0.844942 0
M  V30 1342 N 138.941 1.26152 0.944643 0
M  V30 1343 C 140.218 1.02247 1.66748 0
M  V30 1344 C 140.598 -0.448202 2.06287 0
M  V30 1345 O 139.946 -1.42779 1.78399 0
M  V30 1346 C 140.156 1.96788 2.88228 0
M  V30 1347 C 141.504 2.25201 3.59958 0
M  V30 1348 O 142.528 1.94626 2.98327 0
M  V30 1349 O 141.387 2.77242 4.70956 0
M  V30 1350 H 138.481 0.388517 0.730057 0
M  V30 1351 H 141.027 1.37348 0.99668 0
M  V30 1352 H 139.799 2.96047 2.55875 0
M  V30 1353 H 139.422 1.62145 3.63035 0
M  V30 1354 N 140.419 -1.14872 1.07899 0
M  V30 1355 C 141.835 -1.37776 0.805606 0
M  V30 1356 C 142.035 -1.92743 -0.587555 0
M  V30 1357 O 141.091 -2.13678 -1.34528 0
M  V30 1358 C 142.404 -2.34361 1.88402 0
M  V30 1359 C 143.952 -2.48012 1.90942 0
M  V30 1360 C 144.427 -3.47893 2.97883 0
M  V30 1361 N 145.918 -3.55433 2.97021 0
M  V30 1362 C 146.653 -4.32553 3.76412 0
M  V30 1363 N 146.149 -5.12959 4.65666 0
M  V30 1364 N 147.942 -4.27697 3.64735 0
M  V30 1365 H 140.093 -0.775365 1.97742 0
M  V30 1366 H 142.356 -0.403521 0.857831 0
M  V30 1367 H 142.062 -2.01098 2.88535 0
M  V30 1368 H 141.936 -3.34206 1.74889 0
M  V30 1369 H 144.323 -2.8057 0.914579 0
M  V30 1370 H 144.404 -1.48147 2.08534 0
M  V30 1371 H 144.048 -3.16069 3.97571 0
M  V30 1372 H 143.978 -4.47527 2.77538 0
M  V30 1373 H 146.469 -2.98048 2.32326 0
M  V30 1374 H 146.782 -5.69065 5.22862 0
M  V30 1375 H 145.127 -5.12245 4.69712 0
M  V30 1376 H 148.318 -3.63949 2.94378 0
M  V30 1377 H 148.491 -4.8755 4.26848 0
M  V30 1378 N 141.898 -0.863906 -1.31812 0
M  V30 1379 C 143.146 -0.470904 -1.96537 0
M  V30 1380 C 143.467 0.978771 -1.68657 0
M  V30 1381 O 142.737 1.6853 -0.998717 0
M  V30 1382 H 141.317 -0.171148 -0.72713 0
M  V30 1383 H 143.979 -1.10236 -1.60729 0
M  V30 1384 H 143.075 -0.623616 -3.05806 0
M  V30 1385 N 143.376 1.44774 -0.622745 0
M  V30 1386 C 144.326 2.2774 0.108889 0
M  V30 1387 C 145.31 1.38189 0.824175 0
M  V30 1388 O 146.502 1.62063 0.711664 0
M  V30 1389 C 143.631 3.25353 1.09546 0
M  V30 1390 C 142.717 4.22392 0.380232 0
M  V30 1391 N 143.108 5.02388 -0.586535 0
M  V30 1392 C 141.406 4.41588 0.625792 0
M  V30 1393 C 142.107 5.72894 -1.00834 0
M  V30 1394 N 141.083 5.42479 -0.348878 0
M  V30 1395 H 144.885 2.86993 -0.63341 0
M  V30 1396 H 142.399 1.5611 -0.447589 0
M  V30 1397 H 144.396 3.83538 1.63414 0
M  V30 1398 H 143.056 2.6766 1.83815 0
M  V30 1399 H 144.067 5.0885 -0.963975 0
M  V30 1400 H 140.744 3.95003 1.352 0
M  V30 1401 H 142.134 6.47158 -1.80656 0
M  V30 1402 N 144.854 0.36279 1.53368 0
M  V30 1403 C 146.079 -0.231226 2.06107 0
M  V30 1404 C 146.504 -1.419 1.23474 0
M  V30 1405 O 145.862 -1.79524 0.253128 0
M  V30 1406 C 145.91 -0.605523 3.5548 0
M  V30 1407 O 145.014 -1.70312 3.7559 0
M  V30 1408 H 144.355 -0.034327 0.663112 0
M  V30 1409 H 146.885 0.522584 1.97814 0
M  V30 1410 H 146.895 -0.877314 3.98456 0
M  V30 1411 H 145.57 0.263004 4.15068 0
M  V30 1412 H 144.147 -1.4271 3.44512 0
M  V30 1413 N 146.332 -1.57332 0.0918853 0
M  V30 1414 C 147.262 -2.16872 -0.865371 0
M  V30 1415 C 148.243 -1.10118 -1.29646 0
M  V30 1416 O 149.428 -1.38242 -1.36392 0
M  V30 1417 C 146.558 -2.74649 -2.12569 0
M  V30 1418 C 145.512 -3.86747 -1.83333 0
M  V30 1419 C 144.838 -4.31212 -3.16166 0
M  V30 1420 C 146.138 -5.10089 -1.1228 0
M  V30 1421 H 147.832 -2.97114 -0.369307 0
M  V30 1422 H 145.378 -1.42918 -0.176194 0
M  V30 1423 H 147.331 -3.14952 -2.7997 0
M  V30 1424 H 146.055 -1.91657 -2.64452 0
M  V30 1425 H 144.714 -3.46978 -1.18331 0
M  V30 1426 H 144.362 -3.45115 -3.6593 0
M  V30 1427 H 144.062 -5.06788 -2.97388 0
M  V30 1428 H 145.586 -4.74146 -3.84731 0
M  V30 1429 H 147 -5.47582 -1.69785 0
M  V30 1430 H 145.397 -5.91073 -1.03693 0
M  V30 1431 H 146.467 -4.84786 -0.105041 0
M  V30 1432 N 147.81 0.181792 -1.56548 0
M  V30 1433 C 148.773 1.20894 -1.94724 0
M  V30 1434 C 149.773 1.37738 -0.829747 0
M  V30 1435 O 150.963 1.35323 -1.09697 0
M  V30 1436 C 148.095 2.57593 -2.23291 0
M  V30 1437 H 149.288 0.882275 -2.86629 0
M  V30 1438 H 146.841 0.423838 -1.50444 0
M  V30 1439 H 147.576 2.95291 -1.34067 0
M  V30 1440 H 147.361 2.46735 -3.04736 0
M  V30 1441 H 148.851 3.31637 -2.53785 0
M  V30 1442 N 149.288 1.51039 0.449983 0
M  V30 1443 C 150.198 1.74261 1.57067 0
M  V30 1444 C 151.214 0.626363 1.62335 0
M  V30 1445 O 152.39 0.907162 1.79812 0
M  V30 1446 C 149.455 1.85114 2.93144 0
M  V30 1447 C 148.516 3.0893 2.98095 0
M  V30 1448 C 147.749 3.19256 4.27681 0
M  V30 1449 O 147.972 2.35835 5.19363 0
M  V30 1450 O 146.906 4.12144 4.38658 0
M  V30 1451 H 150.732 2.69303 1.40391 0
M  V30 1452 H 148.317 1.35389 0.631688 0
M  V30 1453 H 150.199 1.94311 3.73926 0
M  V30 1454 H 148.874 0.932588 3.09975 0
M  V30 1455 H 147.781 3.0522 2.16314 0
M  V30 1456 H 149.114 4.00433 2.86206 0
M  V30 1457 N 150.766 -0.704594 1.40972 0
M  V30 1458 C 151.729 -1.80035 1.41845 0
M  V30 1459 C 152.729 -1.57774 0.310474 0
M  V30 1460 O 153.919 -1.64613 0.56992 0
M  V30 1461 C 151.051 -3.18284 1.22098 0
M  V30 1462 H 152.244 -1.80658 2.3938 0
M  V30 1463 H 149.797 -0.911329 1.26982 0
M  V30 1464 H 150.532 -3.23306 0.253672 0
M  V30 1465 H 150.317 -3.35843 2.02366 0
M  V30 1466 H 151.807 -3.98289 1.25522 0
M  V30 1467 N 152.244 -1.26651 -0.937939 0
M  V30 1468 C 153.49 -1.12553 -1.687 0
M  V30 1469 C 153.823 0.329782 -1.91379 0
M  V30 1470 O 153.098 1.24202 -1.4968 0
M  V30 1471 C 153.381 -1.89862 -3.05981 0
M  V30 1472 C 153.234 -3.43318 -2.90607 0
M  V30 1473 C 154.553 -1.69499 -4.0615 0
M  V30 1474 H 151.672 -0.410257 -0.612257 0
M  V30 1475 H 154.314 -1.55685 -1.08913 0
M  V30 1476 H 152.464 -1.53204 -3.57017 0
M  V30 1477 H 154.136 -3.89747 -2.46769 0
M  V30 1478 H 152.379 -3.70179 -2.26164 0
M  V30 1479 H 153.05 -3.92642 -3.8799 0
M  V30 1480 H 155.526 -2.01442 -3.64088 0
M  V30 1481 H 154.402 -2.26002 -5.00214 0
M  V30 1482 H 154.663 -0.640365 -4.37438 0
M  V30 1483 N 153.722 1.14298 -1.08507 0
M  V30 1484 C 154.685 2.17607 -0.719711 0
M  V30 1485 C 155.685 1.58907 0.245997 0
M  V30 1486 O 156.875 1.74181 0.0254081 0
M  V30 1487 C 154.007 3.40842 -0.0627695 0
M  V30 1488 H 155.2 2.51443 -1.63452 0
M  V30 1489 H 152.753 1.28963 -0.88307 0
M  V30 1490 H 153.488 3.12587 0.863716 0
M  V30 1491 H 153.273 3.84713 -0.757504 0
M  V30 1492 H 154.763 4.17221 0.177786 0
M  V30 1493 N 155.201 0.870884 1.31352 0
M  V30 1494 C 156.148 0.325425 2.28494 0
M  V30 1495 C 157.118 -0.576615 1.5577 0
M  V30 1496 O 158.303 -0.508059 1.83911 0
M  V30 1497 C 155.443 -0.466283 3.41935 0
M  V30 1498 C 154.556 0.463378 4.29508 0
M  V30 1499 C 153.691 -0.342544 5.30094 0
M  V30 1500 C 152.73 0.583486 6.09313 0
M  V30 1501 N 151.867 -0.186244 7.01853 0
M  V30 1502 H 156.707 1.15901 2.74538 0
M  V30 1503 H 154.244 0.58294 1.35056 0
M  V30 1504 H 156.202 -0.941085 4.06447 0
M  V30 1505 H 154.832 -1.26456 2.97 0
M  V30 1506 H 153.884 1.05663 3.65431 0
M  V30 1507 H 155.196 1.1734 4.84802 0
M  V30 1508 H 154.35 -0.879816 6.00287 0
M  V30 1509 H 153.089 -1.08585 4.75458 0
M  V30 1510 H 152.094 1.13251 5.3801 0
M  V30 1511 H 153.319 1.32566 6.66035 0
M  V30 1512 H 151.265 -0.912348 6.49625 0
M  V30 1513 H 151.182 0.464422 7.54572 0
M  V30 1514 H 152.45 -0.704716 7.76308 0
M  V30 1515 N 156.679 -1.44442 0.630414 0
M  V30 1516 C 157.925 -2.02894 0.143332 0
M  V30 1517 C 158.28 -1.48697 -1.22094 0
M  V30 1518 O 157.573 -0.661171 -1.79831 0
M  V30 1519 C 157.767 -3.57332 0.0697835 0
M  V30 1520 C 157.596 -4.26512 1.42539 0
M  V30 1521 C 156.366 -4.63516 2.01198 0
M  V30 1522 C 158.564 -4.57004 2.35907 0
M  V30 1523 N 156.546 -5.17661 3.30001 0
M  V30 1524 C 157.917 -5.12223 3.49324 0
M  V30 1525 C 159.972 -4.38955 2.34995 0
M  V30 1526 C 158.675 -5.51295 4.62024 0
M  V30 1527 C 160.701 -4.79075 3.46758 0
M  V30 1528 C 160.063 -5.34407 4.58899 0
M  V30 1529 H 156.162 -0.776041 0.0963523 0
M  V30 1530 H 158.746 -1.75945 0.833752 0
M  V30 1531 H 156.917 -3.83894 -0.589915 0
M  V30 1532 H 158.649 -4.02451 -0.42606 0
M  V30 1533 H 155.404 -4.47811 1.54151 0
M  V30 1534 H 155.828 -5.4921 3.95851 0
M  V30 1535 H 160.47 -3.95469 1.49545 0
M  V30 1536 H 158.188 -5.93736 5.48182 0
M  V30 1537 H 161.774 -4.66824 3.47227 0
M  V30 1538 H 160.654 -5.64878 5.4395 0
M  V30 1539 N 158.157 -0.370918 -1.53173 0
M  V30 1540 C 159.434 0.273754 -1.93675 0
M  V30 1541 C 159.814 1.65938 -1.3049 0
M  V30 1542 O 159.162 2.23698 -0.465999 0
M  V30 1543 C 159.372 0.318602 -3.47543 0
M  V30 1544 C 160.72 0.556392 -4.20939 0
M  V30 1545 O 161.744 0.399587 -3.53952 0
M  V30 1546 O 160.603 0.862133 -5.39657 0
M  V30 1547 H 157.697 0.165448 -0.810281 0
M  V30 1548 H 160.243 -0.42409 -1.64315 0
M  V30 1549 H 159.015 -0.652687 -3.85818 0
M  V30 1550 H 158.638 1.06212 -3.83151 0
M  V30 1551 N 159.635 1.57281 -0.100228 0
M  V30 1552 C 160.883 1.94153 0.561157 0
M  V30 1553 C 161.204 0.983157 1.68401 0
M  V30 1554 O 160.474 0.0361132 1.95867 0
M  V30 1555 H 159.054 0.716791 0.210283 0
M  V30 1556 H 161.716 1.94202 -0.164765 0
M  V30 1557 H 160.812 2.96709 0.968008 0
M  V30 1558 N 161.113 -0.173488 1.56642 0
M  V30 1559 C 162.046 -1.24353 1.91342 0
M  V30 1560 C 163.024 -1.4289 0.775965 0
M  V30 1561 O 164.208 -1.57932 1.02907 0
M  V30 1562 C 161.335 -2.60683 2.16245 0
M  V30 1563 C 160.381 -2.58894 3.38934 0
M  V30 1564 S 161.214 -2.0819 4.93373 0
M  V30 1565 C 162.37 -3.46302 5.21369 0
M  V30 1566 H 162.603 -0.947345 2.81803 0
M  V30 1567 H 160.136 -0.377958 1.49703 0
M  V30 1568 H 162.094 -3.39149 2.31275 0
M  V30 1569 H 160.755 -2.87502 1.26496 0
M  V30 1570 H 159.948 -3.59188 3.53553 0
M  V30 1571 H 159.55 -1.88522 3.2301 0
M  V30 1572 H 161.842 -4.42287 5.13214 0
M  V30 1573 H 162.785 -3.3656 6.23003 0
M  V30 1574 H 163.193 -3.42214 4.48943 0
M  V30 1575 N 162.591 -1.51276 -0.441967 0
M  V30 1576 C 163.554 -1.7167 -1.51862 0
M  V30 1577 C 164.554 -0.586793 -1.49711 0
M  V30 1578 O 165.744 -0.854276 -1.51815 0
M  V30 1579 C 162.876 -1.76889 -2.91416 0
M  V30 1580 H 164.069 -2.67754 -1.35084 0
M  V30 1581 H 161.622 -1.41196 -0.670333 0
M  V30 1582 H 162.357 -0.826026 -3.13604 0
M  V30 1583 H 162.142 -2.59001 -2.94382 0
M  V30 1584 H 163.632 -1.94522 -3.69528 0
M  V30 1585 N 164.069 0.697108 -1.41344 0
M  V30 1586 C 165.317 1.45426 -1.40341 0
M  V30 1587 C 165.638 1.94996 -0.0128787 0
M  V30 1588 O 164.908 1.71599 0.945027 0
M  V30 1589 H 163.488 0.539594 -0.516573 0
M  V30 1590 H 166.15 0.825201 -1.76569 0
M  V30 1591 H 165.246 2.31817 -2.08967 0
M  V30 1592 N 165.547 1.27147 0.931209 0
M  V30 1593 C 166.795 1.13055 1.6752 0
M  V30 1594 C 167.116 -0.324791 1.92276 0
M  V30 1595 O 166.386 -1.22775 1.52654 0
M  V30 1596 H 164.966 0.415391 0.620854 0
M  V30 1597 H 167.628 1.59623 1.11833 0
M  V30 1598 H 166.724 1.65694 2.64485 0
M  V30 1599 N 167.025 -1.13721 1.09112 0
M  V30 1600 C 167.972 -2.19031 0.727591 0
M  V30 1601 C 168.942 -1.63555 -0.289656 0
M  V30 1602 O 170.127 -1.90023 -0.172026 0
M  V30 1603 C 167.267 -3.4477 0.15082 0
M  V30 1604 C 166.38 -4.14365 1.22172 0
M  V30 1605 C 165.515 -5.27709 0.608042 0
M  V30 1606 C 164.554 -5.89147 1.66047 0
M  V30 1607 N 163.691 -6.93929 1.06806 0
M  V30 1608 H 168.531 -2.49475 1.62991 0
M  V30 1609 H 166.068 -1.22499 0.81439 0
M  V30 1610 H 168.026 -4.16714 -0.201358 0
M  V30 1611 H 166.656 -3.14787 -0.714783 0
M  V30 1612 H 165.708 -3.40737 1.69122 0
M  V30 1613 H 167.02 -4.56114 2.01895 0
M  V30 1614 H 166.174 -6.06355 0.204523 0
M  V30 1615 H 164.913 -4.872 -0.220769 0
M  V30 1616 H 163.918 -5.09198 2.07357 0
M  V30 1617 H 165.143 -6.31729 2.49189 0
M  V30 1618 H 163.089 -6.55483 0.260476 0
M  V30 1619 H 163.006 -7.34202 1.8023 0
M  V30 1620 H 164.274 -7.76434 0.690644 0
M  V30 1621 N 168.503 -0.877838 -1.30888 0
M  V30 1622 C 169.728 -0.506629 -2.01117 0
M  V30 1623 C 170.153 0.895564 -1.65412 0
M  V30 1624 O 169.511 1.5923 -0.866922 0
M  V30 1625 C 169.559 -0.680223 -3.54126 0
M  V30 1626 O 168.663 0.277033 -4.11468 0
M  V30 1627 H 168.004 -0.200518 -0.633 0
M  V30 1628 H 170.534 -1.18342 -1.66902 0
M  V30 1629 H 170.544 -0.5765 -4.03907 0
M  V30 1630 H 169.219 -1.70261 -3.79452 0
M  V30 1631 H 167.796 0.127606 -3.72682 0
M  V30 1632 N 169.982 1.44106 -0.638065 0
M  V30 1633 C 170.945 2.29138 0.0531013 0
M  V30 1634 C 171.945 1.41409 0.765506 0
M  V30 1635 O 173.135 1.63206 0.609046 0
M  V30 1636 C 170.267 3.23144 1.08584 0
M  V30 1637 H 171.46 2.91739 -0.694883 0
M  V30 1638 H 169.013 1.51134 -0.398538 0
M  V30 1639 H 169.748 2.65408 1.86357 0
M  V30 1640 H 169.533 3.87804 0.578852 0
M  V30 1641 H 171.023 3.87004 1.56899 0
M  V30 1642 N 171.46 0.379036 1.52974 0
M  V30 1643 C 172.709 -0.207612 2.00629 0
M  V30 1644 C 173.022 -1.48758 1.27006 0
M  V30 1645 O 174.228 -2.15365 1.65318 0
M  V30 1646 C 172.684 -0.42053 3.57435 0
M  V30 1647 C 172.292 0.845587 4.39948 0
M  V30 1648 C 174.036 -0.964102 4.13407 0
M  V30 1649 C 171.943 0.601513 5.88333 0
M  V30 1650 H 170.873 -0.0813591 0.749598 0
M  V30 1651 H 173.524 0.499853 1.76561 0
M  V30 1652 H 171.906 -1.18959 3.7771 0
M  V30 1653 H 173.08 1.61848 4.31442 0
M  V30 1654 H 171.395 1.31336 3.95145 0
M  V30 1655 H 173.992 -1.16225 5.21916 0
M  V30 1656 H 174.335 -1.93019 3.68849 0
M  V30 1657 H 174.868 -0.25487 3.96983 0
M  V30 1658 H 171.607 1.53831 6.37194 0
M  V30 1659 H 171.127 -0.132628 5.99653 0
M  V30 1660 H 172.806 0.232134 6.46583 0
M  V30 1661 N 172.938 -1.57226 0.108567 0
M  V30 1662 C 174.215 -1.86333 -0.594939 0
M  V30 1663 C 174.595 -1.00788 -1.85486 0
M  V30 1664 O 173.943 -0.0839293 -2.28346 0
M  V30 1665 C 174.153 -3.37265 -0.897405 0
M  V30 1666 C 175.501 -4.05629 -1.25501 0
M  V30 1667 O 176.525 -3.42224 -0.987998 0
M  V30 1668 O 175.384 -5.17531 -1.75567 0
M  V30 1669 H 172.478 -0.771018 -0.2991 0
M  V30 1670 H 175.024 -1.69102 0.142283 0
M  V30 1671 H 173.796 -3.913 -0.00413806 0
M  V30 1672 H 173.419 -3.59889 -1.69014 0
M  V30 1673 N 174.416 0.165178 -1.56732 0
M  V30 1674 C 175.646 0.894919 -1.86212 0
M  V30 1675 C 176.054 1.76066 -0.692627 0
M  V30 1676 O 175.397 1.80387 0.347303 0
M  V30 1677 C 175.459 1.8174 -3.10179 0
M  V30 1678 C 175.123 1.13064 -4.42793 0
M  V30 1679 C 176.12 0.493169 -5.17556 0
M  V30 1680 C 173.805 1.12556 -4.89527 0
M  V30 1681 C 175.799 -0.140209 -6.37246 0
M  V30 1682 C 173.486 0.488366 -6.09145 0
M  V30 1683 C 174.484 -0.143411 -6.82849 0
M  V30 1684 O 174.172 -0.77055 -8.00199 0
M  V30 1685 H 173.904 0.265114 -0.621844 0
M  V30 1686 H 176.458 0.168242 -2.0471 0
M  V30 1687 H 174.688 2.58455 -2.87642 0
M  V30 1688 H 176.377 2.4175 -3.26055 0
M  V30 1689 H 177.143 0.489023 -4.82528 0
M  V30 1690 H 173.022 1.60672 -4.32094 0
M  V30 1691 H 176.566 -0.633932 -6.94714 0
M  V30 1692 H 172.463 0.490116 -6.43637 0
M  V30 1693 H 173.231 -0.670408 -8.1575 0
M  V30 1694 N 175.894 1.51508 0.433938 0
M  V30 1695 C 177.142 1.6402 1.18075 0
M  V30 1696 C 177.463 0.360328 1.91642 0
M  V30 1697 O 176.733 -0.623945 1.85698 0
M  V30 1698 H 175.313 0.6045 0.43885 0
M  V30 1699 H 177.975 1.88452 0.497178 0
M  V30 1700 H 177.071 2.46949 1.90847 0
M  V30 1701 N 177.372 -0.689602 1.41712 0
M  V30 1702 C 178.602 -1.47613 1.44548 0
M  V30 1703 C 179.01 -1.89132 0.0509034 0
M  V30 1704 O 178.353 -1.57741 -0.94146 0
M  V30 1705 C 178.415 -2.76596 2.2964 0
M  V30 1706 C 178.079 -2.57245 3.77722 0
M  V30 1707 C 179.076 -2.22804 4.69739 0
M  V30 1708 C 176.761 -2.727 4.2183 0
M  V30 1709 C 178.755 -2.04064 6.03851 0
M  V30 1710 C 176.442 -2.53576 5.56006 0
M  V30 1711 C 177.44 -2.1931 6.46832 0
M  V30 1712 O 177.128 -2.00359 7.78532 0
M  V30 1713 H 176.86 -0.461227 0.494212 0
M  V30 1714 H 179.414 -0.856045 1.86711 0
M  V30 1715 H 177.644 -3.41033 1.82301 0
M  V30 1716 H 179.333 -3.38424 2.24107 0
M  V30 1717 H 180.099 -2.10473 4.36951 0
M  V30 1718 H 175.978 -2.98353 3.51435 0
M  V30 1719 H 179.522 -1.77241 6.74708 0
M  V30 1720 H 175.419 -2.65499 5.88371 0
M  V30 1721 H 176.187 -2.15075 7.89737 0
M  V30 1722 N 178.85 -1.27639 -0.924453 0
M  V30 1723 C 179.8 -1.07295 -2.01176 0
M  V30 1724 C 180.784 5.77352e-05 -1.609 0
M  V30 1725 O 181.976 -0.218855 -1.75642 0
M  V30 1726 C 179.105 -0.725592 -3.35544 0
M  V30 1727 C 178.191 -1.83691 -3.82254 0
M  V30 1728 N 178.582 -3.07697 -4.01443 0
M  V30 1729 C 176.88 -1.72433 -4.11319 0
M  V30 1730 C 177.581 -3.80037 -4.40394 0
M  V30 1731 N 176.557 -3.0782 -4.48049 0
M  V30 1732 H 180.359 -2.01399 -2.14046 0
M  V30 1733 H 177.873 -1.18401 -1.11153 0
M  V30 1734 H 179.87 -0.560959 -4.13109 0
M  V30 1735 H 178.53 0.207782 -3.24034 0
M  V30 1736 H 179.541 -3.43424 -3.8766 0
M  V30 1737 H 176.218 -0.862005 -4.08504 0
M  V30 1738 H 177.608 -4.86632 -4.63291 0
M  V30 1739 N 180.328 1.1314 -1.09713 0
M  V30 1740 C 181.577 1.83838 -0.829851 0
M  V30 1741 C 181.89 1.84599 0.646728 0
M  V30 1742 O 183.096 2.51218 1.02965 0
M  V30 1743 C 181.552 3.30069 -1.43466 0
M  V30 1744 C 181.16 3.37688 -2.94399 0
M  V30 1745 C 182.904 4.05788 -1.24645 0
M  V30 1746 C 180.811 4.78209 -3.47952 0
M  V30 1747 H 179.741 0.68877 -0.306777 0
M  V30 1748 H 182.392 1.27448 -1.3202 0
M  V30 1749 H 180.774 3.8628 -0.871996 0
M  V30 1750 H 181.948 2.91456 -3.56918 0
M  V30 1751 H 180.263 2.75436 -3.12289 0
M  V30 1752 H 182.86 5.09535 -1.62107 0
M  V30 1753 H 183.203 4.15878 -0.187357 0
M  V30 1754 H 183.736 3.55915 -1.77678 0
M  V30 1755 H 180.475 4.73311 -4.53495 0
M  V30 1756 H 179.995 5.24924 -2.90198 0
M  V30 1757 H 181.674 5.47133 -3.45332 0
M  V30 1758 N 181.806 0.884767 1.30421 0
M  V30 1759 C 183.055 0.499164 1.95426 0
M  V30 1760 C 183.368 -0.95645 1.70621 0
M  V30 1761 O 184.574 -1.44889 2.29607 0
M  V30 1762 C 183.03 0.84177 3.49917 0
M  V30 1763 C 182.638 2.31514 3.83543 0
M  V30 1764 C 184.382 0.525355 4.21237 0
M  V30 1765 C 182.289 2.59939 5.31212 0
M  V30 1766 H 181.219 0.182944 0.73147 0
M  V30 1767 H 183.87 1.07971 1.48373 0
M  V30 1768 H 182.252 0.190311 3.95542 0
M  V30 1769 H 183.426 3.0109 3.48829 0
M  V30 1770 H 181.741 2.59907 3.25326 0
M  V30 1771 H 184.338 0.714762 5.29901 0
M  V30 1772 H 184.681 -0.535222 4.12845 0
M  V30 1773 H 185.214 1.134 3.81294 0
M  V30 1774 H 181.953 3.64736 5.44654 0
M  V30 1775 H 181.473 1.94972 5.67227 0
M  V30 1776 H 183.152 2.45429 5.98643 0
M  V30 1777 N 183.284 -1.43765 0.645699 0
M  V30 1778 C 184.53 -2.02197 0.156271 0
M  V30 1779 C 184.863 -1.50776 -1.22393 0
M  V30 1780 O 184.138 -0.697771 -1.81553 0
M  V30 1781 C 184.421 -3.59749 0.158872 0
M  V30 1782 C 184.274 -4.21419 1.57245 0
M  V30 1783 C 185.593 -4.37149 -0.50879 0
M  V30 1784 H 182.712 -0.734694 0.0582602 0
M  V30 1785 H 185.354 -1.71157 0.824951 0
M  V30 1786 H 183.504 -3.86325 -0.410525 0
M  V30 1787 H 185.176 -4.059 2.19186 0
M  V30 1788 H 183.419 -3.78356 2.122 0
M  V30 1789 H 184.09 -5.30482 1.52619 0
M  V30 1790 H 186.566 -4.16093 -0.024412 0
M  V30 1791 H 185.442 -5.4683 -0.476213 0
M  V30 1792 H 185.703 -4.12839 -1.58165 0
M  V30 1793 N 184.763 -0.387143 -1.52771 0
M  V30 1794 C 185.693 0.440551 -2.29306 0
M  V30 1795 C 186.674 1.06535 -1.32606 0
M  V30 1796 O 187.859 1.07853 -1.61497 0
M  V30 1797 C 184.989 1.56919 -3.09829 0
M  V30 1798 C 183.943 1.07054 -4.14395 0
M  V30 1799 C 183.269 2.29109 -4.83129 0
M  V30 1800 C 184.569 0.140015 -5.22112 0
M  V30 1801 H 186.263 -0.198026 -2.98744 0
M  V30 1802 H 183.809 -0.09668 -1.43675 0
M  V30 1803 H 185.762 2.15503 -3.62128 0
M  V30 1804 H 184.486 2.23532 -2.3812 0
M  V30 1805 H 183.145 0.507247 -3.63074 0
M  V30 1806 H 182.793 2.94227 -4.0797 0
M  V30 1807 H 182.493 1.96406 -5.53804 0
M  V30 1808 H 184.017 2.88339 -5.38231 0
M  V30 1809 H 185.431 0.633978 -5.69784 0
M  V30 1810 H 183.828 -0.0971485 -6.00021 0
M  V30 1811 H 184.898 -0.811711 -4.78058 0
M  V30 1812 N 186.241 1.57166 -0.116904 0
M  V30 1813 C 187.518 1.86645 0.585049 0
M  V30 1814 C 187.898 1.0177 1.84949 0
M  V30 1815 O 187.246 0.0960379 2.28298 0
M  V30 1816 C 187.456 3.37736 0.879507 0
M  V30 1817 C 188.804 4.06289 1.23348 0
M  V30 1818 O 189.828 3.42743 0.969836 0
M  V30 1819 O 188.687 5.18455 1.7282 0
M  V30 1820 H 185.781 0.772593 0.295007 0
M  V30 1821 H 188.327 1.69025 -0.151249 0
M  V30 1822 H 187.099 3.91296 -0.0166136 0
M  V30 1823 H 186.722 3.6078 1.67103 0
M  V30 1824 N 187.719 -0.156864 1.56817 0
M  V30 1825 C 189.13 -0.717916 1.72345 0
M  V30 1826 C 189.481 -1.82124 0.729747 0
M  V30 1827 O 188.606 -2.16141 -0.105781 0
M  V30 1828 C 189.201 -1.30904 3.12489 0
M  V30 1829 C 187.76 -1.81676 3.29653 0
M  V30 1830 C 186.907 -0.701349 2.68284 0
M  V30 1831 H 189.858 0.0686989 1.58551 0
M  V30 1832 H 189.879 -2.17882 3.11942 0
M  V30 1833 H 189.391 -0.505796 3.8479 0
M  V30 1834 H 187.492 -2.64598 2.62333 0
M  V30 1835 H 187.605 -1.95226 4.3752 0
M  V30 1836 H 185.969 -1.12548 2.28484 0
M  V30 1837 H 186.752 0.0902846 3.43181 0
M  V30 1838 N 189.197 -1.51736 -0.425897 0
M  V30 1839 C 190.425 -1.68794 -1.1965 0
M  V30 1840 C 190.84 -0.390164 -1.84725 0
M  V30 1841 O 190.197 0.632376 -1.71194 0
M  V30 1842 C 190.248 -2.81174 -2.27208 0
M  V30 1843 O 189.969 -4.05925 -1.64793 0
M  V30 1844 C 191.47 -3.09599 -3.17275 0
M  V30 1845 H 188.69 -0.566128 -0.360194 0
M  V30 1846 H 191.234 -1.98211 -0.503249 0
M  V30 1847 H 189.389 -2.54324 -2.9223 0
M  V30 1848 H 189.803 -4.68423 -2.35967 0
M  V30 1849 H 191.277 -3.91786 -3.88854 0
M  V30 1850 H 191.754 -2.22468 -3.78688 0
M  V30 1851 H 192.36 -3.38151 -2.57941 0
M  V30 1852 N 190.675 0.682077 -1.42076 0
M  V30 1853 C 191.952 1.43755 -1.32642 0
M  V30 1854 C 192.332 2.11063 0.0396611 0
M  V30 1855 O 191.68 2.02701 1.05474 0
M  V30 1856 C 191.89 2.44596 -2.48946 0
M  V30 1857 C 193.238 3.09454 -2.9073 0
M  V30 1858 O 194.262 2.54922 -2.48783 0
M  V30 1859 O 193.121 4.08253 -3.63307 0
M  V30 1860 H 190.215 0.640857 -0.522715 0
M  V30 1861 H 192.761 0.711415 -1.54068 0
M  V30 1862 H 191.533 1.93609 -3.40046 0
M  V30 1863 H 191.156 3.24701 -2.29467 0
M  V30 1864 N 192.153 1.28127 0.917671 0
M  V30 1865 C 193.378 1.18007 1.70555 0
M  V30 1866 C 193.803 -0.258257 1.86319 0
M  V30 1867 O 193.161 -1.1869 1.37049 0
M  V30 1868 C 193.209 1.87948 3.07746 0
M  V30 1869 O 192.313 1.18427 3.9503 0
M  V30 1870 H 191.654 0.409867 0.522403 0
M  V30 1871 H 194.184 1.69379 1.1477 0
M  V30 1872 H 194.194 1.95701 3.58001 0
M  V30 1873 H 192.869 2.92573 2.95591 0
M  V30 1874 H 191.446 1.18811 3.53466 0
M  V30 1875 N 193.631 -1.12557 1.10312 0
M  V30 1876 C 194.877 -1.84311 0.846011 0
M  V30 1877 C 195.21 -1.83805 -0.626859 0
M  V30 1878 O 194.485 -1.28268 -1.46211 0
M  V30 1879 C 194.768 -3.32048 1.39341 0
M  V30 1880 C 194.621 -3.41016 2.93305 0
M  V30 1881 C 195.94 -4.27764 1.03468 0
M  V30 1882 H 193.059 -0.669192 0.30879 0
M  V30 1883 H 195.701 -1.32057 1.36605 0
M  V30 1884 H 193.851 -3.76678 0.951087 0
M  V30 1885 H 195.523 -3.05031 3.46055 0
M  V30 1886 H 193.766 -2.81603 3.29973 0
M  V30 1887 H 194.437 -4.44948 3.26689 0
M  V30 1888 H 196.913 -3.91253 1.41633 0
M  V30 1889 H 195.789 -5.29549 1.44463 0
M  V30 1890 H 196.05 -4.42064 -0.0560404 0
M  V30 1891 N 195.109 -0.891671 -1.2995 0
M  V30 1892 C 196.358 -0.509521 -1.95158 0
M  V30 1893 C 196.671 0.947388 -1.71125 0
M  V30 1894 O 197.877 1.43669 -2.30372 0
M  V30 1895 C 196.333 -0.860315 -3.49466 0
M  V30 1896 C 195.941 -2.33545 -3.8231 0
M  V30 1897 C 197.685 -0.547687 -4.20952 0
M  V30 1898 C 195.592 -2.62752 -5.29826 0
M  V30 1899 H 194.522 -0.18682 -0.730489 0
M  V30 1900 H 197.173 -1.08756 -1.47798 0
M  V30 1901 H 195.555 -0.211285 -3.95436 0
M  V30 1902 H 196.729 -3.02936 -3.47227 0
M  V30 1903 H 195.044 -2.61629 -3.23944 0
M  V30 1904 H 197.641 -0.742854 -5.29515 0
M  V30 1905 H 197.984 0.51332 -4.13123 0
M  V30 1906 H 198.517 -1.1542 -3.80688 0
M  V30 1907 H 195.256 -3.6762 -5.42712 0
M  V30 1908 H 194.776 -1.97977 -5.66185 0
M  V30 1909 H 196.455 -2.48601 -5.97333 0
M  V30 1910 N 196.587 1.43421 -0.653314 0
M  V30 1911 C 197.497 2.34568 0.0388565 0
M  V30 1912 C 198.513 1.53888 0.81207 0
M  V30 1913 O 199.689 1.86539 0.759294 0
M  V30 1914 C 196.754 3.32167 0.993269 0
M  V30 1915 C 195.815 4.28751 0.216977 0
M  V30 1916 C 195.048 5.21688 1.12593 0
M  V30 1917 O 195.271 5.19052 2.36519 0
M  V30 1918 O 194.205 5.98919 0.598284 0
M  V30 1919 H 198.031 2.95251 -0.711386 0
M  V30 1920 H 195.616 1.43564 -0.413502 0
M  V30 1921 H 197.498 3.92183 1.54176 0
M  V30 1922 H 196.173 2.73987 1.72374 0
M  V30 1923 H 195.08 3.72215 -0.375101 0
M  V30 1924 H 196.413 4.89913 -0.473924 0
M  V30 1925 N 198.065 0.39524 1.52563 0
M  V30 1926 C 198.975 -0.444232 2.30356 0
M  V30 1927 C 199.991 -1.06615 1.37511 0
M  V30 1928 O 201.167 -1.07067 1.70583 0
M  V30 1929 C 198.232 -1.55315 3.09964 0
M  V30 1930 C 197.293 -0.955734 4.18526 0
M  V30 1931 C 196.526 -2.01181 4.9433 0
M  V30 1932 O 196.749 -3.22781 4.70285 0
M  V30 1933 O 195.683 -1.62579 5.79527 0
M  V30 1934 H 199.509 0.189667 3.03107 0
M  V30 1935 H 197.094 0.1588 1.48554 0
M  V30 1936 H 198.976 -2.19724 3.59582 0
M  V30 1937 H 197.651 -2.17191 2.4002 0
M  V30 1938 H 196.558 -0.274743 3.7309 0
M  V30 1939 H 197.891 -0.381109 4.90722 0
M  V30 1940 N 199.544 -1.57102 0.125237 0
M  V30 1941 C 200.474 -2.18659 -0.819174 0
M  V30 1942 C 201.455 -1.12843 -1.27281 0
M  V30 1943 O 202.64 -1.41104 -1.33429 0
M  V30 1944 C 199.77 -2.79096 -2.06695 0
M  V30 1945 C 198.724 -3.90548 -1.75088 0
M  V30 1946 C 198.05 -4.37821 -3.06948 0
M  V30 1947 C 199.35 -5.12356 -1.01435 0
M  V30 1948 H 201.044 -2.9783 -0.306202 0
M  V30 1949 H 198.59 -1.4326 -0.145839 0
M  V30 1950 H 200.543 -3.2082 -2.73226 0
M  V30 1951 H 199.267 -1.97223 -2.60328 0
M  V30 1952 H 197.926 -3.49409 -1.10944 0
M  V30 1953 H 197.574 -3.52799 -3.58527 0
M  V30 1954 H 197.274 -5.12982 -2.86571 0
M  V30 1955 H 198.798 -4.822 -3.74587 0
M  V30 1956 H 200.212 -5.5106 -1.58132 0
M  V30 1957 H 198.609 -5.9314 -0.911319 0
M  V30 1958 H 199.679 -4.849 -0.00218681 0
M  V30 1959 N 201.022 0.148545 -1.56898 0
M  V30 1960 C 201.932 1.20293 -2.01412 0
M  V30 1961 C 202.948 1.47107 -0.929273 0
M  V30 1962 O 204.124 1.58807 -1.23863 0
M  V30 1963 C 201.189 2.51682 -2.38447 0
M  V30 1964 C 200.25 2.32529 -3.60872 0
M  V30 1965 C 199.483 3.57653 -3.96132 0
M  V30 1966 O 199.706 4.63771 -3.32073 0
M  V30 1967 O 198.64 3.50408 -4.89385 0
M  V30 1968 H 202.466 0.855025 -2.91416 0
M  V30 1969 H 200.051 0.357151 -1.45068 0
M  V30 1970 H 201.933 3.29147 -2.63135 0
M  V30 1971 H 200.608 2.86006 -1.51599 0
M  V30 1972 H 199.515 1.53019 -3.41373 0
M  V30 1973 H 200.848 2.03121 -4.48333 0
M  V30 1974 N 202.5 1.5196 0.417844 0
M  V30 1975 C 203.746 1.65836 1.16732 0
M  V30 1976 C 204.079 0.382881 1.90388 0
M  V30 1977 O 203.354 -0.618368 1.84408 0
M  V30 1978 C 203.637 2.87466 2.16876 0
M  V30 1979 C 203.49 4.25041 1.47174 0
M  V30 1980 C 204.809 3.04613 3.17646 0
M  V30 1981 H 201.928 0.603515 0.423011 0
M  V30 1982 H 204.57 1.84494 0.454105 0
M  V30 1983 H 202.72 2.71689 2.777 0
M  V30 1984 H 204.392 4.52527 0.895376 0
M  V30 1985 H 202.635 4.26843 0.773806 0
M  V30 1986 H 203.306 5.06176 2.20204 0
M  V30 1987 H 205.782 3.1923 2.66892 0
M  V30 1988 H 204.658 3.91247 3.8499 0
M  V30 1989 H 204.919 2.17541 3.84874 0
M  V30 1990 N 203.978 -0.674533 1.42435 0
M  V30 1991 C 204.908 -1.80009 1.48724 0
M  V30 1992 C 205.889 -1.6659 0.343793 0
M  V30 1993 O 207.074 -1.86007 0.558137 0
M  V30 1994 C 204.204 -3.18306 1.38919 0
M  V30 1995 C 203.158 -3.46461 2.51294 0
M  V30 1996 C 202.484 -4.84335 2.26547 0
M  V30 1997 C 203.784 -3.43328 3.93603 0
M  V30 1998 H 205.478 -1.75004 2.42928 0
M  V30 1999 H 203.024 -0.840533 1.16923 0
M  V30 2000 H 204.977 -3.9678 1.41927 0
M  V30 2001 H 203.701 -3.2399 0.412094 0
M  V30 2002 H 202.36 -2.70348 2.47604 0
M  V30 2003 H 202.008 -4.86669 1.2713 0
M  V30 2004 H 201.708 -5.04136 3.01861 0
M  V30 2005 H 203.232 -5.65094 2.31304 0
M  V30 2006 H 204.646 -4.11772 3.98894 0
M  V30 2007 H 203.043 -3.74664 4.68771 0
M  V30 2008 H 204.113 -2.41897 4.20255 0
M  V30 2009 N 205.456 -1.28612 -0.910864 0
M  V30 2010 C 206.867 -1.14406 -1.47541 0
M  V30 2011 C 207.218 0.264901 -1.94403 0
M  V30 2012 O 206.343 1.15942 -1.82719 0
M  V30 2013 C 206.938 -2.07073 -2.68153 0
M  V30 2014 C 205.497 -1.96923 -3.20778 0
M  V30 2015 C 204.644 -1.98646 -1.93481 0
M  V30 2016 H 207.595 -1.41259 -0.723291 0
M  V30 2017 H 207.616 -1.63642 -3.43514 0
M  V30 2018 H 207.128 -3.09611 -2.34015 0
M  V30 2019 H 205.229 -0.97433 -3.59635 0
M  V30 2020 H 205.342 -2.84026 -3.85832 0
M  V30 2021 H 203.706 -1.43093 -2.10705 0
M  V30 2022 H 204.489 -3.02868 -1.61634 0
M  V30 2023 N 206.934 1.1197 -1.10907 0
M  V30 2024 C 208.211 1.79959 -0.766432 0
M  V30 2025 C 208.591 1.97466 0.746363 0
M  V30 2026 O 207.939 1.55491 1.67436 0
M  V30 2027 C 208.149 3.14009 -1.52314 0
M  V30 2028 C 209.497 3.89134 -1.69883 0
M  V30 2029 O 210.521 3.2368 -1.48692 0
M  V30 2030 O 209.38 5.06572 -2.05054 0
M  V30 2031 H 206.474 0.779208 -0.277062 0
M  V30 2032 H 209.02 1.18762 -1.21217 0
M  V30 2033 H 207.792 2.96587 -2.55249 0
M  V30 2034 H 207.415 3.82915 -1.07059 0
M  V30 2035 N 208.412 0.89855 1.29475 0
M  V30 2036 C 209.342 0.39201 2.30186 0
M  V30 2037 C 210.323 -0.532359 1.61555 0
M  V30 2038 O 211.508 -0.443331 1.89072 0
M  V30 2039 C 208.638 -0.382353 3.45189 0
M  V30 2040 C 207.592 0.451483 4.25612 0
M  V30 2041 C 206.918 -0.450307 5.328 0
M  V30 2042 C 208.218 1.70079 4.93832 0
M  V30 2043 H 209.912 1.23362 2.72804 0
M  V30 2044 H 207.458 0.594638 1.31149 0
M  V30 2045 H 209.411 -0.747451 4.14718 0
M  V30 2046 H 208.135 -1.25774 3.01411 0
M  V30 2047 H 206.794 0.798897 3.57789 0
M  V30 2048 H 206.442 -1.32379 4.85268 0
M  V30 2049 H 206.142 0.103902 5.87508 0
M  V30 2050 H 207.666 -0.811623 6.05182 0
M  V30 2051 H 209.08 1.40549 5.55805 0
M  V30 2052 H 207.477 2.19623 5.58467 0
M  V30 2053 H 208.547 2.43744 4.19186 0
M  V30 2054 N 209.89 -1.43072 0.660911 0
M  V30 2055 C 211.138 -2.01323 0.177094 0
M  V30 2056 C 211.459 -1.5245 -1.2159 0
M  V30 2057 O 210.729 -0.740322 -1.81373 0
M  V30 2058 H 209.309 -0.744382 0.0624804 0
M  V30 2059 H 211.971 -1.75179 0.854305 0
M  V30 2060 H 211.067 -3.11649 0.167641 0
M  V30 2061 N 211.368 -0.403325 -1.52352 0
M  V30 2062 C 212.617 0.175668 -2.00934 0
M  V30 2063 C 212.93 1.46718 -1.29356 0
M  V30 2064 O 214.136 2.12708 -1.68724 0
M  V30 2065 C 212.592 0.363612 -3.58058 0
M  V30 2066 C 212.2 -0.915472 -4.38547 0
M  V30 2067 C 213.944 0.89821 -4.14888 0
M  V30 2068 C 211.851 -0.695035 -5.87302 0
M  V30 2069 H 210.781 0.0694234 -0.750797 0
M  V30 2070 H 213.432 -0.527879 -1.75743 0
M  V30 2071 H 211.814 1.12935 -3.79555 0
M  V30 2072 H 212.988 -1.68691 -4.28812 0
M  V30 2073 H 211.303 -1.37606 -3.93006 0
M  V30 2074 H 213.9 1.07907 -5.23699 0
M  V30 2075 H 214.243 1.87126 -3.71873 0
M  V30 2076 H 214.776 0.191681 -3.97338 0
M  V30 2077 H 211.515 -1.63948 -6.34666 0
M  V30 2078 H 211.035 0.0372116 -5.99788 0
M  V30 2079 H 212.714 -0.33497 -6.46132 0
M  V30 2080 N 212.846 1.57033 -0.133567 0
M  V30 2081 C 214.074 2.00044 0.528195 0
M  V30 2082 C 214.489 1.01349 1.59291 0
M  V30 2083 O 213.846 0.00848369 1.82498 0
M  V30 2084 C 213.897 3.43018 1.1411 0
M  V30 2085 O 213.618 4.37939 0.11892 0
M  V30 2086 C 215.119 4.01237 1.88477 0
M  V30 2087 H 212.339 0.656517 0.138661 0
M  V30 2088 H 214.883 2.03267 -0.224196 0
M  V30 2089 H 213.038 3.40688 1.84418 0
M  V30 2090 H 213.452 5.21436 0.56613 0
M  V30 2091 H 214.926 5.03314 2.26669 0
M  V30 2092 H 215.403 3.41193 2.76558 0
M  V30 2093 H 216.009 4.07156 1.22898 0
M  V30 2094 N 214.325 -0.140222 1.56975 0
M  V30 2095 C 215.55 -0.870414 1.88251 0
M  V30 2096 C 215.975 -1.73637 0.723312 0
M  V30 2097 O 215.333 -1.78329 -0.32689 0
M  V30 2098 C 215.381 -1.69737 3.18154 0
M  V30 2099 O 214.485 -2.80229 3.02565 0
M  V30 2100 H 213.826 -0.242025 0.61832 0
M  V30 2101 H 216.356 -0.128999 2.04193 0
M  V30 2102 H 216.366 -2.09099 3.50345 0
M  V30 2103 H 215.041 -1.06152 4.02125 0
M  V30 2104 H 213.618 -2.44224 2.81796 0
M  V30 2105 N 215.803 -1.52179 -0.40978 0
M  V30 2106 C 217.05 -1.66206 -1.15679 0
M  V30 2107 C 217.378 -0.391674 -1.90516 0
M  V30 2108 O 216.633 0.62533 -1.8544 0
M  V30 2109 C 216.932 -2.83428 -2.17723 0
M  V30 2110 C 216.598 -4.21672 -1.59699 0
M  V30 2111 C 215.26 -4.59274 -1.43599 0
M  V30 2112 C 217.612 -5.07825 -1.17317 0
M  V30 2113 C 214.94 -5.80709 -0.836328 0
M  V30 2114 C 217.292 -6.29864 -0.587691 0
M  V30 2115 C 215.956 -6.66216 -0.413818 0
M  V30 2116 H 215.226 -0.608192 -0.423301 0
M  V30 2117 H 217.873 -1.86279 -0.444097 0
M  V30 2118 H 216.178 -2.57687 -2.95135 0
M  V30 2119 H 217.875 -2.91477 -2.75394 0
M  V30 2120 H 214.465 -3.9204 -1.73213 0
M  V30 2121 H 218.649 -4.79359 -1.28565 0
M  V30 2122 H 213.905 -6.07498 -0.689626 0
M  V30 2123 H 218.079 -6.95948 -0.250894 0
M  V30 2124 H 215.706 -7.60182 0.0529471 0
M  V30 2125 N 217.281 0.66697 -1.42791 0
M  V30 2126 C 218.228 1.7803 -1.4688 0
M  V30 2127 C 219.198 1.6299 -0.319919 0
M  V30 2128 O 220.383 1.83432 -0.525118 0
M  V30 2129 C 217.523 3.1611 -1.38451 0
M  V30 2130 C 216.636 3.42381 -2.63437 0
M  V30 2131 C 215.771 4.70232 -2.47094 0
M  V30 2132 C 214.81 4.89564 -3.67415 0
M  V30 2133 N 213.947 6.08661 -3.49966 0
M  V30 2134 H 218.787 1.7387 -2.42019 0
M  V30 2135 H 216.324 0.84868 -1.20149 0
M  V30 2136 H 218.282 3.95914 -1.31561 0
M  V30 2137 H 216.912 3.19374 -0.469033 0
M  V30 2138 H 215.964 2.56774 -2.80662 0
M  V30 2139 H 217.276 3.52557 -3.52853 0
M  V30 2140 H 216.43 5.5814 -2.37834 0
M  V30 2141 H 215.169 4.62353 -1.5518 0
M  V30 2142 H 214.174 4.00096 -3.77099 0
M  V30 2143 H 215.399 4.99282 -4.6032 0
M  V30 2144 H 213.345 6.0194 -2.60776 0
M  V30 2145 H 213.262 6.19733 -4.32975 0
M  V30 2146 H 214.53 6.99226 -3.44532 0
M  V30 2147 N 218.759 1.29093 0.90403 0
M  V30 2148 C 220.005 1.16986 1.65656 0
M  V30 2149 C 220.338 -0.278925 1.92186 0
M  V30 2150 O 219.613 -1.2019 1.5292 0
M  V30 2151 C 219.896 1.97908 3.0084 0
M  V30 2152 C 219.749 3.50903 2.81403 0
M  V30 2153 C 221.068 1.80208 4.01513 0
M  V30 2154 H 218.187 0.426346 0.601164 0
M  V30 2155 H 220.829 1.58518 1.04747 0
M  V30 2156 H 218.979 1.62616 3.52829 0
M  V30 2157 H 220.651 3.96153 2.36348 0
M  V30 2158 H 218.894 3.76045 2.1627 0
M  V30 2159 H 219.565 4.02791 3.77443 0
M  V30 2160 H 222.041 2.11025 3.58619 0
M  V30 2161 H 220.917 2.39184 4.94047 0
M  V30 2162 H 221.178 0.756119 4.35586 0
M  V30 2163 N 220.237 -1.11381 1.11499 0
M  V30 2164 C 221.484 -1.83132 0.864231 0
M  V30 2165 C 221.812 -1.84683 -0.610114 0
M  V30 2166 O 221.067 -1.29589 -1.46646 0
M  V30 2167 C 221.366 -3.30026 1.37177 0
M  V30 2168 C 221.032 -3.48634 2.85946 0
M  V30 2169 C 219.694 -3.53421 3.26569 0
M  V30 2170 C 222.046 -3.54837 3.81759 0
M  V30 2171 C 219.374 -3.61967 4.61733 0
M  V30 2172 C 221.726 -3.64915 5.1674 0
M  V30 2173 C 220.39 -3.67962 5.5692 0
M  V30 2174 H 219.66 -0.670127 0.316245 0
M  V30 2175 H 222.307 -1.31354 1.3935 0
M  V30 2176 H 220.612 -3.84304 0.762753 0
M  V30 2177 H 222.309 -3.84034 1.15408 0
M  V30 2178 H 218.899 -3.45579 2.53521 0
M  V30 2179 H 223.083 -3.50399 3.51474 0
M  V30 2180 H 218.339 -3.62603 4.92269 0
M  V30 2181 H 222.513 -3.68658 5.90816 0
M  V30 2182 H 220.14 -3.74336 6.61647 0
M  V30 2183 N 221.715 -0.905404 -1.28997 0
M  V30 2184 C 222.648 -0.331959 -2.25773 0
M  V30 2185 C 223.626 0.559099 -1.52685 0
M  V30 2186 O 224.81 0.50463 -1.8162 0
M  V30 2187 C 221.937 0.526276 -3.34586 0
M  V30 2188 C 220.983 -0.298249 -4.25456 0
M  V30 2189 S 221.816 -1.69968 -5.0781 0
M  V30 2190 C 222.972 -0.848519 -6.20122 0
M  V30 2191 H 223.205 -1.15222 -2.74064 0
M  V30 2192 H 220.738 -0.706112 -1.37308 0
M  V30 2193 H 222.696 1.01565 -3.97737 0
M  V30 2194 H 221.357 1.32084 -2.84978 0
M  V30 2195 H 220.55 0.357607 -5.0273 0
M  V30 2196 H 220.152 -0.720968 -3.66985 0
M  V30 2197 H 222.444 -0.0744325 -6.77459 0
M  V30 2198 H 223.387 -1.59353 -6.89937 0
M  V30 2199 H 223.795 -0.400383 -5.63078 0
M  V30 2200 N 223.193 1.4272 -0.668489 0
M  V30 2201 C 224.156 2.292 0.00448567 0
M  V30 2202 C 225.156 1.43001 0.735339 0
M  V30 2203 O 226.346 1.64461 0.57429 0
M  V30 2204 C 223.478 3.25375 1.01705 0
M  V30 2205 H 224.671 2.90199 -0.756608 0
M  V30 2206 H 222.224 1.50254 -0.430506 0
M  V30 2207 H 222.959 2.69301 1.80686 0
M  V30 2208 H 222.744 3.88944 0.496463 0
M  V30 2209 H 224.234 3.90245 1.48655 0
M  V30 2210 N 224.671 0.411399 1.52136 0
M  V30 2211 C 225.901 -0.16284 2.05957 0
M  V30 2212 C 226.309 -1.3922 1.28119 0
M  V30 2213 O 225.652 -1.80768 0.326881 0
M  V30 2214 C 225.714 -0.575946 3.54856 0
M  V30 2215 C 225.378 0.542998 4.53763 0
M  V30 2216 C 226.375 1.40726 5.00492 0
M  V30 2217 C 224.06 0.716337 4.97166 0
M  V30 2218 C 226.054 2.4298 5.8927 0
M  V30 2219 C 223.741 1.74218 5.8574 0
M  V30 2220 C 224.739 2.59731 6.31687 0
M  V30 2221 O 224.427 3.60558 7.18507 0
M  V30 2222 H 224.159 -0.0229125 0.675612 0
M  V30 2223 H 226.713 0.581634 1.96993 0
M  V30 2224 H 224.943 -1.37274 3.61515 0
M  V30 2225 H 226.632 -1.07836 3.91313 0
M  V30 2226 H 227.398 1.28476 4.67674 0
M  V30 2227 H 223.277 0.0603857 4.6096 0
M  V30 2228 H 226.821 3.0976 6.25055 0
M  V30 2229 H 222.718 1.86498 6.17971 0
M  V30 2230 H 223.486 3.56829 7.36624 0
M  V30 2231 N 226.149 -1.5696 0.141893 0
M  V30 2232 C 227.565 -1.58151 -0.21456 0
M  V30 2233 C 227.765 -1.1559 -1.65049 0
M  V30 2234 O 226.821 -0.853832 -2.37626 0
M  V30 2235 C 228.134 -3.00674 0.0395576 0
M  V30 2236 C 229.682 -3.1299 -0.0245529 0
M  V30 2237 C 230.157 -4.57554 0.202167 0
M  V30 2238 N 231.648 -4.62961 0.148919 0
M  V30 2239 C 232.383 -5.7262 0.298924 0
M  V30 2240 N 231.879 -6.90947 0.50637 0
M  V30 2241 N 233.672 -5.61601 0.236886 0
M  V30 2242 H 225.823 -1.8292 1.07953 0
M  V30 2243 H 228.086 -0.846425 0.42693 0
M  V30 2244 H 227.792 -3.36183 1.03315 0
M  V30 2245 H 227.666 -3.70981 -0.682143 0
M  V30 2246 H 230.053 -2.77326 -1.00869 0
M  V30 2247 H 230.134 -2.4518 0.729396 0
M  V30 2248 H 229.778 -4.93922 1.18338 0
M  V30 2249 H 229.708 -5.23484 -0.572044 0
M  V30 2250 H 232.199 -3.77899 -0.00697015 0
M  V30 2251 H 232.512 -7.7038 0.611076 0
M  V30 2252 H 230.857 -6.92878 0.542628 0
M  V30 2253 H 234.048 -4.68039 0.0756209 0
M  V30 2254 H 234.221 -6.47015 0.357227 0
M  V30 2255 N 227.627 0.131896 -1.57047 0
M  V30 2256 C 228.875 0.840269 -1.83804 0
M  V30 2257 C 229.196 1.81017 -0.72512 0
M  V30 2258 O 228.466 1.94272 0.251995 0
M  V30 2259 H 227.046 0.313294 -0.678127 0
M  V30 2260 H 229.708 0.122294 -1.94516 0
M  V30 2261 H 228.804 1.39335 -2.79271 0
M  V30 2262 N 229.106 1.52395 0.401703 0
M  V30 2263 C 230.039 1.70999 1.51111 0
M  V30 2264 C 231.017 0.55765 1.52738 0
M  V30 2265 O 232.201 0.785912 1.71335 0
M  V30 2266 C 229.328 1.75607 2.8962 0
M  V30 2267 C 228.374 2.97227 3.05873 0
M  V30 2268 S 229.207 4.57439 2.78405 0
M  V30 2269 C 230.363 4.64844 4.19131 0
M  V30 2270 H 230.596 2.6483 1.35102 0
M  V30 2271 H 228.129 1.42527 0.593762 0
M  V30 2272 H 230.087 1.78947 3.69443 0
M  V30 2273 H 228.748 0.828914 3.02965 0
M  V30 2274 H 227.941 2.96955 4.07227 0
M  V30 2275 H 227.543 2.91813 2.33925 0
M  V30 2276 H 229.835 4.42677 5.12877 0
M  V30 2277 H 230.778 5.66807 4.24424 0
M  V30 2278 H 231.186 3.93804 4.04448 0
M  V30 2279 N 230.584 -0.659388 1.43143 0
M  V30 2280 C 231.532 -1.79374 1.4808 0
M  V30 2281 C 232.526 -1.65639 0.354988 0
M  V30 2282 O 233.732 -1.7206 0.528704 0
M  V30 2283 H 230.107 -0.591705 0.4641 0
M  V30 2284 H 232.078 -1.72329 2.43609 0
M  V30 2285 C 230.827 -3.17606 1.41499 0
M  V30 2286 H 230.15 -3.28809 2.27431 0
M  V30 2287 H 231.59 -3.96951 1.49015 0
M  V30 2288 C 230.049 -3.36642 0.131765 0
M  V30 2289 O 230.579 -3.93461 -0.809386 0
M  V30 2290 N 228.785 -2.90567 0.0439396 0
M  V30 2291 H 228.332 -2.44513 0.810619 0
M  V30 2292 H 228.29 -3.03681 -0.813969 0
M  V30 2293 N 232.062 -1.29571 -0.897171 0
M  V30 2294 C 232.995 -1.0924 -2.00354 0
M  V30 2295 C 233.973 -0.00354011 -1.626 0
M  V30 2296 O 235.157 -0.15473 -1.87864 0
M  V30 2297 C 232.284 -0.66352 -3.32137 0
M  V30 2298 C 231.33 -1.75146 -3.88878 0
M  V30 2299 S 232.163 -3.35124 -4.17674 0
M  V30 2300 C 233.319 -2.9411 -5.52494 0
M  V30 2301 H 233.552 -2.02907 -2.17292 0
M  V30 2302 H 231.085 -1.13746 -1.04408 0
M  V30 2303 H 233.043 -0.422791 -4.08317 0
M  V30 2304 H 231.704 0.253588 -3.13075 0
M  V30 2305 H 230.897 -1.40337 -4.84068 0
M  V30 2306 H 230.499 -1.94584 -3.19395 0
M  V30 2307 H 232.791 -2.41312 -6.33068 0
M  V30 2308 H 233.734 -3.88161 -5.9223 0
M  V30 2309 H 234.142 -2.32332 -5.14473 0
M  V30 2310 N 233.54 1.10788 -1.12088 0
M  V30 2311 C 234.789 1.82036 -0.868659 0
M  V30 2312 C 235.102 1.85929 0.607426 0
M  V30 2313 O 236.308 2.53346 0.97613 0
M  V30 2314 C 234.764 3.26951 -1.50435 0
M  V30 2315 C 234.372 3.31367 -3.01496 0
M  V30 2316 C 236.116 4.03053 -1.33225 0
M  V30 2317 C 234.023 4.7072 -3.58017 0
M  V30 2318 H 232.953 0.682108 -0.321318 0
M  V30 2319 H 235.604 1.24618 -1.34694 0
M  V30 2320 H 233.986 3.84343 -0.953735 0
M  V30 2321 H 235.16 2.83819 -3.6302 0
M  V30 2322 H 233.475 2.6875 -3.18061 0
M  V30 2323 H 236.072 5.05981 -1.72878 0
M  V30 2324 H 236.415 4.15387 -0.275529 0
M  V30 2325 H 236.948 3.52066 -1.85188 0
M  V30 2326 H 233.687 4.63585 -4.63432 0
M  V30 2327 H 233.207 5.1865 -3.01268 0
M  V30 2328 H 234.886 5.39685 -3.56859 0
M  V30 2329 N 235.018 0.912232 1.28515 0
M  V30 2330 C 236.295 0.463597 1.90027 0
M  V30 2331 C 236.675 -1.05753 1.82701 0
M  V30 2332 O 236.023 -1.90492 1.26194 0
M  V30 2333 C 236.233 0.992253 3.34597 0
M  V30 2334 C 237.581 1.04344 4.11579 0
M  V30 2335 O 238.605 0.94079 3.43551 0
M  V30 2336 O 237.464 1.1995 5.33174 0
M  V30 2337 H 234.558 0.146666 0.813891 0
M  V30 2338 H 237.104 1.00292 1.36893 0
M  V30 2339 H 235.876 2.03623 3.34146 0
M  V30 2340 H 235.499 0.433672 3.95228 0
M  V30 2341 N 236.496 -1.42363 0.676048 0
M  V30 2342 C 237.773 -1.95183 0.127726 0
M  V30 2343 C 238.153 -1.61641 -1.35777 0
M  V30 2344 O 237.501 -0.913216 -2.09458 0
M  V30 2345 C 237.711 -3.46721 0.398199 0
M  V30 2346 C 239.059 -4.23427 0.315383 0
M  V30 2347 O 240.083 -3.54649 0.332016 0
M  V30 2348 O 238.942 -5.45888 0.25865 0
M  V30 2349 H 236.036 -0.826992 0.00359427 0
M  V30 2350 H 238.582 -1.52184 0.750864 0
M  V30 2351 H 237.354 -3.64344 1.4272 0
M  V30 2352 H 236.977 -3.96769 -0.256885 0
M  V30 2353 N 237.974 -0.419461 -1.51915 0
M  V30 2354 C 239.22 0.153166 -2.02221 0
M  V30 2355 C 239.553 1.43907 -1.30401 0
M  V30 2356 O 238.828 1.90055 -0.413438 0
M  V30 2357 C 239.111 0.390291 -3.57979 0
M  V30 2358 C 238.964 -0.913014 -4.40436 0
M  V30 2359 C 240.283 1.16794 -4.2432 0
M  V30 2360 H 237.402 0.0541924 -0.735005 0
M  V30 2361 H 240.044 -0.554955 -1.81715 0
M  V30 2362 H 238.194 0.993491 -3.75582 0
M  V30 2363 H 239.866 -1.54882 -4.34522 0
M  V30 2364 H 238.109 -1.52168 -4.06236 0
M  V30 2365 H 238.78 -0.701361 -5.47526 0
M  V30 2366 H 241.256 0.657161 -4.10878 0
M  V30 2367 H 240.132 1.3026 -5.3322 0
M  V30 2368 H 240.393 2.19132 -3.83971 0
M  V30 2369 N 239.452 1.56882 -0.150215 0
M  V30 2370 C 240.68 2.00593 0.506948 0
M  V30 2371 C 241.095 1.03033 1.58208 0
M  V30 2372 O 240.452 0.0278396 1.82479 0
M  V30 2373 C 240.503 3.44209 1.10465 0
M  V30 2374 O 240.224 4.3804 0.0724636 0
M  V30 2375 C 241.725 4.03214 1.84211 0
M  V30 2376 H 238.945 0.65795 0.13169 0
M  V30 2377 H 241.489 2.03018 -0.245743 0
M  V30 2378 H 239.644 3.42625 1.80795 0
M  V30 2379 H 240.058 5.22007 0.510793 0
M  V30 2380 H 241.532 5.0569 2.21318 0
M  V30 2381 H 242.009 3.44107 2.72923 0
M  V30 2382 H 242.615 4.08437 1.18572 0
M  V30 2383 N 240.93 -0.123565 1.57115 0
M  V30 2384 C 241.86 -1.15309 2.03042 0
M  V30 2385 C 242.841 -1.43454 0.914061 0
M  V30 2386 O 244.026 -1.53973 1.18347 0
M  V30 2387 C 241.156 -2.48043 2.43089 0
M  V30 2388 C 240.11 -2.3437 3.58127 0
M  V30 2389 C 239.436 -3.72026 3.84059 0
M  V30 2390 C 240.736 -1.80804 4.90007 0
M  V30 2391 H 242.43 -0.771102 2.893 0
M  V30 2392 H 239.976 -0.369479 1.39179 0
M  V30 2393 H 241.929 -3.20311 2.73823 0
M  V30 2394 H 240.653 -2.88122 1.53796 0
M  V30 2395 H 239.312 -1.64551 3.27595 0
M  V30 2396 H 238.96 -4.09582 2.91979 0
M  V30 2397 H 238.66 -3.63732 4.6149 0
M  V30 2398 H 240.184 -4.45806 4.1724 0
M  V30 2399 H 241.598 -2.42886 5.19307 0
M  V30 2400 H 239.995 -1.83343 5.71407 0
M  V30 2401 H 241.065 -0.76528 4.78823 0
M  V30 2402 N 242.408 -1.52605 -0.393616 0
M  V30 2403 C 243.338 -1.80022 -1.48709 0
M  V30 2404 C 244.319 -0.651995 -1.57108 0
M  V30 2405 O 245.504 -0.89913 -1.72132 0
M  V30 2406 C 242.634 -1.96492 -2.86371 0
M  V30 2407 C 241.588 -3.12161 -2.92813 0
M  V30 2408 C 240.914 -3.13877 -4.3288 0
M  V30 2409 C 242.214 -4.51322 -2.6288 0
M  V30 2410 H 243.908 -2.71589 -1.26015 0
M  V30 2411 H 241.454 -1.30684 -0.604778 0
M  V30 2412 H 243.407 -2.14255 -3.62867 0
M  V30 2413 H 242.131 -1.01611 -3.10391 0
M  V30 2414 H 240.79 -2.94173 -2.18764 0
M  V30 2415 H 240.438 -2.16687 -4.53933 0
M  V30 2416 H 240.138 -3.91576 -4.38112 0
M  V30 2417 H 241.662 -3.33789 -5.1129 0
M  V30 2418 H 243.076 -4.69435 -3.29096 0
M  V30 2419 H 241.473 -5.31053 -2.79468 0
M  V30 2420 H 242.543 -4.58353 -1.58242 0
M  V30 2421 N 243.887 0.651787 -1.4349 0
M  V30 2422 C 244.834 1.76462 -1.4876 0
M  V30 2423 C 245.804 1.62641 -0.337189 0
M  V30 2424 O 246.989 1.82864 -0.544544 0
M  V30 2425 C 244.129 3.14623 -1.41796 0
M  V30 2426 C 243.242 3.39568 -2.67053 0
M  V30 2427 C 242.377 4.67585 -2.52068 0
M  V30 2428 C 241.416 4.85639 -3.72587 0
M  V30 2429 N 240.553 6.04915 -3.56402 0
M  V30 2430 H 245.393 1.71293 -2.43849 0
M  V30 2431 H 242.93 0.835889 -1.21043 0
M  V30 2432 H 244.888 3.94496 -1.35753 0
M  V30 2433 H 243.518 3.18859 -0.50288 0
M  V30 2434 H 242.57 2.53783 -2.8337 0
M  V30 2435 H 243.882 3.48795 -3.56572 0
M  V30 2436 H 243.036 5.55586 -2.4374 0
M  V30 2437 H 241.775 4.60681 -1.60075 0
M  V30 2438 H 240.78 3.96073 -3.81321 0
M  V30 2439 H 242.005 4.94372 -4.65589 0
M  V30 2440 H 239.951 5.9914 -2.67146 0
M  V30 2441 H 239.868 6.15106 -4.39524 0
M  V30 2442 H 241.136 6.95533 -3.51929 0
M  V30 2443 N 245.365 1.30045 0.890287 0
M  V30 2444 C 246.593 1.21472 1.67487 0
M  V30 2445 C 247.008 -0.223241 1.87476 0
M  V30 2446 O 246.365 -1.14828 1.41847 0
M  V30 2447 C 246.416 1.93394 3.05419 0
M  V30 2448 O 246.137 3.31576 2.86337 0
M  V30 2449 C 247.638 1.91414 3.99844 0
M  V30 2450 H 244.858 0.420604 0.522813 0
M  V30 2451 H 247.402 1.7158 1.11268 0
M  V30 2452 H 245.557 1.47099 3.58386 0
M  V30 2453 H 245.971 3.67929 3.73802 0
M  V30 2454 H 247.445 2.46285 4.94012 0
M  V30 2455 H 247.922 0.891833 4.3005 0
M  V30 2456 H 248.528 2.37496 3.52811 0
M  V30 2457 N 246.843 -1.10192 1.12674 0
M  V30 2458 C 247.773 -2.18652 0.819362 0
M  V30 2459 C 248.754 -1.68698 -0.217915 0
M  V30 2460 O 249.939 -1.94041 -0.0785581 0
M  V30 2461 C 247.069 -3.46202 0.27594 0
M  V30 2462 C 246.023 -4.09444 1.24656 0
M  V30 2463 C 245.349 -5.31725 0.563258 0
M  V30 2464 C 246.649 -4.52863 2.60217 0
M  V30 2465 H 248.343 -2.44622 1.72628 0
M  V30 2466 H 245.889 -1.17571 0.831451 0
M  V30 2467 H 247.842 -4.21372 0.0486149 0
M  V30 2468 H 246.566 -3.1973 -0.666331 0
M  V30 2469 H 245.225 -3.36284 1.45974 0
M  V30 2470 H 244.873 -5.0153 -0.384235 0
M  V30 2471 H 244.573 -5.74991 1.21075 0
M  V30 2472 H 246.097 -6.09624 0.34503 0
M  V30 2473 H 247.511 -5.19294 2.42913 0
M  V30 2474 H 245.908 -5.06986 3.21068 0
M  V30 2475 H 246.978 -3.65656 3.18471 0
M  V30 2476 N 248.321 -0.919034 -1.28029 0
M  V30 2477 C 249.598 -0.473668 -1.89778 0
M  V30 2478 C 249.978 1.04783 -1.83259 0
M  V30 2479 O 249.326 1.8982 -1.27202 0
M  V30 2480 C 249.536 -1.00998 -3.34066 0
M  V30 2481 C 250.884 -1.06525 -4.1102 0
M  V30 2482 O 251.908 -0.958996 -3.43048 0
M  V30 2483 O 250.767 -1.22776 -5.3253 0
M  V30 2484 H 247.861 -0.15098 -0.813101 0
M  V30 2485 H 250.407 -1.01016 -1.36359 0
M  V30 2486 H 249.179 -2.05392 -3.33061 0
M  V30 2487 H 248.802 -0.454626 -3.94992 0
M  V30 2488 N 249.799 1.42003 -0.683588 0
M  V30 2489 C 250.746 2.30798 -0.0107309 0
M  V30 2490 C 251.716 1.4645 0.783688 0
M  V30 2491 O 252.901 1.75263 0.754156 0
M  V30 2492 C 250.041 3.3238 0.928306 0
M  V30 2493 C 249.154 4.31814 0.126776 0
M  V30 2494 C 248.289 5.20468 1.06236 0
M  V30 2495 C 247.328 6.11577 0.253035 0
M  V30 2496 N 246.465 6.92754 1.14179 0
M  V30 2497 H 251.305 2.8778 -0.773727 0
M  V30 2498 H 248.842 1.41745 -0.393283 0
M  V30 2499 H 250.8 3.89813 1.48666 0
M  V30 2500 H 249.43 2.76976 1.65783 0
M  V30 2501 H 248.482 3.76427 -0.54833 0
M  V30 2502 H 249.794 4.96276 -0.501192 0
M  V30 2503 H 248.948 5.82677 1.69035 0
M  V30 2504 H 247.687 4.56204 1.7242 0
M  V30 2505 H 246.692 5.48428 -0.388108 0
M  V30 2506 H 247.917 6.77892 -0.404839 0
M  V30 2507 H 245.863 6.3111 1.78987 0
M  V30 2508 H 245.78 7.53855 0.569111 0
M  V30 2509 H 247.048 7.59441 1.75697 0
M  V30 2510 N 251.277 0.427512 1.51691 0
M  V30 2511 C 252.24 -0.377132 2.26076 0
M  V30 2512 C 253.24 -0.958089 1.29141 0
M  V30 2513 O 254.43 -0.83408 1.52934 0
M  V30 2514 C 251.562 -1.53262 3.04506 0
M  V30 2515 H 252.755 0.27464 2.9864 0
M  V30 2516 H 250.308 0.180445 1.55255 0
M  V30 2517 H 251.043 -2.22072 2.36335 0
M  V30 2518 H 250.828 -1.12232 3.75694 0
M  V30 2519 H 252.318 -2.10135 3.60878 0
M  V30 2520 N 252.755 -1.56801 0.158532 0
M  V30 2521 C 254.001 -1.96781 -0.490405 0
M  V30 2522 C 254.334 -1.04397 -1.63753 0
M  V30 2523 O 253.609 -0.0885805 -1.94298 0
M  V30 2524 C 253.892 -3.4635 -0.985594 0
M  V30 2525 C 253.745 -4.49512 0.160824 0
M  V30 2526 C 255.064 -3.98697 -1.86355 0
M  V30 2527 H 252.183 -0.715482 -0.176788 0
M  V30 2528 H 254.825 -1.88451 0.242088 0
M  V30 2529 H 252.975 -3.53579 -1.60978 0
M  V30 2530 H 254.647 -4.54353 0.797537 0
M  V30 2531 H 252.89 -4.26013 0.818256 0
M  V30 2532 H 253.561 -5.51531 -0.227569 0
M  V30 2533 H 256.037 -3.94019 -1.33746 0
M  V30 2534 H 254.913 -5.03792 -2.17909 0
M  V30 2535 H 255.174 -3.41744 -2.8047 0
M  V30 2536 N 254.233 0.115231 -1.57178 0
M  V30 2537 C 255.18 1.14115 -2.00615 0
M  V30 2538 C 256.15 1.40939 -0.878941 0
M  V30 2539 O 257.335 1.52741 -1.14345 0
M  V30 2540 C 254.475 2.46156 -2.4187 0
M  V30 2541 C 253.588 2.26236 -3.68024 0
M  V30 2542 C 252.723 3.51534 -3.98243 0
M  V30 2543 C 251.762 3.26787 -5.17568 0
M  V30 2544 N 250.899 4.44298 -5.43639 0
M  V30 2545 H 255.739 0.763743 -2.88047 0
M  V30 2546 H 253.276 0.365615 -1.42484 0
M  V30 2547 H 255.234 3.23189 -2.63827 0
M  V30 2548 H 253.864 2.81783 -1.57475 0
M  V30 2549 H 252.916 1.40102 -3.5366 0
M  V30 2550 H 254.228 2.03929 -4.55208 0
M  V30 2551 H 253.382 4.36984 -4.20868 0
M  V30 2552 H 252.121 3.76876 -3.09541 0
M  V30 2553 H 251.126 2.39729 -4.94783 0
M  V30 2554 H 252.351 3.02812 -6.0785 0
M  V30 2555 H 250.297 4.69754 -4.57895 0
M  V30 2556 H 250.214 4.25109 -6.25154 0
M  V30 2557 H 251.482 5.3087 -5.70786 0
M  V30 2558 N 255.711 1.52812 0.385517 0
M  V30 2559 C 256.939 1.71907 1.15133 0
M  V30 2560 C 257.354 0.439004 1.83625 0
M  V30 2561 O 256.711 -0.586765 1.7281 0
M  V30 2562 C 256.762 2.87099 2.19673 0
M  V30 2563 O 256.483 4.10151 1.53973 0
M  V30 2564 C 257.984 3.17902 3.08955 0
M  V30 2565 H 255.204 0.575479 0.345057 0
M  V30 2566 H 257.748 1.99476 0.45052 0
M  V30 2567 H 255.903 2.61982 2.85384 0
M  V30 2568 H 256.317 4.74514 2.23465 0
M  V30 2569 H 257.791 4.01959 3.7833 0
M  V30 2570 H 258.268 2.3243 3.72657 0
M  V30 2571 H 258.874 3.44871 2.48885 0
M  V30 2572 N 257.189 -0.644168 1.43834 0
M  V30 2573 C 258.437 -1.40117 1.45642 0
M  V30 2574 C 258.758 -1.94814 0.0852413 0
M  V30 2575 O 258.028 -1.74988 -0.880688 0
M  V30 2576 H 256.608 -0.52005 0.536243 0
M  V30 2577 H 259.27 -0.7591 1.7951 0
M  V30 2578 H 258.366 -2.23902 2.17427 0
M  V30 2579 N 258.668 -1.30515 -0.883378 0
M  V30 2580 C 259.893 -1.22487 -1.67367 0
M  V30 2581 C 260.318 0.208767 -1.86938 0
M  V30 2582 O 259.676 1.15015 -1.40148 0
M  V30 2583 C 259.724 -1.96041 -3.02655 0
M  V30 2584 O 258.828 -1.28859 -3.91751 0
M  V30 2585 H 258.169 -0.423573 -0.511353 0
M  V30 2586 H 260.699 -1.72362 -1.10239 0
M  V30 2587 H 260.709 -2.05124 -3.52687 0
M  V30 2588 H 259.384 -3.00307 -2.8773 0
M  V30 2589 H 257.961 -1.28141 -3.50192 0
M  V30 2590 N 260.146 1.09593 -1.13257 0
M  V30 2591 C 261.076 2.18214 -0.830946 0
M  V30 2592 C 262.057 1.68812 0.208966 0
M  V30 2593 O 263.242 1.9408 0.0682666 0
M  V30 2594 C 260.372 3.46051 -0.294296 0
M  V30 2595 C 259.326 4.08778 -1.26826 0
M  V30 2596 C 258.652 5.31419 -0.591449 0
M  V30 2597 C 259.952 4.51476 -2.62615 0
M  V30 2598 H 261.646 2.43703 -1.73923 0
M  V30 2599 H 259.192 1.17128 -0.837675 0
M  V30 2600 H 261.145 4.2134 -0.0709606 0
M  V30 2601 H 259.869 3.20079 0.649366 0
M  V30 2602 H 258.528 3.35505 -1.47756 0
M  V30 2603 H 258.176 5.01727 0.357633 0
M  V30 2604 H 257.876 5.74341 -1.24123 0
M  V30 2605 H 259.4 6.09433 -0.377355 0
M  V30 2606 H 260.814 5.17999 -2.45663 0
M  V30 2607 H 259.211 5.05277 -3.23752 0
M  V30 2608 H 260.281 3.63962 -3.20406 0
M  V30 2609 N 261.624 0.925811 1.2754 0
M  V30 2610 C 262.87 0.566092 1.94739 0
M  V30 2611 C 263.203 -0.890057 1.72603 0
M  V30 2612 O 262.478 -1.63467 1.05399 0
M  V30 2613 C 262.761 0.89054 3.48915 0
M  V30 2614 C 262.614 2.4003 3.80402 0
M  V30 2615 C 263.933 0.395101 4.38323 0
M  V30 2616 H 261.052 0.20714 0.707292 0
M  V30 2617 H 263.694 1.15725 1.50691 0
M  V30 2618 H 261.844 0.387452 3.86563 0
M  V30 2619 H 263.516 2.97494 3.52555 0
M  V30 2620 H 261.759 2.85028 3.2702 0
M  V30 2621 H 262.43 2.57785 4.8811 0
M  V30 2622 H 264.906 0.826241 4.07814 0
M  V30 2623 H 263.782 0.651086 5.45025 0
M  V30 2624 H 264.043 -0.704798 4.36446 0
M  V30 2625 N 263.102 -1.41638 0.69111 0
M  V30 2626 C 264.035 -2.28183 -0.0274913 0
M  V30 2627 C 265.013 -1.41984 -0.792424 0
M  V30 2628 O 266.197 -1.71415 -0.784169 0
M  V30 2629 C 263.324 -3.22135 -1.04628 0
M  V30 2630 C 262.37 -4.24848 -0.375037 0
M  V30 2631 S 263.203 -5.28231 0.879321 0
M  V30 2632 C 264.359 -6.25748 -0.137983 0
M  V30 2633 H 264.592 -2.88782 0.706553 0
M  V30 2634 H 262.125 -1.46709 0.481222 0
M  V30 2635 H 264.083 -3.76797 -1.62894 0
M  V30 2636 H 262.744 -2.6064 -1.75287 0
M  V30 2637 H 261.937 -4.90837 -1.14433 0
M  V30 2638 H 261.539 -3.73758 0.134434 0
M  V30 2639 H 263.831 -6.70188 -0.992659 0
M  V30 2640 H 264.774 -7.06417 0.487867 0
M  V30 2641 H 265.182 -5.62363 -0.490762 0
M  V30 2642 N 264.58 -0.43555 -1.51462 0
M  V30 2643 C 265.826 0.131709 -2.02372 0
M  V30 2644 C 266.159 1.42516 -1.3192 0
M  V30 2645 O 265.434 1.89606 -0.433573 0
M  V30 2646 C 265.717 0.352301 -3.58373 0
M  V30 2647 C 265.57 -0.959676 -4.39443 0
M  V30 2648 C 266.889 1.12286 -4.25535 0
M  V30 2649 H 264.008 0.0463936 -0.735538 0
M  V30 2650 H 266.65 -0.574197 -1.81116 0
M  V30 2651 H 264.8 0.9536 -3.76615 0
M  V30 2652 H 266.472 -1.59482 -4.32855 0
M  V30 2653 H 264.715 -1.56468 -4.04599 0
M  V30 2654 H 265.386 -0.759394 -5.46752 0
M  V30 2655 H 267.862 0.613545 -4.11552 0
M  V30 2656 H 266.738 1.24598 -5.34571 0
M  V30 2657 H 266.999 2.15048 -3.86273 0
M  V30 2658 N 266.058 1.56714 -0.166846 0
M  V30 2659 C 267.008 2.14338 0.777382 0
M  V30 2660 C 267.992 1.07642 1.19591 0
M  V30 2661 O 269.184 1.33775 1.15902 0
M  V30 2662 C 266.313 2.78417 2.00846 0
M  V30 2663 C 265.399 3.92264 1.61212 0
M  V30 2664 N 265.79 4.97268 0.925104 0
M  V30 2665 C 264.088 4.03342 1.90346 0
M  V30 2666 C 264.789 5.77093 0.730627 0
M  V30 2667 N 263.765 5.2854 1.27067 0
M  V30 2668 H 267.567 2.9289 0.243466 0
M  V30 2669 H 265.081 1.62364 0.0339954 0
M  V30 2670 H 267.078 3.18073 2.69509 0
M  V30 2671 H 265.738 2.01344 2.54736 0
M  V30 2672 H 266.749 5.14601 0.583646 0
M  V30 2673 H 263.426 3.37368 2.45946 0
M  V30 2674 H 264.816 6.71638 0.187668 0
M  V30 2675 N 267.536 -0.106894 1.57237 0
M  V30 2676 C 268.499 -1.11466 2.0027 0
M  V30 2677 C 269.499 -1.33623 0.894519 0
M  V30 2678 O 270.689 -1.29935 1.16028 0
M  V30 2679 C 267.821 -2.46646 2.35327 0
M  V30 2680 H 269.014 -0.744516 2.90512 0
M  V30 2681 H 266.567 -0.351576 1.52295 0
M  V30 2682 H 267.302 -2.88558 1.48003 0
M  V30 2683 H 267.087 -2.31915 3.16161 0
M  V30 2684 H 268.577 -3.19151 2.69318 0
M  V30 2685 N 269.014 -1.53014 -0.377408 0
M  V30 2686 C 269.924 -1.81557 -1.48574 0
M  V30 2687 C 270.94 -0.703102 -1.59162 0
M  V30 2688 O 272.116 -0.99192 -1.75279 0
M  V30 2689 C 269.181 -1.9889 -2.83978 0
M  V30 2690 C 268.242 -3.22801 -2.83016 0
M  V30 2691 C 267.475 -3.39298 -4.11962 0
M  V30 2692 O 267.698 -2.60345 -5.0752 0
M  V30 2693 O 266.632 -4.32604 -4.18494 0
M  V30 2694 H 270.458 -2.75695 -1.27382 0
M  V30 2695 H 268.043 -1.38248 -0.566373 0
M  V30 2696 H 269.925 -2.11931 -3.6423 0
M  V30 2697 H 268.6 -1.07942 -3.05172 0
M  V30 2698 H 267.507 -3.15193 -2.01505 0
M  V30 2699 H 268.84 -4.13632 -2.66775 0
M  V30 2700 N 270.492 0.636531 -1.44174 0
M  V30 2701 C 271.44 1.76995 -1.50915 0
M  V30 2702 C 272.434 1.65053 -0.381295 0
M  V30 2703 O 273.64 1.71197 -0.55601 0
M  V30 2704 H 270.015 0.584247 -0.473455 0
M  V30 2705 H 271.986 1.68432 -2.4632 0
M  V30 2706 C 270.735 3.15314 -1.46534 0
M  V30 2707 H 270.058 3.25149 -2.32633 0
M  V30 2708 H 271.498 3.9453 -1.55312 0
M  V30 2709 C 269.957 3.3639 -0.185305 0
M  V30 2710 O 270.487 3.94699 0.746688 0
M  V30 2711 N 268.693 2.9046 -0.0901606 0
M  V30 2712 H 268.24 2.43193 -0.849416 0
M  V30 2713 H 268.198 3.04937 0.765553 0
M  V30 2714 N 271.97 1.30982 0.876444 0
M  V30 2715 C 273.218 1.20058 1.62575 0
M  V30 2716 C 273.539 -0.242947 1.93481 0
M  V30 2717 O 272.809 -1.1619 1.57724 0
M  V30 2718 H 271.389 0.44135 0.602677 0
M  V30 2719 H 274.051 1.64222 1.04962 0
M  V30 2720 H 273.147 1.76762 2.57219 0
M  V30 2721 N 273.449 -1.08991 1.13837 0
M  V30 2722 C 274.726 -1.77863 0.813876 0
M  V30 2723 C 275.106 -1.99375 -0.693746 0
M  V30 2724 O 274.454 -1.59875 -1.63255 0
M  V30 2725 C 274.664 -3.0986 1.60586 0
M  V30 2726 C 276.012 -3.84493 1.8014 0
M  V30 2727 O 277.036 -3.19624 1.57222 0
M  V30 2728 O 275.895 -5.00957 2.18413 0
M  V30 2729 H 272.989 -0.771589 0.297624 0
M  V30 2730 H 275.535 -1.15507 1.24323 0
M  V30 2731 H 274.307 -2.89715 2.63022 0
M  V30 2732 H 273.93 -3.79942 1.17173 0
M  V30 2733 N 274.927 -0.932562 -1.27047 0
M  V30 2734 C 275.89 -0.440064 -2.24936 0
M  V30 2735 C 276.89 0.444071 -1.54547 0
M  V30 2736 O 278.08 0.244465 -1.72476 0
M  V30 2737 C 275.212 0.36678 -3.38921 0
M  V30 2738 H 276.405 -1.305 -2.70018 0
M  V30 2739 H 273.958 -0.713707 -1.39054 0
M  V30 2740 H 274.693 1.25033 -2.99228 0
M  V30 2741 H 274.478 -0.267204 -3.91188 0
M  V30 2742 H 275.968 0.701567 -4.11665 0
M  V30 2743 N 276.405 1.4127 -0.698611 0
M  V30 2744 C 277.368 2.29158 -0.044132 0
M  V30 2745 C 278.368 1.44529 0.704841 0
M  V30 2746 O 279.558 1.65643 0.539276 0
M  V30 2747 C 276.69 3.27459 0.947809 0
M  V30 2748 H 277.883 2.88529 -0.817994 0
M  V30 2749 H 275.436 1.49307 -0.46228 0
M  V30 2750 H 276.171 2.73073 1.74933 0
M  V30 2751 H 275.956 3.8991 0.41385 0
M  V30 2752 H 277.446 3.93311 1.40344 0
M  V30 2753 N 277.883 0.443576 1.51229 0
M  V30 2754 C 279.16 -0.181038 1.9476 0
M  V30 2755 C 279.54 -1.59523 1.38259 0
M  V30 2756 O 278.888 -2.2122 0.572198 0
M  V30 2757 C 279.098 -0.152422 3.48667 0
M  V30 2758 C 280.446 -0.354923 4.23114 0
M  V30 2759 O 281.47 -0.230257 3.55455 0
M  V30 2760 O 280.329 -0.603674 5.43156 0
M  V30 2761 H 277.423 -0.1266 0.817252 0
M  V30 2762 H 279.969 0.502004 1.62105 0
M  V30 2763 H 278.741 0.836022 3.82265 0
M  V30 2764 H 278.364 -0.878107 3.87782 0
M  V30 2765 N 279.361 -1.56624 0.175154 0
M  V30 2766 C 280.591 -2.01082 -0.474283 0
M  V30 2767 C 280.999 -1.05447 -1.57091 0
M  V30 2768 O 280.342 -0.0480595 -1.83637 0
M  V30 2769 C 280.404 -3.41963 -1.10911 0
M  V30 2770 C 280.068 -4.56742 -0.153666 0
M  V30 2771 C 281.065 -5.16076 0.629448 0
M  V30 2772 C 278.75 -5.02277 -0.0483776 0
M  V30 2773 C 280.744 -6.19377 1.50501 0
M  V30 2774 C 278.431 -6.05427 0.830768 0
M  V30 2775 C 279.429 -6.63849 1.60605 0
M  V30 2776 O 279.117 -7.64998 2.47049 0
M  V30 2777 H 278.849 -0.664261 -0.125432 0
M  V30 2778 H 281.403 -2.03549 0.275163 0
M  V30 2779 H 279.633 -3.36422 -1.90676 0
M  V30 2780 H 281.322 -3.70352 -1.66114 0
M  V30 2781 H 282.088 -4.81776 0.558297 0
M  V30 2782 H 277.967 -4.56513 -0.641611 0
M  V30 2783 H 281.511 -6.64906 2.1106 0
M  V30 2784 H 277.408 -6.39151 0.903107 0
M  V30 2785 H 278.176 -7.82336 2.40607 0
M  V30 2786 N 280.839 0.0985539 -1.57292 0
M  V30 2787 C 281.769 1.12064 -2.04851 0
M  V30 2788 C 282.75 1.41981 -0.936767 0
M  V30 2789 O 283.935 1.52071 -1.20781 0
M  V30 2790 C 281.065 2.44144 -2.47004 0
M  V30 2791 C 280.019 2.28643 -3.6181 0
M  V30 2792 C 279.345 3.65869 -3.89929 0
M  V30 2793 C 280.645 1.72986 -4.92822 0
M  V30 2794 H 282.339 0.724979 -2.9049 0
M  V30 2795 H 279.885 0.34729 -1.39749 0
M  V30 2796 H 281.838 3.15914 -2.78884 0
M  V30 2797 H 280.562 2.85639 -1.5836 0
M  V30 2798 H 279.221 1.59318 -3.30172 0
M  V30 2799 H 278.869 4.04885 -2.98458 0
M  V30 2800 H 278.569 3.56344 -4.67218 0
M  V30 2801 H 280.093 4.39112 -4.2428 0
M  V30 2802 H 281.507 2.34593 -5.23105 0
M  V30 2803 H 279.904 1.74229 -5.74251 0
M  V30 2804 H 280.974 0.689007 -4.7998 0
M  V30 2805 N 282.317 1.53212 0.369288 0
M  V30 2806 C 283.733 1.42902 0.710712 0
M  V30 2807 C 283.933 0.565135 1.93413 0
M  V30 2808 O 282.989 0.0461484 2.52458 0
M  V30 2809 C 284.302 2.86042 0.927382 0
M  V30 2810 C 285.85 2.9565 1.02762 0
M  V30 2811 C 286.325 4.39843 1.27679 0
M  V30 2812 N 287.816 4.43256 1.34457 0
M  V30 2813 C 288.551 5.51929 1.55439 0
M  V30 2814 N 288.047 6.70655 1.73762 0
M  V30 2815 N 289.84 5.39502 1.57779 0
M  V30 2816 H 281.991 2.07888 -0.435457 0
M  V30 2817 H 284.254 0.938661 -0.132739 0
M  V30 2818 H 283.96 3.51557 0.100287 0
M  V30 2819 H 283.834 3.29472 1.83653 0
M  V30 2820 H 286.221 2.30291 1.84527 0
M  V30 2821 H 286.302 2.5562 0.0959504 0
M  V30 2822 H 285.946 5.05774 0.464175 0
M  V30 2823 H 285.876 4.77443 2.22162 0
M  V30 2824 H 288.367 3.5769 1.21926 0
M  V30 2825 H 288.68 7.49248 1.89335 0
M  V30 2826 H 287.025 6.73648 1.70948 0
M  V30 2827 H 290.216 4.45713 1.43029 0
M  V30 2828 H 290.389 6.2426 1.7379 0
M  V30 2829 N 283.795 -0.628877 1.44509 0
M  V30 2830 C 285.072 -1.38733 1.37886 0
M  V30 2831 C 285.452 -2.11065 0.0387008 0
M  V30 2832 O 284.8 -2.06476 -0.97878 0
M  V30 2833 C 285.01 -2.35188 2.57852 0
M  V30 2834 C 286.358 -2.9845 3.02014 0
M  V30 2835 O 287.382 -2.45513 2.58073 0
M  V30 2836 O 286.241 -3.94487 3.78209 0
M  V30 2837 H 283.335 -0.621015 0.54614 0
M  V30 2838 H 285.881 -0.653744 1.56602 0
M  V30 2839 H 284.653 -1.80855 3.46998 0
M  V30 2840 H 284.276 -3.1596 2.4136 0
M  V30 2841 N 285.273 -1.31445 -0.869486 0
M  V30 2842 C 286.22 -1.19135 -1.97675 0
M  V30 2843 C 287.19 -0.0770266 -1.65921 0
M  V30 2844 O 288.375 -0.249972 -1.89155 0
M  V30 2845 C 285.515 -0.905149 -3.33018 0
M  V30 2846 C 284.628 -2.10285 -3.77365 0
M  V30 2847 C 283.763 -1.75339 -5.01427 0
M  V30 2848 C 282.802 -2.91515 -5.38224 0
M  V30 2849 N 281.939 -2.56762 -6.53466 0
M  V30 2850 H 286.779 -2.13853 -2.07535 0
M  V30 2851 H 284.316 -1.06379 -1.01597 0
M  V30 2852 H 286.274 -0.719765 -4.10944 0
M  V30 2853 H 284.904 0.00519624 -3.228 0
M  V30 2854 H 283.956 -2.39899 -2.95216 0
M  V30 2855 H 285.268 -2.97237 -4.00564 0
M  V30 2856 H 284.422 -1.53266 -5.87022 0
M  V30 2857 H 283.161 -0.855801 -4.80133 0
M  V30 2858 H 282.166 -3.14237 -4.51149 0
M  V30 2859 H 283.391 -3.81985 -5.61484 0
M  V30 2860 H 281.337 -1.69526 -6.33717 0
M  V30 2861 H 281.254 -3.37243 -6.76612 0
M  V30 2862 H 282.522 -2.38083 -7.42251 0
M  V30 2863 N 286.751 1.08385 -1.14413 0
M  V30 2864 C 287.998 1.80776 -0.912482 0
M  V30 2865 C 288.326 1.86236 0.560934 0
M  V30 2866 O 287.581 1.33431 1.43159 0
M  V30 2867 C 287.88 3.26273 -1.45879 0
M  V30 2868 C 287.546 3.4093 -2.95089 0
M  V30 2869 C 286.208 3.44638 -3.35824 0
M  V30 2870 C 288.56 3.44591 -3.91033 0
M  V30 2871 C 285.888 3.49597 -4.71167 0
M  V30 2872 C 288.24 3.51086 -5.26233 0
M  V30 2873 C 286.904 3.53067 -5.6648 0
M  V30 2874 H 286.174 0.661507 -0.333901 0
M  V30 2875 H 288.821 1.27613 -1.42784 0
M  V30 2876 H 287.126 3.82146 -0.864376 0
M  V30 2877 H 288.823 3.80839 -1.2555 0
M  V30 2878 H 285.413 3.38736 -2.62594 0
M  V30 2879 H 289.597 3.40957 -3.60641 0
M  V30 2880 H 284.853 3.49424 -5.0171 0
M  V30 2881 H 289.027 3.52864 -6.00383 0
M  V30 2882 H 286.654 3.56662 -6.71339 0
M  V30 2883 N 288.23 0.939286 1.26551 0
M  V30 2884 C 289.476 0.586715 1.94128 0
M  V30 2885 C 289.809 -0.8717 1.73537 0
M  V30 2886 O 289.084 -1.62339 1.07127 0
M  V30 2887 C 289.367 0.927497 3.4795 0
M  V30 2888 C 289.22 2.44052 3.77834 0
M  V30 2889 C 290.539 0.441569 4.37879 0
M  V30 2890 H 287.658 0.21463 0.705055 0
M  V30 2891 H 290.3 1.17316 1.49455 0
M  V30 2892 H 288.45 0.428431 3.8613 0
M  V30 2893 H 290.122 3.01216 3.4938 0
M  V30 2894 H 288.365 2.8848 3.23978 0
M  V30 2895 H 289.036 2.62947 4.85348 0
M  V30 2896 H 291.512 0.869448 4.06915 0
M  V30 2897 H 290.388 0.708856 5.44304 0
M  V30 2898 H 290.649 -0.658467 4.37169 0
M  V30 2899 N 289.708 -1.40897 0.706093 0
M  V30 2900 C 290.671 -2.29131 0.0562841 0
M  V30 2901 C 291.671 -1.44901 -0.697166 0
M  V30 2902 O 292.861 -1.65926 -0.530484 0
M  V30 2903 C 289.993 -3.27957 -0.93043 0
M  V30 2904 H 291.186 -2.88091 0.833284 0
M  V30 2905 H 288.739 -1.4906 0.470192 0
M  V30 2906 H 289.474 -2.73997 -1.73482 0
M  V30 2907 H 289.259 -3.90124 -0.393166 0
M  V30 2908 H 290.749 -3.94049 -1.38256 0
M  V30 2909 N 291.186 -0.45159 -1.50991 0
M  V30 2910 C 292.096 0.358431 -2.31846 0
M  V30 2911 C 293.112 1.01438 -1.41373 0
M  V30 2912 O 294.288 1.00663 -1.74439 0
M  V30 2913 C 291.353 1.43704 -3.15515 0
M  V30 2914 C 290.414 0.799742 -4.21785 0
M  V30 2915 C 289.647 1.82696 -5.01456 0
M  V30 2916 O 289.87 3.05105 -4.81941 0
M  V30 2917 O 288.804 1.40958 -5.85162 0
M  V30 2918 H 292.63 -0.302032 -3.02194 0
M  V30 2919 H 290.215 -0.213825 -1.47862 0
M  V30 2920 H 292.097 2.06227 -3.67489 0
M  V30 2921 H 290.772 2.08133 -2.47916 0
M  V30 2922 H 289.679 0.136084 -3.73852 0
M  V30 2923 H 291.012 0.198718 -4.91799 0
M  V30 2924 N 292.664 1.56529 -0.183458 0
M  V30 2925 C 293.912 1.96855 0.457452 0
M  V30 2926 C 294.233 1.07104 1.62953 0
M  V30 2927 O 293.503 0.139887 1.954 0
M  V30 2928 H 292.083 0.72693 0.171992 0
M  V30 2929 H 294.745 1.93056 -0.267476 0
M  V30 2930 H 293.841 3.01423 0.809368 0
M  V30 2931 N 294.142 -0.090211 1.57342 0
M  V30 2932 C 295.089 -1.10909 2.02405 0
M  V30 2933 C 296.059 -1.39523 0.901252 0
M  V30 2934 O 297.244 -1.50903 1.1676 0
M  V30 2935 C 294.384 -2.42277 2.45755 0
M  V30 2936 C 293.497 -2.20352 3.71576 0
M  V30 2937 C 292.632 -3.45154 4.03785 0
M  V30 2938 C 291.671 -3.18512 5.22701 0
M  V30 2939 N 290.808 -4.35593 5.50639 0
M  V30 2940 H 295.648 -0.71782 2.89225 0
M  V30 2941 H 293.185 -0.342901 1.43048 0
M  V30 2942 H 295.143 -3.18951 2.68935 0
M  V30 2943 H 293.773 -2.79242 1.61938 0
M  V30 2944 H 292.825 -1.34458 3.55844 0
M  V30 2945 H 294.137 -1.96661 4.58395 0
M  V30 2946 H 293.291 -4.30233 4.27767 0
M  V30 2947 H 292.03 -3.71904 3.15498 0
M  V30 2948 H 291.035 -2.31827 4.98534 0
M  V30 2949 H 292.26 -2.93103 6.12591 0
M  V30 2950 H 290.206 -4.6241 4.6531 0
M  V30 2951 H 290.123 -4.1511 6.31838 0
M  V30 2952 H 291.391 -5.21723 5.7916 0
M  V30 2953 N 295.62 -1.53406 -0.361157 0
M  V30 2954 C 296.848 -1.73717 -1.12383 0
M  V30 2955 C 297.263 -0.468161 -1.82904 0
M  V30 2956 O 296.62 0.559198 -1.73722 0
M  V30 2957 C 296.671 -2.90558 -2.15078 0
M  V30 2958 O 296.392 -4.12549 -1.47428 0
M  V30 2959 C 297.893 -3.22777 -3.03858 0
M  V30 2960 H 295.113 -0.580896 -0.335858 0
M  V30 2961 H 297.657 -2.00167 -0.418728 0
M  V30 2962 H 295.812 -2.66489 -2.8118 0
M  V30 2963 H 296.226 -4.78009 -2.15887 0
M  V30 2964 H 297.7 -4.07927 -3.71887 0
M  V30 2965 H 298.177 -2.38329 -3.68912 0
M  V30 2966 H 298.783 -3.48787 -2.43367 0
M  V30 2967 N 297.098 0.621204 -1.44841 0
M  V30 2968 C 298.061 1.71459 -1.521 0
M  V30 2969 C 299.061 1.55696 -0.401933 0
M  V30 2970 O 300.251 1.61011 -0.664925 0
M  V30 2971 C 297.383 3.10624 -1.40447 0
M  V30 2972 H 298.576 1.66394 -2.49506 0
M  V30 2973 H 296.129 0.835745 -1.3208 0
M  V30 2974 H 296.864 3.21277 -0.441737 0
M  V30 2975 H 296.649 3.23473 -2.21602 0
M  V30 2976 H 298.139 3.90293 -1.4853 0
M  V30 2977 N 298.576 1.31904 0.862503 0
M  V30 2978 C 299.987 1.19803 1.43193 0
M  V30 2979 C 300.338 -0.192567 1.95253 0
M  V30 2980 O 299.463 -1.09081 1.86896 0
M  V30 2981 C 300.058 2.16883 2.60283 0
M  V30 2982 C 298.617 2.08692 3.13248 0
M  V30 2983 C 297.764 2.05691 1.85975 0
M  V30 2984 H 300.715 1.43846 0.670365 0
M  V30 2985 H 300.736 1.76278 3.37204 0
M  V30 2986 H 300.248 3.18083 2.22363 0
M  V30 2987 H 298.349 1.10713 3.55771 0
M  V30 2988 H 298.462 2.9815 3.75025 0
M  V30 2989 H 296.826 1.50814 2.05249 0
M  V30 2990 H 297.609 3.08659 1.50282 0
M  V30 2991 N 300.054 -1.07777 1.14986 0
M  V30 2992 C 301.303 -1.79669 0.916617 0
M  V30 2993 C 301.616 -1.87474 -0.557917 0
M  V30 2994 O 302.822 -2.55845 -0.908617 0
M  V30 2995 C 301.278 -3.22848 1.59051 0
M  V30 2996 C 300.886 -3.23257 3.10176 0
M  V30 2997 C 302.63 -3.99379 1.43864 0
M  V30 2998 C 300.537 -4.61063 3.70372 0
M  V30 2999 H 299.467 -0.673349 0.33929 0
M  V30 3000 H 302.118 -1.21003 1.37951 0
M  V30 3001 H 300.5 -3.8168 1.0553 0
M  V30 3002 H 301.674 -2.74095 3.70417 0
M  V30 3003 H 299.989 -2.60222 3.25074 0
M  V30 3004 H 302.586 -5.0122 1.86232 0
M  V30 3005 H 302.929 -4.14511 0.385564 0
M  V30 3006 H 303.462 -3.47032 1.94457 0
M  V30 3007 H 300.201 -4.51135 4.7556 0
M  V30 3008 H 299.721 -5.1048 3.14913 0
M  V30 3009 H 301.4 -5.30034 3.71043 0
M  V30 3010 N 301.532 -0.945985 -1.26051 0
M  V30 3011 C 302.762 -0.612136 -1.97323 0
M  V30 3012 C 303.17 0.818171 -1.70595 0
M  V30 3013 O 302.513 1.55777 -0.973613 0
M  V30 3014 C 302.575 -0.780347 -3.50929 0
M  V30 3015 C 302.239 -2.18619 -4.01317 0
M  V30 3016 C 303.236 -3.16209 -4.12683 0
M  V30 3017 C 300.921 -2.50805 -4.35203 0
M  V30 3018 C 302.915 -4.44085 -4.57238 0
M  V30 3019 C 300.602 -3.78912 -4.79446 0
M  V30 3020 C 301.6 -4.75365 -4.90425 0
M  V30 3021 O 301.288 -6.01191 -5.3369 0
M  V30 3022 H 301.02 -0.229134 -0.635982 0
M  V30 3023 H 303.574 -1.27036 -1.61404 0
M  V30 3024 H 301.804 -0.0649864 -3.86645 0
M  V30 3025 H 303.493 -0.448842 -4.03411 0
M  V30 3026 H 304.259 -2.92668 -3.86744 0
M  V30 3027 H 300.138 -1.76463 -4.2589 0
M  V30 3028 H 303.682 -5.19373 -4.65723 0
M  V30 3029 H 299.579 -4.02265 -5.0483 0
M  V30 3030 H 300.347 -6.04442 -5.51899 0
M  V30 3031 N 303.011 1.40521 -0.713556 0
M  V30 3032 C 303.961 2.27971 -0.036165 0
M  V30 3033 C 304.945 1.43151 0.734623 0
M  V30 3034 O 306.137 1.66261 0.607158 0
M  V30 3035 C 303.266 3.31661 0.886331 0
M  V30 3036 C 302.352 4.23955 0.110836 0
M  V30 3037 N 302.743 4.97641 -0.904847 0
M  V30 3038 C 301.041 4.44674 0.343692 0
M  V30 3039 C 301.742 5.65322 -1.37064 0
M  V30 3040 N 300.718 5.39162 -0.693168 0
M  V30 3041 H 304.52 2.82384 -0.814645 0
M  V30 3042 H 302.034 1.52948 -0.545963 0
M  V30 3043 H 304.031 3.93154 1.38692 0
M  V30 3044 H 302.691 2.78808 1.66421 0
M  V30 3045 H 303.702 5.01689 -1.28563 0
M  V30 3046 H 300.379 4.02801 1.09805 0
M  V30 3047 H 301.769 6.34359 -2.21447 0
M  V30 3048 N 304.489 0.459591 1.5075 0
M  V30 3049 C 305.452 -0.329093 2.26825 0
M  V30 3050 C 306.452 -0.930481 1.31144 0
M  V30 3051 O 307.642 -0.801453 1.54669 0
M  V30 3052 C 304.774 -1.46768 3.07688 0
M  V30 3053 H 305.967 0.337924 2.9799 0
M  V30 3054 H 303.52 0.213336 1.54837 0
M  V30 3055 H 304.255 -2.17009 2.40993 0
M  V30 3056 H 304.04 -1.04238 3.77991 0
M  V30 3057 H 305.53 -2.02433 3.65254 0
M  V30 3058 N 305.967 -1.56429 0.191757 0
M  V30 3059 C 306.897 -2.21937 -0.725696 0
M  V30 3060 C 307.878 -1.1814 -1.2238 0
M  V30 3061 O 309.063 -1.46636 -1.27325 0
M  V30 3062 C 306.193 -2.87611 -1.94672 0
M  V30 3063 C 305.147 -3.97623 -1.58366 0
M  V30 3064 C 304.473 -4.50446 -2.88102 0
M  V30 3065 C 305.773 -5.16197 -0.796133 0
M  V30 3066 H 307.467 -2.98861 -0.179606 0
M  V30 3067 H 305.013 -1.43749 -0.0849464 0
M  V30 3068 H 306.966 -3.3212 -2.59373 0
M  V30 3069 H 305.69 -2.08087 -2.51728 0
M  V30 3070 H 304.349 -3.53801 -0.960247 0
M  V30 3071 H 303.997 -3.67688 -3.43241 0
M  V30 3072 H 303.697 -5.24675 -2.64556 0
M  V30 3073 H 305.221 -4.97654 -3.53798 0
M  V30 3074 H 306.635 -5.57271 -1.34618 0
M  V30 3075 H 305.032 -5.96471 -0.658928 0
M  V30 3076 H 306.102 -4.84473 0.203478 0
M  V30 3077 N 307.445 0.0818655 -1.57387 0
M  V30 3078 C 308.67 0.799946 -1.91352 0
M  V30 3079 C 309.095 1.70833 -0.787258 0
M  V30 3080 O 308.453 1.79419 0.26048 0
M  V30 3081 C 308.501 1.57812 -3.24234 0
M  V30 3082 O 307.605 2.68806 -3.12757 0
M  V30 3083 H 306.946 0.21891 -0.626877 0
M  V30 3084 H 309.476 0.0531256 -2.04531 0
M  V30 3085 H 309.486 1.95952 -3.57864 0
M  V30 3086 H 308.161 0.911548 -4.05788 0
M  V30 3087 H 306.738 2.33597 -2.90666 0
M  V30 3088 N 308.923 1.53595 0.353017 0
M  V30 3089 C 310.339 1.43648 0.695516 0
M  V30 3090 C 310.539 0.585617 1.92802 0
M  V30 3091 O 309.595 0.0729223 2.52395 0
M  V30 3092 C 310.908 2.8701 0.896991 0
M  V30 3093 C 312.456 2.96723 0.996209 0
M  V30 3094 C 312.931 4.41173 1.23007 0
M  V30 3095 N 314.422 4.44657 1.29749 0
M  V30 3096 C 315.157 5.53547 1.49577 0
M  V30 3097 N 314.653 6.72461 1.66639 0
M  V30 3098 N 316.446 5.41145 1.52048 0
M  V30 3099 H 308.597 2.07415 -0.457481 0
M  V30 3100 H 310.86 0.9372 -0.142687 0
M  V30 3101 H 310.566 3.51644 0.0629938 0
M  V30 3102 H 310.44 3.31401 1.80148 0
M  V30 3103 H 312.827 2.32235 1.82074 0
M  V30 3104 H 312.908 2.55707 0.0688331 0
M  V30 3105 H 312.552 5.06238 0.410505 0
M  V30 3106 H 312.482 4.79772 2.17086 0
M  V30 3107 H 314.973 3.58963 1.18126 0
M  V30 3108 H 315.286 7.51214 1.81378 0
M  V30 3109 H 313.631 6.75423 1.63794 0
M  V30 3110 H 316.822 4.47205 1.38294 0
M  V30 3111 H 316.995 6.26068 1.67159 0
M  V30 3112 N 310.401 -0.613514 1.45168 0
M  V30 3113 C 311.812 -1.19539 1.43413 0
M  V30 3114 C 312.163 -1.95558 0.158632 0
M  V30 3115 O 311.288 -2.0335 -0.740119 0
M  V30 3116 C 311.883 -2.17445 2.59813 0
M  V30 3117 C 310.442 -2.71022 2.61197 0
M  V30 3118 C 309.589 -1.46323 2.35552 0
M  V30 3119 H 312.54 -0.403163 1.53494 0
M  V30 3120 H 312.561 -3.00373 2.33574 0
M  V30 3121 H 312.073 -1.62089 3.52631 0
M  V30 3122 H 310.174 -3.30332 1.7237 0
M  V30 3123 H 310.287 -3.15859 3.60236 0
M  V30 3124 H 308.651 -1.75072 1.84992 0
M  V30 3125 H 309.434 -0.92844 3.30507 0
M  V30 3126 N 311.879 -1.3236 -0.855495 0
M  V30 3127 C 313.29 -1.2056 -1.42556 0
M  V30 3128 C 313.641 0.182209 -1.95352 0
M  V30 3129 O 312.766 1.08088 -1.87472 0
M  V30 3130 C 313.361 -2.1826 -2.59129 0
M  V30 3131 C 311.92 -2.10351 -3.12137 0
M  V30 3132 C 311.067 -2.06674 -1.84882 0
M  V30 3133 H 314.018 -1.442 -0.662727 0
M  V30 3134 H 314.039 -1.78064 -3.36264 0
M  V30 3135 H 313.551 -3.19257 -2.20673 0
M  V30 3136 H 311.652 -1.12599 -3.55179 0
M  V30 3137 H 311.765 -3.00135 -3.73438 0
M  V30 3138 H 310.129 -1.51901 -2.04446 0
M  V30 3139 H 310.912 -3.09451 -1.48643 0
M  V30 3140 N 313.357 1.07166 -1.15556 0
M  V30 3141 C 314.773 1.31899 -0.898603 0
M  V30 3142 C 314.973 1.96333 0.453383 0
M  V30 3143 O 314.029 2.22438 1.19489 0
M  V30 3144 C 315.342 2.20826 -2.04099 0
M  V30 3145 C 316.89 2.34269 -2.07574 0
M  V30 3146 C 317.365 3.26546 -3.21141 0
M  V30 3147 N 318.856 3.34127 -3.20801 0
M  V30 3148 C 319.591 4.05595 -4.05315 0
M  V30 3149 N 319.087 4.79661 -4.99897 0
M  V30 3150 N 320.88 4.01555 -3.93332 0
M  V30 3151 H 313.031 0.637302 -2.02613 0
M  V30 3152 H 315.294 0.343468 -0.883591 0
M  V30 3153 H 315 1.80744 -3.01703 0
M  V30 3154 H 314.874 3.21364 -1.97496 0
M  V30 3155 H 317.261 2.73603 -1.10568 0
M  V30 3156 H 317.342 1.33429 -2.18244 0
M  V30 3157 H 316.986 2.87931 -4.184 0
M  V30 3158 H 316.916 4.27345 -3.07708 0
M  V30 3159 H 319.407 2.81336 -2.52306 0
M  V30 3160 H 319.72 5.31694 -5.60822 0
M  V30 3161 H 318.065 4.78671 -5.03884 0
M  V30 3162 H 321.256 3.42806 -3.18751 0
M  V30 3163 H 321.429 4.56987 -4.5942 0
M  V30 3164 N 314.835 0.952656 1.25548 0
M  V30 3165 C 316.081 0.607272 1.93494 0
M  V30 3166 C 316.414 -0.853245 1.74452 0
M  V30 3167 O 315.689 -1.61194 1.08843 0
M  V30 3168 C 315.972 0.96435 3.46947 0
M  V30 3169 C 315.825 2.48045 3.75225 0
M  V30 3170 C 317.144 0.487987 4.37386 0
M  V30 3171 H 314.263 0.222096 0.702739 0
M  V30 3172 H 316.905 1.18895 1.48203 0
M  V30 3173 H 315.055 0.469361 3.85654 0
M  V30 3174 H 316.727 3.04905 3.46166 0
M  V30 3175 H 314.97 2.919 3.209 0
M  V30 3176 H 315.641 2.6808 4.82532 0
M  V30 3177 H 318.117 0.912558 4.0597 0
M  V30 3178 H 316.993 0.766547 5.43521 0
M  V30 3179 H 317.254 -0.612063 4.37843 0
M  V30 3180 N 316.313 -1.40141 0.720998 0
M  V30 3181 C 317.223 -2.34486 0.0731031 0
M  V30 3182 C 318.239 -1.57587 -0.737723 0
M  V30 3183 O 319.415 -1.89949 -0.669429 0
M  V30 3184 C 316.48 -3.36528 -0.833656 0
M  V30 3185 C 315.541 -4.29298 -0.0121673 0
M  V30 3186 C 314.774 -5.26466 -0.875742 0
M  V30 3187 O 314.997 -5.29745 -2.11485 0
M  V30 3188 O 313.931 -6.01092 -0.31185 0
M  V30 3189 H 317.757 -2.9152 0.851444 0
M  V30 3190 H 315.342 -1.41427 0.481527 0
M  V30 3191 H 317.224 -3.99093 -1.35289 0
M  V30 3192 H 315.899 -2.81899 -1.59105 0
M  V30 3193 H 314.806 -3.70001 0.552262 0
M  V30 3194 H 316.139 -4.87094 0.707129 0
M  V30 3195 N 317.792 -0.46758 -1.50504 0
M  V30 3196 C 318.755 0.317059 -2.26996 0
M  V30 3197 C 319.755 0.923513 -1.31635 0
M  V30 3198 O 320.945 0.793239 -1.55091 0
M  V30 3199 C 318.077 1.45134 -3.08462 0
M  V30 3200 H 319.27 -0.353723 -2.97807 0
M  V30 3201 H 316.823 -0.221545 -1.54722 0
M  V30 3202 H 317.558 2.15728 -2.4214 0
M  V30 3203 H 317.343 1.02232 -3.78538 0
M  V30 3204 H 318.833 2.00493 -3.66323 0
M  V30 3205 N 319.27 1.56325 -0.20005 0
M  V30 3206 C 320.18 2.22931 0.730668 0
M  V30 3207 C 321.196 1.22997 1.23076 0
M  V30 3208 O 322.372 1.55748 1.27689 0
M  V30 3209 C 319.437 2.87948 1.93098 0
M  V30 3210 C 318.498 4.03166 1.47497 0
M  V30 3211 C 317.731 4.65073 2.61807 0
M  V30 3212 O 317.954 4.25913 3.79413 0
M  V30 3213 O 316.888 5.54452 2.34237 0
M  V30 3214 H 320.714 3.03084 0.193391 0
M  V30 3215 H 318.299 1.49371 0.0294621 0
M  V30 3216 H 320.181 3.29063 2.6324 0
M  V30 3217 H 318.856 2.10771 2.45677 0
M  V30 3218 H 317.763 3.66664 0.742201 0
M  V30 3219 H 319.096 4.82022 0.995796 0
M  V30 3220 N 320.748 -0.0735177 1.57428 0
M  V30 3221 C 321.711 -1.07192 2.02589 0
M  V30 3222 C 322.711 -1.31695 0.922661 0
M  V30 3223 O 323.901 -1.27445 1.18758 0
M  V30 3224 C 321.033 -2.41599 2.40506 0
M  V30 3225 H 322.226 -0.682727 2.92025 0
M  V30 3226 H 319.779 -0.319193 1.53006 0
M  V30 3227 H 320.514 -2.85354 1.5409 0
M  V30 3228 H 320.299 -2.25156 3.21009 0
M  V30 3229 H 321.789 -3.13367 2.76027 0
M  V30 3230 N 322.226 -1.5378 -0.344866 0
M  V30 3231 C 323.454 -1.74899 -1.10534 0
M  V30 3232 C 323.869 -0.487534 -1.82397 0
M  V30 3233 O 323.226 0.540741 -1.74305 0
M  V30 3234 C 323.277 -2.92822 -2.11984 0
M  V30 3235 O 322.998 -4.14089 -1.43044 0
M  V30 3236 C 324.499 -3.25982 -3.00417 0
M  V30 3237 H 321.719 -0.584426 -0.329678 0
M  V30 3238 H 324.263 -2.006 -0.397474 0
M  V30 3239 H 322.418 -2.69457 -2.78338 0
M  V30 3240 H 322.832 -4.80272 -2.10805 0
M  V30 3241 H 324.306 -4.11848 -3.67539 0
M  V30 3242 H 324.783 -2.42228 -3.66363 0
M  V30 3243 H 325.389 -3.51349 -2.39654 0
M  V30 3244 N 323.704 0.605807 -1.45491 0
M  V30 3245 C 324.667 1.69836 -1.5391 0
M  V30 3246 C 325.667 1.55261 -0.418424 0
M  V30 3247 O 326.857 1.60296 -0.681965 0
M  V30 3248 C 323.989 3.09117 -1.43734 0
M  V30 3249 H 325.182 1.63738 -2.51257 0
M  V30 3250 H 322.735 0.821689 -1.32959 0
M  V30 3251 H 323.47 3.20791 -0.475788 0
M  V30 3252 H 323.255 3.21104 -2.25021 0
M  V30 3253 H 324.745 3.88696 -1.52661 0
M  V30 3254 N 325.182 1.32811 0.848464 0
M  V30 3255 C 326.598 1.11937 1.13764 0
M  V30 3256 C 326.798 -0.0960789 2.01271 0
M  V30 3257 O 325.854 -0.779165 2.40178 0
M  V30 3258 C 327.167 2.402 1.809 0
M  V30 3259 C 328.715 2.46016 1.93508 0
M  V30 3260 C 329.19 3.74215 2.64059 0
M  V30 3261 N 330.681 3.75232 2.71579 0
M  V30 3262 C 331.416 4.71134 3.26833 0
M  V30 3263 N 330.912 5.77406 3.8285 0
M  V30 3264 N 332.705 4.58623 3.24995 0
M  V30 3265 H 324.856 2.1073 0.265855 0
M  V30 3266 H 327.119 0.930671 0.180431 0
M  V30 3267 H 326.825 3.29093 1.24058 0
M  V30 3268 H 326.699 2.51628 2.81004 0
M  V30 3269 H 329.086 1.57577 2.49506 0
M  V30 3270 H 329.167 2.38536 0.923811 0
M  V30 3271 H 328.811 4.63031 2.08722 0
M  V30 3272 H 328.741 3.78968 3.65637 0
M  V30 3273 H 331.232 2.98423 2.31845 0
M  V30 3274 H 331.545 6.46632 4.23187 0
M  V30 3275 H 329.89 5.81152 3.81165 0
M  V30 3276 H 333.081 3.74762 2.80484 0
M  V30 3277 H 333.254 5.33535 3.67756 0
M  V30 3278 N 326.66 -1.06551 1.16123 0
M  V30 3279 C 327.623 -2.12132 0.867906 0
M  V30 3280 C 328.623 -1.60224 -0.135944 0
M  V30 3281 O 329.813 -1.73943 0.0946422 0
M  V30 3282 C 326.945 -3.396 0.297419 0
M  V30 3283 H 328.138 -2.39586 1.80385 0
M  V30 3284 H 325.691 -1.22574 0.969812 0
M  V30 3285 H 326.426 -3.17794 -0.64633 0
M  V30 3286 H 326.211 -3.78581 1.02073 0
M  V30 3287 H 327.701 -4.17455 0.110052 0
M  V30 3288 N 328.138 -0.959301 -1.25041 0
M  V30 3289 C 329.068 -0.501388 -2.28053 0
M  V30 3290 C 330.049 0.454673 -1.63911 0
M  V30 3291 O 331.234 0.352618 -1.90972 0
M  V30 3292 C 328.364 0.217224 -3.4662 0
M  V30 3293 C 327.318 -0.654034 -4.22973 0
M  V30 3294 C 326.644 0.195589 -5.34342 0
M  V30 3295 C 327.944 -1.93447 -4.85155 0
M  V30 3296 H 329.638 -1.36238 -2.66608 0
M  V30 3297 H 327.184 -0.656534 -1.28163 0
M  V30 3298 H 329.137 0.548732 -4.17812 0
M  V30 3299 H 327.861 1.1125 -3.07068 0
M  V30 3300 H 326.52 -0.968693 -3.5357 0
M  V30 3301 H 326.168 1.09076 -4.91031 0
M  V30 3302 H 325.868 -0.384091 -5.86343 0
M  V30 3303 H 327.392 0.521958 -6.08365 0
M  V30 3304 H 328.806 -1.66908 -5.48466 0
M  V30 3305 H 327.203 -2.46018 -5.47353 0
M  V30 3306 H 328.273 -2.63466 -4.07079 0
M  V30 3307 N 329.616 1.39756 -0.72842 0
M  V30 3308 C 330.579 2.29012 -0.0927297 0
M  V30 3309 C 331.579 1.45992 0.674025 0
M  V30 3310 O 332.769 1.66749 0.50402 0
M  V30 3311 C 329.901 3.29396 0.878137 0
M  V30 3312 H 331.094 2.86729 -0.879011 0
M  V30 3313 H 328.647 1.48293 -0.493847 0
M  V30 3314 H 329.382 2.76722 1.69101 0
M  V30 3315 H 329.167 3.907 0.331051 0
M  V30 3316 H 330.657 3.96199 1.3197 0
M  V30 3317 N 331.094 0.475555 1.50254 0
M  V30 3318 C 332.024 -0.30611 2.31485 0
M  V30 3319 C 333.005 -0.986228 1.38591 0
M  V30 3320 O 334.19 -0.982541 1.67511 0
M  V30 3321 C 331.32 -1.38588 3.1845 0
M  V30 3322 C 330.274 -0.827115 4.19932 0
M  V30 3323 C 329.6 -2.00551 4.95665 0
M  V30 3324 C 330.9 0.16463 5.2204 0
M  V30 3325 H 332.594 0.371866 2.97082 0
M  V30 3326 H 330.14 0.180282 1.42867 0
M  V30 3327 H 332.093 -1.94023 3.74076 0
M  V30 3328 H 330.817 -2.09269 2.50747 0
M  V30 3329 H 329.476 -0.294702 3.65414 0
M  V30 3330 H 329.124 -2.6994 4.2443 0
M  V30 3331 H 328.824 -1.63784 5.64313 0
M  V30 3332 H 330.348 -2.56468 5.54127 0
M  V30 3333 H 331.762 -0.300699 5.72511 0
M  V30 3334 H 330.159 0.446813 5.98434 0
M  V30 3335 H 331.229 1.08905 4.72512 0
M  V30 3336 N 332.573 -1.56217 0.208337 0
M  V30 3337 C 333.536 -2.18455 -0.693557 0
M  V30 3338 C 334.536 -1.14268 -1.13135 0
M  V30 3339 O 335.726 -1.39577 -1.0423 0
M  V30 3340 C 332.858 -2.79727 -1.94848 0
M  V30 3341 H 334.051 -2.99519 -0.15114 0
M  V30 3342 H 331.604 -1.56245 -0.041287 0
M  V30 3343 H 332.339 -2.02497 -2.53309 0
M  V30 3344 H 332.124 -3.56009 -1.64316 0
M  V30 3345 H 333.614 -3.27475 -2.59133 0
M  V30 3346 N 334.051 0.0651679 -1.57465 0
M  V30 3347 C 334.961 1.09448 -2.07505 0
M  V30 3348 C 335.977 1.41974 -1.00595 0
M  V30 3349 O 337.153 1.52018 -1.32107 0
M  V30 3350 C 334.218 2.38689 -2.51453 0
M  V30 3351 C 333.279 2.13073 -3.72691 0
M  V30 3352 C 332.512 3.36152 -4.14533 0
M  V30 3353 O 332.735 4.45517 -3.56189 0
M  V30 3354 O 331.669 3.23974 -5.07272 0
M  V30 3355 H 335.495 0.69935 -2.95538 0
M  V30 3356 H 333.08 0.279752 -1.46757 0
M  V30 3357 H 334.962 3.14736 -2.80212 0
M  V30 3358 H 333.637 2.77568 -1.66546 0
M  V30 3359 H 332.544 1.34709 -3.49005 0
M  V30 3360 H 333.877 1.79071 -4.5847 0
M  V30 3361 N 335.529 1.53961 0.336706 0
M  V30 3362 C 336.778 1.70751 1.07363 0
M  V30 3363 C 337.091 0.481061 1.89592 0
M  V30 3364 O 338.297 0.530046 2.66276 0
M  V30 3365 C 336.753 3.01965 1.95818 0
M  V30 3366 C 336.361 4.31971 1.18764 0
M  V30 3367 C 338.105 3.28121 2.69327 0
M  V30 3368 C 336.012 5.54255 2.06289 0
M  V30 3369 H 334.942 0.636292 0.404535 0
M  V30 3370 H 337.593 1.80459 0.332681 0
M  V30 3371 H 335.975 2.86132 2.7376 0
M  V30 3372 H 337.149 4.5853 0.456849 0
M  V30 3373 H 335.464 4.12481 0.569946 0
M  V30 3374 H 338.061 4.16673 3.35094 0
M  V30 3375 H 338.404 2.45426 3.36261 0
M  V30 3376 H 338.937 3.44762 1.98454 0
M  V30 3377 H 335.676 6.39513 1.43885 0
M  V30 3378 H 335.196 5.31935 2.77138 0
M  V30 3379 H 336.875 5.90159 2.65182 0
M  V30 3380 N 337.007 -0.598083 1.45811 0
M  V30 3381 C 338.253 -1.35882 1.50545 0
M  V30 3382 C 338.586 -1.93616 0.150445 0
M  V30 3383 O 337.861 -1.75604 -0.83628 0
M  V30 3384 C 338.144 -2.49966 2.59208 0
M  V30 3385 C 337.997 -1.97367 4.04186 0
M  V30 3386 C 339.316 -3.52068 2.64076 0
M  V30 3387 H 336.435 -0.492717 0.548087 0
M  V30 3388 H 339.077 -0.673319 1.77669 0
M  V30 3389 H 337.227 -3.08443 2.3621 0
M  V30 3390 H 338.899 -1.43466 4.38423 0
M  V30 3391 H 337.142 -1.283 4.14393 0
M  V30 3392 H 337.813 -2.79649 4.75921 0
M  V30 3393 H 340.289 -3.03448 2.84708 0
M  V30 3394 H 339.165 -4.2937 3.41954 0
M  V30 3395 H 339.426 -4.08304 1.69531 0
M  V30 3396 N 338.485 -1.33259 -0.841409 0
M  V30 3397 C 339.433 -1.23279 -1.97244 0
M  V30 3398 C 340.427 -0.134706 -1.68864 0
M  V30 3399 O 341.633 -0.298501 -1.77508 0
M  V30 3400 H 338.008 -0.382497 -0.647457 0
M  V30 3401 H 339.979 -2.18906 -2.02787 0
M  V30 3402 C 338.728 -0.986268 -3.33419 0
M  V30 3403 H 338.051 -1.82347 -3.55794 0
M  V30 3404 H 339.491 -0.956728 -4.13065 0
M  V30 3405 C 337.95 0.310842 -3.35463 0
M  V30 3406 O 338.48 1.31838 -3.79449 0
M  V30 3407 N 336.686 0.337485 -2.88634 0
M  V30 3408 H 336.233 -0.482967 -2.53032 0
M  V30 3409 H 336.191 1.20518 -2.90384 0
M  V30 3410 N 339.963 1.05934 -1.16686 0
M  V30 3411 C 340.926 2.11669 -0.879144 0
M  V30 3412 C 341.926 1.60294 0.127445 0
M  V30 3413 O 343.116 1.7389 -0.103865 0
M  V30 3414 C 340.248 3.39438 -0.315425 0
M  V30 3415 H 341.441 2.38626 -1.81653 0
M  V30 3416 H 338.994 1.22058 -0.976299 0
M  V30 3417 H 339.729 3.18132 0.629468 0
M  V30 3418 H 339.514 3.78034 -1.04079 0
M  V30 3419 H 341.004 4.17391 -0.132189 0
M  V30 3420 N 341.441 0.965919 1.2453 0
M  V30 3421 C 342.852 0.665929 1.7442 0
M  V30 3422 C 343.203 -0.818407 1.78316 0
M  V30 3423 O 342.328 -1.64037 1.41141 0
M  V30 3424 C 342.923 1.20211 3.16757 0
M  V30 3425 C 341.482 0.952059 3.6416 0
M  V30 3426 C 340.629 1.33848 2.42858 0
M  V30 3427 H 343.58 1.14144 1.10258 0
M  V30 3428 H 343.601 0.567544 3.76244 0
M  V30 3429 H 343.113 2.28244 3.13889 0
M  V30 3430 H 341.214 -0.112821 3.72429 0
M  V30 3431 H 341.327 1.59645 4.51719 0
M  V30 3432 H 339.691 0.756864 2.43195 0
M  V30 3433 H 340.474 2.42827 2.42673 0
M  V30 3434 N 342.919 -1.39368 0.735821 0
M  V30 3435 C 344.168 -1.99733 0.281004 0
M  V30 3436 C 344.481 -1.59055 -1.13846 0
M  V30 3437 O 345.687 -2.12262 -1.69284 0
M  V30 3438 C 344.143 -3.57057 0.451462 0
M  V30 3439 C 343.751 -4.06697 1.87886 0
M  V30 3440 C 345.495 -4.2446 0.0584616 0
M  V30 3441 C 343.402 -5.56598 1.99883 0
M  V30 3442 H 342.332 -0.747163 0.101311 0
M  V30 3443 H 344.983 -1.59357 0.909819 0
M  V30 3444 H 343.365 -3.95234 -0.246263 0
M  V30 3445 H 344.539 -3.79853 2.60861 0
M  V30 3446 H 342.854 -3.5196 2.22515 0
M  V30 3447 H 345.451 -5.34549 0.127099 0
M  V30 3448 H 345.794 -4.04444 -0.986433 0
M  V30 3449 H 346.327 -3.9146 0.707374 0
M  V30 3450 H 343.066 -5.81494 3.02564 0
M  V30 3451 H 342.586 -5.85242 1.31346 0
M  V30 3452 H 344.265 -6.22022 1.78039 0
M  V30 3453 N 344.397 -0.483516 -1.5 0
M  V30 3454 C 345.627 0.0643896 -2.065 0
M  V30 3455 C 346.035 1.32949 -1.34615 0
M  V30 3456 O 345.378 1.79003 -0.412756 0
M  V30 3457 C 345.44 0.405983 -3.572 0
M  V30 3458 C 345.104 -0.758875 -4.50655 0
M  V30 3459 C 346.101 -1.64445 -4.93208 0
M  V30 3460 C 343.786 -0.952725 -4.93182 0
M  V30 3461 C 345.78 -2.70818 -5.77006 0
M  V30 3462 C 343.467 -2.01966 -5.76761 0
M  V30 3463 C 344.465 -2.89574 -6.18576 0
M  V30 3464 O 344.153 -3.94429 -7.00486 0
M  V30 3465 H 343.885 -0.00934786 -0.675935 0
M  V30 3466 H 346.439 -0.674959 -1.93993 0
M  V30 3467 H 344.669 1.19869 -3.67652 0
M  V30 3468 H 346.358 0.890433 -3.96013 0
M  V30 3469 H 347.124 -1.50643 -4.61012 0
M  V30 3470 H 343.003 -0.280247 -4.60147 0
M  V30 3471 H 346.547 -3.3923 -6.09565 0
M  V30 3472 H 342.444 -2.1577 -6.0837 0
M  V30 3473 H 343.212 -3.91568 -7.1876 0
M  V30 3474 N 345.875 1.56104 -0.216619 0
M  V30 3475 C 347.124 1.97348 0.416744 0
M  V30 3476 C 347.437 1.10715 1.6125 0
M  V30 3477 O 348.643 1.41836 2.31506 0
M  V30 3478 C 347.099 3.51059 0.792835 0
M  V30 3479 C 346.707 4.46387 -0.379828 0
M  V30 3480 C 348.451 4.01026 1.39208 0
M  V30 3481 C 346.358 5.91397 0.0184223 0
M  V30 3482 H 345.288 0.736942 0.159475 0
M  V30 3483 H 347.939 1.80827 -0.31205 0
M  V30 3484 H 346.321 3.63162 1.57891 0
M  V30 3485 H 347.495 4.46029 -1.15737 0
M  V30 3486 H 345.81 4.06734 -0.891979 0
M  V30 3487 H 348.407 5.0686 1.70286 0
M  V30 3488 H 348.75 3.46587 2.30614 0
M  V30 3489 H 349.283 3.92125 0.669537 0
M  V30 3490 H 346.022 6.49807 -0.862002 0
M  V30 3491 H 345.542 5.94961 0.760384 0
M  V30 3492 H 347.221 6.45455 0.446818 0
M  V30 3493 N 347.353 -0.0568162 1.57498 0
M  V30 3494 C 348.599 -0.75422 1.88253 0
M  V30 3495 C 348.932 -1.76461 0.810865 0
M  V30 3496 O 348.207 -1.93691 -0.177259 0
M  V30 3497 C 348.49 -1.44878 3.2967 0
M  V30 3498 C 348.343 -0.453789 4.47505 0
M  V30 3499 C 349.662 -2.38994 3.69554 0
M  V30 3500 H 346.781 -0.272724 0.684683 0
M  V30 3501 H 349.423 -0.0172113 1.89992 0
M  V30 3502 H 347.573 -2.077 3.28318 0
M  V30 3503 H 349.245 0.170371 4.60985 0
M  V30 3504 H 347.488 0.229552 4.33192 0
M  V30 3505 H 348.159 -0.977699 5.43273 0
M  V30 3506 H 350.635 -1.86239 3.72095 0
M  V30 3507 H 349.511 -2.84587 4.69363 0
M  V30 3508 H 349.772 -3.24461 3.00296 0
M  V30 3509 N 348.832 -1.54138 -0.328536 0
M  V30 3510 C 349.782 -1.79557 -1.4051 0
M  V30 3511 C 350.766 -0.651373 -1.47126 0
M  V30 3512 O 351.958 -0.911226 -1.51742 0
M  V30 3513 C 349.087 -2.02196 -2.77438 0
M  V30 3514 C 348.173 -3.22724 -2.75155 0
M  V30 3515 N 348.564 -4.43881 -2.42494 0
M  V30 3516 C 346.862 -3.24196 -3.06289 0
M  V30 3517 C 347.563 -5.25797 -2.48822 0
M  V30 3518 N 346.539 -4.62862 -2.8506 0
M  V30 3519 H 350.341 -2.70814 -1.1418 0
M  V30 3520 H 347.855 -1.53265 -0.536991 0
M  V30 3521 H 349.852 -2.18546 -3.55026 0
M  V30 3522 H 348.512 -1.12191 -3.04702 0
M  V30 3523 H 349.523 -4.70969 -2.15428 0
M  V30 3524 H 346.2 -2.44208 -3.38627 0
M  V30 3525 H 347.59 -6.32535 -2.26603 0
M  V30 3526 N 350.31 0.590341 -1.46126 0
M  V30 3527 C 351.556 1.35082 -1.51264 0
M  V30 3528 C 351.889 1.93534 -0.160711 0
M  V30 3529 O 351.164 1.76045 0.826956 0
M  V30 3530 C 351.447 2.48588 -2.6053 0
M  V30 3531 C 351.3 1.95221 -4.05227 0
M  V30 3532 C 352.619 3.50662 -2.6594 0
M  V30 3533 H 349.738 0.489803 -0.550692 0
M  V30 3534 H 352.38 0.663887 -1.78024 0
M  V30 3535 H 350.53 3.07186 -2.37843 0
M  V30 3536 H 352.202 1.41139 -4.39178 0
M  V30 3537 H 350.445 1.26101 -4.15068 0
M  V30 3538 H 351.116 2.77121 -4.77397 0
M  V30 3539 H 353.592 3.01934 -2.86313 0
M  V30 3540 H 352.468 4.27551 -3.44226 0
M  V30 3541 H 352.729 4.07399 -1.71694 0
M  V30 3542 N 351.788 1.33704 0.83433 0
M  V30 3543 C 353.016 1.28467 1.62185 0
M  V30 3544 C 353.431 -0.143526 1.88254 0
M  V30 3545 O 352.788 -1.08709 1.4659 0
M  V30 3546 C 352.839 2.06174 2.96942 0
M  V30 3547 O 352.56 3.43422 2.72016 0
M  V30 3548 C 354.061 2.08201 3.91366 0
M  V30 3549 H 351.281 0.4424 0.504503 0
M  V30 3550 H 353.825 1.76145 1.03891 0
M  V30 3551 H 351.98 1.62167 3.51825 0
M  V30 3552 H 352.394 3.83453 3.57861 0
M  V30 3553 H 353.868 2.67017 4.83121 0
M  V30 3554 H 354.345 1.07343 4.2588 0
M  V30 3555 H 354.951 2.52246 3.42421 0
M  V30 3556 N 353.266 -1.05314 1.17247 0
M  V30 3557 C 354.506 -1.79869 0.970898 0
M  V30 3558 C 354.87 -1.85594 -0.491808 0
M  V30 3559 O 356.071 -2.56229 -0.812409 0
M  V30 3560 C 354.342 -3.19937 1.59295 0
M  V30 3561 S 355.901 -4.10986 1.53741 0
M  V30 3562 H 352.719 -0.61949 0.348931 0
M  V30 3563 H 355.321 -1.26368 1.49169 0
M  V30 3564 H 354.025 -3.13372 2.65003 0
M  V30 3565 H 353.556 -3.78515 1.07191 0
M  V30 3566 H 355.571 -4.93203 0.544537 0
M  V30 3567 N 354.744 -0.972509 -1.24016 0
M  V30 3568 C 355.654 -0.5143 -2.28893 0
M  V30 3569 C 356.67 0.427078 -1.68677 0
M  V30 3570 O 357.846 0.298939 -1.99169 0
M  V30 3571 C 354.911 0.183598 -3.46214 0
M  V30 3572 C 353.972 -0.798202 -4.21814 0
M  V30 3573 C 353.205 -0.133514 -5.33533 0
M  V30 3574 O 353.428 1.07714 -5.60137 0
M  V30 3575 O 352.362 -0.828103 -5.96176 0
M  V30 3576 H 356.188 -1.38629 -2.70214 0
M  V30 3577 H 353.773 -0.739769 -1.29799 0
M  V30 3578 H 355.655 0.575433 -4.17453 0
M  V30 3579 H 354.33 1.03048 -3.0686 0
M  V30 3580 H 353.237 -1.24059 -3.52931 0
M  V30 3581 H 354.57 -1.61364 -4.64997 0
M  V30 3582 N 356.222 1.38976 -0.743202 0
M  V30 3583 C 357.132 2.3434 -0.110399 0
M  V30 3584 C 358.148 1.58741 0.712559 0
M  V30 3585 O 359.324 1.9099 0.639125 0
M  V30 3586 C 356.389 3.37812 0.780012 0
M  V30 3587 C 355.45 4.29263 -0.0561319 0
M  V30 3588 C 354.683 5.27793 0.791875 0
M  V30 3589 O 354.906 5.33043 2.03031 0
M  V30 3590 O 353.84 6.01512 0.216183 0
M  V30 3591 H 357.666 2.90129 -0.897714 0
M  V30 3592 H 355.251 1.40643 -0.503966 0
M  V30 3593 H 357.133 4.01194 1.28923 0
M  V30 3594 H 355.808 2.84395 1.546 0
M  V30 3595 H 354.715 3.69076 -0.611056 0
M  V30 3596 H 356.048 4.85907 -0.784531 0
M  V30 3597 N 357.7 0.491464 1.49741 0
M  V30 3598 C 358.925 -0.0557177 2.07325 0
M  V30 3599 C 359.35 -1.30925 1.35056 0
M  V30 3600 O 358.708 -1.76733 0.404365 0
M  V30 3601 C 358.756 -0.302074 3.59333 0
M  V30 3602 O 357.86 -1.37868 3.88672 0
M  V30 3603 H 357.201 0.0219956 0.663636 0
M  V30 3604 H 359.731 0.688352 1.92673 0
M  V30 3605 H 359.741 -0.536464 4.04458 0
M  V30 3606 H 358.416 0.61383 4.11345 0
M  V30 3607 H 356.993 -1.12999 3.55367 0
M  V30 3608 N 359.178 -1.55987 0.224894 0
M  V30 3609 C 360.108 -2.23426 -0.678457 0
M  V30 3610 C 361.089 -1.20709 -1.19847 0
M  V30 3611 O 362.274 -1.49304 -1.24186 0
M  V30 3612 C 359.404 -2.91676 -1.88527 0
M  V30 3613 C 358.358 -4.00893 -1.49896 0
M  V30 3614 C 357.684 -4.56455 -2.78483 0
M  V30 3615 C 358.984 -5.17769 -0.686461 0
M  V30 3616 H 360.678 -2.99175 -0.116173 0
M  V30 3617 H 358.224 -1.43897 -0.054436 0
M  V30 3618 H 360.177 -3.37547 -2.5227 0
M  V30 3619 H 358.901 -2.1338 -2.47258 0
M  V30 3620 H 357.56 -3.55758 -0.884985 0
M  V30 3621 H 357.208 -3.74886 -3.35365 0
M  V30 3622 H 356.908 -5.30169 -2.53368 0
M  V30 3623 H 358.432 -5.05047 -3.43162 0
M  V30 3624 H 359.846 -5.60001 -1.22767 0
M  V30 3625 H 358.243 -5.97735 -0.532259 0
M  V30 3626 H 359.313 -4.83932 0.306196 0
M  V30 3627 N 360.656 0.0484629 -1.57525 0
M  V30 3628 C 361.566 1.07241 -2.08654 0
M  V30 3629 C 362.582 1.409 -1.02095 0
M  V30 3630 O 363.758 1.50609 -1.33712 0
M  V30 3631 C 360.823 2.36008 -2.5397 0
M  V30 3632 C 359.884 2.09108 -3.7493 0
M  V30 3633 C 359.117 3.31736 -4.18075 0
M  V30 3634 O 359.34 4.41714 -3.60895 0
M  V30 3635 O 358.274 3.18576 -5.10679 0
M  V30 3636 H 362.1 0.667965 -2.96263 0
M  V30 3637 H 359.685 0.26417 -1.47046 0
M  V30 3638 H 361.567 3.11747 -2.83535 0
M  V30 3639 H 360.242 2.75786 -1.69481 0
M  V30 3640 H 359.149 1.31 -3.50414 0
M  V30 3641 H 360.482 1.74198 -4.60343 0
M  V30 3642 N 362.134 1.5431 0.320358 0
M  V30 3643 C 363.044 1.86946 1.41734 0
M  V30 3644 C 364.06 0.761689 1.56443 0
M  V30 3645 O 365.236 1.05629 1.71477 0
M  V30 3646 C 362.301 2.09293 2.76401 0
M  V30 3647 C 361.362 3.33082 2.70841 0
M  V30 3648 C 360.595 3.54353 3.99086 0
M  V30 3649 O 360.818 2.79002 4.97508 0
M  V30 3650 O 359.752 4.47838 4.0215 0
M  V30 3651 H 363.578 2.80232 1.17062 0
M  V30 3652 H 361.163 1.40255 0.514673 0
M  V30 3653 H 363.045 2.25303 3.56113 0
M  V30 3654 H 361.72 1.19194 3.00956 0
M  V30 3655 H 360.627 3.22454 1.89668 0
M  V30 3656 H 361.96 4.23249 2.5124 0
M  V30 3657 N 363.613 -0.582584 1.46437 0
M  V30 3658 C 364.859 -1.34278 1.51978 0
M  V30 3659 C 365.192 -1.93446 0.170973 0
M  V30 3660 O 364.467 -1.76481 -0.817608 0
M  V30 3661 C 364.75 -2.47203 2.61845 0
M  V30 3662 C 364.603 -1.93069 4.06257 0
M  V30 3663 C 365.922 -3.49247 2.67795 0
M  V30 3664 H 363.041 -0.486876 0.553282 0
M  V30 3665 H 365.683 -0.654437 1.78374 0
M  V30 3666 H 363.833 -3.0592 2.39469 0
M  V30 3667 H 365.505 -1.38808 4.3992 0
M  V30 3668 H 363.748 -1.23898 4.1573 0
M  V30 3669 H 364.419 -2.74586 4.7886 0
M  V30 3670 H 366.895 -3.00411 2.8791 0
M  V30 3671 H 365.771 -4.25719 3.46489 0
M  V30 3672 H 366.032 -4.06482 1.73852 0
M  V30 3673 N 365.091 -1.34144 -0.827227 0
M  V30 3674 C 366.024 -1.19707 -1.94282 0
M  V30 3675 C 367.002 -0.0897256 -1.62352 0
M  V30 3676 O 368.186 -0.254095 -1.8678 0
M  V30 3677 C 365.313 -0.838646 -3.28153 0
M  V30 3678 C 364.359 -1.95514 -3.79047 0
M  V30 3679 S 365.192 -3.56793 -3.99323 0
M  V30 3680 C 366.348 -3.22983 -5.36127 0
M  V30 3681 H 366.581 -2.1414 -2.06231 0
M  V30 3682 H 364.114 -1.19121 -0.982321 0
M  V30 3683 H 366.072 -0.638637 -4.05502 0
M  V30 3684 H 364.733 0.0872776 -3.13979 0
M  V30 3685 H 363.926 -1.658 -4.75948 0
M  V30 3686 H 363.528 -2.11241 -3.08631 0
M  V30 3687 H 365.82 -2.74531 -6.19386 0
M  V30 3688 H 366.763 -4.19008 -5.70822 0
M  V30 3689 H 367.171 -2.59276 -5.01434 0
M  V30 3690 N 366.569 1.04691 -1.17803 0
M  V30 3691 C 367.985 1.29963 -0.926379 0
M  V30 3692 C 368.185 1.97251 0.411635 0
M  V30 3693 O 367.241 2.24922 1.14744 0
M  V30 3694 C 368.554 2.16447 -2.08737 0
M  V30 3695 C 370.102 2.29814 -2.12496 0
M  V30 3696 C 370.577 3.19661 -3.27995 0
M  V30 3697 N 372.068 3.27247 -3.27816 0
M  V30 3698 C 372.803 3.96906 -4.13827 0
M  V30 3699 N 372.299 4.6895 -5.09959 0
M  V30 3700 N 374.092 3.93122 -4.01761 0
M  V30 3701 H 366.243 0.594182 -2.0392 0
M  V30 3702 H 368.506 0.324649 -0.890678 0
M  V30 3703 H 368.212 1.74304 -3.05469 0
M  V30 3704 H 368.086 3.17103 -2.04268 0
M  V30 3705 H 370.473 2.71196 -1.16347 0
M  V30 3706 H 370.554 1.2877 -2.21025 0
M  V30 3707 H 370.198 2.78991 -4.24413 0
M  V30 3708 H 370.128 4.20722 -3.16703 0
M  V30 3709 H 372.619 2.75921 -2.58217 0
M  V30 3710 H 372.932 5.19679 -5.71974 0
M  V30 3711 H 371.277 4.67875 -5.13924 0
M  V30 3712 H 374.468 3.35967 -3.2595 0
M  V30 3713 H 374.641 4.47139 -4.6901 0
M  V30 3714 N 368.047 0.979072 1.23499 0
M  V30 3715 C 369.01 0.523244 2.23147 0
M  V30 3716 C 370.01 -0.386406 1.56088 0
M  V30 3717 O 371.2 -0.180283 1.73265 0
M  V30 3718 C 368.332 -0.240739 3.40049 0
M  V30 3719 H 369.525 1.40432 2.64989 0
M  V30 3720 H 367.078 0.764824 1.36309 0
M  V30 3721 H 367.813 -1.13841 3.03662 0
M  V30 3722 H 367.598 0.412207 3.89927 0
M  V30 3723 H 369.088 -0.548297 4.13985 0
M  V30 3724 N 369.525 -1.3858 0.750561 0
M  V30 3725 C 370.472 -2.30483 0.120835 0
M  V30 3726 C 371.442 -1.50022 -0.712923 0
M  V30 3727 O 372.627 -1.78662 -0.669676 0
M  V30 3728 C 369.767 -3.36431 -0.768666 0
M  V30 3729 C 368.88 -4.31927 0.0793922 0
M  V30 3730 C 368.015 -5.24944 -0.81283 0
M  V30 3731 C 367.054 -6.12088 0.0390447 0
M  V30 3732 N 366.191 -6.97412 -0.809969 0
M  V30 3733 H 371.031 -2.83761 0.91015 0
M  V30 3734 H 368.568 -1.39707 0.460463 0
M  V30 3735 H 370.526 -3.96462 -1.29898 0
M  V30 3736 H 369.156 -2.8457 -1.5238 0
M  V30 3737 H 368.208 -3.73382 0.727303 0
M  V30 3738 H 369.52 -4.93319 0.737401 0
M  V30 3739 H 368.674 -5.90078 -1.41042 0
M  V30 3740 H 367.413 -4.63911 -1.50458 0
M  V30 3741 H 366.418 -5.45952 0.649328 0
M  V30 3742 H 367.643 -6.75189 0.727809 0
M  V30 3743 H 365.589 -6.38931 -1.48672 0
M  V30 3744 H 365.506 -7.55712 -0.208789 0
M  V30 3745 H 366.774 -7.66959 -1.39263 0
M  V30 3746 N 371.003 -0.499398 -1.49478 0
M  V30 3747 C 372.228 0.044722 -2.07352 0
M  V30 3748 C 372.653 1.30207 -1.35749 0
M  V30 3749 O 372.011 1.76516 -0.413732 0
M  V30 3750 C 372.059 0.283013 -3.59488 0
M  V30 3751 O 371.163 1.35804 -3.89398 0
M  V30 3752 H 370.504 -0.0255147 -0.66351 0
M  V30 3753 H 373.034 -0.698561 -1.92305 0
M  V30 3754 H 373.044 0.515007 -4.04737 0
M  V30 3755 H 371.719 -0.635636 -4.11014 0
M  V30 3756 H 370.296 1.11113 -3.55961 0
M  V30 3757 N 372.481 1.55866 -0.233164 0
M  V30 3758 C 373.897 1.59133 0.121988 0
M  V30 3759 C 374.097 1.25016 1.58029 0
M  V30 3760 O 373.153 0.990922 2.32243 0
M  V30 3761 C 374.466 2.99932 -0.214792 0
M  V30 3762 C 376.014 3.12601 -0.157971 0
M  V30 3763 C 376.489 4.55597 -0.46859 0
M  V30 3764 N 377.98 4.61305 -0.418585 0
M  V30 3765 C 378.715 5.69903 -0.63227 0
M  V30 3766 N 378.211 6.86819 -0.90835 0
M  V30 3767 N 380.004 5.59264 -0.563913 0
M  V30 3768 H 372.155 1.76315 -1.18434 0
M  V30 3769 H 374.418 0.820093 -0.475553 0
M  V30 3770 H 374.124 3.29588 -1.22739 0
M  V30 3771 H 373.998 3.74327 0.464691 0
M  V30 3772 H 376.385 2.82735 0.845283 0
M  V30 3773 H 376.466 2.40511 -0.871102 0
M  V30 3774 H 376.11 4.86182 -1.46934 0
M  V30 3775 H 376.04 5.25928 0.265865 0
M  V30 3776 H 378.531 3.77297 -0.213368 0
M  V30 3777 H 378.844 7.65507 -1.05919 0
M  V30 3778 H 377.189 6.88536 -0.945673 0
M  V30 3779 H 380.38 4.66802 -0.348372 0
M  V30 3780 H 380.553 6.43831 -0.733847 0
M  V30 3781 N 373.959 -0.0401083 1.57549 0
M  V30 3782 C 375.207 -0.731677 1.8839 0
M  V30 3783 C 375.528 -1.76481 0.829425 0
M  V30 3784 O 374.798 -1.95411 -0.1383 0
M  V30 3785 H 373.378 -0.273225 0.695239 0
M  V30 3786 H 376.04 -0.00867725 1.94898 0
M  V30 3787 H 375.136 -1.22816 2.86919 0
M  V30 3788 N 375.437 -1.54477 -0.31217 0
M  V30 3789 C 376.683 -1.73483 -1.0503 0
M  V30 3790 C 377.016 -0.513125 -1.87298 0
M  V30 3791 O 376.291 0.489864 -1.8823 0
M  V30 3792 C 376.574 -3.01723 -1.96558 0
M  V30 3793 C 376.427 -4.3417 -1.17545 0
M  V30 3794 C 377.746 -3.25772 -2.95907 0
M  V30 3795 H 374.865 -0.631222 -0.380432 0
M  V30 3796 H 377.507 -1.87184 -0.325932 0
M  V30 3797 H 375.657 -2.90174 -2.58324 0
M  V30 3798 H 377.329 -4.5762 -0.581513 0
M  V30 3799 H 375.572 -4.31159 -0.477925 0
M  V30 3800 H 376.243 -5.20143 -1.84811 0
M  V30 3801 H 378.719 -3.36857 -2.44267 0
M  V30 3802 H 377.595 -4.16838 -3.57123 0
M  V30 3803 H 377.856 -2.43537 -3.68974 0
M  V30 3804 N 376.915 0.57481 -1.46744 0
M  V30 3805 C 378.331 0.898981 -1.31873 0
M  V30 3806 C 378.531 1.99313 -0.29605 0
M  V30 3807 O 377.587 2.50728 0.298621 0
M  V30 3808 C 378.9 1.30886 -2.7072 0
M  V30 3809 C 380.448 1.42127 -2.78871 0
M  V30 3810 C 380.923 1.86478 -4.18318 0
M  V30 3811 N 382.414 1.93658 -4.20774 0
M  V30 3812 C 383.149 2.29267 -5.2557 0
M  V30 3813 N 382.645 2.63612 -6.40688 0
M  V30 3814 N 384.438 2.29889 -5.1294 0
M  V30 3815 H 376.589 -0.147839 -2.11885 0
M  V30 3816 H 378.852 -0.00347013 -0.947994 0
M  V30 3817 H 378.558 0.578853 -3.46904 0
M  V30 3818 H 378.432 2.26874 -3.01343 0
M  V30 3819 H 380.819 2.14213 -2.0297 0
M  V30 3820 H 380.9 0.443705 -2.51922 0
M  V30 3821 H 380.544 1.14968 -4.94717 0
M  V30 3822 H 380.474 2.85207 -4.42679 0
M  V30 3823 H 382.965 1.69574 -3.37718 0
M  V30 3824 H 383.278 2.89759 -7.16421 0
M  V30 3825 H 381.623 2.61232 -6.44036 0
M  V30 3826 H 384.814 2.02485 -4.22039 0
M  V30 3827 H 384.987 2.57312 -5.94722 0
M  V30 3828 N 378.394 1.34581 0.820102 0
M  V30 3829 C 379.357 1.2628 1.91275 0
M  V30 3830 C 380.357 0.177344 1.59819 0
M  V30 3831 O 381.547 0.430156 1.68806 0
M  V30 3832 C 378.679 0.950327 3.27386 0
M  V30 3833 H 379.872 2.23421 2.00057 0
M  V30 3834 H 377.425 1.1891 1.0144 0
M  V30 3835 H 378.16 -0.0177938 3.24295 0
M  V30 3836 H 377.945 1.73549 3.51601 0
M  V30 3837 H 379.435 0.917492 4.07396 0
M  V30 3838 N 379.872 -1.04064 1.18357 0
M  V30 3839 C 380.802 -2.14001 0.934113 0
M  V30 3840 C 381.783 -1.69616 -0.128186 0
M  V30 3841 O 382.968 -1.94185 0.0244093 0
M  V30 3842 C 380.098 -3.44253 0.459066 0
M  V30 3843 C 379.052 -4.02261 1.46185 0
M  V30 3844 C 378.378 -5.27992 0.844322 0
M  V30 3845 C 379.678 -4.38432 2.83856 0
M  V30 3846 H 381.372 -2.35127 1.85352 0
M  V30 3847 H 378.918 -1.12998 0.892604 0
M  V30 3848 H 380.871 -4.20522 0.271907 0
M  V30 3849 H 379.595 -3.22813 -0.495912 0
M  V30 3850 H 378.254 -3.28074 1.63595 0
M  V30 3851 H 377.902 -5.02862 -0.117845 0
M  V30 3852 H 377.602 -5.67765 1.51384 0
M  V30 3853 H 379.126 -6.06938 0.667693 0
M  V30 3854 H 380.54 -5.05688 2.70098 0
M  V30 3855 H 378.937 -4.89254 3.47491 0
M  V30 3856 H 380.007 -3.4826 3.37406 0
M  V30 3857 N 381.35 -0.985608 -1.22978 0
M  V30 3858 C 382.313 -0.535071 -2.22867 0
M  V30 3859 C 383.313 0.378123 -1.56291 0
M  V30 3860 O 384.503 0.171092 -1.73358 0
M  V30 3861 C 381.635 0.222702 -3.40172 0
M  V30 3862 H 382.828 -1.41835 -2.6424 0
M  V30 3863 H 380.381 -0.772042 -1.35901 0
M  V30 3864 H 381.116 1.12229 -3.04262 0
M  V30 3865 H 380.901 -0.43288 -3.89703 0
M  V30 3866 H 382.391 0.526335 -4.1427 0
M  V30 3867 N 382.828 1.3818 -0.7579 0
M  V30 3868 C 383.738 2.3421 -0.135247 0
M  V30 3869 C 384.754 1.59487 0.695683 0
M  V30 3870 O 385.93 1.91657 0.618832 0
M  V30 3871 C 382.995 3.3862 0.744139 0
M  V30 3872 C 382.056 4.2918 -0.101658 0
M  V30 3873 C 381.289 5.28603 0.735851 0
M  V30 3874 O 381.512 5.35166 1.97366 0
M  V30 3875 O 380.446 6.01707 0.152372 0
M  V30 3876 H 384.272 2.8916 -0.928436 0
M  V30 3877 H 381.857 1.40101 -0.518855 0
M  V30 3878 H 383.739 4.02539 1.2466 0
M  V30 3879 H 382.414 2.86019 1.51575 0
M  V30 3880 H 381.321 3.68407 -0.650167 0
M  V30 3881 H 382.654 4.85048 -0.836024 0
M  V30 3882 N 384.306 0.507319 1.49211 0
M  V30 3883 C 385.534 -0.0315749 2.06876 0
M  V30 3884 C 385.949 -1.30241 1.36685 0
M  V30 3885 O 385.306 -1.76937 0.447152 0
M  V30 3886 C 385.357 -0.282627 3.60393 0
M  V30 3887 O 385.078 0.937835 4.27944 0
M  V30 3888 C 386.579 -0.864453 4.3479 0
M  V30 3889 H 383.799 0.0233048 0.670595 0
M  V30 3890 H 386.343 0.706484 1.91909 0
M  V30 3891 H 384.498 -0.97068 3.75042 0
M  V30 3892 H 384.912 0.704567 5.19746 0
M  V30 3893 H 386.386 -0.989664 5.43056 0
M  V30 3894 H 386.863 -1.86382 3.97692 0
M  V30 3895 H 387.469 -0.213672 4.24763 0
M  V30 3896 N 385.784 -1.5574 0.241426 0
M  V30 3897 C 387.024 -2.00714 -0.38644 0
M  V30 3898 C 387.388 -1.12586 -1.55526 0
M  V30 3899 O 388.589 -1.46992 -2.25048 0
M  V30 3900 C 386.86 -3.48534 -0.791128 0
M  V30 3901 S 388.419 -4.15519 -1.41029 0
M  V30 3902 H 385.237 -0.700484 -0.121834 0
M  V30 3903 H 387.839 -1.92243 0.355377 0
M  V30 3904 H 386.543 -4.10342 0.0689225 0
M  V30 3905 H 386.074 -3.6092 -1.56526 0
M  V30 3906 H 388.089 -4.16352 -2.69936 0
M  V30 3907 N 387.262 0.0317525 -1.57568 0
M  V30 3908 C 388.49 0.734949 -1.93407 0
M  V30 3909 C 388.905 1.69036 -0.84096 0
M  V30 3910 O 388.262 1.81582 0.182836 0
M  V30 3911 C 388.313 1.49432 -3.29169 0
M  V30 3912 O 388.034 0.577261 -4.3428 0
M  V30 3913 C 389.535 2.29492 -3.79273 0
M  V30 3914 H 386.755 0.206706 -0.638368 0
M  V30 3915 H 389.299 -0.00992046 -2.04498 0
M  V30 3916 H 387.454 2.1911 -3.19483 0
M  V30 3917 H 387.868 1.10952 -5.1263 0
M  V30 3918 H 389.342 2.78172 -4.76785 0
M  V30 3919 H 389.819 3.10794 -3.10328 0
M  V30 3920 H 390.425 1.64894 -3.92033 0
M  V30 3921 N 388.74 1.54641 0.303973 0
M  V30 3922 C 389.69 1.8177 1.37636 0
M  V30 3923 C 390.674 0.674697 1.46071 0
M  V30 3924 O 391.866 0.935251 1.50273 0
M  V30 3925 C 388.995 2.06584 2.74186 0
M  V30 3926 C 388.081 3.2706 2.69986 0
M  V30 3927 N 388.472 4.47682 2.35402 0
M  V30 3928 C 386.77 3.29028 3.01092 0
M  V30 3929 C 387.471 5.29689 2.40426 0
M  V30 3930 N 386.447 4.67339 2.7766 0
M  V30 3931 H 390.249 2.72596 1.09857 0
M  V30 3932 H 387.763 1.541 0.51254 0
M  V30 3933 H 389.76 2.24166 3.51504 0
M  V30 3934 H 388.42 1.17024 3.02879 0
M  V30 3935 H 389.431 4.74336 2.07908 0
M  V30 3936 H 386.108 2.49565 3.34699 0
M  V30 3937 H 387.498 6.3606 2.16512 0
M  V30 3938 N 390.218 -0.567019 1.47046 0
M  V30 3939 C 391.448 -1.34831 1.56538 0
M  V30 3940 C 391.856 -1.8802 0.21101 0
M  V30 3941 O 391.199 -1.65152 -0.804387 0
M  V30 3942 C 391.261 -2.56139 2.52256 0
M  V30 3943 C 390.925 -2.24307 3.98165 0
M  V30 3944 C 391.922 -1.82192 4.86931 0
M  V30 3945 C 389.607 -2.35968 4.43423 0
M  V30 3946 C 391.601 -1.52153 6.18973 0
M  V30 3947 C 389.288 -2.05542 5.75496 0
M  V30 3948 C 390.286 -1.63701 6.63092 0
M  V30 3949 O 389.974 -1.33657 7.92711 0
M  V30 3950 H 389.706 -0.417683 0.531523 0
M  V30 3951 H 392.26 -0.694726 1.93294 0
M  V30 3952 H 390.49 -3.24356 2.10548 0
M  V30 3953 H 392.179 -3.18214 2.51982 0
M  V30 3954 H 392.945 -1.72684 4.53217 0
M  V30 3955 H 388.824 -2.67495 3.75456 0
M  V30 3956 H 392.368 -1.19421 6.87302 0
M  V30 3957 H 388.265 -2.14679 6.08755 0
M  V30 3958 H 389.033 -1.4737 8.05124 0
M  V30 3959 N 391.696 -1.35014 -0.812953 0
M  V30 3960 C 392.626 -1.30069 -1.93919 0
M  V30 3961 C 393.607 -0.176275 -1.69184 0
M  V30 3962 O 394.792 -0.370227 -1.90638 0
M  V30 3963 C 391.922 -1.06547 -3.30552 0
M  V30 3964 C 390.876 -2.15561 -3.69753 0
M  V30 3965 C 390.202 -1.77214 -5.04479 0
M  V30 3966 C 391.502 -3.57476 -3.808 0
M  V30 3967 H 393.196 -2.24303 -1.98314 0
M  V30 3968 H 390.742 -1.07977 -0.952736 0
M  V30 3969 H 392.695 -1.01729 -4.08937 0
M  V30 3970 H 391.419 -0.0875719 -3.26483 0
M  V30 3971 H 390.078 -2.19466 -2.9365 0
M  V30 3972 H 389.726 -0.780589 -4.96906 0
M  V30 3973 H 389.426 -2.50184 -5.31678 0
M  V30 3974 H 390.95 -1.7391 -5.8531 0
M  V30 3975 H 392.364 -3.55929 -4.4943 0
M  V30 3976 H 390.761 -4.29152 -4.19462 0
M  V30 3977 H 391.831 -3.94091 -2.82525 0
M  V30 3978 N 393.175 1.03435 -1.18907 0
M  V30 3979 C 394.405 1.8012 -1.01195 0
M  V30 3980 C 394.813 1.8395 0.442613 0
M  V30 3981 O 394.156 1.27836 1.31923 0
M  V30 3982 C 394.218 3.26792 -1.49823 0
M  V30 3983 C 393.882 3.46609 -2.97844 0
M  V30 3984 C 394.879 3.37278 -3.95651 0
M  V30 3985 C 392.564 3.73001 -3.36416 0
M  V30 3986 C 394.558 3.54054 -5.30023 0
M  V30 3987 C 392.245 3.89423 -4.70949 0
M  V30 3988 C 393.243 3.79951 -5.67562 0
M  V30 3989 O 392.931 3.95895 -6.99659 0
M  V30 3990 H 392.663 0.573865 -0.357289 0
M  V30 3991 H 395.217 1.31207 -1.58031 0
M  V30 3992 H 393.447 3.76703 -0.873578 0
M  V30 3993 H 395.136 3.85055 -1.28404 0
M  V30 3994 H 395.902 3.16846 -3.67197 0
M  V30 3995 H 391.781 3.79469 -2.61772 0
M  V30 3996 H 395.325 3.46577 -6.05417 0
M  V30 3997 H 391.222 4.09351 -4.99101 0
M  V30 3998 H 391.99 4.13019 -7.06653 0
M  V30 3999 N 394.653 0.992116 1.22453 0
M  V30 4000 C 395.583 0.561677 2.26644 0
M  V30 4001 C 396.564 -0.411055 1.65059 0
M  V30 4002 O 397.749 -0.301861 1.9184 0
M  V30 4003 C 394.879 -0.125247 3.47074 0
M  V30 4004 C 393.833 0.765948 4.21091 0
M  V30 4005 C 393.159 -0.0538484 5.34673 0
M  V30 4006 C 394.459 2.06242 4.79856 0
M  V30 4007 H 396.153 1.43259 2.62902 0
M  V30 4008 H 393.699 0.690283 1.26377 0
M  V30 4009 H 395.652 -0.437764 4.1912 0
M  V30 4010 H 394.376 -1.03069 3.0991 0
M  V30 4011 H 393.035 1.0621 3.50878 0
M  V30 4012 H 392.683 -0.960188 4.9375 0
M  V30 4013 H 392.383 0.539415 5.85119 0
M  V30 4014 H 393.907 -0.360477 6.09535 0
M  V30 4015 H 395.321 1.8139 5.43848 0
M  V30 4016 H 393.718 2.60444 5.40638 0
M  V30 4017 H 394.788 2.74167 3.99951 0
M  V30 4018 N 396.131 -1.37776 0.765217 0
M  V30 4019 C 397.359 -2.04124 0.337767 0
M  V30 4020 C 397.774 -1.57715 -1.03785 0
M  V30 4021 O 397.131 -0.755447 -1.6613 0
M  V30 4022 C 397.182 -3.59658 0.364442 0
M  V30 4023 O 396.903 -4.04367 1.68579 0
M  V30 4024 C 398.404 -4.43236 -0.0754221 0
M  V30 4025 H 395.624 -0.655696 0.142491 0
M  V30 4026 H 398.168 -1.76238 1.03732 0
M  V30 4027 H 396.323 -3.86339 -0.286471 0
M  V30 4028 H 396.737 -4.98857 1.61993 0
M  V30 4029 H 398.211 -5.52 -0.00560067 0
M  V30 4030 H 398.688 -4.2455 -1.12491 0
M  V30 4031 H 399.294 -4.21767 0.547055 0
M  V30 4032 N 397.609 -0.515225 -1.4894 0
M  V30 4033 C 398.556 0.255567 -2.29381 0
M  V30 4034 C 399.526 0.947387 -1.36432 0
M  V30 4035 O 400.711 0.951288 -1.65394 0
M  V30 4036 C 397.851 1.30551 -3.19453 0
M  V30 4037 C 396.964 0.624029 -4.27469 0
M  V30 4038 C 396.099 1.65563 -5.0474 0
M  V30 4039 C 395.138 0.956802 -6.04576 0
M  V30 4040 N 394.275 1.93326 -6.74959 0
M  V30 4041 H 399.115 -0.436607 -2.94784 0
M  V30 4042 H 396.652 -0.227154 -1.45336 0
M  V30 4043 H 398.61 1.92639 -3.70062 0
M  V30 4044 H 397.24 1.96626 -2.56004 0
M  V30 4045 H 396.292 -0.110459 -3.8024 0
M  V30 4046 H 397.604 0.0746092 -4.98744 0
M  V30 4047 H 396.758 2.35119 -5.59289 0
M  V30 4048 H 395.497 2.23893 -4.3327 0
M  V30 4049 H 394.502 0.247097 -5.49244 0
M  V30 4050 H 395.727 0.379814 -6.78037 0
M  V30 4051 H 393.673 2.50591 -6.06251 0
M  V30 4052 H 393.59 1.43489 -7.42258 0
M  V30 4053 H 394.858 2.62126 -7.34105 0
M  V30 4054 N 399.087 1.5561 -0.249682 0
M  V30 4055 C 399.997 2.25143 0.659375 0
M  V30 4056 C 401.013 1.2685 1.19101 0
M  V30 4057 O 402.189 1.59732 1.22669 0
M  V30 4058 C 399.254 2.93945 1.8384 0
M  V30 4059 C 398.315 4.07655 1.34596 0
M  V30 4060 C 397.548 4.73167 2.46878 0
M  V30 4061 O 397.771 4.37768 3.65671 0
M  V30 4062 O 396.705 5.61623 2.16478 0
M  V30 4063 H 400.531 3.03545 0.0968698 0
M  V30 4064 H 398.116 1.49389 -0.018074 0
M  V30 4065 H 399.998 3.37271 2.52638 0
M  V30 4066 H 398.673 2.18481 2.38847 0
M  V30 4067 H 397.58 3.68839 0.625174 0
M  V30 4068 H 398.913 4.84946 0.841941 0
M  V30 4069 N 400.565 -0.0233959 1.57583 0
M  V30 4070 C 401.842 -0.748794 1.807 0
M  V30 4071 C 402.222 -1.9327 0.849106 0
M  V30 4072 O 401.57 -2.28247 -0.107468 0
M  V30 4073 C 401.78 -1.17651 3.28571 0
M  V30 4074 C 403.128 -1.59008 3.93702 0
M  V30 4075 O 404.152 -1.27094 3.32755 0
M  V30 4076 O 403.011 -2.18264 5.01022 0
M  V30 4077 H 400.105 -0.362578 0.743281 0
M  V30 4078 H 402.651 0.000261958 1.697 0
M  V30 4079 H 401.423 -0.331603 3.89892 0
M  V30 4080 H 401.046 -1.98541 3.44481 0
M  V30 4081 N 402.043 -1.548 -0.295768 0
M  V30 4082 C 402.973 -1.89115 -1.36959 0
M  V30 4083 C 403.954 -0.75059 -1.52644 0
M  V30 4084 O 405.139 -1.00678 -1.66065 0
M  V30 4085 C 402.269 -2.14307 -2.73295 0
M  V30 4086 C 401.223 -3.30151 -2.72368 0
M  V30 4087 C 400.549 -3.40772 -4.12042 0
M  V30 4088 C 401.849 -4.67126 -2.33646 0
M  V30 4089 H 403.543 -2.79053 -1.08488 0
M  V30 4090 H 401.089 -1.34266 -0.520443 0
M  V30 4091 H 403.042 -2.36898 -3.48507 0
M  V30 4092 H 401.766 -1.21145 -3.03301 0
M  V30 4093 H 400.425 -3.0749 -1.99613 0
M  V30 4094 H 400.073 -2.45117 -4.39234 0
M  V30 4095 H 399.773 -4.18645 -4.12322 0
M  V30 4096 H 401.297 -3.6563 -4.89027 0
M  V30 4097 H 402.711 -4.89414 -2.98575 0
M  V30 4098 H 401.108 -5.47751 -2.45129 0
M  V30 4099 H 402.178 -4.67489 -1.28772 0
M  V30 4100 N 403.521 0.559213 -1.47345 0
M  V30 4101 C 404.431 1.69388 -1.62311 0
M  V30 4102 C 405.447 1.6648 -0.505993 0
M  V30 4103 O 406.623 1.85964 -0.773262 0
M  V30 4104 C 403.688 3.05894 -1.63185 0
M  V30 4105 C 402.749 3.19885 -2.86307 0
M  V30 4106 C 401.982 4.49879 -2.87131 0
M  V30 4107 O 402.205 5.35217 -1.97229 0
M  V30 4108 O 401.139 4.67618 -3.78968 0
M  V30 4109 H 404.965 1.59706 -2.58317 0
M  V30 4110 H 402.55 0.728989 -1.30407 0
M  V30 4111 H 404.432 3.87133 -1.66451 0
M  V30 4112 H 403.107 3.15964 -0.70345 0
M  V30 4113 H 402.014 2.38052 -2.88587 0
M  V30 4114 H 403.347 3.14718 -3.78435 0
M  V30 4115 N 404.999 1.35443 0.805782 0
M  V30 4116 C 406.415 1.15499 1.10146 0
M  V30 4117 C 406.615 -0.0319975 2.01475 0
M  V30 4118 O 405.671 -0.70236 2.42535 0
M  V30 4119 C 406.984 2.45833 1.73166 0
M  V30 4120 C 408.532 2.52047 1.85583 0
M  V30 4121 C 409.007 3.82427 2.52019 0
M  V30 4122 N 410.498 3.83682 2.59504 0
M  V30 4123 C 411.233 4.81294 3.11679 0
M  V30 4124 N 410.729 5.89294 3.64287 0
M  V30 4125 N 412.522 4.6873 3.1024 0
M  V30 4126 H 404.673 2.11469 0.198678 0
M  V30 4127 H 406.936 0.93594 0.150731 0
M  V30 4128 H 406.642 3.32874 1.13526 0
M  V30 4129 H 406.516 2.6044 2.72857 0
M  V30 4130 H 408.903 1.65435 2.44367 0
M  V30 4131 H 408.984 2.41354 0.847455 0
M  V30 4132 H 408.628 4.69437 1.93885 0
M  V30 4133 H 408.558 3.90409 3.53395 0
M  V30 4134 H 411.049 3.05648 2.22234 0
M  V30 4135 H 411.362 6.59768 4.02401 0
M  V30 4136 H 409.707 5.92985 3.62483 0
M  V30 4137 H 412.898 3.83496 2.68419 0
M  V30 4138 H 413.071 5.44965 3.50596 0
M  V30 4139 N 406.477 -1.02803 1.19454 0
M  V30 4140 C 407.888 -1.57667 0.999899 0
M  V30 4141 C 408.239 -1.91041 -0.446956 0
M  V30 4142 O 407.364 -1.70978 -1.32648 0
M  V30 4143 C 407.959 -2.86477 1.80877 0
M  V30 4144 C 406.518 -3.37911 1.65811 0
M  V30 4145 C 405.665 -2.11343 1.79526 0
M  V30 4146 H 408.616 -0.853214 1.33813 0
M  V30 4147 H 408.637 -3.57408 1.30536 0
M  V30 4148 H 408.149 -2.62155 2.86175 0
M  V30 4149 H 406.25 -3.67218 0.63102 0
M  V30 4150 H 406.363 -4.10885 2.46395 0
M  V30 4151 H 404.727 -2.23254 1.22596 0
M  V30 4152 H 405.51 -1.89461 2.86285 0
M  V30 4153 N 407.956 -0.998596 -1.21925 0
M  V30 4154 C 409.233 -0.593401 -1.86382 0
M  V30 4155 C 409.613 0.92916 -1.89552 0
M  V30 4156 O 408.961 1.81347 -1.39017 0
M  V30 4157 C 409.171 -1.22039 -3.26967 0
M  V30 4158 C 410.519 -1.32449 -4.03413 0
M  V30 4159 O 411.543 -1.17522 -3.36254 0
M  V30 4160 O 410.402 -1.56395 -5.23644 0
M  V30 4161 H 407.496 -0.202385 -0.801854 0
M  V30 4162 H 410.042 -1.09484 -1.29659 0
M  V30 4163 H 408.814 -2.26158 -3.19325 0
M  V30 4164 H 408.437 -0.704906 -3.91301 0
M  V30 4165 N 409.434 1.37368 -0.772513 0
M  V30 4166 C 410.681 1.99673 -0.337182 0
M  V30 4167 C 411.009 1.61324 1.0865 0
M  V30 4168 O 410.264 0.851377 1.7621 0
M  V30 4169 C 410.563 3.54817 -0.428876 0
M  V30 4170 C 410.229 4.12936 -1.81092 0
M  V30 4171 C 408.891 4.28523 -2.1891 0
M  V30 4172 C 411.243 4.44801 -2.71664 0
M  V30 4173 C 408.571 4.73277 -3.46735 0
M  V30 4174 C 410.923 4.90981 -3.98899 0
M  V30 4175 C 409.587 5.04773 -4.36761 0
M  V30 4176 H 408.857 0.730656 -0.123384 0
M  V30 4177 H 411.504 1.64124 -0.986686 0
M  V30 4178 H 409.809 3.90618 0.304167 0
M  V30 4179 H 411.506 4.00933 -0.0733334 0
M  V30 4180 H 408.096 4.01233 -1.50699 0
M  V30 4181 H 412.28 4.32344 -2.43706 0
M  V30 4182 H 407.536 4.82142 -3.75964 0
M  V30 4183 H 411.71 5.14603 -4.69208 0
M  V30 4184 H 409.337 5.39211 -5.35868 0
M  V30 4185 N 410.912 0.523116 1.48665 0
M  V30 4186 C 411.822 -0.247406 2.33292 0
M  V30 4187 C 412.838 -0.945769 1.46052 0
M  V30 4188 O 414.014 -0.922253 1.79043 0
M  V30 4189 C 411.079 -1.28487 3.22012 0
M  V30 4190 C 410.14 -0.597592 4.2512 0
M  V30 4191 C 409.373 -1.58563 5.09601 0
M  V30 4192 O 409.596 -2.81763 4.95949 0
M  V30 4193 O 408.53 -1.12879 5.91221 0
M  V30 4194 H 412.356 0.445869 3.00409 0
M  V30 4195 H 409.941 0.284128 1.46673 0
M  V30 4196 H 411.823 -1.88459 3.7691 0
M  V30 4197 H 410.498 -1.96068 2.57564 0
M  V30 4198 H 409.405 0.0424407 3.74076 0
M  V30 4199 H 410.738 0.0361517 4.92187 0
M  V30 4200 N 412.39 -1.55475 0.257931 0
M  V30 4201 C 413.638 -1.98813 -0.363009 0
M  V30 4202 C 413.959 -1.14757 -1.57657 0
M  V30 4203 O 413.229 -0.232956 -1.9451 0
M  V30 4204 H 411.809 -0.734308 -0.137113 0
M  V30 4205 H 414.471 -1.9156 0.359281 0
M  V30 4206 H 413.567 -3.04941 -0.664634 0
M  V30 4207 N 413.868 0.0150385 -1.57593 0
M  V30 4208 C 414.831 0.995996 -2.06428 0
M  V30 4209 C 415.831 1.2818 -0.970903 0
M  V30 4210 O 417.021 1.22949 -1.23406 0
M  V30 4211 C 414.153 2.32506 -2.49307 0
M  V30 4212 H 415.346 0.573873 -2.94358 0
M  V30 4213 H 412.899 0.262186 -1.54085 0
M  V30 4214 H 413.634 2.79438 -1.64575 0
M  V30 4215 H 413.419 2.13087 -3.29145 0
M  V30 4216 H 414.909 3.02906 -2.87468 0
M  V30 4217 N 415.346 1.54954 0.287554 0
M  V30 4218 C 416.293 1.86834 1.35505 0
M  V30 4219 C 417.263 0.718452 1.49758 0
M  V30 4220 O 418.448 0.968358 1.644 0
M  V30 4221 C 415.588 2.13303 2.71286 0
M  V30 4222 C 414.701 3.40883 2.65373 0
M  V30 4223 C 413.836 3.57125 3.93236 0
M  V30 4224 C 412.875 4.78449 3.81776 0
M  V30 4225 N 412.012 4.91426 5.01443 0
M  V30 4226 H 416.852 2.77889 1.07619 0
M  V30 4227 H 414.389 1.37593 0.520241 0
M  V30 4228 H 416.347 2.26646 3.50267 0
M  V30 4229 H 414.977 1.25499 2.97405 0
M  V30 4230 H 414.029 3.36088 1.78182 0
M  V30 4231 H 415.341 4.29993 2.52799 0
M  V30 4232 H 414.495 3.70207 4.80658 0
M  V30 4233 H 413.234 2.66173 4.0866 0
M  V30 4234 H 412.239 4.65386 2.92738 0
M  V30 4235 H 413.464 5.70822 3.67884 0
M  V30 4236 H 411.41 4.03401 5.17304 0
M  V30 4237 H 411.327 5.74559 4.91343 0
M  V30 4238 H 412.595 5.08879 5.90477 0
M  V30 4239 N 416.824 -0.551391 1.4764 0
M  V30 4240 C 418.054 -1.33163 1.57959 0
M  V30 4241 C 418.462 -1.87785 0.23094 0
M  V30 4242 O 417.805 -1.65996 -0.786825 0
M  V30 4243 C 417.867 -2.53449 2.54958 0
M  V30 4244 C 417.531 -2.20071 4.00522 0
M  V30 4245 C 418.528 -1.77017 4.88836 0
M  V30 4246 C 416.213 -2.31252 4.45901 0
M  V30 4247 C 418.207 -1.4558 6.20552 0
M  V30 4248 C 415.894 -1.99427 5.77644 0
M  V30 4249 C 416.892 -1.56659 6.64791 0
M  V30 4250 O 416.58 -1.25242 7.94084 0
M  V30 4251 H 416.312 -0.412022 0.535923 0
M  V30 4252 H 418.866 -0.674186 1.9402 0
M  V30 4253 H 417.096 -3.22104 2.13976 0
M  V30 4254 H 418.785 -3.15523 2.55343 0
M  V30 4255 H 419.551 -1.67867 4.55023 0
M  V30 4256 H 415.43 -2.63498 3.78272 0
M  V30 4257 H 418.974 -1.12125 6.8853 0
M  V30 4258 H 414.871 -2.08211 6.10998 0
M  V30 4259 H 415.639 -1.38822 8.06642 0
M  V30 4260 N 418.302 -1.35869 -0.798587 0
M  V30 4261 C 419.548 -1.2978 -1.55836 0
M  V30 4262 C 419.881 0.125322 -1.93795 0
M  V30 4263 O 419.156 1.07658 -1.61987 0
M  V30 4264 C 419.439 -2.21188 -2.84162 0
M  V30 4265 C 419.292 -3.72155 -2.52628 0
M  V30 4266 C 420.611 -2.11545 -3.85923 0
M  V30 4267 H 417.73 -0.472769 -0.565383 0
M  V30 4268 H 420.372 -1.66341 -0.918192 0
M  V30 4269 H 418.522 -1.90139 -3.38791 0
M  V30 4270 H 420.194 -4.13682 -2.04121 0
M  V30 4271 H 418.437 -3.92042 -1.85704 0
M  V30 4272 H 419.108 -4.31511 -3.44242 0
M  V30 4273 H 421.584 -2.38855 -3.40716 0
M  V30 4274 H 420.46 -2.77688 -4.73477 0
M  V30 4275 H 420.721 -1.09987 -4.282 0
M  V30 4276 N 419.78 1.02168 -1.19998 0
M  V30 4277 C 421.027 1.75685 -1.00702 0
M  V30 4278 C 421.355 1.88947 0.461426 0
M  V30 4279 O 420.61 1.40832 1.35885 0
M  V30 4280 C 420.909 3.18081 -1.62969 0
M  V30 4281 C 420.575 3.24809 -3.12746 0
M  V30 4282 C 419.237 3.26352 -3.53621 0
M  V30 4283 C 421.589 3.23379 -4.08749 0
M  V30 4284 C 418.917 3.2413 -4.89036 0
M  V30 4285 C 421.269 3.22698 -5.44104 0
M  V30 4286 C 419.933 3.22542 -5.84399 0
M  V30 4287 H 419.203 0.642877 -0.368496 0
M  V30 4288 H 421.85 1.19865 -1.49348 0
M  V30 4289 H 420.155 3.77027 -1.06573 0
M  V30 4290 H 421.852 3.73648 -1.45561 0
M  V30 4291 H 418.442 3.2434 -2.80181 0
M  V30 4292 H 422.626 3.21361 -3.78207 0
M  V30 4293 H 417.882 3.22338 -5.19527 0
M  V30 4294 H 422.056 3.20543 -6.18244 0
M  V30 4295 H 419.683 3.20575 -6.89301 0
M  V30 4296 N 421.258 1.00505 1.21394 0
M  V30 4297 C 422.486 0.706609 1.9446 0
M  V30 4298 C 422.901 -0.73081 1.74082 0
M  V30 4299 O 422.258 -1.49446 1.04747 0
M  V30 4300 C 422.309 1.01824 3.46863 0
M  V30 4301 O 422.03 2.39919 3.66566 0
M  V30 4302 C 423.531 0.739216 4.37093 0
M  V30 4303 H 420.751 0.260394 0.618414 0
M  V30 4304 H 423.295 1.34311 1.54211 0
M  V30 4305 H 421.45 0.427343 3.85036 0
M  V30 4306 H 421.864 2.50784 4.6066 0
M  V30 4307 H 423.338 1.00744 5.42729 0
M  V30 4308 H 423.815 -0.326746 4.37983 0
M  V30 4309 H 424.421 1.31173 4.04566 0
M  V30 4310 N 422.737 -1.36956 0.779787 0
M  V30 4311 C 424.148 -1.82094 0.412156 0
M  V30 4312 C 424.499 -1.64926 -1.06273 0
M  V30 4313 O 423.624 -1.16483 -1.82375 0
M  V30 4314 C 424.219 -3.3059 0.741319 0
M  V30 4315 C 422.778 -3.73974 0.426641 0
M  V30 4316 C 421.925 -2.59368 0.980987 0
M  V30 4317 H 424.876 -1.25314 0.973758 0
M  V30 4318 H 424.897 -3.80489 0.028887 0
M  V30 4319 H 424.409 -3.43054 1.81482 0
M  V30 4320 H 422.51 -3.67076 -0.639215 0
M  V30 4321 H 422.623 -4.69778 0.940515 0
M  V30 4322 H 420.987 -2.51463 0.404757 0
M  V30 4323 H 421.77 -2.74621 2.06005 0
M  V30 4324 N 424.215 -0.530993 -1.48385 0
M  V30 4325 C 425.626 -0.0907905 -1.86479 0
M  V30 4326 C 425.977 1.33213 -1.44044 0
M  V30 4327 O 425.102 1.99783 -0.831615 0
M  V30 4328 C 425.697 -0.157987 -3.38431 0
M  V30 4329 C 424.256 0.227026 -3.75715 0
M  V30 4330 C 423.403 -0.5173 -2.72432 0
M  V30 4331 H 426.354 -0.742186 -1.40276 0
M  V30 4332 H 426.375 0.630053 -3.75247 0
M  V30 4333 H 425.887 -1.19372 -3.69286 0
M  V30 4334 H 423.988 1.26486 -3.50474 0
M  V30 4335 H 424.101 -0.113288 -4.78966 0
M  V30 4336 H 422.465 0.0365527 -2.54674 0
M  V30 4337 H 423.248 -1.55368 -3.0613 0
M  V30 4338 N 425.693 1.55336 -0.266172 0
M  V30 4339 C 426.656 2.20878 0.612001 0
M  V30 4340 C 427.656 1.18388 1.08816 0
M  V30 4341 O 428.846 1.4335 0.989774 0
M  V30 4342 C 425.978 2.86765 1.84332 0
M  V30 4343 H 427.171 2.99873 0.0398718 0
M  V30 4344 H 424.724 1.56291 -0.0167309 0
M  V30 4345 H 425.459 2.11759 2.45619 0
M  V30 4346 H 425.244 3.61862 1.5099 0
M  V30 4347 H 426.734 3.36867 2.46801 0
M  V30 4348 N 427.171 -0.0066808 1.57599 0
M  V30 4349 C 428.587 -0.36267 1.55425 0
M  V30 4350 C 428.787 -1.75209 0.995187 0
M  V30 4351 O 427.843 -2.44616 0.626058 0
M  V30 4352 C 429.156 -0.244017 2.99708 0
M  V30 4353 C 430.704 -0.319451 3.11366 0
M  V30 4354 C 431.179 -0.229998 4.57422 0
M  V30 4355 N 432.67 -0.288105 4.62303 0
M  V30 4356 C 433.405 -0.242127 5.72889 0
M  V30 4357 N 432.901 -0.147133 6.92644 0
M  V30 4358 N 434.694 -0.293502 5.61333 0
M  V30 4359 H 426.845 0.902314 1.92281 0
M  V30 4360 H 429.108 0.34525 0.882896 0
M  V30 4361 H 428.814 0.711678 3.44424 0
M  V30 4362 H 428.688 -1.02877 3.629 0
M  V30 4363 H 431.075 -1.26559 2.66584 0
M  V30 4364 H 431.156 0.495055 2.50964 0
M  V30 4365 H 430.8 0.712566 5.02877 0
M  V30 4366 H 430.73 -1.0629 5.15761 0
M  V30 4367 H 433.221 -0.363126 3.76151 0
M  V30 4368 H 433.534 -0.117763 7.7271 0
M  V30 4369 H 431.879 -0.112857 6.94908 0
M  V30 4370 H 435.07 -0.365864 4.66668 0
M  V30 4371 H 435.243 -0.254204 6.47501 0
M  V30 4372 N 428.649 -1.55105 -0.279332 0
M  V30 4373 C 429.612 -1.86783 -1.32834 0
M  V30 4374 C 430.612 -0.74199 -1.42657 0
M  V30 4375 O 431.802 -1.0102 -1.41918 0
M  V30 4376 C 428.934 -2.06746 -2.71052 0
M  V30 4377 H 430.127 -2.8055 -1.05979 0
M  V30 4378 H 427.68 -1.47499 -0.517087 0
M  V30 4379 H 428.415 -1.15339 -3.03097 0
M  V30 4380 H 428.2 -2.88711 -2.65309 0
M  V30 4381 H 429.69 -2.32549 -3.46858 0
M  V30 4382 N 430.127 0.543554 -1.4793 0
M  V30 4383 C 431.074 1.64942 -1.6144 0
M  V30 4384 C 432.044 1.59692 -0.456903 0
M  V30 4385 O 433.229 1.78321 -0.678688 0
M  V30 4386 C 430.369 3.03238 -1.64744 0
M  V30 4387 C 429.482 3.18823 -2.91506 0
M  V30 4388 C 428.617 4.47599 -2.86057 0
M  V30 4389 C 427.656 4.56664 -4.07584 0
M  V30 4390 N 426.793 5.76811 -4.00292 0
M  V30 4391 H 431.633 1.52733 -2.55884 0
M  V30 4392 H 429.17 0.7438 -1.2691 0
M  V30 4393 H 431.128 3.83339 -1.64641 0
M  V30 4394 H 429.758 3.1425 -0.738017 0
M  V30 4395 H 428.81 2.32064 -3.01414 0
M  V30 4396 H 430.122 3.21384 -3.81463 0
M  V30 4397 H 429.276 5.35975 -2.84281 0
M  V30 4398 H 428.015 4.47538 -1.93807 0
M  V30 4399 H 427.02 3.66697 -4.09651 0
M  V30 4400 H 428.245 4.58474 -5.00978 0
M  V30 4401 H 426.191 5.77673 -3.10853 0
M  V30 4402 H 426.108 5.80808 -4.8394 0
M  V30 4403 H 427.376 6.67512 -4.02553 0
M  V30 4404 N 431.605 1.3629 0.791371 0
M  V30 4405 C 432.552 1.30458 1.90393 0
M  V30 4406 C 433.522 0.173632 1.6519 0
M  V30 4407 O 434.707 0.35983 1.87376 0
M  V30 4408 C 431.847 1.09777 3.27174 0
M  V30 4409 C 430.96 2.31929 3.64462 0
M  V30 4410 C 430.095 2.04276 4.90352 0
M  V30 4411 C 429.134 3.224 5.20312 0
M  V30 4412 N 428.271 2.94424 6.37385 0
M  V30 4413 H 433.111 2.25589 1.94714 0
M  V30 4414 H 430.648 1.12122 0.952216 0
M  V30 4415 H 432.606 0.958133 4.06049 0
M  V30 4416 H 431.236 0.183014 3.22281 0
M  V30 4417 H 430.288 2.56703 2.80727 0
M  V30 4418 H 431.6 3.20085 3.82553 0
M  V30 4419 H 430.754 1.87231 5.77087 0
M  V30 4420 H 429.493 1.13428 4.74326 0
M  V30 4421 H 428.498 3.40005 4.32061 0
M  V30 4422 H 429.723 4.14071 5.38258 0
M  V30 4423 H 427.669 2.06185 6.22755 0
M  V30 4424 H 427.586 3.76118 6.55798 0
M  V30 4425 H 428.854 2.80953 7.27108 0
M  V30 4426 N 433.083 -1.0153 1.20538 0
M  V30 4427 C 434.36 -1.72327 0.925343 0
M  V30 4428 C 434.74 -2.03383 -0.565547 0
M  V30 4429 O 434.088 -1.69934 -1.52757 0
M  V30 4430 C 434.298 -2.9902 1.79967 0
M  V30 4431 C 435.646 -3.72258 2.04228 0
M  V30 4432 O 436.67 -3.08979 1.77231 0
M  V30 4433 O 435.529 -4.86053 2.4983 0
M  V30 4434 H 432.623 -0.751099 0.346092 0
M  V30 4435 H 435.169 -1.07366 1.31417 0
M  V30 4436 H 433.941 -2.72402 2.80915 0
M  V30 4437 H 433.564 -3.71721 1.41099 0
M  V30 4438 N 434.561 -1.01147 -1.20859 0
M  V30 4439 C 435.511 -0.548247 -2.2131 0
M  V30 4440 C 436.495 0.393646 -1.5601 0
M  V30 4441 O 437.687 0.217445 -1.75659 0
M  V30 4442 C 434.816 0.117252 -3.431 0
M  V30 4443 C 433.902 -0.846043 -4.15575 0
M  V30 4444 N 434.293 -2.00149 -4.64515 0
M  V30 4445 C 432.591 -0.665783 -4.41003 0
M  V30 4446 C 433.292 -2.60764 -5.19978 0
M  V30 4447 N 432.268 -1.88868 -5.09735 0
M  V30 4448 H 436.07 -1.42921 -2.56809 0
M  V30 4449 H 433.584 -0.876142 -1.36739 0
M  V30 4450 H 435.581 0.46662 -4.1428 0
M  V30 4451 H 434.241 0.994115 -3.09107 0
M  V30 4452 H 435.252 -2.38162 -4.5989 0
M  V30 4453 H 431.929 0.163456 -4.1718 0
M  V30 4454 H 433.319 -3.58519 -5.68255 0
M  V30 4455 N 436.039 1.36541 -0.78704 0
M  V30 4456 C 437.316 1.9355 -0.282424 0
M  V30 4457 C 437.696 1.71919 1.22503 0
M  V30 4458 O 437.044 1.07677 2.01539 0
M  V30 4459 C 437.254 3.4246 -0.672462 0
M  V30 4460 C 438.602 4.19582 -0.650863 0
M  V30 4461 O 439.626 3.50889 -0.612789 0
M  V30 4462 O 438.485 5.42106 -0.691623 0
M  V30 4463 H 435.579 0.824091 -0.0693 0
M  V30 4464 H 438.125 1.45736 -0.869423 0
M  V30 4465 H 436.897 3.51851 -1.71221 0
M  V30 4466 H 436.52 3.97556 -0.0592211 0
M  V30 4467 N 437.518 0.538854 1.48102 0
M  V30 4468 C 438.764 0.00801365 2.02798 0
M  V30 4469 C 439.097 -1.3309 1.41424 0
M  V30 4470 O 438.372 -1.86169 0.563158 0
M  V30 4471 C 438.655 -0.104589 3.59948 0
M  V30 4472 C 438.508 1.26012 4.31788 0
M  V30 4473 C 439.827 -0.827055 4.32259 0
M  V30 4474 H 436.946 0.00438624 0.736987 0
M  V30 4475 H 439.588 0.6976 1.7673 0
M  V30 4476 H 437.738 -0.691893 3.82289 0
M  V30 4477 H 439.41 1.88922 4.2084 0
M  V30 4478 H 437.653 1.83968 3.92859 0
M  V30 4479 H 438.324 1.13424 5.40221 0
M  V30 4480 H 440.8 -0.328578 4.14801 0
M  V30 4481 H 439.676 -0.87476 5.41885 0
M  V30 4482 H 439.937 -1.87927 4.0017 0
M  V30 4483 N 438.996 -1.55193 0.274407 0
M  V30 4484 C 439.926 -2.25471 -0.607032 0
M  V30 4485 C 440.907 -1.24461 -1.15946 0
M  V30 4486 O 442.092 -1.53179 -1.19373 0
M  V30 4487 C 439.222 -2.97526 -1.79153 0
M  V30 4488 C 438.176 -4.05459 -1.37067 0
M  V30 4489 C 437.502 -4.65084 -2.6382 0
M  V30 4490 C 438.802 -5.19691 -0.521389 0
M  V30 4491 H 440.496 -2.99393 -0.0209343 0
M  V30 4492 H 438.042 -1.43997 -0.00862866 0
M  V30 4493 H 439.995 -3.45402 -2.41404 0
M  V30 4494 H 438.719 -2.21138 -2.40344 0
M  V30 4495 H 437.378 -3.58393 -0.771355 0
M  V30 4496 H 437.026 -3.85365 -3.23268 0
M  V30 4497 H 436.726 -5.37961 -2.36372 0
M  V30 4498 H 438.25 -5.15708 -3.26921 0
M  V30 4499 H 439.664 -5.63623 -1.04889 0
M  V30 4500 H 438.061 -5.99126 -0.341825 0
M  V30 4501 H 439.131 -4.82713 0.46 0
M  V30 4502 N 440.474 -0.00167713 -1.576 0
M  V30 4503 C 441.72 0.67819 -1.91761 0
M  V30 4504 C 442.075 1.71288 -0.876256 0
M  V30 4505 O 441.368 1.91276 0.111333 0
M  V30 4506 C 441.562 1.36189 -3.30435 0
M  V30 4507 C 441.391 0.394938 -4.47962 0
M  V30 4508 C 440.161 0.00472875 -5.053 0
M  V30 4509 C 442.359 -0.339521 -5.13178 0
M  V30 4510 N 440.341 -0.960257 -6.06343 0
M  V30 4511 C 441.712 -1.15914 -6.09068 0
M  V30 4512 C 443.767 -0.403177 -4.96265 0
M  V30 4513 C 442.47 -2.03661 -6.89866 0
M  V30 4514 C 444.496 -1.26788 -5.77649 0
M  V30 4515 C 443.858 -2.07535 -6.73134 0
M  V30 4516 H 439.957 0.221317 -0.750028 0
M  V30 4517 H 442.541 -0.0624182 -1.946 0
M  V30 4518 H 440.712 2.07278 -3.28467 0
M  V30 4519 H 442.444 1.99658 -3.52021 0
M  V30 4520 H 439.199 0.373452 -4.72125 0
M  V30 4521 H 439.623 -1.43817 -6.61548 0
M  V30 4522 H 444.265 0.206818 -4.22294 0
M  V30 4523 H 441.983 -2.65727 -7.63161 0
M  V30 4524 H 445.569 -1.32107 -5.66603 0
M  V30 4525 H 444.449 -2.73363 -7.35012 0
M  V30 4526 N 441.952 1.55251 0.271103 0
M  V30 4527 C 442.9 1.89054 1.35504 0
M  V30 4528 C 443.894 0.767064 1.51038 0
M  V30 4529 O 445.1 0.951429 1.528 0
M  V30 4530 H 441.475 0.600072 0.45323 0
M  V30 4531 H 443.446 2.79598 1.04247 0
M  V30 4532 C 442.195 2.18068 2.70817 0
M  V30 4533 H 441.518 3.04005 2.59656 0
M  V30 4534 H 442.958 2.4564 3.45597 0
M  V30 4535 C 441.417 0.988901 3.2206 0
M  V30 4536 O 441.947 0.224501 4.01072 0
M  V30 4537 N 440.153 0.786085 2.79766 0
M  V30 4538 H 439.7 1.40937 2.15626 0
M  V30 4539 H 439.658 -0.00969349 3.14399 0
M  V30 4540 N 443.43 -0.535701 1.48216 0
M  V30 4541 C 444.393 -1.623 1.61838 0
M  V30 4542 C 445.393 -1.53087 0.492024 0
M  V30 4543 O 446.583 -1.5686 0.757668 0
M  V30 4544 C 443.715 -3.01907 1.58319 0
M  V30 4545 H 444.908 -1.51564 2.58783 0
M  V30 4546 H 442.461 -0.757317 1.36727 0
M  V30 4547 H 443.196 -3.18155 0.628299 0
M  V30 4548 H 442.981 -3.10003 2.40085 0
M  V30 4549 H 444.471 -3.80969 1.71033 0
M  V30 4550 N 444.908 -1.36708 -0.784132 0
M  V30 4551 C 445.838 -1.34153 -1.91116 0
M  V30 4552 C 446.819 -0.212121 -1.68772 0
M  V30 4553 O 448.004 -0.410581 -1.8981 0
M  V30 4554 C 445.134 -1.13535 -3.28218 0
M  V30 4555 C 444.088 -2.23356 -3.65097 0
M  V30 4556 C 443.414 -1.87875 -5.00607 0
M  V30 4557 C 444.714 -3.65473 -3.73131 0
M  V30 4558 H 446.408 -2.28459 -1.93512 0
M  V30 4559 H 443.954 -1.09973 -0.929618 0
M  V30 4560 H 445.907 -1.10381 -4.06687 0
M  V30 4561 H 444.631 -0.156804 -3.26223 0
M  V30 4562 H 443.29 -2.25645 -2.88929 0
M  V30 4563 H 442.938 -0.885814 -4.95139 0
M  V30 4564 H 442.638 -2.61406 -5.26252 0
M  V30 4565 H 444.162 -1.86286 -5.81489 0
M  V30 4566 H 445.576 -3.65382 -4.41779 0
M  V30 4567 H 443.973 -4.37953 -4.10265 0
M  V30 4568 H 445.043 -3.99995 -2.74102 0
M  V30 4569 N 446.386 1.0089 -1.21074 0
M  V30 4570 C 447.802 1.2695 -0.967257 0
M  V30 4571 C 448.002 1.9846 0.348673 0
M  V30 4572 O 447.058 2.28459 1.0753 0
M  V30 4573 C 448.371 2.09697 -2.15517 0
M  V30 4574 C 449.919 2.22937 -2.197 0
M  V30 4575 C 450.394 3.09064 -3.37999 0
M  V30 4576 N 451.885 3.16653 -3.38061 0
M  V30 4577 C 452.62 3.8354 -4.26245 0
M  V30 4578 N 452.116 4.52488 -5.2462 0
M  V30 4579 N 453.909 3.80141 -4.14064 0
M  V30 4580 H 446.06 0.529005 -2.05707 0
M  V30 4581 H 448.323 0.296148 -0.900556 0
M  V30 4582 H 448.029 1.64497 -3.10859 0
M  V30 4583 H 447.903 3.10444 -2.14253 0
M  V30 4584 H 450.29 2.67357 -1.24916 0
M  V30 4585 H 450.371 1.21673 -2.2501 0
M  V30 4586 H 450.015 2.65347 -4.33074 0
M  V30 4587 H 449.945 4.10433 -3.29928 0
M  V30 4588 H 452.436 2.67566 -2.66865 0
M  V30 4589 H 452.749 5.01219 -5.88217 0
M  V30 4590 H 451.094 4.51288 -5.28549 0
M  V30 4591 H 454.285 3.25427 -3.36474 0
M  V30 4592 H 454.458 4.31992 -4.82998 0
M  V30 4593 N 447.864 1.01787 1.20321 0
M  V30 4594 C 448.812 0.58254 2.25187 0
M  V30 4595 C 449.806 -0.379359 1.65098 0
M  V30 4596 O 451.012 -0.249142 1.78267 0
M  V30 4597 H 447.387 0.170078 0.732514 0
M  V30 4598 H 449.358 1.47788 2.59232 0
M  V30 4599 C 448.107 -0.0620885 3.47645 0
M  V30 4600 H 447.43 0.669069 3.94162 0
M  V30 4601 H 448.87 -0.329784 4.22716 0
M  V30 4602 C 447.329 -1.3053 3.10586 0
M  V30 4603 O 447.859 -2.39848 3.22236 0
M  V30 4604 N 446.065 -1.18988 2.65123 0
M  V30 4605 H 445.612 -0.300341 2.55843 0
M  V30 4606 H 445.57 -2.02267 2.40698 0
M  V30 4607 N 449.342 -1.36122 0.79427 0
M  V30 4608 C 450.59 -1.98718 0.368177 0
M  V30 4609 C 450.911 -1.63345 -1.06506 0
M  V30 4610 O 450.181 -0.909825 -1.73491 0
M  V30 4611 H 448.761 -0.735038 0.133146 0
M  V30 4612 H 451.423 -1.66239 1.01739 0
M  V30 4613 H 450.519 -3.08633 0.463923 0
M  V30 4614 N 450.82 -0.546701 -1.47814 0
M  V30 4615 C 452.066 -0.0187684 -2.02791 0
M  V30 4616 C 452.399 1.32338 -1.42128 0
M  V30 4617 O 451.674 1.85867 -0.573023 0
M  V30 4618 C 451.957 0.0854985 -3.59998 0
M  V30 4619 C 451.81 -1.283 -4.31114 0
M  V30 4620 C 453.129 0.80412 -4.32691 0
M  V30 4621 H 450.248 -0.0082946 -0.736953 0
M  V30 4622 H 452.89 -0.706962 -1.76358 0
M  V30 4623 H 451.04 0.671609 -3.82651 0
M  V30 4624 H 452.712 -1.91151 -4.19832 0
M  V30 4625 H 450.955 -1.86049 -3.91878 0
M  V30 4626 H 451.626 -1.16287 -5.39612 0
M  V30 4627 H 454.102 0.306576 -4.14969 0
M  V30 4628 H 452.978 0.846011 -5.42341 0
M  V30 4629 H 453.239 1.85802 -4.01161 0
M  V30 4630 N 452.299 1.55045 -0.282633 0
M  V30 4631 C 453.546 1.9976 0.33199 0
M  V30 4632 C 453.874 1.17105 1.55295 0
M  V30 4633 O 453.129 0.230599 1.94337 0
M  V30 4634 C 453.428 3.49422 0.750938 0
M  V30 4635 C 453.094 4.4941 -0.366228 0
M  V30 4636 C 451.756 4.76471 -0.672964 0
M  V30 4637 C 454.108 5.09054 -1.11864 0
M  V30 4638 C 451.436 5.60442 -1.73556 0
M  V30 4639 C 453.788 5.9418 -2.17102 0
M  V30 4640 C 452.452 6.19558 -2.48402 0
M  V30 4641 H 451.722 0.730974 0.121484 0
M  V30 4642 H 454.369 1.8732 -0.39791 0
M  V30 4643 H 452.674 3.59377 1.56063 0
M  V30 4644 H 454.371 3.81432 1.23736 0
M  V30 4645 H 450.961 4.2844 -0.117041 0
M  V30 4646 H 455.145 4.88165 -0.894925 0
M  V30 4647 H 450.401 5.78349 -1.983 0
M  V30 4648 H 454.575 6.39427 -2.75873 0
M  V30 4649 H 452.202 6.84417 -3.30874 0
M  V30 4650 N 453.777 0.010035 1.57597 0
M  V30 4651 C 454.687 -0.994226 2.12491 0
M  V30 4652 C 455.703 -1.37013 1.07254 0
M  V30 4653 O 456.879 -1.45542 1.3921 0
M  V30 4654 C 453.944 -2.2642 2.62555 0
M  V30 4655 C 453.005 -1.95049 3.82432 0
M  V30 4656 C 452.238 -3.15991 4.30099 0
M  V30 4657 O 452.461 -4.28015 3.7704 0
M  V30 4658 O 451.395 -2.99403 5.22151 0
M  V30 4659 H 455.221 -0.557549 2.98538 0
M  V30 4660 H 452.806 -0.209413 1.47925 0
M  V30 4661 H 454.688 -3.01009 2.9491 0
M  V30 4662 H 453.363 -2.69306 1.796 0
M  V30 4663 H 452.27 -1.17904 3.55034 0
M  V30 4664 H 453.603 -1.56992 4.66491 0
M  V30 4665 N 455.255 -1.55392 -0.262866 0
M  V30 4666 C 456.483 -1.80513 -1.01108 0
M  V30 4667 C 456.898 -0.583533 -1.79556 0
M  V30 4668 O 456.255 0.447585 -1.76926 0
M  V30 4669 C 456.306 -3.03648 -1.96164 0
M  V30 4670 O 456.027 -4.2109 -1.20893 0
M  V30 4671 C 457.528 -3.41448 -2.82715 0
M  V30 4672 H 454.748 -0.601079 -0.298236 0
M  V30 4673 H 457.292 -2.02425 -0.290582 0
M  V30 4674 H 455.447 -2.83832 -2.63663 0
M  V30 4675 H 455.861 -4.90771 -1.85051 0
M  V30 4676 H 457.335 -4.30751 -3.45192 0
M  V30 4677 H 457.812 -2.61308 -3.53008 0
M  V30 4678 H 458.418 -3.63559 -2.20693 0
M  V30 4679 N 456.733 0.527833 -1.48498 0
M  V30 4680 C 457.979 1.28545 -1.56857 0
M  V30 4681 C 458.312 1.92678 -0.242651 0
M  V30 4682 O 457.587 1.79394 0.751545 0
M  V30 4683 C 457.87 2.37314 -2.70839 0
M  V30 4684 C 457.723 1.77858 -4.13142 0
M  V30 4685 C 459.042 3.39068 -2.80573 0
M  V30 4686 H 456.161 0.466006 -0.570971 0
M  V30 4687 H 458.803 0.587784 -1.8068 0
M  V30 4688 H 456.953 2.96821 -2.50658 0
M  V30 4689 H 458.625 1.22385 -4.44769 0
M  V30 4690 H 456.868 1.08383 -4.20042 0
M  V30 4691 H 457.539 2.56624 -4.88721 0
M  V30 4692 H 460.015 2.89518 -2.98862 0
M  V30 4693 H 458.891 4.12566 -3.6205 0
M  V30 4694 H 459.152 3.9975 -1.88818 0
M  V30 4695 N 458.211 1.37122 0.776871 0
M  V30 4696 C 459.436 1.354 1.57104 0
M  V30 4697 C 459.861 -0.0595562 1.88006 0
M  V30 4698 O 459.219 -1.03514 1.48844 0
M  V30 4699 C 459.267 2.19472 2.8612 0
M  V30 4700 O 458.371 1.59582 3.80273 0
M  V30 4701 H 457.712 0.462869 0.476076 0
M  V30 4702 H 460.242 1.80577 0.961932 0
M  V30 4703 H 460.252 2.32502 3.35271 0
M  V30 4704 H 458.927 3.22222 2.62956 0
M  V30 4705 H 457.504 1.55564 3.38902 0
M  V30 4706 N 459.689 -1.00246 1.21608 0
M  V30 4707 C 460.914 -1.78167 1.06167 0
M  V30 4708 C 461.339 -1.84138 -0.384035 0
M  V30 4709 O 460.697 -1.28683 -1.27712 0
M  V30 4710 C 460.745 -3.19786 1.66642 0
M  V30 4711 O 459.849 -4.02153 0.913613 0
M  V30 4712 H 459.19 -0.549 0.37349 0
M  V30 4713 H 461.72 -1.25994 1.61204 0
M  V30 4714 H 461.73 -3.70451 1.70969 0
M  V30 4715 H 460.405 -3.14754 2.7185 0
M  V30 4716 H 458.982 -3.60711 0.945635 0
M  V30 4717 N 461.167 -1.02423 -1.1978 0
M  V30 4718 C 462.444 -0.632802 -1.85081 0
M  V30 4719 C 462.824 0.888745 -1.9148 0
M  V30 4720 O 462.172 1.78357 -1.42832 0
M  V30 4721 C 462.382 -1.28947 -3.24305 0
M  V30 4722 C 463.73 -1.40976 -4.00513 0
M  V30 4723 O 464.754 -1.24628 -3.33686 0
M  V30 4724 O 463.613 -1.67467 -5.20209 0
M  V30 4725 H 460.707 -0.219348 -0.79738 0
M  V30 4726 H 463.253 -1.12209 -1.27307 0
M  V30 4727 H 462.025 -2.3288 -3.14456 0
M  V30 4728 H 461.648 -0.787748 -3.89718 0
M  V30 4729 N 462.645 1.35699 -0.801477 0
M  V30 4730 C 463.595 2.2728 -0.181073 0
M  V30 4731 C 464.579 1.47533 0.642098 0
M  V30 4732 O 465.771 1.69785 0.500193 0
M  V30 4733 C 462.9 3.36626 0.673612 0
M  V30 4734 C 461.986 4.23802 -0.159008 0
M  V30 4735 N 462.377 4.90879 -1.2195 0
M  V30 4736 C 460.675 4.45959 0.0602005 0
M  V30 4737 C 461.376 5.5546 -1.72738 0
M  V30 4738 N 460.352 5.33663 -1.03465 0
M  V30 4739 H 464.154 2.76632 -0.992582 0
M  V30 4740 H 461.668 1.49166 -0.642127 0
M  V30 4741 H 463.665 4.01179 1.13408 0
M  V30 4742 H 462.325 2.88828 1.48353 0
M  V30 4743 H 463.336 4.92497 -1.60209 0
M  V30 4744 H 460.013 4.08969 0.839664 0
M  V30 4745 H 461.403 6.18991 -2.61342 0
M  V30 4746 N 464.123 0.554532 1.47522 0
M  V30 4747 C 465.363 0.0317994 2.04375 0
M  V30 4748 C 465.727 -1.29242 1.41988 0
M  V30 4749 O 466.928 -1.90269 1.89872 0
M  V30 4750 C 465.199 -0.0623344 3.57346 0
M  V30 4751 S 466.758 -0.531578 4.35568 0
M  V30 4752 H 463.576 0.0238553 0.7106 0
M  V30 4753 H 466.178 0.74066 1.80927 0
M  V30 4754 H 464.882 0.905857 4.00278 0
M  V30 4755 H 464.413 -0.794831 3.85287 0
M  V30 4756 H 466.428 -1.79175 4.62721 0
M  V30 4757 N 465.601 -1.54893 0.290851 0
M  V30 4758 C 466.826 -2.04804 -0.32712 0
M  V30 4759 C 467.251 -1.16721 -1.47506 0
M  V30 4760 O 466.609 -0.169107 -1.8051 0
M  V30 4761 C 466.657 -3.52268 -0.770689 0
M  V30 4762 O 465.761 -3.67236 -1.87647 0
M  V30 4763 H 465.102 -0.660789 -0.0652227 0
M  V30 4764 H 467.632 -2.00036 0.429739 0
M  V30 4765 H 467.642 -3.9393 -1.06223 0
M  V30 4766 H 466.317 -4.15843 0.069096 0
M  V30 4767 H 464.894 -3.37479 -1.58626 0
M  V30 4768 N 467.08 -0.0183926 -1.57589 0
M  V30 4769 C 468.326 0.657813 -1.92469 0
M  V30 4770 C 468.681 1.70349 -0.894375 0
M  V30 4771 O 467.974 1.91384 0.0910389 0
M  V30 4772 C 468.168 1.32676 -3.31861 0
M  V30 4773 C 467.997 0.347403 -4.48356 0
M  V30 4774 C 466.767 -0.0488653 -5.05276 0
M  V30 4775 C 468.965 -0.393931 -5.12789 0
M  V30 4776 N 466.947 -1.02451 -6.05291 0
M  V30 4777 C 468.318 -1.22367 -6.07804 0
M  V30 4778 C 470.373 -0.455789 -4.95809 0
M  V30 4779 C 469.076 -2.10966 -6.87667 0
M  V30 4780 C 471.102 -1.32908 -5.76272 0
M  V30 4781 C 470.464 -2.14662 -6.70894 0
M  V30 4782 H 466.563 0.21335 -0.752334 0
M  V30 4783 H 469.147 -0.0830547 -1.94523 0
M  V30 4784 H 467.318 2.03782 -3.30647 0
M  V30 4785 H 469.05 1.95913 -3.54119 0
M  V30 4786 H 465.805 0.323356 -4.72495 0
M  V30 4787 H 466.229 -1.50826 -6.59985 0
M  V30 4788 H 470.871 0.162017 -4.22489 0
M  V30 4789 H 468.589 -2.73807 -7.603 0
M  V30 4790 H 472.175 -1.38109 -5.6517 0
M  V30 4791 H 471.055 -2.81143 -7.32071 0
M  V30 4792 N 468.558 1.5553 0.254621 0
M  V30 4793 C 469.488 1.9268 1.31897 0
M  V30 4794 C 470.469 0.790797 1.506 0
M  V30 4795 O 471.654 1.05045 1.63337 0
M  V30 4796 C 468.784 2.21477 2.67517 0
M  V30 4797 C 467.738 3.37256 2.63519 0
M  V30 4798 C 467.064 3.51576 4.02862 0
M  V30 4799 C 468.364 4.73157 2.21179 0
M  V30 4800 H 470.058 2.81832 1.01051 0
M  V30 4801 H 467.604 1.35599 0.484662 0
M  V30 4802 H 469.557 2.46055 3.42104 0
M  V30 4803 H 468.281 1.29144 2.99982 0
M  V30 4804 H 466.94 3.12675 1.9139 0
M  V30 4805 H 466.588 2.56676 4.32581 0
M  V30 4806 H 466.288 4.2943 4.01078 0
M  V30 4807 H 467.812 3.78467 4.79161 0
M  V30 4808 H 469.226 4.97158 2.85494 0
M  V30 4809 H 467.623 5.54058 2.30521 0
M  V30 4810 H 468.693 4.70739 1.16332 0
M  V30 4811 N 470.036 -0.519951 1.48776 0
M  V30 4812 C 471.283 -1.27522 1.57303 0
M  V30 4813 C 471.611 -1.92869 0.251328 0
M  V30 4814 O 470.866 -1.80372 -0.759243 0
M  V30 4815 C 471.165 -2.37864 2.6675 0
M  V30 4816 C 470.831 -1.90103 4.08867 0
M  V30 4817 C 469.493 -1.76795 4.47546 0
M  V30 4818 C 471.845 -1.54133 4.97888 0
M  V30 4819 C 469.173 -1.25868 5.73039 0
M  V30 4820 C 471.525 -1.04665 6.23881 0
M  V30 4821 C 470.189 -0.899823 6.61407 0
M  V30 4822 H 469.459 -0.466636 0.575614 0
M  V30 4823 H 472.106 -0.579109 1.82534 0
M  V30 4824 H 470.411 -3.13186 2.35418 0
M  V30 4825 H 472.108 -2.95969 2.70561 0
M  V30 4826 H 468.698 -2.01414 3.78326 0
M  V30 4827 H 472.882 -1.6327 4.68675 0
M  V30 4828 H 468.138 -1.13196 6.0083 0
M  V30 4829 H 472.312 -0.759074 6.92251 0
M  V30 4830 H 469.939 -0.503011 7.58534 0
M  V30 4831 N 471.514 -1.37532 -0.769588 0
M  V30 4832 C 472.461 -1.3347 -1.88293 0
M  V30 4833 C 473.431 -0.199891 -1.64893 0
M  V30 4834 O 474.616 -0.389594 -1.8678 0
M  V30 4835 C 471.756 -1.14968 -3.25387 0
M  V30 4836 C 470.869 -2.37698 -3.60727 0
M  V30 4837 C 470.004 -2.12051 -4.8704 0
M  V30 4838 C 469.043 -3.30636 -5.15117 0
M  V30 4839 N 468.18 -3.04527 -6.3262 0
M  V30 4840 H 473.02 -2.28658 -1.911 0
M  V30 4841 H 470.557 -1.13622 -0.934257 0
M  V30 4842 H 472.515 -1.02261 -4.04473 0
M  V30 4843 H 471.145 -0.234263 -3.21949 0
M  V30 4844 H 470.197 -2.61137 -2.76608 0
M  V30 4845 H 471.509 -3.26131 -3.77413 0
M  V30 4846 H 470.663 -1.96388 -5.74035 0
M  V30 4847 H 469.402 -1.20959 -4.72462 0
M  V30 4848 H 468.407 -3.46836 -4.26597 0
M  V30 4849 H 469.632 -4.22582 -5.31603 0
M  V30 4850 H 467.578 -2.16067 -6.19396 0
M  V30 4851 H 467.495 -3.86503 -6.49732 0
M  V30 4852 H 468.763 -2.92485 -7.22546 0
M  V30 4853 N 472.992 0.995999 -1.22138 0
M  V30 4854 C 474.24 1.73167 -1.042 0
M  V30 4855 C 474.561 1.90329 0.42423 0
M  V30 4856 O 473.831 1.4607 1.30539 0
M  V30 4857 H 472.411 0.641593 -0.38258 0
M  V30 4858 H 475.073 1.19974 -1.53598 0
M  V30 4859 H 474.169 2.72734 -1.51731 0
M  V30 4860 N 474.47 1.03057 1.19235 0
M  V30 4861 C 475.42 0.583386 2.2041 0
M  V30 4862 C 476.404 -0.368776 1.56617 0
M  V30 4863 O 477.596 -0.189471 1.75983 0
M  V30 4864 C 474.725 -0.0626534 3.43243 0
M  V30 4865 C 473.811 0.91205 4.14177 0
M  V30 4866 N 474.202 2.07514 4.61272 0
M  V30 4867 C 472.5 0.735859 4.39888 0
M  V30 4868 C 473.201 2.69003 5.15764 0
M  V30 4869 N 472.177 1.96954 5.06666 0
M  V30 4870 H 475.979 1.46988 2.54503 0
M  V30 4871 H 473.493 0.897785 1.35328 0
M  V30 4872 H 475.49 -0.400653 4.1497 0
M  V30 4873 H 474.15 -0.944813 3.1065 0
M  V30 4874 H 475.161 2.45448 4.56043 0
M  V30 4875 H 471.838 -0.0970656 4.17387 0
M  V30 4876 H 473.228 3.67514 5.6248 0
M  V30 4877 N 475.948 -1.35272 0.808662 0
M  V30 4878 C 476.895 -2.29764 0.218482 0
M  V30 4879 C 477.865 -1.52911 -0.648652 0
M  V30 4880 O 479.05 -1.81341 -0.593297 0
M  V30 4881 C 476.19 -3.39388 -0.625282 0
M  V30 4882 C 475.303 -4.31202 0.262516 0
M  V30 4883 C 474.438 -5.27919 -0.589451 0
M  V30 4884 C 473.477 -6.11371 0.298617 0
M  V30 4885 N 472.614 -7.0022 -0.513443 0
M  V30 4886 H 477.454 -2.79645 1.02968 0
M  V30 4887 H 474.991 -1.37629 0.519303 0
M  V30 4888 H 476.949 -4.01615 -1.12966 0
M  V30 4889 H 475.579 -2.90777 -1.40173 0
M  V30 4890 H 474.631 -3.69962 0.885013 0
M  V30 4891 H 475.943 -4.89748 0.945971 0
M  V30 4892 H 475.097 -5.95529 -1.15888 0
M  V30 4893 H 473.836 -4.69875 -1.30647 0
M  V30 4894 H 472.841 -5.42707 0.880301 0
M  V30 4895 H 474.066 -6.71494 1.01352 0
M  V30 4896 H 472.012 -6.44662 -1.21439 0
M  V30 4897 H 471.929 -7.55917 0.111922 0
M  V30 4898 H 473.197 -7.72175 -1.06608 0
M  V30 4899 N 477.426 -0.562348 -1.47226 0
M  V30 4900 C 478.703 0.0256985 -1.95583 0
M  V30 4901 C 479.083 1.48032 -1.50498 0
M  V30 4902 O 478.431 2.15973 -0.746181 0
M  V30 4903 C 478.641 -0.125129 -3.48776 0
M  V30 4904 C 479.989 0.0175728 -4.24596 0
M  V30 4905 O 481.013 -0.0529341 -3.56161 0
M  V30 4906 O 479.872 0.170145 -5.46235 0
M  V30 4907 H 476.966 0.0612565 -0.824728 0
M  V30 4908 H 479.512 -0.629233 -1.57603 0
M  V30 4909 H 478.284 -1.13715 -3.74412 0
M  V30 4910 H 477.907 0.567178 -3.93534 0
M  V30 4911 N 478.904 1.54736 -0.299062 0
M  V30 4912 C 480.32 1.59507 0.0543849 0
M  V30 4913 C 480.52 1.31606 1.52585 0
M  V30 4914 O 479.576 1.08853 2.27832 0
M  V30 4915 C 480.889 2.98751 -0.34181 0
M  V30 4916 C 482.437 3.1165 -0.290414 0
M  V30 4917 C 482.912 4.53199 -0.661402 0
M  V30 4918 N 484.403 4.59114 -0.613863 0
M  V30 4919 C 485.138 5.66709 -0.873417 0
M  V30 4920 N 484.634 6.82349 -1.19884 0
M  V30 4921 N 486.427 5.56369 -0.800608 0
M  V30 4922 H 478.578 1.71133 -1.25806 0
M  V30 4923 H 480.841 0.799186 -0.509908 0
M  V30 4924 H 480.547 3.24085 -1.36608 0
M  V30 4925 H 480.421 3.75961 0.305508 0
M  V30 4926 H 482.808 2.86066 0.724605 0
M  V30 4927 H 482.889 2.366 -0.972327 0
M  V30 4928 H 482.533 4.79513 -1.67422 0
M  V30 4929 H 482.463 5.26583 0.0425612 0
M  V30 4930 H 484.954 3.76053 -0.3732 0
M  V30 4931 H 485.267 7.60326 -1.38291 0
M  V30 4932 H 483.612 6.83906 -1.23685 0
M  V30 4933 H 486.803 4.64904 -0.546045 0
M  V30 4934 H 486.976 6.40139 -1.00626 0
M  V30 4935 N 480.382 0.0267497 1.57577 0
M  V30 4936 C 481.63 -0.651116 1.91324 0
M  V30 4937 C 481.951 -1.72804 0.90353 0
M  V30 4938 O 481.221 -1.95822 -0.0552946 0
M  V30 4939 H 479.801 -0.243491 0.706202 0
M  V30 4940 H 482.463 0.0739935 1.94759 0
M  V30 4941 H 481.559 -1.10536 2.9187 0
M  V30 4942 N 481.861 -1.55662 -0.24637 0
M  V30 4943 C 483.277 -1.48098 -0.594907 0
M  V30 4944 C 483.477 -0.717044 -1.8831 0
M  V30 4945 O 482.533 -0.246618 -2.51293 0
M  V30 4946 C 483.846 -2.92507 -0.697146 0
M  V30 4947 C 485.394 -3.02881 -0.789436 0
M  V30 4948 C 485.869 -4.48598 -0.923232 0
M  V30 4949 N 487.36 -4.52538 -0.988088 0
M  V30 4950 C 488.095 -5.62536 -1.11089 0
M  V30 4951 N 487.591 -6.82342 -1.19919 0
M  V30 4952 N 489.384 -5.50334 -1.14408 0
M  V30 4953 H 481.535 -2.0377 0.599278 0
M  V30 4954 H 483.798 -0.925145 0.20691 0
M  V30 4955 H 483.504 -3.51242 0.179396 0
M  V30 4956 H 483.378 -3.43024 -1.5689 0
M  V30 4957 H 485.765 -2.44226 -1.65643 0
M  V30 4958 H 485.846 -2.55574 0.107482 0
M  V30 4959 H 485.49 -5.07864 -0.0607927 0
M  V30 4960 H 485.42 -4.93587 -1.8352 0
M  V30 4961 H 487.911 -3.66248 -0.931167 0
M  V30 4962 H 488.224 -7.61924 -1.29197 0
M  V30 4963 H 486.569 -6.85102 -1.16876 0
M  V30 4964 H 489.76 -4.5567 -1.07158 0
M  V30 4965 H 489.933 -6.36096 -1.23634 0
M  V30 4966 N 483.339 0.512053 -1.4905 0
M  V30 4967 C 484.287 1.63568 -1.65373 0
M  V30 4968 C 485.281 1.61228 -0.519806 0
M  V30 4969 O 486.487 1.65869 -0.699101 0
M  V30 4970 H 482.862 0.542019 -0.521267 0
M  V30 4971 H 484.833 1.4695 -2.59708 0
M  V30 4972 C 483.582 3.01761 -1.7273 0
M  V30 4973 H 482.905 3.04263 -2.59353 0
M  V30 4974 H 484.345 3.79948 -1.8819 0
M  V30 4975 C 482.804 3.33609 -0.46973 0
M  V30 4976 O 483.334 3.99607 0.409492 0
M  V30 4977 N 481.54 2.88651 -0.336003 0
M  V30 4978 H 481.087 2.35119 -1.05247 0
M  V30 4979 H 481.045 3.10328 0.504363 0
M  V30 4980 N 484.817 1.37938 0.762283 0
M  V30 4981 C 486.094 1.24196 1.51112 0
M  V30 4982 C 486.474 -0.160409 2.1049 0
M  V30 4983 O 485.822 -1.16904 1.96331 0
M  V30 4984 C 486.032 2.34537 2.58445 0
M  V30 4985 C 487.38 2.7254 3.25588 0
M  V30 4986 O 488.404 2.33783 2.68745 0
M  V30 4987 O 487.263 3.39343 4.28379 0
M  V30 4988 H 484.357 0.485175 0.669727 0
M  V30 4989 H 486.903 1.49743 0.798438 0
M  V30 4990 H 485.675 3.28406 2.12756 0
M  V30 4991 H 485.298 2.10505 3.37303 0
M  V30 4992 N 486.295 -0.989507 1.22664 0
M  V30 4993 C 487.542 -1.72953 1.05325 0
M  V30 4994 C 487.87 -1.90104 -0.411168 0
M  V30 4995 O 487.125 -1.44386 -1.32103 0
M  V30 4996 C 487.424 -3.13649 1.71345 0
M  V30 4997 C 487.09 -3.16403 3.21248 0
M  V30 4998 C 485.752 -3.16862 3.62149 0
M  V30 4999 C 488.104 -3.12428 4.17179 0
M  V30 5000 C 485.432 -3.11051 4.97458 0
M  V30 5001 C 487.784 -3.08159 5.52468 0
M  V30 5002 C 486.448 -3.06935 5.92746 0
M  V30 5003 H 485.718 -0.632881 0.385412 0
M  V30 5004 H 488.365 -1.15863 1.52473 0
M  V30 5005 H 486.67 -3.74069 1.16532 0
M  V30 5006 H 488.367 -3.69658 1.55416 0
M  V30 5007 H 484.957 -3.16798 2.88682 0
M  V30 5008 H 489.141 -3.11221 3.86595 0
M  V30 5009 H 484.397 -3.0845 5.27891 0
M  V30 5010 H 488.571 -3.04039 6.26525 0
M  V30 5011 H 486.198 -3.02186 6.97558 0
M  V30 5012 N 487.773 -1.03688 -1.18687 0
M  V30 5013 C 489.189 -0.755413 -1.4059 0
M  V30 5014 C 489.389 0.656659 -1.905 0
M  V30 5015 O 488.445 1.42144 -2.08689 0
M  V30 5016 C 489.758 -1.7983 -2.41001 0
M  V30 5017 C 491.306 -1.81877 -2.54735 0
M  V30 5018 C 491.781 -2.85148 -3.58406 0
M  V30 5019 N 493.272 -2.84015 -3.6591 0
M  V30 5020 C 494.007 -3.60573 -4.45841 0
M  V30 5021 N 493.503 -4.46871 -5.29413 0
M  V30 5022 N 495.296 -3.49079 -4.40568 0
M  V30 5023 H 487.447 -1.94818 -0.846148 0
M  V30 5024 H 489.71 -0.842727 -0.434184 0
M  V30 5025 H 489.416 -2.81097 -2.1137 0
M  V30 5026 H 489.29 -1.62727 -3.40294 0
M  V30 5027 H 491.677 -0.812836 -2.83685 0
M  V30 5028 H 491.758 -2.03057 -1.55568 0
M  V30 5029 H 491.402 -3.85918 -3.30197 0
M  V30 5030 H 491.332 -2.61224 -4.57241 0
M  V30 5031 H 493.823 -2.21431 -3.0623 0
M  V30 5032 H 494.136 -5.02007 -5.87545 0
M  V30 5033 H 492.481 -4.5094 -5.28846 0
M  V30 5034 H 495.672 -2.81066 -3.74325 0
M  V30 5035 H 495.845 -4.08994 -5.02621 0
M  V30 5036 N 489.251 1.34841 -0.815825 0
M  V30 5037 C 490.214 2.27959 -0.238185 0
M  V30 5038 C 491.214 1.49983 0.579816 0
M  V30 5039 O 492.404 1.69617 0.396953 0
M  V30 5040 C 489.536 3.34314 0.666876 0
M  V30 5041 H 490.729 2.80558 -1.05958 0
M  V30 5042 H 488.282 1.44852 -0.587156 0
M  V30 5043 H 489.017 2.86916 1.5116 0
M  V30 5044 H 488.802 3.92014 0.0819106 0
M  V30 5045 H 490.292 4.0379 1.06506 0
M  V30 5046 N 490.729 0.570148 1.46925 0
M  V30 5047 C 491.978 0.0487352 2.01641 0
M  V30 5048 C 492.291 -1.31433 1.44861 0
M  V30 5049 O 493.497 -1.92638 1.91318 0
M  V30 5050 C 491.953 0.0365817 3.59881 0
M  V30 5051 C 491.561 1.39719 4.25655 0
M  V30 5052 C 493.305 -0.431545 4.22301 0
M  V30 5053 C 491.212 1.34345 5.75939 0
M  V30 5054 H 490.142 0.0144492 0.753862 0
M  V30 5055 H 492.793 0.719928 1.68788 0
M  V30 5056 H 491.175 -0.700522 3.89755 0
M  V30 5057 H 492.349 2.15303 4.07408 0
M  V30 5058 H 490.664 1.80431 3.75278 0
M  V30 5059 H 493.261 -0.490354 5.32447 0
M  V30 5060 H 493.604 -1.44638 3.90366 0
M  V30 5061 H 494.137 0.251102 3.97007 0
M  V30 5062 H 490.876 2.33469 6.12513 0
M  V30 5063 H 490.396 0.629615 5.96486 0
M  V30 5064 H 492.075 1.051 6.38407 0
M  V30 5065 N 492.207 -1.54576 0.307264 0
M  V30 5066 C 493.618 -1.8579 -0.184121 0
M  V30 5067 C 493.969 -1.22914 -1.52927 0
M  V30 5068 O 493.094 -0.529126 -2.09831 0
M  V30 5069 C 493.689 -3.37081 -0.340862 0
M  V30 5070 C 492.248 -3.68304 -0.776465 0
M  V30 5071 C 491.395 -2.77076 0.111503 0
M  V30 5072 H 494.346 -1.49656 0.528078 0
M  V30 5073 H 494.367 -3.61922 -1.17443 0
M  V30 5074 H 493.879 -3.82815 0.638309 0
M  V30 5075 H 491.98 -3.28092 -1.76596 0
M  V30 5076 H 492.093 -4.75434 -0.591512 0
M  V30 5077 H 490.457 -2.51374 -0.410256 0
M  V30 5078 H 491.24 -3.25632 1.08714 0
M  V30 5079 N 493.685 -0.035106 -1.57561 0
M  V30 5080 C 494.633 0.962707 -2.11742 0
M  V30 5081 C 495.627 1.33296 -1.0454 0
M  V30 5082 O 496.833 1.31449 -1.22968 0
M  V30 5083 H 493.208 0.32826 -0.676572 0
M  V30 5084 H 495.179 0.48048 -2.94506 0
M  V30 5085 C 493.928 2.23388 -2.66445 0
M  V30 5086 H 493.251 1.95774 -3.48587 0
M  V30 5087 H 494.691 2.91402 -3.07995 0
M  V30 5088 C 493.15 2.96769 -1.59467 0
M  V30 5089 O 493.68 3.89105 -0.998 0
M  V30 5090 N 491.886 2.59212 -1.31369 0
M  V30 5091 H 491.433 1.84202 -1.80076 0
M  V30 5092 H 491.391 3.08618 -0.600173 0
M  V30 5093 N 495.163 1.55791 0.238111 0
M  V30 5094 C 496.411 1.77681 0.963001 0
M  V30 5095 C 496.732 0.600674 1.85518 0
M  V30 5096 O 496.002 -0.383182 1.92116 0
M  V30 5097 H 494.582 0.655315 0.358568 0
M  V30 5098 H 497.244 1.93239 0.253945 0
M  V30 5099 H 496.34 2.69177 1.57956 0
M  V30 5100 N 496.642 -0.504142 1.49319 0
M  V30 5101 C 497.605 -1.5883 1.65244 0
M  V30 5102 C 498.605 -1.52009 0.524386 0
M  V30 5103 O 499.795 -1.55218 0.79077 0
M  V30 5104 C 496.927 -2.98481 1.64687 0
M  V30 5105 H 498.12 -1.4604 2.61939 0
M  V30 5106 H 495.673 -0.728144 1.38303 0
M  V30 5107 H 496.408 -3.16751 0.695644 0
M  V30 5108 H 496.193 -3.0484 2.46607 0
M  V30 5109 H 497.683 -3.77256 1.79075 0
M  V30 5110 N 498.12 -1.38341 -0.754957 0
M  V30 5111 C 499.531 -1.30803 -1.3322 0
M  V30 5112 C 499.882 0.0368 -1.96165 0
M  V30 5113 O 499.007 0.938844 -1.94974 0
M  V30 5114 C 499.602 -2.3688 -2.42225 0
M  V30 5115 C 498.161 -2.32925 -2.95674 0
M  V30 5116 C 497.308 -2.19819 -1.69042 0
M  V30 5117 H 500.259 -1.48719 -0.553937 0
M  V30 5118 H 500.28 -2.02517 -3.22129 0
M  V30 5119 H 499.792 -3.34747 -1.96383 0
M  V30 5120 H 497.893 -1.38635 -3.45848 0
M  V30 5121 H 498.006 -3.27008 -3.50146 0
M  V30 5122 H 496.37 -1.66648 -1.92615 0
M  V30 5123 H 497.153 -3.19625 -1.25279 0
M  V30 5124 N 499.598 0.982988 -1.23187 0
M  V30 5125 C 500.846 1.72052 -1.06031 0
M  V30 5126 C 501.167 1.90769 0.404019 0
M  V30 5127 O 500.437 1.47446 1.28982 0
M  V30 5128 H 499.017 0.637499 -0.389363 0
M  V30 5129 H 501.679 1.18338 -1.54862 0
M  V30 5130 H 500.775 2.7111 -1.54615 0
M  V30 5131 N 501.076 1.04316 1.18135 0
M  V30 5132 C 502.322 0.749128 1.88457 0
M  V30 5133 C 502.655 -0.72149 1.803 0
M  V30 5134 O 501.93 -1.52676 1.205 0
M  V30 5135 C 502.213 1.21905 3.38838 0
M  V30 5136 C 502.066 2.75195 3.55792 0
M  V30 5137 C 503.385 0.811085 4.32561 0
M  V30 5138 H 500.504 0.273611 0.684329 0
M  V30 5139 H 503.146 1.29561 1.38975 0
M  V30 5140 H 501.296 0.754137 3.8111 0
M  V30 5141 H 502.968 3.29743 3.22595 0
M  V30 5142 H 501.211 3.14899 2.98364 0
M  V30 5143 H 501.882 3.03135 4.61317 0
M  V30 5144 H 504.358 1.21118 3.98082 0
M  V30 5145 H 503.234 1.16761 5.36338 0
M  V30 5146 H 503.495 -0.285596 4.41177 0
M  V30 5147 N 502.554 -1.34406 0.822964 0
M  V30 5148 C 503.464 -2.33298 0.246838 0
M  V30 5149 C 504.48 -1.62625 -0.618797 0
M  V30 5150 O 505.656 -1.94391 -0.526685 0
M  V30 5151 C 502.721 -3.41785 -0.581731 0
M  V30 5152 C 501.782 -4.28206 0.306309 0
M  V30 5153 C 501.015 -5.31512 -0.48281 0
M  V30 5154 O 501.238 -5.43973 -1.71607 0
M  V30 5155 O 500.172 -6.01749 0.134884 0
M  V30 5156 H 503.998 -2.84401 1.06534 0
M  V30 5157 H 501.583 -1.37466 0.585108 0
M  V30 5158 H 503.465 -4.08028 -1.05313 0
M  V30 5159 H 502.14 -2.92925 -1.37756 0
M  V30 5160 H 501.047 -3.64885 0.825199 0
M  V30 5161 H 502.38 -4.80507 1.06649 0
M  V30 5162 N 504.032 -0.577932 -1.46621 0
M  V30 5163 C 504.942 0.160651 -2.34049 0
M  V30 5164 C 505.958 0.890911 -1.49462 0
M  V30 5165 O 507.134 0.855166 -1.82343 0
M  V30 5166 C 504.199 1.16447 -3.26559 0
M  V30 5167 C 503.26 0.4394 -4.27045 0
M  V30 5168 C 502.493 1.3954 -5.15135 0
M  V30 5169 O 502.716 2.63162 -5.06065 0
M  V30 5170 O 501.65 0.908585 -5.95003 0
M  V30 5171 H 505.476 -0.557057 -2.98547 0
M  V30 5172 H 503.061 -0.338369 -1.45518 0
M  V30 5173 H 504.943 1.7434 -3.83645 0
M  V30 5174 H 503.618 1.86373 -2.64663 0
M  V30 5175 H 502.525 -0.181247 -3.73661 0
M  V30 5176 H 503.858 -0.218799 -4.91713 0
M  V30 5177 N 505.51 1.54411 -0.315457 0
M  V30 5178 C 506.926 1.59556 0.037464 0
M  V30 5179 C 507.126 1.33217 1.5118 0
M  V30 5180 O 506.182 1.11264 2.26664 0
M  V30 5181 C 507.495 2.98372 -0.373477 0
M  V30 5182 C 509.043 3.11324 -0.323452 0
M  V30 5183 C 509.518 4.52472 -0.709433 0
M  V30 5184 N 511.009 4.58437 -0.662524 0
M  V30 5185 C 511.744 5.65751 -0.933474 0
M  V30 5186 N 511.24 6.81039 -1.27114 0
M  V30 5187 N 513.033 5.55489 -0.859573 0
M  V30 5188 H 505.184 1.6979 -1.27614 0
M  V30 5189 H 507.447 0.793732 -0.518356 0
M  V30 5190 H 507.153 3.22618 -1.40037 0
M  V30 5191 H 507.027 3.76264 0.265615 0
M  V30 5192 H 509.414 2.86818 0.694223 0
M  V30 5193 H 509.495 2.35555 -0.997367 0
M  V30 5194 H 509.139 4.7771 -1.72498 0
M  V30 5195 H 509.069 5.26598 -0.0132923 0
M  V30 5196 H 511.56 3.75636 -0.413065 0
M  V30 5197 H 511.873 7.58816 -1.46348 0
M  V30 5198 H 510.218 6.82555 -1.30932 0
M  V30 5199 H 513.409 4.64299 -0.595324 0
M  V30 5200 H 513.582 6.39036 -1.0741 0
M  V30 5201 N 506.988 0.0434614 1.5754 0
M  V30 5202 C 507.918 -0.931651 2.14109 0
M  V30 5203 C 508.899 -1.32971 1.06079 0
M  V30 5204 O 510.084 -1.40579 1.33982 0
M  V30 5205 C 507.214 -2.20914 2.67982 0
M  V30 5206 C 506.168 -1.95139 3.80926 0
M  V30 5207 C 505.494 -3.29276 4.21285 0
M  V30 5208 C 506.794 -1.27913 5.06395 0
M  V30 5209 H 508.488 -0.460497 2.95837 0
M  V30 5210 H 506.034 -0.220058 1.42309 0
M  V30 5211 H 507.987 -2.89522 3.06194 0
M  V30 5212 H 506.711 -2.70221 1.83434 0
M  V30 5213 H 505.37 -1.28945 3.43175 0
M  V30 5214 H 505.018 -3.76369 3.33699 0
M  V30 5215 H 504.718 -3.12831 4.97404 0
M  V30 5216 H 506.242 -3.99129 4.62091 0
M  V30 5217 H 507.656 -1.86544 5.42102 0
M  V30 5218 H 506.053 -1.2182 5.87605 0
M  V30 5219 H 507.123 -0.254066 4.84234 0
M  V30 5220 N 508.466 -1.55915 -0.229846 0
M  V30 5221 C 509.399 -1.86734 -1.3117 0
M  V30 5222 C 510.377 -0.723947 -1.45595 0
M  V30 5223 O 511.561 -0.971462 -1.61539 0
M  V30 5224 C 508.688 -2.06707 -2.68309 0
M  V30 5225 C 507.734 -3.2938 -2.70944 0
M  V30 5226 S 508.567 -4.85547 -2.25842 0
M  V30 5227 C 509.723 -5.08546 -3.64873 0
M  V30 5228 H 509.956 -2.78204 -1.04832 0
M  V30 5229 H 507.489 -1.48243 -0.431681 0
M  V30 5230 H 509.447 -2.18898 -3.47267 0
M  V30 5231 H 508.108 -1.16049 -2.91876 0
M  V30 5232 H 507.301 -3.40374 -3.71701 0
M  V30 5233 H 506.903 -3.16004 -2.00044 0
M  V30 5234 H 509.195 -4.96935 -4.60502 0
M  V30 5235 H 510.138 -6.10465 -3.58801 0
M  V30 5236 H 510.546 -4.36314 -3.58176 0
M  V30 5237 N 509.944 0.496216 -1.49584 0
M  V30 5238 C 510.877 1.61508 -1.61215 0
M  V30 5239 C 511.855 1.55927 -0.461045 0
M  V30 5240 O 513.039 1.75914 -0.677231 0
M  V30 5241 C 510.166 3.00035 -1.57152 0
M  V30 5242 C 509.212 3.23861 -2.77518 0
M  V30 5243 S 510.045 3.06466 -4.39134 0
M  V30 5244 C 511.201 4.4738 -4.37724 0
M  V30 5245 H 511.434 1.51398 -2.55863 0
M  V30 5246 H 508.967 0.681727 -1.38535 0
M  V30 5247 H 510.925 3.7991 -1.55494 0
M  V30 5248 H 509.586 3.07556 -0.637834 0
M  V30 5249 H 508.779 4.25 -2.70908 0
M  V30 5250 H 508.381 2.51716 -2.76614 0
M  V30 5251 H 510.673 5.39556 -4.09738 0
M  V30 5252 H 511.616 4.59038 -5.39156 0
M  V30 5253 H 512.024 4.28283 -3.67742 0
M  V30 5254 N 511.423 1.38739 0.74761 0
M  V30 5255 C 512.669 1.35475 1.50912 0
M  V30 5256 C 513.002 -0.0533093 1.94127 0
M  V30 5257 O 512.277 -1.01572 1.65871 0
M  V30 5258 C 512.56 2.31582 2.75757 0
M  V30 5259 C 512.413 3.81274 2.38642 0
M  V30 5260 C 513.732 2.25722 3.77806 0
M  V30 5261 H 510.851 0.493427 0.547447 0
M  V30 5262 H 513.493 1.69634 0.855823 0
M  V30 5263 H 511.643 2.02582 3.31501 0
M  V30 5264 H 513.315 4.20972 1.88626 0
M  V30 5265 H 511.558 3.98664 1.71025 0
M  V30 5266 H 512.229 4.4399 3.27989 0
M  V30 5267 H 514.705 2.51336 3.31616 0
M  V30 5268 H 513.581 2.95069 4.62845 0
M  V30 5269 H 513.842 1.25803 4.23823 0
M  V30 5270 N 512.901 -0.976442 1.23707 0
M  V30 5271 C 514.131 -1.75087 1.09673 0
M  V30 5272 C 514.539 -1.85852 -0.354344 0
M  V30 5273 O 513.882 -1.33985 -1.25673 0
M  V30 5274 C 513.944 -3.19272 1.65245 0
M  V30 5275 C 513.608 -3.32004 3.14042 0
M  V30 5276 C 514.605 -3.18017 4.11292 0
M  V30 5277 C 512.29 -3.56525 3.53829 0
M  V30 5278 C 514.284 -3.28363 5.46312 0
M  V30 5279 C 511.971 -3.6651 4.88993 0
M  V30 5280 C 512.969 -3.52439 5.85043 0
M  V30 5281 O 512.657 -3.62063 7.1775 0
M  V30 5282 H 512.389 -0.556164 0.384262 0
M  V30 5283 H 514.943 -1.23518 1.64111 0
M  V30 5284 H 513.173 -3.72107 1.05231 0
M  V30 5285 H 514.862 -3.7849 1.46629 0
M  V30 5286 H 515.628 -2.98966 3.81896 0
M  V30 5287 H 511.507 -3.66547 2.79579 0
M  V30 5288 H 515.051 -3.17297 6.21263 0
M  V30 5289 H 510.948 -3.85072 5.18063 0
M  V30 5290 H 511.716 -3.78833 7.25553 0
M  V30 5291 N 514.379 -1.04941 -1.1758 0
M  V30 5292 C 515.311 -0.606174 -2.21039 0
M  V30 5293 C 516.324 0.328763 -1.59446 0
M  V30 5294 O 517.513 0.121895 -1.78083 0
M  V30 5295 C 514.613 0.133294 -3.38638 0
M  V30 5296 C 513.786 -0.811711 -4.29802 0
M  V30 5297 C 512.845 -0.113958 -5.26077 0
M  V30 5298 O 511.871 -0.747237 -5.64274 0
M  V30 5299 N 513.073 1.14953 -5.69004 0
M  V30 5300 H 515.838 -1.49606 -2.59689 0
M  V30 5301 H 513.399 -0.930997 -1.32454 0
M  V30 5302 H 515.391 0.610144 -4.00074 0
M  V30 5303 H 513.961 0.924816 -2.98607 0
M  V30 5304 H 513.181 -1.46824 -3.65837 0
M  V30 5305 H 514.469 -1.45326 -4.87604 0
M  V30 5306 H 513.867 1.68441 -5.40041 0
M  V30 5307 H 512.424 1.57049 -6.32597 0
M  V30 5308 N 515.857 1.33968 -0.830081 0
M  V30 5309 C 517.105 1.97672 -0.420734 0
M  V30 5310 C 517.426 1.66111 1.02138 0
M  V30 5311 O 516.696 0.955503 1.71017 0
M  V30 5312 H 515.276 0.73125 -0.152587 0
M  V30 5313 H 517.938 1.63483 -1.0611 0
M  V30 5314 H 517.034 3.07294 -0.545588 0
M  V30 5315 N 517.335 0.585699 1.46312 0
M  V30 5316 C 518.581 0.0725284 2.0267 0
M  V30 5317 C 518.914 -1.28523 1.45586 0
M  V30 5318 O 518.189 -1.84283 0.622101 0
M  V30 5319 C 518.472 0.0099788 3.60099 0
M  V30 5320 C 518.325 1.39685 4.27561 0
M  V30 5321 C 519.644 -0.689117 4.34671 0
M  V30 5322 H 516.763 0.0278307 0.736474 0
M  V30 5323 H 519.405 0.753472 1.74421 0
M  V30 5324 H 517.555 -0.56992 3.84297 0
M  V30 5325 H 519.227 2.02215 4.14617 0
M  V30 5326 H 517.47 1.96374 3.86807 0
M  V30 5327 H 518.141 1.30553 5.36339 0
M  V30 5328 H 520.617 -0.196446 4.15636 0
M  V30 5329 H 519.493 -0.701921 5.44393 0
M  V30 5330 H 519.754 -1.75101 4.05946 0
M  V30 5331 N 518.813 -1.54241 0.323641 0
M  V30 5332 C 519.761 -2.25813 -0.557804 0
M  V30 5333 C 520.755 -1.27225 -1.11849 0
M  V30 5334 O 521.961 -1.45001 -1.06652 0
M  V30 5335 H 518.336 -0.72532 -0.198532 0
M  V30 5336 H 520.307 -2.98322 0.0681112 0
M  V30 5337 C 519.056 -3.02913 -1.70701 0
M  V30 5338 H 518.379 -3.78593 -1.28482 0
M  V30 5339 H 519.819 -3.56238 -2.29935 0
M  V30 5340 C 518.278 -2.11217 -2.62467 0
M  V30 5341 O 518.808 -1.69508 -3.64184 0
M  V30 5342 N 517.014 -1.76704 -2.30703 0
M  V30 5343 H 516.561 -2.1082 -1.48029 0
M  V30 5344 H 516.519 -1.15631 -2.92364 0
M  V30 5345 N 520.291 -0.0518155 -1.57515 0
M  V30 5346 C 521.201 0.937539 -2.15052 0
M  V30 5347 C 522.217 1.34121 -1.10849 0
M  V30 5348 O 523.393 1.418 -1.4302 0
M  V30 5349 C 520.458 2.19379 -2.68466 0
M  V30 5350 C 519.519 1.84841 -3.87469 0
M  V30 5351 C 518.752 3.04477 -4.38326 0
M  V30 5352 O 518.975 4.17868 -3.88256 0
M  V30 5353 O 517.909 2.85453 -5.29906 0
M  V30 5354 H 521.735 0.478201 -2.99912 0
M  V30 5355 H 519.32 0.17012 -1.48428 0
M  V30 5356 H 521.202 2.93084 -3.02787 0
M  V30 5357 H 519.877 2.64449 -1.86677 0
M  V30 5358 H 518.784 1.08449 -3.58036 0
M  V30 5359 H 520.117 1.44569 -4.7049 0
M  V30 5360 N 521.769 1.56035 0.221574 0
M  V30 5361 C 523.017 1.78693 0.944102 0
M  V30 5362 C 523.338 0.620317 1.8487 0
M  V30 5363 O 522.608 -0.362784 1.92512 0
M  V30 5364 H 521.188 0.659082 0.351597 0
M  V30 5365 H 523.85 1.93497 0.233435 0
M  V30 5366 H 522.946 2.70837 1.55093 0
M  V30 5367 N 523.247 -0.488276 1.49845 0
M  V30 5368 C 524.663 -0.820566 1.3689 0
M  V30 5369 C 524.863 -1.97248 0.411752 0
M  V30 5370 O 523.919 -2.52042 -0.151931 0
M  V30 5371 C 525.232 -1.1488 2.77891 0
M  V30 5372 C 526.78 -1.25626 2.86683 0
M  V30 5373 C 527.255 -1.61772 4.28479 0
M  V30 5374 N 528.746 -1.68797 4.31349 0
M  V30 5375 C 529.481 -1.98235 5.38043 0
M  V30 5376 N 528.977 -2.2581 6.54967 0
M  V30 5377 N 530.77 -1.99593 5.2547 0
M  V30 5378 H 522.921 0.271123 2.10662 0
M  V30 5379 H 525.184 0.058735 0.946179 0
M  V30 5380 H 524.89 -0.375614 3.49688 0
M  V30 5381 H 524.764 -2.08919 3.14058 0
M  V30 5382 H 527.151 -2.02014 2.15114 0
M  V30 5383 H 527.232 -0.296072 2.54081 0
M  V30 5384 H 526.876 -0.859295 5.00578 0
M  V30 5385 H 526.806 -2.58912 4.58554 0
M  V30 5386 H 529.297 -1.49595 3.4703 0
M  V30 5387 H 529.61 -2.47497 7.32096 0
M  V30 5388 H 527.955 -2.23239 6.58171 0
M  V30 5389 H 531.146 -1.77535 4.33127 0
M  V30 5390 H 531.319 -2.222 6.08713 0
M  V30 5391 N 524.725 -1.39134 -0.740242 0
M  V30 5392 C 525.974 -1.35384 -1.49512 0
M  V30 5393 C 526.287 0.04919 -1.95538 0
M  V30 5394 O 527.493 0.209257 -2.70692 0
M  V30 5395 C 525.949 -2.37812 -2.70136 0
M  V30 5396 C 525.557 -3.83804 -2.31081 0
M  V30 5397 C 527.301 -2.4313 -3.47977 0
M  V30 5398 C 525.208 -4.77886 -3.48395 0
M  V30 5399 H 524.138 -0.503297 -0.561434 0
M  V30 5400 H 526.789 -1.64754 -0.807974 0
M  V30 5401 H 525.171 -2.01505 -3.40899 0
M  V30 5402 H 526.345 -4.29123 -1.67898 0
M  V30 5403 H 524.66 -3.81732 -1.66343 0
M  V30 5404 H 527.257 -3.10614 -4.35228 0
M  V30 5405 H 527.6 -1.45423 -3.90074 0
M  V30 5406 H 528.133 -2.78304 -2.84239 0
M  V30 5407 H 524.872 -5.76836 -3.11353 0
M  V30 5408 H 524.392 -4.3725 -4.10576 0
M  V30 5409 H 526.071 -4.96538 -4.148 0
M  V30 5410 N 526.204 0.969867 -1.24223 0
M  V30 5411 C 527.429 1.75289 -1.10853 0
M  V30 5412 C 527.854 1.85091 0.335079 0
M  V30 5413 O 527.212 1.32024 1.24255 0
M  V30 5414 C 527.26 3.15255 -1.75062 0
M  V30 5415 O 526.364 3.99589 -1.01992 0
M  V30 5416 H 525.705 0.538904 -0.387915 0
M  V30 5417 H 528.235 1.21675 -1.64488 0
M  V30 5418 H 528.245 3.65787 -1.80731 0
M  V30 5419 H 526.92 3.07436 -2.801 0
M  V30 5420 H 525.497 3.58077 -1.04094 0
M  V30 5421 N 527.682 1.05563 1.17022 0
M  V30 5422 C 528.612 0.681026 2.23348 0
M  V30 5423 C 529.593 -0.322983 1.67005 0
M  V30 5424 O 530.778 -0.199746 1.9317 0
M  V30 5425 C 527.908 0.0589053 3.4725 0
M  V30 5426 C 526.862 0.988082 4.16438 0
M  V30 5427 C 526.188 0.229646 5.34207 0
M  V30 5428 C 527.488 2.31388 4.68249 0
M  V30 5429 H 529.182 1.56993 2.54938 0
M  V30 5430 H 526.728 0.756302 1.2254 0
M  V30 5431 H 528.681 -0.214982 4.20851 0
M  V30 5432 H 527.405 -0.864968 3.14938 0
M  V30 5433 H 526.064 1.24659 3.44754 0
M  V30 5434 H 525.712 -0.697111 4.98146 0
M  V30 5435 H 525.412 0.848815 5.81437 0
M  V30 5436 H 526.936 -0.0368694 6.10589 0
M  V30 5437 H 528.35 2.09964 5.33468 0
M  V30 5438 H 526.747 2.88736 5.26072 0
M  V30 5439 H 527.817 2.94982 3.84855 0
M  V30 5440 N 529.16 -1.33526 0.837174 0
M  V30 5441 C 530.388 -2.02047 0.445494 0
M  V30 5442 C 530.803 -1.62995 -0.952788 0
M  V30 5443 O 530.16 -0.842447 -1.61892 0
M  V30 5444 C 530.211 -3.57221 0.554577 0
M  V30 5445 O 529.932 -3.94863 1.89776 0
M  V30 5446 C 531.433 -4.43012 0.159634 0
M  V30 5447 H 528.653 -0.647221 0.177048 0
M  V30 5448 H 531.197 -1.70492 1.12928 0
M  V30 5449 H 529.352 -3.87315 -0.0812781 0
M  V30 5450 H 529.766 -4.89569 1.88208 0
M  V30 5451 H 531.24 -5.51253 0.28701 0
M  V30 5452 H 531.717 -4.29916 -0.898289 0
M  V30 5453 H 532.323 -4.18274 0.769855 0
M  V30 5454 N 530.638 -0.59345 -1.46 0
M  V30 5455 C 531.57 0.171569 -2.28557 0
M  V30 5456 C 532.583 0.845273 -1.39137 0
M  V30 5457 O 533.772 0.713033 -1.6364 0
M  V30 5458 C 530.872 1.26311 -3.14482 0
M  V30 5459 C 530.045 0.679258 -4.32094 0
M  V30 5460 C 529.104 1.65987 -4.99334 0
M  V30 5461 O 528.13 1.19171 -5.56585 0
M  V30 5462 N 529.332 2.99414 -4.97324 0
M  V30 5463 H 532.097 -0.536771 -2.94854 0
M  V30 5464 H 529.658 -0.431954 -1.56031 0
M  V30 5465 H 531.65 1.91863 -3.5633 0
M  V30 5466 H 530.22 1.87416 -2.50188 0
M  V30 5467 H 529.44 -0.153992 -3.93899 0
M  V30 5468 H 530.728 0.26916 -5.08088 0
M  V30 5469 H 530.126 3.40064 -4.52076 0
M  V30 5470 H 528.683 3.60426 -5.4308 0
M  V30 5471 N 532.116 1.54067 -0.331816 0
M  V30 5472 C 533.363 2.00715 0.268269 0
M  V30 5473 C 533.691 1.21986 1.51491 0
M  V30 5474 O 532.946 0.292309 1.93505 0
M  V30 5475 C 533.245 3.51634 0.639392 0
M  V30 5476 C 532.911 4.48018 -0.509019 0
M  V30 5477 C 531.573 4.74089 -0.824209 0
M  V30 5478 C 533.925 5.05237 -1.28003 0
M  V30 5479 C 531.253 5.54637 -1.91298 0
M  V30 5480 C 533.605 5.86972 -2.35895 0
M  V30 5481 C 532.269 6.11342 -2.67987 0
M  V30 5482 H 531.539 0.734469 0.0981667 0
M  V30 5483 H 534.186 1.8596 -0.457304 0
M  V30 5484 H 532.491 3.6416 1.44551 0
M  V30 5485 H 534.188 3.85175 1.11539 0
M  V30 5486 H 530.778 4.27851 -0.253287 0
M  V30 5487 H 534.962 4.8507 -1.04978 0
M  V30 5488 H 530.218 5.71747 -2.16599 0
M  V30 5489 H 534.392 6.30327 -2.96076 0
M  V30 5490 H 532.019 6.73544 -3.5248 0
M  V30 5491 N 533.594 0.0601682 1.57485 0
M  V30 5492 C 534.84 -0.612501 1.93329 0
M  V30 5493 C 535.173 -1.6996 0.939526 0
M  V30 5494 O 534.448 -1.94472 -0.0330957 0
M  V30 5495 C 534.731 -1.20025 3.39508 0
M  V30 5496 C 534.584 -0.12059 4.49638 0
M  V30 5497 C 535.903 -2.10923 3.86264 0
M  V30 5498 H 533.022 -0.221185 0.703027 0
M  V30 5499 H 535.664 0.123768 1.89596 0
M  V30 5500 H 533.814 -1.82774 3.42821 0
M  V30 5501 H 535.486 0.51185 4.58452 0
M  V30 5502 H 533.729 0.550251 4.30296 0
M  V30 5503 H 534.4 -0.572019 5.49028 0
M  V30 5504 H 536.876 -1.58124 3.84884 0
M  V30 5505 H 535.752 -2.48987 4.8918 0
M  V30 5506 H 536.013 -3.01292 3.23536 0
M  V30 5507 N 535.072 -1.5615 -0.213296 0
M  V30 5508 C 535.982 -1.96265 -1.28519 0
M  V30 5509 C 536.998 -0.86765 -1.50824 0
M  V30 5510 O 538.174 -1.17191 -1.63793 0
M  V30 5511 C 535.239 -2.27836 -2.61327 0
M  V30 5512 C 534.3 -3.50949 -2.47252 0
M  V30 5513 C 533.533 -3.81004 -3.73727 0
M  V30 5514 O 533.756 -3.12612 -4.77106 0
M  V30 5515 O 532.69 -4.74477 -3.70344 0
M  V30 5516 H 536.516 -2.87631 -0.974795 0
M  V30 5517 H 534.101 -1.43467 -0.416832 0
M  V30 5518 H 535.983 -2.49299 -3.39747 0
M  V30 5519 H 534.658 -1.39643 -2.9203 0
M  V30 5520 H 533.565 -3.34754 -1.67004 0
M  V30 5521 H 534.898 -4.39551 -2.21486 0
M  V30 5522 N 536.55 0.480323 -1.50102 0
M  V30 5523 C 537.48 1.58769 -1.71215 0
M  V30 5524 C 538.461 1.60583 -0.560997 0
M  V30 5525 O 539.646 1.76996 -0.799127 0
M  V30 5526 C 536.776 2.97148 -1.79778 0
M  V30 5527 C 535.73 3.10201 -2.94888 0
M  V30 5528 C 535.056 4.50137 -2.88584 0
M  V30 5529 C 536.356 2.88283 -4.35534 0
M  V30 5530 H 538.05 1.41354 -2.6393 0
M  V30 5531 H 535.596 0.678591 -1.27008 0
M  V30 5532 H 537.549 3.74536 -1.93133 0
M  V30 5533 H 536.273 3.15699 -0.836772 0
M  V30 5534 H 534.932 2.35244 -2.81169 0
M  V30 5535 H 534.58 4.65593 -1.90349 0
M  V30 5536 H 534.28 4.59808 -3.65856 0
M  V30 5537 H 535.804 5.29558 -3.03976 0
M  V30 5538 H 537.218 3.55427 -4.49827 0
M  V30 5539 H 535.615 3.09408 -5.14186 0
M  V30 5540 H 536.685 1.84219 -4.48544 0
M  V30 5541 N 538.028 1.39524 0.732853 0
M  V30 5542 C 539.274 1.37068 1.49467 0
M  V30 5543 C 539.607 -0.0327166 1.94172 0
M  V30 5544 O 538.882 -0.998071 1.66939 0
M  V30 5545 C 539.165 2.34494 2.73285 0
M  V30 5546 C 539.018 3.83784 2.34585 0
M  V30 5547 C 540.337 2.29717 3.75391 0
M  V30 5548 H 537.456 0.499206 0.542183 0
M  V30 5549 H 540.098 1.70532 0.837783 0
M  V30 5550 H 538.248 2.06087 3.29333 0
M  V30 5551 H 539.92 4.22949 1.84151 0
M  V30 5552 H 538.163 4.00455 1.66787 0
M  V30 5553 H 538.834 4.47444 3.23262 0
M  V30 5554 H 541.31 2.54839 3.28932 0
M  V30 5555 H 540.186 2.99962 4.59689 0
M  V30 5556 H 540.447 1.30291 4.22465 0
M  V30 5557 N 539.506 -0.963266 1.24736 0
M  V30 5558 C 540.469 -2.04013 1.04457 0
M  V30 5559 C 541.469 -1.608 0.000335555 0
M  V30 5560 O 542.659 -1.72515 0.241719 0
M  V30 5561 C 539.791 -3.35858 0.584162 0
M  V30 5562 H 540.984 -2.23436 2.00041 0
M  V30 5563 H 538.537 -1.13914 1.07021 0
M  V30 5564 H 539.272 -3.22128 -0.374673 0
M  V30 5565 H 539.057 -3.68568 1.3379 0
M  V30 5566 H 540.547 -4.1502 0.463451 0
M  V30 5567 N 540.985 -1.06182 -1.16461 0
M  V30 5568 C 542.213 -0.798583 -1.90867 0
M  V30 5569 C 542.628 0.646921 -1.77371 0
M  V30 5570 O 541.985 1.44279 -1.11758 0
M  V30 5571 C 542.036 -1.18258 -3.4161 0
M  V30 5572 O 541.757 -2.57135 -3.54701 0
M  V30 5573 C 543.258 -0.946917 -4.33069 0
M  V30 5574 H 540.478 -0.289603 -0.605286 0
M  V30 5575 H 543.022 -1.41515 -1.47627 0
M  V30 5576 H 541.177 -0.610562 -3.82558 0
M  V30 5577 H 541.591 -2.72477 -4.4817 0
M  V30 5578 H 543.065 -1.26523 -5.37304 0
M  V30 5579 H 543.542 0.117406 -4.39043 0
M  V30 5580 H 544.148 -1.50326 -3.97847 0
M  V30 5581 N 542.463 1.3308 -0.844243 0
M  V30 5582 C 543.879 1.50447 -0.532729 0
M  V30 5583 C 544.079 1.78292 0.938837 0
M  V30 5584 O 543.135 1.84635 1.72239 0
M  V30 5585 C 544.448 2.65555 -1.41072 0
M  V30 5586 C 545.996 2.7944 -1.41005 0
M  V30 5587 C 546.471 3.97616 -2.27301 0
M  V30 5588 N 547.962 4.0486 -2.2504 0
M  V30 5589 C 548.697 4.95508 -2.88547 0
M  V30 5590 N 548.193 5.91236 -3.61126 0
M  V30 5591 N 549.986 4.88548 -2.77989 0
M  V30 5592 H 542.137 1.13269 -1.79677 0
M  V30 5593 H 544.4 0.55734 -0.766861 0
M  V30 5594 H 544.106 2.51675 -2.45668 0
M  V30 5595 H 543.98 3.61089 -1.09061 0
M  V30 5596 H 546.367 2.92749 -0.371784 0
M  V30 5597 H 546.448 1.8465 -1.77026 0
M  V30 5598 H 546.092 3.85066 -3.3119 0
M  V30 5599 H 546.022 4.91661 -1.88619 0
M  V30 5600 H 548.513 3.36353 -1.72264 0
M  V30 5601 H 548.826 6.57079 -4.06776 0
M  V30 5602 H 547.171 5.91295 -3.65234 0
M  V30 5603 H 550.362 4.12729 -2.20846 0
M  V30 5604 H 550.535 5.58994 -3.27765 0
M  V30 5605 N 543.941 0.601185 1.45683 0
M  V30 5606 C 545.352 0.179659 1.85834 0
M  V30 5607 C 545.703 -1.26189 1.50236 0
M  V30 5608 O 544.828 -1.95587 0.925987 0
M  V30 5609 C 545.423 0.319277 3.37292 0
M  V30 5610 C 543.982 -0.0475092 3.7637 0
M  V30 5611 C 543.129 0.646692 2.69654 0
M  V30 5612 H 546.08 0.808268 1.36575 0
M  V30 5613 H 546.101 -0.4503 3.77826 0
M  V30 5614 H 545.613 1.36855 3.6317 0
M  V30 5615 H 543.714 -1.0962 3.5611 0
M  V30 5616 H 543.827 0.34168 4.7788 0
M  V30 5617 H 542.191 0.0849971 2.54558 0
M  V30 5618 H 542.974 1.69797 2.98369 0
M  V30 5619 N 545.419 -1.53889 0.339982 0
M  V30 5620 C 546.382 -2.23547 -0.50592 0
M  V30 5621 C 547.382 -1.23445 -1.03044 0
M  V30 5622 O 548.572 -1.47909 -0.920253 0
M  V30 5623 C 545.704 -2.95234 -1.7044 0
M  V30 5624 H 546.897 -2.99722 0.103247 0
M  V30 5625 H 544.45 -1.56033 0.0912804 0
M  V30 5626 H 545.185 -2.23236 -2.35236 0
M  V30 5627 H 544.97 -3.68654 -1.33553 0
M  V30 5628 H 546.46 -3.48258 -2.30447 0
M  V30 5629 N 546.897 -0.0685191 -1.57451 0
M  V30 5630 C 547.844 0.899861 -2.12535 0
M  V30 5631 C 548.814 1.29749 -1.03703 0
M  V30 5632 O 549.999 1.38392 -1.31348 0
M  V30 5633 C 547.139 2.16328 -2.6888 0
M  V30 5634 C 546.252 1.81857 -3.91857 0
M  V30 5635 C 545.387 3.02786 -4.36457 0
M  V30 5636 C 544.426 2.64317 -5.5209 0
M  V30 5637 N 543.563 3.77994 -5.91663 0
M  V30 5638 H 548.403 0.423243 -2.94979 0
M  V30 5639 H 545.94 0.197268 -1.45771 0
M  V30 5640 H 547.898 2.90281 -2.99655 0
M  V30 5641 H 546.528 2.61536 -1.89206 0
M  V30 5642 H 545.58 0.979808 -3.67565 0
M  V30 5643 H 546.892 1.49553 -4.75852 0
M  V30 5644 H 546.046 3.85021 -4.68875 0
M  V30 5645 H 544.785 3.38281 -3.51308 0
M  V30 5646 H 543.79 1.80503 -5.19325 0
M  V30 5647 H 545.015 2.29995 -6.38967 0
M  V30 5648 H 542.961 4.13258 -5.09464 0
M  V30 5649 H 542.878 3.49447 -6.7039 0
M  V30 5650 H 544.146 4.60818 -6.28703 0
M  V30 5651 N 548.375 1.56261 0.205012 0
M  V30 5652 C 549.621 1.80306 0.9283 0
M  V30 5653 C 549.954 0.640932 1.83319 0
M  V30 5654 O 549.229 -0.359032 1.91158 0
M  V30 5655 C 549.512 3.14547 1.75306 0
M  V30 5656 C 549.365 4.41236 0.873562 0
M  V30 5657 C 550.684 3.45382 2.72762 0
M  V30 5658 H 547.803 0.655929 0.336044 0
M  V30 5659 H 550.445 1.88984 0.196211 0
M  V30 5660 H 548.595 3.0728 2.37721 0
M  V30 5661 H 550.267 4.60539 0.264887 0
M  V30 5662 H 548.51 4.33427 0.179773 0
M  V30 5663 H 549.181 5.31639 1.48541 0
M  V30 5664 H 551.657 3.52884 2.20481 0
M  V30 5665 H 550.533 4.40449 3.2756 0
M  V30 5666 H 550.794 2.68377 3.51321 0
M  V30 5667 N 549.853 -0.472356 1.50355 0
M  V30 5668 C 551.1 -1.22453 1.61281 0
M  V30 5669 C 551.428 -1.91972 0.31256 0
M  V30 5670 O 550.683 -1.82696 -0.701475 0
M  V30 5671 C 550.982 -2.29257 2.74182 0
M  V30 5672 C 550.648 -1.76999 4.14708 0
M  V30 5673 C 549.31 -1.62467 4.52944 0
M  V30 5674 C 551.662 -1.38215 5.0254 0
M  V30 5675 C 548.99 -1.07574 5.76754 0
M  V30 5676 C 551.342 -0.847638 6.26895 0
M  V30 5677 C 550.006 -0.688946 6.63935 0
M  V30 5678 H 549.276 -0.448087 0.590168 0
M  V30 5679 H 551.923 -0.520744 1.84284 0
M  V30 5680 H 550.228 -3.05538 2.45263 0
M  V30 5681 H 551.925 -2.87212 2.7984 0
M  V30 5682 H 548.515 -1.89276 3.84542 0
M  V30 5683 H 552.699 -1.48276 4.73633 0
M  V30 5684 H 547.955 -0.940237 6.04127 0
M  V30 5685 H 552.129 -0.538455 6.94315 0
M  V30 5686 H 549.756 -0.261435 7.5975 0
M  V30 5687 N 551.331 -1.39911 -0.725443 0
M  V30 5688 C 552.579 -1.37382 -1.48224 0
M  V30 5689 C 552.9 0.0264107 -1.94982 0
M  V30 5690 O 552.17 0.979408 -1.6966 0
M  V30 5691 H 550.75 -0.505596 -0.549892 0
M  V30 5692 H 553.412 -1.7487 -0.860608 0
M  V30 5693 H 552.508 -2.04254 -2.3598 0
M  V30 5694 N 552.809 0.956637 -1.25245 0
M  V30 5695 C 553.742 2.05232 -0.99775 0
M  V30 5696 C 554.72 1.62439 0.0723137 0
M  V30 5697 O 555.904 1.88381 -0.066926 0
M  V30 5698 C 553.031 3.34871 -0.507861 0
M  V30 5699 C 552.077 3.96625 -1.56815 0
M  V30 5700 S 552.91 4.32853 -3.15276 0
M  V30 5701 C 554.066 5.65613 -2.68017 0
M  V30 5702 H 554.299 2.26521 -1.9255 0
M  V30 5703 H 551.832 1.09601 -1.08752 0
M  V30 5704 H 553.79 4.09845 -0.231858 0
M  V30 5705 H 552.451 3.11551 0.399356 0
M  V30 5706 H 551.644 4.90087 -1.17604 0
M  V30 5707 H 551.246 3.28124 -1.79473 0
M  V30 5708 H 553.538 6.43635 -2.11518 0
M  V30 5709 H 554.481 6.09693 -3.60112 0
M  V30 5710 H 554.889 5.24751 -2.0808 0
M  V30 5711 N 554.287 1.06798 1.15896 0
M  V30 5712 C 555.534 0.787767 1.86549 0
M  V30 5713 C 555.862 -0.685959 1.82002 0
M  V30 5714 O 555.117 -1.5188 1.23414 0
M  V30 5715 C 555.416 1.23414 3.35416 0
M  V30 5716 C 555.082 2.71285 3.6016 0
M  V30 5717 C 553.744 3.11676 3.66622 0
M  V30 5718 C 556.096 3.6676 3.7032 0
M  V30 5719 C 553.424 4.4637 3.8075 0
M  V30 5720 C 555.776 5.01209 3.8597 0
M  V30 5721 C 554.44 5.41229 3.90676 0
M  V30 5722 H 553.71 0.288264 0.682631 0
M  V30 5723 H 556.357 1.338 1.37003 0
M  V30 5724 H 554.662 0.60319 3.87129 0
M  V30 5725 H 556.359 0.994298 3.88477 0
M  V30 5726 H 552.949 2.39015 3.55767 0
M  V30 5727 H 557.133 3.36685 3.64633 0
M  V30 5728 H 552.389 4.76855 3.82648 0
M  V30 5729 H 556.563 5.75067 3.92773 0
M  V30 5730 H 554.19 6.45602 4.01375 0
M  V30 5731 N 555.766 -1.3263 0.851289 0
M  V30 5732 C 557.177 -1.79653 0.5081 0
M  V30 5733 C 557.528 -1.70327 -0.973815 0
M  V30 5734 O 556.653 -1.25986 -1.75944 0
M  V30 5735 C 557.248 -3.26196 0.915515 0
M  V30 5736 C 555.807 -3.71187 0.624277 0
M  V30 5737 C 554.954 -2.53804 1.11709 0
M  V30 5738 H 557.905 -1.19976 1.03882 0
M  V30 5739 H 557.926 -3.79801 0.230535 0
M  V30 5740 H 557.438 -3.32952 1.99411 0
M  V30 5741 H 555.539 -3.69948 -0.443737 0
M  V30 5742 H 555.652 -4.64132 1.18821 0
M  V30 5743 H 554.016 -2.48964 0.537484 0
M  V30 5744 H 554.799 -2.63315 2.20272 0
M  V30 5745 N 557.244 -0.608902 -1.45362 0
M  V30 5746 C 558.176 0.147318 -2.28726 0
M  V30 5747 C 559.189 0.830468 -1.40025 0
M  V30 5748 O 560.378 0.695636 -1.64387 0
M  V30 5749 C 557.478 1.22968 -3.15804 0
M  V30 5750 C 556.651 0.633391 -4.3279 0
M  V30 5751 C 555.71 1.60682 -5.01067 0
M  V30 5752 O 554.736 1.13261 -5.57818 0
M  V30 5753 N 555.938 2.94123 -5.00472 0
M  V30 5754 H 558.703 -0.568014 -2.94268 0
M  V30 5755 H 556.264 -0.448479 -1.55564 0
M  V30 5756 H 558.256 1.88072 -3.58345 0
M  V30 5757 H 556.826 1.84752 -2.52162 0
M  V30 5758 H 556.046 -0.195762 -3.93714 0
M  V30 5759 H 557.334 0.215255 -5.08344 0
M  V30 5760 H 556.732 3.3525 -4.55657 0
M  V30 5761 H 555.289 3.54646 -5.46872 0
M  V30 5762 N 558.722 1.53707 -0.348139 0
M  V30 5763 C 559.669 2.25173 0.506518 0
M  V30 5764 C 560.639 1.25174 1.09182 0
M  V30 5765 O 561.824 1.53917 1.12757 0
M  V30 5766 C 558.964 3.03141 1.64923 0
M  V30 5767 C 558.077 4.18002 1.0908 0
M  V30 5768 C 557.212 4.83447 2.20119 0
M  V30 5769 C 556.251 5.90369 1.61651 0
M  V30 5770 N 555.388 6.49575 2.66451 0
M  V30 5771 H 560.228 2.97799 -0.109452 0
M  V30 5772 H 557.765 1.46953 -0.0657866 0
M  V30 5773 H 559.723 3.46607 2.32205 0
M  V30 5774 H 558.353 2.32803 2.23612 0
M  V30 5775 H 557.405 3.79145 0.308783 0
M  V30 5776 H 558.717 4.94892 0.623178 0
M  V30 5777 H 557.871 5.30008 2.95257 0
M  V30 5778 H 556.61 4.05991 2.70227 0
M  V30 5779 H 555.615 5.43186 0.850209 0
M  V30 5780 H 556.84 6.69735 1.1239 0
M  V30 5781 H 554.786 5.74981 3.15805 0
M  V30 5782 H 554.703 7.21952 2.24325 0
M  V30 5783 H 555.971 7.00789 3.41344 0
M  V30 5784 N 560.2 0.0768682 1.57412 0
M  V30 5785 C 561.448 -0.589918 1.93299 0
M  V30 5786 C 561.769 -1.69842 0.958049 0
M  V30 5787 O 561.039 -1.95899 0.00703261 0
M  V30 5788 H 559.619 -0.220901 0.713591 0
M  V30 5789 H 562.281 0.135917 1.94425 0
M  V30 5790 H 561.377 -1.01195 2.95239 0
M  V30 5791 N 561.678 -1.56367 -0.196722 0
M  V30 5792 C 562.906 -1.84639 -0.933608 0
M  V30 5793 C 563.321 -0.659164 -1.76919 0
M  V30 5794 O 562.678 0.372142 -1.78665 0
M  V30 5795 C 562.729 -3.11694 -1.83109 0
M  V30 5796 O 562.45 -4.25838 -1.02924 0
M  V30 5797 C 563.951 -3.53132 -2.67979 0
M  V30 5798 H 561.171 -0.613188 -0.272473 0
M  V30 5799 H 563.715 -2.03475 -0.204465 0
M  V30 5800 H 561.87 -2.94759 -2.51387 0
M  V30 5801 H 562.284 -4.98178 -1.64069 0
M  V30 5802 H 563.758 -4.45005 -3.26611 0
M  V30 5803 H 564.235 -2.76045 -3.41608 0
M  V30 5804 H 564.841 -3.72592 -2.05074 0
M  V30 5805 N 563.156 0.464375 -1.50603 0
M  V30 5806 C 564.405 1.21277 -1.61167 0
M  V30 5807 C 564.718 1.92953 -0.320704 0
M  V30 5808 O 565.924 2.69778 -0.30534 0
M  V30 5809 C 564.38 2.20403 -2.84518 0
M  V30 5810 C 563.988 1.54499 -4.20516 0
M  V30 5811 C 565.732 2.95843 -3.0443 0
M  V30 5812 C 563.639 2.51951 -5.35047 0
M  V30 5813 H 562.569 0.456367 -0.600204 0
M  V30 5814 H 565.22 0.48254 -1.77042 0
M  V30 5815 H 563.602 2.96746 -2.62217 0
M  V30 5816 H 564.776 0.83899 -4.53098 0
M  V30 5817 H 563.091 0.913152 -4.06264 0
M  V30 5818 H 565.688 3.6879 -3.87167 0
M  V30 5819 H 566.031 3.55622 -2.16423 0
M  V30 5820 H 566.564 2.26611 -3.26944 0
M  V30 5821 H 563.303 1.96901 -6.25228 0
M  V30 5822 H 562.823 3.20683 -5.06875 0
M  V30 5823 H 564.502 3.13643 -5.65895 0
M  V30 5824 N 564.634 1.40294 0.718013 0
M  V30 5825 C 565.597 1.4012 1.81381 0
M  V30 5826 C 566.597 0.295405 1.58063 0
M  V30 5827 O 567.787 0.554187 1.6515 0
M  V30 5828 C 564.919 1.19056 3.19435 0
M  V30 5829 H 566.112 2.37645 1.82933 0
M  V30 5830 H 563.665 1.26107 0.923405 0
M  V30 5831 H 564.4 0.222809 3.23534 0
M  V30 5832 H 564.185 1.99152 3.37758 0
M  V30 5833 H 565.675 1.21716 3.99468 0
M  V30 5834 N 566.112 -0.949982 1.2575 0
M  V30 5835 C 567.358 -1.69766 1.10938 0
M  V30 5836 C 567.691 -1.91056 -0.348028 0
M  V30 5837 O 566.966 -1.48488 -1.25625 0
M  V30 5838 C 567.249 -3.07779 1.86933 0
M  V30 5839 C 567.102 -2.9387 3.4053 0
M  V30 5840 C 568.421 -4.07749 1.65616 0
M  V30 5841 H 565.54 -0.616144 0.404396 0
M  V30 5842 H 568.182 -1.10394 1.54639 0
M  V30 5843 H 566.332 -3.58462 1.4979 0
M  V30 5844 H 568.004 -2.50476 3.87375 0
M  V30 5845 H 566.247 -2.29686 3.68004 0
M  V30 5846 H 566.918 -3.91719 3.88922 0
M  V30 5847 H 569.394 -3.65994 1.97959 0
M  V30 5848 H 568.27 -5.02348 2.21218 0
M  V30 5849 H 568.531 -4.38029 0.598595 0
M  V30 5850 N 567.59 -1.07411 -1.15328 0
M  V30 5851 C 568.838 -0.796073 -1.85761 0
M  V30 5852 C 569.159 0.679864 -1.82764 0
M  V30 5853 O 568.429 1.49242 -1.269 0
M  V30 5854 H 567.009 -0.291495 -0.687779 0
M  V30 5855 H 569.671 -1.35799 -1.39802 0
M  V30 5856 H 568.767 -1.13114 -2.90881 0
M  V30 5857 N 569.068 1.32177 -0.85831 0
M  V30 5858 C 570.293 2.01847 -0.476718 0
M  V30 5859 C 570.718 1.64065 0.920021 0
M  V30 5860 O 570.076 0.843189 1.60499 0
M  V30 5861 C 570.124 3.55097 -0.627578 0
M  V30 5862 O 569.228 4.11012 0.338086 0
M  V30 5863 H 568.569 0.635907 -0.191099 0
M  V30 5864 H 571.099 1.68641 -1.15851 0
M  V30 5865 H 571.109 4.04718 -0.516476 0
M  V30 5866 H 569.784 3.81938 -1.64609 0
M  V30 5867 H 568.361 3.72451 0.182917 0
M  V30 5868 N 570.547 0.616602 1.45037 0
M  V30 5869 C 571.824 0.0469086 1.95544 0
M  V30 5870 C 572.204 -1.42345 1.55888 0
M  V30 5871 O 571.552 -2.13055 0.825824 0
M  V30 5872 C 571.762 0.254489 3.48071 0
M  V30 5873 C 573.11 0.140025 4.24369 0
M  V30 5874 O 574.134 0.185084 3.55719 0
M  V30 5875 O 572.993 0.0327034 5.4649 0
M  V30 5876 H 570.087 -0.0306051 0.826433 0
M  V30 5877 H 572.633 0.687293 1.55159 0
M  V30 5878 H 571.405 1.27532 3.69934 0
M  V30 5879 H 571.028 -0.42073 3.95368 0
M  V30 5880 N 572.025 -1.5352 0.356285 0
M  V30 5881 C 572.988 -2.24071 -0.482182 0
M  V30 5882 C 573.988 -1.24531 -1.01729 0
M  V30 5883 O 575.178 -1.48876 -0.904513 0
M  V30 5884 C 572.31 -2.97025 -1.67299 0
M  V30 5885 H 573.503 -2.99596 0.135031 0
M  V30 5886 H 571.056 -1.55928 0.107825 0
M  V30 5887 H 571.791 -2.25719 -2.32855 0
M  V30 5888 H 571.576 -3.7005 -1.29636 0
M  V30 5889 H 573.066 -3.50683 -2.26741 0
M  V30 5890 N 573.503 -0.0852151 -1.57369 0
M  V30 5891 C 574.78 0.622534 -1.85429 0
M  V30 5892 C 575.16 1.86962 -0.980229 0
M  V30 5893 O 574.508 2.28445 -0.0500219 0
M  V30 5894 C 574.718 0.947374 -3.35896 0
M  V30 5895 C 576.066 1.31509 -4.03721 0
M  V30 5896 O 577.09 1.03869 -3.40719 0
M  V30 5897 O 575.949 1.83231 -5.14868 0
M  V30 5898 H 573.043 0.310513 -0.766492 0
M  V30 5899 H 575.589 -0.117164 -1.69295 0
M  V30 5900 H 574.361 0.0622264 -3.91251 0
M  V30 5901 H 573.984 1.74338 -3.5734 0
M  V30 5902 N 574.981 1.5647 0.188427 0
M  V30 5903 C 576.23 1.80207 0.905995 0
M  V30 5904 C 576.543 0.659579 1.84144 0
M  V30 5905 O 577.749 0.781431 2.60011 0
M  V30 5906 C 576.205 3.19255 1.66145 0
M  V30 5907 C 575.813 4.41324 0.770504 0
M  V30 5908 C 577.557 3.52298 2.36826 0
M  V30 5909 C 575.464 5.71394 1.52521 0
M  V30 5910 H 574.394 0.671953 0.342045 0
M  V30 5911 H 577.045 1.82808 0.159164 0
M  V30 5912 H 575.427 3.10922 2.45242 0
M  V30 5913 H 576.601 4.60797 0.0177261 0
M  V30 5914 H 574.916 4.16035 0.174199 0
M  V30 5915 H 577.513 4.46715 2.93854 0
M  V30 5916 H 577.856 2.76359 3.11338 0
M  V30 5917 H 578.389 3.62108 1.6469 0
M  V30 5918 H 575.128 6.50316 0.82275 0
M  V30 5919 H 574.648 5.55928 2.25175 0
M  V30 5920 H 576.327 6.12747 2.07725 0
M  V30 5921 N 576.459 -0.456382 1.50847 0
M  V30 5922 C 577.705 -1.20914 1.62811 0
M  V30 5923 C 578.038 -1.91301 0.334304 0
M  V30 5924 O 577.313 -1.82775 -0.665098 0
M  V30 5925 C 577.596 -2.24122 2.81853 0
M  V30 5926 C 577.449 -1.57944 4.21158 0
M  V30 5927 C 578.768 -3.25295 2.96431 0
M  V30 5928 H 575.887 -0.438233 0.592554 0
M  V30 5929 H 578.529 -0.50091 1.83278 0
M  V30 5930 H 576.679 -2.84524 2.64534 0
M  V30 5931 H 578.351 -1.01025 4.50102 0
M  V30 5932 H 576.594 -0.882185 4.24735 0
M  V30 5933 H 577.265 -2.33014 5.00408 0
M  V30 5934 H 579.741 -2.7493 3.12335 0
M  V30 5935 H 578.617 -3.94822 3.81322 0
M  V30 5936 H 578.878 -3.90286 2.07676 0
M  V30 5937 N 577.937 -1.40673 -0.710563 0
M  V30 5938 C 578.867 -1.44095 -1.83736 0
M  V30 5939 C 579.848 -0.301286 -1.67411 0
M  V30 5940 O 581.033 -0.510618 -1.87367 0
M  V30 5941 C 578.163 -1.30773 -3.21738 0
M  V30 5942 C 577.117 -2.42395 -3.52745 0
M  V30 5943 C 576.443 -2.14147 -4.89944 0
M  V30 5944 C 577.743 -3.84738 -3.53234 0
M  V30 5945 H 579.437 -2.38396 -1.81129 0
M  V30 5946 H 576.983 -1.14746 -0.870017 0
M  V30 5947 H 578.936 -1.31783 -4.00264 0
M  V30 5948 H 577.66 -0.329507 -3.24934 0
M  V30 5949 H 576.319 -2.40643 -2.76562 0
M  V30 5950 H 575.967 -1.14703 -4.89747 0
M  V30 5951 H 575.667 -2.88934 -5.11655 0
M  V30 5952 H 577.191 -2.16848 -5.70797 0
M  V30 5953 H 578.605 -3.88286 -4.2179 0
M  V30 5954 H 577.002 -4.59085 -3.86473 0
M  V30 5955 H 578.072 -4.13962 -2.52514 0
M  V30 5956 N 579.415 0.9433 -1.26252 0
M  V30 5957 C 580.661 1.69226 -1.12846 0
M  V30 5958 C 581.016 1.8963 0.325282 0
M  V30 5959 O 580.309 1.46435 1.23561 0
M  V30 5960 C 580.503 3.07073 -1.82868 0
M  V30 5961 C 580.332 3.00118 -3.34902 0
M  V30 5962 C 579.102 3.03251 -4.04186 0
M  V30 5963 C 581.3 2.80418 -4.31127 0
M  V30 5964 N 579.282 2.86573 -5.42908 0
M  V30 5965 C 580.653 2.72287 -5.5701 0
M  V30 5966 C 582.708 2.65185 -4.21404 0
M  V30 5967 C 581.411 2.50479 -6.74279 0
M  V30 5968 C 583.437 2.4475 -5.38378 0
M  V30 5969 C 582.799 2.37349 -6.63208 0
M  V30 5970 H 578.898 0.626716 -0.467708 0
M  V30 5971 H 581.482 1.11645 -1.5951 0
M  V30 5972 H 579.653 3.62797 -1.38682 0
M  V30 5973 H 581.385 3.70816 -1.62103 0
M  V30 5974 H 578.14 3.12882 -3.55531 0
M  V30 5975 H 578.564 2.81408 -6.15742 0
M  V30 5976 H 583.206 2.69675 -3.25631 0
M  V30 5977 H 580.924 2.4473 -7.70151 0
M  V30 5978 H 584.51 2.33872 -5.32724 0
M  V30 5979 H 583.39 2.21746 -7.52196 0
M  V30 5980 N 580.893 1.08022 1.14757 0
M  V30 5981 C 582.17 0.720386 1.81851 0
M  V30 5982 C 582.55 -0.796375 1.95502 0
M  V30 5983 O 581.898 -1.71339 1.51179 0
M  V30 5984 C 582.108 1.44273 3.17783 0
M  V30 5985 C 583.456 1.59925 3.93331 0
M  V30 5986 O 584.48 1.40407 3.2736 0
M  V30 5987 O 583.339 1.92096 5.11626 0
M  V30 5988 H 580.433 0.257142 0.786007 0
M  V30 5989 H 582.979 1.18155 1.21809 0
M  V30 5990 H 581.751 2.47618 3.02987 0
M  V30 5991 H 581.374 0.97279 3.85516 0
M  V30 5992 N 582.371 -1.3172 0.865308 0
M  V30 5993 C 583.782 -1.79104 0.527126 0
M  V30 5994 C 584.133 -1.7135 -0.955695 0
M  V30 5995 O 583.258 -1.27845 -1.74598 0
M  V30 5996 C 583.853 -3.25207 0.950061 0
M  V30 5997 C 582.412 -3.70504 0.663611 0
M  V30 5998 C 581.559 -2.52605 1.14395 0
M  V30 5999 H 584.51 -1.18868 1.05148 0
M  V30 6000 H 584.531 -3.79535 0.270805 0
M  V30 6001 H 584.043 -3.30818 2.02931 0
M  V30 6002 H 582.144 -3.70398 -0.404474 0
M  V30 6003 H 582.257 -4.62845 1.23737 0
M  V30 6004 H 580.621 -2.4838 0.563859 0
M  V30 6005 H 581.404 -2.60964 2.23053 0
M  V30 6006 N 583.85 -0.624285 -1.44708 0
M  V30 6007 C 584.76 0.0861083 -2.34442 0
M  V30 6008 C 585.776 0.84291 -1.5222 0
M  V30 6009 O 586.952 0.796723 -1.84971 0
M  V30 6010 C 584.017 1.05999 -3.30099 0
M  V30 6011 C 583.077 0.303316 -4.28227 0
M  V30 6012 C 582.311 1.23081 -5.19314 0
M  V30 6013 O 582.534 2.46929 -5.14181 0
M  V30 6014 O 581.468 0.71883 -5.97592 0
M  V30 6015 H 585.293 -0.651756 -2.96624 0
M  V30 6016 H 582.879 -0.384493 -1.44368 0
M  V30 6017 H 584.76 1.62046 -3.88997 0
M  V30 6018 H 583.436 1.77859 -2.70459 0
M  V30 6019 H 582.343 -0.300033 -3.72895 0
M  V30 6020 H 583.676 -0.375123 -4.90768 0
M  V30 6021 N 585.328 1.53329 -0.364422 0
M  V30 6022 C 586.291 2.24323 0.470292 0
M  V30 6023 C 587.291 1.25068 1.01067 0
M  V30 6024 O 588.481 1.49354 0.896605 0
M  V30 6025 C 585.613 2.97908 1.65722 0
M  V30 6026 H 586.806 2.9952 -0.150917 0
M  V30 6027 H 584.359 1.55868 -0.116092 0
M  V30 6028 H 585.094 2.2695 2.31655 0
M  V30 6029 H 584.879 3.70732 1.27671 0
M  V30 6030 H 586.369 3.5188 2.24878 0
M  V30 6031 N 586.806 0.0935595 1.57322 0
M  V30 6032 C 587.716 -0.880192 2.17462 0
M  V30 6033 C 588.732 -1.31135 1.14366 0
M  V30 6034 O 589.908 -1.37958 1.46729 0
M  V30 6035 C 586.973 -2.12184 2.74188 0
M  V30 6036 C 586.034 -1.74503 3.92234 0
M  V30 6037 C 585.267 -2.92748 4.46245 0
M  V30 6038 O 585.49 -4.07427 3.99198 0
M  V30 6039 O 584.424 -2.71303 5.37288 0
M  V30 6040 H 588.25 -0.398516 3.01074 0
M  V30 6041 H 585.835 -0.130707 1.48827 0
M  V30 6042 H 587.717 -2.84953 3.10451 0
M  V30 6043 H 586.392 -2.59407 1.93623 0
M  V30 6044 H 585.299 -0.989186 3.60785 0
M  V30 6045 H 586.632 -1.32044 4.74157 0
M  V30 6046 N 588.284 -1.56567 -0.180126 0
M  V30 6047 C 589.217 -1.90813 -1.25163 0
M  V30 6048 C 590.195 -0.7699 -1.43218 0
M  V30 6049 O 591.379 -1.02236 -1.58367 0
M  V30 6050 C 588.506 -2.15138 -2.61597 0
M  V30 6051 C 587.552 -3.37834 -2.60328 0
M  V30 6052 S 588.385 -4.92486 -2.1028 0
M  V30 6053 C 589.541 -5.19896 -3.48509 0
M  V30 6054 H 589.774 -2.81398 -0.959283 0
M  V30 6055 H 587.307 -1.49541 -0.3843 0
M  V30 6056 H 589.265 -2.29835 -3.40127 0
M  V30 6057 H 587.926 -1.25276 -2.88036 0
M  V30 6058 H 587.119 -3.52027 -3.60684 0
M  V30 6059 H 586.721 -3.22208 -1.8989 0
M  V30 6060 H 589.013 -5.11334 -4.44459 0
M  V30 6061 H 589.956 -6.21571 -3.39198 0
M  V30 6062 H 590.364 -4.47489 -3.44114 0
M  V30 6063 N 589.762 0.448376 -1.51087 0
M  V30 6064 C 591.008 1.20049 -1.6345 0
M  V30 6065 C 591.341 1.91121 -0.344444 0
M  V30 6066 O 590.616 1.83125 0.655396 0
M  V30 6067 C 590.899 2.22624 -2.83038 0
M  V30 6068 C 590.752 1.55708 -4.21989 0
M  V30 6069 C 592.071 3.23718 -2.98152 0
M  V30 6070 H 589.19 0.435085 -0.59487 0
M  V30 6071 H 591.832 0.491183 -1.83541 0
M  V30 6072 H 589.982 2.83117 -2.66039 0
M  V30 6073 H 591.654 0.986367 -4.50631 0
M  V30 6074 H 589.897 0.859647 -4.25197 0
M  V30 6075 H 590.568 2.30357 -5.01637 0
M  V30 6076 H 593.044 2.73269 -3.13788 0
M  V30 6077 H 591.92 3.92795 -3.83411 0
M  V30 6078 H 592.181 3.89179 -2.09743 0
M  V30 6079 N 591.24 1.41047 0.703093 0
M  V30 6080 C 592.489 1.39301 1.4587 0
M  V30 6081 C 592.802 0.00267077 1.956 0
M  V30 6082 O 594.008 -0.137414 2.71152 0
M  V30 6083 C 592.464 2.44891 2.63735 0
M  V30 6084 C 592.072 3.89796 2.20824 0
M  V30 6085 C 593.816 2.5227 3.41409 0
M  V30 6086 C 591.723 4.86955 3.35602 0
M  V30 6087 H 590.653 0.518005 0.547893 0
M  V30 6088 H 593.304 1.66839 0.764009 0
M  V30 6089 H 591.686 2.10472 3.35436 0
M  V30 6090 H 592.86 4.33424 1.56461 0
M  V30 6091 H 591.175 3.86008 1.56163 0
M  V30 6092 H 593.772 3.22044 4.26839 0
M  V30 6093 H 594.115 1.55714 3.86081 0
M  V30 6094 H 594.648 2.85742 2.7676 0
M  V30 6095 H 591.387 5.84888 2.9595 0
M  V30 6096 H 590.907 4.47982 3.98839 0
M  V30 6097 H 592.586 5.07361 4.01489 0
M  V30 6098 N 592.718 -0.936591 1.26751 0
M  V30 6099 C 593.628 -2.06949 1.10496 0
M  V30 6100 C 594.644 -1.7396 0.037271 0
M  V30 6101 O 595.82 -1.99941 0.241944 0
M  V30 6102 C 592.885 -3.38612 0.744491 0
M  V30 6103 C 591.946 -3.85355 1.89209 0
M  V30 6104 C 591.179 -5.10735 1.54873 0
M  V30 6105 O 591.402 -5.68602 0.452546 0
M  V30 6106 O 590.336 -5.52632 2.38499 0
M  V30 6107 H 594.162 -2.23571 2.05547 0
M  V30 6108 H 591.747 -1.05428 1.05855 0
M  V30 6109 H 593.629 -4.17711 0.556396 0
M  V30 6110 H 592.304 -3.23218 -0.176582 0
M  V30 6111 H 591.211 -3.07182 2.13518 0
M  V30 6112 H 592.544 -4.05277 2.79305 0
M  V30 6113 N 594.196 -1.08629 -1.14182 0
M  V30 6114 C 595.128 -0.676189 -2.18998 0
M  V30 6115 C 596.141 0.277871 -1.60411 0
M  V30 6116 O 597.33 0.0651771 -1.78381 0
M  V30 6117 C 594.43 0.0254916 -3.3889 0
M  V30 6118 C 593.603 -0.948039 -4.27002 0
M  V30 6119 C 592.662 -0.281268 -5.25448 0
M  V30 6120 O 591.688 -0.926378 -5.61611 0
M  V30 6121 N 592.89 0.967923 -5.72374 0
M  V30 6122 H 595.655 -1.57792 -2.54798 0
M  V30 6123 H 593.216 -0.972665 -1.29425 0
M  V30 6124 H 595.208 0.482554 -4.01813 0
M  V30 6125 H 593.778 0.829348 -3.01398 0
M  V30 6126 H 592.998 -1.58388 -3.6098 0
M  V30 6127 H 594.286 -1.60765 -4.82734 0
M  V30 6128 H 593.684 1.51175 -5.45126 0
M  V30 6129 H 592.241 1.36844 -6.37273 0
M  V30 6130 N 595.674 1.31259 -0.872281 0
M  V30 6131 C 596.902 2.00795 -0.498907 0
M  V30 6132 C 597.317 1.65464 0.909238 0
M  V30 6133 O 596.674 0.885073 1.59602 0
M  V30 6134 C 596.725 3.55625 -0.649092 0
M  V30 6135 O 596.446 3.89692 -2.00179 0
M  V30 6136 C 597.947 4.42434 -0.277034 0
M  V30 6137 H 595.167 0.642299 -0.194145 0
M  V30 6138 H 597.711 1.67438 -1.17408 0
M  V30 6139 H 595.866 3.87394 -0.0214402 0
M  V30 6140 H 596.28 4.84407 -2.01122 0
M  V30 6141 H 597.754 5.50299 -0.433064 0
M  V30 6142 H 598.231 4.32146 0.783989 0
M  V30 6143 H 598.837 4.16086 -0.880483 0
M  V30 6144 N 597.152 0.631951 1.44375 0
M  V30 6145 C 598.115 -0.0628142 2.29114 0
M  V30 6146 C 599.115 -0.771494 1.41084 0
M  V30 6147 O 600.305 -0.615959 1.62947 0
M  V30 6148 C 597.437 -1.09953 3.22681 0
M  V30 6149 H 598.63 0.682509 2.92031 0
M  V30 6150 H 596.183 0.392128 1.51301 0
M  V30 6151 H 596.918 -1.87481 2.64616 0
M  V30 6152 H 596.703 -0.595286 3.87555 0
M  V30 6153 H 598.193 -1.58538 3.86336 0
M  V30 6154 N 598.631 -1.53133 0.372548 0
M  V30 6155 C 599.564 -2.22328 -0.514361 0
M  V30 6156 C 600.542 -1.21776 -1.07747 0
M  V30 6157 O 601.726 -1.50704 -1.13228 0
M  V30 6158 C 598.853 -2.92343 -1.71035 0
M  V30 6159 C 597.899 -4.07026 -1.27405 0
M  V30 6160 S 598.732 -5.34821 -0.269526 0
M  V30 6161 C 599.888 -6.08352 -1.47168 0
M  V30 6162 H 600.121 -2.9721 0.0732683 0
M  V30 6163 H 597.654 -1.53603 0.156673 0
M  V30 6164 H 599.612 -3.33296 -2.39634 0
M  V30 6165 H 598.273 -2.17173 -2.26925 0
M  V30 6166 H 597.466 -4.55056 -2.16656 0
M  V30 6167 H 597.068 -3.68001 -0.66719 0
M  V30 6168 H 599.36 -6.33507 -2.40157 0
M  V30 6169 H 600.303 -7.0053 -1.03263 0
M  V30 6170 H 600.711 -5.38893 -1.6809 0
M  V30 6171 N 600.109 -0.101901 -1.5727 0
M  V30 6172 C 601.059 0.865346 -2.1094 0
M  V30 6173 C 602.043 1.2394 -1.02605 0
M  V30 6174 O 603.235 1.21334 -1.28868 0
M  V30 6175 C 600.364 2.12187 -2.69874 0
M  V30 6176 C 599.45 1.77295 -3.85263 0
M  V30 6177 N 599.841 1.12993 -4.93017 0
M  V30 6178 C 598.139 2.06862 -3.95126 0
M  V30 6179 C 598.84 0.968631 -5.73579 0
M  V30 6180 N 597.816 1.48814 -5.22834 0
M  V30 6181 H 601.618 0.364368 -2.91633 0
M  V30 6182 H 599.132 0.101104 -1.62085 0
M  V30 6183 H 601.129 2.82431 -3.06657 0
M  V30 6184 H 599.789 2.62844 -1.90639 0
M  V30 6185 H 600.8 0.795935 -5.11747 0
M  V30 6186 H 597.477 2.59686 -3.26909 0
M  V30 6187 H 598.867 0.465231 -6.70287 0
M  V30 6188 N 601.587 1.56661 0.17182 0
M  V30 6189 C 602.535 1.97289 1.23207 0
M  V30 6190 C 603.529 0.861566 1.45854 0
M  V30 6191 O 604.735 1.04668 1.4644 0
M  V30 6192 H 601.11 0.627681 0.41415 0
M  V30 6193 H 603.081 2.85662 0.862542 0
M  V30 6194 C 601.83 2.34849 2.564 0
M  V30 6195 H 601.153 3.19903 2.39797 0
M  V30 6196 H 602.593 2.67121 3.29276 0
M  V30 6197 C 601.052 1.19172 3.15119 0
M  V30 6198 O 601.582 0.479113 3.98833 0
M  V30 6199 N 599.788 0.962415 2.74201 0
M  V30 6200 H 599.335 1.54365 2.06226 0
M  V30 6201 H 599.293 0.190272 3.13824 0
M  V30 6202 N 603.065 -0.440357 1.51323 0
M  V30 6203 C 604.028 -1.51679 1.71832 0
M  V30 6204 C 605.028 -1.49648 0.588386 0
M  V30 6205 O 606.218 -1.51724 0.855891 0
M  V30 6206 C 603.35 -2.91228 1.77199 0
M  V30 6207 H 604.543 -1.34799 2.67898 0
M  V30 6208 H 602.096 -0.66883 1.41267 0
M  V30 6209 H 602.831 -3.13516 0.829363 0
M  V30 6210 H 602.616 -2.94107 2.59314 0
M  V30 6211 H 604.106 -3.69321 1.94915 0
M  V30 6212 N 604.543 -1.41418 -0.695603 0
M  V30 6213 C 605.476 -1.3768 -1.81988 0
M  V30 6214 C 606.454 -0.244061 -1.60758 0
M  V30 6215 O 607.638 -0.430965 -1.83507 0
M  V30 6216 C 604.765 -1.1476 -3.18666 0
M  V30 6217 C 603.811 -2.30752 -3.58686 0
M  V30 6218 S 604.644 -3.9323 -3.63498 0
M  V30 6219 C 605.8 -3.72613 -5.02902 0
M  V30 6220 H 606.033 -2.32822 -1.84882 0
M  V30 6221 H 603.566 -1.27942 -0.86431 0
M  V30 6222 H 605.524 -1.02223 -3.97569 0
M  V30 6223 H 604.185 -0.212385 -3.13381 0
M  V30 6224 H 603.378 -2.10409 -4.57978 0
M  V30 6225 H 602.98 -2.39696 -2.87092 0
M  V30 6226 H 605.272 -3.32317 -5.904 0
M  V30 6227 H 606.215 -4.71507 -5.28286 0
M  V30 6228 H 606.623 -3.0589 -4.74438 0
M  V30 6229 N 606.021 0.929856 -1.27246 0
M  V30 6230 C 607.298 1.65544 -1.04186 0
M  V30 6231 C 607.678 2.06796 0.424097 0
M  V30 6232 O 607.026 1.80053 1.40688 0
M  V30 6233 C 607.236 2.85912 -2.00138 0
M  V30 6234 C 608.584 3.57305 -2.29387 0
M  V30 6235 O 609.608 2.96036 -1.98094 0
M  V30 6236 O 608.467 4.67688 -2.82719 0
M  V30 6237 H 605.561 0.725473 -0.397011 0
M  V30 6238 H 608.107 0.980583 -1.38501 0
M  V30 6239 H 606.879 2.52403 -2.99013 0
M  V30 6240 H 606.502 3.61118 -1.66371 0
M  V30 6241 N 607.499 1.09233 1.13605 0
M  V30 6242 C 608.729 0.847677 1.88409 0
M  V30 6243 C 609.137 -0.604524 1.79282 0
M  V30 6244 O 608.48 -1.42773 1.15592 0
M  V30 6245 C 608.542 1.20153 3.38827 0
M  V30 6246 C 608.206 2.65824 3.71735 0
M  V30 6247 C 609.203 3.64072 3.71143 0
M  V30 6248 C 606.888 3.01894 4.01454 0
M  V30 6249 C 608.882 4.96419 3.99808 0
M  V30 6250 C 606.569 4.34433 4.29781 0
M  V30 6251 C 607.567 5.31505 4.28942 0
M  V30 6252 O 607.255 6.61659 4.56576 0
M  V30 6253 H 606.987 0.304813 0.603378 0
M  V30 6254 H 609.541 1.4573 1.44748 0
M  V30 6255 H 607.771 0.534946 3.82982 0
M  V30 6256 H 609.46 0.936349 3.94952 0
M  V30 6257 H 610.226 3.37549 3.4826 0
M  V30 6258 H 606.105 2.26971 4.01255 0
M  V30 6259 H 609.649 5.7218 3.99069 0
M  V30 6260 H 605.546 4.607 4.52135 0
M  V30 6261 H 606.314 6.67102 4.74254 0
M  V30 6262 N 608.977 -1.30795 0.87923 0
M  V30 6263 C 610.202 -2.01063 0.508769 0
M  V30 6264 C 610.627 -1.65508 -0.893803 0
M  V30 6265 O 609.985 -0.868616 -1.59138 0
M  V30 6266 C 610.033 -3.54054 0.683991 0
M  V30 6267 O 609.137 -4.11498 -0.272654 0
M  V30 6268 H 608.478 -0.632786 0.201191 0
M  V30 6269 H 611.008 -1.66776 1.18519 0
M  V30 6270 H 611.018 -4.03845 0.580798 0
M  V30 6271 H 609.693 -3.79271 1.70665 0
M  V30 6272 H 608.27 -3.72695 -0.12364 0
M  V30 6273 N 610.455 -0.639598 -1.44038 0
M  V30 6274 C 611.68 -0.153117 -2.06834 0
M  V30 6275 C 612.105 1.16676 -1.47541 0
M  V30 6276 O 611.463 1.71769 -0.580093 0
M  V30 6277 C 611.511 -0.0609169 -3.60549 0
M  V30 6278 O 610.615 0.98071 -4.00569 0
M  V30 6279 H 609.956 -0.0886402 -0.658057 0
M  V30 6280 H 612.486 -0.878674 -1.84771 0
M  V30 6281 H 612.496 0.126892 -4.07803 0
M  V30 6282 H 611.171 -1.0245 -4.03084 0
M  V30 6283 H 609.748 0.766789 -3.64931 0
M  V30 6284 N 611.933 1.52934 -0.380664 0
M  V30 6285 C 613.163 2.05587 0.204302 0
M  V30 6286 C 613.571 1.25288 1.41773 0
M  V30 6287 O 612.914 0.290394 1.8139 0
M  V30 6288 C 612.976 3.53624 0.647324 0
M  V30 6289 C 612.64 4.54765 -0.451465 0
M  V30 6290 C 613.637 5.03226 -1.30614 0
M  V30 6291 C 611.322 4.98508 -0.616025 0
M  V30 6292 C 613.316 5.94046 -2.31058 0
M  V30 6293 C 611.003 5.89131 -1.62381 0
M  V30 6294 C 612.001 6.36792 -2.46952 0
M  V30 6295 O 611.689 7.25626 -3.46009 0
M  V30 6296 H 611.421 0.675013 0.0365198 0
M  V30 6297 H 613.975 1.98125 -0.541827 0
M  V30 6298 H 612.205 3.58676 1.44529 0
M  V30 6299 H 613.894 3.89061 1.15698 0
M  V30 6300 H 614.66 4.70167 -1.19027 0
M  V30 6301 H 610.539 4.60989 0.0324987 0
M  V30 6302 H 614.083 6.3117 -2.97104 0
M  V30 6303 H 609.98 6.21603 -1.7401 0
M  V30 6304 H 610.748 7.43664 -3.41916 0
M  V30 6305 N 613.412 0.11024 1.57214 0
M  V30 6306 C 614.322 -0.857077 2.18383 0
M  V30 6307 C 615.338 -1.29915 1.1575 0
M  V30 6308 O 616.514 -1.36394 1.48184 0
M  V30 6309 C 613.579 -2.09264 2.76423 0
M  V30 6310 C 612.64 -1.70333 3.94063 0
M  V30 6311 C 611.873 -2.87999 4.49324 0
M  V30 6312 O 612.096 -4.0317 4.03497 0
M  V30 6313 O 611.03 -2.6559 5.40135 0
M  V30 6314 H 614.856 -0.366561 3.0148 0
M  V30 6315 H 612.441 -0.114914 1.48957 0
M  V30 6316 H 614.323 -2.81644 3.13456 0
M  V30 6317 H 612.998 -2.57339 1.96363 0
M  V30 6318 H 611.905 -0.950864 3.61814 0
M  V30 6319 H 613.238 -1.27007 4.75531 0
M  V30 6320 N 614.89 -1.56749 -0.16351 0
M  V30 6321 C 616.138 -1.82074 -0.87713 0
M  V30 6322 C 616.459 -0.688503 -1.82441 0
M  V30 6323 O 615.729 0.291085 -1.93725 0
M  V30 6324 H 614.309 -0.671677 -0.326893 0
M  V30 6325 H 616.971 -1.9423 -0.161459 0
M  V30 6326 H 616.067 -2.76407 -1.44934 0
M  V30 6327 N 616.368 0.432326 -1.51554 0
M  V30 6328 C 617.318 1.52366 -1.69614 0
M  V30 6329 C 618.302 1.51205 -0.550083 0
M  V30 6330 O 619.494 1.57573 -0.806206 0
M  V30 6331 C 616.623 2.90513 -1.82913 0
M  V30 6332 C 615.709 2.9641 -3.03318 0
M  V30 6333 N 616.1 2.72043 -4.26411 0
M  V30 6334 C 614.398 3.27572 -3.02675 0
M  V30 6335 C 615.099 2.83912 -5.07709 0
M  V30 6336 N 614.075 3.15798 -4.42462 0
M  V30 6337 H 617.877 1.32285 -2.62446 0
M  V30 6338 H 615.391 0.639708 -1.4927 0
M  V30 6339 H 617.388 3.69032 -1.93962 0
M  V30 6340 H 616.048 3.1161 -0.912655 0
M  V30 6341 H 617.059 2.46876 -4.55272 0
M  V30 6342 H 613.736 3.54411 -2.20678 0
M  V30 6343 H 615.126 2.68984 -6.15709 0
M  V30 6344 N 617.846 1.41785 0.688094 0
M  V30 6345 C 618.793 1.44221 1.80191 0
M  V30 6346 C 619.763 0.295688 1.63447 0
M  V30 6347 O 620.948 0.49783 1.84191 0
M  V30 6348 C 618.088 1.33743 3.1813 0
M  V30 6349 C 617.201 2.58325 3.46254 0
M  V30 6350 C 616.336 2.40086 4.73848 0
M  V30 6351 C 615.375 3.60107 4.94964 0
M  V30 6352 N 614.512 3.40892 6.13789 0
M  V30 6353 H 619.352 2.39411 1.77444 0
M  V30 6354 H 616.889 1.18876 0.866423 0
M  V30 6355 H 618.847 1.25669 3.97823 0
M  V30 6356 H 617.477 0.42157 3.20035 0
M  V30 6357 H 616.529 2.7682 2.60912 0
M  V30 6358 H 617.841 3.4758 3.57756 0
M  V30 6359 H 616.995 2.29522 5.61609 0
M  V30 6360 H 615.734 1.483 4.64606 0
M  V30 6361 H 614.739 3.71118 4.05649 0
M  V30 6362 H 615.964 4.52857 5.06061 0
M  V30 6363 H 613.91 2.51812 6.05745 0
M  V30 6364 H 613.827 4.23727 6.26092 0
M  V30 6365 H 615.095 3.34114 7.04264 0
M  V30 6366 N 619.324 -0.923095 1.27737 0
M  V30 6367 C 620.57 -1.67375 1.14514 0
M  V30 6368 C 620.903 -1.91751 -0.307424 0
M  V30 6369 O 620.178 -1.51119 -1.22447 0
M  V30 6370 C 620.461 -3.03745 1.9342 0
M  V30 6371 C 620.314 -2.86581 3.46686 0
M  V30 6372 C 621.633 -4.04144 1.74228 0
M  V30 6373 H 618.752 -0.607427 0.417374 0
M  V30 6374 H 621.394 -1.07089 1.56946 0
M  V30 6375 H 619.544 -3.55204 1.5736 0
M  V30 6376 H 621.216 -2.42203 3.92601 0
M  V30 6377 H 619.459 -2.21829 3.72793 0
M  V30 6378 H 620.13 -3.83381 3.97143 0
M  V30 6379 H 622.606 -3.61712 2.05678 0
M  V30 6380 H 621.482 -4.97543 2.31824 0
M  V30 6381 H 621.743 -4.36661 0.691373 0
M  V30 6382 N 620.802 -1.09834 -1.13024 0
M  V30 6383 C 621.749 -0.741522 -2.18564 0
M  V30 6384 C 622.719 0.279236 -1.63736 0
M  V30 6385 O 623.904 0.159923 -1.90129 0
M  V30 6386 C 621.044 -0.17277 -3.44667 0
M  V30 6387 C 620.157 -1.24808 -4.13578 0
M  V30 6388 C 619.292 -0.641631 -5.27311 0
M  V30 6389 C 618.331 -1.69795 -5.88078 0
M  V30 6390 N 617.468 -1.11223 -6.93234 0
M  V30 6391 H 622.308 -1.64576 -2.48432 0
M  V30 6392 H 619.845 -0.822174 -1.21978 0
M  V30 6393 H 621.803 0.17482 -4.16834 0
M  V30 6394 H 620.433 0.694725 -3.15235 0
M  V30 6395 H 619.485 -1.71288 -3.39653 0
M  V30 6396 H 620.797 -2.04795 -4.54819 0
M  V30 6397 H 619.951 -0.243128 -6.06213 0
M  V30 6398 H 618.69 0.189742 -4.87331 0
M  V30 6399 H 617.695 -2.10595 -5.07868 0
M  V30 6400 H 618.92 -2.53206 -6.3013 0
M  V30 6401 H 616.866 -0.302208 -6.55304 0
M  V30 6402 H 616.783 -1.84901 -7.3304 0
M  V30 6403 H 618.051 -0.740068 -7.75979 0
M  V30 6404 N 622.28 1.30327 -0.886154 0
M  V30 6405 C 623.528 1.9571 -0.504195 0
M  V30 6406 C 623.849 1.70294 0.950003 0
M  V30 6407 O 623.119 1.02718 1.66811 0
M  V30 6408 H 621.699 0.72412 -0.183465 0
M  V30 6409 H 624.361 1.58835 -1.12949 0
M  V30 6410 H 623.457 3.04704 -0.675431 0
M  V30 6411 N 623.758 0.647228 1.43697 0
M  V30 6412 C 625.004 0.158422 2.0218 0
M  V30 6413 C 625.337 -1.22233 1.50907 0
M  V30 6414 O 624.612 -1.81478 0.699702 0
M  V30 6415 C 624.895 0.1627 3.59732 0
M  V30 6416 C 624.748 1.57694 4.21251 0
M  V30 6417 C 626.067 -0.504138 4.37203 0
M  V30 6418 H 623.186 0.059042 0.734631 0
M  V30 6419 H 625.828 0.826772 1.71069 0
M  V30 6420 H 623.978 -0.406414 3.86368 0
M  V30 6421 H 625.65 2.19618 4.05667 0
M  V30 6422 H 623.893 2.12603 3.7813 0
M  V30 6423 H 624.564 1.53183 5.3032 0
M  V30 6424 H 627.04 -0.0199841 4.16095 0
M  V30 6425 H 625.916 -0.470394 5.46881 0
M  V30 6426 H 626.177 -1.57726 4.13007 0
M  V30 6427 N 625.236 -1.5273 0.388769 0
M  V30 6428 C 626.647 -1.86505 -0.0853788 0
M  V30 6429 C 626.998 -1.30847 -1.46197 0
M  V30 6430 O 626.123 -0.639609 -2.06732 0
M  V30 6431 C 626.718 -3.38414 -0.161703 0
M  V30 6432 C 625.277 -3.71902 -0.580144 0
M  V30 6433 C 624.424 -2.76095 0.258218 0
M  V30 6434 H 627.375 -1.46647 0.606665 0
M  V30 6435 H 627.396 -3.67638 -0.980936 0
M  V30 6436 H 626.908 -3.78893 0.840333 0
M  V30 6437 H 625.009 -3.36992 -1.58957 0
M  V30 6438 H 625.122 -4.77902 -0.338663 0
M  V30 6439 H 623.486 -2.53195 -0.276432 0
M  V30 6440 H 624.269 -3.19411 1.25822 0
M  V30 6441 N 626.714 -0.118576 -1.57153 0
M  V30 6442 C 627.661 0.831789 -2.1529 0
M  V30 6443 C 628.631 1.26385 -1.07778 0
M  V30 6444 O 629.816 1.34144 -1.35684 0
M  V30 6445 C 626.956 2.07664 -2.75626 0
M  V30 6446 C 626.069 1.69298 -3.97444 0
M  V30 6447 C 625.204 2.88747 -4.45868 0
M  V30 6448 C 624.243 2.46619 -5.60219 0
M  V30 6449 N 623.38 3.5898 -6.03389 0
M  V30 6450 H 628.22 0.329183 -2.96176 0
M  V30 6451 H 625.757 0.150792 -1.46325 0
M  V30 6452 H 627.715 2.80601 -3.08738 0
M  V30 6453 H 626.345 2.55384 -1.97431 0
M  V30 6454 H 625.397 0.862374 -3.70496 0
M  V30 6455 H 626.709 1.34338 -4.80369 0
M  V30 6456 H 625.863 3.69909 -4.80887 0
M  V30 6457 H 624.602 3.26933 -3.61892 0
M  V30 6458 H 623.607 1.63889 -5.24805 0
M  V30 6459 H 624.832 2.0955 -6.45961 0
M  V30 6460 H 622.778 3.9684 -5.22354 0
M  V30 6461 H 622.695 3.27942 -6.81168 0
M  V30 6462 H 623.963 4.40583 -6.43045 0
M  V30 6463 N 628.193 1.56834 0.155195 0
M  V30 6464 C 629.421 1.87049 0.884326 0
M  V30 6465 C 629.836 0.705839 1.7511 0
M  V30 6466 O 629.193 -0.324641 1.79589 0
M  V30 6467 C 629.244 3.1644 1.74781 0
M  V30 6468 O 628.965 4.28417 0.915978 0
M  V30 6469 C 630.466 3.60113 2.58522 0
M  V30 6470 H 627.686 0.620196 0.25612 0
M  V30 6471 H 630.23 2.03946 0.150445 0
M  V30 6472 H 628.385 3.01321 2.43484 0
M  V30 6473 H 628.799 5.02353 1.50803 0
M  V30 6474 H 630.273 4.53508 3.14698 0
M  V30 6475 H 630.75 2.85005 3.34169 0
M  V30 6476 H 631.356 3.77898 1.95124 0
M  V30 6477 N 629.671 -0.424282 1.51781 0
M  V30 6478 C 630.917 -1.17434 1.6534 0
M  V30 6479 C 631.25 -1.90549 0.374806 0
M  V30 6480 O 630.525 -1.84145 -0.626179 0
M  V30 6481 C 630.808 -2.18093 2.86544 0
M  V30 6482 C 630.661 -1.48975 4.24413 0
M  V30 6483 C 631.98 -3.18934 3.03264 0
M  V30 6484 H 629.099 -0.425566 0.601716 0
M  V30 6485 H 631.741 -0.461921 1.84299 0
M  V30 6486 H 629.891 -2.78849 2.7051 0
M  V30 6487 H 631.563 -0.914551 4.52143 0
M  V30 6488 H 629.806 -0.791893 4.26511 0
M  V30 6489 H 630.477 -2.22347 5.05238 0
M  V30 6490 H 632.953 -2.68243 3.18096 0
M  V30 6491 H 631.829 -3.86645 3.89611 0
M  V30 6492 H 632.09 -3.85793 2.15908 0
M  V30 6493 N 631.149 -1.42148 -0.680565 0
M  V30 6494 C 632.079 -1.4796 -1.80638 0
M  V30 6495 C 633.06 -0.336728 -1.66734 0
M  V30 6496 O 634.245 -0.550247 -1.86242 0
M  V30 6497 C 631.375 -1.37569 -3.18892 0
M  V30 6498 C 630.329 -2.49823 -3.47524 0
M  V30 6499 C 629.655 -2.24491 -4.85291 0
M  V30 6500 C 630.955 -3.92144 -3.44994 0
M  V30 6501 H 632.649 -2.42184 -1.76032 0
M  V30 6502 H 630.195 -1.16566 -0.845481 0
M  V30 6503 H 632.148 -1.40243 -3.97379 0
M  V30 6504 H 630.872 -0.398357 -3.24162 0
M  V30 6505 H 629.531 -2.46455 -2.71395 0
M  V30 6506 H 629.179 -1.25066 -4.87204 0
M  V30 6507 H 628.879 -2.99722 -5.05411 0
M  V30 6508 H 630.403 -2.28906 -5.66069 0
M  V30 6509 H 631.817 -3.97145 -4.13459 0
M  V30 6510 H 630.214 -4.67179 -3.76648 0
M  V30 6511 H 631.284 -4.19225 -2.43676 0
M  V30 6512 N 632.627 0.916307 -1.28225 0
M  V30 6513 C 633.557 2.0352 -1.14464 0
M  V30 6514 C 634.538 1.70045 -0.0430844 0
M  V30 6515 O 635.723 1.92954 -0.219619 0
M  V30 6516 C 632.853 3.37889 -0.803027 0
M  V30 6517 C 631.807 3.85516 -1.85908 0
M  V30 6518 C 631.133 5.1682 -1.37116 0
M  V30 6519 C 632.433 4.07655 -3.26519 0
M  V30 6520 H 634.127 2.1529 -2.08064 0
M  V30 6521 H 631.673 1.03446 -1.00174 0
M  V30 6522 H 633.626 4.15654 -0.693537 0
M  V30 6523 H 632.35 3.26164 0.168674 0
M  V30 6524 H 631.009 3.09953 -1.95767 0
M  V30 6525 H 630.657 5.01497 -0.38859 0
M  V30 6526 H 630.357 5.49657 -2.07728 0
M  V30 6527 H 631.881 5.97143 -1.27484 0
M  V30 6528 H 633.295 4.75953 -3.19596 0
M  V30 6529 H 631.692 4.51818 -3.94943 0
M  V30 6530 H 632.762 3.12553 -3.70727 0
M  V30 6531 N 634.105 1.10431 1.1244 0
M  V30 6532 C 635.521 0.836096 1.35947 0
M  V30 6533 C 635.721 -0.544475 1.94004 0
M  V30 6534 O 634.777 -1.29735 2.16622 0
M  V30 6535 C 636.09 1.93575 2.30107 0
M  V30 6536 C 637.638 1.9642 2.43697 0
M  V30 6537 C 638.113 3.05559 3.41171 0
M  V30 6538 N 639.604 3.04865 3.48728 0
M  V30 6539 C 640.339 3.85954 4.24061 0
M  V30 6540 N 639.835 4.76977 5.02458 0
M  V30 6541 N 641.628 3.74172 4.19466 0
M  V30 6542 H 633.779 1.9942 0.731124 0
M  V30 6543 H 636.042 0.866607 0.384312 0
M  V30 6544 H 635.748 2.92943 1.94621 0
M  V30 6545 H 635.622 1.8229 3.30227 0
M  V30 6546 H 638.009 0.97685 2.78463 0
M  V30 6547 H 638.09 2.11782 1.43465 0
M  V30 6548 H 637.734 4.04513 3.07135 0
M  V30 6549 H 637.664 2.87438 4.41234 0
M  V30 6550 H 640.155 2.38908 2.92799 0
M  V30 6551 H 640.468 5.35409 5.57277 0
M  V30 6552 H 638.813 4.81006 5.01655 0
M  V30 6553 H 642.004 3.02412 3.57302 0
M  V30 6554 H 642.177 4.37602 4.77921 0
M  V30 6555 N 635.583 -1.29855 0.893053 0
M  V30 6556 C 636.831 -1.9544 0.514566 0
M  V30 6557 C 637.152 -1.70795 -0.940959 0
M  V30 6558 O 636.422 -1.03601 -1.66264 0
M  V30 6559 H 635.002 -0.723137 0.187302 0
M  V30 6560 H 637.664 -1.58234 1.13789 0
M  V30 6561 H 636.76 -3.04341 0.691581 0
M  V30 6562 N 637.061 -0.65484 -1.43351 0
M  V30 6563 C 638.008 0.0357713 -2.30772 0
M  V30 6564 C 638.978 0.813035 -1.44841 0
M  V30 6565 O 640.163 0.789314 -1.73708 0
M  V30 6566 C 637.303 0.995084 -3.30442 0
M  V30 6567 C 636.416 0.21375 -4.31471 0
M  V30 6568 C 635.551 1.16701 -5.18222 0
M  V30 6569 C 634.59 0.376201 -6.10943 0
M  V30 6570 N 633.727 1.28113 -6.90313 0
M  V30 6571 H 638.567 -0.71559 -2.89281 0
M  V30 6572 H 636.104 -0.364645 -1.42509 0
M  V30 6573 H 638.062 1.5649 -3.86739 0
M  V30 6574 H 636.692 1.7133 -2.7358 0
M  V30 6575 H 635.744 -0.472377 -3.77456 0
M  V30 6576 H 637.056 -0.401103 -4.97185 0
M  V30 6577 H 636.21 1.8074 -5.79153 0
M  V30 6578 H 634.949 1.81577 -4.52638 0
M  V30 6579 H 633.954 -0.277534 -5.49099 0
M  V30 6580 H 635.179 -0.268178 -6.7857 0
M  V30 6581 H 633.125 1.91666 -6.27376 0
M  V30 6582 H 633.042 0.720879 -7.52555 0
M  V30 6583 H 634.31 1.90962 -7.55747 0
M  V30 6584 N 638.539 1.52521 -0.396863 0
M  V30 6585 C 639.785 2.01971 0.183169 0
M  V30 6586 C 640.118 1.2825 1.45827 0
M  V30 6587 O 639.393 0.385179 1.90648 0
M  V30 6588 C 639.676 3.5736 0.443391 0
M  V30 6589 C 639.529 4.41743 -0.84753 0
M  V30 6590 C 640.848 4.22539 1.2308 0
M  V30 6591 H 637.967 0.734119 0.0650976 0
M  V30 6592 H 640.609 1.82519 -0.527918 0
M  V30 6593 H 638.759 3.74066 1.04914 0
M  V30 6594 H 640.431 4.36773 -1.48414 0
M  V30 6595 H 638.674 4.0845 -1.4612 0
M  V30 6596 H 639.345 5.48507 -0.620003 0
M  V30 6597 H 641.821 4.09857 0.718084 0
M  V30 6598 H 640.697 5.31227 1.38162 0
M  V30 6599 H 640.958 3.80675 2.24808 0
M  V30 6600 N 640.017 0.126909 1.57088 0
M  V30 6601 C 641.266 -0.529024 1.94639 0
M  V30 6602 C 641.579 -1.67323 1.01304 0
M  V30 6603 O 642.785 -2.39245 1.28352 0
M  V30 6604 C 641.241 -0.992483 3.45945 0
M  V30 6605 C 640.849 0.123691 4.47829 0
M  V30 6606 C 642.593 -1.61934 3.924 0
M  V30 6607 C 640.5 -0.356911 5.90322 0
M  V30 6608 H 639.43 -0.201397 0.726605 0
M  V30 6609 H 642.081 0.208032 1.82317 0
M  V30 6610 H 640.463 -1.7842 3.53528 0
M  V30 6611 H 641.637 0.900168 4.51922 0
M  V30 6612 H 639.952 0.657699 4.11173 0
M  V30 6613 H 642.549 -1.9902 4.96281 0
M  V30 6614 H 642.892 -2.50075 3.32819 0
M  V30 6615 H 643.425 -0.892894 3.8765 0
M  V30 6616 H 640.164 0.488636 6.53676 0
M  V30 6617 H 639.684 -1.0997 5.89633 0
M  V30 6618 H 641.363 -0.815547 6.41839 0
M  V30 6619 N 641.495 -1.56914 -0.146875 0
M  V30 6620 C 642.741 -1.83628 -0.860741 0
M  V30 6621 C 643.074 -0.708528 -1.80813 0
M  V30 6622 O 642.349 0.287838 -1.92358 0
M  V30 6623 C 642.632 -3.20836 -1.63511 0
M  V30 6624 C 642.485 -4.44174 -0.709199 0
M  V30 6625 C 643.804 -3.55268 -2.59756 0
M  V30 6626 H 640.923 -0.667949 -0.311468 0
M  V30 6627 H 643.565 -1.89582 -0.125936 0
M  V30 6628 H 641.715 -3.15891 -2.26153 0
M  V30 6629 H 643.387 -4.61205 -0.0937781 0
M  V30 6630 H 641.63 -4.33796 -0.0187856 0
M  V30 6631 H 642.301 -5.36785 -1.28707 0
M  V30 6632 H 644.777 -3.60824 -2.07232 0
M  V30 6633 H 643.653 -4.52303 -3.10987 0
M  V30 6634 H 643.914 -2.81231 -3.41118 0
M  V30 6635 N 642.974 0.416227 -1.52004 0
M  V30 6636 C 644.251 1.17637 -1.56272 0
M  V30 6637 C 644.631 2.08352 -0.339493 0
M  V30 6638 O 643.979 2.1833 0.674124 0
M  V30 6639 C 644.189 1.95986 -2.88774 0
M  V30 6640 C 645.537 2.52299 -3.41512 0
M  V30 6641 O 646.561 2.06174 -2.90467 0
M  V30 6642 O 645.42 3.3648 -4.30631 0
M  V30 6643 H 642.514 0.536726 -0.629169 0
M  V30 6644 H 645.06 0.423583 -1.64329 0
M  V30 6645 H 643.832 1.29487 -3.69254 0
M  V30 6646 H 643.455 2.78285 -2.83978 0
M  V30 6647 N 644.452 1.42507 0.673017 0
M  V30 6648 C 645.362 1.4853 1.81593 0
M  V30 6649 C 646.378 0.373907 1.69935 0
M  V30 6650 O 647.554 0.625078 1.91454 0
M  V30 6651 C 644.619 1.387 3.17747 0
M  V30 6652 C 643.68 2.60346 3.41348 0
M  V30 6653 C 642.913 2.50975 4.71007 0
M  V30 6654 O 643.136 1.54659 5.49033 0
M  V30 6655 O 642.07 3.41138 4.95892 0
M  V30 6656 H 645.896 2.45001 1.79467 0
M  V30 6657 H 643.481 1.2429 0.82899 0
M  V30 6658 H 645.363 1.35586 3.98992 0
M  V30 6659 H 644.038 0.453555 3.20507 0
M  V30 6660 H 642.945 2.69034 2.59945 0
M  V30 6661 H 644.278 3.52595 3.43421 0
M  V30 6662 N 645.93 -0.909495 1.28709 0
M  V30 6663 C 647.178 -1.65577 1.15882 0
M  V30 6664 C 647.499 -1.928 -0.292108 0
M  V30 6665 O 646.769 -1.54716 -1.20166 0
M  V30 6666 H 645.349 -0.613714 0.425869 0
M  V30 6667 H 648.011 -1.09108 1.61498 0
M  V30 6668 H 647.107 -2.61634 1.70159 0
M  V30 6669 N 647.408 -1.11026 -1.11852 0
M  V30 6670 C 648.633 -0.879064 -1.87849 0
M  V30 6671 C 649.058 0.565406 -1.79401 0
M  V30 6672 O 648.416 1.39886 -1.15333 0
M  V30 6673 C 648.464 -1.33985 -3.34784 0
M  V30 6674 O 647.568 -0.508803 -4.09249 0
M  V30 6675 H 646.909 -0.316992 -0.583448 0
M  V30 6676 H 649.439 -1.47863 -1.41413 0
M  V30 6677 H 649.449 -1.33248 -3.85628 0
M  V30 6678 H 648.124 -2.39172 -3.40249 0
M  V30 6679 H 646.701 -0.581913 -3.68332 0
M  V30 6680 N 648.886 1.2938 -0.899927 0
M  V30 6681 C 650.116 1.99402 -0.540601 0
M  V30 6682 C 650.524 1.67534 0.87914 0
M  V30 6683 O 649.867 0.916821 1.59186 0
M  V30 6684 C 649.929 3.53514 -0.653326 0
M  V30 6685 C 649.593 4.08937 -2.04009 0
M  V30 6686 C 650.59 4.23815 -3.01126 0
M  V30 6687 C 648.275 4.43962 -2.34953 0
M  V30 6688 C 650.269 4.72951 -4.27313 0
M  V30 6689 C 647.956 4.92795 -3.61382 0
M  V30 6690 C 648.954 5.07244 -4.57376 0
M  V30 6691 O 648.642 5.55017 -5.8156 0
M  V30 6692 H 648.374 0.64383 -0.206057 0
M  V30 6693 H 650.928 1.65878 -1.21134 0
M  V30 6694 H 649.158 3.86628 0.0744449 0
M  V30 6695 H 650.847 4.04767 -0.303118 0
M  V30 6696 H 651.613 3.97043 -2.78535 0
M  V30 6697 H 647.492 4.31974 -1.60994 0
M  V30 6698 H 651.036 4.84144 -5.02245 0
M  V30 6699 H 646.933 5.19004 -3.83804 0
M  V30 6700 H 647.701 5.73331 -5.84153 0
M  V30 6701 N 650.364 0.662433 1.43002 0
M  V30 6702 C 651.61 0.179857 2.02001 0
M  V30 6703 C 651.943 -1.20625 1.52195 0
M  V30 6704 O 651.218 -1.80726 0.718911 0
M  V30 6705 C 651.501 0.200845 3.59539 0
M  V30 6706 C 651.354 1.62153 4.19555 0
M  V30 6707 C 652.673 -0.457738 4.37713 0
M  V30 6708 H 649.792 0.0668305 0.733964 0
M  V30 6709 H 652.434 0.84487 1.70182 0
M  V30 6710 H 650.584 -0.365411 3.86778 0
M  V30 6711 H 652.256 2.23908 4.03315 0
M  V30 6712 H 650.499 2.16601 3.75854 0
M  V30 6713 H 651.17 1.58799 5.28665 0
M  V30 6714 H 653.646 0.0241495 4.16093 0
M  V30 6715 H 652.522 -0.412363 5.47349 0
M  V30 6716 H 652.783 -1.53336 4.14657 0
M  V30 6717 N 651.842 -1.52309 0.404946 0
M  V30 6718 C 653.09 -2.01368 -0.17186 0
M  V30 6719 C 653.411 -1.29261 -1.46002 0
M  V30 6720 O 652.681 -0.41729 -1.91404 0
M  V30 6721 H 651.261 -0.744034 -0.0664993 0
M  V30 6722 H 653.923 -1.87263 0.540228 0
M  V30 6723 H 653.019 -3.09888 -0.370957 0
M  V30 6724 N 653.32 -0.135238 -1.57019 0
M  V30 6725 C 654.23 0.822226 -2.19719 0
M  V30 6726 C 655.246 1.28057 -1.17802 0
M  V30 6727 O 656.422 1.3402 -1.50335 0
M  V30 6728 C 653.487 2.0484 -2.79717 0
M  V30 6729 C 652.548 1.64042 -3.96723 0
M  V30 6730 C 651.781 2.80814 -4.53849 0
M  V30 6731 O 652.004 3.967 -4.0986 0
M  V30 6732 O 650.938 2.56963 -5.44292 0
M  V30 6733 H 654.764 0.318552 -3.02025 0
M  V30 6734 H 652.349 0.0912021 -1.49121 0
M  V30 6735 H 654.231 2.76622 -3.17897 0
M  V30 6736 H 652.906 2.54182 -2.00432 0
M  V30 6737 H 651.813 0.893182 -3.63281 0
M  V30 6738 H 653.146 1.19426 -4.77492 0
M  V30 6739 N 654.798 1.5699 0.138552 0
M  V30 6740 C 656.209 1.73171 0.697754 0
M  V30 6741 C 656.56 0.750952 1.8126 0
M  V30 6742 O 655.685 -0.080549 2.1625 0
M  V30 6743 C 656.28 3.13996 1.27248 0
M  V30 6744 C 654.839 3.3175 1.77816 0
M  V30 6745 C 653.986 2.69084 0.669991 0
M  V30 6746 H 656.937 1.5846 -0.0871979 0
M  V30 6747 H 656.958 3.14463 2.14227 0
M  V30 6748 H 656.47 3.85354 0.460855 0
M  V30 6749 H 654.571 2.65403 2.61519 0
M  V30 6750 H 654.684 4.39768 1.90107 0
M  V30 6751 H 653.048 2.29782 1.09874 0
M  V30 6752 H 653.831 3.43053 -0.130329 0
M  V30 6753 N 656.276 -0.40816 1.52223 0
M  V30 6754 C 657.504 -1.17672 1.70179 0
M  V30 6755 C 657.919 -1.84257 0.411696 0
M  V30 6756 O 657.276 -1.7192 -0.612354 0
M  V30 6757 C 657.327 -2.23911 2.83806 0
M  V30 6758 O 657.048 -1.60044 4.0782 0
M  V30 6759 C 658.549 -3.1364 3.13281 0
M  V30 6760 H 655.769 -0.353562 0.570293 0
M  V30 6761 H 658.313 -0.480083 1.98785 0
M  V30 6762 H 656.468 -2.89242 2.57717 0
M  V30 6763 H 656.882 -2.30484 4.71145 0
M  V30 6764 H 658.356 -3.84255 3.96298 0
M  V30 6765 H 658.833 -3.76066 2.26872 0
M  V30 6766 H 659.439 -2.53977 3.41139 0
M  V30 6767 N 657.755 -1.42862 -0.66545 0
M  V30 6768 C 659.032 -1.3431 -1.42197 0
M  V30 6769 C 659.412 0.0150265 -2.11095 0
M  V30 6770 O 658.76 1.03101 -2.03918 0
M  V30 6771 C 658.97 -2.51783 -2.41674 0
M  V30 6772 C 660.318 -2.94321 -3.0604 0
M  V30 6773 O 661.342 -2.51741 -2.52001 0
M  V30 6774 O 660.201 -3.68047 -4.03985 0
M  V30 6775 H 657.295 -0.530159 -0.634713 0
M  V30 6776 H 659.841 -1.54888 -0.693386 0
M  V30 6777 H 658.613 -3.42282 -1.89627 0
M  V30 6778 H 658.236 -2.33241 -3.22001 0
M  V30 6779 N 659.233 0.902656 -1.29189 0
M  V30 6780 C 660.481 1.6496 -1.16758 0
M  V30 6781 C 660.802 1.92952 0.28188 0
M  V30 6782 O 660.072 1.55351 1.19344 0
M  V30 6783 H 658.652 0.611447 -0.429118 0
M  V30 6784 H 661.314 1.0825 -1.62074 0
M  V30 6785 H 660.41 2.60728 -1.71544 0
M  V30 6786 N 660.711 1.11618 1.11262 0
M  V30 6787 C 661.658 0.7762 2.17356 0
M  V30 6788 C 662.628 -0.253152 1.6416 0
M  V30 6789 O 663.813 -0.129655 1.90359 0
M  V30 6790 C 660.953 0.227581 3.44349 0
M  V30 6791 C 660.066 1.31372 4.1154 0
M  V30 6792 C 659.201 0.72544 5.26223 0
M  V30 6793 C 658.24 1.7913 5.85302 0
M  V30 6794 N 657.377 1.22237 6.91377 0
M  V30 6795 H 662.217 1.68508 2.45783 0
M  V30 6796 H 659.754 0.841475 1.20655 0
M  V30 6797 H 661.712 -0.108483 4.17059 0
M  V30 6798 H 660.342 -0.644486 3.16301 0
M  V30 6799 H 659.394 1.7667 3.36885 0
M  V30 6800 H 660.706 2.12005 4.51504 0
M  V30 6801 H 659.86 0.339541 6.05749 0
M  V30 6802 H 658.599 -0.112188 4.87571 0
M  V30 6803 H 657.604 2.18648 5.04453 0
M  V30 6804 H 658.829 2.63199 6.26022 0
M  V30 6805 H 656.775 0.406423 6.5474 0
M  V30 6806 H 656.692 1.9654 7.30006 0
M  V30 6807 H 657.96 0.863426 7.74703 0
M  V30 6808 N 662.189 -1.289 0.906776 0
M  V30 6809 C 663.436 -1.95269 0.536326 0
M  V30 6810 C 663.764 -1.71435 -0.918711 0
M  V30 6811 O 663.019 -1.02431 -1.66752 0
M  V30 6812 C 663.318 -3.48704 0.783617 0
M  V30 6813 C 662.984 -3.92626 2.21711 0
M  V30 6814 C 661.646 -4.04329 2.60906 0
M  V30 6815 C 663.998 -4.15218 3.15029 0
M  V30 6816 C 661.326 -4.35998 3.92584 0
M  V30 6817 C 663.678 -4.48365 4.46264 0
M  V30 6818 C 662.342 -4.58278 4.85322 0
M  V30 6819 H 661.612 -0.714538 0.196256 0
M  V30 6820 H 664.259 -1.53366 1.14678 0
M  V30 6821 H 662.564 -3.91696 0.0903048 0
M  V30 6822 H 664.261 -3.98162 0.476267 0
M  V30 6823 H 660.851 -3.84038 1.90296 0
M  V30 6824 H 665.035 -4.05636 2.8596 0
M  V30 6825 H 660.291 -4.41878 4.22557 0
M  V30 6826 H 664.465 -4.64795 5.18593 0
M  V30 6827 H 662.092 -4.82573 5.87391 0
M  V30 6828 N 663.667 -0.670007 -1.42649 0
M  V30 6829 C 664.597 -0.00258501 -2.335 0
M  V30 6830 C 665.578 0.794364 -1.50412 0
M  V30 6831 O 666.763 0.75248 -1.79029 0
M  V30 6832 C 663.893 0.952748 -3.33976 0
M  V30 6833 C 662.847 0.264733 -4.2718 0
M  V30 6834 C 662.173 1.33267 -5.17826 0
M  V30 6835 C 663.473 -0.853289 -5.15283 0
M  V30 6836 H 665.167 -0.761326 -2.89559 0
M  V30 6837 H 662.713 -0.367561 -1.3923 0
M  V30 6838 H 664.666 1.4287 -3.96442 0
M  V30 6839 H 663.39 1.74285 -2.7621 0
M  V30 6840 H 662.049 -0.190938 -3.66102 0
M  V30 6841 H 661.697 2.11464 -4.5639 0
M  V30 6842 H 661.397 0.877476 -5.81011 0
M  V30 6843 H 662.921 1.80965 -5.83167 0
M  V30 6844 H 664.335 -0.458763 -5.71462 0
M  V30 6845 H 662.732 -1.23398 -5.87276 0
M  V30 6846 H 663.802 -1.70412 -4.53969 0
M  V30 6847 N 665.145 1.52092 -0.413018 0
M  V30 6848 C 666.092 2.27119 0.410558 0
M  V30 6849 C 667.062 1.29692 1.03774 0
M  V30 6850 O 668.247 1.58561 1.06128 0
M  V30 6851 C 665.387 3.09863 1.51918 0
M  V30 6852 C 664.5 4.22252 0.912528 0
M  V30 6853 C 663.635 4.92348 1.99417 0
M  V30 6854 C 662.674 5.96694 1.36466 0
M  V30 6855 N 661.811 6.60292 2.38661 0
M  V30 6856 H 666.651 2.97067 -0.235661 0
M  V30 6857 H 664.188 1.46542 -0.128055 0
M  V30 6858 H 666.146 3.56144 2.17295 0
M  V30 6859 H 664.776 2.42078 2.13537 0
M  V30 6860 H 663.828 3.80113 0.147697 0
M  V30 6861 H 665.14 4.9709 0.412717 0
M  V30 6862 H 664.294 5.42054 2.72512 0
M  V30 6863 H 663.033 4.17087 2.52764 0
M  V30 6864 H 662.038 5.46304 0.61906 0
M  V30 6865 H 663.263 6.73899 0.838827 0
M  V30 6866 H 661.209 5.87858 2.91134 0
M  V30 6867 H 661.126 7.30816 1.93503 0
M  V30 6868 H 662.394 7.14635 3.11314 0
M  V30 6869 N 666.623 0.143563 1.56945 0
M  V30 6870 C 668.039 -0.212877 1.58174 0
M  V30 6871 C 668.239 -1.64926 1.15766 0
M  V30 6872 O 667.295 -2.37535 0.856361 0
M  V30 6873 C 668.608 0.0427573 3.0067 0
M  V30 6874 C 670.156 -0.0212221 3.12993 0
M  V30 6875 C 670.631 0.207036 4.57532 0
M  V30 6876 N 672.122 0.153845 4.62944 0
M  V30 6877 C 672.857 0.305018 5.72588 0
M  V30 6878 N 672.353 0.513722 6.90893 0
M  V30 6879 N 674.146 0.242862 5.61575 0
M  V30 6880 H 666.297 1.08148 1.82805 0
M  V30 6881 H 668.56 0.427831 0.84597 0
M  V30 6882 H 668.266 1.03672 3.36073 0
M  V30 6883 H 668.14 -0.678195 3.71053 0
M  V30 6884 H 670.527 -1.00574 2.77433 0
M  V30 6885 H 670.608 0.732004 2.45103 0
M  V30 6886 H 670.252 1.18863 4.93795 0
M  V30 6887 H 670.182 -0.566473 5.23544 0
M  V30 6888 H 672.673 -0.00294866 3.779 0
M  V30 6889 H 672.986 0.619273 7.70315 0
M  V30 6890 H 671.331 0.550001 6.9282 0
M  V30 6891 H 674.522 0.0806015 4.68031 0
M  V30 6892 H 674.695 0.364112 6.46976 0
M  V30 6893 N 668.101 -1.57061 -0.130224 0
M  V30 6894 C 669.517 -1.52103 -0.483413 0
M  V30 6895 C 669.717 -0.854752 -1.82473 0
M  V30 6896 O 668.773 -0.432342 -2.48771 0
M  V30 6897 C 670.086 -2.96872 -0.47825 0
M  V30 6898 C 671.634 -3.07902 -0.562592 0
M  V30 6899 C 672.109 -4.54211 -0.587929 0
M  V30 6900 N 673.6 -4.58621 -0.649684 0
M  V30 6901 C 674.335 -5.69227 -0.690551 0
M  V30 6902 N 673.831 -6.89358 -0.689743 0
M  V30 6903 N 675.624 -5.57304 -0.732708 0
M  V30 6904 H 667.775 -1.98764 0.748779 0
M  V30 6905 H 670.038 -0.907248 0.274965 0
M  V30 6906 H 669.744 -3.48944 0.439444 0
M  V30 6907 H 669.618 -3.53716 -1.31013 0
M  V30 6908 H 672.005 -2.5584 -1.47071 0
M  V30 6909 H 672.086 -2.54073 0.296764 0
M  V30 6910 H 671.73 -5.06915 0.316096 0
M  V30 6911 H 671.66 -5.0584 -1.46401 0
M  V30 6912 H 674.151 -3.72146 -0.656927 0
M  V30 6913 H 674.464 -7.69408 -0.723239 0
M  V30 6914 H 672.809 -6.91884 -0.657347 0
M  V30 6915 H 676 -4.62363 -0.730625 0
M  V30 6916 H 676.173 -6.43515 -0.76109 0
M  V30 6917 N 669.579 0.400081 -1.52437 0
M  V30 6918 C 670.526 1.48803 -1.76426 0
M  V30 6919 C 671.496 1.5461 -0.607032 0
M  V30 6920 O 672.681 1.71041 -0.845563 0
M  V30 6921 C 669.821 2.86156 -1.92896 0
M  V30 6922 C 668.934 2.89587 -3.20567 0
M  V30 6923 C 668.069 4.18296 -3.27417 0
M  V30 6924 C 667.108 4.15736 -4.49255 0
M  V30 6925 N 666.245 5.36032 -4.53447 0
M  V30 6926 H 671.085 1.27649 -2.69276 0
M  V30 6927 H 668.622 0.619451 -1.33421 0
M  V30 6928 H 670.58 3.65901 -2.00429 0
M  V30 6929 H 669.21 3.05785 -1.03418 0
M  V30 6930 H 668.262 2.02278 -3.22161 0
M  V30 6931 H 669.574 2.83562 -4.10358 0
M  V30 6932 H 668.728 5.06439 -3.34072 0
M  V30 6933 H 667.467 4.27028 -2.35581 0
M  V30 6934 H 666.472 3.25982 -4.42737 0
M  V30 6935 H 667.697 4.08636 -5.42396 0
M  V30 6936 H 665.643 5.45415 -3.64498 0
M  V30 6937 H 665.56 5.32038 -5.37096 0
M  V30 6938 H 666.828 6.26104 -4.64343 0
M  V30 6939 N 671.057 1.43213 0.657864 0
M  V30 6940 C 672.287 1.478 1.44356 0
M  V30 6941 C 672.695 0.0930206 1.88971 0
M  V30 6942 O 672.038 -0.906089 1.59799 0
M  V30 6943 C 672.1 2.35745 2.71412 0
M  V30 6944 C 671.764 3.83359 2.48767 0
M  V30 6945 C 672.761 4.74585 2.12285 0
M  V30 6946 C 670.446 4.27799 2.63235 0
M  V30 6947 C 672.44 6.08247 1.90562 0
M  V30 6948 C 670.127 5.61516 2.41128 0
M  V30 6949 C 671.125 6.51557 2.04847 0
M  V30 6950 O 670.813 7.82802 1.82967 0
M  V30 6951 H 670.545 0.504363 0.450104 0
M  V30 6952 H 673.099 1.88572 0.814241 0
M  V30 6953 H 671.329 1.89852 3.36887 0
M  V30 6954 H 673.018 2.31589 3.33348 0
M  V30 6955 H 673.784 4.41531 2.00687 0
M  V30 6956 H 669.663 3.57993 2.90451 0
M  V30 6957 H 673.207 6.78489 1.62168 0
M  V30 6958 H 669.104 5.94139 2.52327 0
M  V30 6959 H 669.872 7.94332 1.97429 0
M  V30 6960 N 672.536 -0.895792 1.29666 0
M  V30 6961 C 673.483 -2.00035 1.15129 0
M  V30 6962 C 674.453 -1.66043 0.0435819 0
M  V30 6963 O 675.638 -1.89621 0.211811 0
M  V30 6964 C 672.778 -3.34774 0.83787 0
M  V30 6965 C 671.891 -3.81525 2.0264 0
M  V30 6966 C 671.026 -5.04858 1.65201 0
M  V30 6967 C 670.065 -5.43988 2.80612 0
M  V30 6968 N 669.202 -6.58507 2.43544 0
M  V30 6969 H 674.042 -2.11802 2.09628 0
M  V30 6970 H 671.579 -1.03719 1.04311 0
M  V30 6971 H 673.537 -4.12311 0.636824 0
M  V30 6972 H 672.167 -3.22724 -0.0702314 0
M  V30 6973 H 671.219 -2.9999 2.33903 0
M  V30 6974 H 672.531 -4.06472 2.89106 0
M  V30 6975 H 671.685 -5.8999 1.41408 0
M  V30 6976 H 670.424 -4.81759 0.758893 0
M  V30 6977 H 669.429 -4.57388 3.05083 0
M  V30 6978 H 670.654 -5.69066 3.70595 0
M  V30 6979 H 668.6 -6.37004 1.56724 0
M  V30 6980 H 668.517 -6.83269 3.23542 0
M  V30 6981 H 669.785 -7.46897 2.2308 0
M  V30 6982 N 674.014 -1.12206 -1.10668 0
M  V30 6983 C 674.946 -0.74552 -2.16736 0
M  V30 6984 C 675.959 0.226696 -1.61214 0
M  V30 6985 O 677.148 0.0083936 -1.78498 0
M  V30 6986 C 674.248 -0.0823368 -3.388 0
M  V30 6987 C 673.421 -1.08341 -4.2377 0
M  V30 6988 C 672.48 -0.448292 -5.24287 0
M  V30 6989 O 671.506 -1.10458 -5.58379 0
M  V30 6990 N 672.708 0.785336 -5.75163 0
M  V30 6991 H 675.473 -1.65818 -2.49649 0
M  V30 6992 H 673.034 -1.01335 -1.26265 0
M  V30 6993 H 675.026 0.354476 -4.03145 0
M  V30 6994 H 673.596 0.733041 -3.03884 0
M  V30 6995 H 672.816 -1.69792 -3.55759 0
M  V30 6996 H 674.104 -1.76042 -4.77375 0
M  V30 6997 H 673.502 1.33755 -5.4966 0
M  V30 6998 H 672.059 1.16501 -6.41304 0
M  V30 6999 O 675.531 1.23095 -1.04546 0
M  V30 7000 H 676.222 1.79876 -0.718642 0
M  V30 END ATOM
M  V30 BEGIN BOND
M  V30 END BOND
M  V30 END CTAB
M  END
$$$$
