drugbank_target|Q8VUT0 Quinohemoprotein amine dehydrogenase 60 kDa subunit (DB08646)
 OpenBabel12092120513D

  0  0  0     0  0            999 V3000
M  V30 BEGIN CTAB
M  V30 COUNTS 7639 7723 0 0 0
M  V30 BEGIN ATOM
M  V30 1 H -0.908 1.98254 -0.117106 0
M  V30 2 N 0 1.576 0 0
M  V30 3 C 0.933 2.03868 1.02534 0
M  V30 4 C 1.911 0.928543 1.3348 0
M  V30 5 O 3.095 1.19667 1.45644 0
M  V30 6 C 0.222 2.43627 2.35294 0
M  V30 7 C -0.732 3.65373 2.2001 0
M  V30 8 S 0.101 5.13292 1.52614 0
M  V30 9 C 1.257 5.56322 2.86805 0
M  V30 10 H 1.49 2.90518 0.631377 0
M  V30 11 H -0.977 1.52953 0.210867 0
M  V30 12 H 0.981 2.67203 3.11629 0
M  V30 13 H -0.358 1.57376 2.7183 0
M  V30 14 H -1.165 3.90944 3.18086 0
M  V30 15 H -1.563 3.418 1.51819 0
M  V30 16 H 0.729 5.58782 3.83104 0
M  V30 17 H 1.672 6.56266 2.65933 0
M  V30 18 H 2.08 4.83886 2.90714 0
M  V30 19 N 1.4781 -0.272755 1.55222 0
M  V30 20 C 2.4251 -1.33716 1.88119 0
M  V30 21 C 3.3951 -1.49066 0.73271 0
M  V30 22 O 4.5801 -1.63469 0.984002 0
M  V30 23 C 1.7201 -2.69238 2.15882 0
M  V30 24 C 0.8331 -2.62108 3.43399 0
M  V30 25 C -0.0319 -3.89811 3.60861 0
M  V30 26 C -0.9929 -3.77193 4.8207 0
M  V30 27 N -1.8559 -4.9673 4.96189 0
M  V30 28 H 2.9841 -1.04962 2.78903 0
M  V30 29 H 0.5211 -0.507088 1.38083 0
M  V30 30 H 2.4791 -3.48089 2.29978 0
M  V30 31 H 1.1091 -2.96194 1.28331 0
M  V30 32 H 0.1611 -1.74967 3.37773 0
M  V30 33 H 1.4731 -2.48685 4.32386 0
M  V30 34 H 0.6271 -4.77103 3.74777 0
M  V30 35 H -0.6339 -4.06102 2.7006 0
M  V30 36 H -1.6289 -2.88284 4.68159 0
M  V30 37 H -0.4039 -3.62421 5.74307 0
M  V30 38 H -2.4579 -5.13431 4.08319 0
M  V30 39 H -2.5409 -4.85839 5.79221 0
M  V30 40 H -1.2729 -5.85594 5.1449 0
M  V30 41 N 2.9562 -1.48159 -0.537278 0
M  V30 42 C 4.3672 -1.49429 -1.11928 0
M  V30 43 C 4.7182 -0.26 -1.9447 0
M  V30 44 O 3.8432 0.633489 -2.0692 0
M  V30 45 C 4.4382 -2.70758 -2.03656 0
M  V30 46 C 2.9972 -2.74923 -2.57088 0
M  V30 47 C 2.1442 -2.42835 -1.3389 0
M  V30 48 H 5.0952 -1.55381 -0.322886 0
M  V30 49 H 5.1162 -2.48861 -2.87834 0
M  V30 50 H 4.6282 -3.60575 -1.43553 0
M  V30 51 H 2.7292 -1.89296 -3.20933 0
M  V30 52 H 2.8422 -3.76157 -2.9672 0
M  V30 53 H 1.2062 -1.93836 -1.65226 0
M  V30 54 H 1.9892 -3.34884 -0.755504 0
M  V30 55 N 4.4343 0.785586 -1.36625 0
M  V30 56 C 5.6813 1.54362 -1.31067 0
M  V30 57 C 6.0093 1.94195 0.10893 0
M  V30 58 O 5.2643 1.63262 1.07908 0
M  V30 59 C 5.5633 2.83007 -2.1827 0
M  V30 60 C 5.2293 2.62294 -3.6676 0
M  V30 61 C 3.8913 2.56353 -4.0723 0
M  V30 62 C 6.2433 2.43371 -4.6089 0
M  V30 63 C 3.5713 2.29461 -5.39967 0
M  V30 64 C 5.9233 2.18005 -5.93849 0
M  V30 65 C 4.5873 2.105 -6.3344 0
M  V30 66 H 3.8573 0.564851 -0.479609 0
M  V30 67 H 6.5043 0.906028 -1.68711 0
M  V30 68 H 4.8093 3.51253 -1.73576 0
M  V30 69 H 6.5063 3.40817 -2.11292 0
M  V30 70 H 3.0963 2.67774 -3.34656 0
M  V30 71 H 7.2803 2.46959 -4.30494 0
M  V30 72 H 2.5363 2.22135 -5.69619 0
M  V30 73 H 6.7103 2.02359 -6.66351 0
M  V30 74 H 4.3373 1.89425 -7.36222 0
M  V30 75 N 5.9124 1.20967 1.01018 0
M  V30 76 C 7.1404 1.04956 1.78303 0
M  V30 77 C 7.5554 -0.400915 1.84494 0
M  V30 78 O 6.9124 -1.27826 1.30257 0
M  V30 79 C 6.9634 1.63403 3.22462 0
M  V30 80 O 6.6844 3.02775 3.16637 0
M  V30 81 C 8.1854 1.52432 4.16268 0
M  V30 82 H 5.4054 0.368858 0.560522 0
M  V30 83 H 7.9494 1.60193 1.27116 0
M  V30 84 H 6.1044 1.1227 3.70775 0
M  V30 85 H 6.5184 3.30626 4.07169 0
M  V30 86 H 7.9924 1.98078 5.15237 0
M  V30 87 H 8.4694 0.477875 4.36592 0
M  V30 88 H 9.0754 2.02787 3.73841 0
M  V30 89 N 7.3905 -1.2043 1.01659 0
M  V30 90 C 8.8065 -1.41852 0.731442 0
M  V30 91 C 9.0065 -1.89358 -0.688898 0
M  V30 92 O 8.0625 -2.06247 -1.45666 0
M  V30 93 C 9.3755 -2.44019 1.75714 0
M  V30 94 C 10.9235 -2.57785 1.77527 0
M  V30 95 C 11.3985 -3.63194 2.79023 0
M  V30 96 N 12.8895 -3.70678 2.77763 0
M  V30 97 C 13.6245 -4.51897 3.52954 0
M  V30 98 N 13.1205 -5.36921 4.37821 0
M  V30 99 N 14.9135 -4.4643 3.41551 0
M  V30 100 H 7.0645 -0.879093 1.93354 0
M  V30 101 H 9.3275 -0.448425 0.835236 0
M  V30 102 H 9.0335 -2.1611 2.77469 0
M  V30 103 H 8.9075 -3.43007 1.56927 0
M  V30 104 H 11.2945 -2.85023 0.764569 0
M  V30 105 H 11.3755 -1.58992 2.00387 0
M  V30 106 H 11.0195 -3.36699 3.80258 0
M  V30 107 H 10.9495 -4.61609 2.53425 0
M  V30 108 H 13.4405 -3.09944 2.16201 0
M  V30 109 H 13.7535 -5.95981 4.91962 0
M  V30 110 H 12.0985 -5.36424 4.41899 0
M  V30 111 H 15.2895 -3.79042 2.74672 0
M  V30 112 H 15.4625 -5.09491 4.00404 0
M  V30 113 N 8.8686 -0.792821 -1.36206 0
M  V30 114 C 10.0966 -0.378825 -2.03402 0
M  V30 115 C 10.5116 1.00586 -1.59774 0
M  V30 116 O 9.8686 1.64574 -0.788764 0
M  V30 117 C 9.9196 -0.43683 -3.58851 0
M  V30 118 O 9.6406 -1.76691 -4.00889 0
M  V30 119 C 11.1416 -0.0138943 -4.43298 0
M  V30 120 H 8.3616 -0.155673 -0.652692 0
M  V30 121 H 10.9056 -1.07261 -1.74113 0
M  V30 122 H 9.0606 0.208575 -3.86838 0
M  V30 123 H 9.4746 -1.72011 -4.95492 0
M  V30 124 H 10.9486 -0.105615 -5.51899 0
M  V30 125 H 11.4256 1.03915 -4.2673 0
M  V30 126 H 12.0316 -0.63192 -4.20579 0
M  V30 127 N 10.3467 1.47872 -0.545128 0
M  V30 128 C 11.3097 2.28337 0.198717 0
M  V30 129 C 12.3097 1.36255 0.853888 0
M  V30 130 O 13.4997 1.59003 0.711606 0
M  V30 131 C 10.6317 3.15585 1.28915 0
M  V30 132 H 11.8247 2.95567 -0.507941 0
M  V30 133 H 9.3777 1.53362 -0.301616 0
M  V30 134 H 10.1127 2.53019 2.02859 0
M  V30 135 H 9.8977 3.83337 0.824309 0
M  V30 136 H 11.3877 3.76243 1.81194 0
M  V30 137 N 11.8248 0.280983 1.55075 0
M  V30 138 C 12.7548 -0.597469 2.25727 0
M  V30 139 C 13.7358 -1.15417 1.24952 0
M  V30 140 O 14.9208 -1.18722 1.53684 0
M  V30 141 C 12.0508 -1.7789 2.98283 0
M  V30 142 C 11.0048 -1.35347 4.06036 0
M  V30 143 C 10.3308 -2.61846 4.66198 0
M  V30 144 C 11.6308 -0.499354 5.19907 0
M  V30 145 H 13.3248 -0.00824265 2.99399 0
M  V30 146 H 10.8708 -0.0025244 1.44 0
M  V30 147 H 12.8238 -2.39937 3.46422 0
M  V30 148 H 11.5478 -2.39405 2.22155 0
M  V30 149 H 10.2068 -0.756156 3.58717 0
M  V30 150 H 9.8548 -3.21632 3.86732 0
M  V30 151 H 9.5548 -2.3409 5.38958 0
M  V30 152 H 11.0788 -3.24732 5.1709 0
M  V30 153 H 12.4928 -1.02498 5.64063 0
M  V30 154 H 10.8898 -0.316424 5.99265 0
M  V30 155 H 11.9598 0.480459 4.82514 0
M  V30 156 N 13.3029 -1.57598 0.00835791 0
M  V30 157 C 14.5489 -1.91211 -0.675732 0
M  V30 158 C 14.8819 -0.883139 -1.72958 0
M  V30 159 O 14.1569 0.097016 -1.94258 0
M  V30 160 C 14.4399 -3.35379 -1.31123 0
M  V30 161 C 14.2929 -4.48999 -0.268356 0
M  V30 162 C 15.6119 -3.7912 -2.23508 0
M  V30 163 H 12.7309 -0.695374 -0.244179 0
M  V30 164 H 15.3729 -1.89901 0.0613655 0
M  V30 165 H 13.5229 -3.36626 -1.93946 0
M  V30 166 H 15.1949 -4.59887 0.360844 0
M  V30 167 H 13.4379 -4.31873 0.408482 0
M  V30 168 H 14.1089 -5.46851 -0.752218 0
M  V30 169 H 16.5849 -3.79477 -1.70693 0
M  V30 170 H 15.4609 -4.80729 -2.64936 0
M  V30 171 H 15.7219 -3.13455 -3.11766 0
M  V30 172 N 14.781 0.264519 -1.55364 0
M  V30 173 C 16.006 1.01726 -1.80739 0
M  V30 174 C 16.431 1.78836 -0.583044 0
M  V30 175 O 15.789 1.75167 0.467566 0
M  V30 176 C 15.837 1.94482 -3.03659 0
M  V30 177 O 14.941 3.03386 -2.7934 0
M  V30 178 H 14.282 0.290395 -0.597132 0
M  V30 179 H 16.812 0.290854 -2.02522 0
M  V30 180 H 16.822 2.36278 -3.32621 0
M  V30 181 H 15.497 1.37772 -3.92418 0
M  V30 182 H 14.074 2.65844 -2.61498 0
M  V30 183 N 16.2591 1.48442 0.529413 0
M  V30 184 C 17.5051 1.5672 1.28711 0
M  V30 185 C 17.8381 0.2406 1.92704 0
M  V30 186 O 17.1131 -0.753454 1.79313 0
M  V30 187 C 17.3961 2.70587 2.37603 0
M  V30 188 C 17.2491 4.12953 1.78297 0
M  V30 189 C 18.5681 2.80212 3.39366 0
M  V30 190 H 15.6871 0.570474 0.466613 0
M  V30 191 H 18.3291 1.80617 0.589706 0
M  V30 192 H 16.4791 2.50342 2.97088 0
M  V30 193 H 18.1511 4.44639 1.22858 0
M  V30 194 H 16.3941 4.19927 1.0883 0
M  V30 195 H 17.0651 4.88448 2.57144 0
M  V30 196 H 19.5411 2.98553 2.89836 0
M  V30 197 H 18.4171 3.61611 4.12951 0
M  V30 198 H 18.6781 1.88393 3.99951 0
M  V30 199 N 17.7372 -0.778329 1.37039 0
M  V30 200 C 18.9622 -1.57248 1.35233 0
M  V30 201 C 19.3872 -1.87999 -0.0615568 0
M  V30 202 O 18.7452 -1.48734 -1.03672 0
M  V30 203 C 18.7932 -2.86353 2.19167 0
M  V30 204 O 17.8972 -3.80442 1.59178 0
M  V30 205 H 17.2382 -0.476569 0.462362 0
M  V30 206 H 19.7682 -0.963853 1.80474 0
M  V30 207 H 19.7782 -3.35519 2.32145 0
M  V30 208 H 18.4532 -2.63299 3.21942 0
M  V30 209 H 17.0302 -3.39067 1.55203 0
M  V30 210 N 19.2153 -1.21501 -1.00376 0
M  V30 211 C 20.1783 -0.976927 -2.07337 0
M  V30 212 C 21.1783 0.0525322 -1.60714 0
M  V30 213 O 22.3683 -0.184869 -1.73216 0
M  V30 214 C 19.5003 -0.473423 -3.37597 0
M  V30 215 H 20.6933 -1.92587 -2.29892 0
M  V30 216 H 18.2463 -1.03217 -1.17371 0
M  V30 217 H 18.9813 0.480379 -3.20722 0
M  V30 218 H 18.7663 -1.216 -3.72768 0
M  V30 219 H 20.2563 -0.32675 -4.1632 0
M  V30 220 N 20.6934 1.19889 -1.02296 0
M  V30 221 C 21.6234 2.25141 -0.619174 0
M  V30 222 C 22.6044 1.66051 0.368915 0
M  V30 223 O 23.7894 1.92546 0.252941 0
M  V30 224 C 20.9194 3.4728 0.0368783 0
M  V30 225 C 19.8734 4.19005 -0.872865 0
M  V30 226 C 19.1994 5.34637 -0.0822402 0
M  V30 227 C 20.4994 4.74452 -2.18387 0
M  V30 228 H 22.1934 2.59171 -1.49903 0
M  V30 229 H 19.7394 1.24579 -0.722222 0
M  V30 230 H 21.6924 4.20098 0.330958 0
M  V30 231 H 20.4164 3.12433 0.95149 0
M  V30 232 H 19.0754 3.48061 -1.15105 0
M  V30 233 H 18.7234 4.96034 0.83422 0
M  V30 234 H 18.4234 5.83557 -0.688149 0
M  V30 235 H 19.9474 6.10255 0.205238 0
M  V30 236 H 21.3614 5.39055 -1.95172 0
M  V30 237 H 19.7584 5.33834 -2.74119 0
M  V30 238 H 20.8284 3.92844 -2.84257 0
M  V30 239 N 22.1715 0.800033 1.35784 0
M  V30 240 C 23.1345 0.211565 2.28221 0
M  V30 241 C 24.1345 -0.59728 1.49296 0
M  V30 242 O 25.3245 -0.416721 1.69142 0
M  V30 243 C 22.4565 -0.705846 3.33513 0
M  V30 244 H 23.6495 1.02677 2.81776 0
M  V30 245 H 21.2025 0.570211 1.45528 0
M  V30 246 H 21.9375 -1.54498 2.85133 0
M  V30 247 H 21.7225 -0.127655 3.91892 0
M  V30 248 H 23.2125 -1.11211 4.02519 0
M  V30 249 N 23.6496 -1.47581 0.552962 0
M  V30 250 C 24.8966 -2.02482 0.0273243 0
M  V30 251 C 25.2246 -1.42776 -1.32081 0
M  V30 252 O 24.4796 -0.571393 -1.87173 0
M  V30 253 C 24.7786 -3.57199 -0.119728 0
M  V30 254 C 24.4446 -4.35804 1.15697 0
M  V30 255 C 23.1066 -4.57 1.50681 0
M  V30 256 C 25.4586 -4.81167 2.00319 0
M  V30 257 C 22.7866 -5.20807 2.70142 0
M  V30 258 C 25.1386 -5.46293 3.18978 0
M  V30 259 C 23.8026 -5.65722 3.54281 0
M  V30 260 H 23.0726 -0.740933 0.00999866 0
M  V30 261 H 25.7196 -1.77302 0.72362 0
M  V30 262 H 24.0246 -3.81348 -0.89896 0
M  V30 263 H 25.7216 -3.97324 -0.541718 0
M  V30 264 H 22.3116 -4.19582 0.874561 0
M  V30 265 H 26.4956 -4.64574 1.74599 0
M  V30 266 H 21.7516 -5.34045 2.97668 0
M  V30 267 H 25.9256 -5.80407 3.84838 0
M  V30 268 H 23.5526 -6.14936 4.46942 0
M  V30 269 N 25.1277 -0.289203 -1.54924 0
M  V30 270 C 26.0907 0.579144 -2.21762 0
M  V30 271 C 27.0907 1.07047 -1.1999 0
M  V30 272 O 28.2807 0.968384 -1.44803 0
M  V30 273 C 25.4127 1.80055 -2.8947 0
M  V30 274 H 26.6057 -0.00464908 -2.999 0
M  V30 275 H 24.1587 -0.0399306 -1.56249 0
M  V30 276 H 24.8937 2.42449 -2.15381 0
M  V30 277 H 24.6787 1.45602 -3.64064 0
M  V30 278 H 26.1687 2.41773 -3.40493 0
M  V30 279 N 26.6058 1.57591 -0.0167156 0
M  V30 280 C 27.5688 2.08393 0.954204 0
M  V30 281 C 28.5688 0.996531 1.26198 0
M  V30 282 O 29.7588 1.25858 1.20438 0
M  V30 283 C 26.8908 2.5394 2.27436 0
M  V30 284 H 28.0838 2.95455 0.514451 0
M  V30 285 H 25.6368 1.54582 0.231089 0
M  V30 286 H 26.3718 1.70171 2.76066 0
M  V30 287 H 26.1568 3.33371 2.06412 0
M  V30 288 H 27.6468 2.93512 2.97053 0
M  V30 289 N 28.0839 -0.256276 1.55502 0
M  V30 290 C 29.4949 -0.826068 1.67431 0
M  V30 291 C 29.8459 -1.86396 0.612446 0
M  V30 292 O 28.9709 -2.15031 -0.243025 0
M  V30 293 C 29.5659 -1.50512 3.03532 0
M  V30 294 C 28.1249 -2.02273 3.17431 0
M  V30 295 C 27.2719 -0.870548 2.63281 0
M  V30 296 H 30.2229 -0.0322728 1.58667 0
M  V30 297 H 30.2439 -2.37279 2.97454 0
M  V30 298 H 29.7559 -0.749484 3.80794 0
M  V30 299 H 27.8569 -2.80746 2.44974 0
M  V30 300 H 27.9699 -2.22655 4.24219 0
M  V30 301 H 26.3339 -1.26851 2.20864 0
M  V30 302 H 27.1169 -0.128149 3.43061 0
M  V30 303 N 29.562 -1.4872 -0.521534 0
M  V30 304 C 30.808 -1.574 -1.27879 0
M  V30 305 C 31.141 -0.250817 -1.92573 0
M  V30 306 O 30.416 0.743934 -1.79711 0
M  V30 307 C 30.699 -2.71843 -2.36164 0
M  V30 308 C 30.552 -4.13893 -1.76105 0
M  V30 309 C 31.871 -2.82008 -3.37875 0
M  V30 310 H 28.99 -0.572941 -0.463581 0
M  V30 311 H 31.632 -1.80927 -0.580119 0
M  V30 312 H 29.782 -2.51914 -2.95756 0
M  V30 313 H 31.454 -4.45284 -1.20499 0
M  V30 314 H 29.697 -4.20498 -1.06601 0
M  V30 315 H 30.368 -4.89804 -2.5455 0
M  V30 316 H 32.844 -3.00086 -2.88249 0
M  V30 317 H 31.72 -3.63796 -4.11028 0
M  V30 318 H 31.981 -1.90511 -3.98946 0
M  V30 319 N 31.0401 0.771051 -1.3745 0
M  V30 320 C 31.9701 1.89827 -1.3597 0
M  V30 321 C 32.9511 1.68562 -0.228216 0
M  V30 322 O 34.1361 1.8941 -0.428675 0
M  V30 323 C 31.2661 3.2712 -1.16662 0
M  V30 324 C 30.2201 3.6295 -2.2683 0
M  V30 325 C 29.5461 4.98791 -1.92644 0
M  V30 326 C 30.8461 3.69627 -3.69017 0
M  V30 327 H 32.5401 1.91323 -2.30295 0
M  V30 328 H 30.0861 0.919082 -1.10855 0
M  V30 329 H 32.0391 4.05615 -1.14256 0
M  V30 330 H 30.7631 3.26059 -0.187926 0
M  V30 331 H 29.4221 2.86763 -2.28392 0
M  V30 332 H 29.0701 4.94271 -0.933021 0
M  V30 333 H 28.7701 5.23733 -2.66416 0
M  V30 334 H 30.2941 5.79685 -1.91826 0
M  V30 335 H 31.7081 4.38273 -3.69581 0
M  V30 336 H 30.1051 4.06067 -4.41848 0
M  V30 337 H 31.1751 2.70273 -4.02592 0
M  V30 338 N 32.5182 1.22032 0.997298 0
M  V30 339 C 33.4812 0.987909 2.06816 0
M  V30 340 C 34.4812 -0.0440084 1.6074 0
M  V30 341 O 35.6712 0.194053 1.73116 0
M  V30 342 C 32.8032 0.49132 3.37341 0
M  V30 343 H 33.9962 1.93803 2.28868 0
M  V30 344 H 31.5492 1.03838 1.16822 0
M  V30 345 H 32.2842 -0.463364 3.20973 0
M  V30 346 H 32.0692 1.23575 3.72118 0
M  V30 347 H 33.5592 0.348824 4.16141 0
M  V30 348 N 33.9963 -1.19345 1.0293 0
M  V30 349 C 35.2423 -1.89318 0.727083 0
M  V30 350 C 35.5753 -1.79446 -0.742483 0
M  V30 351 O 34.8503 -1.1871 -1.54072 0
M  V30 352 C 35.1333 -3.40238 1.17942 0
M  V30 353 C 34.9863 -3.58979 2.71024 0
M  V30 354 C 36.3053 -4.33479 0.760548 0
M  V30 355 H 33.4243 -0.687475 0.265606 0
M  V30 356 H 36.0663 -1.40477 1.2793 0
M  V30 357 H 34.2163 -3.81964 0.709608 0
M  V30 358 H 35.8883 -3.26421 3.25955 0
M  V30 359 H 34.1313 -3.02018 3.11396 0
M  V30 360 H 34.8023 -4.64823 2.9773 0
M  V30 361 H 37.2783 -3.99469 1.16464 0
M  V30 362 H 36.1543 -5.37664 1.10493 0
M  V30 363 H 36.4153 -4.40813 -0.337063 0
M  V30 364 N 35.4744 -0.807222 -1.35358 0
M  V30 365 C 36.7024 -0.400377 -2.02989 0
M  V30 366 C 37.1174 0.988859 -1.60832 0
M  V30 367 O 36.4744 1.63729 -0.806175 0
M  V30 368 C 36.5254 -0.474867 -3.58368 0
M  V30 369 O 36.2464 -1.80933 -3.98992 0
M  V30 370 C 37.7474 -0.0609112 -4.43258 0
M  V30 371 H 34.9674 -0.162587 -0.651004 0
M  V30 372 H 37.5114 -1.09102 -1.72965 0
M  V30 373 H 35.6664 0.167534 -3.87038 0
M  V30 374 H 36.0804 -1.77256 -4.9364 0
M  V30 375 H 37.5544 -0.164145 -5.51756 0
M  V30 376 H 38.0314 0.993831 -4.27808 0
M  V30 377 H 38.6374 -0.676492 -4.19885 0
M  V30 378 N 36.9525 1.47285 -0.560781 0
M  V30 379 C 38.2005 2.02064 -0.0379868 0
M  V30 380 C 38.5215 1.43711 1.31803 0
M  V30 381 O 37.7915 0.61362 1.86042 0
M  V30 382 H 36.3715 0.746918 -0.0110531 0
M  V30 383 H 39.0335 1.80648 -0.731598 0
M  V30 384 H 38.1295 3.12064 0.0474463 0
M  V30 385 N 38.4306 0.297415 1.54768 0
M  V30 386 C 39.3406 -0.58983 2.27064 0
M  V30 387 C 40.3566 -1.15144 1.30453 0
M  V30 388 O 41.5326 -1.17699 1.63428 0
M  V30 389 C 38.5976 -1.74714 2.9946 0
M  V30 390 C 37.6586 -1.21997 4.11601 0
M  V30 391 C 36.8916 -2.32212 4.80535 0
M  V30 392 O 37.1146 -3.52036 4.48806 0
M  V30 393 O 36.0486 -1.99106 5.68014 0
M  V30 394 H 39.8746 -0.00348199 3.037 0
M  V30 395 H 37.4596 0.0640035 1.49263 0
M  V30 396 H 39.3416 -2.42147 3.44881 0
M  V30 397 H 38.0166 -2.32016 2.25722 0
M  V30 398 H 36.9236 -0.511458 3.70587 0
M  V30 399 H 38.2566 -0.692419 4.87305 0
M  V30 400 N 39.9087 -1.5758 0.0250728 0
M  V30 401 C 40.8187 -2.1343 -0.973905 0
M  V30 402 C 41.8347 -1.08556 -1.35984 0
M  V30 403 O 43.0107 -1.40592 -1.44207 0
M  V30 404 C 40.0757 -2.64703 -2.23904 0
M  V30 405 C 39.1367 -3.84276 -1.91391 0
M  V30 406 C 38.3697 -4.33095 -3.11873 0
M  V30 407 O 38.5927 -3.81107 -4.24398 0
M  V30 408 O 37.5267 -5.24984 -2.94406 0
M  V30 409 H 41.3527 -2.99057 -0.529036 0
M  V30 410 H 38.9377 -1.48118 -0.195288 0
M  V30 411 H 40.8197 -2.97769 -2.98181 0
M  V30 412 H 39.4947 -1.82161 -2.6758 0
M  V30 413 H 38.4017 -3.56143 -1.14511 0
M  V30 414 H 39.7347 -4.67968 -1.52534 0
M  V30 415 N 41.3868 0.248026 -1.55636 0
M  V30 416 C 42.6328 0.97767 -1.77678 0
M  V30 417 C 42.9658 1.85016 -0.590135 0
M  V30 418 O 42.2408 1.90095 0.411611 0
M  V30 419 C 42.5238 1.83914 -3.09593 0
M  V30 420 C 42.3768 0.99491 -4.38659 0
M  V30 421 C 43.6958 2.82183 -3.37729 0
M  V30 422 H 40.8148 0.354005 -0.646413 0
M  V30 423 H 43.4568 0.248253 -1.88371 0
M  V30 424 H 41.6068 2.46104 -3.00608 0
M  V30 425 H 43.2788 0.391789 -4.59633 0
M  V30 426 H 41.5218 0.299231 -4.32767 0
M  V30 427 H 42.1928 1.63145 -5.2734 0
M  V30 428 H 44.6688 2.30129 -3.4667 0
M  V30 429 H 43.5448 3.39582 -4.31249 0
M  V30 430 H 43.8058 3.58588 -2.58586 0
M  V30 431 N 42.8649 1.48995 0.513639 0
M  V30 432 C 43.7949 1.67636 1.62544 0
M  V30 433 C 44.7759 0.525087 1.61793 0
M  V30 434 O 45.9609 0.759502 1.78732 0
M  V30 435 C 43.0909 1.73114 3.01079 0
M  V30 436 C 42.0449 2.87905 3.16693 0
M  V30 437 C 41.3709 2.78486 4.56453 0
M  V30 438 C 42.6709 4.29005 2.97913 0
M  V30 439 H 44.3649 2.60716 1.47198 0
M  V30 440 H 41.9109 1.25465 0.706714 0
M  V30 441 H 43.8639 1.84742 3.78746 0
M  V30 442 H 42.5879 0.766241 3.17484 0
M  V30 443 H 41.2469 2.75859 2.41448 0
M  V30 444 H 40.8949 1.7993 4.69717 0
M  V30 445 H 40.5949 3.55523 4.67843 0
M  V30 446 H 42.1189 2.92104 5.36197 0
M  V30 447 H 43.5329 4.41798 3.65359 0
M  V30 448 H 41.9299 5.07166 3.20785 0
M  V30 449 H 42.9999 4.44329 1.94165 0
M  V30 450 N 44.343 -0.763751 1.37857 0
M  V30 451 C 45.275 -1.88664 1.30148 0
M  V30 452 C 46.288 -1.61365 0.215685 0
M  V30 453 O 47.477 -1.72134 0.472459 0
M  V30 454 C 44.577 -3.24075 0.991396 0
M  V30 455 C 43.75 -3.78958 2.18426 0
M  V30 456 C 42.809 -4.92862 1.8432 0
M  V30 457 O 41.835 -5.08027 2.56704 0
M  V30 458 N 43.037 -5.75071 0.792081 0
M  V30 459 H 45.802 -1.95791 2.26905 0
M  V30 460 H 43.363 -0.943226 1.31586 0
M  V30 461 H 45.355 -3.97804 0.743935 0
M  V30 462 H 43.925 -3.12399 0.112122 0
M  V30 463 H 43.145 -2.96913 2.59299 0
M  V30 464 H 44.433 -4.12357 2.98058 0
M  V30 465 H 43.831 -5.65375 0.191595 0
M  V30 466 H 42.388 -6.48991 0.60449 0
M  V30 467 N 45.8211 -1.22559 -0.990812 0
M  V30 468 C 46.7691 -0.994798 -2.10253 0
M  V30 469 C 47.7631 0.0627798 -1.69284 0
M  V30 470 O 48.9691 -0.0898392 -1.79776 0
M  V30 471 H 45.3441 -0.304527 -0.687581 0
M  V30 472 H 47.3151 -1.93812 -2.26891 0
M  V30 473 C 46.0641 -0.591439 -3.42633 0
M  V30 474 H 45.3871 -1.3969 -3.74602 0
M  V30 475 H 46.8271 -0.469385 -4.21394 0
M  V30 476 C 45.2861 0.699232 -3.29564 0
M  V30 477 O 45.8161 1.75112 -3.61523 0
M  V30 478 N 44.0221 0.671182 -2.82743 0
M  V30 479 H 43.5691 -0.185136 -2.56934 0
M  V30 480 H 43.5271 1.53502 -2.7438 0
M  V30 481 N 47.2992 1.18797 -1.03562 0
M  V30 482 C 48.2622 2.20464 -0.626769 0
M  V30 483 C 49.2622 1.57721 0.313173 0
M  V30 484 O 50.4522 1.73917 0.0992615 0
M  V30 485 C 47.5842 3.40802 0.0818498 0
M  V30 486 H 48.7772 2.58149 -1.5264 0
M  V30 487 H 46.3302 1.32593 -0.827578 0
M  V30 488 H 47.0652 3.08642 0.995518 0
M  V30 489 H 46.8502 3.8758 -0.593652 0
M  V30 490 H 48.3402 4.16092 0.354584 0
M  V30 491 N 48.7773 0.814389 1.34928 0
M  V30 492 C 50.0173 0.404165 2.00364 0
M  V30 493 C 50.3813 -1.01166 1.63185 0
M  V30 494 O 51.5823 -1.52431 2.21401 0
M  V30 495 C 49.8533 0.590718 3.52484 0
M  V30 496 S 51.4123 0.272075 4.37956 0
M  V30 497 H 48.2303 0.15311 0.694319 0
M  V30 498 H 50.8323 1.05834 1.64376 0
M  V30 499 H 49.5363 1.62099 3.77031 0
M  V30 500 H 49.0673 -0.0785013 3.93322 0
M  V30 501 H 51.0823 -0.917405 4.87645 0
M  V30 502 N 50.2554 -1.46986 0.568584 0
M  V30 503 C 51.2184 -2.28624 -0.162366 0
M  V30 504 C 52.2184 -1.37596 -0.832103 0
M  V30 505 O 53.4084 -1.60115 -0.68622 0
M  V30 506 C 50.5404 -3.17596 -1.23878 0
M  V30 507 H 51.7334 -2.94722 0.554899 0
M  V30 508 H 49.2864 -1.52863 0.325976 0
M  V30 509 H 50.0214 -2.56214 -1.98808 0
M  V30 510 H 49.8064 -3.846 -0.763219 0
M  V30 511 H 51.2964 -3.79078 -1.75185 0
M  V30 512 N 51.7335 -0.305618 -1.54608 0
M  V30 513 C 52.6965 0.555591 -2.22364 0
M  V30 514 C 53.6965 1.05768 -1.21119 0
M  V30 515 O 54.8865 0.952972 -1.45822 0
M  V30 516 C 52.0185 1.76974 -2.91364 0
M  V30 517 H 53.2115 -0.0364572 -2.99878 0
M  V30 518 H 50.7645 -0.0565007 -1.56198 0
M  V30 519 H 51.4995 2.40151 -2.17941 0
M  V30 520 H 51.2845 1.41732 -3.65588 0
M  V30 521 H 52.7745 2.38148 -3.43038 0
M  V30 522 N 53.2116 1.57565 -0.0334293 0
M  V30 523 C 54.4516 1.93844 0.648379 0
M  V30 524 C 54.8156 0.910387 1.69044 0
M  V30 525 O 56.0166 1.15952 2.42505 0
M  V30 526 C 54.2876 3.35017 1.24492 0
M  V30 527 S 55.8466 3.93229 1.94721 0
M  V30 528 H 52.6646 0.678231 0.213364 0
M  V30 529 H 55.2666 1.95254 -0.0981253 0
M  V30 530 H 53.9706 4.07652 0.474128 0
M  V30 531 H 53.5016 3.37061 2.02864 0
M  V30 532 H 55.5166 3.77014 3.22606 0
M  V30 533 N 54.6897 -0.239769 1.55765 0
M  V30 534 C 55.6397 -1.30002 1.87306 0
M  V30 535 C 56.6237 -1.43156 0.73452 0
M  V30 536 O 57.8157 -1.46277 0.99659 0
M  V30 537 C 54.9447 -2.65409 2.17745 0
M  V30 538 C 54.0307 -2.56231 3.37945 0
M  V30 539 N 54.4217 -2.16689 4.57033 0
M  V30 540 C 52.7197 -2.87229 3.41197 0
M  V30 541 C 53.4207 -2.18318 5.39177 0
M  V30 542 N 52.3967 -2.58098 4.78421 0
M  V30 543 H 56.1987 -0.984912 2.76906 0
M  V30 544 H 53.7127 -0.448381 1.56087 0
M  V30 545 H 55.7097 -3.41934 2.38509 0
M  V30 546 H 54.3697 -2.97781 1.29448 0
M  V30 547 H 55.3807 -1.88116 4.82528 0
M  V30 548 H 52.0577 -3.24094 2.63191 0
M  V30 549 H 53.4477 -1.90025 6.44469 0
M  V30 550 N 56.1678 -1.49265 -0.50573 0
M  V30 551 C 57.4138 -1.58748 -1.26202 0
M  V30 552 C 57.7468 -0.271227 -1.92297 0
M  V30 553 O 57.0218 0.724831 -1.80489 0
M  V30 554 C 57.3048 -2.74332 -2.33268 0
M  V30 555 C 57.1578 -4.15737 -1.71705 0
M  V30 556 C 58.4768 -2.85576 -3.34865 0
M  V30 557 H 55.5958 -0.577826 -0.457478 0
M  V30 558 H 58.2378 -1.81532 -0.560897 0
M  V30 559 H 56.3878 -2.55036 -2.93068 0
M  V30 560 H 58.0598 -4.46537 -1.15769 0
M  V30 561 H 56.3028 -4.21605 -1.02135 0
M  V30 562 H 56.9738 -4.92477 -2.49341 0
M  V30 563 H 59.4498 -3.03127 -2.8505 0
M  V30 564 H 58.3258 -3.68135 -4.07146 0
M  V30 565 H 58.5868 -1.94732 -3.96903 0
M  V30 566 N 57.6459 0.756429 -1.3826 0
M  V30 567 C 58.5779 1.87971 -1.31147 0
M  V30 568 C 59.5909 1.61248 -0.224239 0
M  V30 569 O 60.7799 1.71881 -0.481581 0
M  V30 570 C 57.8799 3.23545 -1.00857 0
M  V30 571 C 57.0529 3.77794 -2.20432 0
M  V30 572 C 56.1119 4.91877 -1.86931 0
M  V30 573 O 55.1379 5.06659 -2.59395 0
M  V30 574 N 56.3399 5.74643 -0.822568 0
M  V30 575 H 59.1049 1.94585 -2.2794 0
M  V30 576 H 56.6659 0.936234 -1.32084 0
M  V30 577 H 58.6579 3.97403 -0.765021 0
M  V30 578 H 57.2279 3.12335 -0.128687 0
M  V30 579 H 56.4479 2.95534 -2.6087 0
M  V30 580 H 57.7359 4.10771 -3.00241 0
M  V30 581 H 57.1339 5.65266 -0.221575 0
M  V30 582 H 55.6909 6.48661 -0.638899 0
M  V30 583 N 59.124 1.23083 0.984299 0
M  V30 584 C 60.074 0.975749 2.06066 0
M  V30 585 C 61.058 -0.0768251 1.60716 0
M  V30 586 O 62.25 0.134805 1.76486 0
M  V30 587 C 59.379 0.564673 3.38624 0
M  V30 588 C 58.465 1.65244 3.90583 0
M  V30 589 N 58.856 2.88193 4.15666 0
M  V30 590 C 57.154 1.52612 4.19077 0
M  V30 591 C 57.855 3.58593 4.58024 0
M  V30 592 N 56.831 2.86093 4.62225 0
M  V30 593 H 60.633 1.90957 2.23411 0
M  V30 594 H 58.147 1.12963 1.16675 0
M  V30 595 H 60.144 0.36322 4.15315 0
M  V30 596 H 58.804 -0.362147 3.22674 0
M  V30 597 H 59.815 3.24537 4.03604 0
M  V30 598 H 56.492 0.666121 4.12152 0
M  V30 599 H 57.882 4.63974 4.85982 0
M  V30 600 N 60.6021 -1.18246 1.0419 0
M  V30 601 C 61.5121 -2.25574 0.644476 0
M  V30 602 C 62.5281 -1.70845 -0.329826 0
M  V30 603 O 63.7041 -2.00554 -0.184443 0
M  V30 604 C 60.7691 -3.46697 0.014877 0
M  V30 605 C 59.8301 -4.16554 1.03834 0
M  V30 606 C 59.0631 -5.31894 0.438692 0
M  V30 607 O 59.2861 -5.65385 -0.754752 0
M  V30 608 O 58.2201 -5.90459 1.168 0
M  V30 609 H 62.0461 -2.61836 1.53869 0
M  V30 610 H 59.6311 -1.25352 0.812854 0
M  V30 611 H 61.5131 -4.20062 -0.335538 0
M  V30 612 H 60.1881 -3.12255 -0.853138 0
M  V30 613 H 59.0951 -3.45251 1.44057 0
M  V30 614 H 60.4281 -4.54998 1.87716 0
M  V30 615 N 62.0802 -0.821533 -1.34494 0
M  V30 616 C 63.3572 -0.33159 -1.92769 0
M  V30 617 C 63.7372 1.18088 -1.74981 0
M  V30 618 O 63.0852 1.98733 -1.12772 0
M  V30 619 C 63.2952 -0.759398 -3.40638 0
M  V30 620 C 64.6432 -0.757433 -4.1779 0
M  V30 621 O 65.6672 -0.70189 -3.49216 0
M  V30 622 O 64.5262 -0.829361 -5.4017 0
M  V30 623 H 61.6202 -0.0902502 -0.822061 0
M  V30 624 H 64.1662 -0.906231 -1.43477 0
M  V30 625 H 62.9382 -1.8012 -3.47379 0
M  V30 626 H 62.5612 -0.160378 -3.97276 0
M  V30 627 N 63.5583 1.46682 -0.576371 0
M  V30 628 C 64.8063 2.02013 -0.0594163 0
M  V30 629 C 65.1273 1.45101 1.30271 0
M  V30 630 O 64.3973 0.633317 1.8538 0
M  V30 631 H 62.9773 0.746759 -0.0189745 0
M  V30 632 H 65.6393 1.79862 -0.750717 0
M  V30 633 H 64.7353 3.12097 0.014345 0
M  V30 634 N 65.0364 0.313813 1.54444 0
M  V30 635 C 66.4524 -0.0391619 1.59552 0
M  V30 636 C 66.6524 -1.51322 1.33056 0
M  V30 637 O 65.7084 -2.26782 1.11022 0
M  V30 638 C 67.0214 0.370302 2.98411 0
M  V30 639 C 68.5694 0.320139 3.11358 0
M  V30 640 C 69.0444 0.704617 4.52547 0
M  V30 641 N 70.5354 0.657645 4.58508 0
M  V30 642 C 71.2704 0.927453 5.6585 0
M  V30 643 N 70.7664 1.26389 6.81174 0
M  V30 644 N 72.5594 0.853662 5.5558 0
M  V30 645 H 64.7104 1.27433 1.69925 0
M  V30 646 H 66.9734 0.517511 0.794284 0
M  V30 647 H 66.6794 1.39694 3.22767 0
M  V30 648 H 66.5534 -0.269619 3.76235 0
M  V30 649 H 68.9404 -0.697275 2.86744 0
M  V30 650 H 69.0214 0.99486 2.35661 0
M  V30 651 H 68.6654 1.7199 4.77893 0
M  V30 652 H 68.5954 0.00768843 5.26599 0
M  V30 653 H 71.0864 0.409067 3.75679 0
M  V30 654 H 71.3994 1.4554 7.58972 0
M  V30 655 H 69.7444 1.30206 6.82694 0
M  V30 656 H 72.9354 0.590383 4.64362 0
M  V30 657 H 73.1084 1.0673 6.3915 0
M  V30 658 N 66.5145 -1.57545 0.0417849 0
M  V30 659 C 67.7605 -1.93424 -0.629168 0
M  V30 660 C 68.1155 -0.919564 -1.69002 0
M  V30 661 O 67.4085 0.0626178 -1.91498 0
M  V30 662 C 67.6025 -3.33794 -1.27735 0
M  V30 663 C 67.4315 -4.48822 -0.280806 0
M  V30 664 C 66.2015 -5.05148 0.123869 0
M  V30 665 C 68.3995 -5.12148 0.470012 0
M  V30 666 N 66.3815 -6.03703 1.11426 0
M  V30 667 C 67.7525 -6.05921 1.31377 0
M  V30 668 C 69.8075 -4.95078 0.529343 0
M  V30 669 C 68.5105 -6.84459 2.21152 0
M  V30 670 C 70.5365 -5.74235 1.41448 0
M  V30 671 C 69.8985 -6.67634 2.24598 0
M  V30 672 H 65.9975 -0.755418 -0.202158 0
M  V30 673 H 68.5815 -1.94378 0.111923 0
M  V30 674 H 66.7525 -3.33635 -1.98852 0
M  V30 675 H 68.4845 -3.56988 -1.90635 0
M  V30 676 H 65.2395 -4.72923 -0.253178 0
M  V30 677 H 65.6635 -6.57674 1.60607 0
M  V30 678 H 70.3055 -4.22683 -0.0992798 0
M  V30 679 H 68.0235 -7.56151 2.85063 0
M  V30 680 H 71.6095 -5.63057 1.46484 0
M  V30 681 H 70.4895 -7.27817 2.9198 0
M  V30 682 N 67.9926 0.231505 -1.5589 0
M  V30 683 C 68.9026 1.308 -1.94752 0
M  V30 684 C 69.9186 1.51826 -0.849989 0
M  V30 685 O 71.0946 1.6515 -1.15271 0
M  V30 686 C 68.1596 2.63968 -2.24771 0
M  V30 687 C 67.2206 2.51331 -3.48039 0
M  V30 688 C 66.4536 3.78148 -3.76616 0
M  V30 689 O 66.6766 4.80722 -3.07022 0
M  V30 690 O 65.6106 3.75857 -4.70123 0
M  V30 691 H 69.4366 1.0083 -2.86474 0
M  V30 692 H 67.0216 0.433547 -1.42971 0
M  V30 693 H 68.9036 3.42633 -2.45318 0
M  V30 694 H 67.5786 2.9364 -1.36225 0
M  V30 695 H 66.4856 1.709 -3.32782 0
M  V30 696 H 67.8186 2.26601 -4.36936 0
M  V30 697 N 69.4707 1.49531 0.497807 0
M  V30 698 C 70.8867 1.36365 0.829266 0
M  V30 699 C 71.0867 0.399184 1.97506 0
M  V30 700 O 70.1427 -0.167977 2.51941 0
M  V30 701 C 71.4557 2.77153 1.16647 0
M  V30 702 C 73.0037 2.85877 1.27449 0
M  V30 703 C 73.4787 4.2744 1.64497 0
M  V30 704 N 74.9697 4.30265 1.7154 0
M  V30 705 C 75.7047 5.3677 2.01656 0
M  V30 706 N 75.2007 6.53516 2.29976 0
M  V30 707 N 76.9937 5.24189 2.02934 0
M  V30 708 H 69.1447 2.10831 -0.257703 0
M  V30 709 H 71.4077 0.946534 -0.0527091 0
M  V30 710 H 71.1137 3.49442 0.397872 0
M  V30 711 H 70.9877 3.12722 2.10915 0
M  V30 712 H 73.3747 2.13824 2.0338 0
M  V30 713 H 73.4557 2.53887 0.312244 0
M  V30 714 H 73.0997 5.00021 0.891151 0
M  V30 715 H 73.0297 4.56896 2.61827 0
M  V30 716 H 75.5207 3.4607 1.51802 0
M  V30 717 H 75.8337 7.30506 2.52153 0
M  V30 718 H 74.1787 6.56737 2.27425 0
M  V30 719 H 77.3697 4.31988 1.80289 0
M  V30 720 H 77.5427 6.07286 2.26071 0
M  V30 721 N 70.9488 -0.749086 1.3866 0
M  V30 722 C 72.1978 -1.50371 1.3443 0
M  V30 723 C 72.5108 -1.95503 -0.0616397 0
M  V30 724 O 73.7168 -2.70554 -0.226489 0
M  V30 725 C 72.1728 -2.71644 2.36088 0
M  V30 726 C 71.7808 -2.3352 3.82325 0
M  V30 727 C 73.5248 -3.49518 2.40909 0
M  V30 728 C 71.4318 -3.51431 4.75658 0
M  V30 729 H 70.3618 -0.564628 0.499712 0
M  V30 730 H 73.0128 -0.818449 1.64237 0
M  V30 731 H 71.3948 -3.42175 1.9933 0
M  V30 732 H 72.5688 -1.70627 4.28046 0
M  V30 733 H 70.8838 -1.6877 3.80665 0
M  V30 734 H 73.4808 -4.37197 3.07836 0
M  V30 735 H 73.8238 -3.90992 1.42937 0
M  V30 736 H 74.3568 -2.86005 2.76489 0
M  V30 737 H 71.0958 -3.15019 5.74842 0
M  V30 738 H 70.6158 -4.13352 4.34627 0
M  V30 739 H 72.2948 -4.17953 4.93887 0
M  V30 740 N 72.4269 -1.23603 -0.977757 0
M  V30 741 C 73.7039 -0.977897 -1.69401 0
M  V30 742 C 74.0839 0.502738 -2.05026 0
M  V30 743 O 73.4319 1.47459 -1.74551 0
M  V30 744 C 73.6419 -1.89077 -2.93345 0
M  V30 745 C 74.9899 -2.15579 -3.65802 0
M  V30 746 O 76.0139 -1.86648 -3.03383 0
M  V30 747 O 74.8729 -2.64658 -4.78141 0
M  V30 748 H 71.9669 -0.369025 -0.740101 0
M  V30 749 H 74.5129 -1.34657 -1.03274 0
M  V30 750 H 73.2849 -2.89158 -2.63634 0
M  V30 751 H 72.9079 -1.52463 -3.67207 0
M  V30 752 N 73.905 1.17692 -1.04816 0
M  V30 753 C 74.868 2.19787 -0.650117 0
M  V30 754 C 75.868 1.58044 0.296427 0
M  V30 755 O 77.058 1.74012 0.0808097 0
M  V30 756 C 74.19 3.40869 0.0456987 0
M  V30 757 H 75.383 2.56516 -1.5537 0
M  V30 758 H 72.936 1.31708 -0.841594 0
M  V30 759 H 73.671 3.09681 0.962726 0
M  V30 760 H 73.456 3.86928 -0.634727 0
M  V30 761 H 74.946 4.16445 0.310432 0
M  V30 762 N 75.3831 0.828654 1.34056 0
M  V30 763 C 76.3461 0.259927 2.27721 0
M  V30 764 C 77.3461 -0.565478 1.50529 0
M  V30 765 O 78.5361 -0.38075 1.69988 0
M  V30 766 C 75.6681 -0.634944 3.34935 0
M  V30 767 H 76.8611 1.0863 2.79534 0
M  V30 768 H 74.4141 0.600951 1.44285 0
M  V30 769 H 75.1491 -1.48416 2.88346 0
M  V30 770 H 74.9341 -0.0444999 3.92075 0
M  V30 771 H 76.4241 -1.02648 4.04788 0
M  V30 772 N 76.8612 -1.46375 0.584142 0
M  V30 773 C 78.2772 -1.57694 0.245929 0
M  V30 774 C 78.4772 -1.57903 -1.25175 0
M  V30 775 O 77.5332 -1.49676 -2.03355 0
M  V30 776 C 78.8462 -2.87028 0.896402 0
M  V30 777 C 80.3942 -3.00662 0.870127 0
M  V30 778 C 80.8692 -4.32734 1.50017 0
M  V30 779 N 82.3602 -4.39436 1.46458 0
M  V30 780 C 83.0952 -5.40248 1.92144 0
M  V30 781 N 82.5912 -6.47726 2.4581 0
M  V30 782 N 84.3842 -5.31459 1.83052 0
M  V30 783 H 76.5352 -1.44483 1.55687 0
M  V30 784 H 78.7982 -0.689291 0.650831 0
M  V30 785 H 78.5042 -2.9269 1.95002 0
M  V30 786 H 78.3782 -3.75014 0.405486 0
M  V30 787 H 80.7652 -2.94581 -0.174871 0
M  V30 788 H 80.8462 -2.14148 1.39908 0
M  V30 789 H 80.4902 -4.39573 2.54437 0
M  V30 790 H 80.4202 -5.18025 0.946432 0
M  V30 791 H 82.9112 -3.62367 1.07231 0
M  V30 792 H 83.2242 -7.20863 2.78525 0
M  V30 793 H 81.5692 -6.48542 2.49836 0
M  V30 794 H 84.7602 -4.46396 1.40883 0
M  V30 795 H 84.9332 -6.09881 2.18973 0
M  V30 796 N 78.3393 -0.321999 -1.54275 0
M  V30 797 C 79.2863 0.544664 -2.24281 0
M  V30 798 C 80.2563 1.1129 -1.23303 0
M  V30 799 O 81.4413 1.15354 -1.51981 0
M  V30 800 C 78.5813 1.70045 -3.00298 0
M  V30 801 C 77.6943 1.16159 -4.1609 0
M  V30 802 C 76.8293 2.28293 -4.79641 0
M  V30 803 C 75.8683 1.71648 -5.8754 0
M  V30 804 N 75.0053 2.77438 -6.44959 0
M  V30 805 H 79.8453 -0.0588907 -2.97942 0
M  V30 806 H 77.3823 -0.0408345 -1.47043 0
M  V30 807 H 79.3403 2.38054 -3.42616 0
M  V30 808 H 77.9703 2.27531 -2.28975 0
M  V30 809 H 77.0223 0.373092 -3.78566 0
M  V30 810 H 78.3343 0.707087 -4.93763 0
M  V30 811 H 77.4883 3.0421 -5.2492 0
M  V30 812 H 76.2273 2.77079 -4.01346 0
M  V30 813 H 75.2323 0.942282 -5.41665 0
M  V30 814 H 76.4573 1.23741 -6.67731 0
M  V30 815 H 74.4033 3.25519 -5.69538 0
M  V30 816 H 74.3203 2.36547 -7.1804 0
M  V30 817 H 75.5883 3.53189 -6.94894 0
M  V30 818 N 79.8174 1.5752 -0.0501392 0
M  V30 819 C 81.0454 1.96963 0.633492 0
M  V30 820 C 81.4604 0.927631 1.6444 0
M  V30 821 O 80.8174 -0.0882665 1.82286 0
M  V30 822 C 80.8684 3.36487 1.32132 0
M  V30 823 O 80.5894 4.36693 0.350894 0
M  V30 824 C 82.0904 3.90682 2.09481 0
M  V30 825 H 79.3104 0.648244 0.173266 0
M  V30 826 H 81.8544 2.0417 -0.116134 0
M  V30 827 H 80.0094 3.30434 2.02218 0
M  V30 828 H 80.4234 5.17702 0.841735 0
M  V30 829 H 81.8974 4.90591 2.5303 0
M  V30 830 H 82.3744 3.26053 2.94255 0
M  V30 831 H 82.9804 4.00069 1.44307 0
M  V30 832 N 81.2955 -0.223234 1.56011 0
M  V30 833 C 82.7065 -0.790368 1.69145 0
M  V30 834 C 83.0575 -1.85055 0.651845 0
M  V30 835 O 82.1825 -2.15498 -0.197359 0
M  V30 836 C 82.7775 -1.4404 3.06656 0
M  V30 837 C 81.3365 -1.95494 3.2165 0
M  V30 838 C 80.4835 -0.814506 2.65068 0
M  V30 839 H 83.4345 0.00139011 1.587 0
M  V30 840 H 83.4555 -2.30916 3.0242 0
M  V30 841 H 82.9675 -0.668543 3.82298 0
M  V30 842 H 81.0685 -2.75487 2.50874 0
M  V30 843 H 81.1815 -2.13607 4.28846 0
M  V30 844 H 79.5455 -1.22137 2.23505 0
M  V30 845 H 80.3285 -0.0553515 3.43255 0
M  V30 846 N 82.7736 -1.49793 -0.48987 0
M  V30 847 C 83.6836 -1.70036 -1.61632 0
M  V30 848 C 84.6996 -0.583102 -1.63939 0
M  V30 849 O 85.8756 -0.859169 -1.82154 0
M  V30 850 C 82.9406 -1.77277 -2.97949 0
M  V30 851 C 82.0016 -3.00918 -3.06181 0
M  V30 852 C 81.2346 -3.07804 -4.35996 0
M  V30 853 O 81.4576 -2.21982 -5.25433 0
M  V30 854 O 80.3916 -4.00369 -4.49431 0
M  V30 855 H 84.2176 -2.65486 -1.47482 0
M  V30 856 H 81.8026 -1.33666 -0.667362 0
M  V30 857 H 83.6846 -1.84329 -3.78947 0
M  V30 858 H 82.3596 -0.850076 -3.12339 0
M  V30 859 H 81.2666 -2.99377 -2.2433 0
M  V30 860 H 82.5996 -3.92704 -2.96723 0
M  V30 861 N 84.2517 0.741722 -1.39055 0
M  V30 862 C 85.4997 1.49818 -1.35643 0
M  V30 863 C 85.8207 1.94938 0.0491642 0
M  V30 864 O 85.0907 1.68505 0.999141 0
M  V30 865 H 83.6707 0.555755 -0.499144 0
M  V30 866 H 86.3327 0.880957 -1.73854 0
M  V30 867 H 85.4287 2.38348 -2.01486 0
M  V30 868 N 85.7298 1.2412 0.971189 0
M  V30 869 C 86.9758 1.09048 1.71698 0
M  V30 870 C 87.3308 -0.367442 1.88859 0
M  V30 871 O 86.6238 -1.26792 1.43646 0
M  V30 872 C 86.8178 1.75983 3.11071 0
M  V30 873 C 86.6468 3.28133 3.07504 0
M  V30 874 C 85.4168 3.97331 3.1218 0
M  V30 875 C 87.6148 4.24773 2.89952 0
M  V30 876 N 85.5968 5.3639 2.98596 0
M  V30 877 C 86.9678 5.50806 2.84627 0
M  V30 878 C 89.0228 4.15392 2.74506 0
M  V30 879 C 87.7258 6.68533 2.65437 0
M  V30 880 C 89.7518 5.32793 2.56682 0
M  V30 881 C 89.1138 6.57756 2.52063 0
M  V30 882 H 85.2128 0.453632 0.636979 0
M  V30 883 H 87.7968 1.56983 1.15171 0
M  V30 884 H 85.9678 1.30566 3.65796 0
M  V30 885 H 87.6998 1.53803 3.74335 0
M  V30 886 H 84.4548 3.48473 3.20724 0
M  V30 887 H 84.8788 6.09321 2.95054 0
M  V30 888 H 89.5208 3.19543 2.76861 0
M  V30 889 H 87.2388 7.64509 2.61825 0
M  V30 890 H 90.8248 5.27383 2.4568 0
M  V30 891 H 89.7048 7.4707 2.38446 0
M  V30 892 N 87.2079 -1.17134 1.05439 0
M  V30 893 C 88.4849 -1.83411 0.679699 0
M  V30 894 C 88.8649 -1.9368 -0.839726 0
M  V30 895 O 88.2129 -1.47325 -1.74664 0
M  V30 896 C 88.4229 -3.20918 1.37159 0
M  V30 897 C 89.7709 -3.96796 1.51123 0
M  V30 898 O 90.7949 -3.30406 1.3308 0
M  V30 899 O 89.6539 -5.15778 1.80651 0
M  V30 900 H 86.7479 -0.79154 0.239569 0
M  V30 901 H 89.2939 -1.24411 1.15413 0
M  V30 902 H 88.0659 -3.08428 2.40807 0
M  V30 903 H 87.6889 -3.87587 0.886674 0
M  V30 904 N 88.686 -0.835752 -1.33615 0
M  V30 905 C 89.619 -0.211815 -2.27215 0
M  V30 906 C 90.597 0.639249 -1.49507 0
M  V30 907 O 91.781 0.600193 -1.78689 0
M  V30 908 C 88.908 0.702893 -3.31326 0
M  V30 909 C 87.954 -0.0723049 -4.26439 0
M  V30 910 S 88.787 -1.42811 -5.16106 0
M  V30 911 C 89.943 -0.518613 -6.23748 0
M  V30 912 H 90.176 -1.00533 -2.79786 0
M  V30 913 H 87.709 -0.632336 -1.40858 0
M  V30 914 H 89.667 1.22505 -3.91794 0
M  V30 915 H 88.328 1.47004 -2.77576 0
M  V30 916 H 87.521 0.62359 -5.00127 0
M  V30 917 H 87.123 -0.525424 -3.70291 0
M  V30 918 H 89.415 0.284778 -6.76901 0
M  V30 919 H 90.358 -1.22556 -6.97413 0
M  V30 920 H 90.766 -0.101344 -5.64409 0
M  V30 921 N 90.1641 1.46063 -0.591896 0
M  V30 922 C 91.3921 2.06717 -0.0868936 0
M  V30 923 C 91.8071 1.43916 1.22203 0
M  V30 924 O 91.1641 0.547698 1.74088 0
M  V30 925 C 91.2151 3.6142 0.0758725 0
M  V30 926 O 90.9361 4.21874 -1.18126 0
M  V30 927 C 92.4371 4.39025 0.61416 0
M  V30 928 H 89.6571 0.668162 -0.0616518 0
M  V30 929 H 92.2011 1.8755 -0.815175 0
M  V30 930 H 90.3561 3.79983 0.754413 0
M  V30 931 H 90.7701 5.14861 -1.00092 0
M  V30 932 H 92.2441 5.4783 0.677193 0
M  V30 933 H 92.7211 4.07708 1.63312 0
M  V30 934 H 93.3271 4.2529 -0.0298142 0
M  V30 935 N 91.6422 0.330177 1.54103 0
M  V30 936 C 92.8882 -0.270806 2.00984 0
M  V30 937 C 93.2212 -1.51265 1.21789 0
M  V30 938 O 92.4962 -1.92142 0.301927 0
M  V30 939 C 92.7792 -0.598339 3.55094 0
M  V30 940 C 92.6322 0.654674 4.4501 0
M  V30 941 C 93.9512 -1.41334 4.16789 0
M  V30 942 H 91.0702 -0.0969531 0.730595 0
M  V30 943 H 93.7122 0.448066 1.84641 0
M  V30 944 H 91.8622 -1.21078 3.69151 0
M  V30 945 H 93.5342 1.29285 4.42813 0
M  V30 946 H 91.7772 1.28224 4.14416 0
M  V30 947 H 92.4482 0.380944 5.50684 0
M  V30 948 H 94.9242 -0.895597 4.06347 0
M  V30 949 H 93.8002 -1.61127 5.24718 0
M  V30 950 H 94.0612 -2.41146 3.70541 0
M  V30 951 N 93.1203 -1.57491 0.0584922 0
M  V30 952 C 94.3483 -1.97296 -0.623037 0
M  V30 953 C 94.7633 -0.936338 -1.63946 0
M  V30 954 O 94.1203 0.0785981 -1.82331 0
M  V30 955 C 94.1713 -3.37183 -1.30345 0
M  V30 956 O 93.8923 -4.36872 -0.32773 0
M  V30 957 C 95.3933 -3.91788 -2.07406 0
M  V30 958 H 92.6133 -0.649153 -0.169826 0
M  V30 959 H 95.1573 -2.04106 0.12696 0
M  V30 960 H 93.3123 -3.31502 -2.00463 0
M  V30 961 H 93.7263 -5.18141 -0.814269 0
M  V30 962 H 95.2003 -4.91926 -2.50425 0
M  V30 963 H 95.6773 -3.27609 -2.92521 0
M  V30 964 H 96.2833 -4.00829 -1.42184 0
M  V30 965 N 94.5984 0.214957 -1.56127 0
M  V30 966 C 96.0144 0.564948 -1.49267 0
M  V30 967 C 96.2144 1.86827 -0.754838 0
M  V30 968 O 95.2704 2.50745 -0.297198 0
M  V30 969 C 96.5834 0.638071 -2.93852 0
M  V30 970 C 98.1314 0.728253 -3.0441 0
M  V30 971 C 98.6064 0.832663 -4.50367 0
M  V30 972 N 100.097 0.896712 -4.54437 0
M  V30 973 C 100.832 0.997324 -5.6466 0
M  V30 974 N 100.328 1.06147 -6.8462 0
M  V30 975 N 102.121 1.03297 -5.52527 0
M  V30 976 H 94.2724 -0.640211 -2.02522 0
M  V30 977 H 96.5354 -0.225507 -0.920788 0
M  V30 978 H 96.2414 -0.250126 -3.50809 0
M  V30 979 H 96.1154 1.49947 -3.46115 0
M  V30 980 H 98.5024 1.60689 -2.47514 0
M  V30 981 H 98.5834 -0.158952 -2.55306 0
M  V30 982 H 98.2274 -0.0415417 -5.07883 0
M  V30 983 H 98.1574 1.73538 -4.97184 0
M  V30 984 H 100.648 0.857188 -3.6805 0
M  V30 985 H 100.961 1.1382 -7.64372 0
M  V30 986 H 99.3064 1.03049 -6.87318 0
M  V30 987 H 102.497 0.979558 -4.57736 0
M  V30 988 H 102.67 1.10793 -6.38458 0
M  V30 989 N 96.0765 1.50051 0.48192 0
M  V30 990 C 97.0095 1.62749 1.59963 0
M  V30 991 C 97.9875 0.475903 1.5548 0
M  V30 992 O 99.1715 0.693986 1.7526 0
M  V30 993 C 96.2985 1.60008 2.98522 0
M  V30 994 C 95.3445 2.80596 3.21198 0
M  V30 995 S 96.1775 4.42038 3.02262 0
M  V30 996 C 97.3335 4.41973 4.43182 0
M  V30 997 H 97.5665 2.57296 1.4895 0
M  V30 998 H 95.0995 1.39179 0.668477 0
M  V30 999 H 97.0575 1.59112 3.78409 0
M  V30 1000 H 95.7185 0.667153 3.06933 0
M  V30 1001 H 94.9115 2.74952 4.22395 0
M  V30 1002 H 94.5135 2.79003 2.49065 0
M  V30 1003 H 96.8055 4.14868 5.35622 0
M  V30 1004 H 97.7485 5.43512 4.53873 0
M  V30 1005 H 98.1565 3.71812 4.24755 0
M  V30 1006 N 97.5546 -0.734337 1.39446 0
M  V30 1007 C 98.4876 -1.85715 1.32609 0
M  V30 1008 C 99.4656 -1.6137 0.199636 0
M  V30 1009 O 100.65 -1.84626 0.380195 0
M  V30 1010 C 97.7766 -3.21709 1.05929 0
M  V30 1011 C 96.8226 -3.64913 2.20773 0
M  V30 1012 S 97.6556 -3.74203 3.83056 0
M  V30 1013 C 98.8116 -5.12986 3.58603 0
M  V30 1014 H 99.0446 -1.91232 2.27635 0
M  V30 1015 H 96.5776 -0.899263 1.25509 0
M  V30 1016 H 98.5356 -4.00236 0.912203 0
M  V30 1017 H 97.1966 -3.13848 0.125883 0
M  V30 1018 H 96.3896 -4.63606 1.97699 0
M  V30 1019 H 95.9916 -2.93593 2.31688 0
M  V30 1020 H 98.2836 -5.99339 3.15909 0
M  V30 1021 H 99.2266 -5.41088 4.5676 0
M  V30 1022 H 99.6346 -4.82694 2.9269 0
M  V30 1023 N 99.0327 -1.24633 -0.964593 0
M  V30 1024 C 100.449 -1.01239 -1.2338 0
M  V30 1025 C 100.649 0.2769 -1.99588 0
M  V30 1026 O 99.7047 0.992241 -2.32187 0
M  V30 1027 C 101.018 -2.22937 -2.01791 0
M  V30 1028 C 102.566 -2.27594 -2.14872 0
M  V30 1029 C 103.041 -3.48921 -2.96678 0
M  V30 1030 N 104.532 -3.49257 -3.04259 0
M  V30 1031 C 105.267 -4.39795 -3.67924 0
M  V30 1032 N 104.763 -5.40591 -4.33281 0
M  V30 1033 N 106.556 -4.275 -3.64966 0
M  V30 1034 H 98.7067 -2.0748 -0.454502 0
M  V30 1035 H 100.97 -0.910647 -0.26349 0
M  V30 1036 H 100.676 -3.16587 -1.53184 0
M  V30 1037 H 100.55 -2.25306 -3.02518 0
M  V30 1038 H 102.937 -1.34473 -2.6268 0
M  V30 1039 H 103.018 -2.2925 -1.13482 0
M  V30 1040 H 102.662 -4.42359 -2.49562 0
M  V30 1041 H 102.592 -3.4451 -3.98272 0
M  V30 1042 H 105.083 -2.76337 -2.57771 0
M  V30 1043 H 105.396 -6.05904 -4.79687 0
M  V30 1044 H 103.741 -5.44475 -4.3194 0
M  V30 1045 H 106.932 -3.47987 -3.13086 0
M  V30 1046 H 107.105 -4.98258 -4.14298 0
M  V30 1047 N 100.511 1.16574 -1.06058 0
M  V30 1048 C 101.459 2.22941 -0.663343 0
M  V30 1049 C 102.453 1.66358 0.319593 0
M  V30 1050 O 103.659 1.7905 0.184713 0
M  V30 1051 H 100.034 0.725907 -0.196376 0
M  V30 1052 H 102.005 2.53736 -1.57037 0
M  V30 1053 C 100.754 3.47642 -0.0632808 0
M  V30 1054 H 100.077 3.91493 -0.810733 0
M  V30 1055 H 101.517 4.2363 0.177177 0
M  V30 1056 C 99.9758 3.1509 1.19248 0
M  V30 1057 O 100.506 3.30673 2.28075 0
M  V30 1058 N 98.7118 2.6924 1.09353 0
M  V30 1059 H 98.2588 2.5676 0.207912 0
M  V30 1060 H 98.2168 2.47833 1.93458 0
M  V30 1061 N 101.989 0.842826 1.3317 0
M  V30 1062 C 102.939 0.250877 2.26616 0
M  V30 1063 C 103.923 -0.596427 1.49437 0
M  V30 1064 O 105.115 -0.447747 1.71243 0
M  V30 1065 C 102.244 -0.569779 3.38539 0
M  V30 1066 C 101.33 0.289254 4.23112 0
M  V30 1067 N 101.721 1.36987 4.86897 0
M  V30 1068 C 100.019 0.0769631 4.45934 0
M  V30 1069 C 100.72 1.89737 5.49886 0
M  V30 1070 N 99.6959 1.19827 5.30229 0
M  V30 1071 H 103.498 1.07718 2.73448 0
M  V30 1072 H 101.012 0.687693 1.47121 0
M  V30 1073 H 103.009 -1.01018 4.04476 0
M  V30 1074 H 101.669 -1.39401 2.93253 0
M  V30 1075 H 102.68 1.75277 4.87338 0
M  V30 1076 H 99.3569 -0.713507 4.11358 0
M  V30 1077 H 100.747 2.80253 6.10662 0
M  V30 1078 N 103.467 -1.45747 0.599634 0
M  V30 1079 C 104.715 -2.01893 0.0915472 0
M  V30 1080 C 105.036 -1.47155 -1.27946 0
M  V30 1081 O 104.306 -0.66273 -1.84349 0
M  V30 1082 H 102.886 -0.746363 0.0308524 0
M  V30 1083 H 105.548 -1.78645 0.779237 0
M  V30 1084 H 104.644 -3.1208 0.0353086 0
M  V30 1085 N 104.945 -0.338344 -1.53925 0
M  V30 1086 C 106.191 0.260143 -2.01125 0
M  V30 1087 C 106.524 1.50617 -1.22589 0
M  V30 1088 O 105.799 1.91979 -0.312113 0
M  V30 1089 C 106.082 0.579499 -3.55407 0
M  V30 1090 C 105.935 -0.678264 -4.44657 0
M  V30 1091 C 107.254 1.39122 -4.17532 0
M  V30 1092 H 104.373 0.0930772 -0.731099 0
M  V30 1093 H 107.015 -0.457852 -1.84401 0
M  V30 1094 H 105.165 1.19118 -3.69788 0
M  V30 1095 H 106.837 -1.31631 -4.42121 0
M  V30 1096 H 105.08 -1.3042 -4.13731 0
M  V30 1097 H 105.751 -0.410143 -5.50474 0
M  V30 1098 H 108.227 0.874035 -4.06817 0
M  V30 1099 H 107.103 1.58342 -5.25565 0
M  V30 1100 H 107.364 2.39178 -3.71815 0
M  V30 1101 N 106.423 1.57458 -0.0668435 0
M  V30 1102 C 107.386 2.11323 0.887422 0
M  V30 1103 C 108.386 1.03618 1.22964 0
M  V30 1104 O 109.576 1.29626 1.16373 0
M  V30 1105 C 106.708 2.61048 2.19242 0
M  V30 1106 H 107.901 2.96942 0.420194 0
M  V30 1107 H 105.454 1.55239 0.181793 0
M  V30 1108 H 106.189 1.78868 2.70512 0
M  V30 1109 H 105.974 3.39769 1.95702 0
M  V30 1110 H 107.464 3.02814 2.87565 0
M  V30 1111 N 107.901 -0.206675 1.56239 0
M  V30 1112 C 108.831 -1.25909 1.96645 0
M  V30 1113 C 109.812 -1.48097 0.836734 0
M  V30 1114 O 110.997 -1.6003 1.10019 0
M  V30 1115 C 108.127 -2.6058 2.29599 0
M  V30 1116 C 107.081 -2.53024 3.452 0
M  V30 1117 C 106.407 -3.91861 3.63798 0
M  V30 1118 C 107.707 -2.06524 4.79734 0
M  V30 1119 H 109.401 -0.923369 2.84806 0
M  V30 1120 H 106.947 -0.442735 1.37025 0
M  V30 1121 H 108.9 -3.34375 2.56459 0
M  V30 1122 H 107.624 -2.95869 1.38307 0
M  V30 1123 H 106.283 -1.81684 3.18412 0
M  V30 1124 H 105.931 -4.24483 2.69857 0
M  V30 1125 H 105.631 -3.87683 4.4156 0
M  V30 1126 H 107.155 -4.67296 3.93022 0
M  V30 1127 H 108.569 -2.70072 5.05702 0
M  V30 1128 H 106.966 -2.13374 5.60885 0
M  V30 1129 H 108.036 -1.01802 4.74093 0
M  V30 1130 N 109.379 -1.50304 -0.473955 0
M  V30 1131 C 110.289 -1.7174 -1.5982 0
M  V30 1132 C 111.305 -0.600457 -1.63311 0
M  V30 1133 O 112.481 -0.878441 -1.81233 0
M  V30 1134 C 109.546 -1.80427 -2.96052 0
M  V30 1135 C 108.607 -3.04148 -3.02972 0
M  V30 1136 C 107.84 -3.12411 -4.32706 0
M  V30 1137 O 108.063 -2.27542 -5.23049 0
M  V30 1138 O 106.997 -4.05113 -4.45159 0
M  V30 1139 H 110.823 -2.67035 -1.44657 0
M  V30 1140 H 108.408 -1.34366 -0.653148 0
M  V30 1141 H 110.29 -1.88338 -3.7697 0
M  V30 1142 H 108.965 -0.883156 -3.11419 0
M  V30 1143 H 107.872 -3.0174 -2.21142 0
M  V30 1144 H 109.205 -3.95829 -2.92541 0
M  V30 1145 N 110.857 0.726932 -1.39834 0
M  V30 1146 C 112.268 1.30558 -1.3346 0
M  V30 1147 C 112.619 1.962 -0.00273003 0
M  V30 1148 O 111.744 1.96826 0.899371 0
M  V30 1149 C 112.339 2.37404 -2.41713 0
M  V30 1150 C 110.898 2.90921 -2.38835 0
M  V30 1151 C 110.045 1.64578 -2.2318 0
M  V30 1152 H 112.996 0.523862 -1.49804 0
M  V30 1153 H 113.017 3.17984 -2.08966 0
M  V30 1154 H 112.529 1.89599 -3.38635 0
M  V30 1155 H 110.63 3.42985 -1.45575 0
M  V30 1156 H 110.743 3.43487 -3.33997 0
M  V30 1157 H 109.107 1.89219 -1.70494 0
M  V30 1158 H 109.89 1.18814 -3.22084 0
M  V30 1159 N 112.336 1.25143 0.95797 0
M  V30 1160 C 113.246 1.06968 2.08794 0
M  V30 1161 C 114.262 0.00773911 1.73998 0
M  V30 1162 O 115.438 0.207972 2.00323 0
M  V30 1163 C 112.503 0.68691 3.39827 0
M  V30 1164 C 111.564 1.82641 3.88511 0
M  V30 1165 C 110.797 1.46181 5.1329 0
M  V30 1166 O 111.02 0.355971 5.69288 0
M  V30 1167 O 109.954 2.29085 5.566 0
M  V30 1168 H 113.78 2.01723 2.27027 0
M  V30 1169 H 111.365 1.04051 1.07209 0
M  V30 1170 H 113.247 0.485417 4.18595 0
M  V30 1171 H 111.922 -0.231417 3.22872 0
M  V30 1172 H 110.829 2.08274 3.10762 0
M  V30 1173 H 112.162 2.72386 4.09959 0
M  V30 1174 N 113.814 -1.1601 1.06675 0
M  V30 1175 C 114.724 -2.24156 0.692179 0
M  V30 1176 C 115.74 -1.71507 -0.293513 0
M  V30 1177 O 116.916 -2.009 -0.141861 0
M  V30 1178 C 113.981 -3.46587 0.0884131 0
M  V30 1179 C 113.042 -4.14257 1.12646 0
M  V30 1180 C 112.275 -5.30844 0.551416 0
M  V30 1181 O 112.498 -5.66858 -0.634656 0
M  V30 1182 O 111.432 -5.87848 1.29298 0
M  V30 1183 H 115.258 -2.58513 1.59388 0
M  V30 1184 H 112.843 -1.23599 0.83926 0
M  V30 1185 H 114.725 -4.20679 -0.246361 0
M  V30 1186 H 113.4 -3.13994 -0.786712 0
M  V30 1187 H 112.307 -3.42118 1.51348 0
M  V30 1188 H 113.64 -4.50914 1.97325 0
M  V30 1189 N 115.292 -0.849877 -1.32721 0
M  V30 1190 C 116.708 -0.539102 -1.50219 0
M  V30 1191 C 116.908 0.931271 -1.78689 0
M  V30 1192 O 115.964 1.71455 -1.85363 0
M  V30 1193 C 117.277 -1.42196 -2.64954 0
M  V30 1194 C 118.825 -1.42189 -2.78839 0
M  V30 1195 C 119.3 -2.28985 -3.96648 0
M  V30 1196 N 120.791 -2.26754 -4.03902 0
M  V30 1197 C 121.526 -2.90644 -4.94281 0
M  V30 1198 N 121.022 -3.63629 -5.897 0
M  V30 1199 N 122.815 -2.80057 -4.87365 0
M  V30 1200 H 114.966 -1.80156 -1.12506 0
M  V30 1201 H 117.229 -0.769217 -0.554085 0
M  V30 1202 H 116.935 -2.46733 -2.50631 0
M  V30 1203 H 116.809 -1.10591 -3.60624 0
M  V30 1204 H 119.196 -0.38419 -2.92588 0
M  V30 1205 H 119.277 -1.77807 -1.83898 0
M  V30 1206 H 118.921 -3.32819 -3.83658 0
M  V30 1207 H 118.851 -1.90702 -4.90857 0
M  V30 1208 H 121.342 -1.73688 -3.3562 0
M  V30 1209 H 121.655 -4.09558 -6.55349 0
M  V30 1210 H 120 -3.67737 -5.89741 0
M  V30 1211 H 123.191 -2.22593 -4.11789 0
M  V30 1212 H 123.364 -3.30132 -5.57599 0
M  V30 1213 N 116.77 1.45427 -0.607355 0
M  V30 1214 C 117.733 2.28974 0.101693 0
M  V30 1215 C 118.733 1.39754 0.795329 0
M  V30 1216 O 119.923 1.61878 0.643527 0
M  V30 1217 C 117.055 3.20768 1.15414 0
M  V30 1218 H 118.248 2.93147 -0.632844 0
M  V30 1219 H 115.801 1.51945 -0.366391 0
M  V30 1220 H 116.536 2.61395 1.91945 0
M  V30 1221 H 116.321 3.86489 0.66098 0
M  V30 1222 H 117.811 3.83589 1.65073 0
M  V30 1223 N 118.248 0.346503 1.53744 0
M  V30 1224 C 119.211 -0.496439 2.23759 0
M  V30 1225 C 120.211 -1.0252 1.2388 0
M  V30 1226 O 121.401 -0.913974 1.48297 0
M  V30 1227 C 118.533 -1.69187 2.95954 0
M  V30 1228 H 119.726 0.115952 2.99676 0
M  V30 1229 H 117.279 0.0978939 1.55993 0
M  V30 1230 H 118.014 -2.34288 2.24231 0
M  V30 1231 H 117.799 -1.31989 3.69217 0
M  V30 1232 H 119.289 -2.28969 3.49232 0
M  V30 1233 N 119.726 -1.57421 0.075193 0
M  V30 1234 C 120.975 -1.92794 -0.592731 0
M  V30 1235 C 121.288 -0.957478 -1.70563 0
M  V30 1236 O 122.494 -1.20417 -2.43335 0
M  V30 1237 C 120.95 -3.42495 -1.10569 0
M  V30 1238 C 120.558 -4.47994 -0.0236121 0
M  V30 1239 C 122.302 -3.86864 -1.74748 0
M  V30 1240 C 120.209 -5.88829 -0.550803 0
M  V30 1241 H 119.139 -0.719591 -0.225177 0
M  V30 1242 H 121.79 -1.82902 0.147978 0
M  V30 1243 H 120.172 -3.47471 -1.89947 0
M  V30 1244 H 121.346 -4.54637 0.751099 0
M  V30 1245 H 119.661 -4.13113 0.522159 0
M  V30 1246 H 122.258 -4.8947 -2.15229 0
M  V30 1247 H 122.601 -3.24417 -2.60882 0
M  V30 1248 H 123.134 -3.84504 -1.01986 0
M  V30 1249 H 119.873 -6.54929 0.273457 0
M  V30 1250 H 119.393 -5.85698 -1.29296 0
M  V30 1251 H 121.072 -6.38811 -1.02613 0
M  V30 1252 N 121.204 0.198386 -1.56346 0
M  V30 1253 C 122.45 0.920648 -1.80698 0
M  V30 1254 C 122.783 1.83045 -0.648697 0
M  V30 1255 O 122.058 1.91308 0.350925 0
M  V30 1256 C 122.341 1.73971 -3.15287 0
M  V30 1257 C 122.194 0.85485 -4.41602 0
M  V30 1258 C 123.513 2.71296 -3.46535 0
M  V30 1259 H 120.632 0.333261 -0.657348 0
M  V30 1260 H 123.274 0.188198 -1.89066 0
M  V30 1261 H 121.424 2.36416 -3.08285 0
M  V30 1262 H 123.096 0.245362 -4.60647 0
M  V30 1263 H 121.339 0.161398 -4.335 0
M  V30 1264 H 122.01 1.46286 -5.32264 0
M  V30 1265 H 124.486 2.18983 -3.53816 0
M  V30 1266 H 123.362 3.2569 -4.41834 0
M  V30 1267 H 123.623 3.5018 -2.69864 0
M  V30 1268 N 122.682 1.50554 0.465978 0
M  V30 1269 C 124.098 1.38093 0.800154 0
M  V30 1270 C 124.298 0.440988 1.96615 0
M  V30 1271 O 123.354 -0.114499 2.5224 0
M  V30 1272 C 124.667 2.79565 1.10742 0
M  V30 1273 C 126.215 2.88516 1.21357 0
M  V30 1274 C 126.69 4.30833 1.55393 0
M  V30 1275 N 128.181 4.33807 1.62375 0
M  V30 1276 C 128.916 5.40927 1.90225 0
M  V30 1277 N 128.412 6.58247 2.16062 0
M  V30 1278 N 130.205 5.28376 1.9177 0
M  V30 1279 H 122.356 2.10237 -0.302366 0
M  V30 1280 H 124.619 0.945203 -0.0727746 0
M  V30 1281 H 124.325 3.50208 0.323661 0
M  V30 1282 H 124.199 3.17125 2.04234 0
M  V30 1283 H 126.586 2.1809 1.98799 0
M  V30 1284 H 126.667 2.54492 0.258321 0
M  V30 1285 H 126.311 5.01799 0.784889 0
M  V30 1286 H 126.241 4.62347 2.52076 0
M  V30 1287 H 128.732 3.49212 1.44427 0
M  V30 1288 H 129.045 7.3569 2.36601 0
M  V30 1289 H 127.39 6.61413 2.13444 0
M  V30 1290 H 130.581 4.35715 1.71085 0
M  V30 1291 H 130.754 6.11944 2.13139 0
M  V30 1292 N 124.16 -0.719506 1.40217 0
M  V30 1293 C 125.11 -1.8251 1.36653 0
M  V30 1294 C 126.094 -1.59028 0.244732 0
M  V30 1295 O 127.286 -1.70268 0.483524 0
M  V30 1296 C 124.415 -3.20599 1.22763 0
M  V30 1297 C 123.501 -3.49858 2.39708 0
M  V30 1298 N 123.892 -3.49957 3.6519 0
M  V30 1299 C 122.19 -3.80297 2.33002 0
M  V30 1300 C 122.891 -3.77449 4.42614 0
M  V30 1301 N 121.867 -3.96002 3.72402 0
M  V30 1302 H 125.669 -1.80914 2.31619 0
M  V30 1303 H 123.183 -0.918455 1.33933 0
M  V30 1304 H 125.18 -3.99766 1.18292 0
M  V30 1305 H 123.84 -3.23424 0.287614 0
M  V30 1306 H 124.851 -3.309 3.98404 0
M  V30 1307 H 121.528 -3.90635 1.47346 0
M  V30 1308 H 122.918 -3.83863 5.51451 0
M  V30 1309 N 125.638 -1.25649 -0.95132 0
M  V30 1310 C 126.568 -1.08808 -2.06599 0
M  V30 1311 C 127.549 0.00382547 -1.701 0
M  V30 1312 O 128.734 -0.166325 -1.93486 0
M  V30 1313 C 125.864 -0.709542 -3.39975 0
M  V30 1314 C 124.818 -1.75206 -3.90496 0
M  V30 1315 C 124.144 -1.22811 -5.20405 0
M  V30 1316 C 125.444 -3.15153 -4.16504 0
M  V30 1317 H 127.138 -2.02048 -2.20946 0
M  V30 1318 H 124.684 -0.972835 -1.06169 0
M  V30 1319 H 126.637 -0.578649 -4.17408 0
M  V30 1320 H 125.361 0.258556 -3.25575 0
M  V30 1321 H 124.02 -1.87145 -3.15234 0
M  V30 1322 H 123.668 -0.250145 -5.02378 0
M  V30 1323 H 123.368 -1.92492 -5.55176 0
M  V30 1324 H 124.892 -1.10968 -6.00432 0
M  V30 1325 H 126.306 -3.06349 -4.84586 0
M  V30 1326 H 124.703 -3.82333 -4.62538 0
M  V30 1327 H 125.773 -3.61966 -3.22658 0
M  V30 1328 N 127.117 1.15442 -1.07289 0
M  V30 1329 C 128.342 1.90638 -0.816828 0
M  V30 1330 C 128.767 1.77445 0.624083 0
M  V30 1331 O 128.125 1.10671 1.43602 0
M  V30 1332 C 128.173 3.39008 -1.22906 0
M  V30 1333 O 127.277 4.10701 -0.373975 0
M  V30 1334 H 126.618 0.593555 -0.297638 0
M  V30 1335 H 129.148 1.46198 -1.43134 0
M  V30 1336 H 129.158 3.89801 -1.20497 0
M  V30 1337 H 127.833 3.47929 -2.27856 0
M  V30 1338 H 126.41 3.70046 -0.460499 0
M  V30 1339 N 128.595 0.856903 1.32268 0
M  V30 1340 C 129.872 0.382583 1.91822 0
M  V30 1341 C 130.252 -1.13407 1.78051 0
M  V30 1342 O 129.6 -1.95673 1.18001 0
M  V30 1343 C 129.81 0.849446 3.38505 0
M  V30 1344 C 131.158 0.867936 4.15634 0
M  V30 1345 O 132.182 0.794232 3.47232 0
M  V30 1346 O 131.041 0.972286 5.37781 0
M  V30 1347 H 128.135 0.112014 0.819379 0
M  V30 1348 H 130.681 0.943952 1.41024 0
M  V30 1349 H 129.453 1.89267 3.42482 0
M  V30 1350 H 129.076 0.265652 3.96712 0
M  V30 1351 N 130.073 -1.45103 0.615059 0
M  V30 1352 C 131.301 -2.06553 0.11977 0
M  V30 1353 C 131.716 -1.45842 -1.19898 0
M  V30 1354 O 131.073 -0.575325 -1.73194 0
M  V30 1355 C 131.124 -3.61495 -0.018364 0
M  V30 1356 O 130.845 -4.19942 1.24822 0
M  V30 1357 C 132.346 -4.39947 -0.544237 0
M  V30 1358 H 129.566 -0.667096 0.0722739 0
M  V30 1359 H 132.11 -1.8623 0.84491 0
M  V30 1360 H 130.265 -3.81135 -0.693865 0
M  V30 1361 H 130.679 -5.13204 1.0827 0
M  V30 1362 H 132.153 -5.48838 -0.589953 0
M  V30 1363 H 132.63 -4.10255 -1.56805 0
M  V30 1364 H 133.236 -4.25188 0.0974703 0
M  V30 1365 N 131.551 -0.354651 -1.53558 0
M  V30 1366 C 132.967 -0.00315426 -1.596 0
M  V30 1367 C 133.167 1.47741 -1.37021 0
M  V30 1368 O 132.223 2.23759 -1.16996 0
M  V30 1369 C 133.536 -0.44929 -2.97325 0
M  V30 1370 C 135.084 -0.402578 -3.104 0
M  V30 1371 C 135.559 -0.824355 -4.5052 0
M  V30 1372 N 137.05 -0.778979 -4.56603 0
M  V30 1373 C 137.785 -1.07715 -5.63192 0
M  V30 1374 N 137.281 -1.44405 -6.77583 0
M  V30 1375 N 139.074 -1.00066 -5.53121 0
M  V30 1376 H 131.225 -1.31893 -1.66487 0
M  V30 1377 H 133.488 -0.538388 -0.780284 0
M  V30 1378 H 133.194 -1.48202 -3.1895 0
M  V30 1379 H 133.068 0.169772 -3.76818 0
M  V30 1380 H 135.455 0.621004 -2.88492 0
M  V30 1381 H 135.536 -1.05699 -2.32941 0
M  V30 1382 H 135.18 -1.846 -4.73165 0
M  V30 1383 H 135.11 -0.147304 -5.26394 0
M  V30 1384 H 137.601 -0.508528 -3.74463 0
M  V30 1385 H 137.914 -1.65612 -7.54846 0
M  V30 1386 H 136.259 -1.4826 -6.79002 0
M  V30 1387 H 139.45 -0.713293 -4.62633 0
M  V30 1388 H 139.623 -1.23638 -6.36096 0
M  V30 1389 N 133.029 1.57378 -0.0835403 0
M  V30 1390 C 134.277 1.93547 0.581718 0
M  V30 1391 C 134.598 0.96524 1.69435 0
M  V30 1392 O 133.868 0.0153369 1.95894 0
M  V30 1393 H 132.448 0.714521 0.217874 0
M  V30 1394 H 135.11 1.94366 -0.144158 0
M  V30 1395 H 134.206 2.95665 0.999423 0
M  V30 1396 N 134.507 -0.190092 1.56449 0
M  V30 1397 C 135.437 -1.23816 1.97969 0
M  V30 1398 C 136.418 -1.47201 0.852395 0
M  V30 1399 O 137.603 -1.58854 1.1171 0
M  V30 1400 C 134.733 -2.5813 2.3235 0
M  V30 1401 C 133.687 -2.49348 3.47864 0
M  V30 1402 C 133.013 -3.8798 3.67934 0
M  V30 1403 C 134.313 -2.01424 4.81898 0
M  V30 1404 H 136.007 -0.89311 2.85769 0
M  V30 1405 H 133.553 -0.428177 1.37487 0
M  V30 1406 H 135.506 -3.31637 2.59991 0
M  V30 1407 H 134.23 -2.94386 1.41438 0
M  V30 1408 H 132.889 -1.78297 3.20321 0
M  V30 1409 H 132.537 -4.21597 2.74344 0
M  V30 1410 H 132.237 -3.82978 4.45648 0
M  V30 1411 H 133.761 -4.63101 3.97957 0
M  V30 1412 H 135.175 -2.64693 5.08538 0
M  V30 1413 H 133.572 -2.07413 5.63116 0
M  V30 1414 H 134.642 -0.967677 4.75146 0
M  V30 1415 N 135.985 -1.50799 -0.457987 0
M  V30 1416 C 137.21 -1.66496 -1.23668 0
M  V30 1417 C 137.635 -0.353288 -1.84752 0
M  V30 1418 O 136.993 0.684346 -1.67888 0
M  V30 1419 C 137.041 -2.76763 -2.3116 0
M  V30 1420 O 136.145 -2.38928 -3.36136 0
M  V30 1421 H 135.486 -0.555828 -0.363252 0
M  V30 1422 H 138.016 -1.9725 -0.543474 0
M  V30 1423 H 138.026 -3.00232 -2.76269 0
M  V30 1424 H 136.701 -3.71954 -1.86073 0
M  V30 1425 H 135.278 -2.25953 -2.96647 0
M  V30 1426 N 137.463 0.71206 -1.40597 0
M  V30 1427 C 138.393 1.83889 -1.43899 0
M  V30 1428 C 139.374 1.67442 -0.299504 0
M  V30 1429 O 140.559 1.87421 -0.508624 0
M  V30 1430 C 137.689 3.21877 -1.30431 0
M  V30 1431 C 136.643 3.53002 -2.42019 0
M  V30 1432 C 135.969 4.90172 -2.13626 0
M  V30 1433 C 137.269 3.53643 -3.84362 0
M  V30 1434 H 138.963 1.81383 -2.38203 0
M  V30 1435 H 136.509 0.871237 -1.14654 0
M  V30 1436 H 138.462 4.00404 -1.31357 0
M  V30 1437 H 137.186 3.24968 -0.326049 0
M  V30 1438 H 135.845 2.76818 -2.40349 0
M  V30 1439 H 135.493 4.89869 -1.14182 0
M  V30 1440 H 135.193 5.11962 -2.88389 0
M  V30 1441 H 136.717 5.71028 -2.1624 0
M  V30 1442 H 138.131 4.22203 -3.87837 0
M  V30 1443 H 136.528 3.86961 -4.58673 0
M  V30 1444 H 137.598 2.52954 -4.13693 0
M  V30 1445 N 138.941 1.26152 0.944643 0
M  V30 1446 C 139.904 1.07474 2.0244 0
M  V30 1447 C 140.904 0.0242064 1.60782 0
M  V30 1448 O 142.094 0.267302 1.72137 0
M  V30 1449 C 139.226 0.633956 3.34953 0
M  V30 1450 H 140.419 2.03336 2.20442 0
M  V30 1451 H 137.972 1.087 1.12312 0
M  V30 1452 H 138.707 -0.326811 3.22649 0
M  V30 1453 H 138.492 1.39247 3.66542 0
M  V30 1454 H 139.982 0.52501 4.14287 0
M  V30 1455 N 140.419 -1.14872 1.07899 0
M  V30 1456 C 141.329 -2.2341 0.715915 0
M  V30 1457 C 142.345 -1.71808 -0.275306 0
M  V30 1458 O 143.521 -2.01039 -0.120545 0
M  V30 1459 C 140.586 -3.46474 0.125168 0
M  V30 1460 C 139.647 -4.13039 1.17034 0
M  V30 1461 C 138.88 -5.30229 0.607688 0
M  V30 1462 O 139.103 -5.675 -0.574497 0
M  V30 1463 O 138.037 -5.86444 1.35526 0
M  V30 1464 H 141.863 -2.56808 1.62121 0
M  V30 1465 H 139.448 -1.22702 0.852322 0
M  V30 1466 H 141.33 -4.20917 -0.201729 0
M  V30 1467 H 140.005 -3.14811 -0.753364 0
M  V30 1468 H 138.912 -3.40493 1.54968 0
M  V30 1469 H 140.245 -4.48796 2.02097 0
M  V30 1470 N 141.898 -0.863906 -1.31812 0
M  V30 1471 C 143.126 -0.486111 -2.01108 0
M  V30 1472 C 143.541 0.919755 -1.64882 0
M  V30 1473 O 142.898 1.60162 -0.874893 0
M  V30 1474 C 142.949 -0.626435 -3.56031 0
M  V30 1475 O 142.67 -1.97693 -3.90959 0
M  V30 1476 C 144.171 -0.248857 -4.42601 0
M  V30 1477 H 141.391 -0.190052 -0.643523 0
M  V30 1478 H 143.935 -1.1634 -1.68182 0
M  V30 1479 H 142.09 0.00322717 -3.874 0
M  V30 1480 H 142.504 -1.98034 -4.85678 0
M  V30 1481 H 143.978 -0.398016 -5.50563 0
M  V30 1482 H 144.455 0.811489 -4.31638 0
M  V30 1483 H 145.061 -0.853971 -4.16638 0
M  V30 1484 N 143.376 1.44774 -0.622745 0
M  V30 1485 C 144.286 2.34433 0.0886031 0
M  V30 1486 C 145.302 1.52131 0.844529 0
M  V30 1487 O 146.478 1.84886 0.798691 0
M  V30 1488 C 143.543 3.29986 1.0635 0
M  V30 1489 C 142.604 4.28195 0.307873 0
M  V30 1490 C 141.837 5.19183 1.23633 0
M  V30 1491 O 142.06 5.13918 2.47476 0
M  V30 1492 O 140.994 5.97515 0.725189 0
M  V30 1493 H 144.82 2.96693 -0.648599 0
M  V30 1494 H 142.405 1.44408 -0.382957 0
M  V30 1495 H 144.287 3.88825 1.6246 0
M  V30 1496 H 142.962 2.70269 1.78146 0
M  V30 1497 H 141.869 3.72927 -0.296064 0
M  V30 1498 H 143.202 4.90808 -0.3699 0
M  V30 1499 N 144.854 0.36279 1.53368 0
M  V30 1500 C 145.764 -0.492994 2.29362 0
M  V30 1501 C 146.78 -1.09507 1.35219 0
M  V30 1502 O 147.956 -1.10662 1.68273 0
M  V30 1503 C 145.021 -1.61855 3.066 0
M  V30 1504 C 144.082 -1.04429 4.16405 0
M  V30 1505 C 143.315 -2.11621 4.89951 0
M  V30 1506 O 143.538 -3.32684 4.63333 0
M  V30 1507 O 142.472 -1.74835 5.75948 0
M  V30 1508 H 146.298 0.125331 3.03441 0
M  V30 1509 H 143.883 0.127253 1.48857 0
M  V30 1510 H 145.765 -2.27302 3.54841 0
M  V30 1511 H 144.44 -2.22233 2.3536 0
M  V30 1512 H 143.347 -0.353819 3.72423 0
M  V30 1513 H 144.68 -0.485113 4.89804 0
M  V30 1514 N 146.332 -1.57332 0.0918853 0
M  V30 1515 C 147.748 -1.57389 -0.264766 0
M  V30 1516 C 147.948 -1.10281 -1.68643 0
M  V30 1517 O 147.004 -0.777801 -2.40222 0
M  V30 1518 C 148.317 -3.00648 -0.0561195 0
M  V30 1519 C 149.865 -3.12754 -0.124116 0
M  V30 1520 C 150.34 -4.57965 0.0564972 0
M  V30 1521 N 151.831 -4.632 0.00155611 0
M  V30 1522 C 152.566 -5.73281 0.116598 0
M  V30 1523 N 152.062 -6.92208 0.286294 0
M  V30 1524 N 153.855 -5.6207 0.0580973 0
M  V30 1525 H 146.006 -1.86262 1.02079 0
M  V30 1526 H 148.269 -0.859579 0.399786 0
M  V30 1527 H 147.975 -3.393 0.925669 0
M  V30 1528 H 147.849 -3.68623 -0.799823 0
M  V30 1529 H 150.236 -2.73976 -1.09641 0
M  V30 1530 H 150.317 -2.47377 0.651024 0
M  V30 1531 H 149.961 -4.97436 1.02564 0
M  V30 1532 H 149.891 -5.21399 -0.738297 0
M  V30 1533 H 152.382 -3.77686 -0.127192 0
M  V30 1534 H 152.695 -7.71934 0.365676 0
M  V30 1535 H 151.04 -6.94254 0.32192 0
M  V30 1536 H 154.231 -4.68043 -0.0733204 0
M  V30 1537 H 154.404 -6.47824 0.151203 0
M  V30 1538 N 147.81 0.181792 -1.56548 0
M  V30 1539 C 149.226 0.53316 -1.50431 0
M  V30 1540 C 149.426 1.85184 -0.794297 0
M  V30 1541 O 148.482 2.50058 -0.350318 0
M  V30 1542 C 149.795 0.575597 -2.9514 0
M  V30 1543 C 151.343 0.663519 -3.05886 0
M  V30 1544 C 151.818 0.736946 -4.52032 0
M  V30 1545 N 153.309 0.800118 -4.56237 0
M  V30 1546 C 154.044 0.877327 -5.66649 0
M  V30 1547 N 153.54 0.916016 -6.86718 0
M  V30 1548 N 155.333 0.915542 -5.54594 0
M  V30 1549 H 147.484 -0.683025 -2.01118 0
M  V30 1550 H 149.747 -0.244988 -0.915797 0
M  V30 1551 H 149.453 -0.324482 -3.502 0
M  V30 1552 H 149.327 1.42572 -3.49218 0
M  V30 1553 H 151.714 1.55403 -2.50867 0
M  V30 1554 H 151.795 -0.21307 -2.54911 0
M  V30 1555 H 151.439 -0.149262 -5.07681 0
M  V30 1556 H 151.369 1.62953 -5.00753 0
M  V30 1557 H 153.86 0.778926 -3.69785 0
M  V30 1558 H 154.173 0.975813 -7.66614 0
M  V30 1559 H 152.518 0.884469 -6.89349 0
M  V30 1560 H 155.709 0.882245 -4.59711 0
M  V30 1561 H 155.882 0.972253 -6.40665 0
M  V30 1562 N 149.288 1.51039 0.449983 0
M  V30 1563 C 150.518 1.66627 1.22143 0
M  V30 1564 C 150.926 0.357776 1.85786 0
M  V30 1565 O 150.269 -0.672424 1.70951 0
M  V30 1566 C 150.331 2.71562 2.35573 0
M  V30 1567 C 149.995 4.14526 1.92399 0
M  V30 1568 C 150.992 4.99717 1.43453 0
M  V30 1569 C 148.677 4.60559 2.00475 0
M  V30 1570 C 150.671 6.28998 1.03155 0
M  V30 1571 C 148.358 5.8984 1.59788 0
M  V30 1572 C 149.356 6.73886 1.11208 0
M  V30 1573 O 149.044 8.0075 0.710935 0
M  V30 1574 H 148.776 0.562635 0.374724 0
M  V30 1575 H 151.33 1.98146 0.541036 0
M  V30 1576 H 149.56 2.3533 3.06849 0
M  V30 1577 H 151.249 2.76156 2.97478 0
M  V30 1578 H 152.015 4.65361 1.36618 0
M  V30 1579 H 147.894 3.95273 2.37235 0
M  V30 1580 H 151.438 6.9455 0.651663 0
M  V30 1581 H 147.335 6.23713 1.66289 0
M  V30 1582 H 148.103 8.142 0.837913 0
M  V30 1583 N 150.766 -0.704594 1.40972 0
M  V30 1584 C 152.015 -1.46018 1.39146 0
M  V30 1585 C 152.328 -1.956 0.000589254 0
M  V30 1586 O 153.534 -2.71137 -0.1403 0
M  V30 1587 C 151.99 -2.63996 2.4461 0
M  V30 1588 C 151.598 -2.21238 3.89561 0
M  V30 1589 C 153.342 -3.41677 2.51907 0
M  V30 1590 C 151.249 -3.3612 4.86598 0
M  V30 1591 H 150.179 -0.548444 0.517422 0
M  V30 1592 H 152.83 -0.765784 1.66757 0
M  V30 1593 H 151.212 -3.3566 2.10115 0
M  V30 1594 H 152.386 -1.56923 4.33257 0
M  V30 1595 H 150.701 -1.56574 3.85841 0
M  V30 1596 H 153.298 -4.27182 3.2159 0
M  V30 1597 H 153.641 -3.86247 1.55303 0
M  V30 1598 H 154.174 -2.77064 2.85448 0
M  V30 1599 H 150.913 -2.96572 5.84573 0
M  V30 1600 H 150.433 -3.99315 4.47557 0
M  V30 1601 H 152.112 -4.02029 5.06934 0
M  V30 1602 N 152.244 -1.26651 -0.937939 0
M  V30 1603 C 153.174 -1.10993 -2.05433 0
M  V30 1604 C 154.155 -0.0142161 -1.70094 0
M  V30 1605 O 155.34 -0.186837 -1.93299 0
M  V30 1606 C 152.47 -0.745561 -3.39203 0
M  V30 1607 C 151.424 -1.79337 -3.88616 0
M  V30 1608 C 150.75 -1.28324 -5.19073 0
M  V30 1609 C 152.05 -3.19553 -4.13138 0
M  V30 1610 H 153.744 -2.0438 -2.1879 0
M  V30 1611 H 151.29 -0.984041 -1.05131 0
M  V30 1612 H 153.243 -0.622888 -4.16771 0
M  V30 1613 H 151.967 0.22401 -3.25831 0
M  V30 1614 H 150.626 -1.90477 -3.13231 0
M  V30 1615 H 150.274 -0.303414 -5.02084 0
M  V30 1616 H 149.974 -1.98369 -5.53103 0
M  V30 1617 H 151.498 -1.1733 -5.99221 0
M  V30 1618 H 152.912 -3.11471 -4.81309 0
M  V30 1619 H 151.309 -3.87218 -4.58457 0
M  V30 1620 H 152.379 -3.65368 -3.18801 0
M  V30 1621 N 153.722 1.14298 -1.08507 0
M  V30 1622 C 154.632 2.23027 -0.727753 0
M  V30 1623 C 155.648 1.71952 0.26619 0
M  V30 1624 O 156.824 2.011 0.109882 0
M  V30 1625 C 153.889 3.46403 -0.143541 0
M  V30 1626 C 152.95 4.12413 -1.19223 0
M  V30 1627 C 152.183 5.29899 -0.635798 0
M  V30 1628 O 152.406 5.67796 0.544393 0
M  V30 1629 O 151.34 5.85717 -1.38634 0
M  V30 1630 H 155.166 2.55945 -1.63481 0
M  V30 1631 H 152.751 1.22248 -0.858817 0
M  V30 1632 H 154.633 4.21018 0.179404 0
M  V30 1633 H 153.308 3.15206 0.736659 0
M  V30 1634 H 152.215 3.39667 -1.56772 0
M  V30 1635 H 153.548 4.47718 -2.04474 0
M  V30 1636 N 155.201 0.870884 1.31352 0
M  V30 1637 C 156.617 0.562932 1.49343 0
M  V30 1638 C 156.817 -0.902725 1.80148 0
M  V30 1639 O 155.873 -1.68484 1.88067 0
M  V30 1640 C 157.186 1.46393 2.62659 0
M  V30 1641 C 158.734 1.46607 2.76542 0
M  V30 1642 C 159.209 2.35266 3.92955 0
M  V30 1643 N 160.7 2.33151 4.00243 0
M  V30 1644 C 161.435 2.98471 4.89594 0
M  V30 1645 N 160.931 3.72964 5.8384 0
M  V30 1646 N 162.724 2.87775 4.82848 0
M  V30 1647 H 154.875 1.81923 1.09626 0
M  V30 1648 H 157.138 0.777934 0.541777 0
M  V30 1649 H 156.844 2.50689 2.46674 0
M  V30 1650 H 156.718 1.16314 3.58819 0
M  V30 1651 H 159.105 0.43069 2.9194 0
M  V30 1652 H 159.186 1.8071 1.81046 0
M  V30 1653 H 158.83 3.38881 3.78315 0
M  V30 1654 H 158.76 1.98487 4.87761 0
M  V30 1655 H 161.251 1.79006 3.32814 0
M  V30 1656 H 161.564 4.19932 6.4875 0
M  V30 1657 H 159.909 3.77073 5.83816 0
M  V30 1658 H 163.1 2.29116 4.08195 0
M  V30 1659 H 163.273 3.38961 5.52277 0
M  V30 1660 N 156.679 -1.44442 0.630414 0
M  V30 1661 C 157.589 -2.34476 -0.0761693 0
M  V30 1662 C 158.605 -1.52576 -0.836449 0
M  V30 1663 O 159.781 -1.85307 -0.788874 0
M  V30 1664 C 156.846 -3.30545 -1.04599 0
M  V30 1665 C 155.907 -4.28352 -0.28516 0
M  V30 1666 C 155.14 -5.19831 -1.20878 0
M  V30 1667 O 155.363 -5.15223 -2.44747 0
M  V30 1668 O 154.297 -5.97892 -0.693491 0
M  V30 1669 H 158.123 -2.96345 0.664324 0
M  V30 1670 H 155.708 -1.44203 0.39061 0
M  V30 1671 H 157.59 -3.89681 -1.60396 0
M  V30 1672 H 156.265 -2.7121 -1.76711 0
M  V30 1673 H 155.172 -3.72764 0.315837 0
M  V30 1674 H 156.505 -4.90605 0.395924 0
M  V30 1675 N 158.157 -0.370918 -1.53173 0
M  V30 1676 C 159.568 0.107139 -1.86392 0
M  V30 1677 C 159.919 1.47714 -1.29132 0
M  V30 1678 O 159.044 2.07464 -0.615439 0
M  V30 1679 C 159.639 0.201187 -3.38202 0
M  V30 1680 C 158.198 0.623507 -3.712 0
M  V30 1681 C 157.345 -0.225978 -2.76378 0
M  V30 1682 H 160.296 -0.58951 -1.47345 0
M  V30 1683 H 160.317 1.02377 -3.66468 0
M  V30 1684 H 159.829 -0.796058 -3.79848 0
M  V30 1685 H 157.93 1.62879 -3.35114 0
M  V30 1686 H 158.043 0.394414 -4.77474 0
M  V30 1687 H 156.407 0.305962 -2.52856 0
M  V30 1688 H 157.19 -1.22086 -3.20858 0
M  V30 1689 N 159.635 1.57281 -0.100228 0
M  V30 1690 C 160.881 1.94826 0.563101 0
M  V30 1691 C 161.214 0.982475 1.67514 0
M  V30 1692 O 160.489 0.0164069 1.94493 0
M  V30 1693 C 160.772 3.42453 1.11346 0
M  V30 1694 C 160.625 4.498 0.00612081 0
M  V30 1695 C 161.944 3.91506 2.01024 0
M  V30 1696 H 159.063 0.708428 0.203221 0
M  V30 1697 H 161.705 1.8922 -0.171979 0
M  V30 1698 H 159.855 3.47361 1.7399 0
M  V30 1699 H 161.527 4.57 -0.628357 0
M  V30 1700 H 159.77 4.28756 -0.659581 0
M  V30 1701 H 160.441 5.50306 0.432109 0
M  V30 1702 H 162.917 3.88784 1.48278 0
M  V30 1703 H 161.793 4.95358 2.36457 0
M  V30 1704 H 162.054 3.31099 2.92961 0
M  V30 1705 N 161.113 -0.173488 1.56642 0
M  V30 1706 C 162.076 -1.19859 1.95362 0
M  V30 1707 C 163.076 -1.37296 0.83704 0
M  V30 1708 O 164.266 -1.34739 1.10413 0
M  V30 1709 C 161.398 -2.56405 2.24654 0
M  V30 1710 H 162.591 -0.867062 2.87092 0
M  V30 1711 H 160.144 -0.415853 1.50666 0
M  V30 1712 H 160.879 -2.94576 1.35631 0
M  V30 1713 H 160.664 -2.45115 3.06041 0
M  V30 1714 H 162.154 -3.30287 2.5554 0
M  V30 1715 N 162.591 -1.51276 -0.441967 0
M  V30 1716 C 163.837 -1.6492 -1.1905 0
M  V30 1717 C 164.192 -0.358731 -1.89026 0
M  V30 1718 O 163.485 0.645193 -1.8041 0
M  V30 1719 C 163.679 -2.78746 -2.23686 0
M  V30 1720 C 163.508 -4.18737 -1.63979 0
M  V30 1721 C 162.278 -4.84739 -1.42674 0
M  V30 1722 C 164.476 -5.01988 -1.11858 0
M  V30 1723 N 162.458 -6.08858 -0.785159 0
M  V30 1724 C 163.829 -6.17071 -0.601989 0
M  V30 1725 C 165.884 -4.87551 -1.0099 0
M  V30 1726 C 164.587 -7.19299 0.0126012 0
M  V30 1727 C 166.613 -5.89983 -0.409206 0
M  V30 1728 C 165.975 -7.04333 0.0968651 0
M  V30 1729 H 162.074 -0.657416 -0.423471 0
M  V30 1730 H 164.658 -1.8849 -0.48782 0
M  V30 1731 H 162.829 -2.56848 -2.91348 0
M  V30 1732 H 164.561 -2.81595 -2.90666 0
M  V30 1733 H 161.316 -4.42528 -1.68719 0
M  V30 1734 H 161.74 -6.75282 -0.481942 0
M  V30 1735 H 166.382 -3.99401 -1.38703 0
M  V30 1736 H 164.1 -8.071 0.401879 0
M  V30 1737 H 167.686 -5.8088 -0.327079 0
M  V30 1738 H 166.566 -7.82238 0.554373 0
M  V30 1739 N 164.069 0.697108 -1.41344 0
M  V30 1740 C 165.346 1.45154 -1.31109 0
M  V30 1741 C 165.726 2.11009 0.0620449 0
M  V30 1742 O 165.074 2.01571 1.07618 0
M  V30 1743 C 165.284 2.47223 -2.46337 0
M  V30 1744 C 166.632 3.1252 -2.87431 0
M  V30 1745 O 167.656 2.57547 -2.46065 0
M  V30 1746 O 166.515 4.12083 -3.58957 0
M  V30 1747 H 163.609 0.646365 -0.515889 0
M  V30 1748 H 166.155 0.727716 -1.53305 0
M  V30 1749 H 164.927 1.97204 -3.37974 0
M  V30 1750 H 164.55 3.27116 -2.2601 0
M  V30 1751 N 165.547 1.27147 0.931209 0
M  V30 1752 C 166.457 1.11372 2.06478 0
M  V30 1753 C 167.473 0.044645 1.73943 0
M  V30 1754 O 168.649 0.250417 1.99837 0
M  V30 1755 C 165.714 0.758838 3.38294 0
M  V30 1756 C 164.775 1.90841 3.84549 0
M  V30 1757 C 164.008 1.57036 5.10074 0
M  V30 1758 O 164.231 0.476645 5.68405 0
M  V30 1759 O 163.165 2.40839 5.51616 0
M  V30 1760 H 166.991 2.06493 2.22698 0
M  V30 1761 H 164.576 1.06301 1.04978 0
M  V30 1762 H 166.458 0.574098 4.17471 0
M  V30 1763 H 165.133 -0.162879 3.2329 0
M  V30 1764 H 164.04 2.14819 3.06274 0
M  V30 1765 H 165.373 2.81021 4.04089 0
M  V30 1766 N 167.025 -1.13721 1.09112 0
M  V30 1767 C 168.273 -1.84559 0.823562 0
M  V30 1768 C 168.594 -1.83754 -0.652658 0
M  V30 1769 O 167.864 -1.29102 -1.47342 0
M  V30 1770 H 166.444 -0.683376 0.301673 0
M  V30 1771 H 169.106 -1.37771 1.37859 0
M  V30 1772 H 168.202 -2.8917 1.17419 0
M  V30 1773 N 168.503 -0.877838 -1.30888 0
M  V30 1774 C 169.914 -0.544193 -1.78593 0
M  V30 1775 C 170.265 0.939301 -1.72254 0
M  V30 1776 O 169.39 1.7337 -1.29505 0
M  V30 1777 C 169.985 -0.98105 -3.24285 0
M  V30 1778 C 168.544 -0.698935 -3.69854 0
M  V30 1779 C 167.691 -1.168 -2.51502 0
M  V30 1780 H 170.642 -1.06278 -1.17859 0
M  V30 1781 H 170.663 -0.307009 -3.79259 0
M  V30 1782 H 170.175 -2.06079 -3.28866 0
M  V30 1783 H 168.276 0.369112 -3.70767 0
M  V30 1784 H 168.389 -1.28148 -4.61644 0
M  V30 1785 H 166.753 -0.587535 -2.47831 0
M  V30 1786 H 167.536 -2.25533 -2.58824 0
M  V30 1787 N 169.982 1.44106 -0.638065 0
M  V30 1788 C 171.259 1.95453 -0.0759321 0
M  V30 1789 C 171.639 1.57984 1.40015 0
M  V30 1790 O 170.987 0.857361 2.11806 0
M  V30 1791 C 171.197 3.47655 -0.306132 0
M  V30 1792 C 172.545 4.24114 -0.203008 0
M  V30 1793 O 173.569 3.55405 -0.237871 0
M  V30 1794 O 172.428 5.46381 -0.113827 0
M  V30 1795 H 169.522 0.826797 0.0183332 0
M  V30 1796 H 172.068 1.54122 -0.710251 0
M  V30 1797 H 170.84 3.68 -1.3301 0
M  V30 1798 H 170.463 3.95949 0.361991 0
M  V30 1799 N 171.46 0.379036 1.52974 0
M  V30 1800 C 172.688 -0.20679 2.05864 0
M  V30 1801 C 173.103 -1.41356 1.25155 0
M  V30 1802 O 172.46 -1.8009 0.295588 0
M  V30 1803 C 172.511 -0.587045 3.56702 0
M  V30 1804 O 172.232 0.571776 4.34353 0
M  V30 1805 C 173.733 -1.22983 4.25899 0
M  V30 1806 H 170.953 -0.0336123 0.670158 0
M  V30 1807 H 173.497 0.541298 1.97206 0
M  V30 1808 H 171.652 -1.28504 3.65466 0
M  V30 1809 H 172.066 0.261544 5.23847 0
M  V30 1810 H 173.54 -1.44635 5.32715 0
M  V30 1811 H 174.017 -2.19416 3.80465 0
M  V30 1812 H 174.623 -0.572892 4.21424 0
M  V30 1813 N 172.938 -1.57226 0.108567 0
M  V30 1814 C 174.163 -1.99604 -0.563303 0
M  V30 1815 C 174.588 -0.987563 -1.6009 0
M  V30 1816 O 173.946 0.0421687 -1.81251 0
M  V30 1817 C 173.994 -3.40902 -1.17552 0
M  V30 1818 O 173.098 -3.42896 -2.2912 0
M  V30 1819 H 172.439 -0.648704 -0.1417 0
M  V30 1820 H 174.969 -2.03679 0.193961 0
M  V30 1821 H 174.979 -3.78886 -1.51357 0
M  V30 1822 H 173.654 -4.1382 -0.415445 0
M  V30 1823 H 172.231 -3.1672 -1.96832 0
M  V30 1824 N 174.416 0.165178 -1.56732 0
M  V30 1825 C 175.349 1.23336 -1.91998 0
M  V30 1826 C 176.327 1.42476 -0.783531 0
M  V30 1827 O 177.511 1.57384 -1.03743 0
M  V30 1828 C 174.638 2.59533 -2.17625 0
M  V30 1829 C 173.684 2.57093 -3.40302 0
M  V30 1830 S 174.517 2.05571 -4.9447 0
M  V30 1831 C 175.673 3.43532 -5.23198 0
M  V30 1832 H 175.906 0.932387 -2.82301 0
M  V30 1833 H 173.439 0.370013 -1.49901 0
M  V30 1834 H 175.397 3.37918 -2.3307 0
M  V30 1835 H 174.058 2.86827 -1.28019 0
M  V30 1836 H 173.251 3.57308 -3.55453 0
M  V30 1837 H 172.853 1.86806 -3.24005 0
M  V30 1838 H 175.145 4.39559 -5.15552 0
M  V30 1839 H 176.088 3.33251 -6.2478 0
M  V30 1840 H 176.496 3.39828 -4.50752 0
M  V30 1841 N 175.894 1.51508 0.433938 0
M  V30 1842 C 177.122 1.68157 1.20543 0
M  V30 1843 C 177.537 0.380362 1.84929 0
M  V30 1844 O 176.894 -0.641446 1.70856 0
M  V30 1845 C 176.945 2.79965 2.28696 0
M  V30 1846 O 176.666 4.05045 1.66943 0
M  V30 1847 C 178.167 3.07912 3.18912 0
M  V30 1848 H 175.387 0.56421 0.363191 0
M  V30 1849 H 177.931 1.97941 0.513754 0
M  V30 1850 H 176.086 2.5277 2.93574 0
M  V30 1851 H 176.5 4.67165 2.38448 0
M  V30 1852 H 177.974 3.89719 3.90926 0
M  V30 1853 H 178.451 2.20456 3.79863 0
M  V30 1854 H 179.057 3.36779 2.59731 0
M  V30 1855 N 177.372 -0.689602 1.41712 0
M  V30 1856 C 178.304 -1.815 1.39966 0
M  V30 1857 C 179.317 -1.59995 0.300917 0
M  V30 1858 O 180.506 -1.69387 0.563039 0
M  V30 1859 C 177.606 -3.18364 1.16179 0
M  V30 1860 C 176.779 -3.66847 2.38206 0
M  V30 1861 C 175.838 -4.82398 2.10186 0
M  V30 1862 O 174.864 -4.93706 2.83272 0
M  V30 1863 N 176.066 -5.70064 1.0958 0
M  V30 1864 H 178.831 -1.83488 2.36965 0
M  V30 1865 H 176.392 -0.872149 1.36401 0
M  V30 1866 H 178.384 -3.93301 0.953756 0
M  V30 1867 H 176.954 -3.11365 0.27756 0
M  V30 1868 H 176.174 -2.82751 2.74673 0
M  V30 1869 H 177.462 -3.95978 3.19498 0
M  V30 1870 H 176.86 -5.63565 0.491019 0
M  V30 1871 H 175.417 -6.44874 0.947656 0
M  V30 1872 N 178.85 -1.27639 -0.924453 0
M  V30 1873 C 180.078 -1.16989 -1.70649 0
M  V30 1874 C 180.493 0.272869 -1.86818 0
M  V30 1875 O 179.85 1.18549 -1.38753 0
M  V30 1876 C 179.901 -1.85229 -3.10439 0
M  V30 1877 O 179.622 -3.23868 -2.95028 0
M  V30 1878 C 181.123 -1.80746 -4.04779 0
M  V30 1879 H 178.343 -0.406595 -0.53378 0
M  V30 1880 H 180.887 -1.68569 -1.15778 0
M  V30 1881 H 179.042 -1.37545 -3.6216 0
M  V30 1882 H 179.456 -3.57889 -3.83426 0
M  V30 1883 H 180.93 -2.33101 -5.00368 0
M  V30 1884 H 181.407 -0.777499 -4.32263 0
M  V30 1885 H 182.013 -2.28059 -3.58984 0
M  V30 1886 N 180.328 1.1314 -1.09713 0
M  V30 1887 C 181.568 1.8613 -0.844683 0
M  V30 1888 C 181.932 1.81765 0.618491 0
M  V30 1889 O 183.133 2.50024 0.98699 0
M  V30 1890 C 181.404 3.30151 -1.36877 0
M  V30 1891 S 182.963 4.206 -1.25064 0
M  V30 1892 H 179.781 0.642056 -0.305427 0
M  V30 1893 H 182.383 1.36343 -1.4011 0
M  V30 1894 H 181.087 3.30883 -2.42786 0
M  V30 1895 H 180.618 3.85 -0.808614 0
M  V30 1896 H 182.633 4.95783 -0.203486 0
M  V30 1897 N 181.806 0.884767 1.30421 0
M  V30 1898 C 183.054 0.502112 1.95763 0
M  V30 1899 C 183.375 -0.951815 1.70192 0
M  V30 1900 O 182.645 -1.6692 1.0254 0
M  V30 1901 H 181.225 0.182694 0.724315 0
M  V30 1902 H 183.887 1.1278 1.58955 0
M  V30 1903 H 182.983 0.672188 3.04775 0
M  V30 1904 N 183.284 -1.43765 0.645699 0
M  V30 1905 C 184.7 -1.56509 0.312591 0
M  V30 1906 C 184.9 -1.6307 -1.18365 0
M  V30 1907 O 183.956 -1.58167 -1.96824 0
M  V30 1908 C 185.269 -2.82968 1.01733 0
M  V30 1909 C 186.817 -2.96701 0.996865 0
M  V30 1910 C 187.292 -4.25982 1.68236 0
M  V30 1911 N 188.783 -4.32829 1.64964 0
M  V30 1912 C 189.518 -5.31613 2.14885 0
M  V30 1913 N 189.014 -6.36718 2.73061 0
M  V30 1914 N 190.807 -5.23217 2.05428 0
M  V30 1915 H 182.958 -1.3775 1.61675 0
M  V30 1916 H 185.221 -0.661067 0.679481 0
M  V30 1917 H 184.927 -2.84156 2.0724 0
M  V30 1918 H 184.801 -3.72957 0.564177 0
M  V30 1919 H 187.188 -2.95058 -0.0497719 0
M  V30 1920 H 187.269 -2.08022 1.48865 0
M  V30 1921 H 186.913 -4.28386 2.72852 0
M  V30 1922 H 186.843 -5.13545 1.16529 0
M  V30 1923 H 189.334 -3.57493 1.22503 0
M  V30 1924 H 189.647 -7.08401 3.08848 0
M  V30 1925 H 187.992 -6.37362 2.77118 0
M  V30 1926 H 191.183 -4.40019 1.59689 0
M  V30 1927 H 191.356 -6.00045 2.44643 0
M  V30 1928 N 184.763 -0.387143 -1.52771 0
M  V30 1929 C 186.003 0.195537 -2.03463 0
M  V30 1930 C 186.367 1.44222 -1.26744 0
M  V30 1931 O 187.568 2.10192 -1.67549 0
M  V30 1932 C 185.839 0.459097 -3.54439 0
M  V30 1933 S 187.398 1.01237 -4.26962 0
M  V30 1934 H 184.216 0.0552675 -0.708849 0
M  V30 1935 H 186.818 -0.534992 -1.88037 0
M  V30 1936 H 185.522 -0.455382 -4.07866 0
M  V30 1937 H 185.053 1.21811 -3.74066 0
M  V30 1938 H 187.068 2.29492 -4.39941 0
M  V30 1939 N 186.241 1.57166 -0.116904 0
M  V30 1940 C 187.191 2.11756 0.845178 0
M  V30 1941 C 188.175 1.03783 1.22955 0
M  V30 1942 O 189.367 1.3002 1.20099 0
M  V30 1943 C 186.496 2.71886 2.09602 0
M  V30 1944 C 185.582 3.86937 1.7361 0
M  V30 1945 N 185.973 4.94073 1.08284 0
M  V30 1946 C 184.271 3.97082 2.03082 0
M  V30 1947 C 184.972 5.74477 0.913855 0
M  V30 1948 N 183.948 5.2423 1.43818 0
M  V30 1949 H 187.75 2.91967 0.336523 0
M  V30 1950 H 185.264 1.62174 0.0856332 0
M  V30 1951 H 187.261 3.09338 2.79492 0
M  V30 1952 H 185.921 1.93138 2.61013 0
M  V30 1953 H 186.932 5.12483 0.747067 0
M  V30 1954 H 183.609 3.29372 2.56554 0
M  V30 1955 H 184.999 6.70701 0.40125 0
M  V30 1956 N 187.719 -0.156864 1.56817 0
M  V30 1957 C 188.944 -0.890331 1.87318 0
M  V30 1958 C 189.369 -1.74394 0.704855 0
M  V30 1959 O 188.727 -1.77972 -0.345786 0
M  V30 1960 C 188.775 -1.73102 3.16336 0
M  V30 1961 O 187.879 -2.83422 2.99576 0
M  V30 1962 H 187.22 -0.24857 0.615718 0
M  V30 1963 H 189.75 -0.150649 2.04045 0
M  V30 1964 H 189.76 -2.12803 3.48107 0
M  V30 1965 H 188.435 -1.10412 4.00976 0
M  V30 1966 H 187.012 -2.47199 2.7919 0
M  V30 1967 N 189.197 -1.51736 -0.425897 0
M  V30 1968 C 190.427 -1.68549 -1.19476 0
M  V30 1969 C 190.835 -0.387288 -1.85194 0
M  V30 1970 O 190.178 0.645142 -1.71999 0
M  V30 1971 C 190.24 -2.75275 -2.31223 0
M  V30 1972 C 189.904 -4.17534 -1.8578 0
M  V30 1973 C 190.901 -5.01936 -1.35485 0
M  V30 1974 C 188.586 -4.6369 -1.93123 0
M  V30 1975 C 190.58 -6.30559 -0.931347 0
M  V30 1976 C 188.267 -5.92307 -1.50384 0
M  V30 1977 C 189.265 -6.75569 -1.00473 0
M  V30 1978 O 188.953 -8.0178 -0.583452 0
M  V30 1979 H 188.685 -0.568525 -0.365725 0
M  V30 1980 H 191.239 -1.98982 -0.509444 0
M  V30 1981 H 189.469 -2.40182 -3.03067 0
M  V30 1982 H 191.158 -2.80853 -2.93047 0
M  V30 1983 H 191.924 -4.67475 -1.29197 0
M  V30 1984 H 187.803 -3.98997 -2.30916 0
M  V30 1985 H 191.347 -6.95498 -0.541084 0
M  V30 1986 H 187.244 -6.2628 -1.56346 0
M  V30 1987 H 188.012 -8.1543 -0.708275 0
M  V30 1988 N 190.675 0.682077 -1.42076 0
M  V30 1989 C 191.638 1.77756 -1.44691 0
M  V30 1990 C 192.638 1.5726 -0.335535 0
M  V30 1991 O 193.828 1.63686 -0.596037 0
M  V30 1992 C 190.96 3.16301 -1.27146 0
M  V30 1993 H 192.153 1.76826 -2.42224 0
M  V30 1994 H 189.706 0.891012 -1.28416 0
M  V30 1995 H 190.441 3.22862 -0.305075 0
M  V30 1996 H 190.226 3.32581 -2.07683 0
M  V30 1997 H 191.716 3.96241 -1.31843 0
M  V30 1998 N 192.153 1.28127 0.917671 0
M  V30 1999 C 193.569 1.05749 1.19538 0
M  V30 2000 C 193.769 -0.202633 2.00479 0
M  V30 2001 O 192.825 -0.905382 2.3571 0
M  V30 2002 C 194.138 2.30273 1.93378 0
M  V30 2003 C 195.686 2.35412 2.06277 0
M  V30 2004 C 196.161 3.59692 2.83524 0
M  V30 2005 N 197.652 3.60309 2.91087 0
M  V30 2006 C 198.387 4.53147 3.51348 0
M  V30 2007 N 197.883 5.563 4.12919 0
M  V30 2008 N 199.676 4.40751 3.48849 0
M  V30 2009 H 191.827 2.09024 0.377184 0
M  V30 2010 H 194.09 0.919798 0.22951 0
M  V30 2011 H 193.796 3.22055 1.41328 0
M  V30 2012 H 193.67 2.36378 2.93947 0
M  V30 2013 H 196.057 1.4413 2.57508 0
M  V30 2014 H 196.138 2.33304 1.04895 0
M  V30 2015 H 195.782 4.51316 2.32973 0
M  V30 2016 H 195.712 3.59054 3.85211 0
M  V30 2017 H 198.203 2.85714 2.47338 0
M  V30 2018 H 198.516 6.2329 4.56869 0
M  V30 2019 H 196.861 5.60131 4.11435 0
M  V30 2020 H 200.052 3.59367 2.99955 0
M  V30 2021 H 200.225 5.13291 3.9552 0
M  V30 2022 N 193.631 -1.12557 1.10312 0
M  V30 2023 C 194.877 -1.84311 0.846011 0
M  V30 2024 C 195.21 -1.83805 -0.626859 0
M  V30 2025 O 194.485 -1.28268 -1.46211 0
M  V30 2026 C 194.768 -3.32048 1.39341 0
M  V30 2027 C 194.621 -3.41016 2.93305 0
M  V30 2028 C 195.94 -4.27764 1.03468 0
M  V30 2029 H 193.059 -0.669192 0.30879 0
M  V30 2030 H 195.701 -1.32057 1.36605 0
M  V30 2031 H 193.851 -3.76678 0.951087 0
M  V30 2032 H 195.523 -3.05031 3.46055 0
M  V30 2033 H 193.766 -2.81603 3.29973 0
M  V30 2034 H 194.437 -4.44948 3.26689 0
M  V30 2035 H 196.913 -3.91253 1.41633 0
M  V30 2036 H 195.789 -5.29549 1.44463 0
M  V30 2037 H 196.05 -4.42064 -0.0560404 0
M  V30 2038 N 195.109 -0.891671 -1.2995 0
M  V30 2039 C 196.072 -0.36828 -2.26222 0
M  V30 2040 C 197.072 0.493014 -1.53056 0
M  V30 2041 O 198.262 0.299213 -1.71611 0
M  V30 2042 C 195.394 0.47442 -3.37583 0
M  V30 2043 H 196.587 -1.21844 -2.74033 0
M  V30 2044 H 194.14 -0.669107 -1.41254 0
M  V30 2045 H 194.875 1.34489 -2.95099 0
M  V30 2046 H 194.66 -0.142615 -3.91841 0
M  V30 2047 H 196.15 0.83218 -4.09224 0
M  V30 2048 N 196.587 1.43421 -0.653314 0
M  V30 2049 C 197.517 2.33487 0.0246656 0
M  V30 2050 C 198.498 1.49475 0.811863 0
M  V30 2051 O 199.683 1.78139 0.773322 0
M  V30 2052 C 196.813 3.32841 0.99166 0
M  V30 2053 C 195.767 4.26842 0.314568 0
M  V30 2054 C 195.093 5.16236 1.39302 0
M  V30 2055 C 196.393 5.16243 -0.793095 0
M  V30 2056 H 198.087 2.90427 -0.727481 0
M  V30 2057 H 195.633 1.39649 -0.351287 0
M  V30 2058 H 197.586 3.94747 1.47487 0
M  V30 2059 H 196.31 2.74158 1.77497 0
M  V30 2060 H 194.969 3.663 -0.148199 0
M  V30 2061 H 194.617 4.53891 2.16776 0
M  V30 2062 H 194.317 5.79948 0.945223 0
M  V30 2063 H 195.841 5.81015 1.87759 0
M  V30 2064 H 197.255 5.71958 -0.392039 0
M  V30 2065 H 195.652 5.88676 -1.16536 0
M  V30 2066 H 196.722 4.55927 -1.65103 0
M  V30 2067 N 198.065 0.39524 1.52563 0
M  V30 2068 C 198.997 -0.472201 2.24283 0
M  V30 2069 C 200.01 -1.02178 1.26742 0
M  V30 2070 O 201.199 -0.923097 1.52778 0
M  V30 2071 C 198.299 -1.66775 2.95024 0
M  V30 2072 C 197.472 -1.2445 4.19322 0
M  V30 2073 C 196.531 -2.30539 4.7301 0
M  V30 2074 O 195.557 -1.91702 5.35947 0
M  V30 2075 N 196.759 -3.6253 4.53379 0
M  V30 2076 H 199.524 0.142282 2.99362 0
M  V30 2077 H 197.085 0.2219 1.60372 0
M  V30 2078 H 199.077 -2.37283 3.27839 0
M  V30 2079 H 197.647 -2.18845 2.23217 0
M  V30 2080 H 196.867 -0.368069 3.92478 0
M  V30 2081 H 198.155 -0.938457 5.0007 0
M  V30 2082 H 197.553 -3.96841 4.03154 0
M  V30 2083 H 196.11 -4.29055 4.90668 0
M  V30 2084 N 199.544 -1.57102 0.125237 0
M  V30 2085 C 200.96 -1.57915 -0.231322 0
M  V30 2086 C 201.16 -1.13833 -1.66266 0
M  V30 2087 O 200.216 -0.828581 -2.38518 0
M  V30 2088 C 201.529 -3.00699 0.00766489 0
M  V30 2089 C 203.077 -3.12947 -0.0577483 0
M  V30 2090 C 203.552 -4.57742 0.153626 0
M  V30 2091 N 205.043 -4.63092 0.0998073 0
M  V30 2092 C 205.778 -5.72905 0.238174 0
M  V30 2093 N 205.274 -6.91445 0.433057 0
M  V30 2094 N 207.067 -5.6182 0.177308 0
M  V30 2095 H 199.218 -1.84055 1.06007 0
M  V30 2096 H 201.481 -0.850905 0.417929 0
M  V30 2097 H 201.187 -3.3726 0.997431 0
M  V30 2098 H 201.061 -3.70236 -0.721452 0
M  V30 2099 H 203.448 -2.7624 -1.03804 0
M  V30 2100 H 203.529 -2.4594 0.70335 0
M  V30 2101 H 203.173 -4.95149 1.13092 0
M  V30 2102 H 203.103 -5.22848 -0.627534 0
M  V30 2103 H 205.594 -3.77871 -0.047051 0
M  V30 2104 H 205.907 -7.70985 0.529332 0
M  V30 2105 H 204.252 -6.93415 0.469109 0
M  V30 2106 H 207.443 -4.68093 0.0259748 0
M  V30 2107 H 207.616 -6.47357 0.288582 0
M  V30 2108 N 201.022 0.148545 -1.56898 0
M  V30 2109 C 202.438 0.501131 -1.51528 0
M  V30 2110 C 202.638 1.83458 -0.833399 0
M  V30 2111 O 201.694 2.49259 -0.40328 0
M  V30 2112 C 203.007 0.512864 -2.96294 0
M  V30 2113 C 204.555 0.598487 -3.07225 0
M  V30 2114 C 205.03 0.640897 -4.53494 0
M  V30 2115 N 206.521 0.703163 -4.57832 0
M  V30 2116 C 207.256 0.756935 -5.68382 0
M  V30 2117 N 206.752 0.770147 -6.88506 0
M  V30 2118 N 208.545 0.797698 -5.56411 0
M  V30 2119 H 200.696 -0.725532 -1.99624 0
M  V30 2120 H 202.959 -0.264358 -0.910395 0
M  V30 2121 H 202.665 -0.398691 -3.49433 0
M  V30 2122 H 202.539 1.35133 -3.52163 0
M  V30 2123 H 204.926 1.50046 -2.54106 0
M  V30 2124 H 205.007 -0.267093 -2.54402 0
M  V30 2125 H 204.651 -0.256915 -5.0725 0
M  V30 2126 H 204.581 1.52295 -5.04097 0
M  V30 2127 H 207.072 0.700314 -3.71354 0
M  V30 2128 H 207.385 0.812983 -7.68512 0
M  V30 2129 H 205.73 0.738049 -6.9107 0
M  V30 2130 H 208.921 0.784535 -4.61479 0
M  V30 2131 H 209.094 0.83614 -6.42583 0
M  V30 2132 N 202.5 1.5196 0.417844 0
M  V30 2133 C 203.728 1.69426 1.18753 0
M  V30 2134 C 204.143 0.399955 1.84515 0
M  V30 2135 O 203.5 -0.623288 1.71527 0
M  V30 2136 C 203.551 2.82375 2.25714 0
M  V30 2137 O 203.272 4.06793 1.62638 0
M  V30 2138 C 204.773 3.11277 3.15628 0
M  V30 2139 H 201.993 0.568031 0.357186 0
M  V30 2140 H 204.537 1.98475 0.49273 0
M  V30 2141 H 202.692 2.5587 2.90877 0
M  V30 2142 H 203.106 4.69667 2.3348 0
M  V30 2143 H 204.58 3.93843 3.86771 0
M  V30 2144 H 205.057 2.24473 3.77503 0
M  V30 2145 H 205.663 3.39515 2.56144 0
M  V30 2146 N 203.978 -0.674533 1.42435 0
M  V30 2147 C 205.389 -1.25514 1.38214 0
M  V30 2148 C 205.74 -1.96055 0.0755464 0
M  V30 2149 O 204.865 -2.00028 -0.8257 0
M  V30 2150 C 205.46 -2.28269 2.50357 0
M  V30 2151 C 204.019 -2.81856 2.49467 0
M  V30 2152 C 203.166 -1.56182 2.29134 0
M  V30 2153 H 206.117 -0.467902 1.51646 0
M  V30 2154 H 206.138 -3.10009 2.20624 0
M  V30 2155 H 205.65 -1.769 3.45439 0
M  V30 2156 H 203.751 -3.37346 1.58204 0
M  V30 2157 H 203.864 -3.30854 3.46515 0
M  V30 2158 H 202.228 -1.82761 1.774 0
M  V30 2159 H 203.011 -1.06778 3.26272 0
M  V30 2160 N 205.456 -1.28612 -0.910864 0
M  V30 2161 C 206.366 -1.14643 -2.0468 0
M  V30 2162 C 207.382 -0.0723121 -1.7385 0
M  V30 2163 O 208.558 -0.282178 -1.99413 0
M  V30 2164 C 205.623 -0.812561 -3.37044 0
M  V30 2165 C 204.684 -1.96935 -3.81465 0
M  V30 2166 C 203.917 -1.65131 -5.07511 0
M  V30 2167 O 204.14 -0.567013 -5.67575 0
M  V30 2168 O 203.074 -2.49585 -5.47714 0
M  V30 2169 H 206.9 -2.1001 -2.19384 0
M  V30 2170 H 204.485 -1.07958 -1.03274 0
M  V30 2171 H 206.367 -0.640441 -4.16505 0
M  V30 2172 H 205.042 0.111426 -3.23508 0
M  V30 2173 H 203.949 -2.19664 -3.02818 0
M  V30 2174 H 205.282 -2.87414 -3.99567 0
M  V30 2175 N 206.934 1.1197 -1.10907 0
M  V30 2176 C 208.211 1.79959 -0.766432 0
M  V30 2177 C 208.591 1.97466 0.746363 0
M  V30 2178 O 207.939 1.55491 1.67436 0
M  V30 2179 C 208.149 3.14009 -1.52314 0
M  V30 2180 C 209.497 3.89134 -1.69883 0
M  V30 2181 O 210.521 3.2368 -1.48692 0
M  V30 2182 O 209.38 5.06572 -2.05054 0
M  V30 2183 H 206.474 0.779208 -0.277062 0
M  V30 2184 H 209.02 1.18762 -1.21217 0
M  V30 2185 H 207.792 2.96587 -2.55249 0
M  V30 2186 H 207.415 3.82915 -1.07059 0
M  V30 2187 N 208.412 0.89855 1.29475 0
M  V30 2188 C 209.658 0.534065 1.96263 0
M  V30 2189 C 210.013 -0.909415 1.69551 0
M  V30 2190 O 209.306 -1.63596 0.997349 0
M  V30 2191 C 209.5 0.761398 3.49195 0
M  V30 2192 C 209.329 2.22542 3.90775 0
M  V30 2193 C 208.099 2.87264 4.15701 0
M  V30 2194 C 210.297 3.20051 4.02581 0
M  V30 2195 N 208.279 4.24121 4.4384 0
M  V30 2196 C 209.65 4.42023 4.34759 0
M  V30 2197 C 211.705 3.15657 3.85052 0
M  V30 2198 C 210.408 5.60161 4.51235 0
M  V30 2199 C 212.434 4.33078 4.02737 0
M  V30 2200 C 211.796 5.5382 4.35273 0
M  V30 2201 H 207.895 0.245013 0.742625 0
M  V30 2202 H 210.479 1.15912 1.56437 0
M  V30 2203 H 208.65 0.165732 3.88046 0
M  V30 2204 H 210.382 0.362462 4.03074 0
M  V30 2205 H 207.137 2.38064 4.09417 0
M  V30 2206 H 207.561 4.94839 4.6202 0
M  V30 2207 H 212.203 2.23396 3.58962 0
M  V30 2208 H 209.921 6.52913 4.76162 0
M  V30 2209 H 213.507 4.31163 3.90628 0
M  V30 2210 H 212.387 6.43166 4.48672 0
M  V30 2211 N 209.89 -1.43072 0.660911 0
M  V30 2212 C 210.837 -2.30785 -0.0259884 0
M  V30 2213 C 211.807 -1.45184 -0.806888 0
M  V30 2214 O 212.992 -1.74041 -0.781943 0
M  V30 2215 C 210.132 -3.30861 -0.981067 0
M  V30 2216 C 209.245 -4.31558 -0.195458 0
M  V30 2217 C 208.38 -5.18712 -1.14503 0
M  V30 2218 C 207.419 -6.11097 -0.350299 0
M  V30 2219 N 206.556 -6.90849 -1.25186 0
M  V30 2220 H 211.396 -2.88975 0.727846 0
M  V30 2221 H 208.933 -1.42353 0.370682 0
M  V30 2222 H 210.891 -3.87399 -1.54849 0
M  V30 2223 H 209.521 -2.74304 -1.70169 0
M  V30 2224 H 208.573 -3.77252 0.488374 0
M  V30 2225 H 209.885 -4.9701 0.422176 0
M  V30 2226 H 209.039 -5.79914 -1.78284 0
M  V30 2227 H 207.778 -4.53404 -1.79656 0
M  V30 2228 H 206.783 -5.48976 0.300808 0
M  V30 2229 H 208.008 -6.7845 0.296941 0
M  V30 2230 H 205.954 -6.28182 -1.89005 0
M  V30 2231 H 205.871 -7.52854 -0.688971 0
M  V30 2232 H 207.139 -7.5655 -1.87757 0
M  V30 2233 N 211.368 -0.403325 -1.52352 0
M  V30 2234 C 212.318 0.442244 -2.2367 0
M  V30 2235 C 213.302 1.01823 -1.24583 0
M  V30 2236 O 214.494 0.942005 -1.49851 0
M  V30 2237 C 211.623 1.5615 -3.05732 0
M  V30 2238 C 210.709 0.996575 -4.12225 0
M  V30 2239 N 211.1 0.157804 -5.05554 0
M  V30 2240 C 209.398 1.26767 -4.27605 0
M  V30 2241 C 210.099 -0.155853 -5.81491 0
M  V30 2242 N 209.075 0.451775 -5.41719 0
M  V30 2243 H 212.877 -0.204964 -2.93184 0
M  V30 2244 H 210.391 -0.213418 -1.60992 0
M  V30 2245 H 212.388 2.17981 -3.55373 0
M  V30 2246 H 211.048 2.21139 -2.37755 0
M  V30 2247 H 212.059 -0.206049 -5.1749 0
M  V30 2248 H 208.736 1.91757 -3.70858 0
M  V30 2249 H 210.126 -0.836329 -6.66675 0
M  V30 2250 N 212.846 1.57033 -0.133567 0
M  V30 2251 C 213.776 2.1909 0.807567 0
M  V30 2252 C 214.757 1.13517 1.26681 0
M  V30 2253 O 215.942 1.41809 1.32679 0
M  V30 2254 C 213.072 2.80188 2.05212 0
M  V30 2255 C 212.026 3.91471 1.73015 0
M  V30 2256 C 211.352 4.39443 3.04622 0
M  V30 2257 C 212.652 5.12886 0.987168 0
M  V30 2258 H 214.346 2.97988 0.290403 0
M  V30 2259 H 211.892 1.43335 0.138239 0
M  V30 2260 H 213.845 3.22264 2.71521 0
M  V30 2261 H 212.569 1.98601 2.59278 0
M  V30 2262 H 211.228 3.49993 1.0909 0
M  V30 2263 H 210.876 3.54695 3.56651 0
M  V30 2264 H 210.576 5.14495 2.83847 0
M  V30 2265 H 212.1 4.8418 3.72024 0
M  V30 2266 H 213.514 5.51891 1.55208 0
M  V30 2267 H 211.911 5.93615 0.87985 0
M  V30 2268 H 212.981 4.84894 -0.0235286 0
M  V30 2269 N 214.325 -0.140222 1.56975 0
M  V30 2270 C 215.571 -0.852949 1.83991 0
M  V30 2271 C 215.904 -1.80512 0.716187 0
M  V30 2272 O 215.179 -1.92479 -0.279681 0
M  V30 2273 C 215.462 -1.6215 3.21527 0
M  V30 2274 C 215.315 -0.690363 4.4447 0
M  V30 2275 C 216.634 -2.58247 3.56366 0
M  V30 2276 H 213.753 -0.308634 0.669264 0
M  V30 2277 H 216.395 -0.117898 1.89634 0
M  V30 2278 H 214.545 -2.24812 3.16847 0
M  V30 2279 H 216.217 -0.0742264 4.6124 0
M  V30 2280 H 214.46 -0.000396433 4.338 0
M  V30 2281 H 215.131 -1.2643 5.37326 0
M  V30 2282 H 217.607 -2.05701 3.61699 0
M  V30 2283 H 216.483 -3.09067 4.53617 0
M  V30 2284 H 216.744 -3.39923 2.82674 0
M  V30 2285 N 215.803 -1.52179 -0.40978 0
M  V30 2286 C 216.751 -1.76086 -1.51975 0
M  V30 2287 C 217.745 -0.627964 -1.57331 0
M  V30 2288 O 218.951 -0.809993 -1.60745 0
M  V30 2289 H 215.326 -0.556829 -0.505416 0
M  V30 2290 H 217.297 -2.69077 -1.28996 0
M  V30 2291 C 216.046 -1.92799 -2.8935 0
M  V30 2292 H 215.369 -2.79392 -2.85972 0
M  V30 2293 H 216.809 -2.13527 -3.66309 0
M  V30 2294 C 215.268 -0.694923 -3.29655 0
M  V30 2295 O 215.798 0.13751 -4.01465 0
M  V30 2296 N 214.004 -0.53101 -2.85707 0
M  V30 2297 H 213.551 -1.20952 -2.27439 0
M  V30 2298 H 213.509 0.292718 -3.13034 0
M  V30 2299 N 217.281 0.66697 -1.42791 0
M  V30 2300 C 218.528 1.42699 -1.43678 0
M  V30 2301 C 218.856 1.94419 -0.0560425 0
M  V30 2302 O 218.111 1.7182 0.936831 0
M  V30 2303 C 218.41 2.6349 -2.4147 0
M  V30 2304 C 218.076 2.30267 -3.8767 0
M  V30 2305 C 216.738 2.20918 -4.27491 0
M  V30 2306 C 219.09 2.03435 -4.79858 0
M  V30 2307 C 216.418 1.82873 -5.57471 0
M  V30 2308 C 218.77 1.66892 -6.10188 0
M  V30 2309 C 217.434 1.56058 -6.49001 0
M  V30 2310 H 216.704 0.522171 -0.525755 0
M  V30 2311 H 219.351 0.759785 -1.75783 0
M  V30 2312 H 217.656 3.35279 -2.0272 0
M  V30 2313 H 219.353 3.21684 -2.39417 0
M  V30 2314 H 215.943 2.38449 -3.56146 0
M  V30 2315 H 220.127 2.09586 -4.49875 0
M  V30 2316 H 215.383 1.7306 -5.86396 0
M  V30 2317 H 219.557 1.45157 -6.81104 0
M  V30 2318 H 217.184 1.26348 -7.49627 0
M  V30 2319 N 218.759 1.29093 0.90403 0
M  V30 2320 C 219.709 1.10482 1.99443 0
M  V30 2321 C 220.693 0.0255401 1.6088 0
M  V30 2322 O 221.885 0.24677 1.75271 0
M  V30 2323 C 219.014 0.778882 3.34348 0
M  V30 2324 C 218.1 1.89749 3.79284 0
M  V30 2325 N 218.491 3.14045 3.96497 0
M  V30 2326 C 216.789 1.78955 4.08523 0
M  V30 2327 C 217.49 3.86996 4.34292 0
M  V30 2328 N 216.466 3.14909 4.43095 0
M  V30 2329 H 220.268 2.04778 2.10815 0
M  V30 2330 H 217.782 1.20155 1.09255 0
M  V30 2331 H 219.779 0.62661 4.12164 0
M  V30 2332 H 218.439 -0.156205 3.24324 0
M  V30 2333 H 219.45 3.49548 3.82148 0
M  V30 2334 H 216.127 0.926886 4.07081 0
M  V30 2335 H 217.517 4.93941 4.55491 0
M  V30 2336 N 220.237 -1.11381 1.11499 0
M  V30 2337 C 221.167 -2.19509 0.796125 0
M  V30 2338 C 222.148 -1.68458 -0.235796 0
M  V30 2339 O 223.333 -1.93947 -0.0991344 0
M  V30 2340 C 220.463 -3.46475 0.239205 0
M  V30 2341 C 219.417 -4.10744 1.20307 0
M  V30 2342 C 218.743 -5.32293 0.50683 0
M  V30 2343 C 220.043 -4.55597 2.55399 0
M  V30 2344 H 221.737 -2.46439 1.70024 0
M  V30 2345 H 219.283 -1.18446 0.818935 0
M  V30 2346 H 221.236 -4.214 0.00392006 0
M  V30 2347 H 219.96 -3.19006 -0.700206 0
M  V30 2348 H 218.619 -3.37813 1.42399 0
M  V30 2349 H 218.267 -5.01095 -0.437408 0
M  V30 2350 H 217.967 -5.76243 1.1497 0
M  V30 2351 H 219.491 -6.09956 0.280351 0
M  V30 2352 H 220.905 -5.21841 2.37391 0
M  V30 2353 H 219.302 -5.10363 3.15673 0
M  V30 2354 H 220.372 -3.69013 3.14575 0
M  V30 2355 N 221.715 -0.905404 -1.28997 0
M  V30 2356 C 222.963 -0.533192 -1.9494 0
M  V30 2357 C 223.284 0.924618 -1.71685 0
M  V30 2358 O 222.554 1.65268 -1.05183 0
M  V30 2359 H 221.134 -0.194194 -0.721317 0
M  V30 2360 H 223.796 -1.15294 -1.57141 0
M  V30 2361 H 222.892 -0.72059 -3.03667 0
M  V30 2362 N 223.193 1.4272 -0.668489 0
M  V30 2363 C 224.125 2.2914 0.052613 0
M  V30 2364 C 225.138 1.43339 0.771857 0
M  V30 2365 O 226.327 1.67123 0.627067 0
M  V30 2366 C 223.427 3.20618 1.09804 0
M  V30 2367 C 222.6 4.35039 0.45389 0
M  V30 2368 C 221.659 5.07282 1.39825 0
M  V30 2369 O 220.685 5.62024 0.900978 0
M  V30 2370 N 221.887 5.12206 2.73176 0
M  V30 2371 H 224.652 2.91668 -0.689209 0
M  V30 2372 H 222.213 1.53577 -0.512422 0
M  V30 2373 H 224.205 3.65815 1.73094 0
M  V30 2374 H 222.775 2.59585 1.74167 0
M  V30 2375 H 221.995 3.92567 -0.358396 0
M  V30 2376 H 223.283 5.088 0.00486972 0
M  V30 2377 H 222.681 4.6913 3.16122 0
M  V30 2378 H 221.238 5.61069 3.31729 0
M  V30 2379 N 224.671 0.411399 1.52136 0
M  V30 2380 C 225.918 -0.163645 2.01838 0
M  V30 2381 C 226.246 -1.4495 1.29691 0
M  V30 2382 O 225.501 -1.91725 0.392431 0
M  V30 2383 C 225.8 -0.455872 3.54481 0
M  V30 2384 C 225.466 0.741055 4.44769 0
M  V30 2385 C 224.128 1.06936 4.69167 0
M  V30 2386 C 226.48 1.54075 4.97906 0
M  V30 2387 C 223.808 2.19851 5.43951 0
M  V30 2388 C 226.16 2.66067 5.73926 0
M  V30 2389 C 224.824 2.99381 5.96596 0
M  V30 2390 H 224.094 -0.0598821 0.738576 0
M  V30 2391 H 226.741 0.553283 1.83333 0
M  V30 2392 H 225.046 -1.2544 3.71177 0
M  V30 2393 H 226.743 -0.913802 3.90449 0
M  V30 2394 H 223.333 0.475192 4.25958 0
M  V30 2395 H 227.517 1.30033 4.78963 0
M  V30 2396 H 222.773 2.46006 5.59724 0
M  V30 2397 H 226.947 3.28419 6.14096 0
M  V30 2398 H 224.574 3.86992 6.54325 0
M  V30 2399 N 226.149 -1.5696 0.141893 0
M  V30 2400 C 227.56 -1.82797 -0.379776 0
M  V30 2401 C 227.911 -1.06033 -1.6508 0
M  V30 2402 O 227.036 -0.304011 -2.14254 0
M  V30 2403 C 227.631 -3.31578 -0.695802 0
M  V30 2404 C 226.19 -3.58014 -1.16201 0
M  V30 2405 C 225.337 -2.76699 -0.182455 0
M  V30 2406 H 228.288 -1.54406 0.366675 0
M  V30 2407 H 228.309 -3.47454 -1.55099 0
M  V30 2408 H 227.821 -3.87421 0.229449 0
M  V30 2409 H 225.922 -3.07553 -2.10338 0
M  V30 2410 H 226.035 -4.66501 -1.09151 0
M  V30 2411 H 224.399 -2.45618 -0.674072 0
M  V30 2412 H 225.182 -3.35311 0.736297 0
M  V30 2413 N 227.627 0.131896 -1.57047 0
M  V30 2414 C 228.855 0.856461 -1.88341 0
M  V30 2415 C 229.27 1.74042 -0.731757 0
M  V30 2416 O 228.627 1.80051 0.297945 0
M  V30 2417 C 228.678 1.70064 -3.18999 0
M  V30 2418 O 228.399 0.852278 -4.2973 0
M  V30 2419 C 229.9 2.53148 -3.63911 0
M  V30 2420 H 227.12 0.246885 -0.62393 0
M  V30 2421 H 229.664 0.120152 -2.04147 0
M  V30 2422 H 227.819 2.38984 -3.04902 0
M  V30 2423 H 228.233 1.43329 -5.04537 0
M  V30 2424 H 229.707 3.07931 -4.58129 0
M  V30 2425 H 230.184 3.29901 -2.89935 0
M  V30 2426 H 230.79 1.89492 -3.80753 0
M  V30 2427 N 229.106 1.52395 0.401703 0
M  V30 2428 C 230.036 1.79231 1.49661 0
M  V30 2429 C 231.017 0.643654 1.57452 0
M  V30 2430 O 232.202 0.889989 1.72606 0
M  V30 2431 C 229.332 1.94971 2.87409 0
M  V30 2432 C 228.286 3.10604 2.94465 0
M  V30 2433 C 227.612 3.11577 4.34538 0
M  V30 2434 C 228.912 4.49921 2.6527 0
M  V30 2435 H 230.606 2.70917 1.27454 0
M  V30 2436 H 228.152 1.30362 0.6117 0
M  V30 2437 H 230.105 2.12328 3.63999 0
M  V30 2438 H 228.829 0.999632 3.10926 0
M  V30 2439 H 227.488 2.93009 2.20321 0
M  V30 2440 H 227.136 2.14277 4.55076 0
M  V30 2441 H 226.836 3.89247 4.40183 0
M  V30 2442 H 228.36 3.31073 5.13053 0
M  V30 2443 H 229.774 4.67683 3.31581 0
M  V30 2444 H 228.171 5.29564 2.82281 0
M  V30 2445 H 229.241 4.57507 1.60671 0
M  V30 2446 N 230.584 -0.659388 1.43143 0
M  V30 2447 C 231.494 -1.80167 1.50256 0
M  V30 2448 C 232.51 -1.69571 0.390106 0
M  V30 2449 O 233.686 -1.90849 0.643319 0
M  V30 2450 C 230.751 -3.16409 1.41725 0
M  V30 2451 C 229.812 -3.38848 2.63591 0
M  V30 2452 C 229.045 -4.68591 2.55458 0
M  V30 2453 O 229.268 -5.47532 1.59891 0
M  V30 2454 O 228.202 -4.92614 3.45854 0
M  V30 2455 H 232.028 -1.77121 2.46702 0
M  V30 2456 H 229.613 -0.817092 1.25076 0
M  V30 2457 H 231.495 -3.9768 1.39387 0
M  V30 2458 H 230.17 -3.20059 0.484118 0
M  V30 2459 H 229.077 -2.57366 2.71502 0
M  V30 2460 H 230.41 -3.4004 3.55856 0
M  V30 2461 N 232.062 -1.29571 -0.897171 0
M  V30 2462 C 233.292 -1.20408 -1.67886 0
M  V30 2463 C 233.7 0.237429 -1.87704 0
M  V30 2464 O 233.043 1.17048 -1.41582 0
M  V30 2465 C 233.105 -1.84887 -3.08314 0
M  V30 2466 C 232.769 -3.34189 -3.11716 0
M  V30 2467 C 233.766 -4.30374 -2.91675 0
M  V30 2468 C 231.451 -3.75431 -3.33701 0
M  V30 2469 C 233.445 -5.65776 -2.93557 0
M  V30 2470 C 231.132 -5.10955 -3.35214 0
M  V30 2471 C 232.13 -6.05938 -3.15164 0
M  V30 2472 O 231.818 -7.38987 -3.1647 0
M  V30 2473 H 231.55 -0.418289 -0.531046 0
M  V30 2474 H 234.104 -1.71514 -1.13014 0
M  V30 2475 H 232.334 -1.28295 -3.64798 0
M  V30 2476 H 234.023 -1.70011 -3.6858 0
M  V30 2477 H 234.789 -3.99844 -2.74499 0
M  V30 2478 H 230.668 -3.01953 -3.48347 0
M  V30 2479 H 234.212 -6.39889 -2.77826 0
M  V30 2480 H 230.109 -5.4113 -3.51922 0
M  V30 2481 H 230.877 -7.47823 -3.3272 0
M  V30 2482 N 233.54 1.10788 -1.12088 0
M  V30 2483 C 234.472 2.16816 -0.743213 0
M  V30 2484 C 235.485 1.6119 0.228412 0
M  V30 2485 O 236.674 1.78497 0.0102931 0
M  V30 2486 C 233.774 3.38809 -0.0787313 0
M  V30 2487 C 232.947 4.23885 -1.0789 0
M  V30 2488 C 232.006 5.24334 -0.442713 0
M  V30 2489 O 231.032 5.58497 -1.09864 0
M  V30 2490 N 232.234 5.75079 0.791457 0
M  V30 2491 H 234.999 2.49825 -1.65552 0
M  V30 2492 H 232.56 1.26373 -1.012 0
M  V30 2493 H 234.552 4.03107 0.358766 0
M  V30 2494 H 233.122 3.03805 0.736275 0
M  V30 2495 H 232.342 3.55939 -1.69414 0
M  V30 2496 H 233.63 4.77562 -1.75533 0
M  V30 2497 H 233.028 5.49517 1.3434 0
M  V30 2498 H 231.585 6.4118 1.17183 0
M  V30 2499 N 235.018 0.912232 1.28515 0
M  V30 2500 C 235.981 0.404223 2.25607 0
M  V30 2501 C 236.981 -0.468602 1.53821 0
M  V30 2502 O 238.171 -0.271873 1.72065 0
M  V30 2503 C 235.303 -0.420653 3.38295 0
M  V30 2504 H 236.496 1.26188 2.7206 0
M  V30 2505 H 234.049 0.691495 1.40171 0
M  V30 2506 H 234.784 -1.29777 2.97201 0
M  V30 2507 H 234.569 0.204935 3.91564 0
M  V30 2508 H 236.059 -0.766971 4.10496 0
M  V30 2509 N 236.496 -1.42363 0.676048 0
M  V30 2510 C 237.426 -2.33497 0.0124832 0
M  V30 2511 C 238.407 -1.50748 -0.787981 0
M  V30 2512 O 239.592 -1.79346 -0.744884 0
M  V30 2513 C 236.722 -3.34377 -0.938582 0
M  V30 2514 C 235.676 -4.27289 -0.246622 0
M  V30 2515 C 235.002 -5.18386 -1.31071 0
M  V30 2516 C 236.302 -5.14916 0.875125 0
M  V30 2517 H 237.996 -2.89233 0.773593 0
M  V30 2518 H 235.542 -1.39073 0.37346 0
M  V30 2519 H 237.495 -3.97044 -1.41188 0
M  V30 2520 H 236.219 -2.76947 -1.73113 0
M  V30 2521 H 234.878 -3.66018 0.206456 0
M  V30 2522 H 234.526 -4.57282 -2.09528 0
M  V30 2523 H 234.226 -5.81378 -0.852839 0
M  V30 2524 H 235.75 -5.83929 -1.78492 0
M  V30 2525 H 237.164 -5.71262 0.482983 0
M  V30 2526 H 235.561 -5.86747 1.25887 0
M  V30 2527 H 236.631 -4.53242 1.72335 0
M  V30 2528 N 237.974 -0.419461 -1.51915 0
M  V30 2529 C 238.937 0.389116 -2.25873 0
M  V30 2530 C 239.937 0.964924 -1.28631 0
M  V30 2531 O 241.127 0.842179 -1.52489 0
M  V30 2532 C 238.259 1.54874 -3.03689 0
M  V30 2533 H 239.452 -0.258799 -2.98781 0
M  V30 2534 H 237.005 -0.172209 -1.55348 0
M  V30 2535 H 237.74 2.23323 -2.35154 0
M  V30 2536 H 237.525 1.14223 -3.75094 0
M  V30 2537 H 239.015 2.12046 -3.59759 0
M  V30 2538 N 239.452 1.56882 -0.150215 0
M  V30 2539 C 240.868 1.58263 0.20617 0
M  V30 2540 C 241.068 1.16464 1.64434 0
M  V30 2541 O 240.124 0.866422 2.3717 0
M  V30 2542 C 241.437 3.00649 -0.0555025 0
M  V30 2543 C 242.985 3.12999 0.00795388 0
M  V30 2544 C 243.46 4.5744 -0.226429 0
M  V30 2545 N 244.951 4.62875 -0.173469 0
M  V30 2546 C 245.686 5.72454 -0.329288 0
M  V30 2547 N 245.182 6.90669 -0.543005 0
M  V30 2548 N 246.975 5.61467 -0.266666 0
M  V30 2549 H 239.126 1.82345 -1.08922 0
M  V30 2550 H 241.389 0.844149 -0.431413 0
M  V30 2551 H 241.095 3.3563 -1.05096 0
M  V30 2552 H 240.969 3.71337 0.66246 0
M  V30 2553 H 243.356 2.77857 0.993966 0
M  V30 2554 H 243.437 2.4479 -0.742388 0
M  V30 2555 H 243.081 4.93287 -1.20956 0
M  V30 2556 H 243.011 5.2378 0.544274 0
M  V30 2557 H 245.502 3.77898 -0.0130709 0
M  V30 2558 H 245.815 7.70045 -0.651922 0
M  V30 2559 H 244.16 6.92581 -0.579366 0
M  V30 2560 H 247.351 4.67992 -0.100441 0
M  V30 2561 H 247.524 6.46816 -0.391535 0
M  V30 2562 N 240.93 -0.123565 1.57115 0
M  V30 2563 C 242.207 -0.862196 1.75572 0
M  V30 2564 C 242.587 -1.98279 0.724475 0
M  V30 2565 O 241.935 -2.27102 -0.252407 0
M  V30 2566 C 242.145 -1.38309 3.20424 0
M  V30 2567 C 243.493 -1.83724 3.82793 0
M  V30 2568 O 244.517 -1.47999 3.23998 0
M  V30 2569 O 243.376 -2.49685 4.86127 0
M  V30 2570 H 240.47 -0.409113 0.718718 0
M  V30 2571 H 243.016 -0.107661 1.69358 0
M  V30 2572 H 241.788 -0.578889 3.86994 0
M  V30 2573 H 241.411 -2.20046 3.31158 0
M  V30 2574 N 242.408 -1.52605 -0.393616 0
M  V30 2575 C 243.824 -1.41753 -0.733357 0
M  V30 2576 C 244.024 -0.534293 -1.94287 0
M  V30 2577 O 243.08 -0.0059787 -2.52499 0
M  V30 2578 C 244.393 -2.84531 -0.972772 0
M  V30 2579 C 245.941 -2.93978 -1.07453 0
M  V30 2580 C 246.416 -4.37756 -1.3466 0
M  V30 2581 N 247.907 -4.4106 -1.41492 0
M  V30 2582 C 248.642 -5.49387 -1.642 0
M  V30 2583 N 248.138 -6.67806 -1.8441 0
M  V30 2584 N 249.931 -5.36923 -1.66342 0
M  V30 2585 H 242.082 -2.08555 0.402328 0
M  V30 2586 H 244.345 -0.940654 0.117789 0
M  V30 2587 H 244.051 -3.51353 -0.156204 0
M  V30 2588 H 243.925 -3.26508 -1.88871 0
M  V30 2589 H 246.312 -2.27326 -1.88167 0
M  V30 2590 H 246.393 -2.55435 -0.136605 0
M  V30 2591 H 246.037 -5.04972 -0.544581 0
M  V30 2592 H 245.967 -4.73848 -2.2973 0
M  V30 2593 H 248.458 -3.55705 -1.27601 0
M  V30 2594 H 248.771 -7.46141 -2.01231 0
M  V30 2595 H 247.116 -6.70843 -1.81644 0
M  V30 2596 H 250.307 -4.43381 -1.50102 0
M  V30 2597 H 250.48 -6.21416 -1.837 0
M  V30 2598 N 243.887 0.651787 -1.4349 0
M  V30 2599 C 245.164 1.40909 -1.35661 0
M  V30 2600 C 245.544 2.11099 -0.00511733 0
M  V30 2601 O 244.892 2.04892 1.0115 0
M  V30 2602 C 245.102 2.3926 -2.54078 0
M  V30 2603 C 246.45 3.03217 -2.97228 0
M  V30 2604 O 247.474 2.49588 -2.54135 0
M  V30 2605 O 246.333 4.00455 -3.71885 0
M  V30 2606 H 243.427 0.629625 -0.536191 0
M  V30 2607 H 245.973 0.678575 -1.55542 0
M  V30 2608 H 244.745 1.86352 -3.44076 0
M  V30 2609 H 244.368 3.1976 -2.36303 0
M  V30 2610 N 245.365 1.30045 0.890287 0
M  V30 2611 C 246.611 1.19747 1.64415 0
M  V30 2612 C 246.966 -0.246591 1.90813 0
M  V30 2613 O 246.259 -1.174 1.51419 0
M  V30 2614 C 246.453 1.95409 2.99249 0
M  V30 2615 C 246.282 3.47025 2.86013 0
M  V30 2616 C 245.052 4.1638 2.86279 0
M  V30 2617 C 247.25 4.42353 2.62351 0
M  V30 2618 N 245.232 5.54293 2.63879 0
M  V30 2619 C 246.603 5.67792 2.49022 0
M  V30 2620 C 248.658 4.32009 2.47533 0
M  V30 2621 C 247.361 6.8406 2.22383 0
M  V30 2622 C 249.387 5.48038 2.22279 0
M  V30 2623 C 248.749 6.72455 2.09722 0
M  V30 2624 H 244.848 0.493223 0.60684 0
M  V30 2625 H 247.432 1.6399 1.04954 0
M  V30 2626 H 245.603 1.53565 3.56752 0
M  V30 2627 H 247.335 1.77298 3.63796 0
M  V30 2628 H 244.09 3.68164 2.97913 0
M  V30 2629 H 244.514 6.26852 2.55706 0
M  V30 2630 H 249.156 3.36503 2.55979 0
M  V30 2631 H 246.874 7.79612 2.12675 0
M  V30 2632 H 250.46 5.41939 2.11643 0
M  V30 2633 H 249.34 7.60722 1.90453 0
M  V30 2634 N 246.843 -1.10192 1.12674 0
M  V30 2635 C 248.089 -1.82658 0.894847 0
M  V30 2636 C 248.444 -1.83666 -0.573107 0
M  V30 2637 O 247.737 -1.28816 -1.41835 0
M  V30 2638 C 247.931 -3.28552 1.4067 0
M  V30 2639 C 247.76 -3.41756 2.92289 0
M  V30 2640 C 246.53 -3.54021 3.60551 0
M  V30 2641 C 248.728 -3.34949 3.90274 0
M  V30 2642 N 246.71 -3.55827 5.0026 0
M  V30 2643 C 248.081 -3.43531 5.16127 0
M  V30 2644 C 250.136 -3.18565 3.8265 0
M  V30 2645 C 248.839 -3.37416 6.3525 0
M  V30 2646 C 250.865 -3.13772 5.01299 0
M  V30 2647 C 250.227 -3.22938 6.26012 0
M  V30 2648 H 246.326 -0.683044 0.380756 0
M  V30 2649 H 248.91 -1.31752 1.43351 0
M  V30 2650 H 247.081 -3.77946 0.895055 0
M  V30 2651 H 248.813 -3.88991 1.11661 0
M  V30 2652 H 245.568 -3.57135 3.1105 0
M  V30 2653 H 245.992 -3.60335 5.73138 0
M  V30 2654 H 250.634 -3.10354 2.87124 0
M  V30 2655 H 248.352 -3.44391 7.3104 0
M  V30 2656 H 251.938 -3.02242 4.97133 0
M  V30 2657 H 250.818 -3.19235 7.16281 0
M  V30 2658 N 248.321 -0.919034 -1.28029 0
M  V30 2659 C 249.569 -0.553838 -1.94363 0
M  V30 2660 C 249.89 0.906357 -1.72656 0
M  V30 2661 O 249.16 1.64143 -1.0693 0
M  V30 2662 H 247.74 -0.201834 -0.719216 0
M  V30 2663 H 250.402 -1.16954 -1.55909 0
M  V30 2664 H 249.498 -0.752758 -3.02886 0
M  V30 2665 N 249.799 1.42003 -0.683588 0
M  V30 2666 C 251.048 2.00638 -0.206681 0
M  V30 2667 C 251.361 1.5472 1.19671 0
M  V30 2668 O 252.567 2.05833 1.77045 0
M  V30 2669 C 251.023 3.58487 -0.318632 0
M  V30 2670 C 250.631 4.1339 -1.72663 0
M  V30 2671 C 252.375 4.24384 0.0991141 0
M  V30 2672 C 250.282 5.63633 -1.79087 0
M  V30 2673 H 249.212 0.750408 -0.0735107 0
M  V30 2674 H 251.863 1.62624 -0.850048 0
M  V30 2675 H 250.245 3.94047 0.392781 0
M  V30 2676 H 251.419 3.89273 -2.46583 0
M  V30 2677 H 249.734 3.59976 -2.09299 0
M  V30 2678 H 252.331 5.34652 0.0713833 0
M  V30 2679 H 252.674 4.00505 1.13586 0
M  V30 2680 H 253.207 3.93816 -0.561599 0
M  V30 2681 H 249.946 5.92323 -2.80774 0
M  V30 2682 H 249.466 5.89714 -1.09535 0
M  V30 2683 H 251.145 6.28201 -1.5483 0
M  V30 2684 N 251.277 0.427512 1.51691 0
M  V30 2685 C 252.24 -0.377132 2.26076 0
M  V30 2686 C 253.24 -0.958089 1.29141 0
M  V30 2687 O 254.43 -0.83408 1.52934 0
M  V30 2688 C 251.562 -1.53262 3.04506 0
M  V30 2689 H 252.755 0.27464 2.9864 0
M  V30 2690 H 250.308 0.180445 1.55255 0
M  V30 2691 H 251.043 -2.22072 2.36335 0
M  V30 2692 H 250.828 -1.12232 3.75694 0
M  V30 2693 H 252.318 -2.10135 3.60878 0
M  V30 2694 N 252.755 -1.56801 0.158532 0
M  V30 2695 C 253.687 -2.14488 -0.807923 0
M  V30 2696 C 254.7 -1.09721 -1.20271 0
M  V30 2697 O 255.889 -1.36956 -1.14478 0
M  V30 2698 C 252.989 -2.66217 -2.09718 0
M  V30 2699 C 252.162 -3.95507 -1.86796 0
M  V30 2700 C 251.221 -4.3243 -2.99818 0
M  V30 2701 O 250.247 -5.00543 -2.71008 0
M  V30 2702 N 251.449 -3.92947 -4.27285 0
M  V30 2703 H 254.214 -2.98042 -0.314816 0
M  V30 2704 H 251.775 -1.61881 -0.0246692 0
M  V30 2705 H 253.767 -2.87924 -2.84398 0
M  V30 2706 H 252.337 -1.87324 -2.50257 0
M  V30 2707 H 251.557 -3.82309 -0.96089 0
M  V30 2708 H 252.845 -4.79972 -1.68833 0
M  V30 2709 H 252.243 -3.38087 -4.53557 0
M  V30 2710 H 250.8 -4.19681 -4.9871 0
M  V30 2711 N 254.233 0.115231 -1.57178 0
M  V30 2712 C 255.196 1.12526 -1.99676 0
M  V30 2713 C 256.196 1.34095 -0.88742 0
M  V30 2714 O 257.386 1.30548 -1.15337 0
M  V30 2715 C 254.518 2.4789 -2.34015 0
M  V30 2716 H 255.711 0.759912 -2.90113 0
M  V30 2717 H 253.264 0.359648 -1.52106 0
M  V30 2718 H 253.999 2.89339 -1.4647 0
M  V30 2719 H 253.784 2.33588 -3.14927 0
M  V30 2720 H 255.274 3.20575 -2.67622 0
M  V30 2721 N 255.711 1.52812 0.385517 0
M  V30 2722 C 256.621 1.80766 1.49535 0
M  V30 2723 C 257.637 0.694651 1.59532 0
M  V30 2724 O 258.813 0.982611 1.75803 0
M  V30 2725 C 255.878 1.97381 2.85029 0
M  V30 2726 C 254.939 3.21295 2.84724 0
M  V30 2727 C 254.172 3.37108 4.13756 0
M  V30 2728 O 254.395 2.5765 5.08893 0
M  V30 2729 O 253.329 4.30378 4.20783 0
M  V30 2730 H 257.155 2.75015 1.28842 0
M  V30 2731 H 254.74 1.37946 0.573697 0
M  V30 2732 H 256.622 2.09996 3.65349 0
M  V30 2733 H 255.297 1.06322 3.05741 0
M  V30 2734 H 254.204 3.1412 2.03174 0
M  V30 2735 H 255.537 4.12212 2.68965 0
M  V30 2736 N 257.189 -0.644168 1.43834 0
M  V30 2737 C 258.438 -1.39985 1.45214 0
M  V30 2738 C 258.751 -1.95421 0.0835494 0
M  V30 2739 O 259.957 -2.71488 -0.0251748 0
M  V30 2740 C 258.413 -2.53384 2.55587 0
M  V30 2741 C 258.021 -2.04517 3.98594 0
M  V30 2742 C 259.765 -3.30685 2.66172 0
M  V30 2743 C 257.672 -3.1518 5.00416 0
M  V30 2744 H 256.602 -0.526005 0.540218 0
M  V30 2745 H 259.253 -0.694367 1.69855 0
M  V30 2746 H 257.635 -3.26446 2.24163 0
M  V30 2747 H 258.809 -1.38405 4.39523 0
M  V30 2748 H 257.124 -1.40068 3.92135 0
M  V30 2749 H 259.721 -4.13158 3.39418 0
M  V30 2750 H 260.064 -3.79312 1.71546 0
M  V30 2751 H 260.597 -2.64708 2.96942 0
M  V30 2752 H 257.336 -2.71511 5.96625 0
M  V30 2753 H 256.856 -3.79974 4.64091 0
M  V30 2754 H 258.535 -3.80166 5.23529 0
M  V30 2755 N 258.668 -1.30515 -0.883378 0
M  V30 2756 C 259.917 -1.18795 -1.63005 0
M  V30 2757 C 260.23 0.255923 -1.93919 0
M  V30 2758 O 261.436 0.494654 -2.66956 0
M  V30 2759 C 259.892 -2.07878 -2.93794 0
M  V30 2760 C 259.5 -3.57184 -2.70414 0
M  V30 2761 C 261.244 -2.04924 -3.71761 0
M  V30 2762 C 259.151 -4.38317 -3.97029 0
M  V30 2763 H 258.081 -0.441031 -0.611562 0
M  V30 2764 H 260.732 -1.55275 -0.977854 0
M  V30 2765 H 259.114 -1.64283 -3.60315 0
M  V30 2766 H 260.288 -4.08937 -2.12384 0
M  V30 2767 H 258.603 -3.61976 -2.0582 0
M  V30 2768 H 261.2 -2.62792 -4.65665 0
M  V30 2769 H 261.543 -1.0331 -4.03277 0
M  V30 2770 H 262.076 -2.46649 -3.12104 0
M  V30 2771 H 258.815 -5.40632 -3.70671 0
M  V30 2772 H 258.335 -3.91326 -4.54559 0
M  V30 2773 H 260.014 -4.49834 -4.65036 0
M  V30 2774 N 260.146 1.09593 -1.13257 0
M  V30 2775 C 261.557 1.63229 -0.906274 0
M  V30 2776 C 261.908 1.8811 0.557578 0
M  V30 2777 O 261.033 1.62953 1.42391 0
M  V30 2778 C 261.628 2.96535 -1.63867 0
M  V30 2779 C 260.187 3.47003 -1.45828 0
M  V30 2780 C 259.334 2.2145 -1.66898 0
M  V30 2781 H 262.285 0.92978 -1.28611 0
M  V30 2782 H 262.306 3.64411 -1.09476 0
M  V30 2783 H 261.818 2.78394 -2.70404 0
M  V30 2784 H 259.919 3.70272 -0.415848 0
M  V30 2785 H 260.032 4.24551 -2.2202 0
M  V30 2786 H 258.396 2.30022 -1.09371 0
M  V30 2787 H 259.179 2.0583 -2.74752 0
M  V30 2788 N 261.624 0.925811 1.2754 0
M  V30 2789 C 262.871 0.565255 1.94451 0
M  V30 2790 C 263.199 -0.89316 1.7278 0
M  V30 2791 O 262.454 -1.65213 1.04895 0
M  V30 2792 C 262.753 0.835296 3.47502 0
M  V30 2793 C 262.419 2.27515 3.89291 0
M  V30 2794 C 261.081 2.66879 4.00411 0
M  V30 2795 C 263.433 3.21158 4.10496 0
M  V30 2796 C 260.761 3.99014 4.30122 0
M  V30 2797 C 263.113 4.52871 4.4169 0
M  V30 2798 C 261.777 4.92072 4.51023 0
M  V30 2799 H 261.047 0.206841 0.711546 0
M  V30 2800 H 263.694 1.16942 1.51647 0
M  V30 2801 H 261.999 0.148442 3.91519 0
M  V30 2802 H 263.696 0.535322 3.97411 0
M  V30 2803 H 260.286 1.95976 3.81171 0
M  V30 2804 H 264.47 2.9195 4.01346 0
M  V30 2805 H 259.726 4.2907 4.35556 0
M  V30 2806 H 263.9 5.25436 4.57045 0
M  V30 2807 H 261.527 5.9449 4.738 0
M  V30 2808 N 263.102 -1.41638 0.69111 0
M  V30 2809 C 264.032 -2.3347 0.037248 0
M  V30 2810 C 265.013 -1.51575 -0.771947 0
M  V30 2811 O 266.198 -1.80126 -0.72582 0
M  V30 2812 C 263.328 -3.35354 -0.903064 0
M  V30 2813 C 262.282 -4.27526 -0.201288 0
M  V30 2814 C 261.608 -5.19747 -1.25565 0
M  V30 2815 C 262.908 -5.13959 0.929689 0
M  V30 2816 H 264.602 -2.88397 0.804227 0
M  V30 2817 H 262.148 -1.38669 0.388189 0
M  V30 2818 H 264.101 -3.98519 -1.36969 0
M  V30 2819 H 262.825 -2.78767 -1.70166 0
M  V30 2820 H 261.484 -3.65779 0.245265 0
M  V30 2821 H 261.132 -4.59479 -2.04666 0
M  V30 2822 H 260.832 -5.8225 -0.791128 0
M  V30 2823 H 262.356 -5.85789 -1.72288 0
M  V30 2824 H 263.77 -5.70718 0.543546 0
M  V30 2825 H 262.167 -5.85379 1.32103 0
M  V30 2826 H 263.237 -4.51389 1.77133 0
M  V30 2827 N 264.58 -0.43555 -1.51462 0
M  V30 2828 C 265.543 0.365137 -2.26273 0
M  V30 2829 C 266.543 0.951227 -1.29647 0
M  V30 2830 O 267.733 0.825958 -1.53374 0
M  V30 2831 C 264.865 1.51645 -3.05314 0
M  V30 2832 H 266.058 -0.290474 -2.9849 0
M  V30 2833 H 263.611 -0.188676 -1.55157 0
M  V30 2834 H 264.346 2.20816 -2.3751 0
M  V30 2835 H 264.131 1.10238 -3.76284 0
M  V30 2836 H 265.621 2.08218 -3.61987 0
M  V30 2837 N 266.058 1.56714 -0.166846 0
M  V30 2838 C 267.474 1.58473 0.189372 0
M  V30 2839 C 267.674 1.18201 1.63189 0
M  V30 2840 O 266.73 0.891528 2.36237 0
M  V30 2841 C 268.043 3.00573 -0.0873872 0
M  V30 2842 C 269.591 3.1299 -0.0252443 0
M  V30 2843 C 270.066 4.57174 -0.274934 0
M  V30 2844 N 271.557 4.62665 -0.222553 0
M  V30 2845 C 272.292 5.72072 -0.389985 0
M  V30 2846 N 271.788 6.90054 -0.616229 0
M  V30 2847 N 273.581 5.61153 -0.326202 0
M  V30 2848 H 265.732 1.8118 -1.10849 0
M  V30 2849 H 267.995 0.839525 -0.440342 0
M  V30 2850 H 267.701 3.34497 -1.0865 0
M  V30 2851 H 267.575 3.72019 0.623037 0
M  V30 2852 H 269.962 2.78895 0.96444 0
M  V30 2853 H 270.043 2.43989 -0.768309 0
M  V30 2854 H 269.687 4.91976 -1.26181 0
M  V30 2855 H 269.617 5.24328 0.48869 0
M  V30 2856 H 272.108 3.77863 -0.0531512 0
M  V30 2857 H 272.421 7.69311 -0.733559 0
M  V30 2858 H 270.766 6.91927 -0.652791 0
M  V30 2859 H 273.957 4.67859 -0.150072 0
M  V30 2860 H 274.13 6.46364 -0.460116 0
M  V30 2861 N 267.536 -0.106894 1.57237 0
M  V30 2862 C 268.764 -0.826389 1.8968 0
M  V30 2863 C 269.179 -1.72856 0.759353 0
M  V30 2864 O 268.536 -1.80503 -0.269263 0
M  V30 2865 C 268.587 -1.64967 3.21665 0
M  V30 2866 O 268.308 -0.783804 4.31031 0
M  V30 2867 C 269.809 -2.47326 3.67892 0
M  V30 2868 H 267.029 -0.236927 0.627779 0
M  V30 2869 H 269.573 -0.0876593 2.04312 0
M  V30 2870 H 267.728 -2.34103 3.08666 0
M  V30 2871 H 268.142 -1.35284 5.06753 0
M  V30 2872 H 269.616 -3.00604 4.6297 0
M  V30 2873 H 270.093 -3.25247 2.95146 0
M  V30 2874 H 270.699 -1.83411 3.83719 0
M  V30 2875 N 269.014 -1.53014 -0.377408 0
M  V30 2876 C 270.244 -1.72265 -1.14054 0
M  V30 2877 C 270.652 -0.44601 -1.83868 0
M  V30 2878 O 269.995 0.590095 -1.73964 0
M  V30 2879 C 270.057 -2.82492 -2.22348 0
M  V30 2880 C 269.721 -4.23233 -1.72402 0
M  V30 2881 C 270.718 -5.05992 -1.19448 0
M  V30 2882 C 268.403 -4.696 -1.78273 0
M  V30 2883 C 270.397 -6.33203 -0.730268 0
M  V30 2884 C 268.084 -5.96792 -1.31464 0
M  V30 2885 C 269.082 -6.78424 -0.789297 0
M  V30 2886 O 268.77 -8.0323 -0.328077 0
M  V30 2887 H 268.502 -0.579873 -0.347453 0
M  V30 2888 H 271.056 -2.00502 -0.445882 0
M  V30 2889 H 269.286 -2.49702 -2.95272 0
M  V30 2890 H 270.975 -2.90034 -2.83963 0
M  V30 2891 H 271.741 -4.71349 -1.14259 0
M  V30 2892 H 267.62 -4.06142 -2.18106 0
M  V30 2893 H 271.164 -6.96868 -0.319542 0
M  V30 2894 H 267.061 -6.30937 -1.36342 0
M  V30 2895 H 267.829 -8.1727 -0.448493 0
M  V30 2896 N 270.492 0.636531 -1.44174 0
M  V30 2897 C 271.903 1.21806 -1.41493 0
M  V30 2898 C 272.254 1.95785 -0.1275 0
M  V30 2899 O 271.379 2.02147 0.772376 0
M  V30 2900 C 271.974 2.21551 -2.56321 0
M  V30 2901 C 270.533 2.75143 -2.56853 0
M  V30 2902 C 269.68 1.50052 -2.33195 0
M  V30 2903 H 272.631 0.427531 -1.52833 0
M  V30 2904 H 272.652 3.0405 -2.28765 0
M  V30 2905 H 272.164 1.67679 -3.50008 0
M  V30 2906 H 270.265 3.33033 -1.67093 0
M  V30 2907 H 270.378 3.2155 -3.55165 0
M  V30 2908 H 268.742 1.77993 -1.82183 0
M  V30 2909 H 269.525 0.980903 -3.28988 0
M  V30 2910 N 271.97 1.30982 0.876444 0
M  V30 2911 C 272.9 1.20668 1.99903 0
M  V30 2912 C 273.881 0.095354 1.69833 0
M  V30 2913 O 275.066 0.27885 1.92188 0
M  V30 2914 C 272.196 0.90655 3.3526 0
M  V30 2915 C 271.15 1.97675 3.79617 0
M  V30 2916 C 270.476 1.52943 5.1236 0
M  V30 2917 C 271.776 3.389 3.97422 0
M  V30 2918 H 273.47 2.14586 2.0879 0
M  V30 2919 H 271.016 1.03308 1.00317 0
M  V30 2920 H 272.969 0.821025 4.13324 0
M  V30 2921 H 271.693 -0.0682969 3.26529 0
M  V30 2922 H 270.352 2.05205 3.03787 0
M  V30 2923 H 270 0.54262 5.00065 0
M  V30 2924 H 269.7 2.24532 5.43009 0
M  V30 2925 H 271.224 1.45786 5.92941 0
M  V30 2926 H 272.638 3.34081 4.659 0
M  V30 2927 H 271.035 4.0865 4.3946 0
M  V30 2928 H 272.105 3.80163 3.01006 0
M  V30 2929 N 273.449 -1.08991 1.13837 0
M  V30 2930 C 274.697 -1.80899 0.901098 0
M  V30 2931 C 275.018 -1.86356 -0.574134 0
M  V30 2932 O 274.288 -1.35235 -1.41733 0
M  V30 2933 H 272.868 -0.669966 0.330386 0
M  V30 2934 H 275.53 -1.318 1.43578 0
M  V30 2935 H 274.626 -2.83929 1.29578 0
M  V30 2936 N 274.927 -0.932562 -1.27047 0
M  V30 2937 C 275.837 -0.441219 -2.30414 0
M  V30 2938 C 276.853 0.480525 -1.67233 0
M  V30 2939 O 278.029 0.362151 -1.98117 0
M  V30 2940 C 275.094 0.293651 -3.45454 0
M  V30 2941 C 274.155 -0.663601 -4.2414 0
M  V30 2942 C 273.388 0.0362932 -5.33688 0
M  V30 2943 O 273.611 1.2548 -5.56427 0
M  V30 2944 O 272.545 -0.638015 -5.98509 0
M  V30 2945 H 276.371 -1.29962 -2.74488 0
M  V30 2946 H 273.956 -0.6981 -1.32087 0
M  V30 2947 H 275.838 0.707951 -4.15411 0
M  V30 2948 H 274.513 1.12758 -3.03426 0
M  V30 2949 H 273.42 -1.12768 -3.56699 0
M  V30 2950 H 274.753 -1.46489 -4.69896 0
M  V30 2951 N 276.405 1.4127 -0.698611 0
M  V30 2952 C 277.368 2.29158 -0.044132 0
M  V30 2953 C 278.368 1.44529 0.704841 0
M  V30 2954 O 279.558 1.65643 0.539276 0
M  V30 2955 C 276.69 3.27459 0.947809 0
M  V30 2956 H 277.883 2.88529 -0.817994 0
M  V30 2957 H 275.436 1.49307 -0.46228 0
M  V30 2958 H 276.171 2.73073 1.74933 0
M  V30 2959 H 275.956 3.8991 0.41385 0
M  V30 2960 H 277.446 3.93311 1.40344 0
M  V30 2961 N 277.883 0.443576 1.51229 0
M  V30 2962 C 279.294 -0.0180867 1.86691 0
M  V30 2963 C 279.645 -1.41384 1.36033 0
M  V30 2964 O 278.77 -2.04291 0.713722 0
M  V30 2965 C 279.365 -0.039597 3.38777 0
M  V30 2966 C 277.924 -0.445692 3.73752 0
M  V30 2967 C 277.071 0.357584 2.74985 0
M  V30 2968 H 280.022 0.659138 1.44364 0
M  V30 2969 H 280.043 -0.847761 3.70936 0
M  V30 2970 H 279.555 0.976382 3.75617 0
M  V30 2971 H 277.656 -1.46704 3.42503 0
M  V30 2972 H 277.769 -0.166155 4.78812 0
M  V30 2973 H 276.133 -0.184973 2.54027 0
M  V30 2974 H 276.916 1.37256 3.14668 0
M  V30 2975 N 279.361 -1.56624 0.175154 0
M  V30 2976 C 280.638 -1.88688 -0.515373 0
M  V30 2977 C 281.018 -1.08564 -1.81044 0
M  V30 2978 O 280.366 -0.180703 -2.27784 0
M  V30 2979 C 280.576 -3.40768 -0.753552 0
M  V30 2980 C 281.924 -4.10587 -1.08184 0
M  V30 2981 O 282.948 -3.46106 -0.841961 0
M  V30 2982 O 281.807 -5.24512 -1.53459 0
M  V30 2983 H 278.901 -0.78301 -0.26613 0
M  V30 2984 H 281.447 -1.68347 0.213877 0
M  V30 2985 H 280.219 -3.90965 0.161829 0
M  V30 2986 H 279.842 -3.66733 -1.53598 0
M  V30 2987 N 280.839 0.0985539 -1.57292 0
M  V30 2988 C 281.802 1.10402 -2.00858 0
M  V30 2989 C 282.802 1.33146 -0.901593 0
M  V30 2990 O 283.992 1.29318 -1.16716 0
M  V30 2991 C 281.124 2.45394 -2.36632 0
M  V30 2992 H 282.317 0.729099 -2.90902 0
M  V30 2993 H 279.87 0.343495 -1.52479 0
M  V30 2994 H 280.605 2.87769 -1.49531 0
M  V30 2995 H 280.39 2.30235 -3.17387 0
M  V30 2996 H 281.88 3.17718 -2.71007 0
M  V30 2997 N 282.317 1.53212 0.369288 0
M  V30 2998 C 283.547 1.72868 1.13139 0
M  V30 2999 C 283.955 0.455754 1.83629 0
M  V30 3000 O 283.298 -0.580861 1.74275 0
M  V30 3001 C 283.36 2.83667 2.20847 0
M  V30 3002 C 283.024 4.24142 1.70155 0
M  V30 3003 C 284.021 5.06619 1.16763 0
M  V30 3004 C 281.706 4.70539 1.7578 0
M  V30 3005 C 283.7 6.33581 0.696678 0
M  V30 3006 C 281.387 5.97481 1.28297 0
M  V30 3007 C 282.385 6.78833 0.753307 0
M  V30 3008 O 282.073 8.03393 0.285475 0
M  V30 3009 H 281.805 0.581707 0.344373 0
M  V30 3010 H 284.359 2.00736 0.435243 0
M  V30 3011 H 282.589 2.51265 2.93944 0
M  V30 3012 H 284.278 2.91536 2.82421 0
M  V30 3013 H 285.044 4.71948 1.11758 0
M  V30 3014 H 280.923 4.07293 2.15949 0
M  V30 3015 H 284.467 6.97027 0.282581 0
M  V30 3016 H 280.364 6.31651 1.32994 0
M  V30 3017 H 281.132 8.17497 0.405145 0
M  V30 3018 N 283.795 -0.628877 1.44509 0
M  V30 3019 C 284.758 -1.72263 1.51188 0
M  V30 3020 C 285.758 -1.55907 0.39367 0
M  V30 3021 O 286.948 -1.61361 0.656377 0
M  V30 3022 C 284.08 -3.11365 1.38798 0
M  V30 3023 H 285.273 -1.67714 2.4862 0
M  V30 3024 H 282.826 -0.842737 1.31634 0
M  V30 3025 H 283.561 -3.21507 0.424693 0
M  V30 3026 H 283.346 -3.24644 2.19884 0
M  V30 3027 H 284.836 -3.91075 1.46458 0
M  V30 3028 N 285.273 -1.31445 -0.869486 0
M  V30 3029 C 286.55 -1.11795 -1.60503 0
M  V30 3030 C 286.93 0.327168 -2.08549 0
M  V30 3031 O 286.278 1.32135 -1.8642 0
M  V30 3032 C 286.488 -2.13258 -2.76265 0
M  V30 3033 C 287.836 -2.45805 -3.46215 0
M  V30 3034 O 288.86 -2.11688 -2.86473 0
M  V30 3035 O 287.719 -3.04228 -4.5399 0
M  V30 3036 H 284.813 -0.430421 -0.706163 0
M  V30 3037 H 287.359 -1.42925 -0.914907 0
M  V30 3038 H 286.131 -3.10461 -2.3818 0
M  V30 3039 H 285.754 -1.83035 -3.52964 0
M  V30 3040 N 286.751 1.08385 -1.14413 0
M  V30 3041 C 288.028 1.77429 -0.823297 0
M  V30 3042 C 288.408 1.9974 0.683163 0
M  V30 3043 O 287.756 1.60739 1.62405 0
M  V30 3044 C 287.966 3.09004 -1.62227 0
M  V30 3045 C 289.314 3.83532 -1.82177 0
M  V30 3046 O 290.338 3.18786 -1.58915 0
M  V30 3047 O 289.197 4.99792 -2.21067 0
M  V30 3048 H 286.291 0.769999 -0.301712 0
M  V30 3049 H 288.837 1.14846 -1.24934 0
M  V30 3050 H 287.609 2.88316 -2.64555 0
M  V30 3051 H 287.232 3.79316 -1.19187 0
M  V30 3052 N 288.23 0.939286 1.26551 0
M  V30 3053 C 289.193 0.451987 2.24699 0
M  V30 3054 C 290.193 -0.435869 1.5478 0
M  V30 3055 O 291.383 -0.235314 1.72603 0
M  V30 3056 C 288.515 -0.348801 3.39111 0
M  V30 3057 H 289.708 1.3193 2.69322 0
M  V30 3058 H 287.261 0.721072 1.38673 0
M  V30 3059 H 287.996 -1.23444 2.99887 0
M  V30 3060 H 287.781 0.287945 3.91041 0
M  V30 3061 H 289.271 -0.679726 4.12031 0
M  V30 3062 N 289.708 -1.40897 0.706093 0
M  V30 3063 C 290.933 -2.05895 0.249435 0
M  V30 3064 C 291.358 -1.52823 -1.09666 0
M  V30 3065 O 290.716 -0.659589 -1.68876 0
M  V30 3066 C 290.764 -3.59872 0.22904 0
M  V30 3067 O 289.868 -4.04708 -0.792784 0
M  V30 3068 H 289.209 -0.653206 0.119241 0
M  V30 3069 H 291.739 -1.80471 0.96391 0
M  V30 3070 H 291.749 -4.07951 0.0634791 0
M  V30 3071 H 290.424 -3.97866 1.21141 0
M  V30 3072 H 289.001 -3.68111 -0.59572 0
M  V30 3073 N 291.186 -0.45159 -1.50991 0
M  V30 3074 C 292.434 0.109857 -2.01801 0
M  V30 3075 C 292.755 1.41958 -1.3369 0
M  V30 3076 O 292.025 1.9003 -0.475951 0
M  V30 3077 H 290.605 0.0435884 -0.745727 0
M  V30 3078 H 293.267 -0.597557 -1.85514 0
M  V30 3079 H 292.363 0.275489 -3.10882 0
M  V30 3080 N 292.664 1.56529 -0.183458 0
M  V30 3081 C 293.627 2.17324 0.728223 0
M  V30 3082 C 294.627 1.12453 1.14939 0
M  V30 3083 O 295.817 1.37902 1.06437 0
M  V30 3084 C 292.949 2.76591 1.99274 0
M  V30 3085 H 294.142 2.99241 0.198772 0
M  V30 3086 H 291.695 1.5616 0.0661391 0
M  V30 3087 H 292.43 1.98441 2.56499 0
M  V30 3088 H 292.215 3.5335 1.69959 0
M  V30 3089 H 293.705 3.23311 2.6431 0
M  V30 3090 N 294.142 -0.090211 1.57342 0
M  V30 3091 C 295.372 -0.805055 1.90269 0
M  V30 3092 C 295.78 -1.72561 0.775842 0
M  V30 3093 O 295.123 -1.81839 -0.260843 0
M  V30 3094 C 295.185 -1.66734 3.18497 0
M  V30 3095 C 294.849 -0.918092 4.47683 0
M  V30 3096 C 295.846 -0.245674 5.19319 0
M  V30 3097 C 293.531 -0.890724 4.94339 0
M  V30 3098 C 295.525 0.444088 6.35851 0
M  V30 3099 C 293.212 -0.197179 6.10782 0
M  V30 3100 C 294.21 0.469044 6.81388 0
M  V30 3101 O 293.898 1.15146 7.95611 0
M  V30 3102 H 293.63 -0.235143 0.633785 0
M  V30 3103 H 296.184 -0.0703805 2.05279 0
M  V30 3104 H 294.414 -2.44437 2.99646 0
M  V30 3105 H 296.103 -2.25919 3.37217 0
M  V30 3106 H 296.869 -0.258246 4.84312 0
M  V30 3107 H 292.748 -1.39873 4.39268 0
M  V30 3108 H 296.292 0.964667 6.90898 0
M  V30 3109 H 292.189 -0.18247 6.45242 0
M  V30 3110 H 292.957 1.05885 8.11622 0
M  V30 3111 N 295.62 -1.53406 -0.361157 0
M  V30 3112 C 296.866 -1.70054 -1.10496 0
M  V30 3113 C 297.199 -0.453278 -1.88836 0
M  V30 3114 O 296.474 0.5495 -1.86576 0
M  V30 3115 C 296.757 -2.95317 -2.06058 0
M  V30 3116 C 296.61 -4.3021 -1.31298 0
M  V30 3117 C 297.929 -3.16193 -3.06121 0
M  V30 3118 H 295.048 -0.618799 -0.400321 0
M  V30 3119 H 297.69 -1.86052 -0.385318 0
M  V30 3120 H 295.84 -2.81809 -2.67425 0
M  V30 3121 H 297.512 -4.55538 -0.726807 0
M  V30 3122 H 295.755 -4.29421 -0.614853 0
M  V30 3123 H 296.426 -5.14 -2.01265 0
M  V30 3124 H 298.902 -3.28916 -2.5486 0
M  V30 3125 H 297.778 -4.05266 -3.70204 0
M  V30 3126 H 298.039 -2.31676 -3.76535 0
M  V30 3127 N 297.098 0.621204 -1.44841 0
M  V30 3128 C 298.028 1.74366 -1.55303 0
M  V30 3129 C 299.009 1.65199 -0.405385 0
M  V30 3130 O 300.194 1.83807 -0.626787 0
M  V30 3131 C 297.324 3.12931 -1.50637 0
M  V30 3132 C 296.278 3.36896 -2.63979 0
M  V30 3133 C 295.604 4.75594 -2.44366 0
M  V30 3134 C 296.904 3.28483 -4.06074 0
M  V30 3135 H 298.598 1.65867 -2.49256 0
M  V30 3136 H 296.144 0.796558 -1.19962 0
M  V30 3137 H 298.097 3.9124 -1.56555 0
M  V30 3138 H 296.821 3.22237 -0.532057 0
M  V30 3139 H 295.48 2.60972 -2.57467 0
M  V30 3140 H 295.128 4.81616 -1.45105 0
M  V30 3141 H 294.828 4.92586 -3.20364 0
M  V30 3142 H 296.352 5.5612 -2.52117 0
M  V30 3143 H 297.766 3.96684 -4.13902 0
M  V30 3144 H 296.163 3.57008 -4.82354 0
M  V30 3145 H 297.233 2.26133 -4.28943 0
M  V30 3146 N 298.576 1.31904 0.862503 0
M  V30 3147 C 299.539 1.20131 1.95195 0
M  V30 3148 C 300.539 0.126409 1.60302 0
M  V30 3149 O 301.729 0.376234 1.70089 0
M  V30 3150 C 298.861 0.845691 3.30244 0
M  V30 3151 H 300.054 2.16943 2.07064 0
M  V30 3152 H 297.607 1.15622 1.05172 0
M  V30 3153 H 298.342 -0.120957 3.24074 0
M  V30 3154 H 298.127 1.62276 3.56944 0
M  V30 3155 H 299.617 0.787418 4.10109 0
M  V30 3156 N 300.054 -1.07777 1.14986 0
M  V30 3157 C 301.302 -1.79934 0.920235 0
M  V30 3158 C 301.623 -1.86955 -0.554336 0
M  V30 3159 O 300.893 -1.36731 -1.40291 0
M  V30 3160 H 299.473 -0.666424 0.337473 0
M  V30 3161 H 302.135 -1.3027 1.44968 0
M  V30 3162 H 301.231 -2.82539 1.32583 0
M  V30 3163 N 301.532 -0.945985 -1.26051 0
M  V30 3164 C 302.948 -0.649045 -1.45807 0
M  V30 3165 C 303.148 0.796158 -1.85104 0
M  V30 3166 O 302.204 1.57233 -1.97571 0
M  V30 3167 C 303.517 -1.61458 -2.53677 0
M  V30 3168 C 305.065 -1.62481 -2.67524 0
M  V30 3169 C 305.54 -2.57776 -3.7857 0
M  V30 3170 N 307.031 -2.5609 -3.85969 0
M  V30 3171 C 307.766 -3.26508 -4.7136 0
M  V30 3172 N 307.262 -4.0637 -5.61102 0
M  V30 3173 N 309.055 -3.15437 -4.65248 0
M  V30 3174 H 301.206 -1.88005 -0.988328 0
M  V30 3175 H 303.469 -0.808198 -0.4955 0
M  V30 3176 H 303.175 -2.64644 -2.31638 0
M  V30 3177 H 303.049 -1.37036 -3.51427 0
M  V30 3178 H 305.436 -0.600167 -2.88933 0
M  V30 3179 H 305.517 -1.90958 -1.70202 0
M  V30 3180 H 305.161 -3.60361 -3.57913 0
M  V30 3181 H 305.091 -2.26587 -4.75359 0
M  V30 3182 H 307.582 -1.98105 -3.21812 0
M  V30 3183 H 307.895 -4.57042 -6.23164 0
M  V30 3184 H 306.24 -4.10469 -5.60839 0
M  V30 3185 H 309.431 -2.52525 -3.94143 0
M  V30 3186 H 309.604 -3.70584 -5.31575 0
M  V30 3187 N 303.011 1.40521 -0.713556 0
M  V30 3188 C 303.943 2.29191 -0.0203126 0
M  V30 3189 C 304.956 1.45723 0.725864 0
M  V30 3190 O 306.145 1.69033 0.573581 0
M  V30 3191 C 303.245 3.2395 0.995486 0
M  V30 3192 C 302.418 4.36262 0.315256 0
M  V30 3193 C 301.477 5.11474 1.23616 0
M  V30 3194 O 300.503 5.64606 0.721719 0
M  V30 3195 N 301.705 5.20638 2.56743 0
M  V30 3196 H 304.47 2.89327 -0.781652 0
M  V30 3197 H 302.031 1.51869 -0.561022 0
M  V30 3198 H 304.023 3.71137 1.61368 0
M  V30 3199 H 302.593 2.64995 1.6582 0
M  V30 3200 H 301.813 3.91228 -0.483106 0
M  V30 3201 H 303.101 5.08558 -0.157004 0
M  V30 3202 H 302.499 4.7895 3.01037 0
M  V30 3203 H 301.056 5.71339 3.13712 0
M  V30 3204 N 304.489 0.459591 1.5075 0
M  V30 3205 C 305.9 0.00171547 1.867 0
M  V30 3206 C 306.251 -1.39934 1.37525 0
M  V30 3207 O 305.376 -2.03523 0.735349 0
M  V30 3208 C 305.971 -0.00366298 3.388 0
M  V30 3209 C 304.53 -0.406026 3.74204 0
M  V30 3210 C 303.677 0.38673 2.7459 0
M  V30 3211 H 306.628 0.674413 1.43657 0
M  V30 3212 H 306.649 -0.808371 3.71814 0
M  V30 3213 H 306.161 1.01617 3.74561 0
M  V30 3214 H 304.262 -1.43063 3.4404 0
M  V30 3215 H 304.375 -0.115362 4.78961 0
M  V30 3216 H 302.739 -0.158019 2.54209 0
M  V30 3217 H 303.522 1.40585 3.13194 0
M  V30 3218 N 305.967 -1.56429 0.191757 0
M  V30 3219 C 307.215 -1.97095 -0.447006 0
M  V30 3220 C 307.536 -1.07967 -1.62383 0
M  V30 3221 O 306.806 -0.150248 -1.95323 0
M  V30 3222 H 305.386 -0.727832 -0.168135 0
M  V30 3223 H 308.048 -1.92911 0.27771 0
M  V30 3224 H 307.144 -3.01848 -0.793371 0
M  V30 3225 N 307.445 0.0818655 -1.57387 0
M  V30 3226 C 308.861 0.436412 -1.53517 0
M  V30 3227 C 309.061 1.79758 -0.910459 0
M  V30 3228 O 308.117 2.47324 -0.508636 0
M  V30 3229 C 309.43 0.386734 -2.98203 0
M  V30 3230 C 310.978 0.467644 -3.09487 0
M  V30 3231 C 311.453 0.447978 -4.55804 0
M  V30 3232 N 312.944 0.508348 -4.60402 0
M  V30 3233 C 313.679 0.515184 -5.71081 0
M  V30 3234 N 313.175 0.477435 -6.91153 0
M  V30 3235 N 314.968 0.560988 -5.59294 0
M  V30 3236 H 307.119 -0.809546 -1.96367 0
M  V30 3237 H 309.382 -0.302733 -0.898363 0
M  V30 3238 H 309.088 -0.546539 -3.47427 0
M  V30 3239 H 308.962 1.20075 -3.57578 0
M  V30 3240 H 311.349 1.39134 -2.60242 0
M  V30 3241 H 311.43 -0.374753 -2.5304 0
M  V30 3242 H 311.074 -0.471826 -5.05704 0
M  V30 3243 H 311.004 1.30777 -5.10103 0
M  V30 3244 H 313.495 0.54218 -3.7399 0
M  V30 3245 H 313.808 0.486299 -7.71268 0
M  V30 3246 H 312.153 0.444278 -6.93579 0
M  V30 3247 H 315.344 0.5881 -4.64391 0
M  V30 3248 H 315.517 0.562846 -6.45551 0
M  V30 3249 N 308.923 1.53595 0.353017 0
M  V30 3250 C 310.171 1.70049 1.09215 0
M  V30 3251 C 310.492 0.461406 1.89463 0
M  V30 3252 O 309.762 -0.524633 1.88744 0
M  V30 3253 H 308.342 0.626912 0.40619 0
M  V30 3254 H 311.004 1.90822 0.396585 0
M  V30 3255 H 310.1 2.56718 1.77488 0
M  V30 3256 N 310.401 -0.613514 1.45168 0
M  V30 3257 C 311.678 -1.37263 1.39349 0
M  V30 3258 C 312.058 -2.11012 0.0610848 0
M  V30 3259 O 311.406 -2.07502 -0.956825 0
M  V30 3260 C 311.616 -2.3244 2.60332 0
M  V30 3261 C 312.964 -2.9523 3.05163 0
M  V30 3262 O 313.988 -2.42762 2.60663 0
M  V30 3263 O 312.847 -3.90454 3.82372 0
M  V30 3264 H 309.941 -0.615188 0.552696 0
M  V30 3265 H 312.487 -0.637097 1.57287 0
M  V30 3266 H 311.259 -1.77164 3.48896 0
M  V30 3267 H 310.882 -3.13383 2.44698 0
M  V30 3268 N 311.879 -1.3236 -0.855495 0
M  V30 3269 C 313.109 -1.25688 -1.6397 0
M  V30 3270 C 313.517 0.177592 -1.88365 0
M  V30 3271 O 312.86 1.12485 -1.45234 0
M  V30 3272 C 312.922 -1.94602 -3.02275 0
M  V30 3273 C 312.586 -3.43937 -3.00926 0
M  V30 3274 C 313.583 -4.39435 -2.77835 0
M  V30 3275 C 311.268 -3.85858 -3.21588 0
M  V30 3276 C 313.262 -5.74829 -2.75409 0
M  V30 3277 C 310.949 -5.21361 -3.18789 0
M  V30 3278 C 311.947 -6.15658 -2.95727 0
M  V30 3279 O 311.635 -7.48681 -2.928 0
M  V30 3280 H 311.367 -0.434972 -0.51747 0
M  V30 3281 H 313.921 -1.75023 -1.075 0
M  V30 3282 H 312.151 -1.39836 -3.60531 0
M  V30 3283 H 313.84 -1.81651 -3.62985 0
M  V30 3284 H 314.606 -4.08374 -2.6164 0
M  V30 3285 H 310.485 -3.12883 -3.38564 0
M  V30 3286 H 314.029 -6.48404 -2.57328 0
M  V30 3287 H 309.926 -5.52052 -3.34528 0
M  V30 3288 H 310.694 -7.5803 -3.0876 0
M  V30 3289 N 313.357 1.07166 -1.15556 0
M  V30 3290 C 314.585 1.83514 -0.955519 0
M  V30 3291 C 315 1.82163 0.49621 0
M  V30 3292 O 314.357 1.23441 1.34419 0
M  V30 3293 C 314.408 3.30515 -1.46432 0
M  V30 3294 O 314.129 3.31937 -2.85918 0
M  V30 3295 C 315.63 4.23625 -1.30603 0
M  V30 3296 H 312.85 0.578926 -0.339244 0
M  V30 3297 H 315.394 1.35265 -1.53374 0
M  V30 3298 H 313.549 3.76106 -0.928584 0
M  V30 3299 H 313.963 4.23794 -3.09029 0
M  V30 3300 H 315.437 5.24831 -1.71047 0
M  V30 3301 H 315.914 4.38485 -0.250441 0
M  V30 3302 H 316.52 3.83871 -1.83094 0
M  V30 3303 N 314.835 0.952656 1.25548 0
M  V30 3304 C 316.083 0.605176 1.92826 0
M  V30 3305 C 316.404 -0.860261 1.74999 0
M  V30 3306 O 315.674 -1.6125 1.11244 0
M  V30 3307 H 314.254 0.220832 0.713612 0
M  V30 3308 H 316.916 1.21047 1.52754 0
M  V30 3309 H 316.012 0.832798 3.00784 0
M  V30 3310 N 316.313 -1.40141 0.720998 0
M  V30 3311 C 317.729 -1.54632 0.395113 0
M  V30 3312 C 317.929 -1.69115 -1.09555 0
M  V30 3313 O 316.985 -1.68377 -1.88163 0
M  V30 3314 C 318.298 -2.77177 1.1659 0
M  V30 3315 C 319.846 -2.91 1.15274 0
M  V30 3316 C 320.321 -4.16465 1.90579 0
M  V30 3317 N 321.812 -4.23476 1.87675 0
M  V30 3318 C 322.547 -5.19475 2.42762 0
M  V30 3319 N 322.043 -6.21348 3.06428 0
M  V30 3320 N 323.836 -5.11592 2.32874 0
M  V30 3321 H 315.987 -1.28986 1.68749 0
M  V30 3322 H 318.25 -0.62412 0.713567 0
M  V30 3323 H 317.956 -2.72771 2.22011 0
M  V30 3324 H 317.83 -3.69442 0.76108 0
M  V30 3325 H 320.217 -2.94907 0.106702 0
M  V30 3326 H 320.298 -1.99838 1.59682 0
M  V30 3327 H 319.942 -4.1332 2.95176 0
M  V30 3328 H 319.872 -5.06646 1.43587 0
M  V30 3329 H 322.363 -3.50497 1.41281 0
M  V30 3330 H 322.676 -6.91034 3.45965 0
M  V30 3331 H 321.021 -6.21777 3.10514 0
M  V30 3332 H 324.212 -4.30936 1.82789 0
M  V30 3333 H 324.385 -5.86233 2.76106 0
M  V30 3334 N 317.792 -0.46758 -1.50504 0
M  V30 3335 C 318.722 0.318381 -2.31319 0
M  V30 3336 C 319.703 0.993564 -1.38066 0
M  V30 3337 O 320.888 0.991411 -1.66987 0
M  V30 3338 C 318.018 1.40275 -3.17711 0
M  V30 3339 C 316.972 0.849373 -4.19487 0
M  V30 3340 C 316.298 2.03177 -4.94594 0
M  V30 3341 C 317.598 -0.136942 -5.2212 0
M  V30 3342 H 319.292 -0.356106 -2.97275 0
M  V30 3343 H 316.838 -0.172703 -1.42961 0
M  V30 3344 H 318.791 1.96004 -3.73042 0
M  V30 3345 H 317.515 2.10596 -2.49634 0
M  V30 3346 H 316.174 0.314076 -3.65252 0
M  V30 3347 H 315.822 2.72187 -4.22993 0
M  V30 3348 H 315.522 1.66774 -5.63436 0
M  V30 3349 H 317.046 2.59403 -5.52759 0
M  V30 3350 H 318.46 0.331056 -5.72343 0
M  V30 3351 H 316.857 -0.41507 -5.98663 0
M  V30 3352 H 317.927 -1.06398 -4.73083 0
M  V30 3353 N 319.27 1.56325 -0.20005 0
M  V30 3354 C 320.516 1.98012 0.438059 0
M  V30 3355 C 320.849 1.08702 1.60927 0
M  V30 3356 O 320.124 0.140064 1.93995 0
M  V30 3357 C 320.407 3.48841 0.893419 0
M  V30 3358 C 320.26 4.48928 -0.279947 0
M  V30 3359 C 321.579 4.03498 1.75719 0
M  V30 3360 H 318.698 0.719918 0.157757 0
M  V30 3361 H 321.34 1.87743 -0.291968 0
M  V30 3362 H 319.49 3.57723 1.51547 0
M  V30 3363 H 321.162 4.52079 -0.91772 0
M  V30 3364 H 319.405 4.23694 -0.930919 0
M  V30 3365 H 320.076 5.5194 0.0812601 0
M  V30 3366 H 322.552 3.97427 1.23253 0
M  V30 3367 H 321.428 5.09393 2.04476 0
M  V30 3368 H 321.689 3.4906 2.71311 0
M  V30 3369 N 320.748 -0.0735177 1.57428 0
M  V30 3370 C 321.678 -1.0879 2.06608 0
M  V30 3371 C 322.659 -1.40473 0.959237 0
M  V30 3372 O 323.844 -1.5013 1.23185 0
M  V30 3373 C 320.974 -2.40183 2.50857 0
M  V30 3374 C 319.928 -2.22858 3.65402 0
M  V30 3375 C 319.254 -3.59619 3.957 0
M  V30 3376 C 320.554 -1.65123 4.95511 0
M  V30 3377 H 322.248 -0.678673 2.91607 0
M  V30 3378 H 319.794 -0.325013 1.40284 0
M  V30 3379 H 321.747 -3.11437 2.83874 0
M  V30 3380 H 320.471 -2.83083 1.62885 0
M  V30 3381 H 319.13 -1.54045 3.32664 0
M  V30 3382 H 318.778 -4.00086 3.04861 0
M  V30 3383 H 318.478 -3.48866 4.72828 0
M  V30 3384 H 320.002 -4.32306 4.31212 0
M  V30 3385 H 321.416 -2.26241 5.26771 0
M  V30 3386 H 319.813 -1.65071 5.7695 0
M  V30 3387 H 320.883 -0.612559 4.81015 0
M  V30 3388 N 322.226 -1.5378 -0.344866 0
M  V30 3389 C 323.173 -1.81676 -1.42346 0
M  V30 3390 C 324.143 -0.662376 -1.52321 0
M  V30 3391 O 325.328 -0.906675 -1.67881 0
M  V30 3392 C 322.468 -2.03087 -2.79015 0
M  V30 3393 C 321.581 -3.30799 -2.77842 0
M  V30 3394 C 320.716 -3.42285 -4.0622 0
M  V30 3395 C 319.755 -4.6395 -3.9927 0
M  V30 3396 N 318.892 -4.72477 -5.19336 0
M  V30 3397 H 323.732 -2.73703 -1.17858 0
M  V30 3398 H 321.269 -1.35568 -0.570949 0
M  V30 3399 H 323.227 -2.1349 -3.58438 0
M  V30 3400 H 321.857 -1.14375 -3.01858 0
M  V30 3401 H 320.909 -3.29244 -1.90533 0
M  V30 3402 H 322.221 -4.20314 -2.68584 0
M  V30 3403 H 321.375 -3.52113 -4.94066 0
M  V30 3404 H 320.114 -2.50823 -4.18258 0
M  V30 3405 H 319.119 -4.54201 -3.09809 0
M  V30 3406 H 320.344 -5.56775 -3.88817 0
M  V30 3407 H 318.29 -3.83924 -5.3192 0
M  V30 3408 H 318.207 -5.55927 -5.12329 0
M  V30 3409 H 319.475 -4.86613 -6.08957 0
M  V30 3410 N 323.704 0.605807 -1.45491 0
M  V30 3411 C 324.651 1.7164 -1.54299 0
M  V30 3412 C 325.621 1.61486 -0.388761 0
M  V30 3413 O 326.806 1.81039 -0.602445 0
M  V30 3414 C 323.946 3.09953 -1.51734 0
M  V30 3415 C 323.059 3.309 -2.77721 0
M  V30 3416 C 322.194 4.59329 -2.66816 0
M  V30 3417 C 321.233 4.7354 -3.87848 0
M  V30 3418 N 320.37 5.9327 -3.75467 0
M  V30 3419 H 325.21 1.63449 -2.49176 0
M  V30 3420 H 322.747 0.796957 -1.23641 0
M  V30 3421 H 324.705 3.89977 -1.48235 0
M  V30 3422 H 323.335 3.17098 -0.604068 0
M  V30 3423 H 322.387 2.44639 -2.913 0
M  V30 3424 H 323.699 3.37274 -3.67488 0
M  V30 3425 H 322.853 5.4755 -2.61292 0
M  V30 3426 H 321.592 4.55355 -1.74651 0
M  V30 3427 H 320.597 3.83741 -3.93729 0
M  V30 3428 H 321.822 4.79309 -4.81082 0
M  V30 3429 H 319.768 5.90338 -2.86072 0
M  V30 3430 H 319.685 6.00811 -4.5887 0
M  V30 3431 H 320.953 6.83984 -3.73879 0
M  V30 3432 N 325.182 1.32811 0.848464 0
M  V30 3433 C 326.145 1.22194 1.9391 0
M  V30 3434 C 327.145 0.143404 1.60159 0
M  V30 3435 O 328.335 0.394253 1.6968 0
M  V30 3436 C 325.467 0.88067 3.29328 0
M  V30 3437 H 326.66 2.19127 2.04752 0
M  V30 3438 H 324.213 1.16731 1.0394 0
M  V30 3439 H 324.948 -0.0865776 3.24184 0
M  V30 3440 H 324.733 1.66052 3.55203 0
M  V30 3441 H 326.223 0.830871 4.09251 0
M  V30 3442 N 326.66 -1.06551 1.16123 0
M  V30 3443 C 327.908 -1.78947 0.939267 0
M  V30 3444 C 328.229 -1.87532 -0.534476 0
M  V30 3445 O 327.499 -1.38211 -1.38833 0
M  V30 3446 H 326.079 -0.662807 0.344523 0
M  V30 3447 H 328.741 -1.28725 1.46342 0
M  V30 3448 H 327.837 -2.81117 1.35572 0
M  V30 3449 N 328.138 -0.959301 -1.25041 0
M  V30 3450 C 329.048 -0.489994 -2.29426 0
M  V30 3451 C 330.064 0.444944 -1.68215 0
M  V30 3452 O 331.24 0.320046 -1.98841 0
M  V30 3453 C 328.305 0.220309 -3.45999 0
M  V30 3454 C 327.366 -0.753418 -4.22637 0
M  V30 3455 C 326.599 -0.076918 -5.33645 0
M  V30 3456 O 326.822 1.13649 -5.58963 0
M  V30 3457 O 325.756 -0.764824 -5.97021 0
M  V30 3458 H 329.582 -1.35755 -2.71669 0
M  V30 3459 H 327.167 -0.725961 -1.30576 0
M  V30 3460 H 329.049 0.619677 -4.16819 0
M  V30 3461 H 327.724 1.06296 -3.0575 0
M  V30 3462 H 326.631 -1.20308 -3.54227 0
M  V30 3463 H 327.964 -1.56423 -4.66683 0
M  V30 3464 N 329.616 1.39756 -0.72842 0
M  V30 3465 C 330.893 1.94574 -0.200079 0
M  V30 3466 C 331.273 1.66569 1.29684 0
M  V30 3467 O 330.621 0.990326 2.05924 0
M  V30 3468 C 330.831 3.45004 -0.526608 0
M  V30 3469 C 332.179 4.21965 -0.472318 0
M  V30 3470 O 333.203 3.53173 -0.463413 0
M  V30 3471 O 332.062 5.44552 -0.461075 0
M  V30 3472 H 329.156 0.826289 -0.0342851 0
M  V30 3473 H 331.702 1.49293 -0.806829 0
M  V30 3474 H 330.474 3.58796 -1.56144 0
M  V30 3475 H 330.097 3.97449 0.109449 0
M  V30 3476 N 331.094 0.475555 1.50254 0
M  V30 3477 C 332.324 -0.0753399 2.06463 0
M  V30 3478 C 332.732 -1.33661 1.33908 0
M  V30 3479 O 332.075 -1.79219 0.403257 0
M  V30 3480 C 332.137 -0.424921 3.5698 0
M  V30 3481 C 331.801 0.734965 4.51051 0
M  V30 3482 C 332.798 1.61827 4.94073 0
M  V30 3483 C 330.483 0.926557 4.9368 0
M  V30 3484 C 332.477 2.67754 5.78434 0
M  V30 3485 C 330.164 1.98904 5.77824 0
M  V30 3486 C 331.162 2.8629 6.20103 0
M  V30 3487 O 330.85 3.90708 7.02568 0
M  V30 3488 H 330.582 0.00576308 0.675975 0
M  V30 3489 H 333.136 0.664662 1.94349 0
M  V30 3490 H 331.366 -1.21817 3.67012 0
M  V30 3491 H 333.055 -0.911422 3.95535 0
M  V30 3492 H 333.821 1.48196 4.61804 0
M  V30 3493 H 329.7 0.25584 4.6029 0
M  V30 3494 H 333.244 3.35992 6.11355 0
M  V30 3495 H 329.141 2.12541 6.09505 0
M  V30 3496 H 329.909 3.87751 7.20827 0
M  V30 3497 N 332.573 -1.56217 0.208337 0
M  V30 3498 C 333.483 -2.23316 -0.718836 0
M  V30 3499 C 334.499 -1.23648 -1.22422 0
M  V30 3500 O 335.675 -1.56423 -1.26861 0
M  V30 3501 C 332.74 -2.88968 -1.91568 0
M  V30 3502 C 331.801 -4.03943 -1.45357 0
M  V30 3503 C 331.034 -4.66455 -2.59337 0
M  V30 3504 O 331.257 -4.27919 -3.77149 0
M  V30 3505 O 330.191 -5.55686 -2.31293 0
M  V30 3506 H 334.017 -3.03182 -0.177315 0
M  V30 3507 H 331.602 -1.49384 -0.0215402 0
M  V30 3508 H 333.484 -3.30455 -2.61491 0
M  V30 3509 H 332.159 -2.12071 -2.44556 0
M  V30 3510 H 331.066 -3.67052 -0.722746 0
M  V30 3511 H 332.399 -4.82543 -0.970219 0
M  V30 3512 N 334.051 0.0651679 -1.57465 0
M  V30 3513 C 335.297 0.764193 -1.87851 0
M  V30 3514 C 335.63 1.76889 -0.801495 0
M  V30 3515 O 334.905 1.93594 0.187528 0
M  V30 3516 C 335.188 1.46625 -3.28897 0
M  V30 3517 C 335.041 0.477515 -4.47258 0
M  V30 3518 C 336.36 2.4095 -3.68281 0
M  V30 3519 H 333.479 0.276351 -0.683227 0
M  V30 3520 H 336.121 0.0272868 -1.8998 0
M  V30 3521 H 334.271 2.09438 -3.27212 0
M  V30 3522 H 335.943 -0.145922 -4.61069 0
M  V30 3523 H 334.186 -0.206576 -4.33308 0
M  V30 3524 H 334.857 1.0065 -5.42746 0
M  V30 3525 H 337.333 1.88209 -3.71102 0
M  V30 3526 H 336.209 2.87072 -4.67847 0
M  V30 3527 H 336.47 3.26049 -2.98571 0
M  V30 3528 N 335.529 1.53961 0.336706 0
M  V30 3529 C 336.757 1.75483 1.09605 0
M  V30 3530 C 337.172 0.4972 1.82136 0
M  V30 3531 O 336.529 -0.53149 1.74589 0
M  V30 3532 C 336.58 2.93943 2.10428 0
M  V30 3533 O 336.301 4.14842 1.40846 0
M  V30 3534 C 337.802 3.27571 2.98684 0
M  V30 3535 H 335.022 0.586166 0.326574 0
M  V30 3536 H 337.566 2.00808 0.38683 0
M  V30 3537 H 335.721 2.70929 2.76905 0
M  V30 3538 H 336.135 4.81383 2.08255 0
M  V30 3539 H 337.609 4.13791 3.6535 0
M  V30 3540 H 338.086 2.44168 3.65074 0
M  V30 3541 H 338.692 3.52615 2.37787 0
M  V30 3542 N 337.007 -0.598083 1.45811 0
M  V30 3543 C 337.94 -1.7223 1.49706 0
M  V30 3544 C 338.918 -1.58732 0.352535 0
M  V30 3545 O 340.102 -1.80162 0.554438 0
M  V30 3546 C 337.229 -3.10148 1.3611 0
M  V30 3547 C 336.275 -3.42209 2.54549 0
M  V30 3548 S 337.108 -3.35989 4.16979 0
M  V30 3549 C 338.264 -4.76471 4.05865 0
M  V30 3550 H 338.497 -1.68665 2.44826 0
M  V30 3551 H 336.03 -0.775541 1.33509 0
M  V30 3552 H 337.988 -3.8972 1.28953 0
M  V30 3553 H 336.649 -3.11219 0.424451 0
M  V30 3554 H 335.842 -4.42652 2.40988 0
M  V30 3555 H 335.444 -2.70173 2.58617 0
M  V30 3556 H 337.736 -5.665 3.71596 0
M  V30 3557 H 338.679 -4.95089 5.06253 0
M  V30 3558 H 339.087 -4.52599 3.37364 0
M  V30 3559 N 338.485 -1.33259 -0.841409 0
M  V30 3560 C 339.713 -1.27605 -1.62864 0
M  V30 3561 C 340.128 0.153507 -1.88175 0
M  V30 3562 O 339.485 1.09485 -1.46011 0
M  V30 3563 C 339.536 -2.04596 -2.98031 0
M  V30 3564 O 339.257 -3.41975 -2.73834 0
M  V30 3565 C 340.758 -2.06122 -3.92465 0
M  V30 3566 H 337.978 -0.439718 -0.506842 0
M  V30 3567 H 340.522 -1.75591 -1.04824 0
M  V30 3568 H 338.677 -1.60299 -3.5268 0
M  V30 3569 H 339.091 -3.81549 -3.59889 0
M  V30 3570 H 340.565 -2.64451 -4.84531 0
M  V30 3571 H 341.042 -1.05083 -4.26444 0
M  V30 3572 H 341.648 -2.50427 -3.43753 0
M  V30 3573 N 339.963 1.05934 -1.16686 0
M  V30 3574 C 340.893 2.1546 -0.899949 0
M  V30 3575 C 341.874 1.69391 0.155154 0
M  V30 3576 O 343.059 1.94199 0.00648693 0
M  V30 3577 C 340.189 3.44939 -0.404241 0
M  V30 3578 C 339.143 4.04536 -1.39767 0
M  V30 3579 C 338.469 5.29268 -0.760216 0
M  V30 3580 C 339.769 4.42893 -2.76845 0
M  V30 3581 H 341.463 2.38046 -1.81588 0
M  V30 3582 H 339.009 1.14404 -0.874514 0
M  V30 3583 H 340.962 4.20901 -0.204971 0
M  V30 3584 H 339.686 3.21983 0.547206 0
M  V30 3585 H 338.345 3.30635 -1.58355 0
M  V30 3586 H 337.993 5.02611 0.197831 0
M  V30 3587 H 337.693 5.70101 -1.42332 0
M  V30 3588 H 339.217 6.07924 -0.57105 0
M  V30 3589 H 340.631 5.09921 -2.62019 0
M  V30 3590 H 339.028 4.94721 -3.39663 0
M  V30 3591 H 340.098 3.53584 -3.31823 0
M  V30 3592 N 341.441 0.965919 1.2453 0
M  V30 3593 C 342.718 0.543777 1.87889 0
M  V30 3594 C 343.098 -0.97909 1.87021 0
M  V30 3595 O 342.446 -1.84969 1.3416 0
M  V30 3596 C 342.656 1.13327 3.30088 0
M  V30 3597 C 344.004 1.21707 4.06783 0
M  V30 3598 O 345.028 1.08566 3.39252 0
M  V30 3599 O 343.887 1.42456 5.27606 0
M  V30 3600 H 340.981 0.181054 0.806938 0
M  V30 3601 H 343.527 1.06007 1.32516 0
M  V30 3602 H 342.299 2.17612 3.25209 0
M  V30 3603 H 341.922 0.600911 3.93033 0
M  V30 3604 N 342.919 -1.39368 0.735821 0
M  V30 3605 C 344.166 -2.00497 0.284123 0
M  V30 3606 C 344.494 -1.58387 -1.12889 0
M  V30 3607 O 343.749 -0.804359 -1.78406 0
M  V30 3608 C 344.048 -3.5583 0.334651 0
M  V30 3609 C 343.714 -4.17593 1.7008 0
M  V30 3610 C 342.376 -4.34176 2.07472 0
M  V30 3611 C 344.728 -4.51848 2.59775 0
M  V30 3612 C 342.056 -4.82304 3.34065 0
M  V30 3613 C 344.408 -5.01384 3.85741 0
M  V30 3614 C 343.072 -5.16175 4.23225 0
M  V30 3615 H 342.342 -0.73367 0.103968 0
M  V30 3616 H 344.989 -1.66683 0.942825 0
M  V30 3617 H 343.294 -3.89674 -0.407625 0
M  V30 3618 H 344.991 -4.00986 -0.0329927 0
M  V30 3619 H 341.581 -4.05087 1.40008 0
M  V30 3620 H 345.765 -4.38653 2.32157 0
M  V30 3621 H 341.021 -4.91941 3.63049 0
M  V30 3622 H 345.195 -5.26863 4.55399 0
M  V30 3623 H 342.822 -5.5323 5.21384 0
M  V30 3624 N 344.397 -0.483516 -1.5 0
M  V30 3625 C 345.36 0.292965 -2.2732 0
M  V30 3626 C 346.36 0.909499 -1.32608 0
M  V30 3627 O 347.55 0.776745 -1.55924 0
M  V30 3628 C 344.682 1.41854 -3.09984 0
M  V30 3629 H 345.875 -0.385289 -2.97415 0
M  V30 3630 H 343.428 -0.237942 -1.54478 0
M  V30 3631 H 344.163 2.13148 -2.44414 0
M  V30 3632 H 343.948 0.982114 -3.79601 0
M  V30 3633 H 345.438 1.96597 -3.68429 0
M  V30 3634 N 345.875 1.56104 -0.216619 0
M  V30 3635 C 347.152 1.89988 0.465165 0
M  V30 3636 C 347.532 1.13326 1.78102 0
M  V30 3637 O 346.88 0.241033 2.27225 0
M  V30 3638 C 347.09 3.42646 0.662939 0
M  V30 3639 C 348.438 4.13311 0.972602 0
M  V30 3640 O 349.462 3.48217 0.749901 0
M  V30 3641 O 348.321 5.28396 1.39499 0
M  V30 3642 H 345.415 0.78979 0.245276 0
M  V30 3643 H 347.961 1.67721 -0.258436 0
M  V30 3644 H 346.733 3.90399 -0.26543 0
M  V30 3645 H 346.356 3.70677 1.43821 0
M  V30 3646 N 347.353 -0.0568162 1.57498 0
M  V30 3647 C 348.601 -0.751617 1.87604 0
M  V30 3648 C 348.922 -1.77351 0.81066 0
M  V30 3649 O 348.192 -1.95254 -0.159018 0
M  V30 3650 H 346.772 -0.280583 0.692302 0
M  V30 3651 H 349.434 -0.0293483 1.94878 0
M  V30 3652 H 348.53 -1.25852 2.856 0
M  V30 3653 N 348.832 -1.54138 -0.328536 0
M  V30 3654 C 350.057 -1.76378 -1.09112 0
M  V30 3655 C 350.482 -0.508596 -1.81094 0
M  V30 3656 O 349.84 0.539598 -1.73084 0
M  V30 3657 C 349.888 -2.95358 -2.06872 0
M  V30 3658 O 348.992 -2.66556 -3.14677 0
M  V30 3659 H 348.333 -0.584614 -0.314838 0
M  V30 3660 H 350.863 -2.01146 -0.374348 0
M  V30 3661 H 350.873 -3.22566 -2.4983 0
M  V30 3662 H 349.548 -3.86385 -1.5388 0
M  V30 3663 H 348.125 -2.50282 -2.7643 0
M  V30 3664 N 350.31 0.590341 -1.46126 0
M  V30 3665 C 351.726 0.912917 -1.30912 0
M  V30 3666 C 351.926 1.99616 -0.274893 0
M  V30 3667 O 350.982 2.50397 0.325197 0
M  V30 3668 C 352.295 1.3375 -2.69317 0
M  V30 3669 C 353.843 1.45077 -2.77348 0
M  V30 3670 C 354.318 1.90904 -4.16317 0
M  V30 3671 N 355.809 1.9811 -4.18696 0
M  V30 3672 C 356.544 2.34828 -5.23109 0
M  V30 3673 N 356.04 2.70393 -6.37856 0
M  V30 3674 N 357.833 2.35317 -5.10473 0
M  V30 3675 H 349.984 -0.125358 -2.1203 0
M  V30 3676 H 352.247 0.00658481 -0.947977 0
M  V30 3677 H 351.953 0.615614 -3.4627 0
M  V30 3678 H 351.827 2.30058 -2.9892 0
M  V30 3679 H 354.214 2.16353 -2.00687 0
M  V30 3680 H 354.295 0.4704 -2.51438 0
M  V30 3681 H 353.939 1.20209 -4.9347 0
M  V30 3682 H 353.869 2.89886 -4.39629 0
M  V30 3683 H 356.36 1.73146 -3.359 0
M  V30 3684 H 356.673 2.97341 -7.13308 0
M  V30 3685 H 355.018 2.68048 -6.41229 0
M  V30 3686 H 358.209 2.0695 -4.19868 0
M  V30 3687 H 358.382 2.63605 -5.9196 0
M  V30 3688 N 351.788 1.33704 0.83433 0
M  V30 3689 C 353.013 1.28615 1.62705 0
M  V30 3690 C 353.438 -0.139242 1.87584 0
M  V30 3691 O 352.796 -1.09734 1.4432 0
M  V30 3692 C 352.844 2.07139 2.95171 0
M  V30 3693 O 351.948 1.4331 3.86699 0
M  V30 3694 H 351.289 0.44226 0.49528 0
M  V30 3695 H 353.819 1.76335 1.03766 0
M  V30 3696 H 353.829 2.18073 3.44831 0
M  V30 3697 H 352.504 3.10779 2.76386 0
M  V30 3698 H 351.081 1.4105 3.45195 0
M  V30 3699 N 353.266 -1.05314 1.17247 0
M  V30 3700 C 354.513 -1.78293 0.960091 0
M  V30 3701 C 354.841 -1.87658 -0.51136 0
M  V30 3702 O 354.096 -1.3718 -1.39571 0
M  V30 3703 C 354.395 -3.2229 1.54479 0
M  V30 3704 C 354.061 -3.32987 3.04024 0
M  V30 3705 C 352.723 -3.35613 3.44844 0
M  V30 3706 C 355.075 -3.34102 4.00031 0
M  V30 3707 C 352.403 -3.36982 4.8027 0
M  V30 3708 C 354.755 -3.3701 5.35357 0
M  V30 3709 C 353.419 -3.37923 5.75642 0
M  V30 3710 H 352.689 -0.652422 0.351322 0
M  V30 3711 H 355.336 -1.23782 1.46117 0
M  V30 3712 H 353.641 -3.7972 0.965391 0
M  V30 3713 H 355.338 -3.77376 1.35603 0
M  V30 3714 H 351.928 -3.31655 2.71483 0
M  V30 3715 H 356.112 -3.31276 3.69554 0
M  V30 3716 H 351.368 -3.35999 5.10798 0
M  V30 3717 H 355.542 -3.36822 6.09528 0
M  V30 3718 H 353.169 -3.38738 6.80559 0
M  V30 3719 N 354.744 -0.972509 -1.24016 0
M  V30 3720 C 355.969 -0.654417 -1.96805 0
M  V30 3721 C 356.394 0.770398 -1.716 0
M  V30 3722 O 355.752 1.52361 -0.982647 0
M  V30 3723 C 355.8 -0.941031 -3.48105 0
M  V30 3724 O 354.904 -0.0289472 -4.1239 0
M  V30 3725 H 354.245 -0.24692 -0.616382 0
M  V30 3726 H 356.775 -1.30396 -1.57664 0
M  V30 3727 H 356.785 -0.87452 -3.98517 0
M  V30 3728 H 355.46 -1.97939 -3.65777 0
M  V30 3729 H 354.037 -0.149192 -3.72601 0
M  V30 3730 N 356.222 1.38976 -0.743202 0
M  V30 3731 C 357.47 1.99948 -0.29417 0
M  V30 3732 C 357.791 1.59279 1.12495 0
M  V30 3733 O 357.061 0.844808 1.76748 0
M  V30 3734 H 355.641 0.739473 -0.105774 0
M  V30 3735 H 358.303 1.699 -0.954986 0
M  V30 3736 H 357.399 3.10142 -0.349056 0
M  V30 3737 N 357.7 0.491464 1.49741 0
M  V30 3738 C 358.928 -0.0535151 2.06831 0
M  V30 3739 C 359.343 -1.31683 1.35296 0
M  V30 3740 O 358.7 -1.77402 0.42836 0
M  V30 3741 C 358.751 -0.320835 3.60073 0
M  V30 3742 O 358.472 0.892394 4.28915 0
M  V30 3743 C 359.973 -0.910519 4.33848 0
M  V30 3744 H 357.193 0.0161909 0.670805 0
M  V30 3745 H 359.737 0.68609 1.92647 0
M  V30 3746 H 357.892 -1.0104 3.73991 0
M  V30 3747 H 358.306 0.649401 5.20464 0
M  V30 3748 H 359.78 -1.04721 5.41976 0
M  V30 3749 H 360.257 -1.90589 3.95692 0
M  V30 3750 H 360.863 -0.258712 4.24512 0
M  V30 3751 N 359.178 -1.55987 0.224894 0
M  V30 3752 C 360.426 -1.97998 -0.405099 0
M  V30 3753 C 360.747 -1.11387 -1.60056 0
M  V30 3754 O 360.017 -0.191645 -1.9496 0
M  V30 3755 H 358.597 -0.731235 -0.152658 0
M  V30 3756 H 361.259 -1.92279 0.318567 0
M  V30 3757 H 360.355 -3.03463 -0.729167 0
M  V30 3758 N 360.656 0.0484629 -1.57525 0
M  V30 3759 C 362.072 0.40375 -1.54409 0
M  V30 3760 C 362.272 1.77786 -0.948384 0
M  V30 3761 O 361.328 2.46189 -0.560983 0
M  V30 3762 C 362.641 0.323394 -2.98956 0
M  V30 3763 C 364.189 0.401892 -3.10409 0
M  V30 3764 C 364.664 0.351195 -4.56652 0
M  V30 3765 N 366.155 0.410576 -4.61377 0
M  V30 3766 C 366.89 0.393933 -5.72045 0
M  V30 3767 N 366.386 0.330724 -6.9201 0
M  V30 3768 N 368.179 0.442227 -5.60358 0
M  V30 3769 H 360.33 -0.851016 -1.94606 0
M  V30 3770 H 362.593 -0.321721 -0.89174 0
M  V30 3771 H 362.299 -0.62011 -3.4619 0
M  V30 3772 H 362.173 1.12463 -3.60044 0
M  V30 3773 H 364.56 1.33582 -2.63134 0
M  V30 3774 H 364.641 -0.428342 -2.52188 0
M  V30 3775 H 364.285 -0.578987 -5.04589 0
M  V30 3776 H 364.215 1.19928 -5.12762 0
M  V30 3777 H 366.706 0.462729 -3.75056 0
M  V30 3778 H 367.019 0.322592 -7.72126 0
M  V30 3779 H 365.364 0.29706 -6.94365 0
M  V30 3780 H 368.555 0.489464 -4.65534 0
M  V30 3781 H 368.728 0.425788 -6.466 0
M  V30 3782 N 362.134 1.5431 0.320358 0
M  V30 3783 C 363.383 1.7188 1.05546 0
M  V30 3784 C 363.696 0.501143 1.89071 0
M  V30 3785 O 364.902 0.558258 2.65699 0
M  V30 3786 C 363.358 3.04025 1.92605 0
M  V30 3787 C 362.966 4.33207 1.14176 0
M  V30 3788 C 364.71 3.30959 2.65832 0
M  V30 3789 C 362.617 5.56412 2.00399 0
M  V30 3790 H 361.547 0.640547 0.397763 0
M  V30 3791 H 364.198 1.80802 0.313522 0
M  V30 3792 H 362.58 2.89019 2.7071 0
M  V30 3793 H 363.754 4.58989 0.40819 0
M  V30 3794 H 362.069 4.13062 0.526165 0
M  V30 3795 H 364.666 4.20203 3.30656 0
M  V30 3796 H 365.009 2.48979 3.33639 0
M  V30 3797 H 365.542 3.46847 1.94787 0
M  V30 3798 H 362.281 6.41004 1.37094 0
M  V30 3799 H 361.801 5.34844 2.7148 0
M  V30 3800 H 363.48 5.92938 2.58908 0
M  V30 3801 N 363.613 -0.582584 1.46437 0
M  V30 3802 C 364.543 -1.70187 1.59871 0
M  V30 3803 C 365.524 -1.64066 0.449042 0
M  V30 3804 O 366.709 -1.82081 0.6753 0
M  V30 3805 C 363.839 -3.08827 1.58881 0
M  V30 3806 C 362.793 -3.29779 2.72819 0
M  V30 3807 C 362.119 -4.68947 2.5689 0
M  V30 3808 C 363.419 -3.17601 4.1464 0
M  V30 3809 H 365.113 -1.592 2.53566 0
M  V30 3810 H 362.659 -0.764472 1.22032 0
M  V30 3811 H 364.612 -3.86951 1.66873 0
M  V30 3812 H 363.336 -3.20713 0.617306 0
M  V30 3813 H 361.995 -2.54054 2.64296 0
M  V30 3814 H 361.643 -4.77599 1.57823 0
M  V30 3815 H 361.343 -4.83919 3.33312 0
M  V30 3816 H 362.867 -5.4924 2.66773 0
M  V30 3817 H 364.281 -3.8557 4.24274 0
M  V30 3818 H 362.678 -3.44094 4.9165 0
M  V30 3819 H 363.748 -2.14681 4.34788 0
M  V30 3820 N 365.091 -1.34144 -0.827227 0
M  V30 3821 C 366.339 -1.26009 -1.58007 0
M  V30 3822 C 366.66 0.170971 -1.94249 0
M  V30 3823 O 365.93 1.10256 -1.61927 0
M  V30 3824 H 364.51 -0.463414 -0.585881 0
M  V30 3825 H 367.172 -1.68005 -0.987951 0
M  V30 3826 H 366.268 -1.86187 -2.50481 0
M  V30 3827 N 366.569 1.04691 -1.17803 0
M  V30 3828 C 367.532 2.10724 -0.901545 0
M  V30 3829 C 368.532 1.6042 0.110437 0
M  V30 3830 O 369.722 1.7377 -0.122303 0
M  V30 3831 C 366.854 3.39084 -0.351409 0
M  V30 3832 H 368.047 2.36686 -1.84174 0
M  V30 3833 H 365.6 1.21015 -0.98919 0
M  V30 3834 H 366.335 3.18782 0.59569 0
M  V30 3835 H 366.12 3.76909 -1.08083 0
M  V30 3836 H 367.61 4.17227 -0.176451 0
M  V30 3837 N 368.047 0.979072 1.23499 0
M  V30 3838 C 369.295 0.645941 1.91499 0
M  V30 3839 C 369.616 -0.822948 1.76784 0
M  V30 3840 O 368.886 -1.58854 1.14639 0
M  V30 3841 H 367.466 0.235919 0.708767 0
M  V30 3842 H 370.128 1.2426 1.50152 0
M  V30 3843 H 369.224 0.896411 2.9895 0
M  V30 3844 N 369.525 -1.3858 0.750561 0
M  V30 3845 C 370.435 -2.34278 0.122825 0
M  V30 3846 C 371.451 -1.59116 -0.704131 0
M  V30 3847 O 372.627 -1.91326 -0.628987 0
M  V30 3848 C 369.692 -3.38221 -0.762086 0
M  V30 3849 C 368.753 -4.29227 0.078896 0
M  V30 3850 C 367.986 -5.28205 -0.763874 0
M  V30 3851 O 368.209 -5.34112 -2.00201 0
M  V30 3852 O 367.143 -6.01618 -0.18428 0
M  V30 3853 H 370.969 -2.89649 0.913088 0
M  V30 3854 H 368.554 -1.40374 0.511417 0
M  V30 3855 H 370.436 -4.01872 -1.26793 0
M  V30 3856 H 369.111 -2.85211 -1.5309 0
M  V30 3857 H 368.018 -3.68747 0.630621 0
M  V30 3858 H 369.351 -4.85484 0.810289 0
M  V30 3859 N 371.003 -0.499398 -1.49478 0
M  V30 3860 C 372.249 0.0377587 -2.03365 0
M  V30 3861 C 372.604 1.3484 -1.37244 0
M  V30 3862 O 371.897 1.85 -0.498547 0
M  V30 3863 C 372.091 0.248424 -3.56536 0
M  V30 3864 C 371.92 -1.04025 -4.37503 0
M  V30 3865 C 370.69 -1.59159 -4.79579 0
M  V30 3866 C 372.888 -1.9431 -4.76181 0
M  V30 3867 N 370.87 -2.82634 -5.44969 0
M  V30 3868 C 372.241 -3.02364 -5.41272 0
M  V30 3869 C 374.296 -1.95008 -4.58123 0
M  V30 3870 C 372.999 -4.1114 -5.90217 0
M  V30 3871 C 375.025 -3.02758 -5.08027 0
M  V30 3872 C 374.387 -4.09531 -5.73118 0
M  V30 3873 H 370.486 -0.026923 -0.781536 0
M  V30 3874 H 373.07 -0.673901 -1.82665 0
M  V30 3875 H 371.241 0.929139 -3.77123 0
M  V30 3876 H 372.973 0.782445 -3.97064 0
M  V30 3877 H 369.728 -1.13696 -4.5975 0
M  V30 3878 H 370.152 -3.45416 -5.82252 0
M  V30 3879 H 374.794 -1.13766 -4.07207 0
M  V30 3880 H 372.512 -4.93181 -6.40155 0
M  V30 3881 H 376.098 -3.04315 -4.95866 0
M  V30 3882 H 374.978 -4.91534 -6.11035 0
M  V30 3883 N 372.481 1.55866 -0.233164 0
M  V30 3884 C 373.897 1.59133 0.121988 0
M  V30 3885 C 374.097 1.25016 1.58029 0
M  V30 3886 O 373.153 0.990922 2.32243 0
M  V30 3887 C 374.466 2.99932 -0.214792 0
M  V30 3888 C 376.014 3.12601 -0.157971 0
M  V30 3889 C 376.489 4.55597 -0.46859 0
M  V30 3890 N 377.98 4.61305 -0.418585 0
M  V30 3891 C 378.715 5.69903 -0.63227 0
M  V30 3892 N 378.211 6.86819 -0.90835 0
M  V30 3893 N 380.004 5.59264 -0.563913 0
M  V30 3894 H 372.155 1.76315 -1.18434 0
M  V30 3895 H 374.418 0.820093 -0.475553 0
M  V30 3896 H 374.124 3.29588 -1.22739 0
M  V30 3897 H 373.998 3.74327 0.464691 0
M  V30 3898 H 376.385 2.82735 0.845283 0
M  V30 3899 H 376.466 2.40511 -0.871102 0
M  V30 3900 H 376.11 4.86182 -1.46934 0
M  V30 3901 H 376.04 5.25928 0.265865 0
M  V30 3902 H 378.531 3.77297 -0.213368 0
M  V30 3903 H 378.844 7.65507 -1.05919 0
M  V30 3904 H 377.189 6.88536 -0.945673 0
M  V30 3905 H 380.38 4.66802 -0.348372 0
M  V30 3906 H 380.553 6.43831 -0.733847 0
M  V30 3907 N 373.959 -0.0401083 1.57549 0
M  V30 3908 C 374.922 -1.02871 2.04817 0
M  V30 3909 C 375.922 -1.29708 0.950388 0
M  V30 3910 O 377.112 -1.24897 1.21435 0
M  V30 3911 C 374.244 -2.36443 2.45576 0
M  V30 3912 H 375.437 -0.620631 2.93408 0
M  V30 3913 H 372.99 -0.286667 1.53649 0
M  V30 3914 H 373.725 -2.82021 1.60108 0
M  V30 3915 H 373.51 -2.18296 3.25713 0
M  V30 3916 H 375 -3.07441 2.82612 0
M  V30 3917 N 375.437 -1.54477 -0.31217 0
M  V30 3918 C 376.665 -1.77205 -1.068 0
M  V30 3919 C 377.08 -0.526114 -1.81321 0
M  V30 3920 O 376.437 0.503647 -1.75413 0
M  V30 3921 C 376.488 -2.97253 -2.05725 0
M  V30 3922 O 376.209 -4.1703 -1.34228 0
M  V30 3923 C 377.71 -3.32281 -2.93435 0
M  V30 3924 H 374.93 -0.591287 -0.317208 0
M  V30 3925 H 377.474 -2.01398 -0.354834 0
M  V30 3926 H 375.629 -2.753 -2.72559 0
M  V30 3927 H 376.043 -4.84636 -2.00571 0
M  V30 3928 H 377.517 -4.19551 -3.58721 0
M  V30 3929 H 377.994 -2.49945 -3.61143 0
M  V30 3930 H 378.6 -3.56353 -2.32147 0
M  V30 3931 N 376.915 0.57481 -1.46744 0
M  V30 3932 C 377.845 1.69337 -1.60771 0
M  V30 3933 C 378.826 1.63825 -0.457736 0
M  V30 3934 O 380.011 1.8172 -0.684947 0
M  V30 3935 C 377.141 3.0798 -1.60517 0
M  V30 3936 C 376.095 3.28327 -2.74564 0
M  V30 3937 C 375.421 4.67578 -2.59373 0
M  V30 3938 C 376.721 3.15398 -4.16319 0
M  V30 3939 H 378.415 1.57853 -2.54407 0
M  V30 3940 H 375.961 0.75799 -1.22436 0
M  V30 3941 H 377.914 3.86061 -1.68923 0
M  V30 3942 H 376.638 3.20381 -0.634305 0
M  V30 3943 H 375.297 2.52649 -2.65639 0
M  V30 3944 H 374.945 4.76755 -1.60353 0
M  V30 3945 H 374.645 4.82144 -3.35873 0
M  V30 3946 H 376.169 5.47817 -2.69682 0
M  V30 3947 H 377.583 3.83315 -4.26313 0
M  V30 3948 H 375.98 3.41482 -4.93468 0
M  V30 3949 H 377.05 2.12372 -4.3592 0
M  V30 3950 N 378.394 1.34581 0.820102 0
M  V30 3951 C 379.619 1.30333 1.61332 0
M  V30 3952 C 380.044 -0.119339 1.87721 0
M  V30 3953 O 379.402 -1.08197 1.45475 0
M  V30 3954 C 379.45 2.10258 2.92957 0
M  V30 3955 O 378.554 1.47404 3.85157 0
M  V30 3956 H 377.895 0.447488 0.490561 0
M  V30 3957 H 380.425 1.77425 1.01889 0
M  V30 3958 H 380.435 2.21718 3.42498 0
M  V30 3959 H 379.11 3.13693 2.73074 0
M  V30 3960 H 377.687 1.44703 3.43679 0
M  V30 3961 N 379.872 -1.04064 1.18357 0
M  V30 3962 C 381.149 -1.74252 0.888581 0
M  V30 3963 C 381.529 -2.02138 -0.60856 0
M  V30 3964 O 380.877 -1.66656 -1.56327 0
M  V30 3965 C 381.087 -3.0277 1.73584 0
M  V30 3966 C 382.435 -3.76506 1.96286 0
M  V30 3967 O 383.459 -3.12668 1.70637 0
M  V30 3968 O 382.318 -4.91243 2.39464 0
M  V30 3969 H 379.412 -0.758271 0.330082 0
M  V30 3970 H 381.958 -1.1013 1.2911 0
M  V30 3971 H 380.73 -2.78299 2.75073 0
M  V30 3972 H 380.353 -3.74631 1.33183 0
M  V30 3973 N 381.35 -0.985608 -1.22978 0
M  V30 3974 C 382.598 -0.656087 -1.91154 0
M  V30 3975 C 382.919 0.813561 -1.77218 0
M  V30 3976 O 382.189 1.58244 -1.1548 0
M  V30 3977 H 380.769 -0.239674 -0.707506 0
M  V30 3978 H 383.431 -1.25054 -1.49491 0
M  V30 3979 H 382.527 -0.912253 -2.9847 0
M  V30 3980 N 382.828 1.3818 -0.7579 0
M  V30 3981 C 384.056 2.04301 -0.326937 0
M  V30 3982 C 384.471 1.57163 1.0462 0
M  V30 3983 O 383.828 0.746626 1.66529 0
M  V30 3984 C 383.879 3.59846 -0.345363 0
M  V30 3985 O 383.6 4.05256 -1.66432 0
M  V30 3986 C 385.101 4.4319 0.098927 0
M  V30 3987 H 382.321 0.656443 -0.139012 0
M  V30 3988 H 384.865 1.76786 -1.02796 0
M  V30 3989 H 383.02 3.86182 0.306955 0
M  V30 3990 H 383.434 4.99709 -1.59345 0
M  V30 3991 H 384.908 5.51989 0.0348745 0
M  V30 3992 H 385.385 4.23947 1.14741 0
M  V30 3993 H 385.991 4.22051 -0.52468 0
M  V30 3994 N 384.306 0.507319 1.49211 0
M  V30 3995 C 385.552 -0.0350047 2.0277 0
M  V30 3996 C 385.885 -1.3606 1.38569 0
M  V30 3997 O 385.16 -1.87321 0.523542 0
M  V30 3998 C 385.443 -0.180916 3.59645 0
M  V30 3999 C 385.296 1.16825 4.34364 0
M  V30 4000 C 386.615 -0.918558 4.30407 0
M  V30 4001 H 383.734 -0.0112473 0.736914 0
M  V30 4002 H 386.376 0.659956 1.7817 0
M  V30 4003 H 384.526 -0.772826 3.80736 0
M  V30 4004 H 386.198 1.79952 4.24753 0
M  V30 4005 H 384.441 1.75594 3.96673 0
M  V30 4006 H 385.112 1.01939 5.42506 0
M  V30 4007 H 387.588 -0.41649 4.1401 0
M  V30 4008 H 386.464 -0.989505 5.39907 0
M  V30 4009 H 386.725 -1.96373 3.96093 0
M  V30 4010 N 385.784 -1.5574 0.241426 0
M  V30 4011 C 387.012 -2.03208 -0.389134 0
M  V30 4012 C 387.427 -1.12082 -1.51931 0
M  V30 4013 O 386.784 -0.134183 -1.82006 0
M  V30 4014 C 386.835 -3.50064 -0.902087 0
M  V30 4015 O 386.556 -4.37717 0.18305 0
M  V30 4016 C 388.057 -4.13268 -1.60389 0
M  V30 4017 H 385.277 -0.664509 -0.0931053 0
M  V30 4018 H 387.821 -2.0124 0.36369 0
M  V30 4019 H 385.976 -3.52583 -1.60511 0
M  V30 4020 H 386.39 -5.24097 -0.205579 0
M  V30 4021 H 387.864 -5.17733 -1.91458 0
M  V30 4022 H 388.341 -3.59434 -2.52397 0
M  V30 4023 H 388.947 -4.14655 -0.945576 0
M  V30 4024 N 387.262 0.0317525 -1.57568 0
M  V30 4025 C 388.511 0.722131 -1.8833 0
M  V30 4026 C 388.824 1.76664 -0.839587 0
M  V30 4027 O 390.03 2.50942 -1.03635 0
M  V30 4028 C 388.486 1.33544 -3.34207 0
M  V30 4029 C 388.094 0.327415 -4.46802 0
M  V30 4030 C 389.838 2.00585 -3.7412 0
M  V30 4031 C 387.745 0.948915 -5.83738 0
M  V30 4032 H 386.675 0.273466 -0.702661 0
M  V30 4033 H 389.326 -0.0235811 -1.83485 0
M  V30 4034 H 387.708 2.13077 -3.33788 0
M  V30 4035 H 388.882 -0.441006 -4.58685 0
M  V30 4036 H 387.197 -0.240758 -4.15703 0
M  V30 4037 H 389.794 2.47932 -4.73744 0
M  V30 4038 H 390.137 2.82285 -3.05975 0
M  V30 4039 H 390.67 1.27831 -3.76702 0
M  V30 4040 H 387.409 0.171387 -6.55276 0
M  V30 4041 H 386.929 1.68724 -5.7558 0
M  V30 4042 H 388.608 1.45705 -6.3038 0
M  V30 4043 N 388.74 1.54641 0.303973 0
M  V30 4044 C 390.156 1.45788 0.649463 0
M  V30 4045 C 390.356 0.64666 1.90842 0
M  V30 4046 O 389.412 0.153183 2.52035 0
M  V30 4047 C 390.725 2.89718 0.805227 0
M  V30 4048 C 392.273 2.99742 0.901305 0
M  V30 4049 C 392.748 4.44863 1.08909 0
M  V30 4050 N 394.239 4.48559 1.15536 0
M  V30 4051 C 394.974 5.58026 1.3189 0
M  V30 4052 N 394.47 6.77422 1.45161 0
M  V30 4053 N 396.263 5.45708 1.34755 0
M  V30 4054 H 388.414 2.05854 -0.523237 0
M  V30 4055 H 390.677 0.932186 -0.172431 0
M  V30 4056 H 390.383 3.51666 -0.0489108 0
M  V30 4057 H 390.257 3.36964 1.69513 0
M  V30 4058 H 392.644 2.3791 1.74593 0
M  V30 4059 H 392.725 2.55797 -0.0125531 0
M  V30 4060 H 392.369 5.07288 0.249241 0
M  V30 4061 H 392.299 4.86436 2.01713 0
M  V30 4062 H 394.79 3.6254 1.06646 0
M  V30 4063 H 395.103 7.56604 1.57387 0
M  V30 4064 H 393.448 6.80292 1.42223 0
M  V30 4065 H 396.639 4.51378 1.23996 0
M  V30 4066 H 396.812 6.3107 1.47157 0
M  V30 4067 N 390.218 -0.567019 1.47046 0
M  V30 4068 C 391.15 -1.68985 1.54844 0
M  V30 4069 C 392.163 -1.56869 0.435431 0
M  V30 4070 O 393.352 -1.64006 0.70457 0
M  V30 4071 C 390.452 -3.07373 1.42742 0
M  V30 4072 C 389.625 -3.45339 2.6844 0
M  V30 4073 C 388.684 -4.62849 2.50314 0
M  V30 4074 O 387.71 -4.67922 3.24095 0
M  V30 4075 N 388.912 -5.58726 1.57499 0
M  V30 4076 H 391.677 -1.62745 2.51663 0
M  V30 4077 H 389.238 -0.753411 1.43302 0
M  V30 4078 H 391.23 -3.83803 1.28365 0
M  V30 4079 H 389.8 -3.07893 0.540445 0
M  V30 4080 H 389.02 -2.58455 2.97648 0
M  V30 4081 H 390.308 -3.67476 3.51907 0
M  V30 4082 H 389.706 -5.57376 0.966876 0
M  V30 4083 H 388.263 -6.34523 1.49078 0
M  V30 4084 N 391.696 -1.35014 -0.812953 0
M  V30 4085 C 392.945 -1.27269 -1.56479 0
M  V30 4086 C 393.258 0.152771 -1.95002 0
M  V30 4087 O 394.464 0.352451 -2.69203 0
M  V30 4088 C 392.92 -2.23159 -2.82362 0
M  V30 4089 C 392.528 -3.71016 -2.511 0
M  V30 4090 C 394.272 -2.24342 -3.60376 0
M  V30 4091 C 392.179 -4.58746 -3.73237 0
M  V30 4092 H 391.109 -0.472829 -0.587324 0
M  V30 4093 H 393.76 -1.6024 -0.894171 0
M  V30 4094 H 392.142 -1.83151 -3.51101 0
M  V30 4095 H 393.316 -4.1962 -1.90409 0
M  V30 4096 H 391.631 -3.72378 -1.86343 0
M  V30 4097 H 394.228 -2.87107 -4.51081 0
M  V30 4098 H 394.571 -1.24542 -3.97234 0
M  V30 4099 H 395.104 -2.62846 -2.98591 0
M  V30 4100 H 391.843 -5.59521 -3.41492 0
M  V30 4101 H 391.363 -4.14871 -4.33176 0
M  V30 4102 H 393.042 -4.73852 -4.40537 0
M  V30 4103 N 393.175 1.03435 -1.18907 0
M  V30 4104 C 394.422 1.76743 -0.988334 0
M  V30 4105 C 394.75 1.88447 0.481441 0
M  V30 4106 O 394.005 1.39383 1.37371 0
M  V30 4107 C 394.304 3.19792 -1.59586 0
M  V30 4108 C 393.97 3.28108 -3.09283 0
M  V30 4109 C 392.632 3.30084 -3.5014 0
M  V30 4110 C 394.984 3.27696 -4.05296 0
M  V30 4111 C 392.312 3.29299 -4.85571 0
M  V30 4112 C 394.664 3.28451 -5.4065 0
M  V30 4113 C 393.328 3.28723 -5.80946 0
M  V30 4114 H 392.598 0.64675 -0.361657 0
M  V30 4115 H 395.245 1.21442 -1.48068 0
M  V30 4116 H 393.55 3.78136 -1.02568 0
M  V30 4117 H 395.247 3.75171 -1.41589 0
M  V30 4118 H 391.837 3.27294 -2.76725 0
M  V30 4119 H 396.021 3.25354 -3.74778 0
M  V30 4120 H 391.277 3.2783 -5.16079 0
M  V30 4121 H 395.451 3.27082 -6.14809 0
M  V30 4122 H 393.078 3.27868 -6.85862 0
M  V30 4123 N 394.653 0.992116 1.22453 0
M  V30 4124 C 395.616 0.546883 2.2258 0
M  V30 4125 C 396.616 -0.369829 1.56489 0
M  V30 4126 O 397.806 -0.161896 1.73446 0
M  V30 4127 C 394.938 -0.204659 3.40285 0
M  V30 4128 H 396.131 1.43234 2.63484 0
M  V30 4129 H 393.684 0.779239 1.3549 0
M  V30 4130 H 394.419 -1.10614 3.04853 0
M  V30 4131 H 394.204 0.45354 3.89468 0
M  V30 4132 H 395.694 -0.504358 4.14543 0
M  V30 4133 N 396.131 -1.37776 0.765217 0
M  V30 4134 C 397.061 -2.32945 0.160953 0
M  V30 4135 C 398.042 -1.55454 -0.690516 0
M  V30 4136 O 399.227 -1.83721 -0.629318 0
M  V30 4137 C 396.357 -3.39669 -0.724031 0
M  V30 4138 C 395.311 -4.27992 0.0256173 0
M  V30 4139 C 394.637 -5.25673 -0.978383 0
M  V30 4140 C 395.937 -5.08309 1.20082 0
M  V30 4141 H 397.631 -2.83728 0.955969 0
M  V30 4142 H 395.177 -1.36416 0.461149 0
M  V30 4143 H 397.13 -4.05219 -1.15652 0
M  V30 4144 H 395.854 -2.87396 -1.5515 0
M  V30 4145 H 394.513 -3.63964 0.438812 0
M  V30 4146 H 394.161 -4.69682 -1.80022 0
M  V30 4147 H 393.861 -5.85625 -0.481378 0
M  V30 4148 H 395.385 -5.94098 -1.40995 0
M  V30 4149 H 396.799 -5.67034 0.845307 0
M  V30 4150 H 395.196 -5.77554 1.62947 0
M  V30 4151 H 396.266 -4.41365 2.00811 0
M  V30 4152 N 397.609 -0.515225 -1.4894 0
M  V30 4153 C 398.541 0.292481 -2.27326 0
M  V30 4154 C 399.554 0.917838 -1.3446 0
M  V30 4155 O 400.743 0.798772 -1.5963 0
M  V30 4156 C 397.843 1.42803 -3.07344 0
M  V30 4157 C 397.016 0.907347 -4.27885 0
M  V30 4158 C 396.075 1.92222 -4.89834 0
M  V30 4159 O 395.101 1.48506 -5.49486 0
M  V30 4160 N 396.303 3.25355 -4.80754 0
M  V30 4161 H 399.068 -0.379721 -2.97285 0
M  V30 4162 H 396.629 -0.348638 -1.58102 0
M  V30 4163 H 398.621 2.10481 -3.45658 0
M  V30 4164 H 397.191 2.00414 -2.39902 0
M  V30 4165 H 396.411 0.0550218 -3.94162 0
M  V30 4166 H 397.699 0.538108 -5.05946 0
M  V30 4167 H 397.097 3.6355 -4.33414 0
M  V30 4168 H 395.654 3.88707 -5.23211 0
M  V30 4169 N 399.087 1.5561 -0.249682 0
M  V30 4170 C 400.364 1.90932 0.424761 0
M  V30 4171 C 400.744 1.17078 1.75658 0
M  V30 4172 O 400.092 0.289176 2.26663 0
M  V30 4173 C 400.302 3.43975 0.590109 0
M  V30 4174 C 401.65 4.15281 0.884714 0
M  V30 4175 O 402.674 3.49729 0.67587 0
M  V30 4176 O 401.533 5.31236 1.28259 0
M  V30 4177 H 398.627 0.794815 0.228468 0
M  V30 4178 H 401.173 1.67135 -0.293954 0
M  V30 4179 H 399.945 3.89748 -0.34818 0
M  V30 4180 H 399.568 3.73644 1.35926 0
M  V30 4181 N 400.565 -0.0233959 1.57583 0
M  V30 4182 C 401.813 -0.711654 1.89156 0
M  V30 4183 C 402.134 -1.75591 0.848096 0
M  V30 4184 O 401.404 -1.95547 -0.117566 0
M  V30 4185 H 399.984 -0.265835 0.698098 0
M  V30 4186 H 402.646 0.0119948 1.94896 0
M  V30 4187 H 401.742 -1.19766 2.88206 0
M  V30 4188 N 402.043 -1.548 -0.295768 0
M  V30 4189 C 403.459 -1.4613 -0.641722 0
M  V30 4190 C 403.659 -0.656771 -1.90496 0
M  V30 4191 O 402.715 -0.166547 -2.5195 0
M  V30 4192 C 404.028 -2.90141 -0.789852 0
M  V30 4193 C 405.576 -3.00216 -0.885396 0
M  V30 4194 C 406.051 -4.45434 -1.06548 0
M  V30 4195 N 407.542 -4.49166 -1.13156 0
M  V30 4196 C 408.277 -5.58717 -1.28929 0
M  V30 4197 N 407.773 -6.78182 -1.41567 0
M  V30 4198 N 409.566 -5.46415 -1.31859 0
M  V30 4199 H 401.717 -2.05574 0.534147 0
M  V30 4200 H 403.98 -0.931259 0.177372 0
M  V30 4201 H 403.686 -3.51635 0.0675598 0
M  V30 4202 H 403.56 -3.37859 -1.67724 0
M  V30 4203 H 405.947 -2.38833 -1.73329 0
M  V30 4204 H 406.028 -2.55787 0.0261185 0
M  V30 4205 H 405.672 -5.07413 -0.222335 0
M  V30 4206 H 405.602 -4.87499 -1.9913 0
M  V30 4207 H 408.093 -3.631 -1.04721 0
M  V30 4208 H 408.406 -7.57428 -1.53372 0
M  V30 4209 H 406.751 -6.81037 -1.38613 0
M  V30 4210 H 409.942 -4.5203 -1.21601 0
M  V30 4211 H 410.115 -6.31841 -1.43808 0
M  V30 4212 N 403.521 0.559213 -1.47345 0
M  V30 4213 C 404.768 1.31648 -1.53867 0
M  V30 4214 C 405.096 1.93468 -0.200104 0
M  V30 4215 O 404.351 1.78295 0.806799 0
M  V30 4216 C 404.65 2.44853 -2.6035 0
M  V30 4217 C 404.316 2.00876 -4.03683 0
M  V30 4218 C 402.978 1.88599 -4.42701 0
M  V30 4219 C 405.33 1.67279 -4.93626 0
M  V30 4220 C 402.658 1.41017 -5.69501 0
M  V30 4221 C 405.01 1.21169 -6.20887 0
M  V30 4222 C 403.674 1.07487 -6.58789 0
M  V30 4223 H 402.944 0.481734 -0.56304 0
M  V30 4224 H 405.591 0.627301 -1.80934 0
M  V30 4225 H 403.896 3.19318 -2.27032 0
M  V30 4226 H 405.593 3.03039 -2.62619 0
M  V30 4227 H 402.183 2.11374 -3.72853 0
M  V30 4228 H 406.367 1.75638 -4.64182 0
M  V30 4229 H 401.623 1.29086 -5.97618 0
M  V30 4230 H 405.797 0.942345 -6.89995 0
M  V30 4231 H 403.424 0.703946 -7.56934 0
M  V30 4232 N 404.999 1.35443 0.805782 0
M  V30 4233 C 406.224 1.32037 1.59941 0
M  V30 4234 C 406.649 -0.0994215 1.87837 0
M  V30 4235 O 406.007 -1.06648 1.46615 0
M  V30 4236 C 406.055 2.13354 2.90711 0
M  V30 4237 O 405.159 1.5148 3.83572 0
M  V30 4238 H 404.5 0.452666 0.485787 0
M  V30 4239 H 407.03 1.78496 1.00002 0
M  V30 4240 H 407.04 2.25338 3.40128 0
M  V30 4241 H 405.715 3.16572 2.69732 0
M  V30 4242 H 404.292 1.4834 3.42125 0
M  V30 4243 N 406.477 -1.02803 1.19454 0
M  V30 4244 C 407.725 -1.75869 0.995722 0
M  V30 4245 C 408.046 -1.89138 -0.474543 0
M  V30 4246 O 407.316 -1.42558 -1.34366 0
M  V30 4247 H 405.896 -0.651511 0.365435 0
M  V30 4248 H 408.558 -1.24004 1.50363 0
M  V30 4249 H 407.654 -2.76661 1.44447 0
M  V30 4250 N 407.956 -0.998596 -1.21925 0
M  V30 4251 C 409.372 -0.710303 -1.42923 0
M  V30 4252 C 409.572 0.716933 -1.88314 0
M  V30 4253 O 408.628 1.48712 -2.04062 0
M  V30 4254 C 409.941 -1.72072 -2.466 0
M  V30 4255 C 411.489 -1.73681 -2.60392 0
M  V30 4256 C 411.964 -2.73601 -3.67296 0
M  V30 4257 N 413.455 -2.7223 -3.7476 0
M  V30 4258 C 414.19 -3.46206 -4.57087 0
M  V30 4259 N 413.686 -4.29802 -5.43362 0
M  V30 4260 N 415.479 -3.34886 -4.51451 0
M  V30 4261 H 407.63 -1.92028 -0.9077 0
M  V30 4262 H 409.893 -0.828487 -0.460775 0
M  V30 4263 H 409.599 -2.74231 -2.20206 0
M  V30 4264 H 409.473 -1.51818 -3.45299 0
M  V30 4265 H 411.86 -0.722173 -2.86127 0
M  V30 4266 H 411.941 -1.98005 -1.61949 0
M  V30 4267 H 411.585 -3.75217 -3.42307 0
M  V30 4268 H 411.515 -2.46545 -4.65321 0
M  V30 4269 H 414.006 -2.11576 -3.1312 0
M  V30 4270 H 414.319 -4.83061 -6.03218 0
M  V30 4271 H 412.664 -4.33887 -5.42925 0
M  V30 4272 H 415.855 -2.69015 -3.83078 0
M  V30 4273 H 416.028 -3.92796 -5.15379 0
M  V30 4274 N 409.434 1.37368 -0.772513 0
M  V30 4275 C 410.68 2.00423 -0.3467 0
M  V30 4276 C 411.035 1.60224 1.06518 0
M  V30 4277 O 410.328 0.838712 1.72268 0
M  V30 4278 C 410.522 3.54817 -0.428876 0
M  V30 4279 C 410.351 4.10011 -1.84719 0
M  V30 4280 C 409.121 4.40927 -2.46803 0
M  V30 4281 C 411.319 4.30955 -2.80681 0
M  V30 4282 N 409.301 4.8184 -3.80399 0
M  V30 4283 C 410.672 4.74486 -3.99078 0
M  V30 4284 C 412.727 4.1309 -2.77958 0
M  V30 4285 C 411.43 5.02023 -5.15136 0
M  V30 4286 C 413.456 4.41764 -3.9319 0
M  V30 4287 C 412.818 4.85535 -5.10328 0
M  V30 4288 H 408.917 0.762413 -0.173927 0
M  V30 4289 H 411.501 1.66666 -1.00651 0
M  V30 4290 H 409.672 3.87881 0.200757 0
M  V30 4291 H 411.404 4.04696 0.0190668 0
M  V30 4292 H 408.159 4.30033 -1.98415 0
M  V30 4293 H 408.583 5.06604 -4.49089 0
M  V30 4294 H 413.225 3.7842 -1.88568 0
M  V30 4295 H 410.943 5.35582 -6.05126 0
M  V30 4296 H 414.529 4.29528 -3.92425 0
M  V30 4297 H 413.409 5.07296 -5.98013 0
M  V30 4298 N 410.912 0.523116 1.48665 0
M  V30 4299 C 411.862 -0.263106 2.26477 0
M  V30 4300 C 412.846 -0.916005 1.32281 0
M  V30 4301 O 414.038 -0.819946 1.56863 0
M  V30 4302 C 411.167 -1.31361 3.17174 0
M  V30 4303 C 410.253 -0.665849 4.1884 0
M  V30 4304 N 410.644 0.244434 5.05209 0
M  V30 4305 C 408.942 -0.923863 4.36326 0
M  V30 4306 C 409.643 0.617443 5.78414 0
M  V30 4307 N 408.619 -0.0198686 5.43596 0
M  V30 4308 H 412.421 0.437295 2.90629 0
M  V30 4309 H 409.935 0.340675 1.58787 0
M  V30 4310 H 411.932 -1.89052 3.71571 0
M  V30 4311 H 410.592 -2.01546 2.54576 0
M  V30 4312 H 411.603 0.616621 5.14216 0
M  V30 4313 H 408.28 -1.6168 3.84923 0
M  V30 4314 H 409.67 1.36346 6.57921 0
M  V30 4315 N 412.39 -1.55475 0.257931 0
M  V30 4316 C 413.667 -1.91155 -0.414629 0
M  V30 4317 C 414.047 -1.18008 -1.75035 0
M  V30 4318 O 413.395 -0.301193 -2.26506 0
M  V30 4319 C 413.605 -3.44283 -0.571859 0
M  V30 4320 C 414.953 -4.15744 -0.862678 0
M  V30 4321 O 415.977 -3.50083 -0.657314 0
M  V30 4322 O 414.836 -5.31909 -1.2544 0
M  V30 4323 H 411.93 -0.796016 -0.22425 0
M  V30 4324 H 414.476 -1.66976 0.302814 0
M  V30 4325 H 413.248 -3.89558 0.368844 0
M  V30 4326 H 412.871 -3.7436 -1.33943 0
M  V30 4327 N 413.868 0.0150385 -1.57593 0
M  V30 4328 C 414.831 0.995996 -2.06428 0
M  V30 4329 C 415.831 1.2818 -0.970903 0
M  V30 4330 O 417.021 1.22949 -1.23406 0
M  V30 4331 C 414.153 2.32506 -2.49307 0
M  V30 4332 H 415.346 0.573873 -2.94358 0
M  V30 4333 H 412.899 0.262186 -1.54085 0
M  V30 4334 H 413.634 2.79438 -1.64575 0
M  V30 4335 H 413.419 2.13087 -3.29145 0
M  V30 4336 H 414.909 3.02906 -2.87468 0
M  V30 4337 N 415.346 1.54954 0.287554 0
M  V30 4338 C 416.623 1.65569 1.04146 0
M  V30 4339 C 417.003 0.512672 2.0478 0
M  V30 4340 O 416.351 -0.489038 2.23205 0
M  V30 4341 C 416.561 3.04163 1.71131 0
M  V30 4342 C 417.909 3.61429 2.22832 0
M  V30 4343 O 418.933 3.06702 1.81141 0
M  V30 4344 O 417.792 4.57281 2.9926 0
M  V30 4345 H 414.886 0.671881 0.482188 0
M  V30 4346 H 417.432 1.67297 0.28457 0
M  V30 4347 H 416.204 3.78796 0.981303 0
M  V30 4348 H 415.827 3.06271 2.53543 0
M  V30 4349 N 416.824 -0.551391 1.4764 0
M  V30 4350 C 418.049 -1.33837 1.58437 0
M  V30 4351 C 418.474 -1.866 0.237063 0
M  V30 4352 O 417.832 -1.6328 -0.787994 0
M  V30 4353 C 417.88 -2.48014 2.61766 0
M  V30 4354 O 416.984 -3.50419 2.1744 0
M  V30 4355 H 416.325 -0.397299 0.532024 0
M  V30 4356 H 418.855 -0.665759 1.93465 0
M  V30 4357 H 418.865 -2.94503 2.82369 0
M  V30 4358 H 417.54 -2.08969 3.5959 0
M  V30 4359 H 416.117 -3.10196 2.06961 0
M  V30 4360 N 418.302 -1.35869 -0.798587 0
M  V30 4361 C 419.579 -1.20145 -1.54352 0
M  V30 4362 C 419.959 0.216161 -2.0999 0
M  V30 4363 O 419.307 1.22068 -1.93162 0
M  V30 4364 C 419.517 -2.27602 -2.64572 0
M  V30 4365 C 420.865 -2.63811 -3.32699 0
M  V30 4366 O 421.889 -2.26576 -2.74849 0
M  V30 4367 O 420.748 -3.27866 -4.37226 0
M  V30 4368 H 417.842 -0.467248 -0.682355 0
M  V30 4369 H 420.388 -1.47574 -0.837859 0
M  V30 4370 H 419.16 -3.2265 -2.21388 0
M  V30 4371 H 418.783 -2.01488 -3.42766 0
M  V30 4372 N 419.78 1.02168 -1.19998 0
M  V30 4373 C 421.026 1.75945 -1.00852 0
M  V30 4374 C 421.359 1.88702 0.458828 0
M  V30 4375 O 420.634 1.40911 1.34069 0
M  V30 4376 C 420.917 3.18154 -1.68671 0
M  V30 4377 C 420.77 3.13224 -3.22817 0
M  V30 4378 C 422.089 4.16711 -1.41561 0
M  V30 4379 H 419.208 0.638673 -0.367785 0
M  V30 4380 H 421.85 1.19222 -1.4794 0
M  V30 4381 H 420 3.66586 -1.28636 0
M  V30 4382 H 421.672 2.72635 -3.72112 0
M  V30 4383 H 419.915 2.50751 -3.53986 0
M  V30 4384 H 420.586 4.13728 -3.65422 0
M  V30 4385 H 423.062 3.76913 -1.76284 0
M  V30 4386 H 421.938 5.14391 -1.91553 0
M  V30 4387 H 422.199 4.40774 -0.342193 0
M  V30 4388 N 421.258 1.00505 1.21394 0
M  V30 4389 C 422.507 0.683159 1.89778 0
M  V30 4390 C 422.82 -0.789471 1.7896 0
M  V30 4391 O 424.026 -1.22344 2.42372 0
M  V30 4392 C 422.482 1.17146 3.40301 0
M  V30 4393 C 422.09 2.67017 3.5973 0
M  V30 4394 C 423.834 0.924461 4.14311 0
M  V30 4395 C 421.741 3.09387 5.04017 0
M  V30 4396 H 420.671 0.25183 0.710702 0
M  V30 4397 H 423.322 1.21622 1.37406 0
M  V30 4398 H 421.704 0.566451 3.91928 0
M  V30 4399 H 422.878 3.32968 3.18542 0
M  V30 4400 H 421.193 2.89732 2.99073 0
M  V30 4401 H 423.79 1.21658 5.20676 0
M  V30 4402 H 424.133 -0.139286 4.16067 0
M  V30 4403 H 424.666 1.49226 3.6875 0
M  V30 4404 H 421.405 4.14989 5.07409 0
M  V30 4405 H 420.925 2.48149 5.46061 0
M  V30 4406 H 422.604 3.01371 5.72525 0
M  V30 4407 N 422.737 -1.36956 0.779787 0
M  V30 4408 C 423.985 -1.99097 0.347079 0
M  V30 4409 C 424.306 -1.62206 -1.08232 0
M  V30 4410 O 423.576 -0.891373 -1.74446 0
M  V30 4411 H 422.156 -0.736409 0.125342 0
M  V30 4412 H 424.818 -1.67308 0.999696 0
M  V30 4413 H 423.914 -3.09107 0.431162 0
M  V30 4414 N 424.215 -0.530993 -1.48385 0
M  V30 4415 C 425.463 0.00273189 -2.021 0
M  V30 4416 C 425.784 1.34672 -1.41027 0
M  V30 4417 O 425.054 1.8724 -0.576012 0
M  V30 4418 H 423.634 0.00399774 -0.746989 0
M  V30 4419 H 426.296 -0.695054 -1.82085 0
M  V30 4420 H 425.392 0.11031 -3.11905 0
M  V30 4421 N 425.693 1.55336 -0.266172 0
M  V30 4422 C 427.109 1.59356 0.0882065 0
M  V30 4423 C 427.309 1.2834 1.55342 0
M  V30 4424 O 426.365 1.03996 2.30089 0
M  V30 4425 C 427.678 2.99409 -0.278364 0
M  V30 4426 C 429.226 3.12196 -0.224243 0
M  V30 4427 C 429.701 4.545 -0.565123 0
M  V30 4428 N 431.192 4.60313 -0.51634 0
M  V30 4429 C 431.927 5.68434 -0.753013 0
M  V30 4430 N 431.423 6.84738 -1.05383 0
M  V30 4431 N 433.216 5.57942 -0.682414 0
M  V30 4432 H 425.367 1.73764 -1.22147 0
M  V30 4433 H 427.63 0.809822 -0.492841 0
M  V30 4434 H 427.336 3.2691 -1.29703 0
M  V30 4435 H 427.21 3.75228 0.385186 0
M  V30 4436 H 429.597 2.84464 0.78512 0
M  V30 4437 H 429.678 2.38609 -0.921922 0
M  V30 4438 H 429.322 4.82956 -1.57213 0
M  V30 4439 H 429.252 5.26374 0.154248 0
M  V30 4440 H 431.743 3.7676 -0.29335 0
M  V30 4441 H 432.056 7.63088 -1.22133 0
M  V30 4442 H 430.401 6.86375 -1.09151 0
M  V30 4443 H 433.592 4.65958 -0.44731 0
M  V30 4444 H 433.765 6.4213 -0.870248 0
M  V30 4445 N 427.171 -0.0066808 1.57599 0
M  V30 4446 C 428.101 -0.999296 2.11036 0
M  V30 4447 C 429.082 -1.36278 1.01795 0
M  V30 4448 O 430.267 -1.4477 1.29442 0
M  V30 4449 C 427.397 -2.29328 2.60818 0
M  V30 4450 C 426.351 -2.07159 3.74525 0
M  V30 4451 C 425.677 -3.42512 4.10596 0
M  V30 4452 C 426.977 -1.43959 5.02069 0
M  V30 4453 H 428.671 -0.554382 2.94223 0
M  V30 4454 H 426.217 -0.265221 1.41536 0
M  V30 4455 H 428.17 -2.99117 2.96828 0
M  V30 4456 H 426.894 -2.7592 1.74745 0
M  V30 4457 H 425.553 -1.39797 3.38899 0
M  V30 4458 H 425.201 -3.86795 3.21556 0
M  V30 4459 H 424.901 -3.28498 4.87199 0
M  V30 4460 H 426.425 -4.13628 4.4916 0
M  V30 4461 H 427.839 -2.03696 5.35893 0
M  V30 4462 H 426.236 -1.40452 5.83432 0
M  V30 4463 H 427.306 -0.407992 4.83181 0
M  V30 4464 N 428.649 -1.55105 -0.279332 0
M  V30 4465 C 429.612 -1.86783 -1.32834 0
M  V30 4466 C 430.612 -0.74199 -1.42657 0
M  V30 4467 O 431.802 -1.0102 -1.41918 0
M  V30 4468 C 428.934 -2.06746 -2.71052 0
M  V30 4469 H 430.127 -2.8055 -1.05979 0
M  V30 4470 H 427.68 -1.47499 -0.517087 0
M  V30 4471 H 428.415 -1.15339 -3.03097 0
M  V30 4472 H 428.2 -2.88711 -2.65309 0
M  V30 4473 H 429.69 -2.32549 -3.46858 0
M  V30 4474 N 430.127 0.543554 -1.4793 0
M  V30 4475 C 431.09 1.63156 -1.60975 0
M  V30 4476 C 432.09 1.53346 -0.483899 0
M  V30 4477 O 433.28 1.5726 -0.749339 0
M  V30 4478 C 430.412 3.02743 -1.56716 0
M  V30 4479 H 431.605 1.52934 -2.57975 0
M  V30 4480 H 429.158 0.764557 -1.36324 0
M  V30 4481 H 429.893 3.18484 -0.611418 0
M  V30 4482 H 429.678 3.11272 -2.38438 0
M  V30 4483 H 431.168 3.81871 -1.6901 0
M  V30 4484 N 431.605 1.3629 0.791371 0
M  V30 4485 C 432.851 1.30605 1.55146 0
M  V30 4486 C 433.184 -0.115042 1.93859 0
M  V30 4487 O 432.459 -1.06798 1.62556 0
M  V30 4488 C 432.742 2.22692 2.82985 0
M  V30 4489 C 432.595 3.73489 2.50651 0
M  V30 4490 C 433.914 2.13588 3.84796 0
M  V30 4491 H 431.033 0.475761 0.562868 0
M  V30 4492 H 433.675 1.66825 0.909358 0
M  V30 4493 H 431.825 1.91933 3.37778 0
M  V30 4494 H 433.497 4.14758 2.01924 0
M  V30 4495 H 431.74 3.93021 1.83622 0
M  V30 4496 H 432.411 4.3333 3.41949 0
M  V30 4497 H 434.887 2.40659 3.39445 0
M  V30 4498 H 433.763 2.80195 4.71998 0
M  V30 4499 H 434.024 1.12256 4.27611 0
M  V30 4500 N 433.083 -1.0153 1.20538 0
M  V30 4501 C 434.03 -2.10098 0.955383 0
M  V30 4502 C 435 -1.65702 -0.114878 0
M  V30 4503 O 436.185 -1.90776 0.0301118 0
M  V30 4504 C 433.325 -3.41236 0.514969 0
M  V30 4505 C 432.438 -3.99102 1.65353 0
M  V30 4506 C 431.573 -5.18306 1.16329 0
M  V30 4507 C 430.612 -5.68258 2.27485 0
M  V30 4508 N 429.749 -6.78722 1.7967 0
M  V30 4509 H 434.589 -2.30818 1.88486 0
M  V30 4510 H 432.126 -1.13189 0.939499 0
M  V30 4511 H 434.084 -4.16504 0.240935 0
M  V30 4512 H 432.714 -3.20585 -0.377512 0
M  V30 4513 H 431.766 -3.20918 2.04245 0
M  V30 4514 H 433.078 -4.32177 2.49047 0
M  V30 4515 H 432.232 -6.00782 0.845302 0
M  V30 4516 H 430.971 -4.86799 0.296254 0
M  V30 4517 H 429.976 -4.84385 2.60099 0
M  V30 4518 H 431.201 -6.01798 3.14667 0
M  V30 4519 H 429.147 -6.49042 0.95295 0
M  V30 4520 H 429.064 -7.10996 2.56944 0
M  V30 4521 H 430.332 -7.64759 1.50875 0
M  V30 4522 N 434.561 -1.01147 -1.20859 0
M  V30 4523 C 435.524 -0.582224 -2.21682 0
M  V30 4524 C 436.524 0.344887 -1.57058 0
M  V30 4525 O 437.714 0.134281 -1.73682 0
M  V30 4526 C 434.846 0.150496 -3.40568 0
M  V30 4527 H 436.039 -1.47408 -2.61172 0
M  V30 4528 H 433.592 -0.800695 -1.34233 0
M  V30 4529 H 434.327 1.0575 -3.06574 0
M  V30 4530 H 434.112 -0.515444 -3.88697 0
M  V30 4531 H 435.602 0.438344 -4.15293 0
M  V30 4532 N 436.039 1.36541 -0.78704 0
M  V30 4533 C 437.316 1.9355 -0.282424 0
M  V30 4534 C 437.696 1.71919 1.22503 0
M  V30 4535 O 437.044 1.07677 2.01539 0
M  V30 4536 C 437.254 3.4246 -0.672462 0
M  V30 4537 C 438.602 4.19582 -0.650863 0
M  V30 4538 O 439.626 3.50889 -0.612789 0
M  V30 4539 O 438.485 5.42106 -0.691623 0
M  V30 4540 H 435.579 0.824091 -0.0693 0
M  V30 4541 H 438.125 1.45736 -0.869423 0
M  V30 4542 H 436.897 3.51851 -1.71221 0
M  V30 4543 H 436.52 3.97556 -0.0592211 0
M  V30 4544 N 437.518 0.538854 1.48102 0
M  V30 4545 C 438.481 -0.208395 2.28251 0
M  V30 4546 C 439.481 -0.859656 1.35892 0
M  V30 4547 O 440.671 -0.71834 1.58699 0
M  V30 4548 C 437.803 -1.30252 3.15035 0
M  V30 4549 H 438.996 0.495407 2.9578 0
M  V30 4550 H 436.549 0.295112 1.53489 0
M  V30 4551 H 437.284 -2.0393 2.52157 0
M  V30 4552 H 437.069 -0.840551 3.82985 0
M  V30 4553 H 438.559 -1.82787 3.75471 0
M  V30 4554 N 438.996 -1.55193 0.274407 0
M  V30 4555 C 439.959 -2.212 -0.600279 0
M  V30 4556 C 440.959 -1.18963 -1.08187 0
M  V30 4557 O 442.149 -1.43873 -0.982158 0
M  V30 4558 C 439.281 -2.87739 -1.82809 0
M  V30 4559 H 440.474 -2.9989 -0.0239682 0
M  V30 4560 H 438.027 -1.5628 0.0250192 0
M  V30 4561 H 438.762 -2.13058 -2.44493 0
M  V30 4562 H 438.547 -3.62658 -1.49069 0
M  V30 4563 H 440.037 -3.38171 -2.45011 0
M  V30 4564 N 440.474 -0.00167713 -1.576 0
M  V30 4565 C 441.885 0.54091 -1.78693 0
M  V30 4566 C 442.236 1.7386 -0.909247 0
M  V30 4567 O 441.361 2.16109 -0.112176 0
M  V30 4568 C 441.956 0.98806 -3.24072 0
M  V30 4569 C 440.515 1.47594 -3.46256 0
M  V30 4570 C 439.662 0.42792 -2.73978 0
M  V30 4571 H 442.613 -0.22784 -1.57056 0
M  V30 4572 H 442.634 1.85398 -3.32277 0
M  V30 4573 H 442.146 0.116164 -3.87926 0
M  V30 4574 H 440.247 2.36868 -2.87618 0
M  V30 4575 H 440.36 1.50225 -4.54939 0
M  V30 4576 H 438.724 0.889934 -2.38647 0
M  V30 4577 H 439.507 -0.435038 -3.40532 0
M  V30 4578 N 441.952 1.55251 0.271103 0
M  V30 4579 C 442.884 1.84675 1.35749 0
M  V30 4580 C 443.897 0.731366 1.45447 0
M  V30 4581 O 445.086 1.00924 1.4723 0
M  V30 4582 C 442.186 1.99638 2.73857 0
M  V30 4583 C 441.359 3.30312 2.86727 0
M  V30 4584 C 440.418 3.35318 4.05522 0
M  V30 4585 O 439.444 4.08682 3.96191 0
M  V30 4586 N 440.646 2.62857 5.17577 0
M  V30 4587 H 443.411 2.78445 1.10853 0
M  V30 4588 H 440.972 1.55191 0.461218 0
M  V30 4589 H 442.964 2.00355 3.51625 0
M  V30 4590 H 441.534 1.12725 2.91568 0
M  V30 4591 H 440.754 3.42118 1.95829 0
M  V30 4592 H 442.042 4.16488 2.92258 0
M  V30 4593 H 441.44 2.02939 5.28046 0
M  V30 4594 H 439.997 2.69295 5.93568 0
M  V30 4595 N 443.43 -0.535701 1.48216 0
M  V30 4596 C 444.676 -1.29375 1.56173 0
M  V30 4597 C 445.009 -1.92804 0.232429 0
M  V30 4598 O 444.284 -1.78992 -0.761048 0
M  V30 4599 C 444.567 -2.38747 2.69577 0
M  V30 4600 C 444.42 -1.80046 4.12193 0
M  V30 4601 C 445.739 -3.40551 2.78771 0
M  V30 4602 H 442.858 -0.469027 0.568491 0
M  V30 4603 H 445.5 -0.597358 1.80365 0
M  V30 4604 H 443.65 -2.98147 2.4908 0
M  V30 4605 H 445.322 -1.24742 4.44114 0
M  V30 4606 H 443.565 -1.10609 4.19462 0
M  V30 4607 H 444.236 -2.59212 4.87353 0
M  V30 4608 H 446.712 -2.91099 2.97322 0
M  V30 4609 H 445.588 -4.1448 3.59857 0
M  V30 4610 H 445.849 -4.00746 1.86696 0
M  V30 4611 N 444.908 -1.36708 -0.784132 0
M  V30 4612 C 445.838 -1.34153 -1.91116 0
M  V30 4613 C 446.819 -0.212121 -1.68772 0
M  V30 4614 O 448.004 -0.410581 -1.8981 0
M  V30 4615 C 445.134 -1.13535 -3.28218 0
M  V30 4616 C 444.088 -2.23356 -3.65097 0
M  V30 4617 C 443.414 -1.87875 -5.00607 0
M  V30 4618 C 444.714 -3.65473 -3.73131 0
M  V30 4619 H 446.408 -2.28459 -1.93512 0
M  V30 4620 H 443.954 -1.09973 -0.929618 0
M  V30 4621 H 445.907 -1.10381 -4.06687 0
M  V30 4622 H 444.631 -0.156804 -3.26223 0
M  V30 4623 H 443.29 -2.25645 -2.88929 0
M  V30 4624 H 442.938 -0.885814 -4.95139 0
M  V30 4625 H 442.638 -2.61406 -5.26252 0
M  V30 4626 H 444.162 -1.86286 -5.81489 0
M  V30 4627 H 445.576 -3.65382 -4.41779 0
M  V30 4628 H 443.973 -4.37953 -4.10265 0
M  V30 4629 H 445.043 -3.99995 -2.74102 0
M  V30 4630 N 446.386 1.0089 -1.21074 0
M  V30 4631 C 447.349 2.0775 -0.968129 0
M  V30 4632 C 448.349 1.6069 0.0593445 0
M  V30 4633 O 449.539 1.73293 -0.177525 0
M  V30 4634 C 446.671 3.37794 -0.459108 0
M  V30 4635 H 447.864 2.30707 -1.9161 0
M  V30 4636 H 445.417 1.17807 -1.02719 0
M  V30 4637 H 446.152 3.20516 0.49397 0
M  V30 4638 H 445.937 3.7328 -1.20019 0
M  V30 4639 H 447.427 4.16454 -0.309099 0
M  V30 4640 N 447.864 1.01787 1.20321 0
M  V30 4641 C 449.11 0.708985 1.90003 0
M  V30 4642 C 449.443 -0.759572 1.78729 0
M  V30 4643 O 448.718 -1.55198 1.17234 0
M  V30 4644 C 449.001 1.1469 3.41348 0
M  V30 4645 C 448.854 2.67586 3.61549 0
M  V30 4646 C 450.173 0.71915 4.34185 0
M  V30 4647 H 447.292 0.259034 0.689978 0
M  V30 4648 H 449.934 1.26584 1.41692 0
M  V30 4649 H 448.084 0.673128 3.82624 0
M  V30 4650 H 449.756 3.22826 3.29517 0
M  V30 4651 H 447.999 3.085 3.04976 0
M  V30 4652 H 448.67 2.93281 4.67643 0
M  V30 4653 H 451.146 1.12647 4.00562 0
M  V30 4654 H 450.022 1.05358 5.38694 0
M  V30 4655 H 450.283 -0.379111 4.40472 0
M  V30 4656 N 449.342 -1.36122 0.79427 0
M  V30 4657 C 450.305 -2.28309 0.201889 0
M  V30 4658 C 451.305 -1.49041 -0.603603 0
M  V30 4659 O 452.495 -1.68964 -0.423888 0
M  V30 4660 C 449.627 -3.3321 -0.719978 0
M  V30 4661 H 450.82 -2.82208 1.01481 0
M  V30 4662 H 448.373 -1.45768 0.564037 0
M  V30 4663 H 449.108 -2.84475 -1.55706 0
M  V30 4664 H 448.893 -3.91835 -0.144266 0
M  V30 4665 H 450.383 -4.02044 -1.12916 0
M  V30 4666 N 450.82 -0.546701 -1.47814 0
M  V30 4667 C 452.231 -0.110564 -1.86372 0
M  V30 4668 C 452.582 1.31678 -1.45449 0
M  V30 4669 O 451.707 1.98889 -0.852758 0
M  V30 4670 C 452.302 -0.193873 -3.38245 0
M  V30 4671 C 450.861 0.187164 -3.75934 0
M  V30 4672 C 450.008 -0.546166 -2.71868 0
M  V30 4673 H 452.959 -0.757022 -1.39481 0
M  V30 4674 H 452.98 0.590218 -3.75895 0
M  V30 4675 H 452.492 -1.23282 -3.67999 0
M  V30 4676 H 450.593 1.22762 -3.51796 0
M  V30 4677 H 450.706 -0.164083 -4.78819 0
M  V30 4678 H 449.07 0.00953904 -2.54698 0
M  V30 4679 H 449.853 -1.58606 -3.04465 0
M  V30 4680 N 452.299 1.55045 -0.282633 0
M  V30 4681 C 453.262 2.21515 0.588539 0
M  V30 4682 C 454.262 1.19535 1.07554 0
M  V30 4683 O 455.452 1.44391 0.974514 0
M  V30 4684 C 452.584 2.88704 1.8128 0
M  V30 4685 H 453.777 2.99899 0.00806397 0
M  V30 4686 H 451.33 1.56265 -0.0333067 0
M  V30 4687 H 452.065 2.14352 2.43359 0
M  V30 4688 H 451.85 3.63443 1.47144 0
M  V30 4689 H 453.34 3.39465 2.43214 0
M  V30 4690 N 453.777 0.010035 1.57597 0
M  V30 4691 C 455.193 -0.346164 1.55801 0
M  V30 4692 C 455.393 -1.74144 1.01371 0
M  V30 4693 O 454.449 -2.43938 0.651968 0
M  V30 4694 C 455.762 -0.212216 2.9995 0
M  V30 4695 C 457.31 -0.286409 3.11687 0
M  V30 4696 C 457.785 -0.18147 4.5764 0
M  V30 4697 N 459.276 -0.239056 4.62583 0
M  V30 4698 C 460.011 -0.181351 5.73113 0
M  V30 4699 N 459.507 -0.073661 6.92761 0
M  V30 4700 N 461.3 -0.233949 5.61613 0
M  V30 4701 H 453.451 0.922657 1.91313 0
M  V30 4702 H 455.714 0.354595 0.879185 0
M  V30 4703 H 455.42 0.748169 3.4365 0
M  V30 4704 H 455.294 -0.990224 3.6397 0
M  V30 4705 H 457.681 -1.23724 2.67911 0
M  V30 4706 H 457.762 0.521645 2.50425 0
M  V30 4707 H 457.406 0.765863 5.02093 0
M  V30 4708 H 457.336 -1.00814 5.1686 0
M  V30 4709 H 459.827 -0.32321 3.76515 0
M  V30 4710 H 460.14 -0.0358003 7.72792 0
M  V30 4711 H 458.485 -0.0391461 6.94989 0
M  V30 4712 H 461.676 -0.316347 4.6703 0
M  V30 4713 H 461.849 -0.185514 6.47734 0
M  V30 4714 N 455.255 -1.55392 -0.262866 0
M  V30 4715 C 456.185 -1.91978 -1.32917 0
M  V30 4716 C 457.166 -0.7828 -1.51017 0
M  V30 4717 O 458.351 -1.04178 -1.63892 0
M  V30 4718 C 455.481 -2.20055 -2.68687 0
M  V30 4719 C 454.435 -3.35854 -2.65304 0
M  V30 4720 C 453.761 -3.49435 -4.04721 0
M  V30 4721 C 455.061 -4.71977 -2.23685 0
M  V30 4722 H 456.755 -2.81292 -1.02544 0
M  V30 4723 H 454.301 -1.3534 -0.491846 0
M  V30 4724 H 456.254 -2.44237 -3.43404 0
M  V30 4725 H 454.978 -1.27551 -3.00663 0
M  V30 4726 H 453.637 -3.11655 -1.93045 0
M  V30 4727 H 453.285 -2.54379 -4.33936 0
M  V30 4728 H 452.985 -4.27297 -4.0335 0
M  V30 4729 H 454.509 -3.7592 -4.81161 0
M  V30 4730 H 455.923 -4.95637 -2.88127 0
M  V30 4731 H 454.32 -5.52828 -2.33456 0
M  V30 4732 H 455.39 -4.70115 -1.18827 0
M  V30 4733 N 456.733 0.527833 -1.48498 0
M  V30 4734 C 457.68 1.6322 -1.6318 0
M  V30 4735 C 458.65 1.59199 -0.473815 0
M  V30 4736 O 459.835 1.77591 -0.697563 0
M  V30 4737 C 456.975 3.01474 -1.67951 0
M  V30 4738 C 456.088 3.15713 -2.94871 0
M  V30 4739 C 455.223 4.44539 -2.90789 0
M  V30 4740 C 454.262 4.52315 -4.12404 0
M  V30 4741 N 453.399 5.72533 -4.06387 0
M  V30 4742 H 458.239 1.50011 -2.57489 0
M  V30 4743 H 455.776 0.730298 -1.27691 0
M  V30 4744 H 457.734 3.81572 -1.68698 0
M  V30 4745 H 456.364 3.1345 -0.771306 0
M  V30 4746 H 455.416 2.28854 -3.03859 0
M  V30 4747 H 456.728 3.1732 -3.8485 0
M  V30 4748 H 455.882 5.3293 -2.89949 0
M  V30 4749 H 454.621 4.45457 -1.98542 0
M  V30 4750 H 453.626 3.62331 -4.13517 0
M  V30 4751 H 454.851 4.53134 -5.05812 0
M  V30 4752 H 452.797 5.74344 -3.16962 0
M  V30 4753 H 452.714 5.75643 -4.90073 0
M  V30 4754 H 453.982 6.63204 -4.0961 0
M  V30 4755 N 458.211 1.37122 0.776871 0
M  V30 4756 C 459.46 1.31373 1.53049 0
M  V30 4757 C 459.773 -0.101016 1.95339 0
M  V30 4758 O 460.979 -0.280953 2.70042 0
M  V30 4759 C 459.435 2.30567 2.76346 0
M  V30 4760 C 459.043 3.77543 2.41175 0
M  V30 4761 C 460.787 2.33818 3.54301 0
M  V30 4762 C 458.694 4.68481 3.60943 0
M  V30 4763 H 457.624 0.488234 0.574581 0
M  V30 4764 H 460.275 1.62554 0.851372 0
M  V30 4765 H 458.657 1.92396 3.46121 0
M  V30 4766 H 459.831 4.24521 1.79216 0
M  V30 4767 H 458.146 3.77187 1.76405 0
M  V30 4768 H 460.743 2.98965 4.4331 0
M  V30 4769 H 461.086 1.3503 3.93793 0
M  V30 4770 H 461.619 2.7067 2.91518 0
M  V30 4771 H 458.358 5.68378 3.26537 0
M  V30 4772 H 457.878 4.2621 4.22025 0
M  V30 4773 H 459.557 4.85366 4.27819 0
M  V30 4774 N 459.689 -1.00246 1.21608 0
M  V30 4775 C 460.937 -1.73717 1.0328 0
M  V30 4776 C 461.258 -1.90102 -0.434318 0
M  V30 4777 O 460.528 -1.45376 -1.31311 0
M  V30 4778 H 459.108 -0.643613 0.379172 0
M  V30 4779 H 461.77 -1.20787 1.52959 0
M  V30 4780 H 460.866 -2.73535 1.50283 0
M  V30 4781 N 461.167 -1.02423 -1.1978 0
M  V30 4782 C 462.077 -0.610919 -2.26506 0
M  V30 4783 C 463.093 0.355152 -1.70337 0
M  V30 4784 O 464.269 0.214195 -2.00258 0
M  V30 4785 C 461.334 0.0365921 -3.46681 0
M  V30 4786 C 460.395 -0.976389 -4.18049 0
M  V30 4787 C 459.628 -0.359683 -5.32487 0
M  V30 4788 O 459.851 0.838601 -5.64202 0
M  V30 4789 O 458.785 -1.08022 -5.92127 0
M  V30 4790 H 462.611 -1.49965 -2.64091 0
M  V30 4791 H 460.196 -0.794156 -1.26545 0
M  V30 4792 H 462.078 0.39786 -4.19518 0
M  V30 4793 H 460.753 0.899398 -3.10954 0
M  V30 4794 H 459.66 -1.38916 -3.47352 0
M  V30 4795 H 460.993 -1.80941 -4.57735 0
M  V30 4796 N 462.645 1.35699 -0.801477 0
M  V30 4797 C 463.555 2.33661 -0.209691 0
M  V30 4798 C 464.571 1.6162 0.644591 0
M  V30 4799 O 465.747 1.93529 0.557545 0
M  V30 4800 C 462.812 3.40816 0.636033 0
M  V30 4801 C 461.873 4.28639 -0.238147 0
M  V30 4802 C 461.106 5.30676 0.567307 0
M  V30 4803 O 461.329 5.41174 1.8024 0
M  V30 4804 O 460.263 6.01887 -0.0391336 0
M  V30 4805 H 464.089 2.8606 -1.01996 0
M  V30 4806 H 461.674 1.38379 -0.563164 0
M  V30 4807 H 463.556 4.06301 1.11791 0
M  V30 4808 H 462.231 2.90696 1.42399 0
M  V30 4809 H 461.138 3.66152 -0.767044 0
M  V30 4810 H 462.471 4.82143 -0.989915 0
M  V30 4811 N 464.123 0.554532 1.47522 0
M  V30 4812 C 465.351 0.034257 2.06872 0
M  V30 4813 C 465.766 -1.25826 1.40759 0
M  V30 4814 O 465.123 -1.75425 0.503217 0
M  V30 4815 C 465.174 -0.167827 3.6111 0
M  V30 4816 O 464.895 1.07351 4.24744 0
M  V30 4817 C 466.396 -0.72569 4.3732 0
M  V30 4818 H 463.616 0.0446275 0.669514 0
M  V30 4819 H 466.16 0.767181 1.89564 0
M  V30 4820 H 464.315 -0.850872 3.7794 0
M  V30 4821 H 464.729 0.869563 5.17242 0
M  V30 4822 H 466.203 -0.816394 5.45929 0
M  V30 4823 H 466.68 -1.73635 4.0342 0
M  V30 4824 H 467.286 -0.0784292 4.25228 0
M  V30 4825 N 465.601 -1.54893 0.290851 0
M  V30 4826 C 466.533 -2.20564 -0.623236 0
M  V30 4827 C 467.546 -1.19519 -1.1054 0
M  V30 4828 O 468.735 -1.46165 -1.02459 0
M  V30 4829 C 465.835 -2.83033 -1.86401 0
M  V30 4830 C 465.008 -4.09916 -1.52604 0
M  V30 4831 C 464.067 -4.56284 -2.62091 0
M  V30 4832 O 463.093 -5.2171 -2.27612 0
M  V30 4833 N 464.295 -4.27746 -3.92446 0
M  V30 4834 H 467.06 -2.99638 -0.0610915 0
M  V30 4835 H 464.621 -1.61508 0.112615 0
M  V30 4836 H 466.613 -3.1099 -2.58973 0
M  V30 4837 H 465.183 -2.0786 -2.33481 0
M  V30 4838 H 464.403 -3.89078 -0.633424 0
M  V30 4839 H 465.691 -4.92554 -1.27547 0
M  V30 4840 H 465.089 -3.7531 -4.23272 0
M  V30 4841 H 463.646 -4.60437 -4.61347 0
M  V30 4842 N 467.08 -0.0183926 -1.57589 0
M  V30 4843 C 468.01 0.965596 -2.12599 0
M  V30 4844 C 468.991 1.34641 -1.0395 0
M  V30 4845 O 470.176 1.42693 -1.31729 0
M  V30 4846 C 467.306 2.25149 -2.64434 0
M  V30 4847 C 466.26 2.01175 -3.77773 0
M  V30 4848 C 465.586 3.35937 -4.15994 0
M  V30 4849 C 466.886 1.35953 -5.04296 0
M  V30 4850 H 468.58 0.507504 -2.95067 0
M  V30 4851 H 466.126 0.242671 -1.41941 0
M  V30 4852 H 468.079 2.94357 -3.01549 0
M  V30 4853 H 466.803 2.73105 -1.79112 0
M  V30 4854 H 465.462 1.34388 -3.4108 0
M  V30 4855 H 465.11 3.81631 -3.27669 0
M  V30 4856 H 464.81 3.20705 -4.92364 0
M  V30 4857 H 466.334 4.0643 -4.55683 0
M  V30 4858 H 467.748 1.95144 -5.39065 0
M  V30 4859 H 466.145 1.31152 -5.85593 0
M  V30 4860 H 467.215 0.331071 -4.83768 0
M  V30 4861 N 468.558 1.5553 0.254621 0
M  V30 4862 C 469.974 1.4778 0.602753 0
M  V30 4863 C 470.174 0.707047 1.88688 0
M  V30 4864 O 469.23 0.233288 2.5142 0
M  V30 4865 C 470.543 2.92133 0.712648 0
M  V30 4866 C 472.091 3.02458 0.805488 0
M  V30 4867 C 472.566 4.48102 0.947009 0
M  V30 4868 N 474.057 4.52008 1.01207 0
M  V30 4869 C 474.792 5.61939 1.1407 0
M  V30 4870 N 474.288 6.81697 1.23536 0
M  V30 4871 N 476.081 5.49719 1.17325 0
M  V30 4872 H 468.232 2.04085 -0.588463 0
M  V30 4873 H 470.495 0.926229 -0.202001 0
M  V30 4874 H 470.201 3.51332 -0.160766 0
M  V30 4875 H 470.075 3.42187 1.58707 0
M  V30 4876 H 472.462 2.43344 1.66936 0
M  V30 4877 H 472.543 2.55627 -0.0939266 0
M  V30 4878 H 472.187 5.07824 0.087725 0
M  V30 4879 H 472.117 4.92607 1.86135 0
M  V30 4880 H 474.608 3.65749 0.950577 0
M  V30 4881 H 474.921 7.61228 1.33236 0
M  V30 4882 H 473.266 6.84473 1.20508 0
M  V30 4883 H 476.457 4.55095 1.09573 0
M  V30 4884 H 476.63 6.35432 1.27005 0
M  V30 4885 N 470.036 -0.519951 1.48776 0
M  V30 4886 C 471.282 -1.27711 1.57536 0
M  V30 4887 C 471.615 -1.92547 0.252866 0
M  V30 4888 O 470.89 -1.7979 -0.742021 0
M  V30 4889 C 471.173 -2.35875 2.72094 0
M  V30 4890 C 471.026 -1.75664 4.1408 0
M  V30 4891 C 472.345 -3.37575 2.82367 0
M  V30 4892 H 469.464 -0.462971 0.573434 0
M  V30 4893 H 472.106 -0.578194 1.80989 0
M  V30 4894 H 470.256 -2.95488 2.52228 0
M  V30 4895 H 471.928 -1.20025 4.45412 0
M  V30 4896 H 470.171 -1.06154 4.20611 0
M  V30 4897 H 470.842 -2.54029 4.90075 0
M  V30 4898 H 473.318 -2.87929 3.00393 0
M  V30 4899 H 472.194 -4.1064 3.64233 0
M  V30 4900 H 472.455 -3.98743 1.90936 0
M  V30 4901 N 471.514 -1.37532 -0.769588 0
M  V30 4902 C 472.477 -1.33292 -1.86456 0
M  V30 4903 C 473.477 -0.236537 -1.59051 0
M  V30 4904 O 474.667 -0.492511 -1.67093 0
M  V30 4905 C 471.799 -1.07118 -3.23633 0
M  V30 4906 H 472.992 -2.30692 -1.91628 0
M  V30 4907 H 470.545 -1.22593 -0.969572 0
M  V30 4908 H 471.28 -0.102578 -3.24138 0
M  V30 4909 H 471.065 -1.86479 -3.44917 0
M  V30 4910 H 472.555 -1.06806 -4.03711 0
M  V30 4911 N 472.992 0.995999 -1.22138 0
M  V30 4912 C 474.24 1.73167 -1.042 0
M  V30 4913 C 474.561 1.90329 0.42423 0
M  V30 4914 O 473.831 1.4607 1.30539 0
M  V30 4915 H 472.411 0.641593 -0.38258 0
M  V30 4916 H 475.073 1.19974 -1.53598 0
M  V30 4917 H 474.169 2.72734 -1.51731 0
M  V30 4918 N 474.47 1.03057 1.19235 0
M  V30 4919 C 475.698 0.747697 1.92917 0
M  V30 4920 C 476.113 -0.69372 1.75593 0
M  V30 4921 O 475.47 -1.47191 1.07894 0
M  V30 4922 C 475.521 1.09159 3.44625 0
M  V30 4923 O 475.242 2.47641 3.61394 0
M  V30 4924 C 476.743 0.831763 4.35427 0
M  V30 4925 H 473.963 0.273453 0.612751 0
M  V30 4926 H 476.507 1.37552 1.51327 0
M  V30 4927 H 474.662 0.508919 3.84043 0
M  V30 4928 H 475.076 2.60499 4.55237 0
M  V30 4929 H 476.55 1.12233 5.4047 0
M  V30 4930 H 477.027 -0.233769 4.38577 0
M  V30 4931 H 477.633 1.39725 4.01693 0
M  V30 4932 N 475.948 -1.35272 0.808662 0
M  V30 4933 C 477.196 -1.98316 0.389233 0
M  V30 4934 C 477.517 -1.64465 -1.04767 0
M  V30 4935 O 476.787 -0.928175 -1.72516 0
M  V30 4936 H 475.367 -0.733585 0.140935 0
M  V30 4937 H 478.029 -1.6515 1.03496 0
M  V30 4938 H 477.125 -3.08123 0.496631 0
M  V30 4939 N 477.426 -0.562348 -1.47226 0
M  V30 4940 C 478.356 0.170627 -2.32876 0
M  V30 4941 C 479.337 0.903748 -1.44106 0
M  V30 4942 O 480.522 0.883206 -1.72954 0
M  V30 4943 C 477.652 1.19786 -3.25989 0
M  V30 4944 C 476.606 0.580875 -4.2404 0
M  V30 4945 C 475.932 1.71311 -5.06514 0
M  V30 4946 C 477.232 -0.468714 -5.20193 0
M  V30 4947 H 478.926 -0.544441 -2.94408 0
M  V30 4948 H 476.472 -0.263271 -1.41573 0
M  V30 4949 H 478.425 1.71884 -3.84752 0
M  V30 4950 H 477.149 1.94294 -2.62521 0
M  V30 4951 H 475.808 0.0811538 -3.6651 0
M  V30 4952 H 475.456 2.44736 -4.39447 0
M  V30 4953 H 475.156 1.30604 -5.72902 0
M  V30 4954 H 476.68 2.23725 -5.68137 0
M  V30 4955 H 478.094 -0.0336028 -5.7329 0
M  V30 4956 H 476.491 -0.794957 -5.94811 0
M  V30 4957 H 477.561 -1.36269 -4.65359 0
M  V30 4958 N 478.904 1.54736 -0.299062 0
M  V30 4959 C 480.152 1.99706 0.31017 0
M  V30 4960 C 480.473 1.18896 1.54559 0
M  V30 4961 O 479.743 0.284445 1.93824 0
M  V30 4962 H 478.323 0.737686 0.117596 0
M  V30 4963 H 480.985 1.9054 -0.409943 0
M  V30 4964 H 480.081 3.06596 0.58355 0
M  V30 4965 N 480.382 0.0267497 1.57577 0
M  V30 4966 C 481.607 -0.666227 1.96408 0
M  V30 4967 C 482.032 -1.65004 0.903071 0
M  V30 4968 O 481.39 -1.80787 -0.136263 0
M  V30 4969 C 481.438 -1.35101 3.34335 0
M  V30 4970 O 480.542 -2.46623 3.30531 0
M  V30 4971 H 479.883 -0.175206 0.640468 0
M  V30 4972 H 482.413 0.0878977 2.04411 0
M  V30 4973 H 482.423 -1.70834 3.70513 0
M  V30 4974 H 481.098 -0.629844 4.11103 0
M  V30 4975 H 479.675 -2.13019 3.06068 0
M  V30 4976 N 481.861 -1.55662 -0.24637 0
M  V30 4977 C 483.138 -1.68272 -0.997198 0
M  V30 4978 C 483.518 -0.566785 -2.03349 0
M  V30 4979 O 482.866 0.429688 -2.24424 0
M  V30 4980 C 483.076 -3.08594 -1.63006 0
M  V30 4981 C 484.424 -3.6721 -2.13171 0
M  V30 4982 O 485.448 -3.11397 -1.72946 0
M  V30 4983 O 484.307 -4.65054 -2.87031 0
M  V30 4984 H 481.401 -0.684429 -0.464205 0
M  V30 4985 H 483.947 -1.67993 -0.240114 0
M  V30 4986 H 482.719 -3.81264 -0.880527 0
M  V30 4987 H 482.342 -3.12886 -2.45333 0
M  V30 4988 N 483.339 0.512053 -1.4905 0
M  V30 4989 C 484.269 1.62365 -1.67809 0
M  V30 4990 C 485.25 1.61737 -0.526809 0
M  V30 4991 O 486.435 1.78651 -0.761404 0
M  V30 4992 C 483.565 3.00895 -1.73435 0
M  V30 4993 C 482.519 3.16387 -2.88242 0
M  V30 4994 C 481.845 4.56157 -2.78971 0
M  V30 4995 C 483.145 2.97457 -4.29321 0
M  V30 4996 H 484.839 1.46921 -2.60873 0
M  V30 4997 H 482.385 0.705379 -1.2554 0
M  V30 4998 H 484.338 3.78549 -1.85145 0
M  V30 4999 H 483.062 3.17403 -0.769619 0
M  V30 5000 H 481.721 2.41155 -2.76116 0
M  V30 5001 H 481.369 4.69525 -1.8043 0
M  V30 5002 H 481.069 4.67465 -3.5602 0
M  V30 5003 H 482.593 5.35886 -2.92675 0
M  V30 5004 H 484.007 3.64888 -4.42187 0
M  V30 5005 H 482.404 3.20245 -5.07507 0
M  V30 5006 H 483.474 1.93692 -4.44535 0
M  V30 5007 N 484.817 1.37938 0.762283 0
M  V30 5008 C 486.045 1.36883 1.55147 0
M  V30 5009 C 486.46 -0.0435348 1.8875 0
M  V30 5010 O 485.817 -1.00786 1.52146 0
M  V30 5011 C 485.868 2.21624 2.85596 0
M  V30 5012 O 485.589 3.57358 2.5343 0
M  V30 5013 C 487.09 2.28653 3.7978 0
M  V30 5014 H 484.31 0.468521 0.480343 0
M  V30 5015 H 486.854 1.81404 0.944079 0
M  V30 5016 H 485.009 1.80588 3.42734 0
M  V30 5017 H 485.423 4.01883 3.37032 0
M  V30 5018 H 486.897 2.9225 4.68288 0
M  V30 5019 H 487.374 1.29767 4.19592 0
M  V30 5020 H 487.98 2.70043 3.28568 0
M  V30 5021 N 486.295 -0.989507 1.22664 0
M  V30 5022 C 487.225 -2.09847 1.02404 0
M  V30 5023 C 488.206 -1.70007 -0.0561303 0
M  V30 5024 O 489.391 -1.93906 0.106748 0
M  V30 5025 C 486.521 -3.41996 0.604663 0
M  V30 5026 C 485.475 -3.95699 1.63115 0
M  V30 5027 C 484.801 -5.23936 1.0675 0
M  V30 5028 C 486.101 -4.25999 3.02196 0
M  V30 5029 H 487.795 -2.27054 1.95158 0
M  V30 5030 H 485.341 -1.09111 0.939727 0
M  V30 5031 H 487.294 -4.1899 0.45002 0
M  V30 5032 H 486.018 -3.24626 -0.35855 0
M  V30 5033 H 484.677 -3.2084 1.77362 0
M  V30 5034 H 484.325 -5.02909 0.0955422 0
M  V30 5035 H 484.025 -5.60833 1.75328 0
M  V30 5036 H 485.549 -6.0356 0.924516 0
M  V30 5037 H 486.963 -4.93777 2.91303 0
M  V30 5038 H 485.36 -4.74076 3.67929 0
M  V30 5039 H 486.43 -3.33636 3.51873 0
M  V30 5040 N 487.773 -1.03688 -1.18687 0
M  V30 5041 C 489.184 -0.766488 -1.70241 0
M  V30 5042 C 489.535 0.713052 -1.82784 0
M  V30 5043 O 488.66 1.55529 -1.50465 0
M  V30 5044 C 489.255 -1.38475 -3.09209 0
M  V30 5045 C 487.814 -1.16276 -3.5799 0
M  V30 5046 C 486.961 -1.4778 -2.34641 0
M  V30 5047 H 489.912 -1.20378 -1.03415 0
M  V30 5048 H 489.933 -0.785939 -3.72295 0
M  V30 5049 H 489.445 -2.46157 -3.00048 0
M  V30 5050 H 487.546 -0.104508 -3.72453 0
M  V30 5051 H 487.659 -1.8571 -4.41643 0
M  V30 5052 H 486.023 -0.897366 -2.38368 0
M  V30 5053 H 486.806 -2.56562 -2.28102 0
M  V30 5054 N 489.251 1.34841 -0.815825 0
M  V30 5055 C 490.161 2.33425 -0.234462 0
M  V30 5056 C 491.177 1.62295 0.627413 0
M  V30 5057 O 492.353 1.94109 0.536987 0
M  V30 5058 C 489.418 3.41471 0.599849 0
M  V30 5059 C 488.479 4.28362 -0.283596 0
M  V30 5060 C 487.712 5.31248 0.51099 0
M  V30 5061 O 487.935 5.43056 1.7449 0
M  V30 5062 O 486.869 6.01812 -0.10297 0
M  V30 5063 H 490.695 2.84962 -1.05024 0
M  V30 5064 H 488.28 1.37774 -0.577809 0
M  V30 5065 H 490.162 4.07464 1.07475 0
M  V30 5066 H 488.837 2.9219 1.39308 0
M  V30 5067 H 487.744 3.65318 -0.805836 0
M  V30 5068 H 489.077 4.81066 -1.041 0
M  V30 5069 N 490.729 0.570148 1.46925 0
M  V30 5070 C 491.977 0.0508523 2.02036 0
M  V30 5071 C 492.298 -1.30885 1.44548 0
M  V30 5072 O 491.568 -1.85647 0.625453 0
M  V30 5073 H 490.148 0.0158088 0.746833 0
M  V30 5074 H 492.81 0.743086 1.80178 0
M  V30 5075 H 491.906 -0.027575 3.12088 0
M  V30 5076 N 492.207 -1.54576 0.307264 0
M  V30 5077 C 493.453 -2.0056 -0.300612 0
M  V30 5078 C 493.786 -1.1953 -1.53057 0
M  V30 5079 O 493.061 -0.27337 -1.92569 0
M  V30 5080 C 493.344 -3.54167 -0.650987 0
M  V30 5081 C 493.197 -4.45933 0.588539 0
M  V30 5082 C 494.516 -4.14645 -1.47506 0
M  V30 5083 H 491.635 -0.729075 -0.107788 0
M  V30 5084 H 494.277 -1.85286 0.420606 0
M  V30 5085 H 492.427 -3.67313 -1.26544 0
M  V30 5086 H 494.099 -4.44683 1.22697 0
M  V30 5087 H 492.342 -4.16274 1.22058 0
M  V30 5088 H 493.013 -5.51189 0.299153 0
M  V30 5089 H 495.489 -4.04973 -0.955821 0
M  V30 5090 H 494.365 -5.22269 -1.68899 0
M  V30 5091 H 494.626 -3.66921 -2.4662 0
M  V30 5092 N 493.685 -0.035106 -1.57561 0
M  V30 5093 C 494.648 0.929819 -2.09492 0
M  V30 5094 C 495.648 1.25026 -1.01119 0
M  V30 5095 O 496.838 1.18961 -1.27255 0
M  V30 5096 C 493.97 2.24457 -2.56577 0
M  V30 5097 H 495.163 0.479935 -2.96035 0
M  V30 5098 H 492.716 0.213033 -1.54841 0
M  V30 5099 H 493.451 2.74061 -1.73382 0
M  V30 5100 H 493.236 2.02508 -3.35757 0
M  V30 5101 H 494.726 2.93607 -2.96959 0
M  V30 5102 N 495.163 1.55791 0.238111 0
M  V30 5103 C 496.411 1.77681 0.963001 0
M  V30 5104 C 496.732 0.600674 1.85518 0
M  V30 5105 O 496.002 -0.383182 1.92116 0
M  V30 5106 H 494.582 0.655315 0.358568 0
M  V30 5107 H 497.244 1.93239 0.253945 0
M  V30 5108 H 496.34 2.69177 1.57956 0
M  V30 5109 N 496.642 -0.504142 1.49319 0
M  V30 5110 C 497.867 -1.28729 1.62615 0
M  V30 5111 C 498.292 -1.85752 0.296309 0
M  V30 5112 O 497.65 -1.65704 -0.735649 0
M  V30 5113 C 497.698 -2.39561 2.69524 0
M  V30 5114 O 496.802 -3.43324 2.28478 0
M  V30 5115 H 496.143 -0.380172 0.544395 0
M  V30 5116 H 498.673 -0.603872 1.95485 0
M  V30 5117 H 498.683 -2.8537 2.91595 0
M  V30 5118 H 497.358 -1.97423 3.66056 0
M  V30 5119 H 495.935 -3.03455 2.16725 0
M  V30 5120 N 498.12 -1.38341 -0.754957 0
M  V30 5121 C 499.366 -1.34672 -1.51628 0
M  V30 5122 C 499.699 0.0636036 -1.94096 0
M  V30 5123 O 498.974 1.0245 -1.6533 0
M  V30 5124 C 499.257 -2.30116 -2.76981 0
M  V30 5125 C 499.11 -3.80003 -2.4066 0
M  V30 5126 C 500.429 -2.23715 -3.78998 0
M  V30 5127 H 497.548 -0.490517 -0.550056 0
M  V30 5128 H 500.19 -1.69178 -0.864807 0
M  V30 5129 H 498.34 -2.00821 -3.3257 0
M  V30 5130 H 500.012 -4.19966 -1.90856 0
M  V30 5131 H 498.255 -3.97751 -1.73137 0
M  V30 5132 H 498.926 -4.42244 -3.30339 0
M  V30 5133 H 501.402 -2.49574 -3.32945 0
M  V30 5134 H 500.278 -2.9261 -4.64403 0
M  V30 5135 H 500.539 -1.23554 -4.24484 0
M  V30 5136 N 499.598 0.982988 -1.23187 0
M  V30 5137 C 500.508 2.10907 -1.02739 0
M  V30 5138 C 501.524 1.73979 0.0273188 0
M  V30 5139 O 502.7 2.00702 -0.16757 0
M  V30 5140 C 499.765 3.41142 -0.618304 0
M  V30 5141 C 498.826 3.92112 -1.74777 0
M  V30 5142 C 498.059 5.16131 -1.3581 0
M  V30 5143 O 498.282 5.6989 -0.241201 0
M  V30 5144 O 497.216 5.61103 -2.17824 0
M  V30 5145 H 501.042 2.31046 -1.97108 0
M  V30 5146 H 498.627 1.09284 -1.01869 0
M  V30 5147 H 500.509 4.19488 -0.400982 0
M  V30 5148 H 499.184 3.2234 0.296421 0
M  V30 5149 H 498.091 3.14895 -2.0197 0
M  V30 5150 H 499.424 4.15364 -2.64071 0
M  V30 5151 N 501.076 1.04316 1.18135 0
M  V30 5152 C 502.301 0.768047 1.92655 0
M  V30 5153 C 502.726 -0.66904 1.758 0
M  V30 5154 O 502.084 -1.46372 1.06981 0
M  V30 5155 C 502.132 1.14239 3.42026 0
M  V30 5156 O 501.236 0.269333 4.1152 0
M  V30 5157 H 500.577 0.282436 0.600937 0
M  V30 5158 H 503.107 1.39367 1.49793 0
M  V30 5159 H 503.117 1.10538 3.92741 0
M  V30 5160 H 501.792 2.18928 3.53615 0
M  V30 5161 H 500.369 0.366175 3.71098 0
M  V30 5162 N 502.554 -1.34406 0.822964 0
M  V30 5163 C 503.517 -2.2783 0.250271 0
M  V30 5164 C 504.517 -1.50288 -0.571854 0
M  V30 5165 O 505.707 -1.69825 -0.387952 0
M  V30 5166 C 502.839 -3.34663 -0.649137 0
M  V30 5167 H 504.032 -2.79992 1.07444 0
M  V30 5168 H 501.585 -1.44539 0.594829 0
M  V30 5169 H 502.32 -2.87714 -1.49637 0
M  V30 5170 H 502.105 -3.92052 -0.0611199 0
M  V30 5171 H 503.595 -4.04349 -1.04363 0
M  V30 5172 N 504.032 -0.577932 -1.46621 0
M  V30 5173 C 505.28 -0.061566 -2.02006 0
M  V30 5174 C 505.601 1.30117 -1.4524 0
M  V30 5175 O 504.871 1.85313 -0.63529 0
M  V30 5176 H 503.451 -0.0197692 -0.746738 0
M  V30 5177 H 506.113 -0.752631 -1.79782 0
M  V30 5178 H 505.209 0.0110238 -3.12098 0
M  V30 5179 N 505.51 1.54411 -0.315457 0
M  V30 5180 C 506.458 2.25514 0.569771 0
M  V30 5181 C 507.452 1.2663 1.12522 0
M  V30 5182 O 508.658 1.44434 1.07419 0
M  V30 5183 H 505.033 0.724257 0.202376 0
M  V30 5184 H 507.004 2.98354 -0.0522895 0
M  V30 5185 C 505.753 3.02004 1.72305 0
M  V30 5186 H 505.076 3.77906 1.30488 0
M  V30 5187 H 506.516 3.55014 2.31821 0
M  V30 5188 C 504.975 2.09822 2.63583 0
M  V30 5189 O 505.505 1.67574 3.65078 0
M  V30 5190 N 503.711 1.75478 2.31637 0
M  V30 5191 H 503.258 2.10032 1.49145 0
M  V30 5192 H 503.216 1.14079 2.92973 0
M  V30 5193 N 506.988 0.0434614 1.5754 0
M  V30 5194 C 508.236 -0.630786 1.92004 0
M  V30 5195 C 508.557 -1.71836 0.921807 0
M  V30 5196 O 507.827 -1.9587 -0.034522 0
M  V30 5197 H 506.407 -0.235988 0.708745 0
M  V30 5198 H 509.069 0.0946462 1.9467 0
M  V30 5199 H 508.165 -1.07434 2.93026 0
M  V30 5200 N 508.466 -1.55915 -0.229846 0
M  V30 5201 C 509.712 -1.78807 -0.956868 0
M  V30 5202 C 510.045 -0.611687 -1.84315 0
M  V30 5203 O 509.32 0.389398 -1.90562 0
M  V30 5204 C 509.603 -3.11718 -1.80288 0
M  V30 5205 C 509.456 -4.3979 -0.943649 0
M  V30 5206 C 510.775 -3.40999 -2.78222 0
M  V30 5207 H 507.894 -0.6505 -0.346437 0
M  V30 5208 H 510.536 -1.88648 -0.226252 0
M  V30 5209 H 508.686 -3.03459 -2.42579 0
M  V30 5210 H 510.358 -4.60059 -0.338121 0
M  V30 5211 H 508.601 -4.33086 -0.248705 0
M  V30 5212 H 509.272 -5.29208 -1.5698 0
M  V30 5213 H 511.748 -3.49332 -2.26067 0
M  V30 5214 H 510.624 -4.35183 -3.34526 0
M  V30 5215 H 510.885 -2.62754 -3.55546 0
M  V30 5216 N 509.944 0.496216 -1.49584 0
M  V30 5217 C 511.172 1.27394 -1.63029 0
M  V30 5218 C 511.587 1.86344 -0.303569 0
M  V30 5219 O 510.944 1.68057 0.711547 0
M  V30 5220 C 510.995 2.40077 -2.70269 0
M  V30 5221 O 510.716 1.83549 -3.97796 0
M  V30 5222 C 512.217 3.31372 -2.94462 0
M  V30 5223 H 509.437 0.386211 -0.54871 0
M  V30 5224 H 511.981 0.595163 -1.95648 0
M  V30 5225 H 510.136 3.03775 -2.40415 0
M  V30 5226 H 510.55 2.57561 -4.56905 0
M  V30 5227 H 512.024 4.06707 -3.73221 0
M  V30 5228 H 512.501 3.88654 -2.0456 0
M  V30 5229 H 513.107 2.73435 -3.25751 0
M  V30 5230 N 511.423 1.38739 0.74761 0
M  V30 5231 C 512.669 1.35475 1.50912 0
M  V30 5232 C 513.002 -0.0533093 1.94127 0
M  V30 5233 O 512.277 -1.01572 1.65871 0
M  V30 5234 C 512.56 2.31582 2.75757 0
M  V30 5235 C 512.413 3.81274 2.38642 0
M  V30 5236 C 513.732 2.25722 3.77806 0
M  V30 5237 H 510.851 0.493427 0.547447 0
M  V30 5238 H 513.493 1.69634 0.855823 0
M  V30 5239 H 511.643 2.02582 3.31501 0
M  V30 5240 H 513.315 4.20972 1.88626 0
M  V30 5241 H 511.558 3.98664 1.71025 0
M  V30 5242 H 512.229 4.4399 3.27989 0
M  V30 5243 H 514.705 2.51336 3.31616 0
M  V30 5244 H 513.581 2.95069 4.62845 0
M  V30 5245 H 513.842 1.25803 4.23823 0
M  V30 5246 N 512.901 -0.976442 1.23707 0
M  V30 5247 C 513.831 -2.08749 1.04624 0
M  V30 5248 C 514.812 -1.70057 -0.0380956 0
M  V30 5249 O 515.997 -1.93782 0.127308 0
M  V30 5250 C 513.127 -3.41335 0.640902 0
M  V30 5251 C 512.081 -3.93947 1.67302 0
M  V30 5252 C 511.407 -5.22774 1.12301 0
M  V30 5253 C 512.707 -4.22769 3.06697 0
M  V30 5254 H 514.401 -2.24972 1.97555 0
M  V30 5255 H 511.947 -1.08108 0.951247 0
M  V30 5256 H 513.9 -4.18489 0.494434 0
M  V30 5257 H 512.624 -3.24988 -0.324099 0
M  V30 5258 H 511.283 -3.18941 1.80755 0
M  V30 5259 H 510.931 -5.0278 0.148877 0
M  V30 5260 H 510.631 -5.58942 1.81267 0
M  V30 5261 H 512.155 -6.02546 0.988479 0
M  V30 5262 H 513.569 -4.90659 2.96524 0
M  V30 5263 H 511.966 -4.70147 3.72937 0
M  V30 5264 H 513.036 -3.29885 3.55392 0
M  V30 5265 N 514.379 -1.04941 -1.1758 0
M  V30 5266 C 515.326 -0.648155 -2.21512 0
M  V30 5267 C 516.296 0.348431 -1.62404 0
M  V30 5268 O 517.481 0.240419 -1.89279 0
M  V30 5269 C 514.621 -0.0264291 -3.4509 0
M  V30 5270 C 513.734 -1.07154 -4.185 0
M  V30 5271 C 512.869 -0.417403 -5.29558 0
M  V30 5272 C 511.908 -1.447 -5.94751 0
M  V30 5273 N 511.045 -0.817203 -6.97328 0
M  V30 5274 H 515.885 -1.53891 -2.55189 0
M  V30 5275 H 513.422 -0.769699 -1.25356 0
M  V30 5276 H 515.38 0.351456 -4.15717 0
M  V30 5277 H 514.01 0.827802 -3.12005 0
M  V30 5278 H 513.062 -1.56728 -3.46613 0
M  V30 5279 H 514.374 -1.8532 -4.63096 0
M  V30 5280 H 513.528 0.0142061 -6.06698 0
M  V30 5281 H 512.267 0.396265 -4.86087 0
M  V30 5282 H 511.272 -1.88865 -5.16343 0
M  V30 5283 H 512.497 -2.26252 -6.40302 0
M  V30 5284 H 510.443 -0.0239995 -6.55996 0
M  V30 5285 H 510.36 -1.53644 -7.40223 0
M  V30 5286 H 511.628 -0.410283 -7.7842 0
M  V30 5287 N 515.857 1.33968 -0.830081 0
M  V30 5288 C 516.787 2.31911 -0.271911 0
M  V30 5289 C 517.768 1.58571 0.61556 0
M  V30 5290 O 518.953 1.86514 0.540946 0
M  V30 5291 C 516.083 3.42737 0.561146 0
M  V30 5292 C 515.037 4.27383 -0.229789 0
M  V30 5293 C 514.363 5.29742 0.726463 0
M  V30 5294 C 515.663 5.02 -1.44197 0
M  V30 5295 H 517.357 2.78844 -1.09025 0
M  V30 5296 H 514.903 1.34061 -0.52571 0
M  V30 5297 H 516.856 4.10276 0.961867 0
M  V30 5298 H 515.58 2.94471 1.41261 0
M  V30 5299 H 514.239 3.61456 -0.611964 0
M  V30 5300 H 513.887 4.77736 1.57408 0
M  V30 5301 H 513.587 5.87255 0.20142 0
M  V30 5302 H 515.111 6.00149 1.12489 0
M  V30 5303 H 516.525 5.62355 -1.11488 0
M  V30 5304 H 514.922 5.69122 -1.90317 0
M  V30 5305 H 515.992 4.31281 -2.2164 0
M  V30 5306 N 517.335 0.585699 1.46312 0
M  V30 5307 C 518.563 0.0781299 2.06752 0
M  V30 5308 C 518.978 -1.22812 1.43396 0
M  V30 5309 O 518.335 -1.74318 0.540314 0
M  V30 5310 C 518.386 -0.0911927 3.61385 0
M  V30 5311 O 518.107 1.16336 4.22371 0
M  V30 5312 C 519.608 -0.632765 4.38761 0
M  V30 5313 H 516.828 0.0588188 0.668417 0
M  V30 5314 H 519.372 0.807218 1.87894 0
M  V30 5315 H 517.527 -0.770514 3.7966 0
M  V30 5316 H 517.941 0.979082 5.15281 0
M  V30 5317 H 519.415 -0.70041 5.47538 0
M  V30 5318 H 519.892 -1.65039 4.07012 0
M  V30 5319 H 520.498 0.0117856 4.25298 0
M  V30 5320 N 518.813 -1.54241 0.323641 0
M  V30 5321 C 519.776 -2.22997 -0.529602 0
M  V30 5322 C 520.776 -1.22345 -1.04347 0
M  V30 5323 O 521.966 -1.46924 -0.935889 0
M  V30 5324 C 519.098 -2.93409 -1.73562 0
M  V30 5325 H 520.291 -2.99815 0.0714518 0
M  V30 5326 H 517.844 -1.56121 0.0747258 0
M  V30 5327 H 518.579 -2.20729 -2.37591 0
M  V30 5328 H 518.364 -3.67217 -1.37456 0
M  V30 5329 H 519.854 -3.45794 -2.34128 0
M  V30 5330 N 520.291 -0.0518155 -1.57515 0
M  V30 5331 C 521.519 0.631395 -1.9703 0
M  V30 5332 C 521.934 1.64341 -0.92938 0
M  V30 5333 O 521.291 1.82296 0.0863266 0
M  V30 5334 C 521.342 1.31774 -3.36627 0
M  V30 5335 O 521.063 0.346247 -4.3673 0
M  V30 5336 C 522.564 2.09065 -3.90905 0
M  V30 5337 H 519.784 0.172576 -0.648428 0
M  V30 5338 H 522.328 -0.118306 -2.04158 0
M  V30 5339 H 520.483 2.01867 -3.30649 0
M  V30 5340 H 520.897 0.836226 -5.17791 0
M  V30 5341 H 522.371 2.52508 -4.9086 0
M  V30 5342 H 522.848 2.93908 -3.26366 0
M  V30 5343 H 523.454 1.43882 -4.00223 0
M  V30 5344 N 521.769 1.56035 0.221574 0
M  V30 5345 C 523.017 1.78693 0.944102 0
M  V30 5346 C 523.338 0.620317 1.8487 0
M  V30 5347 O 522.608 -0.362784 1.92512 0
M  V30 5348 H 521.188 0.659082 0.351597 0
M  V30 5349 H 523.85 1.93497 0.233435 0
M  V30 5350 H 522.946 2.70837 1.55093 0
M  V30 5351 N 523.247 -0.488276 1.49845 0
M  V30 5352 C 524.475 -1.26527 1.63702 0
M  V30 5353 C 524.89 -1.8618 0.313447 0
M  V30 5354 O 524.247 -1.68432 -0.702624 0
M  V30 5355 C 524.298 -2.3864 2.71538 0
M  V30 5356 O 524.019 -1.81437 3.98763 0
M  V30 5357 C 525.52 -3.29805 2.96215 0
M  V30 5358 H 522.74 -0.383295 0.55075 0
M  V30 5359 H 525.284 -0.584779 1.95961 0
M  V30 5360 H 523.439 -3.02496 2.42023 0
M  V30 5361 H 523.853 -2.55135 4.58265 0
M  V30 5362 H 525.327 -4.04722 3.75372 0
M  V30 5363 H 525.804 -3.87563 2.06619 0
M  V30 5364 H 526.41 -2.71703 3.27196 0
M  V30 5365 N 524.725 -1.39134 -0.740242 0
M  V30 5366 C 526.136 -1.32208 -1.31825 0
M  V30 5367 C 526.487 0.0159919 -1.96193 0
M  V30 5368 O 525.612 0.918111 -1.95958 0
M  V30 5369 C 526.207 -2.39436 -2.39699 0
M  V30 5370 C 524.766 -2.36048 -2.93187 0
M  V30 5371 C 523.913 -2.21599 -1.66701 0
M  V30 5372 H 526.864 -1.49298 -0.538133 0
M  V30 5373 H 526.885 -2.05922 -3.19963 0
M  V30 5374 H 526.397 -3.36811 -1.92821 0
M  V30 5375 H 524.498 -1.42295 -3.44359 0
M  V30 5376 H 524.611 -3.30704 -3.46658 0
M  V30 5377 H 522.975 -1.68681 -1.90837 0
M  V30 5378 H 523.758 -3.20936 -1.21882 0
M  V30 5379 N 526.204 0.969867 -1.24223 0
M  V30 5380 C 527.452 1.70918 -1.0785 0
M  V30 5381 C 527.773 1.91186 0.383763 0
M  V30 5382 O 527.043 1.48806 1.27411 0
M  V30 5383 H 525.623 0.633334 -0.396103 0
M  V30 5384 H 528.285 1.16689 -1.56108 0
M  V30 5385 H 527.381 2.69455 -1.57482 0
M  V30 5386 N 527.682 1.05563 1.17022 0
M  V30 5387 C 529.093 0.793475 1.69 0
M  V30 5388 C 529.444 -0.683882 1.83895 0
M  V30 5389 O 528.569 -1.53116 1.5292 0
M  V30 5390 C 529.164 1.43376 3.06967 0
M  V30 5391 C 527.723 1.21956 3.56095 0
M  V30 5392 C 526.87 1.51494 2.3226 0
M  V30 5393 H 529.821 1.22008 1.01487 0
M  V30 5394 H 529.842 0.845068 3.70997 0
M  V30 5395 H 529.354 2.50899 2.96093 0
M  V30 5396 H 527.455 0.163749 3.7224 0
M  V30 5397 H 527.568 1.92713 4.38633 0
M  V30 5398 H 525.932 0.935175 2.3691 0
M  V30 5399 H 526.715 2.60159 2.23992 0
M  V30 5400 N 529.16 -1.33526 0.837174 0
M  V30 5401 C 530.406 -1.9813 0.432704 0
M  V30 5402 C 530.739 -1.66168 -1.00508 0
M  V30 5403 O 530.014 -0.94069 -1.70239 0
M  V30 5404 C 530.297 -3.54151 0.651834 0
M  V30 5405 C 530.15 -3.95806 2.13676 0
M  V30 5406 C 531.469 -4.39993 0.0968937 0
M  V30 5407 H 528.588 -0.719713 0.15869 0
M  V30 5408 H 531.23 -1.58193 1.05237 0
M  V30 5409 H 529.38 -3.88301 0.124369 0
M  V30 5410 H 531.052 -3.71921 2.72896 0
M  V30 5411 H 529.295 -3.45599 2.62191 0
M  V30 5412 H 529.966 -5.0447 2.24084 0
M  V30 5413 H 532.442 -4.12479 0.547733 0
M  V30 5414 H 531.318 -5.48186 0.279917 0
M  V30 5415 H 531.579 -4.3066 -0.9992 0
M  V30 5416 N 530.638 -0.59345 -1.46 0
M  V30 5417 C 531.863 -0.0872365 -2.07216 0
M  V30 5418 C 532.288 1.2131 -1.43755 0
M  V30 5419 O 531.646 1.73528 -0.525152 0
M  V30 5420 C 531.694 0.0538197 -3.6056 0
M  V30 5421 O 530.798 1.10765 -3.97247 0
M  V30 5422 H 530.139 -0.0676598 -0.660544 0
M  V30 5423 H 532.669 -0.819445 -1.87473 0
M  V30 5424 H 532.679 0.256567 -4.07193 0
M  V30 5425 H 531.354 -0.895739 -4.0614 0
M  V30 5426 H 529.931 0.882501 -3.62307 0
M  V30 5427 N 532.116 1.54067 -0.331816 0
M  V30 5428 C 533.046 2.27569 0.522932 0
M  V30 5429 C 534.027 1.28679 1.11247 0
M  V30 5430 O 535.212 1.57504 1.13605 0
M  V30 5431 C 532.342 3.0397 1.67987 0
M  V30 5432 C 531.296 4.10267 1.21924 0
M  V30 5433 C 530.622 4.74555 2.46377 0
M  V30 5434 C 531.922 5.21268 0.32815 0
M  V30 5435 H 533.616 2.99264 -0.0901977 0
M  V30 5436 H 531.162 1.4393 -0.044821 0
M  V30 5437 H 533.115 3.54123 2.28418 0
M  V30 5438 H 531.839 2.29906 2.31971 0
M  V30 5439 H 530.498 3.61009 0.637809 0
M  V30 5440 H 530.146 3.97098 3.08743 0
M  V30 5441 H 529.846 5.46363 2.16243 0
M  V30 5442 H 531.37 5.27487 3.07555 0
M  V30 5443 H 532.784 5.67128 0.838978 0
M  V30 5444 H 531.181 5.99982 0.119228 0
M  V30 5445 H 532.251 4.80673 -0.638839 0
M  V30 5446 N 533.594 0.0601682 1.57485 0
M  V30 5447 C 534.504 -0.926121 2.15546 0
M  V30 5448 C 535.52 -1.33532 1.11558 0
M  V30 5449 O 536.696 -1.4104 1.4377 0
M  V30 5450 C 533.761 -2.17952 2.69625 0
M  V30 5451 C 532.822 -1.82783 3.88444 0
M  V30 5452 C 532.055 -3.02148 4.39935 0
M  V30 5453 O 532.278 -4.15803 3.90466 0
M  V30 5454 O 531.212 -2.82639 5.31412 0
M  V30 5455 H 535.038 -0.462289 3.00161 0
M  V30 5456 H 532.623 -0.162246 1.48516 0
M  V30 5457 H 534.505 -2.91474 3.04337 0
M  V30 5458 H 533.18 -2.63456 1.88077 0
M  V30 5459 H 532.087 -1.06549 3.58606 0
M  V30 5460 H 533.42 -1.42072 4.7125 0
M  V30 5461 N 535.072 -1.5615 -0.213296 0
M  V30 5462 C 536.002 -1.96109 -1.26742 0
M  V30 5463 C 536.983 -0.830448 -1.48451 0
M  V30 5464 O 538.168 -1.09339 -1.60495 0
M  V30 5465 C 535.298 -2.28492 -2.61551 0
M  V30 5466 C 534.252 -3.44124 -2.54485 0
M  V30 5467 C 533.578 -3.62134 -3.93399 0
M  V30 5468 C 534.878 -4.78855 -2.08556 0
M  V30 5469 H 536.572 -2.84412 -0.935434 0
M  V30 5470 H 534.118 -1.36836 -0.44854 0
M  V30 5471 H 536.071 -2.55039 -3.3546 0
M  V30 5472 H 534.795 -1.37052 -2.96453 0
M  V30 5473 H 533.454 -3.17639 -1.83033 0
M  V30 5474 H 533.102 -2.68055 -4.25623 0
M  V30 5475 H 532.802 -4.39913 -3.89551 0
M  V30 5476 H 534.326 -3.91038 -4.68958 0
M  V30 5477 H 535.74 -5.04552 -2.72213 0
M  V30 5478 H 534.137 -5.59975 -2.1575 0
M  V30 5479 H 535.207 -4.73657 -1.03811 0
M  V30 5480 N 536.55 0.480323 -1.50102 0
M  V30 5481 C 537.798 1.23063 -1.60312 0
M  V30 5482 C 538.119 1.92659 -0.301226 0
M  V30 5483 O 537.389 1.83691 0.680753 0
M  V30 5484 H 535.969 0.457231 -0.590719 0
M  V30 5485 H 538.631 0.554893 -1.86834 0
M  V30 5486 H 537.727 1.9835 -2.40964 0
M  V30 5487 N 538.028 1.39524 0.732853 0
M  V30 5488 C 539.276 1.36594 1.48951 0
M  V30 5489 C 539.597 -0.0367507 1.94965 0
M  V30 5490 O 538.867 -0.988391 1.69138 0
M  V30 5491 H 537.447 0.502673 0.552566 0
M  V30 5492 H 540.109 1.74411 0.869869 0
M  V30 5493 H 539.205 2.03 2.3706 0
M  V30 5494 N 539.506 -0.963266 1.24736 0
M  V30 5495 C 540.438 -2.06162 1.0015 0
M  V30 5496 C 541.451 -1.62771 -0.0305905 0
M  V30 5497 O 542.64 -1.77296 0.206966 0
M  V30 5498 C 539.74 -3.35333 0.490385 0
M  V30 5499 C 538.913 -4.07609 1.58663 0
M  V30 5500 C 537.972 -5.15052 1.0774 0
M  V30 5501 O 536.998 -5.4098 1.77002 0
M  V30 5502 N 538.2 -5.80436 -0.0858605 0
M  V30 5503 H 540.965 -2.27825 1.94719 0
M  V30 5504 H 538.526 -1.13121 1.15825 0
M  V30 5505 H 540.518 -4.04477 0.134371 0
M  V30 5506 H 539.088 -3.10507 -0.361155 0
M  V30 5507 H 538.308 -3.32681 2.11463 0
M  V30 5508 H 539.596 -4.52656 2.32336 0
M  V30 5509 H 538.994 -5.6178 -0.664806 0
M  V30 5510 H 537.551 -6.50674 -0.382981 0
M  V30 5511 N 540.985 -1.06182 -1.16461 0
M  V30 5512 C 541.932 -0.671613 -2.20812 0
M  V30 5513 C 542.902 0.331186 -1.62765 0
M  V30 5514 O 544.087 0.22033 -1.89524 0
M  V30 5515 C 541.227 -0.063029 -3.45042 0
M  V30 5516 C 540.34 -1.11587 -4.1734 0
M  V30 5517 C 539.475 -0.473546 -5.29085 0
M  V30 5518 C 538.514 -1.51 -5.93182 0
M  V30 5519 N 537.651 -0.891118 -6.96422 0
M  V30 5520 H 542.491 -1.56589 -2.53542 0
M  V30 5521 H 540.028 -0.782951 -1.24532 0
M  V30 5522 H 541.986 0.307344 -4.16066 0
M  V30 5523 H 540.616 0.794663 -3.12866 0
M  V30 5524 H 539.668 -1.60396 -3.44931 0
M  V30 5525 H 540.98 -1.90221 -4.61104 0
M  V30 5526 H 540.134 -0.0501432 -6.06679 0
M  V30 5527 H 538.873 0.344687 -4.8648 0
M  V30 5528 H 537.878 -1.94331 -5.14311 0
M  V30 5529 H 539.103 -2.33031 -6.37866 0
M  V30 5530 H 537.049 -0.0935753 -6.55933 0
M  V30 5531 H 536.966 -1.61486 -7.38551 0
M  V30 5532 H 538.234 -0.492822 -7.77941 0
M  V30 5533 N 542.463 1.3308 -0.844243 0
M  V30 5534 C 543.709 1.97898 -0.443206 0
M  V30 5535 C 544.042 1.66699 0.99625 0
M  V30 5536 O 543.317 0.949704 1.69738 0
M  V30 5537 C 543.6 3.53801 -0.670606 0
M  V30 5538 C 543.453 3.94667 -2.15772 0
M  V30 5539 C 544.772 4.39936 -0.120226 0
M  V30 5540 H 541.891 0.718861 -0.162504 0
M  V30 5541 H 544.533 1.57633 -1.06075 0
M  V30 5542 H 542.683 3.88229 -0.14496 0
M  V30 5543 H 544.355 3.70469 -2.74865 0
M  V30 5544 H 542.598 3.44203 -2.6402 0
M  V30 5545 H 543.269 5.03275 -2.26757 0
M  V30 5546 H 545.745 4.12183 -0.5696 0
M  V30 5547 H 544.621 5.4803 -0.308984 0
M  V30 5548 H 544.882 4.31184 0.976347 0
M  V30 5549 N 543.941 0.601185 1.45683 0
M  V30 5550 C 545.218 0.0261659 1.95582 0
M  V30 5551 C 545.598 -1.4399 1.5437 0
M  V30 5552 O 544.946 -2.13919 0.80318 0
M  V30 5553 C 545.156 0.217557 3.48321 0
M  V30 5554 C 546.504 0.0950076 4.24494 0
M  V30 5555 O 547.528 0.147345 3.55895 0
M  V30 5556 O 546.387 -0.025261 5.46494 0
M  V30 5557 H 543.481 -0.0393688 0.826062 0
M  V30 5558 H 546.027 0.670798 1.55879 0
M  V30 5559 H 544.799 1.23601 3.71266 0
M  V30 5560 H 544.422 -0.46264 3.94899 0
M  V30 5561 N 545.419 -1.53889 0.339982 0
M  V30 5562 C 546.349 -2.27843 -0.510856 0
M  V30 5563 C 547.33 -1.29267 -1.10563 0
M  V30 5564 O 548.515 -1.58104 -1.12768 0
M  V30 5565 C 545.645 -3.04857 -1.66372 0
M  V30 5566 C 544.599 -4.10907 -1.19746 0
M  V30 5567 C 543.925 -4.75855 -2.43857 0
M  V30 5568 C 545.225 -5.21435 -0.300501 0
M  V30 5569 H 546.919 -2.99212 0.106067 0
M  V30 5570 H 544.465 -1.43904 0.0524533 0
M  V30 5571 H 546.418 -3.5533 -2.26537 0
M  V30 5572 H 545.142 -2.31133 -2.30749 0
M  V30 5573 H 543.801 -3.61342 -0.618654 0
M  V30 5574 H 543.449 -3.9873 -3.06633 0
M  V30 5575 H 543.149 -5.47502 -2.13343 0
M  V30 5576 H 544.673 -5.2911 -3.04754 0
M  V30 5577 H 546.087 -5.67565 -0.80889 0
M  V30 5578 H 544.484 -6.00036 -0.0874076 0
M  V30 5579 H 545.554 -4.80328 0.664321 0
M  V30 5580 N 546.897 -0.0685191 -1.57451 0
M  V30 5581 C 548.143 0.602239 -1.93652 0
M  V30 5582 C 548.476 1.6946 -0.948526 0
M  V30 5583 O 547.751 1.94487 0.022782 0
M  V30 5584 C 548.034 1.18223 -3.4014 0
M  V30 5585 C 547.887 0.0967431 -4.49696 0
M  V30 5586 C 549.206 2.08872 -3.87377 0
M  V30 5587 H 546.325 0.217453 -0.70419 0
M  V30 5588 H 548.967 -0.133821 -1.89528 0
M  V30 5589 H 547.117 1.80953 -3.43785 0
M  V30 5590 H 548.789 -0.536155 -4.58174 0
M  V30 5591 H 547.032 -0.573063 -4.29998 0
M  V30 5592 H 547.703 0.542894 -5.49324 0
M  V30 5593 H 550.179 1.56081 -3.85717 0
M  V30 5594 H 549.055 2.46389 -4.90493 0
M  V30 5595 H 549.316 2.99572 -3.25129 0
M  V30 5596 N 548.375 1.56261 0.205012 0
M  V30 5597 C 549.338 1.92908 1.23771 0
M  V30 5598 C 550.338 0.809208 1.38955 0
M  V30 5599 O 551.528 1.07676 1.36936 0
M  V30 5600 C 548.66 2.19442 2.60879 0
M  V30 5601 H 549.853 2.85287 0.924728 0
M  V30 5602 H 547.406 1.49798 0.446125 0
M  V30 5603 H 548.141 1.29668 2.97248 0
M  V30 5604 H 547.926 3.0104 2.51232 0
M  V30 5605 H 549.416 2.48833 3.35368 0
M  V30 5606 N 549.853 -0.472356 1.50355 0
M  V30 5607 C 551.083 -1.24603 1.64796 0
M  V30 5608 C 551.491 -1.86297 0.330156 0
M  V30 5609 O 550.834 -1.69934 -0.697728 0
M  V30 5610 C 550.896 -2.39578 2.68035 0
M  V30 5611 C 550.56 -1.98531 4.11624 0
M  V30 5612 C 551.557 -1.50856 4.97532 0
M  V30 5613 C 549.242 -2.0729 4.57532 0
M  V30 5614 C 551.236 -1.12481 6.27397 0
M  V30 5615 C 548.923 -1.68527 5.87403 0
M  V30 5616 C 549.921 -1.212 6.7216 0
M  V30 5617 O 549.609 -0.829728 7.99607 0
M  V30 5618 H 549.341 -0.383035 0.55701 0
M  V30 5619 H 551.895 -0.570392 1.97321 0
M  V30 5620 H 550.125 -3.10309 2.30749 0
M  V30 5621 H 551.814 -3.01544 2.71709 0
M  V30 5622 H 552.58 -1.43511 4.63281 0
M  V30 5623 H 548.459 -2.43076 3.91708 0
M  V30 5624 H 552.003 -0.754698 6.93506 0
M  V30 5625 H 547.9 -1.7553 6.21176 0
M  V30 5626 H 548.668 -0.958689 8.12866 0
M  V30 5627 N 551.331 -1.39911 -0.725443 0
M  V30 5628 C 552.608 -1.28158 -1.47766 0
M  V30 5629 C 552.988 0.104545 -2.10841 0
M  V30 5630 O 552.336 1.11657 -1.99361 0
M  V30 5631 C 552.546 -2.41306 -2.52135 0
M  V30 5632 C 553.894 -2.81076 -3.18247 0
M  V30 5633 O 554.918 -2.40827 -2.62452 0
M  V30 5634 O 553.777 -3.50581 -4.19231 0
M  V30 5635 H 550.871 -0.502761 -0.656628 0
M  V30 5636 H 553.417 -1.51808 -0.758456 0
M  V30 5637 H 552.189 -3.33932 -2.03974 0
M  V30 5638 H 551.812 -2.19374 -3.31603 0
M  V30 5639 N 552.809 0.956637 -1.25245 0
M  V30 5640 C 554.225 1.22733 -1.02023 0
M  V30 5641 C 554.425 1.99761 0.264186 0
M  V30 5642 O 553.481 2.32814 0.977436 0
M  V30 5643 C 554.794 2.00367 -2.24217 0
M  V30 5644 C 556.342 2.13418 -2.28958 0
M  V30 5645 C 556.817 2.9445 -3.50803 0
M  V30 5646 N 558.308 3.02029 -3.51187 0
M  V30 5647 C 559.043 3.65116 -4.42129 0
M  V30 5648 N 558.539 4.2983 -5.43339 0
M  V30 5649 N 560.332 3.62237 -4.29815 0
M  V30 5650 H 552.483 0.441282 -2.07765 0
M  V30 5651 H 554.746 0.257686 -0.912306 0
M  V30 5652 H 554.452 1.51165 -3.17556 0
M  V30 5653 H 554.326 3.01077 -2.27228 0
M  V30 5654 H 556.713 2.61819 -1.36143 0
M  V30 5655 H 556.794 1.1202 -2.29968 0
M  V30 5656 H 556.438 2.46741 -4.43939 0
M  V30 5657 H 556.368 3.9607 -3.47039 0
M  V30 5658 H 558.859 2.56007 -2.77973 0
M  V30 5659 H 559.172 4.75819 -6.08947 0
M  V30 5660 H 557.517 4.28465 -5.47214 0
M  V30 5661 H 560.708 3.10863 -3.49974 0
M  V30 5662 H 560.881 4.11117 -5.00886 0
M  V30 5663 N 554.287 1.06798 1.15896 0
M  V30 5664 C 555.698 0.811355 1.68149 0
M  V30 5665 C 556.049 -0.664339 1.8461 0
M  V30 5666 O 555.174 -1.51485 1.54535 0
M  V30 5667 C 555.769 1.46624 3.05429 0
M  V30 5668 C 554.328 1.25726 3.54781 0
M  V30 5669 C 553.475 1.53949 2.3064 0
M  V30 5670 H 556.426 1.23078 1.00187 0
M  V30 5671 H 556.447 0.88437 3.7008 0
M  V30 5672 H 555.959 2.54025 2.93416 0
M  V30 5673 H 554.06 0.20322 3.72045 0
M  V30 5674 H 554.173 1.97354 4.36564 0
M  V30 5675 H 552.537 0.96025 2.35905 0
M  V30 5676 H 553.32 2.6252 2.2122 0
M  V30 5677 N 555.766 -1.3263 0.851289 0
M  V30 5678 C 557.043 -1.91982 0.374448 0
M  V30 5679 C 557.423 -1.77568 -1.14161 0
M  V30 5680 O 556.771 -1.1717 -1.96172 0
M  V30 5681 C 556.981 -3.38862 0.835088 0
M  V30 5682 C 558.329 -4.15999 0.850309 0
M  V30 5683 O 559.353 -3.47566 0.779505 0
M  V30 5684 O 558.212 -5.38189 0.949481 0
M  V30 5685 H 555.306 -0.819846 0.10854 0
M  V30 5686 H 557.852 -1.41422 0.937966 0
M  V30 5687 H 556.624 -3.43281 1.87814 0
M  V30 5688 H 556.247 -3.96821 0.248833 0
M  V30 5689 N 557.244 -0.608902 -1.45362 0
M  V30 5690 C 558.66 -0.272659 -1.57254 0
M  V30 5691 C 558.86 1.22477 -1.60005 0
M  V30 5692 O 557.916 2.00785 -1.53106 0
M  V30 5693 C 559.229 -0.944991 -2.85465 0
M  V30 5694 C 560.777 -0.921033 -2.99142 0
M  V30 5695 C 561.252 -1.5734 -4.30126 0
M  V30 5696 N 562.743 -1.53895 -4.36887 0
M  V30 5697 C 563.478 -2.01286 -5.36909 0
M  V30 5698 N 562.974 -2.56768 -6.43461 0
M  V30 5699 N 564.767 -1.92046 -5.28275 0
M  V30 5700 H 556.918 -1.58117 -1.4182 0
M  V30 5701 H 559.181 -0.662437 -0.678146 0
M  V30 5702 H 558.887 -1.99941 -2.89338 0
M  V30 5703 H 558.761 -0.469079 -3.74272 0
M  V30 5704 H 561.148 0.124846 -2.94836 0
M  V30 5705 H 561.229 -1.43522 -2.11743 0
M  V30 5706 H 560.873 -2.61862 -4.35191 0
M  V30 5707 H 560.803 -1.03422 -5.16344 0
M  V30 5708 H 563.294 -1.13366 -3.60495 0
M  V30 5709 H 563.607 -2.9072 -7.16032 0
M  V30 5710 H 561.952 -2.60808 -6.44208 0
M  V30 5711 H 565.143 -1.48439 -4.43941 0
M  V30 5712 H 565.316 -2.29293 -6.06077 0
M  V30 5713 N 558.722 1.53707 -0.348139 0
M  V30 5714 C 559.971 2.0017 0.247992 0
M  V30 5715 C 560.284 1.23983 1.51286 0
M  V30 5716 O 561.49 1.60946 2.18652 0
M  V30 5717 C 559.946 3.56515 0.492459 0
M  V30 5718 C 559.554 4.41562 -0.756777 0
M  V30 5719 C 561.298 4.11381 1.0472 0
M  V30 5720 C 559.205 5.89426 -0.482856 0
M  V30 5721 H 558.135 0.747806 0.0964452 0
M  V30 5722 H 560.786 1.77532 -0.464179 0
M  V30 5723 H 559.168 3.75236 1.26545 0
M  V30 5724 H 560.342 4.34615 -1.53122 0
M  V30 5725 H 558.657 3.97711 -1.23348 0
M  V30 5726 H 561.254 5.19468 1.26717 0
M  V30 5727 H 561.597 3.64885 2.00411 0
M  V30 5728 H 562.13 3.96389 0.334801 0
M  V30 5729 H 558.869 6.40164 -1.40962 0
M  V30 5730 H 558.389 5.99264 0.253416 0
M  V30 5731 H 560.068 6.4692 -0.101816 0
M  V30 5732 N 560.2 0.0768682 1.57412 0
M  V30 5733 C 561.425 -0.603404 1.98428 0
M  V30 5734 C 561.85 -1.62047 0.955108 0
M  V30 5735 O 561.208 -1.81129 -0.0786778 0
M  V30 5736 C 561.256 -1.24396 3.38464 0
M  V30 5737 O 560.36 -2.35982 3.3821 0
M  V30 5738 H 559.701 -0.154741 0.645718 0
M  V30 5739 H 562.231 0.152885 2.04028 0
M  V30 5740 H 562.241 -1.5896 3.7576 0
M  V30 5741 H 560.916 -0.498735 4.12899 0
M  V30 5742 H 559.493 -2.03173 3.1269 0
M  V30 5743 N 561.678 -1.56367 -0.196722 0
M  V30 5744 C 562.927 -1.79724 -0.915539 0
M  V30 5745 C 563.24 -0.649804 -1.84491 0
M  V30 5746 O 564.446 -0.767631 -2.60422 0
M  V30 5747 C 562.902 -3.18369 -1.67836 0
M  V30 5748 C 562.51 -4.4091 -0.793897 0
M  V30 5749 C 564.254 -3.51037 -2.38691 0
M  V30 5750 C 562.161 -5.70577 -1.55549 0
M  V30 5751 H 561.091 -0.67013 -0.345604 0
M  V30 5752 H 563.742 -1.82721 -0.168856 0
M  V30 5753 H 562.124 -3.09617 -2.46887 0
M  V30 5754 H 563.298 -4.60781 -0.042163 0
M  V30 5755 H 561.613 -4.15937 -0.19626 0
M  V30 5756 H 564.21 -4.4515 -2.96219 0
M  V30 5757 H 564.553 -2.74704 -3.12799 0
M  V30 5758 H 565.086 -3.61229 -1.66608 0
M  V30 5759 H 561.825 -6.49871 -0.857226 0
M  V30 5760 H 561.345 -5.54726 -2.2812 0
M  V30 5761 H 563.024 -6.11637 -2.10971 0
M  V30 5762 N 563.156 0.464375 -1.50603 0
M  V30 5763 C 564.402 1.21776 -1.62168 0
M  V30 5764 C 564.735 1.91476 -0.324154 0
M  V30 5765 O 564.01 1.8242 0.674782 0
M  V30 5766 C 564.293 2.25614 -2.80661 0
M  V30 5767 C 564.146 1.60175 -4.20314 0
M  V30 5768 C 565.465 3.26862 -2.94702 0
M  V30 5769 H 562.584 0.44137 -0.590222 0
M  V30 5770 H 565.226 0.510623 -1.8301 0
M  V30 5771 H 563.376 2.85923 -2.63021 0
M  V30 5772 H 565.048 1.03411 -4.4956 0
M  V30 5773 H 563.291 0.904697 -4.24261 0
M  V30 5774 H 563.962 2.35665 -4.99165 0
M  V30 5775 H 566.438 2.76582 -3.10872 0
M  V30 5776 H 565.314 3.96839 -3.79223 0
M  V30 5777 H 565.575 3.91382 -2.05603 0
M  V30 5778 N 564.634 1.40294 0.718013 0
M  V30 5779 C 566.045 1.34289 1.29705 0
M  V30 5780 C 566.396 0.0152228 1.96194 0
M  V30 5781 O 565.521 -0.88682 1.97394 0
M  V30 5782 C 566.116 2.43219 2.3586 0
M  V30 5783 C 564.675 2.40682 2.89394 0
M  V30 5784 C 563.822 2.24223 1.63154 0
M  V30 5785 H 566.773 1.50135 0.514312 0
M  V30 5786 H 566.794 2.10986 3.16647 0
M  V30 5787 H 566.306 3.39836 1.87439 0
M  V30 5788 H 564.407 1.47756 3.42051 0
M  V30 5789 H 564.52 3.36177 3.41353 0
M  V30 5790 H 562.884 1.71696 1.88129 0
M  V30 5791 H 563.667 3.22834 1.16761 0
M  V30 5792 N 566.112 -0.949982 1.2575 0
M  V30 5793 C 567.389 -1.6718 1.01539 0
M  V30 5794 C 567.769 -2.06095 -0.456942 0
M  V30 5795 O 567.117 -1.77792 -1.43534 0
M  V30 5796 C 567.327 -2.8906 1.95564 0
M  V30 5797 C 568.675 -3.60909 2.23673 0
M  V30 5798 O 569.699 -2.9915 1.9336 0
M  V30 5799 O 568.558 -4.72127 2.75243 0
M  V30 5800 H 565.652 -0.731697 0.385419 0
M  V30 5801 H 568.198 -1.00249 1.36924 0
M  V30 5802 H 566.97 -2.57128 2.94959 0
M  V30 5803 H 566.593 -3.63719 1.60605 0
M  V30 5804 N 567.59 -1.07411 -1.15328 0
M  V30 5805 C 568.52 -0.716472 -2.22236 0
M  V30 5806 C 569.501 0.296373 -1.67498 0
M  V30 5807 O 570.686 0.168989 -1.93463 0
M  V30 5808 C 567.816 -0.114142 -3.47112 0
M  V30 5809 C 566.77 -1.05421 -4.14814 0
M  V30 5810 C 566.096 -0.314604 -5.33774 0
M  V30 5811 C 567.396 -2.38808 -4.64508 0
M  V30 5812 H 569.09 -1.61029 -2.52408 0
M  V30 5813 H 566.636 -0.775702 -1.21321 0
M  V30 5814 H 568.589 0.148001 -4.2114 0
M  V30 5815 H 567.313 0.814755 -3.16274 0
M  V30 5816 H 565.972 -1.30128 -3.42728 0
M  V30 5817 H 565.62 0.617772 -4.99192 0
M  V30 5818 H 565.32 -0.941209 -5.80013 0
M  V30 5819 H 566.844 -0.0602747 -6.1057 0
M  V30 5820 H 568.258 -2.18424 -5.3006 0
M  V30 5821 H 566.655 -2.97069 -5.21412 0
M  V30 5822 H 567.725 -3.01067 -3.80114 0
M  V30 5823 N 569.068 1.32177 -0.85831 0
M  V30 5824 C 570.296 2.01313 -0.477582 0
M  V30 5825 C 570.711 1.6449 0.926736 0
M  V30 5826 O 570.068 0.868096 1.60531 0
M  V30 5827 C 570.119 3.56293 -0.611337 0
M  V30 5828 O 569.84 3.91794 -1.96034 0
M  V30 5829 C 571.341 4.42702 -0.230093 0
M  V30 5830 H 568.561 0.644323 -0.187322 0
M  V30 5831 H 571.105 1.68674 -1.15626 0
M  V30 5832 H 569.26 3.87395 0.0196494 0
M  V30 5833 H 569.674 4.86513 -1.95973 0
M  V30 5834 H 571.148 5.50727 -0.374674 0
M  V30 5835 H 571.625 4.3129 0.829779 0
M  V30 5836 H 572.231 4.16997 -0.836302 0
M  V30 5837 N 570.547 0.616602 1.45037 0
M  V30 5838 C 571.796 0.112861 2.01384 0
M  V30 5839 C 572.109 -1.26758 1.48969 0
M  V30 5840 O 573.315 -1.86454 1.9735 0
M  V30 5841 C 571.771 0.151057 3.59583 0
M  V30 5842 C 571.379 1.53191 4.20995 0
M  V30 5843 C 573.123 -0.296974 4.2346 0
M  V30 5844 C 571.03 1.526 5.71373 0
M  V30 5845 H 569.96 0.0384254 0.75302 0
M  V30 5846 H 572.611 0.773262 1.66412 0
M  V30 5847 H 570.993 -0.57617 3.91786 0
M  V30 5848 H 572.167 2.28156 4.00352 0
M  V30 5849 H 570.482 1.92279 3.69348 0
M  V30 5850 H 573.079 -0.320712 5.33737 0
M  V30 5851 H 573.422 -1.32145 3.9477 0
M  V30 5852 H 573.955 0.377279 3.96007 0
M  V30 5853 H 570.694 2.52837 6.04776 0
M  V30 5854 H 570.214 0.819064 5.94181 0
M  V30 5855 H 571.893 1.25357 6.3474 0
M  V30 5856 N 572.025 -1.5352 0.356285 0
M  V30 5857 C 572.988 -2.24071 -0.482182 0
M  V30 5858 C 573.988 -1.24531 -1.01729 0
M  V30 5859 O 575.178 -1.48876 -0.904513 0
M  V30 5860 C 572.31 -2.97025 -1.67299 0
M  V30 5861 H 573.503 -2.99596 0.135031 0
M  V30 5862 H 571.056 -1.55928 0.107825 0
M  V30 5863 H 571.791 -2.25719 -2.32855 0
M  V30 5864 H 571.576 -3.7005 -1.29636 0
M  V30 5865 H 573.066 -3.50683 -2.26741 0
M  V30 5866 N 573.503 -0.0852151 -1.57369 0
M  V30 5867 C 574.919 0.271436 -1.57275 0
M  V30 5868 C 575.119 1.69109 -1.09565 0
M  V30 5869 O 574.175 2.40549 -0.767611 0
M  V30 5870 C 575.488 0.0688638 -3.00621 0
M  V30 5871 C 577.036 0.137373 -3.12698 0
M  V30 5872 C 577.511 -0.0370832 -4.57985 0
M  V30 5873 N 579.002 0.0180794 -4.63196 0
M  V30 5874 C 579.737 -0.0922953 -5.73326 0
M  V30 5875 N 579.233 -0.256948 -6.92323 0
M  V30 5876 N 581.026 -0.0342702 -5.6209 0
M  V30 5877 H 573.177 -1.01288 -1.86693 0
M  V30 5878 H 575.44 -0.396138 -0.861266 0
M  V30 5879 H 575.146 -0.911277 -3.39689 0
M  V30 5880 H 575.02 0.815442 -3.6828 0
M  V30 5881 H 577.407 1.10801 -2.73509 0
M  V30 5882 H 577.488 -0.640532 -2.47651 0
M  V30 5883 H 577.132 -1.00455 -4.97867 0
M  V30 5884 H 577.062 0.760392 -5.21081 0
M  V30 5885 H 579.553 0.143202 -3.77629 0
M  V30 5886 H 579.866 -0.332949 -7.72082 0
M  V30 5887 H 578.211 -0.292487 -6.94384 0
M  V30 5888 H 581.402 0.0931605 -4.68007 0
M  V30 5889 H 581.575 -0.12374 -6.47882 0
M  V30 5890 N 574.981 1.5647 0.188427 0
M  V30 5891 C 576.23 1.80207 0.905995 0
M  V30 5892 C 576.543 0.659579 1.84144 0
M  V30 5893 O 577.749 0.781431 2.60011 0
M  V30 5894 C 576.205 3.19255 1.66145 0
M  V30 5895 C 575.813 4.41324 0.770504 0
M  V30 5896 C 577.557 3.52298 2.36826 0
M  V30 5897 C 575.464 5.71394 1.52521 0
M  V30 5898 H 574.394 0.671953 0.342045 0
M  V30 5899 H 577.045 1.82808 0.159164 0
M  V30 5900 H 575.427 3.10922 2.45242 0
M  V30 5901 H 576.601 4.60797 0.0177261 0
M  V30 5902 H 574.916 4.16035 0.174199 0
M  V30 5903 H 577.513 4.46715 2.93854 0
M  V30 5904 H 577.856 2.76359 3.11338 0
M  V30 5905 H 578.389 3.62108 1.6469 0
M  V30 5906 H 575.128 6.50316 0.82275 0
M  V30 5907 H 574.648 5.55928 2.25175 0
M  V30 5908 H 576.327 6.12747 2.07725 0
M  V30 5909 N 576.459 -0.456382 1.50847 0
M  V30 5910 C 577.707 -1.20497 1.62249 0
M  V30 5911 C 578.028 -1.92156 0.331839 0
M  V30 5912 O 577.298 -1.84751 -0.651443 0
M  V30 5913 H 575.878 -0.447775 0.597918 0
M  V30 5914 H 578.54 -0.525099 1.87693 0
M  V30 5915 H 577.636 -1.94492 2.44089 0
M  V30 5916 N 577.937 -1.40673 -0.710563 0
M  V30 5917 C 579.185 -1.38947 -1.46759 0
M  V30 5918 C 579.506 0.00572879 -1.94999 0
M  V30 5919 O 578.776 0.961358 -1.70689 0
M  V30 5920 H 577.356 -0.5114 -0.544499 0
M  V30 5921 H 580.018 -1.75773 -0.842012 0
M  V30 5922 H 579.114 -2.06745 -2.33801 0
M  V30 5923 N 579.415 0.9433 -1.26252 0
M  V30 5924 C 580.363 2.06302 -1.07434 0
M  V30 5925 C 581.357 1.694 -0.00189471 0
M  V30 5926 O 582.563 1.79302 -0.158408 0
M  V30 5927 H 578.938 0.675453 -0.330556 0
M  V30 5928 H 580.909 2.19326 -2.02333 0
M  V30 5929 C 579.658 3.40125 -0.721817 0
M  V30 5930 H 578.981 3.68996 -1.5389 0
M  V30 5931 H 580.421 4.19295 -0.629922 0
M  V30 5932 C 578.88 3.31993 0.572902 0
M  V30 5933 O 579.41 3.67945 1.61182 0
M  V30 5934 N 577.616 2.85099 0.562748 0
M  V30 5935 H 577.163 2.5604 -0.283092 0
M  V30 5936 H 577.121 2.80041 1.42915 0
M  V30 5937 N 580.893 1.08022 1.14757 0
M  V30 5938 C 582.141 0.805913 1.85336 0
M  V30 5939 C 582.462 -0.670162 1.83122 0
M  V30 5940 O 581.732 -1.48567 1.2769 0
M  V30 5941 H 580.312 0.295138 0.686223 0
M  V30 5942 H 582.974 1.36538 1.3908 0
M  V30 5943 H 582.07 1.14655 2.90277 0
M  V30 5944 N 582.371 -1.3172 0.865308 0
M  V30 5945 C 583.619 -1.96487 0.472995 0
M  V30 5946 C 583.94 -1.68761 -0.976975 0
M  V30 5947 O 583.21 -1.00051 -1.68424 0
M  V30 5948 H 581.79 -0.726947 0.171922 0
M  V30 5949 H 584.452 -1.60612 1.10407 0
M  V30 5950 H 583.548 -3.0574 0.62687 0
M  V30 5951 N 583.85 -0.624285 -1.44708 0
M  V30 5952 C 585.26 -0.2092 -1.85524 0
M  V30 5953 C 585.611 1.23783 -1.52225 0
M  V30 5954 O 584.736 1.94089 -0.956986 0
M  V30 5955 C 585.332 -0.372897 -3.36742 0
M  V30 5956 C 583.891 -0.012374 -3.76398 0
M  V30 5957 C 583.038 -0.68951 -2.68591 0
M  V30 5958 H 585.989 -0.829894 -1.35272 0
M  V30 5959 H 586.01 0.390134 -3.78495 0
M  V30 5960 H 585.522 -1.42615 -3.60947 0
M  V30 5961 H 583.623 1.03941 -3.57809 0
M  V30 5962 H 583.736 -0.417663 -4.77276 0
M  V30 5963 H 582.1 -0.125484 -2.54391 0
M  V30 5964 H 582.883 -1.74522 -2.9563 0
M  V30 5965 N 585.328 1.53329 -0.364422 0
M  V30 5966 C 586.577 2.00421 0.226747 0
M  V30 5967 C 586.89 1.25581 1.49963 0
M  V30 5968 O 588.096 1.63256 2.16933 0
M  V30 5969 C 586.552 3.57017 0.454618 0
M  V30 5970 C 586.16 4.40734 -0.803568 0
M  V30 5971 C 587.904 4.12468 1.00351 0
M  V30 5972 C 585.811 5.8888 -0.545345 0
M  V30 5973 H 584.741 0.748787 0.0885082 0
M  V30 5974 H 587.392 1.7703 -0.482983 0
M  V30 5975 H 585.774 3.76558 1.22558 0
M  V30 5976 H 586.948 4.32967 -1.57723 0
M  V30 5977 H 585.263 3.96381 -1.27559 0
M  V30 5978 H 587.86 5.20783 1.212 0
M  V30 5979 H 588.203 3.6699 1.9653 0
M  V30 5980 H 588.736 3.96721 0.29274 0
M  V30 5981 H 585.475 6.38633 -1.47743 0
M  V30 5982 H 584.995 5.99499 0.189842 0
M  V30 5983 H 586.674 6.46776 -0.170425 0
M  V30 5984 N 586.806 0.0935595 1.57322 0
M  V30 5985 C 588.217 -0.435807 1.81542 0
M  V30 5986 C 588.568 -1.68263 1.00907 0
M  V30 5987 O 587.693 -2.15087 0.237983 0
M  V30 5988 C 588.288 -0.797436 3.29282 0
M  V30 5989 C 586.847 -1.27155 3.54272 0
M  V30 5990 C 585.994 -0.267455 2.76007 0
M  V30 5991 H 588.945 0.31902 1.5546 0
M  V30 5992 H 588.966 -1.6571 3.42521 0
M  V30 5993 H 588.478 0.110206 3.87943 0
M  V30 5994 H 586.579 -2.19696 3.00939 0
M  V30 5995 H 586.692 -1.23445 4.62923 0
M  V30 5996 H 585.056 -0.749282 2.43429 0
M  V30 5997 H 585.839 0.632839 3.37417 0
M  V30 5998 N 588.284 -1.56567 -0.180126 0
M  V30 5999 C 589.231 -1.95725 -1.22313 0
M  V30 6000 C 590.201 -0.819911 -1.44453 0
M  V30 6001 O 591.386 -1.07931 -1.57339 0
M  V30 6002 C 588.526 -2.31484 -2.55947 0
M  V30 6003 C 587.639 -3.58354 -2.4126 0
M  V30 6004 C 586.774 -3.83366 -3.67701 0
M  V30 6005 C 585.813 -5.03612 -3.47909 0
M  V30 6006 N 584.95 -5.24802 -4.66398 0
M  V30 6007 H 589.79 -2.84642 -0.882198 0
M  V30 6008 H 587.327 -1.4085 -0.42422 0
M  V30 6009 H 589.285 -2.50237 -3.33822 0
M  V30 6010 H 587.915 -1.45689 -2.88053 0
M  V30 6011 H 586.967 -3.47565 -1.54606 0
M  V30 6012 H 588.279 -4.46386 -2.22577 0
M  V30 6013 H 587.433 -4.02439 -4.54013 0
M  V30 6014 H 586.172 -2.93692 -3.89353 0
M  V30 6015 H 585.177 -4.84447 -2.59983 0
M  V30 6016 H 586.402 -5.94809 -3.27688 0
M  V30 6017 H 584.348 -4.38079 -4.88286 0
M  V30 6018 H 584.265 -6.07041 -4.50596 0
M  V30 6019 H 585.533 -5.48346 -5.54019 0
M  V30 6020 N 589.762 0.448376 -1.51087 0
M  V30 6021 C 591.008 1.20049 -1.6345 0
M  V30 6022 C 591.341 1.91121 -0.344444 0
M  V30 6023 O 590.616 1.83125 0.655396 0
M  V30 6024 C 590.899 2.22624 -2.83038 0
M  V30 6025 C 590.752 1.55708 -4.21989 0
M  V30 6026 C 592.071 3.23718 -2.98152 0
M  V30 6027 H 589.19 0.435085 -0.59487 0
M  V30 6028 H 591.832 0.491183 -1.83541 0
M  V30 6029 H 589.982 2.83117 -2.66039 0
M  V30 6030 H 591.654 0.986367 -4.50631 0
M  V30 6031 H 589.897 0.859647 -4.25197 0
M  V30 6032 H 590.568 2.30357 -5.01637 0
M  V30 6033 H 593.044 2.73269 -3.13788 0
M  V30 6034 H 591.92 3.92795 -3.83411 0
M  V30 6035 H 592.181 3.89179 -2.09743 0
M  V30 6036 N 591.24 1.41047 0.703093 0
M  V30 6037 C 592.651 1.35657 1.28274 0
M  V30 6038 C 593.002 0.0360309 1.96167 0
M  V30 6039 O 592.127 -0.865833 1.98324 0
M  V30 6040 C 592.722 2.45707 2.33267 0
M  V30 6041 C 591.281 2.43738 2.86825 0
M  V30 6042 C 590.428 2.25941 1.60767 0
M  V30 6043 H 593.379 1.50672 0.49836 0
M  V30 6044 H 593.4 2.14333 3.14391 0
M  V30 6045 H 592.912 3.41805 1.83824 0
M  V30 6046 H 591.013 1.51375 3.40465 0
M  V30 6047 H 591.126 3.39779 3.37768 0
M  V30 6048 H 589.49 1.73681 1.86298 0
M  V30 6049 H 590.273 3.24054 1.1333 0
M  V30 6050 N 592.718 -0.936591 1.26751 0
M  V30 6051 C 593.681 -2.01752 1.08761 0
M  V30 6052 C 594.681 -1.60763 0.0344435 0
M  V30 6053 O 595.871 -1.71963 0.278258 0
M  V30 6054 C 593.003 -3.34543 0.655271 0
M  V30 6055 H 594.196 -2.19143 2.04735 0
M  V30 6056 H 591.749 -1.11618 1.09413 0
M  V30 6057 H 592.484 -3.22851 -0.30626 0
M  V30 6058 H 592.269 -3.65647 1.41578 0
M  V30 6059 H 593.759 -4.13944 0.551378 0
M  V30 6060 N 594.196 -1.08629 -1.14182 0
M  V30 6061 C 595.128 -0.676189 -2.18998 0
M  V30 6062 C 596.141 0.277871 -1.60411 0
M  V30 6063 O 597.33 0.0651771 -1.78381 0
M  V30 6064 C 594.43 0.0254916 -3.3889 0
M  V30 6065 C 593.603 -0.948039 -4.27002 0
M  V30 6066 C 592.662 -0.281268 -5.25448 0
M  V30 6067 O 591.688 -0.926378 -5.61611 0
M  V30 6068 N 592.89 0.967923 -5.72374 0
M  V30 6069 H 595.655 -1.57792 -2.54798 0
M  V30 6070 H 593.216 -0.972665 -1.29425 0
M  V30 6071 H 595.208 0.482554 -4.01813 0
M  V30 6072 H 593.778 0.829348 -3.01398 0
M  V30 6073 H 592.998 -1.58388 -3.6098 0
M  V30 6074 H 594.286 -1.60765 -4.82734 0
M  V30 6075 H 593.684 1.51175 -5.45126 0
M  V30 6076 H 592.241 1.36844 -6.37273 0
M  V30 6077 N 595.674 1.31259 -0.872281 0
M  V30 6078 C 596.921 1.96622 -0.484365 0
M  V30 6079 C 597.249 1.68939 0.963841 0
M  V30 6080 O 596.504 0.97974 1.6941 0
M  V30 6081 C 596.803 3.50659 -0.690889 0
M  V30 6082 C 596.469 3.98366 -2.11224 0
M  V30 6083 C 595.131 4.11104 -2.50094 0
M  V30 6084 C 597.483 4.23425 -3.0391 0
M  V30 6085 C 594.811 4.46254 -3.80887 0
M  V30 6086 C 597.163 4.60039 -4.3422 0
M  V30 6087 C 595.827 4.70984 -4.73001 0
M  V30 6088 H 595.097 0.71949 -0.177242 0
M  V30 6089 H 597.744 1.56353 -1.10571 0
M  V30 6090 H 596.049 3.91798 0.0135782 0
M  V30 6091 H 597.746 3.99284 -0.370534 0
M  V30 6092 H 594.336 3.88949 -1.80047 0
M  V30 6093 H 598.52 4.13075 -2.75104 0
M  V30 6094 H 593.776 4.52926 -4.10692 0
M  V30 6095 H 597.95 4.78381 -5.06088 0
M  V30 6096 H 595.577 4.97977 -5.7439 0
M  V30 6097 N 597.152 0.631951 1.44375 0
M  V30 6098 C 598.062 -0.073674 2.34484 0
M  V30 6099 C 599.078 -0.834825 1.52665 0
M  V30 6100 O 600.254 -0.786902 1.85391 0
M  V30 6101 C 597.319 -1.04247 3.30656 0
M  V30 6102 C 596.38 -0.280602 4.28382 0
M  V30 6103 C 595.613 -1.20325 5.19959 0
M  V30 6104 O 595.836 -2.44199 5.15484 0
M  V30 6105 O 594.77 -0.687128 5.97965 0
M  V30 6106 H 598.596 0.667477 2.96274 0
M  V30 6107 H 596.181 0.392144 1.44162 0
M  V30 6108 H 598.063 -1.59981 3.89851 0
M  V30 6109 H 596.738 -1.76422 2.71398 0
M  V30 6110 H 595.645 0.319804 3.72731 0
M  V30 6111 H 596.978 0.401144 4.90563 0
M  V30 6112 N 598.631 -1.53133 0.372548 0
M  V30 6113 C 599.594 -2.24569 -0.458389 0
M  V30 6114 C 600.594 -1.25603 -1.00402 0
M  V30 6115 O 601.784 -1.49827 -0.888672 0
M  V30 6116 C 598.916 -2.98783 -1.6414 0
M  V30 6117 H 600.109 -2.99436 0.166799 0
M  V30 6118 H 597.662 -1.55805 0.124357 0
M  V30 6119 H 598.397 -2.28176 -2.30448 0
M  V30 6120 H 598.182 -3.71404 -1.25704 0
M  V30 6121 H 599.672 -3.53068 -2.23008 0
M  V30 6122 N 600.109 -0.101901 -1.5727 0
M  V30 6123 C 601.042 0.891377 -2.10071 0
M  V30 6124 C 602.02 1.27197 -1.01291 0
M  V30 6125 O 603.204 1.37602 -1.28833 0
M  V30 6126 C 600.331 2.19049 -2.58331 0
M  V30 6127 C 599.377 1.95925 -3.78834 0
M  V30 6128 S 600.21 1.19106 -5.22086 0
M  V30 6129 C 601.366 2.50234 -5.73702 0
M  V30 6130 H 601.599 0.442212 -2.93993 0
M  V30 6131 H 599.132 0.111529 -1.53997 0
M  V30 6132 H 601.09 2.937 -2.86793 0
M  V30 6133 H 599.751 2.61086 -1.74622 0
M  V30 6134 H 598.944 2.92143 -4.10693 0
M  V30 6135 H 598.546 1.29401 -3.50901 0
M  V30 6136 H 600.838 3.46173 -5.82384 0
M  V30 6137 H 601.781 2.22944 -6.72088 0
M  V30 6138 H 602.189 2.58818 -5.01671 0
M  V30 6139 N 601.587 1.56661 0.17182 0
M  V30 6140 C 602.835 1.81606 0.886774 0
M  V30 6141 C 603.156 0.678818 1.82803 0
M  V30 6142 O 602.426 -0.301354 1.93568 0
M  V30 6143 H 601.006 0.669934 0.330451 0
M  V30 6144 H 603.668 1.94142 0.171757 0
M  V30 6145 H 602.764 2.75634 1.46398 0
M  V30 6146 N 603.065 -0.440357 1.51323 0
M  V30 6147 C 604.311 -1.18874 1.65047 0
M  V30 6148 C 604.666 -1.88988 0.360742 0
M  V30 6149 O 603.959 -1.80479 -0.643272 0
M  V30 6150 C 604.153 -2.2339 2.78984 0
M  V30 6151 C 603.982 -1.63534 4.18911 0
M  V30 6152 C 602.752 -1.42158 4.84891 0
M  V30 6153 C 604.95 -1.11324 5.02107 0
M  V30 6154 N 602.932 -0.778679 6.08942 0
M  V30 6155 C 604.303 -0.595421 6.17134 0
M  V30 6156 C 606.358 -1.00471 4.87658 0
M  V30 6157 C 605.061 0.0202557 7.19297 0
M  V30 6158 C 607.087 -0.402928 5.90026 0
M  V30 6159 C 606.449 0.10436 7.04323 0
M  V30 6160 H 602.548 -0.422771 0.657866 0
M  V30 6161 H 605.132 -0.485814 1.88542 0
M  V30 6162 H 603.303 -2.91074 2.57158 0
M  V30 6163 H 605.035 -2.90366 2.81904 0
M  V30 6164 H 601.79 -1.68247 4.42707 0
M  V30 6165 H 602.214 -0.474755 6.75333 0
M  V30 6166 H 606.856 -1.38278 3.99548 0
M  V30 6167 H 604.574 0.410468 8.07057 0
M  V30 6168 H 608.16 -0.320897 5.80914 0
M  V30 6169 H 607.04 0.562697 7.82179 0
M  V30 6170 N 604.543 -1.41418 -0.695603 0
M  V30 6171 C 605.473 -1.46035 -1.82197 0
M  V30 6172 C 606.454 -0.319025 -1.67082 0
M  V30 6173 O 607.639 -0.530462 -1.86815 0
M  V30 6174 C 604.769 -1.34179 -3.20333 0
M  V30 6175 C 603.723 -2.46123 -3.50154 0
M  V30 6176 C 603.049 -2.19332 -4.87645 0
M  V30 6177 C 604.349 -3.88463 -3.49133 0
M  V30 6178 H 606.043 -2.40303 -1.78591 0
M  V30 6179 H 603.589 -1.15663 -0.857797 0
M  V30 6180 H 605.542 -1.36021 -3.98844 0
M  V30 6181 H 604.266 -0.363952 -3.24566 0
M  V30 6182 H 602.925 -2.43563 -2.73994 0
M  V30 6183 H 602.573 -1.19891 -4.88503 0
M  V30 6184 H 602.273 -2.94344 -5.08562 0
M  V30 6185 H 603.797 -2.22889 -5.68465 0
M  V30 6186 H 605.211 -3.92738 -4.17648 0
M  V30 6187 H 603.608 -4.63158 -3.81582 0
M  V30 6188 H 604.678 -4.16617 -2.48109 0
M  V30 6189 N 606.021 0.929856 -1.27246 0
M  V30 6190 C 606.969 2.05151 -1.09616 0
M  V30 6191 C 607.963 1.69388 -0.0198617 0
M  V30 6192 O 609.169 1.79124 -0.177417 0
M  V30 6193 H 605.544 0.671909 -0.337701 0
M  V30 6194 H 607.515 2.17168 -2.04648 0
M  V30 6195 C 606.264 3.3934 -0.757851 0
M  V30 6196 H 605.587 3.67343 -1.57795 0
M  V30 6197 H 607.027 4.18603 -0.674358 0
M  V30 6198 C 605.486 3.32582 0.537658 0
M  V30 6199 O 606.016 3.69633 1.57271 0
M  V30 6200 N 604.222 2.8568 0.532478 0
M  V30 6201 H 603.769 2.55725 -0.310233 0
M  V30 6202 H 603.727 2.81541 1.39936 0
M  V30 6203 N 607.499 1.09233 1.13605 0
M  V30 6204 C 608.747 0.825525 1.84471 0
M  V30 6205 C 609.068 -0.650702 1.83823 0
M  V30 6206 O 608.338 -1.47204 1.29259 0
M  V30 6207 H 606.918 0.3024 0.683054 0
M  V30 6208 H 609.58 1.38006 1.37624 0
M  V30 6209 H 608.676 1.17727 2.89045 0
M  V30 6210 N 608.977 -1.30795 0.87923 0
M  V30 6211 C 610.388 -1.78535 0.546093 0
M  V30 6212 C 610.739 -1.72354 -0.937467 0
M  V30 6213 O 609.864 -1.2969 -1.73233 0
M  V30 6214 C 610.459 -3.24181 0.9845 0
M  V30 6215 C 609.018 -3.69779 0.702871 0
M  V30 6216 C 608.165 -2.51377 1.17068 0
M  V30 6217 H 611.116 -1.17746 1.06403 0
M  V30 6218 H 611.137 -3.79227 0.311045 0
M  V30 6219 H 610.649 -3.28647 2.06429 0
M  V30 6220 H 608.75 -3.70806 -0.365166 0
M  V30 6221 H 608.863 -4.61507 1.28639 0
M  V30 6222 H 607.227 -2.47768 0.590172 0
M  V30 6223 H 608.01 -2.58584 2.25808 0
M  V30 6224 N 610.455 -0.639598 -1.44038 0
M  V30 6225 C 611.732 -0.078012 -1.95444 0
M  V30 6226 C 612.112 1.39847 -1.58133 0
M  V30 6227 O 611.46 2.11714 -0.859614 0
M  V30 6228 C 611.67 -0.309832 -3.47622 0
M  V30 6229 C 613.018 -0.207521 -4.24093 0
M  V30 6230 O 614.042 -0.241653 -3.55379 0
M  V30 6231 O 612.901 -0.119641 -5.46369 0
M  V30 6232 H 609.995 0.0174534 -0.826816 0
M  V30 6233 H 612.541 -0.711891 -1.54046 0
M  V30 6234 H 611.313 -1.33401 -3.67858 0
M  V30 6235 H 610.936 0.357777 -3.95987 0
M  V30 6236 N 611.933 1.52934 -0.380664 0
M  V30 6237 C 613.181 2.01069 0.203874 0
M  V30 6238 C 613.502 1.26922 1.4804 0
M  V30 6239 O 612.772 0.386787 1.92044 0
M  V30 6240 H 611.352 0.742882 0.0783279 0
M  V30 6241 H 614.014 1.88099 -0.510368 0
M  V30 6242 H 613.11 3.09258 0.42021 0
M  V30 6243 N 613.412 0.11024 1.57214 0
M  V30 6244 C 614.344 -0.873497 2.11902 0
M  V30 6245 C 615.357 -1.23588 1.05971 0
M  V30 6246 O 616.546 -1.18636 1.33371 0
M  V30 6247 C 613.646 -2.17805 2.59643 0
M  V30 6248 C 612.819 -1.98869 3.89576 0
M  V30 6249 C 611.878 -3.12974 4.23006 0
M  V30 6250 O 610.904 -2.86272 4.91973 0
M  V30 6251 N 612.106 -4.39167 3.79622 0
M  V30 6252 H 614.871 -0.406317 2.96933 0
M  V30 6253 H 612.432 -0.074437 1.61729 0
M  V30 6254 H 614.424 -2.93117 2.79042 0
M  V30 6255 H 612.994 -2.55899 1.7954 0
M  V30 6256 H 612.214 -1.078 3.79174 0
M  V30 6257 H 613.502 -1.83512 4.74553 0
M  V30 6258 H 612.9 -4.63739 3.2398 0
M  V30 6259 H 611.457 -5.11379 4.04147 0
M  V30 6260 N 614.89 -1.56749 -0.16351 0
M  V30 6261 C 616.301 -1.72039 -0.725216 0
M  V30 6262 C 616.652 -0.72202 -1.82432 0
M  V30 6263 O 615.777 0.114942 -2.16095 0
M  V30 6264 C 616.372 -3.11932 -1.32227 0
M  V30 6265 C 614.931 -3.28879 -1.83072 0
M  V30 6266 C 614.078 -2.67984 -0.712716 0
M  V30 6267 H 617.029 -1.58579 0.0619772 0
M  V30 6268 H 617.05 -3.11015 -2.19202 0
M  V30 6269 H 616.562 -3.84572 -0.522103 0
M  V30 6270 H 614.663 -2.61209 -2.65708 0
M  V30 6271 H 614.776 -4.36688 -1.97079 0
M  V30 6272 H 613.14 -2.28005 -1.13515 0
M  V30 6273 H 613.923 -3.43216 0.0757361 0
M  V30 6274 N 616.368 0.432326 -1.51554 0
M  V30 6275 C 617.616 1.17901 -1.64146 0
M  V30 6276 C 617.937 1.91604 -0.362367 0
M  V30 6277 O 617.207 1.85764 0.621968 0
M  V30 6278 H 615.787 0.438206 -0.604966 0
M  V30 6279 H 618.449 0.495172 -1.88505 0
M  V30 6280 H 617.545 1.90584 -2.47152 0
M  V30 6281 N 617.846 1.41785 0.688094 0
M  V30 6282 C 619.074 1.44915 1.47673 0
M  V30 6283 C 619.489 0.0565786 1.88715 0
M  V30 6284 O 618.846 -0.92579 1.57275 0
M  V30 6285 C 618.897 2.36452 2.73446 0
M  V30 6286 O 618.618 3.7029 2.34131 0
M  V30 6287 C 620.119 2.48463 3.67125 0
M  V30 6288 H 617.339 0.493324 0.454832 0
M  V30 6289 H 619.883 1.86153 0.846594 0
M  V30 6290 H 618.038 1.98502 3.3268 0
M  V30 6291 H 618.452 4.19183 3.15255 0
M  V30 6292 H 619.926 3.16662 4.52138 0
M  V30 6293 H 620.403 1.51826 4.12123 0
M  V30 6294 H 621.009 2.8708 3.13792 0
M  V30 6295 N 619.324 -0.923095 1.27737 0
M  V30 6296 C 620.572 -1.66797 1.14119 0
M  V30 6297 C 620.893 -1.92479 -0.312541 0
M  V30 6298 O 620.163 -1.53432 -1.218 0
M  V30 6299 H 618.743 -0.618196 0.419336 0
M  V30 6300 H 621.405 -1.10815 1.60331 0
M  V30 6301 H 620.501 -2.63424 1.67374 0
M  V30 6302 N 620.802 -1.09834 -1.13024 0
M  V30 6303 C 622.079 -0.749225 -1.80682 0
M  V30 6304 C 622.459 0.765171 -1.96744 0
M  V30 6305 O 621.807 1.68912 -1.53886 0
M  V30 6306 C 622.017 -1.49311 -3.15448 0
M  V30 6307 C 623.365 -1.66162 -3.90737 0
M  V30 6308 O 624.389 -1.45597 -3.25085 0
M  V30 6309 O 623.248 -2.00211 -5.08505 0
M  V30 6310 H 620.342 -0.269614 -0.781817 0
M  V30 6311 H 622.888 -1.20078 -1.19914 0
M  V30 6312 H 621.66 -2.52407 -2.99009 0
M  V30 6313 H 621.283 -1.034 -3.8392 0
M  V30 6314 N 622.28 1.30327 -0.886154 0
M  V30 6315 C 623.557 1.90922 -0.425217 0
M  V30 6316 C 623.937 1.80533 1.09413 0
M  V30 6317 O 623.285 1.2233 1.92996 0
M  V30 6318 C 623.495 3.36529 -0.924638 0
M  V30 6319 C 624.843 4.13598 -0.960305 0
M  V30 6320 O 625.867 3.45377 -0.871382 0
M  V30 6321 O 624.726 5.35482 -1.09184 0
M  V30 6322 H 621.82 0.81668 -0.130238 0
M  V30 6323 H 624.366 1.38886 -0.975132 0
M  V30 6324 H 623.138 3.38181 -1.96849 0
M  V30 6325 H 622.761 3.96021 -0.353955 0
M  V30 6326 N 623.758 0.647228 1.43697 0
M  V30 6327 C 625.007 0.155552 2.01099 0
M  V30 6328 C 625.32 -1.23569 1.51624 0
M  V30 6329 O 626.526 -1.82226 2.01261 0
M  V30 6330 C 624.982 0.227296 3.59182 0
M  V30 6331 C 624.59 1.62086 4.17651 0
M  V30 6332 C 626.334 -0.207085 4.23995 0
M  V30 6333 C 624.241 1.64685 5.68008 0
M  V30 6334 H 623.171 0.0543895 0.752036 0
M  V30 6335 H 625.822 0.808386 1.64734 0
M  V30 6336 H 624.204 -0.492937 3.9292 0
M  V30 6337 H 625.378 2.36597 3.95422 0
M  V30 6338 H 623.693 2.0007 3.65186 0
M  V30 6339 H 626.29 -0.207426 5.34298 0
M  V30 6340 H 626.633 -1.23742 3.97484 0
M  V30 6341 H 627.166 0.461193 3.95118 0
M  V30 6342 H 623.905 2.65608 5.99277 0
M  V30 6343 H 623.425 0.944914 5.9231 0
M  V30 6344 H 625.104 1.38792 6.31938 0
M  V30 6345 N 625.236 -1.5273 0.388769 0
M  V30 6346 C 626.199 -2.25043 -0.434544 0
M  V30 6347 C 627.199 -1.26661 -0.990644 0
M  V30 6348 O 628.389 -1.50762 -0.872731 0
M  V30 6349 C 625.521 -3.00507 -1.60961 0
M  V30 6350 H 626.714 -2.99242 0.198549 0
M  V30 6351 H 624.267 -1.55664 0.140875 0
M  V30 6352 H 625.002 -2.30607 -2.28015 0
M  V30 6353 H 624.787 -3.72716 -1.21757 0
M  V30 6354 H 626.277 -3.55413 -2.19251 0
M  V30 6355 N 626.714 -0.118576 -1.57153 0
M  V30 6356 C 627.644 0.828436 -2.1831 0
M  V30 6357 C 628.625 1.27758 -1.12303 0
M  V30 6358 O 629.81 1.34026 -1.40537 0
M  V30 6359 C 626.94 2.07876 -2.78217 0
M  V30 6360 C 625.894 1.76742 -3.89803 0
M  V30 6361 C 625.22 3.08801 -4.36516 0
M  V30 6362 C 626.52 1.03606 -5.11921 0
M  V30 6363 H 628.214 0.318824 -2.97698 0
M  V30 6364 H 625.76 0.151911 -1.43196 0
M  V30 6365 H 627.713 2.74584 -3.19659 0
M  V30 6366 H 626.437 2.61161 -1.96118 0
M  V30 6367 H 625.096 1.12424 -3.48936 0
M  V30 6368 H 624.744 3.6002 -3.51276 0
M  V30 6369 H 624.444 2.88743 -5.11763 0
M  V30 6370 H 625.968 3.76627 -4.80608 0
M  V30 6371 H 627.382 1.60467 -5.50385 0
M  V30 6372 H 625.779 0.936454 -5.92748 0
M  V30 6373 H 626.849 0.0227421 -4.84895 0
M  V30 6374 N 628.193 1.56834 0.155195 0
M  V30 6375 C 629.441 1.82536 0.867462 0
M  V30 6376 C 629.762 0.698168 1.82073 0
M  V30 6377 O 629.032 -0.280807 1.93877 0
M  V30 6378 H 627.612 0.673401 0.323327 0
M  V30 6379 H 630.274 1.94313 0.151156 0
M  V30 6380 H 629.37 2.77171 1.43466 0
M  V30 6381 N 629.671 -0.424282 1.51781 0
M  V30 6382 C 630.634 -1.49848 1.73431 0
M  V30 6383 C 631.634 -1.49016 0.604225 0
M  V30 6384 O 632.824 -1.50808 0.871935 0
M  V30 6385 C 629.956 -2.89332 1.80277 0
M  V30 6386 H 631.149 -1.3195 2.69312 0
M  V30 6387 H 628.702 -0.653809 1.41968 0
M  V30 6388 H 629.437 -3.12618 0.862568 0
M  V30 6389 H 629.222 -2.9134 2.62419 0
M  V30 6390 H 630.712 -3.67233 1.98821 0
M  V30 6391 N 631.149 -1.42148 -0.680565 0
M  V30 6392 C 632.396 -1.4231 -1.44063 0
M  V30 6393 C 632.724 -0.037488 -1.94464 0
M  V30 6394 O 631.979 0.953184 -1.70918 0
M  V30 6395 C 632.278 -2.38945 -2.65782 0
M  V30 6396 C 631.944 -3.85455 -2.33956 0
M  V30 6397 C 630.606 -4.25364 -2.24987 0
M  V30 6398 C 632.958 -4.77895 -2.08004 0
M  V30 6399 C 630.286 -5.55701 -1.88184 0
M  V30 6400 C 632.638 -6.08568 -1.72706 0
M  V30 6401 C 631.302 -6.47482 -1.62244 0
M  V30 6402 H 630.572 -0.520748 -0.527164 0
M  V30 6403 H 633.219 -1.7505 -0.776524 0
M  V30 6404 H 631.524 -1.99511 -3.37198 0
M  V30 6405 H 633.221 -2.36336 -3.23954 0
M  V30 6406 H 629.811 -3.53855 -2.41836 0
M  V30 6407 H 633.995 -4.47854 -2.1387 0
M  V30 6408 H 629.251 -5.84718 -1.78648 0
M  V30 6409 H 633.425 -6.79688 -1.5165 0
M  V30 6410 H 631.052 -7.48387 -1.33496 0
M  V30 6411 N 632.627 0.916307 -1.28225 0
M  V30 6412 C 634.038 1.48024 -1.13779 0
M  V30 6413 C 634.389 1.94289 0.273139 0
M  V30 6414 O 633.514 1.82226 1.16716 0
M  V30 6415 C 634.109 2.69029 -2.05935 0
M  V30 6416 C 632.668 3.2161 -1.95561 0
M  V30 6417 C 631.815 1.94321 -1.97825 0
M  V30 6418 H 634.766 0.729272 -1.40951 0
M  V30 6419 H 634.787 3.44204 -1.62184 0
M  V30 6420 H 634.299 2.35325 -3.08616 0
M  V30 6421 H 632.4 3.60045 -0.959076 0
M  V30 6422 H 632.513 3.87032 -2.82388 0
M  V30 6423 H 630.877 2.1131 -1.42198 0
M  V30 6424 H 631.66 1.62917 -3.0218 0
M  V30 6425 N 634.105 1.10431 1.1244 0
M  V30 6426 C 635.068 0.756542 2.16354 0
M  V30 6427 C 636.068 -0.21899 1.59302 0
M  V30 6428 O 637.258 0.00415969 1.742 0
M  V30 6429 C 634.39 0.120612 3.40687 0
M  V30 6430 H 635.583 1.67696 2.48632 0
M  V30 6431 H 633.136 0.904832 1.27446 0
M  V30 6432 H 633.871 -0.810536 3.14008 0
M  V30 6433 H 633.656 0.822693 3.83372 0
M  V30 6434 H 635.146 -0.106945 4.17463 0
M  V30 6435 N 635.583 -1.29855 0.893053 0
M  V30 6436 C 636.808 -2.00512 0.530066 0
M  V30 6437 C 637.233 -1.66446 -0.876199 0
M  V30 6438 O 636.591 -0.885446 -1.58207 0
M  V30 6439 C 636.639 -3.53308 0.721505 0
M  V30 6440 O 635.743 -4.11764 -0.228994 0
M  V30 6441 H 635.084 -0.630617 0.207891 0
M  V30 6442 H 637.614 -1.6551 1.20282 0
M  V30 6443 H 637.624 -4.03206 0.623599 0
M  V30 6444 H 636.299 -3.77439 1.74678 0
M  V30 6445 H 634.876 -3.72805 -0.0841034 0
M  V30 6446 N 637.061 -0.65484 -1.43351 0
M  V30 6447 C 638.307 -0.177749 -2.02622 0
M  V30 6448 C 638.662 1.19553 -1.50748 0
M  V30 6449 O 637.955 1.78683 -0.691599 0
M  V30 6450 C 638.149 -0.130424 -3.57162 0
M  V30 6451 C 637.978 -1.49757 -4.24032 0
M  V30 6452 C 636.748 -2.09036 -4.60035 0
M  V30 6453 C 638.946 -2.4363 -4.52934 0
M  V30 6454 N 636.928 -3.3874 -5.11985 0
M  V30 6455 C 638.299 -3.57968 -5.0622 0
M  V30 6456 C 640.354 -2.42412 -4.34903 0
M  V30 6457 C 639.057 -4.71314 -5.43374 0
M  V30 6458 C 641.083 -3.5484 -4.7312 0
M  V30 6459 C 640.445 -4.67903 -5.26541 0
M  V30 6460 H 636.544 -0.10951 -0.774294 0
M  V30 6461 H 639.128 -0.863495 -1.74505 0
M  V30 6462 H 637.299 0.524671 -3.8484 0
M  V30 6463 H 639.031 0.35769 -4.03116 0
M  V30 6464 H 635.786 -1.61729 -4.4513 0
M  V30 6465 H 636.21 -4.05116 -5.42412 0
M  V30 6466 H 640.852 -1.56236 -3.92874 0
M  V30 6467 H 638.57 -5.5818 -5.84346 0
M  V30 6468 H 642.156 -3.55101 -4.60863 0
M  V30 6469 H 641.036 -5.5346 -5.55564 0
M  V30 6470 N 638.539 1.52521 -0.396863 0
M  V30 6471 C 639.502 2.2527 0.422604 0
M  V30 6472 C 640.502 1.27184 0.983913 0
M  V30 6473 O 641.692 1.51222 0.864723 0
M  V30 6474 C 638.824 3.01356 1.59365 0
M  V30 6475 H 640.017 2.99133 -0.214416 0
M  V30 6476 H 637.57 1.55587 -0.149128 0
M  V30 6477 H 638.305 2.31813 2.26789 0
M  V30 6478 H 638.09 3.73357 1.19779 0
M  V30 6479 H 639.58 3.56571 2.17363 0
M  V30 6480 N 640.017 0.126909 1.57088 0
M  V30 6481 C 641.245 -0.53667 1.99819 0
M  V30 6482 C 641.66 -1.5972 1.00673 0
M  V30 6483 O 641.017 -1.825 0.000747365 0
M  V30 6484 C 641.068 -1.15563 3.42531 0
M  V30 6485 O 640.789 -0.137483 4.37884 0
M  V30 6486 C 642.29 -1.90176 4.00435 0
M  V30 6487 H 639.51 -0.141443 0.655923 0
M  V30 6488 H 642.054 0.215578 2.03361 0
M  V30 6489 H 640.209 -1.85861 3.39904 0
M  V30 6490 H 640.623 -0.588229 5.21191 0
M  V30 6491 H 642.097 -2.28801 5.02349 0
M  V30 6492 H 642.574 -2.78002 3.40017 0
M  V30 6493 H 643.18 -1.24623 4.06632 0
M  V30 6494 N 641.495 -1.56914 -0.146875 0
M  V30 6495 C 642.772 -1.74273 -0.888165 0
M  V30 6496 C 643.152 -0.69496 -1.99333 0
M  V30 6497 O 642.5 0.286093 -2.26702 0
M  V30 6498 C 642.71 -3.18336 -1.43051 0
M  V30 6499 C 644.058 -3.80024 -1.89387 0
M  V30 6500 O 645.082 -3.21765 -1.52792 0
M  V30 6501 O 643.941 -4.82367 -2.56874 0
M  V30 6502 H 641.035 -0.712565 -0.419738 0
M  V30 6503 H 643.581 -1.6918 -0.132791 0
M  V30 6504 H 642.353 -3.86092 -0.636274 0
M  V30 6505 H 641.976 -3.27854 -2.24938 0
M  V30 6506 N 642.974 0.416227 -1.52004 0
M  V30 6507 C 643.922 1.5272 -1.7544 0
M  V30 6508 C 644.916 1.57596 -0.621289 0
M  V30 6509 O 646.122 1.61087 -0.803172 0
M  V30 6510 H 642.497 0.507772 -0.554682 0
M  V30 6511 H 644.468 1.30136 -2.68528 0
M  V30 6512 C 643.217 2.90165 -1.91571 0
M  V30 6513 H 642.54 2.87154 -2.78178 0
M  V30 6514 H 643.98 3.67211 -2.11972 0
M  V30 6515 C 642.439 3.29947 -0.680942 0
M  V30 6516 O 642.969 4.01403 0.154527 0
M  V30 6517 N 641.175 2.8593 -0.518894 0
M  V30 6518 H 640.722 2.2795 -1.19986 0
M  V30 6519 H 640.68 3.12907 0.305985 0
M  V30 6520 N 644.452 1.42507 0.673017 0
M  V30 6521 C 645.699 1.43072 1.43306 0
M  V30 6522 C 646.027 0.0478004 1.94441 0
M  V30 6523 O 645.282 -0.944106 1.71421 0
M  V30 6524 C 645.581 2.40351 2.64511 0
M  V30 6525 C 645.247 3.8669 2.31908 0
M  V30 6526 C 643.909 4.26551 2.22728 0
M  V30 6527 C 646.261 4.78991 2.05467 0
M  V30 6528 C 643.589 5.56691 1.85234 0
M  V30 6529 C 645.941 6.09476 1.69477 0
M  V30 6530 C 644.605 6.48334 1.58808 0
M  V30 6531 H 643.875 0.523536 0.524395 0
M  V30 6532 H 646.522 1.75459 0.76723 0
M  V30 6533 H 644.827 2.01297 3.36135 0
M  V30 6534 H 646.524 2.38051 3.22696 0
M  V30 6535 H 643.114 3.55132 2.39956 0
M  V30 6536 H 647.298 4.48982 2.11492 0
M  V30 6537 H 642.554 5.85657 1.75545 0
M  V30 6538 H 646.728 6.80482 1.48043 0
M  V30 6539 H 644.355 7.49084 1.29525 0
M  V30 6540 N 645.93 -0.909495 1.28709 0
M  V30 6541 C 647.207 -1.63865 1.06806 0
M  V30 6542 C 647.587 -2.07445 -0.391143 0
M  V30 6543 O 646.935 -1.82269 -1.37805 0
M  V30 6544 C 647.145 -2.82692 2.04661 0
M  V30 6545 C 648.493 -3.5361 2.35042 0
M  V30 6546 O 649.517 -2.92847 2.02779 0
M  V30 6547 O 648.376 -4.63131 2.90124 0
M  V30 6548 H 645.47 -0.719065 0.408502 0
M  V30 6549 H 648.016 -0.958424 1.40044 0
M  V30 6550 H 646.788 -2.47614 3.0299 0
M  V30 6551 H 646.411 -3.58426 1.72095 0
M  V30 6552 N 647.408 -1.11026 -1.11852 0
M  V30 6553 C 648.318 -0.777252 -2.2135 0
M  V30 6554 C 649.334 0.227821 -1.72502 0
M  V30 6555 O 650.51 0.0650587 -2.01295 0
M  V30 6556 C 647.575 -0.220668 -3.45997 0
M  V30 6557 C 646.636 -1.2838 -4.09655 0
M  V30 6558 C 645.869 -0.753678 -5.28352 0
M  V30 6559 O 646.092 0.417779 -5.68868 0
M  V30 6560 O 645.026 -1.51647 -5.82483 0
M  V30 6561 H 648.852 -1.69141 -2.5224 0
M  V30 6562 H 646.437 -0.885836 -1.20305 0
M  V30 6563 H 648.319 0.0855756 -4.21313 0
M  V30 6564 H 646.994 0.666262 -3.16769 0
M  V30 6565 H 645.901 -1.64299 -3.3609 0
M  V30 6566 H 647.234 -2.14396 -4.43052 0
M  V30 6567 N 648.886 1.2938 -0.899927 0
M  V30 6568 C 649.796 2.31462 -0.382437 0
M  V30 6569 C 650.812 1.65956 0.522929 0
M  V30 6570 O 651.988 1.97131 0.412454 0
M  V30 6571 C 649.053 3.44595 0.381472 0
M  V30 6572 C 648.114 4.25692 -0.555444 0
M  V30 6573 C 647.347 5.33422 0.172102 0
M  V30 6574 O 647.57 5.53053 1.396 0
M  V30 6575 O 646.504 5.99939 -0.485491 0
M  V30 6576 H 650.33 2.77706 -1.22934 0
M  V30 6577 H 647.915 1.33821 -0.664259 0
M  V30 6578 H 649.797 4.13474 0.813442 0
M  V30 6579 H 648.472 3.00458 1.20443 0
M  V30 6580 H 647.379 3.59453 -1.03653 0
M  V30 6581 H 648.712 4.73471 -1.34483 0
M  V30 6582 N 650.364 0.662433 1.43002 0
M  V30 6583 C 651.327 -0.0142016 2.29196 0
M  V30 6584 C 652.327 -0.741394 1.42688 0
M  V30 6585 O 653.517 -0.581257 1.64216 0
M  V30 6586 C 650.649 -1.03084 3.24941 0
M  V30 6587 H 651.842 0.7443 2.90517 0
M  V30 6588 H 649.395 0.424133 1.50435 0
M  V30 6589 H 650.13 -1.81826 2.68533 0
M  V30 6590 H 649.915 -0.512946 3.8873 0
M  V30 6591 H 651.405 -1.50308 3.89612 0
M  V30 6592 N 651.842 -1.52309 0.404946 0
M  V30 6593 C 652.752 -2.30634 -0.429555 0
M  V30 6594 C 653.768 -1.38187 -1.05737 0
M  V30 6595 O 654.944 -1.71261 -1.05979 0
M  V30 6596 C 652.009 -3.10947 -1.53339 0
M  V30 6597 C 651.07 -4.19126 -0.929065 0
M  V30 6598 C 650.303 -4.95601 -1.9803 0
M  V30 6599 O 650.526 -4.72331 -3.1978 0
M  V30 6600 O 649.46 -5.80551 -1.58886 0
M  V30 6601 H 653.286 -3.0298 0.208963 0
M  V30 6602 H 650.871 -1.4845 0.168255 0
M  V30 6603 H 652.753 -3.60974 -2.1743 0
M  V30 6604 H 651.428 -2.41399 -2.15658 0
M  V30 6605 H 650.335 -3.73257 -0.250982 0
M  V30 6606 H 651.668 -4.90955 -0.349855 0
M  V30 6607 N 653.32 -0.135238 -1.57019 0
M  V30 6608 C 654.267 0.808908 -2.1616 0
M  V30 6609 C 655.237 1.25234 -1.09113 0
M  V30 6610 O 656.422 1.32697 -1.37099 0
M  V30 6611 C 653.562 2.04729 -2.77813 0
M  V30 6612 C 652.675 1.65074 -3.99218 0
M  V30 6613 C 651.81 2.84002 -4.48906 0
M  V30 6614 C 650.849 2.40663 -5.62803 0
M  V30 6615 N 649.986 3.5256 -6.07162 0
M  V30 6616 H 654.826 0.297751 -2.96509 0
M  V30 6617 H 652.363 0.135264 -1.46477 0
M  V30 6618 H 654.321 2.7731 -3.11697 0
M  V30 6619 H 652.951 2.53275 -2.00128 0
M  V30 6620 H 652.003 0.823029 -3.7139 0
M  V30 6621 H 653.315 1.29236 -4.81767 0
M  V30 6622 H 652.469 3.64788 -4.84783 0
M  V30 6623 H 651.208 3.23076 -3.65339 0
M  V30 6624 H 650.213 1.58314 -5.26514 0
M  V30 6625 H 651.438 2.02687 -6.48147 0
M  V30 6626 H 649.384 3.91278 -5.26534 0
M  V30 6627 H 649.301 3.20699 -6.84608 0
M  V30 6628 H 650.569 4.33738 -6.47682 0
M  V30 6629 N 654.798 1.5699 0.138552 0
M  V30 6630 C 655.731 1.94064 1.2006 0
M  V30 6631 C 656.709 0.807601 1.41126 0
M  V30 6632 O 657.893 1.06399 1.556 0
M  V30 6633 C 655.02 2.21999 2.55801 0
M  V30 6634 C 654.066 3.44617 2.5128 0
M  V30 6635 S 654.899 4.97888 1.97149 0
M  V30 6636 C 656.055 5.28954 3.34602 0
M  V30 6637 H 656.288 2.83843 0.884337 0
M  V30 6638 H 653.821 1.50507 0.344517 0
M  V30 6639 H 655.779 2.38772 3.33914 0
M  V30 6640 H 654.44 1.32869 2.84613 0
M  V30 6641 H 653.633 3.61466 3.51224 0
M  V30 6642 H 653.235 3.27129 1.8128 0
M  V30 6643 H 655.527 5.22938 4.30745 0
M  V30 6644 H 656.47 6.30346 3.22598 0
M  V30 6645 H 656.878 4.56455 3.32128 0
M  V30 6646 N 656.276 -0.40816 1.52223 0
M  V30 6647 C 657.208 -1.51642 1.71864 0
M  V30 6648 C 658.221 -1.51378 0.599056 0
M  V30 6649 O 659.41 -1.55626 0.874239 0
M  V30 6650 C 656.51 -2.90534 1.74481 0
M  V30 6651 C 655.683 -3.14979 3.03491 0
M  V30 6652 C 654.742 -4.33749 2.97907 0
M  V30 6653 O 653.768 -4.30982 3.71811 0
M  V30 6654 N 654.97 -5.38912 2.15764 0
M  V30 6655 H 657.735 -1.35188 2.67478 0
M  V30 6656 H 655.296 -0.597468 1.50472 0
M  V30 6657 H 657.288 -3.68056 1.68275 0
M  V30 6658 H 655.858 -3.00441 0.863363 0
M  V30 6659 H 655.078 -2.25492 3.23337 0
M  V30 6660 H 656.366 -3.28156 3.88833 0
M  V30 6661 H 655.764 -5.44008 1.55152 0
M  V30 6662 H 654.321 -6.15174 2.15415 0
M  V30 6663 N 657.755 -1.42862 -0.66545 0
M  V30 6664 C 659.032 -1.3431 -1.42197 0
M  V30 6665 C 659.412 0.0150265 -2.11095 0
M  V30 6666 O 658.76 1.03101 -2.03918 0
M  V30 6667 C 658.97 -2.51783 -2.41674 0
M  V30 6668 C 660.318 -2.94321 -3.0604 0
M  V30 6669 O 661.342 -2.51741 -2.52001 0
M  V30 6670 O 660.201 -3.68047 -4.03985 0
M  V30 6671 H 657.295 -0.530159 -0.634713 0
M  V30 6672 H 659.841 -1.54888 -0.693386 0
M  V30 6673 H 658.613 -3.42282 -1.89627 0
M  V30 6674 H 658.236 -2.33241 -3.22001 0
M  V30 6675 N 659.233 0.902656 -1.29189 0
M  V30 6676 C 660.196 1.98797 -1.14071 0
M  V30 6677 C 661.196 1.60615 -0.0770549 0
M  V30 6678 O 662.386 1.71165 -0.323753 0
M  V30 6679 C 659.518 3.32688 -0.743739 0
M  V30 6680 H 660.711 2.13637 -2.10473 0
M  V30 6681 H 658.264 1.08678 -1.12334 0
M  V30 6682 H 658.999 3.23549 0.220554 0
M  V30 6683 H 658.784 3.61765 -1.51223 0
M  V30 6684 H 660.274 4.12337 -0.660935 0
M  V30 6685 N 660.711 1.11618 1.11262 0
M  V30 6686 C 661.658 0.7762 2.17356 0
M  V30 6687 C 662.628 -0.253152 1.6416 0
M  V30 6688 O 663.813 -0.129655 1.90359 0
M  V30 6689 C 660.953 0.227581 3.44349 0
M  V30 6690 C 660.066 1.31372 4.1154 0
M  V30 6691 C 659.201 0.72544 5.26223 0
M  V30 6692 C 658.24 1.7913 5.85302 0
M  V30 6693 N 657.377 1.22237 6.91377 0
M  V30 6694 H 662.217 1.68508 2.45783 0
M  V30 6695 H 659.754 0.841475 1.20655 0
M  V30 6696 H 661.712 -0.108483 4.17059 0
M  V30 6697 H 660.342 -0.644486 3.16301 0
M  V30 6698 H 659.394 1.7667 3.36885 0
M  V30 6699 H 660.706 2.12005 4.51504 0
M  V30 6700 H 659.86 0.339541 6.05749 0
M  V30 6701 H 658.599 -0.112188 4.87571 0
M  V30 6702 H 657.604 2.18648 5.04453 0
M  V30 6703 H 658.829 2.63199 6.26022 0
M  V30 6704 H 656.775 0.406423 6.5474 0
M  V30 6705 H 656.692 1.9654 7.30006 0
M  V30 6706 H 657.96 0.863426 7.74703 0
M  V30 6707 N 662.189 -1.289 0.906776 0
M  V30 6708 C 663.419 -1.99112 0.551168 0
M  V30 6709 C 663.827 -1.67998 -0.870243 0
M  V30 6710 O 663.17 -0.92525 -1.58697 0
M  V30 6711 C 663.232 -3.53162 0.672065 0
M  V30 6712 C 662.896 -4.07849 2.06174 0
M  V30 6713 C 663.893 -4.22212 3.0337 0
M  V30 6714 C 661.578 -4.4271 2.37304 0
M  V30 6715 C 663.572 -4.70678 4.29815 0
M  V30 6716 C 661.259 -4.90871 3.6399 0
M  V30 6717 C 662.257 -5.04811 4.6006 0
M  V30 6718 O 661.945 -5.51925 5.84495 0
M  V30 6719 H 661.677 -0.642728 0.209469 0
M  V30 6720 H 664.231 -1.65234 1.22012 0
M  V30 6721 H 662.461 -3.86662 -0.05394 0
M  V30 6722 H 664.15 -4.046 0.324579 0
M  V30 6723 H 664.916 -3.9556 2.80637 0
M  V30 6724 H 660.795 -4.31114 1.63283 0
M  V30 6725 H 664.339 -4.81474 5.04806 0
M  V30 6726 H 660.236 -5.16961 3.86551 0
M  V30 6727 H 661.004 -5.70225 5.87185 0
M  V30 6728 N 663.667 -0.670007 -1.42649 0
M  V30 6729 C 664.63 0.00204659 -2.292 0
M  V30 6730 C 665.63 0.733817 -1.4308 0
M  V30 6731 O 666.82 0.57254 -1.64522 0
M  V30 6732 C 663.952 1.01359 -3.25483 0
M  V30 6733 H 665.145 -0.759696 -2.90118 0
M  V30 6734 H 662.698 -0.432105 -1.50208 0
M  V30 6735 H 663.433 1.80399 -2.69493 0
M  V30 6736 H 663.218 0.492323 -3.88997 0
M  V30 6737 H 664.708 1.4824 -3.90403 0
M  V30 6738 N 665.145 1.52092 -0.413018 0
M  V30 6739 C 666.393 2.01456 0.161178 0
M  V30 6740 C 666.714 1.30034 1.45314 0
M  V30 6741 O 665.984 0.427435 1.9118 0
M  V30 6742 H 664.564 0.744376 0.0625526 0
M  V30 6743 H 667.226 1.86974 -0.550151 0
M  V30 6744 H 666.322 3.1008 0.354517 0
M  V30 6745 N 666.623 0.143563 1.56945 0
M  V30 6746 C 667.848 -0.518701 2.00809 0
M  V30 6747 C 668.273 -1.5785 1.02298 0
M  V30 6748 O 667.631 -1.813 -0.0017839 0
M  V30 6749 C 667.679 -1.09929 3.43436 0
M  V30 6750 O 666.783 -2.21425 3.47915 0
M  V30 6751 H 666.124 -0.127215 0.6517 0
M  V30 6752 H 668.654 0.239283 2.03196 0
M  V30 6753 H 668.664 -1.4288 3.82164 0
M  V30 6754 H 667.339 -0.323162 4.14643 0
M  V30 6755 H 665.916 -1.89728 3.21026 0
M  V30 6756 N 668.101 -1.57061 -0.130224 0
M  V30 6757 C 669.35 -1.83446 -0.838488 0
M  V30 6758 C 669.663 -0.727468 -1.81569 0
M  V30 6759 O 670.869 -0.877394 -2.56932 0
M  V30 6760 C 669.325 -3.25201 -1.54182 0
M  V30 6761 C 668.933 -4.4388 -0.606178 0
M  V30 6762 C 670.677 -3.60844 -2.23588 0
M  V30 6763 C 668.584 -5.76661 -1.31209 0
M  V30 6764 H 667.514 -0.684185 -0.316871 0
M  V30 6765 H 670.165 -1.83273 -0.0912059 0
M  V30 6766 H 668.547 -3.1981 -2.33533 0
M  V30 6767 H 669.721 -4.60545 0.153308 0
M  V30 6768 H 668.036 -4.16395 -0.0196705 0
M  V30 6769 H 670.633 -4.57313 -2.77072 0
M  V30 6770 H 670.976 -2.87724 -3.00867 0
M  V30 6771 H 671.509 -3.67971 -1.51137 0
M  V30 6772 H 668.248 -6.52922 -0.580823 0
M  V30 6773 H 667.768 -5.63902 -2.04387 0
M  V30 6774 H 669.447 -6.20035 -1.8484 0
M  V30 6775 N 669.579 0.400081 -1.52437 0
M  V30 6776 C 670.856 1.15973 -1.57511 0
M  V30 6777 C 671.236 2.0798 -0.361572 0
M  V30 6778 O 670.584 2.19032 0.650929 0
M  V30 6779 C 670.794 1.92912 -2.90837 0
M  V30 6780 C 672.142 2.48662 -3.44169 0
M  V30 6781 O 673.166 2.03081 -2.92637 0
M  V30 6782 O 672.025 3.31894 -4.34176 0
M  V30 6783 H 669.119 0.530023 -0.634827 0
M  V30 6784 H 671.665 0.40613 -1.64769 0
M  V30 6785 H 670.437 1.25564 -3.70607 0
M  V30 6786 H 670.06 2.75257 -2.86913 0
M  V30 6787 N 671.057 1.43213 0.657864 0
M  V30 6788 C 672.334 1.35063 1.41483 0
M  V30 6789 C 672.714 -0.0038314 2.111 0
M  V30 6790 O 672.062 -1.02018 2.04462 0
M  V30 6791 C 672.272 2.53061 2.40335 0
M  V30 6792 C 673.62 2.9594 3.04474 0
M  V30 6793 O 674.644 2.53074 2.50663 0
M  V30 6794 O 673.503 3.70184 4.02027 0
M  V30 6795 H 670.597 0.533517 0.631893 0
M  V30 6796 H 673.143 1.55253 0.685162 0
M  V30 6797 H 671.915 3.43283 1.87809 0
M  V30 6798 H 671.538 2.34945 3.20759 0
M  V30 6799 N 672.536 -0.895792 1.29666 0
M  V30 6800 C 673.764 -1.68001 1.20761 0
M  V30 6801 C 674.179 -1.87379 -0.231187 0
M  V30 6802 O 673.536 -1.41359 -1.15429 0
M  V30 6803 C 673.587 -3.06236 1.92098 0
M  V30 6804 O 673.308 -2.8774 3.30359 0
M  V30 6805 C 674.809 -4.00652 1.89717 0
M  V30 6806 H 672.029 -0.524591 0.418384 0
M  V30 6807 H 674.573 -1.11995 1.71106 0
M  V30 6808 H 672.728 -3.59007 1.45578 0
M  V30 6809 H 673.142 -3.75359 3.66342 0
M  V30 6810 H 674.616 -4.95051 2.44189 0
M  V30 6811 H 675.093 -4.30424 0.873595 0
M  V30 6812 H 675.699 -3.53815 2.35998 0
M  V30 6813 N 674.014 -1.12206 -1.10668 0
M  V30 6814 C 675.262 -0.874144 -1.82217 0
M  V30 6815 C 675.583 0.601736 -1.85484 0
M  V30 6816 O 674.853 1.43725 -1.33116 0
M  V30 6817 H 673.433 -0.320404 -0.674797 0
M  V30 6818 H 676.095 -1.41606 -1.33917 0
M  V30 6819 H 675.191 -1.25349 -2.85822 0
M  V30 6820 N 675.492 1.28418 -0.913599 0
M  V30 6821 C 676.422 2.29713 -0.418847 0
M  V30 6822 C 677.403 1.62165 0.513469 0
M  V30 6823 O 678.588 1.89576 0.421235 0
M  V30 6824 C 675.718 3.45612 0.342042 0
M  V30 6825 C 674.672 4.25056 -0.501123 0
M  V30 6826 C 673.998 5.3329 0.388097 0
M  V30 6827 C 675.298 4.91814 -1.75831 0
M  V30 6828 H 676.992 2.71346 -1.26538 0
M  V30 6829 H 674.538 1.30446 -0.609903 0
M  V30 6830 H 676.491 4.15562 0.699 0
M  V30 6831 H 675.215 3.02858 1.22248 0
M  V30 6832 H 673.874 3.56833 -0.840598 0
M  V30 6833 H 673.522 4.8678 1.26707 0
M  V30 6834 H 673.222 5.87347 -0.172459 0
M  V30 6835 H 674.746 6.06088 0.74094 0
M  V30 6836 H 676.16 5.54126 -1.47026 0
M  V30 6837 H 674.557 5.55866 -2.26126 0
M  V30 6838 H 675.627 4.16313 -2.4862 0
M  V30 6839 N 676.97 0.677563 1.42291 0
M  V30 6840 C 678.217 0.200975 2.015 0
M  V30 6841 C 678.545 -1.19342 1.53583 0
M  V30 6842 O 677.8 -1.81579 0.7299 0
M  V30 6843 C 678.099 0.187229 3.56909 0
M  V30 6844 C 677.765 1.52667 4.24268 0
M  V30 6845 C 676.427 1.89341 4.42384 0
M  V30 6846 C 678.779 2.40869 4.62203 0
M  V30 6847 C 676.107 3.13836 4.95705 0
M  V30 6848 C 678.459 3.64679 5.16906 0
M  V30 6849 C 677.123 4.01519 5.33234 0
M  V30 6850 H 676.393 0.0735418 0.737342 0
M  V30 6851 H 679.04 0.873095 1.70439 0
M  V30 6852 H 677.345 -0.568407 3.87655 0
M  V30 6853 H 679.042 -0.198773 4.00507 0
M  V30 6854 H 675.632 1.23138 4.1053 0
M  V30 6855 H 679.816 2.1382 4.47878 0
M  V30 6856 H 675.072 3.42396 5.06532 0
M  V30 6857 H 679.246 4.33224 5.45243 0
M  V30 6858 H 676.873 4.98062 5.74316 0
M  V30 6859 N 678.448 -1.51871 0.421078 0
M  V30 6860 C 679.676 -2.06356 -0.14994 0
M  V30 6861 C 680.091 -1.29006 -1.37851 0
M  V30 6862 O 679.448 -0.345139 -1.79207 0
M  V30 6863 C 679.499 -3.58185 -0.488454 0
M  V30 6864 O 679.22 -4.32611 0.691341 0
M  V30 6865 C 680.721 -4.29129 -1.11191 0
M  V30 6866 H 677.941 -0.67083 -0.0151186 0
M  V30 6867 H 680.485 -1.95638 0.595476 0
M  V30 6868 H 678.64 -3.68871 -1.18376 0
M  V30 6869 H 679.054 -5.22927 0.405906 0
M  V30 6870 H 680.528 -5.36501 -1.29889 0
M  V30 6871 H 681.005 -3.86371 -2.0884 0
M  V30 6872 H 681.611 -4.22843 -0.456458 0
M  V30 6873 N 679.926 -0.151884 -1.56866 0
M  V30 6874 C 681.337 0.368128 -1.83035 0
M  V30 6875 C 681.688 1.64402 -1.07082 0
M  V30 6876 O 680.813 2.14056 -0.317647 0
M  V30 6877 C 681.408 0.674676 -3.32014 0
M  V30 6878 C 679.967 1.13919 -3.58747 0
M  V30 6879 C 679.114 0.164833 -2.7681 0
M  V30 6880 H 682.065 -0.376499 -1.54169 0
M  V30 6881 H 682.086 1.52883 -3.48435 0
M  V30 6882 H 681.598 -0.254113 -3.87267 0
M  V30 6883 H 679.699 2.08375 -3.08886 0
M  V30 6884 H 679.812 1.06179 -4.67186 0
M  V30 6885 H 678.176 0.658419 -2.46043 0
M  V30 6886 H 678.959 -0.757633 -3.34836 0
M  V30 6887 N 681.404 1.57128 0.121893 0
M  V30 6888 C 682.367 1.99197 1.13372 0
M  V30 6889 C 683.367 0.881728 1.3447 0
M  V30 6890 O 684.557 1.14783 1.31036 0
M  V30 6891 C 681.689 2.32963 2.4888 0
M  V30 6892 H 682.882 2.89788 0.772204 0
M  V30 6893 H 680.435 1.51952 0.366093 0
M  V30 6894 H 681.17 1.45243 2.89957 0
M  V30 6895 H 680.955 3.13934 2.34921 0
M  V30 6896 H 682.445 2.66261 3.21706 0
M  V30 6897 N 682.882 -0.391992 1.52647 0
M  V30 6898 C 683.792 -1.503 1.80131 0
M  V30 6899 C 684.808 -1.59825 0.687882 0
M  V30 6900 O 685.984 -1.76218 0.975149 0
M  V30 6901 C 683.049 -2.85863 1.96171 0
M  V30 6902 C 682.11 -2.86084 3.20085 0
M  V30 6903 C 681.343 -4.15181 3.35351 0
M  V30 6904 O 681.566 -5.09981 2.55491 0
M  V30 6905 O 680.5 -4.22603 4.28591 0
M  V30 6906 H 684.326 -1.30007 2.74466 0
M  V30 6907 H 681.911 -0.579539 1.37701 0
M  V30 6908 H 683.793 -3.66236 2.08445 0
M  V30 6909 H 682.468 -3.06189 1.05025 0
M  V30 6910 H 681.375 -2.04504 3.13256 0
M  V30 6911 H 682.708 -2.7071 4.11068 0
M  V30 6912 N 684.36 -1.4356 -0.65026 0
M  V30 6913 C 685.323 -1.48615 -1.74489 0
M  V30 6914 C 686.323 -0.370483 -1.56474 0
M  V30 6915 O 687.513 -0.632351 -1.62317 0
M  V30 6916 C 684.645 -1.34161 -3.13391 0
M  V30 6917 H 685.838 -2.46103 -1.71387 0
M  V30 6918 H 683.391 -1.30369 -0.862186 0
M  V30 6919 H 684.126 -0.376918 -3.22102 0
M  V30 6920 H 683.911 -2.1504 -3.27872 0
M  V30 6921 H 685.401 -1.40637 -3.93206 0
M  V30 6922 N 685.838 0.888903 -1.30139 0
M  V30 6923 C 687.086 1.63713 -1.18501 0
M  V30 6924 C 687.407 1.9324 0.261399 0
M  V30 6925 O 686.677 1.56608 1.17689 0
M  V30 6926 H 685.257 0.606861 -0.435579 0
M  V30 6927 H 687.919 1.06525 -1.63213 0
M  V30 6928 H 687.015 2.58894 -1.743 0
M  V30 6929 N 687.317 1.12792 1.10072 0
M  V30 6930 C 688.728 0.899346 1.63611 0
M  V30 6931 C 689.079 -0.565547 1.87872 0
M  V30 6932 O 688.204 -1.43081 1.62348 0
M  V30 6933 C 688.799 1.62608 2.97227 0
M  V30 6934 C 687.358 1.44356 3.47618 0
M  V30 6935 C 686.505 1.65958 2.22156 0
M  V30 6936 H 689.456 1.28216 0.935223 0
M  V30 6937 H 689.477 1.0793 3.64872 0
M  V30 6938 H 688.989 2.69221 2.79538 0
M  V30 6939 H 687.09 0.400148 3.70445 0
M  V30 6940 H 687.203 2.20218 4.25489 0
M  V30 6941 H 685.567 1.08395 2.30484 0
M  V30 6942 H 686.35 2.73877 2.06993 0
M  V30 6943 N 688.795 -1.27931 0.920396 0
M  V30 6944 C 689.743 -2.29061 0.404191 0
M  V30 6945 C 690.737 -1.61615 -0.507634 0
M  V30 6946 O 691.943 -1.75765 -0.388144 0
M  V30 6947 H 688.318 -0.743594 0.112123 0
M  V30 6948 H 690.289 -2.70021 1.27008 0
M  V30 6949 C 689.038 -3.46088 -0.334466 0
M  V30 6950 H 688.361 -3.98194 0.35797 0
M  V30 6951 H 689.801 -4.18829 -0.660196 0
M  V30 6952 C 688.26 -2.99396 -1.54479 0
M  V30 6953 O 688.79 -3.02439 -2.64374 0
M  V30 6954 N 686.996 -2.54978 -1.39408 0
M  V30 6955 H 686.543 -2.52701 -0.500009 0
M  V30 6956 H 686.501 -2.24098 -2.20516 0
M  V30 6957 N 690.273 -0.685099 -1.4193 0
M  V30 6958 C 691.684 -0.287699 -1.8447 0
M  V30 6959 C 692.035 1.17215 -1.57338 0
M  V30 6960 O 691.16 1.89856 -1.03845 0
M  V30 6961 C 691.755 -0.515385 -3.34857 0
M  V30 6962 C 690.314 -0.172006 -3.76007 0
M  V30 6963 C 689.461 -0.802808 -2.65425 0
M  V30 6964 H 692.412 -0.88652 -1.3163 0
M  V30 6965 H 692.433 0.229251 -3.79809 0
M  V30 6966 H 691.945 -1.57796 -3.54573 0
M  V30 6967 H 690.046 0.886716 -3.61895 0
M  V30 6968 H 690.159 -0.619717 -4.75075 0
M  V30 6969 H 688.523 -0.233267 -2.5363 0
M  V30 6970 H 689.306 -1.86904 -2.87961 0
M  V30 6971 N 691.751 1.51645 -0.429126 0
M  V30 6972 C 692.661 2.31288 0.392809 0
M  V30 6973 C 693.677 1.39852 1.03525 0
M  V30 6974 O 694.853 1.72926 1.03241 0
M  V30 6975 C 691.918 3.13347 1.48372 0
M  V30 6976 C 690.979 4.20551 0.862268 0
M  V30 6977 C 690.212 4.98688 1.9012 0
M  V30 6978 O 690.435 4.77359 3.12225 0
M  V30 6979 O 689.369 5.83005 1.4963 0
M  V30 6980 H 693.195 3.02609 -0.257138 0
M  V30 6981 H 690.78 1.48163 -0.191851 0
M  V30 6982 H 692.662 3.64387 2.1166 0
M  V30 6983 H 691.337 2.44799 2.1179 0
M  V30 6984 H 690.244 3.73609 0.191568 0
M  V30 6985 H 691.577 4.91449 0.271704 0
M  V30 6986 N 693.229 0.160201 1.56784 0
M  V30 6987 C 694.645 -0.196089 1.58391 0
M  V30 6988 C 694.845 -1.63689 1.17508 0
M  V30 6989 O 693.901 -2.36613 0.881506 0
M  V30 6990 C 695.214 0.0746449 3.00607 0
M  V30 6991 C 696.762 0.0119762 3.12998 0
M  V30 6992 C 697.237 0.255551 4.57286 0
M  V30 6993 N 698.728 0.202938 4.62755 0
M  V30 6994 C 699.463 0.365731 5.72232 0
M  V30 6995 N 698.959 0.586972 6.90309 0
M  V30 6996 N 700.752 0.302411 5.61286 0
M  V30 6997 H 692.903 1.1008 1.81648 0
M  V30 6998 H 695.166 0.436779 0.841384 0
M  V30 6999 H 694.872 1.07231 3.34954 0
M  V30 7000 H 694.746 -0.638802 3.71751 0
M  V30 7001 H 697.133 -0.976254 2.78484 0
M  V30 7002 H 697.214 0.75796 2.44313 0
M  V30 7003 H 696.858 1.24094 4.92507 0
M  V30 7004 H 696.788 -0.510912 5.24116 0
M  V30 7005 H 699.279 0.0371328 3.77882 0
M  V30 7006 H 699.592 0.700941 7.69615 0
M  V30 7007 H 697.937 0.623453 6.92198 0
M  V30 7008 H 701.128 0.130238 4.67919 0
M  V30 7009 H 701.301 0.432712 6.46554 0
M  V30 7010 N 694.707 -1.5719 -0.113559 0
M  V30 7011 C 696.118 -1.74259 -0.670116 0
M  V30 7012 C 696.469 -0.779694 -1.80042 0
M  V30 7013 O 695.594 0.0461353 -2.16351 0
M  V30 7014 C 696.189 -3.15981 -1.22236 0
M  V30 7015 C 694.748 -3.34537 -1.72516 0
M  V30 7016 C 693.895 -2.70116 -0.627098 0
M  V30 7017 H 696.846 -1.58301 0.112396 0
M  V30 7018 H 696.867 -3.17832 -2.09197 0
M  V30 7019 H 696.379 -3.86038 -0.39949 0
M  V30 7020 H 694.48 -2.6953 -2.57263 0
M  V30 7021 H 694.593 -4.42737 -1.83086 0
M  V30 7022 H 692.957 -2.31501 -1.06204 0
M  V30 7023 H 693.74 -3.42802 0.184889 0
M  V30 7024 N 696.185 0.383891 -1.52853 0
M  V30 7025 C 697.118 1.49105 -1.72751 0
M  V30 7026 C 698.096 1.52077 -0.575438 0
M  V30 7027 O 699.28 1.70406 -0.805854 0
M  V30 7028 C 696.407 2.87551 -1.78975 0
M  V30 7029 C 695.453 3.02383 -3.00777 0
M  V30 7030 S 696.286 2.73048 -4.60657 0
M  V30 7031 C 697.442 4.13678 -4.69704 0
M  V30 7032 H 697.675 1.32002 -2.66388 0
M  V30 7033 H 695.208 0.577088 -1.4321 0
M  V30 7034 H 697.166 3.6733 -1.83246 0
M  V30 7035 H 695.827 3.01977 -0.864215 0
M  V30 7036 H 695.02 4.03733 -3.01688 0
M  V30 7037 H 694.622 2.30504 -2.94523 0
M  V30 7038 H 696.914 5.07676 -4.48633 0
M  V30 7039 H 697.857 4.1778 -5.71721 0
M  V30 7040 H 698.265 3.99825 -3.98497 0
M  V30 7041 N 697.663 1.43903 0.642637 0
M  V30 7042 C 698.595 1.45857 1.768 0
M  V30 7043 C 699.608 0.353358 1.58919 0
M  V30 7044 O 700.797 0.618426 1.67445 0
M  V30 7045 C 697.897 1.26583 3.14372 0
M  V30 7046 C 697.07 2.50139 3.58817 0
M  V30 7047 C 696.129 2.25933 4.75227 0
M  V30 7048 O 695.155 2.99351 4.84125 0
M  V30 7049 N 696.357 1.28263 5.66153 0
M  V30 7050 H 699.122 2.42869 1.75598 0
M  V30 7051 H 696.683 1.39194 0.826832 0
M  V30 7052 H 698.675 1.08255 3.89953 0
M  V30 7053 H 697.245 0.37978 3.10284 0
M  V30 7054 H 696.465 2.83821 2.73568 0
M  V30 7055 H 697.753 3.32344 3.8526 0
M  V30 7056 H 697.151 0.676041 5.61646 0
M  V30 7057 H 695.708 1.15916 6.4141 0
M  V30 7058 N 699.141 -0.881989 1.30609 0
M  V30 7059 C 700.369 -1.66711 1.22536 0
M  V30 7060 C 700.784 -1.87614 -0.2113 0
M  V30 7061 O 700.141 -1.42576 -1.13923 0
M  V30 7062 C 700.192 -3.04182 1.95335 0
M  V30 7063 O 699.913 -2.8422 3.33393 0
M  V30 7064 C 701.414 -3.98617 1.93956 0
M  V30 7065 H 698.634 -0.520124 0.423925 0
M  V30 7066 H 701.178 -1.10174 1.72285 0
M  V30 7067 H 699.333 -3.57442 1.49378 0
M  V30 7068 H 699.747 -3.71452 3.70302 0
M  V30 7069 H 701.221 -4.92433 2.49426 0
M  V30 7070 H 701.698 -4.29473 0.919198 0
M  V30 7071 H 702.304 -3.51292 2.39738 0
M  V30 7072 N 700.619 -1.13374 -1.09472 0
M  V30 7073 C 701.567 -0.806105 -2.18185 0
M  V30 7074 C 702.561 0.21136 -1.68076 0
M  V30 7075 O 703.767 0.0685558 -1.79869 0
M  V30 7076 H 700.142 -0.242901 -0.71169 0
M  V30 7077 H 702.113 -1.73115 -2.43051 0
M  V30 7078 C 700.862 -0.287928 -3.46506 0
M  V30 7079 H 700.185 -1.06217 -3.85432 0
M  V30 7080 H 701.625 -0.0971054 -4.23889 0
M  V30 7081 C 700.084 0.986256 -3.22141 0
M  V30 7082 O 700.614 2.06217 -3.44728 0
M  V30 7083 N 698.82 0.917153 -2.75747 0
M  V30 7084 H 698.367 0.0414609 -2.57567 0
M  V30 7085 H 698.325 1.77029 -2.59823 0
M  V30 7086 N 702.098 1.27442 -0.927168 0
M  V30 7087 C 703.046 2.28844 -0.416333 0
M  V30 7088 C 704.04 1.61882 0.499057 0
M  V30 7089 O 705.246 1.75969 0.378817 0
M  V30 7090 H 701.621 0.742989 -0.116065 0
M  V30 7091 H 703.592 2.69344 -1.28438 0
M  V30 7092 C 702.341 3.4626 0.316107 0
M  V30 7093 H 701.664 3.97999 -0.379082 0
M  V30 7094 H 703.104 4.19173 0.637975 0
M  V30 7095 C 701.563 3.00211 1.5289 0
M  V30 7096 O 702.093 3.03837 2.62766 0
M  V30 7097 N 700.299 2.55713 1.38054 0
M  V30 7098 H 699.846 2.52962 0.4866 0
M  V30 7099 H 699.804 2.25264 2.19325 0
M  V30 7100 N 703.576 0.692616 1.41565 0
M  V30 7101 C 704.539 0.0344174 2.29174 0
M  V30 7102 C 705.539 -0.710961 1.44229 0
M  V30 7103 O 706.729 -0.546293 1.65412 0
M  V30 7104 C 703.861 -0.961682 3.27054 0
M  V30 7105 H 705.054 0.805755 2.88873 0
M  V30 7106 H 702.607 0.455947 1.49502 0
M  V30 7107 H 703.342 -1.76089 2.72329 0
M  V30 7108 H 703.127 -0.430375 3.89731 0
M  V30 7109 H 704.617 -1.4201 3.92712 0
M  V30 7110 N 705.054 -1.51416 0.437162 0
M  V30 7111 C 706.302 -2.01687 -0.129108 0
M  V30 7112 C 706.623 -1.32329 -1.43227 0
M  V30 7113 O 705.893 -0.457796 -1.90476 0
M  V30 7114 H 704.473 -0.745277 -0.0507023 0
M  V30 7115 H 707.135 -1.86075 0.579828 0
M  V30 7116 H 706.231 -3.10605 -0.305141 0
M  V30 7117 N 706.532 -0.168513 -1.56696 0
M  V30 7118 C 707.48 0.779791 -2.19139 0
M  V30 7119 C 708.474 1.23957 -1.1546 0
M  V30 7120 O 709.68 1.20555 -1.33666 0
M  V30 7121 H 706.055 0.269739 -0.701958 0
M  V30 7122 H 708.026 0.229156 -2.97519 0
M  V30 7123 C 706.775 2.00003 -2.84419 0
M  V30 7124 H 706.098 1.65527 -3.63924 0
M  V30 7125 H 707.538 2.64251 -3.31583 0
M  V30 7126 C 705.997 2.82187 -1.84044 0
M  V30 7127 O 706.527 3.79247 -1.32418 0
M  V30 7128 N 704.733 2.47145 -1.52864 0
M  V30 7129 H 704.28 1.68277 -1.9504 0
M  V30 7130 H 704.238 3.02422 -0.859569 0
M  V30 7131 N 708.01 1.57248 0.105221 0
M  V30 7132 C 708.94 2.04374 1.12931 0
M  V30 7133 C 709.921 0.93074 1.42377 0
M  V30 7134 O 711.106 1.20136 1.52581 0
M  V30 7135 C 708.236 2.45967 2.45189 0
M  V30 7136 C 707.19 3.60838 2.30174 0
M  V30 7137 C 706.516 3.88374 3.67518 0
M  V30 7138 C 707.816 4.92084 1.75073 0
M  V30 7139 H 709.51 2.9018 0.737287 0
M  V30 7140 H 707.056 1.39601 0.353211 0
M  V30 7141 H 709.009 2.77542 3.17094 0
M  V30 7142 H 707.733 1.57148 2.86308 0
M  V30 7143 H 706.392 3.29493 1.60716 0
M  V30 7144 H 706.04 2.96739 4.06147 0
M  V30 7145 H 705.74 4.65703 3.58321 0
M  V30 7146 H 707.264 4.22415 4.40906 0
M  V30 7147 H 708.678 5.22106 2.36809 0
M  V30 7148 H 707.075 5.73507 1.76662 0
M  V30 7149 H 708.145 4.79684 0.709347 0
M  V30 7150 N 709.488 -0.375779 1.53054 0
M  V30 7151 C 710.435 -1.45978 1.78771 0
M  V30 7152 C 711.405 -1.53625 0.631552 0
M  V30 7153 O 712.59 -1.69674 0.872667 0
M  V30 7154 C 709.73 -2.8305 1.97425 0
M  V30 7155 C 708.843 -2.84451 3.25134 0
M  V30 7156 C 707.978 -4.13034 3.34031 0
M  V30 7157 C 707.017 -4.08536 4.55812 0
M  V30 7158 N 706.154 -5.2875 4.61918 0
M  V30 7159 H 710.994 -1.23349 2.71273 0
M  V30 7160 H 708.531 -0.598147 1.3439 0
M  V30 7161 H 710.489 -3.62666 2.06225 0
M  V30 7162 H 709.119 -3.04101 1.0827 0
M  V30 7163 H 708.171 -1.97127 3.25338 0
M  V30 7164 H 709.483 -2.76998 4.14818 0
M  V30 7165 H 708.637 -5.0106 3.42087 0
M  V30 7166 H 707.376 -4.23226 2.42345 0
M  V30 7167 H 706.381 -3.18897 4.47867 0
M  V30 7168 H 707.606 -3.99955 5.48828 0
M  V30 7169 H 705.552 -5.39547 3.73129 0
M  V30 7170 H 705.469 -5.23426 5.45492 0
M  V30 7171 H 706.737 -6.18637 4.74245 0
M  V30 7172 N 710.966 -1.44241 -0.634997 0
M  V30 7173 C 712.212 -1.47038 -1.39669 0
M  V30 7174 C 712.545 -0.101122 -1.93937 0
M  V30 7175 O 711.82 0.880699 -1.73418 0
M  V30 7176 C 712.103 -2.52763 -2.56482 0
M  V30 7177 C 711.956 -3.99032 -2.07589 0
M  V30 7178 C 713.275 -2.55031 -3.58674 0
M  V30 7179 H 710.394 -0.53537 -0.506506 0
M  V30 7180 H 713.036 -1.75898 -0.718317 0
M  V30 7181 H 711.186 -2.28284 -3.14354 0
M  V30 7182 H 712.858 -4.3463 -1.54577 0
M  V30 7183 H 711.101 -4.10994 -1.38804 0
M  V30 7184 H 711.772 -4.68649 -2.91671 0
M  V30 7185 H 714.248 -2.76893 -3.10595 0
M  V30 7186 H 713.124 -3.30916 -4.37934 0
M  V30 7187 H 713.385 -1.59085 -4.12486 0
M  V30 7188 N 712.444 0.87505 -1.31075 0
M  V30 7189 C 713.693 1.62245 -1.19831 0
M  V30 7190 C 714.006 1.94078 0.24357 0
M  V30 7191 O 715.212 2.67265 0.477646 0
M  V30 7192 C 713.668 2.92464 -2.09744 0
M  V30 7193 C 713.276 2.68134 -3.58898 0
M  V30 7194 C 715.02 3.70449 -2.07287 0
M  V30 7195 C 712.927 3.9423 -4.40836 0
M  V30 7196 H 711.857 0.608741 -0.444916 0
M  V30 7197 H 714.508 0.967947 -1.55894 0
M  V30 7198 H 712.89 3.59262 -1.66574 0
M  V30 7199 H 714.064 2.09776 -4.10281 0
M  V30 7200 H 712.379 2.03511 -3.6328 0
M  V30 7201 H 714.976 4.63983 -2.65752 0
M  V30 7202 H 715.319 4.02611 -1.05876 0
M  V30 7203 H 715.852 3.10528 -2.48631 0
M  V30 7204 H 712.591 3.67221 -5.42982 0
M  V30 7205 H 712.111 4.52058 -3.94213 0
M  V30 7206 H 713.79 4.62162 -4.52786 0
M  V30 7207 N 713.922 1.13953 1.08869 0
M  V30 7208 C 714.885 0.824991 2.13838 0
M  V30 7209 C 715.885 -0.168198 1.59918 0
M  V30 7210 O 717.075 0.0595778 1.74098 0
M  V30 7211 C 714.207 0.228938 3.4013 0
M  V30 7212 H 715.4 1.75521 2.43171 0
M  V30 7213 H 712.953 0.94492 1.24503 0
M  V30 7214 H 713.688 -0.710227 3.16427 0
M  V30 7215 H 713.473 0.944243 3.80561 0
M  V30 7216 H 714.963 0.0259223 4.17592 0
M  V30 7217 N 715.4 -1.26948 0.933913 0
M  V30 7218 C 716.628 -1.98186 0.59414 0
M  V30 7219 C 717.043 -1.69614 -0.829257 0
M  V30 7220 O 716.4 -0.960213 -1.55197 0
M  V30 7221 C 716.451 -3.52123 0.818026 0
M  V30 7222 O 716.172 -3.79698 2.18543 0
M  V30 7223 C 717.673 -4.40608 0.48781 0
M  V30 7224 H 714.893 -0.632305 0.224569 0
M  V30 7225 H 717.437 -1.61646 1.25263 0
M  V30 7226 H 715.592 -3.86851 0.206246 0
M  V30 7227 H 716.006 -4.7426 2.24005 0
M  V30 7228 H 717.48 -5.47606 0.695126 0
M  V30 7229 H 717.957 -4.35394 -0.576913 0
M  V30 7230 H 718.563 -4.11411 1.078 0
M  V30 7231 N 716.879 -0.700114 -1.41195 0
M  V30 7232 C 718.125 -0.233351 -2.01453 0
M  V30 7233 C 718.458 1.16548 -1.55339 0
M  V30 7234 O 717.733 1.78756 -0.766575 0
M  V30 7235 C 718.016 -0.2961 -3.58881 0
M  V30 7236 C 717.869 -1.7322 -4.15108 0
M  V30 7237 C 719.188 0.341525 -4.38773 0
M  V30 7238 H 716.307 -0.0862667 -0.731934 0
M  V30 7239 H 718.949 -0.889693 -1.67882 0
M  V30 7240 H 717.099 0.262736 -3.87611 0
M  V30 7241 H 718.771 -2.34523 -3.97236 0
M  V30 7242 H 717.014 -2.2649 -3.69979 0
M  V30 7243 H 717.685 -1.7276 -5.24269 0
M  V30 7244 H 720.161 -0.134461 -4.15883 0
M  V30 7245 H 719.037 0.267098 -5.4825 0
M  V30 7246 H 719.298 1.42289 -4.18577 0
M  V30 7247 N 718.357 1.51182 -0.445186 0
M  V30 7248 C 719.634 1.9478 0.178965 0
M  V30 7249 C 720.014 1.38428 1.59376 0
M  V30 7250 O 719.362 0.574552 2.21159 0
M  V30 7251 C 719.572 3.48683 0.148711 0
M  V30 7252 C 720.92 4.23152 0.35042 0
M  V30 7253 O 721.944 3.55479 0.226474 0
M  V30 7254 O 720.803 5.4322 0.597893 0
M  V30 7255 H 717.897 0.817387 0.12573 0
M  V30 7256 H 720.443 1.62051 -0.503729 0
M  V30 7257 H 719.215 3.82176 -0.84009 0
M  V30 7258 H 718.838 3.87875 0.873979 0
M  V30 7259 N 719.835 0.176821 1.56605 0
M  V30 7260 C 720.798 -0.737429 2.17013 0
M  V30 7261 C 721.798 -1.15414 1.11965 0
M  V30 7262 O 722.988 -1.0702 1.37449 0
M  V30 7263 C 720.12 -2.00445 2.75744 0
M  V30 7264 H 721.313 -0.211455 2.99154 0
M  V30 7265 H 718.866 -0.0727582 1.56131 0
M  V30 7266 H 719.601 -2.57338 1.97352 0
M  V30 7267 H 719.386 -1.71456 3.52626 0
M  V30 7268 H 720.876 -2.65679 3.22187 0
M  V30 7269 N 721.313 -1.57302 -0.09688 0
M  V30 7270 C 722.223 -2.05258 -1.13606 0
M  V30 7271 C 723.239 -0.977137 -1.43972 0
M  V30 7272 O 724.415 -1.29018 -1.54649 0
M  V30 7273 C 721.48 -2.46593 -2.43706 0
M  V30 7274 C 720.541 -3.68322 -2.20538 0
M  V30 7275 C 719.774 -4.07676 -3.44435 0
M  V30 7276 O 719.997 -3.47141 -4.52603 0
M  V30 7277 O 718.931 -5.00641 -3.34129 0
M  V30 7278 H 722.757 -2.94069 -0.758752 0
M  V30 7279 H 720.342 -1.46164 -0.309263 0
M  V30 7280 H 722.224 -2.73814 -3.20318 0
M  V30 7281 H 720.899 -1.6092 -2.80867 0
M  V30 7282 H 719.806 -3.4622 -1.41713 0
M  V30 7283 H 721.139 -4.54769 -1.88271 0
M  V30 7284 N 722.791 0.367657 -1.53252 0
M  V30 7285 C 724.039 1.10832 -1.68999 0
M  V30 7286 C 724.36 1.89894 -0.443306 0
M  V30 7287 O 723.63 1.88235 0.54262 0
M  V30 7288 H 722.21 0.412153 -0.623008 0
M  V30 7289 H 724.872 0.414775 -1.90435 0
M  V30 7290 H 723.968 1.7993 -2.55013 0
M  V30 7291 N 724.269 1.44576 0.627338 0
M  V30 7292 C 725.179 1.54232 1.76776 0
M  V30 7293 C 726.195 0.427782 1.6866 0
M  V30 7294 O 727.371 0.685671 1.89369 0
M  V30 7295 C 724.436 1.48738 3.13174 0
M  V30 7296 C 723.497 2.71074 3.32893 0
M  V30 7297 C 722.73 2.65832 4.62784 0
M  V30 7298 O 722.953 1.72048 5.43834 0
M  V30 7299 O 721.887 3.56742 4.84787 0
M  V30 7300 H 725.713 2.50586 1.71582 0
M  V30 7301 H 723.298 1.26865 0.789028 0
M  V30 7302 H 725.18 1.48211 3.94476 0
M  V30 7303 H 723.855 0.555292 3.18902 0
M  V30 7304 H 722.762 2.77168 2.51254 0
M  V30 7305 H 724.095 3.63342 3.32029 0
M  V30 7306 N 725.747 -0.868086 1.31537 0
M  V30 7307 C 727.158 -1.437 1.19195 0
M  V30 7308 C 727.509 -1.95169 -0.200842 0
M  V30 7309 O 726.634 -1.86432 -1.09872 0
M  V30 7310 C 727.229 -2.612 2.15778 0
M  V30 7311 C 725.788 -3.1413 2.07363 0
M  V30 7312 C 724.935 -1.86845 2.049 0
M  V30 7313 H 727.886 -0.676457 1.43561 0
M  V30 7314 H 727.907 -3.37948 1.74847 0
M  V30 7315 H 727.419 -2.23709 3.17137 0
M  V30 7316 H 725.52 -3.56238 1.09204 0
M  V30 7317 H 725.633 -3.76285 2.96557 0
M  V30 7318 H 723.997 -2.05886 1.49943 0
M  V30 7319 H 724.78 -1.51589 3.08019 0
M  V30 7320 N 727.225 -1.14528 -1.08264 0
M  V30 7321 C 728.155 -0.856356 -2.1723 0
M  V30 7322 C 729.136 0.189251 -1.69044 0
M  V30 7323 O 730.321 0.0456119 -1.94146 0
M  V30 7324 C 727.451 -0.334662 -3.45684 0
M  V30 7325 C 726.405 -1.31588 -4.0727 0
M  V30 7326 C 725.731 -0.653428 -5.30692 0
M  V30 7327 C 727.031 -2.67866 -4.48381 0
M  V30 7328 H 728.725 -1.76755 -2.41657 0
M  V30 7329 H 726.271 -0.851287 -1.16143 0
M  V30 7330 H 728.224 -0.120128 -4.21229 0
M  V30 7331 H 726.948 0.611967 -3.20815 0
M  V30 7332 H 725.607 -1.51661 -3.33758 0
M  V30 7333 H 725.255 0.299054 -5.0211 0
M  V30 7334 H 724.955 -1.30817 -5.72853 0
M  V30 7335 H 726.479 -0.448453 -6.08951 0
M  V30 7336 H 727.893 -2.51692 -5.15096 0
M  V30 7337 H 726.29 -3.29627 -5.01464 0
M  V30 7338 H 727.36 -3.24632 -3.60198 0
M  V30 7339 N 728.703 1.26451 -0.940633 0
M  V30 7340 C 729.928 1.98407 -0.60412 0
M  V30 7341 C 730.353 1.69584 0.81382 0
M  V30 7342 O 729.711 0.943553 1.54812 0
M  V30 7343 C 729.759 3.50387 -0.852136 0
M  V30 7344 O 728.863 4.1233 0.076013 0
M  V30 7345 H 728.204 0.622466 -0.231153 0
M  V30 7346 H 730.734 1.60932 -1.26342 0
M  V30 7347 H 730.744 4.00614 -0.772816 0
M  V30 7348 H 729.419 3.70696 -1.88566 0
M  V30 7349 H 727.996 3.7286 -0.0543187 0
M  V30 7350 N 730.181 0.707592 1.40822 0
M  V30 7351 C 731.144 0.0587224 2.29125 0
M  V30 7352 C 732.144 -0.695624 1.44975 0
M  V30 7353 O 733.334 -0.528718 1.65983 0
M  V30 7354 C 730.466 -0.926939 3.28056 0
M  V30 7355 H 731.659 0.836349 2.88002 0
M  V30 7356 H 729.212 0.471778 1.4901 0
M  V30 7357 H 729.947 -1.7319 2.74182 0
M  V30 7358 H 729.732 -0.389015 3.90165 0
M  V30 7359 H 731.222 -1.37837 3.94196 0
M  V30 7360 N 731.66 -1.50943 0.453197 0
M  V30 7361 C 732.57 -2.31884 -0.355963 0
M  V30 7362 C 733.586 -1.41481 -1.01287 0
M  V30 7363 O 734.762 -1.74546 -1.00477 0
M  V30 7364 C 731.827 -3.15668 -1.43369 0
M  V30 7365 C 730.888 -4.2187 -0.795253 0
M  V30 7366 C 730.121 -5.0165 -1.82162 0
M  V30 7367 O 730.344 -4.82266 -3.04592 0
M  V30 7368 O 729.278 -5.85311 -1.40336 0
M  V30 7369 H 733.104 -3.02162 0.305248 0
M  V30 7370 H 730.689 -1.47839 0.215398 0
M  V30 7371 H 732.571 -3.67709 -2.05836 0
M  V30 7372 H 731.246 -2.48137 -2.07869 0
M  V30 7373 H 730.153 -3.73867 -0.132106 0
M  V30 7374 H 731.486 -4.9182 -0.193484 0
M  V30 7375 N 733.138 -0.185124 -1.56509 0
M  V30 7376 C 734.101 0.72591 -2.17401 0
M  V30 7377 C 735.101 1.14819 -1.12575 0
M  V30 7378 O 736.291 1.0629 -1.38015 0
M  V30 7379 C 733.423 1.98979 -2.76803 0
M  V30 7380 H 734.616 0.195588 -2.99262 0
M  V30 7381 H 732.169 0.0644772 -1.56167 0
M  V30 7382 H 732.904 2.56287 -1.98714 0
M  V30 7383 H 732.689 1.69583 -3.53531 0
M  V30 7384 H 734.179 2.63966 -3.23592 0
M  V30 7385 N 734.616 1.57351 0.0885366 0
M  V30 7386 C 735.566 1.98963 1.11346 0
M  V30 7387 C 736.55 0.869065 1.35411 0
M  V30 7388 O 737.742 1.13292 1.35992 0
M  V30 7389 C 734.871 2.4231 2.43189 0
M  V30 7390 C 733.957 3.61065 2.22469 0
M  V30 7391 N 734.348 4.75789 1.71635 0
M  V30 7392 C 732.646 3.6729 2.5301 0
M  V30 7393 C 733.347 5.57708 1.65339 0
M  V30 7394 N 732.323 5.01067 2.1079 0
M  V30 7395 H 736.125 2.85109 0.713465 0
M  V30 7396 H 733.639 1.59682 0.295868 0
M  V30 7397 H 735.636 2.70352 3.17357 0
M  V30 7398 H 734.296 1.57544 2.83919 0
M  V30 7399 H 735.307 4.98411 1.40738 0
M  V30 7400 H 731.984 2.932 2.9722 0
M  V30 7401 H 733.374 6.59782 1.27031 0
M  V30 7402 N 736.094 -0.359525 1.53444 0
M  V30 7403 C 737.024 -1.44662 1.8329 0
M  V30 7404 C 738.005 -1.55617 0.68683 0
M  V30 7405 O 739.19 -1.70086 0.93725 0
M  V30 7406 C 736.32 -2.81923 2.02822 0
M  V30 7407 C 735.274 -2.85787 3.18606 0
M  V30 7408 C 734.6 -4.25781 3.23442 0
M  V30 7409 C 735.9 -2.52762 4.57065 0
M  V30 7410 H 737.594 -1.19934 2.74329 0
M  V30 7411 H 735.14 -0.575517 1.31999 0
M  V30 7412 H 737.093 -3.58005 2.22285 0
M  V30 7413 H 735.817 -3.08051 1.085 0
M  V30 7414 H 734.476 -2.12157 2.98973 0
M  V30 7415 H 734.124 -4.48994 2.26745 0
M  V30 7416 H 733.824 -4.29281 4.01238 0
M  V30 7417 H 735.348 -5.03727 3.45096 0
M  V30 7418 H 736.762 -3.18557 4.76649 0
M  V30 7419 H 735.159 -2.67569 5.37147 0
M  V30 7420 H 736.229 -1.47993 4.61764 0
M  V30 7421 N 737.572 -1.44907 -0.619662 0
M  V30 7422 C 738.802 -1.51575 -1.40387 0
M  V30 7423 C 739.21 -0.14309 -1.88658 0
M  V30 7424 O 738.553 0.863403 -1.62145 0
M  V30 7425 C 738.615 -2.42858 -2.65067 0
M  V30 7426 C 738.279 -3.8982 -2.38515 0
M  V30 7427 C 739.276 -4.80047 -1.99627 0
M  V30 7428 C 736.961 -4.34628 -2.51801 0
M  V30 7429 C 738.955 -6.13086 -1.74369 0
M  V30 7430 C 736.642 -5.67712 -2.26156 0
M  V30 7431 C 737.64 -6.56759 -1.875 0
M  V30 7432 O 737.328 -7.87377 -1.62148 0
M  V30 7433 H 737.06 -0.51612 -0.436573 0
M  V30 7434 H 739.614 -1.90664 -0.763959 0
M  V30 7435 H 737.844 -1.98717 -3.31735 0
M  V30 7436 H 739.533 -2.40346 -3.27091 0
M  V30 7437 H 740.299 -4.46697 -1.8891 0
M  V30 7438 H 736.178 -3.65568 -2.80857 0
M  V30 7439 H 739.722 -6.8255 -1.44122 0
M  V30 7440 H 735.619 -6.0062 -2.36486 0
M  V30 7441 H 736.387 -7.99288 -1.763 0
M  V30 7442 N 739.05 0.861098 -1.31996 0
M  V30 7443 C 740.013 1.95068 -1.20338 0
M  V30 7444 C 741.013 1.60289 -0.128114 0
M  V30 7445 O 742.203 1.70048 -0.378044 0
M  V30 7446 C 739.335 3.30153 -0.849205 0
M  V30 7447 H 740.528 2.06833 -2.17164 0
M  V30 7448 H 738.081 1.05049 -1.15734 0
M  V30 7449 H 738.816 3.24087 0.117508 0
M  V30 7450 H 738.601 3.56771 -1.62655 0
M  V30 7451 H 740.091 4.10025 -0.791782 0
M  V30 7452 N 740.528 1.15101 1.07655 0
M  V30 7453 C 741.756 0.947731 1.83918 0
M  V30 7454 C 742.171 -0.503927 1.81951 0
M  V30 7455 O 741.528 -1.34941 1.2287 0
M  V30 7456 C 741.579 1.4503 3.31132 0
M  V30 7457 O 741.3 2.84508 3.33146 0
M  V30 7458 C 742.801 1.28806 4.24174 0
M  V30 7459 H 740.021 0.336786 0.580358 0
M  V30 7460 H 742.565 1.52799 1.35914 0
M  V30 7461 H 740.72 0.912632 3.76497 0
M  V30 7462 H 741.134 3.0723 4.251 0
M  V30 7463 H 742.608 1.6882 5.25551 0
M  V30 7464 H 743.085 0.231851 4.38588 0
M  V30 7465 H 743.691 1.81465 3.84643 0
M  V30 7466 N 742.006 -1.2595 0.947325 0
M  V30 7467 C 743.252 -1.9375 0.599064 0
M  V30 7468 C 743.585 -1.74088 -0.860632 0
M  V30 7469 O 742.86 -1.08158 -1.61654 0
M  V30 7470 C 743.143 -3.47353 0.949634 0
M  V30 7471 C 742.996 -3.76273 2.46452 0
M  V30 7472 C 744.315 -4.37589 0.469442 0
M  V30 7473 H 741.434 -0.703674 0.219115 0
M  V30 7474 H 744.076 -1.48705 1.18266 0
M  V30 7475 H 742.226 -3.8585 0.453008 0
M  V30 7476 H 743.898 -3.47455 3.03435 0
M  V30 7477 H 742.141 -3.22135 2.90537 0
M  V30 7478 H 742.812 -4.83664 2.66032 0
M  V30 7479 H 745.288 -4.06353 0.89534 0
M  V30 7480 H 744.164 -5.43841 0.7435 0
M  V30 7481 H 744.425 -4.37579 -0.630618 0
M  V30 7482 N 743.484 -0.715051 -1.40445 0
M  V30 7483 C 744.416 -0.0227516 -2.29189 0
M  V30 7484 C 745.429 0.724313 -1.458 0
M  V30 7485 O 746.618 0.571781 -1.69094 0
M  V30 7486 C 743.718 0.992038 -3.24055 0
M  V30 7487 C 742.891 0.310613 -4.36296 0
M  V30 7488 C 741.95 1.23071 -5.11605 0
M  V30 7489 O 740.976 0.71571 -5.64682 0
M  V30 7490 N 742.178 2.56188 -5.2091 0
M  V30 7491 H 744.943 -0.78473 -2.89244 0
M  V30 7492 H 742.504 -0.562637 -1.51809 0
M  V30 7493 H 744.496 1.60973 -3.71308 0
M  V30 7494 H 743.066 1.65538 -2.65171 0
M  V30 7495 H 742.286 -0.487269 -3.91177 0
M  V30 7496 H 743.574 -0.162415 -5.08541 0
M  V30 7497 H 742.972 3.00527 -4.7927 0
M  V30 7498 H 741.529 3.13103 -5.71673 0
M  V30 7499 N 744.962 1.50701 -0.461195 0
M  V30 7500 C 746.378 1.59187 -0.114786 0
M  V30 7501 C 746.578 1.4702 1.37794 0
M  V30 7502 O 745.634 1.32361 2.15027 0
M  V30 7503 C 746.947 2.93453 -0.656167 0
M  V30 7504 C 748.495 3.06824 -0.618715 0
M  V30 7505 C 748.97 4.4365 -1.13747 0
M  V30 7506 N 750.461 4.50035 -1.09646 0
M  V30 7507 C 751.196 5.54278 -1.46846 0
M  V30 7508 N 750.692 6.65822 -1.91448 0
M  V30 7509 N 752.485 5.44767 -1.38512 0
M  V30 7510 H 744.636 1.56853 -1.43216 0
M  V30 7511 H 746.899 0.740712 -0.59165 0
M  V30 7512 H 746.605 3.07802 -1.7015 0
M  V30 7513 H 746.479 3.77082 -0.0942261 0
M  V30 7514 H 748.866 2.92129 0.417685 0
M  V30 7515 H 748.947 2.24976 -1.21734 0
M  V30 7516 H 748.591 4.59093 -2.17245 0
M  V30 7517 H 748.521 5.24074 -0.515153 0
M  V30 7518 H 751.012 3.69988 -0.769217 0
M  V30 7519 H 751.325 7.41413 -2.18007 0
M  V30 7520 H 749.67 6.66968 -1.95393 0
M  V30 7521 H 752.861 4.56511 -1.03516 0
M  V30 7522 H 753.034 6.25889 -1.6783 0
M  V30 7523 N 746.441 0.193421 1.56409 0
M  V30 7524 C 747.688 -0.445789 1.97532 0
M  V30 7525 C 748.016 -1.61744 1.08024 0
M  V30 7526 O 747.271 -1.95338 0.118982 0
M  V30 7527 C 747.57 -0.949718 3.44551 0
M  V30 7528 C 747.236 0.108383 4.5077 0
M  V30 7529 C 745.898 0.399126 4.79542 0
M  V30 7530 C 748.25 0.825423 5.14622 0
M  V30 7531 C 745.578 1.41192 5.69457 0
M  V30 7532 C 747.93 1.82735 6.05632 0
M  V30 7533 C 746.594 2.12531 6.32761 0
M  V30 7534 H 745.864 -0.163126 0.722822 0
M  V30 7535 H 748.511 0.290035 1.89291 0
M  V30 7536 H 746.816 -1.76378 3.49854 0
M  V30 7537 H 748.513 -1.45367 3.73724 0
M  V30 7538 H 745.103 -0.128392 4.28408 0
M  V30 7539 H 749.287 0.61403 4.92487 0
M  V30 7540 H 744.543 1.6487 5.88751 0
M  V30 7541 H 748.717 2.3882 6.5417 0
M  V30 7542 H 746.344 2.91155 7.02234 0
M  V30 7543 N 747.919 -1.57396 -0.0801906 0
M  V30 7544 C 749.165 -1.87113 -0.782083 0
M  V30 7545 C 749.498 -0.78458 -1.77646 0
M  V30 7546 O 748.773 0.205993 -1.93406 0
M  V30 7547 C 749.056 -3.27483 -1.49756 0
M  V30 7548 C 748.909 -4.46782 -0.520171 0
M  V30 7549 C 750.228 -3.65965 -2.44454 0
M  V30 7550 H 747.347 -0.680559 -0.282858 0
M  V30 7551 H 749.989 -1.89946 -0.0454139 0
M  V30 7552 H 748.139 -3.25199 -2.12551 0
M  V30 7553 H 749.811 -4.61187 0.101919 0
M  V30 7554 H 748.054 -4.33485 0.165219 0
M  V30 7555 H 748.725 -5.41761 -1.05824 0
M  V30 7556 H 751.201 -3.69289 -1.91742 0
M  V30 7557 H 750.077 -4.65086 -2.91524 0
M  V30 7558 H 750.338 -2.95446 -3.28883 0
M  V30 7559 N 749.397 0.351382 -1.53633 0
M  V30 7560 C 750.674 1.10903 -1.6112 0
M  V30 7561 C 751.054 2.06725 -0.427556 0
M  V30 7562 O 750.402 2.20992 0.580916 0
M  V30 7563 C 750.612 1.83561 -2.96827 0
M  V30 7564 C 751.96 2.37587 -3.51906 0
M  V30 7565 O 752.984 1.93669 -2.9895 0
M  V30 7566 O 751.843 3.17913 -4.44515 0
M  V30 7567 H 748.937 0.509558 -0.651368 0
M  V30 7568 H 751.483 0.353504 -1.65977 0
M  V30 7569 H 750.255 1.1371 -3.74414 0
M  V30 7570 H 749.878 2.6599 -2.95525 0
M  V30 7571 N 750.875 1.45233 0.611969 0
M  V30 7572 C 751.838 1.53189 1.70487 0
M  V30 7573 C 752.838 0.411839 1.55437 0
M  V30 7574 O 754.028 0.675164 1.60584 0
M  V30 7575 C 751.16 1.42422 3.09723 0
M  V30 7576 H 752.353 2.5056 1.64802 0
M  V30 7577 H 749.906 1.32609 0.827318 0
M  V30 7578 H 750.641 0.462185 3.2099 0
M  V30 7579 H 750.426 2.23658 3.22055 0
M  V30 7580 H 751.916 1.51012 3.89339 0
M  V30 7581 N 752.353 -0.854086 1.3245 0
M  V30 7582 C 753.764 -1.42427 1.20712 0
M  V30 7583 C 754.115 -1.95371 -0.18013 0
M  V30 7584 O 753.24 -1.87587 -1.07889 0
M  V30 7585 C 753.835 -2.58897 2.18536 0
M  V30 7586 C 752.394 -3.11913 2.10683 0
M  V30 7587 C 751.541 -1.84661 2.06871 0
M  V30 7588 H 754.492 -0.661192 1.4427 0
M  V30 7589 H 754.513 -3.36074 1.78422 0
M  V30 7590 H 754.025 -2.20333 3.19492 0
M  V30 7591 H 752.126 -3.55059 1.12977 0
M  V30 7592 H 752.239 -3.73119 3.00532 0
M  V30 7593 H 750.603 -2.04285 1.52118 0
M  V30 7594 H 751.386 -1.48314 3.09609 0
M  V30 7595 N 753.831 -1.1567 -1.07043 0
M  V30 7596 C 755.08 -0.928039 -1.79082 0
M  V30 7597 C 755.393 0.545968 -1.87826 0
M  V30 7598 O 756.599 0.892308 -2.56418 0
M  V30 7599 C 755.055 -1.61103 -3.21829 0
M  V30 7600 C 754.663 -3.12228 -3.21275 0
M  V30 7601 C 756.407 -1.46404 -3.98455 0
M  V30 7602 C 754.314 -3.733 -4.58695 0
M  V30 7603 H 753.244 -0.34357 -0.671175 0
M  V30 7604 H 755.895 -1.38718 -1.20123 0
M  V30 7605 H 754.277 -1.07958 -3.81 0
M  V30 7606 H 755.451 -3.72155 -2.71731 0
M  V30 7607 H 753.766 -3.26725 -2.58147 0
M  V30 7608 H 756.363 -1.8942 -5.00024 0
M  V30 7609 H 756.706 -0.41195 -4.14257 0
M  V30 7610 H 757.239 -1.96663 -3.45787 0
M  V30 7611 H 753.978 -4.78423 -4.48098 0
M  V30 7612 H 753.498 -3.18157 -5.08465 0
M  V30 7613 H 755.177 -3.7441 -5.27661 0
M  V30 7614 N 755.309 1.25446 -0.953992 0
M  V30 7615 C 756.725 1.4539 -0.658316 0
M  V30 7616 C 756.925 1.85607 0.784356 0
M  V30 7617 O 755.981 1.98568 1.55972 0
M  V30 7618 C 757.294 2.52643 -1.6307 0
M  V30 7619 C 758.842 2.66484 -1.64181 0
M  V30 7620 C 759.317 3.76921 -2.60182 0
M  V30 7621 N 760.808 3.84331 -2.58542 0
M  V30 7622 C 761.543 4.69271 -3.29503 0
M  V30 7623 N 761.039 5.58503 -4.09934 0
M  V30 7624 N 762.832 4.6323 -3.18393 0
M  V30 7625 H 754.983 0.976337 -1.8863 0
M  V30 7626 H 757.246 0.490343 -0.811337 0
M  V30 7627 H 756.952 2.29949 -2.66114 0
M  V30 7628 H 756.826 3.50547 -1.39271 0
M  V30 7629 H 759.213 2.88545 -0.618552 0
M  V30 7630 H 759.294 1.68982 -1.92038 0
M  V30 7631 H 758.938 3.55612 -3.62633 0
M  V30 7632 H 758.868 4.73906 -2.29609 0
M  V30 7633 H 761.359 3.20544 -2.0015 0
M  V30 7634 H 761.672 6.20241 -4.61 0
M  V30 7635 H 760.017 5.58214 -4.14032 0
M  V30 7636 H 763.208 3.92527 -2.5503 0
M  V30 7637 H 763.381 5.29204 -3.73961 0
M  V30 7638 O 756.826 0.86056 1.36662 0
M  V30 7639 H 757.517 0.45661 1.88241 0
M  V30 END ATOM
M  V30 BEGIN BOND
M  V30 END BOND
M  V30 END CTAB
M  END
$$$$
