drugbank_target|Q8VUS8 Quinohemoprotein amine dehydrogenase subunit gamma (DB08646)
 OpenBabel12092120513D

  0  0  0     0  0            999 V3000
M  V30 BEGIN CTAB
M  V30 COUNTS 1196 1216 0 0 0
M  V30 BEGIN ATOM
M  V30 1 H -0.908 1.98254 -0.117106 0
M  V30 2 N 0 1.576 0 0
M  V30 3 C 0.933 2.03868 1.02534 0
M  V30 4 C 1.911 0.928543 1.3348 0
M  V30 5 O 3.095 1.19667 1.45644 0
M  V30 6 C 0.222 2.43627 2.35294 0
M  V30 7 C -0.732 3.65373 2.2001 0
M  V30 8 S 0.101 5.13292 1.52614 0
M  V30 9 C 1.257 5.56322 2.86805 0
M  V30 10 H 1.49 2.90518 0.631377 0
M  V30 11 H -0.977 1.52953 0.210867 0
M  V30 12 H 0.981 2.67203 3.11629 0
M  V30 13 H -0.358 1.57376 2.7183 0
M  V30 14 H -1.165 3.90944 3.18086 0
M  V30 15 H -1.563 3.418 1.51819 0
M  V30 16 H 0.729 5.58782 3.83104 0
M  V30 17 H 1.672 6.56266 2.65933 0
M  V30 18 H 2.08 4.83886 2.90714 0
M  V30 19 N 1.4781 -0.272755 1.55222 0
M  V30 20 C 2.4261 -1.35705 1.88909 0
M  V30 21 C 3.4201 -1.5112 0.765456 0
M  V30 22 O 4.6261 -1.52901 0.949802 0
M  V30 23 H 1.0011 -0.453868 0.59959 0
M  V30 24 H 2.9721 -1.04544 2.79487 0
M  V30 25 C 1.7211 -2.71049 2.17779 0
M  V30 26 H 1.0441 -2.59979 3.03728 0
M  V30 27 H 2.4841 -3.45858 2.45272 0
M  V30 28 C 0.9431 -3.22165 0.985473 0
M  V30 29 O 1.4731 -4.01096 0.220233 0
M  V30 30 N -0.3209 -2.7985 0.783108 0
M  V30 31 H -0.7739 -2.15775 1.40708 0
M  V30 32 H -0.8159 -3.14397 -0.0130392 0
M  V30 33 N 2.9562 -1.48159 -0.537278 0
M  V30 34 C 3.9192 -1.61665 -1.62472 0
M  V30 35 C 4.9192 -0.490395 -1.5314 0
M  V30 36 O 6.1092 -0.755998 -1.5694 0
M  V30 37 C 3.2412 -1.57997 -3.02076 0
M  V30 38 H 4.4342 -2.58621 -1.51839 0
M  V30 39 H 1.9872 -1.36647 -0.758771 0
M  V30 40 H 2.7222 -0.624913 -3.18222 0
M  V30 41 H 2.5072 -2.39755 -3.10258 0
M  V30 42 H 3.9972 -1.70627 -3.81151 0
M  V30 43 N 4.4343 0.785586 -1.36625 0
M  V30 44 C 5.3643 1.91259 -1.33949 0
M  V30 45 C 6.3453 1.68795 -0.210325 0
M  V30 46 O 7.5303 1.89854 -0.408561 0
M  V30 47 C 4.6603 3.28339 -1.13186 0
M  V30 48 C 3.6143 3.65335 -2.22967 0
M  V30 49 C 2.9403 5.00806 -1.87342 0
M  V30 50 C 4.2403 3.7352 -3.65075 0
M  V30 51 H 5.9343 1.93755 -2.28253 0
M  V30 52 H 3.4803 0.930788 -1.09874 0
M  V30 53 H 5.4333 4.06804 -1.09948 0
M  V30 54 H 4.1573 3.2624 -0.153332 0
M  V30 55 H 2.8163 2.89169 -2.25337 0
M  V30 56 H 2.4643 4.95233 -0.880545 0
M  V30 57 H 2.1643 5.26529 -2.60846 0
M  V30 58 H 3.6883 5.81687 -1.85667 0
M  V30 59 H 5.1023 4.42168 -3.64911 0
M  V30 60 H 3.4993 4.10731 -4.37516 0
M  V30 61 H 4.5693 2.74527 -3.99703 0
M  V30 62 N 5.9124 1.20967 1.01018 0
M  V30 63 C 7.1584 1.02526 1.74975 0
M  V30 64 C 7.4914 -0.4408 1.89131 0
M  V30 65 O 6.7664 -1.32718 1.42184 0
M  V30 66 C 7.0494 1.71699 3.1653 0
M  V30 67 C 6.9024 3.25791 3.10129 0
M  V30 68 C 8.2214 1.45531 4.15342 0
M  V30 69 H 5.3404 0.373863 0.635134 0
M  V30 70 H 7.9824 1.49071 1.17805 0
M  V30 71 H 6.1324 1.32128 3.65341 0
M  V30 72 H 7.8044 3.74697 2.69072 0
M  V30 73 H 6.0474 3.56363 2.47362 0
M  V30 74 H 6.7184 3.69353 4.10222 0
M  V30 75 H 9.1944 1.79872 3.75213 0
M  V30 76 H 8.0704 1.96453 5.1254 0
M  V30 77 H 8.3314 0.384237 4.40427 0
M  V30 78 N 7.3905 -1.2043 1.01659 0
M  V30 79 C 8.6385 -1.89423 0.704522 0
M  V30 80 C 8.9595 -1.79231 -0.768197 0
M  V30 81 O 8.2295 -1.1947 -1.55254 0
M  V30 82 H 6.8095 -0.701178 0.257602 0
M  V30 83 H 9.4715 -1.4626 1.28818 0
M  V30 84 H 8.5675 -2.96052 0.987916 0
M  V30 85 N 8.8686 -0.792821 -1.36206 0
M  V30 86 C 10.1086 -0.372238 -2.00982 0
M  V30 87 C 10.4726 1.03749 -1.61555 0
M  V30 88 O 11.6736 1.55934 -2.18948 0
M  V30 89 C 9.9446 -0.534566 -3.5338 0
M  V30 90 S 11.5036 -0.202365 -4.38333 0
M  V30 91 H 8.3216 -0.142044 -0.696667 0
M  V30 92 H 10.9236 -1.03206 -1.66039 0
M  V30 93 H 9.6276 -1.5608 -3.79562 0
M  V30 94 H 9.1586 0.141065 -3.93147 0
M  V30 95 H 11.1736 0.994869 -4.86124 0
M  V30 96 N 10.3467 1.47872 -0.545128 0
M  V30 97 C 11.5747 2.06889 -0.021084 0
M  V30 98 C 11.9897 1.39955 1.2672 0
M  V30 99 O 11.3467 0.492036 1.75742 0
M  V30 100 C 11.3977 3.60996 0.190817 0
M  V30 101 O 11.1187 4.25419 -1.04644 0
M  V30 102 C 12.6197 4.36849 0.753521 0
M  V30 103 H 9.8397 0.669785 -0.0403635 0
M  V30 104 H 12.3837 1.90049 -0.755095 0
M  V30 105 H 10.5387 3.77391 0.87492 0
M  V30 106 H 10.9527 5.17785 -0.836611 0
M  V30 107 H 12.4267 5.45399 0.851139 0
M  V30 108 H 12.9037 4.02306 1.762 0
M  V30 109 H 13.5097 4.25169 0.105503 0
M  V30 110 N 11.8248 0.280983 1.55075 0
M  V30 111 C 13.0528 -0.337293 2.04132 0
M  V30 112 C 13.4678 -1.4903 1.15912 0
M  V30 113 O 12.8248 -1.81606 0.180459 0
M  V30 114 C 12.8758 -0.812706 3.52246 0
M  V30 115 O 12.5968 0.294387 4.3711 0
M  V30 116 C 14.0978 -1.4982 4.17216 0
M  V30 117 H 11.3178 -0.0761638 0.666663 0
M  V30 118 H 13.8618 0.414787 2.00249 0
M  V30 119 H 12.0168 -1.51486 3.56554 0
M  V30 120 H 12.4308 -0.0721325 5.2445 0
M  V30 121 H 13.9048 -1.7822 5.22438 0
M  V30 122 H 14.3818 -2.43168 3.65741 0
M  V30 123 H 14.9878 -0.839742 4.16927 0
M  V30 124 N 13.3029 -1.57598 0.00835791 0
M  V30 125 C 14.5279 -1.95617 -0.689103 0
M  V30 126 C 14.9529 -0.883753 -1.66046 0
M  V30 127 O 14.3109 0.157352 -1.80616 0
M  V30 128 C 14.3589 -3.32736 -1.38994 0
M  V30 129 O 13.4629 -3.27631 -2.50463 0
M  V30 130 H 12.8039 -0.638379 -0.182668 0
M  V30 131 H 15.3339 -2.045 0.064036 0
M  V30 132 H 15.3439 -3.68494 -1.75147 0
M  V30 133 H 14.0189 -4.1034 -0.677778 0
M  V30 134 H 12.5959 -3.03561 -2.16576 0
M  V30 135 N 14.781 0.264519 -1.55364 0
M  V30 136 C 16.028 0.994986 -1.7637 0
M  V30 137 C 16.356 1.85976 -0.5695 0
M  V30 138 O 15.611 1.90509 0.44776 0
M  V30 139 C 15.91 1.9004 -3.02687 0
M  V30 140 C 15.576 1.19243 -4.34847 0
M  V30 141 C 14.238 0.996709 -4.70764 0
M  V30 142 C 16.59 0.689296 -5.16622 0
M  V30 143 C 13.918 0.285261 -5.86006 0
M  V30 144 C 16.27 -0.00860079 -6.32599 0
M  V30 145 C 14.934 -0.215963 -6.67151 0
M  V30 146 H 14.204 0.364091 -0.645383 0
M  V30 147 H 16.851 0.266543 -1.89636 0
M  V30 148 H 15.156 2.69533 -2.84357 0
M  V30 149 H 16.853 2.46695 -3.16137 0
M  V30 150 H 13.443 1.3549 -4.06621 0
M  V30 151 H 17.627 0.828108 -4.89342 0
M  V30 152 H 12.883 0.113961 -6.11294 0
M  V30 153 H 17.057 -0.406186 -6.95214 0
M  V30 154 H 14.684 -0.769217 -7.56298 0
M  V30 155 N 16.2591 1.48442 0.529413 0
M  V30 156 C 17.5361 1.46978 1.29062 0
M  V30 157 C 17.9161 0.181769 2.10316 0
M  V30 158 O 17.2641 -0.836481 2.12639 0
M  V30 159 C 17.4741 2.7321 2.17157 0
M  V30 160 C 18.8221 3.21562 2.77278 0
M  V30 161 O 19.8461 2.74131 2.27444 0
M  V30 162 O 18.7051 4.04094 3.67927 0
M  V30 163 H 15.7991 0.587003 0.582543 0
M  V30 164 H 18.3451 1.60676 0.546021 0
M  V30 165 H 17.1171 3.58465 1.56903 0
M  V30 166 H 16.7401 2.62235 2.98862 0
M  V30 167 N 17.7372 -0.778329 1.37039 0
M  V30 168 C 19.1482 -1.35421 1.28523 0
M  V30 169 C 19.4992 -1.96075 -0.0700901 0
M  V30 170 O 18.6242 -1.93352 -0.971801 0
M  V30 171 C 19.2192 -2.46211 2.32735 0
M  V30 172 C 17.7782 -2.99585 2.27873 0
M  V30 173 C 16.9252 -1.72748 2.16918 0
M  V30 174 H 19.8762 -0.5791 1.47757 0
M  V30 175 H 19.8972 -3.2552 1.9702 0
M  V30 176 H 19.4092 -2.02036 3.31365 0
M  V30 177 H 17.5102 -3.48152 1.32745 0
M  V30 178 H 17.6232 -3.55646 3.21018 0
M  V30 179 H 15.9872 -1.95416 1.63354 0
M  V30 180 H 16.7702 -1.30686 3.17452 0
M  V30 181 N 19.2153 -1.21501 -1.00376 0
M  V30 182 C 20.4633 -1.03095 -1.73827 0
M  V30 183 C 20.7843 0.436341 -1.90055 0
M  V30 184 O 20.0543 1.31466 -1.45236 0
M  V30 185 H 18.6343 -0.378487 -0.644016 0
M  V30 186 H 21.2963 -1.52831 -1.20949 0
M  V30 187 H 20.3923 -1.49991 -2.73695 0
M  V30 188 N 20.6934 1.19889 -1.02296 0
M  V30 189 C 21.9394 1.89973 -0.726759 0
M  V30 190 C 22.2944 1.7776 0.73614 0
M  V30 191 O 21.5874 1.15523 1.52856 0
M  V30 192 C 21.7814 3.39883 -1.10518 0
M  V30 193 C 21.6104 3.66684 -2.60332 0
M  V30 194 C 20.3804 3.85045 -3.27213 0
M  V30 195 C 22.5784 3.68727 -3.58532 0
M  V30 196 N 20.5604 3.99422 -4.66192 0
M  V30 197 C 21.9314 3.88604 -4.83101 0
M  V30 198 C 23.9864 3.51722 -3.52414 0
M  V30 199 C 22.6894 3.9324 -6.02292 0
M  V30 200 C 24.7154 3.57632 -4.71013 0
M  V30 201 C 24.0774 3.77988 -5.94394 0
M  V30 202 H 20.1764 0.714551 -0.317712 0
M  V30 203 H 22.7604 1.44123 -1.30907 0
M  V30 204 H 20.9314 3.8447 -0.551142 0
M  V30 205 H 22.6634 3.97464 -0.761853 0
M  V30 206 H 19.4184 3.83689 -2.77632 0
M  V30 207 H 19.8424 4.10473 -5.38368 0
M  V30 208 H 24.4844 3.34945 -2.58015 0
M  V30 209 H 22.2024 4.08811 -6.97065 0
M  V30 210 H 25.7884 3.45773 -4.67902 0
M  V30 211 H 24.6684 3.82428 -6.8463 0
M  V30 212 N 22.1715 0.800033 1.35784 0
M  V30 213 C 23.0815 0.207204 2.33683 0
M  V30 214 C 24.0975 -0.64631 1.61551 0
M  V30 215 O 25.2735 -0.559604 1.93469 0
M  V30 216 C 22.3385 -0.639659 3.40748 0
M  V30 217 C 21.3995 0.233585 4.28664 0
M  V30 218 C 20.6325 -0.572954 5.30616 0
M  V30 219 O 20.8555 -1.80816 5.40982 0
M  V30 220 O 19.7895 0.0327285 6.01891 0
M  V30 221 H 23.6155 1.01692 2.86169 0
M  V30 222 H 21.2005 0.561691 1.38439 0
M  V30 223 H 23.0825 -1.12223 4.06182 0
M  V30 224 H 21.7575 -1.42708 2.90544 0
M  V30 225 H 20.6645 0.763147 3.66233 0
M  V30 226 H 21.9975 0.984784 4.82248 0
M  V30 227 N 23.6496 -1.47581 0.552962 0
M  V30 228 C 24.8956 -2.02782 0.0273648 0
M  V30 229 C 25.2286 -1.42687 -1.31734 0
M  V30 230 O 24.5036 -0.580897 -1.85623 0
M  V30 231 C 24.7866 -3.60031 -0.0702371 0
M  V30 232 C 24.6396 -4.30566 1.30126 0
M  V30 233 C 25.9586 -4.33028 -0.785771 0
M  V30 234 H 23.0776 -0.736912 0.0114185 0
M  V30 235 H 25.7196 -1.76056 0.714432 0
M  V30 236 H 23.8696 -3.82932 -0.655382 0
M  V30 237 H 25.5416 -4.19018 1.92929 0
M  V30 238 H 23.7846 -3.91086 1.87709 0
M  V30 239 H 24.4556 -5.39114 1.18573 0
M  V30 240 H 26.9316 -4.15095 -0.288982 0
M  V30 241 H 25.8076 -5.42695 -0.823013 0
M  V30 242 H 26.0686 -4.01945 -1.841 0
M  V30 243 N 25.1277 -0.289203 -1.54924 0
M  V30 244 C 26.4047 0.376032 -1.91951 0
M  V30 245 C 26.7847 1.72622 -1.21511 0
M  V30 246 O 26.1327 2.25853 -0.346767 0
M  V30 247 C 26.3427 0.502378 -3.45365 0
M  V30 248 C 27.6907 0.778741 -4.17398 0
M  V30 249 O 28.7147 0.586647 -3.51336 0
M  V30 250 O 27.5737 1.14698 -5.34328 0
M  V30 251 H 24.6677 0.208167 -0.800372 0
M  V30 252 H 27.2137 -0.336394 -1.66332 0
M  V30 253 H 25.9857 -0.447255 -3.88736 0
M  V30 254 H 25.6087 1.26373 -3.76982 0
M  V30 255 N 26.6058 1.57591 -0.0167156 0
M  V30 256 C 27.5688 2.08393 0.954204 0
M  V30 257 C 28.5688 0.996531 1.26198 0
M  V30 258 O 29.7588 1.25858 1.20438 0
M  V30 259 C 26.8908 2.5394 2.27436 0
M  V30 260 H 28.0838 2.95455 0.514451 0
M  V30 261 H 25.6368 1.54582 0.231089 0
M  V30 262 H 26.3718 1.70171 2.76066 0
M  V30 263 H 26.1568 3.33371 2.06412 0
M  V30 264 H 27.6468 2.93512 2.97053 0
M  V30 265 N 28.0839 -0.256276 1.55502 0
M  V30 266 C 29.3309 -0.985619 1.76895 0
M  V30 267 C 29.6589 -1.85671 0.579355 0
M  V30 268 O 28.9139 -1.90744 -0.437651 0
M  V30 269 C 29.2129 -1.88432 3.03691 0
M  V30 270 C 28.8789 -1.16936 4.35473 0
M  V30 271 C 27.5409 -0.97173 4.71286 0
M  V30 272 C 29.8929 -0.661889 5.1698 0
M  V30 273 C 27.2209 -0.254179 5.86149 0
M  V30 274 C 29.5729 0.042149 6.32586 0
M  V30 275 C 28.2369 0.25134 6.67027 0
M  V30 276 H 27.5069 -0.360663 0.647304 0
M  V30 277 H 30.1539 -0.256483 1.89775 0
M  V30 278 H 28.4589 -2.68021 2.85783 0
M  V30 279 H 30.1559 -2.45015 3.1744 0
M  V30 280 H 26.7459 -1.33332 4.07333 0
M  V30 281 H 30.9299 -0.802145 4.89775 0
M  V30 282 H 26.1859 -0.0815408 6.11346 0
M  V30 283 H 30.3599 0.443049 6.94989 0
M  V30 284 H 27.9869 0.809314 7.5588 0
M  V30 285 N 29.562 -1.4872 -0.521534 0
M  V30 286 C 30.81 -1.56857 -1.27437 0
M  V30 287 C 31.131 -0.247982 -1.93417 0
M  V30 288 O 30.401 0.731151 -1.81744 0
M  V30 289 H 28.981 -0.577885 -0.473347 0
M  V30 290 H 31.643 -1.85233 -0.606205 0
M  V30 291 H 30.739 -2.35402 -2.0492 0
M  V30 292 N 31.0401 0.771051 -1.3745 0
M  V30 293 C 32.0031 1.86598 -1.33093 0
M  V30 294 C 33.0031 1.59076 -0.234845 0
M  V30 295 O 34.1931 1.67145 -0.490732 0
M  V30 296 C 31.3251 3.23747 -1.06773 0
M  V30 297 H 32.5181 1.91873 -2.30488 0
M  V30 298 H 30.0711 0.970876 -1.2249 0
M  V30 299 H 30.8061 3.24148 -0.099129 0
M  V30 300 H 30.5911 3.45115 -1.86112 0
M  V30 301 H 32.0811 4.03824 -1.06377 0
M  V30 302 N 32.5182 1.22032 0.997298 0
M  V30 303 C 33.7642 1.04376 1.73878 0
M  V30 304 C 34.0972 -0.420716 1.89588 0
M  V30 305 O 33.3722 -1.31202 1.43583 0
M  V30 306 C 33.6552 1.75047 3.14691 0
M  V30 307 C 33.5082 3.29062 3.06656 0
M  V30 308 C 34.8272 1.49928 4.13775 0
M  V30 309 H 31.9462 0.380578 0.631133 0
M  V30 310 H 34.5882 1.50312 1.16217 0
M  V30 311 H 32.7382 1.35996 3.63919 0
M  V30 312 H 34.4102 3.7753 2.65083 0
M  V30 313 H 32.6532 3.58967 2.43568 0
M  V30 314 H 33.3242 3.73683 4.06282 0
M  V30 315 H 35.8002 1.83842 3.73285 0
M  V30 316 H 34.6762 2.01878 5.10428 0
M  V30 317 H 34.9372 0.430929 4.39995 0
M  V30 318 N 33.9963 -1.19345 1.0293 0
M  V30 319 C 35.2213 -1.93538 0.745511 0
M  V30 320 C 35.6463 -1.75007 -0.689511 0
M  V30 321 O 35.0043 -1.05265 -1.47611 0
M  V30 322 C 35.0523 -3.43336 1.10239 0
M  V30 323 O 34.1563 -4.11806 0.221289 0
M  V30 324 H 33.4973 -0.604193 0.275404 0
M  V30 325 H 36.0273 -1.5141 1.37609 0
M  V30 326 H 36.0373 -3.94004 1.05947 0
M  V30 327 H 34.7123 -3.56146 2.14786 0
M  V30 328 H 33.2893 -3.715 0.322842 0
M  V30 329 N 35.4744 -0.807222 -1.35358 0
M  V30 330 C 36.4224 -0.20614 -2.31685 0
M  V30 331 C 37.4164 0.644445 -1.56663 0
M  V30 332 O 38.6224 0.537538 -1.71786 0
M  V30 333 H 34.9974 -0.0479006 -0.750473 0
M  V30 334 H 36.9684 -1.03369 -2.79924 0
M  V30 335 C 35.7174 0.630212 -3.41941 0
M  V30 336 H 35.0404 -0.0149558 -3.99797 0
M  V30 337 H 36.4804 1.01716 -4.11619 0
M  V30 338 C 34.9394 1.79601 -2.85035 0
M  V30 339 O 35.4694 2.89351 -2.78637 0
M  V30 340 N 33.6754 1.60774 -2.42074 0
M  V30 341 H 33.2224 0.715009 -2.47478 0
M  V30 342 H 33.1804 2.38933 -2.04349 0
M  V30 343 N 36.9525 1.47285 -0.560781 0
M  V30 344 C 37.8825 2.32857 0.173105 0
M  V30 345 C 38.8635 1.44009 0.905281 0
M  V30 346 O 40.0485 1.7286 0.885046 0
M  V30 347 C 37.1785 3.25861 1.20133 0
M  V30 348 C 36.1325 4.23978 0.585388 0
M  V30 349 C 35.4585 5.06332 1.7185 0
M  V30 350 C 36.7585 5.20242 -0.463178 0
M  V30 351 H 38.4525 2.94466 -0.541307 0
M  V30 352 H 35.9985 1.41601 -0.261764 0
M  V30 353 H 37.9515 3.84569 1.72293 0
M  V30 354 H 36.6755 2.62315 1.94573 0
M  V30 355 H 35.3345 3.66501 0.085054 0
M  V30 356 H 34.9825 4.39186 2.45203 0
M  V30 357 H 34.6825 5.72762 1.31213 0
M  V30 358 H 36.2065 5.67899 2.24329 0
M  V30 359 H 37.6205 5.73293 -0.027502 0
M  V30 360 H 36.0175 5.94896 -0.788627 0
M  V30 361 H 37.0875 4.65504 -1.35773 0
M  V30 362 N 38.4306 0.297415 1.54768 0
M  V30 363 C 39.6706 -0.313829 2.01976 0
M  V30 364 C 40.0346 -1.51366 1.1812 0
M  V30 365 O 41.2356 -2.19603 1.5501 0
M  V30 366 C 39.5066 -0.664964 3.51159 0
M  V30 367 S 41.0656 -1.25958 4.20333 0
M  V30 368 H 37.8836 -0.0965014 0.704421 0
M  V30 369 H 40.4856 0.424451 1.90837 0
M  V30 370 H 39.1896 0.21681 4.09827 0
M  V30 371 H 38.7206 -1.43413 3.66328 0
M  V30 372 H 40.7356 -2.54751 4.25813 0
M  V30 373 N 39.9087 -1.5758 0.0250728 0
M  V30 374 C 40.8407 -2.06869 -0.986796 0
M  V30 375 C 41.8537 -0.991332 -1.29137 0
M  V30 376 O 43.0427 -1.26761 -1.25674 0
M  V30 377 C 40.1427 -2.47486 -2.31525 0
M  V30 378 C 39.3157 -3.78253 -2.19643 0
M  V30 379 C 38.3747 -4.05464 -3.35388 0
M  V30 380 O 37.4007 -4.75774 -3.12454 0
M  V30 381 N 38.6027 -3.55321 -4.59051 0
M  V30 382 H 41.3677 -2.94302 -0.566276 0
M  V30 383 H 38.9287 -1.6109 -0.161776 0
M  V30 384 H 40.9207 -2.62785 -3.07776 0
M  V30 385 H 39.4907 -1.65441 -2.65232 0
M  V30 386 H 38.7107 -3.7279 -1.28144 0
M  V30 387 H 39.9987 -4.63936 -2.08903 0
M  V30 388 H 39.3967 -2.98431 -4.80578 0
M  V30 389 H 37.9537 -3.75905 -5.32483 0
M  V30 390 N 41.3868 0.248026 -1.55636 0
M  V30 391 C 42.7978 0.817177 -1.67866 0
M  V30 392 C 43.1488 1.86069 -0.622322 0
M  V30 393 O 42.2738 2.15157 0.231618 0
M  V30 394 C 42.8688 1.489 -3.04326 0
M  V30 395 C 41.4278 2.00587 -3.185 0
M  V30 396 C 40.5748 0.856573 -2.63739 0
M  V30 397 H 43.5258 0.0238579 -1.58682 0
M  V30 398 H 43.5468 2.35698 -2.98708 0
M  V30 399 H 43.0588 0.729279 -3.81186 0
M  V30 400 H 41.1598 2.79443 -2.4646 0
M  V30 401 H 41.2728 2.20402 -4.25393 0
M  V30 402 H 39.6368 1.25678 -2.21534 0
M  V30 403 H 40.4198 0.109953 -3.43124 0
M  V30 404 N 42.8649 1.48995 0.513639 0
M  V30 405 C 43.7979 1.59319 1.63379 0
M  V30 406 C 44.7759 0.442816 1.56454 0
M  V30 407 O 45.9599 0.656655 1.76693 0
M  V30 408 C 43.0869 1.5364 3.01848 0
M  V30 409 C 42.1329 2.7372 3.27078 0
M  V30 410 S 42.9659 4.35528 3.1157 0
M  V30 411 C 44.1219 4.32473 4.52458 0
M  V30 412 H 44.3549 2.54079 1.54374 0
M  V30 413 H 41.8879 1.3773 0.697849 0
M  V30 414 H 43.8459 1.51049 3.81699 0
M  V30 415 H 42.5069 0.601898 3.08279 0
M  V30 416 H 41.6999 2.6593 4.28132 0
M  V30 417 H 41.3019 2.73657 2.54927 0
M  V30 418 H 43.5939 4.03414 5.44301 0
M  V30 419 H 44.5369 5.33762 4.65299 0
M  V30 420 H 44.9449 3.62718 4.32546 0
M  V30 421 N 44.343 -0.763751 1.37857 0
M  V30 422 C 45.253 -1.90817 1.36478 0
M  V30 423 C 46.269 -1.71997 0.263248 0
M  V30 424 O 47.445 -1.95095 0.499979 0
M  V30 425 C 44.51 -3.2605 1.17864 0
M  V30 426 C 43.571 -3.57467 2.3773 0
M  V30 427 C 42.804 -4.86249 2.19995 0
M  V30 428 O 43.027 -5.57884 1.18836 0
M  V30 429 O 41.961 -5.16911 3.08361 0
M  V30 430 H 45.787 -1.94933 2.32884 0
M  V30 431 H 43.372 -0.907619 1.1867 0
M  V30 432 H 45.254 -4.06924 1.09504 0
M  V30 433 H 43.929 -3.22769 0.245372 0
M  V30 434 H 42.836 -2.76796 2.51664 0
M  V30 435 H 44.169 -3.655 3.29652 0
M  V30 436 N 45.8211 -1.22559 -0.990812 0
M  V30 437 C 46.7841 -0.998863 -2.0629 0
M  V30 438 C 47.7841 0.0354834 -1.60761 0
M  V30 439 O 48.9741 -0.203231 -1.7301 0
M  V30 440 C 46.1061 -0.509203 -3.37076 0
M  V30 441 H 47.2991 -1.95014 -2.27837 0
M  V30 442 H 44.8521 -1.04456 -1.16269 0
M  V30 443 H 45.5871 0.446335 -3.21214 0
M  V30 444 H 45.3721 -1.25547 -3.71457 0
M  V30 445 H 46.8621 -0.370888 -4.1595 0
M  V30 446 N 47.2992 1.18797 -1.03562 0
M  V30 447 C 48.5762 1.84469 -0.650434 0
M  V30 448 C 48.9562 1.92319 0.870433 0
M  V30 449 O 48.3042 1.44528 1.76986 0
M  V30 450 C 48.5142 3.2306 -1.32036 0
M  V30 451 C 49.8622 3.9915 -1.44792 0
M  V30 452 O 50.8862 3.32481 -1.27806 0
M  V30 453 O 49.7452 5.18587 -1.72423 0
M  V30 454 H 46.8392 0.795251 -0.226946 0
M  V30 455 H 49.3852 1.26231 -1.13419 0
M  V30 456 H 48.1572 3.1222 -2.3587 0
M  V30 457 H 47.7802 3.88949 -0.8249 0
M  V30 458 N 48.7773 0.814389 1.34928 0
M  V30 459 C 49.7073 0.244827 2.32213 0
M  V30 460 C 50.6883 -0.634024 1.57842 0
M  V30 461 O 51.8733 -0.562676 1.8587 0
M  V30 462 C 49.0033 -0.601106 3.42058 0
M  V30 463 C 47.9573 0.179896 4.27622 0
M  V30 464 C 47.2833 -0.788237 5.28858 0
M  V30 465 C 48.5833 1.38329 5.03649 0
M  V30 466 H 50.2773 1.05763 2.80097 0
M  V30 467 H 47.8233 0.510029 1.34665 0
M  V30 468 H 49.7763 -1.00968 4.09125 0
M  V30 469 H 48.5003 -1.44688 2.92802 0
M  V30 470 H 47.1593 0.569739 3.62146 0
M  V30 471 H 46.8073 -1.62973 4.75866 0
M  V30 472 H 46.5073 -0.269942 5.8698 0
M  V30 473 H 48.0313 -1.19485 5.98795 0
M  V30 474 H 49.4453 1.04918 5.63618 0
M  V30 475 H 47.8423 1.83662 5.71304 0
M  V30 476 H 48.9123 2.16592 4.33839 0
M  V30 477 N 50.2554 -1.46986 0.568584 0
M  V30 478 C 51.4854 -2.0653 0.0539173 0
M  V30 479 C 51.8934 -1.42004 -1.25026 0
M  V30 480 O 51.2364 -0.514541 -1.76347 0
M  V30 481 C 51.2984 -3.58938 -0.200854 0
M  V30 482 C 50.9624 -4.45572 1.01559 0
M  V30 483 C 51.9594 -4.82986 1.92407 0
M  V30 484 C 49.6444 -4.8692 1.23346 0
M  V30 485 C 51.6384 -5.60559 3.03402 0
M  V30 486 C 49.3254 -5.64255 2.34649 0
M  V30 487 C 50.3234 -6.00986 3.24507 0
M  V30 488 O 50.0114 -6.76761 4.33878 0
M  V30 489 H 49.7434 -0.674292 0.0480234 0
M  V30 490 H 52.2974 -1.89812 0.784896 0
M  V30 491 H 50.5274 -3.73911 -0.986279 0
M  V30 492 H 52.2164 -4.0046 -0.662294 0
M  V30 493 H 52.9824 -4.51633 1.76785 0
M  V30 494 H 48.8614 -4.57789 0.543178 0
M  V30 495 H 52.4054 -5.89147 3.73565 0
M  V30 496 H 48.3024 -5.95021 2.5024 0
M  V30 497 H 49.0704 -6.95168 4.32068 0
M  V30 498 N 51.7335 -0.305618 -1.54608 0
M  V30 499 C 52.9815 0.301701 -1.99835 0
M  V30 500 C 53.3025 1.54054 -1.19551 0
M  V30 501 O 52.5725 1.93702 -0.292658 0
M  V30 502 H 51.1525 0.114468 -0.738178 0
M  V30 503 H 53.8145 -0.418016 -1.90364 0
M  V30 504 H 52.9105 0.570548 -3.06841 0
M  V30 505 N 53.2116 1.57565 -0.0334293 0
M  V30 506 C 54.4516 1.93844 0.648379 0
M  V30 507 C 54.8156 0.910387 1.69044 0
M  V30 508 O 56.0166 1.15952 2.42505 0
M  V30 509 C 54.2876 3.35017 1.24492 0
M  V30 510 S 55.8466 3.93229 1.94721 0
M  V30 511 H 52.6646 0.678231 0.213364 0
M  V30 512 H 55.2666 1.95254 -0.0981253 0
M  V30 513 H 53.9706 4.07652 0.474128 0
M  V30 514 H 53.5016 3.37061 2.02864 0
M  V30 515 H 55.5166 3.77014 3.22606 0
M  V30 516 N 54.6897 -0.239769 1.55765 0
M  V30 517 C 55.6527 -1.28038 1.90103 0
M  V30 518 C 56.6527 -1.40723 0.778055 0
M  V30 519 O 57.8427 -1.39301 1.04599 0
M  V30 520 C 54.9747 -2.65702 2.13577 0
M  V30 521 H 56.1677 -0.988048 2.83157 0
M  V30 522 H 53.7207 -0.479382 1.48767 0
M  V30 523 H 54.4557 -3.00063 1.23015 0
M  V30 524 H 54.2407 -2.57875 2.95369 0
M  V30 525 H 55.7307 -3.40828 2.41301 0
M  V30 526 N 56.1678 -1.49265 -0.50573 0
M  V30 527 C 57.4448 -1.49012 -1.26707 0
M  V30 528 C 57.8248 -0.215205 -2.1 0
M  V30 529 O 57.1728 0.802547 -2.13943 0
M  V30 530 C 57.3828 -2.7663 -2.12783 0
M  V30 531 C 58.7308 -3.25932 -2.72127 0
M  V30 532 O 59.7548 -2.77715 -2.23054 0
M  V30 533 O 58.6138 -4.09897 -3.61451 0
M  V30 534 H 55.7078 -0.596197 -0.57313 0
M  V30 535 H 58.2538 -1.61524 -0.52039 0
M  V30 536 H 57.0258 -3.60916 -1.5118 0
M  V30 537 H 56.6488 -2.66956 -2.94653 0
M  V30 538 N 57.6459 0.756429 -1.3826 0
M  V30 539 C 59.0569 1.33359 -1.30661 0
M  V30 540 C 59.4079 1.96161 0.0388875 0
M  V30 541 O 58.5329 1.94874 0.940918 0
M  V30 542 C 59.1279 2.42477 -2.36622 0
M  V30 543 C 57.6869 2.95922 -2.3261 0
M  V30 544 C 56.8339 1.69275 -2.19639 0
M  V30 545 H 59.7849 0.55552 -1.4866 0
M  V30 546 H 59.8059 3.22345 -2.02174 0
M  V30 547 H 59.3179 1.96739 -3.34538 0
M  V30 548 H 57.4189 3.45996 -1.38267 0
M  V30 549 H 57.5319 3.50494 -3.26636 0
M  V30 550 H 55.8959 1.92793 -1.66442 0
M  V30 551 H 56.6789 1.25619 -3.19491 0
M  V30 552 N 59.124 1.23083 0.984299 0
M  V30 553 C 60.364 1.07226 1.74017 0
M  V30 554 C 60.728 -0.384766 1.88105 0
M  V30 555 O 61.929 -0.664411 2.60459 0
M  V30 556 C 60.2 1.77348 3.10294 0
M  V30 557 S 61.759 1.77014 4.01512 0
M  V30 558 H 58.577 0.383819 0.598502 0
M  V30 559 H 61.179 1.56158 1.17622 0
M  V30 560 H 59.883 2.82506 2.97689 0
M  V30 561 H 59.414 1.28682 3.71759 0
M  V30 562 H 61.429 0.825956 4.89277 0
M  V30 563 N 60.6021 -1.18246 1.0419 0
M  V30 564 C 61.8481 -1.88793 0.75689 0
M  V30 565 C 62.2031 -1.78909 -0.707767 0
M  V30 566 O 61.4961 -1.1794 -1.50999 0
M  V30 567 C 61.6901 -3.38082 1.15911 0
M  V30 568 C 61.5191 -3.62496 2.66133 0
M  V30 569 C 60.2891 -3.7979 3.33298 0
M  V30 570 C 62.4871 -3.62976 3.64353 0
M  V30 571 N 60.4691 -3.91955 4.72487 0
M  V30 572 C 61.8401 -3.80869 4.89222 0
M  V30 573 C 63.8951 -3.46071 3.57965 0
M  V30 574 C 62.5981 -3.83608 6.08471 0
M  V30 575 C 64.6241 -3.50093 4.76643 0
M  V30 576 C 63.9861 -3.68484 6.00332 0
M  V30 577 H 60.0851 -0.709406 0.32904 0
M  V30 578 H 62.6691 -1.42022 1.33183 0
M  V30 579 H 60.8401 -3.83544 0.612238 0
M  V30 580 H 62.5721 -3.96202 0.824989 0
M  V30 581 H 59.3271 -3.79224 2.83701 0
M  V30 582 H 59.7511 -4.01857 5.44831 0
M  V30 583 H 64.3931 -3.30797 2.63311 0
M  V30 584 H 62.1111 -3.97669 7.0348 0
M  V30 585 H 65.6971 -3.38285 4.73344 0
M  V30 586 H 64.5771 -3.71488 6.90627 0
M  V30 587 N 62.0802 -0.821533 -1.34494 0
M  V30 588 C 63.3262 -0.418729 -1.99043 0
M  V30 589 C 63.6812 1.00672 -1.6396 0
M  V30 590 O 62.9742 1.69132 -0.900271 0
M  V30 591 C 63.1682 -0.556512 -3.53041 0
M  V30 592 C 62.9972 -1.9938 -4.03085 0
M  V30 593 C 61.7672 -2.62539 -4.31742 0
M  V30 594 C 63.9652 -2.96035 -4.20556 0
M  V30 595 N 61.9472 -3.97523 -4.67813 0
M  V30 596 C 63.3182 -4.15924 -4.59791 0
M  V30 597 C 65.3732 -2.9267 -4.02801 0
M  V30 598 C 64.0762 -5.32899 -4.83126 0
M  V30 599 C 66.1022 -4.08861 -4.27302 0
M  V30 600 C 65.4642 -5.275 -4.66822 0
M  V30 601 H 61.5632 -0.201299 -0.755647 0
M  V30 602 H 64.1472 -1.06594 -1.62929 0
M  V30 603 H 62.3182 0.0607924 -3.88352 0
M  V30 604 H 64.0502 -0.126842 -4.04501 0
M  V30 605 H 60.8052 -2.13789 -4.22601 0
M  V30 606 H 61.2292 -4.67061 -4.90085 0
M  V30 607 H 65.8712 -2.02088 -3.71376 0
M  V30 608 H 63.5892 -6.24041 -5.13418 0
M  V30 609 H 67.1752 -4.07654 -4.15101 0
M  V30 610 H 66.0552 -6.15913 -4.85408 0
M  V30 611 N 63.5583 1.46682 -0.576371 0
M  V30 612 C 64.9693 1.86112 -0.148091 0
M  V30 613 C 65.3203 1.48073 1.2872 0
M  V30 614 O 64.4453 0.892656 1.97131 0
M  V30 615 C 65.0403 3.37786 -0.261982 0
M  V30 616 C 63.5993 3.76235 0.111384 0
M  V30 617 C 62.7463 2.70713 -0.60083 0
M  V30 618 H 65.6973 1.37927 -0.78497 0
M  V30 619 H 65.7183 3.77007 0.514364 0
M  V30 620 H 65.2303 3.6544 -1.30671 0
M  V30 621 H 63.3313 3.54198 1.15649 0
M  V30 622 H 63.4443 4.78391 -0.26052 0
M  V30 623 H 61.8083 2.54666 -0.0417783 0
M  V30 624 H 62.5913 3.01208 -1.64708 0
M  V30 625 N 65.0364 0.313813 1.54444 0
M  V30 626 C 65.9994 -0.54379 2.22656 0
M  V30 627 C 66.9994 -1.05124 1.21678 0
M  V30 628 O 68.1894 -0.945225 1.46325 0
M  V30 629 C 65.3214 -1.75427 2.92298 0
M  V30 630 H 66.5144 0.0523599 2.99854 0
M  V30 631 H 64.0674 0.0647834 1.56166 0
M  V30 632 H 64.8024 -2.38991 2.19211 0
M  V30 633 H 64.5874 -1.39791 3.66334 0
M  V30 634 H 66.0774 -2.36325 3.44297 0
M  V30 635 N 66.5145 -1.57545 0.0417849 0
M  V30 636 C 67.4465 -2.07904 -0.964799 0
M  V30 637 C 68.4595 -1.00497 -1.28079 0
M  V30 638 O 69.6485 -1.28087 -1.24322 0
M  V30 639 C 66.7485 -2.49928 -2.28887 0
M  V30 640 C 65.9215 -3.80562 -2.15619 0
M  V30 641 C 64.9805 -4.08999 -3.31069 0
M  V30 642 O 64.0065 -4.79061 -3.0739 0
M  V30 643 N 65.2085 -3.6017 -4.55256 0
M  V30 644 H 67.9735 -2.94886 -0.535029 0
M  V30 645 H 65.5345 -1.61252 -0.144681 0
M  V30 646 H 67.5265 -2.66034 -3.04972 0
M  V30 647 H 66.0965 -1.68245 -2.63463 0
M  V30 648 H 65.3165 -3.74129 -1.24183 0
M  V30 649 H 66.6045 -4.66126 -2.03971 0
M  V30 650 H 66.0025 -3.03512 -4.77386 0
M  V30 651 H 64.5595 -3.81532 -5.28466 0
M  V30 652 N 67.9926 0.231505 -1.5589 0
M  V30 653 C 69.2386 0.95877 -1.78705 0
M  V30 654 C 69.5716 1.8438 -0.609725 0
M  V30 655 O 68.8466 1.90521 0.391426 0
M  V30 656 C 69.1296 1.8062 -3.11526 0
M  V30 657 C 68.9826 0.948328 -4.39689 0
M  V30 658 C 70.3016 2.78585 -3.40703 0
M  V30 659 H 67.4206 0.347129 -0.650131 0
M  V30 660 H 70.0626 0.228259 -1.88624 0
M  V30 661 H 68.2126 2.42902 -3.03201 0
M  V30 662 H 69.8846 0.343016 -4.60023 0
M  V30 663 H 68.1276 0.253314 -4.3306 0
M  V30 664 H 68.7986 1.57543 -5.29041 0
M  V30 665 H 71.2746 2.26439 -3.49091 0
M  V30 666 H 70.1506 3.34988 -4.34826 0
M  V30 667 H 70.4116 3.55825 -2.62375 0
M  V30 668 N 69.4707 1.49531 0.497807 0
M  V30 669 C 70.4337 1.65916 1.58128 0
M  V30 670 C 71.4337 0.530825 1.51786 0
M  V30 671 O 72.6237 0.797342 1.54881 0
M  V30 672 C 69.7557 1.65951 2.9778 0
M  V30 673 H 70.9487 2.62556 1.44929 0
M  V30 674 H 68.5017 1.38611 0.722275 0
M  V30 675 H 69.2367 0.709065 3.16453 0
M  V30 676 H 69.0217 2.47897 3.03792 0
M  V30 677 H 70.5117 1.80673 3.76493 0
M  V30 678 N 70.9488 -0.749086 1.3866 0
M  V30 679 C 72.2258 -1.4992 1.25632 0
M  V30 680 C 72.6058 -2.10633 -0.140317 0
M  V30 681 O 71.9538 -1.97437 -1.15025 0
M  V30 682 C 72.1638 -2.56195 2.36992 0
M  V30 683 C 73.5118 -3.22972 2.75634 0
M  V30 684 O 74.5358 -2.66502 2.36337 0
M  V30 685 O 73.3948 -4.25122 3.43415 0
M  V30 686 H 70.4888 -0.665067 0.491544 0
M  V30 687 H 73.0348 -0.784113 1.50498 0
M  V30 688 H 71.8068 -2.09612 3.30422 0
M  V30 689 H 71.4298 -3.35279 2.13714 0
M  V30 690 N 72.4269 -1.23603 -0.977757 0
M  V30 691 C 73.6549 -1.09646 -1.75458 0
M  V30 692 C 74.0699 0.351859 -1.85492 0
M  V30 693 O 73.4269 1.24327 -1.336 0
M  V30 694 C 73.4779 -1.71895 -3.18016 0
M  V30 695 O 73.1989 -3.11063 -3.08498 0
M  V30 696 C 74.6999 -1.63415 -4.12081 0
M  V30 697 H 71.9199 -0.38359 -0.550545 0
M  V30 698 H 74.4639 -1.63507 -1.22824 0
M  V30 699 H 72.6189 -1.22061 -3.67668 0
M  V30 700 H 73.0329 -3.41305 -3.9826 0
M  V30 701 H 74.5069 -2.11669 -5.09804 0
M  V30 702 H 74.9839 -0.593462 -4.35172 0
M  V30 703 H 75.5899 -2.12628 -3.68334 0
M  V30 704 N 73.905 1.17692 -1.04816 0
M  V30 705 C 74.835 2.23777 -0.666791 0
M  V30 706 C 75.816 1.66796 0.33361 0
M  V30 707 O 77.001 1.93039 0.212042 0
M  V30 708 C 74.131 3.47281 -0.0367933 0
M  V30 709 C 73.085 4.17059 -0.961546 0
M  V30 710 C 72.411 5.34342 -0.195626 0
M  V30 711 C 73.711 4.69713 -2.28402 0
M  V30 712 H 75.405 2.55933 -1.55367 0
M  V30 713 H 72.951 1.23019 -0.748484 0
M  V30 714 H 74.904 4.20706 0.241775 0
M  V30 715 H 73.628 3.14381 0.885004 0
M  V30 716 H 72.287 3.45541 -1.22462 0
M  V30 717 H 71.935 4.97692 0.728816 0
M  V30 718 H 71.635 5.81966 -0.811775 0
M  V30 719 H 73.159 6.10553 0.0757473 0
M  V30 720 H 74.573 5.34794 -2.06563 0
M  V30 721 H 72.97 5.279 -2.8538 0
M  V30 722 H 74.04 3.86726 -2.92525 0
M  V30 723 N 75.3831 0.828654 1.34056 0
M  V30 724 C 76.3311 0.242973 2.31327 0
M  V30 725 C 77.3251 -0.61944 1.57668 0
M  V30 726 O 78.5311 -0.51014 1.7262 0
M  V30 727 H 74.9061 0.059834 0.749616 0
M  V30 728 H 76.8771 1.07809 2.78244 0
M  V30 729 C 75.6261 -0.575733 3.429 0
M  V30 730 H 74.9491 0.0785582 3.99723 0
M  V30 731 H 76.3891 -0.951547 4.13185 0
M  V30 732 C 74.8481 -1.75044 2.87856 0
M  V30 733 O 75.3781 -2.84882 2.83205 0
M  V30 734 N 73.5841 -1.56903 2.44602 0
M  V30 735 H 73.1311 -0.675547 2.48584 0
M  V30 736 H 73.0891 -2.35652 2.08124 0
M  V30 737 N 76.8612 -1.46375 0.584142 0
M  V30 738 C 78.0892 -2.06761 0.0759296 0
M  V30 739 C 78.5042 -1.43266 -1.22965 0
M  V30 740 O 77.8612 -0.538458 -1.74376 0
M  V30 741 C 77.9122 -3.61375 -0.0950384 0
M  V30 742 O 77.6332 -4.22495 1.15887 0
M  V30 743 C 79.1342 -4.38693 -0.637434 0
M  V30 744 H 76.3542 -0.668479 0.0581075 0
M  V30 745 H 78.8982 -1.8798 0.805218 0
M  V30 746 H 77.0532 -3.79578 -0.774554 0
M  V30 747 H 77.4672 -5.15385 0.973598 0
M  V30 748 H 78.9412 -5.47464 -0.706237 0
M  V30 749 H 79.4182 -4.06836 -1.65472 0
M  V30 750 H 80.0242 -4.25299 0.00725967 0
M  V30 751 N 78.3393 -0.321999 -1.54275 0
M  V30 752 C 79.5693 0.282642 -2.04658 0
M  V30 753 C 79.9773 1.46453 -1.19784 0
M  V30 754 O 79.3203 1.82367 -0.220932 0
M  V30 755 C 79.3823 0.781857 -3.50895 0
M  V30 756 C 79.0463 -0.277517 -4.56157 0
M  V30 757 C 80.0433 -1.11307 -5.07845 0
M  V30 758 C 77.7283 -0.425256 -5.00497 0
M  V30 759 C 79.7223 -2.08211 -6.02434 0
M  V30 760 C 77.4093 -1.39771 -5.94901 0
M  V30 761 C 78.4073 -2.2246 -6.45756 0
M  V30 762 O 78.0953 -3.18054 -7.38307 0
M  V30 763 H 77.8273 0.0622636 -0.673126 0
M  V30 764 H 80.3813 -0.465792 -2.00049 0
M  V30 765 H 78.6113 1.58118 -3.52896 0
M  V30 766 H 80.3003 1.30467 -3.84361 0
M  V30 767 H 81.0663 -1.00991 -4.74369 0
M  V30 768 H 76.9453 0.20847 -4.60528 0
M  V30 769 H 80.4893 -2.72791 -6.42052 0
M  V30 770 H 76.3863 -1.50152 -6.27794 0
M  V30 771 H 77.1543 -3.13275 -7.56175 0
M  V30 772 N 79.8174 1.5752 -0.0501392 0
M  V30 773 C 81.2284 1.80271 0.485705 0
M  V30 774 C 81.5794 0.96228 1.70981 0
M  V30 775 O 80.7044 0.178578 2.15662 0
M  V30 776 C 81.2994 3.26957 0.887938 0
M  V30 777 C 79.8584 3.5063 1.36877 0
M  V30 778 C 79.0054 2.75165 0.343468 0
M  V30 779 H 81.9564 1.56281 -0.276028 0
M  V30 780 H 81.9774 3.37821 1.75093 0
M  V30 781 H 81.4894 3.881 -0.0031809 0
M  V30 782 H 79.5904 2.94766 2.27911 0
M  V30 783 H 79.7034 4.59343 1.36164 0
M  V30 784 H 78.0674 2.4127 0.816128 0
M  V30 785 H 78.8504 3.39034 -0.539548 0
M  V30 786 N 81.2955 -0.223234 1.56011 0
M  V30 787 C 82.2435 -1.29627 1.93131 0
M  V30 788 C 83.2375 -1.48608 0.813146 0
M  V30 789 O 84.4435 -1.49802 0.997966 0
M  V30 790 H 80.8185 -0.434563 0.613726 0
M  V30 791 H 82.7895 -0.955995 2.82672 0
M  V30 792 C 81.5385 -2.63983 2.26292 0
M  V30 793 H 80.8615 -2.50185 3.11846 0
M  V30 794 H 82.3015 -3.3788 2.56151 0
M  V30 795 C 80.7605 -3.18866 1.08747 0
M  V30 796 O 81.2905 -4.00192 0.347727 0
M  V30 797 N 79.4965 -2.77217 0.871743 0
M  V30 798 H 79.0435 -2.1119 1.47501 0
M  V30 799 H 79.0015 -3.1428 0.0869905 0
M  V30 800 N 82.7736 -1.49793 -0.48987 0
M  V30 801 C 84.0196 -1.61049 -1.24236 0
M  V30 802 C 84.3746 -0.298412 -1.90072 0
M  V30 803 O 83.6676 0.702262 -1.78266 0
M  V30 804 C 83.8616 -2.71488 -2.32441 0
M  V30 805 C 83.6906 -4.13308 -1.77218 0
M  V30 806 C 82.4606 -4.79955 -1.58023 0
M  V30 807 C 84.6586 -4.98176 -1.27772 0
M  V30 808 N 82.6406 -6.06052 -0.978465 0
M  V30 809 C 84.0116 -6.14843 -0.798 0
M  V30 810 C 86.0666 -4.84091 -1.16449 0
M  V30 811 C 84.7696 -7.18975 -0.216245 0
M  V30 812 C 86.7956 -5.88382 -0.596698 0
M  V30 813 C 86.1576 -7.04285 -0.127262 0
M  V30 814 H 82.2566 -0.643611 -0.444172 0
M  V30 815 H 84.8406 -1.86842 -0.54754 0
M  V30 816 H 83.0116 -2.47449 -2.99372 0
M  V30 817 H 84.7436 -2.72205 -2.99477 0
M  V30 818 H 81.4986 -4.36936 -1.82712 0
M  V30 819 H 81.9226 -6.73407 -0.696534 0
M  V30 820 H 86.5646 -3.94786 -1.5134 0
M  V30 821 H 84.2826 -8.0797 0.144903 0
M  V30 822 H 87.8686 -5.79545 -0.511716 0
M  V30 823 H 86.7486 -7.83606 0.30523 0
M  V30 824 N 84.2517 0.741722 -1.39055 0
M  V30 825 C 85.4767 1.53607 -1.39354 0
M  V30 826 C 85.9017 1.88096 0.0116905 0
M  V30 827 O 85.2597 1.5143 0.996924 0
M  V30 828 C 85.3077 2.80441 -2.26682 0
M  V30 829 O 84.4117 3.76088 -1.69208 0
M  V30 830 H 83.7527 0.464142 -0.474835 0
M  V30 831 H 86.2827 0.915665 -1.82967 0
M  V30 832 H 86.2927 3.29246 -2.40959 0
M  V30 833 H 84.9677 2.5467 -3.2881 0
M  V30 834 H 83.5447 3.34833 -1.64138 0
M  V30 835 N 85.7298 1.2412 0.971189 0
M  V30 836 C 86.6928 1.03156 2.04674 0
M  V30 837 C 87.6928 -0.00990322 1.60797 0
M  V30 838 O 88.8828 0.230729 1.72665 0
M  V30 839 C 86.0148 0.562765 3.36223 0
M  V30 840 H 87.2078 1.98614 2.24705 0
M  V30 841 H 84.7608 1.06293 1.14593 0
M  V30 842 H 85.4958 -0.395176 3.21883 0
M  V30 843 H 85.2808 1.31441 3.69413 0
M  V30 844 H 86.7708 0.437015 4.15307 0
M  V30 845 N 87.2079 -1.17134 1.05439 0
M  V30 846 C 88.4559 -1.87085 0.764429 0
M  V30 847 C 88.7769 -1.81584 -0.710787 0
M  V30 848 O 88.0469 -1.24349 -1.51374 0
M  V30 849 H 86.6269 -0.692627 0.279779 0
M  V30 850 H 89.2889 -1.42087 1.33406 0
M  V30 851 H 88.3849 -2.92759 1.0816 0
M  V30 852 N 88.686 -0.835752 -1.33615 0
M  V30 853 C 89.649 -0.272 -2.2758 0
M  V30 854 C 90.649 0.557487 -1.50827 0
M  V30 855 O 91.839 0.37173 -1.70188 0
M  V30 856 C 88.971 0.617173 -3.35267 0
M  V30 857 H 90.164 -1.10111 -2.78954 0
M  V30 858 H 87.717 -0.608594 -1.43965 0
M  V30 859 H 88.452 1.46884 -2.89129 0
M  V30 860 H 88.237 0.0237066 -3.92093 0
M  V30 861 H 89.727 1.005 -4.05326 0
M  V30 862 N 90.1641 1.46063 -0.591896 0
M  V30 863 C 91.4411 1.95595 -0.0137119 0
M  V30 864 C 91.8211 1.5345 1.4497 0
M  V30 865 O 91.1691 0.789543 2.14426 0
M  V30 866 C 91.3791 3.48453 -0.195373 0
M  V30 867 C 92.7271 4.24546 -0.0679765 0
M  V30 868 O 93.7511 3.55982 -0.124681 0
M  V30 869 O 92.6101 5.46467 0.0600579 0
M  V30 870 H 89.7041 0.825795 0.0446279 0
M  V30 871 H 92.2501 1.56303 -0.660859 0
M  V30 872 H 91.0221 3.72045 -1.21235 0
M  V30 873 H 90.6451 3.94597 0.487775 0
M  V30 874 N 91.6422 0.330177 1.54103 0
M  V30 875 C 92.9192 -0.325007 1.92881 0
M  V30 876 C 93.2992 -1.6934 1.26045 0
M  V30 877 O 92.6472 -2.24855 0.406526 0
M  V30 878 C 92.8572 -0.410634 3.46576 0
M  V30 879 C 94.2052 -0.667801 4.19316 0
M  V30 880 O 95.2292 -0.49329 3.52768 0
M  V30 881 O 94.0882 -1.00491 5.37181 0
M  V30 882 H 91.1822 -0.186873 0.80561 0
M  V30 883 H 93.7282 0.380376 1.65382 0
M  V30 884 H 92.5002 0.550164 3.87413 0
M  V30 885 H 92.1232 -1.16333 3.802 0
M  V30 886 N 93.1203 -1.57491 0.0584922 0
M  V30 887 C 94.3663 -1.93264 -0.614558 0
M  V30 888 C 94.6993 -0.937717 -1.7006 0
M  V30 889 O 93.9743 0.0351652 -1.94468 0
M  V30 890 C 94.2573 -3.3938 -1.20386 0
M  V30 891 C 94.1103 -4.49625 -0.125375 0
M  V30 892 C 95.4293 -3.86039 -2.11334 0
M  V30 893 H 92.5483 -0.702791 -0.221933 0
M  V30 894 H 95.1903 -1.8961 0.12175 0
M  V30 895 H 93.3403 -3.42626 -1.83139 0
M  V30 896 H 95.0123 -4.58506 0.506971 0
M  V30 897 H 93.2553 -4.30354 0.545672 0
M  V30 898 H 93.9263 -5.48967 -0.577861 0
M  V30 899 H 96.4023 -3.84716 -1.58534 0
M  V30 900 H 95.2783 -4.88914 -2.49507 0
M  V30 901 H 95.5393 -3.23215 -3.01636 0
M  V30 902 N 94.5984 0.214957 -1.56127 0
M  V30 903 C 95.5314 1.29382 -1.87977 0
M  V30 904 C 96.5094 1.44897 -0.737807 0
M  V30 905 O 97.6934 1.60605 -0.986833 0
M  V30 906 C 94.8204 2.66325 -2.09258 0
M  V30 907 C 93.8664 2.67789 -3.31951 0
M  V30 908 S 94.6994 2.21198 -4.8768 0
M  V30 909 C 95.8554 3.60003 -5.12004 0
M  V30 910 H 96.0884 1.02173 -2.79192 0
M  V30 911 H 93.6214 0.417516 -1.48648 0
M  V30 912 H 95.5794 3.45162 -2.22201 0
M  V30 913 H 94.2404 2.90755 -1.18829 0
M  V30 914 H 93.4334 3.68436 -3.43906 0
M  V30 915 H 93.0354 1.9702 -3.17898 0
M  V30 916 H 95.3274 4.55739 -5.01307 0
M  V30 917 H 96.2704 3.52959 -6.13861 0
M  V30 918 H 96.6784 3.53996 -4.39712 0
M  V30 919 N 96.0765 1.50051 0.48192 0
M  V30 920 C 97.0085 1.64263 1.59844 0
M  V30 921 C 98.0215 0.52451 1.54119 0
M  V30 922 O 99.2105 0.797293 1.59704 0
M  V30 923 C 96.3105 1.60102 2.98698 0
M  V30 924 C 95.4835 2.87767 3.29407 0
M  V30 925 C 94.5425 2.76397 4.47762 0
M  V30 926 O 93.5685 3.50348 4.48603 0
M  V30 927 N 94.7705 1.89222 5.48794 0
M  V30 928 H 97.5355 2.60566 1.48073 0
M  V30 929 H 95.0965 1.47379 0.670149 0
M  V30 930 H 97.0885 1.50123 3.75826 0
M  V30 931 H 95.6585 0.715798 3.04294 0
M  V30 932 H 94.8785 3.11954 2.40994 0
M  V30 933 H 96.1665 3.72365 3.4673 0
M  V30 934 H 95.5645 1.28434 5.50928 0
M  V30 935 H 94.1215 1.85154 6.24949 0
M  V30 936 N 97.5546 -0.734337 1.39446 0
M  V30 937 C 98.8316 -1.48579 1.27215 0
M  V30 938 C 99.2116 -2.1077 -0.117968 0
M  V30 939 O 98.5596 -1.98646 -1.12924 0
M  V30 940 C 98.7696 -2.53667 2.39696 0
M  V30 941 C 100.118 -3.20031 2.79044 0
M  V30 942 O 101.142 -2.6398 2.39151 0
M  V30 943 O 100.001 -4.21455 3.47905 0
M  V30 944 H 97.0946 -0.659816 0.49857 0
M  V30 945 H 99.6406 -0.768106 1.51322 0
M  V30 946 H 98.4126 -2.06096 3.32626 0
M  V30 947 H 98.0356 -3.32994 2.17258 0
M  V30 948 N 99.0327 -1.24633 -0.964593 0
M  V30 949 C 100.279 -1.09957 -1.71117 0
M  V30 950 C 100.634 0.357422 -1.89051 0
M  V30 951 O 99.9267 1.26029 -1.44317 0
M  V30 952 C 100.121 -1.7763 -3.10133 0
M  V30 953 C 99.9497 -3.29759 -3.05759 0
M  V30 954 C 98.7197 -3.98981 -3.10068 0
M  V30 955 C 100.918 -4.26305 -2.87695 0
M  V30 956 N 98.8997 -5.37966 -2.95747 0
M  V30 957 C 100.271 -5.52308 -2.81702 0
M  V30 958 C 102.326 -4.16842 -2.72299 0
M  V30 959 C 101.029 -6.69931 -2.61887 0
M  V30 960 C 103.055 -5.34147 -2.53853 0
M  V30 961 C 102.417 -6.59084 -2.48572 0
M  V30 962 H 98.5157 -0.457003 -0.634564 0
M  V30 963 H 101.1 -1.57592 -1.14337 0
M  V30 964 H 99.2707 -1.32504 -3.65099 0
M  V30 965 H 101.003 -1.55786 -3.73514 0
M  V30 966 H 97.7577 -3.50169 -3.18871 0
M  V30 967 H 98.1817 -6.10877 -2.91818 0
M  V30 968 H 102.824 -3.21007 -2.75163 0
M  V30 969 H 100.542 -7.65886 -2.57767 0
M  V30 970 H 104.128 -5.28678 -2.4288 0
M  V30 971 H 103.008 -7.48324 -2.34481 0
M  V30 972 N 100.511 1.16574 -1.06058 0
M  V30 973 C 101.927 1.3904 -0.783585 0
M  V30 974 C 102.127 1.91784 0.618145 0
M  V30 975 O 101.183 2.11511 1.37911 0
M  V30 976 C 102.496 2.37329 -1.84649 0
M  V30 977 C 104.044 2.51018 -1.86973 0
M  V30 978 C 104.519 3.52588 -2.92311 0
M  V30 979 N 106.01 3.60113 -2.91329 0
M  V30 980 C 106.745 4.38486 -3.69482 0
M  V30 981 N 106.241 5.20302 -4.57447 0
M  V30 982 N 108.034 4.33446 -3.57885 0
M  V30 983 H 100.185 0.806725 -1.96483 0
M  V30 984 H 102.448 0.417117 -0.851303 0
M  V30 985 H 102.154 2.05663 -2.85299 0
M  V30 986 H 102.028 3.36946 -1.6955 0
M  V30 987 H 104.415 2.81989 -0.869827 0
M  V30 988 H 104.496 1.51445 -2.0615 0
M  V30 989 H 104.14 3.22354 -3.92492 0
M  V30 990 H 104.07 4.51886 -2.70383 0
M  V30 991 H 106.561 3.01707 -2.27555 0
M  V30 992 H 106.874 5.77311 -5.13743 0
M  V30 993 H 105.219 5.19653 -4.61503 0
M  V30 994 H 108.41 3.68586 -2.88551 0
M  V30 995 H 108.583 4.94279 -4.19037 0
M  V30 996 N 101.989 0.842826 1.3317 0
M  V30 997 C 102.936 0.276885 2.29133 0
M  V30 998 C 103.906 -0.609527 1.54512 0
M  V30 999 O 105.091 -0.546955 1.82792 0
M  V30 1000 C 102.231 -0.538707 3.40869 0
M  V30 1001 C 101.344 0.372169 4.30394 0
M  V30 1002 C 100.479 -0.454908 5.29249 0
M  V30 1003 C 99.5179 0.45411 6.10413 0
M  V30 1004 N 98.6549 -0.335075 7.013 0
M  V30 1005 H 103.495 1.10052 2.76934 0
M  V30 1006 H 101.032 0.554161 1.36262 0
M  V30 1007 H 102.99 -1.02709 4.0436 0
M  V30 1008 H 101.62 -1.32727 2.9425 0
M  V30 1009 H 100.672 0.97888 3.6759 0
M  V30 1010 H 101.984 1.0703 4.87182 0
M  V30 1011 H 101.138 -1.00695 5.98285 0
M  V30 1012 H 99.8769 -1.18646 4.73048 0
M  V30 1013 H 98.8819 1.01813 5.40291 0
M  V30 1014 H 100.107 1.18409 6.68697 0
M  V30 1015 H 98.0529 -1.04994 6.47543 0
M  V30 1016 H 97.9699 0.304262 7.55387 0
M  V30 1017 H 99.2379 -0.869224 7.74638 0
M  V30 1018 N 103.467 -1.45747 0.599634 0
M  V30 1019 C 104.397 -2.33235 -0.111306 0
M  V30 1020 C 105.378 -1.46359 -0.866781 0
M  V30 1021 O 106.563 -1.75146 -0.838904 0
M  V30 1022 C 103.693 -3.28932 -1.11451 0
M  V30 1023 C 102.647 -4.25381 -0.472772 0
M  V30 1024 C 101.973 -5.1071 -1.58365 0
M  V30 1025 C 103.273 -5.18831 0.600948 0
M  V30 1026 H 104.967 -2.92927 0.61919 0
M  V30 1027 H 102.513 -1.40857 0.299215 0
M  V30 1028 H 104.466 -3.89002 -1.62036 0
M  V30 1029 H 103.19 -2.67381 -1.8755 0
M  V30 1030 H 101.849 -3.66598 0.0121472 0
M  V30 1031 H 101.497 -4.45533 -2.33473 0
M  V30 1032 H 101.197 -5.7604 -1.15982 0
M  V30 1033 H 102.721 -5.73647 -2.09194 0
M  V30 1034 H 104.135 -5.73019 0.179491 0
M  V30 1035 H 102.532 -5.92595 0.946076 0
M  V30 1036 H 103.602 -4.6174 1.48068 0
M  V30 1037 N 104.945 -0.338344 -1.53925 0
M  V30 1038 C 105.877 0.555117 -2.22376 0
M  V30 1039 C 106.89 1.06812 -1.22862 0
M  V30 1040 O 108.079 0.979163 -1.49247 0
M  V30 1041 C 105.179 1.77609 -2.88631 0
M  V30 1042 C 104.352 1.39927 -4.14414 0
M  V30 1043 C 103.411 2.47936 -4.64127 0
M  V30 1044 O 102.437 2.11461 -5.28463 0
M  V30 1045 N 103.639 3.79107 -4.39612 0
M  V30 1046 H 106.404 -0.0310778 -2.99684 0
M  V30 1047 H 103.965 -0.162226 -1.61085 0
M  V30 1048 H 105.957 2.49287 -3.18807 0
M  V30 1049 H 104.527 2.26978 -2.14941 0
M  V30 1050 H 103.747 0.513481 -3.90841 0
M  V30 1051 H 105.035 1.12341 -4.96243 0
M  V30 1052 H 104.433 4.11531 -3.88148 0
M  V30 1053 H 102.99 4.4697 -4.74406 0
M  V30 1054 N 106.423 1.57458 -0.0668435 0
M  V30 1055 C 107.648 1.9804 0.616027 0
M  V30 1056 C 108.073 0.944771 1.62652 0
M  V30 1057 O 107.431 -0.0902094 1.81075 0
M  V30 1058 C 107.479 3.37665 1.26549 0
M  V30 1059 O 106.583 3.36701 2.38131 0
M  V30 1060 H 105.924 0.644719 0.158849 0
M  V30 1061 H 108.454 2.04121 -0.139891 0
M  V30 1062 H 108.464 3.7474 1.6135 0
M  V30 1063 H 107.139 4.12573 0.525016 0
M  V30 1064 H 105.716 3.1139 2.0516 0
M  V30 1065 N 107.901 -0.206675 1.56239 0
M  V30 1066 C 109.147 -0.930218 1.80208 0
M  V30 1067 C 109.48 -1.83387 0.638981 0
M  V30 1068 O 108.755 -1.91119 -0.361066 0
M  V30 1069 C 109.038 -1.75641 3.1436 0
M  V30 1070 C 108.891 -0.878257 4.41142 0
M  V30 1071 C 110.21 -2.73129 3.45092 0
M  V30 1072 H 107.329 -0.336742 0.655571 0
M  V30 1073 H 109.971 -0.198222 1.88963 0
M  V30 1074 H 108.121 -2.38048 3.07027 0
M  V30 1075 H 109.793 -0.269787 4.6051 0
M  V30 1076 H 108.036 -0.184385 4.33408 0
M  V30 1077 H 108.707 -1.49106 5.3148 0
M  V30 1078 H 111.183 -2.20856 3.52649 0
M  V30 1079 H 110.059 -3.28028 4.40101 0
M  V30 1080 H 110.32 -3.51606 2.68003 0
M  V30 1081 N 109.379 -1.50304 -0.473955 0
M  V30 1082 C 110.626 -1.6115 -1.22625 0
M  V30 1083 C 110.954 -0.310517 -1.92005 0
M  V30 1084 O 110.209 0.703419 -1.82621 0
M  V30 1085 C 110.508 -2.73938 -2.29549 0
M  V30 1086 C 110.174 -4.14519 -1.7744 0
M  V30 1087 C 108.836 -4.5277 -1.62949 0
M  V30 1088 C 111.188 -5.02392 -1.3875 0
M  V30 1089 C 108.516 -5.76639 -1.08187 0
M  V30 1090 C 110.868 -6.26805 -0.854309 0
M  V30 1091 C 109.532 -6.63861 -0.696011 0
M  V30 1092 H 108.802 -0.589691 -0.448715 0
M  V30 1093 H 111.449 -1.84228 -0.522705 0
M  V30 1094 H 109.754 -2.44937 -3.05799 0
M  V30 1095 H 111.451 -2.79534 -2.87509 0
M  V30 1096 H 108.041 -3.8434 -1.89685 0
M  V30 1097 H 112.225 -4.73474 -1.4878 0
M  V30 1098 H 107.481 -6.04027 -0.946666 0
M  V30 1099 H 111.655 -6.94258 -0.545843 0
M  V30 1100 H 109.282 -7.59722 -0.26952 0
M  V30 1101 N 110.857 0.726932 -1.39834 0
M  V30 1102 C 112.268 1.30558 -1.3346 0
M  V30 1103 C 112.619 1.962 -0.00273003 0
M  V30 1104 O 111.744 1.96826 0.899371 0
M  V30 1105 C 112.339 2.37404 -2.41713 0
M  V30 1106 C 110.898 2.90921 -2.38835 0
M  V30 1107 C 110.045 1.64578 -2.2318 0
M  V30 1108 H 112.996 0.523862 -1.49804 0
M  V30 1109 H 113.017 3.17984 -2.08966 0
M  V30 1110 H 112.529 1.89599 -3.38635 0
M  V30 1111 H 110.63 3.42985 -1.45575 0
M  V30 1112 H 110.743 3.43487 -3.33997 0
M  V30 1113 H 109.107 1.89219 -1.70494 0
M  V30 1114 H 109.89 1.18814 -3.22084 0
M  V30 1115 N 112.336 1.25143 0.95797 0
M  V30 1116 C 113.246 1.06968 2.08794 0
M  V30 1117 C 114.262 0.00773911 1.73998 0
M  V30 1118 O 115.438 0.207972 2.00323 0
M  V30 1119 C 112.503 0.68691 3.39827 0
M  V30 1120 C 111.564 1.82641 3.88511 0
M  V30 1121 C 110.797 1.46181 5.1329 0
M  V30 1122 O 111.02 0.355971 5.69288 0
M  V30 1123 O 109.954 2.29085 5.566 0
M  V30 1124 H 113.78 2.01723 2.27027 0
M  V30 1125 H 111.365 1.04051 1.07209 0
M  V30 1126 H 113.247 0.485417 4.18595 0
M  V30 1127 H 111.922 -0.231417 3.22872 0
M  V30 1128 H 110.829 2.08274 3.10762 0
M  V30 1129 H 112.162 2.72386 4.09959 0
M  V30 1130 N 113.814 -1.1601 1.06675 0
M  V30 1131 C 115.042 -1.90527 0.806667 0
M  V30 1132 C 115.457 -1.77643 -0.639396 0
M  V30 1133 O 114.814 -1.12369 -1.43803 0
M  V30 1134 C 114.865 -3.41106 1.19705 0
M  V30 1135 O 114.586 -3.53608 2.58636 0
M  V30 1136 C 116.087 -4.32663 0.965266 0
M  V30 1137 H 113.307 -0.604053 0.292166 0
M  V30 1138 H 115.851 -1.47026 1.4214 0
M  V30 1139 H 114.006 -3.82296 0.626774 0
M  V30 1140 H 114.42 -4.47011 2.74375 0
M  V30 1141 H 115.894 -5.36763 1.288 0
M  V30 1142 H 116.371 -4.39089 -0.0987936 0
M  V30 1143 H 116.977 -3.97206 1.52011 0
M  V30 1144 N 115.292 -0.849877 -1.32721 0
M  V30 1145 C 116.239 -0.289033 -2.28983 0
M  V30 1146 C 117.209 0.601324 -1.54833 0
M  V30 1147 O 118.394 0.537253 -1.8308 0
M  V30 1148 C 115.534 0.520623 -3.4115 0
M  V30 1149 C 114.647 -0.394989 -4.3019 0
M  V30 1150 C 113.782 0.426834 -5.29482 0
M  V30 1151 C 112.821 -0.486476 -6.10164 0
M  V30 1152 N 111.958 0.297879 -7.01468 0
M  V30 1153 H 116.798 -1.11519 -2.76347 0
M  V30 1154 H 114.335 -0.56138 -1.35967 0
M  V30 1155 H 116.293 1.00563 -4.04899 0
M  V30 1156 H 114.923 1.31165 -2.9495 0
M  V30 1157 H 113.975 -0.99836 -3.67065 0
M  V30 1158 H 115.287 -1.09612 -4.86607 0
M  V30 1159 H 114.441 0.975205 -5.98811 0
M  V30 1160 H 113.18 1.16136 -4.73671 0
M  V30 1161 H 112.185 -1.04677 -5.39743 0
M  V30 1162 H 113.41 -1.21953 -6.6806 0
M  V30 1163 H 111.356 1.01558 -6.48091 0
M  V30 1164 H 111.273 -0.344318 -7.55216 0
M  V30 1165 H 112.541 0.828131 -7.75089 0
M  V30 1166 N 116.77 1.45427 -0.607355 0
M  V30 1167 C 118.018 2.01841 -0.102253 0
M  V30 1168 C 118.339 1.47832 1.27164 0
M  V30 1169 O 117.609 0.672497 1.83995 0
M  V30 1170 H 116.189 0.746188 -0.0348101 0
M  V30 1171 H 118.851 1.78229 -0.7887 0
M  V30 1172 H 117.947 3.12057 -0.0518585 0
M  V30 1173 N 118.248 0.346503 1.53744 0
M  V30 1174 C 119.473 -0.253074 2.0585 0
M  V30 1175 C 119.898 -1.43202 1.21962 0
M  V30 1176 O 119.256 -1.79783 0.234073 0
M  V30 1177 C 119.304 -0.643193 3.54817 0
M  V30 1178 O 118.408 -1.74286 3.73762 0
M  V30 1179 H 117.749 -0.0413583 0.662711 0
M  V30 1180 H 120.279 0.501574 1.98357 0
M  V30 1181 H 120.289 -0.919526 3.97503 0
M  V30 1182 H 118.964 0.218966 4.15323 0
M  V30 1183 H 117.541 -1.46356 3.42979 0
M  V30 1184 N 119.726 -1.57421 0.075193 0
M  V30 1185 C 120.951 -1.98364 -0.605515 0
M  V30 1186 C 121.376 -0.953383 -1.62149 0
M  V30 1187 O 120.734 0.0806053 -1.81121 0
M  V30 1188 C 120.782 -3.38332 -1.24756 0
M  V30 1189 O 119.886 -3.37959 -2.36342 0
M  V30 1190 H 119.227 -0.645553 -0.155428 0
M  V30 1191 H 121.757 -2.04044 0.150714 0
M  V30 1192 H 121.767 -3.75591 -1.5936 0
M  V30 1193 H 120.442 -4.12846 -0.503129 0
M  V30 1194 H 119.019 -3.12474 -2.03506 0
M  V30 1195 O 121.243 0.0653481 -1.61368 0
M  V30 1196 H 121.934 0.690459 -1.80976 0
M  V30 END ATOM
M  V30 BEGIN BOND
M  V30 END BOND
M  V30 END CTAB
M  END
$$$$
