drugbank_target|Q8VUS7 Quinohemoprotein amine dehydrogenase 40 kDa subunit (DB08646)
 OpenBabel12092120513D

  0  0  0     0  0            999 V3000
M  V30 BEGIN CTAB
M  V30 COUNTS 5498 5553 0 0 0
M  V30 BEGIN ATOM
M  V30 1 H -0.908 1.98254 -0.117106 0
M  V30 2 N 0 1.576 0 0
M  V30 3 C 0.933 2.03868 1.02534 0
M  V30 4 C 1.911 0.928543 1.3348 0
M  V30 5 O 3.095 1.19667 1.45644 0
M  V30 6 C 0.222 2.43627 2.35294 0
M  V30 7 C -0.732 3.65373 2.2001 0
M  V30 8 S 0.101 5.13292 1.52614 0
M  V30 9 C 1.257 5.56322 2.86805 0
M  V30 10 H 1.49 2.90518 0.631377 0
M  V30 11 H -0.977 1.52953 0.210867 0
M  V30 12 H 0.981 2.67203 3.11629 0
M  V30 13 H -0.358 1.57376 2.7183 0
M  V30 14 H -1.165 3.90944 3.18086 0
M  V30 15 H -1.563 3.418 1.51819 0
M  V30 16 H 0.729 5.58782 3.83104 0
M  V30 17 H 1.672 6.56266 2.65933 0
M  V30 18 H 2.08 4.83886 2.90714 0
M  V30 19 N 1.4781 -0.272755 1.55222 0
M  V30 20 C 2.8941 -0.619959 1.47067 0
M  V30 21 C 3.0941 -1.895 0.684978 0
M  V30 22 O 2.1501 -2.51675 0.203931 0
M  V30 23 C 3.4631 -0.746693 2.91282 0
M  V30 24 C 5.0111 -0.840731 3.01497 0
M  V30 25 C 5.4861 -0.99924 4.46967 0
M  V30 26 N 6.9771 -1.06476 4.50796 0
M  V30 27 C 7.7121 -1.20621 5.6057 0
M  V30 28 N 7.2081 -1.31483 6.80209 0
M  V30 29 N 9.0011 -1.23733 5.48312 0
M  V30 30 H 1.1521 0.564606 2.04758 0
M  V30 31 H 3.4151 0.191177 0.928523 0
M  V30 32 H 3.1211 0.119753 3.51496 0
M  V30 33 H 2.9951 -1.6269 3.40311 0
M  V30 34 H 5.3821 -1.69764 2.41379 0
M  V30 35 H 5.4631 0.0640874 2.5572 0
M  V30 36 H 5.1071 -0.146984 5.07687 0
M  V30 37 H 5.0371 -1.91871 4.90401 0
M  V30 38 H 7.5281 -0.993196 3.64615 0
M  V30 39 H 7.8411 -1.42111 7.59621 0
M  V30 40 H 6.1861 -1.28487 6.8302 0
M  V30 41 H 9.3771 -1.14877 4.53785 0
M  V30 42 H 9.5501 -1.34412 6.33906 0
M  V30 43 N 2.9562 -1.48159 -0.537278 0
M  V30 44 C 3.9032 -1.62138 -1.64256 0
M  V30 45 C 4.8732 -0.463668 -1.59497 0
M  V30 46 O 6.0582 -0.686241 -1.78032 0
M  V30 47 C 3.1982 -1.66028 -3.02537 0
M  V30 48 C 2.3112 -2.92855 -3.17585 0
M  V30 49 C 1.4462 -2.87952 -4.46382 0
M  V30 50 C 0.4852 -4.09516 -4.54932 0
M  V30 51 N -0.3778 -4.02733 -5.75109 0
M  V30 52 H 4.4622 -2.56529 -1.51647 0
M  V30 53 H 1.9992 -1.27224 -0.738414 0
M  V30 54 H 3.9572 -1.66265 -3.82638 0
M  V30 55 H 2.5872 -0.751331 -3.13934 0
M  V30 56 H 1.6392 -3.02395 -2.30784 0
M  V30 57 H 2.9512 -3.82822 -3.19764 0
M  V30 58 H 2.1052 -2.8655 -5.34765 0
M  V30 59 H 0.8442 -1.95702 -4.46712 0
M  V30 60 H -0.1508 -4.11201 -3.64957 0
M  V30 61 H 1.0742 -5.02917 -4.56346 0
M  V30 62 H -0.9798 -3.13299 -5.76351 0
M  V30 63 H -1.0628 -4.86397 -5.78752 0
M  V30 64 H 0.2052 -4.05379 -6.65799 0
M  V30 65 N 4.4343 0.785586 -1.36625 0
M  V30 66 C 5.6593 1.57963 -1.34397 0
M  V30 67 C 6.0843 1.87964 0.071526 0
M  V30 68 O 5.4423 1.48182 1.0446 0
M  V30 69 C 5.4903 2.87511 -2.17646 0
M  V30 70 O 4.5943 3.81281 -1.57158 0
M  V30 71 H 3.9353 0.479014 -0.459828 0
M  V30 72 H 6.4653 0.973411 -1.79961 0
M  V30 73 H 6.4753 3.36745 -2.30362 0
M  V30 74 H 5.1503 2.65002 -3.20541 0
M  V30 75 H 3.7273 3.39885 -1.53403 0
M  V30 76 N 5.9124 1.20967 1.01018 0
M  V30 77 C 6.8424 0.988272 2.11555 0
M  V30 78 C 7.8234 -0.0849778 1.69888 0
M  V30 79 O 9.0084 0.0738202 1.9406 0
M  V30 80 C 6.1384 0.546528 3.42973 0
M  V30 81 C 5.0924 1.56375 3.9841 0
M  V30 82 C 4.4184 0.97842 5.25672 0
M  V30 83 C 5.7184 2.94922 4.31066 0
M  V30 84 H 7.4124 1.91276 2.30334 0
M  V30 85 H 4.9584 0.921073 1.1069 0
M  V30 86 H 6.9114 0.378839 4.19694 0
M  V30 87 H 5.6354 -0.413598 3.23971 0
M  V30 88 H 4.2944 1.71891 3.23804 0
M  V30 89 H 3.9424 0.0101688 5.02999 0
M  V30 90 H 3.6424 1.65784 5.63728 0
M  V30 91 H 5.1664 0.821939 6.05043 0
M  V30 92 H 6.5804 2.8288 4.9865 0
M  V30 93 H 4.9774 3.5983 4.80253 0
M  V30 94 H 6.0474 3.4616 3.39561 0
M  V30 95 N 7.3905 -1.2043 1.01659 0
M  V30 96 C 8.3235 -2.21924 0.531521 0
M  V30 97 C 9.3015 -1.57054 -0.421032 0
M  V30 98 O 10.4855 -1.85389 -0.341035 0
M  V30 99 C 7.6125 -3.37942 -0.226496 0
M  V30 100 C 6.6585 -4.21115 0.67561 0
M  V30 101 S 7.4915 -4.90674 2.14475 0
M  V30 102 C 8.6475 -6.10113 1.3969 0
M  V30 103 H 8.8805 -2.62725 1.3915 0
M  V30 104 H 6.4135 -1.30481 0.825479 0
M  V30 105 H 8.3715 -4.05196 -0.657738 0
M  V30 106 H 7.0325 -2.956 -1.06205 0
M  V30 107 H 6.2255 -5.03918 0.091108 0
M  V30 108 H 5.8275 -3.59115 1.04463 0
M  V30 109 H 8.1195 -6.7411 0.676897 0
M  V30 110 H 9.0625 -6.73022 2.20107 0
M  V30 111 H 9.4705 -5.57283 0.899786 0
M  V30 112 N 8.8686 -0.792821 -1.36206 0
M  V30 113 C 9.7986 -0.207853 -2.32573 0
M  V30 114 C 10.7796 0.659055 -1.56813 0
M  V30 115 O 11.9646 0.592176 -1.84951 0
M  V30 116 C 9.0946 0.655449 -3.41059 0
M  V30 117 C 8.0486 -0.111842 -4.27854 0
M  V30 118 C 7.3746 0.872274 -5.27537 0
M  V30 119 C 8.6746 -1.30299 -5.05786 0
M  V30 120 H 10.3686 -1.01294 -2.81744 0
M  V30 121 H 7.9146 -0.48854 -1.3546 0
M  V30 122 H 9.8676 1.07464 -4.07467 0
M  V30 123 H 8.5916 1.49328 -2.90463 0
M  V30 124 H 7.2506 -0.512053 -3.63006 0
M  V30 125 H 6.8986 1.70523 -4.73214 0
M  V30 126 H 6.5986 0.363291 -5.86476 0
M  V30 127 H 8.1226 1.28996 -5.96818 0
M  V30 128 H 9.5366 -0.959379 -5.65216 0
M  V30 129 H 7.9336 -1.7455 -5.74154 0
M  V30 130 H 9.0036 -2.09663 -4.37229 0
M  V30 131 N 10.3467 1.47872 -0.545128 0
M  V30 132 C 11.2767 2.32661 0.197793 0
M  V30 133 C 12.2577 1.43041 0.920504 0
M  V30 134 O 13.4427 1.71912 0.90333 0
M  V30 135 C 10.5727 3.24569 1.23582 0
M  V30 136 C 9.5267 4.23333 0.630323 0
M  V30 137 C 8.8527 5.0448 1.77211 0
M  V30 138 C 10.1527 5.20704 -0.407974 0
M  V30 139 H 11.8467 2.95024 -0.510045 0
M  V30 140 H 9.3927 1.4187 -0.246731 0
M  V30 141 H 11.3457 3.8272 1.76362 0
M  V30 142 H 10.0697 2.60236 1.97344 0
M  V30 143 H 8.7287 3.6639 0.123922 0
M  V30 144 H 8.3767 4.36561 2.49847 0
M  V30 145 H 8.0767 5.71339 1.37281 0
M  V30 146 H 9.6007 5.65487 2.3034 0
M  V30 147 H 11.0147 5.7329 0.033305 0
M  V30 148 H 9.4117 5.95699 -0.725486 0
M  V30 149 H 10.4817 4.66917 -1.30828 0
M  V30 150 N 11.8248 0.280983 1.55075 0
M  V30 151 C 12.7878 -0.590896 2.21452 0
M  V30 152 C 13.7878 -1.07682 1.19421 0
M  V30 153 O 14.9778 -0.97605 1.44288 0
M  V30 154 C 12.1098 -1.81587 2.88511 0
M  V30 155 H 13.3028 -0.0112554 2.99898 0
M  V30 156 H 10.8558 0.0316438 1.56268 0
M  V30 157 H 11.5908 -2.43587 2.14093 0
M  V30 158 H 11.3758 -1.4753 3.63287 0
M  V30 159 H 12.8658 -2.43575 3.39206 0
M  V30 160 N 13.3029 -1.57598 0.00835791 0
M  V30 161 C 14.5279 -1.95617 -0.689103 0
M  V30 162 C 14.9529 -0.883753 -1.66046 0
M  V30 163 O 14.3109 0.157352 -1.80616 0
M  V30 164 C 14.3589 -3.32736 -1.38994 0
M  V30 165 O 13.4629 -3.27631 -2.50463 0
M  V30 166 H 12.8039 -0.638379 -0.182668 0
M  V30 167 H 15.3339 -2.045 0.064036 0
M  V30 168 H 15.3439 -3.68494 -1.75147 0
M  V30 169 H 14.0189 -4.1034 -0.677778 0
M  V30 170 H 12.5959 -3.03561 -2.16576 0
M  V30 171 N 14.781 0.264519 -1.55364 0
M  V30 172 C 15.744 1.31046 -1.88042 0
M  V30 173 C 16.744 1.41943 -0.755569 0
M  V30 174 O 17.934 1.40947 -1.02369 0
M  V30 175 C 15.066 2.69067 -2.09323 0
M  V30 176 H 16.259 1.03297 -2.81549 0
M  V30 177 H 13.812 0.502989 -1.47986 0
M  V30 178 H 14.547 3.01982 -1.18226 0
M  V30 179 H 14.332 2.62542 -2.91229 0
M  V30 180 H 15.822 3.44623 -2.35848 0
M  V30 181 N 16.2591 1.48442 0.529413 0
M  V30 182 C 17.2221 1.62524 1.61612 0
M  V30 183 C 18.2221 0.498509 1.52877 0
M  V30 184 O 19.4121 0.76431 1.56537 0
M  V30 185 C 16.5441 1.59597 3.01233 0
M  V30 186 H 17.7371 2.59423 1.50465 0
M  V30 187 H 15.2901 1.37047 0.751514 0
M  V30 188 H 16.0251 0.641781 3.17886 0
M  V30 189 H 15.8101 2.41397 3.08982 0
M  V30 190 H 17.3001 1.72646 3.80241 0
M  V30 191 N 17.7372 -0.778329 1.37039 0
M  V30 192 C 18.7002 -1.87301 1.32102 0
M  V30 193 C 19.7002 -1.59198 0.226405 0
M  V30 194 O 20.8902 -1.67403 0.481861 0
M  V30 195 C 18.0222 -3.24309 1.05055 0
M  V30 196 H 19.2152 -1.93093 2.29467 0
M  V30 197 H 16.7682 -0.977358 1.21973 0
M  V30 198 H 17.5032 -3.24196 0.0819373 0
M  V30 199 H 17.2882 -3.46098 1.84279 0
M  V30 200 H 18.7782 -4.04382 1.04234 0
M  V30 201 N 19.2153 -1.21501 -1.00376 0
M  V30 202 C 20.1483 -0.918669 -2.08892 0
M  V30 203 C 21.1263 0.134277 -1.62045 0
M  V30 204 O 22.3103 0.00504255 -1.88499 0
M  V30 205 C 19.4373 -0.379645 -3.36566 0
M  V30 206 C 18.4833 -1.41559 -4.02323 0
M  V30 207 S 19.3163 -2.98521 -4.44574 0
M  V30 208 C 20.4723 -2.46228 -5.75433 0
M  V30 209 H 20.7053 -1.83761 -2.33707 0
M  V30 210 H 18.2383 -1.04489 -1.13673 0
M  V30 211 H 20.1963 -0.0752195 -4.10431 0
M  V30 212 H 18.8573 0.518008 -3.09799 0
M  V30 213 H 18.0503 -0.988076 -4.9422 0
M  V30 214 H 17.6523 -1.66815 -3.34737 0
M  V30 215 H 19.9443 -1.86791 -6.51241 0
M  V30 216 H 20.8873 -3.36572 -6.22997 0
M  V30 217 H 21.2953 -1.87894 -5.32312 0
M  V30 218 N 20.6934 1.19889 -1.02296 0
M  V30 219 C 21.6234 2.25141 -0.619174 0
M  V30 220 C 22.6044 1.66051 0.368915 0
M  V30 221 O 23.7894 1.92546 0.252941 0
M  V30 222 C 20.9194 3.4728 0.0368783 0
M  V30 223 C 19.8734 4.19005 -0.872865 0
M  V30 224 C 19.1994 5.34637 -0.0822402 0
M  V30 225 C 20.4994 4.74452 -2.18387 0
M  V30 226 H 22.1934 2.59171 -1.49903 0
M  V30 227 H 19.7394 1.24579 -0.722222 0
M  V30 228 H 21.6924 4.20098 0.330958 0
M  V30 229 H 20.4164 3.12433 0.95149 0
M  V30 230 H 19.0754 3.48061 -1.15105 0
M  V30 231 H 18.7234 4.96034 0.83422 0
M  V30 232 H 18.4234 5.83557 -0.688149 0
M  V30 233 H 19.9474 6.10255 0.205238 0
M  V30 234 H 21.3614 5.39055 -1.95172 0
M  V30 235 H 19.7584 5.33834 -2.74119 0
M  V30 236 H 20.8284 3.92844 -2.84257 0
M  V30 237 N 22.1715 0.800033 1.35784 0
M  V30 238 C 23.1345 0.211565 2.28221 0
M  V30 239 C 24.1345 -0.59728 1.49296 0
M  V30 240 O 25.3245 -0.416721 1.69142 0
M  V30 241 C 22.4565 -0.705846 3.33513 0
M  V30 242 H 23.6495 1.02677 2.81776 0
M  V30 243 H 21.2025 0.570211 1.45528 0
M  V30 244 H 21.9375 -1.54498 2.85133 0
M  V30 245 H 21.7225 -0.127655 3.91892 0
M  V30 246 H 23.2125 -1.11211 4.02519 0
M  V30 247 N 23.6496 -1.47581 0.552962 0
M  V30 248 C 24.8976 -2.02082 0.0272703 0
M  V30 249 C 25.2186 -1.4301 -1.32563 0
M  V30 250 O 24.4886 -0.603745 -1.86365 0
M  V30 251 H 23.0686 -0.746966 0.00709182 0
M  V30 252 H 25.7306 -1.81033 0.722008 0
M  V30 253 H 24.8266 -3.12034 -0.0639951 0
M  V30 254 N 25.1277 -0.289203 -1.54924 0
M  V30 255 C 26.5387 0.205791 -1.85562 0
M  V30 256 C 26.8897 1.54351 -1.2112 0
M  V30 257 O 26.0147 2.10435 -0.504601 0
M  V30 258 C 26.6097 0.380177 -3.3666 0
M  V30 259 C 25.1687 0.819395 -3.67373 0
M  V30 260 C 24.3157 -0.079159 -2.77187 0
M  V30 261 H 27.2667 -0.510577 -1.50262 0
M  V30 262 H 27.2877 1.21659 -3.60526 0
M  V30 263 H 26.7997 -0.593589 -3.83534 0
M  V30 264 H 24.9007 1.80413 -3.26009 0
M  V30 265 H 25.0137 0.646957 -4.74712 0
M  V30 266 H 23.3777 0.439565 -2.50878 0
M  V30 267 H 24.1607 -1.04906 -3.26878 0
M  V30 268 N 26.6058 1.57591 -0.0167156 0
M  V30 269 C 27.5688 2.08393 0.954204 0
M  V30 270 C 28.5688 0.996531 1.26198 0
M  V30 271 O 29.7588 1.25858 1.20438 0
M  V30 272 C 26.8908 2.5394 2.27436 0
M  V30 273 H 28.0838 2.95455 0.514451 0
M  V30 274 H 25.6368 1.54582 0.231089 0
M  V30 275 H 26.3718 1.70171 2.76066 0
M  V30 276 H 26.1568 3.33371 2.06412 0
M  V30 277 H 27.6468 2.93512 2.97053 0
M  V30 278 N 28.0839 -0.256276 1.55502 0
M  V30 279 C 29.0139 -1.32102 1.92539 0
M  V30 280 C 29.9949 -1.50684 0.789194 0
M  V30 281 O 31.1799 -1.63449 1.04872 0
M  V30 282 C 28.3099 -2.67752 2.21192 0
M  V30 283 C 27.2639 -2.63878 3.36975 0
M  V30 284 C 26.5899 -4.03236 3.51147 0
M  V30 285 C 27.8899 -2.21682 4.72921 0
M  V30 286 H 29.5839 -1.01351 2.81724 0
M  V30 287 H 27.1299 -0.486105 1.35547 0
M  V30 288 H 29.0829 -3.42365 2.45691 0
M  V30 289 H 27.8069 -3.0012 1.28824 0
M  V30 290 H 26.4659 -1.91722 3.12471 0
M  V30 291 H 26.1139 -4.32854 2.56216 0
M  V30 292 H 25.8139 -4.01535 4.29003 0
M  V30 293 H 27.3379 -4.79563 3.77957 0
M  V30 294 H 28.7519 -2.86023 4.96854 0
M  V30 295 H 27.1489 -2.3111 5.53812 0
M  V30 296 H 28.2189 -1.16833 4.70615 0
M  V30 297 N 29.562 -1.4872 -0.521534 0
M  V30 298 C 30.525 -1.63379 -1.60748 0
M  V30 299 C 31.525 -0.50661 -1.52611 0
M  V30 300 O 32.715 -0.772601 -1.5613 0
M  V30 301 C 29.847 -1.61192 -3.00383 0
M  V30 302 H 31.04 -2.60217 -1.49087 0
M  V30 303 H 28.593 -1.37444 -0.744235 0
M  V30 304 H 29.328 -0.65863 -3.17541 0
M  V30 305 H 29.113 -2.43032 -3.07698 0
M  V30 306 H 30.603 -1.7466 -3.7932 0
M  V30 307 N 31.0401 0.771051 -1.3745 0
M  V30 308 C 32.4561 1.07171 -1.18265 0
M  V30 309 C 32.6561 2.01491 -0.019287 0
M  V30 310 O 31.7121 2.44244 0.640408 0
M  V30 311 C 33.0251 1.66854 -2.50161 0
M  V30 312 C 34.5731 1.79109 -2.56689 0
M  V30 313 C 35.0481 2.42205 -3.88717 0
M  V30 314 N 36.5391 2.49655 -3.90162 0
M  V30 315 C 37.2741 2.9933 -4.8907 0
M  V30 316 N 36.7701 3.49172 -5.98374 0
M  V30 317 N 38.5631 2.9821 -4.76474 0
M  V30 318 H 30.7141 0.144796 -2.11906 0
M  V30 319 H 32.9771 0.126863 -0.939473 0
M  V30 320 H 32.6831 1.05017 -3.35655 0
M  V30 321 H 32.5571 2.6614 -2.673 0
M  V30 322 H 34.9441 2.40077 -1.71601 0
M  V30 323 H 35.0251 0.785757 -2.43433 0
M  V30 324 H 34.6691 1.81875 -4.74219 0
M  V30 325 H 34.5991 3.43345 -3.99276 0
M  V30 326 H 37.0901 2.14383 -3.11205 0
M  V30 327 H 37.4031 3.8548 -6.69795 0
M  V30 328 H 35.7481 3.47275 -6.02018 0
M  V30 329 H 38.9391 2.58572 -3.90203 0
M  V30 330 H 39.1121 3.36613 -5.53711 0
M  V30 331 N 32.5182 1.22032 0.997298 0
M  V30 332 C 33.7952 0.950823 1.70935 0
M  V30 333 C 34.1752 -0.535292 2.042 0
M  V30 334 O 33.5232 -1.50217 1.72183 0
M  V30 335 C 33.7332 1.84386 2.96315 0
M  V30 336 C 35.0812 2.09732 3.69185 0
M  V30 337 O 36.1052 1.81798 3.06314 0
M  V30 338 O 34.9642 2.57018 4.82291 0
M  V30 339 H 32.0582 0.357204 0.745878 0
M  V30 340 H 34.6042 1.32997 1.05404 0
M  V30 341 H 33.3762 2.84928 2.68201 0
M  V30 342 H 32.9992 1.46602 3.69586 0
M  V30 343 N 33.9963 -1.19345 1.0293 0
M  V30 344 C 35.2263 -1.92717 0.744563 0
M  V30 345 C 35.6343 -1.75751 -0.700579 0
M  V30 346 O 34.9773 -1.07703 -1.48815 0
M  V30 347 C 35.0393 -3.44828 1.01657 0
M  V30 348 C 34.7033 -3.85564 2.45335 0
M  V30 349 C 35.7003 -3.90286 3.43472 0
M  V30 350 C 33.3853 -4.1719 2.79746 0
M  V30 351 C 35.3793 -4.26065 4.74075 0
M  V30 352 C 33.0663 -4.52642 4.10559 0
M  V30 353 C 34.0643 -4.57054 5.07534 0
M  V30 354 O 33.7523 -4.91685 6.36004 0
M  V30 355 H 33.4843 -0.618977 0.271742 0
M  V30 356 H 36.0383 -1.52415 1.37691 0
M  V30 357 H 34.2683 -3.85314 0.327084 0
M  V30 358 H 35.9573 -3.99437 0.721427 0
M  V30 359 H 36.7233 -3.66002 3.18225 0
M  V30 360 H 32.6023 -4.1294 2.04943 0
M  V30 361 H 36.1463 -4.29423 5.49765 0
M  V30 362 H 32.0433 -4.76383 4.35579 0
M  V30 363 H 32.8113 -5.09631 6.40483 0
M  V30 364 N 35.4744 -0.807222 -1.35358 0
M  V30 365 C 36.7234 -0.384376 -1.98004 0
M  V30 366 C 37.0364 1.0543 -1.64754 0
M  V30 367 O 38.2424 1.58029 -2.20769 0
M  V30 368 C 36.6984 -0.636326 -3.5423 0
M  V30 369 C 36.3064 -2.08759 -3.96388 0
M  V30 370 C 38.0504 -0.278869 -4.23583 0
M  V30 371 C 35.9574 -2.28525 -5.45463 0
M  V30 372 H 34.8874 -0.139986 -0.740891 0
M  V30 373 H 37.5384 -0.991369 -1.54415 0
M  V30 374 H 35.9204 0.0406256 -3.95979 0
M  V30 375 H 37.0944 -2.8024 -3.6579 0
M  V30 376 H 35.4094 -2.40497 -3.39926 0
M  V30 377 H 38.0064 -0.404599 -5.33167 0
M  V30 378 H 38.3494 0.775012 -4.09022 0
M  V30 379 H 38.8824 -0.909764 -3.87257 0
M  V30 380 H 35.6214 -3.32361 -5.64992 0
M  V30 381 H 35.1414 -1.61569 -5.77629 0
M  V30 382 H 36.8204 -2.10109 -6.11934 0
M  V30 383 N 36.9525 1.47285 -0.560781 0
M  V30 384 C 37.8825 2.32857 0.173105 0
M  V30 385 C 38.8635 1.44009 0.905281 0
M  V30 386 O 40.0485 1.7286 0.885046 0
M  V30 387 C 37.1785 3.25861 1.20133 0
M  V30 388 C 36.1325 4.23978 0.585388 0
M  V30 389 C 35.4585 5.06332 1.7185 0
M  V30 390 C 36.7585 5.20242 -0.463178 0
M  V30 391 H 38.4525 2.94466 -0.541307 0
M  V30 392 H 35.9985 1.41601 -0.261764 0
M  V30 393 H 37.9515 3.84569 1.72293 0
M  V30 394 H 36.6755 2.62315 1.94573 0
M  V30 395 H 35.3345 3.66501 0.085054 0
M  V30 396 H 34.9825 4.39186 2.45203 0
M  V30 397 H 34.6825 5.72762 1.31213 0
M  V30 398 H 36.2065 5.67899 2.24329 0
M  V30 399 H 37.6205 5.73293 -0.027502 0
M  V30 400 H 36.0175 5.94896 -0.788627 0
M  V30 401 H 37.0875 4.65504 -1.35773 0
M  V30 402 N 38.4306 0.297415 1.54768 0
M  V30 403 C 39.3936 -0.567375 2.22066 0
M  V30 404 C 40.3936 -1.06409 1.20556 0
M  V30 405 O 41.5836 -0.960691 1.45315 0
M  V30 406 C 38.7156 -1.78517 2.90421 0
M  V30 407 H 39.9086 0.0205534 2.99893 0
M  V30 408 H 37.4616 0.0482163 1.56226 0
M  V30 409 H 38.1966 -2.41303 2.16664 0
M  V30 410 H 37.9816 -1.43669 3.64831 0
M  V30 411 H 39.4716 -2.39964 3.41771 0
M  V30 412 N 39.9087 -1.5758 0.0250728 0
M  V30 413 C 41.3197 -1.79476 -0.514323 0
M  V30 414 C 41.6707 -0.934956 -1.72491 0
M  V30 415 O 40.7957 -0.144245 -2.15919 0
M  V30 416 C 41.3907 -3.25503 -0.939842 0
M  V30 417 C 39.9497 -3.48408 -1.42438 0
M  V30 418 C 39.0967 -2.74583 -0.387201 0
M  V30 419 H 42.0477 -1.567 0.25113 0
M  V30 420 H 42.0687 -3.34992 -1.80445 0
M  V30 421 H 41.5807 -3.88056 -0.0585628 0
M  V30 422 H 39.6817 -2.91103 -2.32572 0
M  V30 423 H 39.7947 -4.57119 -1.43455 0
M  V30 424 H 38.1587 -2.39942 -0.854409 0
M  V30 425 H 38.9417 -3.39849 0.485543 0
M  V30 426 N 41.3868 0.248026 -1.55636 0
M  V30 427 C 42.3498 1.29044 -1.89421 0
M  V30 428 C 43.3498 1.41134 -0.770581 0
M  V30 429 O 44.5398 1.39854 -1.03858 0
M  V30 430 C 41.6718 2.66831 -2.12165 0
M  V30 431 H 42.8648 1.00305 -2.82629 0
M  V30 432 H 40.4178 0.487265 -1.48511 0
M  V30 433 H 41.1528 3.00711 -1.21422 0
M  V30 434 H 40.9378 2.59438 -2.93997 0
M  V30 435 H 42.4278 3.42103 -2.3949 0
M  V30 436 N 42.8649 1.48995 0.513639 0
M  V30 437 C 44.2809 1.35478 0.843682 0
M  V30 438 C 44.4809 0.378213 1.97919 0
M  V30 439 O 43.5369 -0.194689 2.51748 0
M  V30 440 C 44.8499 2.75901 1.1958 0
M  V30 441 C 46.3979 2.84509 1.30474 0
M  V30 442 C 46.8729 4.25671 1.69021 0
M  V30 443 N 48.3639 4.28422 1.76094 0
M  V30 444 C 49.0989 5.34601 2.07338 0
M  V30 445 N 48.5949 6.5104 2.36894 0
M  V30 446 N 50.3879 5.22007 2.08483 0
M  V30 447 H 42.5389 2.11092 -0.235328 0
M  V30 448 H 44.8019 0.947039 -0.0426669 0
M  V30 449 H 44.5079 3.49001 0.434913 0
M  V30 450 H 44.3819 3.10467 2.1422 0
M  V30 451 H 46.7689 2.11655 2.05637 0
M  V30 452 H 46.8499 2.53542 0.339155 0
M  V30 453 H 46.4939 4.99048 0.944135 0
M  V30 454 H 46.4239 4.54094 2.66658 0
M  V30 455 H 48.9149 3.44441 1.55464 0
M  V30 456 H 49.2279 7.2779 2.59887 0
M  V30 457 H 47.5729 6.54287 2.34378 0
M  V30 458 H 50.7639 4.30051 1.84861 0
M  V30 459 H 50.9369 6.04854 2.325 0
M  V30 460 N 44.343 -0.763751 1.37857 0
M  V30 461 C 45.754 -1.3405 1.29952 0
M  V30 462 C 46.105 -1.96138 -0.0492898 0
M  V30 463 O 45.23 -1.94372 -0.951239 0
M  V30 464 C 45.825 -2.43729 2.35333 0
M  V30 465 C 44.384 -2.97151 2.31037 0
M  V30 466 C 43.531 -1.70438 2.18738 0
M  V30 467 H 46.482 -0.563396 1.48363 0
M  V30 468 H 46.503 -3.23412 2.00462 0
M  V30 469 H 46.015 -1.9851 3.33489 0
M  V30 470 H 44.116 -3.46724 1.3643 0
M  V30 471 H 44.229 -3.52221 3.24772 0
M  V30 472 H 42.593 -1.93673 1.65418 0
M  V30 473 H 43.376 -1.27312 3.18821 0
M  V30 474 N 45.8211 -1.22559 -0.990812 0
M  V30 475 C 47.0981 -0.959875 -1.70428 0
M  V30 476 C 47.4781 0.524455 -2.04481 0
M  V30 477 O 46.8261 1.49302 -1.72977 0
M  V30 478 C 47.0361 -1.85955 -2.95333 0
M  V30 479 C 48.3841 -2.11687 -3.68068 0
M  V30 480 O 49.4081 -1.8342 -3.05345 0
M  V30 481 O 48.2671 -2.59572 -4.80921 0
M  V30 482 H 45.3611 -0.361154 -0.743974 0
M  V30 483 H 47.9071 -1.33554 -1.04697 0
M  V30 484 H 46.6791 -2.86346 -2.66687 0
M  V30 485 H 46.3021 -1.4856 -3.68803 0
M  V30 486 N 47.2992 1.18797 -1.03562 0
M  V30 487 C 48.2462 2.22253 -0.622259 0
M  V30 488 C 49.2162 1.61987 0.36736 0
M  V30 489 O 50.4012 1.88986 0.262492 0
M  V30 490 C 47.5412 3.45097 0.0138462 0
M  V30 491 C 46.6542 4.19722 -1.02263 0
M  V30 492 C 45.7892 5.30009 -0.355573 0
M  V30 493 C 44.8282 5.96399 -1.37749 0
M  V30 494 N 43.9652 6.98234 -0.735766 0
M  V30 495 H 48.8052 2.56968 -1.50903 0
M  V30 496 H 46.3422 1.26245 -0.755017 0
M  V30 497 H 48.3002 4.15279 0.399948 0
M  V30 498 H 46.9302 3.11018 0.864158 0
M  V30 499 H 45.9822 3.48418 -1.52673 0
M  V30 500 H 47.2942 4.65227 -1.79903 0
M  V30 501 H 46.4482 6.0664 0.0850095 0
M  V30 502 H 45.1872 4.85592 0.452967 0
M  V30 503 H 44.1922 5.18512 -1.82826 0
M  V30 504 H 45.4172 6.42899 -2.18764 0
M  V30 505 H 43.3632 6.55979 0.0525597 0
M  V30 506 H 43.2802 7.41965 -1.44995 0
M  V30 507 H 44.5482 7.78845 -0.31941 0
M  V30 508 N 48.7773 0.814389 1.34928 0
M  V30 509 C 49.7073 0.244827 2.32213 0
M  V30 510 C 50.6883 -0.634024 1.57842 0
M  V30 511 O 51.8733 -0.562676 1.8587 0
M  V30 512 C 49.0033 -0.601106 3.42058 0
M  V30 513 C 47.9573 0.179896 4.27622 0
M  V30 514 C 47.2833 -0.788237 5.28858 0
M  V30 515 C 48.5833 1.38329 5.03649 0
M  V30 516 H 50.2773 1.05763 2.80097 0
M  V30 517 H 47.8233 0.510029 1.34665 0
M  V30 518 H 49.7763 -1.00968 4.09125 0
M  V30 519 H 48.5003 -1.44688 2.92802 0
M  V30 520 H 47.1593 0.569739 3.62146 0
M  V30 521 H 46.8073 -1.62973 4.75866 0
M  V30 522 H 46.5073 -0.269942 5.8698 0
M  V30 523 H 48.0313 -1.19485 5.98795 0
M  V30 524 H 49.4453 1.04918 5.63618 0
M  V30 525 H 47.8423 1.83662 5.71304 0
M  V30 526 H 48.9123 2.16592 4.33839 0
M  V30 527 N 50.2554 -1.46986 0.568584 0
M  V30 528 C 51.5014 -2.02741 0.0488709 0
M  V30 529 C 51.8344 -1.44077 -1.30214 0
M  V30 530 O 51.1094 -0.600552 -1.84996 0
M  V30 531 C 51.3924 -3.60086 -0.032047 0
M  V30 532 C 51.2454 -4.29162 1.34686 0
M  V30 533 C 52.5644 -4.33838 -0.739798 0
M  V30 534 H 49.6834 -0.736749 0.0192338 0
M  V30 535 H 52.3254 -1.75289 0.733065 0
M  V30 536 H 50.4754 -3.83606 -0.61473 0
M  V30 537 H 52.1474 -4.16948 1.97362 0
M  V30 538 H 50.3904 -3.89073 1.91846 0
M  V30 539 H 51.0614 -5.37826 1.24285 0
M  V30 540 H 53.5374 -4.15378 -0.244939 0
M  V30 541 H 52.4134 -5.43537 -0.765406 0
M  V30 542 H 52.6744 -4.03875 -1.79827 0
M  V30 543 N 51.7335 -0.305618 -1.54608 0
M  V30 544 C 52.9795 0.302746 -2.00528 0
M  V30 545 C 53.3125 1.53184 -1.19367 0
M  V30 546 O 52.5875 1.92598 -0.271321 0
M  V30 547 C 52.8705 0.654756 -3.54097 0
M  V30 548 C 52.7235 -0.583793 -4.45995 0
M  V30 549 C 54.0425 1.47947 -4.14487 0
M  V30 550 H 51.1615 0.108564 -0.72896 0
M  V30 551 H 53.8035 -0.418634 -1.85331 0
M  V30 552 H 51.9535 1.26935 -3.67178 0
M  V30 553 H 53.6255 -1.22224 -4.44814 0
M  V30 554 H 51.8685 -1.21615 -4.16404 0
M  V30 555 H 52.5395 -0.293287 -5.5122 0
M  V30 556 H 55.0155 0.96013 -4.04871 0
M  V30 557 H 53.8915 1.69454 -5.22088 0
M  V30 558 H 54.1525 2.47011 -3.66658 0
M  V30 559 N 53.2116 1.57565 -0.0334293 0
M  V30 560 C 54.4606 1.91155 0.643639 0
M  V30 561 C 54.7736 0.91192 1.73042 0
M  V30 562 O 55.9796 1.13923 2.46442 0
M  V30 563 C 54.4356 3.39443 1.1961 0
M  V30 564 C 54.0436 4.47774 0.142381 0
M  V30 565 C 55.7876 3.82094 1.84944 0
M  V30 566 C 53.6946 5.87162 0.706727 0
M  V30 567 H 52.6246 0.713368 0.244176 0
M  V30 568 H 55.2756 1.8323 -0.0994323 0
M  V30 569 H 53.6576 3.42313 1.99092 0
M  V30 570 H 54.8316 4.56469 -0.630296 0
M  V30 571 H 53.1466 4.14352 -0.412446 0
M  V30 572 H 55.7436 4.83591 2.2813 0
M  V30 573 H 56.0866 3.17386 2.69392 0
M  V30 574 H 56.6196 3.81665 1.12145 0
M  V30 575 H 53.3586 6.55424 -0.0997178 0
M  V30 576 H 52.8786 5.82064 1.44779 0
M  V30 577 H 54.5576 6.35866 1.19514 0
M  V30 578 N 54.6897 -0.239769 1.55765 0
M  V30 579 C 55.9667 -0.990056 1.68693 0
M  V30 580 C 56.3467 -2.03107 0.5754 0
M  V30 581 O 55.6947 -2.24604 -0.42017 0
M  V30 582 C 55.9047 -1.61696 3.09282 0
M  V30 583 C 57.2527 -2.11613 3.6811 0
M  V30 584 O 58.2767 -1.71624 3.12127 0
M  V30 585 O 57.1357 -2.85057 4.66267 0
M  V30 586 H 54.2297 -0.461299 0.686391 0
M  V30 587 H 56.7757 -0.232991 1.68093 0
M  V30 588 H 55.5477 -0.864357 3.81634 0
M  V30 589 H 55.1707 -2.44005 3.13923 0
M  V30 590 N 56.1678 -1.49265 -0.50573 0
M  V30 591 C 57.3958 -1.62215 -1.28429 0
M  V30 592 C 57.8108 -0.291697 -1.86533 0
M  V30 593 O 57.1678 0.722233 -1.67601 0
M  V30 594 C 57.2188 -2.68735 -2.41793 0
M  V30 595 O 56.9398 -3.96619 -1.86078 0
M  V30 596 C 58.4408 -2.92346 -3.3324 0
M  V30 597 H 55.6608 -0.546239 -0.389697 0
M  V30 598 H 58.2048 -1.95265 -0.607609 0
M  V30 599 H 56.3598 -2.38476 -3.053 0
M  V30 600 H 56.7738 -4.55256 -2.60465 0
M  V30 601 H 58.2478 -3.70623 -4.09075 0
M  V30 602 H 58.7248 -2.02081 -3.89948 0
M  V30 603 H 59.3308 -3.24003 -2.75503 0
M  V30 604 N 57.6459 0.756429 -1.3826 0
M  V30 605 C 58.5559 1.9009 -1.37488 0
M  V30 606 C 59.5719 1.71855 -0.272366 0
M  V30 607 O 60.7479 1.94827 -0.510318 0
M  V30 608 C 57.8129 3.25421 -1.19592 0
M  V30 609 C 56.8739 3.56202 -2.39622 0
M  V30 610 C 56.1069 4.85075 -2.2257 0
M  V30 611 O 56.3299 5.57246 -1.21793 0
M  V30 612 O 55.2639 5.15269 -3.11098 0
M  V30 613 H 59.0899 1.93695 -2.33914 0
M  V30 614 H 56.6749 0.901313 -1.1915 0
M  V30 615 H 58.5569 4.06337 -1.11661 0
M  V30 616 H 57.2319 3.22634 -0.262486 0
M  V30 617 H 56.1389 2.75458 -2.53128 0
M  V30 618 H 57.4719 3.63747 -3.31586 0
M  V30 619 N 59.124 1.23083 0.984299 0
M  V30 620 C 60.071 1.00854 2.07598 0
M  V30 621 C 61.041 -0.0726709 1.65941 0
M  V30 622 O 62.226 0.0786535 1.90638 0
M  V30 623 C 59.366 0.601645 3.39815 0
M  V30 624 C 58.479 1.75456 3.94765 0
M  V30 625 C 57.614 1.29482 5.15177 0
M  V30 626 C 56.653 2.41873 5.62284 0
M  V30 627 N 55.79 1.96885 6.73929 0
M  V30 628 H 60.63 1.943 2.25946 0
M  V30 629 H 58.167 0.968001 1.10762 0
M  V30 630 H 60.125 0.346854 4.15756 0
M  V30 631 H 58.755 -0.295803 3.21442 0
M  V30 632 H 57.807 2.12346 3.15616 0
M  V30 633 H 59.119 2.59965 4.25699 0
M  V30 634 H 58.273 0.997923 5.98437 0
M  V30 635 H 57.012 0.420046 4.85888 0
M  V30 636 H 56.017 2.72342 4.77608 0
M  V30 637 H 57.242 3.29881 5.93595 0
M  V30 638 H 55.188 1.11782 6.46406 0
M  V30 639 H 55.105 2.74956 7.04227 0
M  V30 640 H 56.373 1.70289 7.60672 0
M  V30 641 N 60.6021 -1.18246 1.0419 0
M  V30 642 C 61.5351 -2.20746 0.578474 0
M  V30 643 C 62.5131 -1.57912 -0.387624 0
M  V30 644 O 63.6971 -1.86071 -0.301634 0
M  V30 645 C 60.8241 -3.38346 -0.154762 0
M  V30 646 C 59.8701 -4.19587 0.764782 0
M  V30 647 S 60.7031 -4.86014 2.24835 0
M  V30 648 C 61.8591 -6.07012 1.526 0
M  V30 649 H 62.0921 -2.59715 1.44691 0
M  V30 650 H 59.6251 -1.287 0.85297 0
M  V30 651 H 61.5831 -4.065 -0.571641 0
M  V30 652 H 60.2441 -2.97786 -0.999105 0
M  V30 653 H 59.4371 -5.03611 0.197976 0
M  V30 654 H 59.0391 -3.56818 1.12057 0
M  V30 655 H 61.3311 -6.72523 0.819733 0
M  V30 656 H 62.2741 -6.68202 2.34333 0
M  V30 657 H 62.6821 -5.55249 1.01779 0
M  V30 658 N 62.0802 -0.821533 -1.34494 0
M  V30 659 C 63.0432 -0.247847 -2.27856 0
M  V30 660 C 64.0432 0.573453 -1.50227 0
M  V30 661 O 65.2332 0.389759 -1.69784 0
M  V30 662 C 62.3652 0.652698 -3.34593 0
M  V30 663 H 63.5582 -1.07146 -2.80107 0
M  V30 664 H 61.1112 -0.593291 -1.44602 0
M  V30 665 H 61.8462 1.49943 -2.87555 0
M  V30 666 H 61.6312 0.065292 -3.92046 0
M  V30 667 H 63.1212 1.04793 -4.04238 0
M  V30 668 N 63.5583 1.46682 -0.576371 0
M  V30 669 C 64.8043 2.02712 -0.0596221 0
M  V30 670 C 65.1373 1.44765 1.29448 0
M  V30 671 O 64.4123 0.610355 1.84675 0
M  V30 672 C 64.6953 3.60098 0.0129503 0
M  V30 673 C 64.5483 4.28441 -1.3696 0
M  V30 674 C 65.8673 4.34224 0.71678 0
M  V30 675 H 62.9863 0.736637 -0.0231407 0
M  V30 676 H 65.6283 1.74898 -0.742351 0
M  V30 677 H 63.7783 3.83926 0.594378 0
M  V30 678 H 65.4503 4.15896 -1.9957 0
M  V30 679 H 63.6933 3.8805 -1.93907 0
M  V30 680 H 64.3643 5.3716 -1.27135 0
M  V30 681 H 66.8403 4.15503 0.222908 0
M  V30 682 H 65.7163 5.43936 0.73657 0
M  V30 683 H 65.9773 4.04823 1.77682 0
M  V30 684 N 65.0364 0.313813 1.54444 0
M  V30 685 C 66.3134 -0.345447 1.92525 0
M  V30 686 C 66.6934 -1.70667 1.24242 0
M  V30 687 O 66.0414 -2.25273 0.382654 0
M  V30 688 C 66.2514 -0.44737 3.46121 0
M  V30 689 C 67.5994 -0.712238 4.18584 0
M  V30 690 O 68.6234 -0.530678 3.52225 0
M  V30 691 O 67.4824 -1.06183 5.36085 0
M  V30 692 H 64.5764 -0.195407 0.803583 0
M  V30 693 H 67.1224 0.362813 1.65776 0
M  V30 694 H 65.8944 0.509043 3.87975 0
M  V30 695 H 65.5174 -1.20359 3.78945 0
M  V30 696 N 66.5145 -1.57545 0.0417849 0
M  V30 697 C 67.4615 -2.10977 -0.935805 0
M  V30 698 C 68.4315 -1.01486 -1.31491 0
M  V30 699 O 69.6165 -1.2898 -1.40602 0
M  V30 700 C 66.7565 -2.65169 -2.2086 0
M  V30 701 C 65.8695 -3.88714 -1.88482 0
M  V30 702 C 65.0045 -4.31254 -3.1015 0
M  V30 703 C 64.0435 -5.47524 -2.7365 0
M  V30 704 N 63.1805 -5.85162 -3.87982 0
M  V30 705 H 68.0205 -2.94218 -0.473249 0
M  V30 706 H 65.5575 -1.45415 -0.221981 0
M  V30 707 H 67.5155 -2.94685 -2.95325 0
M  V30 708 H 66.1455 -1.8474 -2.64709 0
M  V30 709 H 65.1975 -3.65849 -1.04205 0
M  V30 710 H 66.5095 -4.73245 -1.57608 0
M  V30 711 H 65.6635 -4.62273 -3.92923 0
M  V30 712 H 64.4025 -3.45516 -3.44195 0
M  V30 713 H 63.4075 -5.16187 -1.89291 0
M  V30 714 H 64.6325 -6.34971 -2.40807 0
M  V30 715 H 62.5785 -5.02377 -4.21846 0
M  V30 716 H 62.4955 -6.64362 -3.60775 0
M  V30 717 H 63.7635 -6.20791 -4.71422 0
M  V30 718 N 67.9926 0.231505 -1.5589 0
M  V30 719 C 69.2386 0.95877 -1.78705 0
M  V30 720 C 69.5716 1.8438 -0.609725 0
M  V30 721 O 68.8466 1.90521 0.391426 0
M  V30 722 C 69.1296 1.8062 -3.11526 0
M  V30 723 C 68.9826 0.948328 -4.39689 0
M  V30 724 C 70.3016 2.78585 -3.40703 0
M  V30 725 H 67.4206 0.347129 -0.650131 0
M  V30 726 H 70.0626 0.228259 -1.88624 0
M  V30 727 H 68.2126 2.42902 -3.03201 0
M  V30 728 H 69.8846 0.343016 -4.60023 0
M  V30 729 H 68.1276 0.253314 -4.3306 0
M  V30 730 H 68.7986 1.57543 -5.29041 0
M  V30 731 H 71.2746 2.26439 -3.49091 0
M  V30 732 H 70.1506 3.34988 -4.34826 0
M  V30 733 H 70.4116 3.55825 -2.62375 0
M  V30 734 N 69.4707 1.49531 0.497807 0
M  V30 735 C 70.7197 1.58426 1.24837 0
M  V30 736 C 71.0327 0.277643 1.93619 0
M  V30 737 O 72.2387 0.24517 2.70391 0
M  V30 738 C 70.6947 2.79538 2.26686 0
M  V30 739 C 70.3027 4.16971 1.63828 0
M  V30 740 C 72.0467 2.97764 3.0255 0
M  V30 741 C 69.9537 5.29301 2.63807 0
M  V30 742 H 68.8837 0.58989 0.469623 0
M  V30 743 H 71.5347 1.75923 0.521857 0
M  V30 744 H 69.9167 2.55542 3.02514 0
M  V30 745 H 71.0907 4.51116 0.939711 0
M  V30 746 H 69.4057 4.04129 1.00342 0
M  V30 747 H 72.0027 3.78856 3.77323 0
M  V30 748 H 72.3457 2.08448 3.60354 0
M  V30 749 H 72.8787 3.21815 2.33838 0
M  V30 750 H 69.6177 6.20687 2.10779 0
M  V30 751 H 69.1377 4.99606 3.31894 0
M  V30 752 H 70.8167 5.58768 3.2617 0
M  V30 753 N 70.9488 -0.749086 1.3866 0
M  V30 754 C 72.1768 -1.53834 1.38358 0
M  V30 755 C 72.5918 -1.88783 -0.0255219 0
M  V30 756 O 71.9488 -1.53101 -0.993292 0
M  V30 757 C 71.9998 -2.83468 2.2434 0
M  V30 758 O 71.7208 -2.50008 3.5976 0
M  V30 759 C 73.2218 -3.7758 2.32267 0
M  V30 760 H 70.4418 -0.47585 0.473083 0
M  V30 761 H 72.9858 -0.926726 1.82297 0
M  V30 762 H 71.1408 -3.40995 1.83851 0
M  V30 763 H 71.5548 -3.33182 4.05081 0
M  V30 764 H 73.0288 -4.65478 2.96706 0
M  V30 765 H 73.5058 -4.18334 1.33765 0
M  V30 766 H 74.1118 -3.25976 2.73166 0
M  V30 767 N 72.4269 -1.23603 -0.977757 0
M  V30 768 C 73.6759 -1.06377 -1.71368 0
M  V30 769 C 73.9889 0.399062 -1.91486 0
M  V30 770 O 75.1949 0.691312 -2.62551 0
M  V30 771 C 73.6509 -1.85512 -3.08404 0
M  V30 772 C 73.2589 -3.36141 -2.96164 0
M  V30 773 C 75.0029 -1.76783 -3.85938 0
M  V30 774 C 72.9099 -4.07659 -4.28449 0
M  V30 775 H 71.8399 -0.394452 -0.642591 0
M  V30 776 H 74.4909 -1.47594 -1.09034 0
M  V30 777 H 72.8729 -1.37103 -3.71509 0
M  V30 778 H 74.0469 -3.92056 -2.42133 0
M  V30 779 H 72.3619 -3.45712 -2.32104 0
M  V30 780 H 74.9589 -2.27526 -4.83876 0
M  V30 781 H 75.3019 -0.731116 -4.0983 0
M  V30 782 H 75.8349 -2.22818 -3.2954 0
M  V30 783 H 72.5739 -5.11648 -4.09752 0
M  V30 784 H 72.0939 -3.5653 -4.82334 0
M  V30 785 H 73.7729 -4.141 -4.97122 0
M  V30 786 N 73.905 1.17692 -1.04816 0
M  V30 787 C 74.868 2.19787 -0.650117 0
M  V30 788 C 75.868 1.58044 0.296427 0
M  V30 789 O 77.058 1.74012 0.0808097 0
M  V30 790 C 74.19 3.40869 0.0456987 0
M  V30 791 H 75.383 2.56516 -1.5537 0
M  V30 792 H 72.936 1.31708 -0.841594 0
M  V30 793 H 73.671 3.09681 0.962726 0
M  V30 794 H 73.456 3.86928 -0.634727 0
M  V30 795 H 74.946 4.16445 0.310432 0
M  V30 796 N 75.3831 0.828654 1.34056 0
M  V30 797 C 76.6601 0.341809 1.9259 0
M  V30 798 C 77.0401 -1.17158 1.75605 0
M  V30 799 O 76.3881 -1.98132 1.13824 0
M  V30 800 C 76.5981 0.777453 3.4023 0
M  V30 801 C 77.9461 0.779579 4.17382 0
M  V30 802 O 78.9701 0.7204 3.48839 0
M  V30 803 O 77.8291 0.857996 5.39723 0
M  V30 804 H 74.9231 0.0946085 0.821571 0
M  V30 805 H 77.4691 0.913827 1.42994 0
M  V30 806 H 76.2411 1.8196 3.46419 0
M  V30 807 H 75.8641 0.181444 3.97186 0
M  V30 808 N 76.8612 -1.46375 0.584142 0
M  V30 809 C 77.8242 -2.28784 -0.138108 0
M  V30 810 C 78.8242 -1.38471 -0.817462 0
M  V30 811 O 80.0142 -1.60833 -0.669199 0
M  V30 812 C 77.1462 -3.18892 -1.20503 0
M  V30 813 H 78.3392 -2.94117 0.586127 0
M  V30 814 H 75.8922 -1.52509 0.342171 0
M  V30 815 H 76.6272 -2.58309 -1.96079 0
M  V30 816 H 76.4122 -3.85388 -0.722384 0
M  V30 817 H 77.9022 -3.80914 -1.71155 0
M  V30 818 N 78.3393 -0.321999 -1.54275 0
M  V30 819 C 79.5873 0.280489 -2.00144 0
M  V30 820 C 79.9083 1.52777 -1.21178 0
M  V30 821 O 79.1783 1.9338 -0.313187 0
M  V30 822 H 77.7583 0.106632 -0.73935 0
M  V30 823 H 80.4203 -0.438184 -1.8991 0
M  V30 824 H 79.5163 0.537972 -3.07428 0
M  V30 825 N 79.8174 1.5752 -0.0501392 0
M  V30 826 C 81.2284 1.80271 0.485705 0
M  V30 827 C 81.5794 0.96228 1.70981 0
M  V30 828 O 80.7044 0.178578 2.15662 0
M  V30 829 C 81.2994 3.26957 0.887938 0
M  V30 830 C 79.8584 3.5063 1.36877 0
M  V30 831 C 79.0054 2.75165 0.343468 0
M  V30 832 H 81.9564 1.56281 -0.276028 0
M  V30 833 H 81.9774 3.37821 1.75093 0
M  V30 834 H 81.4894 3.881 -0.0031809 0
M  V30 835 H 79.5904 2.94766 2.27911 0
M  V30 836 H 79.7034 4.59343 1.36164 0
M  V30 837 H 78.0674 2.4127 0.816128 0
M  V30 838 H 78.8504 3.39034 -0.539548 0
M  V30 839 N 81.2955 -0.223234 1.56011 0
M  V30 840 C 82.5235 -0.964812 1.83027 0
M  V30 841 C 82.9385 -1.78013 0.62904 0
M  V30 842 O 82.2955 -1.78008 -0.402414 0
M  V30 843 C 82.3465 -1.88373 3.08542 0
M  V30 844 O 82.0675 -1.10137 4.2403 0
M  V30 845 C 83.5685 -2.73934 3.48533 0
M  V30 846 H 80.7885 -0.282842 0.608475 0
M  V30 847 H 83.3325 -0.238971 2.03099 0
M  V30 848 H 81.4875 -2.56354 2.9045 0
M  V30 849 H 81.9015 -1.72501 4.95322 0
M  V30 850 H 83.3755 -3.34117 4.39397 0
M  V30 851 H 83.8525 -3.46244 2.70207 0
M  V30 852 H 84.4585 -2.11369 3.69057 0
M  V30 853 N 82.7736 -1.49793 -0.48987 0
M  V30 854 C 84.1846 -1.52914 -1.07118 0
M  V30 855 C 84.5356 -0.321738 -1.93544 0
M  V30 856 O 83.6606 0.567338 -2.08831 0
M  V30 857 C 84.2556 -2.771 -1.94938 0
M  V30 858 C 82.8146 -2.82963 -2.48212 0
M  V30 859 C 81.9616 -2.46972 -1.26096 0
M  V30 860 H 84.9126 -1.56329 -0.273289 0
M  V30 861 H 84.9336 -2.57892 -2.79771 0
M  V30 862 H 84.4456 -3.64959 -1.32009 0
M  V30 863 H 82.5466 -1.99411 -3.14748 0
M  V30 864 H 82.6596 -3.85406 -2.84603 0
M  V30 865 H 81.0236 -1.98994 -1.58976 0
M  V30 866 H 81.8066 -3.37118 -0.648581 0
M  V30 867 N 84.2517 0.741722 -1.39055 0
M  V30 868 C 85.1847 1.86416 -1.31622 0
M  V30 869 C 86.1627 1.61473 -0.191076 0
M  V30 870 O 87.3467 1.84825 -0.370399 0
M  V30 871 C 84.4737 3.22266 -1.04221 0
M  V30 872 C 83.5197 3.66079 -2.18834 0
M  V30 873 S 84.3527 3.7623 -3.81066 0
M  V30 874 C 85.5087 5.14881 -3.55877 0
M  V30 875 H 85.7417 1.92437 -2.26617 0
M  V30 876 H 83.2747 0.905907 -1.25031 0
M  V30 877 H 85.2327 4.00714 -0.890964 0
M  V30 878 H 83.8937 3.1391 -0.109237 0
M  V30 879 H 83.0867 4.64648 -1.95238 0
M  V30 880 H 82.6887 2.94817 -2.30128 0
M  V30 881 H 84.9807 6.01006 -3.12726 0
M  V30 882 H 85.9237 5.43503 -4.53884 0
M  V30 883 H 86.3317 4.84239 -2.90126 0
M  V30 884 N 85.7298 1.2412 0.971189 0
M  V30 885 C 86.9758 1.08041 1.71625 0
M  V30 886 C 87.3088 -0.380407 1.90438 0
M  V30 887 O 86.5838 -1.28127 1.46334 0
M  V30 888 C 86.8668 1.81682 3.10908 0
M  V30 889 C 86.7198 3.35493 2.99608 0
M  V30 890 C 88.0388 1.58671 4.10501 0
M  V30 891 H 85.1578 0.39388 0.622919 0
M  V30 892 H 87.7998 1.52743 1.13003 0
M  V30 893 H 85.9498 1.43684 3.60953 0
M  V30 894 H 87.6218 3.83068 2.57015 0
M  V30 895 H 85.8648 3.64052 2.35899 0
M  V30 896 H 86.5358 3.82217 3.98264 0
M  V30 897 H 89.0118 1.91719 3.69301 0
M  V30 898 H 87.8878 2.1266 5.06031 0
M  V30 899 H 88.1488 0.524161 4.38982 0
M  V30 900 N 87.2079 -1.17134 1.05439 0
M  V30 901 C 88.6189 -1.69084 0.791676 0
M  V30 902 C 88.9699 -1.83822 -0.685839 0
M  V30 903 O 88.0949 -1.52757 -1.53278 0
M  V30 904 C 88.6899 -3.07119 1.4305 0
M  V30 905 C 87.2489 -3.56225 1.21577 0
M  V30 906 C 86.3959 -2.32421 1.51247 0
M  V30 907 H 89.3469 -1.01617 1.219 0
M  V30 908 H 89.3679 -3.71087 0.84112 0
M  V30 909 H 88.8799 -2.9636 2.50584 0
M  V30 910 H 86.9809 -3.72257 0.159787 0
M  V30 911 H 87.0939 -4.38837 1.92246 0
M  V30 912 H 85.4579 -2.3701 0.932653 0
M  V30 913 H 86.2409 -2.24268 2.5992 0
M  V30 914 N 88.686 -0.835752 -1.33615 0
M  V30 915 C 89.619 -0.211815 -2.27215 0
M  V30 916 C 90.597 0.639249 -1.49507 0
M  V30 917 O 91.781 0.600193 -1.78689 0
M  V30 918 C 88.908 0.702893 -3.31326 0
M  V30 919 C 87.954 -0.0723049 -4.26439 0
M  V30 920 S 88.787 -1.42811 -5.16106 0
M  V30 921 C 89.943 -0.518613 -6.23748 0
M  V30 922 H 90.176 -1.00533 -2.79786 0
M  V30 923 H 87.709 -0.632336 -1.40858 0
M  V30 924 H 89.667 1.22505 -3.91794 0
M  V30 925 H 88.328 1.47004 -2.77576 0
M  V30 926 H 87.521 0.62359 -5.00127 0
M  V30 927 H 87.123 -0.525424 -3.70291 0
M  V30 928 H 89.415 0.284778 -6.76901 0
M  V30 929 H 90.358 -1.22556 -6.97413 0
M  V30 930 H 90.766 -0.101344 -5.64409 0
M  V30 931 N 90.1641 1.46063 -0.591896 0
M  V30 932 C 91.4101 2.02638 -0.0811191 0
M  V30 933 C 91.7431 1.4613 1.27905 0
M  V30 934 O 91.0181 0.629908 1.84017 0
M  V30 935 C 91.3011 3.60091 -0.0252436 0
M  V30 936 C 91.1541 4.26965 -1.41496 0
M  V30 937 C 92.4731 4.3496 0.670685 0
M  V30 938 H 89.5921 0.73635 -0.0309524 0
M  V30 939 H 92.2341 1.741 -0.760859 0
M  V30 940 H 90.3841 3.84535 0.553624 0
M  V30 941 H 92.0561 4.13756 -2.0397 0
M  V30 942 H 90.2991 3.85971 -1.98011 0
M  V30 943 H 90.9701 5.35781 -1.32825 0
M  V30 944 H 93.4461 4.15716 0.178825 0
M  V30 945 H 92.3221 5.44686 0.678837 0
M  V30 946 H 92.5831 4.06685 1.73379 0
M  V30 947 N 91.6422 0.330177 1.54103 0
M  V30 948 C 92.6052 -0.520144 2.2322 0
M  V30 949 C 93.6052 -1.03828 1.22786 0
M  V30 950 O 94.7952 -0.929652 1.4732 0
M  V30 951 C 91.9272 -1.72317 2.94142 0
M  V30 952 H 93.1202 0.0841605 2.99782 0
M  V30 953 H 90.6732 0.0813433 1.56088 0
M  V30 954 H 91.4082 -2.36653 2.21734 0
M  V30 955 H 91.1932 -1.35898 3.67796 0
M  V30 956 H 92.6832 -2.3266 3.46784 0
M  V30 957 N 93.1203 -1.57491 0.0584922 0
M  V30 958 C 94.5313 -1.80526 -0.476138 0
M  V30 959 C 94.8823 -0.971334 -1.70469 0
M  V30 960 O 94.0073 -0.190012 -2.15564 0
M  V30 961 C 94.6023 -3.27424 -0.870587 0
M  V30 962 C 93.1613 -3.51351 -1.35015 0
M  V30 963 C 92.3083 -2.75343 -0.32887 0
M  V30 964 H 95.2593 -1.56133 0.284312 0
M  V30 965 H 95.2803 -3.38745 -1.73299 0
M  V30 966 H 94.7923 -3.88093 0.0237627 0
M  V30 967 H 92.8933 -2.95971 -2.26345 0
M  V30 968 H 93.0063 -4.60059 -1.33726 0
M  V30 969 H 91.3703 -2.417 -0.803321 0
M  V30 970 H 92.1533 -3.38743 0.557521 0
M  V30 971 N 94.5984 0.214957 -1.56127 0
M  V30 972 C 95.8464 0.936518 -1.79091 0
M  V30 973 C 96.1674 1.84606 -0.628148 0
M  V30 974 O 95.4374 1.92664 0.35462 0
M  V30 975 H 94.0174 0.3488 -0.660566 0
M  V30 976 H 96.6794 0.22523 -1.93594 0
M  V30 977 H 95.7754 1.53943 -2.71492 0
M  V30 978 N 96.0765 1.50051 0.48192 0
M  V30 979 C 97.3245 1.60181 1.23234 0
M  V30 980 C 97.6455 0.299176 1.92691 0
M  V30 981 O 96.9155 -0.682708 1.83619 0
M  V30 982 H 95.4955 0.590232 0.457859 0
M  V30 983 H 98.1575 1.86775 0.556881 0
M  V30 984 H 97.2535 2.40753 1.98607 0
M  V30 985 N 97.5546 -0.734337 1.39446 0
M  V30 986 C 98.9706 -1.03997 1.21065 0
M  V30 987 C 99.1706 -2.01369 0.0727019 0
M  V30 988 O 98.2266 -2.45856 -0.575426 0
M  V30 989 C 99.5396 -1.60163 2.54496 0
M  V30 990 C 101.088 -1.7224 2.61347 0
M  V30 991 C 101.563 -2.31814 3.95002 0
M  V30 992 N 103.054 -2.39223 3.96644 0
M  V30 993 C 103.789 -2.86258 4.96834 0
M  V30 994 N 103.285 -3.33184 6.07421 0
M  V30 995 N 105.078 -2.85473 4.84213 0
M  V30 996 H 97.2286 -0.0885624 2.12215 0
M  V30 997 H 99.4916 -0.10191 0.942506 0
M  V30 998 H 99.1976 -0.960811 3.38321 0
M  V30 999 H 99.0716 -2.5896 2.74262 0
M  V30 1000 H 101.459 -2.35443 1.77906 0
M  V30 1001 H 101.54 -0.720939 2.4543 0
M  V30 1002 H 101.184 -1.69238 4.78875 0
M  V30 1003 H 101.114 -3.32638 4.08239 0
M  V30 1004 H 103.605 -2.06057 3.16779 0
M  V30 1005 H 103.918 -3.67586 6.7978 0
M  V30 1006 H 102.263 -3.31191 6.11013 0
M  V30 1007 H 105.454 -2.48136 3.96921 0
M  V30 1008 H 105.627 -3.21814 5.62441 0
M  V30 1009 N 99.0327 -1.24633 -0.964593 0
M  V30 1010 C 100.282 -1.08188 -1.7023 0
M  V30 1011 C 100.595 0.37873 -1.91898 0
M  V30 1012 O 101.801 0.663427 -2.6327 0
M  V30 1013 C 100.257 -1.88773 -3.06419 0
M  V30 1014 C 99.8647 -3.39263 -2.92582 0
M  V30 1015 C 101.609 -1.80867 -3.84041 0
M  V30 1016 C 99.5157 -4.1218 -4.24101 0
M  V30 1017 H 98.4457 -0.401245 -0.638372 0
M  V30 1018 H 101.097 -1.48742 -1.07462 0
M  V30 1019 H 99.4787 -1.41035 -3.70034 0
M  V30 1020 H 100.653 -3.94603 -2.37961 0
M  V30 1021 H 98.9677 -3.48154 -2.28424 0
M  V30 1022 H 101.565 -2.32646 -4.81435 0
M  V30 1023 H 101.908 -0.774543 -4.09031 0
M  V30 1024 H 102.441 -2.26301 -3.27159 0
M  V30 1025 H 99.1797 -5.15965 -4.04303 0
M  V30 1026 H 98.6997 -3.61626 -4.78526 0
M  V30 1027 H 100.379 -4.19349 -4.92702 0
M  V30 1028 N 100.511 1.16574 -1.06058 0
M  V30 1029 C 101.474 2.19085 -0.673392 0
M  V30 1030 C 102.474 1.5835 0.279648 0
M  V30 1031 O 103.664 1.74088 0.0623488 0
M  V30 1032 C 100.796 3.40899 0.00954234 0
M  V30 1033 H 101.989 2.54853 -1.58081 0
M  V30 1034 H 99.5418 1.30808 -0.855516 0
M  V30 1035 H 100.277 3.10684 0.929826 0
M  V30 1036 H 100.062 3.86233 -0.67573 0
M  V30 1037 H 101.552 4.1675 0.266245 0
M  V30 1038 N 101.989 0.842826 1.3317 0
M  V30 1039 C 103.219 0.453397 2.01564 0
M  V30 1040 C 103.627 -0.951147 1.63554 0
M  V30 1041 O 102.97 -1.63021 0.846746 0
M  V30 1042 C 103.032 0.499013 3.5602 0
M  V30 1043 C 102.696 1.86037 4.1742 0
M  V30 1044 C 103.693 2.82416 4.36506 0
M  V30 1045 C 101.378 2.15428 4.53757 0
M  V30 1046 C 103.372 4.06346 4.91082 0
M  V30 1047 C 101.059 3.39615 5.0804 0
M  V30 1048 C 102.057 4.3489 5.26649 0
M  V30 1049 O 101.745 5.5688 5.79776 0
M  V30 1050 H 101.477 0.177871 0.652179 0
M  V30 1051 H 104.031 1.13808 1.70988 0
M  V30 1052 H 102.261 -0.242467 3.85939 0
M  V30 1053 H 103.95 0.126852 4.05702 0
M  V30 1054 H 104.716 2.6101 4.08777 0
M  V30 1055 H 100.595 1.42061 4.38565 0
M  V30 1056 H 104.139 4.80722 5.05522 0
M  V30 1057 H 100.036 3.60876 5.352 0
M  V30 1058 H 100.804 5.58674 5.98185 0
M  V30 1059 N 103.467 -1.45747 0.599634 0
M  V30 1060 C 104.43 -2.28917 -0.113835 0
M  V30 1061 C 105.43 -1.3933 -0.802729 0
M  V30 1062 O 106.62 -1.61534 -0.652103 0
M  V30 1063 C 103.752 -3.20152 -1.17114 0
M  V30 1064 H 104.945 -2.93478 0.617289 0
M  V30 1065 H 102.498 -1.52137 0.358327 0
M  V30 1066 H 103.233 -2.60374 -1.93329 0
M  V30 1067 H 103.018 -3.86133 -0.681468 0
M  V30 1068 H 104.508 -3.82708 -1.67105 0
M  V30 1069 N 104.945 -0.338344 -1.53925 0
M  V30 1070 C 106.173 0.261298 -2.05243 0
M  V30 1071 C 106.588 1.44625 -1.21363 0
M  V30 1072 O 105.945 1.80811 -0.247736 0
M  V30 1073 C 105.996 0.681412 -3.5502 0
M  V30 1074 O 105.717 -0.456414 -4.35716 0
M  V30 1075 C 107.218 1.34232 -4.22489 0
M  V30 1076 H 104.438 0.0513685 -0.669031 0
M  V30 1077 H 106.982 -0.488822 -1.98572 0
M  V30 1078 H 105.137 1.38148 -3.61931 0
M  V30 1079 H 105.551 -0.122564 -5.24357 0
M  V30 1080 H 107.025 1.58708 -5.28693 0
M  V30 1081 H 107.502 2.29426 -3.74514 0
M  V30 1082 H 108.108 0.684424 -4.19757 0
M  V30 1083 N 106.423 1.57458 -0.0668435 0
M  V30 1084 C 107.669 1.93587 0.6043 0
M  V30 1085 C 108.002 0.946722 1.69561 0
M  V30 1086 O 107.277 -0.0248516 1.94484 0
M  V30 1087 C 107.56 3.40014 1.18585 0
M  V30 1088 C 107.413 4.49685 0.101529 0
M  V30 1089 C 108.732 3.87154 2.09284 0
M  V30 1090 H 105.851 0.703958 0.218202 0
M  V30 1091 H 108.493 1.89542 -0.131804 0
M  V30 1092 H 106.643 3.43592 1.81319 0
M  V30 1093 H 108.315 4.5823 -0.531279 0
M  V30 1094 H 106.558 4.30059 -0.568487 0
M  V30 1095 H 107.229 5.49266 0.54874 0
M  V30 1096 H 109.705 3.85551 1.56491 0
M  V30 1097 H 108.581 4.90231 2.46911 0
M  V30 1098 H 108.842 3.2481 2.99918 0
M  V30 1099 N 107.901 -0.206675 1.56239 0
M  V30 1100 C 108.849 -1.27571 1.94495 0
M  V30 1101 C 109.843 -1.47737 0.828862 0
M  V30 1102 O 111.049 -1.48735 1.0138 0
M  V30 1103 H 107.424 -0.428029 0.6183 0
M  V30 1104 H 109.395 -0.925961 2.8367 0
M  V30 1105 C 108.144 -2.61568 2.29079 0
M  V30 1106 H 107.467 -2.46863 3.14482 0
M  V30 1107 H 108.907 -3.35144 2.5972 0
M  V30 1108 C 107.366 -3.17695 1.12123 0
M  V30 1109 O 107.896 -3.99801 0.390153 0
M  V30 1110 N 106.102 -2.76276 0.901097 0
M  V30 1111 H 105.649 -2.09613 1.49733 0
M  V30 1112 H 105.607 -3.1417 0.120319 0
M  V30 1113 N 109.379 -1.50304 -0.473955 0
M  V30 1114 C 110.326 -1.68959 -1.57231 0
M  V30 1115 C 111.296 -0.530899 -1.57387 0
M  V30 1116 O 112.481 -0.761133 -1.74961 0
M  V30 1117 C 109.621 -1.7871 -2.95223 0
M  V30 1118 C 108.734 -3.06061 -3.04878 0
M  V30 1119 C 107.869 -3.06626 -4.33767 0
M  V30 1120 C 106.908 -4.28443 -4.37154 0
M  V30 1121 N 106.045 -4.26763 -5.5751 0
M  V30 1122 H 110.885 -2.6273 -1.40631 0
M  V30 1123 H 108.422 -1.30241 -0.683789 0
M  V30 1124 H 110.38 -1.82344 -3.75242 0
M  V30 1125 H 109.01 -0.883806 -3.10465 0
M  V30 1126 H 108.062 -3.11911 -2.17751 0
M  V30 1127 H 109.374 -3.96039 -3.0324 0
M  V30 1128 H 108.528 -3.08973 -5.22131 0
M  V30 1129 H 107.267 -2.14473 -4.3801 0
M  V30 1130 H 106.272 -4.2631 -3.47188 0
M  V30 1131 H 107.497 -5.2182 -4.34605 0
M  V30 1132 H 105.443 -3.37462 -5.62544 0
M  V30 1133 H 105.36 -5.10507 -5.57601 0
M  V30 1134 H 106.628 -4.33253 -6.48006 0
M  V30 1135 N 110.857 0.726932 -1.39834 0
M  V30 1136 C 112.082 1.52121 -1.40976 0
M  V30 1137 C 112.507 1.88098 -0.00826029 0
M  V30 1138 O 111.865 1.52479 0.980807 0
M  V30 1139 C 111.913 2.78021 -2.29644 0
M  V30 1140 O 111.017 3.74272 -1.73188 0
M  V30 1141 H 110.358 0.45908 -0.479731 0
M  V30 1142 H 112.888 0.896207 -1.83927 0
M  V30 1143 H 112.898 3.26671 -2.44438 0
M  V30 1144 H 111.573 2.51169 -3.31492 0
M  V30 1145 H 110.15 3.33073 -1.6768 0
M  V30 1146 N 112.336 1.25143 0.95797 0
M  V30 1147 C 113.246 1.06968 2.08794 0
M  V30 1148 C 114.262 0.00773911 1.73998 0
M  V30 1149 O 115.438 0.207972 2.00323 0
M  V30 1150 C 112.503 0.68691 3.39827 0
M  V30 1151 C 111.564 1.82641 3.88511 0
M  V30 1152 C 110.797 1.46181 5.1329 0
M  V30 1153 O 111.02 0.355971 5.69288 0
M  V30 1154 O 109.954 2.29085 5.566 0
M  V30 1155 H 113.78 2.01723 2.27027 0
M  V30 1156 H 111.365 1.04051 1.07209 0
M  V30 1157 H 113.247 0.485417 4.18595 0
M  V30 1158 H 111.922 -0.231417 3.22872 0
M  V30 1159 H 110.829 2.08274 3.10762 0
M  V30 1160 H 112.162 2.72386 4.09959 0
M  V30 1161 N 113.814 -1.1601 1.06675 0
M  V30 1162 C 115.039 -1.91068 0.806706 0
M  V30 1163 C 115.464 -1.77112 -0.633485 0
M  V30 1164 O 114.822 -1.09908 -1.44187 0
M  V30 1165 C 114.87 -3.39655 1.21106 0
M  V30 1166 O 113.974 -4.10893 0.352189 0
M  V30 1167 H 113.315 -0.595125 0.294486 0
M  V30 1168 H 115.845 -1.46955 1.42356 0
M  V30 1169 H 115.855 -3.90434 1.18428 0
M  V30 1170 H 114.53 -3.49132 2.26008 0
M  V30 1171 H 113.107 -3.70285 0.440868 0
M  V30 1172 N 115.292 -0.849877 -1.32721 0
M  V30 1173 C 116.222 -0.306308 -2.31482 0
M  V30 1174 C 117.203 0.591952 -1.59468 0
M  V30 1175 O 118.388 0.513199 -1.87296 0
M  V30 1176 C 115.518 0.510204 -3.43532 0
M  V30 1177 C 114.472 -0.293209 -4.26994 0
M  V30 1178 C 113.798 0.647743 -5.30762 0
M  V30 1179 C 115.098 -1.51634 -4.99804 0
M  V30 1180 H 116.792 -1.13153 -2.77195 0
M  V30 1181 H 114.338 -0.545553 -1.33266 0
M  V30 1182 H 116.291 0.900856 -4.11658 0
M  V30 1183 H 115.015 1.36874 -2.96535 0
M  V30 1184 H 113.674 -0.665555 -3.60508 0
M  V30 1185 H 113.322 1.50299 -4.8002 0
M  V30 1186 H 113.022 0.11422 -5.87489 0
M  V30 1187 H 114.546 1.03567 -6.01753 0
M  V30 1188 H 115.96 -1.19824 -5.60638 0
M  V30 1189 H 114.357 -1.98745 -5.66234 0
M  V30 1190 H 115.427 -2.28018 -4.27943 0
M  V30 1191 N 116.77 1.45427 -0.607355 0
M  V30 1192 C 118.016 2.0254 -0.102607 0
M  V30 1193 C 118.349 1.47478 1.26348 0
M  V30 1194 O 117.624 0.64939 1.83339 0
M  V30 1195 C 117.907 3.60044 -0.0634347 0
M  V30 1196 C 117.76 4.2544 -1.46017 0
M  V30 1197 C 119.079 4.35646 0.624514 0
M  V30 1198 H 116.198 0.73598 -0.0387607 0
M  V30 1199 H 118.84 1.73284 -0.779282 0
M  V30 1200 H 116.99 3.85101 0.512808 0
M  V30 1201 H 118.662 4.11569 -2.08347 0
M  V30 1202 H 116.905 3.83849 -2.02094 0
M  V30 1203 H 117.576 5.34342 -1.385 0
M  V30 1204 H 120.052 4.15882 0.134723 0
M  V30 1205 H 118.928 5.45376 0.621028 0
M  V30 1206 H 119.189 4.08501 1.69055 0
M  V30 1207 N 118.248 0.346503 1.53744 0
M  V30 1208 C 119.195 -0.508914 2.25119 0
M  V30 1209 C 120.165 -1.09315 1.25058 0
M  V30 1210 O 121.35 -1.12921 1.53797 0
M  V30 1211 C 118.49 -1.65246 3.02965 0
M  V30 1212 C 117.603 -1.09525 4.17886 0
M  V30 1213 C 116.738 -2.20634 4.83212 0
M  V30 1214 C 115.777 -1.62279 5.90196 0
M  V30 1215 N 114.914 -2.67143 6.49291 0
M  V30 1216 H 119.754 0.106283 2.9781 0
M  V30 1217 H 117.291 0.0642227 1.4696 0
M  V30 1218 H 119.249 -2.32574 3.4636 0
M  V30 1219 H 117.879 -2.2386 2.32565 0
M  V30 1220 H 116.931 -0.312818 3.79112 0
M  V30 1221 H 118.243 -0.628444 4.94825 0
M  V30 1222 H 117.397 -2.95821 5.29693 0
M  V30 1223 H 116.136 -2.70659 4.05703 0
M  V30 1224 H 115.141 -0.855989 5.43096 0
M  V30 1225 H 116.366 -1.13102 6.69615 0
M  V30 1226 H 114.312 -3.16417 5.74645 0
M  V30 1227 H 114.229 -2.25093 7.21713 0
M  V30 1228 H 115.497 -3.4209 7.00425 0
M  V30 1229 N 119.726 -1.57421 0.075193 0
M  V30 1230 C 120.975 -1.92794 -0.592731 0
M  V30 1231 C 121.288 -0.957478 -1.70563 0
M  V30 1232 O 122.494 -1.20417 -2.43335 0
M  V30 1233 C 120.95 -3.42495 -1.10569 0
M  V30 1234 C 120.558 -4.47994 -0.0236121 0
M  V30 1235 C 122.302 -3.86864 -1.74748 0
M  V30 1236 C 120.209 -5.88829 -0.550803 0
M  V30 1237 H 119.139 -0.719591 -0.225177 0
M  V30 1238 H 121.79 -1.82902 0.147978 0
M  V30 1239 H 120.172 -3.47471 -1.89947 0
M  V30 1240 H 121.346 -4.54637 0.751099 0
M  V30 1241 H 119.661 -4.13113 0.522159 0
M  V30 1242 H 122.258 -4.8947 -2.15229 0
M  V30 1243 H 122.601 -3.24417 -2.60882 0
M  V30 1244 H 123.134 -3.84504 -1.01986 0
M  V30 1245 H 119.873 -6.54929 0.273457 0
M  V30 1246 H 119.393 -5.85698 -1.29296 0
M  V30 1247 H 121.072 -6.38811 -1.02613 0
M  V30 1248 N 121.204 0.198386 -1.56346 0
M  V30 1249 C 122.481 0.944982 -1.71258 0
M  V30 1250 C 122.861 2.0151 -0.629048 0
M  V30 1251 O 122.209 2.25639 0.360473 0
M  V30 1252 C 122.419 1.5344 -3.1346 0
M  V30 1253 C 123.767 2.01778 -3.73591 0
M  V30 1254 O 124.791 1.63288 -3.16568 0
M  V30 1255 O 123.65 2.72594 -4.73661 0
M  V30 1256 H 120.744 0.442939 -0.69838 0
M  V30 1257 H 123.29 0.188342 -1.68652 0
M  V30 1258 H 122.062 0.762869 -3.83792 0
M  V30 1259 H 121.685 2.35596 -3.20282 0
M  V30 1260 N 122.682 1.50554 0.465978 0
M  V30 1261 C 123.612 1.72722 1.57128 0
M  V30 1262 C 124.593 0.576294 1.6004 0
M  V30 1263 O 125.778 0.81598 1.76225 0
M  V30 1264 C 122.908 1.82605 2.95419 0
M  V30 1265 C 121.862 2.97835 3.07373 0
M  V30 1266 C 121.188 2.92867 4.47363 0
M  V30 1267 C 122.488 4.38265 2.84114 0
M  V30 1268 H 124.182 2.65267 1.38829 0
M  V30 1269 H 121.728 1.2765 0.666441 0
M  V30 1270 H 123.681 1.96698 3.72677 0
M  V30 1271 H 122.405 0.866858 3.14886 0
M  V30 1272 H 121.064 2.83401 2.3255 0
M  V30 1273 H 120.712 1.94783 4.63755 0
M  V30 1274 H 120.412 3.70227 4.56296 0
M  V30 1275 H 121.936 3.09015 5.26633 0
M  V30 1276 H 123.35 4.53198 3.51118 0
M  V30 1277 H 121.747 5.17115 3.04487 0
M  V30 1278 H 122.817 4.50281 1.7993 0
M  V30 1279 N 124.16 -0.719506 1.40217 0
M  V30 1280 C 125.406 -1.48152 1.38488 0
M  V30 1281 C 125.739 -1.94195 -0.0141867 0
M  V30 1282 O 125.014 -1.67884 -0.982096 0
M  V30 1283 C 125.297 -2.71035 2.37091 0
M  V30 1284 C 125.15 -2.30912 3.86005 0
M  V30 1285 C 126.469 -3.73182 2.33288 0
M  V30 1286 H 123.588 -0.537395 0.504357 0
M  V30 1287 H 126.23 -0.821472 1.71324 0
M  V30 1288 H 124.38 -3.27352 2.0922 0
M  V30 1289 H 126.052 -1.80107 4.24687 0
M  V30 1290 H 124.295 -1.62958 4.02029 0
M  V30 1291 H 124.966 -3.18978 4.50508 0
M  V30 1292 H 127.442 -3.26485 2.57966 0
M  V30 1293 H 126.318 -4.56806 3.04334 0
M  V30 1294 H 126.579 -4.21202 1.34317 0
M  V30 1295 N 125.638 -1.25649 -0.95132 0
M  V30 1296 C 126.866 -1.13343 -1.73092 0
M  V30 1297 C 127.281 0.312434 -1.86197 0
M  V30 1298 O 126.638 1.21465 -1.36207 0
M  V30 1299 C 126.689 -1.78602 -3.14299 0
M  V30 1300 O 126.41 -3.17537 -3.01831 0
M  V30 1301 C 127.911 -1.72119 -4.08522 0
M  V30 1302 H 125.131 -0.395181 -0.542285 0
M  V30 1303 H 127.675 -1.66076 -1.19328 0
M  V30 1304 H 125.83 -1.29832 -3.64996 0
M  V30 1305 H 126.244 -3.49676 -3.90931 0
M  V30 1306 H 127.718 -2.22435 -5.052 0
M  V30 1307 H 128.195 -0.685635 -4.33815 0
M  V30 1308 H 128.801 -2.20393 -3.63741 0
M  V30 1309 N 127.117 1.15442 -1.07289 0
M  V30 1310 C 128.365 1.85845 -0.794096 0
M  V30 1311 C 128.686 1.82692 0.681809 0
M  V30 1312 O 127.956 1.26741 1.49377 0
M  V30 1313 H 126.536 0.688089 -0.290763 0
M  V30 1314 H 129.198 1.39947 -1.3565 0
M  V30 1315 H 128.294 2.91001 -1.12804 0
M  V30 1316 N 128.595 0.856903 1.32268 0
M  V30 1317 C 129.505 0.306131 2.32594 0
M  V30 1318 C 130.521 -0.577209 1.64147 0
M  V30 1319 O 131.697 -0.477043 1.95669 0
M  V30 1320 C 128.762 -0.494561 3.43154 0
M  V30 1321 C 127.823 0.415186 4.27288 0
M  V30 1322 C 127.056 -0.347387 5.32568 0
M  V30 1323 O 127.279 -1.57708 5.48165 0
M  V30 1324 O 126.213 0.287982 6.01211 0
M  V30 1325 H 130.039 1.13737 2.81598 0
M  V30 1326 H 127.624 0.619902 1.35932 0
M  V30 1327 H 129.506 -0.948944 4.10576 0
M  V30 1328 H 128.181 -1.30257 2.96336 0
M  V30 1329 H 127.088 0.917793 3.62667 0
M  V30 1330 H 128.421 1.18844 4.77637 0
M  V30 1331 N 130.073 -1.45103 0.615059 0
M  V30 1332 C 131.301 -2.06553 0.11977 0
M  V30 1333 C 131.716 -1.45842 -1.19898 0
M  V30 1334 O 131.073 -0.575325 -1.73194 0
M  V30 1335 C 131.124 -3.61495 -0.018364 0
M  V30 1336 O 130.845 -4.19942 1.24822 0
M  V30 1337 C 132.346 -4.39947 -0.544237 0
M  V30 1338 H 129.566 -0.667096 0.0722739 0
M  V30 1339 H 132.11 -1.8623 0.84491 0
M  V30 1340 H 130.265 -3.81135 -0.693865 0
M  V30 1341 H 130.679 -5.13204 1.0827 0
M  V30 1342 H 132.153 -5.48838 -0.589953 0
M  V30 1343 H 132.63 -4.10255 -1.56805 0
M  V30 1344 H 133.236 -4.25188 0.0974703 0
M  V30 1345 N 131.551 -0.354651 -1.53558 0
M  V30 1346 C 132.481 0.489091 -2.2832 0
M  V30 1347 C 133.462 1.09324 -1.30316 0
M  V30 1348 O 134.647 1.11255 -1.59173 0
M  V30 1349 C 131.777 1.63456 -3.0643 0
M  V30 1350 C 130.731 1.1582 -4.12031 0
M  V30 1351 C 130.057 2.39305 -4.7816 0
M  V30 1352 C 131.357 0.250731 -5.21698 0
M  V30 1353 H 133.051 -0.134614 -2.99097 0
M  V30 1354 H 130.597 -0.0661826 -1.43848 0
M  V30 1355 H 132.55 2.23136 -3.57475 0
M  V30 1356 H 131.274 2.28533 -2.33325 0
M  V30 1357 H 129.933 0.584146 -3.61916 0
M  V30 1358 H 129.581 3.02814 -4.01637 0
M  V30 1359 H 129.281 2.08109 -5.49513 0
M  V30 1360 H 130.805 2.99691 -5.31994 0
M  V30 1361 H 132.219 0.754695 -5.68311 0
M  V30 1362 H 130.616 0.0301468 -6.00092 0
M  V30 1363 H 131.686 -0.710125 -4.79672 0
M  V30 1364 N 133.029 1.57378 -0.0835403 0
M  V30 1365 C 134.277 1.93547 0.581718 0
M  V30 1366 C 134.598 0.96524 1.69435 0
M  V30 1367 O 133.868 0.0153369 1.95894 0
M  V30 1368 H 132.448 0.714521 0.217874 0
M  V30 1369 H 135.11 1.94366 -0.144158 0
M  V30 1370 H 134.206 2.95665 0.999423 0
M  V30 1371 N 134.507 -0.190092 1.56449 0
M  V30 1372 C 135.923 -0.54113 1.50146 0
M  V30 1373 C 136.123 -1.85603 0.784465 0
M  V30 1374 O 135.179 -2.5024 0.337051 0
M  V30 1375 C 136.492 -0.591241 2.9483 0
M  V30 1376 C 138.04 -0.679732 3.0553 0
M  V30 1377 C 138.515 -0.760908 4.51635 0
M  V30 1378 N 140.006 -0.824302 4.55806 0
M  V30 1379 C 140.741 -0.907365 5.66175 0
M  V30 1380 N 140.237 -0.952422 6.86222 0
M  V30 1381 N 142.03 -0.94494 5.541 0
M  V30 1382 H 134.181 0.67235 2.01478 0
M  V30 1383 H 136.444 0.240127 0.917084 0
M  V30 1384 H 136.15 0.305905 3.50367 0
M  V30 1385 H 136.024 -1.44422 3.48457 0
M  V30 1386 H 138.411 -1.56731 2.50039 0
M  V30 1387 H 138.492 0.199549 2.5502 0
M  V30 1388 H 138.136 0.122336 5.07753 0
M  V30 1389 H 138.066 -1.65606 4.99882 0
M  V30 1390 H 140.557 -0.798526 3.69367 0
M  V30 1391 H 140.87 -1.01645 7.66086 0
M  V30 1392 H 139.215 -0.921014 6.8887 0
M  V30 1393 H 142.406 -0.906612 4.59236 0
M  V30 1394 H 142.579 -1.00622 6.4014 0
M  V30 1395 N 135.985 -1.50799 -0.457987 0
M  V30 1396 C 137.234 -1.6168 -1.20593 0
M  V30 1397 C 137.547 -0.32888 -1.92815 0
M  V30 1398 O 138.753 -0.316773 -2.69646 0
M  V30 1399 C 137.209 -2.8545 -2.19195 0
M  V30 1400 C 136.817 -4.21168 -1.52715 0
M  V30 1401 C 138.561 -3.05681 -2.94549 0
M  V30 1402 C 136.468 -5.3611 -2.4968 0
M  V30 1403 H 135.398 -0.602134 -0.453818 0
M  V30 1404 H 138.049 -1.77245 -0.475031 0
M  V30 1405 H 136.431 -2.63472 -2.95632 0
M  V30 1406 H 137.605 -4.53449 -0.819775 0
M  V30 1407 H 135.92 -4.06648 -0.895922 0
M  V30 1408 H 138.517 -3.88727 -3.67145 0
M  V30 1409 H 138.86 -2.17929 -3.54701 0
M  V30 1410 H 139.393 -3.27901 -2.25223 0
M  V30 1411 H 136.132 -6.26057 -1.94249 0
M  V30 1412 H 135.652 -5.0823 -3.18532 0
M  V30 1413 H 137.331 -5.6722 -3.11241 0
M  V30 1414 N 137.463 0.71206 -1.40597 0
M  V30 1415 C 138.74 1.46536 -1.29563 0
M  V30 1416 C 139.12 2.10931 0.0844217 0
M  V30 1417 O 138.468 2.00418 1.0975 0
M  V30 1418 C 138.678 2.49821 -2.43701 0
M  V30 1419 C 140.026 3.15551 -2.841 0
M  V30 1420 O 141.05 2.60142 -2.4332 0
M  V30 1421 O 139.909 4.15867 -3.54566 0
M  V30 1422 H 137.003 0.651801 -0.509004 0
M  V30 1423 H 139.549 0.743935 -1.52524 0
M  V30 1424 H 138.321 2.00778 -3.35863 0
M  V30 1425 H 137.944 3.29495 -2.22528 0
M  V30 1426 N 138.941 1.26152 0.944643 0
M  V30 1427 C 139.871 1.09902 2.06019 0
M  V30 1428 C 140.852 0.00519538 1.70099 0
M  V30 1429 O 142.037 0.176583 1.93396 0
M  V30 1430 C 139.167 0.727562 3.39594 0
M  V30 1431 C 138.121 1.77274 3.89561 0
M  V30 1432 C 137.447 1.25569 5.19747 0
M  V30 1433 C 138.747 3.17357 4.14827 0
M  V30 1434 H 140.441 2.03217 2.19871 0
M  V30 1435 H 137.987 0.978452 1.05652 0
M  V30 1436 H 139.94 0.600777 4.17095 0
M  V30 1437 H 138.664 -0.241287 3.25707 0
M  V30 1438 H 137.323 1.88814 3.14237 0
M  V30 1439 H 136.971 0.276783 5.02238 0
M  V30 1440 H 136.671 1.95433 5.54148 0
M  V30 1441 H 138.195 1.1415 5.99835 0
M  V30 1442 H 139.609 3.08914 4.82954 0
M  V30 1443 H 138.006 3.84781 4.60504 0
M  V30 1444 H 139.076 3.63673 3.20734 0
M  V30 1445 N 140.419 -1.14872 1.07899 0
M  V30 1446 C 141.644 -1.90202 0.826926 0
M  V30 1447 C 142.069 -1.77774 -0.614664 0
M  V30 1448 O 141.427 -1.11431 -1.43013 0
M  V30 1449 C 141.475 -3.38352 1.24702 0
M  V30 1450 O 140.579 -4.10497 0.39575 0
M  V30 1451 H 139.92 -0.591968 0.300782 0
M  V30 1452 H 142.45 -1.45437 1.43907 0
M  V30 1453 H 142.46 -3.89156 1.22563 0
M  V30 1454 H 141.135 -3.46715 2.29698 0
M  V30 1455 H 139.712 -3.69796 0.480117 0
M  V30 1456 N 141.898 -0.863906 -1.31812 0
M  V30 1457 C 143.126 -0.486111 -2.01108 0
M  V30 1458 C 143.541 0.919755 -1.64882 0
M  V30 1459 O 142.898 1.60162 -0.874893 0
M  V30 1460 C 142.949 -0.626435 -3.56031 0
M  V30 1461 O 142.67 -1.97693 -3.90959 0
M  V30 1462 C 144.171 -0.248857 -4.42601 0
M  V30 1463 H 141.391 -0.190052 -0.643523 0
M  V30 1464 H 143.935 -1.1634 -1.68182 0
M  V30 1465 H 142.09 0.00322717 -3.874 0
M  V30 1466 H 142.504 -1.98034 -4.85678 0
M  V30 1467 H 143.978 -0.398016 -5.50563 0
M  V30 1468 H 144.455 0.811489 -4.31638 0
M  V30 1469 H 145.061 -0.853971 -4.16638 0
M  V30 1470 N 143.376 1.44774 -0.622745 0
M  V30 1471 C 144.787 1.85546 -0.207226 0
M  V30 1472 C 145.138 1.52093 1.23944 0
M  V30 1473 O 144.263 0.95492 1.94191 0
M  V30 1474 C 144.858 3.36781 -0.369313 0
M  V30 1475 C 143.417 3.76399 -0.00836847 0
M  V30 1476 C 142.564 2.68664 -0.686651 0
M  V30 1477 H 145.515 1.3536 -0.828454 0
M  V30 1478 H 145.536 3.78453 0.394162 0
M  V30 1479 H 145.048 3.61098 -1.42231 0
M  V30 1480 H 143.149 3.57698 1.04322 0
M  V30 1481 H 143.262 4.7732 -0.412584 0
M  V30 1482 H 141.626 2.54404 -0.122777 0
M  V30 1483 H 142.409 2.95815 -1.74208 0
M  V30 1484 N 144.854 0.36279 1.53368 0
M  V30 1485 C 145.764 -0.492994 2.29362 0
M  V30 1486 C 146.78 -1.09507 1.35219 0
M  V30 1487 O 147.956 -1.10662 1.68273 0
M  V30 1488 C 145.021 -1.61855 3.066 0
M  V30 1489 C 144.082 -1.04429 4.16405 0
M  V30 1490 C 143.315 -2.11621 4.89951 0
M  V30 1491 O 143.538 -3.32684 4.63333 0
M  V30 1492 O 142.472 -1.74835 5.75948 0
M  V30 1493 H 146.298 0.125331 3.03441 0
M  V30 1494 H 143.883 0.127253 1.48857 0
M  V30 1495 H 145.765 -2.27302 3.54841 0
M  V30 1496 H 144.44 -2.22233 2.3536 0
M  V30 1497 H 143.347 -0.353819 3.72423 0
M  V30 1498 H 144.68 -0.485113 4.89804 0
M  V30 1499 N 146.332 -1.57332 0.0918853 0
M  V30 1500 C 147.242 -2.17368 -0.882505 0
M  V30 1501 C 148.258 -1.14226 -1.31257 0
M  V30 1502 O 149.434 -1.46582 -1.38115 0
M  V30 1503 C 146.499 -2.73962 -2.12476 0
M  V30 1504 C 145.56 -3.92048 -1.7492 0
M  V30 1505 C 144.793 -4.45933 -2.93223 0
M  V30 1506 O 145.016 -3.98764 -4.07852 0
M  V30 1507 O 143.95 -5.36999 -2.71875 0
M  V30 1508 H 147.776 -3.01031 -0.40172 0
M  V30 1509 H 145.361 -1.48813 -0.132291 0
M  V30 1510 H 147.243 -3.10147 -2.85283 0
M  V30 1511 H 145.918 -1.93347 -2.59613 0
M  V30 1512 H 144.825 -3.6068 -0.993025 0
M  V30 1513 H 146.158 -4.74017 -1.32548 0
M  V30 1514 N 147.81 0.181792 -1.56548 0
M  V30 1515 C 149.226 0.53316 -1.50431 0
M  V30 1516 C 149.426 1.85184 -0.794297 0
M  V30 1517 O 148.482 2.50058 -0.350318 0
M  V30 1518 C 149.795 0.575597 -2.9514 0
M  V30 1519 C 151.343 0.663519 -3.05886 0
M  V30 1520 C 151.818 0.736946 -4.52032 0
M  V30 1521 N 153.309 0.800118 -4.56237 0
M  V30 1522 C 154.044 0.877327 -5.66649 0
M  V30 1523 N 153.54 0.916016 -6.86718 0
M  V30 1524 N 155.333 0.915542 -5.54594 0
M  V30 1525 H 147.484 -0.683025 -2.01118 0
M  V30 1526 H 149.747 -0.244988 -0.915797 0
M  V30 1527 H 149.453 -0.324482 -3.502 0
M  V30 1528 H 149.327 1.42572 -3.49218 0
M  V30 1529 H 151.714 1.55403 -2.50867 0
M  V30 1530 H 151.795 -0.21307 -2.54911 0
M  V30 1531 H 151.439 -0.149262 -5.07681 0
M  V30 1532 H 151.369 1.62953 -5.00753 0
M  V30 1533 H 153.86 0.778926 -3.69785 0
M  V30 1534 H 154.173 0.975813 -7.66614 0
M  V30 1535 H 152.518 0.884469 -6.89349 0
M  V30 1536 H 155.709 0.882245 -4.59711 0
M  V30 1537 H 155.882 0.972253 -6.40665 0
M  V30 1538 N 149.288 1.51039 0.449983 0
M  V30 1539 C 150.534 1.63322 1.20223 0
M  V30 1540 C 150.867 0.34241 1.91158 0
M  V30 1541 O 150.142 -0.657344 1.83055 0
M  V30 1542 C 150.425 2.82801 2.22925 0
M  V30 1543 C 150.278 4.21823 1.56157 0
M  V30 1544 C 151.597 2.97807 3.24035 0
M  V30 1545 H 148.716 0.594407 0.435718 0
M  V30 1546 H 151.358 1.83489 0.493136 0
M  V30 1547 H 149.508 2.65738 2.834 0
M  V30 1548 H 151.18 4.50526 0.991162 0
M  V30 1549 H 149.423 4.25105 0.864172 0
M  V30 1550 H 150.094 5.01391 2.30891 0
M  V30 1551 H 152.57 3.13497 2.73603 0
M  V30 1552 H 151.446 3.82992 3.93202 0
M  V30 1553 H 151.707 2.09328 3.89402 0
M  V30 1554 N 150.766 -0.704594 1.40972 0
M  V30 1555 C 151.713 -1.81862 1.42109 0
M  V30 1556 C 152.683 -1.63781 0.276593 0
M  V30 1557 O 153.868 -1.84759 0.4763 0
M  V30 1558 C 151.008 -3.19669 1.30022 0
M  V30 1559 C 150.121 -3.49246 2.54267 0
M  V30 1560 C 149.256 -4.76618 2.3454 0
M  V30 1561 C 148.295 -4.99133 3.54306 0
M  V30 1562 N 147.432 -6.17726 3.33706 0
M  V30 1563 H 152.272 -1.80226 2.37324 0
M  V30 1564 H 149.809 -0.880238 1.17857 0
M  V30 1565 H 151.767 -3.99263 1.21018 0
M  V30 1566 H 150.397 -3.20506 0.384192 0
M  V30 1567 H 149.449 -2.64125 2.73756 0
M  V30 1568 H 150.761 -3.61788 3.43381 0
M  V30 1569 H 149.915 -5.64249 2.22952 0
M  V30 1570 H 148.654 -4.66305 1.42867 0
M  V30 1571 H 147.659 -4.09953 3.66359 0
M  V30 1572 H 148.884 -5.11311 4.4692 0
M  V30 1573 H 146.83 -6.08642 2.44725 0
M  V30 1574 H 146.747 -6.30995 4.16391 0
M  V30 1575 H 148.015 -7.08115 3.25873 0
M  V30 1576 N 152.244 -1.26651 -0.937939 0
M  V30 1577 C 153.469 -1.15279 -1.72411 0
M  V30 1578 C 153.894 0.287866 -1.85884 0
M  V30 1579 O 153.252 1.20855 -1.35143 0
M  V30 1580 C 153.3 -1.83028 -3.10698 0
M  V30 1581 O 152.404 -1.12128 -3.96864 0
M  V30 1582 H 151.745 -0.401504 -0.528858 0
M  V30 1583 H 154.275 -1.67531 -1.1745 0
M  V30 1584 H 154.285 -1.89981 -3.6107 0
M  V30 1585 H 152.96 -2.87833 -3.00208 0
M  V30 1586 H 151.537 -1.13173 -3.55312 0
M  V30 1587 N 153.722 1.14298 -1.08507 0
M  V30 1588 C 154.652 2.21542 -0.737646 0
M  V30 1589 C 155.633 1.67773 0.280377 0
M  V30 1590 O 156.818 1.93616 0.150521 0
M  V30 1591 C 153.948 3.46988 -0.147259 0
M  V30 1592 C 152.902 4.13789 -1.09374 0
M  V30 1593 C 152.228 5.33449 -0.365524 0
M  V30 1594 C 153.528 4.62208 -2.4323 0
M  V30 1595 H 155.222 2.5086 -1.6343 0
M  V30 1596 H 152.768 1.20576 -0.787243 0
M  V30 1597 H 154.721 4.21262 0.107808 0
M  V30 1598 H 153.445 3.17037 0.784538 0
M  V30 1599 H 152.104 3.4147 -1.33393 0
M  V30 1600 H 151.752 4.99759 0.57011 0
M  V30 1601 H 151.452 5.79088 -0.996512 0
M  V30 1602 H 152.976 6.10485 -0.118534 0
M  V30 1603 H 154.39 5.27952 -2.23472 0
M  V30 1604 H 152.787 5.18553 -3.02031 0
M  V30 1605 H 153.857 3.77224 -3.04681 0
M  V30 1606 N 155.201 0.870884 1.31352 0
M  V30 1607 C 156.448 0.482273 1.96673 0
M  V30 1608 C 156.776 -0.965638 1.68836 0
M  V30 1609 O 156.031 -1.69514 0.977937 0
M  V30 1610 C 156.33 0.687157 3.50732 0
M  V30 1611 C 155.996 2.108 3.9859 0
M  V30 1612 C 154.658 2.49656 4.1137 0
M  V30 1613 C 157.01 3.03459 4.23748 0
M  V30 1614 C 154.338 3.80412 4.46659 0
M  V30 1615 C 156.69 4.3373 4.60501 0
M  V30 1616 C 155.354 4.725 4.71487 0
M  V30 1617 H 154.624 0.176476 0.719679 0
M  V30 1618 H 157.271 1.10405 1.56471 0
M  V30 1619 H 155.576 -0.0177476 3.91796 0
M  V30 1620 H 157.273 0.366284 3.99324 0
M  V30 1621 H 153.863 1.79633 3.8914 0
M  V30 1622 H 158.047 2.74665 4.13368 0
M  V30 1623 H 153.303 4.1021 4.53362 0
M  V30 1624 H 157.477 5.05578 4.78919 0
M  V30 1625 H 155.104 5.73859 4.98588 0
M  V30 1626 N 156.679 -1.44442 0.630414 0
M  V30 1627 C 157.927 -2.01653 0.134351 0
M  V30 1628 C 158.248 -1.49836 -1.24796 0
M  V30 1629 O 157.518 -0.701684 -1.82902 0
M  V30 1630 H 156.098 -0.74554 0.0466769 0
M  V30 1631 H 158.76 -1.76952 0.816955 0
M  V30 1632 H 157.856 -3.11935 0.101498 0
M  V30 1633 N 158.157 -0.370918 -1.53173 0
M  V30 1634 C 159.12 0.460778 -2.24521 0
M  V30 1635 C 160.12 1.00536 -1.25496 0
M  V30 1636 O 161.31 0.890266 -1.49733 0
M  V30 1637 C 158.442 1.64457 -2.98608 0
M  V30 1638 H 159.635 -0.163613 -2.99453 0
M  V30 1639 H 157.188 -0.122699 -1.55818 0
M  V30 1640 H 157.923 2.30691 -2.2793 0
M  V30 1641 H 157.708 1.26099 -3.7127 0
M  V30 1642 H 159.198 2.23384 -3.5283 0
M  V30 1643 N 159.635 1.57281 -0.100228 0
M  V30 1644 C 160.598 2.13158 0.842398 0
M  V30 1645 C 161.598 1.06202 1.20738 0
M  V30 1646 O 162.788 1.32066 1.13597 0
M  V30 1647 C 159.92 2.65639 2.13655 0
M  V30 1648 H 161.113 2.97766 0.357114 0
M  V30 1649 H 158.666 1.5559 0.148823 0
M  V30 1650 H 159.401 1.84566 2.66657 0
M  V30 1651 H 159.186 3.43844 1.88451 0
M  V30 1652 H 160.676 3.08846 2.81077 0
M  V30 1653 N 161.113 -0.173488 1.56642 0
M  V30 1654 C 162.043 -1.2171 1.99271 0
M  V30 1655 C 163.024 -1.46289 0.867959 0
M  V30 1656 O 164.209 -1.5766 1.13388 0
M  V30 1657 C 161.339 -2.55651 2.35074 0
M  V30 1658 C 160.293 -2.45645 3.50489 0
M  V30 1659 C 159.619 -3.84056 3.72028 0
M  V30 1660 C 160.919 -1.96302 4.84007 0
M  V30 1661 H 162.613 -0.86275 2.867 0
M  V30 1662 H 160.159 -0.413571 1.37933 0
M  V30 1663 H 162.112 -3.2886 2.63494 0
M  V30 1664 H 160.836 -2.92869 1.44552 0
M  V30 1665 H 159.495 -1.7489 3.22194 0
M  V30 1666 H 159.143 -4.18664 2.788 0
M  V30 1667 H 158.843 -3.7823 4.49684 0
M  V30 1668 H 160.367 -4.58854 4.02846 0
M  V30 1669 H 161.781 -2.59284 5.11317 0
M  V30 1670 H 160.178 -2.01429 5.65284 0
M  V30 1671 H 161.248 -0.917226 4.76146 0
M  V30 1672 N 162.591 -1.51276 -0.441967 0
M  V30 1673 C 163.816 -1.67799 -1.21895 0
M  V30 1674 C 164.241 -0.372864 -1.84367 0
M  V30 1675 O 163.599 0.666501 -1.68604 0
M  V30 1676 C 163.647 -2.79199 -2.28211 0
M  V30 1677 O 162.751 -2.42479 -3.33583 0
M  V30 1678 H 162.092 -0.559649 -0.357336 0
M  V30 1679 H 164.622 -1.97815 -0.522522 0
M  V30 1680 H 164.632 -3.03146 -2.73069 0
M  V30 1681 H 163.307 -3.73906 -1.82118 0
M  V30 1682 H 161.884 -2.29087 -2.94234 0
M  V30 1683 N 164.069 0.697108 -1.41344 0
M  V30 1684 C 165.48 1.27697 -1.36199 0
M  V30 1685 C 165.831 1.9615 -0.0443463 0
M  V30 1686 O 164.956 1.98689 0.857419 0
M  V30 1687 C 165.551 2.32223 -2.46694 0
M  V30 1688 C 164.11 2.8579 -2.44952 0
M  V30 1689 C 163.257 1.59807 -2.26621 0
M  V30 1690 H 166.208 0.491968 -1.50882 0
M  V30 1691 H 166.229 3.1348 -2.15664 0
M  V30 1692 H 165.741 1.82373 -3.42581 0
M  V30 1693 H 163.842 3.3982 -1.52817 0
M  V30 1694 H 163.955 3.36325 -3.41207 0
M  V30 1695 H 162.319 1.8556 -1.7447 0
M  V30 1696 H 163.102 1.11956 -3.24532 0
M  V30 1697 N 165.547 1.27147 0.931209 0
M  V30 1698 C 166.824 1.0401 1.65654 0
M  V30 1699 C 167.204 -0.426297 2.06751 0
M  V30 1700 O 166.552 -1.40879 1.79904 0
M  V30 1701 C 166.762 1.99834 2.86125 0
M  V30 1702 C 168.11 2.29007 3.57549 0
M  V30 1703 O 169.134 1.97779 2.96246 0
M  V30 1704 O 167.993 2.82222 4.67989 0
M  V30 1705 H 165.087 0.396239 0.725895 0
M  V30 1706 H 167.633 1.38397 0.982056 0
M  V30 1707 H 166.405 2.98744 2.52721 0
M  V30 1708 H 166.028 1.65987 3.61295 0
M  V30 1709 N 167.025 -1.13721 1.09112 0
M  V30 1710 C 168.273 -1.84559 0.823562 0
M  V30 1711 C 168.594 -1.83754 -0.652658 0
M  V30 1712 O 167.864 -1.29102 -1.47342 0
M  V30 1713 H 166.444 -0.683376 0.301673 0
M  V30 1714 H 169.106 -1.37771 1.37859 0
M  V30 1715 H 168.202 -2.8917 1.17419 0
M  V30 1716 N 168.503 -0.877838 -1.30888 0
M  V30 1717 C 169.45 -0.337538 -2.28318 0
M  V30 1718 C 170.42 0.568346 -1.56074 0
M  V30 1719 O 171.605 0.498298 -1.84178 0
M  V30 1720 C 168.745 0.448142 -3.42178 0
M  V30 1721 C 167.858 -0.48615 -4.29256 0
M  V30 1722 C 166.993 0.314427 -5.30269 0
M  V30 1723 C 166.032 -0.615791 -6.08995 0
M  V30 1724 N 165.169 0.14902 -7.01942 0
M  V30 1725 H 170.009 -1.17356 -2.73919 0
M  V30 1726 H 167.546 -0.590094 -1.34745 0
M  V30 1727 H 169.504 0.919517 -4.06941 0
M  V30 1728 H 168.134 1.24879 -2.97666 0
M  V30 1729 H 167.186 -1.076 -3.64865 0
M  V30 1730 H 168.498 -1.19909 -4.84173 0
M  V30 1731 H 167.652 0.847969 -6.00745 0
M  V30 1732 H 166.391 1.06062 -4.76027 0
M  V30 1733 H 165.396 -1.16102 -5.37401 0
M  V30 1734 H 166.621 -1.36097 -6.65323 0
M  V30 1735 H 164.567 0.877884 -6.50099 0
M  V30 1736 H 164.484 -0.504433 -7.54315 0
M  V30 1737 H 165.752 0.663537 -7.76671 0
M  V30 1738 N 169.982 1.44106 -0.638065 0
M  V30 1739 C 171.21 2.06336 -0.152615 0
M  V30 1740 C 171.625 1.47731 1.17563 0
M  V30 1741 O 170.982 0.602806 1.72257 0
M  V30 1742 C 171.033 3.61479 -0.0391491 0
M  V30 1743 O 170.754 4.17903 -1.31487 0
M  V30 1744 C 172.255 4.40757 0.474176 0
M  V30 1745 H 169.475 0.665862 -0.0828776 0
M  V30 1746 H 172.019 1.84862 -0.87443 0
M  V30 1747 H 170.174 3.82191 0.633142 0
M  V30 1748 H 170.588 5.11416 -1.16421 0
M  V30 1749 H 172.062 5.49707 0.502562 0
M  V30 1750 H 172.539 4.12697 1.50258 0
M  V30 1751 H 173.145 4.24979 -0.165102 0
M  V30 1752 N 171.46 0.379036 1.52974 0
M  V30 1753 C 172.39 -0.452706 2.29069 0
M  V30 1754 C 173.371 -1.07237 1.32039 0
M  V30 1755 O 174.556 -1.08708 1.60923 0
M  V30 1756 C 171.686 -1.5856 3.08992 0
M  V30 1757 C 170.64 -1.0925 4.13822 0
M  V30 1758 C 169.966 -2.31668 4.81907 0
M  V30 1759 C 171.266 -0.167702 5.22031 0
M  V30 1760 H 172.96 0.182181 2.98845 0
M  V30 1761 H 170.506 0.0890592 1.43724 0
M  V30 1762 H 172.459 -2.1742 3.6098 0
M  V30 1763 H 171.183 -2.24792 2.36931 0
M  V30 1764 H 169.842 -0.526494 3.628 0
M  V30 1765 H 169.49 -2.96386 4.06404 0
M  V30 1766 H 169.19 -1.9934 5.52754 0
M  V30 1767 H 170.714 -2.91189 5.36695 0
M  V30 1768 H 172.128 -0.664186 5.6944 0
M  V30 1769 H 170.525 0.0653265 6.00064 0
M  V30 1770 H 171.595 0.786347 4.78482 0
M  V30 1771 N 172.938 -1.57226 0.108567 0
M  V30 1772 C 173.901 -2.13602 -0.831082 0
M  V30 1773 C 174.901 -1.06841 -1.20173 0
M  V30 1774 O 176.091 -1.32666 -1.12895 0
M  V30 1775 C 173.223 -2.66769 -2.12243 0
M  V30 1776 H 174.416 -2.97951 -0.341317 0
M  V30 1777 H 171.969 -1.55667 -0.14057 0
M  V30 1778 H 172.704 -1.85977 -2.65675 0
M  V30 1779 H 172.489 -3.44839 -1.86625 0
M  V30 1780 H 173.979 -3.10332 -2.79435 0
M  V30 1781 N 174.416 0.165178 -1.56732 0
M  V30 1782 C 175.665 0.879143 -1.81532 0
M  V30 1783 C 175.978 1.83144 -0.686842 0
M  V30 1784 O 177.184 2.58823 -0.819944 0
M  V30 1785 C 175.64 1.61388 -3.21686 0
M  V30 1786 C 175.248 0.704904 -4.4242 0
M  V30 1787 C 176.992 2.3157 -3.55774 0
M  V30 1788 C 174.899 1.44022 -5.73595 0
M  V30 1789 H 173.829 0.332033 -0.676957 0
M  V30 1790 H 176.48 0.132008 -1.83025 0
M  V30 1791 H 174.862 2.40599 -3.14529 0
M  V30 1792 H 176.036 -0.0506815 -4.60772 0
M  V30 1793 H 174.351 0.112419 -4.16248 0
M  V30 1794 H 176.948 2.8719 -4.51028 0
M  V30 1795 H 177.291 3.07201 -2.8095 0
M  V30 1796 H 177.824 1.59297 -3.64513 0
M  V30 1797 H 174.563 0.72612 -6.51466 0
M  V30 1798 H 174.083 2.16898 -5.5921 0
M  V30 1799 H 175.762 1.98606 -6.15764 0
M  V30 1800 N 175.894 1.51508 0.433938 0
M  V30 1801 C 177.124 1.67914 1.20369 0
M  V30 1802 C 177.532 0.377461 1.85397 0
M  V30 1803 O 176.875 -0.654255 1.71654 0
M  V30 1804 C 176.937 2.74045 2.32679 0
M  V30 1805 C 176.601 4.16543 1.87991 0
M  V30 1806 C 177.598 5.01211 1.38145 0
M  V30 1807 C 175.283 4.6266 1.95579 0
M  V30 1808 C 177.277 6.30056 0.964774 0
M  V30 1809 C 174.964 5.91501 1.53523 0
M  V30 1810 C 175.962 6.75027 1.04055 0
M  V30 1811 O 175.65 8.01459 0.625964 0
M  V30 1812 H 175.382 0.566578 0.368735 0
M  V30 1813 H 177.936 1.98709 0.51999 0
M  V30 1814 H 176.166 2.38572 3.04336 0
M  V30 1815 H 177.855 2.79295 2.94532 0
M  V30 1816 H 178.621 4.66783 1.31675 0
M  V30 1817 H 174.5 3.97767 2.33029 0
M  V30 1818 H 178.044 6.95202 0.57796 0
M  V30 1819 H 173.941 6.25442 1.59665 0
M  V30 1820 H 174.709 8.15043 0.751509 0
M  V30 1821 N 177.372 -0.689602 1.41712 0
M  V30 1822 C 178.282 -1.83314 1.46401 0
M  V30 1823 C 179.298 -1.7036 0.35405 0
M  V30 1824 O 180.474 -1.92171 0.602692 0
M  V30 1825 C 177.539 -3.19344 1.34982 0
M  V30 1826 C 176.6 -3.44363 2.56344 0
M  V30 1827 C 175.833 -4.73904 2.45461 0
M  V30 1828 O 176.056 -5.508 1.48241 0
M  V30 1829 O 174.99 -4.99839 3.35328 0
M  V30 1830 H 178.816 -1.82314 2.42889 0
M  V30 1831 H 176.401 -0.843438 1.23315 0
M  V30 1832 H 178.283 -4.00547 1.3092 0
M  V30 1833 H 176.958 -3.21014 0.41612 0
M  V30 1834 H 175.865 -2.63067 2.65982 0
M  V30 1835 H 177.198 -3.47512 3.48563 0
M  V30 1836 N 178.85 -1.27639 -0.924453 0
M  V30 1837 C 180.075 -1.17101 -1.71179 0
M  V30 1838 C 180.5 0.268134 -1.86179 0
M  V30 1839 O 179.858 1.19415 -1.36418 0
M  V30 1840 C 179.906 -1.86313 -3.08739 0
M  V30 1841 O 179.01 -1.16331 -3.95652 0
M  V30 1842 H 178.351 -0.407091 -0.524569 0
M  V30 1843 H 180.881 -1.68767 -1.15666 0
M  V30 1844 H 180.891 -1.938 -3.59034 0
M  V30 1845 H 179.566 -2.91001 -2.97138 0
M  V30 1846 H 178.143 -1.16935 -3.54091 0
M  V30 1847 N 180.328 1.1314 -1.09713 0
M  V30 1848 C 181.739 1.66029 -0.853885 0
M  V30 1849 C 182.09 1.86241 0.617142 0
M  V30 1850 O 181.215 1.5834 1.47503 0
M  V30 1851 C 181.81 3.01599 -1.5435 0
M  V30 1852 C 180.369 3.51467 -1.34714 0
M  V30 1853 C 179.516 2.26648 -1.59769 0
M  V30 1854 H 182.467 0.970226 -1.25588 0
M  V30 1855 H 182.488 3.67709 -0.978267 0
M  V30 1856 H 182 2.86856 -2.6141 0
M  V30 1857 H 180.101 3.71408 -0.297838 0
M  V30 1858 H 180.214 4.314 -2.08401 0
M  V30 1859 H 178.578 2.33385 -1.01998 0
M  V30 1860 H 179.361 2.14467 -2.68065 0
M  V30 1861 N 181.806 0.884767 1.30421 0
M  V30 1862 C 183.052 0.503851 1.96441 0
M  V30 1863 C 183.385 -0.944518 1.69684 0
M  V30 1864 O 182.66 -1.66737 1.00145 0
M  V30 1865 C 182.943 0.779085 3.51571 0
M  V30 1866 C 182.796 2.27807 3.87846 0
M  V30 1867 C 184.115 0.255452 4.39358 0
M  V30 1868 H 181.234 0.184533 0.713524 0
M  V30 1869 H 183.876 1.10872 1.54297 0
M  V30 1870 H 182.026 0.264274 3.876 0
M  V30 1871 H 183.698 2.86127 3.61841 0
M  V30 1872 H 181.941 2.74479 3.35922 0
M  V30 1873 H 182.612 2.42125 4.96064 0
M  V30 1874 H 185.088 0.696079 4.10236 0
M  V30 1875 H 183.964 0.477361 5.4682 0
M  V30 1876 H 184.225 -0.843293 4.33983 0
M  V30 1877 N 183.284 -1.43765 0.645699 0
M  V30 1878 C 184.7 -1.56509 0.312591 0
M  V30 1879 C 184.9 -1.6307 -1.18365 0
M  V30 1880 O 183.956 -1.58167 -1.96824 0
M  V30 1881 C 185.269 -2.82968 1.01733 0
M  V30 1882 C 186.817 -2.96701 0.996865 0
M  V30 1883 C 187.292 -4.25982 1.68236 0
M  V30 1884 N 188.783 -4.32829 1.64964 0
M  V30 1885 C 189.518 -5.31613 2.14885 0
M  V30 1886 N 189.014 -6.36718 2.73061 0
M  V30 1887 N 190.807 -5.23217 2.05428 0
M  V30 1888 H 182.958 -1.3775 1.61675 0
M  V30 1889 H 185.221 -0.661067 0.679481 0
M  V30 1890 H 184.927 -2.84156 2.0724 0
M  V30 1891 H 184.801 -3.72957 0.564177 0
M  V30 1892 H 187.188 -2.95058 -0.0497719 0
M  V30 1893 H 187.269 -2.08022 1.48865 0
M  V30 1894 H 186.913 -4.28386 2.72852 0
M  V30 1895 H 186.843 -5.13545 1.16529 0
M  V30 1896 H 189.334 -3.57493 1.22503 0
M  V30 1897 H 189.647 -7.08401 3.08848 0
M  V30 1898 H 187.992 -6.37362 2.77118 0
M  V30 1899 H 191.183 -4.40019 1.59689 0
M  V30 1900 H 191.356 -6.00045 2.44643 0
M  V30 1901 N 184.763 -0.387143 -1.52771 0
M  V30 1902 C 185.693 0.440551 -2.29306 0
M  V30 1903 C 186.674 1.06535 -1.32606 0
M  V30 1904 O 187.859 1.07853 -1.61497 0
M  V30 1905 C 184.989 1.56919 -3.09829 0
M  V30 1906 C 183.943 1.07054 -4.14395 0
M  V30 1907 C 183.269 2.29109 -4.83129 0
M  V30 1908 C 184.569 0.140015 -5.22112 0
M  V30 1909 H 186.263 -0.198026 -2.98744 0
M  V30 1910 H 183.809 -0.09668 -1.43675 0
M  V30 1911 H 185.762 2.15503 -3.62128 0
M  V30 1912 H 184.486 2.23532 -2.3812 0
M  V30 1913 H 183.145 0.507247 -3.63074 0
M  V30 1914 H 182.793 2.94227 -4.0797 0
M  V30 1915 H 182.493 1.96406 -5.53804 0
M  V30 1916 H 184.017 2.88339 -5.38231 0
M  V30 1917 H 185.431 0.633978 -5.69784 0
M  V30 1918 H 183.828 -0.0971485 -6.00021 0
M  V30 1919 H 184.898 -0.811711 -4.78058 0
M  V30 1920 N 186.241 1.57166 -0.116904 0
M  V30 1921 C 187.151 2.18745 0.847812 0
M  V30 1922 C 188.167 1.163 1.29423 0
M  V30 1923 O 189.343 1.48761 1.35765 0
M  V30 1924 C 186.408 2.77307 2.0809 0
M  V30 1925 C 185.469 3.94781 1.68661 0
M  V30 1926 C 184.702 4.50541 2.86091 0
M  V30 1927 O 184.925 4.05202 4.01456 0
M  V30 1928 O 183.859 5.41256 2.63298 0
M  V30 1929 H 187.685 3.01632 0.353778 0
M  V30 1930 H 185.27 1.49005 0.108599 0
M  V30 1931 H 187.152 3.14647 2.80313 0
M  V30 1932 H 185.827 1.97452 2.56504 0
M  V30 1933 H 184.734 3.62214 0.935518 0
M  V30 1934 H 186.067 4.76065 1.24991 0
M  V30 1935 N 187.719 -0.156864 1.56817 0
M  V30 1936 C 188.649 -1.19589 2.00551 0
M  V30 1937 C 189.63 -1.4536 0.883426 0
M  V30 1938 O 190.815 -1.56449 1.15054 0
M  V30 1939 C 187.945 -2.53143 2.37773 0
M  V30 1940 C 186.899 -2.41913 3.53075 0
M  V30 1941 C 186.225 -3.80088 3.76081 0
M  V30 1942 C 187.525 -1.91157 4.86062 0
M  V30 1943 H 189.219 -0.832293 2.87599 0
M  V30 1944 H 186.765 -0.398918 1.38364 0
M  V30 1945 H 188.718 -3.26047 2.66967 0
M  V30 1946 H 187.442 -2.91319 1.4765 0
M  V30 1947 H 186.101 -1.71462 3.24031 0
M  V30 1948 H 185.749 -4.15683 2.83225 0
M  V30 1949 H 185.449 -3.73439 4.53671 0
M  V30 1950 H 186.973 -4.54556 4.0769 0
M  V30 1951 H 188.387 -2.53846 5.14038 0
M  V30 1952 H 186.784 -1.95422 5.67389 0
M  V30 1953 H 187.854 -0.866673 4.77092 0
M  V30 1954 N 189.197 -1.51736 -0.425897 0
M  V30 1955 C 190.425 -1.68794 -1.1965 0
M  V30 1956 C 190.84 -0.390164 -1.84725 0
M  V30 1957 O 190.197 0.632376 -1.71194 0
M  V30 1958 C 190.248 -2.81174 -2.27208 0
M  V30 1959 O 189.969 -4.05925 -1.64793 0
M  V30 1960 C 191.47 -3.09599 -3.17275 0
M  V30 1961 H 188.69 -0.566128 -0.360194 0
M  V30 1962 H 191.234 -1.98211 -0.503249 0
M  V30 1963 H 189.389 -2.54324 -2.9223 0
M  V30 1964 H 189.803 -4.68423 -2.35967 0
M  V30 1965 H 191.277 -3.91786 -3.88854 0
M  V30 1966 H 191.754 -2.22468 -3.78688 0
M  V30 1967 H 192.36 -3.38151 -2.57941 0
M  V30 1968 N 190.675 0.682077 -1.42076 0
M  V30 1969 C 191.625 1.78823 -1.41444 0
M  V30 1970 C 192.609 1.58323 -0.28681 0
M  V30 1971 O 193.801 1.68926 -0.528498 0
M  V30 1972 C 190.93 3.17232 -1.3122 0
M  V30 1973 C 190.016 3.4338 -2.489 0
M  V30 1974 N 190.407 3.40152 -3.7434 0
M  V30 1975 C 188.705 3.73986 -2.43003 0
M  V30 1976 C 189.406 3.65581 -4.52466 0
M  V30 1977 N 188.382 3.85989 -3.8277 0
M  V30 1978 H 192.184 1.7471 -2.36334 0
M  V30 1979 H 189.698 0.882622 -1.36321 0
M  V30 1980 H 191.695 3.96489 -1.2885 0
M  V30 1981 H 190.355 3.22547 -0.373263 0
M  V30 1982 H 191.366 3.20221 -4.07037 0
M  V30 1983 H 188.043 3.86591 -1.57651 0
M  V30 1984 H 189.433 3.69108 -5.61435 0
M  V30 1985 N 192.153 1.28127 0.917671 0
M  V30 1986 C 193.4 1.15052 1.66641 0
M  V30 1987 C 193.728 -0.301677 1.92146 0
M  V30 1988 O 192.983 -1.23622 1.51711 0
M  V30 1989 C 193.282 1.89018 3.03327 0
M  V30 1990 C 192.948 3.38832 2.97496 0
M  V30 1991 C 191.61 3.79693 2.95613 0
M  V30 1992 C 193.962 4.34378 2.88036 0
M  V30 1993 C 191.29 5.14447 2.82066 0
M  V30 1994 C 193.642 5.69201 2.7603 0
M  V30 1995 C 192.306 6.09343 2.72502 0
M  V30 1996 H 191.576 0.421006 0.609783 0
M  V30 1997 H 194.223 1.58855 1.06945 0
M  V30 1998 H 192.528 1.37752 3.66785 0
M  V30 1999 H 194.225 1.76321 3.60156 0
M  V30 2000 H 190.815 3.06342 2.99754 0
M  V30 2001 H 194.999 4.03775 2.88581 0
M  V30 2002 H 190.255 5.44681 2.77728 0
M  V30 2003 H 194.429 6.42901 2.67678 0
M  V30 2004 H 192.056 7.13712 2.61762 0
M  V30 2005 N 193.631 -1.12557 1.10312 0
M  V30 2006 C 194.541 -2.21841 0.763142 0
M  V30 2007 C 195.557 -1.72354 -0.238801 0
M  V30 2008 O 196.733 -2.01249 -0.0778746 0
M  V30 2009 C 193.798 -3.46131 0.198632 0
M  V30 2010 C 192.859 -4.10464 1.25769 0
M  V30 2011 C 192.092 -5.28821 0.72002 0
M  V30 2012 O 192.315 -5.6859 -0.453993 0
M  V30 2013 O 191.249 -5.83437 1.47935 0
M  V30 2014 H 195.075 -2.53312 1.67532 0
M  V30 2015 H 192.66 -1.20867 0.878157 0
M  V30 2016 H 194.542 -4.2125 -0.112401 0
M  V30 2017 H 193.217 -3.16338 -0.686419 0
M  V30 2018 H 192.124 -3.3713 1.62156 0
M  V30 2019 H 193.457 -4.44408 2.11571 0
M  V30 2020 N 195.109 -0.891671 -1.2995 0
M  V30 2021 C 196.355 -0.514261 -1.96171 0
M  V30 2022 C 196.688 0.935506 -1.70182 0
M  V30 2023 O 195.963 1.66204 -1.01028 0
M  V30 2024 C 196.246 -0.797719 -3.51153 0
M  V30 2025 C 196.099 -2.2986 -3.86632 0
M  V30 2026 C 197.418 -0.278749 -4.39216 0
M  V30 2027 H 194.537 -0.188314 -0.712535 0
M  V30 2028 H 197.179 -1.11689 -1.53706 0
M  V30 2029 H 195.329 -0.284826 -3.87455 0
M  V30 2030 H 197.001 -2.88042 -3.60319 0
M  V30 2031 H 195.244 -2.76257 -3.34462 0
M  V30 2032 H 195.915 -2.44753 -4.94773 0
M  V30 2033 H 198.391 -0.717825 -4.09862 0
M  V30 2034 H 197.267 -0.506353 -5.46559 0
M  V30 2035 H 197.528 0.820266 -4.34424 0
M  V30 2036 N 196.587 1.43421 -0.653314 0
M  V30 2037 C 197.519 2.29071 0.0769134 0
M  V30 2038 C 198.532 1.42513 0.787017 0
M  V30 2039 O 199.721 1.66449 0.644757 0
M  V30 2040 C 196.821 3.19436 1.13199 0
M  V30 2041 C 195.994 4.34533 0.500006 0
M  V30 2042 C 195.053 5.05771 1.45198 0
M  V30 2043 O 194.079 5.61037 0.960538 0
M  V30 2044 N 195.281 5.0928 2.78594 0
M  V30 2045 H 198.046 2.92382 -0.658235 0
M  V30 2046 H 195.607 1.54112 -0.496104 0
M  V30 2047 H 197.599 3.63958 1.76964 0
M  V30 2048 H 196.169 2.57724 1.7691 0
M  V30 2049 H 195.389 3.92925 -0.316738 0
M  V30 2050 H 196.677 5.08766 0.0588345 0
M  V30 2051 H 196.075 4.65751 3.2108 0
M  V30 2052 H 194.632 5.57519 3.37662 0
M  V30 2053 N 198.065 0.39524 1.52563 0
M  V30 2054 C 199.476 -0.0774719 1.86539 0
M  V30 2055 C 199.827 -1.45641 1.31466 0
M  V30 2056 O 198.952 -2.06459 0.648367 0
M  V30 2057 C 199.547 -0.147356 3.38479 0
M  V30 2058 C 198.106 -0.564373 3.72145 0
M  V30 2059 C 197.253 0.269919 2.75983 0
M  V30 2060 H 200.204 0.612876 1.46388 0
M  V30 2061 H 200.225 -0.965343 3.68051 0
M  V30 2062 H 199.737 0.856387 3.78534 0
M  V30 2063 H 197.838 -1.57527 3.37663 0
M  V30 2064 H 197.951 -0.318402 4.78041 0
M  V30 2065 H 196.315 -0.265696 2.5331 0
M  V30 2066 H 197.098 1.27175 3.18875 0
M  V30 2067 N 199.544 -1.57102 0.125237 0
M  V30 2068 C 200.772 -1.99761 -0.538797 0
M  V30 2069 C 201.187 -1.00503 -1.59827 0
M  V30 2070 O 200.544 0.00119474 -1.825 0
M  V30 2071 C 200.595 -3.42408 -1.15927 0
M  V30 2072 O 200.316 -4.37869 -0.142143 0
M  V30 2073 C 201.817 -4.00232 -1.90602 0
M  V30 2074 H 199.037 -0.655772 -0.14214 0
M  V30 2075 H 201.581 -2.03383 0.213413 0
M  V30 2076 H 199.736 -3.39706 -1.86223 0
M  V30 2077 H 200.15 -5.21128 -0.593775 0
M  V30 2078 H 201.624 -5.02105 -2.29335 0
M  V30 2079 H 202.101 -3.39721 -2.78363 0
M  V30 2080 H 202.707 -4.06499 -1.25055 0
M  V30 2081 N 201.022 0.148545 -1.56898 0
M  V30 2082 C 202.438 0.501131 -1.51528 0
M  V30 2083 C 202.638 1.83458 -0.833399 0
M  V30 2084 O 201.694 2.49259 -0.40328 0
M  V30 2085 C 203.007 0.512864 -2.96294 0
M  V30 2086 C 204.555 0.598487 -3.07225 0
M  V30 2087 C 205.03 0.640897 -4.53494 0
M  V30 2088 N 206.521 0.703163 -4.57832 0
M  V30 2089 C 207.256 0.756935 -5.68382 0
M  V30 2090 N 206.752 0.770147 -6.88506 0
M  V30 2091 N 208.545 0.797698 -5.56411 0
M  V30 2092 H 200.696 -0.725532 -1.99624 0
M  V30 2093 H 202.959 -0.264358 -0.910395 0
M  V30 2094 H 202.665 -0.398691 -3.49433 0
M  V30 2095 H 202.539 1.35133 -3.52163 0
M  V30 2096 H 204.926 1.50046 -2.54106 0
M  V30 2097 H 205.007 -0.267093 -2.54402 0
M  V30 2098 H 204.651 -0.256915 -5.0725 0
M  V30 2099 H 204.581 1.52295 -5.04097 0
M  V30 2100 H 207.072 0.700314 -3.71354 0
M  V30 2101 H 207.385 0.812983 -7.68512 0
M  V30 2102 H 205.73 0.738049 -6.9107 0
M  V30 2103 H 208.921 0.784535 -4.61479 0
M  V30 2104 H 209.094 0.83614 -6.42583 0
M  V30 2105 N 202.5 1.5196 0.417844 0
M  V30 2106 C 203.746 1.65836 1.16732 0
M  V30 2107 C 204.079 0.382881 1.90388 0
M  V30 2108 O 203.354 -0.618368 1.84408 0
M  V30 2109 C 203.637 2.87466 2.16876 0
M  V30 2110 C 203.49 4.25041 1.47174 0
M  V30 2111 C 204.809 3.04613 3.17646 0
M  V30 2112 H 201.928 0.603515 0.423011 0
M  V30 2113 H 204.57 1.84494 0.454105 0
M  V30 2114 H 202.72 2.71689 2.777 0
M  V30 2115 H 204.392 4.52527 0.895376 0
M  V30 2116 H 202.635 4.26843 0.773806 0
M  V30 2117 H 203.306 5.06176 2.20204 0
M  V30 2118 H 205.782 3.1923 2.66892 0
M  V30 2119 H 204.658 3.91247 3.8499 0
M  V30 2120 H 204.919 2.17541 3.84874 0
M  V30 2121 N 203.978 -0.674533 1.42435 0
M  V30 2122 C 204.941 -1.76986 1.45632 0
M  V30 2123 C 205.941 -1.5708 0.343871 0
M  V30 2124 O 207.131 -1.63367 0.604709 0
M  V30 2125 C 204.263 -3.15623 1.28822 0
M  V30 2126 H 205.456 -1.75539 2.43158 0
M  V30 2127 H 203.009 -0.884189 1.28887 0
M  V30 2128 H 203.744 -3.22696 0.322193 0
M  V30 2129 H 203.529 -3.31475 2.09444 0
M  V30 2130 H 205.019 -3.95537 1.33942 0
M  V30 2131 N 205.456 -1.28612 -0.910864 0
M  V30 2132 C 206.386 -1.15326 -2.03032 0
M  V30 2133 C 207.367 -0.0502924 -1.70026 0
M  V30 2134 O 208.552 -0.227797 -1.92859 0
M  V30 2135 C 205.682 -0.817343 -3.37545 0
M  V30 2136 C 204.636 -1.8754 -3.84724 0
M  V30 2137 C 203.962 -1.39305 -5.16235 0
M  V30 2138 C 205.262 -3.28244 -4.06267 0
M  V30 2139 H 206.956 -2.08975 -2.14406 0
M  V30 2140 H 204.502 -1.00612 -1.03021 0
M  V30 2141 H 206.455 -0.711151 -4.15356 0
M  V30 2142 H 205.179 0.154846 -3.26233 0
M  V30 2143 H 203.838 -1.97079 -3.09121 0
M  V30 2144 H 203.486 -0.409846 -5.01328 0
M  V30 2145 H 203.186 -2.10057 -5.48771 0
M  V30 2146 H 204.71 -1.30014 -5.96598 0
M  V30 2147 H 206.124 -3.21611 -4.74594 0
M  V30 2148 H 204.521 -3.96855 -4.5014 0
M  V30 2149 H 205.591 -3.72048 -3.10979 0
M  V30 2150 N 206.934 1.1197 -1.10907 0
M  V30 2151 C 208.164 1.8713 -0.875553 0
M  V30 2152 C 208.572 1.8016 0.577843 0
M  V30 2153 O 207.915 1.17699 1.41042 0
M  V30 2154 C 207.977 3.37005 -1.2517 0
M  V30 2155 C 207.641 3.67748 -2.71313 0
M  V30 2156 C 208.638 3.65698 -3.69542 0
M  V30 2157 C 206.323 3.96928 -3.07821 0
M  V30 2158 C 208.317 3.92395 -5.023 0
M  V30 2159 C 206.004 4.23284 -4.40765 0
M  V30 2160 C 207.002 4.21005 -5.37814 0
M  V30 2161 O 206.69 4.46704 -6.68364 0
M  V30 2162 H 206.422 0.598786 -0.313737 0
M  V30 2163 H 208.976 1.42568 -1.47863 0
M  V30 2164 H 207.206 3.82146 -0.591741 0
M  V30 2165 H 208.895 3.93519 -0.994877 0
M  V30 2166 H 209.661 3.43211 -3.42682 0
M  V30 2167 H 205.54 3.97841 -2.32902 0
M  V30 2168 H 209.084 3.90531 -5.78041 0
M  V30 2169 H 204.981 4.45246 -4.67361 0
M  V30 2170 H 205.749 4.64299 -6.74069 0
M  V30 2171 N 208.412 0.89855 1.29475 0
M  V30 2172 C 209.689 0.443416 1.90508 0
M  V30 2173 C 210.069 -1.07685 1.81569 0
M  V30 2174 O 209.417 -1.9182 1.24166 0
M  V30 2175 C 209.627 0.956708 3.35631 0
M  V30 2176 C 210.975 0.999728 4.12663 0
M  V30 2177 O 211.999 0.904299 3.4453 0
M  V30 2178 O 210.858 1.14289 5.34416 0
M  V30 2179 H 207.952 0.138025 0.815401 0
M  V30 2180 H 210.498 0.98834 1.37949 0
M  V30 2181 H 209.27 2.00067 3.36287 0
M  V30 2182 H 208.893 0.391728 3.95666 0
M  V30 2183 N 209.89 -1.43072 0.660911 0
M  V30 2184 C 210.853 -2.29194 -0.0166406 0
M  V30 2185 C 211.853 -1.42609 -0.742912 0
M  V30 2186 O 213.043 -1.64155 -0.583004 0
M  V30 2187 C 210.175 -3.24831 -1.0343 0
M  V30 2188 H 211.368 -2.90596 0.741208 0
M  V30 2189 H 208.921 -1.5048 0.422532 0
M  V30 2190 H 209.656 -2.68339 -1.82111 0
M  V30 2191 H 209.441 -3.88676 -0.517082 0
M  V30 2192 H 210.931 -3.89451 -1.50723 0
M  V30 2193 N 211.368 -0.403325 -1.52352 0
M  V30 2194 C 212.278 0.432009 -2.30588 0
M  V30 2195 C 213.294 1.05884 -1.38075 0
M  V30 2196 O 214.47 1.06161 -1.71148 0
M  V30 2197 C 211.535 1.53669 -3.10784 0
M  V30 2198 C 210.596 0.933525 -4.19027 0
M  V30 2199 C 209.829 1.98557 -4.9539 0
M  V30 2200 O 210.052 3.20283 -4.71991 0
M  V30 2201 O 208.986 1.59504 -5.80381 0
M  V30 2202 H 212.812 -0.205739 -3.03002 0
M  V30 2203 H 210.397 -0.166675 -1.48467 0
M  V30 2204 H 212.279 2.17814 -3.60742 0
M  V30 2205 H 210.954 2.15915 -2.41169 0
M  V30 2206 H 209.861 0.254954 -3.7323 0
M  V30 2207 H 211.194 0.35508 -4.90918 0
M  V30 2208 N 212.846 1.57033 -0.133567 0
M  V30 2209 C 214.074 2.00044 0.528195 0
M  V30 2210 C 214.489 1.01349 1.59291 0
M  V30 2211 O 213.846 0.00848369 1.82498 0
M  V30 2212 C 213.897 3.43018 1.1411 0
M  V30 2213 O 213.618 4.37939 0.11892 0
M  V30 2214 C 215.119 4.01237 1.88477 0
M  V30 2215 H 212.339 0.656517 0.138661 0
M  V30 2216 H 214.883 2.03267 -0.224196 0
M  V30 2217 H 213.038 3.40688 1.84418 0
M  V30 2218 H 213.452 5.21436 0.56613 0
M  V30 2219 H 214.926 5.03314 2.26669 0
M  V30 2220 H 215.403 3.41193 2.76558 0
M  V30 2221 H 216.009 4.07156 1.22898 0
M  V30 2222 N 214.325 -0.140222 1.56975 0
M  V30 2223 C 215.255 -1.17456 2.01808 0
M  V30 2224 C 216.236 -1.44415 0.898794 0
M  V30 2225 O 217.421 -1.5522 1.16707 0
M  V30 2226 C 214.551 -2.50607 2.40444 0
M  V30 2227 C 213.505 -2.38155 3.55621 0
M  V30 2228 C 212.831 -3.76078 3.80091 0
M  V30 2229 C 214.131 -1.85991 4.88062 0
M  V30 2230 H 215.825 -0.801743 2.88466 0
M  V30 2231 H 213.371 -0.38422 1.38779 0
M  V30 2232 H 215.324 -3.23197 2.7041 0
M  V30 2233 H 214.048 -2.89737 1.50732 0
M  V30 2234 H 212.707 -1.68016 3.25832 0
M  V30 2235 H 212.355 -4.12656 2.87618 0
M  V30 2236 H 212.055 -3.68606 4.57606 0
M  V30 2237 H 213.579 -4.50206 4.12488 0
M  V30 2238 H 214.993 -2.4838 5.16701 0
M  V30 2239 H 213.39 -1.89393 5.6943 0
M  V30 2240 H 214.46 -0.816023 4.77984 0
M  V30 2241 N 215.803 -1.52179 -0.40978 0
M  V30 2242 C 217.028 -1.70347 -1.18308 0
M  V30 2243 C 217.453 -0.411887 -1.83535 0
M  V30 2244 O 216.811 0.630587 -1.6998 0
M  V30 2245 C 216.859 -2.83977 -2.22238 0
M  V30 2246 O 215.963 -2.495 -3.28365 0
M  V30 2247 H 215.304 -0.567103 -0.345384 0
M  V30 2248 H 217.834 -1.98879 -0.480445 0
M  V30 2249 H 217.844 -3.0887 -2.66577 0
M  V30 2250 H 216.519 -3.77685 -1.74146 0
M  V30 2251 H 215.096 -2.35277 -2.89308 0
M  V30 2252 N 217.281 0.66697 -1.42791 0
M  V30 2253 C 218.697 0.981027 -1.25889 0
M  V30 2254 C 218.897 2.00793 -0.168695 0
M  V30 2255 O 217.953 2.48321 0.45747 0
M  V30 2256 C 219.266 1.47838 -2.61848 0
M  V30 2257 C 220.814 1.59575 -2.69267 0
M  V30 2258 C 221.289 2.12704 -4.05612 0
M  V30 2259 N 222.78 2.20026 -4.07606 0
M  V30 2260 C 223.515 2.62227 -5.09926 0
M  V30 2261 N 223.011 3.03824 -6.22626 0
M  V30 2262 N 224.804 2.62045 -4.97281 0
M  V30 2263 H 216.955 -0.0127891 -2.12396 0
M  V30 2264 H 219.218 0.0568258 -0.946295 0
M  V30 2265 H 218.924 0.798299 -3.4252 0
M  V30 2266 H 218.798 2.45579 -2.86305 0
M  V30 2267 H 221.185 2.26687 -1.88936 0
M  V30 2268 H 221.266 0.60302 -2.48591 0
M  V30 2269 H 220.91 1.46198 -4.86404 0
M  V30 2270 H 220.84 3.12782 -4.23645 0
M  V30 2271 H 223.331 1.90708 -3.2625 0
M  V30 2272 H 223.644 3.34734 -6.96544 0
M  V30 2273 H 221.989 3.01662 -6.26119 0
M  V30 2274 H 225.18 2.28916 -4.08308 0
M  V30 2275 H 225.353 2.94613 -5.77154 0
M  V30 2276 N 218.759 1.29093 0.90403 0
M  V30 2277 C 220.175 1.07011 1.1841 0
M  V30 2278 C 220.375 -0.181358 2.00682 0
M  V30 2279 O 219.431 -0.880331 2.36657 0
M  V30 2280 C 220.744 2.32311 1.90924 0
M  V30 2281 C 222.292 2.37587 2.03768 0
M  V30 2282 C 222.767 3.62679 2.79693 0
M  V30 2283 N 224.258 3.63376 2.87249 0
M  V30 2284 C 224.993 4.56848 3.46522 0
M  V30 2285 N 224.489 5.60648 4.06996 0
M  V30 2286 N 226.282 4.44426 3.44154 0
M  V30 2287 H 218.433 2.09412 0.354993 0
M  V30 2288 H 220.696 0.922181 0.219742 0
M  V30 2289 H 220.402 3.23536 1.37905 0
M  V30 2290 H 220.276 2.39483 2.91424 0
M  V30 2291 H 222.663 1.46853 2.55965 0
M  V30 2292 H 222.744 2.34403 1.02415 0
M  V30 2293 H 222.388 4.53762 2.28173 0
M  V30 2294 H 222.318 3.63119 3.81381 0
M  V30 2295 H 224.809 2.88321 2.44293 0
M  V30 2296 H 225.122 6.28101 4.50232 0
M  V30 2297 H 223.467 5.64463 4.05471 0
M  V30 2298 H 226.658 3.62529 2.96126 0
M  V30 2299 H 226.831 5.17457 3.90054 0
M  V30 2300 N 220.237 -1.11381 1.11499 0
M  V30 2301 C 221.184 -2.17439 0.773887 0
M  V30 2302 C 222.154 -1.64132 -0.254899 0
M  V30 2303 O 223.339 -1.90345 -0.13168 0
M  V30 2304 C 220.479 -3.44373 0.223917 0
M  V30 2305 C 219.592 -4.1168 1.30934 0
M  V30 2306 C 218.727 -5.263 0.71984 0
M  V30 2307 C 217.766 -5.85493 1.78507 0
M  V30 2308 N 216.903 -6.91507 1.21502 0
M  V30 2309 H 221.743 -2.45962 1.68246 0
M  V30 2310 H 219.28 -1.20744 0.840191 0
M  V30 2311 H 221.238 -4.17047 -0.112921 0
M  V30 2312 H 219.868 -3.16232 -0.647851 0
M  V30 2313 H 218.92 -3.37073 1.76312 0
M  V30 2314 H 220.232 -4.51729 2.11524 0
M  V30 2315 H 219.386 -6.05785 0.333094 0
M  V30 2316 H 218.125 -4.87559 -0.117377 0
M  V30 2317 H 217.13 -5.04686 2.18111 0
M  V30 2318 H 218.355 -6.26301 2.62533 0
M  V30 2319 H 216.301 -6.54783 0.399455 0
M  V30 2320 H 216.218 -7.30214 1.95763 0
M  V30 2321 H 217.486 -7.74795 0.855181 0
M  V30 2322 N 221.715 -0.905404 -1.28997 0
M  V30 2323 C 222.678 -0.392253 -2.25819 0
M  V30 2324 C 223.678 0.476753 -1.5357 0
M  V30 2325 O 224.868 0.280994 -1.71919 0
M  V30 2326 C 222 0.438588 -3.38067 0
M  V30 2327 H 223.193 -1.24743 -2.72725 0
M  V30 2328 H 220.746 -0.684051 -1.40536 0
M  V30 2329 H 221.481 1.31352 -2.96508 0
M  V30 2330 H 221.266 -0.184167 -3.91667 0
M  V30 2331 H 222.756 0.78873 -4.10084 0
M  V30 2332 N 223.193 1.4272 -0.668489 0
M  V30 2333 C 224.44 2.01624 -0.18814 0
M  V30 2334 C 224.768 1.5282 1.20317 0
M  V30 2335 O 224.023 0.718323 1.8204 0
M  V30 2336 C 224.322 3.57021 -0.164499 0
M  V30 2337 C 223.988 4.25232 -1.49962 0
M  V30 2338 C 222.65 4.4358 -1.8652 0
M  V30 2339 C 225.002 4.63727 -2.37921 0
M  V30 2340 C 222.33 4.97694 -3.10674 0
M  V30 2341 C 224.682 5.19218 -3.6138 0
M  V30 2342 C 223.346 5.3578 -3.98115 0
M  V30 2343 H 222.616 0.737795 -0.0688454 0
M  V30 2344 H 225.263 1.70991 -0.862225 0
M  V30 2345 H 223.568 3.87285 0.593079 0
M  V30 2346 H 225.265 4.00372 0.224271 0
M  V30 2347 H 221.855 4.11306 -1.20522 0
M  V30 2348 H 226.039 4.4923 -2.10964 0
M  V30 2349 H 221.295 5.08702 -3.39164 0
M  V30 2350 H 225.469 5.4799 -4.29743 0
M  V30 2351 H 223.096 5.77475 -4.94395 0
M  V30 2352 N 224.671 0.411399 1.52136 0
M  V30 2353 C 225.581 -0.419774 2.30814 0
M  V30 2354 C 226.597 -1.0515 1.38634 0
M  V30 2355 O 227.773 -1.05252 1.71709 0
M  V30 2356 C 224.838 -1.52019 3.11594 0
M  V30 2357 C 223.899 -0.91129 4.19516 0
M  V30 2358 C 223.132 -1.95927 4.96436 0
M  V30 2359 O 223.355 -3.17775 4.73683 0
M  V30 2360 O 222.289 -1.56423 5.81219 0
M  V30 2361 H 226.115 0.221805 3.02889 0
M  V30 2362 H 223.7 0.174547 1.48377 0
M  V30 2363 H 225.582 -2.15898 3.61892 0
M  V30 2364 H 224.257 -2.14633 2.42311 0
M  V30 2365 H 223.164 -0.235157 3.7336 0
M  V30 2366 H 224.497 -0.32904 4.91099 0
M  V30 2367 N 226.149 -1.5696 0.141893 0
M  V30 2368 C 227.112 -2.15316 -0.785587 0
M  V30 2369 C 228.112 -1.09366 -1.1788 0
M  V30 2370 O 229.302 -1.35031 -1.10056 0
M  V30 2371 C 226.434 -2.71211 -2.06537 0
M  V30 2372 H 227.627 -2.98608 -0.278041 0
M  V30 2373 H 225.18 -1.5593 -0.107519 0
M  V30 2374 H 225.915 -1.91571 -2.6167 0
M  V30 2375 H 225.7 -3.4872 -1.79268 0
M  V30 2376 H 227.19 -3.16189 -2.72789 0
M  V30 2377 N 227.627 0.131896 -1.57047 0
M  V30 2378 C 229.038 0.690407 -1.73465 0
M  V30 2379 C 229.389 1.8094 -0.758629 0
M  V30 2380 O 228.514 2.16282 0.0713813 0
M  V30 2381 C 229.109 1.25916 -3.14532 0
M  V30 2382 C 227.668 1.76409 -3.32501 0
M  V30 2383 C 226.815 0.658579 -2.69366 0
M  V30 2384 H 229.766 -0.0939144 -1.58422 0
M  V30 2385 H 229.787 2.12892 -3.15369 0
M  V30 2386 H 229.299 0.444515 -3.85546 0
M  V30 2387 H 227.4 2.60391 -2.66509 0
M  V30 2388 H 227.513 1.88241 -4.4057 0
M  V30 2389 H 225.877 1.08899 -2.30246 0
M  V30 2390 H 226.66 -0.14487 -3.42994 0
M  V30 2391 N 229.106 1.52395 0.401703 0
M  V30 2392 C 230.522 1.41363 0.740864 0
M  V30 2393 C 230.722 0.523982 1.94568 0
M  V30 2394 O 229.778 -0.00741204 2.52499 0
M  V30 2395 C 231.091 2.84011 0.987847 0
M  V30 2396 C 232.639 2.93404 1.09011 0
M  V30 2397 C 233.114 4.37036 1.3698 0
M  V30 2398 N 234.605 4.40304 1.43829 0
M  V30 2399 C 235.34 5.48508 1.67112 0
M  V30 2400 N 234.836 6.66819 1.87949 0
M  V30 2401 N 236.629 5.36034 1.69187 0
M  V30 2402 H 228.78 2.08765 -0.391262 0
M  V30 2403 H 231.043 0.941265 -0.112798 0
M  V30 2404 H 230.749 3.51265 0.174835 0
M  V30 2405 H 230.623 3.25502 1.906 0
M  V30 2406 H 233.01 2.26325 1.8937 0
M  V30 2407 H 233.091 2.55359 0.15015 0
M  V30 2408 H 232.735 5.04676 0.571353 0
M  V30 2409 H 232.665 4.72623 2.3224 0
M  V30 2410 H 235.156 3.55024 1.29486 0
M  V30 2411 H 235.469 7.45063 2.05185 0
M  V30 2412 H 233.814 6.6987 1.85199 0
M  V30 2413 H 237.005 4.42579 1.52451 0
M  V30 2414 H 237.178 6.20434 1.86993 0
M  V30 2415 N 230.584 -0.659388 1.43143 0
M  V30 2416 C 231.516 -1.7849 1.43784 0
M  V30 2417 C 232.529 -1.5932 0.334787 0
M  V30 2418 O 233.718 -1.68155 0.598842 0
M  V30 2419 C 230.818 -3.15828 1.22906 0
M  V30 2420 C 229.991 -3.61711 2.45934 0
M  V30 2421 C 229.05 -4.77831 2.20371 0
M  V30 2422 O 228.076 -4.87586 2.93681 0
M  V30 2423 N 229.278 -5.67611 1.21647 0
M  V30 2424 H 232.043 -1.7842 2.40803 0
M  V30 2425 H 229.604 -0.84302 1.3822 0
M  V30 2426 H 231.596 -3.91189 1.03697 0
M  V30 2427 H 230.166 -3.10707 0.343542 0
M  V30 2428 H 229.386 -2.76861 2.80609 0
M  V30 2429 H 230.674 -3.89112 3.27825 0
M  V30 2430 H 230.072 -5.62397 0.610449 0
M  V30 2431 H 228.629 -6.42719 1.08423 0
M  V30 2432 N 232.062 -1.29571 -0.897171 0
M  V30 2433 C 233.311 -1.1706 -1.64256 0
M  V30 2434 C 233.624 0.276476 -1.93636 0
M  V30 2435 O 234.83 0.52294 -2.66416 0
M  V30 2436 C 233.286 -2.0475 -2.95982 0
M  V30 2437 C 232.894 -3.54295 -2.74187 0
M  V30 2438 C 234.638 -2.0097 -3.73914 0
M  V30 2439 C 232.545 -4.34081 -4.01656 0
M  V30 2440 H 231.475 -0.43452 -0.616205 0
M  V30 2441 H 234.126 -1.54229 -0.994268 0
M  V30 2442 H 232.508 -1.60452 -3.62038 0
M  V30 2443 H 233.682 -4.06662 -2.1671 0
M  V30 2444 H 231.997 -3.59773 -2.09648 0
M  V30 2445 H 234.594 -2.57838 -4.68427 0
M  V30 2446 H 234.937 -0.990273 -4.0435 0
M  V30 2447 H 235.47 -2.43325 -3.14703 0
M  V30 2448 H 232.209 -5.36671 -3.76384 0
M  V30 2449 H 231.729 -3.86483 -4.58684 0
M  V30 2450 H 233.408 -4.44877 -4.69781 0
M  V30 2451 N 233.54 1.10788 -1.12088 0
M  V30 2452 C 234.768 1.86461 -0.896651 0
M  V30 2453 C 235.183 1.80492 0.553912 0
M  V30 2454 O 234.54 1.19102 1.38278 0
M  V30 2455 C 234.591 3.35006 -1.35843 0
M  V30 2456 O 234.312 3.40866 -2.75213 0
M  V30 2457 C 235.813 4.27565 -1.1706 0
M  V30 2458 H 233.033 0.589425 -0.320654 0
M  V30 2459 H 235.577 1.40076 -1.48993 0
M  V30 2460 H 233.732 3.7887 -0.808458 0
M  V30 2461 H 234.146 4.33411 -2.9539 0
M  V30 2462 H 235.62 5.30007 -1.54263 0
M  V30 2463 H 236.097 4.3906 -0.110814 0
M  V30 2464 H 236.703 3.89501 -1.70789 0
M  V30 2465 N 235.018 0.912232 1.28515 0
M  V30 2466 C 235.951 0.343928 2.25593 0
M  V30 2467 C 236.929 -0.550994 1.5298 0
M  V30 2468 O 238.113 -0.494991 1.81885 0
M  V30 2469 C 235.24 -0.508525 3.34861 0
M  V30 2470 C 234.286 0.320808 4.25292 0
M  V30 2471 S 235.119 1.72658 5.06902 0
M  V30 2472 C 236.275 0.881394 6.19663 0
M  V30 2473 H 236.508 1.16674 2.73449 0
M  V30 2474 H 234.041 0.713384 1.36931 0
M  V30 2475 H 235.999 -0.994539 3.9827 0
M  V30 2476 H 234.66 -1.30571 2.85675 0
M  V30 2477 H 233.853 -0.330941 5.02912 0
M  V30 2478 H 233.455 0.74042 3.66598 0
M  V30 2479 H 235.747 0.110359 6.7741 0
M  V30 2480 H 236.69 1.63009 6.89082 0
M  V30 2481 H 237.098 0.430239 5.62858 0
M  V30 2482 N 236.496 -1.42363 0.676048 0
M  V30 2483 C 237.426 -2.33497 0.0124832 0
M  V30 2484 C 238.407 -1.50748 -0.787981 0
M  V30 2485 O 239.592 -1.79346 -0.744884 0
M  V30 2486 C 236.722 -3.34377 -0.938582 0
M  V30 2487 C 235.676 -4.27289 -0.246622 0
M  V30 2488 C 235.002 -5.18386 -1.31071 0
M  V30 2489 C 236.302 -5.14916 0.875125 0
M  V30 2490 H 237.996 -2.89233 0.773593 0
M  V30 2491 H 235.542 -1.39073 0.37346 0
M  V30 2492 H 237.495 -3.97044 -1.41188 0
M  V30 2493 H 236.219 -2.76947 -1.73113 0
M  V30 2494 H 234.878 -3.66018 0.206456 0
M  V30 2495 H 234.526 -4.57282 -2.09528 0
M  V30 2496 H 234.226 -5.81378 -0.852839 0
M  V30 2497 H 235.75 -5.83929 -1.78492 0
M  V30 2498 H 237.164 -5.71262 0.482983 0
M  V30 2499 H 235.561 -5.86747 1.25887 0
M  V30 2500 H 236.631 -4.53242 1.72335 0
M  V30 2501 N 237.974 -0.419461 -1.51915 0
M  V30 2502 C 238.937 0.389116 -2.25873 0
M  V30 2503 C 239.937 0.964924 -1.28631 0
M  V30 2504 O 241.127 0.842179 -1.52489 0
M  V30 2505 C 238.259 1.54874 -3.03689 0
M  V30 2506 H 239.452 -0.258799 -2.98781 0
M  V30 2507 H 237.005 -0.172209 -1.55348 0
M  V30 2508 H 237.74 2.23323 -2.35154 0
M  V30 2509 H 237.525 1.14223 -3.75094 0
M  V30 2510 H 239.015 2.12046 -3.59759 0
M  V30 2511 N 239.452 1.56882 -0.150215 0
M  V30 2512 C 240.698 1.97299 0.494427 0
M  V30 2513 C 241.053 1.0338 1.62266 0
M  V30 2514 O 240.346 0.0694497 1.91474 0
M  V30 2515 C 240.54 3.41801 1.04437 0
M  V30 2516 C 240.369 4.49691 -0.0290451 0
M  V30 2517 C 239.139 5.03095 -0.47156 0
M  V30 2518 C 241.337 5.07693 -0.821703 0
M  V30 2519 N 239.319 5.94593 -1.52749 0
M  V30 2520 C 240.69 5.95431 -1.72805 0
M  V30 2521 C 242.745 4.90256 -0.869134 0
M  V30 2522 C 241.448 6.67599 -2.67777 0
M  V30 2523 C 243.474 5.63127 -1.8067 0
M  V30 2524 C 242.836 6.50576 -2.70057 0
M  V30 2525 H 238.935 0.76755 0.149639 0
M  V30 2526 H 241.519 1.93145 -0.24556 0
M  V30 2527 H 239.69 3.46541 1.75396 0
M  V30 2528 H 241.422 3.69272 1.6559 0
M  V30 2529 H 238.177 4.73543 -0.0732101 0
M  V30 2530 H 238.601 6.45047 -2.05531 0
M  V30 2531 H 243.243 4.22363 -0.192134 0
M  V30 2532 H 240.961 7.34717 -3.36476 0
M  V30 2533 H 244.547 5.51629 -1.84924 0
M  V30 2534 H 243.427 7.05974 -3.41424 0
M  V30 2535 N 240.93 -0.123565 1.57115 0
M  V30 2536 C 241.893 -1.13583 1.99076 0
M  V30 2537 C 242.893 -1.34564 0.880296 0
M  V30 2538 O 244.083 -1.31158 1.14644 0
M  V30 2539 C 241.215 -2.49128 2.32698 0
M  V30 2540 H 242.408 -0.775287 2.89706 0
M  V30 2541 H 239.961 -0.36771 1.51913 0
M  V30 2542 H 240.696 -2.90111 1.44934 0
M  V30 2543 H 240.481 -2.35255 3.13684 0
M  V30 2544 H 241.971 -3.2199 2.65918 0
M  V30 2545 N 242.408 -1.52605 -0.393616 0
M  V30 2546 C 243.824 -1.41753 -0.733357 0
M  V30 2547 C 244.024 -0.534293 -1.94287 0
M  V30 2548 O 243.08 -0.0059787 -2.52499 0
M  V30 2549 C 244.393 -2.84531 -0.972772 0
M  V30 2550 C 245.941 -2.93978 -1.07453 0
M  V30 2551 C 246.416 -4.37756 -1.3466 0
M  V30 2552 N 247.907 -4.4106 -1.41492 0
M  V30 2553 C 248.642 -5.49387 -1.642 0
M  V30 2554 N 248.138 -6.67806 -1.8441 0
M  V30 2555 N 249.931 -5.36923 -1.66342 0
M  V30 2556 H 242.082 -2.08555 0.402328 0
M  V30 2557 H 244.345 -0.940654 0.117789 0
M  V30 2558 H 244.051 -3.51353 -0.156204 0
M  V30 2559 H 243.925 -3.26508 -1.88871 0
M  V30 2560 H 246.312 -2.27326 -1.88167 0
M  V30 2561 H 246.393 -2.55435 -0.136605 0
M  V30 2562 H 246.037 -5.04972 -0.544581 0
M  V30 2563 H 245.967 -4.73848 -2.2973 0
M  V30 2564 H 248.458 -3.55705 -1.27601 0
M  V30 2565 H 248.771 -7.46141 -2.01231 0
M  V30 2566 H 247.116 -6.70843 -1.81644 0
M  V30 2567 H 250.307 -4.43381 -1.50102 0
M  V30 2568 H 250.48 -6.21416 -1.837 0
M  V30 2569 N 243.887 0.651787 -1.4349 0
M  V30 2570 C 245.164 1.40909 -1.35661 0
M  V30 2571 C 245.544 2.11099 -0.00511733 0
M  V30 2572 O 244.892 2.04892 1.0115 0
M  V30 2573 C 245.102 2.3926 -2.54078 0
M  V30 2574 C 246.45 3.03217 -2.97228 0
M  V30 2575 O 247.474 2.49588 -2.54135 0
M  V30 2576 O 246.333 4.00455 -3.71885 0
M  V30 2577 H 243.427 0.629625 -0.536191 0
M  V30 2578 H 245.973 0.678575 -1.55542 0
M  V30 2579 H 244.745 1.86352 -3.44076 0
M  V30 2580 H 244.368 3.1976 -2.36303 0
M  V30 2581 N 245.365 1.30045 0.890287 0
M  V30 2582 C 246.613 1.18327 1.63839 0
M  V30 2583 C 246.934 -0.263455 1.93212 0
M  V30 2584 O 246.204 -1.17856 1.56482 0
M  V30 2585 H 244.784 0.434933 0.607324 0
M  V30 2586 H 247.446 1.631 1.06698 0
M  V30 2587 H 246.542 1.74024 2.59079 0
M  V30 2588 N 246.843 -1.10192 1.12674 0
M  V30 2589 C 248.068 -1.86523 0.906853 0
M  V30 2590 C 248.493 -1.80221 -0.538711 0
M  V30 2591 O 247.851 -1.17396 -1.38158 0
M  V30 2592 C 247.899 -3.32758 1.3894 0
M  V30 2593 O 247.003 -4.08449 0.5695 0
M  V30 2594 H 246.344 -0.578678 0.325619 0
M  V30 2595 H 248.874 -1.39203 1.49946 0
M  V30 2596 H 248.884 -3.83608 1.38958 0
M  V30 2597 H 247.559 -3.36661 2.44197 0
M  V30 2598 H 246.136 -3.67427 0.636528 0
M  V30 2599 N 248.321 -0.919034 -1.28029 0
M  V30 2600 C 249.268 -0.410005 -2.27129 0
M  V30 2601 C 250.238 0.518405 -1.57803 0
M  V30 2602 O 251.423 0.439451 -1.8567 0
M  V30 2603 C 248.563 0.339054 -3.4343 0
M  V30 2604 C 247.676 -0.622468 -4.27492 0
M  V30 2605 C 246.811 0.145567 -5.31001 0
M  V30 2606 C 245.85 -0.809226 -6.06727 0
M  V30 2607 N 244.987 -0.0743728 -7.02061 0
M  V30 2608 H 249.827 -1.26011 -2.70047 0
M  V30 2609 H 247.364 -0.632663 -1.328 0
M  V30 2610 H 249.322 0.789586 -4.0966 0
M  V30 2611 H 247.952 1.15346 -3.01488 0
M  V30 2612 H 247.004 -1.19153 -3.61257 0
M  V30 2613 H 248.316 -1.35252 -4.80113 0
M  V30 2614 H 247.47 0.656417 -6.03139 0
M  V30 2615 H 246.209 0.908643 -4.79161 0
M  V30 2616 H 245.214 -1.3314 -5.33436 0
M  V30 2617 H 246.439 -1.57194 -6.60656 0
M  V30 2618 H 244.385 0.670616 -6.52563 0
M  V30 2619 H 244.302 -0.744157 -7.52329 0
M  V30 2620 H 245.57 0.416109 -7.78389 0
M  V30 2621 N 249.799 1.42003 -0.683588 0
M  V30 2622 C 250.729 2.33487 -0.024866 0
M  V30 2623 C 251.71 1.51163 0.779975 0
M  V30 2624 O 252.895 1.79739 0.735362 0
M  V30 2625 C 250.025 3.3487 0.920836 0
M  V30 2626 C 248.979 4.27414 0.223958 0
M  V30 2627 C 248.305 5.19074 1.2832 0
M  V30 2628 C 249.605 5.14445 -0.90242 0
M  V30 2629 H 251.299 2.88819 -0.788921 0
M  V30 2630 H 248.845 1.38873 -0.38083 0
M  V30 2631 H 250.798 3.97787 1.39081 0
M  V30 2632 H 249.522 2.77861 1.71642 0
M  V30 2633 H 248.181 3.65904 -0.225864 0
M  V30 2634 H 247.829 4.58387 2.071 0
M  V30 2635 H 247.529 5.81822 0.821995 0
M  V30 2636 H 249.053 5.84867 1.75392 0
M  V30 2637 H 250.467 5.70998 -0.513272 0
M  V30 2638 H 248.864 5.86072 -1.28997 0
M  V30 2639 H 249.934 4.52322 -1.74737 0
M  V30 2640 N 251.277 0.427512 1.51691 0
M  V30 2641 C 252.507 -0.140986 2.06118 0
M  V30 2642 C 252.915 -1.37854 1.29588 0
M  V30 2643 O 252.258 -1.80411 0.346036 0
M  V30 2644 C 252.32 -0.538276 3.55447 0
M  V30 2645 C 251.984 0.591095 4.53161 0
M  V30 2646 C 252.981 1.46027 4.98971 0
M  V30 2647 C 250.666 0.769028 4.96378 0
M  V30 2648 C 252.66 2.49216 5.8666 0
M  V30 2649 C 250.347 1.80421 5.83859 0
M  V30 2650 C 251.345 2.66417 6.28897 0
M  V30 2651 O 251.033 3.68159 7.14643 0
M  V30 2652 H 250.765 -0.0157455 0.675817 0
M  V30 2653 H 253.319 0.602495 1.96365 0
M  V30 2654 H 251.549 -1.33432 3.6295 0
M  V30 2655 H 253.238 -1.0368 3.92435 0
M  V30 2656 H 254.004 1.33429 4.66285 0
M  V30 2657 H 249.883 0.109273 4.6087 0
M  V30 2658 H 253.427 3.16372 6.21735 0
M  V30 2659 H 249.324 1.93042 6.15959 0
M  V30 2660 H 250.092 3.64622 7.32798 0
M  V30 2661 N 252.755 -1.56801 0.158532 0
M  V30 2662 C 254.003 -1.96102 -0.488712 0
M  V30 2663 C 254.324 -1.04498 -1.64636 0
M  V30 2664 O 253.594 -0.108783 -1.95598 0
M  V30 2665 H 252.174 -0.724102 -0.183535 0
M  V30 2666 H 254.836 -1.93457 0.236728 0
M  V30 2667 H 253.932 -3.00097 -0.857219 0
M  V30 2668 N 254.233 0.115231 -1.57178 0
M  V30 2669 C 255.163 1.1423 -2.03651 0
M  V30 2670 C 256.144 1.42967 -0.921655 0
M  V30 2671 O 257.329 1.53343 -1.19162 0
M  V30 2672 C 254.459 2.4675 -2.44401 0
M  V30 2673 C 253.413 2.32467 -3.59365 0
M  V30 2674 C 252.739 3.69984 -3.86026 0
M  V30 2675 C 254.039 1.78203 -4.90959 0
M  V30 2676 H 255.733 0.755749 -2.89705 0
M  V30 2677 H 253.279 0.362093 -1.39373 0
M  V30 2678 H 255.232 3.18854 -2.75517 0
M  V30 2679 H 253.956 2.87302 -1.55322 0
M  V30 2680 H 252.615 1.62811 -3.28463 0
M  V30 2681 H 252.263 4.08028 -2.94147 0
M  V30 2682 H 251.963 3.61279 -4.63412 0
M  V30 2683 H 253.487 4.43587 -4.19599 0
M  V30 2684 H 254.901 2.40128 -5.20587 0
M  V30 2685 H 253.298 1.8031 -5.72371 0
M  V30 2686 H 254.368 0.739876 -4.79222 0
M  V30 2687 N 255.711 1.52812 0.385517 0
M  V30 2688 C 256.959 1.67694 1.12797 0
M  V30 2689 C 257.28 0.421115 1.90399 0
M  V30 2690 O 256.55 -0.564551 1.87589 0
M  V30 2691 H 255.13 0.618155 0.419396 0
M  V30 2692 H 257.792 1.89938 0.436972 0
M  V30 2693 H 256.888 2.52896 1.82894 0
M  V30 2694 N 257.189 -0.644168 1.43834 0
M  V30 2695 C 258.605 -0.960875 1.27434 0
M  V30 2696 C 258.805 -2.00499 0.200618 0
M  V30 2697 O 257.861 -2.49018 -0.417906 0
M  V30 2698 C 259.174 -1.43653 2.64167 0
M  V30 2699 C 260.722 -1.55271 2.71772 0
M  V30 2700 C 261.197 -2.06224 4.08944 0
M  V30 2701 N 262.688 -2.13513 4.11055 0
M  V30 2702 C 263.423 -2.54081 5.14033 0
M  V30 2703 N 262.919 -2.9388 6.27381 0
M  V30 2704 N 264.712 -2.54101 5.01387 0
M  V30 2705 H 256.863 0.0465779 2.12349 0
M  V30 2706 H 259.126 -0.0417638 0.94708 0
M  V30 2707 H 258.832 -0.743706 3.43747 0
M  V30 2708 H 258.706 -2.40993 2.90176 0
M  V30 2709 H 261.093 -2.23653 1.92519 0
M  V30 2710 H 261.174 -0.563395 2.49519 0
M  V30 2711 H 260.818 -1.38441 4.88668 0
M  V30 2712 H 260.748 -3.06003 4.28567 0
M  V30 2713 H 263.239 -1.85493 3.29242 0
M  V30 2714 H 263.552 -3.2361 7.01781 0
M  V30 2715 H 261.897 -2.91663 6.30839 0
M  V30 2716 H 265.088 -2.22391 4.11898 0
M  V30 2717 H 265.261 -2.85394 5.81768 0
M  V30 2718 N 258.668 -1.30515 -0.883378 0
M  V30 2719 C 259.945 -1.10086 -1.6168 0
M  V30 2720 C 260.325 0.349269 -2.08191 0
M  V30 2721 O 259.673 1.34105 -1.85008 0
M  V30 2722 C 259.883 -2.10315 -2.78511 0
M  V30 2723 C 261.231 -2.42119 -3.48803 0
M  V30 2724 O 262.255 -2.08638 -2.88702 0
M  V30 2725 O 261.114 -2.99396 -4.57192 0
M  V30 2726 H 258.208 -0.422907 -0.710689 0
M  V30 2727 H 260.754 -1.41947 -0.930015 0
M  V30 2728 H 259.526 -3.07917 -2.41459 0
M  V30 2729 H 259.149 -1.79282 -3.54886 0
M  V30 2730 N 260.146 1.09593 -1.13257 0
M  V30 2731 C 261.076 2.18214 -0.830946 0
M  V30 2732 C 262.057 1.68812 0.208966 0
M  V30 2733 O 263.242 1.9408 0.0682666 0
M  V30 2734 C 260.372 3.46051 -0.294296 0
M  V30 2735 C 259.326 4.08778 -1.26826 0
M  V30 2736 C 258.652 5.31419 -0.591449 0
M  V30 2737 C 259.952 4.51476 -2.62615 0
M  V30 2738 H 261.646 2.43703 -1.73923 0
M  V30 2739 H 259.192 1.17128 -0.837675 0
M  V30 2740 H 261.145 4.2134 -0.0709606 0
M  V30 2741 H 259.869 3.20079 0.649366 0
M  V30 2742 H 258.528 3.35505 -1.47756 0
M  V30 2743 H 258.176 5.01727 0.357633 0
M  V30 2744 H 257.876 5.74341 -1.24123 0
M  V30 2745 H 259.4 6.09433 -0.377355 0
M  V30 2746 H 260.814 5.17999 -2.45663 0
M  V30 2747 H 259.211 5.05277 -3.23752 0
M  V30 2748 H 260.281 3.63962 -3.20406 0
M  V30 2749 N 261.624 0.925811 1.2754 0
M  V30 2750 C 262.574 0.394488 2.24561 0
M  V30 2751 C 263.558 -0.500183 1.52928 0
M  V30 2752 O 264.75 -0.337936 1.73744 0
M  V30 2753 C 261.879 -0.353328 3.41477 0
M  V30 2754 C 260.965 0.557752 4.20416 0
M  V30 2755 N 261.356 1.67674 4.77199 0
M  V30 2756 C 259.654 0.360404 4.44541 0
M  V30 2757 C 260.355 2.24324 5.36706 0
M  V30 2758 N 259.331 1.53305 5.21535 0
M  V30 2759 H 263.133 1.2489 2.66045 0
M  V30 2760 H 260.647 0.779864 1.4245 0
M  V30 2761 H 262.644 -0.7509 4.10082 0
M  V30 2762 H 261.304 -1.20469 3.01525 0
M  V30 2763 H 262.315 2.05915 4.75204 0
M  V30 2764 H 258.992 -0.450454 4.15063 0
M  V30 2765 H 260.382 3.18521 5.91603 0
M  V30 2766 N 263.102 -1.41638 0.69111 0
M  V30 2767 C 264.348 -2.01598 0.220519 0
M  V30 2768 C 264.681 -1.54594 -1.17535 0
M  V30 2769 O 263.956 -0.755177 -1.79241 0
M  V30 2770 C 264.239 -3.59062 0.273243 0
M  V30 2771 C 264.092 -4.16203 1.70573 0
M  V30 2772 C 265.411 -4.38546 -0.369457 0
M  V30 2773 H 262.53 -0.732468 0.0816045 0
M  V30 2774 H 265.172 -1.68445 0.878986 0
M  V30 2775 H 263.322 -3.87435 -0.287411 0
M  V30 2776 H 264.994 -3.98722 2.31989 0
M  V30 2777 H 263.237 -3.71414 2.2413 0
M  V30 2778 H 263.908 -5.25358 1.69419 0
M  V30 2779 H 266.384 -4.1596 0.107977 0
M  V30 2780 H 265.26 -5.48069 -0.302002 0
M  V30 2781 H 265.521 -4.17662 -1.44951 0
M  V30 2782 N 264.58 -0.43555 -1.51462 0
M  V30 2783 C 265.513 0.421989 -2.24264 0
M  V30 2784 C 266.491 1.02619 -1.26127 0
M  V30 2785 O 267.675 1.069 -1.55257 0
M  V30 2786 C 264.802 1.588 -2.99166 0
M  V30 2787 C 263.848 1.10465 -4.11946 0
M  V30 2788 S 264.681 0.048146 -5.35478 0
M  V30 2789 C 265.837 1.21887 -6.13917 0
M  V30 2790 H 266.07 -0.196102 -2.96653 0
M  V30 2791 H 263.603 -0.220054 -1.52824 0
M  V30 2792 H 265.561 2.25647 -3.42919 0
M  V30 2793 H 264.222 2.1775 -2.26371 0
M  V30 2794 H 263.415 1.97654 -4.63626 0
M  V30 2795 H 263.017 0.51445 -3.70445 0
M  V30 2796 H 265.309 2.13756 -6.42895 0
M  V30 2797 H 266.252 0.742076 -7.04201 0
M  V30 2798 H 266.66 1.45663 -5.45383 0
M  V30 2799 N 266.058 1.56714 -0.166846 0
M  V30 2800 C 267.335 1.88412 0.525373 0
M  V30 2801 C 267.715 1.07602 1.81618 0
M  V30 2802 O 267.063 0.168621 2.27877 0
M  V30 2803 C 267.273 3.40363 0.771613 0
M  V30 2804 C 268.621 4.10007 1.1036 0
M  V30 2805 O 269.645 3.45655 0.860304 0
M  V30 2806 O 268.504 5.2369 1.56239 0
M  V30 2807 H 265.598 0.781587 0.270278 0
M  V30 2808 H 268.144 1.68458 -0.204946 0
M  V30 2809 H 266.916 3.91046 -0.141093 0
M  V30 2810 H 266.539 3.65914 1.55541 0
M  V30 2811 N 267.536 -0.106894 1.57237 0
M  V30 2812 C 268.947 -0.662723 1.74542 0
M  V30 2813 C 269.298 -1.7971 0.787319 0
M  V30 2814 O 268.423 -2.16368 -0.0369636 0
M  V30 2815 C 269.018 -1.20896 3.16496 0
M  V30 2816 C 267.577 -1.71096 3.35266 0
M  V30 2817 C 266.724 -0.615642 2.7038 0
M  V30 2818 H 269.675 0.119106 1.58252 0
M  V30 2819 H 269.696 -2.07847 3.18716 0
M  V30 2820 H 269.208 -0.383122 3.86204 0
M  V30 2821 H 267.309 -2.56119 2.70618 0
M  V30 2822 H 267.422 -1.81208 4.43509 0
M  V30 2823 H 265.786 -1.05222 2.31949 0
M  V30 2824 H 266.569 0.199419 3.4272 0
M  V30 2825 N 269.014 -1.53014 -0.377408 0
M  V30 2826 C 269.924 -1.81557 -1.48574 0
M  V30 2827 C 270.94 -0.703102 -1.59162 0
M  V30 2828 O 272.116 -0.99192 -1.75279 0
M  V30 2829 C 269.181 -1.9889 -2.83978 0
M  V30 2830 C 268.242 -3.22801 -2.83016 0
M  V30 2831 C 267.475 -3.39298 -4.11962 0
M  V30 2832 O 267.698 -2.60345 -5.0752 0
M  V30 2833 O 266.632 -4.32604 -4.18494 0
M  V30 2834 H 270.458 -2.75695 -1.27382 0
M  V30 2835 H 268.043 -1.38248 -0.566373 0
M  V30 2836 H 269.925 -2.11931 -3.6423 0
M  V30 2837 H 268.6 -1.07942 -3.05172 0
M  V30 2838 H 267.507 -3.15193 -2.01505 0
M  V30 2839 H 268.84 -4.13632 -2.66775 0
M  V30 2840 N 270.492 0.636531 -1.44174 0
M  V30 2841 C 271.455 1.73063 -1.50273 0
M  V30 2842 C 272.455 1.56113 -0.385397 0
M  V30 2843 O 273.645 1.61707 -0.64781 0
M  V30 2844 C 270.777 3.12096 -1.37145 0
M  V30 2845 H 271.97 1.69031 -2.47727 0
M  V30 2846 H 269.523 0.849706 -1.31186 0
M  V30 2847 H 270.258 3.21728 -0.407636 0
M  V30 2848 H 270.043 3.25805 -2.18159 0
M  V30 2849 H 271.533 3.91846 -1.44382 0
M  V30 2850 N 271.97 1.30982 0.876444 0
M  V30 2851 C 273.218 1.20058 1.62575 0
M  V30 2852 C 273.539 -0.242947 1.93481 0
M  V30 2853 O 272.809 -1.1619 1.57724 0
M  V30 2854 H 271.389 0.44135 0.602677 0
M  V30 2855 H 274.051 1.64222 1.04962 0
M  V30 2856 H 273.147 1.76762 2.57219 0
M  V30 2857 N 273.449 -1.08991 1.13837 0
M  V30 2858 C 274.677 -1.85011 0.926202 0
M  V30 2859 C 275.092 -1.8135 -0.525127 0
M  V30 2860 O 274.449 -1.21287 -1.36366 0
M  V30 2861 C 274.5 -3.32802 1.41155 0
M  V30 2862 O 274.221 -3.36444 2.80601 0
M  V30 2863 C 275.722 -4.25649 1.23847 0
M  V30 2864 H 272.942 -0.584249 0.32999 0
M  V30 2865 H 275.486 -1.37688 1.51202 0
M  V30 2866 H 273.641 -3.77536 0.868631 0
M  V30 2867 H 274.055 -4.28657 3.02248 0
M  V30 2868 H 275.529 -5.27485 1.62675 0
M  V30 2869 H 276.006 -4.38828 0.18065 0
M  V30 2870 H 276.612 -3.86735 1.76964 0
M  V30 2871 N 274.927 -0.932562 -1.27047 0
M  V30 2872 C 275.857 -0.452902 -2.29066 0
M  V30 2873 C 276.838 0.489338 -1.62909 0
M  V30 2874 O 278.023 0.393046 -1.90181 0
M  V30 2875 C 275.153 0.290698 -3.46081 0
M  V30 2876 C 274.107 -0.564168 -4.24265 0
M  V30 2877 C 273.433 0.308886 -5.33807 0
M  V30 2878 C 274.733 -1.83112 -4.89149 0
M  V30 2879 H 276.427 -1.30552 -2.69437 0
M  V30 2880 H 273.973 -0.629201 -1.29526 0
M  V30 2881 H 275.926 0.637233 -4.16554 0
M  V30 2882 H 274.65 1.17738 -3.0464 0
M  V30 2883 H 273.309 -0.893477 -3.55545 0
M  V30 2884 H 272.957 1.19467 -4.88607 0
M  V30 2885 H 272.657 -0.259633 -5.87026 0
M  V30 2886 H 274.181 0.650884 -6.07121 0
M  V30 2887 H 275.595 -1.55236 -5.51883 0
M  V30 2888 H 273.992 -2.34353 -5.52448 0
M  V30 2889 H 275.062 -2.54772 -4.12576 0
M  V30 2890 N 276.405 1.4127 -0.698611 0
M  V30 2891 C 277.651 2.01478 -0.231207 0
M  V30 2892 C 277.984 1.55215 1.16713 0
M  V30 2893 O 277.259 0.764672 1.78838 0
M  V30 2894 C 277.542 3.58912 -0.292281 0
M  V30 2895 C 277.395 4.15293 -1.72778 0
M  V30 2896 C 278.714 4.38736 0.346194 0
M  V30 2897 H 275.833 0.732025 -0.0854878 0
M  V30 2898 H 278.475 1.67977 -0.887906 0
M  V30 2899 H 276.625 3.87582 0.26686 0
M  V30 2900 H 278.297 3.97486 -2.341 0
M  V30 2901 H 276.54 3.7022 -2.26096 0
M  V30 2902 H 277.211 5.24452 -1.72202 0
M  V30 2903 H 279.687 4.15897 -0.130035 0
M  V30 2904 H 278.563 5.48221 0.272932 0
M  V30 2905 H 278.824 4.18425 1.42734 0
M  V30 2906 N 277.883 0.443576 1.51229 0
M  V30 2907 C 278.793 -0.370721 2.31652 0
M  V30 2908 C 279.809 -1.02186 1.40833 0
M  V30 2909 O 280.985 -1.01586 1.73903 0
M  V30 2910 C 278.05 -1.45376 3.14749 0
M  V30 2911 C 277.111 -0.822099 4.21355 0
M  V30 2912 C 276.344 -1.85353 5.0048 0
M  V30 2913 O 276.567 -3.07656 4.80316 0
M  V30 2914 O 275.501 -1.4406 5.84406 0
M  V30 2915 H 279.327 0.286002 3.0235 0
M  V30 2916 H 276.912 0.20598 1.47973 0
M  V30 2917 H 278.794 -2.08173 3.66391 0
M  V30 2918 H 277.469 -2.09445 2.46809 0
M  V30 2919 H 276.376 -0.155909 3.73775 0
M  V30 2920 H 277.709 -0.224797 4.91686 0
M  V30 2921 N 279.361 -1.56624 0.175154 0
M  V30 2922 C 280.638 -1.88688 -0.515373 0
M  V30 2923 C 281.018 -1.08564 -1.81044 0
M  V30 2924 O 280.366 -0.180703 -2.27784 0
M  V30 2925 C 280.576 -3.40768 -0.753552 0
M  V30 2926 C 281.924 -4.10587 -1.08184 0
M  V30 2927 O 282.948 -3.46106 -0.841961 0
M  V30 2928 O 281.807 -5.24512 -1.53459 0
M  V30 2929 H 278.901 -0.78301 -0.26613 0
M  V30 2930 H 281.447 -1.68347 0.213877 0
M  V30 2931 H 280.219 -3.90965 0.161829 0
M  V30 2932 H 279.842 -3.66733 -1.53598 0
M  V30 2933 N 280.839 0.0985539 -1.57292 0
M  V30 2934 C 281.786 1.11981 -2.01814 0
M  V30 2935 C 282.756 1.39999 -0.89384 0
M  V30 2936 O 283.941 1.5152 -1.15958 0
M  V30 2937 C 281.081 2.43577 -2.44467 0
M  V30 2938 C 280.194 2.2232 -3.70402 0
M  V30 2939 C 279.329 3.4729 -4.01949 0
M  V30 2940 C 278.368 3.2128 -5.21005 0
M  V30 2941 N 277.505 4.38507 -5.48321 0
M  V30 2942 H 282.345 0.733149 -2.88841 0
M  V30 2943 H 279.882 0.350482 -1.42864 0
M  V30 2944 H 281.84 3.20373 -2.6724 0
M  V30 2945 H 280.47 2.80097 -1.60455 0
M  V30 2946 H 279.522 1.36343 -3.55126 0
M  V30 2947 H 280.834 1.99089 -4.57345 0
M  V30 2948 H 279.988 4.32495 -4.25479 0
M  V30 2949 H 278.727 3.73572 -3.13521 0
M  V30 2950 H 277.732 2.34468 -4.97298 0
M  V30 2951 H 278.957 2.96348 -6.11028 0
M  V30 2952 H 276.903 4.64871 -4.62851 0
M  V30 2953 H 276.82 4.18455 -6.29628 0
M  V30 2954 H 278.088 5.24787 -5.76385 0
M  V30 2955 N 282.317 1.53212 0.369288 0
M  V30 2956 C 283.728 1.60943 0.946276 0
M  V30 2957 C 284.079 0.47452 1.90375 0
M  V30 2958 O 283.204 -0.399597 2.12679 0
M  V30 2959 C 283.799 2.91715 1.72302 0
M  V30 2960 C 282.358 3.01792 2.24941 0
M  V30 2961 C 281.505 2.56211 1.06072 0
M  V30 2962 H 284.456 1.58007 0.148198 0
M  V30 2963 H 284.477 2.79309 2.58393 0
M  V30 2964 H 283.989 3.74295 1.0259 0
M  V30 2965 H 282.09 2.23791 2.97906 0
M  V30 2966 H 282.203 4.06803 2.53077 0
M  V30 2967 H 280.567 2.10998 1.4266 0
M  V30 2968 H 281.35 3.41206 0.378639 0
M  V30 2969 N 283.795 -0.628877 1.44509 0
M  V30 2970 C 285.044 -1.38437 1.4669 0
M  V30 2971 C 285.357 -1.95322 0.104272 0
M  V30 2972 O 286.563 -2.715 0.00362163 0
M  V30 2973 C 285.019 -2.50659 2.5826 0
M  V30 2974 C 284.627 -2.00277 4.0074 0
M  V30 2975 C 286.371 -3.27844 2.69664 0
M  V30 2976 C 284.278 -3.09854 5.0373 0
M  V30 2977 H 283.208 -0.520245 0.545766 0
M  V30 2978 H 285.859 -0.676313 1.70582 0
M  V30 2979 H 284.241 -3.2405 2.27612 0
M  V30 2980 H 285.415 -1.33736 4.40966 0
M  V30 2981 H 283.73 -1.35901 3.93599 0
M  V30 2982 H 286.327 -4.09534 3.43781 0
M  V30 2983 H 286.67 -3.77471 1.75559 0
M  V30 2984 H 287.203 -2.61543 2.99733 0
M  V30 2985 H 283.942 -2.65168 5.99472 0
M  V30 2986 H 283.462 -3.7503 4.68095 0
M  V30 2987 H 285.141 -3.74592 5.27532 0
M  V30 2988 N 285.273 -1.31445 -0.869486 0
M  V30 2989 C 286.205 -1.14955 -1.98287 0
M  V30 2990 C 287.218 -0.0885037 -1.62559 0
M  V30 2991 O 288.407 -0.336044 -1.75308 0
M  V30 2992 C 285.507 -0.734255 -3.3085 0
M  V30 2993 C 284.68 -1.88042 -3.94917 0
M  V30 2994 C 283.739 -1.4511 -5.05796 0
M  V30 2995 O 282.765 -2.16082 -5.2659 0
M  V30 2996 N 283.967 -0.338763 -5.79511 0
M  V30 2997 H 286.732 -2.10856 -2.12979 0
M  V30 2998 H 284.293 -1.23786 -1.04349 0
M  V30 2999 H 286.285 -0.42975 -4.02412 0
M  V30 3000 H 284.855 0.133158 -3.12316 0
M  V30 3001 H 284.075 -2.35222 -3.1633 0
M  V30 3002 H 285.363 -2.6481 -4.34457 0
M  V30 3003 H 284.761 0.252274 -5.65137 0
M  V30 3004 H 283.318 -0.0937925 -6.51733 0
M  V30 3005 N 286.751 1.08385 -1.14413 0
M  V30 3006 C 287.976 1.85057 -0.936413 0
M  V30 3007 C 288.401 1.81055 0.509971 0
M  V30 3008 O 287.759 1.1958 1.36273 0
M  V30 3009 C 287.807 3.30505 -1.44217 0
M  V30 3010 O 286.911 4.07491 -0.634409 0
M  V30 3011 H 286.252 0.573425 -0.334784 0
M  V30 3012 H 288.782 1.36799 -1.52142 0
M  V30 3013 H 288.792 3.81348 -1.45043 0
M  V30 3014 H 287.467 3.32734 -2.49522 0
M  V30 3015 H 286.044 3.66368 -0.694902 0
M  V30 3016 N 288.23 0.939286 1.26551 0
M  V30 3017 C 289.476 0.596234 1.94465 0
M  V30 3018 C 289.831 -0.855013 1.72358 0
M  V30 3019 O 289.124 -1.6034 1.04889 0
M  V30 3020 C 289.318 0.872106 3.46596 0
M  V30 3021 C 289.147 2.34862 3.83497 0
M  V30 3022 C 287.917 3.00344 4.06352 0
M  V30 3023 C 290.115 3.32697 3.92195 0
M  V30 3024 N 288.097 4.38027 4.30123 0
M  V30 3025 C 289.468 4.55631 4.20476 0
M  V30 3026 C 291.523 3.27747 3.74815 0
M  V30 3027 C 290.226 5.74233 4.33185 0
M  V30 3028 C 292.252 4.45672 3.88755 0
M  V30 3029 C 291.614 5.67388 4.17433 0
M  V30 3030 H 287.713 0.268515 0.734455 0
M  V30 3031 H 290.297 1.2083 1.5267 0
M  V30 3032 H 288.468 0.289102 3.87323 0
M  V30 3033 H 290.2 0.490513 4.01716 0
M  V30 3034 H 286.955 2.50969 4.01636 0
M  V30 3035 H 287.379 5.09288 4.46044 0
M  V30 3036 H 292.021 2.34703 3.51673 0
M  V30 3037 H 289.739 6.67731 4.55149 0
M  V30 3038 H 293.325 4.43372 3.76713 0
M  V30 3039 H 292.205 6.57115 4.27983 0
M  V30 3040 N 289.708 -1.40897 0.706093 0
M  V30 3041 C 290.618 -2.3455 0.0482286 0
M  V30 3042 C 291.634 -1.56796 -0.754396 0
M  V30 3043 O 292.81 -1.89228 -0.689538 0
M  V30 3044 C 289.875 -3.35625 -0.869303 0
M  V30 3045 C 288.936 -4.29261 -0.0576994 0
M  V30 3046 C 288.169 -5.25508 -0.931531 0
M  V30 3047 O 288.392 -5.27472 -2.17092 0
M  V30 3048 O 287.326 -6.00727 -0.375587 0
M  V30 3049 H 291.152 -2.92407 0.820476 0
M  V30 3050 H 288.737 -1.4193 0.4665 0
M  V30 3051 H 290.619 -3.97635 -1.39514 0
M  V30 3052 H 289.294 -2.80196 -1.62086 0
M  V30 3053 H 288.201 -3.70566 0.512988 0
M  V30 3054 H 289.534 -4.87817 0.655426 0
M  V30 3055 N 291.186 -0.45159 -1.50991 0
M  V30 3056 C 292.149 0.341117 -2.26647 0
M  V30 3057 C 293.149 0.937422 -1.30649 0
M  V30 3058 O 294.339 0.809644 -1.54241 0
M  V30 3059 C 291.471 1.48398 -3.06905 0
M  V30 3060 H 292.664 -0.322117 -2.98165 0
M  V30 3061 H 290.217 -0.205122 -1.54948 0
M  V30 3062 H 290.952 2.18284 -2.39838 0
M  V30 3063 H 290.737 1.06241 -3.77432 0
M  V30 3064 H 292.227 2.04367 -3.64176 0
M  V30 3065 N 292.664 1.56529 -0.183458 0
M  V30 3066 C 293.574 2.22144 0.754272 0
M  V30 3067 C 294.59 1.21684 1.24374 0
M  V30 3068 O 295.766 1.54385 1.29333 0
M  V30 3069 C 292.831 2.85884 1.96141 0
M  V30 3070 C 291.892 4.01579 1.51765 0
M  V30 3071 C 291.125 4.6227 2.66725 0
M  V30 3072 O 291.348 4.21865 3.83909 0
M  V30 3073 O 290.282 5.51936 2.40104 0
M  V30 3074 H 294.108 3.02861 0.225527 0
M  V30 3075 H 291.693 1.49331 0.0453032 0
M  V30 3076 H 293.575 3.26253 2.66715 0
M  V30 3077 H 292.25 2.08154 2.47899 0
M  V30 3078 H 291.157 3.65856 0.781049 0
M  V30 3079 H 292.49 4.80938 1.04686 0
M  V30 3080 N 294.142 -0.090211 1.57342 0
M  V30 3081 C 295.37 -0.806224 1.90546 0
M  V30 3082 C 295.785 -1.72041 0.777644 0
M  V30 3083 O 295.142 -1.80778 -0.250103 0
M  V30 3084 C 295.193 -1.61546 3.23396 0
M  V30 3085 O 294.914 -0.738043 4.31839 0
M  V30 3086 C 296.415 -2.4341 3.70495 0
M  V30 3087 H 293.635 -0.230256 0.630257 0
M  V30 3088 H 296.179 -0.0659843 2.04394 0
M  V30 3089 H 294.334 -2.30816 3.11131 0
M  V30 3090 H 294.748 -1.29901 5.08159 0
M  V30 3091 H 296.222 -2.95676 4.66133 0
M  V30 3092 H 296.699 -3.22098 2.98579 0
M  V30 3093 H 297.305 -1.79331 3.85643 0
M  V30 3094 N 295.62 -1.53406 -0.361157 0
M  V30 3095 C 296.85 -1.73465 -1.1222 0
M  V30 3096 C 297.258 -0.465486 -1.83384 0
M  V30 3097 O 296.601 0.571611 -1.7458 0
M  V30 3098 C 296.663 -2.84834 -2.19339 0
M  V30 3099 C 296.327 -4.25038 -1.67903 0
M  V30 3100 C 297.324 -5.07231 -1.14074 0
M  V30 3101 C 295.009 -4.71464 -1.73282 0
M  V30 3102 C 297.003 -6.33942 -0.663068 0
M  V30 3103 C 294.69 -5.98153 -1.25127 0
M  V30 3104 C 295.688 -6.79223 -0.717296 0
M  V30 3105 O 295.376 -8.03533 -0.242865 0
M  V30 3106 H 295.108 -0.583526 -0.341283 0
M  V30 3107 H 297.662 -2.00964 -0.424591 0
M  V30 3108 H 295.892 -2.5282 -2.92607 0
M  V30 3109 H 297.581 -2.9303 -2.80871 0
M  V30 3110 H 298.347 -4.72534 -1.09254 0
M  V30 3111 H 294.226 -4.08432 -2.13786 0
M  V30 3112 H 297.77 -6.97167 -0.245612 0
M  V30 3113 H 293.667 -6.32347 -1.29642 0
M  V30 3114 H 294.435 -8.177 -0.361786 0
M  V30 3115 N 297.098 0.621204 -1.44841 0
M  V30 3116 C 298.061 1.71459 -1.521 0
M  V30 3117 C 299.061 1.55696 -0.401933 0
M  V30 3118 O 300.251 1.61011 -0.664925 0
M  V30 3119 C 297.383 3.10624 -1.40447 0
M  V30 3120 H 298.576 1.66394 -2.49506 0
M  V30 3121 H 296.129 0.835745 -1.3208 0
M  V30 3122 H 296.864 3.21277 -0.441737 0
M  V30 3123 H 296.649 3.23473 -2.21602 0
M  V30 3124 H 298.139 3.90293 -1.4853 0
M  V30 3125 N 298.576 1.31904 0.862503 0
M  V30 3126 C 299.508 1.16005 1.97675 0
M  V30 3127 C 300.521 0.0971234 1.6251 0
M  V30 3128 O 301.71 0.345337 1.75128 0
M  V30 3129 C 298.81 0.751791 3.30456 0
M  V30 3130 C 297.983 1.90133 3.93914 0
M  V30 3131 C 297.042 1.4779 5.05019 0
M  V30 3132 O 296.068 2.18872 5.25437 0
M  V30 3133 N 297.27 0.369491 5.79323 0
M  V30 3134 H 300.035 2.11982 2.11857 0
M  V30 3135 H 297.596 1.24337 1.03691 0
M  V30 3136 H 299.588 0.451084 4.02178 0
M  V30 3137 H 298.158 -0.116593 3.12382 0
M  V30 3138 H 297.378 2.36896 3.15078 0
M  V30 3139 H 298.666 2.67111 4.33047 0
M  V30 3140 H 298.064 -0.222299 5.65263 0
M  V30 3141 H 296.621 0.128354 6.51674 0
M  V30 3142 N 300.054 -1.07777 1.14986 0
M  V30 3143 C 301.465 -1.61766 0.932127 0
M  V30 3144 C 301.816 -1.88974 -0.527581 0
M  V30 3145 O 300.941 -1.65198 -1.39781 0
M  V30 3146 C 301.536 -2.93891 1.68563 0
M  V30 3147 C 300.095 -3.44639 1.5133 0
M  V30 3148 C 299.242 -2.18767 1.704 0
M  V30 3149 H 302.193 -0.909201 1.30074 0
M  V30 3150 H 302.214 -3.62623 1.15259 0
M  V30 3151 H 301.726 -2.74057 2.74799 0
M  V30 3152 H 299.827 -3.69564 0.474702 0
M  V30 3153 H 299.94 -4.20966 2.28746 0
M  V30 3154 H 298.304 -2.28253 1.13016 0
M  V30 3155 H 299.087 -2.01433 2.77992 0
M  V30 3156 N 301.532 -0.945985 -1.26051 0
M  V30 3157 C 302.809 -0.513816 -1.88731 0
M  V30 3158 C 303.189 1.00872 -1.8544 0
M  V30 3159 O 302.537 1.8708 -1.312 0
M  V30 3160 C 302.747 -1.08062 -3.31849 0
M  V30 3161 C 304.095 -1.1522 -4.08668 0
M  V30 3162 O 305.119 -1.03155 -3.40936 0
M  V30 3163 O 303.978 -1.34044 -5.29806 0
M  V30 3164 H 301.072 -0.168193 -0.809716 0
M  V30 3165 H 303.618 -1.03886 -1.34186 0
M  V30 3166 H 302.39 -2.1241 -3.2863 0
M  V30 3167 H 302.013 -0.538307 -3.93939 0
M  V30 3168 N 303.011 1.40521 -0.713556 0
M  V30 3169 C 304.257 2.01221 -0.252564 0
M  V30 3170 C 304.59 1.56444 1.1506 0
M  V30 3171 O 303.865 0.783597 1.78017 0
M  V30 3172 C 304.148 3.58582 -0.330332 0
M  V30 3173 C 304.001 4.13437 -1.77173 0
M  V30 3174 C 305.32 4.39079 0.299641 0
M  V30 3175 H 302.439 0.731077 -0.0932471 0
M  V30 3176 H 305.081 1.67026 -0.905673 0
M  V30 3177 H 303.231 3.87844 0.225737 0
M  V30 3178 H 304.903 3.9498 -2.38303 0
M  V30 3179 H 303.146 3.67801 -2.3001 0
M  V30 3180 H 303.817 5.22597 -1.77755 0
M  V30 3181 H 306.293 4.15735 -0.174139 0
M  V30 3182 H 305.169 5.4848 0.214771 0
M  V30 3183 H 305.43 4.19915 1.38288 0
M  V30 3184 N 304.489 0.459591 1.5075 0
M  V30 3185 C 305.419 -0.330644 2.31147 0
M  V30 3186 C 306.4 -1.00087 1.37538 0
M  V30 3187 O 307.585 -1.00025 1.66459 0
M  V30 3188 C 304.715 -1.41958 3.16962 0
M  V30 3189 C 303.669 -0.871608 4.19031 0
M  V30 3190 C 302.995 -2.05797 4.9351 0
M  V30 3191 C 304.295 0.109251 5.22186 0
M  V30 3192 H 305.989 0.340336 2.97459 0
M  V30 3193 H 303.535 0.165119 1.4305 0
M  V30 3194 H 305.488 -1.9798 3.71997 0
M  V30 3195 H 304.212 -2.11917 2.48513 0
M  V30 3196 H 302.871 -0.333442 3.6508 0
M  V30 3197 H 302.519 -2.74427 4.21544 0
M  V30 3198 H 302.219 -1.6976 5.62544 0
M  V30 3199 H 303.743 -2.62331 5.51375 0
M  V30 3200 H 305.157 -0.361405 5.7216 0
M  V30 3201 H 303.554 0.383316 5.98875 0
M  V30 3202 H 304.624 1.03887 4.73641 0
M  V30 3203 N 305.967 -1.56429 0.191757 0
M  V30 3204 C 306.93 -2.17707 -0.716688 0
M  V30 3205 C 307.93 -1.13061 -1.14341 0
M  V30 3206 O 309.12 -1.38464 -1.05704 0
M  V30 3207 C 306.252 -2.77644 -1.97804 0
M  V30 3208 H 307.445 -2.99342 -0.1829 0
M  V30 3209 H 304.998 -1.56193 -0.0578566 0
M  V30 3210 H 305.733 -1.99799 -2.55443 0
M  V30 3211 H 305.518 -3.54246 -1.68083 0
M  V30 3212 H 307.008 -3.24708 -2.62592 0
M  V30 3213 N 307.445 0.0818655 -1.57387 0
M  V30 3214 C 308.691 0.784074 -1.8703 0
M  V30 3215 C 309.024 1.77729 -0.782689 0
M  V30 3216 O 308.299 1.93384 0.208051 0
M  V30 3217 C 308.582 1.50105 -3.27323 0
M  V30 3218 C 308.435 0.524925 -4.46727 0
M  V30 3219 C 309.754 2.44843 -3.65705 0
M  V30 3220 H 306.873 0.283582 -0.680257 0
M  V30 3221 H 309.515 0.0474352 -1.89941 0
M  V30 3222 H 307.665 2.12897 -3.24972 0
M  V30 3223 H 309.337 -0.0970111 -4.61198 0
M  V30 3224 H 307.58 -0.160606 -4.33503 0
M  V30 3225 H 308.251 1.064 -5.41648 0
M  V30 3226 H 310.727 1.92135 -3.69085 0
M  V30 3227 H 309.603 2.92018 -4.64776 0
M  V30 3228 H 309.864 3.29197 -2.95096 0
M  V30 3229 N 308.923 1.53595 0.353017 0
M  V30 3230 C 310.169 1.71581 1.09232 0
M  V30 3231 C 310.524 0.468328 1.86613 0
M  V30 3232 O 309.817 -0.538911 1.83865 0
M  V30 3233 C 310.011 2.91313 2.07054 0
M  V30 3234 C 309.84 4.27585 1.39287 0
M  V30 3235 C 308.61 4.92233 1.1417 0
M  V30 3236 C 310.808 5.07656 0.824005 0
M  V30 3237 N 308.79 6.124 0.428841 0
M  V30 3238 C 310.161 6.19531 0.241195 0
M  V30 3239 C 312.216 4.92609 0.723922 0
M  V30 3240 C 310.919 7.18002 -0.431952 0
M  V30 3241 C 312.945 5.91365 0.0645334 0
M  V30 3242 C 312.307 7.02571 -0.507347 0
M  V30 3243 H 308.406 0.680987 0.384422 0
M  V30 3244 H 310.99 1.91013 0.377096 0
M  V30 3245 H 309.161 2.73398 2.75877 0
M  V30 3246 H 310.893 2.98062 2.73753 0
M  V30 3247 H 307.648 4.51612 1.42631 0
M  V30 3248 H 308.072 6.76944 0.0874131 0
M  V30 3249 H 312.714 4.06808 1.15181 0
M  V30 3250 H 310.432 8.03384 -0.871758 0
M  V30 3251 H 314.018 5.81799 -0.0121469 0
M  V30 3252 H 312.898 7.77675 -1.0095 0
M  V30 3253 N 310.401 -0.613514 1.45168 0
M  V30 3254 C 311.349 -1.74572 1.53712 0
M  V30 3255 C 312.343 -1.64426 0.407505 0
M  V30 3256 O 313.549 -1.70291 0.583176 0
M  V30 3257 H 309.924 -0.576641 0.48269 0
M  V30 3258 H 311.895 -1.64492 2.48968 0
M  V30 3259 C 310.644 -3.12943 1.51532 0
M  V30 3260 H 309.967 -3.21407 2.37776 0
M  V30 3261 H 311.407 -3.9201 1.61569 0
M  V30 3262 C 309.866 -3.36053 0.238798 0
M  V30 3263 O 310.396 -3.95837 -0.6838 0
M  V30 3264 N 308.602 -2.9028 0.136359 0
M  V30 3265 H 308.149 -2.41811 0.887999 0
M  V30 3266 H 308.107 -3.06116 -0.716944 0
M  V30 3267 N 311.879 -1.3236 -0.855495 0
M  V30 3268 C 312.811 -1.17052 -1.97057 0
M  V30 3269 C 313.824 -0.10574 -1.62456 0
M  V30 3270 O 315.013 -0.354619 -1.74942 0
M  V30 3271 C 312.113 -0.769305 -3.30053 0
M  V30 3272 C 311.286 -1.9222 -3.929 0
M  V30 3273 C 310.345 -1.50466 -5.04228 0
M  V30 3274 O 309.371 -2.21655 -5.24269 0
M  V30 3275 N 310.573 -0.400209 -5.79119 0
M  V30 3276 H 313.338 -2.13103 -2.1073 0
M  V30 3277 H 310.899 -1.24885 -1.0303 0
M  V30 3278 H 312.891 -0.472407 -4.01933 0
M  V30 3279 H 311.461 0.100025 -3.1244 0
M  V30 3280 H 310.681 -2.38563 -3.13817 0
M  V30 3281 H 311.969 -2.69403 -4.31624 0
M  V30 3282 H 311.367 0.192319 -5.65373 0
M  V30 3283 H 309.924 -0.162912 -6.51596 0
M  V30 3284 N 313.357 1.07166 -1.15556 0
M  V30 3285 C 314.307 2.12649 -0.82247 0
M  V30 3286 C 315.291 1.59725 0.194129 0
M  V30 3287 O 316.483 1.76999 -0.00540402 0
M  V30 3288 C 313.612 3.41847 -0.315572 0
M  V30 3289 C 312.698 4.0162 -1.36244 0
M  V30 3290 N 313.089 4.35625 -2.5703 0
M  V30 3291 C 311.387 4.29114 -1.21562 0
M  V30 3292 C 312.088 4.83017 -3.24144 0
M  V30 3293 N 311.064 4.81906 -2.51531 0
M  V30 3294 H 314.866 2.36776 -1.74111 0
M  V30 3295 H 312.38 1.24622 -1.0413 0
M  V30 3296 H 314.377 4.16859 -0.0585855 0
M  V30 3297 H 313.037 3.19163 0.597105 0
M  V30 3298 H 314.048 4.26253 -2.94158 0
M  V30 3299 H 310.725 4.15919 -0.362988 0
M  V30 3300 H 312.115 5.18605 -4.27198 0
M  V30 3301 N 314.835 0.952656 1.25548 0
M  V30 3302 C 315.745 0.47782 2.29682 0
M  V30 3303 C 316.761 -0.453859 1.67977 0
M  V30 3304 O 317.937 -0.330587 1.98668 0
M  V30 3305 C 315.002 -0.238655 3.45878 0
M  V30 3306 C 314.063 0.730994 4.23031 0
M  V30 3307 C 313.296 0.0486165 5.33678 0
M  V30 3308 O 313.519 -1.16612 5.58353 0
M  V30 3309 O 312.453 0.733152 5.97418 0
M  V30 3310 H 316.279 1.34312 2.72386 0
M  V30 3311 H 313.864 0.719026 1.30959 0
M  V30 3312 H 315.746 -0.641774 4.16484 0
M  V30 3313 H 314.421 -1.07916 3.05181 0
M  V30 3314 H 313.328 1.18428 3.5486 0
M  V30 3315 H 314.661 1.53946 4.67506 0
M  V30 3316 N 316.313 -1.40141 0.720998 0
M  V30 3317 C 317.538 -2.05618 0.271258 0
M  V30 3318 C 317.963 -1.53978 -1.08039 0
M  V30 3319 O 317.321 -0.677463 -1.68167 0
M  V30 3320 C 317.369 -3.59609 0.267197 0
M  V30 3321 O 316.473 -4.05526 -0.749814 0
M  V30 3322 H 315.814 -0.651904 0.126162 0
M  V30 3323 H 318.344 -1.79439 0.982997 0
M  V30 3324 H 318.354 -4.0786 0.106744 0
M  V30 3325 H 317.029 -3.96559 1.25354 0
M  V30 3326 H 315.606 -3.68722 -0.556644 0
M  V30 3327 N 317.792 -0.46758 -1.50504 0
M  V30 3328 C 319.017 0.0886943 -2.0721 0
M  V30 3329 C 319.442 1.33057 -1.32956 0
M  V30 3330 O 318.8 1.77354 -0.376197 0
M  V30 3331 C 318.848 0.359202 -3.58806 0
M  V30 3332 O 317.952 1.44034 -3.8643 0
M  V30 3333 H 317.293 -0.0114349 -0.663902 0
M  V30 3334 H 319.823 -0.657613 -1.93744 0
M  V30 3335 H 319.833 0.600742 -4.03553 0
M  V30 3336 H 318.508 -0.548311 -4.1227 0
M  V30 3337 H 317.085 1.18638 -3.53524 0
M  V30 3338 N 319.27 1.56325 -0.20005 0
M  V30 3339 C 320.518 1.97329 0.436547 0
M  V30 3340 C 320.839 1.08826 1.61808 0
M  V30 3341 O 320.109 0.160604 1.95241 0
M  V30 3342 H 318.689 0.728714 0.164272 0
M  V30 3343 H 321.351 1.92761 -0.287937 0
M  V30 3344 H 320.447 3.02264 0.777353 0
M  V30 3345 N 320.748 -0.0735177 1.57428 0
M  V30 3346 C 321.994 -0.774145 1.87443 0
M  V30 3347 C 322.327 -1.77311 0.792103 0
M  V30 3348 O 321.602 -1.93492 -0.197793 0
M  V30 3349 C 321.885 -1.48367 3.28115 0
M  V30 3350 C 321.738 -0.501227 4.46999 0
M  V30 3351 C 323.057 -2.429 3.66998 0
M  V30 3352 H 320.176 -0.279971 0.681752 0
M  V30 3353 H 322.818 -0.0373616 1.89963 0
M  V30 3354 H 320.968 -2.11171 3.26097 0
M  V30 3355 H 322.64 0.121468 4.6114 0
M  V30 3356 H 320.883 0.183593 4.33411 0
M  V30 3357 H 321.554 -1.03526 5.42205 0
M  V30 3358 H 324.03 -1.90175 3.70098 0
M  V30 3359 H 322.906 -2.89549 4.66318 0
M  V30 3360 H 323.167 -3.27628 2.96837 0
M  V30 3361 N 322.226 -1.5378 -0.344866 0
M  V30 3362 C 323.159 -1.7649 -1.4466 0
M  V30 3363 C 324.137 -0.613954 -1.50563 0
M  V30 3364 O 325.321 -0.84896 -1.683 0
M  V30 3365 C 322.448 -1.86235 -2.82903 0
M  V30 3366 C 321.494 -3.08375 -2.94631 0
M  V30 3367 S 322.327 -4.67457 -2.61236 0
M  V30 3368 C 323.483 -4.80079 -4.0159 0
M  V30 3369 H 323.716 -2.69661 -1.2518 0
M  V30 3370 H 321.249 -1.44632 -0.540455 0
M  V30 3371 H 323.207 -1.92535 -3.62547 0
M  V30 3372 H 321.868 -0.940786 -2.9968 0
M  V30 3373 H 321.061 -3.11865 -3.95925 0
M  V30 3374 H 320.663 -3.00294 -2.22934 0
M  V30 3375 H 322.955 -4.61407 -4.96094 0
M  V30 3376 H 323.898 -5.82168 -4.03095 0
M  V30 3377 H 324.306 -4.08544 -3.89554 0
M  V30 3378 N 323.704 0.605807 -1.45491 0
M  V30 3379 C 324.667 1.69836 -1.5391 0
M  V30 3380 C 325.667 1.55261 -0.418424 0
M  V30 3381 O 326.857 1.60296 -0.681965 0
M  V30 3382 C 323.989 3.09117 -1.43734 0
M  V30 3383 H 325.182 1.63738 -2.51257 0
M  V30 3384 H 322.735 0.821689 -1.32959 0
M  V30 3385 H 323.47 3.20791 -0.475788 0
M  V30 3386 H 323.255 3.21104 -2.25021 0
M  V30 3387 H 324.745 3.88696 -1.52661 0
M  V30 3388 N 325.182 1.32811 0.848464 0
M  V30 3389 C 326.41 1.26739 1.63538 0
M  V30 3390 C 326.825 -0.163484 1.88091 0
M  V30 3391 O 326.182 -1.10258 1.45429 0
M  V30 3392 C 326.233 2.03013 2.99112 0
M  V30 3393 O 325.954 3.40518 2.75643 0
M  V30 3394 C 327.455 2.04038 3.93552 0
M  V30 3395 H 324.675 0.437024 0.509167 0
M  V30 3396 H 327.219 1.75033 1.05753 0
M  V30 3397 H 325.374 1.58426 3.53525 0
M  V30 3398 H 325.788 3.79635 3.61908 0
M  V30 3399 H 327.262 2.61877 4.85926 0
M  V30 3400 H 327.739 1.0282 4.26995 0
M  V30 3401 H 328.345 2.486 3.45077 0
M  V30 3402 N 326.66 -1.06551 1.16123 0
M  V30 3403 C 328.071 -1.60768 0.949232 0
M  V30 3404 C 328.422 -1.89523 -0.507508 0
M  V30 3405 O 327.547 -1.66671 -1.38021 0
M  V30 3406 C 328.142 -2.92086 1.71671 0
M  V30 3407 C 326.701 -3.43015 1.54977 0
M  V30 3408 C 325.848 -2.16947 1.72711 0
M  V30 3409 H 328.799 -0.895354 1.31031 0
M  V30 3410 H 328.82 -3.6138 1.19099 0
M  V30 3411 H 328.332 -2.71127 2.7769 0
M  V30 3412 H 326.433 -3.69039 0.513873 0
M  V30 3413 H 326.546 -4.18516 2.33198 0
M  V30 3414 H 324.91 -2.27041 1.15431 0
M  V30 3415 H 325.693 -1.98473 2.80113 0
M  V30 3416 N 328.138 -0.959301 -1.25041 0
M  V30 3417 C 329.385 -0.616611 -1.92884 0
M  V30 3418 C 329.713 0.847036 -1.75087 0
M  V30 3419 O 328.968 1.62374 -1.09239 0
M  V30 3420 C 329.267 -0.927136 -3.45165 0
M  V30 3421 C 328.933 -2.37757 -3.83122 0
M  V30 3422 C 327.595 -2.77402 -3.93194 0
M  V30 3423 C 329.947 -3.31929 -4.01836 0
M  V30 3424 C 327.275 -4.10277 -4.19392 0
M  V30 3425 C 329.627 -4.64423 -4.29528 0
M  V30 3426 C 328.291 -5.03857 -4.37818 0
M  V30 3427 H 327.561 -0.225634 -0.705812 0
M  V30 3428 H 330.208 -1.20921 -1.48493 0
M  V30 3429 H 328.513 -0.252195 -3.90987 0
M  V30 3430 H 330.21 -0.6405 -3.95852 0
M  V30 3431 H 326.8 -2.06013 -3.75841 0
M  V30 3432 H 330.984 -3.02488 -3.93465 0
M  V30 3433 H 326.24 -4.40467 -4.24027 0
M  V30 3434 H 330.414 -5.37369 -4.42953 0
M  V30 3435 H 328.041 -6.06843 -4.57871 0
M  V30 3436 N 329.616 1.39756 -0.72842 0
M  V30 3437 C 330.846 2.04651 -0.283117 0
M  V30 3438 C 331.254 1.5502 1.08469 0
M  V30 3439 O 330.597 0.707343 1.69536 0
M  V30 3440 C 330.659 3.58947 -0.199309 0
M  V30 3441 C 330.323 4.31525 -1.5045 0
M  V30 3442 C 331.32 4.5861 -2.44894 0
M  V30 3443 C 329.005 4.70195 -1.76698 0
M  V30 3444 C 330.999 5.23366 -3.63822 0
M  V30 3445 C 328.686 5.3468 -2.95906 0
M  V30 3446 C 329.684 5.61198 -3.89289 0
M  V30 3447 O 329.372 6.24347 -5.06404 0
M  V30 3448 H 329.104 0.664777 -0.122666 0
M  V30 3449 H 331.658 1.79913 -0.990987 0
M  V30 3450 H 329.888 3.82556 0.56461 0
M  V30 3451 H 331.577 4.0534 0.213125 0
M  V30 3452 H 332.343 4.29187 -2.25883 0
M  V30 3453 H 328.222 4.48916 -1.04859 0
M  V30 3454 H 331.766 5.4398 -4.36728 0
M  V30 3455 H 327.663 5.63524 -3.14819 0
M  V30 3456 H 328.431 6.42842 -5.06652 0
M  V30 3457 N 331.094 0.475555 1.50254 0
M  V30 3458 C 332.322 -0.0754493 2.06762 0
M  V30 3459 C 332.737 -1.33111 1.33891 0
M  V30 3460 O 332.094 -1.77846 0.40952 0
M  V30 3461 C 332.145 -0.359008 3.59713 0
M  V30 3462 O 331.866 0.846851 4.29837 0
M  V30 3463 C 333.367 -0.956484 4.32858 0
M  V30 3464 H 330.587 0.00907525 0.670939 0
M  V30 3465 H 333.131 0.665618 1.93364 0
M  V30 3466 H 331.286 -1.05001 3.72899 0
M  V30 3467 H 331.7 0.594162 5.21124 0
M  V30 3468 H 333.174 -1.10463 5.40834 0
M  V30 3469 H 333.651 -1.94775 3.93649 0
M  V30 3470 H 334.257 -0.303723 4.24214 0
M  V30 3471 N 332.573 -1.56217 0.208337 0
M  V30 3472 C 333.536 -2.18455 -0.693557 0
M  V30 3473 C 334.536 -1.14268 -1.13135 0
M  V30 3474 O 335.726 -1.39577 -1.0423 0
M  V30 3475 C 332.858 -2.79727 -1.94848 0
M  V30 3476 H 334.051 -2.99519 -0.15114 0
M  V30 3477 H 331.604 -1.56245 -0.041287 0
M  V30 3478 H 332.339 -2.02497 -2.53309 0
M  V30 3479 H 332.124 -3.56009 -1.64316 0
M  V30 3480 H 333.614 -3.27475 -2.59133 0
M  V30 3481 N 334.051 0.0651679 -1.57465 0
M  V30 3482 C 335.467 0.420105 -1.53972 0
M  V30 3483 C 335.667 1.78782 -0.929474 0
M  V30 3484 O 334.723 2.46771 -0.534839 0
M  V30 3485 C 336.036 0.355084 -2.98596 0
M  V30 3486 C 337.584 0.434792 -3.09965 0
M  V30 3487 C 338.059 0.399609 -4.56253 0
M  V30 3488 N 339.55 0.459488 -4.60915 0
M  V30 3489 C 340.285 0.454584 -5.71595 0
M  V30 3490 N 339.781 0.404102 -6.9162 0
M  V30 3491 N 341.574 0.501635 -5.59857 0
M  V30 3492 H 333.725 -0.830328 -1.95498 0
M  V30 3493 H 335.988 -0.312244 -0.895102 0
M  V30 3494 H 335.694 -0.583357 -3.46828 0
M  V30 3495 H 335.568 1.16275 -3.58831 0
M  V30 3496 H 337.955 1.36366 -2.61703 0
M  V30 3497 H 338.036 -0.40157 -2.52628 0
M  V30 3498 H 337.68 -0.525436 -5.05175 0
M  V30 3499 H 337.61 1.25359 -5.11461 0
M  V30 3500 H 340.101 0.502482 -3.74544 0
M  V30 3501 H 340.414 0.404468 -7.71741 0
M  V30 3502 H 338.759 0.37069 -6.94011 0
M  V30 3503 H 341.95 0.538812 -4.64989 0
M  V30 3504 H 342.123 0.494345 -6.46112 0
M  V30 3505 N 335.529 1.53961 0.336706 0
M  V30 3506 C 336.476 1.82428 1.41381 0
M  V30 3507 C 337.446 0.670444 1.51968 0
M  V30 3508 O 338.631 0.915565 1.67398 0
M  V30 3509 C 335.771 2.04564 2.77934 0
M  V30 3510 C 334.884 3.32267 2.76084 0
M  V30 3511 C 334.019 3.44434 4.04399 0
M  V30 3512 C 333.058 4.66061 3.96804 0
M  V30 3513 N 332.195 4.75224 5.16823 0
M  V30 3514 H 337.035 2.74324 1.16405 0
M  V30 3515 H 334.572 1.35869 0.563752 0
M  V30 3516 H 336.53 2.15388 3.57301 0
M  V30 3517 H 335.16 1.15974 3.01247 0
M  V30 3518 H 334.212 3.3025 1.88784 0
M  V30 3519 H 335.524 4.21733 2.66351 0
M  V30 3520 H 334.678 3.54728 4.92192 0
M  V30 3521 H 333.417 2.53037 4.16921 0
M  V30 3522 H 332.422 4.55838 3.07396 0
M  V30 3523 H 333.647 5.58829 3.85858 0
M  V30 3524 H 331.593 3.86739 5.29876 0
M  V30 3525 H 331.51 5.58636 5.09374 0
M  V30 3526 H 332.778 4.89835 6.06367 0
M  V30 3527 N 337.007 -0.598083 1.45811 0
M  V30 3528 C 338.284 -1.35777 1.40797 0
M  V30 3529 C 338.664 -2.10935 0.083462 0
M  V30 3530 O 338.012 -2.08505 -0.934763 0
M  V30 3531 C 338.222 -2.29666 2.62783 0
M  V30 3532 C 339.57 -2.91977 3.08277 0
M  V30 3533 O 340.594 -2.39984 2.63223 0
M  V30 3534 O 339.453 -3.86376 3.86491 0
M  V30 3535 H 336.547 -0.609291 0.55919 0
M  V30 3536 H 339.093 -0.620379 1.57954 0
M  V30 3537 H 337.865 -1.73454 3.50756 0
M  V30 3538 H 337.488 -3.1077 2.48008 0
M  V30 3539 N 338.485 -1.33259 -0.841409 0
M  V30 3540 C 339.734 -1.23921 -1.59143 0
M  V30 3541 C 340.047 0.1941 -1.94635 0
M  V30 3542 O 341.253 0.409474 -2.68394 0
M  V30 3543 C 339.709 -2.17119 -2.87032 0
M  V30 3544 C 339.317 -3.65606 -2.58914 0
M  V30 3545 C 341.061 -2.16648 -3.65053 0
M  V30 3546 C 338.968 -4.50726 -3.82884 0
M  V30 3547 H 337.898 -0.460264 -0.597221 0
M  V30 3548 H 340.549 -1.58307 -0.927959 0
M  V30 3549 H 338.931 -1.75663 -3.54906 0
M  V30 3550 H 340.105 -4.15487 -1.99267 0
M  V30 3551 H 338.42 -3.68341 -1.942 0
M  V30 3552 H 341.017 -2.77474 -4.57069 0
M  V30 3553 H 341.36 -1.16088 -3.99787 0
M  V30 3554 H 341.893 -2.56453 -3.041 0
M  V30 3555 H 338.632 -5.52151 -3.53283 0
M  V30 3556 H 338.152 -4.0559 -4.41879 0
M  V30 3557 H 339.831 -4.64401 -4.50489 0
M  V30 3558 N 339.963 1.05934 -1.16686 0
M  V30 3559 C 341.24 1.75643 -0.860747 0
M  V30 3560 C 341.62 2.01144 0.640641 0
M  V30 3561 O 340.968 1.64147 1.58959 0
M  V30 3562 C 341.178 3.05493 -1.68745 0
M  V30 3563 C 342.526 3.79581 -1.90271 0
M  V30 3564 O 343.55 3.15344 -1.65641 0
M  V30 3565 O 342.409 4.9499 -2.31618 0
M  V30 3566 H 339.503 0.763426 -0.317977 0
M  V30 3567 H 342.049 1.1217 -1.27342 0
M  V30 3568 H 340.821 2.8264 -2.70611 0
M  V30 3569 H 340.444 3.76702 -1.27206 0
M  V30 3570 N 341.441 0.965919 1.2453 0
M  V30 3571 C 342.852 0.665929 1.7442 0
M  V30 3572 C 343.203 -0.818407 1.78316 0
M  V30 3573 O 342.328 -1.64037 1.41141 0
M  V30 3574 C 342.923 1.20211 3.16757 0
M  V30 3575 C 341.482 0.952059 3.6416 0
M  V30 3576 C 340.629 1.33848 2.42858 0
M  V30 3577 H 343.58 1.14144 1.10258 0
M  V30 3578 H 343.601 0.567544 3.76244 0
M  V30 3579 H 343.113 2.28244 3.13889 0
M  V30 3580 H 341.214 -0.112821 3.72429 0
M  V30 3581 H 341.327 1.59645 4.51719 0
M  V30 3582 H 339.691 0.756864 2.43195 0
M  V30 3583 H 340.474 2.42827 2.42673 0
M  V30 3584 N 342.919 -1.39368 0.735821 0
M  V30 3585 C 343.882 -2.2896 0.104874 0
M  V30 3586 C 344.882 -1.46347 -0.666274 0
M  V30 3587 O 346.072 -1.67014 -0.49517 0
M  V30 3588 C 343.204 -3.29857 -0.860656 0
M  V30 3589 H 344.397 -2.86259 0.894205 0
M  V30 3590 H 341.95 -1.48029 0.501704 0
M  V30 3591 H 342.685 -2.77615 -1.67631 0
M  V30 3592 H 342.47 -3.9087 -0.310327 0
M  V30 3593 H 343.96 -3.96893 -1.29867 0
M  V30 3594 N 344.397 -0.483516 -1.5 0
M  V30 3595 C 345.674 0.129337 -1.95172 0
M  V30 3596 C 346.054 1.55802 -1.4244 0
M  V30 3597 O 345.402 2.19625 -0.630649 0
M  V30 3598 C 345.612 0.0599251 -3.48949 0
M  V30 3599 C 346.96 0.242617 -4.23906 0
M  V30 3600 O 347.984 0.135933 -3.55941 0
M  V30 3601 O 346.843 0.459454 -5.44565 0
M  V30 3602 H 343.937 0.104887 -0.820322 0
M  V30 3603 H 346.483 -0.544807 -1.60717 0
M  V30 3604 H 345.255 -0.937079 -3.79914 0
M  V30 3605 H 344.878 0.774984 -3.89974 0
M  V30 3606 N 345.875 1.56104 -0.216619 0
M  V30 3607 C 347.286 1.844 0.292128 0
M  V30 3608 C 347.637 1.13788 1.59833 0
M  V30 3609 O 346.762 0.405888 2.12559 0
M  V30 3610 C 347.357 3.3452 0.53681 0
M  V30 3611 C 345.916 3.63151 0.989876 0
M  V30 3612 C 345.063 2.77255 0.0502302 0
M  V30 3613 H 348.014 1.52481 -0.439926 0
M  V30 3614 H 348.035 3.54459 1.38345 0
M  V30 3615 H 347.547 3.85885 -0.414031 0
M  V30 3616 H 345.648 3.17238 1.95425 0
M  V30 3617 H 345.761 4.71177 0.867698 0
M  V30 3618 H 344.125 2.48555 0.556117 0
M  V30 3619 H 344.908 3.31416 -0.89544 0
M  V30 3620 N 347.353 -0.0568162 1.57498 0
M  V30 3621 C 348.581 -0.765626 1.92213 0
M  V30 3622 C 348.996 -1.70353 0.813961 0
M  V30 3623 O 348.353 -1.81268 -0.211701 0
M  V30 3624 C 348.404 -1.5465 3.2675 0
M  V30 3625 O 348.125 -0.646278 4.33307 0
M  V30 3626 C 349.626 -2.35497 3.75574 0
M  V30 3627 H 346.846 -0.216835 0.634999 0
M  V30 3628 H 349.39 -0.0226146 2.04487 0
M  V30 3629 H 347.545 -2.24165 3.15957 0
M  V30 3630 H 347.959 -1.19093 5.108 0
M  V30 3631 H 349.433 -2.85722 4.72299 0
M  V30 3632 H 349.91 -3.15692 3.05344 0
M  V30 3633 H 350.516 -1.7111 3.8936 0
M  V30 3634 N 348.832 -1.54138 -0.328536 0
M  V30 3635 C 349.795 -1.82462 -1.38709 0
M  V30 3636 C 350.795 -0.696229 -1.44946 0
M  V30 3637 O 351.985 -0.964535 -1.4506 0
M  V30 3638 C 349.117 -1.98018 -2.77492 0
M  V30 3639 H 350.31 -2.77037 -1.14851 0
M  V30 3640 H 347.863 -1.45779 -0.563751 0
M  V30 3641 H 348.598 -1.05637 -3.06613 0
M  V30 3642 H 348.383 -2.80124 -2.74359 0
M  V30 3643 H 349.873 -2.21396 -3.54081 0
M  V30 3644 N 350.31 0.590341 -1.46126 0
M  V30 3645 C 351.54 1.37304 -1.54373 0
M  V30 3646 C 351.948 1.88332 -0.181071 0
M  V30 3647 O 351.291 1.63852 0.830559 0
M  V30 3648 C 351.353 2.6012 -2.48149 0
M  V30 3649 C 351.017 2.30613 -3.94546 0
M  V30 3650 C 352.014 1.89915 -4.83971 0
M  V30 3651 C 349.699 2.42993 -4.39613 0
M  V30 3652 C 351.693 1.61981 -6.16475 0
M  V30 3653 C 349.38 2.14672 -5.72153 0
M  V30 3654 C 350.378 1.7423 -6.60404 0
M  V30 3655 O 350.066 1.46251 -7.90485 0
M  V30 3656 H 349.798 0.426086 -0.524811 0
M  V30 3657 H 352.352 0.72539 -1.92165 0
M  V30 3658 H 350.582 3.27664 -2.05361 0
M  V30 3659 H 352.271 3.22182 -2.46887 0
M  V30 3660 H 353.037 1.79872 -4.50412 0
M  V30 3661 H 348.916 2.73435 -3.71153 0
M  V30 3662 H 352.46 1.30341 -6.85315 0
M  V30 3663 H 348.357 2.24337 -6.05263 0
M  V30 3664 H 349.125 1.6016 -8.02677 0
M  V30 3665 N 351.788 1.33704 0.83433 0
M  V30 3666 C 353.204 1.13137 1.12571 0
M  V30 3667 C 353.404 -0.0747261 2.01361 0
M  V30 3668 O 352.46 -0.753647 2.4099 0
M  V30 3669 C 353.773 2.42105 1.78342 0
M  V30 3670 C 355.321 2.48054 1.90888 0
M  V30 3671 C 355.796 3.76995 2.60075 0
M  V30 3672 N 357.287 3.78092 2.67584 0
M  V30 3673 C 358.022 4.74574 3.21818 0
M  V30 3674 N 357.518 5.81434 3.76705 0
M  V30 3675 N 359.311 4.62044 3.20112 0
M  V30 3676 H 351.462 2.11 0.243489 0
M  V30 3677 H 353.725 0.932532 0.17055 0
M  V30 3678 H 353.431 3.30391 1.20561 0
M  V30 3679 H 353.305 2.54594 2.7832 0
M  V30 3680 H 355.692 1.60215 2.47821 0
M  V30 3681 H 355.773 2.39502 0.898459 0
M  V30 3682 H 355.417 4.65219 2.03799 0
M  V30 3683 H 355.347 3.82825 3.61597 0
M  V30 3684 H 357.838 3.00865 2.28667 0
M  V30 3685 H 358.151 6.51084 4.16305 0
M  V30 3686 H 356.496 5.85163 3.7498 0
M  V30 3687 H 359.687 3.77716 2.76493 0
M  V30 3688 H 359.86 5.37406 3.62076 0
M  V30 3689 N 353.266 -1.05314 1.17247 0
M  V30 3690 C 354.494 -1.81971 0.984593 0
M  V30 3691 C 354.909 -1.82929 -0.467166 0
M  V30 3692 O 354.266 -1.25564 -1.32438 0
M  V30 3693 C 354.317 -3.28143 1.51672 0
M  V30 3694 O 354.038 -3.27347 2.91163 0
M  V30 3695 C 355.539 -4.21493 1.37326 0
M  V30 3696 H 352.759 -0.573455 0.348411 0
M  V30 3697 H 355.303 -1.32808 1.55506 0
M  V30 3698 H 353.458 -3.74582 0.988302 0
M  V30 3699 H 353.872 -4.18824 3.15732 0
M  V30 3700 H 355.346 -5.22043 1.79375 0
M  V30 3701 H 355.823 -4.38031 0.320169 0
M  V30 3702 H 356.429 -3.80909 1.89178 0
M  V30 3703 N 354.744 -0.972509 -1.24016 0
M  V30 3704 C 355.992 -0.635776 -1.91839 0
M  V30 3705 C 356.313 0.832312 -1.76345 0
M  V30 3706 O 355.583 1.5946 -1.13795 0
M  V30 3707 H 354.163 -0.232157 -0.710009 0
M  V30 3708 H 356.825 -1.23462 -1.50809 0
M  V30 3709 H 355.921 -0.880545 -2.99421 0
M  V30 3710 N 356.222 1.38976 -0.743202 0
M  V30 3711 C 357.152 2.33171 -0.123873 0
M  V30 3712 C 358.133 1.54336 0.71516 0
M  V30 3713 O 359.318 1.82696 0.658467 0
M  V30 3714 C 356.448 3.38474 0.777978 0
M  V30 3715 C 355.402 4.27979 0.0424758 0
M  V30 3716 C 354.728 5.2405 1.06189 0
M  V30 3717 C 356.028 5.10155 -1.1198 0
M  V30 3718 H 357.722 2.85213 -0.910709 0
M  V30 3719 H 355.268 1.37133 -0.439388 0
M  V30 3720 H 357.221 4.03328 1.22084 0
M  V30 3721 H 355.945 2.84891 1.59702 0
M  V30 3722 H 354.604 3.64616 -0.380853 0
M  V30 3723 H 354.252 4.66758 1.87472 0
M  V30 3724 H 353.952 5.84785 0.574485 0
M  V30 3725 H 355.476 5.9178 1.50428 0
M  V30 3726 H 356.89 5.68307 -0.75499 0
M  V30 3727 H 355.287 5.80073 -1.53738 0
M  V30 3728 H 356.357 4.44504 -1.93764 0
M  V30 3729 N 357.7 0.491464 1.49741 0
M  V30 3730 C 358.63 -0.28154 2.31796 0
M  V30 3731 C 359.611 -0.971473 1.3963 0
M  V30 3732 O 360.796 -0.964719 1.68543 0
M  V30 3733 C 357.926 -1.35203 3.19902 0
M  V30 3734 C 356.88 -0.782529 4.20786 0
M  V30 3735 C 356.206 -1.95283 4.97764 0
M  V30 3736 C 357.506 0.21999 5.21837 0
M  V30 3737 H 359.2 0.403355 2.96671 0
M  V30 3738 H 356.746 0.195425 1.42668 0
M  V30 3739 H 358.699 -1.90045 3.76113 0
M  V30 3740 H 357.423 -2.06598 2.52953 0
M  V30 3741 H 356.082 -0.255928 3.65706 0
M  V30 3742 H 355.73 -2.65423 4.2727 0
M  V30 3743 H 355.43 -1.57789 5.66018 0
M  V30 3744 H 356.954 -2.50577 5.56816 0
M  V30 3745 H 358.368 -0.23996 5.72798 0
M  V30 3746 H 356.765 0.51026 5.97927 0
M  V30 3747 H 357.835 1.13911 4.7133 0
M  V30 3748 N 359.178 -1.55987 0.224894 0
M  V30 3749 C 360.406 -2.02784 -0.410665 0
M  V30 3750 C 360.821 -1.10464 -1.53112 0
M  V30 3751 O 360.178 -0.114871 -1.82138 0
M  V30 3752 C 360.229 -3.49087 -0.939165 0
M  V30 3753 O 359.95 -4.37887 0.136614 0
M  V30 3754 C 361.451 -4.11543 -1.64763 0
M  V30 3755 H 358.671 -0.663484 -0.100148 0
M  V30 3756 H 361.215 -2.01614 0.342326 0
M  V30 3757 H 359.37 -3.50861 -1.64242 0
M  V30 3758 H 359.784 -5.23849 -0.261155 0
M  V30 3759 H 361.258 -5.15673 -1.96939 0
M  V30 3760 H 361.735 -3.56736 -2.56195 0
M  V30 3761 H 362.341 -4.13629 -0.989503 0
M  V30 3762 N 360.656 0.0484629 -1.57525 0
M  V30 3763 C 361.589 1.08755 -2.00618 0
M  V30 3764 C 362.567 1.36272 -0.887058 0
M  V30 3765 O 363.751 1.49255 -1.15131 0
M  V30 3766 C 360.878 2.42675 -2.36277 0
M  V30 3767 C 359.924 2.31142 -3.58435 0
M  V30 3768 S 360.757 1.68326 -5.08357 0
M  V30 3769 C 361.913 3.03776 -5.47239 0
M  V30 3770 H 362.146 0.720415 -2.88439 0
M  V30 3771 H 359.679 0.257801 -1.52233 0
M  V30 3772 H 361.637 3.19699 -2.57494 0
M  V30 3773 H 360.298 2.76541 -1.48942 0
M  V30 3774 H 359.491 3.29957 -3.80978 0
M  V30 3775 H 359.093 1.62258 -3.36969 0
M  V30 3776 H 361.385 4.00106 -5.46737 0
M  V30 3777 H 362.328 2.85988 -6.47778 0
M  V30 3778 H 362.736 3.05456 -4.74718 0
M  V30 3779 N 362.134 1.5431 0.320358 0
M  V30 3780 C 363.411 1.63322 1.07635 0
M  V30 3781 C 363.791 0.46912 2.05821 0
M  V30 3782 O 363.139 -0.536274 2.22118 0
M  V30 3783 C 363.349 3.00465 1.77544 0
M  V30 3784 C 364.697 3.56621 2.30449 0
M  V30 3785 O 365.721 3.02791 1.87606 0
M  V30 3786 O 364.58 4.5083 3.08892 0
M  V30 3787 H 361.674 0.661502 0.496331 0
M  V30 3788 H 364.22 1.66656 0.319992 0
M  V30 3789 H 362.992 3.76629 1.06143 0
M  V30 3790 H 362.615 3.00824 2.59982 0
M  V30 3791 N 363.613 -0.582584 1.46437 0
M  V30 3792 C 364.543 -1.70187 1.59871 0
M  V30 3793 C 365.524 -1.64066 0.449042 0
M  V30 3794 O 366.709 -1.82081 0.6753 0
M  V30 3795 C 363.839 -3.08827 1.58881 0
M  V30 3796 C 362.793 -3.29779 2.72819 0
M  V30 3797 C 362.119 -4.68947 2.5689 0
M  V30 3798 C 363.419 -3.17601 4.1464 0
M  V30 3799 H 365.113 -1.592 2.53566 0
M  V30 3800 H 362.659 -0.764472 1.22032 0
M  V30 3801 H 364.612 -3.86951 1.66873 0
M  V30 3802 H 363.336 -3.20713 0.617306 0
M  V30 3803 H 361.995 -2.54054 2.64296 0
M  V30 3804 H 361.643 -4.77599 1.57823 0
M  V30 3805 H 361.343 -4.83919 3.33312 0
M  V30 3806 H 362.867 -5.4924 2.66773 0
M  V30 3807 H 364.281 -3.8557 4.24274 0
M  V30 3808 H 362.678 -3.44094 4.9165 0
M  V30 3809 H 363.748 -2.14681 4.34788 0
M  V30 3810 N 365.091 -1.34144 -0.827227 0
M  V30 3811 C 366.001 -1.27428 -1.96975 0
M  V30 3812 C 367.017 -0.182728 -1.73038 0
M  V30 3813 O 368.193 -0.408426 -1.97215 0
M  V30 3814 C 365.258 -1.02526 -3.31194 0
M  V30 3815 C 364.319 -2.20796 -3.68168 0
M  V30 3816 C 363.552 -1.97073 -4.95982 0
M  V30 3817 O 363.775 -0.926822 -5.6282 0
M  V30 3818 O 362.709 -2.83912 -5.30733 0
M  V30 3819 H 366.535 -2.23537 -2.05584 0
M  V30 3820 H 364.12 -1.14307 -0.961989 0
M  V30 3821 H 366.002 -0.904026 -4.11589 0
M  V30 3822 H 364.677 -0.0945389 -3.23562 0
M  V30 3823 H 363.584 -2.38477 -2.88235 0
M  V30 3824 H 364.917 -3.12243 -3.8048 0
M  V30 3825 N 366.569 1.04691 -1.17803 0
M  V30 3826 C 367.797 1.81446 -0.99423 0
M  V30 3827 C 368.212 1.83174 0.457459 0
M  V30 3828 O 367.569 1.26265 1.31771 0
M  V30 3829 C 367.62 3.27334 -1.5341 0
M  V30 3830 O 367.341 3.25798 -2.92895 0
M  V30 3831 C 368.842 4.20759 -1.39559 0
M  V30 3832 H 366.062 0.571599 -0.351447 0
M  V30 3833 H 368.606 1.31982 -1.56208 0
M  V30 3834 H 366.761 3.74052 -1.00815 0
M  V30 3835 H 367.175 4.17144 -3.17949 0
M  V30 3836 H 368.649 5.21084 -1.82141 0
M  V30 3837 H 369.126 4.37856 -0.343394 0
M  V30 3838 H 369.732 3.79901 -1.91195 0
M  V30 3839 N 368.047 0.979072 1.23499 0
M  V30 3840 C 369.295 0.645941 1.91499 0
M  V30 3841 C 369.616 -0.822948 1.76784 0
M  V30 3842 O 368.886 -1.58854 1.14639 0
M  V30 3843 H 367.466 0.235919 0.708767 0
M  V30 3844 H 370.128 1.2426 1.50152 0
M  V30 3845 H 369.224 0.896411 2.9895 0
M  V30 3846 N 369.525 -1.3858 0.750561 0
M  V30 3847 C 370.435 -2.34278 0.122825 0
M  V30 3848 C 371.451 -1.59116 -0.704131 0
M  V30 3849 O 372.627 -1.91326 -0.628987 0
M  V30 3850 C 369.692 -3.38221 -0.762086 0
M  V30 3851 C 368.753 -4.29227 0.078896 0
M  V30 3852 C 367.986 -5.28205 -0.763874 0
M  V30 3853 O 368.209 -5.34112 -2.00201 0
M  V30 3854 O 367.143 -6.01618 -0.18428 0
M  V30 3855 H 370.969 -2.89649 0.913088 0
M  V30 3856 H 368.554 -1.40374 0.511417 0
M  V30 3857 H 370.436 -4.01872 -1.26793 0
M  V30 3858 H 369.111 -2.85211 -1.5309 0
M  V30 3859 H 368.018 -3.68747 0.630621 0
M  V30 3860 H 369.351 -4.85484 0.810289 0
M  V30 3861 N 371.003 -0.499398 -1.49478 0
M  V30 3862 C 371.936 0.326491 -2.25852 0
M  V30 3863 C 372.914 0.971776 -1.30366 0
M  V30 3864 O 374.098 1.00219 -1.59651 0
M  V30 3865 C 371.225 1.45969 -3.05632 0
M  V30 3866 C 370.271 0.928938 -4.16261 0
M  V30 3867 S 371.104 -0.179012 -5.35201 0
M  V30 3868 C 372.26 0.957389 -6.18534 0
M  V30 3869 H 372.493 -0.321746 -2.95554 0
M  V30 3870 H 370.026 -0.284674 -1.51753 0
M  V30 3871 H 371.984 2.109 -3.52181 0
M  V30 3872 H 370.645 2.07953 -2.35402 0
M  V30 3873 H 369.838 1.77813 -4.71592 0
M  V30 3874 H 369.44 0.356869 -3.72293 0
M  V30 3875 H 371.732 1.86296 -6.51383 0
M  V30 3876 H 372.675 0.442733 -7.06715 0
M  V30 3877 H 373.083 1.224 -5.5107 0
M  V30 3878 N 372.481 1.55866 -0.233164 0
M  V30 3879 C 373.444 2.1953 0.658715 0
M  V30 3880 C 374.444 1.16053 1.11303 0
M  V30 3881 O 375.634 1.41218 1.01996 0
M  V30 3882 C 372.766 2.82791 1.90373 0
M  V30 3883 H 373.959 2.99721 0.10347 0
M  V30 3884 H 371.512 1.56291 0.0164245 0
M  V30 3885 H 372.247 2.06501 2.50056 0
M  V30 3886 H 372.032 3.58578 1.58632 0
M  V30 3887 H 373.522 3.31556 2.53891 0
M  V30 3888 N 373.959 -0.0401083 1.57549 0
M  V30 3889 C 374.892 -1.07689 2.01192 0
M  V30 3890 C 375.87 -1.358 0.894273 0
M  V30 3891 O 377.054 -1.48642 1.15921 0
M  V30 3892 C 374.181 -2.41418 2.3756 0
M  V30 3893 C 373.227 -2.29237 3.59656 0
M  V30 3894 S 374.06 -1.65628 5.09242 0
M  V30 3895 C 375.216 -3.0087 5.48843 0
M  V30 3896 H 375.449 -0.705108 2.88817 0
M  V30 3897 H 372.982 -0.249724 1.52367 0
M  V30 3898 H 374.94 -3.18329 2.59186 0
M  V30 3899 H 373.601 -2.75747 1.50407 0
M  V30 3900 H 372.794 -3.27932 3.82722 0
M  V30 3901 H 372.396 -1.60469 3.37825 0
M  V30 3902 H 374.688 -3.97201 5.48851 0
M  V30 3903 H 375.631 -2.82549 6.49286 0
M  V30 3904 H 376.039 -3.02934 4.76331 0
M  V30 3905 N 375.437 -1.54477 -0.31217 0
M  V30 3906 C 376.853 -1.45442 -0.657185 0
M  V30 3907 C 377.053 -0.63653 -1.91182 0
M  V30 3908 O 376.109 -0.139815 -2.52113 0
M  V30 3909 C 377.422 -2.89287 -0.82058 0
M  V30 3910 C 378.97 -2.9926 -0.917188 0
M  V30 3911 C 379.445 -4.44279 -1.11267 0
M  V30 3912 N 380.936 -4.4794 -1.17914 0
M  V30 3913 C 381.671 -5.57318 -1.34848 0
M  V30 3914 N 381.167 -6.76642 -1.48752 0
M  V30 3915 N 382.96 -5.44986 -1.37647 0
M  V30 3916 H 375.111 -2.06129 0.512313 0
M  V30 3917 H 377.374 -0.933088 0.167485 0
M  V30 3918 H 377.08 -3.51687 0.0302604 0
M  V30 3919 H 376.954 -3.36061 -1.71298 0
M  V30 3920 H 379.341 -2.36981 -1.75852 0
M  V30 3921 H 379.422 -2.558 -0.00101257 0
M  V30 3922 H 379.066 -5.07149 -0.27614 0
M  V30 3923 H 378.996 -4.85359 -2.04289 0
M  V30 3924 H 381.487 -3.61969 -1.08567 0
M  V30 3925 H 381.8 -7.55758 -1.61397 0
M  V30 3926 H 380.145 -6.79529 -1.45828 0
M  V30 3927 H 383.336 -4.50715 -1.26388 0
M  V30 3928 H 383.509 -6.3028 -1.50501 0
M  V30 3929 N 376.915 0.57481 -1.46744 0
M  V30 3930 C 377.825 1.711 -1.60505 0
M  V30 3931 C 378.841 1.67008 -0.488307 0
M  V30 3932 O 380.017 1.86774 -0.753495 0
M  V30 3933 C 377.082 3.07608 -1.59932 0
M  V30 3934 C 376.143 3.22904 -2.82898 0
M  V30 3935 C 375.376 4.529 -2.82343 0
M  V30 3936 O 375.599 5.37278 -1.91542 0
M  V30 3937 O 374.533 4.71611 -3.73987 0
M  V30 3938 H 378.359 1.62436 -2.56609 0
M  V30 3939 H 375.944 0.742779 -1.29627 0
M  V30 3940 H 377.826 3.88877 -1.62336 0
M  V30 3941 H 376.501 3.16692 -0.669898 0
M  V30 3942 H 375.408 2.41099 -2.86046 0
M  V30 3943 H 376.741 3.18715 -3.75076 0
M  V30 3944 N 378.394 1.34581 0.820102 0
M  V30 3945 C 379.64 1.27285 1.57881 0
M  V30 3946 C 379.973 -0.156137 1.93571 0
M  V30 3947 O 379.248 -1.10222 1.60254 0
M  V30 3948 C 379.531 2.16639 2.87645 0
M  V30 3949 C 379.384 3.68088 2.58517 0
M  V30 3950 C 380.703 2.05378 3.8924 0
M  V30 3951 H 377.822 0.463714 0.572833 0
M  V30 3952 H 380.464 1.64859 0.944539 0
M  V30 3953 H 378.614 1.84725 3.41773 0
M  V30 3954 H 380.286 4.10382 2.10676 0
M  V30 3955 H 378.529 3.89038 1.91917 0
M  V30 3956 H 379.2 4.2598 3.51063 0
M  V30 3957 H 381.676 2.33404 3.44473 0
M  V30 3958 H 380.552 2.7012 4.77835 0
M  V30 3959 H 380.813 1.0316 4.29896 0
M  V30 3960 N 379.872 -1.04064 1.18357 0
M  V30 3961 C 381.288 -1.2947 0.933258 0
M  V30 3962 C 381.488 -1.97466 -0.401169 0
M  V30 3963 O 380.544 -2.25528 -1.13549 0
M  V30 3964 C 381.857 -2.15337 2.09882 0
M  V30 3965 C 383.405 -2.28683 2.13712 0
M  V30 3966 C 383.88 -3.17917 3.29686 0
M  V30 3967 N 385.371 -3.25504 3.29547 0
M  V30 3968 C 386.106 -3.94706 4.15926 0
M  V30 3969 N 385.602 -4.66239 5.12439 0
M  V30 3970 N 387.395 -3.90986 4.0384 0
M  V30 3971 H 379.546 -0.583359 2.04232 0
M  V30 3972 H 381.809 -0.319921 0.892387 0
M  V30 3973 H 381.515 -1.72682 3.06389 0
M  V30 3974 H 381.389 -3.16015 2.05947 0
M  V30 3975 H 383.776 -2.70575 1.17784 0
M  V30 3976 H 383.857 -1.27596 2.21705 0
M  V30 3977 H 383.501 -2.76736 4.25887 0
M  V30 3978 H 383.431 -4.19036 3.1893 0
M  V30 3979 H 385.922 -2.74547 2.59677 0
M  V30 3980 H 386.235 -5.16638 5.74722 0
M  V30 3981 H 384.58 -4.65143 5.16398 0
M  V30 3982 H 387.771 -3.34234 3.27727 0
M  V30 3983 H 387.944 -4.44646 4.71375 0
M  V30 3984 N 381.35 -0.985608 -1.22978 0
M  V30 3985 C 382.599 -0.652881 -1.90841 0
M  V30 3986 C 382.912 0.817842 -1.77681 0
M  V30 3987 O 384.118 1.26185 -2.40395 0
M  V30 3988 C 382.574 -1.11717 -3.42122 0
M  V30 3989 C 382.182 -2.6126 -3.63933 0
M  V30 3990 C 383.926 -0.85843 -4.1573 0
M  V30 3991 C 381.833 -3.0133 -5.08876 0
M  V30 3992 H 380.763 -0.240491 -0.714619 0
M  V30 3993 H 383.414 -1.1942 -1.39324 0
M  V30 3994 H 381.796 -0.504027 -3.92779 0
M  V30 3995 H 382.97 -3.27858 -3.23799 0
M  V30 3996 H 381.285 -2.84937 -3.03644 0
M  V30 3997 H 383.882 -1.13359 -5.22546 0
M  V30 3998 H 384.225 0.205461 -4.15793 0
M  V30 3999 H 384.758 -1.43341 -3.71077 0
M  V30 4000 H 381.497 -4.06864 -5.13947 0
M  V30 4001 H 381.017 -2.3943 -5.49939 0
M  V30 4002 H 382.696 -2.92224 -5.77247 0
M  V30 4003 N 382.828 1.3818 -0.7579 0
M  V30 4004 C 383.761 2.28055 -0.0814093 0
M  V30 4005 C 384.739 1.45603 0.723779 0
M  V30 4006 O 385.923 1.74961 0.701491 0
M  V30 4007 C 383.05 3.2676 0.891394 0
M  V30 4008 C 382.096 4.26153 0.171909 0
M  V30 4009 S 382.929 5.23434 -1.13035 0
M  V30 4010 C 384.085 6.25694 -0.160727 0
M  V30 4011 H 384.318 2.85082 -0.84353 0
M  V30 4012 H 381.851 1.44246 -0.550671 0
M  V30 4013 H 383.809 3.8414 1.44731 0
M  V30 4014 H 382.47 2.68706 1.62652 0
M  V30 4015 H 381.663 4.95738 0.908843 0
M  V30 4016 H 381.265 3.72691 -0.312606 0
M  V30 4017 H 383.557 6.74161 0.671773 0
M  V30 4018 H 384.5 7.03285 -0.824353 0
M  V30 4019 H 384.908 5.64064 0.221892 0
M  V30 4020 N 384.306 0.507319 1.49211 0
M  V30 4021 C 385.583 -0.0982702 1.95353 0
M  V30 4022 C 385.963 -1.53516 1.449 0
M  V30 4023 O 385.311 -2.18594 0.66551 0
M  V30 4024 C 385.521 -0.00440283 3.49 0
M  V30 4025 C 386.869 -0.175147 4.24239 0
M  V30 4026 O 387.893 -0.0792891 3.56112 0
M  V30 4027 O 386.752 -0.37276 5.45227 0
M  V30 4028 H 383.846 -0.0918236 0.821887 0
M  V30 4029 H 386.392 0.570307 1.5983 0
M  V30 4030 H 385.164 0.997402 3.78375 0
M  V30 4031 H 384.787 -0.712845 3.91158 0
M  V30 4032 N 385.784 -1.5574 0.241426 0
M  V30 4033 C 387.03 -1.99104 -0.385406 0
M  V30 4034 C 387.363 -1.1293 -1.57988 0
M  V30 4035 O 386.638 -0.191449 -1.93555 0
M  V30 4036 C 386.921 -3.51087 -0.800616 0
M  V30 4037 C 386.774 -4.48028 0.398874 0
M  V30 4038 C 388.093 -4.08015 -1.64959 0
M  V30 4039 H 385.212 -0.723848 -0.138614 0
M  V30 4040 H 387.854 -1.86903 0.341642 0
M  V30 4041 H 386.004 -3.61615 -1.4201 0
M  V30 4042 H 387.676 -4.49487 1.03726 0
M  V30 4043 H 385.919 -4.21077 1.04293 0
M  V30 4044 H 386.59 -5.51962 0.0651056 0
M  V30 4045 H 389.066 -4.00555 -1.12672 0
M  V30 4046 H 387.942 -5.14635 -1.90898 0
M  V30 4047 H 388.203 -3.56131 -2.61961 0
M  V30 4048 N 387.262 0.0317525 -1.57568 0
M  V30 4049 C 388.509 0.723104 -1.89149 0
M  V30 4050 C 388.837 1.75504 -0.838377 0
M  V30 4051 O 388.092 1.95037 0.160982 0
M  V30 4052 C 388.391 1.43167 -3.27472 0
M  V30 4053 C 388.057 0.535972 -4.47703 0
M  V30 4054 C 386.719 0.289262 -4.8033 0
M  V30 4055 C 389.071 -0.0826125 -5.21135 0
M  V30 4056 C 386.399 -0.584853 -5.83778 0
M  V30 4057 C 388.751 -0.944414 -6.25511 0
M  V30 4058 C 387.415 -1.20061 -6.56614 0
M  V30 4059 H 386.685 0.264602 -0.692146 0
M  V30 4060 H 389.332 -0.0169496 -1.91492 0
M  V30 4061 H 387.637 2.24497 -3.21105 0
M  V30 4062 H 389.334 1.97209 -3.49155 0
M  V30 4063 H 385.924 0.738414 -4.22191 0
M  V30 4064 H 390.108 0.0950302 -4.96209 0
M  V30 4065 H 385.364 -0.79168 -6.06253 0
M  V30 4066 H 389.538 -1.43026 -6.81554 0
M  V30 4067 H 387.165 -1.87967 -7.36595 0
M  V30 4068 N 388.74 1.54641 0.303973 0
M  V30 4069 C 389.97 1.77511 1.05705 0
M  V30 4070 C 390.378 0.533228 1.81531 0
M  V30 4071 O 389.721 -0.506423 1.76582 0
M  V30 4072 C 389.783 2.92779 2.08617 0
M  V30 4073 C 389.447 4.30977 1.52013 0
M  V30 4074 C 390.444 5.11115 0.9517 0
M  V30 4075 C 388.129 4.77571 1.55665 0
M  V30 4076 C 390.123 6.35966 0.427327 0
M  V30 4077 C 387.81 6.02384 1.02841 0
M  V30 4078 C 388.808 6.81417 0.464713 0
M  V30 4079 O 388.496 8.03881 -0.0555283 0
M  V30 4080 H 388.228 0.59579 0.319391 0
M  V30 4081 H 390.782 2.02401 0.349712 0
M  V30 4082 H 389.012 2.63506 2.83022 0
M  V30 4083 H 390.701 3.03252 2.69802 0
M  V30 4084 H 391.467 4.76264 0.916407 0
M  V30 4085 H 387.346 4.16085 1.9848 0
M  V30 4086 H 390.89 6.97599 -0.0133062 0
M  V30 4087 H 386.787 6.36723 1.06084 0
M  V30 4088 H 387.555 8.18479 0.0580522 0
M  V30 4089 N 390.218 -0.567019 1.47046 0
M  V30 4090 C 391.465 -1.32462 1.53167 0
M  V30 4091 C 391.793 -1.93571 0.189841 0
M  V30 4092 O 391.048 -1.77865 -0.816243 0
M  V30 4093 C 391.347 -2.4623 2.59047 0
M  V30 4094 C 391.013 -2.03014 4.02612 0
M  V30 4095 C 389.675 -1.90944 4.41694 0
M  V30 4096 C 392.027 -1.69895 4.92732 0
M  V30 4097 C 389.355 -1.44035 5.68745 0
M  V30 4098 C 391.707 -1.2446 6.20236 0
M  V30 4099 C 390.371 -1.10979 6.5821 0
M  V30 4100 H 389.641 -0.484713 0.560477 0
M  V30 4101 H 392.288 -0.636888 1.80599 0
M  V30 4102 H 390.593 -3.20517 2.25335 0
M  V30 4103 H 392.29 -3.04427 2.61008 0
M  V30 4104 H 388.88 -2.13348 3.71726 0
M  V30 4105 H 393.064 -1.78098 4.63244 0
M  V30 4106 H 388.32 -1.32254 5.96925 0
M  V30 4107 H 392.494 -0.978924 6.89485 0
M  V30 4108 H 390.121 -0.744078 7.5655 0
M  V30 4109 N 391.696 -1.35014 -0.812953 0
M  V30 4110 C 392.921 -1.31187 -1.60639 0
M  V30 4111 C 393.346 0.109382 -1.87782 0
M  V30 4112 O 392.704 1.07424 -1.46047 0
M  V30 4113 C 392.752 -2.11809 -2.91838 0
M  V30 4114 O 391.856 -1.49444 -3.8437 0
M  V30 4115 H 391.197 -0.450084 -0.488181 0
M  V30 4116 H 393.727 -1.77963 -1.00947 0
M  V30 4117 H 393.737 -2.23531 -3.41318 0
M  V30 4118 H 392.412 -3.15137 -2.71407 0
M  V30 4119 H 390.989 -1.46524 -3.42907 0
M  V30 4120 N 393.175 1.03435 -1.18907 0
M  V30 4121 C 394.403 1.80381 -1.01342 0
M  V30 4122 C 394.818 1.83649 0.438005 0
M  V30 4123 O 394.175 1.27655 1.30424 0
M  V30 4124 C 394.226 3.25689 -1.56873 0
M  V30 4125 O 393.947 3.22673 -2.96334 0
M  V30 4126 C 395.448 4.19255 -1.44014 0
M  V30 4127 H 392.668 0.56784 -0.35749 0
M  V30 4128 H 395.212 1.30317 -1.576 0
M  V30 4129 H 393.367 3.72962 -1.04777 0
M  V30 4130 H 393.781 4.13748 -3.22355 0
M  V30 4131 H 395.255 5.19123 -1.87657 0
M  V30 4132 H 395.732 4.37467 -0.389815 0
M  V30 4133 H 396.338 3.77851 -1.95214 0
M  V30 4134 N 394.653 0.992116 1.22453 0
M  V30 4135 C 395.616 0.546883 2.2258 0
M  V30 4136 C 396.616 -0.369829 1.56489 0
M  V30 4137 O 397.806 -0.161896 1.73446 0
M  V30 4138 C 394.938 -0.204659 3.40285 0
M  V30 4139 H 396.131 1.43234 2.63484 0
M  V30 4140 H 393.684 0.779239 1.3549 0
M  V30 4141 H 394.419 -1.10614 3.04853 0
M  V30 4142 H 394.204 0.45354 3.89468 0
M  V30 4143 H 395.694 -0.504358 4.14543 0
M  V30 4144 N 396.131 -1.37776 0.765217 0
M  V30 4145 C 397.377 -2.00145 0.327072 0
M  V30 4146 C 397.71 -1.60607 -1.09175 0
M  V30 4147 O 396.985 -0.849127 -1.74986 0
M  V30 4148 C 397.268 -3.57109 0.46319 0
M  V30 4149 C 397.121 -4.06576 1.92395 0
M  V30 4150 C 398.44 -4.39888 -0.136473 0
M  V30 4151 H 395.559 -0.727113 0.120316 0
M  V30 4152 H 398.201 -1.63549 0.967039 0
M  V30 4153 H 396.351 -3.88414 -0.0816358 0
M  V30 4154 H 398.023 -3.85864 2.52798 0
M  V30 4155 H 396.266 -3.59011 2.43503 0
M  V30 4156 H 396.937 -5.15639 1.97028 0
M  V30 4157 H 399.413 -4.14803 0.328317 0
M  V30 4158 H 398.289 -5.48899 -0.0110582 0
M  V30 4159 H 398.55 -4.24758 -1.22608 0
M  V30 4160 N 397.609 -0.515225 -1.4894 0
M  V30 4161 C 398.557 0.269115 -2.31038 0
M  V30 4162 C 399.551 0.949443 -1.40292 0
M  V30 4163 O 400.757 0.87551 -1.57273 0
M  V30 4164 H 397.132 0.10565 -0.744542 0
M  V30 4165 H 399.103 -0.443096 -2.95092 0
M  V30 4166 C 397.852 1.31213 -3.21991 0
M  V30 4167 H 397.175 0.798034 -3.91754 0
M  V30 4168 H 398.615 1.83263 -3.82349 0
M  V30 4169 C 397.074 2.33791 -2.42576 0
M  V30 4170 O 397.604 3.3995 -2.14003 0
M  V30 4171 N 395.81 2.06625 -2.0434 0
M  V30 4172 H 395.357 1.20314 -2.27777 0
M  V30 4173 H 395.315 2.75483 -1.51514 0
M  V30 4174 N 399.087 1.5561 -0.249682 0
M  V30 4175 C 400.498 1.84979 0.252949 0
M  V30 4176 C 400.849 1.17153 1.57384 0
M  V30 4177 O 399.974 0.450884 2.11651 0
M  V30 4178 C 400.569 3.35584 0.465732 0
M  V30 4179 C 399.128 3.65169 0.912624 0
M  V30 4180 C 398.275 2.77299 -0.00859085 0
M  V30 4181 H 401.226 1.51513 -0.47217 0
M  V30 4182 H 401.247 3.57313 1.30795 0
M  V30 4183 H 400.759 3.8492 -0.49579 0
M  V30 4184 H 398.86 3.21312 1.88652 0
M  V30 4185 H 398.973 4.72912 0.767559 0
M  V30 4186 H 397.337 2.49678 0.50327 0
M  V30 4187 H 398.12 3.29442 -0.965537 0
M  V30 4188 N 400.565 -0.0233959 1.57583 0
M  V30 4189 C 401.528 -1.00693 2.05897 0
M  V30 4190 C 402.528 -1.28693 0.964092 0
M  V30 4191 O 403.718 -1.23602 1.22753 0
M  V30 4192 C 400.85 -2.33825 2.4807 0
M  V30 4193 H 402.043 -0.589476 2.9405 0
M  V30 4194 H 399.596 -0.270354 1.53944 0
M  V30 4195 H 400.331 -2.80307 1.6309 0
M  V30 4196 H 400.116 -2.1483 3.2801 0
M  V30 4197 H 401.606 -3.04426 2.85857 0
M  V30 4198 N 402.043 -1.548 -0.295768 0
M  V30 4199 C 402.99 -1.86113 -1.36494 0
M  V30 4200 C 403.96 -0.7105 -1.50137 0
M  V30 4201 O 405.145 -0.959626 -1.64912 0
M  V30 4202 C 402.285 -2.11861 -2.72413 0
M  V30 4203 C 401.398 -3.39471 -2.67177 0
M  V30 4204 C 400.533 -3.55035 -3.95125 0
M  V30 4205 C 399.572 -4.76418 -3.84308 0
M  V30 4206 N 398.709 -4.8876 -5.04042 0
M  V30 4207 H 403.549 -2.77314 -1.09091 0
M  V30 4208 H 401.086 -1.37315 -0.52753 0
M  V30 4209 H 403.044 -2.24786 -3.51464 0
M  V30 4210 H 401.674 -1.2392 -2.98066 0
M  V30 4211 H 400.726 -3.35139 -1.79962 0
M  V30 4212 H 402.038 -4.28646 -2.55076 0
M  V30 4213 H 401.192 -3.67653 -4.82614 0
M  V30 4214 H 399.931 -2.64002 -4.10066 0
M  V30 4215 H 398.936 -4.63827 -2.95202 0
M  V30 4216 H 400.161 -5.68863 -3.70906 0
M  V30 4217 H 398.107 -4.00652 -5.19436 0
M  V30 4218 H 398.024 -5.71945 -4.94384 0
M  V30 4219 H 399.292 -5.0574 -5.93167 0
M  V30 4220 N 403.521 0.559213 -1.47345 0
M  V30 4221 C 404.749 1.34194 -1.57479 0
M  V30 4222 C 405.164 1.87463 -0.224261 0
M  V30 4223 O 404.521 1.64888 0.782185 0
M  V30 4224 C 404.572 2.51324 -2.59843 0
M  V30 4225 O 404.293 2.00256 -3.89653 0
M  V30 4226 C 405.794 3.43563 -2.80142 0
M  V30 4227 H 403.014 0.409136 -0.531835 0
M  V30 4228 H 405.558 0.677609 -1.92947 0
M  V30 4229 H 403.713 3.13699 -2.27314 0
M  V30 4230 H 404.127 2.76708 -4.4557 0
M  V30 4231 H 405.601 4.2217 -3.55635 0
M  V30 4232 H 406.078 3.9698 -1.87892 0
M  V30 4233 H 406.684 2.87005 -3.1386 0
M  V30 4234 N 404.999 1.35443 0.805782 0
M  V30 4235 C 406.415 1.15499 1.10146 0
M  V30 4236 C 406.615 -0.0319975 2.01475 0
M  V30 4237 O 405.671 -0.70236 2.42535 0
M  V30 4238 C 406.984 2.45833 1.73166 0
M  V30 4239 C 408.532 2.52047 1.85583 0
M  V30 4240 C 409.007 3.82427 2.52019 0
M  V30 4241 N 410.498 3.83682 2.59504 0
M  V30 4242 C 411.233 4.81294 3.11679 0
M  V30 4243 N 410.729 5.89294 3.64287 0
M  V30 4244 N 412.522 4.6873 3.1024 0
M  V30 4245 H 404.673 2.11469 0.198678 0
M  V30 4246 H 406.936 0.93594 0.150731 0
M  V30 4247 H 406.642 3.32874 1.13526 0
M  V30 4248 H 406.516 2.6044 2.72857 0
M  V30 4249 H 408.903 1.65435 2.44367 0
M  V30 4250 H 408.984 2.41354 0.847455 0
M  V30 4251 H 408.628 4.69437 1.93885 0
M  V30 4252 H 408.558 3.90409 3.53395 0
M  V30 4253 H 411.049 3.05648 2.22234 0
M  V30 4254 H 411.362 6.59768 4.02401 0
M  V30 4255 H 409.707 5.92985 3.62483 0
M  V30 4256 H 412.898 3.83496 2.68419 0
M  V30 4257 H 413.071 5.44965 3.50596 0
M  V30 4258 N 406.477 -1.02803 1.19454 0
M  V30 4259 C 407.44 -2.09264 0.934955 0
M  V30 4260 C 408.44 -1.60576 -0.0849015 0
M  V30 4261 O 409.63 -1.73554 0.149933 0
M  V30 4262 C 406.762 -3.38482 0.40531 0
M  V30 4263 H 407.955 -2.33726 1.87916 0
M  V30 4264 H 405.508 -1.19426 1.00832 0
M  V30 4265 H 406.243 -3.19689 -0.544899 0
M  V30 4266 H 406.028 -3.75142 1.14065 0
M  V30 4267 H 407.518 -4.16894 0.242806 0
M  V30 4268 N 407.956 -0.998596 -1.21925 0
M  V30 4269 C 409.203 -0.677663 -1.90824 0
M  V30 4270 C 409.531 0.790905 -1.77693 0
M  V30 4271 O 408.786 1.58817 -1.14349 0
M  V30 4272 C 409.085 -1.03648 -3.42041 0
M  V30 4273 C 408.751 -2.49825 -3.75364 0
M  V30 4274 C 407.413 -2.8977 -3.8417 0
M  V30 4275 C 409.765 -3.44545 -3.91073 0
M  V30 4276 C 407.093 -4.23412 -4.06127 0
M  V30 4277 C 409.445 -4.77853 -4.14535 0
M  V30 4278 C 408.109 -5.17531 -4.21566 0
M  V30 4279 H 407.379 -0.247975 -0.698276 0
M  V30 4280 H 410.026 -1.25584 -1.44571 0
M  V30 4281 H 408.331 -0.376457 -3.89987 0
M  V30 4282 H 410.028 -0.766113 -3.93614 0
M  V30 4283 H 406.618 -2.17866 -3.69097 0
M  V30 4284 H 410.802 -3.14853 -3.83642 0
M  V30 4285 H 406.058 -4.53734 -4.09799 0
M  V30 4286 H 410.232 -5.51189 -4.25633 0
M  V30 4287 H 407.859 -6.21102 -4.38333 0
M  V30 4288 N 409.434 1.37368 -0.772513 0
M  V30 4289 C 410.682 1.99279 -0.336516 0
M  V30 4290 C 411.003 1.6163 1.09091 0
M  V30 4291 O 410.273 0.882109 1.74916 0
M  V30 4292 H 408.853 0.737063 -0.121435 0
M  V30 4293 H 411.515 1.67836 -0.990809 0
M  V30 4294 H 410.611 3.09332 -0.414763 0
M  V30 4295 N 410.912 0.523116 1.48665 0
M  V30 4296 C 411.875 -0.232592 2.28017 0
M  V30 4297 C 412.875 -0.874021 1.34972 0
M  V30 4298 O 414.065 -0.735132 1.57929 0
M  V30 4299 C 411.197 -1.33586 3.13636 0
M  V30 4300 H 412.39 0.464008 2.96289 0
M  V30 4301 H 409.943 0.278816 1.53793 0
M  V30 4302 H 410.678 -2.06593 2.4998 0
M  V30 4303 H 410.463 -0.881125 3.82071 0
M  V30 4304 H 411.953 -1.86759 3.73511 0
M  V30 4305 N 412.39 -1.55475 0.257931 0
M  V30 4306 C 413.62 -2.03314 -0.367026 0
M  V30 4307 C 414.028 -1.13625 -1.51281 0
M  V30 4308 O 413.371 -0.145334 -1.83124 0
M  V30 4309 C 413.433 -3.47362 -0.926284 0
M  V30 4310 C 413.097 -4.56914 0.0886584 0
M  V30 4311 C 414.094 -5.12013 0.902123 0
M  V30 4312 C 411.779 -5.01827 0.217936 0
M  V30 4313 C 413.773 -6.10529 1.83122 0
M  V30 4314 C 411.46 -6.00172 1.15052 0
M  V30 4315 C 412.458 -6.54402 1.95568 0
M  V30 4316 O 412.146 -7.50827 2.87253 0
M  V30 4317 H 411.878 -0.669976 -0.0900443 0
M  V30 4318 H 414.432 -2.01804 0.382673 0
M  V30 4319 H 412.662 -3.46056 -1.72575 0
M  V30 4320 H 414.351 -3.78637 -1.46249 0
M  V30 4321 H 415.117 -4.78139 0.812891 0
M  V30 4322 H 410.996 -4.59272 -0.398721 0
M  V30 4323 H 414.54 -6.52783 2.46008 0
M  V30 4324 H 410.437 -6.33465 1.24064 0
M  V30 4325 H 411.205 -7.68483 2.81739 0
M  V30 4326 N 413.868 0.0150385 -1.57593 0
M  V30 4327 C 414.816 1.02958 -2.08572 0
M  V30 4328 C 415.81 1.36554 -1.00246 0
M  V30 4329 O 417.016 1.35295 -1.18724 0
M  V30 4330 H 413.391 0.349619 -0.665786 0
M  V30 4331 H 415.362 0.573932 -2.92829 0
M  V30 4332 C 414.111 2.31752 -2.59203 0
M  V30 4333 H 413.434 2.06765 -3.42182 0
M  V30 4334 H 414.874 3.01053 -2.98568 0
M  V30 4335 C 413.333 3.01692 -1.49945 0
M  V30 4336 O 413.863 3.92083 -0.873704 0
M  V30 4337 N 412.069 2.6326 -1.23056 0
M  V30 4338 H 411.616 1.89838 -1.74125 0
M  V30 4339 H 411.574 3.10372 -0.501685 0
M  V30 4340 N 415.346 1.54954 0.287554 0
M  V30 4341 C 416.592 1.75132 1.02257 0
M  V30 4342 C 416.925 0.542858 1.86458 0
M  V30 4343 O 416.2 -0.459856 1.88986 0
M  V30 4344 C 416.483 3.04812 1.91733 0
M  V30 4345 C 416.336 4.35985 1.10622 0
M  V30 4346 C 417.655 3.30438 2.90687 0
M  V30 4347 H 414.774 0.637194 0.370341 0
M  V30 4348 H 417.416 1.87678 0.296111 0
M  V30 4349 H 415.566 2.94247 2.53675 0
M  V30 4350 H 417.238 4.58487 0.508636 0
M  V30 4351 H 415.481 4.31865 0.409271 0
M  V30 4352 H 416.152 5.23017 1.76513 0
M  V30 4353 H 418.628 3.40701 2.38877 0
M  V30 4354 H 417.504 4.22467 3.50447 0
M  V30 4355 H 417.765 2.49377 3.65053 0
M  V30 4356 N 416.824 -0.551391 1.4764 0
M  V30 4357 C 417.754 -1.66757 1.63445 0
M  V30 4358 C 418.735 -1.63077 0.483742 0
M  V30 4359 O 419.92 -1.80607 0.71377 0
M  V30 4360 C 417.05 -3.05387 1.65396 0
M  V30 4361 C 416.004 -3.23918 2.79752 0
M  V30 4362 C 415.33 -4.63393 2.66779 0
M  V30 4363 C 416.63 -3.08735 4.21284 0
M  V30 4364 H 418.324 -1.53786 2.56886 0
M  V30 4365 H 415.87 -0.738415 1.23626 0
M  V30 4366 H 417.823 -3.83325 1.75043 0
M  V30 4367 H 416.547 -3.19332 0.685195 0
M  V30 4368 H 415.206 -2.48391 2.69625 0
M  V30 4369 H 414.854 -4.74144 1.67918 0
M  V30 4370 H 414.554 -4.7674 3.43501 0
M  V30 4371 H 416.078 -5.43458 2.78364 0
M  V30 4372 H 417.492 -3.76484 4.32357 0
M  V30 4373 H 415.889 -3.33588 4.98838 0
M  V30 4374 H 416.959 -2.0541 4.39243 0
M  V30 4375 N 418.302 -1.35869 -0.798587 0
M  V30 4376 C 419.212 -1.31578 -1.94228 0
M  V30 4377 C 420.228 -0.21939 -1.72611 0
M  V30 4378 O 421.404 -0.450167 -1.96305 0
M  V30 4379 C 418.469 -1.09528 -3.28944 0
M  V30 4380 C 417.53 -2.28556 -3.63402 0
M  V30 4381 C 416.763 -2.07549 -4.9169 0
M  V30 4382 O 416.986 -1.046 -5.60727 0
M  V30 4383 O 415.92 -2.95106 -5.24591 0
M  V30 4384 H 419.746 -2.27847 -2.00796 0
M  V30 4385 H 417.331 -1.16322 -0.937526 0
M  V30 4386 H 419.213 -0.991127 -4.09579 0
M  V30 4387 H 417.888 -0.16315 -3.23289 0
M  V30 4388 H 416.795 -2.44538 -2.83112 0
M  V30 4389 H 418.128 -3.20244 -3.73771 0
M  V30 4390 N 419.78 1.02168 -1.19998 0
M  V30 4391 C 421.005 1.79833 -1.03319 0
M  V30 4392 C 421.43 1.83504 0.413281 0
M  V30 4393 O 420.788 1.26635 1.29743 0
M  V30 4394 C 420.836 3.22396 -1.61533 0
M  V30 4395 O 419.94 4.03555 -0.849519 0
M  V30 4396 H 419.281 0.554872 -0.364709 0
M  V30 4397 H 421.811 1.28542 -1.59179 0
M  V30 4398 H 421.821 3.73124 -1.65054 0
M  V30 4399 H 420.496 3.19039 -2.66809 0
M  V30 4400 H 419.073 3.62169 -0.888129 0
M  V30 4401 N 421.258 1.00505 1.21394 0
M  V30 4402 C 422.505 0.687774 1.90462 0
M  V30 4403 C 422.833 -0.78147 1.7811 0
M  V30 4404 O 422.088 -1.58208 1.1519 0
M  V30 4405 C 422.387 1.0546 3.41486 0
M  V30 4406 C 422.053 2.51812 3.74034 0
M  V30 4407 C 420.715 2.91804 3.82628 0
M  V30 4408 C 423.067 3.46614 3.8924 0
M  V30 4409 C 420.395 4.2556 4.03876 0
M  V30 4410 C 422.747 4.80044 4.11995 0
M  V30 4411 C 421.411 5.19759 4.18816 0
M  V30 4412 H 420.681 0.251674 0.696951 0
M  V30 4413 H 423.328 1.26349 1.43903 0
M  V30 4414 H 421.633 0.397133 3.89782 0
M  V30 4415 H 423.33 0.786976 3.93202 0
M  V30 4416 H 419.92 2.1982 3.67936 0
M  V30 4417 H 424.104 3.16883 3.81967 0
M  V30 4418 H 419.36 4.55901 4.07387 0
M  V30 4419 H 423.534 5.53439 4.22704 0
M  V30 4420 H 421.161 6.23418 4.35033 0
M  V30 4421 N 422.737 -1.36956 0.779787 0
M  V30 4422 C 424.014 -1.93697 0.272156 0
M  V30 4423 C 424.394 -1.71267 -1.23413 0
M  V30 4424 O 423.742 -1.06607 -2.02107 0
M  V30 4425 C 423.952 -3.42812 0.654291 0
M  V30 4426 C 425.3 -4.19921 0.628602 0
M  V30 4427 O 426.324 -3.51209 0.594172 0
M  V30 4428 O 425.183 -5.42465 0.662864 0
M  V30 4429 H 422.277 -0.824447 0.0649286 0
M  V30 4430 H 424.823 -1.46196 0.861682 0
M  V30 4431 H 423.595 -3.52754 1.69353 0
M  V30 4432 H 423.218 -3.97582 0.0381369 0
M  V30 4433 N 424.215 -0.530993 -1.48385 0
M  V30 4434 C 425.145 0.219985 -2.32461 0
M  V30 4435 C 426.126 0.934111 -1.42156 0
M  V30 4436 O 427.311 0.919694 -1.71042 0
M  V30 4437 C 424.441 1.26674 -3.23375 0
M  V30 4438 C 423.395 0.67069 -4.22712 0
M  V30 4439 C 422.721 1.82017 -5.02766 0
M  V30 4440 C 424.021 -0.358268 -5.2107 0
M  V30 4441 H 425.715 -0.48187 -2.95497 0
M  V30 4442 H 423.261 -0.233182 -1.42099 0
M  V30 4443 H 425.214 1.80006 -3.81019 0
M  V30 4444 H 423.938 1.99818 -2.58341 0
M  V30 4445 H 422.597 0.158878 -3.66256 0
M  V30 4446 H 422.245 2.54002 -4.34157 0
M  V30 4447 H 421.945 1.42727 -5.70003 0
M  V30 4448 H 423.469 2.35725 -5.63264 0
M  V30 4449 H 424.883 0.0880081 -5.73232 0
M  V30 4450 H 423.28 -0.66861 -5.96364 0
M  V30 4451 H 424.35 -1.26367 -4.68145 0
M  V30 4452 N 425.693 1.55336 -0.266172 0
M  V30 4453 C 426.603 2.2583 0.635458 0
M  V30 4454 C 427.619 1.28106 1.17749 0
M  V30 4455 O 428.795 1.61024 1.20968 0
M  V30 4456 C 425.86 2.95879 1.80712 0
M  V30 4457 C 424.921 4.09059 1.30265 0
M  V30 4458 C 424.154 4.75759 2.41846 0
M  V30 4459 O 424.377 4.41622 3.61007 0
M  V30 4460 O 423.311 5.63888 2.1051 0
M  V30 4461 H 427.137 3.03631 0.0646693 0
M  V30 4462 H 424.722 1.49361 -0.0339177 0
M  V30 4463 H 426.604 3.39932 2.49047 0
M  V30 4464 H 425.279 2.21002 2.36516 0
M  V30 4465 H 424.186 3.69482 0.586019 0
M  V30 4466 H 425.519 4.85811 0.790458 0
M  V30 4467 N 427.171 -0.0066808 1.57599 0
M  V30 4468 C 428.118 -1.00024 2.08 0
M  V30 4469 C 429.088 -1.34549 0.973943 0
M  V30 4470 O 430.273 -1.44502 1.24595 0
M  V30 4471 C 427.413 -2.2891 2.58252 0
M  V30 4472 C 426.526 -2.00346 3.82734 0
M  V30 4473 C 425.661 -3.23265 4.21513 0
M  V30 4474 C 424.7 -2.90357 5.3885 0
M  V30 4475 N 423.837 -4.05793 5.72954 0
M  V30 4476 H 428.677 -0.563499 2.92624 0
M  V30 4477 H 426.214 -0.266592 1.44664 0
M  V30 4478 H 428.172 -3.04247 2.85464 0
M  V30 4479 H 426.802 -2.70265 1.76512 0
M  V30 4480 H 425.854 -1.15406 3.62471 0
M  V30 4481 H 427.166 -1.72086 4.68175 0
M  V30 4482 H 426.32 -4.06953 4.49971 0
M  V30 4483 H 425.059 -3.54657 3.34768 0
M  V30 4484 H 424.064 -2.05075 5.10122 0
M  V30 4485 H 425.289 -2.60219 6.27266 0
M  V30 4486 H 423.235 -4.37094 4.89167 0
M  V30 4487 H 423.152 -3.81034 6.52954 0
M  V30 4488 H 424.42 -4.90289 6.06001 0
M  V30 4489 N 428.649 -1.55105 -0.279332 0
M  V30 4490 C 429.597 -1.88333 -1.36505 0
M  V30 4491 C 430.591 -0.759043 -1.51443 0
M  V30 4492 O 431.797 -0.943312 -1.53302 0
M  V30 4493 H 428.172 -0.59766 -0.456406 0
M  V30 4494 H 430.143 -2.79041 -1.05728 0
M  V30 4495 C 428.892 -2.16628 -2.7197 0
M  V30 4496 H 428.215 -3.02624 -2.61264 0
M  V30 4497 H 429.655 -2.43803 -3.46895 0
M  V30 4498 C 428.114 -0.971807 -3.22579 0
M  V30 4499 O 428.644 -0.203228 -4.01186 0
M  V30 4500 N 426.85 -0.771238 -2.80179 0
M  V30 4501 H 426.397 -1.39792 -2.1637 0
M  V30 4502 H 426.355 0.0263667 -3.14389 0
M  V30 4503 N 430.127 0.543554 -1.4793 0
M  V30 4504 C 431.09 1.63156 -1.60975 0
M  V30 4505 C 432.09 1.53346 -0.483899 0
M  V30 4506 O 433.28 1.5726 -0.749339 0
M  V30 4507 C 430.412 3.02743 -1.56716 0
M  V30 4508 H 431.605 1.52934 -2.57975 0
M  V30 4509 H 429.158 0.764557 -1.36324 0
M  V30 4510 H 429.893 3.18484 -0.611418 0
M  V30 4511 H 429.678 3.11272 -2.38438 0
M  V30 4512 H 431.168 3.81871 -1.6901 0
M  V30 4513 N 431.605 1.3629 0.791371 0
M  V30 4514 C 432.83 1.33726 1.58531 0
M  V30 4515 C 433.255 -0.0794933 1.87932 0
M  V30 4516 O 432.613 -1.05087 1.47738 0
M  V30 4517 C 432.661 2.16425 2.88431 0
M  V30 4518 O 431.765 1.5554 3.81944 0
M  V30 4519 H 431.106 0.457793 0.480959 0
M  V30 4520 H 433.636 1.79547 0.981031 0
M  V30 4521 H 433.646 2.28933 3.37718 0
M  V30 4522 H 432.321 3.19415 2.66359 0
M  V30 4523 H 430.898 1.51961 3.40532 0
M  V30 4524 N 433.083 -1.0153 1.20538 0
M  V30 4525 C 434.332 -1.74558 1.01057 0
M  V30 4526 C 434.645 -1.90168 -0.457756 0
M  V30 4527 O 435.851 -2.60301 -0.771722 0
M  V30 4528 C 434.307 -3.13963 1.75941 0
M  V30 4529 C 433.915 -3.06361 3.26875 0
M  V30 4530 C 435.659 -3.91191 1.64832 0
M  V30 4531 C 433.566 -4.40782 3.94291 0
M  V30 4532 H 432.496 -0.654417 0.374505 0
M  V30 4533 H 435.147 -1.13521 1.44171 0
M  V30 4534 H 433.529 -3.75549 1.25614 0
M  V30 4535 H 434.703 -2.54074 3.84425 0
M  V30 4536 H 433.018 -2.42625 3.38411 0
M  V30 4537 H 435.615 -4.90644 2.12539 0
M  V30 4538 H 435.958 -4.11884 0.604745 0
M  V30 4539 H 436.491 -3.36236 2.12579 0
M  V30 4540 H 433.23 -4.25292 4.98805 0
M  V30 4541 H 432.75 -4.9307 3.41529 0
M  V30 4542 H 434.429 -5.09621 3.98617 0
M  V30 4543 N 434.561 -1.01147 -1.20859 0
M  V30 4544 C 435.508 -0.577354 -2.23462 0
M  V30 4545 C 436.478 0.399922 -1.61214 0
M  V30 4546 O 437.663 0.300515 -1.88419 0
M  V30 4547 C 434.803 0.083372 -3.44999 0
M  V30 4548 C 433.916 -0.937856 -4.21697 0
M  V30 4549 C 433.051 -0.248717 -5.30617 0
M  V30 4550 C 432.09 -1.25705 -5.99053 0
M  V30 4551 N 431.227 -0.594939 -6.99575 0
M  V30 4552 H 436.067 -1.45695 -2.59956 0
M  V30 4553 H 433.604 -0.729428 -1.27741 0
M  V30 4554 H 435.562 0.483535 -4.14388 0
M  V30 4555 H 434.192 0.926645 -3.09214 0
M  V30 4556 H 433.244 -1.45622 -3.51423 0
M  V30 4557 H 434.556 -1.70493 -4.68757 0
M  V30 4558 H 433.71 0.207215 -6.06346 0
M  V30 4559 H 432.449 0.55071 -4.84581 0
M  V30 4560 H 431.454 -1.72343 -5.2209 0
M  V30 4561 H 432.679 -2.05767 -6.47176 0
M  V30 4562 H 430.625 0.184713 -6.5574 0
M  V30 4563 H 430.542 -1.30017 -7.44736 0
M  V30 4564 H 431.81 -0.162427 -7.79331 0
M  V30 4565 N 436.039 1.36541 -0.78704 0
M  V30 4566 C 437.455 1.52571 -0.46844 0
M  V30 4567 C 437.655 1.7415 1.01361 0
M  V30 4568 O 436.711 1.77163 1.79915 0
M  V30 4569 C 438.024 2.71299 -1.29682 0
M  V30 4570 C 439.572 2.85169 -1.29027 0
M  V30 4571 C 440.047 4.06898 -2.10233 0
M  V30 4572 N 441.538 4.1404 -2.07666 0
M  V30 4573 C 442.273 5.07301 -2.67271 0
M  V30 4574 N 441.769 6.06021 -3.35724 0
M  V30 4575 N 443.562 4.99898 -2.57018 0
M  V30 4576 H 435.713 1.20788 -1.74711 0
M  V30 4577 H 437.976 0.589364 -0.742532 0
M  V30 4578 H 437.682 2.61868 -2.34773 0
M  V30 4579 H 437.556 3.6539 -0.936479 0
M  V30 4580 H 439.943 2.94062 -0.247284 0
M  V30 4581 H 440.024 1.91992 -1.69035 0
M  V30 4582 H 439.668 3.98766 -3.1456 0
M  V30 4583 H 439.598 4.99218 -1.67597 0
M  V30 4584 H 442.089 3.43357 -1.57843 0
M  V30 4585 H 442.402 6.73741 -3.78541 0
M  V30 4586 H 440.747 6.06253 -3.39826 0
M  V30 4587 H 443.938 4.21724 -2.03142 0
M  V30 4588 H 444.111 5.72392 -3.03761 0
M  V30 4589 N 437.518 0.538854 1.48102 0
M  V30 4590 C 438.764 0.00801365 2.02798 0
M  V30 4591 C 439.097 -1.3309 1.41424 0
M  V30 4592 O 438.372 -1.86169 0.563158 0
M  V30 4593 C 438.655 -0.104589 3.59948 0
M  V30 4594 C 438.508 1.26012 4.31788 0
M  V30 4595 C 439.827 -0.827055 4.32259 0
M  V30 4596 H 436.946 0.00438624 0.736987 0
M  V30 4597 H 439.588 0.6976 1.7673 0
M  V30 4598 H 437.738 -0.691893 3.82289 0
M  V30 4599 H 439.41 1.88922 4.2084 0
M  V30 4600 H 437.653 1.83968 3.92859 0
M  V30 4601 H 438.324 1.13424 5.40221 0
M  V30 4602 H 440.8 -0.328578 4.14801 0
M  V30 4603 H 439.676 -0.87476 5.41885 0
M  V30 4604 H 439.937 -1.87927 4.0017 0
M  V30 4605 N 438.996 -1.55193 0.274407 0
M  V30 4606 C 440.407 -1.85358 -0.223488 0
M  V30 4607 C 440.758 -1.19642 -1.555 0
M  V30 4608 O 439.883 -0.484498 -2.10907 0
M  V30 4609 C 440.478 -3.36282 -0.412285 0
M  V30 4610 C 439.037 -3.66574 -0.854413 0
M  V30 4611 C 438.184 -2.7725 0.0527056 0
M  V30 4612 H 441.135 -1.50743 0.496215 0
M  V30 4613 H 441.156 -3.59349 -1.25094 0
M  V30 4614 H 440.668 -3.84083 0.556965 0
M  V30 4615 H 438.769 -3.24273 -1.83516 0
M  V30 4616 H 438.882 -4.74073 -0.692226 0
M  V30 4617 H 437.246 -2.50447 -0.463484 0
M  V30 4618 H 438.029 -3.27865 1.01783 0
M  V30 4619 N 440.474 -0.00167713 -1.576 0
M  V30 4620 C 441.404 0.988091 -2.11563 0
M  V30 4621 C 442.385 1.35736 -1.02517 0
M  V30 4622 O 443.57 1.44082 -1.30208 0
M  V30 4623 C 440.7 2.27941 -2.62031 0
M  V30 4624 C 439.654 2.0517 -3.75619 0
M  V30 4625 C 438.98 3.4033 -4.12407 0
M  V30 4626 C 440.28 1.41294 -5.02825 0
M  V30 4627 H 441.974 0.538771 -2.94513 0
M  V30 4628 H 439.52 0.257712 -1.41675 0
M  V30 4629 H 441.473 2.97539 -2.9841 0
M  V30 4630 H 440.197 2.74989 -1.76205 0
M  V30 4631 H 438.856 1.37998 -3.39635 0
M  V30 4632 H 438.504 3.85085 -3.23603 0
M  V30 4633 H 438.204 3.25909 -4.88935 0
M  V30 4634 H 439.728 4.1124 -4.51347 0
M  V30 4635 H 441.142 2.00851 -5.36965 0
M  V30 4636 H 439.539 1.37356 -5.84169 0
M  V30 4637 H 440.609 0.382362 -4.8339 0
M  V30 4638 N 441.952 1.55251 0.271103 0
M  V30 4639 C 443.363 1.66635 0.842007 0
M  V30 4640 C 443.714 0.594631 1.86972 0
M  V30 4641 O 442.839 -0.263532 2.14789 0
M  V30 4642 C 443.434 3.02082 1.53401 0
M  V30 4643 C 441.993 3.15487 2.05293 0
M  V30 4644 C 441.14 2.62438 0.895631 0
M  V30 4645 H 444.091 1.58629 0.0474117 0
M  V30 4646 H 444.112 2.95176 2.40107 0
M  V30 4647 H 443.624 3.80062 0.785786 0
M  V30 4648 H 441.725 2.42284 2.83071 0
M  V30 4649 H 441.838 4.22075 2.26693 0
M  V30 4650 H 440.202 2.19644 1.28953 0
M  V30 4651 H 440.985 3.42923 0.160878 0
M  V30 4652 N 443.43 -0.535701 1.48216 0
M  V30 4653 C 444.38 -1.63688 1.58714 0
M  V30 4654 C 445.364 -1.54635 0.444615 0
M  V30 4655 O 446.556 -1.62753 0.695742 0
M  V30 4656 C 443.685 -3.02423 1.62466 0
M  V30 4657 C 442.771 -3.16601 2.82178 0
M  V30 4658 N 443.162 -3.00771 4.06658 0
M  V30 4659 C 441.46 -3.47645 2.79391 0
M  V30 4660 C 442.161 -3.18213 4.86945 0
M  V30 4661 N 441.137 -3.45528 4.19656 0
M  V30 4662 H 444.939 -1.5005 2.5271 0
M  V30 4663 H 442.453 -0.741018 1.44508 0
M  V30 4664 H 444.45 -3.81517 1.6808 0
M  V30 4665 H 443.11 -3.17157 0.695826 0
M  V30 4666 H 444.121 -2.77652 4.37184 0
M  V30 4667 H 440.798 -3.68771 1.95739 0
M  V30 4668 H 442.188 -3.1076 5.95716 0
M  V30 4669 N 444.908 -1.36708 -0.784132 0
M  V30 4670 C 446.133 -1.34565 -1.5782 0
M  V30 4671 C 446.558 0.0695257 -1.87971 0
M  V30 4672 O 445.916 1.04302 -1.48293 0
M  V30 4673 C 445.964 -2.17952 -2.87279 0
M  V30 4674 O 445.068 -1.57563 -3.81114 0
M  V30 4675 H 444.409 -0.460337 -0.478524 0
M  V30 4676 H 446.939 -1.80064 -0.971495 0
M  V30 4677 H 446.949 -2.30721 -3.365 0
M  V30 4678 H 445.624 -3.20823 -2.64661 0
M  V30 4679 H 444.201 -1.53764 -3.39722 0
M  V30 4680 N 446.386 1.0089 -1.21074 0
M  V30 4681 C 447.616 1.77933 -1.04993 0
M  V30 4682 C 448.024 1.84847 0.403495 0
M  V30 4683 O 447.367 1.30606 1.29181 0
M  V30 4684 C 447.429 3.23541 -1.56722 0
M  V30 4685 C 447.093 3.40214 -3.05129 0
M  V30 4686 C 448.09 3.2881 -4.02716 0
M  V30 4687 C 445.775 3.65781 -3.44252 0
M  V30 4688 C 447.769 3.42732 -5.37414 0
M  V30 4689 C 445.456 3.79346 -4.79103 0
M  V30 4690 C 446.454 3.67827 -5.75493 0
M  V30 4691 O 446.142 3.80965 -7.07899 0
M  V30 4692 H 445.874 0.566157 -0.369381 0
M  V30 4693 H 448.428 1.27826 -1.60779 0
M  V30 4694 H 446.658 3.74766 -0.953285 0
M  V30 4695 H 448.347 3.82245 -1.36543 0
M  V30 4696 H 449.113 3.08986 -3.73835 0
M  V30 4697 H 444.992 3.73831 -2.69762 0
M  V30 4698 H 448.536 3.33658 -6.12632 0
M  V30 4699 H 444.433 3.98672 -5.07672 0
M  V30 4700 H 445.201 3.97937 -7.15254 0
M  V30 4701 N 447.864 1.01787 1.20321 0
M  V30 4702 C 449.094 0.72614 1.93419 0
M  V30 4703 C 449.502 -0.717317 1.75075 0
M  V30 4704 O 448.845 -1.49836 1.06278 0
M  V30 4705 C 448.907 0.983621 3.45782 0
M  V30 4706 C 448.571 2.41645 3.87888 0
M  V30 4707 C 449.568 3.39732 3.93545 0
M  V30 4708 C 447.253 2.75752 4.19841 0
M  V30 4709 C 449.247 4.69988 4.30569 0
M  V30 4710 C 446.934 4.06221 4.56539 0
M  V30 4711 C 447.932 5.0315 4.61876 0
M  V30 4712 O 447.62 6.31284 4.97731 0
M  V30 4713 H 447.352 0.265824 0.621541 0
M  V30 4714 H 449.906 1.3623 1.53722 0
M  V30 4715 H 448.136 0.290301 3.85609 0
M  V30 4716 H 449.825 0.683279 4.00108 0
M  V30 4717 H 450.591 3.14718 3.69022 0
M  V30 4718 H 446.47 2.00993 4.14877 0
M  V30 4719 H 450.014 5.45642 4.3465 0
M  V30 4720 H 445.911 4.31013 4.80518 0
M  V30 4721 H 446.679 6.35591 5.15719 0
M  V30 4722 N 449.342 -1.36122 0.79427 0
M  V30 4723 C 450.567 -2.03891 0.379871 0
M  V30 4724 C 450.992 -1.59488 -0.997251 0
M  V30 4725 O 450.35 -0.765652 -1.64339 0
M  V30 4726 C 450.398 -3.57687 0.457442 0
M  V30 4727 O 449.502 -4.08931 -0.5338 0
M  V30 4728 H 448.843 -0.6443 0.160541 0
M  V30 4729 H 451.373 -1.73976 1.07673 0
M  V30 4730 H 451.383 -4.06721 0.322792 0
M  V30 4731 H 450.058 -3.89357 1.46199 0
M  V30 4732 H 448.635 -3.71154 -0.360409 0
M  V30 4733 N 450.82 -0.546701 -1.47814 0
M  V30 4734 C 452.066 -0.0187684 -2.02791 0
M  V30 4735 C 452.399 1.32338 -1.42128 0
M  V30 4736 O 451.674 1.85867 -0.573023 0
M  V30 4737 C 451.957 0.0854985 -3.59998 0
M  V30 4738 C 451.81 -1.283 -4.31114 0
M  V30 4739 C 453.129 0.80412 -4.32691 0
M  V30 4740 H 450.248 -0.0082946 -0.736953 0
M  V30 4741 H 452.89 -0.706962 -1.76358 0
M  V30 4742 H 451.04 0.671609 -3.82651 0
M  V30 4743 H 452.712 -1.91151 -4.19832 0
M  V30 4744 H 450.955 -1.86049 -3.91878 0
M  V30 4745 H 451.626 -1.16287 -5.39612 0
M  V30 4746 H 454.102 0.306576 -4.14969 0
M  V30 4747 H 452.978 0.846011 -5.42341 0
M  V30 4748 H 453.239 1.85802 -4.01161 0
M  V30 4749 N 452.299 1.55045 -0.282633 0
M  V30 4750 C 453.247 2.24254 0.617478 0
M  V30 4751 C 454.241 1.24215 1.15183 0
M  V30 4752 O 455.447 1.42123 1.10459 0
M  V30 4753 H 451.822 0.719801 0.217693 0
M  V30 4754 H 453.793 2.98398 0.0110076 0
M  V30 4755 C 452.542 2.98281 1.78672 0
M  V30 4756 H 451.865 3.75053 1.38475 0
M  V30 4757 H 453.305 3.50017 2.393 0
M  V30 4758 C 451.764 2.04184 2.67975 0
M  V30 4759 O 452.294 1.59792 3.6855 0
M  V30 4760 N 450.5 1.70526 2.35307 0
M  V30 4761 H 450.047 2.06821 1.53567 0
M  V30 4762 H 450.005 1.07839 2.95327 0
M  V30 4763 N 453.777 0.010035 1.57597 0
M  V30 4764 C 455.023 -0.673697 1.91283 0
M  V30 4765 C 455.356 -1.72863 0.884979 0
M  V30 4766 O 454.631 -1.94268 -0.0949487 0
M  V30 4767 C 454.914 -1.30766 3.35518 0
M  V30 4768 C 454.767 -0.263578 4.49027 0
M  V30 4769 C 456.086 -2.23105 3.79358 0
M  V30 4770 H 453.205 -0.243439 0.695634 0
M  V30 4771 H 455.847 0.0633864 1.89894 0
M  V30 4772 H 453.997 -1.93588 3.36832 0
M  V30 4773 H 455.669 0.365738 4.59848 0
M  V30 4774 H 453.912 0.413077 4.31829 0
M  V30 4775 H 454.583 -0.746398 5.4693 0
M  V30 4776 H 457.059 -1.70289 3.79659 0
M  V30 4777 H 455.935 -2.64424 4.81011 0
M  V30 4778 H 456.196 -3.11433 3.13787 0
M  V30 4779 N 455.255 -1.55392 -0.262866 0
M  V30 4780 C 456.48 -1.80847 -1.01533 0
M  V30 4781 C 456.905 -0.584946 -1.78774 0
M  V30 4782 O 456.263 0.465701 -1.75217 0
M  V30 4783 C 456.311 -3.03866 -1.94159 0
M  V30 4784 O 455.415 -2.79662 -3.03089 0
M  V30 4785 H 454.756 -0.597441 -0.289759 0
M  V30 4786 H 457.286 -2.02553 -0.288698 0
M  V30 4787 H 457.296 -3.32872 -2.35924 0
M  V30 4788 H 455.971 -3.92564 -1.37354 0
M  V30 4789 H 454.548 -2.61781 -2.65566 0
M  V30 4790 N 456.733 0.527833 -1.48498 0
M  V30 4791 C 457.961 1.30823 -1.6029 0
M  V30 4792 C 458.376 1.86945 -0.263974 0
M  V30 4793 O 457.733 1.6651 0.747034 0
M  V30 4794 C 457.784 2.45756 -2.65116 0
M  V30 4795 O 457.505 1.91946 -3.93813 0
M  V30 4796 C 459.006 3.37543 -2.87367 0
M  V30 4797 H 456.226 0.397763 -0.540394 0
M  V30 4798 H 458.77 0.636529 -1.94341 0
M  V30 4799 H 456.925 3.08806 -2.33917 0
M  V30 4800 H 457.339 2.67195 -4.51339 0
M  V30 4801 H 458.813 4.14532 -3.6451 0
M  V30 4802 H 459.29 3.92905 -1.9627 0
M  V30 4803 H 459.896 2.80283 -3.19878 0
M  V30 4804 N 458.211 1.37122 0.776871 0
M  V30 4805 C 459.488 1.22586 1.52421 0
M  V30 4806 C 459.868 -0.182726 2.10308 0
M  V30 4807 O 459.216 -1.18979 1.9508 0
M  V30 4808 C 459.426 2.31782 2.60918 0
M  V30 4809 C 460.774 2.69071 3.2846 0
M  V30 4810 O 461.798 2.3092 2.71209 0
M  V30 4811 O 460.657 3.3478 4.31954 0
M  V30 4812 H 457.751 0.478045 0.674835 0
M  V30 4813 H 460.297 1.48888 0.814275 0
M  V30 4814 H 459.069 3.26131 2.16227 0
M  V30 4815 H 458.692 2.06916 3.39517 0
M  V30 4816 N 459.689 -1.00246 1.21608 0
M  V30 4817 C 460.937 -1.73717 1.0328 0
M  V30 4818 C 461.258 -1.90102 -0.434318 0
M  V30 4819 O 460.528 -1.45376 -1.31311 0
M  V30 4820 H 459.108 -0.643613 0.379172 0
M  V30 4821 H 461.77 -1.20787 1.52959 0
M  V30 4822 H 460.866 -2.73535 1.50283 0
M  V30 4823 N 461.167 -1.02423 -1.1978 0
M  V30 4824 C 462.392 -0.7373 -1.93852 0
M  V30 4825 C 462.817 0.696923 -1.74713 0
M  V30 4826 O 462.175 1.48056 -1.04638 0
M  V30 4827 C 462.223 -1.08783 -3.438 0
M  V30 4828 O 461.327 -0.20383 -4.11896 0
M  V30 4829 H 460.668 -0.27284 -0.605355 0
M  V30 4830 H 463.198 -1.36966 -1.51992 0
M  V30 4831 H 463.208 -1.04276 -3.9445 0
M  V30 4832 H 461.883 -2.13274 -3.57053 0
M  V30 4833 H 460.46 -0.307091 -3.71633 0
M  V30 4834 N 462.645 1.35699 -0.801477 0
M  V30 4835 C 463.873 2.03157 -0.391768 0
M  V30 4836 C 464.288 1.60412 0.995668 0
M  V30 4837 O 463.645 0.799228 1.64069 0
M  V30 4838 C 463.696 3.58566 -0.459671 0
M  V30 4839 O 463.417 3.99756 -1.7924 0
M  V30 4840 C 464.918 4.4328 -0.0421205 0
M  V30 4841 H 462.138 0.651688 -0.159825 0
M  V30 4842 H 464.682 1.73426 -1.08368 0
M  V30 4843 H 462.837 3.86963 0.183939 0
M  V30 4844 H 463.251 4.94387 -1.75162 0
M  V30 4845 H 464.725 5.51821 -0.140754 0
M  V30 4846 H 465.202 4.27383 1.01196 0
M  V30 4847 H 465.808 4.20168 -0.658687 0
M  V30 4848 N 464.123 0.554532 1.47522 0
M  V30 4849 C 465.369 0.0295227 2.02779 0
M  V30 4850 C 465.702 -1.31582 1.42828 0
M  V30 4851 O 464.977 -1.85561 0.582872 0
M  V30 4852 C 465.26 -0.0664057 3.60039 0
M  V30 4853 C 465.113 1.30585 4.30427 0
M  V30 4854 C 466.432 -0.781162 4.33112 0
M  V30 4855 H 463.551 0.0122027 0.736899 0
M  V30 4856 H 466.193 0.716305 1.7598 0
M  V30 4857 H 464.343 -0.651307 3.83002 0
M  V30 4858 H 466.015 1.93374 4.18813 0
M  V30 4859 H 464.258 1.88125 3.90886 0
M  V30 4860 H 464.929 1.19147 5.38988 0
M  V30 4861 H 467.405 -0.284565 4.15126 0
M  V30 4862 H 466.281 -0.817237 5.42782 0
M  V30 4863 H 466.542 -1.83672 4.0214 0
M  V30 4864 N 465.601 -1.54893 0.290851 0
M  V30 4865 C 466.847 -2.00949 -0.314784 0
M  V30 4866 C 467.202 -1.1757 -1.52299 0
M  V30 4867 O 466.495 -0.241558 -1.90071 0
M  V30 4868 C 466.689 -3.49815 -0.732397 0
M  V30 4869 C 466.518 -4.47603 0.433799 0
M  V30 4870 C 465.288 -4.96806 0.922599 0
M  V30 4871 C 467.486 -4.98233 1.27546 0
M  V30 4872 N 465.468 -5.78426 2.05662 0
M  V30 4873 C 466.839 -5.77455 2.25712 0
M  V30 4874 C 468.894 -4.80439 1.307 0
M  V30 4875 C 467.597 -6.40778 3.26796 0
M  V30 4876 C 469.623 -5.44574 2.30637 0
M  V30 4877 C 468.985 -6.23619 3.27533 0
M  V30 4878 H 465.084 -0.777905 -0.0799257 0
M  V30 4879 H 467.668 -1.9015 0.418458 0
M  V30 4880 H 465.839 -3.60925 -1.43483 0
M  V30 4881 H 467.571 -3.82681 -1.31671 0
M  V30 4882 H 464.326 -4.70961 0.49926 0
M  V30 4883 H 464.75 -6.23923 2.62772 0
M  V30 4884 H 469.392 -4.18918 0.571622 0
M  V30 4885 H 467.11 -7.01439 4.01258 0
M  V30 4886 H 470.696 -5.32739 2.33838 0
M  V30 4887 H 469.576 -6.72367 4.03599 0
M  V30 4888 N 467.08 -0.0183926 -1.57589 0
M  V30 4889 C 468.01 0.965596 -2.12599 0
M  V30 4890 C 468.991 1.34641 -1.0395 0
M  V30 4891 O 470.176 1.42693 -1.31729 0
M  V30 4892 C 467.306 2.25149 -2.64434 0
M  V30 4893 C 466.26 2.01175 -3.77773 0
M  V30 4894 C 465.586 3.35937 -4.15994 0
M  V30 4895 C 466.886 1.35953 -5.04296 0
M  V30 4896 H 468.58 0.507504 -2.95067 0
M  V30 4897 H 466.126 0.242671 -1.41941 0
M  V30 4898 H 468.079 2.94357 -3.01549 0
M  V30 4899 H 466.803 2.73105 -1.79112 0
M  V30 4900 H 465.462 1.34388 -3.4108 0
M  V30 4901 H 465.11 3.81631 -3.27669 0
M  V30 4902 H 464.81 3.20705 -4.92364 0
M  V30 4903 H 466.334 4.0643 -4.55683 0
M  V30 4904 H 467.748 1.95144 -5.39065 0
M  V30 4905 H 466.145 1.31152 -5.85593 0
M  V30 4906 H 467.215 0.331071 -4.83768 0
M  V30 4907 N 468.558 1.5553 0.254621 0
M  V30 4908 C 469.806 1.7665 0.981793 0
M  V30 4909 C 470.127 0.580963 1.86145 0
M  V30 4910 O 469.397 -0.403537 1.91699 0
M  V30 4911 H 467.977 0.651475 0.365498 0
M  V30 4912 H 470.639 1.92958 0.274426 0
M  V30 4913 H 469.735 2.67486 1.60802 0
M  V30 4914 N 470.036 -0.519951 1.48776 0
M  V30 4915 C 471.284 -1.2727 1.56993 0
M  V30 4916 C 471.605 -1.9339 0.25004 0
M  V30 4917 O 470.875 -1.81822 -0.729216 0
M  V30 4918 H 469.455 -0.472732 0.578389 0
M  V30 4919 H 472.117 -0.604234 1.85297 0
M  V30 4920 H 471.213 -2.04669 2.3562 0
M  V30 4921 N 471.514 -1.37532 -0.769588 0
M  V30 4922 C 472.477 -1.33292 -1.86456 0
M  V30 4923 C 473.477 -0.236537 -1.59051 0
M  V30 4924 O 474.667 -0.492511 -1.67093 0
M  V30 4925 C 471.799 -1.07118 -3.23633 0
M  V30 4926 H 472.992 -2.30692 -1.91628 0
M  V30 4927 H 470.545 -1.22593 -0.969572 0
M  V30 4928 H 471.28 -0.102578 -3.24138 0
M  V30 4929 H 471.065 -1.86479 -3.44917 0
M  V30 4930 H 472.555 -1.06806 -4.03711 0
M  V30 4931 N 472.992 0.995999 -1.22138 0
M  V30 4932 C 473.922 2.10387 -1.01289 0
M  V30 4933 C 474.903 1.69975 0.0651454 0
M  V30 4934 O 476.088 1.9396 -0.0964628 0
M  V30 4935 C 473.218 3.42312 -0.586517 0
M  V30 4936 C 472.172 3.96558 -1.61014 0
M  V30 4937 C 471.498 5.24494 -1.0397 0
M  V30 4938 C 472.798 4.27595 -2.99933 0
M  V30 4939 H 474.492 2.28086 -1.93951 0
M  V30 4940 H 472.038 1.09607 -0.933928 0
M  V30 4941 H 473.991 4.19223 -0.427793 0
M  V30 4942 H 472.715 3.24431 0.375761 0
M  V30 4943 H 471.374 3.21776 -1.75658 0
M  V30 4944 H 471.022 5.02953 -0.0688703 0
M  V30 4945 H 470.722 5.61755 -1.72352 0
M  V30 4946 H 472.246 6.04042 -0.892494 0
M  V30 4947 H 473.66 4.95315 -2.8868 0
M  V30 4948 H 472.057 4.76021 -3.6541 0
M  V30 4949 H 473.127 3.35498 -3.50099 0
M  V30 4950 N 474.47 1.03057 1.19235 0
M  V30 4951 C 475.718 0.726581 1.88587 0
M  V30 4952 C 476.039 -0.747227 1.80115 0
M  V30 4953 O 475.309 -1.53849 1.21274 0
M  V30 4954 H 473.889 0.265768 0.698124 0
M  V30 4955 H 476.551 1.30516 1.44746 0
M  V30 4956 H 475.647 1.0224 2.94879 0
M  V30 4957 N 475.948 -1.35272 0.808662 0
M  V30 4958 C 477.225 -1.93077 0.313181 0
M  V30 4959 C 477.605 -1.73847 -1.19752 0
M  V30 4960 O 476.953 -1.1087 -1.998 0
M  V30 4961 C 477.163 -3.41347 0.726859 0
M  V30 4962 C 478.511 -4.18493 0.717532 0
M  V30 4963 O 479.535 -3.4987 0.668535 0
M  V30 4964 O 478.394 -5.40937 0.777779 0
M  V30 4965 H 475.488 -0.822885 0.0824018 0
M  V30 4966 H 478.034 -1.44335 0.892499 0
M  V30 4967 H 476.806 -3.49082 1.76797 0
M  V30 4968 H 476.429 -3.97411 0.122461 0
M  V30 4969 N 477.426 -0.562348 -1.47226 0
M  V30 4970 C 478.356 0.170627 -2.32876 0
M  V30 4971 C 479.337 0.903748 -1.44106 0
M  V30 4972 O 480.522 0.883206 -1.72954 0
M  V30 4973 C 477.652 1.19786 -3.25989 0
M  V30 4974 C 476.606 0.580875 -4.2404 0
M  V30 4975 C 475.932 1.71311 -5.06514 0
M  V30 4976 C 477.232 -0.468714 -5.20193 0
M  V30 4977 H 478.926 -0.544441 -2.94408 0
M  V30 4978 H 476.472 -0.263271 -1.41573 0
M  V30 4979 H 478.425 1.71884 -3.84752 0
M  V30 4980 H 477.149 1.94294 -2.62521 0
M  V30 4981 H 475.808 0.0811538 -3.6651 0
M  V30 4982 H 475.456 2.44736 -4.39447 0
M  V30 4983 H 475.156 1.30604 -5.72902 0
M  V30 4984 H 476.68 2.23725 -5.68137 0
M  V30 4985 H 478.094 -0.0336028 -5.7329 0
M  V30 4986 H 476.491 -0.794957 -5.94811 0
M  V30 4987 H 477.561 -1.36269 -4.65359 0
M  V30 4988 N 478.904 1.54736 -0.299062 0
M  V30 4989 C 479.867 2.22127 0.565012 0
M  V30 4990 C 480.867 1.20669 1.06281 0
M  V30 4991 O 482.057 1.45417 0.959145 0
M  V30 4992 C 479.189 2.90611 1.78208 0
M  V30 4993 H 480.382 2.99891 -0.0237448 0
M  V30 4994 H 477.935 1.5622 -0.0498788 0
M  V30 4995 H 478.67 2.16921 2.41072 0
M  V30 4996 H 478.455 3.64984 1.43281 0
M  V30 4997 H 479.945 3.42026 2.396 0
M  V30 4998 N 480.382 0.0267497 1.57577 0
M  V30 4999 C 481.345 -0.940916 2.08996 0
M  V30 5000 C 482.345 -1.25561 1.00455 0
M  V30 5001 O 483.535 -1.19634 1.26623 0
M  V30 5002 C 480.667 -2.25814 2.55384 0
M  V30 5003 H 481.86 -0.495628 2.95776 0
M  V30 5004 H 479.413 -0.221241 1.54726 0
M  V30 5005 H 480.148 -2.74976 1.71926 0
M  V30 5006 H 479.933 -2.04285 3.34679 0
M  V30 5007 H 481.423 -2.95178 2.95398 0
M  V30 5008 N 481.861 -1.55662 -0.24637 0
M  V30 5009 C 483.091 -1.81312 -0.990438 0
M  V30 5010 C 483.499 -0.600234 -1.79426 0
M  V30 5011 O 482.842 0.440537 -1.78339 0
M  V30 5012 C 482.904 -3.0032 -1.97607 0
M  V30 5013 C 482.568 -4.36322 -1.35912 0
M  V30 5014 C 483.565 -5.14295 -0.761348 0
M  V30 5015 C 481.25 -4.83019 -1.37833 0
M  V30 5016 C 483.244 -6.37114 -0.190998 0
M  V30 5017 C 480.931 -6.05786 -0.804128 0
M  V30 5018 C 481.929 -6.82672 -0.211489 0
M  V30 5019 O 481.617 -8.03121 0.353845 0
M  V30 5020 H 481.349 -0.607233 -0.297058 0
M  V30 5021 H 483.903 -2.0356 -0.274351 0
M  V30 5022 H 482.133 -2.73829 -2.73047 0
M  V30 5023 H 483.822 -3.13057 -2.58361 0
M  V30 5024 H 484.588 -4.79337 -0.739013 0
M  V30 5025 H 480.467 -4.23165 -1.829 0
M  V30 5026 H 484.011 -6.97069 0.272206 0
M  V30 5027 H 479.908 -6.40222 -0.823792 0
M  V30 5028 H 480.676 -8.18131 0.245761 0
M  V30 5029 N 483.339 0.512053 -1.4905 0
M  V30 5030 C 484.616 1.27337 -1.48474 0
M  V30 5031 C 484.996 2.1009 -0.206301 0
M  V30 5032 O 484.344 2.136 0.811609 0
M  V30 5033 C 484.554 2.13954 -2.75726 0
M  V30 5034 C 485.902 2.73507 -3.24776 0
M  V30 5035 O 486.926 2.24229 -2.76767 0
M  V30 5036 O 485.785 3.63186 -4.08361 0
M  V30 5037 H 482.879 0.575652 -0.593762 0
M  V30 5038 H 485.425 0.527232 -1.61302 0
M  V30 5039 H 484.197 1.52709 -3.60272 0
M  V30 5040 H 483.82 2.95782 -2.65705 0
M  V30 5041 N 484.817 1.37938 0.762283 0
M  V30 5042 C 485.78 1.34279 1.85747 0
M  V30 5043 C 486.78 0.244969 1.58923 0
M  V30 5044 O 487.97 0.501365 1.66829 0
M  V30 5045 C 485.102 1.08833 3.23061 0
M  V30 5046 H 486.295 2.31705 1.90401 0
M  V30 5047 H 483.848 1.23105 0.963057 0
M  V30 5048 H 484.583 0.119767 3.24079 0
M  V30 5049 H 484.368 1.88306 3.43923 0
M  V30 5050 H 485.858 1.08946 4.03138 0
M  V30 5051 N 486.295 -0.989507 1.22664 0
M  V30 5052 C 487.205 -2.11449 1.01619 0
M  V30 5053 C 488.221 -1.73962 -0.036545 0
M  V30 5054 O 489.397 -2.00788 0.156924 0
M  V30 5055 C 486.462 -3.41465 0.600204 0
M  V30 5056 C 485.523 -3.93033 1.72695 0
M  V30 5057 C 484.756 -5.16844 1.33071 0
M  V30 5058 O 484.979 -5.7001 0.210975 0
M  V30 5059 O 483.913 -5.6225 2.14845 0
M  V30 5060 H 487.739 -2.32088 1.9588 0
M  V30 5061 H 485.324 -1.09823 1.01289 0
M  V30 5062 H 487.206 -4.19695 0.37873 0
M  V30 5063 H 485.881 -3.22178 -0.313511 0
M  V30 5064 H 484.788 -3.15961 2.00298 0
M  V30 5065 H 486.121 -4.16758 2.61865 0
M  V30 5066 N 487.773 -1.03688 -1.18687 0
M  V30 5067 C 489.001 -0.757918 -1.92518 0
M  V30 5068 C 489.416 0.684398 -1.75959 0
M  V30 5069 O 488.773 1.46617 -1.08673 0
M  V30 5070 C 488.824 -1.10985 -3.44042 0
M  V30 5071 O 488.545 -2.49554 -3.60076 0
M  V30 5072 C 490.046 -0.854844 -4.3498 0
M  V30 5073 H 487.266 -0.276699 -0.611293 0
M  V30 5074 H 489.81 -1.38352 -1.50595 0
M  V30 5075 H 487.965 -0.529279 -3.83767 0
M  V30 5076 H 488.379 -2.6291 -4.53849 0
M  V30 5077 H 489.853 -1.15098 -5.39867 0
M  V30 5078 H 490.33 0.210507 -4.38695 0
M  V30 5079 H 490.936 -1.41853 -4.00946 0
M  V30 5080 N 489.251 1.34841 -0.815825 0
M  V30 5081 C 490.181 2.32187 -0.247298 0
M  V30 5082 C 491.162 1.5791 0.632344 0
M  V30 5083 O 492.347 1.8593 0.560698 0
M  V30 5084 C 489.477 3.42122 0.597466 0
M  V30 5085 C 488.431 4.27602 -0.184446 0
M  V30 5086 C 487.757 5.28942 0.782609 0
M  V30 5087 C 489.057 5.03502 -1.38865 0
M  V30 5088 H 490.751 2.79985 -1.06061 0
M  V30 5089 H 488.297 1.34611 -0.511461 0
M  V30 5090 H 490.25 4.09232 1.00533 0
M  V30 5091 H 488.974 2.92956 1.44376 0
M  V30 5092 H 487.633 3.62085 -0.573592 0
M  V30 5093 H 487.281 4.7604 1.62466 0
M  V30 5094 H 486.981 5.87008 0.263695 0
M  V30 5095 H 488.505 5.98922 1.18848 0
M  V30 5096 H 489.919 5.63506 -1.05518 0
M  V30 5097 H 488.316 5.71108 -1.8427 0
M  V30 5098 H 489.386 4.33608 -2.17054 0
M  V30 5099 N 490.729 0.570148 1.46925 0
M  V30 5100 C 491.639 -0.173061 2.33961 0
M  V30 5101 C 492.655 -0.898825 1.48987 0
M  V30 5102 O 493.831 -0.864825 1.81887 0
M  V30 5103 C 490.896 -1.18177 3.25937 0
M  V30 5104 C 489.957 -0.462041 4.26806 0
M  V30 5105 C 489.19 -1.4227 5.14388 0
M  V30 5106 O 489.413 -2.65842 5.04662 0
M  V30 5107 O 488.347 -0.940127 5.94513 0
M  V30 5108 H 492.173 0.541216 2.98839 0
M  V30 5109 H 489.758 0.330647 1.45695 0
M  V30 5110 H 491.64 -1.76372 3.82715 0
M  V30 5111 H 490.315 -1.87774 2.63671 0
M  V30 5112 H 489.222 0.161429 3.73752 0
M  V30 5113 H 490.555 0.192719 4.91823 0
M  V30 5114 N 492.207 -1.54576 0.307264 0
M  V30 5115 C 493.154 -2.23751 -0.56604 0
M  V30 5116 C 494.124 -1.22235 -1.12462 0
M  V30 5117 O 495.309 -1.50873 -1.16799 0
M  V30 5118 C 492.449 -2.98661 -1.72903 0
M  V30 5119 C 491.562 -4.14963 -1.20124 0
M  V30 5120 C 490.697 -4.77441 -2.3286 0
M  V30 5121 C 489.736 -5.85875 -1.77247 0
M  V30 5122 N 488.873 -6.42282 -2.8358 0
M  V30 5123 H 493.713 -2.97984 0.0304578 0
M  V30 5124 H 491.25 -1.47076 0.0268015 0
M  V30 5125 H 493.208 -3.40329 -2.41313 0
M  V30 5126 H 491.838 -2.26793 -2.29706 0
M  V30 5127 H 490.89 -3.78193 -0.409198 0
M  V30 5128 H 492.202 -4.93066 -0.754171 0
M  V30 5129 H 491.356 -5.21993 -3.09205 0
M  V30 5130 H 490.095 -3.98684 -2.80896 0
M  V30 5131 H 489.1 -5.40741 -0.993926 0
M  V30 5132 H 490.325 -6.6652 -1.30107 0
M  V30 5133 H 488.271 -5.66406 -3.30939 0
M  V30 5134 H 488.188 -7.1575 -2.43388 0
M  V30 5135 H 489.456 -6.91492 -3.59804 0
M  V30 5136 N 493.685 -0.035106 -1.57561 0
M  V30 5137 C 494.632 0.94474 -2.10578 0
M  V30 5138 C 495.602 1.3192 -1.00927 0
M  V30 5139 O 496.787 1.41147 -1.28382 0
M  V30 5140 C 493.927 2.21982 -2.64231 0
M  V30 5141 C 493.04 1.90128 -3.87911 0
M  V30 5142 C 492.175 3.11975 -4.29936 0
M  V30 5143 C 491.214 2.75968 -5.46359 0
M  V30 5144 N 490.351 3.90459 -5.83512 0
M  V30 5145 H 495.191 0.485717 -2.94015 0
M  V30 5146 H 492.728 0.228143 -1.4532 0
M  V30 5147 H 494.686 2.96572 -2.9343 0
M  V30 5148 H 493.316 2.6549 -1.83616 0
M  V30 5149 H 492.368 1.05755 -3.65404 0
M  V30 5150 H 493.68 1.59613 -4.72573 0
M  V30 5151 H 492.834 3.9488 -4.60603 0
M  V30 5152 H 491.573 3.45657 -3.44053 0
M  V30 5153 H 490.578 1.91478 -5.1538 0
M  V30 5154 H 491.803 2.43497 -6.33945 0
M  V30 5155 H 489.749 4.23971 -5.00584 0
M  V30 5156 H 489.666 3.63588 -6.62827 0
M  V30 5157 H 490.934 4.7405 -6.18787 0
M  V30 5158 N 495.163 1.55791 0.238111 0
M  V30 5159 C 496.411 1.77681 0.963001 0
M  V30 5160 C 496.732 0.600674 1.85518 0
M  V30 5161 O 496.002 -0.383182 1.92116 0
M  V30 5162 H 494.582 0.655315 0.358568 0
M  V30 5163 H 497.244 1.93239 0.253945 0
M  V30 5164 H 496.34 2.69177 1.57956 0
M  V30 5165 N 496.642 -0.504142 1.49319 0
M  V30 5166 C 497.574 -1.62265 1.61872 0
M  V30 5167 C 498.587 -1.54881 0.501573 0
M  V30 5168 O 499.776 -1.6087 0.773497 0
M  V30 5169 C 496.876 -3.01042 1.55651 0
M  V30 5170 C 496.049 -3.33642 2.82845 0
M  V30 5171 C 495.108 -4.51816 2.69719 0
M  V30 5172 O 494.134 -4.53755 3.4365 0
M  V30 5173 N 495.336 -5.51543 1.81055 0
M  V30 5174 H 498.101 -1.51924 2.58339 0
M  V30 5175 H 495.662 -0.691954 1.46368 0
M  V30 5176 H 497.654 -3.78013 1.44528 0
M  V30 5177 H 496.224 -3.05323 0.670546 0
M  V30 5178 H 495.444 -2.45598 3.08343 0
M  V30 5179 H 496.732 -3.5222 3.67177 0
M  V30 5180 H 496.13 -5.52774 1.20241 0
M  V30 5181 H 494.687 -6.27629 1.75856 0
M  V30 5182 N 498.12 -1.38341 -0.754957 0
M  V30 5183 C 499.366 -1.34672 -1.51628 0
M  V30 5184 C 499.699 0.0636036 -1.94096 0
M  V30 5185 O 498.974 1.0245 -1.6533 0
M  V30 5186 C 499.257 -2.30116 -2.76981 0
M  V30 5187 C 499.11 -3.80003 -2.4066 0
M  V30 5188 C 500.429 -2.23715 -3.78998 0
M  V30 5189 H 497.548 -0.490517 -0.550056 0
M  V30 5190 H 500.19 -1.69178 -0.864807 0
M  V30 5191 H 498.34 -2.00821 -3.3257 0
M  V30 5192 H 500.012 -4.19966 -1.90856 0
M  V30 5193 H 498.255 -3.97751 -1.73137 0
M  V30 5194 H 498.926 -4.42244 -3.30339 0
M  V30 5195 H 501.402 -2.49574 -3.32945 0
M  V30 5196 H 500.278 -2.9261 -4.64403 0
M  V30 5197 H 500.539 -1.23554 -4.24484 0
M  V30 5198 N 499.598 0.982988 -1.23187 0
M  V30 5199 C 500.875 1.69814 -0.970707 0
M  V30 5200 C 501.255 2.04811 0.511424 0
M  V30 5201 O 500.603 1.73924 1.48198 0
M  V30 5202 C 500.813 2.94143 -1.87831 0
M  V30 5203 C 502.161 3.66712 -2.14026 0
M  V30 5204 O 503.185 3.04171 -1.8536 0
M  V30 5205 O 502.044 4.79258 -2.62629 0
M  V30 5206 H 499.138 0.741659 -0.365884 0
M  V30 5207 H 501.684 1.03844 -1.34218 0
M  V30 5208 H 500.456 2.64858 -2.88038 0
M  V30 5209 H 500.079 3.6785 -1.50905 0
M  V30 5210 N 501.076 1.04316 1.18135 0
M  V30 5211 C 502.006 0.657299 2.24058 0
M  V30 5212 C 502.987 -0.340678 1.66654 0
M  V30 5213 O 504.172 -0.220223 1.92947 0
M  V30 5214 C 501.302 0.0220715 3.47293 0
M  V30 5215 C 500.256 0.943857 4.17463 0
M  V30 5216 C 499.582 0.172973 5.3442 0
M  V30 5217 C 500.882 2.26409 4.70677 0
M  V30 5218 H 502.576 1.5428 2.56589 0
M  V30 5219 H 500.122 0.743263 1.23335 0
M  V30 5220 H 502.075 -0.259607 4.206 0
M  V30 5221 H 500.799 -0.898323 3.14003 0
M  V30 5222 H 499.458 1.20996 3.46057 0
M  V30 5223 H 499.106 -0.749907 4.97379 0
M  V30 5224 H 498.806 0.787098 5.82304 0
M  V30 5225 H 500.33 -0.101628 6.10515 0
M  V30 5226 H 501.744 2.04294 5.35665 0
M  V30 5227 H 500.141 2.8314 5.29105 0
M  V30 5228 H 501.211 2.90883 3.87962 0
M  V30 5229 N 502.554 -1.34406 0.822964 0
M  V30 5230 C 503.965 -1.8069 0.469879 0
M  V30 5231 C 504.316 -1.68223 -1.00972 0
M  V30 5232 O 503.441 -1.22226 -1.78577 0
M  V30 5233 C 504.036 -3.28064 0.846118 0
M  V30 5234 C 502.595 -3.72428 0.545402 0
M  V30 5235 C 501.742 -2.56116 1.06301 0
M  V30 5236 H 504.693 -1.22153 1.01313 0
M  V30 5237 H 504.714 -3.80205 0.149922 0
M  V30 5238 H 504.226 -3.37107 1.92304 0
M  V30 5239 H 502.327 -3.68924 -0.522109 0
M  V30 5240 H 502.44 -4.66548 1.0895 0
M  V30 5241 H 500.804 -2.50048 0.484554 0
M  V30 5242 H 501.587 -2.67928 2.14638 0
M  V30 5243 N 504.032 -0.577932 -1.46621 0
M  V30 5244 C 505.28 -0.061566 -2.02006 0
M  V30 5245 C 505.601 1.30117 -1.4524 0
M  V30 5246 O 504.871 1.85313 -0.63529 0
M  V30 5247 H 503.451 -0.0197692 -0.746738 0
M  V30 5248 H 506.113 -0.752631 -1.79782 0
M  V30 5249 H 505.209 0.0110238 -3.12098 0
M  V30 5250 N 505.51 1.54411 -0.315457 0
M  V30 5251 C 506.458 2.25514 0.569771 0
M  V30 5252 C 507.452 1.2663 1.12522 0
M  V30 5253 O 508.658 1.44434 1.07419 0
M  V30 5254 H 505.033 0.724257 0.202376 0
M  V30 5255 H 507.004 2.98354 -0.0522895 0
M  V30 5256 C 505.753 3.02004 1.72305 0
M  V30 5257 H 505.076 3.77906 1.30488 0
M  V30 5258 H 506.516 3.55014 2.31821 0
M  V30 5259 C 504.975 2.09822 2.63583 0
M  V30 5260 O 505.505 1.67574 3.65078 0
M  V30 5261 N 503.711 1.75478 2.31637 0
M  V30 5262 H 503.258 2.10032 1.49145 0
M  V30 5263 H 503.216 1.14079 2.92973 0
M  V30 5264 N 506.988 0.0434614 1.5754 0
M  V30 5265 C 507.951 -0.918696 2.09982 0
M  V30 5266 C 508.951 -1.24488 1.01781 0
M  V30 5267 O 510.141 -1.18284 1.27885 0
M  V30 5268 C 507.273 -2.23093 2.57764 0
M  V30 5269 H 508.466 -0.464229 2.96285 0
M  V30 5270 H 506.019 -0.204818 1.54952 0
M  V30 5271 H 506.754 -2.73137 1.74832 0
M  V30 5272 H 506.539 -2.00724 3.36827 0
M  V30 5273 H 508.029 -2.92028 2.98512 0
M  V30 5274 N 508.466 -1.55915 -0.229846 0
M  V30 5275 C 509.691 -1.8296 -0.976743 0
M  V30 5276 C 510.116 -0.622735 -1.77493 0
M  V30 5277 O 509.474 0.428431 -1.76165 0
M  V30 5278 C 509.522 -3.07916 -1.8767 0
M  V30 5279 O 508.626 -2.86028 -2.97088 0
M  V30 5280 H 507.967 -0.603453 -0.277021 0
M  V30 5281 H 510.497 -2.0312 -0.245669 0
M  V30 5282 H 510.507 -3.37802 -2.2881 0
M  V30 5283 H 509.182 -3.95389 -1.28996 0
M  V30 5284 H 507.759 -2.67355 -2.59954 0
M  V30 5285 N 509.944 0.496216 -1.49584 0
M  V30 5286 C 510.877 1.61508 -1.61215 0
M  V30 5287 C 511.855 1.55927 -0.461045 0
M  V30 5288 O 513.039 1.75914 -0.677231 0
M  V30 5289 C 510.166 3.00035 -1.57152 0
M  V30 5290 C 509.212 3.23861 -2.77518 0
M  V30 5291 S 510.045 3.06466 -4.39134 0
M  V30 5292 C 511.201 4.4738 -4.37724 0
M  V30 5293 H 511.434 1.51398 -2.55863 0
M  V30 5294 H 508.967 0.681727 -1.38535 0
M  V30 5295 H 510.925 3.7991 -1.55494 0
M  V30 5296 H 509.586 3.07556 -0.637834 0
M  V30 5297 H 508.779 4.25 -2.70908 0
M  V30 5298 H 508.381 2.51716 -2.76614 0
M  V30 5299 H 510.673 5.39556 -4.09738 0
M  V30 5300 H 511.616 4.59038 -5.39156 0
M  V30 5301 H 512.024 4.28283 -3.67742 0
M  V30 5302 N 511.423 1.38739 0.74761 0
M  V30 5303 C 512.648 1.38702 1.54197 0
M  V30 5304 C 513.073 -0.019664 1.8809 0
M  V30 5305 O 512.431 -1.00333 1.51006 0
M  V30 5306 C 512.479 2.25492 2.814 0
M  V30 5307 O 511.583 1.67613 3.76802 0
M  V30 5308 H 510.924 0.472863 0.466151 0
M  V30 5309 H 513.454 1.82577 0.923413 0
M  V30 5310 H 513.464 2.39561 3.30264 0
M  V30 5311 H 512.139 3.27727 2.56062 0
M  V30 5312 H 510.716 1.62718 3.35526 0
M  V30 5313 N 512.901 -0.976442 1.23707 0
M  V30 5314 C 513.831 -2.08749 1.04624 0
M  V30 5315 C 514.812 -1.70057 -0.0380956 0
M  V30 5316 O 515.997 -1.93782 0.127308 0
M  V30 5317 C 513.127 -3.41335 0.640902 0
M  V30 5318 C 512.081 -3.93947 1.67302 0
M  V30 5319 C 511.407 -5.22774 1.12301 0
M  V30 5320 C 512.707 -4.22769 3.06697 0
M  V30 5321 H 514.401 -2.24972 1.97555 0
M  V30 5322 H 511.947 -1.08108 0.951247 0
M  V30 5323 H 513.9 -4.18489 0.494434 0
M  V30 5324 H 512.624 -3.24988 -0.324099 0
M  V30 5325 H 511.283 -3.18941 1.80755 0
M  V30 5326 H 510.931 -5.0278 0.148877 0
M  V30 5327 H 510.631 -5.58942 1.81267 0
M  V30 5328 H 512.155 -6.02546 0.988479 0
M  V30 5329 H 513.569 -4.90659 2.96524 0
M  V30 5330 H 511.966 -4.70147 3.72937 0
M  V30 5331 H 513.036 -3.29885 3.55392 0
M  V30 5332 N 514.379 -1.04941 -1.1758 0
M  V30 5333 C 515.342 -0.652456 -2.19717 0
M  V30 5334 C 516.342 0.294745 -1.58076 0
M  V30 5335 O 517.532 0.0789579 -1.74021 0
M  V30 5336 C 514.664 0.0420712 -3.40874 0
M  V30 5337 H 515.857 -1.55642 -2.5635 0
M  V30 5338 H 513.41 -0.842995 -1.31618 0
M  V30 5339 H 514.145 0.95943 -3.09783 0
M  V30 5340 H 513.93 -0.638844 -3.86861 0
M  V30 5341 H 515.42 0.306 -4.16477 0
M  V30 5342 N 515.857 1.33968 -0.830081 0
M  V30 5343 C 517.082 2.02813 -0.433796 0
M  V30 5344 C 517.507 1.62076 0.954614 0
M  V30 5345 O 516.865 0.808955 1.62252 0
M  V30 5346 C 516.913 3.56348 -0.552115 0
M  V30 5347 O 516.017 4.10202 0.425191 0
M  V30 5348 H 515.358 0.639817 -0.177567 0
M  V30 5349 H 517.888 1.7106 -1.12248 0
M  V30 5350 H 517.898 4.05722 -0.430513 0
M  V30 5351 H 516.573 3.85344 -1.56471 0
M  V30 5352 H 515.15 3.71979 0.261878 0
M  V30 5353 N 517.335 0.585699 1.46312 0
M  V30 5354 C 518.581 0.0725284 2.0267 0
M  V30 5355 C 518.914 -1.28523 1.45586 0
M  V30 5356 O 518.189 -1.84283 0.622101 0
M  V30 5357 C 518.472 0.0099788 3.60099 0
M  V30 5358 C 518.325 1.39685 4.27561 0
M  V30 5359 C 519.644 -0.689117 4.34671 0
M  V30 5360 H 516.763 0.0278307 0.736474 0
M  V30 5361 H 519.405 0.753472 1.74421 0
M  V30 5362 H 517.555 -0.56992 3.84297 0
M  V30 5363 H 519.227 2.02215 4.14617 0
M  V30 5364 H 517.47 1.96374 3.86807 0
M  V30 5365 H 518.141 1.30553 5.36339 0
M  V30 5366 H 520.617 -0.196446 4.15636 0
M  V30 5367 H 519.493 -0.701921 5.44393 0
M  V30 5368 H 519.754 -1.75101 4.05946 0
M  V30 5369 N 518.813 -1.54241 0.323641 0
M  V30 5370 C 520.229 -1.59574 -0.0290018 0
M  V30 5371 C 520.429 -1.34017 -1.50472 0
M  V30 5372 O 519.485 -1.12464 -2.26071 0
M  V30 5373 C 520.798 -2.98169 0.389295 0
M  V30 5374 C 522.346 -3.11148 0.339958 0
M  V30 5375 C 522.821 -4.5209 0.733418 0
M  V30 5376 N 524.312 -4.5808 0.686827 0
M  V30 5377 C 525.047 -5.65248 0.963464 0
M  V30 5378 N 524.543 -6.80355 1.30724 0
M  V30 5379 N 526.336 -5.55025 0.88902 0
M  V30 5380 H 518.487 -1.6911 1.28512 0
M  V30 5381 H 520.75 -0.790972 0.522558 0
M  V30 5382 H 520.456 -3.21871 1.41746 0
M  V30 5383 H 520.33 -3.76399 -0.245657 0
M  V30 5384 H 522.717 -2.87182 -0.679002 0
M  V30 5385 H 522.798 -2.35023 1.00985 0
M  V30 5386 H 522.442 -4.76788 1.75029 0
M  V30 5387 H 522.372 -5.26584 0.0412189 0
M  V30 5388 H 524.863 -3.75411 0.43298 0
M  V30 5389 H 525.176 -7.58029 1.5037 0
M  V30 5390 H 523.521 -6.81851 1.3455 0
M  V30 5391 H 526.712 -4.63977 0.619939 0
M  V30 5392 H 526.885 -6.38458 1.10797 0
M  V30 5393 N 520.291 -0.0518155 -1.57515 0
M  V30 5394 C 521.221 0.920283 -2.146 0
M  V30 5395 C 522.202 1.32406 -1.06783 0
M  V30 5396 O 523.387 1.39866 -1.34726 0
M  V30 5397 C 520.517 2.1949 -2.6915 0
M  V30 5398 C 519.471 1.93116 -3.81956 0
M  V30 5399 C 518.797 3.27037 -4.23026 0
M  V30 5400 C 520.097 1.25225 -5.07066 0
M  V30 5401 H 521.791 0.444801 -2.96077 0
M  V30 5402 H 519.337 0.212508 -1.42423 0
M  V30 5403 H 521.29 2.87894 -3.07725 0
M  V30 5404 H 520.014 2.69244 -1.84865 0
M  V30 5405 H 518.673 1.27123 -3.43854 0
M  V30 5406 H 518.321 3.74595 -3.3569 0
M  V30 5407 H 518.021 3.10189 -4.99056 0
M  V30 5408 H 519.545 3.96673 -4.64202 0
M  V30 5409 H 520.959 1.83666 -5.43083 0
M  V30 5410 H 519.356 1.18702 -5.88243 0
M  V30 5411 H 520.426 0.228382 -4.84362 0
M  V30 5412 N 521.769 1.56035 0.221574 0
M  V30 5413 C 523.016 1.79047 0.94597 0
M  V30 5414 C 523.344 0.62057 1.84334 0
M  V30 5415 O 522.599 -0.395053 1.91671 0
M  V30 5416 C 522.898 3.07813 1.8162 0
M  V30 5417 C 522.564 4.3797 1.07206 0
M  V30 5418 C 521.226 4.73334 0.866508 0
M  V30 5419 C 523.578 5.18326 0.546565 0
M  V30 5420 C 520.906 5.8657 0.123549 0
M  V30 5421 C 523.258 6.32335 -0.18305 0
M  V30 5422 C 521.922 6.66301 -0.399861 0
M  V30 5423 H 521.192 0.655178 0.346155 0
M  V30 5424 H 523.839 1.90299 0.214146 0
M  V30 5425 H 522.144 2.91682 2.61589 0
M  V30 5426 H 523.841 3.2282 2.37884 0
M  V30 5427 H 520.431 4.10202 1.24226 0
M  V30 5428 H 524.615 4.9144 0.692847 0
M  V30 5429 H 519.871 6.11376 -0.0546591 0
M  V30 5430 H 524.045 6.9383 -0.59775 0
M  V30 5431 H 521.672 7.53889 -0.977489 0
M  V30 5432 N 523.247 -0.488276 1.49845 0
M  V30 5433 C 524.475 -1.26527 1.63702 0
M  V30 5434 C 524.89 -1.8618 0.313447 0
M  V30 5435 O 524.247 -1.68432 -0.702624 0
M  V30 5436 C 524.298 -2.3864 2.71538 0
M  V30 5437 O 524.019 -1.81437 3.98763 0
M  V30 5438 C 525.52 -3.29805 2.96215 0
M  V30 5439 H 522.74 -0.383295 0.55075 0
M  V30 5440 H 525.284 -0.584779 1.95961 0
M  V30 5441 H 523.439 -3.02496 2.42023 0
M  V30 5442 H 523.853 -2.55135 4.58265 0
M  V30 5443 H 525.327 -4.04722 3.75372 0
M  V30 5444 H 525.804 -3.87563 2.06619 0
M  V30 5445 H 526.41 -2.71703 3.27196 0
M  V30 5446 N 524.725 -1.39134 -0.740242 0
M  V30 5447 C 526.141 -1.20623 -1.0451 0
M  V30 5448 C 526.341 -0.0641651 -2.01398 0
M  V30 5449 O 525.397 0.585843 -2.4561 0
M  V30 5450 C 526.71 -2.53815 -1.6124 0
M  V30 5451 C 528.258 -2.60615 -1.73346 0
M  V30 5452 C 528.733 -3.94015 -2.33486 0
M  V30 5453 N 530.224 -3.95627 -2.40902 0
M  V30 5454 C 530.959 -4.95616 -2.88361 0
M  V30 5455 N 530.455 -6.06003 -3.35756 0
M  V30 5456 N 532.248 -4.82998 -2.87523 0
M  V30 5457 H 524.399 -2.12176 -0.0975576 0
M  V30 5458 H 526.662 -0.942066 -0.105904 0
M  V30 5459 H 526.368 -3.37911 -0.975144 0
M  V30 5460 H 526.242 -2.73162 -2.6012 0
M  V30 5461 H 528.629 -1.76906 -2.36195 0
M  V30 5462 H 528.71 -2.45123 -0.731336 0
M  V30 5463 H 528.354 -4.78153 -1.71267 0
M  V30 5464 H 528.284 -4.06825 -3.34366 0
M  V30 5465 H 530.775 -3.15903 -2.07398 0
M  V30 5466 H 531.088 -6.78215 -3.70464 0
M  V30 5467 H 529.433 -6.09604 -3.33778 0
M  V30 5468 H 532.624 -3.95866 -2.49816 0
M  V30 5469 H 532.797 -5.61072 -3.24196 0
M  V30 5470 N 526.204 0.969867 -1.24223 0
M  V30 5471 C 527.481 1.68774 -0.988664 0
M  V30 5472 C 527.861 2.05342 0.489673 0
M  V30 5473 O 527.209 1.75486 1.46345 0
M  V30 5474 C 527.419 2.92135 -1.90941 0
M  V30 5475 C 528.767 3.64422 -2.17903 0
M  V30 5476 O 529.791 3.02188 -1.88576 0
M  V30 5477 O 528.65 4.76446 -2.67697 0
M  V30 5478 H 525.744 0.737736 -0.37373 0
M  V30 5479 H 528.29 1.02415 -1.35312 0
M  V30 5480 H 527.062 2.61788 -2.90831 0
M  V30 5481 H 526.685 3.66228 -1.54798 0
M  V30 5482 N 527.682 1.05563 1.17022 0
M  V30 5483 C 528.592 0.670758 2.24807 0
M  V30 5484 C 529.608 -0.309865 1.71219 0
M  V30 5485 O 530.784 -0.161025 2.00755 0
M  V30 5486 C 527.849 0.055337 3.46656 0
M  V30 5487 C 526.91 1.08688 4.15314 0
M  V30 5488 C 526.143 0.500736 5.31346 0
M  V30 5489 O 526.366 -0.688718 5.66227 0
M  V30 5490 O 525.3 1.23683 5.89055 0
M  V30 5491 H 529.126 1.56914 2.60023 0
M  V30 5492 H 526.711 0.827428 1.24395 0
M  V30 5493 H 528.593 -0.286492 4.20425 0
M  V30 5494 H 527.268 -0.816638 3.13229 0
M  V30 5495 H 526.175 1.48077 3.43546 0
M  V30 5496 H 527.508 1.93014 4.52777 0
M  V30 5497 O 529.199 -1.28981 0.971914 0
M  V30 5498 H 529.89 -1.83759 0.612547 0
M  V30 END ATOM
M  V30 BEGIN BOND
M  V30 END BOND
M  V30 END CTAB
M  END
$$$$
