drugbank_target|Q8VVD2 Xylan alpha-1,2-glucuronidase (DB02722; DB03156; DB04303)
 OpenBabel12092120253D

  0  0  0     0  0            999 V3000
M  V30 BEGIN CTAB
M  V30 COUNTS 10881 11036 0 0 0
M  V30 BEGIN ATOM
M  V30 1 H -0.908 1.98254 -0.117106 0
M  V30 2 N 0 1.576 0 0
M  V30 3 C 0.933 2.03868 1.02534 0
M  V30 4 C 1.911 0.928543 1.3348 0
M  V30 5 O 3.095 1.19667 1.45644 0
M  V30 6 C 0.222 2.43627 2.35294 0
M  V30 7 C -0.732 3.65373 2.2001 0
M  V30 8 S 0.101 5.13292 1.52614 0
M  V30 9 C 1.257 5.56322 2.86805 0
M  V30 10 H 1.49 2.90518 0.631377 0
M  V30 11 H -0.977 1.52953 0.210867 0
M  V30 12 H 0.981 2.67203 3.11629 0
M  V30 13 H -0.358 1.57376 2.7183 0
M  V30 14 H -1.165 3.90944 3.18086 0
M  V30 15 H -1.563 3.418 1.51819 0
M  V30 16 H 0.729 5.58782 3.83104 0
M  V30 17 H 1.672 6.56266 2.65933 0
M  V30 18 H 2.08 4.83886 2.90714 0
M  V30 19 N 1.4781 -0.272755 1.55222 0
M  V30 20 C 2.7061 -1.02255 1.79865 0
M  V30 21 C 3.1211 -1.79924 0.572088 0
M  V30 22 O 2.4781 -1.76638 -0.458842 0
M  V30 23 C 2.5291 -1.98094 3.02392 0
M  V30 24 O 2.2501 -1.23572 4.20311 0
M  V30 25 C 3.7511 -2.84884 3.39641 0
M  V30 26 H 0.9711 -0.302057 0.599168 0
M  V30 27 H 3.5151 -0.303465 2.02236 0
M  V30 28 H 1.6701 -2.65465 2.82147 0
M  V30 29 H 2.0841 -1.88172 4.89583 0
M  V30 30 H 3.5581 -3.47927 4.28545 0
M  V30 31 H 4.0351 -3.54665 2.59055 0
M  V30 32 H 4.6411 -2.23003 3.62146 0
M  V30 33 N 2.9562 -1.48159 -0.537278 0
M  V30 34 C 3.9192 -1.61665 -1.62472 0
M  V30 35 C 4.9192 -0.490395 -1.5314 0
M  V30 36 O 6.1092 -0.755998 -1.5694 0
M  V30 37 C 3.2412 -1.57997 -3.02076 0
M  V30 38 H 4.4342 -2.58621 -1.51839 0
M  V30 39 H 1.9872 -1.36647 -0.758771 0
M  V30 40 H 2.7222 -0.624913 -3.18222 0
M  V30 41 H 2.5072 -2.39755 -3.10258 0
M  V30 42 H 3.9972 -1.70627 -3.81151 0
M  V30 43 N 4.4343 0.785586 -1.36625 0
M  V30 44 C 5.6823 1.54057 -1.30808 0
M  V30 45 C 6.0033 1.94683 0.111157 0
M  V30 46 O 5.2733 1.65241 1.05224 0
M  V30 47 H 3.8533 0.571354 -0.481211 0
M  V30 48 H 6.5153 0.935821 -1.70963 0
M  V30 49 H 5.6113 2.44637 -1.93801 0
M  V30 50 N 5.9124 1.20967 1.01018 0
M  V30 51 C 7.1424 1.04803 1.78044 0
M  V30 52 C 7.5504 -0.405462 1.84804 0
M  V30 53 O 6.8934 -1.2932 1.30468 0
M  V30 54 C 6.9554 1.56377 3.23707 0
M  V30 55 C 6.6194 3.04767 3.40538 0
M  V30 56 C 7.6164 4.02366 3.29239 0
M  V30 57 C 5.3014 3.43862 3.66147 0
M  V30 58 C 7.2954 5.37049 3.43304 0
M  V30 59 C 4.9824 4.78699 3.79855 0
M  V30 60 C 5.9804 5.75101 3.68439 0
M  V30 61 O 5.6684 7.07493 3.81719 0
M  V30 62 H 5.4004 0.368778 0.56655 0
M  V30 63 H 7.9544 1.60642 1.27997 0
M  V30 64 H 6.1844 0.949297 3.74867 0
M  V30 65 H 7.8734 1.36136 3.8239 0
M  V30 66 H 8.6394 3.73506 3.09384 0
M  V30 67 H 4.5184 2.69364 3.74118 0
M  V30 68 H 8.0624 6.12277 3.34309 0
M  V30 69 H 3.9594 5.07247 3.99213 0
M  V30 70 H 4.7274 7.1483 3.98697 0
M  V30 71 N 7.3905 -1.2043 1.01659 0
M  V30 72 C 8.3005 -2.2689 0.596484 0
M  V30 73 C 9.3165 -1.70107 -0.36599 0
M  V30 74 O 10.4925 -2.00117 -0.226942 0
M  V30 75 C 7.5575 -3.4665 -0.0586659 0
M  V30 76 C 6.6185 -4.18662 0.949751 0
M  V30 77 C 5.8515 -5.32705 0.32577 0
M  V30 78 O 6.0745 -5.63656 -0.874509 0
M  V30 79 O 5.0085 -5.92803 1.04249 0
M  V30 80 H 8.8345 -2.65041 1.4828 0
M  V30 81 H 6.4195 -1.27048 0.786082 0
M  V30 82 H 8.3015 -4.19256 -0.424564 0
M  V30 83 H 6.9765 -3.10375 -0.91918 0
M  V30 84 H 5.8835 -3.48229 1.36702 0
M  V30 85 H 7.2165 -4.58878 1.78023 0
M  V30 86 N 8.8686 -0.792821 -1.36206 0
M  V30 87 C 10.2796 -0.429513 -1.81692 0
M  V30 88 C 10.6306 1.04695 -1.65932 0
M  V30 89 O 9.7556 1.81256 -1.18218 0
M  V30 90 C 10.3506 -0.772831 -3.29868 0
M  V30 91 C 8.9096 -0.462307 -3.7355 0
M  V30 92 C 8.0566 -1.00569 -2.5842 0
M  V30 93 H 11.0076 -0.985672 -1.24379 0
M  V30 94 H 11.0286 -0.0651928 -3.80444 0
M  V30 95 H 10.5406 -1.84747 -3.41307 0
M  V30 96 H 8.6416 0.604158 -3.67669 0
M  V30 97 H 8.7546 -0.985299 -4.68859 0
M  V30 98 H 7.1186 -0.428734 -2.51066 0
M  V30 99 H 7.9016 -2.08616 -2.72643 0
M  V30 100 N 10.3467 1.47872 -0.545128 0
M  V30 101 C 11.5867 2.04391 -0.0187854 0
M  V30 102 C 11.9507 1.41162 1.30144 0
M  V30 103 O 13.1517 1.88656 1.91474 0
M  V30 104 C 11.4227 3.57299 0.0850867 0
M  V30 105 S 12.9817 4.35221 0.559302 0
M  V30 106 H 9.7997 0.710737 -0.0193301 0
M  V30 107 H 12.4017 1.81395 -0.729125 0
M  V30 108 H 11.1057 4.00847 -0.880351 0
M  V30 109 H 10.6367 3.84773 0.819348 0
M  V30 110 H 12.6517 4.61571 1.82118 0
M  V30 111 N 11.8248 0.280983 1.55075 0
M  V30 112 C 13.0708 -0.327573 2.00745 0
M  V30 113 C 13.4258 -1.53045 1.16598 0
M  V30 114 O 12.7188 -1.90221 0.229451 0
M  V30 115 C 12.9128 -0.754656 3.49342 0
M  V30 116 C 12.7418 0.40529 4.4787 0
M  V30 117 C 11.5118 0.890947 4.97383 0
M  V30 118 C 13.7098 1.24371 4.99035 0
M  V30 119 N 11.6918 2.01975 5.79724 0
M  V30 120 C 13.0628 2.22031 5.7888 0
M  V30 121 C 15.1178 1.27638 4.81262 0
M  V30 122 C 13.8208 3.22709 6.42846 0
M  V30 123 C 15.8468 2.27164 5.46031 0
M  V30 124 C 15.2088 3.23556 6.25692 0
M  V30 125 H 11.3078 -0.0848774 0.77738 0
M  V30 126 H 13.8918 0.406342 1.90413 0
M  V30 127 H 12.0628 -1.45778 3.60005 0
M  V30 128 H 13.7948 -1.34105 3.81835 0
M  V30 129 H 10.5498 0.469262 4.71269 0
M  V30 130 H 10.9738 2.58794 6.25584 0
M  V30 131 H 15.6158 0.544936 4.19274 0
M  V30 132 H 13.3338 3.96784 7.0398 0
M  V30 133 H 16.9198 2.30441 5.34217 0
M  V30 134 H 15.7998 3.99309 6.74924 0
M  V30 135 N 13.3029 -1.57598 0.00835791 0
M  V30 136 C 14.2329 -2.1198 -0.979113 0
M  V30 137 C 15.2139 -1.03091 -1.35301 0
M  V30 138 O 16.3989 -1.30818 -1.43528 0
M  V30 139 C 13.5289 -2.62995 -2.26828 0
M  V30 140 C 12.4829 -3.76485 -2.03576 0
M  V30 141 C 11.8089 -4.13846 -3.38579 0
M  V30 142 C 13.1089 -5.0342 -1.39161 0
M  V30 143 H 14.8029 -2.94738 -0.526281 0
M  V30 144 H 12.3489 -1.41783 -0.251704 0
M  V30 145 H 14.3019 -2.99669 -2.96271 0
M  V30 146 H 13.0259 -1.7737 -2.7424 0
M  V30 147 H 11.6849 -3.40217 -1.36557 0
M  V30 148 H 11.3329 -3.25232 -3.83709 0
M  V30 149 H 11.0329 -4.90312 -3.23834 0
M  V30 150 H 12.5569 -4.53086 -4.09323 0
M  V30 151 H 13.9709 -5.37812 -1.98573 0
M  V30 152 H 12.3679 -5.84746 -1.34878 0
M  V30 153 H 13.4379 -4.83548 -0.361868 0
M  V30 154 N 14.781 0.264519 -1.55364 0
M  V30 155 C 16.197 0.61215 -1.47394 0
M  V30 156 C 16.397 1.89134 -0.695018 0
M  V30 157 O 15.453 2.51563 -0.217275 0
M  V30 158 C 16.766 0.731235 -2.91674 0
M  V30 159 C 18.314 0.82473 -3.01939 0
M  V30 160 C 18.789 0.975522 -4.4749 0
M  V30 161 N 20.28 1.04083 -4.51354 0
M  V30 162 C 21.015 1.17646 -5.61201 0
M  V30 163 N 20.511 1.27874 -6.80896 0
M  V30 164 N 22.304 1.20823 -5.48961 0
M  V30 165 H 14.455 -0.575456 -2.04456 0
M  V30 166 H 16.718 -0.196099 -0.927496 0
M  V30 167 H 16.424 -0.138392 -3.51428 0
M  V30 168 H 16.298 1.60883 -3.41169 0
M  V30 169 H 18.685 1.68482 -2.42276 0
M  V30 170 H 18.766 -0.0776479 -2.55682 0
M  V30 171 H 18.41 0.120058 -5.07758 0
M  V30 172 H 18.34 1.89268 -4.91412 0
M  V30 173 H 20.831 0.973846 -3.65136 0
M  V30 174 H 21.144 1.38081 -7.60364 0
M  V30 175 H 19.489 1.24863 -6.83692 0
M  V30 176 H 22.68 1.12469 -4.54388 0
M  V30 177 H 22.853 1.31049 -6.3461 0
M  V30 178 N 16.2591 1.48442 0.529413 0
M  V30 179 C 17.4891 1.59919 1.30804 0
M  V30 180 C 17.8971 0.258792 1.87422 0
M  V30 181 O 17.2401 -0.762096 1.67146 0
M  V30 182 C 17.3021 2.58693 2.49636 0
M  V30 183 C 16.9661 4.03745 2.14101 0
M  V30 184 C 17.9631 4.9141 1.6974 0
M  V30 185 C 15.6481 4.49285 2.24607 0
M  V30 186 C 17.6421 6.22645 1.36351 0
M  V30 187 C 15.3291 5.8054 1.9083 0
M  V30 188 C 16.3271 6.67043 1.46773 0
M  V30 189 O 16.0151 7.95856 1.1344 0
M  V30 190 H 15.7471 0.541981 0.404021 0
M  V30 191 H 18.3011 1.95 0.645309 0
M  V30 192 H 16.5311 2.18734 3.18892 0
M  V30 193 H 18.2201 2.59999 3.11698 0
M  V30 194 H 18.9861 4.57465 1.61094 0
M  V30 195 H 14.8651 3.82142 2.57854 0
M  V30 196 H 18.4091 6.90119 1.01891 0
M  V30 197 H 14.3061 6.14022 1.99117 0
M  V30 198 H 15.0741 8.08613 1.26832 0
M  V30 199 N 17.7372 -0.778329 1.37039 0
M  V30 200 C 18.6472 -1.92253 1.34446 0
M  V30 201 C 19.6632 -1.72267 0.244991 0
M  V30 202 O 20.8392 -1.95615 0.479258 0
M  V30 203 C 17.9042 -3.27282 1.144 0
M  V30 204 C 16.9652 -3.59969 2.33925 0
M  V30 205 C 16.1982 -4.88555 2.14825 0
M  V30 206 O 16.4212 -5.59113 1.12912 0
M  V30 207 O 15.3552 -5.20153 3.02861 0
M  V30 208 H 19.1812 -1.97392 2.30803 0
M  V30 209 H 16.7662 -0.920154 1.17701 0
M  V30 210 H 18.6482 -4.08062 1.05182 0
M  V30 211 H 17.3232 -3.23011 0.211124 0
M  V30 212 H 16.2302 -2.7945 2.48714 0
M  V30 213 H 17.5632 -3.68976 3.25757 0
M  V30 214 N 19.2153 -1.21501 -1.00376 0
M  V30 215 C 20.6313 -0.972629 -1.26539 0
M  V30 216 C 20.8313 0.340257 -1.98606 0
M  V30 217 O 19.8873 1.06561 -2.28913 0
M  V30 218 C 21.2003 -2.16404 -2.08781 0
M  V30 219 C 22.7483 -2.20643 -2.22004 0
M  V30 220 C 23.2233 -3.39306 -3.07629 0
M  V30 221 N 24.7143 -3.39401 -3.15217 0
M  V30 222 C 25.4493 -4.27867 -3.81729 0
M  V30 223 N 24.9453 -5.26533 -4.5026 0
M  V30 224 N 26.7383 -4.15672 -3.78382 0
M  V30 225 H 18.8893 -2.05929 -0.520281 0
M  V30 226 H 21.1523 -0.901803 -0.292328 0
M  V30 227 H 20.8583 -3.11554 -1.63178 0
M  V30 228 H 20.7323 -2.15567 -3.09533 0
M  V30 229 H 23.1193 -1.26048 -2.66825 0
M  V30 230 H 23.2003 -2.25523 -1.20718 0
M  V30 231 H 22.8443 -4.34195 -2.63509 0
M  V30 232 H 22.7743 -3.31665 -4.09031 0
M  V30 233 H 25.2653 -2.67997 -2.66432 0
M  V30 234 H 25.5783 -5.90337 -4.98721 0
M  V30 235 H 23.9233 -5.30457 -4.49044 0
M  V30 236 H 27.1143 -3.3785 -3.23998 0
M  V30 237 H 27.2873 -4.84825 -4.2994 0
M  V30 238 N 20.6934 1.19889 -1.02296 0
M  V30 239 C 21.6404 2.22901 -0.598651 0
M  V30 240 C 22.6104 1.61588 0.384521 0
M  V30 241 O 23.7954 1.88697 0.282522 0
M  V30 242 C 20.9354 3.45063 0.0504476 0
M  V30 243 C 20.0484 4.20783 -0.978053 0
M  V30 244 C 19.1834 5.30356 -0.299338 0
M  V30 245 C 18.2224 5.97826 -1.31416 0
M  V30 246 N 17.3594 6.98975 -0.661667 0
M  V30 247 H 22.1994 2.58554 -1.48169 0
M  V30 248 H 19.7364 1.27039 -0.741584 0
M  V30 249 H 21.6944 4.14831 0.443971 0
M  V30 250 H 20.3244 3.10084 0.897097 0
M  V30 251 H 19.3764 3.50018 -1.48969 0
M  V30 252 H 20.6884 4.67109 -1.74958 0
M  V30 253 H 19.8424 6.06516 0.149347 0
M  V30 254 H 18.5814 4.85084 0.504445 0
M  V30 255 H 17.5864 5.20422 -1.77317 0
M  V30 256 H 18.8114 6.45183 -2.11933 0
M  V30 257 H 16.7574 6.55886 0.122132 0
M  V30 258 H 16.6744 7.43461 -1.37117 0
M  V30 259 H 17.9424 7.7914 -0.236785 0
M  V30 260 N 22.1715 0.800033 1.35784 0
M  V30 261 C 23.4485 0.30088 1.93272 0
M  V30 262 C 23.8285 -1.20857 1.73081 0
M  V30 263 O 23.1765 -2.00502 1.09596 0
M  V30 264 C 23.3865 0.70511 3.41803 0
M  V30 265 C 24.7345 0.690871 4.18942 0
M  V30 266 O 25.7585 0.646244 3.50289 0
M  V30 267 O 24.6175 0.74332 5.41421 0
M  V30 268 H 21.7115 0.0771605 0.823393 0
M  V30 269 H 24.2575 0.88329 1.449 0
M  V30 270 H 23.0295 1.74571 3.50201 0
M  V30 271 H 22.6525 0.0971541 3.97481 0
M  V30 272 N 23.6496 -1.47581 0.552962 0
M  V30 273 C 24.5816 -2.27997 -0.234533 0
M  V30 274 C 25.5946 -1.36753 -0.883321 0
M  V30 275 O 26.7836 -1.61612 -0.757889 0
M  V30 276 C 23.8836 -3.10879 -1.34935 0
M  V30 277 C 23.0566 -4.30056 -0.798158 0
M  V30 278 C 22.1156 -4.94567 -1.79694 0
M  V30 279 O 21.1416 -5.53087 -1.34474 0
M  V30 280 N 22.3436 -4.88878 -3.13015 0
M  V30 281 H 25.1086 -2.96222 0.455255 0
M  V30 282 H 22.6696 -1.57163 0.388761 0
M  V30 283 H 24.6616 -3.50903 -2.01616 0
M  V30 284 H 23.2316 -2.44924 -1.94244 0
M  V30 285 H 22.4516 -3.94174 0.0453079 0
M  V30 286 H 23.7396 -5.07152 -0.409173 0
M  V30 287 H 23.1376 -4.42526 -3.52402 0
M  V30 288 H 21.6946 -5.32934 -3.75266 0
M  V30 289 N 25.1277 -0.289203 -1.54924 0
M  V30 290 C 26.3577 0.325989 -2.04012 0
M  V30 291 C 26.7657 1.48961 -1.1665 0
M  V30 292 O 26.1087 1.82794 -0.1822 0
M  V30 293 C 26.1707 0.856112 -3.49158 0
M  V30 294 C 25.8347 -0.180697 -4.56643 0
M  V30 295 C 26.8317 -1.0051 -5.10092 0
M  V30 296 C 24.5167 -0.318998 -5.01286 0
M  V30 297 C 26.5107 -1.95385 -6.06715 0
M  V30 298 C 24.1977 -1.27121 -5.97732 0
M  V30 299 C 25.1957 -2.08713 -6.50329 0
M  V30 300 O 24.8837 -3.02322 -7.44887 0
M  V30 301 H 24.6157 0.0765276 -0.671654 0
M  V30 302 H 27.1697 -0.423254 -2.00992 0
M  V30 303 H 25.3997 1.65567 -3.49463 0
M  V30 304 H 27.0887 1.38591 -3.81507 0
M  V30 305 H 27.8547 -0.90906 -4.76404 0
M  V30 306 H 23.7337 0.306108 -4.59983 0
M  V30 307 H 27.2777 -2.59111 -6.47694 0
M  V30 308 H 23.1747 -1.36801 -6.30837 0
M  V30 309 H 23.9427 -2.97165 -7.6265 0
M  V30 310 N 26.6058 1.57591 -0.0167156 0
M  V30 311 C 27.8308 1.9598 0.67872 0
M  V30 312 C 28.2558 0.892546 1.65575 0
M  V30 313 O 27.6138 -0.147772 1.80697 0
M  V30 314 C 27.6618 3.33468 1.37227 0
M  V30 315 O 26.7658 3.28954 2.48722 0
M  V30 316 H 26.1068 0.639339 0.17928 0
M  V30 317 H 28.6368 2.04463 -0.0748802 0
M  V30 318 H 28.6468 3.69417 1.7319 0
M  V30 319 H 27.3218 4.10694 0.656007 0
M  V30 320 H 25.8988 3.04705 2.14963 0
M  V30 321 N 28.0839 -0.256276 1.55502 0
M  V30 322 C 29.4999 -0.604325 1.47716 0
M  V30 323 C 29.6999 -1.88763 0.705039 0
M  V30 324 O 28.7559 -2.51445 0.230613 0
M  V30 325 C 30.0689 -0.715756 2.92057 0
M  V30 326 C 31.6169 -0.808706 3.02372 0
M  V30 327 C 32.0919 -0.951777 4.48001 0
M  V30 328 N 33.5829 -1.01688 4.519 0
M  V30 329 C 34.3179 -1.14668 5.61817 0
M  V30 330 N 33.8139 -1.24261 6.81565 0
M  V30 331 N 35.6069 -1.1791 5.49594 0
M  V30 332 H 27.7579 0.586291 2.04148 0
M  V30 333 H 30.0209 0.201015 0.926443 0
M  V30 334 H 29.7269 0.157027 3.51349 0
M  V30 335 H 29.6009 -1.59071 3.42018 0
M  V30 336 H 31.9879 -1.67195 2.43166 0
M  V30 337 H 32.0689 0.0912063 2.55637 0
M  V30 338 H 31.7129 -0.0931291 5.07815 0
M  V30 339 H 31.6429 -1.86659 4.92408 0
M  V30 340 H 34.1339 -0.954468 3.65648 0
M  V30 341 H 34.4469 -1.34046 7.61086 0
M  V30 342 H 32.7919 -1.21236 6.84344 0
M  V30 343 H 35.9829 -1.10057 4.54978 0
M  V30 344 H 36.1559 -1.27681 6.35296 0
M  V30 345 N 29.562 -1.4872 -0.521534 0
M  V30 346 C 30.492 -1.66771 -1.63431 0
M  V30 347 C 31.473 -0.516499 -1.62069 0
M  V30 348 O 32.658 -0.750013 -1.79132 0
M  V30 349 C 29.788 -1.71515 -3.01993 0
M  V30 350 C 28.742 -2.86222 -3.18216 0
M  V30 351 C 28.068 -2.76061 -4.57924 0
M  V30 352 C 29.368 -4.27419 -3.00184 0
M  V30 353 H 31.062 -2.59932 -1.48579 0
M  V30 354 H 28.608 -1.25089 -0.713358 0
M  V30 355 H 30.561 -1.82731 -3.7972 0
M  V30 356 H 29.285 -0.749393 -3.17886 0
M  V30 357 H 27.944 -2.74575 -2.42908 0
M  V30 358 H 27.592 -1.77437 -4.70665 0
M  V30 359 H 27.292 -3.53037 -4.69722 0
M  V30 360 H 28.816 -2.89256 -5.37739 0
M  V30 361 H 30.23 -4.39855 -3.67697 0
M  V30 362 H 28.627 -5.05458 -3.2347 0
M  V30 363 H 29.697 -4.43293 -1.96518 0
M  V30 364 N 31.0401 0.771051 -1.3745 0
M  V30 365 C 32.4561 1.07171 -1.18265 0
M  V30 366 C 32.6561 2.01491 -0.019287 0
M  V30 367 O 31.7121 2.44244 0.640408 0
M  V30 368 C 33.0251 1.66854 -2.50161 0
M  V30 369 C 34.5731 1.79109 -2.56689 0
M  V30 370 C 35.0481 2.42205 -3.88717 0
M  V30 371 N 36.5391 2.49655 -3.90162 0
M  V30 372 C 37.2741 2.9933 -4.8907 0
M  V30 373 N 36.7701 3.49172 -5.98374 0
M  V30 374 N 38.5631 2.9821 -4.76474 0
M  V30 375 H 30.7141 0.144796 -2.11906 0
M  V30 376 H 32.9771 0.126863 -0.939473 0
M  V30 377 H 32.6831 1.05017 -3.35655 0
M  V30 378 H 32.5571 2.6614 -2.673 0
M  V30 379 H 34.9441 2.40077 -1.71601 0
M  V30 380 H 35.0251 0.785757 -2.43433 0
M  V30 381 H 34.6691 1.81875 -4.74219 0
M  V30 382 H 34.5991 3.43345 -3.99276 0
M  V30 383 H 37.0901 2.14383 -3.11205 0
M  V30 384 H 37.4031 3.8548 -6.69795 0
M  V30 385 H 35.7481 3.47275 -6.02018 0
M  V30 386 H 38.9391 2.58572 -3.90203 0
M  V30 387 H 39.1121 3.36613 -5.53711 0
M  V30 388 N 32.5182 1.22032 0.997298 0
M  V30 389 C 33.7652 1.04222 1.73621 0
M  V30 390 C 34.0932 -0.423264 1.89839 0
M  V30 391 O 33.3482 -1.3302 1.43542 0
M  V30 392 C 33.6472 1.69345 3.14733 0
M  V30 393 C 33.3132 3.19226 3.18442 0
M  V30 394 C 31.9752 3.60124 3.19161 0
M  V30 395 C 34.3272 4.15181 3.15078 0
M  V30 396 C 31.6552 4.95467 3.14212 0
M  V30 397 C 34.0072 5.50495 3.1167 0
M  V30 398 C 32.6712 5.90779 3.10703 0
M  V30 399 H 31.9412 0.381374 0.635323 0
M  V30 400 H 34.5882 1.51732 1.16831 0
M  V30 401 H 32.8932 1.14147 3.74803 0
M  V30 402 H 34.5902 1.53059 3.7064 0
M  V30 403 H 31.1802 2.86659 3.18629 0
M  V30 404 H 35.3642 3.84605 3.13676 0
M  V30 405 H 30.6202 5.25916 3.11805 0
M  V30 406 H 34.7942 6.24576 3.08022 0
M  V30 407 H 32.4212 6.9562 3.06622 0
M  V30 408 N 33.9963 -1.19345 1.0293 0
M  V30 409 C 34.9063 -2.26245 0.620515 0
M  V30 410 C 35.9223 -1.70486 -0.347928 0
M  V30 411 O 37.0983 -2.00347 -0.205704 0
M  V30 412 C 34.1633 -3.46693 -0.0218957 0
M  V30 413 C 33.2243 -4.17632 0.994102 0
M  V30 414 C 32.4573 -5.32329 0.382253 0
M  V30 415 O 32.6803 -5.64552 -0.814676 0
M  V30 416 O 31.6143 -5.91664 1.10531 0
M  V30 417 H 35.4403 -2.63453 1.51083 0
M  V30 418 H 33.0253 -1.26207 0.799513 0
M  V30 419 H 34.9073 -4.19683 -0.380072 0
M  V30 420 H 33.5823 -3.11333 -0.886209 0
M  V30 421 H 32.4893 -3.4676 1.40387 0
M  V30 422 H 33.8223 -4.56964 1.8288 0
M  V30 423 N 35.4744 -0.807222 -1.35358 0
M  V30 424 C 36.3844 -0.219594 -2.3357 0
M  V30 425 C 37.4004 0.637734 -1.61892 0
M  V30 426 O 38.5764 0.549336 -1.93763 0
M  V30 427 C 35.6414 0.62158 -3.41083 0
M  V30 428 C 34.7024 -0.256315 -4.28534 0
M  V30 429 C 33.9354 0.544807 -5.30912 0
M  V30 430 O 34.1584 1.77944 -5.41934 0
M  V30 431 O 33.0924 -0.0646478 -6.01865 0
M  V30 432 H 36.9184 -1.03208 -2.85625 0
M  V30 433 H 34.5034 -0.569025 -1.38139 0
M  V30 434 H 36.3854 1.10067 -4.06772 0
M  V30 435 H 35.0604 1.41165 -2.91297 0
M  V30 436 H 33.9674 -0.782559 -3.65823 0
M  V30 437 H 35.3004 -1.01034 -4.81719 0
M  V30 438 N 36.9525 1.47285 -0.560781 0
M  V30 439 C 38.2015 2.01668 -0.035895 0
M  V30 440 C 38.5145 1.44021 1.32353 0
M  V30 441 O 39.7205 1.90088 1.93853 0
M  V30 442 C 38.1765 3.59897 -0.0136659 0
M  V30 443 C 37.7845 4.26536 -1.37006 0
M  V30 444 C 39.5285 4.22017 0.458425 0
M  V30 445 C 37.4355 5.76782 -1.30675 0
M  V30 446 H 36.3655 0.753938 -0.00964879 0
M  V30 447 H 39.0165 1.69243 -0.709166 0
M  V30 448 H 37.3985 3.89301 0.725325 0
M  V30 449 H 38.5725 4.0877 -2.12705 0
M  V30 450 H 36.8875 3.76419 -1.78038 0
M  V30 451 H 39.4845 5.32124 0.524247 0
M  V30 452 H 39.8275 3.89437 1.4712 0
M  V30 453 H 40.3605 3.97159 -0.225818 0
M  V30 454 H 37.0995 6.13988 -2.29564 0
M  V30 455 H 36.6195 5.96875 -0.591622 0
M  V30 456 H 38.2985 6.39063 -1.01033 0
M  V30 457 N 38.4306 0.297415 1.54768 0
M  V30 458 C 39.6766 -0.313376 2.00364 0
M  V30 459 C 40.0096 -1.53815 1.18553 0
M  V30 460 O 39.2846 -1.92739 0.261103 0
M  V30 461 C 39.5676 -0.673525 3.53745 0
M  V30 462 C 39.4206 0.560133 4.46299 0
M  V30 463 C 40.7396 -1.50143 4.13697 0
M  V30 464 H 37.8586 -0.112428 0.728374 0
M  V30 465 H 40.5006 0.4088 1.8555 0
M  V30 466 H 38.6506 -1.28881 3.665 0
M  V30 467 H 40.3226 1.19863 4.45455 0
M  V30 468 H 38.5656 1.19405 4.17043 0
M  V30 469 H 39.2366 0.26405 5.51368 0
M  V30 470 H 41.7126 -0.981588 4.04356 0
M  V30 471 H 40.5886 -1.72221 5.21182 0
M  V30 472 H 40.8496 -2.48952 3.65343 0
M  V30 473 N 39.9087 -1.5758 0.0250728 0
M  V30 474 C 40.8717 -2.08896 -0.943139 0
M  V30 475 C 41.8717 -1.00321 -1.25668 0
M  V30 476 O 43.0617 -1.26495 -1.19769 0
M  V30 477 C 40.1937 -2.55143 -2.26086 0
M  V30 478 H 41.3867 -2.95723 -0.498775 0
M  V30 479 H 38.9397 -1.54703 -0.222888 0
M  V30 480 H 39.6747 -1.71633 -2.75159 0
M  V30 481 H 39.4597 -3.34461 -2.04641 0
M  V30 482 H 40.9497 -2.95083 -2.95492 0
M  V30 483 N 41.3868 0.248026 -1.55636 0
M  V30 484 C 42.3338 1.30707 -1.90222 0
M  V30 485 C 43.3038 1.47881 -0.756332 0
M  V30 486 O 44.4888 1.61883 -1.00988 0
M  V30 487 C 41.6288 2.65769 -2.20138 0
M  V30 488 C 40.7418 2.56612 -3.47526 0
M  V30 489 C 39.8768 3.8402 -3.67017 0
M  V30 490 C 38.9158 3.69476 -4.8801 0
M  V30 491 N 38.0528 4.88774 -5.04029 0
M  V30 492 H 42.8928 1.00512 -2.80538 0
M  V30 493 H 40.4298 0.485055 -1.38873 0
M  V30 494 H 42.3878 3.44386 -2.35487 0
M  V30 495 H 41.0178 2.94115 -1.33027 0
M  V30 496 H 40.0698 1.69571 -3.40514 0
M  V30 497 H 41.3818 2.41774 -4.36287 0
M  V30 498 H 40.5358 4.7108 -3.8232 0
M  V30 499 H 39.2748 4.01754 -2.76487 0
M  V30 500 H 38.2798 2.80799 -4.72686 0
M  V30 501 H 39.5048 3.53238 -5.8 0
M  V30 502 H 37.4508 5.0687 -4.16435 0
M  V30 503 H 37.3678 4.76562 -5.86877 0
M  V30 504 H 38.6358 5.77335 -5.23741 0
M  V30 505 N 42.8649 1.48995 0.513639 0
M  V30 506 C 44.2809 1.35478 0.843682 0
M  V30 507 C 44.4809 0.378213 1.97919 0
M  V30 508 O 43.5369 -0.194689 2.51748 0
M  V30 509 C 44.8499 2.75901 1.1958 0
M  V30 510 C 46.3979 2.84509 1.30474 0
M  V30 511 C 46.8729 4.25671 1.69021 0
M  V30 512 N 48.3639 4.28422 1.76094 0
M  V30 513 C 49.0989 5.34601 2.07338 0
M  V30 514 N 48.5949 6.5104 2.36894 0
M  V30 515 N 50.3879 5.22007 2.08483 0
M  V30 516 H 42.5389 2.11092 -0.235328 0
M  V30 517 H 44.8019 0.947039 -0.0426669 0
M  V30 518 H 44.5079 3.49001 0.434913 0
M  V30 519 H 44.3819 3.10467 2.1422 0
M  V30 520 H 46.7689 2.11655 2.05637 0
M  V30 521 H 46.8499 2.53542 0.339155 0
M  V30 522 H 46.4939 4.99048 0.944135 0
M  V30 523 H 46.4239 4.54094 2.66658 0
M  V30 524 H 48.9149 3.44441 1.55464 0
M  V30 525 H 49.2279 7.2779 2.59887 0
M  V30 526 H 47.5729 6.54287 2.34378 0
M  V30 527 H 50.7639 4.30051 1.84861 0
M  V30 528 H 50.9369 6.04854 2.325 0
M  V30 529 N 44.343 -0.763751 1.37857 0
M  V30 530 C 45.571 -1.55293 1.36718 0
M  V30 531 C 45.986 -1.88745 -0.0455434 0
M  V30 532 O 45.343 -1.52039 -1.00947 0
M  V30 533 C 45.394 -2.85831 2.2132 0
M  V30 534 O 45.115 -2.5381 3.57089 0
M  V30 535 C 46.616 -3.80023 2.28249 0
M  V30 536 H 43.836 -0.480841 0.468009 0
M  V30 537 H 46.38 -0.946009 1.81303 0
M  V30 538 H 44.535 -3.42926 1.80223 0
M  V30 539 H 44.949 -3.37459 4.01524 0
M  V30 540 H 46.423 -4.68599 2.91752 0
M  V30 541 H 46.9 -4.1973 1.2932 0
M  V30 542 H 47.506 -3.28855 2.69693 0
M  V30 543 N 45.8211 -1.22559 -0.990812 0
M  V30 544 C 47.0461 -1.07862 -1.77145 0
M  V30 545 C 47.4711 0.366447 -1.84496 0
M  V30 546 O 46.8291 1.26478 -1.29896 0
M  V30 547 C 46.8771 -1.69686 -3.18181 0
M  V30 548 O 45.9811 -0.951946 -4.01263 0
M  V30 549 H 45.3221 -0.378712 -0.545411 0
M  V30 550 H 47.8521 -1.62399 -1.2445 0
M  V30 551 H 47.8621 -1.74496 -3.68802 0
M  V30 552 H 46.5371 -2.74841 -3.12146 0
M  V30 553 H 45.1141 -0.980011 -3.59792 0
M  V30 554 N 47.2992 1.18797 -1.03562 0
M  V30 555 C 48.7102 1.70322 -0.764676 0
M  V30 556 C 49.0612 1.82708 0.714996 0
M  V30 557 O 48.1862 1.50299 1.55689 0
M  V30 558 C 48.7812 3.09356 -1.38145 0
M  V30 559 C 47.3402 3.58114 -1.15895 0
M  V30 560 C 46.4872 2.34798 -1.4753 0
M  V30 561 H 49.4382 1.03543 -1.20268 0
M  V30 562 H 49.4592 3.72378 -0.781977 0
M  V30 563 H 48.9712 3.00309 -2.45837 0
M  V30 564 H 47.0722 3.72464 -0.100544 0
M  V30 565 H 47.1852 4.4184 -1.8524 0
M  V30 566 H 45.5492 2.38464 -0.894829 0
M  V30 567 H 46.3322 2.28375 -2.56319 0
M  V30 568 N 48.7773 0.814389 1.34928 0
M  V30 569 C 50.0263 0.394871 1.97797 0
M  V30 570 C 50.3393 -1.04555 1.65311 0
M  V30 571 O 51.5453 -1.56856 2.21604 0
M  V30 572 C 50.0013 0.655103 3.53888 0
M  V30 573 C 49.6093 2.10858 3.95276 0
M  V30 574 C 51.3533 0.301329 4.23429 0
M  V30 575 C 49.2603 2.31415 5.44244 0
M  V30 576 H 48.1903 0.143913 0.740139 0
M  V30 577 H 50.8413 0.999544 1.53888 0
M  V30 578 H 49.2233 -0.0196253 3.95995 0
M  V30 579 H 50.3973 2.82176 3.64298 0
M  V30 580 H 48.7123 2.42297 3.38646 0
M  V30 581 H 51.3093 0.432869 5.32945 0
M  V30 582 H 51.6523 -0.75331 4.09428 0
M  V30 583 H 52.1853 0.930288 3.86769 0
M  V30 584 H 48.9243 3.35353 5.63222 0
M  V30 585 H 48.4443 1.6463 5.76764 0
M  V30 586 H 50.1233 2.13352 6.10811 0
M  V30 587 N 50.2554 -1.46986 0.568584 0
M  V30 588 C 51.5024 -2.02441 0.0487986 0
M  V30 589 C 51.8304 -1.44169 -1.30559 0
M  V30 590 O 51.0854 -0.591213 -1.86556 0
M  V30 591 C 51.3844 -3.57306 -0.081836 0
M  V30 592 C 51.0504 -4.34552 1.20313 0
M  V30 593 C 49.7124 -4.55376 1.5552 0
M  V30 594 C 52.0644 -4.79016 2.05411 0
M  V30 595 C 49.3924 -5.17913 2.7565 0
M  V30 596 C 51.7444 -5.42879 3.24754 0
M  V30 597 C 50.4084 -5.61933 3.60261 0
M  V30 598 H 49.6784 -0.740785 0.0178567 0
M  V30 599 H 52.3254 -1.76525 0.742384 0
M  V30 600 H 50.6304 -3.8228 -0.858463 0
M  V30 601 H 52.3274 -3.97876 -0.499546 0
M  V30 602 H 48.9174 -4.18631 0.919014 0
M  V30 603 H 53.1014 -4.62696 1.79516 0
M  V30 604 H 48.3574 -5.30858 3.03315 0
M  V30 605 H 52.5314 -5.76293 3.90973 0
M  V30 606 H 50.1584 -6.10161 4.53439 0
M  V30 607 N 51.7335 -0.305618 -1.54608 0
M  V30 608 C 52.6655 0.602161 -2.21149 0
M  V30 609 C 53.6785 1.09394 -1.20569 0
M  V30 610 O 54.8675 1.0106 -1.47136 0
M  V30 611 C 51.9675 1.83692 -2.84799 0
M  V30 612 C 51.1405 1.48686 -4.11353 0
M  V30 613 C 50.1995 2.57725 -4.58764 0
M  V30 614 O 49.2255 2.22623 -5.23858 0
M  V30 615 N 50.4275 3.88346 -4.31471 0
M  V30 616 H 53.1925 0.0324966 -2.99682 0
M  V30 617 H 50.7535 -0.128021 -1.61393 0
M  V30 618 H 52.7455 2.55994 -3.13448 0
M  V30 619 H 51.3155 2.31486 -2.10078 0
M  V30 620 H 50.5355 0.596269 -3.89664 0
M  V30 621 H 51.8235 1.22842 -4.93748 0
M  V30 622 H 51.2215 4.19671 -3.79331 0
M  V30 623 H 49.7785 4.56932 -4.64818 0
M  V30 624 N 53.2116 1.57565 -0.0334293 0
M  V30 625 C 54.1746 2.09393 0.932048 0
M  V30 626 C 55.1746 1.00986 1.25134 0
M  V30 627 O 56.3646 1.27129 1.19096 0
M  V30 628 C 53.4966 2.56338 2.2473 0
M  V30 629 H 54.6896 2.95984 0.483085 0
M  V30 630 H 52.2426 1.54819 0.21468 0
M  V30 631 H 52.9776 1.7309 2.74245 0
M  V30 632 H 52.7626 3.35542 2.02865 0
M  V30 633 H 54.2526 2.96646 2.93923 0
M  V30 634 N 54.6897 -0.239769 1.55765 0
M  V30 635 C 55.6527 -1.28038 1.90103 0
M  V30 636 C 56.6527 -1.40723 0.778055 0
M  V30 637 O 57.8427 -1.39301 1.04599 0
M  V30 638 C 54.9747 -2.65702 2.13577 0
M  V30 639 H 56.1677 -0.988048 2.83157 0
M  V30 640 H 53.7207 -0.479382 1.48767 0
M  V30 641 H 54.4557 -3.00063 1.23015 0
M  V30 642 H 54.2407 -2.57875 2.95369 0
M  V30 643 H 55.7307 -3.40828 2.41301 0
M  V30 644 N 56.1678 -1.49265 -0.50573 0
M  V30 645 C 57.4138 -1.58748 -1.26202 0
M  V30 646 C 57.7468 -0.271227 -1.92297 0
M  V30 647 O 57.0218 0.724831 -1.80489 0
M  V30 648 C 57.3048 -2.74332 -2.33268 0
M  V30 649 C 57.1578 -4.15737 -1.71705 0
M  V30 650 C 58.4768 -2.85576 -3.34865 0
M  V30 651 H 55.5958 -0.577826 -0.457478 0
M  V30 652 H 58.2378 -1.81532 -0.560897 0
M  V30 653 H 56.3878 -2.55036 -2.93068 0
M  V30 654 H 58.0598 -4.46537 -1.15769 0
M  V30 655 H 56.3028 -4.21605 -1.02135 0
M  V30 656 H 56.9738 -4.92477 -2.49341 0
M  V30 657 H 59.4498 -3.03127 -2.8505 0
M  V30 658 H 58.3258 -3.68135 -4.07146 0
M  V30 659 H 58.5868 -1.94732 -3.96903 0
M  V30 660 N 57.6459 0.756429 -1.3826 0
M  V30 661 C 58.5559 1.9009 -1.37488 0
M  V30 662 C 59.5719 1.71855 -0.272366 0
M  V30 663 O 60.7479 1.94827 -0.510318 0
M  V30 664 C 57.8129 3.25421 -1.19592 0
M  V30 665 C 56.8739 3.56202 -2.39622 0
M  V30 666 C 56.1069 4.85075 -2.2257 0
M  V30 667 O 56.3299 5.57246 -1.21793 0
M  V30 668 O 55.2639 5.15269 -3.11098 0
M  V30 669 H 59.0899 1.93695 -2.33914 0
M  V30 670 H 56.6749 0.901313 -1.1915 0
M  V30 671 H 58.5569 4.06337 -1.11661 0
M  V30 672 H 57.2319 3.22634 -0.262486 0
M  V30 673 H 56.1389 2.75458 -2.53128 0
M  V30 674 H 57.4719 3.63747 -3.31586 0
M  V30 675 N 59.124 1.23083 0.984299 0
M  V30 676 C 60.034 1.02515 2.11016 0
M  V30 677 C 61.05 -0.0291702 1.73976 0
M  V30 678 O 62.226 0.165434 2.00719 0
M  V30 679 C 59.291 0.614673 3.41208 0
M  V30 680 C 58.352 1.74359 3.92297 0
M  V30 681 C 57.585 1.35261 5.16275 0
M  V30 682 O 57.808 0.235136 5.69915 0
M  V30 683 O 56.742 2.17227 5.61334 0
M  V30 684 H 60.568 1.96862 2.31255 0
M  V30 685 H 58.153 1.01753 1.09392 0
M  V30 686 H 60.035 0.396518 4.1953 0
M  V30 687 H 58.71 -0.299851 3.22308 0
M  V30 688 H 57.617 2.01635 3.1511 0
M  V30 689 H 58.95 2.63629 4.15645 0
M  V30 690 N 60.6021 -1.18246 1.0419 0
M  V30 691 C 61.5321 -2.24127 0.654914 0
M  V30 692 C 62.5131 -1.66617 -0.342451 0
M  V30 693 O 63.6981 -1.92924 -0.222277 0
M  V30 694 C 60.8281 -3.47295 0.0183757 0
M  V30 695 C 59.7821 -4.17563 0.939414 0
M  V30 696 C 59.1081 -5.34438 0.167286 0
M  V30 697 C 60.4081 -4.70917 2.25908 0
M  V30 698 H 62.1021 -2.56753 1.54007 0
M  V30 699 H 59.6481 -1.23414 0.74195 0
M  V30 700 H 61.6011 -4.20572 -0.264082 0
M  V30 701 H 60.3251 -3.13907 -0.901664 0
M  V30 702 H 58.9841 -3.46186 1.20628 0
M  V30 703 H 58.6321 -4.97298 -0.7552 0
M  V30 704 H 58.3321 -5.82388 0.780901 0
M  V30 705 H 59.8561 -6.10504 -0.108125 0
M  V30 706 H 61.2701 -5.35882 2.03724 0
M  V30 707 H 59.6671 -5.29406 2.82577 0
M  V30 708 H 60.7371 -3.88272 2.9047 0
M  V30 709 N 62.0802 -0.821533 -1.34494 0
M  V30 710 C 63.0122 -0.199946 -2.28326 0
M  V30 711 C 64.0252 0.609377 -1.50965 0
M  V30 712 O 65.2142 0.439285 -1.7301 0
M  V30 713 C 62.3142 0.738431 -3.30757 0
M  V30 714 C 61.4872 -0.0277632 -4.37391 0
M  V30 715 C 60.5462 0.831332 -5.19591 0
M  V30 716 O 59.5722 0.276822 -5.68526 0
M  V30 717 N 60.7742 2.15132 -5.39165 0
M  V30 718 H 63.5392 -1.00609 -2.82308 0
M  V30 719 H 61.1002 -0.678366 -1.47003 0
M  V30 720 H 63.0922 1.31773 -3.82646 0
M  V30 721 H 61.6622 1.44533 -2.7718 0
M  V30 722 H 60.8822 -0.788359 -3.86236 0
M  V30 723 H 62.1702 -0.555251 -5.05761 0
M  V30 724 H 61.5682 2.62559 -5.01078 0
M  V30 725 H 60.1252 2.6795 -5.94177 0
M  V30 726 N 63.5583 1.46682 -0.576371 0
M  V30 727 C 64.5053 2.30241 0.160499 0
M  V30 728 C 65.4753 1.40233 0.890162 0
M  V30 729 O 66.6603 1.69186 0.882084 0
M  V30 730 C 63.8003 3.24578 1.1723 0
M  V30 731 C 62.9133 4.29684 0.446736 0
M  V30 732 C 62.0483 5.11154 1.44551 0
M  V30 733 C 61.0873 6.08015 0.70599 0
M  V30 734 N 60.2243 6.82376 1.65251 0
M  V30 735 H 65.0643 2.92727 -0.558127 0
M  V30 736 H 62.6013 1.44272 -0.287056 0
M  V30 737 H 64.5593 3.77711 1.77172 0
M  V30 738 H 63.1893 2.63916 1.85872 0
M  V30 739 H 62.2413 3.79458 -0.267594 0
M  V30 740 H 63.5533 4.98626 -0.131686 0
M  V30 741 H 62.7073 5.68533 2.11791 0
M  V30 742 H 61.4463 4.42158 2.05786 0
M  V30 743 H 60.4513 5.49796 0.0197725 0
M  V30 744 H 61.6763 6.79028 0.09912 0
M  V30 745 H 59.6223 6.16094 2.25308 0
M  V30 746 H 59.5393 7.47556 1.12673 0
M  V30 747 H 60.8073 7.44316 2.31546 0
M  V30 748 N 65.0364 0.313813 1.54444 0
M  V30 749 C 66.2844 -0.291099 1.99993 0
M  V30 750 C 66.6054 -1.53418 1.20366 0
M  V30 751 O 65.8754 -1.93544 0.302927 0
M  V30 752 H 64.4554 -0.110552 0.738774 0
M  V30 753 H 67.1174 0.428106 1.9014 0
M  V30 754 H 66.2134 -0.554268 3.07139 0
M  V30 755 N 66.5145 -1.57545 0.0417849 0
M  V30 756 C 67.4445 -2.14009 -0.933929 0
M  V30 757 C 68.4255 -1.05938 -1.33083 0
M  V30 758 O 69.6105 -1.33833 -1.40721 0
M  V30 759 C 66.7405 -2.67747 -2.21199 0
M  V30 760 C 65.6945 -3.80718 -1.95544 0
M  V30 761 C 65.0205 -4.20935 -3.29724 0
M  V30 762 C 66.3205 -5.06258 -1.28452 0
M  V30 763 H 68.0145 -2.95788 -0.463645 0
M  V30 764 H 65.5605 -1.42285 -0.221573 0
M  V30 765 H 67.5135 -3.05886 -2.89848 0
M  V30 766 H 66.2375 -1.83147 -2.70416 0
M  V30 767 H 64.8965 -3.43037 -1.2931 0
M  V30 768 H 64.5445 -3.33298 -3.76724 0
M  V30 769 H 64.2445 -4.9707 -3.13361 0
M  V30 770 H 65.7685 -4.61666 -3.9962 0
M  V30 771 H 67.1825 -5.41903 -1.8712 0
M  V30 772 H 65.5795 -5.87475 -1.22445 0
M  V30 773 H 66.6495 -4.84207 -0.259219 0
M  V30 774 N 67.9926 0.231505 -1.5589 0
M  V30 775 C 69.4086 0.580748 -1.48659 0
M  V30 776 C 69.6086 1.87617 -0.73498 0
M  V30 777 O 68.6646 2.51046 -0.270586 0
M  V30 778 C 69.9776 0.669202 -2.93159 0
M  V30 779 C 71.5256 0.760499 -3.03621 0
M  V30 780 C 72.0006 0.880383 -4.49459 0
M  V30 781 N 73.4916 0.944861 -4.53461 0
M  V30 782 C 74.2266 1.05716 -5.63571 0
M  V30 783 N 73.7226 1.13403 -6.83456 0
M  V30 784 N 75.5156 1.09152 -5.514 0
M  V30 785 H 67.6666 -0.618695 -2.03189 0
M  V30 786 H 69.9296 -0.215728 -0.923128 0
M  V30 787 H 69.6356 -0.212904 -3.51055 0
M  V30 788 H 69.5096 1.5361 -3.44505 0
M  V30 789 H 71.8966 1.63305 -2.45796 0
M  V30 790 H 71.9776 -0.131864 -2.5546 0
M  V30 791 H 71.6216 0.0123284 -5.07899 0
M  V30 792 H 71.5516 1.78802 -4.95316 0
M  V30 793 H 74.0426 0.896176 -3.6712 0
M  V30 794 H 74.3556 1.21921 -7.63122 0
M  V30 795 H 72.7006 1.10333 -6.86186 0
M  V30 796 H 75.8916 1.02805 -4.56671 0
M  V30 797 H 76.0646 1.17558 -6.37247 0
M  V30 798 N 69.4707 1.49531 0.497807 0
M  V30 799 C 70.6957 1.63159 1.28039 0
M  V30 800 C 71.1207 0.30418 1.85624 0
M  V30 801 O 70.4787 -0.728618 1.66015 0
M  V30 802 C 70.5267 2.70537 2.38416 0
M  V30 803 O 69.6307 2.29931 3.42353 0
M  V30 804 H 68.9717 0.546001 0.377861 0
M  V30 805 H 71.5017 1.9574 0.59558 0
M  V30 806 H 71.5117 2.92802 2.84132 0
M  V30 807 H 70.1867 3.6689 1.95869 0
M  V30 808 H 68.7637 2.18009 3.02533 0
M  V30 809 N 70.9488 -0.749086 1.3866 0
M  V30 810 C 71.8818 -1.87111 1.30631 0
M  V30 811 C 72.8598 -1.61572 0.18251 0
M  V30 812 O 74.0438 -1.85019 0.360592 0
M  V30 813 C 71.1708 -3.22815 1.02511 0
M  V30 814 C 70.2168 -3.67234 2.1689 0
M  V30 815 S 71.0498 -3.78245 3.79066 0
M  V30 816 C 72.2058 -5.16761 3.53142 0
M  V30 817 H 72.4388 -1.93636 2.25594 0
M  V30 818 H 69.9718 -0.912525 1.24549 0
M  V30 819 H 71.9298 -4.01181 0.869701 0
M  V30 820 H 70.5908 -3.13964 0.0925884 0
M  V30 821 H 69.7838 -4.65677 1.92771 0
M  V30 822 H 69.3858 -2.96034 2.28561 0
M  V30 823 H 71.6778 -6.02656 3.09534 0
M  V30 824 H 72.6208 -5.45902 4.50995 0
M  V30 825 H 73.0288 -4.85771 2.87554 0
M  V30 826 N 72.4269 -1.23603 -0.977757 0
M  V30 827 C 73.3599 -0.962772 -2.06896 0
M  V30 828 C 74.3379 0.0998743 -1.62293 0
M  V30 829 O 75.5219 -0.0349421 -1.88468 0
M  V30 830 C 72.6489 -0.45095 -3.35685 0
M  V30 831 C 71.6949 -1.50061 -3.99229 0
M  V30 832 S 72.5279 -3.07884 -4.38142 0
M  V30 833 C 73.6839 -2.58378 -5.7008 0
M  V30 834 H 73.9169 -1.88677 -2.29757 0
M  V30 835 H 71.4499 -1.06876 -1.11431 0
M  V30 836 H 73.4079 -0.162261 -4.10179 0
M  V30 837 H 72.0689 0.452179 -3.10828 0
M  V30 838 H 71.2619 -1.09269 -4.92013 0
M  V30 839 H 70.8639 -1.73878 -3.31123 0
M  V30 840 H 73.1559 -2.00563 -6.47133 0
M  V30 841 H 74.0989 -3.49711 -6.15717 0
M  V30 842 H 74.5069 -1.99143 -5.28207 0
M  V30 843 N 73.905 1.17692 -1.04816 0
M  V30 844 C 74.815 2.25229 -0.65643 0
M  V30 845 C 75.831 1.71018 0.320761 0
M  V30 846 O 77.007 2.00649 0.173805 0
M  V30 847 C 74.072 3.46684 -0.0332629 0
M  V30 848 C 73.133 4.15997 -1.06042 0
M  V30 849 C 72.366 5.31654 -0.466893 0
M  V30 850 O 72.589 5.65777 0.724758 0
M  V30 851 O 71.523 5.89831 -1.1993 0
M  V30 852 H 75.349 2.61016 -1.55255 0
M  V30 853 H 72.934 1.24919 -0.81949 0
M  V30 854 H 74.816 4.20234 0.313256 0
M  V30 855 H 73.491 3.12703 0.836566 0
M  V30 856 H 72.398 3.44482 -1.45886 0
M  V30 857 H 73.731 4.53996 -1.90127 0
M  V30 858 N 75.3831 0.828654 1.34056 0
M  V30 859 C 76.6321 0.415828 1.97367 0
M  V30 860 C 76.9451 -1.02796 1.6641 0
M  V30 861 O 78.1511 -1.54497 2.23255 0
M  V30 862 C 76.6071 0.692601 3.53173 0
M  V30 863 C 76.2151 2.15038 3.93017 0
M  V30 864 C 77.9591 0.346222 4.23086 0
M  V30 865 C 75.8661 2.37174 5.41758 0
M  V30 866 H 74.7961 0.151755 0.738571 0
M  V30 867 H 77.4471 1.01581 1.52819 0
M  V30 868 H 75.8291 0.0223764 3.95994 0
M  V30 869 H 77.0031 2.86024 3.61285 0
M  V30 870 H 75.3181 2.45875 3.36057 0
M  V30 871 H 77.9151 0.48937 5.32456 0
M  V30 872 H 78.2581 -0.709842 4.10204 0
M  V30 873 H 78.7911 0.971258 3.85761 0
M  V30 874 H 75.5301 3.41308 5.59633 0
M  V30 875 H 75.0501 1.70738 5.74986 0
M  V30 876 H 76.7291 2.19818 6.08514 0
M  V30 877 N 76.8612 -1.46375 0.584142 0
M  V30 878 C 77.7712 -2.34115 -0.150728 0
M  V30 879 C 78.7872 -1.49838 -0.884567 0
M  V30 880 O 79.9632 -1.82704 -0.847429 0
M  V30 881 C 77.0282 -3.2705 -1.15062 0
M  V30 882 C 76.0892 -4.27228 -0.421293 0
M  V30 883 C 75.3222 -5.15722 -1.37355 0
M  V30 884 O 75.5452 -5.07176 -2.61014 0
M  V30 885 O 74.4792 -5.95383 -0.883355 0
M  V30 886 H 78.3052 -2.98309 0.569708 0
M  V30 887 H 75.8902 -1.45373 0.344535 0
M  V30 888 H 77.7722 -3.84381 -1.72712 0
M  V30 889 H 76.4472 -2.65451 -1.8525 0
M  V30 890 H 75.3542 -3.7358 0.197085 0
M  V30 891 H 76.6872 -4.91616 0.239641 0
M  V30 892 N 78.3393 -0.321999 -1.54275 0
M  V30 893 C 79.7503 0.166384 -1.85957 0
M  V30 894 C 80.1013 1.51747 -1.24367 0
M  V30 895 O 79.2263 2.09317 -0.549124 0
M  V30 896 C 79.8213 0.308681 -3.37391 0
M  V30 897 C 78.3803 0.741286 -3.69028 0
M  V30 898 C 77.5273 -0.137937 -2.76957 0
M  V30 899 H 80.4783 -0.542335 -1.49146 0
M  V30 900 H 80.4993 1.13984 -3.63026 0
M  V30 901 H 80.0113 -0.674809 -3.82188 0
M  V30 902 H 78.1123 1.73458 -3.29762 0
M  V30 903 H 78.2253 0.546118 -4.75977 0
M  V30 904 H 76.5893 0.386251 -2.51754 0
M  V30 905 H 77.3723 -1.11816 -3.2458 0
M  V30 906 N 79.8174 1.5752 -0.0501392 0
M  V30 907 C 80.7494 2.08413 0.95376 0
M  V30 908 C 81.7624 1.01175 1.27544 0
M  V30 909 O 82.9514 1.28744 1.23641 0
M  V30 910 C 80.0514 2.51138 2.27559 0
M  V30 911 C 79.2244 3.817 2.13598 0
M  V30 912 C 78.2834 4.10749 3.28895 0
M  V30 913 O 77.3094 4.80685 3.04845 0
M  V30 914 N 78.5114 3.62579 4.5334 0
M  V30 915 H 81.2764 2.95165 0.519383 0
M  V30 916 H 78.8374 1.61327 0.136127 0
M  V30 917 H 80.8294 2.67648 3.03557 0
M  V30 918 H 79.3994 1.6964 2.62567 0
M  V30 919 H 78.6194 3.74782 1.22197 0
M  V30 920 H 79.9074 4.67201 2.01496 0
M  V30 921 H 79.3054 3.06039 4.75769 0
M  V30 922 H 77.8624 3.84329 5.26436 0
M  V30 923 N 81.2955 -0.223234 1.56011 0
M  V30 924 C 82.5415 -0.949279 1.79211 0
M  V30 925 C 82.8745 -1.84054 0.619494 0
M  V30 926 O 82.1495 -1.90726 -0.381317 0
M  V30 927 C 82.4325 -1.78965 3.12479 0
M  V30 928 C 82.2855 -0.924997 4.40186 0
M  V30 929 C 83.6045 -2.76774 3.42175 0
M  V30 930 H 80.7235 -0.343676 0.651963 0
M  V30 931 H 83.3655 -0.218253 1.88742 0
M  V30 932 H 81.5155 -2.41291 3.04485 0
M  V30 933 H 83.1875 -0.318615 4.60198 0
M  V30 934 H 81.4305 -0.230344 4.33188 0
M  V30 935 H 82.1015 -1.54735 5.29869 0
M  V30 936 H 84.5775 -2.24584 3.50287 0
M  V30 937 H 83.4535 -3.32678 4.36597 0
M  V30 938 H 83.7145 -3.54429 2.64258 0
M  V30 939 N 82.7736 -1.49793 -0.48987 0
M  V30 940 C 84.0196 -1.60078 -1.24511 0
M  V30 941 C 84.3526 -0.291608 -1.91998 0
M  V30 942 O 83.6276 0.705647 -1.81248 0
M  V30 943 C 83.9106 -2.76791 -2.30345 0
M  V30 944 C 83.7636 -4.17535 -1.67286 0
M  V30 945 C 85.0826 -2.89111 -3.31817 0
M  V30 946 H 82.2016 -0.582645 -0.451324 0
M  V30 947 H 84.8436 -1.82117 -0.541612 0
M  V30 948 H 82.9936 -2.5813 -2.90346 0
M  V30 949 H 84.6656 -4.4774 -1.11026 0
M  V30 950 H 82.9086 -4.22665 -0.976577 0
M  V30 951 H 83.5796 -4.95094 -2.44103 0
M  V30 952 H 86.0556 -3.06133 -2.81819 0
M  V30 953 H 84.9316 -3.72433 -4.03219 0
M  V30 954 H 85.1926 -1.9893 -3.94815 0
M  V30 955 N 84.2517 0.741722 -1.39055 0
M  V30 956 C 85.1837 1.8657 -1.33133 0
M  V30 957 C 86.1967 1.61001 -0.241329 0
M  V30 958 O 87.3857 1.7136 -0.499784 0
M  V30 959 C 84.4857 3.22457 -1.04283 0
M  V30 960 C 83.6587 3.75435 -2.24427 0
M  V30 961 C 82.7177 4.89867 -1.92138 0
M  V30 962 O 81.7437 5.03879 -2.64754 0
M  V30 963 N 82.9457 5.73738 -0.88347 0
M  V30 964 H 85.7107 1.92156 -2.29991 0
M  V30 965 H 83.2717 0.922172 -1.3307 0
M  V30 966 H 85.2637 3.9657 -0.807128 0
M  V30 967 H 83.8337 3.12181 -0.161807 0
M  V30 968 H 83.0537 2.92751 -2.6399 0
M  V30 969 H 84.3417 4.07563 -3.04581 0
M  V30 970 H 83.7397 5.64999 -0.281517 0
M  V30 971 H 82.2967 6.47947 -0.707662 0
M  V30 972 N 85.7298 1.2412 0.971189 0
M  V30 973 C 86.6398 1.04747 2.09917 0
M  V30 974 C 87.6558 -0.0107162 1.73997 0
M  V30 975 O 88.8318 0.186714 2.00533 0
M  V30 976 C 85.8968 0.650828 3.40537 0
M  V30 977 C 84.9578 1.7851 3.90426 0
M  V30 978 C 84.1908 1.40729 5.14812 0
M  V30 979 O 84.4138 0.29557 5.69634 0
M  V30 980 O 83.3478 2.23168 5.58999 0
M  V30 981 H 87.1738 1.99304 2.29154 0
M  V30 982 H 84.7588 1.02908 1.08307 0
M  V30 983 H 86.6408 0.440992 4.19086 0
M  V30 984 H 85.3158 -0.265649 3.22608 0
M  V30 985 H 84.2228 2.04966 3.12953 0
M  V30 986 H 85.5558 2.68023 4.12825 0
M  V30 987 N 87.2079 -1.17134 1.05439 0
M  V30 988 C 88.4539 -1.87733 0.767077 0
M  V30 989 C 88.7869 -1.8098 -0.704253 0
M  V30 990 O 88.0619 -1.21951 -1.5152 0
M  V30 991 C 88.3449 -3.37659 1.25133 0
M  V30 992 C 88.1979 -3.53149 2.78578 0
M  V30 993 C 89.5169 -4.31768 0.852324 0
M  V30 994 H 86.6359 -0.681687 0.280129 0
M  V30 995 H 89.2779 -1.37732 1.30881 0
M  V30 996 H 87.4279 -3.80373 0.790469 0
M  V30 997 H 89.0999 -3.19434 3.32806 0
M  V30 998 H 87.3429 -2.95345 3.17732 0
M  V30 999 H 88.0139 -4.58403 3.07523 0
M  V30 1000 H 90.4899 -3.96909 1.24911 0
M  V30 1001 H 89.3659 -5.35199 1.21873 0
M  V30 1002 H 89.6269 -4.41429 -0.243485 0
M  V30 1003 N 88.686 -0.835752 -1.33615 0
M  V30 1004 C 89.634 -0.255238 -2.31195 0
M  V30 1005 C 90.628 0.61107 -1.57995 0
M  V30 1006 O 91.834 0.500979 -1.72888 0
M  V30 1007 H 88.209 -0.0638085 -0.749288 0
M  V30 1008 H 90.18 -1.09283 -2.77669 0
M  V30 1009 C 88.929 0.55754 -3.43201 0
M  V30 1010 H 88.252 -0.0997553 -3.99676 0
M  V30 1011 H 89.692 0.929622 -4.13683 0
M  V30 1012 C 88.151 1.73515 -2.88781 0
M  V30 1013 O 88.681 2.83376 -2.84712 0
M  V30 1014 N 86.887 1.55603 -2.4543 0
M  V30 1015 H 86.434 0.662354 -2.48939 0
M  V30 1016 H 86.392 2.34545 -2.09371 0
M  V30 1017 N 90.1641 1.46063 -0.591896 0
M  V30 1018 C 91.0741 2.34192 0.13831 0
M  V30 1019 C 92.0901 1.50305 0.876608 0
M  V30 1020 O 93.2661 1.8315 0.837728 0
M  V30 1021 C 90.3311 3.27656 1.13326 0
M  V30 1022 C 89.3921 4.27445 0.39863 0
M  V30 1023 C 88.6251 5.16443 1.34618 0
M  V30 1024 O 88.8481 5.08553 2.58321 0
M  V30 1025 O 87.7821 5.95843 0.851768 0
M  V30 1026 H 91.6081 2.98002 -0.58552 0
M  V30 1027 H 89.1931 1.45188 -0.352239 0
M  V30 1028 H 91.0751 3.85291 1.70671 0
M  V30 1029 H 89.7501 2.6643 1.83839 0
M  V30 1030 H 88.6571 3.73471 -0.216895 0
M  V30 1031 H 89.9901 4.91482 -0.265709 0
M  V30 1032 N 91.6422 0.330177 1.54103 0
M  V30 1033 C 92.8702 -0.272179 2.05102 0
M  V30 1034 C 93.2852 -1.45267 1.20595 0
M  V30 1035 O 92.6422 -1.8094 0.238144 0
M  V30 1036 C 92.6932 -0.70023 3.54653 0
M  V30 1037 O 92.4142 0.433301 4.35952 0
M  V30 1038 C 93.9152 -1.3647 4.21771 0
M  V30 1039 H 91.1352 -0.0549159 0.668749 0
M  V30 1040 H 93.6792 0.478285 1.98828 0
M  V30 1041 H 91.8342 -1.40066 3.61193 0
M  V30 1042 H 92.2482 0.0947539 5.24414 0
M  V30 1043 H 93.7222 -1.61509 5.27843 0
M  V30 1044 H 94.1992 -2.31409 3.73292 0
M  V30 1045 H 94.8052 -0.706675 4.19388 0
M  V30 1046 N 93.1203 -1.57491 0.0584922 0
M  V30 1047 C 94.0833 -2.1085 -0.898617 0
M  V30 1048 C 95.0833 -1.02964 -1.23511 0
M  V30 1049 O 96.2733 -1.29007 -1.17059 0
M  V30 1050 C 93.4053 -2.59881 -2.20623 0
M  V30 1051 H 94.5983 -2.96715 -0.435936 0
M  V30 1052 H 92.1513 -1.55141 -0.190023 0
M  V30 1053 H 92.8863 -1.77431 -2.71457 0
M  V30 1054 H 92.6713 -3.38727 -1.97501 0
M  V30 1055 H 94.1613 -3.01285 -2.89166 0
M  V30 1056 N 94.5984 0.214957 -1.56127 0
M  V30 1057 C 95.5464 1.28601 -1.93816 0
M  V30 1058 C 96.5404 1.48175 -0.821016 0
M  V30 1059 O 97.7464 1.49271 -1.0059 0
M  V30 1060 H 94.1214 0.431302 -0.616022 0
M  V30 1061 H 96.0924 0.940991 -2.83175 0
M  V30 1062 C 94.8414 2.62779 -2.27689 0
M  V30 1063 H 94.1644 2.48527 -3.13168 0
M  V30 1064 H 95.6044 3.36517 -2.57939 0
M  V30 1065 C 94.0634 3.18285 -1.10436 0
M  V30 1066 O 94.5934 4.00002 -0.368945 0
M  V30 1067 N 92.7994 2.7675 -0.886433 0
M  V30 1068 H 92.3464 2.10404 -1.48619 0
M  V30 1069 H 92.3044 3.14229 -0.103656 0
M  V30 1070 N 96.0765 1.50051 0.48192 0
M  V30 1071 C 97.3015 1.64508 1.26301 0
M  V30 1072 C 97.7265 0.323851 1.85291 0
M  V30 1073 O 97.0845 -0.710969 1.66778 0
M  V30 1074 C 97.1325 2.7305 2.35533 0
M  V30 1075 O 96.2365 2.3355 3.39895 0
M  V30 1076 H 95.5775 0.549978 0.372048 0
M  V30 1077 H 98.1075 1.9636 0.574786 0
M  V30 1078 H 98.1175 2.95799 2.8101 0
M  V30 1079 H 96.7925 3.68946 1.91967 0
M  V30 1080 H 95.3695 2.21205 3.00204 0
M  V30 1081 N 97.5546 -0.734337 1.39446 0
M  V30 1082 C 98.8036 -1.48937 1.36017 0
M  V30 1083 C 99.1166 -1.95557 -0.0409005 0
M  V30 1084 O 100.323 -2.70779 -0.19778 0
M  V30 1085 C 98.7786 -2.69125 2.38955 0
M  V30 1086 C 98.3866 -2.29452 3.8478 0
M  V30 1087 C 100.131 -3.46944 2.44603 0
M  V30 1088 C 98.0376 -3.46366 4.79358 0
M  V30 1089 H 96.9676 -0.559296 0.505672 0
M  V30 1090 H 99.6186 -0.800983 1.65095 0
M  V30 1091 H 98.0006 -3.40041 2.02948 0
M  V30 1092 H 99.1746 -1.66077 4.29831 0
M  V30 1093 H 97.4896 -1.64723 3.82433 0
M  V30 1094 H 100.087 -4.33907 3.12456 0
M  V30 1095 H 100.43 -3.89454 1.47076 0
M  V30 1096 H 100.963 -2.83056 2.79507 0
M  V30 1097 H 97.7016 -3.08905 5.78151 0
M  V30 1098 H 97.2216 -4.08719 4.38986 0
M  V30 1099 H 98.9006 -4.12691 4.98292 0
M  V30 1100 N 99.0327 -1.24633 -0.964593 0
M  V30 1101 C 100.279 -1.09957 -1.71117 0
M  V30 1102 C 100.634 0.357422 -1.89051 0
M  V30 1103 O 99.9267 1.26029 -1.44317 0
M  V30 1104 C 100.121 -1.7763 -3.10133 0
M  V30 1105 C 99.9497 -3.29759 -3.05759 0
M  V30 1106 C 98.7197 -3.98981 -3.10068 0
M  V30 1107 C 100.918 -4.26305 -2.87695 0
M  V30 1108 N 98.8997 -5.37966 -2.95747 0
M  V30 1109 C 100.271 -5.52308 -2.81702 0
M  V30 1110 C 102.326 -4.16842 -2.72299 0
M  V30 1111 C 101.029 -6.69931 -2.61887 0
M  V30 1112 C 103.055 -5.34147 -2.53853 0
M  V30 1113 C 102.417 -6.59084 -2.48572 0
M  V30 1114 H 98.5157 -0.457003 -0.634564 0
M  V30 1115 H 101.1 -1.57592 -1.14337 0
M  V30 1116 H 99.2707 -1.32504 -3.65099 0
M  V30 1117 H 101.003 -1.55786 -3.73514 0
M  V30 1118 H 97.7577 -3.50169 -3.18871 0
M  V30 1119 H 98.1817 -6.10877 -2.91818 0
M  V30 1120 H 102.824 -3.21007 -2.75163 0
M  V30 1121 H 100.542 -7.65886 -2.57767 0
M  V30 1122 H 104.128 -5.28678 -2.4288 0
M  V30 1123 H 103.008 -7.48324 -2.34481 0
M  V30 1124 N 100.511 1.16574 -1.06058 0
M  V30 1125 C 101.441 2.23057 -0.690488 0
M  V30 1126 C 102.422 1.67141 0.315901 0
M  V30 1127 O 103.607 1.93253 0.191556 0
M  V30 1128 C 100.737 3.47222 -0.073625 0
M  V30 1129 C 99.6908 4.16016 -1.00573 0
M  V30 1130 C 99.0168 5.34104 -0.252289 0
M  V30 1131 C 100.317 4.67264 -2.33371 0
M  V30 1132 H 102.011 2.54271 -1.58072 0
M  V30 1133 H 99.5568 1.22218 -0.76149 0
M  V30 1134 H 101.51 4.20939 0.19714 0
M  V30 1135 H 100.234 3.15302 0.85161 0
M  V30 1136 H 98.8928 3.44223 -1.2612 0
M  V30 1137 H 98.5408 4.98437 0.675988 0
M  V30 1138 H 98.2408 5.81072 -0.873455 0
M  V30 1139 H 99.7648 6.10599 0.0109857 0
M  V30 1140 H 101.179 5.32573 -2.12223 0
M  V30 1141 H 99.5758 5.24843 -2.90963 0
M  V30 1142 H 100.646 3.83602 -2.96611 0
M  V30 1143 N 101.989 0.842826 1.3317 0
M  V30 1144 C 103.237 0.439577 1.97262 0
M  V30 1145 C 103.558 -1.00548 1.67078 0
M  V30 1146 O 102.828 -1.70098 0.971779 0
M  V30 1147 H 101.408 0.159558 0.72976 0
M  V30 1148 H 104.07 1.07665 1.62463 0
M  V30 1149 H 103.166 0.574886 3.0676 0
M  V30 1150 N 103.467 -1.45747 0.599634 0
M  V30 1151 C 104.695 -2.06668 0.0978551 0
M  V30 1152 C 105.11 -1.44562 -1.21439 0
M  V30 1153 O 104.467 -0.556923 -1.73795 0
M  V30 1154 C 104.518 -3.61456 -0.0567044 0
M  V30 1155 O 104.239 -4.21242 1.20361 0
M  V30 1156 C 105.74 -4.39345 -0.590869 0
M  V30 1157 H 102.96 -0.667825 0.0651943 0
M  V30 1158 H 105.504 -1.87115 0.82511 0
M  V30 1159 H 103.659 -3.80378 -0.734251 0
M  V30 1160 H 104.073 -5.14323 1.02821 0
M  V30 1161 H 105.547 -5.48182 -0.648131 0
M  V30 1162 H 106.024 -4.08568 -1.61147 0
M  V30 1163 H 106.63 -4.25268 0.0523679 0
M  V30 1164 N 104.945 -0.338344 -1.53925 0
M  V30 1165 C 105.875 0.51328 -2.27789 0
M  V30 1166 C 106.856 1.107 -1.29149 0
M  V30 1167 O 108.041 1.12937 -1.57984 0
M  V30 1168 C 105.171 1.66697 -3.04679 0
M  V30 1169 C 104.125 1.20183 -4.1078 0
M  V30 1170 C 103.451 2.44363 -4.75595 0
M  V30 1171 C 104.751 0.30605 -5.21403 0
M  V30 1172 H 106.445 -0.102883 -2.99223 0
M  V30 1173 H 103.991 -0.0509219 -1.4391 0
M  V30 1174 H 105.944 2.26915 -3.55088 0
M  V30 1175 H 104.668 2.30995 -2.30887 0
M  V30 1176 H 103.327 0.622499 -3.61276 0
M  V30 1177 H 102.975 3.07057 -3.98403 0
M  V30 1178 H 102.675 2.13925 -5.47275 0
M  V30 1179 H 104.199 3.05317 -5.28786 0
M  V30 1180 H 105.613 0.814929 -5.67478 0
M  V30 1181 H 104.01 0.0937929 -6.00027 0
M  V30 1182 H 105.08 -0.65921 -4.80398 0
M  V30 1183 N 106.423 1.57458 -0.0668435 0
M  V30 1184 C 107.333 2.15937 0.916975 0
M  V30 1185 C 108.349 1.12123 1.33058 0
M  V30 1186 O 109.525 1.44366 1.40429 0
M  V30 1187 C 106.59 2.70547 2.16807 0
M  V30 1188 C 105.651 3.89215 1.81135 0
M  V30 1189 C 104.884 4.41211 3.0028 0
M  V30 1190 O 105.107 3.92225 4.14144 0
M  V30 1191 O 104.041 5.32605 2.80384 0
M  V30 1192 H 107.867 3.00354 0.449561 0
M  V30 1193 H 105.452 1.48584 0.155949 0
M  V30 1194 H 107.334 3.0557 2.90181 0
M  V30 1195 H 106.009 1.89192 2.62656 0
M  V30 1196 H 104.916 3.59054 1.05028 0
M  V30 1197 H 106.249 4.71848 1.40073 0
M  V30 1198 N 107.901 -0.206675 1.56239 0
M  V30 1199 C 109.178 -0.954051 1.70755 0
M  V30 1200 C 109.558 -2.01841 0.618353 0
M  V30 1201 O 108.906 -2.25444 -0.372434 0
M  V30 1202 C 109.116 -1.551 3.12642 0
M  V30 1203 C 110.464 -2.03757 3.72516 0
M  V30 1204 O 111.488 -1.64965 3.15698 0
M  V30 1205 O 110.347 -2.75103 4.72208 0
M  V30 1206 H 107.441 -0.446636 0.696021 0
M  V30 1207 H 109.987 -0.197283 1.68549 0
M  V30 1208 H 108.759 -0.783212 3.83382 0
M  V30 1209 H 108.382 -2.37291 3.19028 0
M  V30 1210 N 109.379 -1.50304 -0.473955 0
M  V30 1211 C 110.289 -1.7174 -1.5982 0
M  V30 1212 C 111.305 -0.600457 -1.63311 0
M  V30 1213 O 112.481 -0.878441 -1.81233 0
M  V30 1214 C 109.546 -1.80427 -2.96052 0
M  V30 1215 C 108.607 -3.04148 -3.02972 0
M  V30 1216 C 107.84 -3.12411 -4.32706 0
M  V30 1217 O 108.063 -2.27542 -5.23049 0
M  V30 1218 O 106.997 -4.05113 -4.45159 0
M  V30 1219 H 110.823 -2.67035 -1.44657 0
M  V30 1220 H 108.408 -1.34366 -0.653148 0
M  V30 1221 H 110.29 -1.88338 -3.7697 0
M  V30 1222 H 108.965 -0.883156 -3.11419 0
M  V30 1223 H 107.872 -3.0174 -2.21142 0
M  V30 1224 H 109.205 -3.95829 -2.92541 0
M  V30 1225 N 110.857 0.726932 -1.39834 0
M  V30 1226 C 111.767 1.87131 -1.41489 0
M  V30 1227 C 112.783 1.71239 -0.308757 0
M  V30 1228 O 113.959 1.93701 -0.551529 0
M  V30 1229 C 111.024 3.22811 -1.26468 0
M  V30 1230 C 110.085 3.51039 -2.47124 0
M  V30 1231 C 109.318 4.80245 -2.3281 0
M  V30 1232 O 109.541 5.54537 -1.33585 0
M  V30 1233 O 108.475 5.08554 -3.21957 0
M  V30 1234 H 112.301 1.8869 -2.3797 0
M  V30 1235 H 109.886 0.875837 -1.21035 0
M  V30 1236 H 111.768 4.03877 -1.20255 0
M  V30 1237 H 110.443 3.22005 -0.330862 0
M  V30 1238 H 109.35 2.70027 -2.58914 0
M  V30 1239 H 110.683 3.56632 -3.39227 0
M  V30 1240 N 112.336 1.25143 0.95797 0
M  V30 1241 C 113.583 1.09692 1.70217 0
M  V30 1242 C 113.911 -0.362654 1.91089 0
M  V30 1243 O 113.166 -1.28386 1.47701 0
M  V30 1244 C 113.465 1.79272 3.09187 0
M  V30 1245 C 113.131 3.29196 3.08125 0
M  V30 1246 C 111.793 3.70096 3.07543 0
M  V30 1247 C 114.145 4.24995 3.0171 0
M  V30 1248 C 111.473 5.05213 2.9829 0
M  V30 1249 C 113.825 5.60132 2.93999 0
M  V30 1250 C 112.489 6.00365 2.9175 0
M  V30 1251 H 111.759 0.401393 0.622868 0
M  V30 1252 H 114.406 1.55372 1.11945 0
M  V30 1253 H 112.711 1.26014 3.70982 0
M  V30 1254 H 114.408 1.64773 3.65583 0
M  V30 1255 H 110.998 2.96651 3.09348 0
M  V30 1256 H 115.182 3.9439 3.01281 0
M  V30 1257 H 110.438 5.35569 2.94916 0
M  V30 1258 H 114.612 6.3406 2.87996 0
M  V30 1259 H 112.239 7.05023 2.84336 0
M  V30 1260 N 113.814 -1.1601 1.06675 0
M  V30 1261 C 114.724 -2.24156 0.692179 0
M  V30 1262 C 115.74 -1.71507 -0.293513 0
M  V30 1263 O 116.916 -2.009 -0.141861 0
M  V30 1264 C 113.981 -3.46587 0.0884131 0
M  V30 1265 C 113.042 -4.14257 1.12646 0
M  V30 1266 C 112.275 -5.30844 0.551416 0
M  V30 1267 O 112.498 -5.66858 -0.634656 0
M  V30 1268 O 111.432 -5.87848 1.29298 0
M  V30 1269 H 115.258 -2.58513 1.59388 0
M  V30 1270 H 112.843 -1.23599 0.83926 0
M  V30 1271 H 114.725 -4.20679 -0.246361 0
M  V30 1272 H 113.4 -3.13994 -0.786712 0
M  V30 1273 H 112.307 -3.42118 1.51348 0
M  V30 1274 H 113.64 -4.50914 1.97325 0
M  V30 1275 N 115.292 -0.849877 -1.32721 0
M  V30 1276 C 116.708 -0.539102 -1.50219 0
M  V30 1277 C 116.908 0.931271 -1.78689 0
M  V30 1278 O 115.964 1.71455 -1.85363 0
M  V30 1279 C 117.277 -1.42196 -2.64954 0
M  V30 1280 C 118.825 -1.42189 -2.78839 0
M  V30 1281 C 119.3 -2.28985 -3.96648 0
M  V30 1282 N 120.791 -2.26754 -4.03902 0
M  V30 1283 C 121.526 -2.90644 -4.94281 0
M  V30 1284 N 121.022 -3.63629 -5.897 0
M  V30 1285 N 122.815 -2.80057 -4.87365 0
M  V30 1286 H 114.966 -1.80156 -1.12506 0
M  V30 1287 H 117.229 -0.769217 -0.554085 0
M  V30 1288 H 116.935 -2.46733 -2.50631 0
M  V30 1289 H 116.809 -1.10591 -3.60624 0
M  V30 1290 H 119.196 -0.38419 -2.92588 0
M  V30 1291 H 119.277 -1.77807 -1.83898 0
M  V30 1292 H 118.921 -3.32819 -3.83658 0
M  V30 1293 H 118.851 -1.90702 -4.90857 0
M  V30 1294 H 121.342 -1.73688 -3.3562 0
M  V30 1295 H 121.655 -4.09558 -6.55349 0
M  V30 1296 H 120 -3.67737 -5.89741 0
M  V30 1297 H 123.191 -2.22593 -4.11789 0
M  V30 1298 H 123.364 -3.30132 -5.57599 0
M  V30 1299 N 116.77 1.45427 -0.607355 0
M  V30 1300 C 118.181 1.85756 -0.187535 0
M  V30 1301 C 118.532 1.5077 1.25551 0
M  V30 1302 O 117.657 0.93427 1.95193 0
M  V30 1303 C 118.252 3.37154 -0.333572 0
M  V30 1304 C 116.811 3.76387 0.0315542 0
M  V30 1305 C 115.958 2.69377 -0.658117 0
M  V30 1306 H 118.909 1.36231 -0.81405 0
M  V30 1307 H 118.93 3.78014 0.43428 0
M  V30 1308 H 118.442 3.62586 -1.38393 0
M  V30 1309 H 116.543 3.56571 1.0811 0
M  V30 1310 H 116.656 4.77731 -0.361935 0
M  V30 1311 H 115.02 2.5452 -0.0957873 0
M  V30 1312 H 115.803 2.97646 -1.7106 0
M  V30 1313 N 118.248 0.346503 1.53744 0
M  V30 1314 C 119.178 -0.501193 2.28058 0
M  V30 1315 C 120.159 -1.10014 1.29734 0
M  V30 1316 O 121.344 -1.12097 1.58581 0
M  V30 1317 C 118.474 -1.65078 3.05559 0
M  V30 1318 C 117.428 -1.18003 4.11411 0
M  V30 1319 C 116.754 -2.41837 4.76884 0
M  V30 1320 C 118.054 -0.278394 5.21558 0
M  V30 1321 H 119.748 0.11875 2.99164 0
M  V30 1322 H 117.294 0.0585531 1.43881 0
M  V30 1323 H 119.247 -2.25028 3.56287 0
M  V30 1324 H 117.971 -2.29767 2.32109 0
M  V30 1325 H 116.63 -0.603331 3.61601 0
M  V30 1326 H 116.278 -3.0494 4.00026 0
M  V30 1327 H 115.978 -2.1102 5.48402 0
M  V30 1328 H 117.502 -3.02508 5.30397 0
M  V30 1329 H 118.916 -0.784823 5.67903 0
M  V30 1330 H 117.313 -0.0619707 6.00068 0
M  V30 1331 H 118.383 0.684677 4.80042 0
M  V30 1332 N 119.726 -1.57421 0.075193 0
M  V30 1333 C 120.636 -2.1642 -0.905511 0
M  V30 1334 C 121.652 -1.12828 -1.32461 0
M  V30 1335 O 122.828 -1.45109 -1.39661 0
M  V30 1336 C 119.893 -2.71693 -2.15369 0
M  V30 1337 C 118.954 -3.90171 -1.79068 0
M  V30 1338 C 118.187 -4.42798 -2.97936 0
M  V30 1339 O 118.41 -3.94416 -4.12058 0
M  V30 1340 O 117.344 -5.34085 -2.77555 0
M  V30 1341 H 121.17 -3.00588 -0.433626 0
M  V30 1342 H 118.755 -1.48664 -0.148067 0
M  V30 1343 H 120.637 -3.07104 -2.88557 0
M  V30 1344 H 119.312 -1.90582 -2.61649 0
M  V30 1345 H 118.219 -3.59606 -1.03122 0
M  V30 1346 H 119.552 -4.72584 -1.37569 0
M  V30 1347 N 121.204 0.198386 -1.56346 0
M  V30 1348 C 122.452 0.91747 -1.80075 0
M  V30 1349 C 122.773 1.83929 -0.647692 0
M  V30 1350 O 122.043 1.93029 0.334166 0
M  V30 1351 H 120.623 0.341774 -0.664228 0
M  V30 1352 H 123.285 0.204684 -1.93822 0
M  V30 1353 H 122.381 1.51055 -2.7311 0
M  V30 1354 N 122.682 1.50554 0.465978 0
M  V30 1355 C 123.91 1.65563 1.24083 0
M  V30 1356 C 124.325 0.341051 1.85694 0
M  V30 1357 O 123.682 -0.677543 1.69457 0
M  V30 1358 C 123.733 2.75051 2.34583 0
M  V30 1359 O 123.454 4.01413 1.75497 0
M  V30 1360 C 124.955 3.01078 3.25372 0
M  V30 1361 H 122.175 0.55638 0.375077 0
M  V30 1362 H 124.719 1.96807 0.555624 0
M  V30 1363 H 122.874 2.46486 2.9887 0
M  V30 1364 H 123.288 4.62002 2.48303 0
M  V30 1365 H 124.762 3.81339 3.99105 0
M  V30 1366 H 125.239 2.12349 3.84453 0
M  V30 1367 H 125.845 3.31194 2.66816 0
M  V30 1368 N 124.16 -0.719506 1.40217 0
M  V30 1369 C 125.09 -1.8465 1.42922 0
M  V30 1370 C 126.071 -1.67599 0.29062 0
M  V30 1371 O 127.256 -1.87688 0.498677 0
M  V30 1372 C 124.386 -3.22565 1.28722 0
M  V30 1373 C 123.34 -3.54281 2.40144 0
M  V30 1374 C 122.666 -4.91298 2.11023 0
M  V30 1375 C 123.966 -3.55676 3.82481 0
M  V30 1376 H 125.66 -1.82644 2.37237 0
M  V30 1377 H 123.206 -0.877305 1.1419 0
M  V30 1378 H 125.159 -4.01095 1.29232 0
M  V30 1379 H 123.883 -3.25137 0.308811 0
M  V30 1380 H 122.542 -2.78088 2.38877 0
M  V30 1381 H 122.19 -4.90468 1.11582 0
M  V30 1382 H 121.89 -5.13485 2.8567 0
M  V30 1383 H 123.414 -5.72166 2.13209 0
M  V30 1384 H 124.828 -4.24254 3.85592 0
M  V30 1385 H 123.225 -3.89388 4.56614 0
M  V30 1386 H 124.295 -2.55144 4.12346 0
M  V30 1387 N 125.638 -1.25649 -0.95132 0
M  V30 1388 C 126.884 -1.10757 -1.69884 0
M  V30 1389 C 127.217 0.350061 -1.91019 0
M  V30 1390 O 126.492 1.25783 -1.48354 0
M  V30 1391 C 126.775 -1.86606 -3.07978 0
M  V30 1392 C 126.628 -3.40217 -2.94232 0
M  V30 1393 C 127.947 -1.65182 -4.07925 0
M  V30 1394 H 125.066 -0.40374 -0.616574 0
M  V30 1395 H 127.708 -1.54521 -1.10558 0
M  V30 1396 H 125.858 -1.49409 -3.58621 0
M  V30 1397 H 127.53 -3.87108 -2.50889 0
M  V30 1398 H 125.773 -3.67759 -2.30078 0
M  V30 1399 H 126.444 -3.88505 -3.92133 0
M  V30 1400 H 128.92 -1.9757 -3.66204 0
M  V30 1401 H 127.796 -2.20683 -5.02583 0
M  V30 1402 H 128.057 -0.593933 -4.38092 0
M  V30 1403 N 127.117 1.15442 -1.07289 0
M  V30 1404 C 128.067 2.18164 -0.662467 0
M  V30 1405 C 129.051 1.57845 0.312074 0
M  V30 1406 O 130.243 1.76552 0.125905 0
M  V30 1407 C 127.372 3.43246 -0.0611295 0
M  V30 1408 C 126.458 4.1062 -1.06077 0
M  V30 1409 N 126.849 4.53491 -2.24008 0
M  V30 1410 C 125.147 4.36949 -0.893964 0
M  V30 1411 C 125.848 5.05731 -2.87422 0
M  V30 1412 N 124.824 4.99236 -2.15091 0
M  V30 1413 H 128.626 2.49038 -1.56068 0
M  V30 1414 H 126.14 1.32003 -0.945988 0
M  V30 1415 H 128.137 4.16145 0.250792 0
M  V30 1416 H 126.797 3.13854 0.832207 0
M  V30 1417 H 127.808 4.46898 -2.6173 0
M  V30 1418 H 124.485 4.17466 -0.0534693 0
M  V30 1419 H 125.875 5.48865 -3.87553 0
M  V30 1420 N 128.595 0.856903 1.32268 0
M  V30 1421 C 130.006 0.515711 1.79436 0
M  V30 1422 C 130.357 -0.966586 1.70738 0
M  V30 1423 O 129.482 -1.75409 1.26731 0
M  V30 1424 C 130.077 0.929335 3.25805 0
M  V30 1425 C 128.636 0.640006 3.70919 0
M  V30 1426 C 127.783 1.12784 2.53328 0
M  V30 1427 H 130.734 1.04389 1.19535 0
M  V30 1428 H 130.755 0.246633 3.797 0
M  V30 1429 H 130.267 2.00821 3.32103 0
M  V30 1430 H 128.368 -0.428051 3.70133 0
M  V30 1431 H 128.481 1.20788 4.63624 0
M  V30 1432 H 126.845 0.548033 2.48734 0
M  V30 1433 H 127.628 2.21387 2.62379 0
M  V30 1434 N 130.073 -1.45103 0.615059 0
M  V30 1435 C 130.983 -2.34382 -0.101034 0
M  V30 1436 C 131.999 -1.51681 -0.852585 0
M  V30 1437 O 133.175 -1.8446 -0.808484 0
M  V30 1438 C 130.24 -3.29417 -1.08099 0
M  V30 1439 C 129.301 -4.28025 -0.330577 0
M  V30 1440 C 128.534 -5.1852 -1.26385 0
M  V30 1441 O 128.757 -5.12598 -2.50198 0
M  V30 1442 O 127.691 -5.97122 -0.756866 0
M  V30 1443 H 131.517 -2.97033 0.632855 0
M  V30 1444 H 129.102 -1.4461 0.375293 0
M  V30 1445 H 130.984 -3.87958 -1.6452 0
M  V30 1446 H 129.659 -2.69321 -1.79577 0
M  V30 1447 H 128.566 -3.73078 0.276283 0
M  V30 1448 H 129.899 -4.90997 0.343866 0
M  V30 1449 N 131.551 -0.354651 -1.53558 0
M  V30 1450 C 132.799 0.237972 -2.00694 0
M  V30 1451 C 133.12 1.50173 -1.24391 0
M  V30 1452 O 132.39 1.92673 -0.354135 0
M  V30 1453 H 130.97 0.0909256 -0.741446 0
M  V30 1454 H 133.632 -0.478368 -1.88938 0
M  V30 1455 H 132.728 0.47264 -3.085 0
M  V30 1456 N 133.029 1.57378 -0.0835403 0
M  V30 1457 C 134.259 1.97975 0.590713 0
M  V30 1458 C 134.667 0.961083 1.62972 0
M  V30 1459 O 134.01 -0.0590879 1.83605 0
M  V30 1460 C 134.072 3.34915 1.3066 0
M  V30 1461 C 133.736 4.55069 0.419698 0
M  V30 1462 C 134.733 5.18868 -0.32749 0
M  V30 1463 C 132.418 5.0114 0.341137 0
M  V30 1464 C 134.412 6.27098 -1.14134 0
M  V30 1465 C 132.099 6.0924 -0.476374 0
M  V30 1466 C 133.097 6.72083 -1.21627 0
M  V30 1467 O 132.785 7.781 -2.02028 0
M  V30 1468 H 132.517 0.655818 0.163947 0
M  V30 1469 H 135.071 2.04807 -0.156021 0
M  V30 1470 H 133.301 3.24733 2.09966 0
M  V30 1471 H 134.99 3.60037 1.87424 0
M  V30 1472 H 135.756 4.84211 -0.276459 0
M  V30 1473 H 131.635 4.51996 0.90668 0
M  V30 1474 H 135.179 6.7608 -1.71935 0
M  V30 1475 H 131.076 6.43329 -0.528927 0
M  V30 1476 H 131.844 7.95034 -1.94586 0
M  V30 1477 N 134.507 -0.190092 1.56449 0
M  V30 1478 C 135.753 -0.911052 1.81184 0
M  V30 1479 C 136.086 -1.82699 0.658396 0
M  V30 1480 O 135.361 -1.91491 -0.340775 0
M  V30 1481 C 135.644 -1.72297 3.16205 0
M  V30 1482 C 135.497 -0.831419 4.42049 0
M  V30 1483 C 136.816 -2.69454 3.47969 0
M  V30 1484 H 133.935 -0.32977 0.659106 0
M  V30 1485 H 136.577 -0.178169 1.89163 0
M  V30 1486 H 134.727 -2.34778 3.09534 0
M  V30 1487 H 136.399 -0.220929 4.60771 0
M  V30 1488 H 134.642 -0.138406 4.33579 0
M  V30 1489 H 135.313 -1.43461 5.33032 0
M  V30 1490 H 137.789 -2.17104 3.54972 0
M  V30 1491 H 136.665 -3.23342 4.43555 0
M  V30 1492 H 136.926 -3.48744 2.71717 0
M  V30 1493 N 135.985 -1.50799 -0.457987 0
M  V30 1494 C 137.234 -1.6168 -1.20593 0
M  V30 1495 C 137.547 -0.32888 -1.92815 0
M  V30 1496 O 138.753 -0.316773 -2.69646 0
M  V30 1497 C 137.209 -2.8545 -2.19195 0
M  V30 1498 C 136.817 -4.21168 -1.52715 0
M  V30 1499 C 138.561 -3.05681 -2.94549 0
M  V30 1500 C 136.468 -5.3611 -2.4968 0
M  V30 1501 H 135.398 -0.602134 -0.453818 0
M  V30 1502 H 138.049 -1.77245 -0.475031 0
M  V30 1503 H 136.431 -2.63472 -2.95632 0
M  V30 1504 H 137.605 -4.53449 -0.819775 0
M  V30 1505 H 135.92 -4.06648 -0.895922 0
M  V30 1506 H 138.517 -3.88727 -3.67145 0
M  V30 1507 H 138.86 -2.17929 -3.54701 0
M  V30 1508 H 139.393 -3.27901 -2.25223 0
M  V30 1509 H 136.132 -6.26057 -1.94249 0
M  V30 1510 H 135.652 -5.0823 -3.18532 0
M  V30 1511 H 137.331 -5.6722 -3.11241 0
M  V30 1512 N 137.463 0.71206 -1.40597 0
M  V30 1513 C 138.879 1.02058 -1.22704 0
M  V30 1514 C 139.079 2.01228 -0.104729 0
M  V30 1515 O 138.135 2.4674 0.53624 0
M  V30 1516 C 139.448 1.56094 -2.57012 0
M  V30 1517 C 140.996 1.6806 -2.64054 0
M  V30 1518 C 141.471 2.25501 -3.9864 0
M  V30 1519 N 142.962 2.32882 -4.004 0
M  V30 1520 C 143.697 2.78317 -5.01325 0
M  V30 1521 N 143.193 3.23478 -6.12645 0
M  V30 1522 N 144.986 2.77733 -4.88693 0
M  V30 1523 H 137.137 0.0547896 -2.12329 0
M  V30 1524 H 139.4 0.0869027 -0.944008 0
M  V30 1525 H 139.106 0.906865 -3.39807 0
M  V30 1526 H 138.98 2.54564 -2.78347 0
M  V30 1527 H 141.367 2.32583 -1.81629 0
M  V30 1528 H 141.448 0.681802 -2.46546 0
M  V30 1529 H 141.092 1.61598 -4.81506 0
M  V30 1530 H 141.022 3.26102 -4.13479 0
M  V30 1531 H 143.513 2.00991 -3.20017 0
M  V30 1532 H 143.826 3.56725 -6.85542 0
M  V30 1533 H 142.171 3.21429 -6.16205 0
M  V30 1534 H 145.362 2.4179 -4.00818 0
M  V30 1535 H 145.535 3.12826 -5.67489 0
M  V30 1536 N 138.941 1.26152 0.944643 0
M  V30 1537 C 140.166 1.14363 1.7302 0
M  V30 1538 C 140.591 -0.29772 1.85729 0
M  V30 1539 O 139.949 -1.2157 1.34501 0
M  V30 1540 C 139.997 1.81378 3.11664 0
M  V30 1541 O 139.101 1.10022 3.97453 0
M  V30 1542 H 138.442 0.398694 0.53098 0
M  V30 1543 H 140.972 1.66906 1.18337 0
M  V30 1544 H 140.982 1.88064 3.62072 0
M  V30 1545 H 139.657 2.86237 3.0173 0
M  V30 1546 H 138.234 1.11287 3.55907 0
M  V30 1547 N 140.419 -1.14872 1.07899 0
M  V30 1548 C 141.696 -1.81928 0.71845 0
M  V30 1549 C 142.076 -1.95417 -0.798455 0
M  V30 1550 O 141.424 -1.50997 -1.715 0
M  V30 1551 C 141.634 -3.17937 1.43935 0
M  V30 1552 C 142.982 -3.93501 1.59506 0
M  V30 1553 O 144.006 -3.27509 1.40058 0
M  V30 1554 O 142.865 -5.1183 1.91551 0
M  V30 1555 H 139.959 -0.78628 0.256305 0
M  V30 1556 H 142.505 -1.21934 1.18026 0
M  V30 1557 H 141.277 -3.0325 2.47295 0
M  V30 1558 H 140.9 -3.85619 0.968687 0
M  V30 1559 N 141.898 -0.863906 -1.31812 0
M  V30 1560 C 143.144 -0.472535 -1.97218 0
M  V30 1561 C 143.477 0.971394 -1.68159 0
M  V30 1562 O 142.752 1.68309 -0.974798 0
M  V30 1563 C 143.035 -0.723054 -3.52766 0
M  V30 1564 C 142.888 -2.21608 -3.91421 0
M  V30 1565 C 144.207 -0.185522 -4.39709 0
M  V30 1566 H 141.326 -0.173158 -0.71637 0
M  V30 1567 H 143.968 -1.08403 -1.56041 0
M  V30 1568 H 142.118 -0.202577 -3.87971 0
M  V30 1569 H 143.79 -2.80334 -3.66347 0
M  V30 1570 H 142.033 -2.691 -3.40246 0
M  V30 1571 H 142.704 -2.34203 -4.99853 0
M  V30 1572 H 145.18 -0.630726 -4.11292 0
M  V30 1573 H 144.056 -0.390306 -5.47511 0
M  V30 1574 H 144.317 0.912229 -4.32586 0
M  V30 1575 N 143.376 1.44774 -0.622745 0
M  V30 1576 C 144.653 1.95522 -0.0551974 0
M  V30 1577 C 145.033 1.5649 1.41683 0
M  V30 1578 O 144.381 0.834848 2.12703 0
M  V30 1579 C 144.591 3.4796 -0.269242 0
M  V30 1580 C 145.939 4.24306 -0.158014 0
M  V30 1581 O 146.963 3.55637 -0.200162 0
M  V30 1582 O 145.822 5.46471 -0.0558693 0
M  V30 1583 H 142.916 0.826556 0.0271015 0
M  V30 1584 H 145.462 1.54866 -0.693864 0
M  V30 1585 H 144.234 3.6939 -1.29099 0
M  V30 1586 H 143.857 3.95543 0.403966 0
M  V30 1587 N 144.854 0.36279 1.53368 0
M  V30 1588 C 146.131 -0.284021 1.93527 0
M  V30 1589 C 146.511 -1.66628 1.29608 0
M  V30 1590 O 145.859 -2.23942 0.45413 0
M  V30 1591 C 146.069 -0.337028 3.47369 0
M  V30 1592 C 147.417 -0.578708 4.20638 0
M  V30 1593 O 148.441 -0.418352 3.53735 0
M  V30 1594 O 147.3 -0.89074 5.39192 0
M  V30 1595 H 144.394 -0.169743 0.809393 0
M  V30 1596 H 146.94 0.41537 1.64538 0
M  V30 1597 H 145.712 0.632217 3.86159 0
M  V30 1598 H 145.335 -1.08243 3.82582 0
M  V30 1599 N 146.332 -1.57332 0.0918853 0
M  V30 1600 C 147.58 -1.93853 -0.571446 0
M  V30 1601 C 147.901 -0.974212 -1.6892 0
M  V30 1602 O 147.171 -0.0257254 -1.95883 0
M  V30 1603 H 145.751 -0.715666 -0.214082 0
M  V30 1604 H 148.413 -1.94287 0.154464 0
M  V30 1605 H 147.509 -2.96191 -0.983729 0
M  V30 1606 N 147.81 0.181792 -1.56548 0
M  V30 1607 C 149.221 0.745244 -1.71181 0
M  V30 1608 C 149.572 1.83262 -0.70068 0
M  V30 1609 O 148.697 2.15946 0.140154 0
M  V30 1610 C 149.292 1.35859 -3.10367 0
M  V30 1611 C 147.851 1.86898 -3.2672 0
M  V30 1612 C 146.998 0.743942 -2.67134 0
M  V30 1613 H 149.949 -0.0434661 -1.5864 0
M  V30 1614 H 149.97 2.22817 -3.08436 0
M  V30 1615 H 149.482 0.566948 -3.83937 0
M  V30 1616 H 147.583 2.68738 -2.5809 0
M  V30 1617 H 147.696 2.02162 -4.34359 0
M  V30 1618 H 146.06 1.16169 -2.26665 0
M  V30 1619 H 146.843 -0.035676 -3.43281 0
M  V30 1620 N 149.288 1.51039 0.449983 0
M  V30 1621 C 150.535 1.63081 1.20045 0
M  V30 1622 C 150.863 0.341024 1.91487 0
M  V30 1623 O 150.118 -0.674276 1.83717 0
M  V30 1624 C 150.417 2.77556 2.25161 0
M  V30 1625 C 150.083 4.17289 1.70823 0
M  V30 1626 C 148.745 4.55305 1.55725 0
M  V30 1627 C 151.097 5.04536 1.3074 0
M  V30 1628 C 148.425 5.78287 0.989999 0
M  V30 1629 C 150.777 6.28085 0.754482 0
M  V30 1630 C 149.441 6.64885 0.590308 0
M  V30 1631 H 148.711 0.596755 0.439277 0
M  V30 1632 H 151.358 1.85037 0.49333 0
M  V30 1633 H 149.663 2.49771 3.01863 0
M  V30 1634 H 151.36 2.84073 2.83026 0
M  V30 1635 H 147.95 3.8731 1.83546 0
M  V30 1636 H 152.134 4.75782 1.41229 0
M  V30 1637 H 147.39 6.05456 0.850451 0
M  V30 1638 H 151.564 6.95038 0.435324 0
M  V30 1639 H 149.191 7.60055 0.14862 0
M  V30 1640 N 150.766 -0.704594 1.40972 0
M  V30 1641 C 152.182 -1.01406 1.23244 0
M  V30 1642 C 152.382 -2.01169 0.115399 0
M  V30 1643 O 151.438 -2.47021 -0.523147 0
M  V30 1644 C 152.751 -1.54728 2.57836 0
M  V30 1645 C 154.299 -1.66658 2.64942 0
M  V30 1646 C 154.774 -2.23383 3.9983 0
M  V30 1647 N 156.265 -2.30756 4.01629 0
M  V30 1648 C 157 -2.75655 5.02794 0
M  V30 1649 N 156.496 -3.20225 6.14352 0
M  V30 1650 N 158.289 -2.75138 4.90159 0
M  V30 1651 H 150.44 -0.0435285 2.12355 0
M  V30 1652 H 152.703 -0.0818951 0.944456 0
M  V30 1653 H 152.409 -0.888832 3.40283 0
M  V30 1654 H 152.283 -2.53084 2.79693 0
M  V30 1655 H 154.67 -2.31617 1.8286 0
M  V30 1656 H 154.751 -0.668717 2.46904 0
M  V30 1657 H 154.395 -1.59043 4.82357 0
M  V30 1658 H 154.325 -3.23904 4.15203 0
M  V30 1659 H 156.816 -1.99291 3.21079 0
M  V30 1660 H 157.129 -3.53084 6.87424 0
M  V30 1661 H 155.474 -3.18156 6.17901 0
M  V30 1662 H 158.665 -2.39661 4.02095 0
M  V30 1663 H 158.838 -3.09812 5.6914 0
M  V30 1664 N 152.244 -1.26651 -0.937939 0
M  V30 1665 C 153.493 -1.11775 -1.67897 0
M  V30 1666 C 153.806 0.33794 -1.92659 0
M  V30 1667 O 155.012 0.607434 -2.64618 0
M  V30 1668 C 153.468 -1.9523 -3.02346 0
M  V30 1669 C 153.076 -3.45393 -2.8532 0
M  V30 1670 C 154.82 -1.88972 -3.80118 0
M  V30 1671 C 152.727 -4.21083 -4.15263 0
M  V30 1672 H 151.657 -0.414696 -0.629717 0
M  V30 1673 H 154.308 -1.50988 -1.04283 0
M  V30 1674 H 152.69 -1.48853 -3.66959 0
M  V30 1675 H 153.864 -3.99561 -2.29537 0
M  V30 1676 H 152.179 -3.52921 -2.20988 0
M  V30 1677 H 154.776 -2.42805 -4.76392 0
M  V30 1678 H 155.119 -0.86113 -4.07296 0
M  V30 1679 H 155.652 -2.33189 -3.22285 0
M  V30 1680 H 152.391 -5.24425 -3.93267 0
M  V30 1681 H 151.911 -3.71695 -4.70747 0
M  V30 1682 H 153.59 -4.29706 -4.83696 0
M  V30 1683 N 153.722 1.14298 -1.08507 0
M  V30 1684 C 154.952 1.88945 -0.835663 0
M  V30 1685 C 155.36 1.78894 0.615928 0
M  V30 1686 O 154.703 1.1468 1.43506 0
M  V30 1687 C 154.765 3.39585 -1.17994 0
M  V30 1688 C 154.429 3.7342 -2.63451 0
M  V30 1689 C 155.426 3.73454 -3.61702 0
M  V30 1690 C 153.111 4.03368 -2.99332 0
M  V30 1691 C 155.105 4.02961 -4.93864 0
M  V30 1692 C 152.792 4.32538 -4.31687 0
M  V30 1693 C 153.79 4.32318 -5.28763 0
M  V30 1694 O 153.478 4.6078 -6.58739 0
M  V30 1695 H 153.21 0.605307 -0.300965 0
M  V30 1696 H 155.764 1.45673 -1.44806 0
M  V30 1697 H 153.994 3.83315 -0.51055 0
M  V30 1698 H 155.683 3.9554 -0.911182 0
M  V30 1699 H 156.449 3.50403 -3.35325 0
M  V30 1700 H 152.328 4.02692 -2.24411 0
M  V30 1701 H 155.872 4.02704 -5.69627 0
M  V30 1702 H 151.769 4.55059 -4.57812 0
M  V30 1703 H 152.537 4.78492 -6.64069 0
M  V30 1704 N 155.201 0.870884 1.31352 0
M  V30 1705 C 156.45 0.478408 1.95944 0
M  V30 1706 C 156.763 -0.974493 1.69597 0
M  V30 1707 O 157.969 -1.47316 2.28058 0
M  V30 1708 C 156.425 0.804609 3.50791 0
M  V30 1709 C 156.033 2.27433 3.85977 0
M  V30 1710 C 157.777 0.480648 4.2177 0
M  V30 1711 C 155.684 2.5429 5.33939 0
M  V30 1712 H 154.614 0.175175 0.733369 0
M  V30 1713 H 157.265 1.06391 1.4951 0
M  V30 1714 H 155.647 0.148347 3.95722 0
M  V30 1715 H 156.821 2.97373 3.52002 0
M  V30 1716 H 155.136 2.56442 3.28065 0
M  V30 1717 H 157.733 0.658519 5.30629 0
M  V30 1718 H 158.076 -0.578979 4.12254 0
M  V30 1719 H 158.609 1.09349 3.82476 0
M  V30 1720 H 155.348 3.58939 5.48491 0
M  V30 1721 H 154.868 1.88945 5.69263 0
M  V30 1722 H 156.547 2.39066 6.01212 0
M  V30 1723 N 156.679 -1.44442 0.630414 0
M  V30 1724 C 157.928 -2.01267 0.132073 0
M  V30 1725 C 158.241 -1.50172 -1.25331 0
M  V30 1726 O 159.447 -1.9912 -1.84562 0
M  V30 1727 C 157.903 -3.59422 0.185362 0
M  V30 1728 C 157.511 -4.19514 1.57201 0
M  V30 1729 C 159.255 -4.23724 -0.256553 0
M  V30 1730 C 157.162 -5.69891 1.58045 0
M  V30 1731 H 156.092 -0.752619 0.0456092 0
M  V30 1732 H 158.743 -1.65666 0.789106 0
M  V30 1733 H 157.125 -3.92318 -0.538759 0
M  V30 1734 H 158.299 -3.98156 2.31966 0
M  V30 1735 H 156.614 -3.67496 1.95795 0
M  V30 1736 H 159.211 -5.34019 -0.269767 0
M  V30 1737 H 159.554 -3.96013 -1.28372 0
M  V30 1738 H 160.087 -3.95629 0.41505 0
M  V30 1739 H 156.826 -6.02336 2.58597 0
M  V30 1740 H 156.346 -5.93373 0.875725 0
M  V30 1741 H 158.025 -6.33515 1.31408 0
M  V30 1742 N 158.157 -0.370918 -1.53173 0
M  V30 1743 C 159.405 0.216673 -2.00935 0
M  V30 1744 C 159.726 1.48845 -1.25977 0
M  V30 1745 O 158.996 1.92286 -0.374551 0
M  V30 1746 H 157.576 0.0830565 -0.742368 0
M  V30 1747 H 160.238 -0.49838 -1.8842 0
M  V30 1748 H 159.334 0.439893 -3.08984 0
M  V30 1749 N 159.635 1.57281 -0.100228 0
M  V30 1750 C 160.582 2.14305 0.856858 0
M  V30 1751 C 161.552 1.06296 1.27634 0
M  V30 1752 O 162.737 1.34109 1.35718 0
M  V30 1753 C 159.877 2.73184 2.10866 0
M  V30 1754 C 158.99 3.95442 1.73925 0
M  V30 1755 C 158.125 4.42468 2.93931 0
M  V30 1756 C 157.164 5.57303 2.5314 0
M  V30 1757 N 156.301 5.99158 3.65997 0
M  V30 1758 H 161.141 2.95772 0.363726 0
M  V30 1759 H 158.678 1.46139 0.167858 0
M  V30 1760 H 160.636 3.05442 2.84185 0
M  V30 1761 H 159.266 1.94437 2.57671 0
M  V30 1762 H 158.318 3.69464 0.905554 0
M  V30 1763 H 159.63 4.78769 1.39935 0
M  V30 1764 H 158.784 4.76537 3.75496 0
M  V30 1765 H 157.523 3.58052 3.31134 0
M  V30 1766 H 156.528 5.22857 1.70003 0
M  V30 1767 H 157.753 6.43471 2.17075 0
M  V30 1768 H 155.699 5.17687 4.02909 0
M  V30 1769 H 155.616 6.77295 3.35869 0
M  V30 1770 H 156.884 6.3786 4.48057 0
M  V30 1771 N 161.113 -0.173488 1.56642 0
M  V30 1772 C 162.341 -0.906095 1.86004 0
M  V30 1773 C 162.756 -1.75921 0.685355 0
M  V30 1774 O 162.113 -1.79198 -0.345578 0
M  V30 1775 C 162.164 -1.78462 3.14378 0
M  V30 1776 O 161.885 -0.965914 4.27319 0
M  V30 1777 C 163.386 -2.62707 3.57071 0
M  V30 1778 H 160.606 -0.263341 0.617165 0
M  V30 1779 H 163.15 -0.174236 2.03756 0
M  V30 1780 H 161.305 -2.46984 2.98459 0
M  V30 1781 H 161.719 -1.56655 5.00559 0
M  V30 1782 H 163.193 -3.19969 4.49804 0
M  V30 1783 H 163.67 -3.37472 2.81086 0
M  V30 1784 H 164.276 -1.99521 3.75595 0
M  V30 1785 N 162.591 -1.51276 -0.441967 0
M  V30 1786 C 163.868 -1.54252 -1.20273 0
M  V30 1787 C 164.248 -0.30408 -2.08898 0
M  V30 1788 O 163.596 0.711084 -2.17154 0
M  V30 1789 C 163.806 -2.85406 -2.00859 0
M  V30 1790 C 165.154 -3.37181 -2.58059 0
M  V30 1791 O 166.178 -2.86925 -2.11074 0
M  V30 1792 O 165.037 -4.24858 -3.43741 0
M  V30 1793 H 162.131 -0.619969 -0.547328 0
M  V30 1794 H 164.677 -1.63586 -0.451413 0
M  V30 1795 H 163.449 -3.67003 -1.35736 0
M  V30 1796 H 163.072 -2.79213 -2.83065 0
M  V30 1797 N 164.069 0.697108 -1.41344 0
M  V30 1798 C 165.032 1.79281 -1.42797 0
M  V30 1799 C 166.032 1.57607 -0.318837 0
M  V30 1800 O 167.222 1.64309 -0.578642 0
M  V30 1801 C 164.354 3.17632 -1.23785 0
M  V30 1802 H 165.547 1.79385 -2.40335 0
M  V30 1803 H 163.1 0.904582 -1.27464 0
M  V30 1804 H 163.835 3.23167 -0.270814 0
M  V30 1805 H 163.62 3.34765 -2.04144 0
M  V30 1806 H 165.11 3.97617 -1.27633 0
M  V30 1807 N 165.547 1.27147 0.931209 0
M  V30 1808 C 166.795 1.13055 1.6752 0
M  V30 1809 C 167.116 -0.324791 1.92276 0
M  V30 1810 O 166.386 -1.22775 1.52654 0
M  V30 1811 H 164.966 0.415391 0.620854 0
M  V30 1812 H 167.628 1.59623 1.11833 0
M  V30 1813 H 166.724 1.65694 2.64485 0
M  V30 1814 N 167.025 -1.13721 1.09112 0
M  V30 1815 C 168.271 -1.85198 0.826414 0
M  V30 1816 C 168.604 -1.83129 -0.646319 0
M  V30 1817 O 167.879 -1.2671 -1.47563 0
M  V30 1818 C 168.162 -3.33507 1.35812 0
M  V30 1819 C 168.015 -3.44108 2.89672 0
M  V30 1820 C 169.334 -4.28838 0.989256 0
M  V30 1821 H 166.453 -0.67243 0.301675 0
M  V30 1822 H 169.095 -1.33499 1.35197 0
M  V30 1823 H 167.245 -3.77666 0.911082 0
M  V30 1824 H 168.917 -3.08684 3.428 0
M  V30 1825 H 167.16 -2.85087 3.26967 0
M  V30 1826 H 167.831 -4.48388 3.21951 0
M  V30 1827 H 170.307 -3.92734 1.37475 0
M  V30 1828 H 169.183 -5.31051 1.38838 0
M  V30 1829 H 169.444 -4.4198 -0.102924 0
M  V30 1830 N 168.503 -0.877838 -1.30888 0
M  V30 1831 C 169.433 -0.35534 -2.3078 0
M  V30 1832 C 170.414 0.557994 -1.60687 0
M  V30 1833 O 171.599 0.473355 -1.88343 0
M  V30 1834 C 168.729 0.437221 -3.44537 0
M  V30 1835 C 167.683 -0.383715 -4.26276 0
M  V30 1836 C 167.009 0.535014 -5.32017 0
M  V30 1837 C 168.309 -1.62201 -4.96476 0
M  V30 1838 H 170.003 -1.19007 -2.74732 0
M  V30 1839 H 167.549 -0.573698 -1.32078 0
M  V30 1840 H 169.502 0.813334 -4.13477 0
M  V30 1841 H 168.226 1.30553 -2.99372 0
M  V30 1842 H 166.885 -0.741874 -3.59015 0
M  V30 1843 H 166.533 1.40083 -4.831 0
M  V30 1844 H 166.233 -0.0104211 -5.87599 0
M  V30 1845 H 167.757 0.907799 -6.03814 0
M  V30 1846 H 169.171 -1.31689 -5.5797 0
M  V30 1847 H 167.568 -2.10711 -5.61891 0
M  V30 1848 H 168.638 -2.37044 -4.23011 0
M  V30 1849 N 169.982 1.44106 -0.638065 0
M  V30 1850 C 171.212 2.06037 -0.152394 0
M  V30 1851 C 171.62 1.47808 1.18108 0
M  V30 1852 O 170.963 0.598092 1.73691 0
M  V30 1853 C 171.025 3.59488 0.0293714 0
M  V30 1854 C 170.689 4.4022 -1.22702 0
M  V30 1855 C 171.686 4.73256 -2.15232 0
M  V30 1856 C 169.371 4.8048 -1.46437 0
M  V30 1857 C 171.365 5.45444 -3.29802 0
M  V30 1858 C 169.052 5.52417 -2.61303 0
M  V30 1859 C 170.05 5.84819 -3.52811 0
M  V30 1860 O 169.738 6.55289 -4.65673 0
M  V30 1861 H 169.47 0.671233 -0.0801401 0
M  V30 1862 H 172.024 1.85851 -0.874563 0
M  V30 1863 H 170.254 3.78191 0.806758 0
M  V30 1864 H 171.943 4.03164 0.470475 0
M  V30 1865 H 172.709 4.42684 -1.98131 0
M  V30 1866 H 168.588 4.54676 -0.760977 0
M  V30 1867 H 172.132 5.70653 -4.01249 0
M  V30 1868 H 168.029 5.82404 -2.78344 0
M  V30 1869 H 168.797 6.73762 -4.64744 0
M  V30 1870 N 171.46 0.379036 1.52974 0
M  V30 1871 C 172.708 -0.206014 2.01047 0
M  V30 1872 C 173.029 -1.48175 1.26765 0
M  V30 1873 O 172.299 -1.92085 0.384743 0
M  V30 1874 H 170.879 -0.0791184 0.742798 0
M  V30 1875 H 173.541 0.508366 1.88153 0
M  V30 1876 H 172.637 -0.423501 3.09213 0
M  V30 1877 N 172.938 -1.57226 0.108567 0
M  V30 1878 C 174.184 -1.95121 -0.552761 0
M  V30 1879 C 174.517 -0.991345 -1.66991 0
M  V30 1880 O 173.792 -0.0267211 -1.94482 0
M  V30 1881 C 174.075 -3.43039 -1.09528 0
M  V30 1882 C 173.928 -4.49797 0.0177332 0
M  V30 1883 C 175.247 -3.92567 -1.98945 0
M  V30 1884 H 172.366 -0.709496 -0.199461 0
M  V30 1885 H 175.008 -1.89126 0.182011 0
M  V30 1886 H 173.158 -3.48279 -1.72146 0
M  V30 1887 H 174.83 -4.56661 0.652584 0
M  V30 1888 H 173.073 -4.284 0.682309 0
M  V30 1889 H 173.744 -5.50528 -0.402919 0
M  V30 1890 H 176.22 -3.89565 -1.46214 0
M  V30 1891 H 175.096 -4.96605 -2.33827 0
M  V30 1892 H 175.357 -3.32648 -2.91201 0
M  V30 1893 N 174.416 0.165178 -1.56732 0
M  V30 1894 C 175.663 0.880807 -1.8234 0
M  V30 1895 C 175.991 1.81977 -0.686621 0
M  V30 1896 O 175.246 1.92971 0.325697 0
M  V30 1897 C 175.545 1.70405 -3.1416 0
M  V30 1898 C 175.211 0.913475 -4.4155 0
M  V30 1899 C 173.873 0.695303 -4.7615 0
M  V30 1900 C 176.225 0.359349 -5.1996 0
M  V30 1901 C 173.553 -0.0879947 -5.86634 0
M  V30 1902 C 175.905 -0.410893 -6.31264 0
M  V30 1903 C 174.569 -0.639808 -6.64427 0
M  V30 1904 H 173.839 0.32231 -0.667231 0
M  V30 1905 H 176.486 0.145402 -1.90947 0
M  V30 1906 H 174.791 2.50903 -3.00923 0
M  V30 1907 H 176.488 2.26091 -3.31186 0
M  V30 1908 H 173.078 1.09357 -4.14414 0
M  V30 1909 H 177.262 0.515228 -4.93618 0
M  V30 1910 H 172.518 -0.27503 -6.10781 0
M  V30 1911 H 176.692 -0.847494 -6.91224 0
M  V30 1912 H 174.319 -1.24864 -7.49875 0
M  V30 1913 N 175.894 1.51508 0.433938 0
M  V30 1914 C 176.844 1.69451 1.52546 0
M  V30 1915 C 177.828 0.548474 1.51263 0
M  V30 1916 O 179.02 0.804529 1.57659 0
M  V30 1917 C 176.149 1.82604 2.90707 0
M  V30 1918 C 175.235 3.03002 2.96733 0
M  V30 1919 N 175.626 4.26121 2.72496 0
M  V30 1920 C 173.924 3.02327 3.27894 0
M  V30 1921 C 174.625 5.07407 2.84452 0
M  V30 1922 N 173.601 4.42126 3.16269 0
M  V30 1923 H 177.403 2.62305 1.32564 0
M  V30 1924 H 174.917 1.49202 0.641297 0
M  V30 1925 H 176.914 1.93569 3.69238 0
M  V30 1926 H 175.574 0.909339 3.11707 0
M  V30 1927 H 176.585 4.55009 2.4736 0
M  V30 1928 H 173.262 2.20301 3.54646 0
M  V30 1929 H 174.652 6.15422 2.69639 0
M  V30 1930 N 177.372 -0.689602 1.41712 0
M  V30 1931 C 178.619 -1.44966 1.4139 0
M  V30 1932 C 178.947 -1.94484 0.025105 0
M  V30 1933 O 178.202 -1.70307 -0.964048 0
M  V30 1934 C 178.501 -2.67298 2.37247 0
M  V30 1935 C 178.167 -2.36405 3.83958 0
M  V30 1936 C 176.829 -2.27691 4.23923 0
M  V30 1937 C 179.181 -2.11043 4.76561 0
M  V30 1938 C 176.509 -1.91719 5.54492 0
M  V30 1939 C 178.861 -1.76578 6.07456 0
M  V30 1940 C 177.525 -1.66363 6.46436 0
M  V30 1941 H 176.795 -0.53047 0.517381 0
M  V30 1942 H 179.442 -0.787655 1.74552 0
M  V30 1943 H 177.747 -3.38461 1.9736 0
M  V30 1944 H 179.444 -3.25452 2.34269 0
M  V30 1945 H 176.034 -2.44085 3.52308 0
M  V30 1946 H 180.218 -2.16717 4.46483 0
M  V30 1947 H 175.474 -1.82367 5.83568 0
M  V30 1948 H 179.648 -1.55974 6.78708 0
M  V30 1949 H 177.275 -1.38258 7.47522 0
M  V30 1950 N 178.85 -1.27639 -0.924453 0
M  V30 1951 C 179.78 -1.13166 -2.04244 0
M  V30 1952 C 180.761 -0.032256 -1.70069 0
M  V30 1953 O 181.946 -0.207328 -1.9309 0
M  V30 1954 C 179.076 -0.781496 -3.38393 0
M  V30 1955 C 178.03 -1.83449 -3.86692 0
M  V30 1956 C 177.356 -1.33822 -5.17683 0
M  V30 1957 C 178.656 -3.23917 -4.09726 0
M  V30 1958 H 180.35 -2.06689 -2.1661 0
M  V30 1959 H 177.896 -0.995136 -1.04082 0
M  V30 1960 H 179.849 -0.667057 -4.16087 0
M  V30 1961 H 178.573 0.189439 -3.2605 0
M  V30 1962 H 177.232 -1.93789 -3.11193 0
M  V30 1963 H 176.88 -0.35665 -5.01734 0
M  V30 1964 H 176.58 -2.04224 -5.50968 0
M  V30 1965 H 178.104 -1.23679 -5.97943 0
M  V30 1966 H 179.518 -3.16559 -4.77978 0
M  V30 1967 H 177.915 -3.92059 -4.54324 0
M  V30 1968 H 178.985 -3.68729 -3.14908 0
M  V30 1969 N 180.328 1.1314 -1.09713 0
M  V30 1970 C 181.744 1.36477 -0.827423 0
M  V30 1971 C 181.944 1.93654 0.556817 0
M  V30 1972 O 181 2.15791 1.31112 0
M  V30 1973 C 182.313 2.31334 -1.92106 0
M  V30 1974 C 183.861 2.44943 -1.94864 0
M  V30 1975 C 184.336 3.4311 -3.0338 0
M  V30 1976 N 185.827 3.50662 -3.02639 0
M  V30 1977 C 186.562 4.2651 -3.83246 0
M  V30 1978 N 186.058 5.05485 -4.73768 0
M  V30 1979 N 187.851 4.2184 -3.71493 0
M  V30 1980 H 180.002 0.743807 -1.9895 0
M  V30 1981 H 182.265 0.389823 -0.864143 0
M  V30 1982 H 181.971 1.96483 -2.91698 0
M  V30 1983 H 181.845 3.31381 -1.80184 0
M  V30 1984 H 184.232 2.79079 -0.959099 0
M  V30 1985 H 184.313 1.4481 -2.10864 0
M  V30 1986 H 183.957 3.09704 -4.02549 0
M  V30 1987 H 183.887 4.43055 -2.84622 0
M  V30 1988 H 186.378 2.94315 -2.37039 0
M  V30 1989 H 186.691 5.60675 -5.3185 0
M  V30 1990 H 185.036 5.04708 -4.77802 0
M  V30 1991 H 188.227 3.5922 -3.00131 0
M  V30 1992 H 188.4 4.80697 -4.3455 0
M  V30 1993 N 181.806 0.884767 1.30421 0
M  V30 1994 C 182.736 0.367574 2.30589 0
M  V30 1995 C 183.717 -0.549464 1.60981 0
M  V30 1996 O 184.902 -0.46336 1.88591 0
M  V30 1997 C 182.032 -0.418944 3.44764 0
M  V30 1998 C 180.986 0.406316 4.26067 0
M  V30 1999 C 180.312 -0.506793 5.32293 0
M  V30 2000 C 181.612 1.64832 4.95608 0
M  V30 2001 H 183.306 1.20462 2.74097 0
M  V30 2002 H 180.852 0.580695 1.31772 0
M  V30 2003 H 182.805 -0.791395 4.13902 0
M  V30 2004 H 181.529 -1.28964 3.0006 0
M  V30 2005 H 180.188 0.760903 3.58617 0
M  V30 2006 H 179.836 -1.37519 4.83836 0
M  V30 2007 H 179.536 0.0415828 5.87585 0
M  V30 2008 H 181.06 -0.875764 6.04287 0
M  V30 2009 H 182.474 1.34646 5.57264 0
M  V30 2010 H 180.871 2.13688 5.60765 0
M  V30 2011 H 181.941 2.39284 4.21748 0
M  V30 2012 N 183.284 -1.43765 0.645699 0
M  V30 2013 C 184.214 -2.33471 -0.0370477 0
M  V30 2014 C 185.195 -1.49042 -0.819779 0
M  V30 2015 O 186.38 -1.77726 -0.782758 0
M  V30 2016 C 183.51 -3.32311 -1.0093 0
M  V30 2017 C 182.464 -4.2667 -0.337201 0
M  V30 2018 C 181.79 -5.1549 -1.42037 0
M  V30 2019 C 183.09 -5.16657 0.765706 0
M  V30 2020 H 184.784 -2.90809 0.712069 0
M  V30 2021 H 182.33 -1.39834 0.343876 0
M  V30 2022 H 184.283 -3.9396 -1.49578 0
M  V30 2023 H 183.007 -2.73213 -1.78948 0
M  V30 2024 H 181.666 -3.66374 0.128771 0
M  V30 2025 H 181.314 -4.52735 -2.1918 0
M  V30 2026 H 181.014 -5.79438 -0.975966 0
M  V30 2027 H 182.538 -5.80012 -1.90838 0
M  V30 2028 H 183.952 -5.72158 0.361702 0
M  V30 2029 H 182.349 -5.89286 1.13413 0
M  V30 2030 H 183.419 -4.56796 1.62683 0
M  V30 2031 N 184.763 -0.387143 -1.52771 0
M  V30 2032 C 185.695 0.484089 -2.2403 0
M  V30 2033 C 186.708 1.02849 -1.26198 0
M  V30 2034 O 187.897 0.931186 -1.52286 0
M  V30 2035 C 184.997 1.68337 -2.94136 0
M  V30 2036 C 184.17 1.26672 -4.18656 0
M  V30 2037 C 183.229 2.33045 -4.7178 0
M  V30 2038 O 182.255 1.94541 -5.34923 0
M  V30 2039 N 183.457 3.64929 -4.5145 0
M  V30 2040 H 186.222 -0.126404 -2.99433 0
M  V30 2041 H 183.783 -0.213392 -1.60488 0
M  V30 2042 H 185.775 2.39019 -3.26577 0
M  V30 2043 H 184.345 2.20025 -2.22053 0
M  V30 2044 H 183.565 0.388878 -3.92277 0
M  V30 2045 H 184.853 0.964964 -4.99566 0
M  V30 2046 H 184.251 3.98974 -4.01044 0
M  V30 2047 H 182.808 4.31651 -4.88386 0
M  V30 2048 N 186.241 1.57166 -0.116904 0
M  V30 2049 C 187.174 2.10912 0.871291 0
M  V30 2050 C 188.152 1.025 1.26224 0
M  V30 2051 O 189.336 1.3014 1.36366 0
M  V30 2052 C 186.463 2.6041 2.16574 0
M  V30 2053 C 185.509 3.80687 1.92302 0
M  V30 2054 S 186.342 5.23199 1.14119 0
M  V30 2055 C 187.498 5.76064 2.44748 0
M  V30 2056 H 187.731 2.94401 0.414138 0
M  V30 2057 H 185.264 1.54096 0.096829 0
M  V30 2058 H 187.222 2.89583 2.9095 0
M  V30 2059 H 185.883 1.77106 2.59408 0
M  V30 2060 H 185.076 4.13462 2.8821 0
M  V30 2061 H 184.678 3.5212 1.26047 0
M  V30 2062 H 186.97 5.8566 3.406 0
M  V30 2063 H 187.913 6.74184 2.16521 0
M  V30 2064 H 188.321 5.04117 2.54019 0
M  V30 2065 N 187.719 -0.156864 1.56817 0
M  V30 2066 C 188.967 -0.869404 1.82444 0
M  V30 2067 C 189.288 -1.82147 0.69623 0
M  V30 2068 O 188.558 -1.93847 -0.28287 0
M  V30 2069 H 187.138 -0.324043 0.673056 0
M  V30 2070 H 189.8 -0.153224 1.94297 0
M  V30 2071 H 188.896 -1.43761 2.77019 0
M  V30 2072 N 189.197 -1.51736 -0.425897 0
M  V30 2073 C 190.107 -1.76738 -1.54275 0
M  V30 2074 C 191.123 -0.65211 -1.61318 0
M  V30 2075 O 192.299 -0.935654 -1.78346 0
M  V30 2076 C 189.364 -1.89755 -2.90162 0
M  V30 2077 C 188.425 -3.13633 -2.93143 0
M  V30 2078 C 187.658 -3.2602 -4.22548 0
M  V30 2079 O 187.881 -2.44067 -5.15546 0
M  V30 2080 O 186.815 -4.19071 -4.32046 0
M  V30 2081 H 190.641 -2.71502 -1.36089 0
M  V30 2082 H 188.226 -1.36376 -0.610069 0
M  V30 2083 H 190.108 -2.00236 -3.70788 0
M  V30 2084 H 188.783 -0.981785 -3.08452 0
M  V30 2085 H 187.69 -3.08622 -2.11431 0
M  V30 2086 H 189.023 -4.04936 -2.798 0
M  V30 2087 N 190.675 0.682077 -1.42076 0
M  V30 2088 C 191.623 1.81707 -1.45208 0
M  V30 2089 C 192.617 1.66183 -0.328591 0
M  V30 2090 O 193.823 1.7288 -0.501264 0
M  V30 2091 H 190.198 0.599014 -0.454628 0
M  V30 2092 H 192.169 1.76183 -2.40836 0
M  V30 2093 C 190.918 3.19816 -1.36428 0
M  V30 2094 H 190.241 3.32385 -2.22171 0
M  V30 2095 H 191.681 3.99272 -1.42681 0
M  V30 2096 C 190.14 3.36809 -0.078191 0
M  V30 2097 O 190.67 3.92124 0.87188 0
M  V30 2098 N 188.876 2.906 0.00229266 0
M  V30 2099 H 188.423 2.45772 -0.771616 0
M  V30 2100 H 188.381 3.02347 0.862179 0
M  V30 2101 N 192.153 1.28127 0.917671 0
M  V30 2102 C 193.402 1.14432 1.66097 0
M  V30 2103 C 193.715 -0.307247 1.93172 0
M  V30 2104 O 194.921 -0.565259 2.65551 0
M  V30 2105 C 193.377 2.00015 2.99202 0
M  V30 2106 C 192.985 3.49889 2.79789 0
M  V30 2107 C 194.729 1.94996 3.77064 0
M  V30 2108 C 192.636 4.27636 4.08511 0
M  V30 2109 H 191.566 0.424662 0.62304 0
M  V30 2110 H 194.217 1.52628 1.01868 0
M  V30 2111 H 192.599 1.54672 3.64544 0
M  V30 2112 H 193.773 4.03162 2.23152 0
M  V30 2113 H 192.088 3.56392 2.15345 0
M  V30 2114 H 194.685 2.50354 4.72469 0
M  V30 2115 H 195.028 0.925819 4.05875 0
M  V30 2116 H 195.561 2.38287 3.18534 0
M  V30 2117 H 192.3 5.30615 3.84874 0
M  V30 2118 H 191.82 3.79137 4.64774 0
M  V30 2119 H 193.499 4.37346 4.76799 0
M  V30 2120 N 193.631 -1.12557 1.10312 0
M  V30 2121 C 194.594 -2.16434 0.75424 0
M  V30 2122 C 195.594 -1.59278 -0.220685 0
M  V30 2123 O 196.784 -1.742 0.00230591 0
M  V30 2124 C 193.916 -3.40699 0.116987 0
M  V30 2125 H 195.109 -2.48811 1.67431 0
M  V30 2126 H 192.662 -1.27542 0.903475 0
M  V30 2127 H 193.397 -3.13921 -0.813877 0
M  V30 2128 H 193.182 -3.83459 0.818613 0
M  V30 2129 H 194.672 -4.17451 -0.111387 0
M  V30 2130 N 195.109 -0.891671 -1.2995 0
M  V30 2131 C 196.041 -0.320695 -2.26945 0
M  V30 2132 C 197.054 0.528497 -1.53983 0
M  V30 2133 O 198.243 0.346959 -1.75096 0
M  V30 2134 C 195.343 0.562066 -3.34207 0
M  V30 2135 C 194.516 -0.259576 -4.36629 0
M  V30 2136 C 193.575 0.554739 -5.23268 0
M  V30 2137 O 192.601 -0.0249311 -5.69195 0
M  V30 2138 N 193.803 1.8625 -5.4981 0
M  V30 2139 H 196.568 -1.15432 -2.76578 0
M  V30 2140 H 194.129 -0.755336 -1.432 0
M  V30 2141 H 196.121 1.11304 -3.89093 0
M  V30 2142 H 194.691 1.29637 -2.84452 0
M  V30 2143 H 193.911 -0.991986 -3.81514 0
M  V30 2144 H 195.199 -0.822564 -5.02107 0
M  V30 2145 H 194.597 2.35628 -5.14292 0
M  V30 2146 H 193.154 2.36078 -6.07545 0
M  V30 2147 N 196.587 1.43421 -0.653314 0
M  V30 2148 C 197.517 2.33487 0.0246656 0
M  V30 2149 C 198.498 1.49475 0.811863 0
M  V30 2150 O 199.683 1.78139 0.773322 0
M  V30 2151 C 196.813 3.32841 0.99166 0
M  V30 2152 C 195.767 4.26842 0.314568 0
M  V30 2153 C 195.093 5.16236 1.39302 0
M  V30 2154 C 196.393 5.16243 -0.793095 0
M  V30 2155 H 198.087 2.90427 -0.727481 0
M  V30 2156 H 195.633 1.39649 -0.351287 0
M  V30 2157 H 197.586 3.94747 1.47487 0
M  V30 2158 H 196.31 2.74158 1.77497 0
M  V30 2159 H 194.969 3.663 -0.148199 0
M  V30 2160 H 194.617 4.53891 2.16776 0
M  V30 2161 H 194.317 5.79948 0.945223 0
M  V30 2162 H 195.841 5.81015 1.87759 0
M  V30 2163 H 197.255 5.71958 -0.392039 0
M  V30 2164 H 195.652 5.88676 -1.16536 0
M  V30 2165 H 196.722 4.55927 -1.65103 0
M  V30 2166 N 198.065 0.39524 1.52563 0
M  V30 2167 C 199.29 -0.187456 2.06551 0
M  V30 2168 C 199.715 -1.39249 1.26457 0
M  V30 2169 O 199.073 -1.78947 0.291151 0
M  V30 2170 C 199.121 -0.529985 3.56684 0
M  V30 2171 O 198.225 -1.62307 3.79118 0
M  V30 2172 H 197.566 -0.0202537 0.663691 0
M  V30 2173 H 200.096 0.564426 1.96661 0
M  V30 2174 H 200.106 -0.792598 4.00227 0
M  V30 2175 H 198.781 0.350987 4.14416 0
M  V30 2176 H 197.358 -1.3537 3.47461 0
M  V30 2177 N 199.544 -1.57102 0.125237 0
M  V30 2178 C 200.793 -1.94582 -0.531095 0
M  V30 2179 C 201.106 -1.01126 -1.6743 0
M  V30 2180 O 202.312 -1.28097 -2.39381 0
M  V30 2181 C 200.768 -3.45839 -0.996164 0
M  V30 2182 C 200.376 -4.47842 0.118926 0
M  V30 2183 C 202.12 -3.92227 -1.62352 0
M  V30 2184 C 200.027 -5.90284 -0.363192 0
M  V30 2185 H 198.957 -0.726391 -0.20217 0
M  V30 2186 H 201.608 -1.82339 0.206092 0
M  V30 2187 H 199.99 -3.53338 -1.78796 0
M  V30 2188 H 201.164 -4.52018 0.895358 0
M  V30 2189 H 199.479 -4.11243 0.653324 0
M  V30 2190 H 202.076 -4.96069 -1.99548 0
M  V30 2191 H 202.419 -3.32552 -2.50429 0
M  V30 2192 H 202.952 -3.87554 -0.897019 0
M  V30 2193 H 199.691 -6.53728 0.481679 0
M  V30 2194 H 199.211 -5.89515 -1.10597 0
M  V30 2195 H 200.89 -6.41752 -0.822377 0
M  V30 2196 N 201.022 0.148545 -1.56898 0
M  V30 2197 C 202.271 0.85984 -1.82454 0
M  V30 2198 C 202.584 1.82406 -0.706229 0
M  V30 2199 O 203.79 2.57938 -0.847349 0
M  V30 2200 C 202.246 1.57967 -3.2338 0
M  V30 2201 C 201.854 0.65794 -4.43142 0
M  V30 2202 C 203.598 2.27784 -3.58211 0
M  V30 2203 C 201.505 1.3793 -5.75091 0
M  V30 2204 H 200.435 0.324834 -0.68044 0
M  V30 2205 H 203.086 0.112588 -1.83154 0
M  V30 2206 H 201.468 2.37249 -3.17063 0
M  V30 2207 H 202.642 -0.0995497 -4.60692 0
M  V30 2208 H 200.957 0.0682643 -4.16344 0
M  V30 2209 H 203.554 2.8239 -4.54048 0
M  V30 2210 H 203.897 3.04204 -2.84193 0
M  V30 2211 H 204.43 1.55421 -3.66182 0
M  V30 2212 H 201.169 0.656982 -6.52199 0
M  V30 2213 H 200.689 2.10954 -5.61479 0
M  V30 2214 H 202.368 1.92063 -6.17835 0
M  V30 2215 N 202.5 1.5196 0.417844 0
M  V30 2216 C 203.41 1.77554 1.53336 0
M  V30 2217 C 204.426 0.660655 1.6097 0
M  V30 2218 O 205.602 0.945099 1.77848 0
M  V30 2219 C 202.667 1.91291 2.89152 0
M  V30 2220 C 201.728 3.15183 2.91475 0
M  V30 2221 C 200.961 3.28256 4.20813 0
M  V30 2222 O 201.184 2.46798 5.14244 0
M  V30 2223 O 200.118 4.21356 4.29817 0
M  V30 2224 H 203.944 2.7222 1.34647 0
M  V30 2225 H 201.529 1.36698 0.602828 0
M  V30 2226 H 203.411 2.02199 3.69721 0
M  V30 2227 H 202.086 0.998129 3.07927 0
M  V30 2228 H 200.993 3.09739 2.09791 0
M  V30 2229 H 202.326 4.06414 2.77648 0
M  V30 2230 N 203.978 -0.674533 1.42435 0
M  V30 2231 C 204.91 -1.80005 1.41883 0
M  V30 2232 C 205.923 -1.59667 0.31787 0
M  V30 2233 O 207.112 -1.68781 0.580973 0
M  V30 2234 C 204.212 -3.17114 1.19549 0
M  V30 2235 C 203.385 -3.64299 2.42084 0
M  V30 2236 C 202.444 -4.80142 2.15291 0
M  V30 2237 O 201.47 -4.90673 2.88493 0
M  V30 2238 N 202.672 -5.68869 1.1562 0
M  V30 2239 H 205.437 -1.80964 2.38898 0
M  V30 2240 H 202.998 -0.857633 1.37318 0
M  V30 2241 H 204.99 -3.92267 0.995417 0
M  V30 2242 H 203.56 -3.11053 0.310569 0
M  V30 2243 H 202.78 -2.79822 2.77657 0
M  V30 2244 H 204.068 -3.92567 3.23679 0
M  V30 2245 H 203.466 -5.63012 0.550765 0
M  V30 2246 H 202.023 -6.43833 1.016 0
M  V30 2247 N 205.456 -1.28612 -0.910864 0
M  V30 2248 C 206.867 -1.14406 -1.47541 0
M  V30 2249 C 207.218 0.264901 -1.94403 0
M  V30 2250 O 206.343 1.15942 -1.82719 0
M  V30 2251 C 206.938 -2.07073 -2.68153 0
M  V30 2252 C 205.497 -1.96923 -3.20778 0
M  V30 2253 C 204.644 -1.98646 -1.93481 0
M  V30 2254 H 207.595 -1.41259 -0.723291 0
M  V30 2255 H 207.616 -1.63642 -3.43514 0
M  V30 2256 H 207.128 -3.09611 -2.34015 0
M  V30 2257 H 205.229 -0.97433 -3.59635 0
M  V30 2258 H 205.342 -2.84026 -3.85832 0
M  V30 2259 H 203.706 -1.43093 -2.10705 0
M  V30 2260 H 204.489 -3.02868 -1.61634 0
M  V30 2261 N 206.934 1.1197 -1.10907 0
M  V30 2262 C 207.881 2.17846 -0.762345 0
M  V30 2263 C 208.851 1.63995 0.263599 0
M  V30 2264 O 210.036 1.90273 0.141773 0
M  V30 2265 C 207.176 3.44487 -0.205651 0
M  V30 2266 C 206.289 4.12369 -1.28748 0
M  V30 2267 C 205.424 5.26674 -0.691919 0
M  V30 2268 C 204.463 5.86431 -1.75399 0
M  V30 2269 N 203.6 6.92142 -1.17833 0
M  V30 2270 H 208.44 2.46851 -1.6694 0
M  V30 2271 H 205.977 1.21188 -0.833776 0
M  V30 2272 H 207.935 4.16981 0.135037 0
M  V30 2273 H 206.565 3.15884 0.664613 0
M  V30 2274 H 205.617 3.38003 -1.74522 0
M  V30 2275 H 206.929 4.52844 -2.09125 0
M  V30 2276 H 206.083 6.05953 -0.300963 0
M  V30 2277 H 204.822 4.8749 0.143232 0
M  V30 2278 H 203.827 5.05835 -2.15432 0
M  V30 2279 H 205.052 6.27685 -2.59208 0
M  V30 2280 H 202.998 6.54985 -0.364725 0
M  V30 2281 H 202.915 7.31242 -1.91887 0
M  V30 2282 H 204.183 7.75237 -0.81408 0
M  V30 2283 N 208.412 0.89855 1.29475 0
M  V30 2284 C 209.36 0.365253 2.29714 0
M  V30 2285 C 210.354 -0.534993 1.6073 0
M  V30 2286 O 211.56 -0.417921 1.75081 0
M  V30 2287 H 207.935 0.0994853 0.74539 0
M  V30 2288 H 209.906 1.22406 2.72138 0
M  V30 2289 C 208.655 -0.393159 3.4547 0
M  V30 2290 H 207.978 0.290332 3.98744 0
M  V30 2291 H 209.418 -0.731189 4.17648 0
M  V30 2292 C 207.877 -1.59539 2.9673 0
M  V30 2293 O 208.407 -2.69469 2.97908 0
M  V30 2294 N 206.613 -1.43716 2.52575 0
M  V30 2295 H 206.16 -0.542828 2.51816 0
M  V30 2296 H 206.118 -2.24288 2.20323 0
M  V30 2297 N 209.89 -1.43072 0.660911 0
M  V30 2298 C 211.306 -1.56169 0.329173 0
M  V30 2299 C 211.506 -1.64317 -1.16629 0
M  V30 2300 O 210.562 -1.60245 -1.95135 0
M  V30 2301 C 211.875 -2.81873 1.04729 0
M  V30 2302 C 213.423 -2.95627 1.02828 0
M  V30 2303 C 213.898 -4.24174 1.72744 0
M  V30 2304 N 215.389 -4.31055 1.69545 0
M  V30 2305 C 216.124 -5.29304 2.20511 0
M  V30 2306 N 215.62 -6.33786 2.79799 0
M  V30 2307 N 217.413 -5.21008 2.10966 0
M  V30 2308 H 209.564 -1.36027 1.63127 0
M  V30 2309 H 211.827 -0.653823 0.686454 0
M  V30 2310 H 211.533 -2.81942 2.10242 0
M  V30 2311 H 211.407 -3.72338 0.603702 0
M  V30 2312 H 213.794 -2.95094 -0.0184742 0
M  V30 2313 H 213.875 -2.06431 1.51063 0
M  V30 2314 H 213.519 -4.25467 2.7738 0
M  V30 2315 H 213.449 -5.1228 1.2197 0
M  V30 2316 H 215.94 -3.56174 1.26288 0
M  V30 2317 H 216.253 -7.05086 3.16344 0
M  V30 2318 H 214.598 -6.34387 2.83863 0
M  V30 2319 H 217.789 -4.38301 1.64347 0
M  V30 2320 H 217.962 -5.97416 2.50993 0
M  V30 2321 N 211.368 -0.403325 -1.52352 0
M  V30 2322 C 212.298 0.416205 -2.29761 0
M  V30 2323 C 213.279 1.05123 -1.33728 0
M  V30 2324 O 214.464 1.06134 -1.62632 0
M  V30 2325 C 211.594 1.53624 -3.11475 0
M  V30 2326 C 210.548 1.02653 -4.15507 0
M  V30 2327 C 209.874 2.23971 -4.85532 0
M  V30 2328 C 211.174 0.08463 -5.22231 0
M  V30 2329 H 212.868 -0.229701 -2.98518 0
M  V30 2330 H 210.414 -0.111913 -1.43564 0
M  V30 2331 H 212.367 2.1165 -3.64393 0
M  V30 2332 H 211.091 2.20994 -2.40477 0
M  V30 2333 H 209.75 0.46871 -3.63591 0
M  V30 2334 H 209.398 2.89883 -4.11068 0
M  V30 2335 H 209.098 1.90521 -5.55856 0
M  V30 2336 H 210.622 2.82614 -5.41259 0
M  V30 2337 H 212.036 0.573509 -5.70424 0
M  V30 2338 H 210.433 -0.160783 -5.99885 0
M  V30 2339 H 211.503 -0.86237 -4.7717 0
M  V30 2340 N 212.846 1.57033 -0.133567 0
M  V30 2341 C 214.262 1.58035 0.222944 0
M  V30 2342 C 214.462 1.14713 1.6566 0
M  V30 2343 O 213.518 0.841218 2.38075 0
M  V30 2344 C 214.831 3.00691 -0.0236116 0
M  V30 2345 C 216.379 3.12973 0.0411512 0
M  V30 2346 C 216.854 4.57654 -0.177899 0
M  V30 2347 N 218.345 4.63033 -0.124365 0
M  V30 2348 C 219.08 5.72771 -0.268553 0
M  V30 2349 N 218.576 6.91206 -0.46972 0
M  V30 2350 N 220.369 5.61718 -0.2071 0
M  V30 2351 H 212.52 1.8349 -1.06981 0
M  V30 2352 H 214.783 0.848677 -0.422436 0
M  V30 2353 H 214.489 3.36726 -1.0153 0
M  V30 2354 H 214.363 3.70614 0.701808 0
M  V30 2355 H 216.75 2.76787 1.02338 0
M  V30 2356 H 216.831 2.45564 -0.716383 0
M  V30 2357 H 216.475 4.94542 -1.15717 0
M  V30 2358 H 216.405 5.23173 0.599797 0
M  V30 2359 H 218.896 3.7789 0.027011 0
M  V30 2360 H 219.209 7.70693 -0.570212 0
M  V30 2361 H 217.554 6.93156 -0.505876 0
M  V30 2362 H 220.745 4.68072 -0.0507986 0
M  V30 2363 H 220.918 6.47195 -0.322909 0
M  V30 2364 N 214.325 -0.140222 1.56975 0
M  V30 2365 C 215.258 -1.20266 1.93936 0
M  V30 2366 C 216.236 -1.41212 0.806099 0
M  V30 2367 O 217.42 -1.55713 1.06234 0
M  V30 2368 C 214.547 -2.56037 2.21726 0
M  V30 2369 C 213.593 -2.51646 3.44349 0
M  V30 2370 S 214.426 -1.97678 4.97678 0
M  V30 2371 C 215.582 -3.35165 5.28597 0
M  V30 2372 H 215.815 -0.887358 2.83749 0
M  V30 2373 H 213.348 -0.346119 1.50471 0
M  V30 2374 H 215.306 -3.34167 2.38416 0
M  V30 2375 H 213.967 -2.84755 1.32566 0
M  V30 2376 H 213.16 -3.51608 3.61092 0
M  V30 2377 H 212.762 -1.81628 3.26936 0
M  V30 2378 H 215.054 -4.31302 5.2248 0
M  V30 2379 H 215.997 -3.23269 6.30002 0
M  V30 2380 H 216.405 -3.32614 4.56101 0
M  V30 2381 N 215.803 -1.52179 -0.40978 0
M  V30 2382 C 217.052 -1.65434 -1.15388 0
M  V30 2383 C 217.365 -0.390056 -1.91671 0
M  V30 2384 O 218.571 -0.402399 -2.68501 0
M  V30 2385 C 217.027 -2.92279 -2.10003 0
M  V30 2386 C 216.635 -4.25813 -1.39239 0
M  V30 2387 C 218.379 -3.14897 -2.84675 0
M  V30 2388 C 216.286 -5.43782 -2.32498 0
M  V30 2389 H 215.216 -0.616267 -0.434432 0
M  V30 2390 H 217.867 -1.78666 -0.418401 0
M  V30 2391 H 216.249 -2.72744 -2.871 0
M  V30 2392 H 217.423 -4.55828 -0.675099 0
M  V30 2393 H 215.738 -4.09292 -0.766097 0
M  V30 2394 H 218.335 -4.0021 -3.54593 0
M  V30 2395 H 218.678 -2.29103 -3.47588 0
M  V30 2396 H 219.211 -3.34901 -2.14677 0
M  V30 2397 H 215.95 -6.3192 -1.74233 0
M  V30 2398 H 215.47 -5.18106 -3.02201 0
M  V30 2399 H 217.149 -5.76834 -2.93038 0
M  V30 2400 N 217.281 0.66697 -1.42791 0
M  V30 2401 C 218.229 1.80157 -1.47127 0
M  V30 2402 C 219.223 1.65825 -0.346199 0
M  V30 2403 O 220.429 1.72338 -0.519572 0
M  V30 2404 H 216.804 0.594158 -0.460956 0
M  V30 2405 H 218.775 1.73619 -2.42692 0
M  V30 2406 C 217.524 3.18351 -1.39813 0
M  V30 2407 H 216.847 3.3001 -2.25684 0
M  V30 2408 H 218.287 3.97736 -1.46908 0
M  V30 2409 C 216.746 3.36707 -0.11391 0
M  V30 2410 O 217.276 3.93027 0.830241 0
M  V30 2411 N 215.482 2.90586 -0.0285295 0
M  V30 2412 H 215.029 2.4494 -0.79764 0
M  V30 2413 H 214.987 3.03245 0.830063 0
M  V30 2414 N 218.759 1.29093 0.90403 0
M  V30 2415 C 219.709 1.10482 1.99443 0
M  V30 2416 C 220.693 0.0255401 1.6088 0
M  V30 2417 O 221.885 0.24677 1.75271 0
M  V30 2418 C 219.014 0.778882 3.34348 0
M  V30 2419 C 218.1 1.89749 3.79284 0
M  V30 2420 N 218.491 3.14045 3.96497 0
M  V30 2421 C 216.789 1.78955 4.08523 0
M  V30 2422 C 217.49 3.86996 4.34292 0
M  V30 2423 N 216.466 3.14909 4.43095 0
M  V30 2424 H 220.268 2.04778 2.10815 0
M  V30 2425 H 217.782 1.20155 1.09255 0
M  V30 2426 H 219.779 0.62661 4.12164 0
M  V30 2427 H 218.439 -0.156205 3.24324 0
M  V30 2428 H 219.45 3.49548 3.82148 0
M  V30 2429 H 216.127 0.926886 4.07081 0
M  V30 2430 H 217.517 4.93941 4.55491 0
M  V30 2431 N 220.237 -1.11381 1.11499 0
M  V30 2432 C 221.483 -1.83597 0.875423 0
M  V30 2433 C 221.838 -1.83048 -0.592555 0
M  V30 2434 O 221.131 -1.27304 -1.43193 0
M  V30 2435 C 221.325 -3.30026 1.37177 0
M  V30 2436 C 221.154 -3.44837 2.88647 0
M  V30 2437 C 219.924 -3.57825 3.56776 0
M  V30 2438 C 222.122 -3.3907 3.86699 0
M  V30 2439 N 220.104 -3.61113 4.96458 0
M  V30 2440 C 221.475 -3.48986 5.12454 0
M  V30 2441 C 223.53 -3.22605 3.7925 0
M  V30 2442 C 222.233 -3.44135 6.31636 0
M  V30 2443 C 224.259 -3.19072 4.97943 0
M  V30 2444 C 223.621 -3.29559 6.22551 0
M  V30 2445 H 219.72 -0.687044 0.37349 0
M  V30 2446 H 222.304 -1.33265 1.41946 0
M  V30 2447 H 220.475 -3.78874 0.854919 0
M  V30 2448 H 222.207 -3.90153 1.07529 0
M  V30 2449 H 218.962 -3.60414 3.07244 0
M  V30 2450 H 219.386 -3.66394 5.69284 0
M  V30 2451 H 224.028 -3.13382 2.83816 0
M  V30 2452 H 221.746 -3.52126 7.27347 0
M  V30 2453 H 225.332 -3.07498 4.93899 0
M  V30 2454 H 224.212 -3.26815 7.12855 0
M  V30 2455 N 221.715 -0.905404 -1.28997 0
M  V30 2456 C 222.992 -0.453513 -1.9027 0
M  V30 2457 C 223.372 1.06721 -1.82137 0
M  V30 2458 O 222.72 1.91159 -1.25182 0
M  V30 2459 C 222.93 -0.974494 -3.35119 0
M  V30 2460 C 224.278 -1.0216 -4.12127 0
M  V30 2461 O 225.302 -0.922557 -3.44046 0
M  V30 2462 O 224.161 -1.17121 -5.33802 0
M  V30 2463 H 221.255 -0.142347 -0.814657 0
M  V30 2464 H 223.801 -0.995642 -1.37423 0
M  V30 2465 H 222.573 -2.01848 -3.35221 0
M  V30 2466 H 222.196 -0.412706 -3.95452 0
M  V30 2467 N 223.193 1.4272 -0.668489 0
M  V30 2468 C 224.141 2.32586 0.0254857 0
M  V30 2469 C 225.135 1.49471 0.797176 0
M  V30 2470 O 226.341 1.65583 0.705853 0
M  V30 2471 H 222.716 0.751514 0.0270339 0
M  V30 2472 H 224.687 2.88823 -0.749936 0
M  V30 2473 C 223.436 3.3397 0.967427 0
M  V30 2474 H 222.759 3.97961 0.383048 0
M  V30 2475 H 224.199 3.9945 1.42181 0
M  V30 2476 C 222.658 2.65744 2.0708 0
M  V30 2477 O 223.188 2.48454 3.15648 0
M  V30 2478 N 221.394 2.2487 1.8407 0
M  V30 2479 H 220.941 2.39132 0.95778 0
M  V30 2480 H 220.899 1.79552 2.58086 0
M  V30 2481 N 224.671 0.411399 1.52136 0
M  V30 2482 C 225.604 -0.457614 2.23565 0
M  V30 2483 C 226.582 -1.04613 1.24478 0
M  V30 2484 O 227.766 -1.09356 1.53536 0
M  V30 2485 C 224.893 -1.6354 2.96602 0
M  V30 2486 C 223.939 -1.17005 4.10137 0
M  V30 2487 S 224.772 -0.13333 5.35334 0
M  V30 2488 C 225.928 -1.31638 6.119 0
M  V30 2489 H 226.161 0.148883 2.96927 0
M  V30 2490 H 223.694 0.195713 1.53155 0
M  V30 2491 H 225.652 -2.31074 3.39286 0
M  V30 2492 H 224.313 -2.21324 2.22878 0
M  V30 2493 H 223.506 -2.05005 4.60422 0
M  V30 2494 H 223.108 -0.573319 3.6958 0
M  V30 2495 H 225.4 -2.23957 6.39413 0
M  V30 2496 H 226.343 -0.854014 7.02931 0
M  V30 2497 H 226.751 -1.54321 5.42997 0
M  V30 2498 N 226.149 -1.5696 0.141893 0
M  V30 2499 C 227.426 -1.87553 -0.555281 0
M  V30 2500 C 227.806 -1.04699 -1.83306 0
M  V30 2501 O 227.154 -0.132346 -2.28116 0
M  V30 2502 C 227.364 -3.39093 -0.825664 0
M  V30 2503 C 228.712 -4.08199 -1.16869 0
M  V30 2504 O 229.736 -3.44242 -0.915185 0
M  V30 2505 O 228.595 -5.21139 -1.6455 0
M  V30 2506 H 225.689 -0.777188 -0.282679 0
M  V30 2507 H 228.235 -1.68763 0.17812 0
M  V30 2508 H 227.007 -3.91221 0.0788633 0
M  V30 2509 H 226.63 -3.63393 -1.61343 0
M  V30 2510 N 227.627 0.131896 -1.57047 0
M  V30 2511 C 228.875 0.840269 -1.83804 0
M  V30 2512 C 229.196 1.81017 -0.72512 0
M  V30 2513 O 228.466 1.94272 0.251995 0
M  V30 2514 H 227.046 0.313294 -0.678127 0
M  V30 2515 H 229.708 0.122294 -1.94516 0
M  V30 2516 H 228.804 1.39335 -2.79271 0
M  V30 2517 N 229.106 1.52395 0.401703 0
M  V30 2518 C 230.331 1.70972 1.17403 0
M  V30 2519 C 230.756 0.421615 1.83314 0
M  V30 2520 O 230.114 -0.621564 1.70312 0
M  V30 2521 C 230.162 2.85151 2.20728 0
M  V30 2522 O 229.266 2.51238 3.27037 0
M  V30 2523 H 228.607 0.568927 0.342372 0
M  V30 2524 H 231.137 1.99131 0.469891 0
M  V30 2525 H 231.147 3.10279 2.64936 0
M  V30 2526 H 229.822 3.78603 1.7214 0
M  V30 2527 H 228.399 2.36808 2.88057 0
M  V30 2528 N 230.584 -0.659388 1.43143 0
M  V30 2529 C 231.833 -1.41518 1.43721 0
M  V30 2530 C 232.146 -1.95499 0.0628176 0
M  V30 2531 O 233.352 -2.71446 -0.0539683 0
M  V30 2532 C 231.808 -2.5608 2.52885 0
M  V30 2533 C 231.416 -2.08733 3.96402 0
M  V30 2534 C 233.16 -3.3349 2.62649 0
M  V30 2535 C 231.067 -3.20469 4.97045 0
M  V30 2536 H 229.997 -0.531705 0.534608 0
M  V30 2537 H 232.648 -0.712343 1.69109 0
M  V30 2538 H 231.03 -3.28805 2.20688 0
M  V30 2539 H 232.204 -1.43059 4.3803 0
M  V30 2540 H 230.519 -1.44219 3.90627 0
M  V30 2541 H 233.116 -4.16734 3.35017 0
M  V30 2542 H 233.459 -3.8111 1.67513 0
M  V30 2543 H 233.992 -2.67842 2.94118 0
M  V30 2544 H 230.731 -2.77824 5.93712 0
M  V30 2545 H 230.251 -3.84874 4.60034 0
M  V30 2546 H 231.93 -3.85698 5.19467 0
M  V30 2547 N 232.062 -1.29571 -0.897171 0
M  V30 2548 C 232.972 -1.16808 -2.03453 0
M  V30 2549 C 233.988 -0.0907471 -1.73763 0
M  V30 2550 O 235.164 -0.303312 -1.99103 0
M  V30 2551 C 232.229 -0.848264 -3.36163 0
M  V30 2552 C 231.29 -2.0097 -3.79354 0
M  V30 2553 C 230.523 -1.70505 -5.05731 0
M  V30 2554 O 230.746 -0.62718 -5.66941 0
M  V30 2555 O 229.68 -2.5538 -5.45036 0
M  V30 2556 H 233.506 -2.12325 -2.17144 0
M  V30 2557 H 231.091 -1.09047 -1.02123 0
M  V30 2558 H 232.973 -0.684581 -4.15802 0
M  V30 2559 H 231.648 0.0771071 -3.23608 0
M  V30 2560 H 230.555 -2.22863 -3.00471 0
M  V30 2561 H 231.888 -2.91636 -3.96496 0
M  V30 2562 N 233.54 1.10788 -1.12088 0
M  V30 2563 C 234.956 1.34691 -0.856186 0
M  V30 2564 C 235.156 1.94791 0.515615 0
M  V30 2565 O 234.212 2.18524 1.26505 0
M  V30 2566 C 235.525 2.27208 -1.9697 0
M  V30 2567 C 237.073 2.40755 -2.00016 0
M  V30 2568 C 237.548 3.36598 -3.1059 0
M  V30 2569 N 239.039 3.44164 -3.10008 0
M  V30 2570 C 239.774 4.18284 -3.92206 0
M  V30 2571 N 239.27 4.95322 -4.84384 0
M  V30 2572 N 241.063 4.13865 -3.80357 0
M  V30 2573 H 233.214 0.70144 -2.00483 0
M  V30 2574 H 235.477 0.371405 -0.872217 0
M  V30 2575 H 235.183 1.90251 -2.958 0
M  V30 2576 H 235.057 3.27485 -1.87172 0
M  V30 2577 H 237.444 2.76982 -1.01808 0
M  V30 2578 H 237.525 1.40305 -2.13888 0
M  V30 2579 H 237.169 3.01096 -4.09028 0
M  V30 2580 H 237.099 4.36918 -2.93956 0
M  V30 2581 H 239.59 2.8922 -2.43228 0
M  V30 2582 H 239.903 5.49267 -5.43623 0
M  V30 2583 H 238.248 4.94459 -4.884 0
M  V30 2584 H 241.439 3.52773 -3.07683 0
M  V30 2585 H 241.612 4.71372 -4.44649 0
M  V30 2586 N 235.018 0.912232 1.28515 0
M  V30 2587 C 236.266 0.543523 1.94654 0
M  V30 2588 C 236.587 -0.9155 1.72173 0
M  V30 2589 O 235.857 -1.64708 1.06058 0
M  V30 2590 H 234.437 0.198017 0.720277 0
M  V30 2591 H 237.099 1.16126 1.56527 0
M  V30 2592 H 236.195 0.736684 3.03281 0
M  V30 2593 N 236.496 -1.42363 0.676048 0
M  V30 2594 C 237.726 -2.05561 0.206967 0
M  V30 2595 C 238.134 -1.50887 -1.14148 0
M  V30 2596 O 237.477 -0.643933 -1.72044 0
M  V30 2597 C 237.539 -3.5944 0.0659508 0
M  V30 2598 C 237.203 -4.36812 1.34331 0
M  V30 2599 C 238.2 -4.67383 2.27704 0
M  V30 2600 C 235.885 -4.76429 1.59125 0
M  V30 2601 C 237.879 -5.36509 3.44147 0
M  V30 2602 C 235.566 -5.45294 2.75857 0
M  V30 2603 C 236.564 -5.75259 3.68193 0
M  V30 2604 O 236.252 -6.42712 4.82883 0
M  V30 2605 H 235.984 -0.668872 0.0979084 0
M  V30 2606 H 238.538 -1.83467 0.923531 0
M  V30 2607 H 236.768 -3.80197 -0.706204 0
M  V30 2608 H 238.457 -4.0427 -0.363418 0
M  V30 2609 H 239.223 -4.37275 2.09799 0
M  V30 2610 H 235.102 -4.52498 0.881258 0
M  V30 2611 H 238.646 -5.59814 4.16238 0
M  V30 2612 H 234.543 -5.7482 2.93688 0
M  V30 2613 H 235.311 -6.61204 4.82444 0
M  V30 2614 N 237.974 -0.419461 -1.51915 0
M  V30 2615 C 238.937 0.389116 -2.25873 0
M  V30 2616 C 239.937 0.964924 -1.28631 0
M  V30 2617 O 241.127 0.842179 -1.52489 0
M  V30 2618 C 238.259 1.54874 -3.03689 0
M  V30 2619 H 239.452 -0.258799 -2.98781 0
M  V30 2620 H 237.005 -0.172209 -1.55348 0
M  V30 2621 H 237.74 2.23323 -2.35154 0
M  V30 2622 H 237.525 1.14223 -3.75094 0
M  V30 2623 H 239.015 2.12046 -3.59759 0
M  V30 2624 N 239.452 1.56882 -0.150215 0
M  V30 2625 C 240.7 1.9584 0.499105 0
M  V30 2626 C 241.021 1.03623 1.65188 0
M  V30 2627 O 240.291 0.0984084 1.95653 0
M  V30 2628 H 238.871 0.723119 0.187373 0
M  V30 2629 H 241.533 1.9358 -0.226466 0
M  V30 2630 H 240.629 2.99638 0.873122 0
M  V30 2631 N 240.93 -0.123565 1.57115 0
M  V30 2632 C 242.346 -0.476961 1.52306 0
M  V30 2633 C 242.546 -1.82109 0.86248 0
M  V30 2634 O 241.602 -2.48586 0.442884 0
M  V30 2635 C 242.915 -0.465661 2.97073 0
M  V30 2636 C 244.463 -0.549534 3.08138 0
M  V30 2637 C 244.938 -0.568669 4.54456 0
M  V30 2638 N 246.429 -0.630237 4.58892 0
M  V30 2639 C 247.164 -0.666415 5.69514 0
M  V30 2640 N 246.66 -0.660514 6.89644 0
M  V30 2641 N 248.453 -0.709077 5.5761 0
M  V30 2642 H 240.604 0.757198 1.98445 0
M  V30 2643 H 242.867 0.278808 0.906074 0
M  V30 2644 H 242.573 0.454232 3.48754 0
M  V30 2645 H 242.447 -1.29513 3.54269 0
M  V30 2646 H 244.834 -1.45985 2.56461 0
M  V30 2647 H 244.915 0.307532 2.53945 0
M  V30 2648 H 244.559 0.337581 5.06777 0
M  V30 2649 H 244.489 -1.44256 5.06456 0
M  V30 2650 H 246.98 -0.641146 3.72421 0
M  V30 2651 H 247.293 -0.690616 7.69708 0
M  V30 2652 H 245.638 -0.628012 6.92157 0
M  V30 2653 H 248.829 -0.711019 4.62668 0
M  V30 2654 H 249.002 -0.733804 6.43832 0
M  V30 2655 N 242.408 -1.52605 -0.393616 0
M  V30 2656 C 243.633 -1.71592 -1.16495 0
M  V30 2657 C 244.058 -0.43133 -1.83088 0
M  V30 2658 O 243.416 0.612523 -1.7064 0
M  V30 2659 C 243.464 -2.86318 -2.19213 0
M  V30 2660 O 242.568 -2.52969 -3.257 0
M  V30 2661 H 241.909 -0.570734 -0.33935 0
M  V30 2662 H 244.439 -1.99377 -0.459324 0
M  V30 2663 H 244.449 -3.1168 -2.63286 0
M  V30 2664 H 243.124 -3.79511 -1.7013 0
M  V30 2665 H 241.701 -2.38332 -2.86797 0
M  V30 2666 N 243.887 0.651787 -1.4349 0
M  V30 2667 C 245.136 1.40754 -1.44469 0
M  V30 2668 C 245.449 1.95463 -0.0731845 0
M  V30 2669 O 246.655 2.71471 0.0395721 0
M  V30 2670 C 245.111 2.54735 -2.5424 0
M  V30 2671 C 244.719 2.06628 -3.97504 0
M  V30 2672 C 246.463 3.32092 -2.64414 0
M  V30 2673 C 244.37 3.17829 -4.98737 0
M  V30 2674 H 243.3 0.528862 -0.53742 0
M  V30 2675 H 245.951 0.703365 -1.69485 0
M  V30 2676 H 244.333 3.2763 -2.22428 0
M  V30 2677 H 245.507 1.40734 -4.38783 0
M  V30 2678 H 243.822 1.42146 -3.91387 0
M  V30 2679 H 246.419 4.14952 -3.37223 0
M  V30 2680 H 246.762 3.80217 -1.69532 0
M  V30 2681 H 247.295 2.66279 -2.95534 0
M  V30 2682 H 244.034 2.74671 -5.95177 0
M  V30 2683 H 243.554 3.82429 -4.62069 0
M  V30 2684 H 245.233 3.82937 -5.21505 0
M  V30 2685 N 245.365 1.30045 0.890287 0
M  V30 2686 C 246.612 1.18561 1.64163 0
M  V30 2687 C 246.94 -0.260852 1.92743 0
M  V30 2688 O 246.195 -1.20376 1.54299 0
M  V30 2689 C 246.494 1.95409 2.99249 0
M  V30 2690 C 246.16 3.45066 2.90242 0
M  V30 2691 C 244.822 3.85878 2.87492 0
M  V30 2692 C 247.174 4.4039 2.78758 0
M  V30 2693 C 244.502 5.20314 2.7109 0
M  V30 2694 C 246.854 5.74928 2.63894 0
M  V30 2695 C 245.518 6.14986 2.59516 0
M  V30 2696 H 244.788 0.433846 0.600715 0
M  V30 2697 H 247.435 1.61088 1.03552 0
M  V30 2698 H 245.74 1.45501 3.63781 0
M  V30 2699 H 247.437 1.8392 3.56334 0
M  V30 2700 H 244.027 3.12631 2.93189 0
M  V30 2701 H 248.211 4.09806 2.79952 0
M  V30 2702 H 243.467 5.50449 2.66112 0
M  V30 2703 H 247.641 6.48434 2.53981 0
M  V30 2704 H 245.268 7.19104 2.46565 0
M  V30 2705 N 246.843 -1.10192 1.12674 0
M  V30 2706 C 248.09 -1.82205 0.883606 0
M  V30 2707 C 248.418 -1.8532 -0.590492 0
M  V30 2708 O 247.673 -1.31137 -1.45264 0
M  V30 2709 C 247.972 -3.28552 1.4067 0
M  V30 2710 C 247.638 -3.45582 2.89627 0
M  V30 2711 C 246.3 -3.49937 3.30299 0
M  V30 2712 C 248.652 -3.50768 3.85501 0
M  V30 2713 C 245.98 -3.57049 4.65546 0
M  V30 2714 C 248.332 -3.59414 5.20581 0
M  V30 2715 C 246.996 -3.62034 5.60792 0
M  V30 2716 H 246.266 -0.666735 0.323334 0
M  V30 2717 H 248.913 -1.29868 1.40736 0
M  V30 2718 H 247.218 -3.83473 0.80347 0
M  V30 2719 H 248.915 -3.82788 1.19475 0
M  V30 2720 H 245.505 -3.42871 2.57172 0
M  V30 2721 H 249.689 -3.46651 3.55171 0
M  V30 2722 H 244.945 -3.57361 4.96088 0
M  V30 2723 H 249.119 -3.62371 5.94693 0
M  V30 2724 H 246.746 -3.67298 6.6558 0
M  V30 2725 N 248.321 -0.919034 -1.28029 0
M  V30 2726 C 249.567 -0.555757 -1.95036 0
M  V30 2727 C 249.9 0.899198 -1.72128 0
M  V30 2728 O 249.175 1.64023 -1.04531 0
M  V30 2729 C 249.458 -0.872024 -3.49382 0
M  V30 2730 C 249.311 -2.3801 -3.81669 0
M  V30 2731 C 250.63 -0.37185 -4.38526 0
M  V30 2732 H 247.749 -0.203386 -0.708381 0
M  V30 2733 H 250.391 -1.14924 -1.51303 0
M  V30 2734 H 248.541 -0.366946 -3.86763 0
M  V30 2735 H 250.213 -2.9562 -3.54128 0
M  V30 2736 H 248.456 -2.83289 -3.28526 0
M  V30 2737 H 249.127 -2.55192 -4.8947 0
M  V30 2738 H 251.603 -0.804602 -4.08247 0
M  V30 2739 H 250.479 -0.622173 -5.45362 0
M  V30 2740 H 250.74 0.727934 -4.36066 0
M  V30 2741 N 249.799 1.42003 -0.683588 0
M  V30 2742 C 251.076 1.95112 -0.138075 0
M  V30 2743 C 251.456 1.62359 1.34918 0
M  V30 2744 O 250.804 0.924311 2.08971 0
M  V30 2745 C 251.014 3.46505 -0.416581 0
M  V30 2746 C 252.362 4.23254 -0.337834 0
M  V30 2747 O 253.386 3.54468 -0.35082 0
M  V30 2748 O 252.245 5.45743 -0.287596 0
M  V30 2749 H 249.339 0.826961 -0.00797996 0
M  V30 2750 H 251.885 1.51784 -0.758924 0
M  V30 2751 H 250.657 3.63582 -1.4465 0
M  V30 2752 H 250.28 3.969 0.235839 0
M  V30 2753 N 251.277 0.427512 1.51691 0
M  V30 2754 C 252.554 -0.201684 1.94557 0
M  V30 2755 C 252.934 -1.60981 1.36559 0
M  V30 2756 O 252.282 -2.21814 0.548702 0
M  V30 2757 C 252.492 -0.189394 3.48486 0
M  V30 2758 C 253.84 -0.39978 4.22714 0
M  V30 2759 O 254.864 -0.267945 3.55191 0
M  V30 2760 O 253.723 -0.661249 5.42485 0
M  V30 2761 H 250.817 -0.135261 0.815864 0
M  V30 2762 H 253.363 0.484782 1.62628 0
M  V30 2763 H 252.135 0.795431 3.8313 0
M  V30 2764 H 251.758 -0.919187 3.86829 0
M  V30 2765 N 252.755 -1.56801 0.158532 0
M  V30 2766 C 253.687 -2.14488 -0.807923 0
M  V30 2767 C 254.7 -1.09721 -1.20271 0
M  V30 2768 O 255.889 -1.36956 -1.14478 0
M  V30 2769 C 252.989 -2.66217 -2.09718 0
M  V30 2770 C 252.162 -3.95507 -1.86796 0
M  V30 2771 C 251.221 -4.3243 -2.99818 0
M  V30 2772 O 250.247 -5.00543 -2.71008 0
M  V30 2773 N 251.449 -3.92947 -4.27285 0
M  V30 2774 H 254.214 -2.98042 -0.314816 0
M  V30 2775 H 251.775 -1.61881 -0.0246692 0
M  V30 2776 H 253.767 -2.87924 -2.84398 0
M  V30 2777 H 252.337 -1.87324 -2.50257 0
M  V30 2778 H 251.557 -3.82309 -0.96089 0
M  V30 2779 H 252.845 -4.79972 -1.68833 0
M  V30 2780 H 252.243 -3.38087 -4.53557 0
M  V30 2781 H 250.8 -4.19681 -4.9871 0
M  V30 2782 N 254.233 0.115231 -1.57178 0
M  V30 2783 C 255.48 0.822351 -1.8505 0
M  V30 2784 C 255.808 1.79701 -0.744168 0
M  V30 2785 O 255.063 1.93909 0.26414 0
M  V30 2786 C 255.362 1.60324 -3.19423 0
M  V30 2787 C 255.028 0.772536 -4.44233 0
M  V30 2788 C 253.69 0.543468 -4.78121 0
M  V30 2789 C 256.042 0.193746 -5.2084 0
M  V30 2790 C 253.37 -0.274583 -5.86057 0
M  V30 2791 C 255.722 -0.611517 -6.29637 0
M  V30 2792 C 254.386 -0.850867 -6.62055 0
M  V30 2793 H 253.656 0.30092 -0.677147 0
M  V30 2794 H 256.303 0.0845802 -1.91313 0
M  V30 2795 H 254.608 2.41203 -3.08753 0
M  V30 2796 H 256.305 2.1544 -3.38211 0
M  V30 2797 H 252.895 0.96117 -4.17683 0
M  V30 2798 H 257.079 0.357926 -4.95008 0
M  V30 2799 H 252.335 -0.469206 -6.09597 0
M  V30 2800 H 256.509 -1.06697 -6.88178 0
M  V30 2801 H 254.136 -1.48657 -7.45523 0
M  V30 2802 N 255.711 1.52812 0.385517 0
M  V30 2803 C 256.957 1.68275 1.13188 0
M  V30 2804 C 257.29 0.423179 1.89533 0
M  V30 2805 O 256.565 -0.579113 1.85679 0
M  V30 2806 C 256.848 2.92001 2.1073 0
M  V30 2807 C 256.701 4.28067 1.38125 0
M  V30 2808 C 258.02 3.11283 3.11113 0
M  V30 2809 H 255.139 0.612352 0.410115 0
M  V30 2810 H 257.781 1.85415 0.414869 0
M  V30 2811 H 255.931 2.77519 2.71874 0
M  V30 2812 H 257.603 4.54324 0.799187 0
M  V30 2813 H 255.846 4.28388 0.683092 0
M  V30 2814 H 256.517 5.10733 2.09417 0
M  V30 2815 H 258.993 3.2482 2.6006 0
M  V30 2816 H 257.869 3.99325 3.76605 0
M  V30 2817 H 258.13 2.25656 3.80173 0
M  V30 2818 N 257.189 -0.644168 1.43834 0
M  V30 2819 C 258.136 -1.75671 1.49694 0
M  V30 2820 C 259.106 -1.6246 0.345809 0
M  V30 2821 O 260.291 -1.82573 0.554234 0
M  V30 2822 C 257.431 -3.13867 1.43463 0
M  V30 2823 C 256.544 -3.38147 2.6885 0
M  V30 2824 C 255.679 -4.66241 2.54544 0
M  V30 2825 C 254.718 -4.83657 3.75157 0
M  V30 2826 N 253.855 -6.03016 3.59605 0
M  V30 2827 H 258.695 -1.69998 2.44754 0
M  V30 2828 H 256.232 -0.829458 1.21484 0
M  V30 2829 H 258.19 -3.9377 1.37843 0
M  V30 2830 H 256.82 -3.18588 0.519783 0
M  V30 2831 H 255.872 -2.52276 2.84712 0
M  V30 2832 H 257.184 -3.46899 3.58417 0
M  V30 2833 H 256.338 -5.54285 2.46683 0
M  V30 2834 H 255.077 -4.59826 1.62516 0
M  V30 2835 H 254.082 -3.94046 3.83416 0
M  V30 2836 H 255.307 -4.91896 4.68204 0
M  V30 2837 H 253.253 -5.97715 2.7032 0
M  V30 2838 H 253.17 -6.12766 4.42779 0
M  V30 2839 H 254.438 -6.93657 3.55613 0
M  V30 2840 N 258.668 -1.30515 -0.883378 0
M  V30 2841 C 259.6 -1.12846 -1.99496 0
M  V30 2842 C 260.613 -0.0712571 -1.62644 0
M  V30 2843 O 261.802 -0.317432 -1.75655 0
M  V30 2844 C 258.902 -0.699123 -3.3161 0
M  V30 2845 C 258.075 -1.83842 -3.96889 0
M  V30 2846 C 257.134 -1.39737 -5.07307 0
M  V30 2847 O 256.16 -2.10485 -5.28852 0
M  V30 2848 N 257.362 -0.277279 -5.79837 0
M  V30 2849 H 260.127 -2.08585 -2.15203 0
M  V30 2850 H 257.688 -1.22672 -1.05656 0
M  V30 2851 H 259.68 -0.387044 -4.02845 0
M  V30 2852 H 258.25 0.166276 -3.12157 0
M  V30 2853 H 257.47 -2.31853 -3.18807 0
M  V30 2854 H 258.758 -2.60187 -4.37241 0
M  V30 2855 H 258.156 0.3122 -5.64838 0
M  V30 2856 H 256.713 -0.0246623 -6.51795 0
M  V30 2857 N 260.146 1.09593 -1.13257 0
M  V30 2858 C 261.094 2.18271 -0.803783 0
M  V30 2859 C 262.088 1.68054 0.213148 0
M  V30 2860 O 263.294 1.79862 0.0704699 0
M  V30 2861 H 259.669 0.711949 -0.242143 0
M  V30 2862 H 261.64 2.43235 -1.72856 0
M  V30 2863 C 260.389 3.46536 -0.28424 0
M  V30 2864 H 259.712 3.85545 -1.05807 0
M  V30 2865 H 261.152 4.23899 -0.0925945 0
M  V30 2866 C 259.611 3.22036 0.989684 0
M  V30 2867 O 260.141 3.44509 2.06584 0
M  V30 2868 N 258.347 2.7565 0.920086 0
M  V30 2869 H 257.894 2.57562 0.0442019 0
M  V30 2870 H 257.852 2.59635 1.77306 0
M  V30 2871 N 261.624 0.925811 1.2754 0
M  V30 2872 C 262.556 0.380753 2.26015 0
M  V30 2873 C 263.569 -0.487485 1.5533 0
M  V30 2874 O 264.758 -0.300413 1.75954 0
M  V30 2875 C 261.858 -0.473259 3.35579 0
M  V30 2876 C 261.031 0.375249 4.35787 0
M  V30 2877 C 260.09 -0.415809 5.24555 0
M  V30 2878 O 259.116 0.175834 5.68928 0
M  V30 2879 N 260.318 -1.71607 5.54555 0
M  V30 2880 H 263.083 1.22725 2.73421 0
M  V30 2881 H 260.644 0.793037 1.41147 0
M  V30 2882 H 262.636 -1.00949 3.91907 0
M  V30 2883 H 261.206 -1.2205 2.87789 0
M  V30 2884 H 260.426 1.09279 3.7875 0
M  V30 2885 H 261.714 0.955399 4.99749 0
M  V30 2886 H 261.112 -2.2191 5.20358 0
M  V30 2887 H 259.669 -2.19887 6.1359 0
M  V30 2888 N 263.102 -1.41638 0.69111 0
M  V30 2889 C 264.518 -1.55435 0.362224 0
M  V30 2890 C 264.718 -1.66754 -1.13117 0
M  V30 2891 O 263.774 -1.64348 -1.91692 0
M  V30 2892 C 265.087 -2.79588 1.10684 0
M  V30 2893 C 266.635 -2.9338 1.09075 0
M  V30 2894 C 267.11 -4.20414 1.81703 0
M  V30 2895 N 268.601 -4.27362 1.7865 0
M  V30 2896 C 269.336 -5.24507 2.31689 0
M  V30 2897 N 268.832 -6.27708 2.93179 0
M  V30 2898 N 270.625 -5.16416 2.2197 0
M  V30 2899 H 262.776 -1.32536 1.65976 0
M  V30 2900 H 265.039 -0.639115 0.700168 0
M  V30 2901 H 264.745 -2.77419 2.16175 0
M  V30 2902 H 264.619 -3.70973 0.682545 0
M  V30 2903 H 267.006 -2.95067 0.0441238 0
M  V30 2904 H 267.087 -2.0318 1.55407 0
M  V30 2905 H 266.731 -4.19488 2.86343 0
M  V30 2906 H 266.661 -5.09578 1.32808 0
M  V30 2907 H 269.152 -3.53415 1.33815 0
M  V30 2908 H 269.465 -6.98217 3.31229 0
M  V30 2909 H 267.81 -6.28223 2.97255 0
M  V30 2910 H 271.001 -4.34716 1.73607 0
M  V30 2911 H 271.174 -5.91958 2.63609 0
M  V30 2912 N 264.58 -0.43555 -1.51462 0
M  V30 2913 C 265.829 0.133007 -2.01261 0
M  V30 2914 C 266.142 1.43942 -1.32439 0
M  V30 2915 O 267.348 2.09081 -1.73198 0
M  V30 2916 C 265.804 0.287581 -3.58749 0
M  V30 2917 C 265.412 -1.00829 -4.36506 0
M  V30 2918 C 267.156 0.810004 -4.167 0
M  V30 2919 C 265.063 -0.819454 -5.85695 0
M  V30 2920 H 263.993 0.0534822 -0.752101 0
M  V30 2921 H 266.644 -0.565038 -1.74584 0
M  V30 2922 H 265.026 1.04859 -3.81865 0
M  V30 2923 H 266.2 -1.77749 -4.25138 0
M  V30 2924 H 264.515 -1.45911 -3.89999 0
M  V30 2925 H 267.112 0.967743 -5.2587 0
M  V30 2926 H 267.455 1.79196 -3.75758 0
M  V30 2927 H 267.988 0.107357 -3.97655 0
M  V30 2928 H 264.727 -1.77374 -6.31046 0
M  V30 2929 H 264.247 -0.0900208 -5.99732 0
M  V30 2930 H 265.926 -0.471949 -6.45276 0
M  V30 2931 N 266.058 1.56714 -0.166846 0
M  V30 2932 C 267.005 2.17746 0.765193 0
M  V30 2933 C 267.975 1.11614 1.23011 0
M  V30 2934 O 269.16 1.39745 1.29908 0
M  V30 2935 C 266.3 2.81882 1.9909 0
M  V30 2936 C 265.413 4.02462 1.56997 0
M  V30 2937 C 264.548 4.54537 2.749 0
M  V30 2938 C 263.587 5.67538 2.29275 0
M  V30 2939 N 262.724 6.14142 3.40255 0
M  V30 2940 H 267.564 2.97048 0.237952 0
M  V30 2941 H 265.101 1.4672 0.105725 0
M  V30 2942 H 267.059 3.17221 2.70974 0
M  V30 2943 H 265.689 2.05191 2.49192 0
M  V30 2944 H 264.741 3.72973 0.748037 0
M  V30 2945 H 266.053 4.84273 1.19503 0
M  V30 2946 H 265.207 4.92035 3.54946 0
M  V30 2947 H 263.946 3.71774 3.1565 0
M  V30 2948 H 262.951 5.29597 1.47674 0
M  V30 2949 H 264.176 6.52099 1.89588 0
M  V30 2950 H 262.122 5.3431 3.8059 0
M  V30 2951 H 262.039 6.9093 3.06841 0
M  V30 2952 H 263.307 6.56289 4.206 0
M  V30 2953 N 267.536 -0.106894 1.57237 0
M  V30 2954 C 268.813 -0.843526 1.76477 0
M  V30 2955 C 269.193 -1.97499 0.745464 0
M  V30 2956 O 268.541 -2.27357 -0.228306 0
M  V30 2957 C 268.751 -1.34903 3.21873 0
M  V30 2958 C 270.099 -1.79654 3.8472 0
M  V30 2959 O 271.123 -1.44554 3.2555 0
M  V30 2960 O 269.982 -2.44515 4.88748 0
M  V30 2961 H 267.076 -0.401468 0.723016 0
M  V30 2962 H 269.622 -0.0896927 1.69463 0
M  V30 2963 H 268.394 -0.53781 3.87586 0
M  V30 2964 H 268.017 -2.16522 3.33473 0
M  V30 2965 N 269.014 -1.53014 -0.377408 0
M  V30 2966 C 270.244 -1.72265 -1.14054 0
M  V30 2967 C 270.652 -0.44601 -1.83868 0
M  V30 2968 O 269.995 0.590095 -1.73964 0
M  V30 2969 C 270.057 -2.82492 -2.22348 0
M  V30 2970 C 269.721 -4.23233 -1.72402 0
M  V30 2971 C 270.718 -5.05992 -1.19448 0
M  V30 2972 C 268.403 -4.696 -1.78273 0
M  V30 2973 C 270.397 -6.33203 -0.730268 0
M  V30 2974 C 268.084 -5.96792 -1.31464 0
M  V30 2975 C 269.082 -6.78424 -0.789297 0
M  V30 2976 O 268.77 -8.0323 -0.328077 0
M  V30 2977 H 268.502 -0.579873 -0.347453 0
M  V30 2978 H 271.056 -2.00502 -0.445882 0
M  V30 2979 H 269.286 -2.49702 -2.95272 0
M  V30 2980 H 270.975 -2.90034 -2.83963 0
M  V30 2981 H 271.741 -4.71349 -1.14259 0
M  V30 2982 H 267.62 -4.06142 -2.18106 0
M  V30 2983 H 271.164 -6.96868 -0.319542 0
M  V30 2984 H 267.061 -6.30937 -1.36342 0
M  V30 2985 H 267.829 -8.1727 -0.448493 0
M  V30 2986 N 270.492 0.636531 -1.44174 0
M  V30 2987 C 271.455 1.73063 -1.50273 0
M  V30 2988 C 272.455 1.56113 -0.385397 0
M  V30 2989 O 273.645 1.61707 -0.64781 0
M  V30 2990 C 270.777 3.12096 -1.37145 0
M  V30 2991 H 271.97 1.69031 -2.47727 0
M  V30 2992 H 269.523 0.849706 -1.31186 0
M  V30 2993 H 270.258 3.21728 -0.407636 0
M  V30 2994 H 270.043 3.25805 -2.18159 0
M  V30 2995 H 271.533 3.91846 -1.44382 0
M  V30 2996 N 271.97 1.30982 0.876444 0
M  V30 2997 C 273.386 1.09498 1.16113 0
M  V30 2998 C 273.586 -0.13875 2.01022 0
M  V30 2999 O 272.642 -0.829935 2.38471 0
M  V30 3000 C 273.955 2.36308 1.85954 0
M  V30 3001 C 275.503 2.41856 1.98683 0
M  V30 3002 C 275.978 3.6853 2.71937 0
M  V30 3003 N 277.469 3.69387 2.79477 0
M  V30 3004 C 278.204 4.64096 3.36753 0
M  V30 3005 N 277.7 5.69155 3.95012 0
M  V30 3006 N 279.493 4.51626 3.3465 0
M  V30 3007 H 271.644 2.10118 0.310494 0
M  V30 3008 H 273.907 0.926634 0.200131 0
M  V30 3009 H 273.613 3.26388 1.31011 0
M  V30 3010 H 273.487 2.4561 2.86278 0
M  V30 3011 H 275.874 1.52249 2.52793 0
M  V30 3012 H 275.955 2.36523 0.9742 0
M  V30 3013 H 275.599 4.58499 2.18496 0
M  V30 3014 H 275.529 3.71127 3.73593 0
M  V30 3015 H 278.02 2.93438 2.38123 0
M  V30 3016 H 278.333 6.3751 4.36808 0
M  V30 3017 H 276.678 5.72937 3.93406 0
M  V30 3018 H 279.869 3.68728 2.8837 0
M  V30 3019 H 280.042 5.25614 3.7899 0
M  V30 3020 N 273.449 -1.08991 1.13837 0
M  V30 3021 C 274.379 -2.17771 0.842507 0
M  V30 3022 C 275.36 -1.6892 -0.20001 0
M  V30 3023 O 276.545 -1.94113 -0.0579731 0
M  V30 3024 C 273.675 -3.4589 0.312644 0
M  V30 3025 C 272.629 -4.08099 1.28992 0
M  V30 3026 C 271.955 -5.31098 0.619623 0
M  V30 3027 C 273.255 -4.50077 2.65005 0
M  V30 3028 H 274.949 -2.42777 1.75213 0
M  V30 3029 H 272.495 -1.16682 0.843875 0
M  V30 3030 H 274.448 -4.21297 0.0933043 0
M  V30 3031 H 273.172 -3.20419 -0.632382 0
M  V30 3032 H 271.831 -3.34717 1.49533 0
M  V30 3033 H 271.479 -5.0191 -0.33102 0
M  V30 3034 H 271.179 -5.73674 1.27167 0
M  V30 3035 H 272.703 -6.09224 0.409669 0
M  V30 3036 H 274.117 -5.16688 2.48407 0
M  V30 3037 H 272.514 -5.03553 3.26427 0
M  V30 3038 H 273.584 -3.62257 3.22332 0
M  V30 3039 N 274.927 -0.932562 -1.27047 0
M  V30 3040 C 275.857 -0.452902 -2.29066 0
M  V30 3041 C 276.838 0.489338 -1.62909 0
M  V30 3042 O 278.023 0.393046 -1.90181 0
M  V30 3043 C 275.153 0.290698 -3.46081 0
M  V30 3044 C 274.107 -0.564168 -4.24265 0
M  V30 3045 C 273.433 0.308886 -5.33807 0
M  V30 3046 C 274.733 -1.83112 -4.89149 0
M  V30 3047 H 276.427 -1.30552 -2.69437 0
M  V30 3048 H 273.973 -0.629201 -1.29526 0
M  V30 3049 H 275.926 0.637233 -4.16554 0
M  V30 3050 H 274.65 1.17738 -3.0464 0
M  V30 3051 H 273.309 -0.893477 -3.55545 0
M  V30 3052 H 272.957 1.19467 -4.88607 0
M  V30 3053 H 272.657 -0.259633 -5.87026 0
M  V30 3054 H 274.181 0.650884 -6.07121 0
M  V30 3055 H 275.595 -1.55236 -5.51883 0
M  V30 3056 H 273.992 -2.34353 -5.52448 0
M  V30 3057 H 275.062 -2.54772 -4.12576 0
M  V30 3058 N 276.405 1.4127 -0.698611 0
M  V30 3059 C 277.368 2.29158 -0.044132 0
M  V30 3060 C 278.368 1.44529 0.704841 0
M  V30 3061 O 279.558 1.65643 0.539276 0
M  V30 3062 C 276.69 3.27459 0.947809 0
M  V30 3063 H 277.883 2.88529 -0.817994 0
M  V30 3064 H 275.436 1.49307 -0.46228 0
M  V30 3065 H 276.171 2.73073 1.74933 0
M  V30 3066 H 275.956 3.8991 0.41385 0
M  V30 3067 H 277.446 3.93311 1.40344 0
M  V30 3068 N 277.883 0.443576 1.51229 0
M  V30 3069 C 279.108 -0.121648 2.07043 0
M  V30 3070 C 279.533 -1.35156 1.30823 0
M  V30 3071 O 278.891 -1.7793 0.347934 0
M  V30 3072 C 278.939 -0.41624 3.5819 0
M  V30 3073 O 278.043 -1.50163 3.8409 0
M  V30 3074 H 277.384 0.000871367 0.663999 0
M  V30 3075 H 279.914 0.626706 1.94765 0
M  V30 3076 H 279.924 -0.664867 4.02546 0
M  V30 3077 H 278.599 0.482653 4.1309 0
M  V30 3078 H 277.176 -1.24248 3.51592 0
M  V30 3079 N 279.361 -1.56624 0.175154 0
M  V30 3080 C 280.607 -1.9729 -0.469506 0
M  V30 3081 C 280.94 -1.06128 -1.62636 0
M  V30 3082 O 280.215 -0.109183 -1.94193 0
M  V30 3083 C 280.498 -3.47375 -0.948804 0
M  V30 3084 C 280.351 -4.49317 0.208491 0
M  V30 3085 C 281.67 -4.00652 -1.82116 0
M  V30 3086 H 278.789 -0.717317 -0.16919 0
M  V30 3087 H 281.431 -1.88184 0.262062 0
M  V30 3088 H 279.581 -3.55267 -1.57219 0
M  V30 3089 H 281.253 -4.53482 0.845682 0
M  V30 3090 H 279.496 -4.25121 0.863395 0
M  V30 3091 H 280.167 -5.51741 -0.169059 0
M  V30 3092 H 282.643 -3.95416 -1.2956 0
M  V30 3093 H 281.519 -5.06075 -2.12554 0
M  V30 3094 H 281.78 -3.44699 -2.7683 0
M  V30 3095 N 280.839 0.0985539 -1.57292 0
M  V30 3096 C 282.087 0.801092 -1.85545 0
M  V30 3097 C 282.408 1.79438 -0.763353 0
M  V30 3098 O 281.678 1.94763 0.21073 0
M  V30 3099 H 280.258 0.29884 -0.684619 0
M  V30 3100 H 282.92 0.0810064 -1.94732 0
M  V30 3101 H 282.016 1.3338 -2.82163 0
M  V30 3102 N 282.317 1.53212 0.369288 0
M  V30 3103 C 283.566 1.68436 1.10961 0
M  V30 3104 C 283.879 0.440738 1.9057 0
M  V30 3105 O 285.085 0.473446 2.6734 0
M  V30 3106 C 283.541 2.97744 2.0218 0
M  V30 3107 C 283.149 4.29355 1.279 0
M  V30 3108 C 284.893 3.22334 2.76226 0
M  V30 3109 C 282.8 5.49755 2.17999 0
M  V30 3110 H 281.73 0.627568 0.41794 0
M  V30 3111 H 284.381 1.79713 0.370884 0
M  V30 3112 H 282.763 2.8026 2.79768 0
M  V30 3113 H 283.937 4.57458 0.554007 0
M  V30 3114 H 282.252 4.11179 0.657311 0
M  V30 3115 H 284.849 4.09471 3.43857 0
M  V30 3116 H 285.192 2.38238 3.41392 0
M  V30 3117 H 285.725 3.40475 2.05723 0
M  V30 3118 H 282.464 6.36318 1.57417 0
M  V30 3119 H 281.984 5.25937 2.88359 0
M  V30 3120 H 283.663 5.84401 2.77641 0
M  V30 3121 N 283.795 -0.628877 1.44509 0
M  V30 3122 C 284.743 -1.76193 1.51852 0
M  V30 3123 C 285.737 -1.64849 0.390042 0
M  V30 3124 O 286.943 -1.709 0.565082 0
M  V30 3125 H 283.318 -0.581728 0.476547 0
M  V30 3126 H 285.289 -1.67123 2.47209 0
M  V30 3127 C 284.038 -3.14533 1.48204 0
M  V30 3128 H 283.361 -3.23911 2.34354 0
M  V30 3129 H 284.801 -3.93701 1.57402 0
M  V30 3130 C 283.26 -3.36287 0.203142 0
M  V30 3131 O 283.79 -3.9509 -0.725745 0
M  V30 3132 N 281.996 -2.90408 0.105563 0
M  V30 3133 H 281.543 -2.42739 0.862301 0
M  V30 3134 H 281.501 -3.05339 -0.749371 0
M  V30 3135 N 285.273 -1.31445 -0.869486 0
M  V30 3136 C 286.236 -1.19094 -1.9583 0
M  V30 3137 C 287.236 -0.117906 -1.60367 0
M  V30 3138 O 288.426 -0.367208 -1.70286 0
M  V30 3139 C 285.558 -0.828165 -3.30688 0
M  V30 3140 H 286.751 -2.15842 -2.08212 0
M  V30 3141 H 284.304 -1.15063 -1.05784 0
M  V30 3142 H 285.039 0.138142 -3.24006 0
M  V30 3143 H 284.824 -1.6038 -3.578 0
M  V30 3144 H 286.314 -0.765658 -4.10521 0
M  V30 3145 N 286.751 1.08385 -1.14413 0
M  V30 3146 C 288 1.80153 -0.907076 0
M  V30 3147 C 288.313 1.87176 0.567851 0
M  V30 3148 O 289.519 2.55359 0.922172 0
M  V30 3149 C 287.975 3.23687 -1.57336 0
M  V30 3150 C 287.583 3.24897 -3.08457 0
M  V30 3151 C 289.327 4.00136 -1.41744 0
M  V30 3152 C 287.234 4.6302 -3.67921 0
M  V30 3153 H 286.164 0.675139 -0.335714 0
M  V30 3154 H 288.815 1.21733 -1.37307 0
M  V30 3155 H 287.197 3.82234 -1.03505 0
M  V30 3156 H 288.371 2.76055 -3.68958 0
M  V30 3157 H 286.686 2.61943 -3.2369 0
M  V30 3158 H 289.283 5.02201 -1.83572 0
M  V30 3159 H 289.626 4.14709 -0.363576 0
M  V30 3160 H 290.159 3.48058 -1.92614 0
M  V30 3161 H 286.898 4.5365 -4.73161 0
M  V30 3162 H 286.418 5.12143 -3.12201 0
M  V30 3163 H 288.097 5.31994 -3.68227 0
M  V30 3164 N 288.23 0.939286 1.26551 0
M  V30 3165 C 289.455 0.602008 1.98471 0
M  V30 3166 C 289.88 -0.815624 1.69497 0
M  V30 3167 O 289.238 -1.54912 0.941905 0
M  V30 3168 C 289.286 0.848407 3.50477 0
M  V30 3169 O 288.39 -0.0804009 4.12322 0
M  V30 3170 H 287.731 0.23049 0.622712 0
M  V30 3171 H 290.261 1.2617 1.61066 0
M  V30 3172 H 290.271 0.768553 4.00696 0
M  V30 3173 H 288.946 1.88171 3.70897 0
M  V30 3174 H 287.523 0.0503508 3.72866 0
M  V30 3175 N 289.708 -1.40897 0.706093 0
M  V30 3176 C 290.957 -2.00284 0.238574 0
M  V30 3177 C 291.27 -1.56604 -1.17194 0
M  V30 3178 O 292.476 -2.08624 -1.73748 0
M  V30 3179 C 290.932 -3.57934 0.375623 0
M  V30 3180 C 290.54 -4.10591 1.79217 0
M  V30 3181 C 292.284 -4.24488 -0.0315857 0
M  V30 3182 C 290.191 -5.60712 1.88032 0
M  V30 3183 H 289.121 -0.749144 0.0854398 0
M  V30 3184 H 291.772 -1.61251 0.875813 0
M  V30 3185 H 290.154 -3.94622 -0.330042 0
M  V30 3186 H 291.328 -3.85301 2.52745 0
M  V30 3187 H 289.643 -3.56601 2.15 0
M  V30 3188 H 292.24 -5.34698 0.0136842 0
M  V30 3189 H 292.583 -4.02261 -1.072 0
M  V30 3190 H 293.116 -3.92873 0.624181 0
M  V30 3191 H 289.855 -5.87781 2.90161 0
M  V30 3192 H 289.375 -5.87896 1.18903 0
M  V30 3193 H 291.054 -6.25658 1.64805 0
M  V30 3194 N 291.186 -0.45159 -1.50991 0
M  V30 3195 C 292.134 0.366864 -2.29689 0
M  V30 3196 C 293.128 1.00809 -1.36139 0
M  V30 3197 O 294.334 0.941427 -1.53418 0
M  V30 3198 H 290.709 0.137133 -0.739391 0
M  V30 3199 H 292.68 -0.317538 -2.96706 0
M  V30 3200 C 291.429 1.44751 -3.16137 0
M  V30 3201 H 290.752 0.963473 -3.88017 0
M  V30 3202 H 292.192 1.99315 -3.74232 0
M  V30 3203 C 290.651 2.43869 -2.32442 0
M  V30 3204 O 291.181 3.4872 -1.99392 0
M  V30 3205 N 289.387 2.15105 -1.95392 0
M  V30 3206 H 288.934 1.29866 -2.22469 0
M  V30 3207 H 288.892 2.81661 -1.39693 0
M  V30 3208 N 292.664 1.56529 -0.183458 0
M  V30 3209 C 293.612 2.19873 0.758845 0
M  V30 3210 C 294.606 1.16638 1.22849 0
M  V30 3211 O 295.812 1.3481 1.19274 0
M  V30 3212 H 292.187 0.7045 0.263029 0
M  V30 3213 H 294.158 2.97724 0.200755 0
M  V30 3214 C 292.907 2.86314 1.9728 0
M  V30 3215 H 292.23 3.65487 1.62047 0
M  V30 3216 H 293.67 3.3409 2.61075 0
M  V30 3217 C 292.129 1.86729 2.80418 0
M  V30 3218 O 292.659 1.36031 3.77966 0
M  V30 3219 N 290.865 1.55216 2.45675 0
M  V30 3220 H 290.412 1.96636 1.66409 0
M  V30 3221 H 290.37 0.888388 3.01588 0
M  V30 3222 N 294.142 -0.090211 1.57342 0
M  V30 3223 C 295.388 -0.793982 1.86611 0
M  V30 3224 C 295.721 -1.78142 0.773252 0
M  V30 3225 O 294.996 -1.93271 -0.218304 0
M  V30 3226 C 295.279 -1.51839 3.26523 0
M  V30 3227 C 295.132 -0.548609 4.46442 0
M  V30 3228 C 296.451 -2.46779 3.64401 0
M  V30 3229 H 293.57 -0.287186 0.678744 0
M  V30 3230 H 296.212 -0.0575076 1.89913 0
M  V30 3231 H 294.362 -2.14617 3.23839 0
M  V30 3232 H 296.034 0.0725513 4.61243 0
M  V30 3233 H 294.277 0.137614 4.33582 0
M  V30 3234 H 294.948 -1.09271 5.41076 0
M  V30 3235 H 297.424 -1.94089 3.68061 0
M  V30 3236 H 296.3 -2.94479 4.63221 0
M  V30 3237 H 296.561 -3.30758 2.93346 0
M  V30 3238 N 295.62 -1.53406 -0.361157 0
M  V30 3239 C 296.568 -1.80832 -1.46296 0
M  V30 3240 C 297.562 -0.677699 -1.55253 0
M  V30 3241 O 298.768 -0.860723 -1.58087 0
M  V30 3242 H 295.143 -0.572627 -0.487445 0
M  V30 3243 H 297.114 -2.73045 -1.20371 0
M  V30 3244 C 295.863 -2.01907 -2.8307 0
M  V30 3245 H 295.186 -2.88349 -2.76938 0
M  V30 3246 H 296.626 -2.25072 -3.59331 0
M  V30 3247 C 295.085 -0.799449 -3.27277 0
M  V30 3248 O 295.615 0.00971761 -4.01699 0
M  V30 3249 N 293.821 -0.621637 -2.83873 0
M  V30 3250 H 293.368 -1.28126 -2.23476 0
M  V30 3251 H 293.326 0.19298 -3.13807 0
M  V30 3252 N 297.098 0.621204 -1.44841 0
M  V30 3253 C 298.344 1.3826 -1.48365 0
M  V30 3254 C 298.677 1.93831 -0.119624 0
M  V30 3255 O 297.952 1.74251 0.864111 0
M  V30 3256 C 298.235 2.54058 -2.55199 0
M  V30 3257 C 298.088 2.03772 -4.00995 0
M  V30 3258 C 299.407 3.56225 -2.58442 0
M  V30 3259 H 296.526 0.501374 -0.540179 0
M  V30 3260 H 299.168 0.7015 -1.76576 0
M  V30 3261 H 297.318 3.12162 -2.31274 0
M  V30 3262 H 298.99 1.50423 -4.36086 0
M  V30 3263 H 297.233 1.34876 -4.12299 0
M  V30 3264 H 297.904 2.87185 -4.71411 0
M  V30 3265 H 300.38 3.07939 -2.79844 0
M  V30 3266 H 299.256 4.34756 -3.3508 0
M  V30 3267 H 299.517 4.10949 -1.63013 0
M  V30 3268 N 298.576 1.31904 0.862503 0
M  V30 3269 C 299.526 1.16772 1.95827 0
M  V30 3270 C 300.51 0.0767098 1.60717 0
M  V30 3271 O 301.702 0.302407 1.74398 0
M  V30 3272 C 298.831 0.884858 3.317 0
M  V30 3273 C 297.917 2.0172 3.73055 0
M  V30 3274 N 298.308 3.265 3.86305 0
M  V30 3275 C 296.606 1.91861 4.02623 0
M  V30 3276 C 297.307 4.00616 4.2176 0
M  V30 3277 N 296.283 3.28847 4.32852 0
M  V30 3278 H 300.085 2.11382 2.04193 0
M  V30 3279 H 297.599 1.2357 1.05377 0
M  V30 3280 H 299.596 0.757419 4.09962 0
M  V30 3281 H 298.256 -0.0529448 3.24657 0
M  V30 3282 H 299.267 3.61529 3.70833 0
M  V30 3283 H 295.944 1.05593 4.03926 0
M  V30 3284 H 297.334 5.08182 4.39546 0
M  V30 3285 N 300.054 -1.07777 1.14986 0
M  V30 3286 C 301.001 -2.14867 0.842672 0
M  V30 3287 C 301.971 -1.6486 -0.202552 0
M  V30 3288 O 303.156 -1.90668 -0.0710568 0
M  V30 3289 C 300.296 -3.43486 0.333363 0
M  V30 3290 C 299.409 -4.07306 1.43965 0
M  V30 3291 C 298.544 -5.23744 0.886914 0
M  V30 3292 C 297.583 -5.79517 1.97043 0
M  V30 3293 N 296.72 -6.87291 1.4344 0
M  V30 3294 H 301.56 -2.40485 1.75986 0
M  V30 3295 H 299.097 -1.1801 0.878179 0
M  V30 3296 H 301.055 -4.17195 0.0198163 0
M  V30 3297 H 299.685 -3.18133 -0.546916 0
M  V30 3298 H 298.737 -3.31293 1.86946 0
M  V30 3299 H 300.049 -4.44771 2.25788 0
M  V30 3300 H 299.203 -6.04419 0.525651 0
M  V30 3301 H 297.942 -4.87685 0.0377957 0
M  V30 3302 H 296.947 -4.97491 2.34057 0
M  V30 3303 H 298.172 -6.17632 2.82325 0
M  V30 3304 H 296.118 -6.5318 0.607567 0
M  V30 3305 H 296.035 -7.23617 2.18895 0
M  V30 3306 H 297.303 -7.71682 1.10124 0
M  V30 3307 N 301.532 -0.945985 -1.26051 0
M  V30 3308 C 302.76 -0.613025 -1.9761 0
M  V30 3309 C 303.175 0.813035 -1.70397 0
M  V30 3310 O 302.532 1.54274 -0.974979 0
M  V30 3311 C 302.583 -0.85159 -3.51326 0
M  V30 3312 O 302.304 -2.22157 -3.77595 0
M  V30 3313 C 303.805 -0.529831 -4.40122 0
M  V30 3314 H 301.025 -0.230593 -0.630133 0
M  V30 3315 H 303.569 -1.268 -1.60443 0
M  V30 3316 H 301.724 -0.243151 -3.86636 0
M  V30 3317 H 302.138 -2.2852 -4.721 0
M  V30 3318 H 303.612 -0.747348 -5.46917 0
M  V30 3319 H 304.089 0.535341 -4.35925 0
M  V30 3320 H 304.695 -1.11721 -4.10364 0
M  V30 3321 N 303.011 1.40521 -0.713556 0
M  V30 3322 C 303.921 2.34522 -0.0606667 0
M  V30 3323 C 304.937 1.57193 0.74607 0
M  V30 3324 O 306.113 1.89591 0.679493 0
M  V30 3325 C 303.178 3.36081 0.851491 0
M  V30 3326 C 302.239 4.29286 0.0349339 0
M  V30 3327 C 301.472 5.25994 0.903649 0
M  V30 3328 O 301.695 5.28616 2.14292 0
M  V30 3329 O 300.629 6.00918 0.343723 0
M  V30 3330 H 304.455 2.91968 -0.835972 0
M  V30 3331 H 302.04 1.41681 -0.47402 0
M  V30 3332 H 303.922 3.98369 1.37404 0
M  V30 3333 H 302.597 2.81052 1.60598 0
M  V30 3334 H 301.504 3.70289 -0.532633 0
M  V30 3335 H 302.837 4.87462 -0.681287 0
M  V30 3336 N 304.489 0.459591 1.5075 0
M  V30 3337 C 305.717 -0.0973749 2.06671 0
M  V30 3338 C 306.132 -1.34524 1.32472 0
M  V30 3339 O 305.489 -1.7827 0.390634 0
M  V30 3340 C 305.54 -0.39714 3.59312 0
M  V30 3341 O 305.261 0.801214 4.30711 0
M  V30 3342 C 306.762 -1.00234 4.31819 0
M  V30 3343 H 303.982 0.00195854 0.670997 0
M  V30 3344 H 306.526 0.645072 1.94059 0
M  V30 3345 H 304.681 -1.08951 3.71764 0
M  V30 3346 H 305.095 0.538857 5.21725 0
M  V30 3347 H 306.569 -1.16193 5.39632 0
M  V30 3348 H 307.046 -1.98939 3.91561 0
M  V30 3349 H 307.652 -0.348699 4.23868 0
M  V30 3350 N 305.967 -1.56429 0.191757 0
M  V30 3351 C 306.914 -2.18936 -0.730454 0
M  V30 3352 C 307.884 -1.13557 -1.21219 0
M  V30 3353 O 309.069 -1.41794 -1.27668 0
M  V30 3354 C 306.209 -2.85013 -1.9458 0
M  V30 3355 C 305.322 -4.04909 -1.50574 0
M  V30 3356 C 304.457 -4.58853 -2.67634 0
M  V30 3357 C 303.496 -5.71114 -2.20217 0
M  V30 3358 N 302.633 -6.19478 -3.30442 0
M  V30 3359 H 307.473 -2.97389 -0.190664 0
M  V30 3360 H 305.01 -1.46869 -0.0823694 0
M  V30 3361 H 306.968 -3.21492 -2.65893 0
M  V30 3362 H 305.598 -2.09129 -2.45896 0
M  V30 3363 H 304.65 -3.74115 -0.688605 0
M  V30 3364 H 305.962 -4.86113 -1.11784 0
M  V30 3365 H 305.116 -4.97619 -3.47074 0
M  V30 3366 H 303.855 -3.76749 -3.09696 0
M  V30 3367 H 302.86 -5.31879 -1.3923 0
M  V30 3368 H 304.085 -6.55033 -1.79189 0
M  V30 3369 H 302.031 -5.40297 -3.72041 0
M  V30 3370 H 301.948 -6.95725 -2.9581 0
M  V30 3371 H 303.216 -6.62898 -4.10106 0
M  V30 3372 N 307.445 0.0818655 -1.57387 0
M  V30 3373 C 308.375 1.09885 -2.06028 0
M  V30 3374 C 309.356 1.4098 -0.951774 0
M  V30 3375 O 310.541 1.50781 -1.22387 0
M  V30 3376 C 307.671 2.4151 -2.4958 0
M  V30 3377 C 306.625 2.24792 -3.64215 0
M  V30 3378 C 305.951 3.61712 -3.93787 0
M  V30 3379 C 307.251 1.67749 -4.94629 0
M  V30 3380 H 308.945 0.694128 -2.91243 0
M  V30 3381 H 306.491 0.332448 -1.4011 0
M  V30 3382 H 308.444 3.12939 -2.82219 0
M  V30 3383 H 307.168 2.83943 -1.61381 0
M  V30 3384 H 305.827 1.55807 -3.31843 0
M  V30 3385 H 305.475 4.01697 -3.02735 0
M  V30 3386 H 305.175 3.51368 -4.70971 0
M  V30 3387 H 306.699 4.34587 -4.28913 0
M  V30 3388 H 308.113 2.29032 -5.25564 0
M  V30 3389 H 306.51 1.68128 -5.76067 0
M  V30 3390 H 307.58 0.638059 -4.80684 0
M  V30 3391 N 308.923 1.53595 0.353017 0
M  V30 3392 C 310.172 1.69603 1.09168 0
M  V30 3393 C 310.485 0.460925 1.90092 0
M  V30 3394 O 311.691 0.501774 2.66823 0
M  V30 3395 C 310.147 2.99872 1.9901 0
M  V30 3396 C 309.755 4.30687 1.23339 0
M  V30 3397 C 311.499 3.25246 2.72792 0
M  V30 3398 C 309.406 5.52036 2.12156 0
M  V30 3399 H 308.336 0.631966 0.411261 0
M  V30 3400 H 310.987 1.80096 0.351802 0
M  V30 3401 H 309.369 2.83212 2.7678 0
M  V30 3402 H 310.543 4.58019 0.505456 0
M  V30 3403 H 308.858 4.11853 0.613663 0
M  V30 3404 H 311.455 4.13095 3.39495 0
M  V30 3405 H 311.798 2.41846 3.38846 0
M  V30 3406 H 312.331 3.42638 2.021 0
M  V30 3407 H 309.07 6.37951 1.50659 0
M  V30 3408 H 308.59 5.28966 2.82764 0
M  V30 3409 H 310.269 5.87313 2.71427 0
M  V30 3410 N 310.401 -0.613514 1.45168 0
M  V30 3411 C 311.629 -1.39946 1.5239 0
M  V30 3412 C 312.044 -1.88167 0.154531 0
M  V30 3413 O 311.401 -1.61872 -0.842843 0
M  V30 3414 C 311.452 -2.60795 2.50337 0
M  V30 3415 O 311.173 -2.1458 3.81952 0
M  V30 3416 C 312.674 -3.53723 2.67198 0
M  V30 3417 H 309.894 -0.428593 0.516284 0
M  V30 3418 H 312.438 -0.748753 1.903 0
M  V30 3419 H 310.593 -3.21919 2.15515 0
M  V30 3420 H 311.007 -2.93055 4.34993 0
M  V30 3421 H 312.481 -4.35079 3.39721 0
M  V30 3422 H 312.958 -4.0368 1.73029 0
M  V30 3423 H 313.564 -2.98456 3.02992 0
M  V30 3424 N 311.879 -1.3236 -0.855495 0
M  V30 3425 C 313.156 -1.13491 -1.59309 0
M  V30 3426 C 313.536 0.30503 -2.08885 0
M  V30 3427 O 312.884 1.30151 -1.87811 0
M  V30 3428 C 313.094 -2.16176 -2.73987 0
M  V30 3429 C 314.442 -2.49463 -3.43589 0
M  V30 3430 O 315.466 -2.14715 -2.84211 0
M  V30 3431 O 314.325 -3.09027 -4.50738 0
M  V30 3432 H 311.419 -0.437887 -0.701559 0
M  V30 3433 H 313.965 -1.43887 -0.899696 0
M  V30 3434 H 312.737 -3.1297 -2.34873 0
M  V30 3435 H 312.36 -1.86769 -3.51003 0
M  V30 3436 N 313.357 1.07166 -1.15556 0
M  V30 3437 C 314.307 2.12649 -0.82247 0
M  V30 3438 C 315.291 1.59725 0.194129 0
M  V30 3439 O 316.483 1.76999 -0.00540402 0
M  V30 3440 C 313.612 3.41847 -0.315572 0
M  V30 3441 C 312.698 4.0162 -1.36244 0
M  V30 3442 N 313.089 4.35625 -2.5703 0
M  V30 3443 C 311.387 4.29114 -1.21562 0
M  V30 3444 C 312.088 4.83017 -3.24144 0
M  V30 3445 N 311.064 4.81906 -2.51531 0
M  V30 3446 H 314.866 2.36776 -1.74111 0
M  V30 3447 H 312.38 1.24622 -1.0413 0
M  V30 3448 H 314.377 4.16859 -0.0585855 0
M  V30 3449 H 313.037 3.19163 0.597105 0
M  V30 3450 H 314.048 4.26253 -2.94158 0
M  V30 3451 H 310.725 4.15919 -0.362988 0
M  V30 3452 H 312.115 5.18605 -4.27198 0
M  V30 3453 N 314.835 0.952656 1.25548 0
M  V30 3454 C 316.082 0.606373 1.93208 0
M  V30 3455 C 316.41 -0.85631 1.74636 0
M  V30 3456 O 315.665 -1.62951 1.08376 0
M  V30 3457 C 315.964 0.908818 3.45652 0
M  V30 3458 C 315.63 2.35722 3.84378 0
M  V30 3459 C 314.292 2.75312 3.9466 0
M  V30 3460 C 316.644 3.29793 4.03591 0
M  V30 3461 C 313.972 4.08047 4.21562 0
M  V30 3462 C 316.324 4.62138 4.31985 0
M  V30 3463 C 314.988 5.01528 4.40484 0
M  V30 3464 H 314.258 0.221888 0.706998 0
M  V30 3465 H 316.905 1.20132 1.49133 0
M  V30 3466 H 315.21 0.231456 3.91116 0
M  V30 3467 H 316.907 0.619498 3.96186 0
M  V30 3468 H 313.497 2.04017 3.76928 0
M  V30 3469 H 317.681 3.00397 3.95064 0
M  V30 3470 H 312.937 4.38212 4.26357 0
M  V30 3471 H 317.111 5.35012 4.45797 0
M  V30 3472 H 314.738 6.04406 4.61083 0
M  V30 3473 N 316.313 -1.40141 0.720998 0
M  V30 3474 C 317.243 -2.33339 0.0867621 0
M  V30 3475 C 318.224 -1.53178 -0.739622 0
M  V30 3476 O 319.409 -1.81625 -0.687449 0
M  V30 3477 C 316.539 -3.37194 -0.831728 0
M  V30 3478 C 315.493 -4.27857 -0.110558 0
M  V30 3479 C 314.819 -5.22294 -1.14513 0
M  V30 3480 C 316.119 -5.11872 1.0385 0
M  V30 3481 H 317.813 -2.86626 0.865219 0
M  V30 3482 H 315.359 -1.37814 0.417516 0
M  V30 3483 H 317.312 -4.01335 -1.28485 0
M  V30 3484 H 316.036 -2.82314 -1.64214 0
M  V30 3485 H 314.695 -3.65176 0.322797 0
M  V30 3486 H 314.343 -4.63717 -1.94874 0
M  V30 3487 H 314.043 -5.83797 -0.667446 0
M  V30 3488 H 315.567 -5.89312 -1.59824 0
M  V30 3489 H 316.981 -5.69436 0.664482 0
M  V30 3490 H 315.378 -5.82445 1.4449 0
M  V30 3491 H 316.448 -4.4753 1.86668 0
M  V30 3492 N 317.792 -0.46758 -1.50504 0
M  V30 3493 C 319.203 -0.0116166 -1.86696 0
M  V30 3494 C 319.554 1.39202 -1.38265 0
M  V30 3495 O 318.679 2.0313 -0.746132 0
M  V30 3496 C 319.274 -0.0143044 -3.38797 0
M  V30 3497 C 317.833 0.386175 -3.74414 0
M  V30 3498 C 316.98 -0.401287 -2.74381 0
M  V30 3499 H 319.931 -0.682022 -1.43297 0
M  V30 3500 H 319.952 0.788641 -3.72237 0
M  V30 3501 H 319.464 -1.03602 -3.74016 0
M  V30 3502 H 317.565 1.41237 -3.44794 0
M  V30 3503 H 317.678 0.0899596 -4.79016 0
M  V30 3504 H 316.042 0.144536 -2.5429 0
M  V30 3505 H 316.825 -1.42244 -3.12444 0
M  V30 3506 N 319.27 1.56325 -0.20005 0
M  V30 3507 C 320.547 1.89484 0.48529 0
M  V30 3508 C 320.927 1.1143 1.79294 0
M  V30 3509 O 320.275 0.216919 2.27468 0
M  V30 3510 C 320.485 3.41923 0.699243 0
M  V30 3511 C 321.833 4.12256 1.01638 0
M  V30 3512 O 322.857 3.47402 0.786792 0
M  V30 3513 O 321.716 5.26887 1.45095 0
M  V30 3514 H 318.81 0.787144 0.253639 0
M  V30 3515 H 321.356 1.67985 -0.240633 0
M  V30 3516 H 320.128 3.90658 -0.224008 0
M  V30 3517 H 319.751 3.69131 1.47744 0
M  V30 3518 N 320.748 -0.0735177 1.57428 0
M  V30 3519 C 321.994 -0.774145 1.87443 0
M  V30 3520 C 322.327 -1.77311 0.792103 0
M  V30 3521 O 321.602 -1.93492 -0.197793 0
M  V30 3522 C 321.885 -1.48367 3.28115 0
M  V30 3523 C 321.738 -0.501227 4.46999 0
M  V30 3524 C 323.057 -2.429 3.66998 0
M  V30 3525 H 320.176 -0.279971 0.681752 0
M  V30 3526 H 322.818 -0.0373616 1.89963 0
M  V30 3527 H 320.968 -2.11171 3.26097 0
M  V30 3528 H 322.64 0.121468 4.6114 0
M  V30 3529 H 320.883 0.183593 4.33411 0
M  V30 3530 H 321.554 -1.03526 5.42205 0
M  V30 3531 H 324.03 -1.90175 3.70098 0
M  V30 3532 H 322.906 -2.89549 4.66318 0
M  V30 3533 H 323.167 -3.27628 2.96837 0
M  V30 3534 N 322.226 -1.5378 -0.344866 0
M  V30 3535 C 323.189 -1.80981 -1.40637 0
M  V30 3536 C 324.189 -0.680816 -1.45676 0
M  V30 3537 O 325.379 -0.949095 -1.46075 0
M  V30 3538 C 322.511 -1.95063 -2.79577 0
M  V30 3539 H 323.704 -2.75803 -1.17783 0
M  V30 3540 H 321.257 -1.45173 -0.579181 0
M  V30 3541 H 321.992 -1.02379 -3.07716 0
M  V30 3542 H 321.777 -2.77198 -2.77315 0
M  V30 3543 H 323.267 -2.17629 -3.56409 0
M  V30 3544 N 323.704 0.605807 -1.45491 0
M  V30 3545 C 324.614 1.74466 -1.56839 0
M  V30 3546 C 325.63 1.68006 -0.452772 0
M  V30 3547 O 326.806 1.8833 -0.713708 0
M  V30 3548 C 323.871 3.10931 -1.53371 0
M  V30 3549 C 322.932 3.28832 -2.75986 0
M  V30 3550 C 322.165 4.58787 -2.72673 0
M  V30 3551 O 322.388 5.4122 -1.80102 0
M  V30 3552 O 321.322 4.79438 -3.63899 0
M  V30 3553 H 325.148 1.67843 -2.53106 0
M  V30 3554 H 322.733 0.770108 -1.28022 0
M  V30 3555 H 324.615 3.92233 -1.54051 0
M  V30 3556 H 323.29 3.18042 -0.602572 0
M  V30 3557 H 322.197 2.47112 -2.80867 0
M  V30 3558 H 323.53 3.26599 -3.68231 0
M  V30 3559 N 325.182 1.32811 0.848464 0
M  V30 3560 C 326.428 1.23907 1.60546 0
M  V30 3561 C 326.761 -0.197161 1.93197 0
M  V30 3562 O 326.036 -1.13596 1.5788 0
M  V30 3563 C 326.319 2.10489 2.92175 0
M  V30 3564 C 326.172 3.62522 2.66266 0
M  V30 3565 C 327.491 1.97075 3.93509 0
M  V30 3566 H 324.61 0.451459 0.58254 0
M  V30 3567 H 327.252 1.62818 0.979296 0
M  V30 3568 H 325.402 1.77434 3.45614 0
M  V30 3569 H 327.074 4.05821 2.19334 0
M  V30 3570 H 325.317 3.84879 2.00126 0
M  V30 3571 H 325.988 4.18437 3.6002 0
M  V30 3572 H 328.464 2.26045 3.49346 0
M  V30 3573 H 327.34 2.59923 4.83457 0
M  V30 3574 H 327.601 0.940186 4.31987 0
M  V30 3575 N 326.66 -1.06551 1.16123 0
M  V30 3576 C 327.623 -2.12132 0.867906 0
M  V30 3577 C 328.623 -1.60224 -0.135944 0
M  V30 3578 O 329.813 -1.73943 0.0946422 0
M  V30 3579 C 326.945 -3.396 0.297419 0
M  V30 3580 H 328.138 -2.39586 1.80385 0
M  V30 3581 H 325.691 -1.22574 0.969812 0
M  V30 3582 H 326.426 -3.17794 -0.64633 0
M  V30 3583 H 326.211 -3.78581 1.02073 0
M  V30 3584 H 327.701 -4.17455 0.110052 0
M  V30 3585 N 328.138 -0.959301 -1.25041 0
M  V30 3586 C 329.415 -0.533805 -1.88175 0
M  V30 3587 C 329.795 0.988994 -1.865 0
M  V30 3588 O 329.143 1.85677 -1.33177 0
M  V30 3589 C 329.353 -1.11575 -3.30684 0
M  V30 3590 C 330.701 -1.19548 -4.07423 0
M  V30 3591 O 331.725 -1.06765 -3.39823 0
M  V30 3592 O 330.584 -1.39656 -5.28354 0
M  V30 3593 H 327.678 -0.176772 -0.807887 0
M  V30 3594 H 330.224 -1.05303 -1.33076 0
M  V30 3595 H 328.996 -2.15884 -3.26358 0
M  V30 3596 H 328.619 -0.580059 -3.93346 0
M  V30 3597 N 329.616 1.39756 -0.72842 0
M  V30 3598 C 330.865 1.99879 -0.270407 0
M  V30 3599 C 331.178 1.58449 1.14688 0
M  V30 3600 O 332.384 2.11362 1.70407 0
M  V30 3601 C 330.84 3.57292 -0.43252 0
M  V30 3602 C 330.448 4.07688 -1.85727 0
M  V30 3603 C 332.192 4.24485 -0.0359507 0
M  V30 3604 C 330.099 5.5765 -1.96928 0
M  V30 3605 H 329.029 0.747689 -0.0973472 0
M  V30 3606 H 331.68 1.59837 -0.901355 0
M  V30 3607 H 330.062 3.95097 0.267219 0
M  V30 3608 H 331.236 3.81231 -2.58843 0
M  V30 3609 H 329.551 3.53135 -2.20646 0
M  V30 3610 H 332.148 5.34609 -0.0987484 0
M  V30 3611 H 332.491 4.03915 1.00787 0
M  V30 3612 H 333.024 3.9183 -0.686604 0
M  V30 3613 H 329.763 5.8309 -2.99476 0
M  V30 3614 H 329.283 5.8593 -1.28241 0
M  V30 3615 H 330.962 6.22957 -1.74737 0
M  V30 3616 N 331.094 0.475555 1.50254 0
M  V30 3617 C 332.341 -0.0778919 2.0235 0
M  V30 3618 C 332.669 -1.39319 1.35722 0
M  V30 3619 O 331.924 -1.89888 0.473395 0
M  V30 3620 C 332.223 -0.305114 3.56095 0
M  V30 3621 C 331.889 0.92903 4.41225 0
M  V30 3622 C 330.551 1.26739 4.6421 0
M  V30 3623 C 332.903 1.75054 4.90923 0
M  V30 3624 C 330.231 2.42724 5.34137 0
M  V30 3625 C 332.583 2.9017 5.62125 0
M  V30 3626 C 331.247 3.24416 5.83362 0
M  V30 3627 H 330.517 -0.0285027 0.740452 0
M  V30 3628 H 333.164 0.630543 1.80821 0
M  V30 3629 H 331.469 -1.09584 3.76163 0
M  V30 3630 H 333.166 -0.747377 3.93974 0
M  V30 3631 H 329.756 0.655428 4.23559 0
M  V30 3632 H 333.94 1.50231 4.73016 0
M  V30 3633 H 329.196 2.69525 5.48786 0
M  V30 3634 H 333.37 3.54169 5.99614 0
M  V30 3635 H 330.997 4.14396 6.37323 0
M  V30 3636 N 332.573 -1.56217 0.208337 0
M  V30 3637 C 333.989 -1.58919 -0.14729 0
M  V30 3638 C 334.189 -1.22486 -1.59998 0
M  V30 3639 O 333.245 -0.953849 -2.3379 0
M  V30 3640 C 334.558 -3.00236 0.167048 0
M  V30 3641 C 336.106 -3.12813 0.108219 0
M  V30 3642 C 336.581 -4.56284 0.396049 0
M  V30 3643 N 338.072 -4.61912 0.345142 0
M  V30 3644 C 338.807 -5.70837 0.541523 0
M  V30 3645 N 338.303 -6.88178 0.798968 0
M  V30 3646 N 340.096 -5.60091 0.474867 0
M  V30 3647 H 332.247 -1.78177 1.15614 0
M  V30 3648 H 334.51 -0.827555 0.462446 0
M  V30 3649 H 334.216 -3.31499 1.1748 0
M  V30 3650 H 334.09 -3.7354 -0.524184 0
M  V30 3651 H 336.477 -2.81354 -0.890157 0
M  V30 3652 H 336.558 -2.41866 0.832729 0
M  V30 3653 H 336.202 -4.88458 1.3918 0
M  V30 3654 H 336.132 -5.25439 -0.349502 0
M  V30 3655 H 338.623 -3.77589 0.153316 0
M  V30 3656 H 338.936 -7.67095 0.93727 0
M  V30 3657 H 337.281 -6.89953 0.836013 0
M  V30 3658 H 340.472 -4.67297 0.274064 0
M  V30 3659 H 340.645 -6.44917 0.631326 0
M  V30 3660 N 334.051 0.0651679 -1.57465 0
M  V30 3661 C 335.279 0.775808 -1.91804 0
M  V30 3662 C 335.694 1.70782 -0.804916 0
M  V30 3663 O 335.051 1.81153 0.221311 0
M  V30 3664 C 335.102 1.56381 -3.25925 0
M  V30 3665 O 334.823 0.669248 -4.32958 0
M  V30 3666 C 336.324 2.37485 -3.7432 0
M  V30 3667 H 333.544 0.2202 -0.63384 0
M  V30 3668 H 336.088 0.0334587 -2.04473 0
M  V30 3669 H 334.243 2.25837 -3.14764 0
M  V30 3670 H 334.657 1.21801 -5.10162 0
M  V30 3671 H 336.131 2.88223 -4.70778 0
M  V30 3672 H 336.608 3.17307 -3.03666 0
M  V30 3673 H 337.214 1.73173 -3.88447 0
M  V30 3674 N 335.529 1.53961 0.336706 0
M  V30 3675 C 336.759 1.75229 1.09446 0
M  V30 3676 C 337.167 0.494602 1.82621 0
M  V30 3677 O 336.51 -0.543764 1.75468 0
M  V30 3678 C 336.572 2.88288 2.1478 0
M  V30 3679 C 336.236 4.27656 1.6112 0
M  V30 3680 C 337.233 5.08981 1.0599 0
M  V30 3681 C 334.918 4.74161 1.6576 0
M  V30 3682 C 336.912 6.34916 0.562129 0
M  V30 3683 C 334.599 6.00067 1.15595 0
M  V30 3684 C 335.597 6.80278 0.609147 0
M  V30 3685 O 335.285 8.03818 0.114999 0
M  V30 3686 H 335.017 0.588881 0.331956 0
M  V30 3687 H 337.571 2.01614 0.392566 0
M  V30 3688 H 335.801 2.57443 2.88548 0
M  V30 3689 H 337.49 2.97461 2.76174 0
M  V30 3690 H 338.256 4.74213 1.01722 0
M  V30 3691 H 334.135 4.11781 2.07261 0
M  V30 3692 H 337.679 6.9747 0.134668 0
M  V30 3693 H 333.576 6.3433 1.19566 0
M  V30 3694 H 334.344 8.18172 0.231651 0
M  V30 3695 N 337.007 -0.598083 1.45811 0
M  V30 3696 C 338.255 -1.35413 1.50026 0
M  V30 3697 C 338.576 -1.94444 0.147177 0
M  V30 3698 O 337.846 -1.77701 -0.824571 0
M  V30 3699 H 336.426 -0.502727 0.552517 0
M  V30 3700 H 339.088 -0.701606 1.81834 0
M  V30 3701 H 338.184 -2.16871 2.2444 0
M  V30 3702 N 338.485 -1.33259 -0.841409 0
M  V30 3703 C 339.734 -1.23921 -1.59143 0
M  V30 3704 C 340.047 0.1941 -1.94635 0
M  V30 3705 O 341.253 0.409474 -2.68394 0
M  V30 3706 C 339.709 -2.17119 -2.87032 0
M  V30 3707 C 339.317 -3.65606 -2.58914 0
M  V30 3708 C 341.061 -2.16648 -3.65053 0
M  V30 3709 C 338.968 -4.50726 -3.82884 0
M  V30 3710 H 337.898 -0.460264 -0.597221 0
M  V30 3711 H 340.549 -1.58307 -0.927959 0
M  V30 3712 H 338.931 -1.75663 -3.54906 0
M  V30 3713 H 340.105 -4.15487 -1.99267 0
M  V30 3714 H 338.42 -3.68341 -1.942 0
M  V30 3715 H 341.017 -2.77474 -4.57069 0
M  V30 3716 H 341.36 -1.16088 -3.99787 0
M  V30 3717 H 341.893 -2.56453 -3.041 0
M  V30 3718 H 338.632 -5.52151 -3.53283 0
M  V30 3719 H 338.152 -4.0559 -4.41879 0
M  V30 3720 H 339.831 -4.64401 -4.50489 0
M  V30 3721 N 339.963 1.05934 -1.16686 0
M  V30 3722 C 340.91 2.13499 -0.876748 0
M  V30 3723 C 341.88 1.65162 0.176299 0
M  V30 3724 O 343.065 1.90757 0.0407143 0
M  V30 3725 C 340.205 3.42912 -0.387967 0
M  V30 3726 C 339.318 4.04964 -1.50426 0
M  V30 3727 C 338.453 5.22266 -0.970125 0
M  V30 3728 C 337.492 5.76309 -2.06238 0
M  V30 3729 N 336.629 6.84922 -1.54356 0
M  V30 3730 H 341.469 2.37654 -1.7979 0
M  V30 3731 H 339.006 1.16598 -0.896843 0
M  V30 3732 H 340.964 4.17111 -0.086186 0
M  V30 3733 H 339.594 3.18963 0.496235 0
M  V30 3734 H 338.646 3.28277 -1.92193 0
M  V30 3735 H 339.958 4.41122 -2.32836 0
M  V30 3736 H 339.112 6.03506 -0.621743 0
M  V30 3737 H 337.851 4.87564 -0.115377 0
M  V30 3738 H 336.856 4.93704 -2.41942 0
M  V30 3739 H 338.081 6.13062 -2.92115 0
M  V30 3740 H 336.027 6.52131 -0.711406 0
M  V30 3741 H 335.944 7.20043 -2.30379 0
M  V30 3742 H 337.212 7.69832 -1.22387 0
M  V30 3743 N 341.441 0.965919 1.2453 0
M  V30 3744 C 342.669 0.644385 1.96609 0
M  V30 3745 C 343.084 -0.785823 1.71669 0
M  V30 3746 O 342.441 -1.52703 0.999399 0
M  V30 3747 C 342.492 0.907375 3.49927 0
M  V30 3748 O 342.213 2.28136 3.74013 0
M  V30 3749 C 343.714 0.599784 4.39224 0
M  V30 3750 H 340.934 0.240588 0.626385 0
M  V30 3751 H 343.478 1.29337 1.58405 0
M  V30 3752 H 341.633 0.304631 3.862 0
M  V30 3753 H 342.047 2.36002 4.68405 0
M  V30 3754 H 343.521 0.834263 5.45659 0
M  V30 3755 H 343.998 -0.465921 4.36722 0
M  V30 3756 H 344.604 1.18235 4.08535 0
M  V30 3757 N 342.919 -1.39368 0.735821 0
M  V30 3758 C 344.166 -2.00497 0.284123 0
M  V30 3759 C 344.494 -1.58387 -1.12889 0
M  V30 3760 O 343.749 -0.804359 -1.78406 0
M  V30 3761 C 344.048 -3.5583 0.334651 0
M  V30 3762 C 343.714 -4.17593 1.7008 0
M  V30 3763 C 342.376 -4.34176 2.07472 0
M  V30 3764 C 344.728 -4.51848 2.59775 0
M  V30 3765 C 342.056 -4.82304 3.34065 0
M  V30 3766 C 344.408 -5.01384 3.85741 0
M  V30 3767 C 343.072 -5.16175 4.23225 0
M  V30 3768 H 342.342 -0.73367 0.103968 0
M  V30 3769 H 344.989 -1.66683 0.942825 0
M  V30 3770 H 343.294 -3.89674 -0.407625 0
M  V30 3771 H 344.991 -4.00986 -0.0329927 0
M  V30 3772 H 341.581 -4.05087 1.40008 0
M  V30 3773 H 345.765 -4.38653 2.32157 0
M  V30 3774 H 341.021 -4.91941 3.63049 0
M  V30 3775 H 345.195 -5.26863 4.55399 0
M  V30 3776 H 342.822 -5.5323 5.21384 0
M  V30 3777 N 344.397 -0.483516 -1.5 0
M  V30 3778 C 345.327 0.293829 -2.31644 0
M  V30 3779 C 346.308 0.978864 -1.39112 0
M  V30 3780 O 347.493 0.973644 -1.68029 0
M  V30 3781 C 344.623 1.36897 -3.19181 0
M  V30 3782 C 343.577 0.804833 -4.20365 0
M  V30 3783 C 342.903 1.9792 -4.96721 0
M  V30 3784 C 344.203 -0.192313 -5.21946 0
M  V30 3785 H 345.897 -0.387616 -2.9688 0
M  V30 3786 H 343.443 -0.187856 -1.42769 0
M  V30 3787 H 345.396 1.92037 -3.751 0
M  V30 3788 H 344.12 2.07936 -2.51853 0
M  V30 3789 H 342.779 0.275319 -3.65565 0
M  V30 3790 H 342.427 2.67686 -4.25856 0
M  V30 3791 H 342.127 1.60789 -5.65173 0
M  V30 3792 H 343.651 2.53526 -5.55479 0
M  V30 3793 H 345.065 0.270333 -5.72662 0
M  V30 3794 H 343.462 -0.478543 -5.98189 0
M  V30 3795 H 344.532 -1.11409 -4.71928 0
M  V30 3796 N 345.875 1.56104 -0.216619 0
M  V30 3797 C 347.1 2.0301 0.424462 0
M  V30 3798 C 347.525 1.0955 1.52907 0
M  V30 3799 O 346.883 0.0827914 1.81111 0
M  V30 3800 C 346.931 3.4819 0.937883 0
M  V30 3801 O 346.035 3.57865 2.04955 0
M  V30 3802 H 345.376 0.656925 0.0966755 0
M  V30 3803 H 347.906 2.01859 -0.33381 0
M  V30 3804 H 347.916 3.88413 1.24897 0
M  V30 3805 H 346.591 4.15699 0.129387 0
M  V30 3806 H 345.168 3.29527 1.74546 0
M  V30 3807 N 347.353 -0.0568162 1.57498 0
M  V30 3808 C 348.602 -0.752001 1.87157 0
M  V30 3809 C 348.915 -1.77978 0.811375 0
M  V30 3810 O 350.121 -2.52559 0.996293 0
M  V30 3811 C 348.577 -1.38844 3.3204 0
M  V30 3812 C 348.185 -0.398456 4.46225 0
M  V30 3813 C 349.929 -2.06512 3.70882 0
M  V30 3814 C 347.836 -1.04166 5.82154 0
M  V30 3815 H 346.766 -0.28461 0.698222 0
M  V30 3816 H 349.417 -0.00561272 1.83499 0
M  V30 3817 H 347.799 -2.1836 3.30356 0
M  V30 3818 H 348.973 0.367977 4.59328 0
M  V30 3819 H 347.288 0.174592 4.16034 0
M  V30 3820 H 349.885 -2.55437 4.6974 0
M  V30 3821 H 350.228 -2.87117 3.01445 0
M  V30 3822 H 350.761 -1.33808 3.7462 0
M  V30 3823 H 347.5 -0.275614 6.5492 0
M  V30 3824 H 347.02 -1.7786 5.72823 0
M  V30 3825 H 348.699 -1.55715 6.27982 0
M  V30 3826 N 348.832 -1.54138 -0.328536 0
M  V30 3827 C 349.78 -1.83894 -1.42428 0
M  V30 3828 C 350.774 -0.710478 -1.53781 0
M  V30 3829 O 351.98 -0.894062 -1.56226 0
M  V30 3830 H 348.355 -0.582837 -0.475189 0
M  V30 3831 H 350.326 -2.75537 -1.14552 0
M  V30 3832 C 349.075 -2.07866 -2.78724 0
M  V30 3833 H 348.398 -2.94158 -2.7076 0
M  V30 3834 H 349.838 -2.32644 -3.54476 0
M  V30 3835 C 348.297 -0.868689 -3.25508 0
M  V30 3836 O 348.827 -0.0754908 -4.01629 0
M  V30 3837 N 347.033 -0.681711 -2.82491 0
M  V30 3838 H 346.58 -1.32838 -2.20708 0
M  V30 3839 H 346.538 0.126374 -3.14146 0
M  V30 3840 N 350.31 0.590341 -1.46126 0
M  V30 3841 C 351.54 1.37304 -1.54373 0
M  V30 3842 C 351.948 1.88332 -0.181071 0
M  V30 3843 O 351.291 1.63852 0.830559 0
M  V30 3844 C 351.353 2.6012 -2.48149 0
M  V30 3845 C 351.017 2.30613 -3.94546 0
M  V30 3846 C 352.014 1.89915 -4.83971 0
M  V30 3847 C 349.699 2.42993 -4.39613 0
M  V30 3848 C 351.693 1.61981 -6.16475 0
M  V30 3849 C 349.38 2.14672 -5.72153 0
M  V30 3850 C 350.378 1.7423 -6.60404 0
M  V30 3851 O 350.066 1.46251 -7.90485 0
M  V30 3852 H 349.798 0.426086 -0.524811 0
M  V30 3853 H 352.352 0.72539 -1.92165 0
M  V30 3854 H 350.582 3.27664 -2.05361 0
M  V30 3855 H 352.271 3.22182 -2.46887 0
M  V30 3856 H 353.037 1.79872 -4.50412 0
M  V30 3857 H 348.916 2.73435 -3.71153 0
M  V30 3858 H 352.46 1.30341 -6.85315 0
M  V30 3859 H 348.357 2.24337 -6.05263 0
M  V30 3860 H 349.125 1.6016 -8.02677 0
M  V30 3861 N 351.788 1.33704 0.83433 0
M  V30 3862 C 352.751 1.24244 1.92603 0
M  V30 3863 C 353.751 0.160383 1.59998 0
M  V30 3864 O 354.941 0.412228 1.69252 0
M  V30 3865 C 352.073 0.91555 3.28376 0
M  V30 3866 H 353.266 2.21287 2.02416 0
M  V30 3867 H 350.819 1.17827 1.02696 0
M  V30 3868 H 351.554 -0.0521886 3.24258 0
M  V30 3869 H 351.339 1.69811 3.53422 0
M  V30 3870 H 352.829 0.874231 4.08347 0
M  V30 3871 N 353.266 -1.05314 1.17247 0
M  V30 3872 C 354.491 -1.82509 0.985148 0
M  V30 3873 C 354.916 -1.82343 -0.461788 0
M  V30 3874 O 354.274 -1.23151 -1.33055 0
M  V30 3875 C 354.322 -3.26566 1.52929 0
M  V30 3876 O 353.426 -4.05666 0.742225 0
M  V30 3877 H 352.767 -0.564347 0.349869 0
M  V30 3878 H 355.297 -1.32718 1.55715 0
M  V30 3879 H 355.307 -3.77369 1.55103 0
M  V30 3880 H 353.982 -3.26001 2.58256 0
M  V30 3881 H 352.559 -3.64397 0.791794 0
M  V30 3882 N 354.744 -0.972509 -1.24016 0
M  V30 3883 C 356.155 -0.67517 -1.74064 0
M  V30 3884 C 356.506 0.808939 -1.78747 0
M  V30 3885 O 355.631 1.63286 -1.42009 0
M  V30 3886 C 356.226 -1.21889 -3.16115 0
M  V30 3887 C 354.785 -0.971358 -3.6365 0
M  V30 3888 C 353.932 -1.35134 -2.42145 0
M  V30 3889 H 356.883 -1.14727 -1.09651 0
M  V30 3890 H 356.904 -0.587489 -3.75937 0
M  V30 3891 H 356.416 -2.29906 -3.12674 0
M  V30 3892 H 354.517 0.0930686 -3.72484 0
M  V30 3893 H 354.63 -1.62039 -4.50866 0
M  V30 3894 H 352.994 -0.769751 -2.4279 0
M  V30 3895 H 353.777 -2.4411 -2.41381 0
M  V30 3896 N 356.222 1.38976 -0.743202 0
M  V30 3897 C 357.471 1.99581 -0.291592 0
M  V30 3898 C 357.784 1.59656 1.13001 0
M  V30 3899 O 358.99 2.13157 1.68156 0
M  V30 3900 C 357.446 3.56813 -0.470391 0
M  V30 3901 C 357.054 4.05695 -1.90041 0
M  V30 3902 C 358.798 4.24423 -0.0809709 0
M  V30 3903 C 356.705 5.5553 -2.02832 0
M  V30 3904 H 355.635 0.746615 -0.105272 0
M  V30 3905 H 358.286 1.58872 -0.918258 0
M  V30 3906 H 356.668 3.95359 0.225299 0
M  V30 3907 H 357.842 3.78464 -2.62872 0
M  V30 3908 H 356.157 3.50775 -2.24379 0
M  V30 3909 H 358.754 5.34474 -0.155445 0
M  V30 3910 H 359.097 4.04962 0.96497 0
M  V30 3911 H 359.63 3.9108 -0.728124 0
M  V30 3912 H 356.369 5.79881 -3.05643 0
M  V30 3913 H 355.889 5.84537 -1.34448 0
M  V30 3914 H 357.568 6.21069 -1.81335 0
M  V30 3915 N 357.7 0.491464 1.49741 0
M  V30 3916 C 358.61 -0.296835 2.32715 0
M  V30 3917 C 359.626 -0.976536 1.44013 0
M  V30 3918 O 360.802 -0.960023 1.77047 0
M  V30 3919 C 357.867 -1.35288 3.19215 0
M  V30 3920 C 356.928 -0.687632 4.23757 0
M  V30 3921 C 356.161 -1.69336 5.06123 0
M  V30 3922 O 356.384 -2.92219 4.89861 0
M  V30 3923 O 355.318 -1.25394 5.88693 0
M  V30 3924 H 359.144 0.382048 3.01287 0
M  V30 3925 H 356.729 0.252953 1.47243 0
M  V30 3926 H 358.611 -1.96411 3.72828 0
M  V30 3927 H 357.286 -2.01487 2.53347 0
M  V30 3928 H 356.193 -0.0369159 3.74082 0
M  V30 3929 H 357.526 -0.0682566 4.92153 0
M  V30 3930 N 359.178 -1.55987 0.224894 0
M  V30 3931 C 360.427 -1.97566 -0.406273 0
M  V30 3932 C 360.74 -1.11569 -1.6066 0
M  V30 3933 O 361.946 -1.43062 -2.3075 0
M  V30 3934 C 360.402 -3.51474 -0.774207 0
M  V30 3935 C 360.01 -4.46179 0.403496 0
M  V30 3936 C 361.754 -4.01758 -1.37079 0
M  V30 3937 C 359.661 -5.91399 0.0129412 0
M  V30 3938 H 358.591 -0.737777 -0.155565 0
M  V30 3939 H 361.242 -1.80659 0.321635 0
M  V30 3940 H 359.624 -3.63994 -1.55963 0
M  V30 3941 H 360.798 -4.45409 1.18101 0
M  V30 3942 H 359.113 -4.06255 0.913536 0
M  V30 3943 H 361.71 -5.07756 -1.67596 0
M  V30 3944 H 362.053 -3.47805 -2.28773 0
M  V30 3945 H 362.586 -3.92475 -0.648733 0
M  V30 3946 H 359.325 -6.49341 0.896451 0
M  V30 3947 H 358.845 -5.95356 -0.728821 0
M  V30 3948 H 360.524 -6.45683 -0.412582 0
M  V30 3949 N 360.656 0.0484629 -1.57525 0
M  V30 3950 C 361.904 0.741657 -1.88 0
M  V30 3951 C 362.225 1.76918 -0.820054 0
M  V30 3952 O 361.495 1.95335 0.148661 0
M  V30 3953 H 360.075 0.276908 -0.69378 0
M  V30 3954 H 362.737 0.019013 -1.94891 0
M  V30 3955 H 361.833 1.24336 -2.86264 0
M  V30 3956 N 362.134 1.5431 0.320358 0
M  V30 3957 C 363.382 1.72327 1.05583 0
M  V30 3958 C 363.703 0.50149 1.88441 0
M  V30 3959 O 362.973 -0.48448 1.89815 0
M  V30 3960 H 361.553 0.635387 0.3928 0
M  V30 3961 H 364.215 1.91621 0.356019 0
M  V30 3962 H 363.311 2.60426 1.72003 0
M  V30 3963 N 363.613 -0.582584 1.46437 0
M  V30 3964 C 364.543 -1.70187 1.59871 0
M  V30 3965 C 365.524 -1.64066 0.449042 0
M  V30 3966 O 366.709 -1.82081 0.6753 0
M  V30 3967 C 363.839 -3.08827 1.58881 0
M  V30 3968 C 362.793 -3.29779 2.72819 0
M  V30 3969 C 362.119 -4.68947 2.5689 0
M  V30 3970 C 363.419 -3.17601 4.1464 0
M  V30 3971 H 365.113 -1.592 2.53566 0
M  V30 3972 H 362.659 -0.764472 1.22032 0
M  V30 3973 H 364.612 -3.86951 1.66873 0
M  V30 3974 H 363.336 -3.20713 0.617306 0
M  V30 3975 H 361.995 -2.54054 2.64296 0
M  V30 3976 H 361.643 -4.77599 1.57823 0
M  V30 3977 H 361.343 -4.83919 3.33312 0
M  V30 3978 H 362.867 -5.4924 2.66773 0
M  V30 3979 H 364.281 -3.8557 4.24274 0
M  V30 3980 H 362.678 -3.44094 4.9165 0
M  V30 3981 H 363.748 -2.14681 4.34788 0
M  V30 3982 N 365.091 -1.34144 -0.827227 0
M  V30 3983 C 366.502 -1.23557 -1.39966 0
M  V30 3984 C 366.853 0.140731 -1.95695 0
M  V30 3985 O 365.978 1.04087 -1.89723 0
M  V30 3986 C 366.573 -2.23708 -2.54441 0
M  V30 3987 C 365.132 -2.16924 -3.07605 0
M  V30 3988 C 364.279 -2.10549 -1.80456 0
M  V30 3989 H 367.23 -1.45573 -0.631991 0
M  V30 3990 H 367.251 -1.85157 -3.32411 0
M  V30 3991 H 366.763 -3.23866 -2.13851 0
M  V30 3992 H 364.864 -1.20107 -3.52711 0
M  V30 3993 H 364.977 -3.07988 -3.66988 0
M  V30 3994 H 363.341 -1.56203 -2.01178 0
M  V30 3995 H 364.124 -3.12535 -1.42046 0
M  V30 3996 N 366.569 1.04691 -1.17803 0
M  V30 3997 C 367.797 1.81446 -0.99423 0
M  V30 3998 C 368.212 1.83174 0.457459 0
M  V30 3999 O 367.569 1.26265 1.31771 0
M  V30 4000 C 367.62 3.27334 -1.5341 0
M  V30 4001 O 367.341 3.25798 -2.92895 0
M  V30 4002 C 368.842 4.20759 -1.39559 0
M  V30 4003 H 366.062 0.571599 -0.351447 0
M  V30 4004 H 368.606 1.31982 -1.56208 0
M  V30 4005 H 366.761 3.74052 -1.00815 0
M  V30 4006 H 367.175 4.17144 -3.17949 0
M  V30 4007 H 368.649 5.21084 -1.82141 0
M  V30 4008 H 369.126 4.37856 -0.343394 0
M  V30 4009 H 369.732 3.79901 -1.91195 0
M  V30 4010 N 368.047 0.979072 1.23499 0
M  V30 4011 C 369.01 0.523244 2.23147 0
M  V30 4012 C 370.01 -0.386406 1.56088 0
M  V30 4013 O 371.2 -0.180283 1.73265 0
M  V30 4014 C 368.332 -0.240739 3.40049 0
M  V30 4015 H 369.525 1.40432 2.64989 0
M  V30 4016 H 367.078 0.764824 1.36309 0
M  V30 4017 H 367.813 -1.13841 3.03662 0
M  V30 4018 H 367.598 0.412207 3.89927 0
M  V30 4019 H 369.088 -0.548297 4.13985 0
M  V30 4020 N 369.525 -1.3858 0.750561 0
M  V30 4021 C 370.802 -1.94231 0.231009 0
M  V30 4022 C 371.182 -1.68611 -1.27018 0
M  V30 4023 O 370.53 -1.02296 -2.04323 0
M  V30 4024 C 370.74 -3.44123 0.581428 0
M  V30 4025 C 372.088 -4.2116 0.539389 0
M  V30 4026 O 373.112 -3.52391 0.519541 0
M  V30 4027 O 371.971 -5.43749 0.54765 0
M  V30 4028 H 369.065 -0.825639 0.0474263 0
M  V30 4029 H 371.611 -1.4799 0.830478 0
M  V30 4030 H 370.383 -3.56267 1.61833 0
M  V30 4031 H 370.006 -3.97573 -0.0462047 0
M  V30 4032 N 371.003 -0.499398 -1.49478 0
M  V30 4033 C 372.414 -0.051215 -1.8663 0
M  V30 4034 C 372.765 1.36238 -1.41186 0
M  V30 4035 O 371.89 2.01502 -0.789051 0
M  V30 4036 C 372.485 -0.0861651 -3.3869 0
M  V30 4037 C 371.044 0.30667 -3.75149 0
M  V30 4038 C 370.191 -0.459397 -2.73468 0
M  V30 4039 H 373.142 -0.712264 -1.41818 0
M  V30 4040 H 373.163 0.709507 -3.73826 0
M  V30 4041 H 372.675 -1.11512 -3.71735 0
M  V30 4042 H 370.776 1.33892 -3.47712 0
M  V30 4043 H 370.889 -0.0116669 -4.79099 0
M  V30 4044 H 369.253 0.0905645 -2.54539 0
M  V30 4045 H 370.036 -1.4884 -3.09357 0
M  V30 4046 N 372.481 1.55866 -0.233164 0
M  V30 4047 C 373.411 2.23783 0.666599 0
M  V30 4048 C 374.392 1.21343 1.19205 0
M  V30 4049 O 375.577 1.4996 1.23392 0
M  V30 4050 C 372.707 2.92671 1.86978 0
M  V30 4051 C 371.661 4.01682 1.47768 0
M  V30 4052 C 370.987 4.57926 2.76058 0
M  V30 4053 C 372.287 5.18126 0.658993 0
M  V30 4054 H 373.981 2.99232 0.100306 0
M  V30 4055 H 371.527 1.43924 0.046804 0
M  V30 4056 H 373.48 3.3888 2.50476 0
M  V30 4057 H 372.204 2.14688 2.46123 0
M  V30 4058 H 370.863 3.56222 0.866106 0
M  V30 4059 H 370.511 3.76659 3.33372 0
M  V30 4060 H 370.211 5.31505 2.50552 0
M  V30 4061 H 371.735 5.06859 3.40479 0
M  V30 4062 H 373.149 5.60644 1.19795 0
M  V30 4063 H 371.546 5.98009 0.500552 0
M  V30 4064 H 372.616 4.83763 -0.331856 0
M  V30 4065 N 373.959 -0.0401083 1.57549 0
M  V30 4066 C 375.236 -0.767917 1.79896 0
M  V30 4067 C 375.616 -1.9416 0.82856 0
M  V30 4068 O 374.964 -2.2812 -0.131671 0
M  V30 4069 C 375.174 -1.2113 3.27305 0
M  V30 4070 C 376.522 -1.63175 3.91994 0
M  V30 4071 O 377.546 -1.30616 3.31388 0
M  V30 4072 O 376.405 -2.23565 4.98679 0
M  V30 4073 H 373.499 -0.370441 0.739393 0
M  V30 4074 H 376.045 -0.017737 1.69691 0
M  V30 4075 H 374.817 -0.372937 3.89519 0
M  V30 4076 H 374.44 -2.02183 3.42356 0
M  V30 4077 N 375.437 -1.54477 -0.31217 0
M  V30 4078 C 376.848 -1.64344 -0.885891 0
M  V30 4079 C 377.199 -0.54485 -1.88483 0
M  V30 4080 O 376.324 0.320387 -2.14015 0
M  V30 4081 C 376.919 -2.97908 -1.61357 0
M  V30 4082 C 375.478 -3.09933 -2.13585 0
M  V30 4083 C 374.625 -2.59971 -0.964897 0
M  V30 4084 H 377.576 -1.58448 -0.0894528 0
M  V30 4085 H 377.597 -2.88706 -2.47848 0
M  V30 4086 H 377.109 -3.77845 -0.886277 0
M  V30 4087 H 375.21 -2.34694 -2.89395 0
M  V30 4088 H 375.323 -4.15916 -2.37804 0
M  V30 4089 H 373.687 -2.16147 -1.34731 0
M  V30 4090 H 374.47 -3.42376 -0.251742 0
M  V30 4091 N 376.915 0.57481 -1.46744 0
M  V30 4092 C 377.825 1.711 -1.60505 0
M  V30 4093 C 378.841 1.67008 -0.488307 0
M  V30 4094 O 380.017 1.86774 -0.753495 0
M  V30 4095 C 377.082 3.07608 -1.59932 0
M  V30 4096 C 376.143 3.22904 -2.82898 0
M  V30 4097 C 375.376 4.529 -2.82343 0
M  V30 4098 O 375.599 5.37278 -1.91542 0
M  V30 4099 O 374.533 4.71611 -3.73987 0
M  V30 4100 H 378.359 1.62436 -2.56609 0
M  V30 4101 H 375.944 0.742779 -1.29627 0
M  V30 4102 H 377.826 3.88877 -1.62336 0
M  V30 4103 H 376.501 3.16692 -0.669898 0
M  V30 4104 H 375.408 2.41099 -2.86046 0
M  V30 4105 H 376.741 3.18715 -3.75076 0
M  V30 4106 N 378.394 1.34581 0.820102 0
M  V30 4107 C 379.64 1.27285 1.57881 0
M  V30 4108 C 379.973 -0.156137 1.93571 0
M  V30 4109 O 379.248 -1.10222 1.60254 0
M  V30 4110 C 379.531 2.16639 2.87645 0
M  V30 4111 C 379.384 3.68088 2.58517 0
M  V30 4112 C 380.703 2.05378 3.8924 0
M  V30 4113 H 377.822 0.463714 0.572833 0
M  V30 4114 H 380.464 1.64859 0.944539 0
M  V30 4115 H 378.614 1.84725 3.41773 0
M  V30 4116 H 380.286 4.10382 2.10676 0
M  V30 4117 H 378.529 3.89038 1.91917 0
M  V30 4118 H 379.2 4.2598 3.51063 0
M  V30 4119 H 381.676 2.33404 3.44473 0
M  V30 4120 H 380.552 2.7012 4.77835 0
M  V30 4121 H 380.813 1.0316 4.29896 0
M  V30 4122 N 379.872 -1.04064 1.18357 0
M  V30 4123 C 381.288 -1.2947 0.933258 0
M  V30 4124 C 381.488 -1.97466 -0.401169 0
M  V30 4125 O 380.544 -2.25528 -1.13549 0
M  V30 4126 C 381.857 -2.15337 2.09882 0
M  V30 4127 C 383.405 -2.28683 2.13712 0
M  V30 4128 C 383.88 -3.17917 3.29686 0
M  V30 4129 N 385.371 -3.25504 3.29547 0
M  V30 4130 C 386.106 -3.94706 4.15926 0
M  V30 4131 N 385.602 -4.66239 5.12439 0
M  V30 4132 N 387.395 -3.90986 4.0384 0
M  V30 4133 H 379.546 -0.583359 2.04232 0
M  V30 4134 H 381.809 -0.319921 0.892387 0
M  V30 4135 H 381.515 -1.72682 3.06389 0
M  V30 4136 H 381.389 -3.16015 2.05947 0
M  V30 4137 H 383.776 -2.70575 1.17784 0
M  V30 4138 H 383.857 -1.27596 2.21705 0
M  V30 4139 H 383.501 -2.76736 4.25887 0
M  V30 4140 H 383.431 -4.19036 3.1893 0
M  V30 4141 H 385.922 -2.74547 2.59677 0
M  V30 4142 H 386.235 -5.16638 5.74722 0
M  V30 4143 H 384.58 -4.65143 5.16398 0
M  V30 4144 H 387.771 -3.34234 3.27727 0
M  V30 4145 H 387.944 -4.44646 4.71375 0
M  V30 4146 N 381.35 -0.985608 -1.22978 0
M  V30 4147 C 382.596 -0.667998 -1.92118 0
M  V30 4148 C 382.951 0.790454 -1.75413 0
M  V30 4149 O 382.244 1.56336 -1.10768 0
M  V30 4150 C 382.438 -1.00014 -3.43121 0
M  V30 4151 C 382.267 -2.48933 -3.74516 0
M  V30 4152 C 381.037 -3.15218 -3.94925 0
M  V30 4153 C 383.235 -3.47024 -3.79577 0
M  V30 4154 N 381.217 -4.53689 -4.13569 0
M  V30 4155 C 382.588 -4.70923 -4.03276 0
M  V30 4156 C 384.643 -3.41432 -3.62393 0
M  V30 4157 C 383.346 -5.89914 -4.11574 0
M  V30 4158 C 385.372 -4.59793 -3.71947 0
M  V30 4159 C 384.734 -5.82489 -3.96088 0
M  V30 4160 H 380.833 -0.295589 -0.723983 0
M  V30 4161 H 383.417 -1.26413 -1.4808 0
M  V30 4162 H 381.588 -0.432655 -3.85983 0
M  V30 4163 H 383.32 -0.63927 -3.99619 0
M  V30 4164 H 380.075 -2.65702 -3.92045 0
M  V30 4165 H 380.499 -5.25492 -4.26834 0
M  V30 4166 H 385.141 -2.47594 -3.4272 0
M  V30 4167 H 382.859 -6.84164 -4.30053 0
M  V30 4168 H 386.445 -4.57048 -3.59998 0
M  V30 4169 H 385.325 -6.72546 -4.033 0
M  V30 4170 N 382.828 1.3818 -0.7579 0
M  V30 4171 C 384.074 2.0078 -0.325423 0
M  V30 4172 C 384.429 1.59085 1.08211 0
M  V30 4173 O 383.722 0.820394 1.73148 0
M  V30 4174 C 383.916 3.55252 -0.391218 0
M  V30 4175 C 383.745 4.11947 -1.8036 0
M  V30 4176 C 382.515 4.43519 -2.42113 0
M  V30 4177 C 384.713 4.33908 -2.76095 0
M  V30 4178 N 382.695 4.85847 -3.75267 0
M  V30 4179 C 384.066 4.78692 -3.94023 0
M  V30 4180 C 386.121 4.16015 -2.73561 0
M  V30 4181 C 384.824 5.07459 -5.09782 0
M  V30 4182 C 386.85 4.45909 -3.88483 0
M  V30 4183 C 386.212 4.90921 -5.0515 0
M  V30 4184 H 382.311 0.764215 -0.165831 0
M  V30 4185 H 384.895 1.67724 -0.988776 0
M  V30 4186 H 383.066 3.87646 0.241886 0
M  V30 4187 H 384.798 4.04653 0.061989 0
M  V30 4188 H 381.553 4.32113 -1.93842 0
M  V30 4189 H 381.977 5.11339 -4.4369 0
M  V30 4190 H 386.619 3.80399 -1.84544 0
M  V30 4191 H 384.337 5.4197 -5.99412 0
M  V30 4192 H 387.923 4.33666 -3.87847 0
M  V30 4193 H 386.803 5.1361 -5.92599 0
M  V30 4194 N 384.306 0.507319 1.49211 0
M  V30 4195 C 385.552 -0.0269732 2.03382 0
M  V30 4196 C 385.907 -1.34111 1.37957 0
M  V30 4197 O 385.2 -1.84733 0.508351 0
M  V30 4198 C 385.394 -0.229513 3.56662 0
M  V30 4199 C 385.223 1.06344 4.36945 0
M  V30 4200 C 383.993 1.617 4.78729 0
M  V30 4201 C 386.191 1.96833 4.75143 0
M  V30 4202 N 384.173 2.8552 5.43463 0
M  V30 4203 C 385.544 3.0523 5.39661 0
M  V30 4204 C 387.599 1.97434 4.57082 0
M  V30 4205 C 386.302 4.14265 5.88028 0
M  V30 4206 C 388.328 3.05448 5.06414 0
M  V30 4207 C 387.69 4.12564 5.70938 0
M  V30 4208 H 383.789 0.0310673 0.781383 0
M  V30 4209 H 386.373 0.683579 1.82305 0
M  V30 4210 H 384.544 -0.909127 3.7761 0
M  V30 4211 H 386.276 -0.761377 3.97473 0
M  V30 4212 H 383.031 1.16132 4.59141 0
M  V30 4213 H 383.455 3.48499 5.80412 0
M  V30 4214 H 388.097 1.15924 4.06597 0
M  V30 4215 H 385.815 4.96569 6.3753 0
M  V30 4216 H 389.401 3.06941 4.94246 0
M  V30 4217 H 388.281 4.94767 6.0842 0
M  V30 4218 N 385.784 -1.5574 0.241426 0
M  V30 4219 C 386.731 -2.21149 -0.660432 0
M  V30 4220 C 387.701 -1.17356 -1.17545 0
M  V30 4221 O 388.886 -1.45784 -1.23093 0
M  V30 4222 C 386.026 -2.91059 -1.85414 0
M  V30 4223 C 385.139 -4.09495 -1.37616 0
M  V30 4224 C 384.274 -4.67135 -2.529 0
M  V30 4225 C 383.313 -5.77831 -2.01936 0
M  V30 4226 N 382.45 -6.29677 -3.10566 0
M  V30 4227 H 387.29 -2.97845 -0.095955 0
M  V30 4228 H 384.827 -1.47057 -0.0356024 0
M  V30 4229 H 386.785 -3.29788 -2.5553 0
M  V30 4230 H 385.415 -2.16846 -2.39118 0
M  V30 4231 H 384.467 -3.76117 -0.569235 0
M  V30 4232 H 385.779 -4.89423 -0.962618 0
M  V30 4233 H 384.933 -5.08409 -3.31067 0
M  V30 4234 H 383.672 -3.86411 -2.97553 0
M  V30 4235 H 382.677 -5.36039 -1.22238 0
M  V30 4236 H 383.902 -6.60402 -1.58259 0
M  V30 4237 H 381.848 -5.5186 -3.54664 0
M  V30 4238 H 381.765 -7.04783 -2.73526 0
M  V30 4239 H 383.033 -6.75609 -3.88809 0
M  V30 4240 N 387.262 0.0317525 -1.57568 0
M  V30 4241 C 388.172 1.05021 -2.0978 0
M  V30 4242 C 389.188 1.39809 -1.03583 0
M  V30 4243 O 390.364 1.49182 -1.35302 0
M  V30 4244 C 387.429 2.33301 -2.56459 0
M  V30 4245 C 386.49 2.0512 -3.77127 0
M  V30 4246 C 385.723 3.27283 -4.2157 0
M  V30 4247 O 385.946 4.37861 -3.65559 0
M  V30 4248 O 384.88 3.13141 -5.14029 0
M  V30 4249 H 388.706 0.636505 -2.96955 0
M  V30 4250 H 386.291 0.248559 -1.47318 0
M  V30 4251 H 388.173 3.08722 -2.86825 0
M  V30 4252 H 386.848 2.73973 -1.72397 0
M  V30 4253 H 385.755 1.27276 -3.51784 0
M  V30 4254 H 387.088 1.69305 -4.62165 0
M  V30 4255 N 388.74 1.54641 0.303973 0
M  V30 4256 C 389.968 1.77768 1.05858 0
M  V30 4257 C 390.383 0.535722 1.8104 0
M  V30 4258 O 389.74 -0.494337 1.75677 0
M  V30 4259 C 389.791 2.9834 2.04146 0
M  V30 4260 O 389.512 4.17736 1.32015 0
M  V30 4261 C 391.013 3.33832 2.91669 0
M  V30 4262 H 388.233 0.592961 0.314067 0
M  V30 4263 H 390.777 2.01583 0.344149 0
M  V30 4264 H 388.932 2.76742 2.71096 0
M  V30 4265 H 389.346 4.85693 1.97998 0
M  V30 4266 H 390.82 4.21448 3.56491 0
M  V30 4267 H 391.297 2.51857 3.59812 0
M  V30 4268 H 391.903 3.57579 2.30254 0
M  V30 4269 N 390.218 -0.567019 1.47046 0
M  V30 4270 C 391.181 -1.65696 1.58359 0
M  V30 4271 C 392.181 -1.54097 0.459441 0
M  V30 4272 O 393.371 -1.58432 0.724225 0
M  V30 4273 C 390.503 -3.05197 1.51879 0
M  V30 4274 H 391.696 -1.57019 2.5551 0
M  V30 4275 H 389.249 -0.786148 1.3509 0
M  V30 4276 H 389.984 -3.19417 0.560673 0
M  V30 4277 H 389.769 -3.15025 2.33455 0
M  V30 4278 H 391.259 -3.84511 1.62913 0
M  V30 4279 N 391.696 -1.35014 -0.812953 0
M  V30 4280 C 392.643 -1.27412 -1.92444 0
M  V30 4281 C 393.613 -0.14733 -1.65445 0
M  V30 4282 O 394.798 -0.329974 -1.87925 0
M  V30 4283 C 391.938 -1.04558 -3.28879 0
M  V30 4284 C 391.051 -2.26101 -3.68106 0
M  V30 4285 C 390.186 -1.96449 -4.9354 0
M  V30 4286 C 389.225 -3.14081 -5.25376 0
M  V30 4287 N 388.362 -2.84246 -6.41988 0
M  V30 4288 H 393.202 -2.22463 -1.98278 0
M  V30 4289 H 390.739 -1.10593 -0.969933 0
M  V30 4290 H 392.697 -0.893413 -4.07522 0
M  V30 4291 H 391.327 -0.131719 -3.22531 0
M  V30 4292 H 390.379 -2.52204 -2.84775 0
M  V30 4293 H 391.691 -3.13959 -3.87597 0
M  V30 4294 H 390.845 -1.78026 -5.79993 0
M  V30 4295 H 389.584 -1.05867 -4.76071 0
M  V30 4296 H 388.589 -3.33089 -4.37415 0
M  V30 4297 H 389.814 -4.05455 -5.44778 0
M  V30 4298 H 387.76 -1.96252 -6.25956 0
M  V30 4299 H 387.677 -3.65637 -6.61699 0
M  V30 4300 H 388.945 -2.6935 -7.31485 0
M  V30 4301 N 393.175 1.03435 -1.18907 0
M  V30 4302 C 394.591 1.28973 -0.940111 0
M  V30 4303 C 394.791 1.97676 0.390691 0
M  V30 4304 O 393.847 2.26127 1.12352 0
M  V30 4305 C 395.16 2.14221 -2.11021 0
M  V30 4306 C 396.708 2.27547 -2.14922 0
M  V30 4307 C 397.183 3.16164 -3.31367 0
M  V30 4308 N 398.674 3.23752 -3.31269 0
M  V30 4309 C 399.409 3.92495 -4.18014 0
M  V30 4310 N 398.905 4.63515 -5.14904 0
M  V30 4311 N 400.698 3.88838 -4.05908 0
M  V30 4312 H 392.849 0.57252 -2.04538 0
M  V30 4313 H 395.112 0.315184 -0.894071 0
M  V30 4314 H 394.818 1.71054 -3.073 0
M  V30 4315 H 394.692 3.14919 -2.0762 0
M  V30 4316 H 397.079 2.69947 -1.19217 0
M  V30 4317 H 397.16 1.26418 -2.22378 0
M  V30 4318 H 396.804 2.74474 -4.27348 0
M  V30 4319 H 396.734 4.17339 -3.21148 0
M  V30 4320 H 399.225 2.73167 -2.61129 0
M  V30 4321 H 399.538 5.13583 -5.77453 0
M  V30 4322 H 397.883 4.62398 -5.18857 0
M  V30 4323 H 401.074 3.32491 -3.29495 0
M  V30 4324 H 401.247 4.4214 -4.73726 0
M  V30 4325 N 394.653 0.992116 1.22453 0
M  V30 4326 C 395.902 0.662992 1.90492 0
M  V30 4327 C 396.215 -0.808407 1.78113 0
M  V30 4328 O 397.421 -1.24908 2.41061 0
M  V30 4329 C 395.877 1.1353 3.41524 0
M  V30 4330 C 395.485 2.63187 3.62542 0
M  V30 4331 C 397.229 0.880465 4.15269 0
M  V30 4332 C 395.136 3.04024 5.0727 0
M  V30 4333 H 394.066 0.244278 0.713333 0
M  V30 4334 H 396.717 1.20157 1.38688 0
M  V30 4335 H 395.099 0.52485 3.92506 0
M  V30 4336 H 396.273 3.2957 3.22056 0
M  V30 4337 H 394.588 2.86543 3.02129 0
M  V30 4338 H 397.185 1.16128 5.21937 0
M  V30 4339 H 397.528 -0.183408 4.15896 0
M  V30 4340 H 398.061 1.45307 3.70312 0
M  V30 4341 H 394.8 4.09584 5.11782 0
M  V30 4342 H 394.32 2.42343 5.48662 0
M  V30 4343 H 395.999 2.95282 5.75689 0
M  V30 4344 N 396.131 -1.37776 0.765217 0
M  V30 4345 C 397.361 -2.03828 0.337277 0
M  V30 4346 C 397.769 -1.57841 -1.04321 0
M  V30 4347 O 397.112 -0.752043 -1.67601 0
M  V30 4348 C 397.174 -3.58292 0.294407 0
M  V30 4349 C 396.838 -4.27384 1.61838 0
M  V30 4350 C 397.835 -4.51956 2.56967 0
M  V30 4351 C 395.52 -4.65345 1.89102 0
M  V30 4352 C 397.514 -5.13536 3.77571 0
M  V30 4353 C 395.201 -5.26647 3.09978 0
M  V30 4354 C 396.199 -5.50679 4.04032 0
M  V30 4355 O 395.887 -6.10702 5.2278 0
M  V30 4356 H 395.619 -0.661292 0.140248 0
M  V30 4357 H 398.173 -1.77222 1.03834 0
M  V30 4358 H 396.403 -3.83918 -0.462983 0
M  V30 4359 H 398.092 -4.05763 -0.105581 0
M  V30 4360 H 398.858 -4.23048 2.37183 0
M  V30 4361 H 394.737 -4.45978 1.16725 0
M  V30 4362 H 398.281 -5.3221 4.50997 0
M  V30 4363 H 394.178 -5.54979 3.29649 0
M  V30 4364 H 394.946 -6.29183 5.23517 0
M  V30 4365 N 397.609 -0.515225 -1.4894 0
M  V30 4366 C 398.541 0.292481 -2.27326 0
M  V30 4367 C 399.554 0.917838 -1.3446 0
M  V30 4368 O 400.743 0.798772 -1.5963 0
M  V30 4369 C 397.843 1.42803 -3.07344 0
M  V30 4370 C 397.016 0.907347 -4.27885 0
M  V30 4371 C 396.075 1.92222 -4.89834 0
M  V30 4372 O 395.101 1.48506 -5.49486 0
M  V30 4373 N 396.303 3.25355 -4.80754 0
M  V30 4374 H 399.068 -0.379721 -2.97285 0
M  V30 4375 H 396.629 -0.348638 -1.58102 0
M  V30 4376 H 398.621 2.10481 -3.45658 0
M  V30 4377 H 397.191 2.00414 -2.39902 0
M  V30 4378 H 396.411 0.0550218 -3.94162 0
M  V30 4379 H 397.699 0.538108 -5.05946 0
M  V30 4380 H 397.097 3.6355 -4.33414 0
M  V30 4381 H 395.654 3.88707 -5.23211 0
M  V30 4382 N 399.087 1.5561 -0.249682 0
M  V30 4383 C 400.317 2.03116 0.377803 0
M  V30 4384 C 400.725 1.12822 1.51881 0
M  V30 4385 O 400.068 0.13562 1.83199 0
M  V30 4386 C 400.13 3.46866 0.944693 0
M  V30 4387 C 399.794 4.56955 -0.0644259 0
M  V30 4388 C 400.791 5.12485 -0.874957 0
M  V30 4389 C 398.476 5.01936 -0.19132 0
M  V30 4390 C 400.47 6.11491 -1.79881 0
M  V30 4391 C 398.157 6.00773 -1.11868 0
M  V30 4392 C 399.155 6.5543 -1.92095 0
M  V30 4393 O 398.843 7.5234 -2.83267 0
M  V30 4394 H 398.575 0.669489 0.0935961 0
M  V30 4395 H 401.129 2.02004 -0.371966 0
M  V30 4396 H 399.359 3.45136 1.74407 0
M  V30 4397 H 401.048 3.77856 1.48255 0
M  V30 4398 H 401.814 4.78564 -0.787523 0
M  V30 4399 H 397.693 4.59055 0.423072 0
M  V30 4400 H 401.237 6.54078 -2.42543 0
M  V30 4401 H 397.134 6.34114 -1.20703 0
M  V30 4402 H 397.902 7.69966 -2.7766 0
M  V30 4403 N 400.565 -0.0233959 1.57583 0
M  V30 4404 C 401.814 -0.712133 1.8871 0
M  V30 4405 C 402.127 -1.76217 0.848944 0
M  V30 4406 O 403.333 -2.50389 1.04964 0
M  V30 4407 C 401.789 -1.3177 3.3491 0
M  V30 4408 C 401.397 -0.303715 4.46969 0
M  V30 4409 C 403.141 -1.98598 3.75179 0
M  V30 4410 C 401.048 -0.917945 5.84233 0
M  V30 4411 H 399.978 -0.269735 0.704101 0
M  V30 4412 H 402.629 0.0333114 1.8347 0
M  V30 4413 H 401.011 -2.11304 3.34913 0
M  V30 4414 H 402.185 0.465325 4.58445 0
M  V30 4415 H 400.5 0.2628 4.1557 0
M  V30 4416 H 403.097 -2.45416 4.75053 0
M  V30 4417 H 403.44 -2.80659 3.07468 0
M  V30 4418 H 403.973 -1.25831 3.77374 0
M  V30 4419 H 400.712 -0.136633 6.55358 0
M  V30 4420 H 400.232 -1.65669 5.76467 0
M  V30 4421 H 401.911 -1.4236 6.31144 0
M  V30 4422 N 402.043 -1.548 -0.295768 0
M  V30 4423 C 403.454 -1.65274 -0.868411 0
M  V30 4424 C 403.805 -0.56481 -1.87894 0
M  V30 4425 O 402.93 0.29767 -2.14343 0
M  V30 4426 C 403.525 -2.99603 -1.58188 0
M  V30 4427 C 402.084 -3.12181 -2.10286 0
M  V30 4428 C 401.231 -2.6098 -0.93727 0
M  V30 4429 H 404.182 -1.58534 -0.0726422 0
M  V30 4430 H 404.203 -2.91319 -2.44772 0
M  V30 4431 H 403.715 -3.78764 -0.846151 0
M  V30 4432 H 401.816 -2.3775 -2.8689 0
M  V30 4433 H 401.929 -4.18415 -2.33379 0
M  V30 4434 H 400.293 -2.17564 -1.32431 0
M  V30 4435 H 401.076 -3.42623 -0.215414 0
M  V30 4436 N 403.521 0.559213 -1.47345 0
M  V30 4437 C 404.798 1.31997 -1.44348 0
M  V30 4438 C 405.178 2.1064 -0.139358 0
M  V30 4439 O 404.526 2.1091 0.879153 0
M  V30 4440 C 404.736 2.22618 -2.68779 0
M  V30 4441 C 406.084 2.83701 -3.1591 0
M  V30 4442 O 407.108 2.32921 -2.69493 0
M  V30 4443 O 405.967 3.75993 -3.966 0
M  V30 4444 H 403.061 0.594251 -0.575147 0
M  V30 4445 H 405.607 0.578282 -1.59543 0
M  V30 4446 H 404.379 1.64093 -3.55231 0
M  V30 4447 H 404.002 3.04085 -2.5616 0
M  V30 4448 N 404.999 1.35443 0.805782 0
M  V30 4449 C 406.246 1.28761 1.56291 0
M  V30 4450 C 406.574 -0.137747 1.94012 0
M  V30 4451 O 405.829 -1.1032 1.61642 0
M  V30 4452 C 406.128 2.14045 2.86216 0
M  V30 4453 C 405.794 3.62826 2.67709 0
M  V30 4454 C 404.456 4.0338 2.6237 0
M  V30 4455 C 406.808 4.57227 2.50186 0
M  V30 4456 C 404.136 5.36501 2.37451 0
M  V30 4457 C 406.488 5.90547 2.26797 0
M  V30 4458 C 405.152 6.30245 2.1988 0
M  V30 4459 H 404.422 0.471171 0.571908 0
M  V30 4460 H 407.069 1.67347 0.930974 0
M  V30 4461 H 405.374 1.68342 3.53791 0
M  V30 4462 H 407.071 2.0621 3.43917 0
M  V30 4463 H 403.661 3.30644 2.72713 0
M  V30 4464 H 407.845 4.2678 2.53323 0
M  V30 4465 H 403.101 5.66259 2.30567 0
M  V30 4466 H 407.275 6.63274 2.12228 0
M  V30 4467 H 404.902 7.33328 2.00333 0
M  V30 4468 N 406.477 -1.02803 1.19454 0
M  V30 4469 C 407.725 -1.75869 0.995722 0
M  V30 4470 C 408.046 -1.89138 -0.474543 0
M  V30 4471 O 407.316 -1.42558 -1.34366 0
M  V30 4472 H 405.896 -0.651511 0.365435 0
M  V30 4473 H 408.558 -1.24004 1.50363 0
M  V30 4474 H 407.654 -2.76661 1.44447 0
M  V30 4475 N 407.956 -0.998596 -1.21925 0
M  V30 4476 C 409.204 -0.676325 -1.90448 0
M  V30 4477 C 409.525 0.794719 -1.78071 0
M  V30 4478 O 408.795 1.5701 -1.17152 0
M  V30 4479 H 407.375 -0.247165 -0.704925 0
M  V30 4480 H 410.037 -1.26633 -1.48156 0
M  V30 4481 H 409.133 -0.943858 -2.97486 0
M  V30 4482 N 409.434 1.37368 -0.772513 0
M  V30 4483 C 410.681 1.99673 -0.337182 0
M  V30 4484 C 411.009 1.61324 1.0865 0
M  V30 4485 O 410.264 0.851377 1.7621 0
M  V30 4486 C 410.563 3.54817 -0.428876 0
M  V30 4487 C 410.229 4.12936 -1.81092 0
M  V30 4488 C 408.891 4.28523 -2.1891 0
M  V30 4489 C 411.243 4.44801 -2.71664 0
M  V30 4490 C 408.571 4.73277 -3.46735 0
M  V30 4491 C 410.923 4.90981 -3.98899 0
M  V30 4492 C 409.587 5.04773 -4.36761 0
M  V30 4493 H 408.857 0.730656 -0.123384 0
M  V30 4494 H 411.504 1.64124 -0.986686 0
M  V30 4495 H 409.809 3.90618 0.304167 0
M  V30 4496 H 411.506 4.00933 -0.0733334 0
M  V30 4497 H 408.096 4.01233 -1.50699 0
M  V30 4498 H 412.28 4.32344 -2.43706 0
M  V30 4499 H 407.536 4.82142 -3.75964 0
M  V30 4500 H 411.71 5.14603 -4.69208 0
M  V30 4501 H 409.337 5.39211 -5.35868 0
M  V30 4502 N 410.912 0.523116 1.48665 0
M  V30 4503 C 412.158 -0.0134963 2.02796 0
M  V30 4504 C 412.491 -1.34582 1.40004 0
M  V30 4505 O 411.766 -1.86756 0.543381 0
M  V30 4506 C 412.049 -0.14276 3.59817 0
M  V30 4507 C 411.902 1.21425 4.331 0
M  V30 4508 C 413.221 -0.872856 4.31357 0
M  V30 4509 H 410.34 -0.00343074 0.736992 0
M  V30 4510 H 412.982 0.678816 1.7746 0
M  V30 4511 H 411.132 -0.732401 3.81534 0
M  V30 4512 H 412.804 1.84447 4.2282 0
M  V30 4513 H 411.047 1.79791 3.94788 0
M  V30 4514 H 411.718 1.07687 5.41394 0
M  V30 4515 H 414.194 -0.372555 4.14429 0
M  V30 4516 H 413.07 -0.932185 5.40927 0
M  V30 4517 H 413.331 -1.92161 3.98154 0
M  V30 4518 N 412.39 -1.55475 0.257931 0
M  V30 4519 C 413.636 -1.99502 -0.364266 0
M  V30 4520 C 413.969 -1.146 -1.56782 0
M  V30 4521 O 413.244 -0.211968 -1.93342 0
M  V30 4522 C 413.527 -3.51917 -0.763333 0
M  V30 4523 C 413.38 -4.4758 0.446371 0
M  V30 4524 C 414.699 -4.09742 -1.60623 0
M  V30 4525 H 411.818 -0.725277 -0.130929 0
M  V30 4526 H 414.46 -1.8653 0.361446 0
M  V30 4527 H 412.61 -3.63101 -1.38166 0
M  V30 4528 H 414.282 -4.48362 1.08487 0
M  V30 4529 H 412.525 -4.19947 1.08753 0
M  V30 4530 H 413.196 -5.51862 0.123645 0
M  V30 4531 H 415.672 -4.01727 -1.08418 0
M  V30 4532 H 414.548 -5.16631 -1.85429 0
M  V30 4533 H 414.809 -3.58889 -2.58169 0
M  V30 4534 N 413.868 0.0150385 -1.57593 0
M  V30 4535 C 414.815 1.01126 -2.07466 0
M  V30 4536 C 415.785 1.35064 -0.966794 0
M  V30 4537 O 416.97 1.4516 -1.23827 0
M  V30 4538 C 414.11 2.30276 -2.57035 0
M  V30 4539 C 413.223 2.02373 -3.81666 0
M  V30 4540 C 412.358 3.25496 -4.19793 0
M  V30 4541 C 411.397 2.93211 -5.37303 0
M  V30 4542 N 410.534 4.08826 -5.70794 0
M  V30 4543 H 415.374 0.57901 -2.92321 0
M  V30 4544 H 412.911 0.27426 -1.44521 0
M  V30 4545 H 414.869 3.05757 -2.83846 0
M  V30 4546 H 413.499 2.71197 -1.75077 0
M  V30 4547 H 412.551 1.17327 -3.61854 0
M  V30 4548 H 413.863 1.74567 -4.67256 0
M  V30 4549 H 413.017 4.09333 -4.47807 0
M  V30 4550 H 411.756 3.56428 -3.32882 0
M  V30 4551 H 410.761 2.07777 -5.09027 0
M  V30 4552 H 411.986 2.63542 -6.25877 0
M  V30 4553 H 409.932 4.39682 -4.86842 0
M  V30 4554 H 409.849 3.84491 -6.50924 0
M  V30 4555 H 411.117 4.93496 -6.03392 0
M  V30 4556 N 415.346 1.54954 0.287554 0
M  V30 4557 C 416.309 1.86076 1.33823 0
M  V30 4558 C 417.309 0.734414 1.43049 0
M  V30 4559 O 418.499 1.00266 1.42452 0
M  V30 4560 C 415.631 2.05305 2.72144 0
M  V30 4561 H 416.824 2.79984 1.07465 0
M  V30 4562 H 414.377 1.47223 0.524902 0
M  V30 4563 H 415.112 1.1373 3.03704 0
M  V30 4564 H 414.897 2.873 2.66836 0
M  V30 4565 H 416.387 2.30706 3.48087 0
M  V30 4566 N 416.824 -0.551391 1.4764 0
M  V30 4567 C 418.101 -1.31229 1.45046 0
M  V30 4568 C 418.481 -2.10563 0.150527 0
M  V30 4569 O 417.829 -2.11374 -0.867956 0
M  V30 4570 C 418.039 -2.21189 2.69956 0
M  V30 4571 C 419.387 -2.82021 3.1741 0
M  V30 4572 O 420.411 -2.31488 2.70724 0
M  V30 4573 O 419.27 -3.73885 3.98588 0
M  V30 4574 H 416.364 -0.591193 0.578291 0
M  V30 4575 H 418.91 -0.569813 1.59847 0
M  V30 4576 H 417.682 -1.62207 3.56096 0
M  V30 4577 H 417.305 -3.02722 2.57769 0
M  V30 4578 N 418.302 -1.35869 -0.798587 0
M  V30 4579 C 419.527 -1.32883 -1.59238 0
M  V30 4580 C 419.952 0.0894587 -1.87887 0
M  V30 4581 O 419.31 1.05869 -1.47178 0
M  V30 4582 C 419.358 -2.14892 -2.89575 0
M  V30 4583 O 418.462 -1.53512 -3.82763 0
M  V30 4584 H 417.803 -0.455236 -0.48338 0
M  V30 4585 H 420.333 -1.79024 -0.990539 0
M  V30 4586 H 420.343 -2.27139 -3.38928 0
M  V30 4587 H 419.018 -3.17998 -2.68049 0
M  V30 4588 H 417.595 -1.50153 -3.41334 0
M  V30 4589 N 419.78 1.02168 -1.19998 0
M  V30 4590 C 420.69 2.14069 -0.959774 0
M  V30 4591 C 421.706 1.73804 0.082655 0
M  V30 4592 O 422.882 2.01133 -0.103633 0
M  V30 4593 C 419.947 3.42936 -0.509459 0
M  V30 4594 C 419.008 3.97474 -1.62213 0
M  V30 4595 C 418.241 5.2019 -1.19321 0
M  V30 4596 O 418.464 5.70369 -0.0597726 0
M  V30 4597 O 417.398 5.67749 -1.99863 0
M  V30 4598 H 421.224 2.37199 -1.89658 0
M  V30 4599 H 418.809 1.12469 -0.983411 0
M  V30 4600 H 420.691 4.20551 -0.267322 0
M  V30 4601 H 419.366 3.21234 0.398821 0
M  V30 4602 H 418.273 3.21161 -1.9185 0
M  V30 4603 H 419.606 4.23555 -2.50723 0
M  V30 4604 N 421.258 1.00505 1.21394 0
M  V30 4605 C 422.505 0.687774 1.90462 0
M  V30 4606 C 422.833 -0.78147 1.7811 0
M  V30 4607 O 422.088 -1.58208 1.1519 0
M  V30 4608 C 422.387 1.0546 3.41486 0
M  V30 4609 C 422.053 2.51812 3.74034 0
M  V30 4610 C 420.715 2.91804 3.82628 0
M  V30 4611 C 423.067 3.46614 3.8924 0
M  V30 4612 C 420.395 4.2556 4.03876 0
M  V30 4613 C 422.747 4.80044 4.11995 0
M  V30 4614 C 421.411 5.19759 4.18816 0
M  V30 4615 H 420.681 0.251674 0.696951 0
M  V30 4616 H 423.328 1.26349 1.43903 0
M  V30 4617 H 421.633 0.397133 3.89782 0
M  V30 4618 H 423.33 0.786976 3.93202 0
M  V30 4619 H 419.92 2.1982 3.67936 0
M  V30 4620 H 424.104 3.16883 3.81967 0
M  V30 4621 H 419.36 4.55901 4.07387 0
M  V30 4622 H 423.534 5.53439 4.22704 0
M  V30 4623 H 421.161 6.23418 4.35033 0
M  V30 4624 N 422.737 -1.36956 0.779787 0
M  V30 4625 C 424.153 -1.52817 0.460342 0
M  V30 4626 C 424.353 -1.7361 -1.02283 0
M  V30 4627 O 423.409 -1.76207 -1.80852 0
M  V30 4628 C 424.722 -2.71983 1.28241 0
M  V30 4629 C 426.27 -2.85849 1.27512 0
M  V30 4630 C 426.745 -4.08008 2.08072 0
M  V30 4631 N 428.236 -4.15135 2.05467 0
M  V30 4632 C 428.971 -5.08711 2.64577 0
M  V30 4633 N 428.467 -6.07792 3.32506 0
M  V30 4634 N 430.26 -5.01254 2.54363 0
M  V30 4635 H 422.411 -1.21713 1.74068 0
M  V30 4636 H 424.674 -0.593294 0.739396 0
M  V30 4637 H 424.38 -2.63109 2.33381 0
M  V30 4638 H 424.254 -3.65882 0.917088 0
M  V30 4639 H 426.641 -2.94189 0.231686 0
M  V30 4640 H 426.722 -1.92886 1.68014 0
M  V30 4641 H 426.366 -4.00429 3.12441 0
M  V30 4642 H 426.296 -5.001 1.64947 0
M  V30 4643 H 428.787 -3.44189 1.5602 0
M  V30 4644 H 429.1 -6.75739 3.74963 0
M  V30 4645 H 427.445 -6.08047 3.36606 0
M  V30 4646 H 430.636 -4.22795 2.00902 0
M  V30 4647 H 430.809 -5.73995 3.00722 0
M  V30 4648 N 424.215 -0.530993 -1.48385 0
M  V30 4649 C 425.626 -0.0907905 -1.86479 0
M  V30 4650 C 425.977 1.33213 -1.44044 0
M  V30 4651 O 425.102 1.99783 -0.831615 0
M  V30 4652 C 425.697 -0.157987 -3.38431 0
M  V30 4653 C 424.256 0.227026 -3.75715 0
M  V30 4654 C 423.403 -0.5173 -2.72432 0
M  V30 4655 H 426.354 -0.742186 -1.40276 0
M  V30 4656 H 426.375 0.630053 -3.75247 0
M  V30 4657 H 425.887 -1.19372 -3.69286 0
M  V30 4658 H 423.988 1.26486 -3.50474 0
M  V30 4659 H 424.101 -0.113288 -4.78966 0
M  V30 4660 H 422.465 0.0365527 -2.54674 0
M  V30 4661 H 423.248 -1.55368 -3.0613 0
M  V30 4662 N 425.693 1.55336 -0.266172 0
M  V30 4663 C 426.941 1.99003 0.35246 0
M  V30 4664 C 427.262 1.15591 1.57047 0
M  V30 4665 O 426.532 0.243268 1.94384 0
M  V30 4666 H 425.112 0.735025 0.133217 0
M  V30 4667 H 427.774 1.91367 -0.369434 0
M  V30 4668 H 426.87 3.05289 0.648453 0
M  V30 4669 N 427.171 -0.0066808 1.57599 0
M  V30 4670 C 428.582 -0.550379 1.78403 0
M  V30 4671 C 428.933 -1.74339 0.900014 0
M  V30 4672 O 428.058 -2.16166 0.100713 0
M  V30 4673 C 428.653 -1.00523 3.23544 0
M  V30 4674 C 427.212 -1.49428 3.45468 0
M  V30 4675 C 426.359 -0.442444 2.73748 0
M  V30 4676 H 429.31 0.219508 1.57175 0
M  V30 4677 H 429.331 -1.87157 3.31289 0
M  V30 4678 H 428.843 -0.136735 3.87859 0
M  V30 4679 H 426.944 -2.3839 2.86358 0
M  V30 4680 H 427.057 -1.52635 4.54136 0
M  V30 4681 H 425.421 -0.902578 2.38171 0
M  V30 4682 H 426.204 0.416973 3.40758 0
M  V30 4683 N 428.649 -1.55105 -0.279332 0
M  V30 4684 C 429.896 -1.75412 -1.01177 0
M  V30 4685 C 430.224 -0.551728 -1.86511 0
M  V30 4686 O 429.479 0.465919 -1.90073 0
M  V30 4687 C 429.778 -3.0086 -1.92919 0
M  V30 4688 C 429.444 -4.33689 -1.23387 0
M  V30 4689 C 428.106 -4.69792 -1.04159 0
M  V30 4690 C 430.458 -5.15941 -0.738562 0
M  V30 4691 C 427.786 -5.85707 -0.341166 0
M  V30 4692 C 430.138 -6.32579 -0.0517636 0
M  V30 4693 C 428.802 -6.67326 0.152292 0
M  V30 4694 H 428.072 -0.641879 -0.370233 0
M  V30 4695 H 430.719 -1.89373 -0.284627 0
M  V30 4696 H 429.024 -2.81773 -2.72234 0
M  V30 4697 H 430.721 -3.13768 -2.49701 0
M  V30 4698 H 427.311 -4.05309 -1.39364 0
M  V30 4699 H 431.495 -4.8853 -0.874764 0
M  V30 4700 H 426.751 -6.11157 -0.172287 0
M  V30 4701 H 430.925 -6.9557 0.339828 0
M  V30 4702 H 428.552 -7.56998 0.697014 0
M  V30 4703 N 430.127 0.543554 -1.4793 0
M  V30 4704 C 431.355 1.32516 -1.58894 0
M  V30 4705 C 431.77 1.87215 -0.244131 0
M  V30 4706 O 431.127 1.65709 0.764652 0
M  V30 4707 C 431.178 2.48554 -2.62494 0
M  V30 4708 O 430.899 1.96112 -3.91755 0
M  V30 4709 C 432.4 3.40572 -2.8377 0
M  V30 4710 H 429.62 0.403472 -0.536145 0
M  V30 4711 H 432.164 0.657106 -1.93655 0
M  V30 4712 H 430.319 3.1127 -2.30629 0
M  V30 4713 H 430.733 2.71967 -4.4848 0
M  V30 4714 H 432.207 4.18375 -3.60093 0
M  V30 4715 H 432.684 3.94965 -1.92092 0
M  V30 4716 H 433.29 2.8366 -3.16887 0
M  V30 4717 N 431.605 1.3629 0.791371 0
M  V30 4718 C 432.835 1.33368 1.57786 0
M  V30 4719 C 433.243 -0.0875188 1.88997 0
M  V30 4720 O 432.586 -1.05427 1.50435 0
M  V30 4721 C 432.648 2.08802 2.92646 0
M  V30 4722 C 432.312 3.57903 2.84174 0
M  V30 4723 C 433.309 4.52191 2.56553 0
M  V30 4724 C 430.994 4.00762 3.02812 0
M  V30 4725 C 432.988 5.87315 2.47669 0
M  V30 4726 C 430.675 5.35977 2.93551 0
M  V30 4727 C 431.673 6.29066 2.66017 0
M  V30 4728 O 431.361 7.61798 2.56746 0
M  V30 4729 H 431.093 0.459166 0.496128 0
M  V30 4730 H 433.647 1.79952 0.990269 0
M  V30 4731 H 431.877 1.56878 3.53449 0
M  V30 4732 H 433.566 1.98762 3.53904 0
M  V30 4733 H 434.332 4.20393 2.41858 0
M  V30 4734 H 430.211 3.2868 3.2325 0
M  V30 4735 H 433.755 6.59943 2.26099 0
M  V30 4736 H 429.652 5.67384 3.07808 0
M  V30 4737 H 430.42 7.71898 2.72242 0
M  V30 4738 N 433.083 -1.0153 1.20538 0
M  V30 4739 C 434.331 -1.74803 1.01432 0
M  V30 4740 C 434.652 -1.8963 -0.454456 0
M  V30 4741 O 433.922 -1.43975 -1.32846 0
M  V30 4742 H 432.502 -0.647598 0.372324 0
M  V30 4743 H 435.164 -1.22402 1.5167 0
M  V30 4744 H 434.26 -2.75114 1.47373 0
M  V30 4745 N 434.561 -1.01147 -1.20859 0
M  V30 4746 C 435.977 -0.725422 -1.42161 0
M  V30 4747 C 436.177 0.696919 -1.89064 0
M  V30 4748 O 435.233 1.46539 -2.05627 0
M  V30 4749 C 436.546 -1.74678 -2.44761 0
M  V30 4750 C 438.094 -1.76433 -2.58535 0
M  V30 4751 C 438.569 -2.77481 -3.64374 0
M  V30 4752 N 440.06 -2.76189 -3.71852 0
M  V30 4753 C 440.795 -3.51035 -4.53389 0
M  V30 4754 N 440.291 -4.35541 -5.38773 0
M  V30 4755 N 442.084 -3.39655 -4.47873 0
M  V30 4756 H 434.235 -1.92979 -0.887282 0
M  V30 4757 H 436.498 -0.833327 -0.451962 0
M  V30 4758 H 436.204 -2.76551 -2.17285 0
M  V30 4759 H 436.078 -1.55472 -3.43669 0
M  V30 4760 H 438.465 -0.75248 -2.85345 0
M  V30 4761 H 438.546 -1.99712 -1.5984 0
M  V30 4762 H 438.19 -3.78827 -3.38308 0
M  V30 4763 H 438.12 -2.51466 -4.6268 0
M  V30 4764 H 440.611 -2.14885 -3.10858 0
M  V30 4765 H 440.924 -4.89432 -5.98061 0
M  V30 4766 H 439.269 -4.39621 -5.38292 0
M  V30 4767 H 442.46 -2.73063 -3.80203 0
M  V30 4768 H 442.633 -3.9824 -5.11184 0
M  V30 4769 N 436.039 1.36541 -0.78704 0
M  V30 4770 C 437.316 1.9355 -0.282424 0
M  V30 4771 C 437.696 1.71919 1.22503 0
M  V30 4772 O 437.044 1.07677 2.01539 0
M  V30 4773 C 437.254 3.4246 -0.672462 0
M  V30 4774 C 438.602 4.19582 -0.650863 0
M  V30 4775 O 439.626 3.50889 -0.612789 0
M  V30 4776 O 438.485 5.42106 -0.691623 0
M  V30 4777 H 435.579 0.824091 -0.0693 0
M  V30 4778 H 438.125 1.45736 -0.869423 0
M  V30 4779 H 436.897 3.51851 -1.71221 0
M  V30 4780 H 436.52 3.97556 -0.0592211 0
M  V30 4781 N 437.518 0.538854 1.48102 0
M  V30 4782 C 438.468 -0.23907 2.26743 0
M  V30 4783 C 439.452 -0.901923 1.33245 0
M  V30 4784 O 440.644 -0.803263 1.57723 0
M  V30 4785 C 437.773 -1.2799 3.18549 0
M  V30 4786 C 436.859 -0.621388 4.19523 0
M  V30 4787 N 437.25 0.298004 5.04921 0
M  V30 4788 C 435.548 -0.877533 4.37282 0
M  V30 4789 C 436.249 0.678757 5.77726 0
M  V30 4790 N 435.225 0.0377881 5.43587 0
M  V30 4791 H 439.027 0.468096 2.90148 0
M  V30 4792 H 436.541 0.357497 1.58416 0
M  V30 4793 H 438.538 -1.851 3.73555 0
M  V30 4794 H 437.198 -1.98835 2.567 0
M  V30 4795 H 438.209 0.671126 5.13533 0
M  V30 4796 H 434.886 -1.57588 3.86616 0
M  V30 4797 H 436.276 1.43316 6.56437 0
M  V30 4798 N 438.996 -1.55193 0.274407 0
M  V30 4799 C 439.959 -2.212 -0.600279 0
M  V30 4800 C 440.959 -1.18963 -1.08187 0
M  V30 4801 O 442.149 -1.43873 -0.982158 0
M  V30 4802 C 439.281 -2.87739 -1.82809 0
M  V30 4803 H 440.474 -2.9989 -0.0239682 0
M  V30 4804 H 438.027 -1.5628 0.0250192 0
M  V30 4805 H 438.762 -2.13058 -2.44493 0
M  V30 4806 H 438.547 -3.62658 -1.49069 0
M  V30 4807 H 440.037 -3.38171 -2.45011 0
M  V30 4808 N 440.474 -0.00167713 -1.576 0
M  V30 4809 C 441.384 1.00548 -2.1196 0
M  V30 4810 C 442.4 1.3758 -1.06526 0
M  V30 4811 O 443.576 1.46278 -1.38436 0
M  V30 4812 C 440.641 2.27809 -2.6135 0
M  V30 4813 C 439.702 1.97074 -3.81393 0
M  V30 4814 C 438.935 3.18267 -4.28417 0
M  V30 4815 O 439.158 4.30009 -3.74765 0
M  V30 4816 O 438.092 3.02167 -5.20556 0
M  V30 4817 H 441.918 0.573373 -2.98238 0
M  V30 4818 H 439.503 0.217255 -1.47812 0
M  V30 4819 H 441.385 3.02568 -2.93309 0
M  V30 4820 H 440.06 2.70254 -1.78169 0
M  V30 4821 H 438.967 1.19785 -3.54404 0
M  V30 4822 H 440.3 1.59464 -4.65652 0
M  V30 4823 N 441.952 1.55251 0.271103 0
M  V30 4824 C 443.2 1.75599 1.00047 0
M  V30 4825 C 443.521 0.561188 1.8675 0
M  V30 4826 O 442.791 -0.423846 1.9126 0
M  V30 4827 H 441.371 0.647562 0.372387 0
M  V30 4828 H 444.033 1.92656 0.294876 0
M  V30 4829 H 443.129 2.65766 1.6363 0
M  V30 4830 N 443.43 -0.535701 1.48216 0
M  V30 4831 C 444.393 -1.623 1.61838 0
M  V30 4832 C 445.393 -1.53087 0.492024 0
M  V30 4833 O 446.583 -1.5686 0.757668 0
M  V30 4834 C 443.715 -3.01907 1.58319 0
M  V30 4835 H 444.908 -1.51564 2.58783 0
M  V30 4836 H 442.461 -0.757317 1.36727 0
M  V30 4837 H 443.196 -3.18155 0.628299 0
M  V30 4838 H 442.981 -3.10003 2.40085 0
M  V30 4839 H 444.471 -3.80969 1.71033 0
M  V30 4840 N 444.908 -1.36708 -0.784132 0
M  V30 4841 C 445.856 -1.31533 -1.91838 0
M  V30 4842 C 446.85 -0.206205 -1.6814 0
M  V30 4843 O 448.056 -0.373519 -1.76082 0
M  V30 4844 H 444.431 -0.409613 -0.630651 0
M  V30 4845 H 446.402 -2.2731 -1.9332 0
M  V30 4846 C 445.151 -1.12679 -3.28936 0
M  V30 4847 H 444.474 -1.97274 -3.4774 0
M  V30 4848 H 445.914 -1.13106 -4.08636 0
M  V30 4849 C 444.373 0.168281 -3.36479 0
M  V30 4850 O 444.903 1.15625 -3.84699 0
M  V30 4851 N 443.109 0.214762 -2.89805 0
M  V30 4852 H 442.656 -0.589852 -2.50756 0
M  V30 4853 H 442.614 1.08094 -2.95234 0
M  V30 4854 N 446.386 1.0089 -1.21074 0
M  V30 4855 C 447.319 2.09279 -0.909806 0
M  V30 4856 C 448.297 1.61986 0.141145 0
M  V30 4857 O 449.481 1.88495 0.0130332 0
M  V30 4858 C 446.608 3.36723 -0.365374 0
M  V30 4859 C 445.654 4.02919 -1.39852 0
M  V30 4860 S 446.487 4.45835 -2.96633 0
M  V30 4861 C 447.643 5.76471 -2.43786 0
M  V30 4862 H 447.876 2.34484 -1.82769 0
M  V30 4863 H 445.409 1.14115 -1.04006 0
M  V30 4864 H 447.367 4.10459 -0.0578203 0
M  V30 4865 H 446.028 3.09577 0.531136 0
M  V30 4866 H 445.221 4.94634 -0.967117 0
M  V30 4867 H 444.823 3.35441 -1.65395 0
M  V30 4868 H 447.115 6.52027 -1.84029 0
M  V30 4869 H 448.058 6.24418 -3.33928 0
M  V30 4870 H 448.466 5.33104 -1.85636 0
M  V30 4871 N 447.864 1.01787 1.20321 0
M  V30 4872 C 448.794 0.609625 2.25401 0
M  V30 4873 C 449.775 -0.375951 1.65893 0
M  V30 4874 O 450.96 -0.261101 1.92437 0
M  V30 4875 C 448.09 -0.0515995 3.47262 0
M  V30 4876 C 447.044 0.855095 4.19371 0
M  V30 4877 C 446.37 0.0595757 5.34667 0
M  V30 4878 C 447.67 2.16374 4.75373 0
M  V30 4879 H 449.364 1.48803 2.59804 0
M  V30 4880 H 446.91 0.716934 1.24884 0
M  V30 4881 H 448.863 -0.348764 4.19954 0
M  V30 4882 H 447.587 -0.964726 3.12027 0
M  V30 4883 H 446.246 1.13628 3.48546 0
M  V30 4884 H 445.894 -0.85524 4.95676 0
M  V30 4885 H 445.594 0.663406 5.83843 0
M  V30 4886 H 447.118 -0.231105 6.10162 0
M  V30 4887 H 448.532 1.92885 5.39878 0
M  V30 4888 H 446.929 2.71853 5.34991 0
M  V30 4889 H 447.999 2.82589 3.94045 0
M  V30 4890 N 449.342 -1.36122 0.79427 0
M  V30 4891 C 450.305 -2.28309 0.201889 0
M  V30 4892 C 451.305 -1.49041 -0.603603 0
M  V30 4893 O 452.495 -1.68964 -0.423888 0
M  V30 4894 C 449.627 -3.3321 -0.719978 0
M  V30 4895 H 450.82 -2.82208 1.01481 0
M  V30 4896 H 448.373 -1.45768 0.564037 0
M  V30 4897 H 449.108 -2.84475 -1.55706 0
M  V30 4898 H 448.893 -3.91835 -0.144266 0
M  V30 4899 H 450.383 -4.02044 -1.12916 0
M  V30 4900 N 450.82 -0.546701 -1.47814 0
M  V30 4901 C 451.73 0.21026 -2.33656 0
M  V30 4902 C 452.746 0.922413 -1.47538 0
M  V30 4903 O 453.922 0.893652 -1.80488 0
M  V30 4904 C 450.987 1.23348 -3.24016 0
M  V30 4905 C 450.048 0.529883 -4.26017 0
M  V30 4906 C 449.281 1.50435 -5.12059 0
M  V30 4907 O 449.504 2.73837 -5.00369 0
M  V30 4908 O 448.438 1.03459 -5.92942 0
M  V30 4909 H 452.264 -0.493605 -2.99662 0
M  V30 4910 H 449.849 -0.307427 -1.46203 0
M  V30 4911 H 451.731 1.82438 -3.79861 0
M  V30 4912 H 450.406 1.91945 -2.60651 0
M  V30 4913 H 449.313 -0.101948 -3.73961 0
M  V30 4914 H 450.646 -0.11445 -4.92067 0
M  V30 4915 N 452.299 1.55045 -0.282633 0
M  V30 4916 C 453.262 2.21515 0.588539 0
M  V30 4917 C 454.262 1.19535 1.07554 0
M  V30 4918 O 455.452 1.44391 0.974514 0
M  V30 4919 C 452.584 2.88704 1.8128 0
M  V30 4920 H 453.777 2.99899 0.00806397 0
M  V30 4921 H 451.33 1.56265 -0.0333067 0
M  V30 4922 H 452.065 2.14352 2.43359 0
M  V30 4923 H 451.85 3.63443 1.47144 0
M  V30 4924 H 453.34 3.39465 2.43214 0
M  V30 4925 N 453.777 0.010035 1.57597 0
M  V30 4926 C 454.707 -0.976857 2.12084 0
M  V30 4927 C 455.688 -1.35191 1.03235 0
M  V30 4928 O 456.873 -1.43389 1.3097 0
M  V30 4929 C 454.003 -2.26548 2.63236 0
M  V30 4930 C 452.957 -2.03175 3.76701 0
M  V30 4931 C 452.283 -3.38138 4.14206 0
M  V30 4932 C 453.583 -1.38625 5.03568 0
M  V30 4933 H 455.277 -0.523145 2.94794 0
M  V30 4934 H 452.823 -0.250195 1.4181 0
M  V30 4935 H 454.776 -2.95952 2.99984 0
M  V30 4936 H 453.5 -2.74051 1.77661 0
M  V30 4937 H 452.159 -1.36195 3.40362 0
M  V30 4938 H 451.807 -3.83363 3.25641 0
M  V30 4939 H 451.507 -3.23312 4.90656 0
M  V30 4940 H 453.031 -4.08841 4.53521 0
M  V30 4941 H 454.445 -1.98 5.38023 0
M  V30 4942 H 452.842 -1.34256 5.84889 0
M  V30 4943 H 453.912 -0.356722 4.83586 0
M  V30 4944 N 455.255 -1.55392 -0.262866 0
M  V30 4945 C 456.218 -1.88181 -1.30846 0
M  V30 4946 C 457.218 -0.757079 -1.41862 0
M  V30 4947 O 458.408 -1.02519 -1.40838 0
M  V30 4948 C 455.54 -2.09609 -2.68844 0
M  V30 4949 H 456.733 -2.81659 -1.02997 0
M  V30 4950 H 454.286 -1.48039 -0.501414 0
M  V30 4951 H 455.021 -1.18547 -3.01856 0
M  V30 4952 H 454.806 -2.91508 -2.62231 0
M  V30 4953 H 456.296 -2.36215 -3.44372 0
M  V30 4954 N 456.733 0.527833 -1.48498 0
M  V30 4955 C 458.144 1.10975 -1.50138 0
M  V30 4956 C 458.495 1.943 -0.272378 0
M  V30 4957 O 457.62 2.07319 0.620301 0
M  V30 4958 C 458.215 2.01927 -2.72049 0
M  V30 4959 C 456.774 2.55332 -2.76554 0
M  V30 4960 C 455.921 1.32341 -2.43683 0
M  V30 4961 H 458.872 0.312986 -1.55583 0
M  V30 4962 H 458.893 2.86244 -2.50689 0
M  V30 4963 H 458.405 1.41254 -3.61481 0
M  V30 4964 H 456.506 3.19721 -1.91336 0
M  V30 4965 H 456.619 2.94319 -3.78038 0
M  V30 4966 H 454.983 1.63989 -1.94884 0
M  V30 4967 H 455.766 0.734165 -3.35358 0
M  V30 4968 N 458.211 1.37122 0.776871 0
M  V30 4969 C 459.458 1.32047 1.53524 0
M  V30 4970 C 459.786 -0.0965631 1.9426 0
M  V30 4971 O 459.041 -1.06866 1.63945 0
M  V30 4972 C 459.34 2.20068 2.81611 0
M  V30 4973 C 459.006 3.68423 2.59953 0
M  V30 4974 C 457.668 4.08854 2.53755 0
M  V30 4975 C 460.02 4.62431 2.40431 0
M  V30 4976 C 457.348 5.41417 2.26018 0
M  V30 4977 C 459.7 5.95225 2.14219 0
M  V30 4978 C 458.364 6.34767 2.06462 0
M  V30 4979 H 457.634 0.483196 0.561785 0
M  V30 4980 H 460.281 1.69284 0.895268 0
M  V30 4981 H 458.586 1.75809 3.50141 0
M  V30 4982 H 460.283 2.13458 3.39465 0
M  V30 4983 H 456.873 3.36354 2.65638 0
M  V30 4984 H 461.057 4.32057 2.44213 0
M  V30 4985 H 456.313 5.71022 2.18504 0
M  V30 4986 H 460.487 6.67626 1.98112 0
M  V30 4987 H 458.114 7.37413 1.84733 0
M  V30 4988 N 459.689 -1.00246 1.21608 0
M  V30 4989 C 460.937 -1.73717 1.0328 0
M  V30 4990 C 461.258 -1.90102 -0.434318 0
M  V30 4991 O 460.528 -1.45376 -1.31311 0
M  V30 4992 H 459.108 -0.643613 0.379172 0
M  V30 4993 H 461.77 -1.20787 1.52959 0
M  V30 4994 H 460.866 -2.73535 1.50283 0
M  V30 4995 N 461.167 -1.02423 -1.1978 0
M  V30 4996 C 462.415 -0.716569 -1.8897 0
M  V30 4997 C 462.736 0.756769 -1.79716 0
M  V30 4998 O 462.006 1.5449 -1.20456 0
M  V30 4999 H 460.586 -0.262062 -0.699523 0
M  V30 5000 H 463.248 -1.29747 -1.45436 0
M  V30 5001 H 462.344 -1.00675 -2.95417 0
M  V30 5002 N 462.645 1.35699 -0.801477 0
M  V30 5003 C 463.575 2.32436 -0.222658 0
M  V30 5004 C 464.556 1.5723 0.649057 0
M  V30 5005 O 465.741 1.85324 0.580387 0
M  V30 5006 C 462.871 3.41469 0.633719 0
M  V30 5007 C 461.825 4.27774 -0.139083 0
M  V30 5008 C 461.151 5.28082 0.838666 0
M  V30 5009 C 462.451 5.04946 -1.33517 0
M  V30 5010 H 464.145 2.81094 -1.03086 0
M  V30 5011 H 461.691 1.35146 -0.497155 0
M  V30 5012 H 463.644 4.08143 1.04868 0
M  V30 5013 H 462.368 2.91408 1.47475 0
M  V30 5014 H 461.027 3.62673 -0.535156 0
M  V30 5015 H 460.675 4.7429 1.67506 0
M  V30 5016 H 460.375 5.86695 0.32594 0
M  V30 5017 H 461.899 5.97628 1.25194 0
M  V30 5018 H 463.313 5.64593 -0.995349 0
M  V30 5019 H 461.71 5.7303 -1.78202 0
M  V30 5020 H 462.78 4.35886 -2.12442 0
M  V30 5021 N 464.123 0.554532 1.47522 0
M  V30 5022 C 465.369 0.0295227 2.02779 0
M  V30 5023 C 465.702 -1.31582 1.42828 0
M  V30 5024 O 464.977 -1.85561 0.582872 0
M  V30 5025 C 465.26 -0.0664057 3.60039 0
M  V30 5026 C 465.113 1.30585 4.30427 0
M  V30 5027 C 466.432 -0.781162 4.33112 0
M  V30 5028 H 463.551 0.0122027 0.736899 0
M  V30 5029 H 466.193 0.716305 1.7598 0
M  V30 5030 H 464.343 -0.651307 3.83002 0
M  V30 5031 H 466.015 1.93374 4.18813 0
M  V30 5032 H 464.258 1.88125 3.90886 0
M  V30 5033 H 464.929 1.19147 5.38988 0
M  V30 5034 H 467.405 -0.284565 4.15126 0
M  V30 5035 H 466.281 -0.817237 5.42782 0
M  V30 5036 H 466.542 -1.83672 4.0214 0
M  V30 5037 N 465.601 -1.54893 0.290851 0
M  V30 5038 C 466.85 -1.99111 -0.322113 0
M  V30 5039 C 467.163 -1.18283 -1.55784 0
M  V30 5040 O 468.369 -1.5272 -2.24475 0
M  V30 5041 C 466.825 -3.54442 -0.624438 0
M  V30 5042 C 466.433 -4.44066 0.592373 0
M  V30 5043 C 468.177 -4.07211 -1.19916 0
M  V30 5044 C 466.084 -5.90812 0.263762 0
M  V30 5045 H 465.014 -0.743712 -0.124133 0
M  V30 5046 H 467.665 -1.79132 0.39797 0
M  V30 5047 H 466.047 -3.70281 -1.40384 0
M  V30 5048 H 467.221 -4.39999 1.36886 0
M  V30 5049 H 465.536 -4.02015 1.08502 0
M  V30 5050 H 468.133 -5.14407 -1.45909 0
M  V30 5051 H 468.476 -3.57196 -2.13815 0
M  V30 5052 H 469.009 -3.94873 -0.481687 0
M  V30 5053 H 465.748 -6.44955 1.17105 0
M  V30 5054 H 465.268 -5.97911 -0.475655 0
M  V30 5055 H 466.947 -6.46852 -0.138354 0
M  V30 5056 N 467.08 -0.0183926 -1.57589 0
M  V30 5057 C 468.326 0.657813 -1.92469 0
M  V30 5058 C 468.681 1.70349 -0.894375 0
M  V30 5059 O 467.974 1.91384 0.0910389 0
M  V30 5060 C 468.168 1.32676 -3.31861 0
M  V30 5061 C 467.997 0.347403 -4.48356 0
M  V30 5062 C 466.767 -0.0488653 -5.05276 0
M  V30 5063 C 468.965 -0.393931 -5.12789 0
M  V30 5064 N 466.947 -1.02451 -6.05291 0
M  V30 5065 C 468.318 -1.22367 -6.07804 0
M  V30 5066 C 470.373 -0.455789 -4.95809 0
M  V30 5067 C 469.076 -2.10966 -6.87667 0
M  V30 5068 C 471.102 -1.32908 -5.76272 0
M  V30 5069 C 470.464 -2.14662 -6.70894 0
M  V30 5070 H 466.563 0.21335 -0.752334 0
M  V30 5071 H 469.147 -0.0830547 -1.94523 0
M  V30 5072 H 467.318 2.03782 -3.30647 0
M  V30 5073 H 469.05 1.95913 -3.54119 0
M  V30 5074 H 465.805 0.323356 -4.72495 0
M  V30 5075 H 466.229 -1.50826 -6.59985 0
M  V30 5076 H 470.871 0.162017 -4.22489 0
M  V30 5077 H 468.589 -2.73807 -7.603 0
M  V30 5078 H 472.175 -1.38109 -5.6517 0
M  V30 5079 H 471.055 -2.81143 -7.32071 0
M  V30 5080 N 468.558 1.5553 0.254621 0
M  V30 5081 C 469.974 1.4778 0.602753 0
M  V30 5082 C 470.174 0.707047 1.88688 0
M  V30 5083 O 469.23 0.233288 2.5142 0
M  V30 5084 C 470.543 2.92133 0.712648 0
M  V30 5085 C 472.091 3.02458 0.805488 0
M  V30 5086 C 472.566 4.48102 0.947009 0
M  V30 5087 N 474.057 4.52008 1.01207 0
M  V30 5088 C 474.792 5.61939 1.1407 0
M  V30 5089 N 474.288 6.81697 1.23536 0
M  V30 5090 N 476.081 5.49719 1.17325 0
M  V30 5091 H 468.232 2.04085 -0.588463 0
M  V30 5092 H 470.495 0.926229 -0.202001 0
M  V30 5093 H 470.201 3.51332 -0.160766 0
M  V30 5094 H 470.075 3.42187 1.58707 0
M  V30 5095 H 472.462 2.43344 1.66936 0
M  V30 5096 H 472.543 2.55627 -0.0939266 0
M  V30 5097 H 472.187 5.07824 0.087725 0
M  V30 5098 H 472.117 4.92607 1.86135 0
M  V30 5099 H 474.608 3.65749 0.950577 0
M  V30 5100 H 474.921 7.61228 1.33236 0
M  V30 5101 H 473.266 6.84473 1.20508 0
M  V30 5102 H 476.457 4.55095 1.09573 0
M  V30 5103 H 476.63 6.35432 1.27005 0
M  V30 5104 N 470.036 -0.519951 1.48776 0
M  V30 5105 C 471.276 -1.2856 1.58908 0
M  V30 5106 C 471.64 -1.90212 0.261418 0
M  V30 5107 O 472.841 -2.67746 0.237791 0
M  V30 5108 C 471.112 -2.33836 2.70288 0
M  V30 5109 S 472.671 -3.19992 3.0025 0
M  V30 5110 H 469.489 -0.43717 0.560717 0
M  V30 5111 H 472.091 -0.591205 1.86346 0
M  V30 5112 H 470.795 -1.87041 3.653 0
M  V30 5113 H 470.326 -3.07969 2.44783 0
M  V30 5114 H 472.341 -4.34122 2.40317 0
M  V30 5115 N 471.514 -1.37532 -0.769588 0
M  V30 5116 C 472.761 -1.3286 -1.52822 0
M  V30 5117 C 473.089 0.0862597 -1.94309 0
M  V30 5118 O 472.344 1.05995 -1.6451 0
M  V30 5119 C 472.643 -2.21558 -2.8044 0
M  V30 5120 C 472.309 -3.69796 -2.57996 0
M  V30 5121 C 470.971 -4.10194 -2.51583 0
M  V30 5122 C 473.323 -4.63699 -2.37976 0
M  V30 5123 C 470.651 -5.42608 -2.23144 0
M  V30 5124 C 473.003 -5.96353 -2.1106 0
M  V30 5125 C 471.667 -6.35853 -2.03093 0
M  V30 5126 H 470.937 -0.486168 -0.559215 0
M  V30 5127 H 473.584 -1.69757 -0.886277 0
M  V30 5128 H 471.889 -1.77663 -3.49204 0
M  V30 5129 H 473.586 -2.15256 -3.38328 0
M  V30 5130 H 470.176 -3.37759 -2.63851 0
M  V30 5131 H 474.36 -4.33346 -2.41919 0
M  V30 5132 H 469.616 -5.72173 -2.15472 0
M  V30 5133 H 473.79 -6.68667 -1.94568 0
M  V30 5134 H 471.417 -7.38382 -1.8082 0
M  V30 5135 N 472.992 0.995999 -1.22138 0
M  V30 5136 C 474.238 1.73767 -1.04561 0
M  V30 5137 C 474.571 1.89633 0.418698 0
M  V30 5138 O 473.846 1.43723 1.3105 0
M  V30 5139 C 474.129 3.14505 -1.75382 0
M  V30 5140 C 473.982 3.06306 -3.29388 0
M  V30 5141 C 475.301 4.13615 -1.50369 0
M  V30 5142 H 472.42 0.630728 -0.38125 0
M  V30 5143 H 475.062 1.16057 -1.50435 0
M  V30 5144 H 473.212 3.63775 -1.36383 0
M  V30 5145 H 474.884 2.64681 -3.77812 0
M  V30 5146 H 473.127 2.43186 -3.59226 0
M  V30 5147 H 473.798 4.05884 -3.74116 0
M  V30 5148 H 476.274 3.73089 -1.84239 0
M  V30 5149 H 475.15 5.10212 -2.02421 0
M  V30 5150 H 475.411 4.39949 -0.435611 0
M  V30 5151 N 474.47 1.03057 1.19235 0
M  V30 5152 C 475.7 0.746613 1.92638 0
M  V30 5153 C 476.108 -0.698708 1.75826 0
M  V30 5154 O 475.451 -1.487 1.07861 0
M  V30 5155 C 475.513 1.02024 3.44719 0
M  V30 5156 C 475.177 2.45745 3.85303 0
M  V30 5157 C 476.174 3.43887 3.8992 0
M  V30 5158 C 473.859 2.8019 4.16892 0
M  V30 5159 C 475.853 4.74529 4.2556 0
M  V30 5160 C 473.54 4.1104 4.52205 0
M  V30 5161 C 474.538 5.0802 4.56513 0
M  V30 5162 O 474.226 6.36527 4.91008 0
M  V30 5163 H 473.958 0.272401 0.618687 0
M  V30 5164 H 476.512 1.37853 1.52269 0
M  V30 5165 H 474.742 0.331184 3.85279 0
M  V30 5166 H 476.431 0.725677 3.9936 0
M  V30 5167 H 477.197 3.18614 3.65664 0
M  V30 5168 H 473.076 2.05382 4.12722 0
M  V30 5169 H 476.62 5.50222 4.28838 0
M  V30 5170 H 472.517 4.36086 4.7592 0
M  V30 5171 H 473.285 6.41025 5.08949 0
M  V30 5172 N 475.948 -1.35272 0.808662 0
M  V30 5173 C 476.896 -2.31663 0.208606 0
M  V30 5174 C 477.89 -1.56731 -0.642778 0
M  V30 5175 O 479.096 -1.71843 -0.53571 0
M  V30 5176 H 475.471 -0.750421 0.0486993 0
M  V30 5177 H 477.442 -2.79814 1.03666 0
M  V30 5178 C 476.191 -3.42008 -0.626573 0
M  V30 5179 H 475.514 -3.99795 0.0192103 0
M  V30 5180 H 476.954 -4.11727 -1.01278 0
M  V30 5181 C 475.413 -2.85226 -1.79298 0
M  V30 5182 O 475.943 -2.78945 -2.89055 0
M  V30 5183 N 474.149 -2.42245 -1.60516 0
M  V30 5184 H 473.696 -2.47554 -0.712375 0
M  V30 5185 H 473.654 -2.04603 -2.38715 0
M  V30 5186 N 477.426 -0.562348 -1.47226 0
M  V30 5187 C 478.666 -0.0426374 -2.04356 0
M  V30 5188 C 479.03 1.28487 -1.42671 0
M  V30 5189 O 480.231 1.89259 -1.90878 0
M  V30 5190 C 478.502 0.0433826 -3.57374 0
M  V30 5191 S 480.061 0.508472 -4.35844 0
M  V30 5192 H 476.879 -0.0276234 -0.710463 0
M  V30 5193 H 479.481 -0.750245 -1.80531 0
M  V30 5194 H 478.185 -0.927072 -3.99792 0
M  V30 5195 H 477.716 0.774387 -3.85703 0
M  V30 5196 H 479.731 1.76719 -4.63665 0
M  V30 5197 N 478.904 1.54736 -0.299062 0
M  V30 5198 C 479.836 2.20891 0.61153 0
M  V30 5199 C 480.849 1.20104 1.09904 0
M  V30 5200 O 482.038 1.46707 1.01683 0
M  V30 5201 C 479.138 2.84018 1.84897 0
M  V30 5202 C 478.311 4.10719 1.50428 0
M  V30 5203 C 477.37 4.57667 2.59667 0
M  V30 5204 O 476.396 5.2291 2.24842 0
M  V30 5205 N 477.598 4.29821 3.90172 0
M  V30 5206 H 480.363 2.99666 0.0452001 0
M  V30 5207 H 477.924 1.61446 -0.121178 0
M  V30 5208 H 479.916 3.1236 2.5732 0
M  V30 5209 H 478.486 2.09095 2.32375 0
M  V30 5210 H 477.706 3.89408 0.612781 0
M  V30 5211 H 478.994 4.93223 1.24934 0
M  V30 5212 H 478.392 3.77549 4.21276 0
M  V30 5213 H 476.949 4.62877 4.58899 0
M  V30 5214 N 480.382 0.0267497 1.57577 0
M  V30 5215 C 481.314 -0.984594 2.06974 0
M  V30 5216 C 482.327 -1.29032 0.992705 0
M  V30 5217 O 483.516 -1.25539 1.26895 0
M  V30 5218 C 480.616 -2.31262 2.47732 0
M  V30 5219 C 479.789 -2.1924 3.78487 0
M  V30 5220 C 478.848 -3.34956 4.05821 0
M  V30 5221 O 477.874 -3.11948 4.76106 0
M  V30 5222 N 479.076 -4.58672 3.55809 0
M  V30 5223 H 481.841 -0.563143 2.94362 0
M  V30 5224 H 479.402 -0.160061 1.61107 0
M  V30 5225 H 481.394 -3.07496 2.63112 0
M  V30 5226 H 479.964 -2.65056 1.65723 0
M  V30 5227 H 479.184 -1.27747 3.72927 0
M  V30 5228 H 480.472 -2.08409 4.64158 0
M  V30 5229 H 479.87 -4.8026 2.98942 0
M  V30 5230 H 478.427 -5.32083 3.76472 0
M  V30 5231 N 481.861 -1.55662 -0.24637 0
M  V30 5232 C 483.138 -1.68272 -0.997198 0
M  V30 5233 C 483.518 -0.566785 -2.03349 0
M  V30 5234 O 482.866 0.429688 -2.24424 0
M  V30 5235 C 483.076 -3.08594 -1.63006 0
M  V30 5236 C 484.424 -3.6721 -2.13171 0
M  V30 5237 O 485.448 -3.11397 -1.72946 0
M  V30 5238 O 484.307 -4.65054 -2.87031 0
M  V30 5239 H 481.401 -0.684429 -0.464205 0
M  V30 5240 H 483.947 -1.67993 -0.240114 0
M  V30 5241 H 482.719 -3.81264 -0.880527 0
M  V30 5242 H 482.342 -3.12886 -2.45333 0
M  V30 5243 N 483.339 0.512053 -1.4905 0
M  V30 5244 C 484.585 1.26613 -1.59187 0
M  V30 5245 C 484.94 1.90494 -0.270163 0
M  V30 5246 O 484.233 1.77204 0.728648 0
M  V30 5247 C 484.427 2.36446 -2.68008 0
M  V30 5248 C 484.256 1.83334 -4.10632 0
M  V30 5249 C 483.026 1.65131 -4.77556 0
M  V30 5250 C 485.224 1.35153 -4.96224 0
M  V30 5251 N 483.206 1.06833 -6.04533 0
M  V30 5252 C 484.577 0.889186 -6.13591 0
M  V30 5253 C 486.632 1.23623 -4.82309 0
M  V30 5254 C 485.335 0.322953 -7.18575 0
M  V30 5255 C 487.361 0.683978 -5.87431 0
M  V30 5256 C 486.723 0.2318 -7.04018 0
M  V30 5257 H 482.822 0.453678 -0.636946 0
M  V30 5258 H 485.406 0.575217 -1.86009 0
M  V30 5259 H 483.577 3.03012 -2.42978 0
M  V30 5260 H 485.309 3.03485 -2.67729 0
M  V30 5261 H 482.064 1.89178 -4.34176 0
M  V30 5262 H 482.488 0.796425 -6.72299 0
M  V30 5263 H 487.13 1.57184 -3.92496 0
M  V30 5264 H 484.848 -0.024943 -8.08096 0
M  V30 5265 H 488.434 0.597694 -5.78722 0
M  V30 5266 H 487.314 -0.188869 -7.83973 0
M  V30 5267 N 484.817 1.37938 0.762283 0
M  V30 5268 C 486.233 1.18945 1.06415 0
M  V30 5269 C 486.433 0.0321163 2.01474 0
M  V30 5270 O 485.489 -0.624844 2.44647 0
M  V30 5271 C 486.802 2.51218 1.65258 0
M  V30 5272 C 488.35 2.57824 1.7747 0
M  V30 5273 C 488.825 3.90251 2.39725 0
M  V30 5274 N 490.316 3.91744 2.47166 0
M  V30 5275 C 491.051 4.90966 2.96209 0
M  V30 5276 N 490.547 6.00585 3.45354 0
M  V30 5277 N 492.34 4.78363 2.9517 0
M  V30 5278 H 484.491 2.11994 0.131301 0
M  V30 5279 H 486.754 0.940262 0.120879 0
M  V30 5280 H 486.46 3.36317 1.02878 0
M  V30 5281 H 486.334 2.68989 2.64433 0
M  V30 5282 H 488.721 1.73126 2.3898 0
M  V30 5283 H 488.802 2.43928 0.770241 0
M  V30 5284 H 488.446 4.75368 1.78852 0
M  V30 5285 H 488.376 4.01454 3.40796 0
M  V30 5286 H 490.867 3.12563 2.12397 0
M  V30 5287 H 491.18 6.72236 3.81207 0
M  V30 5288 H 489.525 6.04217 3.43434 0
M  V30 5289 H 492.716 3.91841 2.56082 0
M  V30 5290 H 492.889 5.55843 3.33081 0
M  V30 5291 N 486.295 -0.989507 1.22664 0
M  V30 5292 C 487.572 -1.70326 0.961688 0
M  V30 5293 C 487.952 -2.04537 -0.522279 0
M  V30 5294 O 487.3 -1.73136 -1.49118 0
M  V30 5295 C 487.51 -2.95135 1.86269 0
M  V30 5296 C 488.858 -3.67842 2.12078 0
M  V30 5297 O 489.882 -3.0515 1.83745 0
M  V30 5298 O 488.741 -4.80644 2.60083 0
M  V30 5299 H 485.835 -0.743589 0.361946 0
M  V30 5300 H 488.381 -1.04555 1.33665 0
M  V30 5301 H 487.153 -2.66382 2.8663 0
M  V30 5302 H 486.776 -3.68645 1.48952 0
M  V30 5303 N 487.773 -1.03688 -1.18687 0
M  V30 5304 C 489.189 -0.755413 -1.4059 0
M  V30 5305 C 489.389 0.656659 -1.905 0
M  V30 5306 O 488.445 1.42144 -2.08689 0
M  V30 5307 C 489.758 -1.7983 -2.41001 0
M  V30 5308 C 491.306 -1.81877 -2.54735 0
M  V30 5309 C 491.781 -2.85148 -3.58406 0
M  V30 5310 N 493.272 -2.84015 -3.6591 0
M  V30 5311 C 494.007 -3.60573 -4.45841 0
M  V30 5312 N 493.503 -4.46871 -5.29413 0
M  V30 5313 N 495.296 -3.49079 -4.40568 0
M  V30 5314 H 487.447 -1.94818 -0.846148 0
M  V30 5315 H 489.71 -0.842727 -0.434184 0
M  V30 5316 H 489.416 -2.81097 -2.1137 0
M  V30 5317 H 489.29 -1.62727 -3.40294 0
M  V30 5318 H 491.677 -0.812836 -2.83685 0
M  V30 5319 H 491.758 -2.03057 -1.55568 0
M  V30 5320 H 491.402 -3.85918 -3.30197 0
M  V30 5321 H 491.332 -2.61224 -4.57241 0
M  V30 5322 H 493.823 -2.21431 -3.0623 0
M  V30 5323 H 494.136 -5.02007 -5.87545 0
M  V30 5324 H 492.481 -4.5094 -5.28846 0
M  V30 5325 H 495.672 -2.81066 -3.74325 0
M  V30 5326 H 495.845 -4.08994 -5.02621 0
M  V30 5327 N 489.251 1.34841 -0.815825 0
M  V30 5328 C 490.479 2.0273 -0.413294 0
M  V30 5329 C 490.894 1.61459 0.978599 0
M  V30 5330 O 490.251 0.816584 1.63212 0
M  V30 5331 C 490.302 3.58058 -0.497676 0
M  V30 5332 O 490.023 3.97832 -1.8347 0
M  V30 5333 C 491.524 4.4321 -0.0891339 0
M  V30 5334 H 488.744 0.649956 -0.166728 0
M  V30 5335 H 491.288 1.72267 -1.10201 0
M  V30 5336 H 489.443 3.87136 0.142886 0
M  V30 5337 H 489.857 4.92501 -1.80396 0
M  V30 5338 H 491.331 5.5164 -0.199274 0
M  V30 5339 H 491.808 4.28432 0.966571 0
M  V30 5340 H 492.414 4.19446 -0.703214 0
M  V30 5341 N 490.729 0.570148 1.46925 0
M  V30 5342 C 491.957 0.0561966 2.06824 0
M  V30 5343 C 492.372 -1.24326 1.42086 0
M  V30 5344 O 491.729 -1.74882 0.521794 0
M  V30 5345 C 491.78 -0.129517 3.61268 0
M  V30 5346 O 491.501 1.1185 4.23581 0
M  V30 5347 C 493.002 -0.679266 4.38065 0
M  V30 5348 H 490.222 0.0517261 0.669003 0
M  V30 5349 H 492.766 0.787243 1.8874 0
M  V30 5350 H 490.921 -0.810739 3.78822 0
M  V30 5351 H 491.335 0.924375 5.1629 0
M  V30 5352 H 492.809 -0.758445 5.46765 0
M  V30 5353 H 493.286 -1.69346 4.05239 0
M  V30 5354 H 493.892 -0.0333237 4.25287 0
M  V30 5355 N 492.207 -1.54576 0.307264 0
M  V30 5356 C 493.484 -1.92377 -0.353605 0
M  V30 5357 C 493.864 -1.23517 -1.71192 0
M  V30 5358 O 493.212 -0.373101 -2.25433 0
M  V30 5359 C 493.422 -3.45928 -0.462039 0
M  V30 5360 C 494.77 -4.18278 -0.729975 0
M  V30 5361 O 495.794 -3.51997 -0.545605 0
M  V30 5362 O 494.653 -5.3563 -1.08454 0
M  V30 5363 H 491.747 -0.802747 -0.198812 0
M  V30 5364 H 494.293 -1.65929 0.355783 0
M  V30 5365 H 493.065 -3.88187 0.492592 0
M  V30 5366 H 492.688 -3.78431 -1.21965 0
M  V30 5367 N 493.685 -0.035106 -1.57561 0
M  V30 5368 C 495.101 0.321334 -1.56332 0
M  V30 5369 C 495.301 1.72509 -1.04129 0
M  V30 5370 O 494.357 2.4287 -0.690694 0
M  V30 5371 C 495.67 0.164469 -3.0025 0
M  V30 5372 C 497.218 0.236786 -3.12103 0
M  V30 5373 C 497.693 0.10864 -4.57871 0
M  V30 5374 N 499.184 0.165433 -4.62904 0
M  V30 5375 C 499.919 0.0901506 -5.73329 0
M  V30 5376 N 499.415 -0.0365606 -6.9279 0
M  V30 5377 N 501.208 0.144572 -5.61914 0
M  V30 5378 H 493.359 -0.952976 -1.89821 0
M  V30 5379 H 495.622 -0.368537 -0.873432 0
M  V30 5380 H 495.328 -0.802746 -3.42416 0
M  V30 5381 H 495.202 0.932194 -3.655 0
M  V30 5382 H 497.589 1.19446 -2.69845 0
M  V30 5383 H 497.67 -0.561419 -2.49563 0
M  V30 5384 H 497.314 -0.845644 -5.00811 0
M  V30 5385 H 497.244 0.925786 -5.18398 0
M  V30 5386 H 499.735 0.263269 -3.76982 0
M  V30 5387 H 500.048 -0.0871487 -7.72751 0
M  V30 5388 H 498.393 -0.0714256 -6.94963 0
M  V30 5389 H 501.584 0.242006 -4.67474 0
M  V30 5390 H 501.757 0.0824413 -6.47948 0
M  V30 5391 N 495.163 1.55791 0.238111 0
M  V30 5392 C 496.126 1.90239 1.27835 0
M  V30 5393 C 497.126 0.779552 1.4064 0
M  V30 5394 O 498.316 1.04747 1.3919 0
M  V30 5395 C 495.448 2.13859 2.65475 0
M  V30 5396 H 496.641 2.83262 0.985034 0
M  V30 5397 H 494.194 1.48818 0.477799 0
M  V30 5398 H 494.929 1.23334 2.99932 0
M  V30 5399 H 494.714 2.95643 2.57561 0
M  V30 5400 H 496.204 2.41664 3.40571 0
M  V30 5401 N 496.642 -0.504142 1.49319 0
M  V30 5402 C 497.589 -1.60603 1.65756 0
M  V30 5403 C 498.559 -1.58425 0.499082 0
M  V30 5404 O 499.744 -1.76459 0.725728 0
M  V30 5405 C 496.884 -2.98764 1.72726 0
M  V30 5406 C 495.997 -3.10982 2.99857 0
M  V30 5407 C 495.132 -4.39857 2.97824 0
M  V30 5408 C 494.171 -4.45697 4.19548 0
M  V30 5409 N 493.308 -5.65995 4.15444 0
M  V30 5410 H 498.148 -1.45895 2.59843 0
M  V30 5411 H 495.685 -0.709891 1.28837 0
M  V30 5412 H 497.643 -3.78839 1.74747 0
M  V30 5413 H 496.273 -3.12183 0.821075 0
M  V30 5414 H 495.325 -2.23991 3.07461 0
M  V30 5415 H 496.637 -3.11157 3.89849 0
M  V30 5416 H 495.791 -5.2825 2.98391 0
M  V30 5417 H 494.53 -4.42242 2.05604 0
M  V30 5418 H 493.535 -3.55707 4.19229 0
M  V30 5419 H 494.76 -4.4503 5.12957 0
M  V30 5420 H 492.706 -5.69229 3.26059 0
M  V30 5421 H 492.623 -5.67773 4.99169 0
M  V30 5422 H 493.891 -6.56604 4.20109 0
M  V30 5423 N 498.12 -1.38341 -0.754957 0
M  V30 5424 C 499.083 -1.35262 -1.85032 0
M  V30 5425 C 500.083 -0.253393 -1.58791 0
M  V30 5426 O 501.273 -0.510205 -1.66561 0
M  V30 5427 C 498.405 -1.10544 -3.22479 0
M  V30 5428 H 499.598 -2.32712 -1.8917 0
M  V30 5429 H 497.151 -1.23614 -0.956515 0
M  V30 5430 H 497.886 -0.136952 -3.24011 0
M  V30 5431 H 497.671 -1.90127 -3.4292 0
M  V30 5432 H 499.161 -1.11082 -4.02555 0
M  V30 5433 N 499.598 0.982988 -1.23187 0
M  V30 5434 C 500.561 2.05649 -1.01198 0
M  V30 5435 C 501.561 1.6078 0.0252464 0
M  V30 5436 O 502.751 1.72878 -0.214243 0
M  V30 5437 C 499.883 3.36744 -0.530656 0
M  V30 5438 H 501.076 2.2659 -1.96461 0
M  V30 5439 H 498.629 1.15602 -1.05195 0
M  V30 5440 H 499.364 3.21492 0.425873 0
M  V30 5441 H 499.149 3.7065 -1.2791 0
M  V30 5442 H 500.639 4.15705 -0.397366 0
M  V30 5443 N 501.076 1.04316 1.18135 0
M  V30 5444 C 502.306 0.767003 1.91835 0
M  V30 5445 C 502.714 -0.68002 1.76557 0
M  V30 5446 O 502.057 -1.47548 1.09432 0
M  V30 5447 C 502.119 1.05674 3.43618 0
M  V30 5448 C 501.783 2.49818 3.82675 0
M  V30 5449 C 502.78 3.48003 3.86251 0
M  V30 5450 C 500.465 2.84596 4.13897 0
M  V30 5451 C 502.459 4.79016 4.20503 0
M  V30 5452 C 500.146 4.15813 4.4782 0
M  V30 5453 C 501.144 5.12834 4.51099 0
M  V30 5454 O 500.832 6.41699 4.84229 0
M  V30 5455 H 500.564 0.278948 0.615763 0
M  V30 5456 H 503.118 1.3946 1.50798 0
M  V30 5457 H 501.348 0.372029 3.84906 0
M  V30 5458 H 503.037 0.767994 3.98568 0
M  V30 5459 H 503.803 3.22475 3.62264 0
M  V30 5460 H 499.682 2.09748 4.1052 0
M  V30 5461 H 503.226 5.54739 4.22978 0
M  V30 5462 H 499.123 4.41109 4.71268 0
M  V30 5463 H 499.891 6.46387 5.02121 0
M  V30 5464 N 502.554 -1.34406 0.822964 0
M  V30 5465 C 503.831 -1.92733 0.333641 0
M  V30 5466 C 504.211 -1.75107 -1.17901 0
M  V30 5467 O 503.559 -1.12983 -1.98613 0
M  V30 5468 C 503.769 -3.40557 0.763023 0
M  V30 5469 C 505.117 -4.17709 0.761879 0
M  V30 5470 O 506.141 -3.49141 0.705606 0
M  V30 5471 O 505 -5.40082 0.835109 0
M  V30 5472 H 502.094 -0.821964 0.0911249 0
M  V30 5473 H 504.64 -1.4338 0.907757 0
M  V30 5474 H 503.412 -3.47187 1.8049 0
M  V30 5475 H 503.035 -3.97259 0.164605 0
M  V30 5476 N 504.032 -0.577932 -1.46621 0
M  V30 5477 C 504.982 0.178869 -2.27297 0
M  V30 5478 C 505.966 0.866279 -1.35589 0
M  V30 5479 O 507.158 0.761163 -1.59798 0
M  V30 5480 C 504.287 1.19499 -3.2183 0
M  V30 5481 C 503.373 0.50994 -4.21023 0
M  V30 5482 N 503.764 -0.43177 -5.03954 0
M  V30 5483 C 502.062 0.761287 -4.39455 0
M  V30 5484 C 502.763 -0.831693 -5.75724 0
M  V30 5485 N 501.739 -0.181897 -5.43296 0
M  V30 5486 H 505.541 -0.544859 -2.88805 0
M  V30 5487 H 503.055 -0.399373 -1.57413 0
M  V30 5488 H 505.052 1.75131 -3.78332 0
M  V30 5489 H 503.712 1.91959 -2.61881 0
M  V30 5490 H 504.723 -0.807045 -5.11573 0
M  V30 5491 H 501.4 1.47282 -3.90659 0
M  V30 5492 H 502.79 -1.6067 -6.52407 0
M  V30 5493 N 505.51 1.54411 -0.315457 0
M  V30 5494 C 506.757 2.00419 0.289543 0
M  V30 5495 C 507.085 1.20373 1.52776 0
M  V30 5496 O 506.34 0.271769 1.93804 0
M  V30 5497 C 506.639 3.50936 0.676652 0
M  V30 5498 C 506.305 4.48532 -0.461472 0
M  V30 5499 C 504.967 4.74936 -0.773879 0
M  V30 5500 C 507.319 5.06567 -1.22637 0
M  V30 5501 C 504.647 5.56634 -1.85405 0
M  V30 5502 C 506.999 5.89441 -2.29657 0
M  V30 5503 C 505.663 6.1415 -2.61488 0
M  V30 5504 H 504.933 0.733386 0.105951 0
M  V30 5505 H 507.58 1.86434 -0.437554 0
M  V30 5506 H 505.885 3.62606 1.48405 0
M  V30 5507 H 507.582 3.83971 1.15618 0
M  V30 5508 H 504.172 4.28096 -0.207893 0
M  V30 5509 H 508.356 4.86157 -0.998271 0
M  V30 5510 H 503.612 5.74012 -2.10523 0
M  V30 5511 H 507.786 6.33432 -2.89374 0
M  V30 5512 H 505.413 6.77245 -3.45317 0
M  V30 5513 N 506.988 0.0434614 1.5754 0
M  V30 5514 C 507.935 -0.93356 2.11077 0
M  V30 5515 C 508.905 -1.31383 1.01626 0
M  V30 5516 O 510.09 -1.40465 1.29129 0
M  V30 5517 C 507.23 -2.20578 2.65404 0
M  V30 5518 C 506.343 -1.88068 3.88914 0
M  V30 5519 C 505.478 -3.09691 4.31584 0
M  V30 5520 C 504.517 -2.73067 5.47815 0
M  V30 5521 N 503.654 -3.87359 5.85574 0
M  V30 5522 H 508.494 -0.470118 2.94268 0
M  V30 5523 H 506.031 -0.220434 1.45439 0
M  V30 5524 H 507.989 -2.95011 2.94999 0
M  V30 5525 H 506.619 -2.64513 1.85021 0
M  V30 5526 H 505.671 -1.03816 3.6596 0
M  V30 5527 H 506.983 -1.57104 4.73413 0
M  V30 5528 H 506.137 -3.92431 4.62691 0
M  V30 5529 H 504.876 -3.43827 3.45882 0
M  V30 5530 H 503.881 -1.88742 5.16388 0
M  V30 5531 H 505.106 -2.40131 6.35227 0
M  V30 5532 H 503.052 -4.21311 5.02825 0
M  V30 5533 H 502.969 -3.60068 6.64746 0
M  V30 5534 H 504.237 -4.70761 6.21292 0
M  V30 5535 N 508.466 -1.55915 -0.229846 0
M  V30 5536 C 509.877 -1.68809 -0.797531 0
M  V30 5537 C 510.228 -0.643995 -1.8533 0
M  V30 5538 O 509.353 0.206492 -2.15413 0
M  V30 5539 C 509.948 -3.06043 -1.45338 0
M  V30 5540 C 508.507 -3.20819 -1.96856 0
M  V30 5541 C 507.654 -2.6472 -0.825736 0
M  V30 5542 H 510.605 -1.58699 -0.00533733 0
M  V30 5543 H 510.626 -3.01438 -2.32196 0
M  V30 5544 H 510.138 -3.82012 -0.684743 0
M  V30 5545 H 508.239 -2.49704 -2.76548 0
M  V30 5546 H 508.352 -4.27937 -2.15423 0
M  V30 5547 H 506.716 -2.22985 -1.23084 0
M  V30 5548 H 507.499 -3.43229 -0.0699019 0
M  V30 5549 N 509.944 0.496216 -1.49584 0
M  V30 5550 C 510.874 1.60576 -1.69521 0
M  V30 5551 C 511.855 1.61169 -0.543933 0
M  V30 5552 O 513.04 1.77834 -0.78031 0
M  V30 5553 C 510.17 2.99038 -1.76616 0
M  V30 5554 C 509.124 3.13312 -2.91581 0
M  V30 5555 C 508.45 4.53172 -2.83794 0
M  V30 5556 C 509.75 2.92886 -4.32452 0
M  V30 5557 H 511.444 1.44146 -2.62416 0
M  V30 5558 H 508.99 0.692024 -1.26282 0
M  V30 5559 H 510.943 3.76564 -1.8915 0
M  V30 5560 H 509.667 3.16568 -0.80324 0
M  V30 5561 H 508.326 2.38213 -2.78658 0
M  V30 5562 H 507.974 4.67585 -1.854 0
M  V30 5563 H 507.674 4.63662 -3.60958 0
M  V30 5564 H 509.198 5.32752 -2.98342 0
M  V30 5565 H 510.612 3.60178 -4.46032 0
M  V30 5566 H 509.009 3.14844 -5.10875 0
M  V30 5567 H 510.079 1.88966 -4.46565 0
M  V30 5568 N 511.423 1.38739 0.74761 0
M  V30 5569 C 512.7 1.25791 1.49786 0
M  V30 5570 C 513.08 -0.138075 2.10648 0
M  V30 5571 O 512.428 -1.14815 1.9756 0
M  V30 5572 C 512.638 2.37265 2.55942 0
M  V30 5573 C 513.986 2.75978 3.22679 0
M  V30 5574 O 515.01 2.36621 2.6625 0
M  V30 5575 O 513.869 3.43867 4.24756 0
M  V30 5576 H 510.963 0.492251 0.664543 0
M  V30 5577 H 513.509 1.50582 0.782511 0
M  V30 5578 H 512.281 3.30644 2.0926 0
M  V30 5579 H 511.904 2.14071 3.35051 0
M  V30 5580 N 512.901 -0.976442 1.23707 0
M  V30 5581 C 514.149 -1.71487 1.06942 0
M  V30 5582 C 514.47 -1.9098 -0.393897 0
M  V30 5583 O 513.74 -1.48128 -1.28198 0
M  V30 5584 H 512.32 -0.635425 0.392739 0
M  V30 5585 H 514.982 -1.17515 1.55487 0
M  V30 5586 H 514.078 -2.70286 1.56051 0
M  V30 5587 N 514.379 -1.04941 -1.1758 0
M  V30 5588 C 515.311 -0.606174 -2.21039 0
M  V30 5589 C 516.324 0.328763 -1.59446 0
M  V30 5590 O 517.513 0.121895 -1.78083 0
M  V30 5591 C 514.613 0.133294 -3.38638 0
M  V30 5592 C 513.786 -0.811711 -4.29802 0
M  V30 5593 C 512.845 -0.113958 -5.26077 0
M  V30 5594 O 511.871 -0.747237 -5.64274 0
M  V30 5595 N 513.073 1.14953 -5.69004 0
M  V30 5596 H 515.838 -1.49606 -2.59689 0
M  V30 5597 H 513.399 -0.930997 -1.32454 0
M  V30 5598 H 515.391 0.610144 -4.00074 0
M  V30 5599 H 513.961 0.924816 -2.98607 0
M  V30 5600 H 513.181 -1.46824 -3.65837 0
M  V30 5601 H 514.469 -1.45326 -4.87604 0
M  V30 5602 H 513.867 1.68441 -5.40041 0
M  V30 5603 H 512.424 1.57049 -6.32597 0
M  V30 5604 N 515.857 1.33968 -0.830081 0
M  V30 5605 C 517.104 1.98063 -0.421566 0
M  V30 5606 C 517.432 1.65787 1.0171 0
M  V30 5607 O 516.687 0.925348 1.72441 0
M  V30 5608 C 516.986 3.52679 -0.57898 0
M  V30 5609 C 516.652 4.04884 -1.98443 0
M  V30 5610 C 515.314 4.18852 -2.36888 0
M  V30 5611 C 517.666 4.32879 -2.90285 0
M  V30 5612 C 514.994 4.58145 -3.66497 0
M  V30 5613 C 517.346 4.7362 -4.19364 0
M  V30 5614 C 516.01 4.85794 -4.57778 0
M  V30 5615 H 515.28 0.724765 -0.154262 0
M  V30 5616 H 517.927 1.59792 -1.05541 0
M  V30 5617 H 516.232 3.91556 0.138219 0
M  V30 5618 H 517.929 4.00261 -0.243317 0
M  V30 5619 H 514.519 3.9448 -1.67581 0
M  V30 5620 H 518.703 4.21619 -2.61823 0
M  V30 5621 H 513.959 4.65762 -3.96075 0
M  V30 5622 H 518.133 4.9424 -4.90612 0
M  V30 5623 H 515.76 5.15998 -5.58256 0
M  V30 5624 N 517.335 0.585699 1.46312 0
M  V30 5625 C 518.751 0.247607 1.57668 0
M  V30 5626 C 518.951 -1.25007 1.58037 0
M  V30 5627 O 518.007 -2.03196 1.49893 0
M  V30 5628 C 519.32 0.899456 2.86933 0
M  V30 5629 C 520.868 0.873326 3.00569 0
M  V30 5630 C 521.343 1.50477 4.32574 0
M  V30 5631 N 522.834 1.46925 4.3928 0
M  V30 5632 C 523.569 1.92719 5.40044 0
M  V30 5633 N 523.065 2.46499 6.47464 0
M  V30 5634 N 524.858 1.83617 5.31264 0
M  V30 5635 H 517.009 1.55841 1.44317 0
M  V30 5636 H 519.272 0.651564 0.688599 0
M  V30 5637 H 518.978 1.95313 2.92482 0
M  V30 5638 H 518.852 0.409476 3.74971 0
M  V30 5639 H 521.239 -0.171736 2.946 0
M  V30 5640 H 521.32 1.40136 2.13999 0
M  V30 5641 H 520.964 2.54905 4.39302 0
M  V30 5642 H 520.894 0.951944 5.17924 0
M  V30 5643 H 523.385 1.07616 3.62253 0
M  V30 5644 H 523.698 2.79291 7.20567 0
M  V30 5645 H 522.043 2.50526 6.48276 0
M  V30 5646 H 525.234 1.41358 4.46246 0
M  V30 5647 H 525.407 2.19622 6.09648 0
M  V30 5648 N 518.813 -1.54241 0.323641 0
M  V30 5649 C 519.723 -2.28033 -0.551205 0
M  V30 5650 C 520.739 -1.32388 -1.12913 0
M  V30 5651 O 521.915 -1.65403 -1.14908 0
M  V30 5652 C 518.98 -3.02382 -1.69606 0
M  V30 5653 C 518.041 -4.13612 -1.14993 0
M  V30 5654 C 517.274 -4.84407 -2.24022 0
M  V30 5655 O 517.497 -4.54716 -3.44368 0
M  V30 5656 O 516.431 -5.71312 -1.89436 0
M  V30 5657 H 520.257 -3.03662 0.048066 0
M  V30 5658 H 517.842 -1.49133 0.0893289 0
M  V30 5659 H 519.724 -3.48941 -2.36259 0
M  V30 5660 H 518.399 -2.29628 -2.28151 0
M  V30 5661 H 517.306 -3.71402 -0.448484 0
M  V30 5662 H 518.639 -4.8841 -0.609608 0
M  V30 5663 N 520.291 -0.0518155 -1.57515 0
M  V30 5664 C 521.239 0.940195 -2.12751 0
M  V30 5665 C 522.233 1.3218 -1.05948 0
M  V30 5666 O 523.439 1.30138 -1.24355 0
M  V30 5667 H 519.814 0.321066 -0.680015 0
M  V30 5668 H 521.785 0.449217 -2.94999 0
M  V30 5669 C 520.534 2.2055 -2.68799 0
M  V30 5670 H 519.857 1.92066 -3.50643 0
M  V30 5671 H 521.297 2.88119 -3.11068 0
M  V30 5672 C 519.756 2.95061 -1.62605 0
M  V30 5673 O 520.286 3.88025 -1.03921 0
M  V30 5674 N 518.492 2.57804 -1.34111 0
M  V30 5675 H 518.039 1.82281 -1.8202 0
M  V30 5676 H 517.997 3.07964 -0.632872 0
M  V30 5677 N 521.769 1.56035 0.221574 0
M  V30 5678 C 523.015 1.79312 0.947372 0
M  V30 5679 C 523.348 0.621453 1.83988 0
M  V30 5680 O 522.623 -0.379287 1.90766 0
M  V30 5681 C 522.906 3.1267 1.78633 0
M  V30 5682 C 522.759 4.40284 0.920312 0
M  V30 5683 C 524.078 3.4247 2.7641 0
M  V30 5684 H 521.197 0.652328 0.342982 0
M  V30 5685 H 523.839 1.88765 0.216244 0
M  V30 5686 H 521.989 3.04741 2.40967 0
M  V30 5687 H 523.661 4.60232 0.313718 0
M  V30 5688 H 521.904 4.33212 0.225734 0
M  V30 5689 H 522.575 5.30033 1.54171 0
M  V30 5690 H 525.051 3.50526 2.24211 0
M  V30 5691 H 523.927 4.3695 3.32213 0
M  V30 5692 H 524.188 2.64635 3.54148 0
M  V30 5693 N 523.247 -0.488276 1.49845 0
M  V30 5694 C 524.496 -1.23826 1.59217 0
M  V30 5695 C 524.809 -1.93439 0.289966 0
M  V30 5696 O 526.015 -2.70229 0.262382 0
M  V30 5697 C 524.471 -2.24902 2.80976 0
M  V30 5698 C 524.079 -1.6117 4.18005 0
M  V30 5699 C 525.823 -3.00648 2.99685 0
M  V30 5700 C 523.73 -2.60431 5.3097 0
M  V30 5701 H 522.66 -0.465858 0.592868 0
M  V30 5702 H 525.311 -0.510645 1.76252 0
M  V30 5703 H 523.693 -3.0088 2.57463 0
M  V30 5704 H 524.867 -0.910968 4.51706 0
M  V30 5705 H 523.182 -0.97767 4.0476 0
M  V30 5706 H 525.779 -3.74903 3.81251 0
M  V30 5707 H 526.122 -3.5902 2.10738 0
M  V30 5708 H 526.655 -2.31784 3.23297 0
M  V30 5709 H 523.394 -2.06823 6.22017 0
M  V30 5710 H 522.914 -3.28707 5.01709 0
M  V30 5711 H 524.593 -3.22606 5.60834 0
M  V30 5712 N 524.725 -1.39134 -0.740242 0
M  V30 5713 C 525.655 -1.40165 -1.86751 0
M  V30 5714 C 526.636 -0.265708 -1.68012 0
M  V30 5715 O 527.821 -0.47076 -1.88408 0
M  V30 5716 C 524.951 -1.2392 -3.2444 0
M  V30 5717 C 523.905 -2.34858 -3.57807 0
M  V30 5718 C 523.231 -2.03707 -4.94376 0
M  V30 5719 C 524.531 -3.77159 -3.61315 0
M  V30 5720 H 526.225 -2.345 -1.86145 0
M  V30 5721 H 523.771 -1.12875 -0.89416 0
M  V30 5722 H 525.724 -1.23263 -4.02969 0
M  V30 5723 H 524.448 -0.26051 -3.25559 0
M  V30 5724 H 523.107 -2.34723 -2.81604 0
M  V30 5725 H 522.755 -1.04289 -4.9207 0
M  V30 5726 H 522.455 -2.78016 -5.17669 0
M  V30 5727 H 523.979 -2.04691 -5.75268 0
M  V30 5728 H 525.393 -3.79252 -4.29931 0
M  V30 5729 H 523.79 -4.50784 -3.96124 0
M  V30 5730 H 524.86 -4.08513 -2.61238 0
M  V30 5731 N 526.204 0.969867 -1.24223 0
M  V30 5732 C 527.136 2.0669 -0.99055 0
M  V30 5733 C 528.149 1.62753 0.0392222 0
M  V30 5734 O 529.338 1.77403 -0.197561 0
M  V30 5735 C 526.438 3.35589 -0.472594 0
M  V30 5736 C 525.611 4.08444 -1.56499 0
M  V30 5737 C 524.67 5.15616 -1.05007 0
M  V30 5738 O 523.696 5.41911 -1.7413 0
M  V30 5739 N 524.898 5.80383 0.116641 0
M  V30 5740 H 527.663 2.28855 -1.93508 0
M  V30 5741 H 525.224 1.13733 -1.15223 0
M  V30 5742 H 527.216 4.04542 -0.112919 0
M  V30 5743 H 525.786 3.10311 0.377617 0
M  V30 5744 H 525.006 3.33798 -2.09696 0
M  V30 5745 H 526.294 4.53882 -2.29932 0
M  V30 5746 H 525.692 5.6142 0.694589 0
M  V30 5747 H 524.249 6.50462 0.417483 0
M  V30 5748 N 527.682 1.05563 1.17022 0
M  V30 5749 C 528.931 0.763036 1.8671 0
M  V30 5750 C 529.244 -0.712857 1.82147 0
M  V30 5751 O 530.45 -1.11955 2.47343 0
M  V30 5752 C 528.906 1.31474 3.35026 0
M  V30 5753 C 528.514 2.82034 3.48081 0
M  V30 5754 C 530.258 1.09935 4.10018 0
M  V30 5755 C 528.165 3.30486 4.90442 0
M  V30 5756 H 527.095 0.281747 0.699382 0
M  V30 5757 H 529.746 1.2734 1.32124 0
M  V30 5758 H 528.128 0.732171 3.89173 0
M  V30 5759 H 529.302 3.46178 3.04133 0
M  V30 5760 H 527.617 3.02156 2.86515 0
M  V30 5761 H 530.214 1.43632 5.15048 0
M  V30 5762 H 530.557 0.0373072 4.16283 0
M  V30 5763 H 531.09 1.64732 3.62089 0
M  V30 5764 H 527.829 4.36137 4.89352 0
M  V30 5765 H 527.349 2.71086 5.35044 0
M  V30 5766 H 529.028 3.25382 5.59227 0
M  V30 5767 N 529.16 -1.33526 0.837174 0
M  V30 5768 C 530.107 -2.29248 0.267169 0
M  V30 5769 C 531.077 -1.54252 -0.616071 0
M  V30 5770 O 532.262 -1.82559 -0.554699 0
M  V30 5771 C 529.402 -3.40638 -0.553152 0
M  V30 5772 C 528.515 -4.30548 0.353921 0
M  V30 5773 C 527.65 -5.29051 -0.477339 0
M  V30 5774 C 526.689 -6.106 0.42823 0
M  V30 5775 N 525.826 -7.01152 -0.364801 0
M  V30 5776 H 530.666 -2.77398 1.08877 0
M  V30 5777 H 528.203 -1.36496 0.54838 0
M  V30 5778 H 530.161 -4.03921 -1.04422 0
M  V30 5779 H 528.791 -2.93685 -1.33973 0
M  V30 5780 H 527.843 -3.68001 0.963289 0
M  V30 5781 H 529.155 -4.87631 1.04964 0
M  V30 5782 H 528.309 -5.97853 -1.0323 0
M  V30 5783 H 527.048 -4.72541 -1.2065 0
M  V30 5784 H 526.053 -5.40718 0.995219 0
M  V30 5785 H 527.278 -6.69193 1.15573 0
M  V30 5786 H 525.224 -6.47092 -1.07738 0
M  V30 5787 H 525.141 -7.5551 0.272238 0
M  V30 5788 H 526.409 -7.74263 -0.902054 0
M  V30 5789 N 530.638 -0.59345 -1.46 0
M  V30 5790 C 531.586 0.146268 -2.3214 0
M  V30 5791 C 532.58 0.873743 -1.45128 0
M  V30 5792 O 533.786 0.790912 -1.61693 0
M  V30 5793 H 530.161 0.0660349 -0.749095 0
M  V30 5794 H 532.132 -0.598895 -2.92328 0
M  V30 5795 C 530.881 1.1396 -3.28494 0
M  V30 5796 H 530.204 0.589252 -3.95434 0
M  V30 5797 H 531.644 1.62738 -3.91526 0
M  V30 5798 C 530.103 2.20604 -2.54628 0
M  V30 5799 O 530.633 3.28128 -2.31722 0
M  V30 5800 N 528.839 1.95502 -2.15005 0
M  V30 5801 H 528.386 1.0807 -2.33834 0
M  V30 5802 H 528.344 2.67064 -1.65904 0
M  V30 5803 N 532.116 1.54067 -0.331816 0
M  V30 5804 C 533.364 2.00319 0.267739 0
M  V30 5805 C 533.685 1.22148 1.52003 0
M  V30 5806 O 532.955 0.325494 1.93177 0
M  V30 5807 H 531.535 0.740014 0.101922 0
M  V30 5808 H 534.197 1.89628 -0.450267 0
M  V30 5809 H 533.293 3.07765 0.518385 0
M  V30 5810 N 533.594 0.0601682 1.57485 0
M  V30 5811 C 535.005 -0.474217 1.80577 0
M  V30 5812 C 535.356 -1.70365 0.973147 0
M  V30 5813 O 534.481 -2.15544 0.192306 0
M  V30 5814 C 535.076 -0.867102 3.27516 0
M  V30 5815 C 533.635 -1.34642 3.51495 0
M  V30 5816 C 532.782 -0.32594 2.75378 0
M  V30 5817 H 535.733 0.285973 1.56102 0
M  V30 5818 H 535.754 -1.72938 3.38929 0
M  V30 5819 H 535.266 0.0278927 3.8809 0
M  V30 5820 H 533.367 -2.2603 2.96212 0
M  V30 5821 H 533.48 -1.33237 4.60201 0
M  V30 5822 H 531.844 -0.800749 2.41785 0
M  V30 5823 H 532.627 0.561125 3.38683 0
M  V30 5824 N 535.072 -1.5615 -0.213296 0
M  V30 5825 C 536.005 -1.88115 -1.29182 0
M  V30 5826 C 536.983 -0.739348 -1.44819 0
M  V30 5827 O 538.167 -0.988541 -1.605 0
M  V30 5828 C 535.294 -2.09541 -2.66102 0
M  V30 5829 C 534.34 -3.32236 -2.67436 0
M  V30 5830 S 535.173 -4.87915 -2.20679 0
M  V30 5831 C 536.329 -5.12387 -3.59458 0
M  V30 5832 H 536.562 -2.793 -1.01876 0
M  V30 5833 H 534.095 -1.48692 -0.415934 0
M  V30 5834 H 536.053 -2.22568 -3.44925 0
M  V30 5835 H 534.714 -1.19138 -2.90628 0
M  V30 5836 H 533.907 -3.44297 -3.6807 0
M  V30 5837 H 533.509 -3.18108 -1.96681 0
M  V30 5838 H 535.801 -5.01791 -4.55205 0
M  V30 5839 H 536.744 -6.14236 -3.52306 0
M  V30 5840 H 537.152 -4.40089 -3.53528 0
M  V30 5841 N 536.55 0.480323 -1.50102 0
M  V30 5842 C 537.827 1.24159 -1.51142 0
M  V30 5843 C 538.207 2.09605 -0.250818 0
M  V30 5844 O 537.555 2.15274 0.766118 0
M  V30 5845 C 537.765 2.08057 -2.80202 0
M  V30 5846 C 539.113 2.66556 -3.30504 0
M  V30 5847 O 540.137 2.18308 -2.81461 0
M  V30 5848 O 538.996 3.54442 -4.15973 0
M  V30 5849 H 536.09 0.562928 -0.605839 0
M  V30 5850 H 538.636 0.492899 -1.62384 0
M  V30 5851 H 537.408 1.45032 -3.6343 0
M  V30 5852 H 537.031 2.90079 -2.71919 0
M  V30 5853 N 538.028 1.39524 0.732853 0
M  V30 5854 C 539.275 1.36865 1.49246 0
M  V30 5855 C 539.603 -0.0347118 1.94469 0
M  V30 5856 O 538.858 -1.01596 1.67262 0
M  V30 5857 C 539.157 2.28916 2.74468 0
M  V30 5858 C 538.823 3.76506 2.481 0
M  V30 5859 C 537.485 4.16721 2.40619 0
M  V30 5860 C 539.837 4.69846 2.25598 0
M  V30 5861 C 537.165 5.48334 2.08679 0
M  V30 5862 C 539.517 6.01739 1.95174 0
M  V30 5863 C 538.181 6.41015 1.86163 0
M  V30 5864 H 537.451 0.500824 0.546129 0
M  V30 5865 H 540.098 1.72047 0.840958 0
M  V30 5866 H 538.403 1.86859 3.4437 0
M  V30 5867 H 540.1 2.2415 3.32502 0
M  V30 5868 H 536.69 3.44635 2.54803 0
M  V30 5869 H 540.874 4.39608 2.30344 0
M  V30 5870 H 536.13 5.77685 2.00226 0
M  V30 5871 H 540.304 6.73591 1.76771 0
M  V30 5872 H 537.931 7.42917 1.61179 0
M  V30 5873 N 539.506 -0.963266 1.24736 0
M  V30 5874 C 540.438 -2.06162 1.0015 0
M  V30 5875 C 541.451 -1.62771 -0.0305905 0
M  V30 5876 O 542.64 -1.77296 0.206966 0
M  V30 5877 C 539.74 -3.35333 0.490385 0
M  V30 5878 C 538.913 -4.07609 1.58663 0
M  V30 5879 C 537.972 -5.15052 1.0774 0
M  V30 5880 O 536.998 -5.4098 1.77002 0
M  V30 5881 N 538.2 -5.80436 -0.0858605 0
M  V30 5882 H 540.965 -2.27825 1.94719 0
M  V30 5883 H 538.526 -1.13121 1.15825 0
M  V30 5884 H 540.518 -4.04477 0.134371 0
M  V30 5885 H 539.088 -3.10507 -0.361155 0
M  V30 5886 H 538.308 -3.32681 2.11463 0
M  V30 5887 H 539.596 -4.52656 2.32336 0
M  V30 5888 H 538.994 -5.6178 -0.664806 0
M  V30 5889 H 537.551 -6.50674 -0.382981 0
M  V30 5890 N 540.985 -1.06182 -1.16461 0
M  V30 5891 C 542.231 -0.779015 -1.87241 0
M  V30 5892 C 542.564 0.692715 -1.81425 0
M  V30 5893 O 541.839 1.5074 -1.22913 0
M  V30 5894 C 542.122 -1.2728 -3.36856 0
M  V30 5895 C 541.975 -2.80821 -3.51368 0
M  V30 5896 C 543.294 -0.879799 -4.31216 0
M  V30 5897 H 540.413 -0.284464 -0.679889 0
M  V30 5898 H 543.055 -1.31755 -1.36896 0
M  V30 5899 H 541.205 -0.814673 -3.79862 0
M  V30 5900 H 542.877 -3.34833 -3.17308 0
M  V30 5901 H 541.12 -3.19606 -2.93316 0
M  V30 5902 H 541.791 -3.10435 -4.56436 0
M  V30 5903 H 544.267 -1.27436 -3.96105 0
M  V30 5904 H 543.143 -1.25278 -5.34412 0
M  V30 5905 H 543.404 0.215372 -4.41575 0
M  V30 5906 N 542.463 1.3308 -0.844243 0
M  V30 5907 C 543.879 1.50447 -0.532729 0
M  V30 5908 C 544.079 1.78292 0.938837 0
M  V30 5909 O 543.135 1.84635 1.72239 0
M  V30 5910 C 544.448 2.65555 -1.41072 0
M  V30 5911 C 545.996 2.7944 -1.41005 0
M  V30 5912 C 546.471 3.97616 -2.27301 0
M  V30 5913 N 547.962 4.0486 -2.2504 0
M  V30 5914 C 548.697 4.95508 -2.88547 0
M  V30 5915 N 548.193 5.91236 -3.61126 0
M  V30 5916 N 549.986 4.88548 -2.77989 0
M  V30 5917 H 542.137 1.13269 -1.79677 0
M  V30 5918 H 544.4 0.55734 -0.766861 0
M  V30 5919 H 544.106 2.51675 -2.45668 0
M  V30 5920 H 543.98 3.61089 -1.09061 0
M  V30 5921 H 546.367 2.92749 -0.371784 0
M  V30 5922 H 546.448 1.8465 -1.77026 0
M  V30 5923 H 546.092 3.85066 -3.3119 0
M  V30 5924 H 546.022 4.91661 -1.88619 0
M  V30 5925 H 548.513 3.36353 -1.72264 0
M  V30 5926 H 548.826 6.57079 -4.06776 0
M  V30 5927 H 547.171 5.91295 -3.65234 0
M  V30 5928 H 550.362 4.12729 -2.20846 0
M  V30 5929 H 550.535 5.58994 -3.27765 0
M  V30 5930 N 543.941 0.601185 1.45683 0
M  V30 5931 C 544.851 -0.123395 2.34275 0
M  V30 5932 C 545.867 -0.86702 1.5086 0
M  V30 5933 O 547.043 -0.826049 1.8368 0
M  V30 5934 C 544.108 -1.11237 3.2837 0
M  V30 5935 C 543.169 -0.371405 4.2769 0
M  V30 5936 C 542.402 -1.31327 5.1729 0
M  V30 5937 O 542.625 -2.55078 5.10188 0
M  V30 5938 O 541.559 -0.813811 5.96373 0
M  V30 5939 H 545.385 0.604483 2.97623 0
M  V30 5940 H 542.97 0.361477 1.44961 0
M  V30 5941 H 544.852 -1.68214 3.8637 0
M  V30 5942 H 543.527 -1.82139 2.67595 0
M  V30 5943 H 542.434 0.24067 3.73325 0
M  V30 5944 H 543.767 0.296998 4.91303 0
M  V30 5945 N 545.419 -1.53889 0.339982 0
M  V30 5946 C 546.83 -1.86139 -0.144671 0
M  V30 5947 C 547.181 -1.2613 -1.50285 0
M  V30 5948 O 546.306 -0.573515 -2.08662 0
M  V30 5949 C 546.901 -3.37728 -0.269285 0
M  V30 5950 C 545.46 -3.69868 -0.698168 0
M  V30 5951 C 544.607 -2.76777 0.170249 0
M  V30 5952 H 547.558 -1.48503 0.559704 0
M  V30 5953 H 547.579 -3.64331 -1.0974 0
M  V30 5954 H 547.091 -3.81375 0.719366 0
M  V30 5955 H 545.192 -3.31764 -1.69597 0
M  V30 5956 H 545.305 -4.76582 -0.490533 0
M  V30 5957 H 543.669 -2.52188 -0.356844 0
M  V30 5958 H 544.452 -3.23253 1.15597 0
M  V30 5959 N 546.897 -0.0685191 -1.57451 0
M  V30 5960 C 548.143 0.602239 -1.93652 0
M  V30 5961 C 548.476 1.6946 -0.948526 0
M  V30 5962 O 547.751 1.94487 0.022782 0
M  V30 5963 C 548.034 1.18223 -3.4014 0
M  V30 5964 C 547.887 0.0967431 -4.49696 0
M  V30 5965 C 549.206 2.08872 -3.87377 0
M  V30 5966 H 546.325 0.217453 -0.70419 0
M  V30 5967 H 548.967 -0.133821 -1.89528 0
M  V30 5968 H 547.117 1.80953 -3.43785 0
M  V30 5969 H 548.789 -0.536155 -4.58174 0
M  V30 5970 H 547.032 -0.573063 -4.29998 0
M  V30 5971 H 547.703 0.542894 -5.49324 0
M  V30 5972 H 550.179 1.56081 -3.85717 0
M  V30 5973 H 549.055 2.46389 -4.90493 0
M  V30 5974 H 549.316 2.99572 -3.25129 0
M  V30 5975 N 548.375 1.56261 0.205012 0
M  V30 5976 C 549.6 1.84491 0.947512 0
M  V30 5977 C 550.025 0.650894 1.76479 0
M  V30 5978 O 549.383 -0.40035 1.76824 0
M  V30 5979 C 549.431 3.10863 1.82747 0
M  V30 5980 O 548.535 2.90719 2.925 0
M  V30 5981 H 547.876 0.607783 0.267386 0
M  V30 5982 H 550.406 2.03485 0.213323 0
M  V30 5983 H 550.416 3.41399 2.23407 0
M  V30 5984 H 549.091 3.97392 1.2269 0
M  V30 5985 H 547.668 2.71457 2.55667 0
M  V30 5986 N 549.853 -0.472356 1.50355 0
M  V30 5987 C 551.264 -1.05326 1.54154 0
M  V30 5988 C 551.615 -1.93155 0.344303 0
M  V30 5989 O 550.74 -2.09479 -0.542928 0
M  V30 5990 C 551.335 -1.91691 2.79356 0
M  V30 5991 C 549.894 -2.44892 2.8584 0
M  V30 5992 C 549.041 -1.23205 2.48426 0
M  V30 5993 H 551.992 -0.255027 1.56637 0
M  V30 5994 H 552.013 -2.76742 2.6114 0
M  V30 5995 H 551.525 -1.27741 3.66475 0
M  V30 5996 H 549.626 -3.12399 2.0307 0
M  V30 5997 H 549.739 -2.80086 3.88701 0
M  V30 5998 H 548.103 -1.56643 2.00836 0
M  V30 5999 H 548.886 -0.609194 3.37852 0
M  V30 6000 N 551.331 -1.39911 -0.725443 0
M  V30 6001 C 552.261 -1.42138 -1.85254 0
M  V30 6002 C 553.242 -0.283513 -1.67721 0
M  V30 6003 O 554.427 -0.490717 -1.87898 0
M  V30 6004 C 551.557 -1.27354 -3.23107 0
M  V30 6005 C 550.511 -2.3864 -3.55296 0
M  V30 6006 C 549.837 -2.08939 -4.92188 0
M  V30 6007 C 551.137 -3.8097 -3.57295 0
M  V30 6008 H 552.831 -2.36461 -1.83648 0
M  V30 6009 H 550.377 -1.13817 -0.882138 0
M  V30 6010 H 552.33 -1.2753 -4.01639 0
M  V30 6011 H 551.054 -0.295025 -3.25265 0
M  V30 6012 H 549.713 -2.37696 -2.79099 0
M  V30 6013 H 549.361 -1.09502 -4.90936 0
M  V30 6014 H 549.061 -2.83491 -5.14691 0
M  V30 6015 H 550.585 -2.10781 -5.73065 0
M  V30 6016 H 551.999 -3.8379 -4.25885 0
M  V30 6017 H 550.396 -4.5496 -3.9132 0
M  V30 6018 H 551.466 -4.11261 -2.5689 0
M  V30 6019 N 552.809 0.956637 -1.25245 0
M  V30 6020 C 554.056 1.701 -1.09874 0
M  V30 6021 C 554.384 1.91128 0.36062 0
M  V30 6022 O 553.639 1.47837 1.28229 0
M  V30 6023 C 553.938 3.08996 -1.79601 0
M  V30 6024 C 553.604 3.07774 -3.29523 0
M  V30 6025 C 552.266 3.07149 -3.70423 0
M  V30 6026 C 554.618 3.01257 -4.25316 0
M  V30 6027 C 551.946 2.97752 -5.0553 0
M  V30 6028 C 554.298 2.93403 -5.60444 0
M  V30 6029 C 552.962 2.91111 -6.00675 0
M  V30 6030 H 552.232 0.62244 -0.402056 0
M  V30 6031 H 554.879 1.1178 -1.55491 0
M  V30 6032 H 553.184 3.70848 -1.26408 0
M  V30 6033 H 554.881 3.65407 -1.65162 0
M  V30 6034 H 551.471 3.09032 -2.9698 0
M  V30 6035 H 555.655 3.00861 -3.9471 0
M  V30 6036 H 550.911 2.94346 -5.35883 0
M  V30 6037 H 555.085 2.87321 -6.34366 0
M  V30 6038 H 552.712 2.83586 -7.05325 0
M  V30 6039 N 554.287 1.06798 1.15896 0
M  V30 6040 C 555.535 0.786211 1.8618 0
M  V30 6041 C 555.856 -0.689547 1.82401 0
M  V30 6042 O 555.126 -1.49913 1.26107 0
M  V30 6043 H 553.706 0.287843 0.689315 0
M  V30 6044 H 556.368 1.35055 1.40521 0
M  V30 6045 H 555.464 1.1157 2.91477 0
M  V30 6046 N 555.766 -1.3263 0.851289 0
M  V30 6047 C 556.729 -2.27247 0.298541 0
M  V30 6048 C 557.729 -1.51467 -0.539847 0
M  V30 6049 O 558.919 -1.7061 -0.351843 0
M  V30 6050 C 556.051 -3.35964 -0.578004 0
M  V30 6051 H 557.244 -2.7765 1.13359 0
M  V30 6052 H 554.797 -1.43245 0.625354 0
M  V30 6053 H 555.532 -2.90823 -1.435 0
M  V30 6054 H 555.317 -3.92094 0.0220539 0
M  V30 6055 H 556.807 -4.06472 -0.957626 0
M  V30 6056 N 557.244 -0.608902 -1.45362 0
M  V30 6057 C 558.177 0.158059 -2.27652 0
M  V30 6058 C 559.155 0.872397 -1.37215 0
M  V30 6059 O 560.339 0.881002 -1.66645 0
M  V30 6060 C 557.466 1.22896 -3.15617 0
M  V30 6061 C 556.512 0.617607 -4.22005 0
M  V30 6062 S 557.345 -0.575518 -5.32398 0
M  V30 6063 C 558.501 0.495938 -6.23932 0
M  V30 6064 H 558.734 -0.540095 -2.92353 0
M  V30 6065 H 556.267 -0.396456 -1.49223 0
M  V30 6066 H 558.225 1.84195 -3.66855 0
M  V30 6067 H 556.886 1.89919 -2.50179 0
M  V30 6068 H 556.079 1.42341 -4.83482 0
M  V30 6069 H 555.681 0.0797273 -3.73915 0
M  V30 6070 H 557.973 1.37465 -6.63408 0
M  V30 6071 H 558.916 -0.0827108 -7.08052 0
M  V30 6072 H 559.324 0.811856 -5.58631 0
M  V30 6073 N 558.722 1.53707 -0.348139 0
M  V30 6074 C 560.133 1.86213 0.134797 0
M  V30 6075 C 560.484 1.26925 1.49614 0
M  V30 6076 O 559.609 0.584573 2.08355 0
M  V30 6077 C 560.204 3.37866 0.251371 0
M  V30 6078 C 558.763 3.70233 0.678543 0
M  V30 6079 C 557.91 2.76683 -0.184925 0
M  V30 6080 H 560.861 1.48204 -0.567571 0
M  V30 6081 H 560.882 3.64908 1.07806 0
M  V30 6082 H 560.394 3.80988 -0.739581 0
M  V30 6083 H 558.495 3.32659 1.67835 0
M  V30 6084 H 558.608 4.76836 0.465251 0
M  V30 6085 H 556.972 2.52374 0.343465 0
M  V30 6086 H 557.755 3.22635 -1.1731 0
M  V30 6087 N 560.2 0.0768682 1.57412 0
M  V30 6088 C 561.147 -0.888577 2.13009 0
M  V30 6089 C 562.117 -1.29198 1.0439 0
M  V30 6090 O 563.302 -1.37694 1.3208 0
M  V30 6091 C 560.442 -2.14899 2.70023 0
M  V30 6092 C 559.555 -1.79777 3.92816 0
M  V30 6093 C 558.69 -3.00467 4.38056 0
M  V30 6094 C 557.729 -2.61385 5.53484 0
M  V30 6095 N 556.866 -3.74851 5.93659 0
M  V30 6096 H 561.706 -0.407593 2.95199 0
M  V30 6097 H 559.243 -0.189534 1.45874 0
M  V30 6098 H 561.201 -2.88688 3.0119 0
M  V30 6099 H 559.831 -2.60529 1.9059 0
M  V30 6100 H 558.883 -0.960301 3.68079 0
M  V30 6101 H 560.195 -1.47027 4.76639 0
M  V30 6102 H 559.349 -3.82529 4.7091 0
M  V30 6103 H 558.088 -3.36413 3.53097 0
M  V30 6104 H 557.093 -1.77746 5.20275 0
M  V30 6105 H 558.318 -2.26603 6.40178 0
M  V30 6106 H 556.264 -4.1055 5.11649 0
M  V30 6107 H 556.181 -3.45887 6.72234 0
M  V30 6108 H 557.449 -4.57477 6.31138 0
M  V30 6109 N 561.678 -1.56367 -0.196722 0
M  V30 6110 C 562.906 -1.84639 -0.933608 0
M  V30 6111 C 563.321 -0.659164 -1.76919 0
M  V30 6112 O 562.678 0.372142 -1.78665 0
M  V30 6113 C 562.729 -3.11694 -1.83109 0
M  V30 6114 O 562.45 -4.25838 -1.02924 0
M  V30 6115 C 563.951 -3.53132 -2.67979 0
M  V30 6116 H 561.171 -0.613188 -0.272473 0
M  V30 6117 H 563.715 -2.03475 -0.204465 0
M  V30 6118 H 561.87 -2.94759 -2.51387 0
M  V30 6119 H 562.284 -4.98178 -1.64069 0
M  V30 6120 H 563.758 -4.45005 -3.26611 0
M  V30 6121 H 564.235 -2.76045 -3.41608 0
M  V30 6122 H 564.841 -3.72592 -2.05074 0
M  V30 6123 N 563.156 0.464375 -1.50603 0
M  V30 6124 C 564.104 1.58224 -1.70493 0
M  V30 6125 C 565.098 1.59492 -0.570836 0
M  V30 6126 O 566.304 1.63561 -0.751517 0
M  V30 6127 H 562.679 0.525161 -0.538247 0
M  V30 6128 H 564.65 1.38613 -2.64252 0
M  V30 6129 C 563.399 2.96113 -1.82243 0
M  V30 6130 H 562.722 2.95858 -2.68901 0
M  V30 6131 H 564.162 3.73769 -2.00182 0
M  V30 6132 C 562.621 3.31946 -0.575628 0
M  V30 6133 O 563.151 4.00708 0.282152 0
M  V30 6134 N 561.357 2.87436 -0.427665 0
M  V30 6135 H 560.904 2.31652 -1.12674 0
M  V30 6136 H 560.862 3.11776 0.405379 0
M  V30 6137 N 564.634 1.40294 0.718013 0
M  V30 6138 C 565.566 1.36281 1.84283 0
M  V30 6139 C 566.579 0.268621 1.60569 0
M  V30 6140 O 567.768 0.528798 1.70487 0
M  V30 6141 C 564.868 1.09741 3.2064 0
M  V30 6142 C 564.041 2.30767 3.71571 0
M  V30 6143 C 563.1 2.00424 4.86535 0
M  V30 6144 O 562.126 2.73268 4.99313 0
M  V30 6145 N 563.328 0.980724 5.72156 0
M  V30 6146 H 566.093 2.3322 1.88225 0
M  V30 6147 H 563.654 1.34616 0.899453 0
M  V30 6148 H 565.646 0.874322 3.95143 0
M  V30 6149 H 564.216 0.214771 3.11861 0
M  V30 6150 H 563.436 2.68921 2.88228 0
M  V30 6151 H 564.724 3.11455 4.02335 0
M  V30 6152 H 564.122 0.377375 5.6444 0
M  V30 6153 H 562.679 0.817538 6.46653 0
M  V30 6154 N 566.112 -0.949982 1.2575 0
M  V30 6155 C 567.045 -2.047 1.00862 0
M  V30 6156 C 568.023 -1.62475 -0.0636982 0
M  V30 6157 O 569.207 -1.88343 0.0769153 0
M  V30 6158 C 566.334 -3.34597 0.525613 0
M  V30 6159 C 565.38 -3.95788 1.58916 0
M  V30 6160 S 566.213 -4.31175 3.17567 0
M  V30 6161 C 567.369 -5.64183 2.71013 0
M  V30 6162 H 567.602 -2.25497 1.93749 0
M  V30 6163 H 565.135 -1.09022 1.09332 0
M  V30 6164 H 567.093 -4.09716 0.25359 0
M  V30 6165 H 565.754 -3.11758 -0.382828 0
M  V30 6166 H 564.947 -4.89457 1.20201 0
M  V30 6167 H 564.549 -3.27168 1.81211 0
M  V30 6168 H 566.841 -6.42504 2.14928 0
M  V30 6169 H 567.784 -6.07774 3.6334 0
M  V30 6170 H 568.192 -5.2364 2.1086 0
M  V30 6171 N 567.59 -1.07411 -1.15328 0
M  V30 6172 C 568.523 -0.63913 -2.19067 0
M  V30 6173 C 569.501 0.343929 -1.58921 0
M  V30 6174 O 570.685 0.250207 -1.86832 0
M  V30 6175 C 567.812 0.0613977 -3.38644 0
M  V30 6176 C 566.858 -0.880201 -4.17318 0
M  V30 6177 S 567.691 -2.38152 -4.79629 0
M  V30 6178 C 568.847 -1.69281 -6.02573 0
M  V30 6179 H 569.08 -1.51799 -2.55626 0
M  V30 6180 H 566.613 -0.888138 -1.26299 0
M  V30 6181 H 568.571 0.459323 -4.07922 0
M  V30 6182 H 567.232 0.916605 -3.00428 0
M  V30 6183 H 566.425 -0.336781 -5.02874 0
M  V30 6184 H 566.027 -1.21854 -3.53592 0
M  V30 6185 H 568.319 -1.00488 -6.70006 0
M  V30 6186 H 569.262 -2.52671 -6.61485 0
M  V30 6187 H 569.67 -1.17053 -5.52231 0
M  V30 6188 N 569.068 1.32177 -0.85831 0
M  V30 6189 C 569.978 2.32561 -0.308606 0
M  V30 6190 C 570.994 1.64209 0.575462 0
M  V30 6191 O 572.17 1.95719 0.474961 0
M  V30 6192 C 569.235 3.43207 0.490909 0
M  V30 6193 C 568.296 4.27243 -0.419733 0
M  V30 6194 C 567.529 5.32605 0.341719 0
M  V30 6195 O 567.752 5.48332 1.57125 0
M  V30 6196 O 566.686 6.0118 -0.294379 0
M  V30 6197 H 570.512 2.81477 -1.14037 0
M  V30 6198 H 568.097 1.35866 -0.621349 0
M  V30 6199 H 569.979 4.10677 0.944574 0
M  V30 6200 H 568.654 2.96474 1.29941 0
M  V30 6201 H 567.561 3.62569 -0.921652 0
M  V30 6202 H 568.894 4.7751 -1.19352 0
M  V30 6203 N 570.547 0.616602 1.45037 0
M  V30 6204 C 571.793 0.115501 2.02471 0
M  V30 6205 C 572.126 -1.25406 1.4828 0
M  V30 6206 O 571.401 -1.82922 0.661051 0
M  V30 6207 C 571.684 0.0863588 3.59996 0
M  V30 6208 C 571.537 1.48723 4.24501 0
M  V30 6209 C 572.856 -0.596762 4.36035 0
M  V30 6210 H 569.975 0.0434461 0.735718 0
M  V30 6211 H 572.617 0.7903 1.72784 0
M  V30 6212 H 570.767 -0.488277 3.85419 0
M  V30 6213 H 572.439 2.10964 4.10234 0
M  V30 6214 H 570.682 2.04534 3.82555 0
M  V30 6215 H 571.353 1.419 5.3345 0
M  V30 6216 H 573.829 -0.10824 4.15959 0
M  V30 6217 H 572.705 -0.586289 5.4576 0
M  V30 6218 H 572.966 -1.66451 4.09569 0
M  V30 6219 N 572.025 -1.5352 0.356285 0
M  V30 6220 C 572.957 -2.23009 -0.529127 0
M  V30 6221 C 573.97 -1.241 -1.05371 0
M  V30 6222 O 575.159 -1.50379 -0.961679 0
M  V30 6223 C 572.259 -2.90685 -1.74229 0
M  V30 6224 C 571.432 -4.16019 -1.35081 0
M  V30 6225 C 570.491 -4.66989 -2.42502 0
M  V30 6226 O 569.517 -5.30895 -2.05279 0
M  V30 6227 N 570.719 -4.44006 -3.7395 0
M  V30 6228 H 573.484 -2.99627 0.0660501 0
M  V30 6229 H 571.045 -1.60885 0.181014 0
M  V30 6230 H 573.037 -3.21695 -2.4555 0
M  V30 6231 H 571.607 -2.17575 -2.24454 0
M  V30 6232 H 570.827 -3.91414 -0.467833 0
M  V30 6233 H 572.115 -4.9752 -1.06542 0
M  V30 6234 H 571.513 -3.92924 -4.06973 0
M  V30 6235 H 570.07 -4.7959 -4.41403 0
M  V30 6236 N 573.503 -0.0852151 -1.57369 0
M  V30 6237 C 574.752 0.580443 -1.93168 0
M  V30 6238 C 575.065 1.6995 -0.968319 0
M  V30 6239 O 576.271 2.42564 -1.21963 0
M  V30 6240 C 574.727 1.08386 -3.43192 0
M  V30 6241 C 574.335 -0.00491388 -4.48 0
M  V30 6242 C 576.079 1.72281 -3.87968 0
M  V30 6243 C 573.986 0.513299 -5.89168 0
M  V30 6244 H 572.916 0.22059 -0.72101 0
M  V30 6245 H 575.567 -0.159621 -1.82804 0
M  V30 6246 H 573.949 1.8773 -3.48674 0
M  V30 6247 H 575.123 -0.780032 -4.5415 0
M  V30 6248 H 573.438 -0.548453 -4.12772 0
M  V30 6249 H 576.035 2.12108 -4.9083 0
M  V30 6250 H 576.378 2.58811 -3.26071 0
M  V30 6251 H 576.911 0.995359 -3.85146 0
M  V30 6252 H 573.65 -0.315153 -6.54742 0
M  V30 6253 H 573.17 1.25564 -5.8651 0
M  V30 6254 H 574.849 0.985433 -6.39451 0
M  V30 6255 N 574.981 1.5647 0.188427 0
M  V30 6256 C 576.209 1.85131 0.923803 0
M  V30 6257 C 576.624 0.668537 1.76567 0
M  V30 6258 O 575.981 -0.362662 1.7886 0
M  V30 6259 C 576.032 3.12661 1.81453 0
M  V30 6260 O 575.753 4.26378 1.00665 0
M  V30 6261 C 577.254 3.54548 2.66103 0
M  V30 6262 H 574.474 0.614624 0.269218 0
M  V30 6263 H 577.018 2.03581 0.193671 0
M  V30 6264 H 575.173 2.96088 2.49821 0
M  V30 6265 H 575.587 4.99041 1.61425 0
M  V30 6266 H 577.061 4.4673 3.24247 0
M  V30 6267 H 577.538 2.77853 3.40139 0
M  V30 6268 H 578.144 3.73674 2.03096 0
M  V30 6269 N 576.459 -0.456382 1.50847 0
M  V30 6270 C 577.391 -1.57033 1.66953 0
M  V30 6271 C 578.404 -1.53207 0.550593 0
M  V30 6272 O 579.593 -1.58328 0.824285 0
M  V30 6273 C 576.693 -2.95937 1.65149 0
M  V30 6274 C 575.866 -3.24475 2.93317 0
M  V30 6275 C 574.925 -4.43007 2.83957 0
M  V30 6276 O 573.951 -4.42592 3.57912 0
M  V30 6277 N 575.153 -5.45503 1.9851 0
M  V30 6278 H 577.918 -1.43629 2.63042 0
M  V30 6279 H 575.479 -0.645037 1.48495 0
M  V30 6280 H 577.471 -3.73224 1.56481 0
M  V30 6281 H 576.041 -3.03036 0.767343 0
M  V30 6282 H 575.261 -2.35664 3.16 0
M  V30 6283 H 576.549 -3.4036 3.78196 0
M  V30 6284 H 575.947 -5.48668 1.37766 0
M  V30 6285 H 574.504 -6.21716 1.95735 0
M  V30 6286 N 577.937 -1.40673 -0.710563 0
M  V30 6287 C 578.847 -1.43663 -1.85467 0
M  V30 6288 C 579.863 -0.328721 -1.70867 0
M  V30 6289 O 581.039 -0.574098 -1.93044 0
M  V30 6290 C 578.104 -1.30226 -3.21313 0
M  V30 6291 C 577.165 -2.51204 -3.48131 0
M  V30 6292 C 576.398 -2.38398 -4.77495 0
M  V30 6293 O 576.621 -1.40048 -5.5294 0
M  V30 6294 O 575.555 -3.2787 -5.04762 0
M  V30 6295 H 579.381 -2.40156 -1.859 0
M  V30 6296 H 576.966 -1.22049 -0.861652 0
M  V30 6297 H 578.848 -1.2496 -4.02446 0
M  V30 6298 H 577.523 -0.368419 -3.21597 0
M  V30 6299 H 576.43 -2.62048 -2.66987 0
M  V30 6300 H 577.763 -3.43366 -3.52648 0
M  V30 6301 N 579.415 0.9433 -1.26252 0
M  V30 6302 C 580.645 1.72117 -1.14277 0
M  V30 6303 C 581.053 1.86726 0.304944 0
M  V30 6304 O 580.396 1.3727 1.22076 0
M  V30 6305 C 580.458 3.14778 -1.73651 0
M  V30 6306 C 580.122 3.23561 -3.22734 0
M  V30 6307 C 581.119 3.07001 -4.19579 0
M  V30 6308 C 578.804 3.47019 -3.63157 0
M  V30 6309 C 580.798 3.13763 -5.54826 0
M  V30 6310 C 578.485 3.53416 -4.98538 0
M  V30 6311 C 579.483 3.36804 -5.94182 0
M  V30 6312 O 579.171 3.42906 -7.27098 0
M  V30 6313 H 578.903 0.545781 -0.398873 0
M  V30 6314 H 581.457 1.19123 -1.67328 0
M  V30 6315 H 579.687 3.69186 -1.1506 0
M  V30 6316 H 581.376 3.74469 -1.56613 0
M  V30 6317 H 582.142 2.88736 -3.89688 0
M  V30 6318 H 578.021 3.59006 -2.89199 0
M  V30 6319 H 581.565 3.00714 -6.29458 0
M  V30 6320 H 577.462 3.71201 -5.28091 0
M  V30 6321 H 578.23 3.59463 -7.35342 0
M  V30 6322 N 580.893 1.08022 1.14757 0
M  V30 6323 C 582.121 0.828847 1.89572 0
M  V30 6324 C 582.536 -0.618621 1.78377 0
M  V30 6325 O 581.893 -1.42482 1.1404 0
M  V30 6326 C 581.944 1.23677 3.39685 0
M  V30 6327 O 581.665 2.62746 3.50566 0
M  V30 6328 C 583.166 1.01569 4.31507 0
M  V30 6329 H 580.386 0.299196 0.600602 0
M  V30 6330 H 582.93 1.43846 1.45357 0
M  V30 6331 H 581.085 0.671347 3.81539 0
M  V30 6332 H 581.499 2.79573 4.43778 0
M  V30 6333 H 582.973 1.35055 5.35223 0
M  V30 6334 H 583.45 -0.0475433 4.39174 0
M  V30 6335 H 584.056 1.56636 3.95405 0
M  V30 6336 N 582.371 -1.3172 0.865308 0
M  V30 6337 C 583.619 -1.96487 0.472995 0
M  V30 6338 C 583.94 -1.68761 -0.976975 0
M  V30 6339 O 583.21 -1.00051 -1.68424 0
M  V30 6340 H 581.79 -0.726947 0.171922 0
M  V30 6341 H 584.452 -1.60612 1.10407 0
M  V30 6342 H 583.548 -3.0574 0.62687 0
M  V30 6343 N 583.85 -0.624285 -1.44708 0
M  V30 6344 C 584.782 0.12305 -2.28869 0
M  V30 6345 C 585.795 0.81557 -1.40898 0
M  V30 6346 O 586.984 0.678162 -1.65116 0
M  V30 6347 C 584.084 1.19612 -3.1709 0
M  V30 6348 C 583.257 0.587452 -4.33437 0
M  V30 6349 C 582.316 1.55358 -5.02743 0
M  V30 6350 O 581.341 1.07338 -5.58988 0
M  V30 6351 N 582.543 2.88798 -5.03563 0
M  V30 6352 H 585.308 -0.599193 -2.93649 0
M  V30 6353 H 582.87 -0.464954 -1.5508 0
M  V30 6354 H 584.861 1.84261 -3.60319 0
M  V30 6355 H 583.432 1.82067 -2.54107 0
M  V30 6356 H 582.652 -0.237509 -3.93484 0
M  V30 6357 H 583.94 0.161326 -5.08544 0
M  V30 6358 H 583.338 3.30399 -4.59188 0
M  V30 6359 H 581.894 3.48826 -5.50603 0
M  V30 6360 N 585.328 1.53329 -0.364422 0
M  V30 6361 C 586.26 2.23286 0.517293 0
M  V30 6362 C 587.273 1.24657 1.04711 0
M  V30 6363 O 588.462 1.50887 0.95369 0
M  V30 6364 C 585.562 2.91604 1.72685 0
M  V30 6365 C 584.735 4.1673 1.32873 0
M  V30 6366 C 583.794 4.68269 2.40022 0
M  V30 6367 O 582.82 5.31976 2.02461 0
M  V30 6368 N 584.022 4.45983 3.7159 0
M  V30 6369 H 586.787 2.99588 -0.0819391 0
M  V30 6370 H 584.348 1.60787 -0.189544 0
M  V30 6371 H 586.34 3.22992 2.4384 0
M  V30 6372 H 584.91 2.18763 2.23297 0
M  V30 6373 H 584.13 3.91657 0.447069 0
M  V30 6374 H 585.418 4.98078 1.03902 0
M  V30 6375 H 584.816 3.95077 4.04883 0
M  V30 6376 H 583.373 4.81924 4.38854 0
M  V30 6377 N 586.806 0.0935595 1.57322 0
M  V30 6378 C 587.753 -0.865935 2.1394 0
M  V30 6379 C 588.723 -1.28083 1.05754 0
M  V30 6380 O 589.908 -1.36285 1.33533 0
M  V30 6381 C 587.048 -2.12023 2.72287 0
M  V30 6382 C 586.161 -1.756 3.94701 0
M  V30 6383 C 585.296 -2.95804 4.41218 0
M  V30 6384 C 584.335 -2.555 5.56225 0
M  V30 6385 N 583.472 -3.68534 5.97601 0
M  V30 6386 H 588.312 -0.376261 2.95615 0
M  V30 6387 H 585.849 -0.174052 1.46067 0
M  V30 6388 H 587.807 -2.85477 3.04235 0
M  V30 6389 H 586.437 -2.58492 1.93343 0
M  V30 6390 H 585.489 -0.921208 3.69077 0
M  V30 6391 H 586.801 -1.41964 4.78171 0
M  V30 6392 H 585.955 -3.77513 4.74941 0
M  V30 6393 H 584.694 -3.32649 3.56645 0
M  V30 6394 H 583.699 -1.72218 5.22131 0
M  V30 6395 H 584.924 -2.19801 6.42545 0
M  V30 6396 H 582.87 -4.051 5.15974 0
M  V30 6397 H 582.787 -3.38737 6.75865 0
M  V30 6398 H 584.055 -4.50757 6.35955 0
M  V30 6399 N 588.284 -1.56567 -0.180126 0
M  V30 6400 C 589.234 -1.92132 -1.22756 0
M  V30 6401 C 590.218 -0.788639 -1.40247 0
M  V30 6402 O 591.41 -1.05171 -1.42366 0
M  V30 6403 C 588.539 -2.27719 -2.56902 0
M  V30 6404 C 587.625 -3.47481 -2.43142 0
M  V30 6405 N 588.016 -4.64973 -1.99082 0
M  V30 6406 C 586.314 -3.51914 -2.73994 0
M  V30 6407 C 587.015 -5.47119 -1.97574 0
M  V30 6408 N 585.991 -4.87925 -2.39645 0
M  V30 6409 H 589.793 -2.80464 -0.878478 0
M  V30 6410 H 587.307 -1.57686 -0.388463 0
M  V30 6411 H 589.304 -2.51389 -3.32579 0
M  V30 6412 H 587.964 -1.40722 -2.92621 0
M  V30 6413 H 588.975 -4.89358 -1.69557 0
M  V30 6414 H 585.652 -2.75372 -3.13809 0
M  V30 6415 H 587.042 -6.51254 -1.65282 0
M  V30 6416 N 589.762 0.448376 -1.51087 0
M  V30 6417 C 590.692 1.55102 -1.74544 0
M  V30 6418 C 591.673 1.59357 -0.594932 0
M  V30 6419 O 592.858 1.75261 -0.836491 0
M  V30 6420 C 589.988 2.93268 -1.86041 0
M  V30 6421 C 588.942 3.03877 -3.01402 0
M  V30 6422 C 588.268 4.43914 -2.98068 0
M  V30 6423 C 589.568 2.7898 -4.41551 0
M  V30 6424 H 591.262 1.35724 -2.66869 0
M  V30 6425 H 588.808 0.651498 -1.28419 0
M  V30 6426 H 590.761 3.70356 -2.01034 0
M  V30 6427 H 589.485 3.13853 -0.903548 0
M  V30 6428 H 588.144 2.29227 -2.86096 0
M  V30 6429 H 587.792 4.6145 -2.00182 0
M  V30 6430 H 587.492 4.51944 -3.75527 0
M  V30 6431 H 589.016 5.22991 -3.1514 0
M  V30 6432 H 590.43 3.45805 -4.57265 0
M  V30 6433 H 588.827 2.98431 -5.20633 0
M  V30 6434 H 589.897 1.74663 -4.5235 0
M  V30 6435 N 591.24 1.41047 0.703093 0
M  V30 6436 C 592.48 1.41461 1.4754 0
M  V30 6437 C 592.844 0.0199013 1.9199 0
M  V30 6438 O 594.045 -0.101138 2.6861 0
M  V30 6439 C 592.316 2.38703 2.66 0
M  V30 6440 S 593.875 2.57582 3.55242 0
M  V30 6441 H 590.693 0.501226 0.504275 0
M  V30 6442 H 593.295 1.77422 0.821074 0
M  V30 6443 H 591.999 3.3885 2.31536 0
M  V30 6444 H 591.53 2.04069 3.36333 0
M  V30 6445 H 593.545 1.83758 4.6092 0
M  V30 6446 N 592.718 -0.936591 1.26751 0
M  V30 6447 C 593.965 -1.68331 1.12566 0
M  V30 6448 C 594.293 -1.91677 -0.330168 0
M  V30 6449 O 593.548 -1.49859 -1.2586 0
M  V30 6450 C 593.847 -3.06099 1.84494 0
M  V30 6451 C 593.513 -3.02493 3.34378 0
M  V30 6452 C 592.175 -3.01217 3.75262 0
M  V30 6453 C 594.527 -2.94453 4.30055 0
M  V30 6454 C 591.855 -2.89672 5.10203 0
M  V30 6455 C 594.207 -2.84449 5.65041 0
M  V30 6456 C 592.871 -2.81518 6.0523 0
M  V30 6457 H 592.141 -0.615965 0.411907 0
M  V30 6458 H 594.788 -1.09292 1.5725 0
M  V30 6459 H 593.093 -3.6879 1.32292 0
M  V30 6460 H 594.79 -3.62733 1.70955 0
M  V30 6461 H 591.38 -3.04269 3.01858 0
M  V30 6462 H 595.564 -2.94544 3.99447 0
M  V30 6463 H 590.82 -2.85783 5.40498 0
M  V30 6464 H 594.994 -2.77192 6.38856 0
M  V30 6465 H 592.621 -2.72329 7.09747 0
M  V30 6466 N 594.196 -1.08629 -1.14182 0
M  V30 6467 C 595.126 -0.740003 -2.21464 0
M  V30 6468 C 596.107 0.278591 -1.67803 0
M  V30 6469 O 597.292 0.148461 -1.93632 0
M  V30 6470 C 594.422 -0.150952 -3.46972 0
M  V30 6471 C 593.376 -1.09815 -4.13672 0
M  V30 6472 C 592.702 -0.3712 -5.3341 0
M  V30 6473 C 594.002 -2.43722 -4.61949 0
M  V30 6474 H 595.696 -1.63697 -2.50686 0
M  V30 6475 H 593.242 -0.788526 -1.20492 0
M  V30 6476 H 595.195 0.103325 -4.21273 0
M  V30 6477 H 593.919 0.781164 -3.1712 0
M  V30 6478 H 592.578 -1.33756 -3.41328 0
M  V30 6479 H 592.226 0.564792 -4.99819 0
M  V30 6480 H 591.926 -1.00267 -5.78982 0
M  V30 6481 H 593.45 -0.12503 -6.10472 0
M  V30 6482 H 594.864 -2.24034 -5.27714 0
M  V30 6483 H 593.261 -3.02582 -5.18232 0
M  V30 6484 H 594.331 -3.05082 -3.76899 0
M  V30 6485 N 595.674 1.31259 -0.872281 0
M  V30 6486 C 596.923 1.95893 -0.480493 0
M  V30 6487 C 597.236 1.697 0.972688 0
M  V30 6488 O 598.442 2.28214 1.47073 0
M  V30 6489 C 596.898 3.50705 -0.808342 0
M  V30 6490 C 596.506 3.85735 -2.27844 0
M  V30 6491 C 598.25 4.21719 -0.485136 0
M  V30 6492 C 596.157 5.33668 -2.54858 0
M  V30 6493 H 595.087 0.733182 -0.175955 0
M  V30 6494 H 597.738 1.49396 -1.0655 0
M  V30 6495 H 596.12 3.95706 -0.152558 0
M  V30 6496 H 597.294 3.51686 -2.97748 0
M  V30 6497 H 595.609 3.27792 -2.56791 0
M  V30 6498 H 598.206 5.30559 -0.664166 0
M  V30 6499 H 598.549 4.12316 0.574592 0
M  V30 6500 H 599.082 3.82359 -1.09756 0
M  V30 6501 H 595.821 5.48109 -3.59523 0
M  V30 6502 H 595.341 5.69061 -1.8955 0
M  V30 6503 H 597.02 6.00958 -2.39706 0
M  V30 6504 N 597.152 0.631951 1.44375 0
M  V30 6505 C 598.563 0.219036 1.85411 0
M  V30 6506 C 598.914 -1.22974 1.52879 0
M  V30 6507 O 598.039 -1.93579 0.967266 0
M  V30 6508 C 598.634 0.39075 3.36539 0
M  V30 6509 C 597.193 0.0323351 3.76386 0
M  V30 6510 C 596.34 0.703744 2.68221 0
M  V30 6511 H 599.291 0.837056 1.3483 0
M  V30 6512 H 599.312 -0.370056 3.78696 0
M  V30 6513 H 598.824 1.44527 3.60185 0
M  V30 6514 H 596.925 -1.02042 3.58355 0
M  V30 6515 H 597.038 0.442969 4.77048 0
M  V30 6516 H 595.402 0.138974 2.54321 0
M  V30 6517 H 596.185 1.76088 2.947 0
M  V30 6518 N 598.631 -1.53133 0.372548 0
M  V30 6519 C 599.563 -2.23557 -0.505444 0
M  V30 6520 C 600.576 -1.25211 -1.04049 0
M  V30 6521 O 601.765 -1.51391 -0.945675 0
M  V30 6522 C 598.865 -2.92516 -1.71136 0
M  V30 6523 C 598.038 -4.17428 -1.30661 0
M  V30 6524 C 597.097 -4.69535 -2.37536 0
M  V30 6525 O 596.123 -5.33042 -1.99637 0
M  V30 6526 N 597.325 -4.47947 -3.6922 0
M  V30 6527 H 600.09 -2.9954 0.0978259 0
M  V30 6528 H 597.651 -1.60684 0.198068 0
M  V30 6529 H 599.643 -3.24281 -2.42124 0
M  V30 6530 H 598.213 -2.19944 -2.22134 0
M  V30 6531 H 597.433 -3.91888 -0.426292 0
M  V30 6532 H 598.721 -4.98622 -1.01259 0
M  V30 6533 H 598.119 -3.97219 -4.02783 0
M  V30 6534 H 596.676 -4.84245 -4.36292 0
M  V30 6535 N 600.109 -0.101901 -1.5727 0
M  V30 6536 C 601.355 0.554864 -1.95686 0
M  V30 6537 C 601.71 1.65368 -0.983415 0
M  V30 6538 O 601.003 1.91597 -0.0105374 0
M  V30 6539 C 601.197 1.14898 -3.38427 0
M  V30 6540 C 601.026 0.109251 -4.49567 0
M  V30 6541 C 599.796 -0.316633 -5.04307 0
M  V30 6542 C 601.994 -0.665196 -5.0998 0
M  V30 6543 N 599.976 -1.34393 -5.99009 0
M  V30 6544 C 601.347 -1.54413 -6.00464 0
M  V30 6545 C 603.402 -0.717966 -4.92696 0
M  V30 6546 C 602.105 -2.47122 -6.75517 0
M  V30 6547 C 604.131 -1.63268 -5.68417 0
M  V30 6548 C 603.493 -2.49923 -6.58572 0
M  V30 6549 H 599.592 0.17317 -0.762585 0
M  V30 6550 H 602.176 -0.18605 -1.93809 0
M  V30 6551 H 600.347 1.85969 -3.40984 0
M  V30 6552 H 602.079 1.76867 -3.64006 0
M  V30 6553 H 598.834 0.0724419 -4.73545 0
M  V30 6554 H 599.258 -1.85598 -6.51062 0
M  V30 6555 H 603.9 -0.0621637 -4.22754 0
M  V30 6556 H 601.618 -3.13724 -7.44717 0
M  V30 6557 H 605.204 -1.67874 -5.57054 0
M  V30 6558 H 604.084 -3.19553 -7.16139 0
M  V30 6559 N 601.587 1.56661 0.17182 0
M  V30 6560 C 602.534 1.96371 1.21273 0
M  V30 6561 C 603.504 0.82756 1.44016 0
M  V30 6562 O 604.689 1.08764 1.56764 0
M  V30 6563 C 601.829 2.32838 2.54716 0
M  V30 6564 C 600.942 3.59628 2.39356 0
M  V30 6565 C 600.077 3.85311 3.65662 0
M  V30 6566 C 599.116 5.0545 3.45234 0
M  V30 6567 N 598.253 5.27268 4.63608 0
M  V30 6568 H 603.093 2.85106 0.86709 0
M  V30 6569 H 600.63 1.41073 0.416744 0
M  V30 6570 H 602.588 2.52004 3.3249 0
M  V30 6571 H 601.218 1.47214 2.87277 0
M  V30 6572 H 600.27 3.4838 1.52761 0
M  V30 6573 H 601.582 4.4756 2.20207 0
M  V30 6574 H 600.736 4.04841 4.51872 0
M  V30 6575 H 599.475 2.95753 3.8779 0
M  V30 6576 H 598.48 4.85819 2.5741 0
M  V30 6577 H 599.705 5.96538 3.24529 0
M  V30 6578 H 597.651 4.40662 4.85956 0
M  V30 6579 H 597.568 6.09422 4.4737 0
M  V30 6580 H 598.836 5.51277 5.51103 0
M  V30 6581 N 603.065 -0.440357 1.51323 0
M  V30 6582 C 603.975 -1.55955 1.75258 0
M  V30 6583 C 604.991 -1.61933 0.636687 0
M  V30 6584 O 606.167 -1.79231 0.918593 0
M  V30 6585 C 603.232 -2.9196 1.86977 0
M  V30 6586 C 602.293 -2.96122 3.10822 0
M  V30 6587 C 601.526 -4.2564 3.21973 0
M  V30 6588 O 601.749 -5.17851 2.39137 0
M  V30 6589 O 600.683 -4.36025 4.14929 0
M  V30 6590 H 604.509 -1.38673 2.70191 0
M  V30 6591 H 602.094 -0.623055 1.35788 0
M  V30 6592 H 603.976 -3.72682 1.96688 0
M  V30 6593 H 602.651 -3.09375 0.952307 0
M  V30 6594 H 601.558 -2.14366 3.06591 0
M  V30 6595 H 602.891 -2.83651 4.02247 0
M  V30 6596 N 604.543 -1.41418 -0.695603 0
M  V30 6597 C 605.789 -1.40982 -1.4578 0
M  V30 6598 C 606.122 -0.0187763 -1.94191 0
M  V30 6599 O 605.397 0.95346 -1.69527 0
M  V30 6600 C 605.68 -2.41657 -2.66972 0
M  V30 6601 C 605.533 -3.89869 -2.24327 0
M  V30 6602 C 606.852 -2.39589 -3.69168 0
M  V30 6603 H 603.971 -0.513405 -0.528757 0
M  V30 6604 H 606.613 -1.72693 -0.792275 0
M  V30 6605 H 604.763 -2.14746 -3.23754 0
M  V30 6606 H 606.435 -4.27683 -1.72872 0
M  V30 6607 H 604.678 -4.04737 -1.56111 0
M  V30 6608 H 605.349 -4.55857 -3.11285 0
M  V30 6609 H 607.825 -2.63471 -3.2206 0
M  V30 6610 H 606.701 -3.12044 -4.51575 0
M  V30 6611 H 606.962 -1.41447 -4.18862 0
M  V30 6612 N 606.021 0.929856 -1.27246 0
M  V30 6613 C 606.951 2.04722 -1.12299 0
M  V30 6614 C 607.932 1.70082 -0.0250464 0
M  V30 6615 O 609.117 1.93176 -0.199141 0
M  V30 6616 C 606.247 3.38721 -0.767145 0
M  V30 6617 C 605.201 3.87466 -1.81808 0
M  V30 6618 C 604.527 5.18246 -1.31626 0
M  V30 6619 C 605.827 4.11095 -3.22177 0
M  V30 6620 H 607.521 2.17485 -2.05769 0
M  V30 6621 H 605.067 1.04503 -0.990715 0
M  V30 6622 H 607.02 4.16366 -0.649413 0
M  V30 6623 H 605.744 3.25967 0.203259 0
M  V30 6624 H 604.403 3.12012 -1.92468 0
M  V30 6625 H 604.051 5.01881 -0.335378 0
M  V30 6626 H 603.751 5.51829 -2.01887 0
M  V30 6627 H 605.275 5.98462 -1.21143 0
M  V30 6628 H 606.689 4.79316 -3.1453 0
M  V30 6629 H 605.086 4.55982 -3.90129 0
M  V30 6630 H 606.156 3.16468 -3.67391 0
M  V30 6631 N 607.499 1.09233 1.13605 0
M  V30 6632 C 608.776 0.739633 1.81077 0
M  V30 6633 C 609.156 -0.775595 1.96336 0
M  V30 6634 O 608.504 -1.69726 1.52988 0
M  V30 6635 C 608.714 1.47636 3.16235 0
M  V30 6636 C 610.062 1.64087 3.91613 0
M  V30 6637 O 611.086 1.43871 3.25852 0
M  V30 6638 O 609.945 1.97511 5.0956 0
M  V30 6639 H 607.039 0.265464 0.783236 0
M  V30 6640 H 609.585 1.19441 1.20549 0
M  V30 6641 H 608.357 2.50818 3.00344 0
M  V30 6642 H 607.98 1.01362 3.84462 0
M  V30 6643 N 608.977 -1.30795 0.87923 0
M  V30 6644 C 610.224 -1.96362 0.494786 0
M  V30 6645 C 610.552 -1.69448 -0.954868 0
M  V30 6646 O 609.807 -0.988711 -1.68888 0
M  V30 6647 C 610.106 -3.50287 0.709476 0
M  V30 6648 C 609.772 -3.9724 2.13333 0
M  V30 6649 C 608.434 -4.09772 2.52271 0
M  V30 6650 C 610.786 -4.21807 3.06151 0
M  V30 6651 C 608.114 -4.44227 3.83248 0
M  V30 6652 C 610.466 -4.5773 4.36654 0
M  V30 6653 C 609.13 -4.68469 4.75492 0
M  V30 6654 H 608.4 -0.71854 0.181055 0
M  V30 6655 H 611.047 -1.55764 1.11399 0
M  V30 6656 H 609.352 -3.91799 0.0072 0
M  V30 6657 H 611.049 -3.99082 0.391703 0
M  V30 6658 H 607.639 -3.87988 1.82107 0
M  V30 6659 H 611.823 -4.11611 2.77291 0
M  V30 6660 H 607.079 -4.50741 4.13089 0
M  V30 6661 H 611.253 -4.7569 5.08617 0
M  V30 6662 H 608.88 -4.94923 5.77022 0
M  V30 6663 N 610.455 -0.639598 -1.44038 0
M  V30 6664 C 611.732 -0.078012 -1.95444 0
M  V30 6665 C 612.112 1.39847 -1.58133 0
M  V30 6666 O 611.46 2.11714 -0.859614 0
M  V30 6667 C 611.67 -0.309832 -3.47622 0
M  V30 6668 C 613.018 -0.207521 -4.24093 0
M  V30 6669 O 614.042 -0.241653 -3.55379 0
M  V30 6670 O 612.901 -0.119641 -5.46369 0
M  V30 6671 H 609.995 0.0174534 -0.826816 0
M  V30 6672 H 612.541 -0.711891 -1.54046 0
M  V30 6673 H 611.313 -1.33401 -3.67858 0
M  V30 6674 H 610.936 0.357777 -3.95987 0
M  V30 6675 N 611.933 1.52934 -0.380664 0
M  V30 6676 C 613.161 2.05886 0.204599 0
M  V30 6677 C 613.576 1.25305 1.41223 0
M  V30 6678 O 612.933 0.297504 1.80059 0
M  V30 6679 C 612.984 3.56764 0.583249 0
M  V30 6680 O 612.705 4.34292 -0.576398 0
M  V30 6681 C 614.206 4.2603 1.2253 0
M  V30 6682 H 611.426 0.670193 0.0328991 0
M  V30 6683 H 613.97 1.97148 -0.543397 0
M  V30 6684 H 612.125 3.65603 1.28115 0
M  V30 6685 H 612.539 5.23819 -0.267119 0
M  V30 6686 H 614.013 5.32868 1.44068 0
M  V30 6687 H 614.49 3.80698 2.19011 0
M  V30 6688 H 615.096 4.21485 0.568407 0
M  V30 6689 N 613.412 0.11024 1.57214 0
M  V30 6690 C 614.642 -0.557025 1.98949 0
M  V30 6691 C 615.05 -1.61317 0.988606 0
M  V30 6692 O 614.393 -1.83679 -0.0279159 0
M  V30 6693 C 614.455 -1.24956 3.37085 0
M  V30 6694 C 614.119 -0.342398 4.55716 0
M  V30 6695 C 615.116 0.415511 5.18237 0
M  V30 6696 C 612.801 -0.256029 5.01647 0
M  V30 6697 C 614.795 1.24761 6.25071 0
M  V30 6698 C 612.482 0.579713 6.08344 0
M  V30 6699 C 613.48 1.33017 6.69922 0
M  V30 6700 O 613.168 2.15205 7.74559 0
M  V30 6701 H 612.9 -0.152792 0.658506 0
M  V30 6702 H 615.454 0.19076 2.04512 0
M  V30 6703 H 613.684 -2.04424 3.2825 0
M  V30 6704 H 615.373 -1.81286 3.63167 0
M  V30 6705 H 616.139 0.358605 4.83672 0
M  V30 6706 H 612.018 -0.829831 4.5347 0
M  V30 6707 H 615.562 1.83386 6.73064 0
M  V30 6708 H 611.459 0.638044 6.42339 0
M  V30 6709 H 612.227 2.08052 7.91617 0
M  V30 6710 N 614.89 -1.56749 -0.16351 0
M  V30 6711 C 615.853 -1.96121 -1.18613 0
M  V30 6712 C 616.853 -0.845765 -1.36761 0
M  V30 6713 O 618.043 -1.11268 -1.34033 0
M  V30 6714 C 615.175 -2.26282 -2.54969 0
M  V30 6715 H 616.368 -2.87639 -0.848764 0
M  V30 6716 H 613.921 -1.50928 -0.406251 0
M  V30 6717 H 614.656 -1.37504 -2.93706 0
M  V30 6718 H 614.441 -3.07595 -2.43162 0
M  V30 6719 H 615.931 -2.57638 -3.28653 0
M  V30 6720 N 616.368 0.432326 -1.51554 0
M  V30 6721 C 617.315 1.52512 -1.7323 0
M  V30 6722 C 618.285 1.55863 -0.5741 0
M  V30 6723 O 619.47 1.72796 -0.809093 0
M  V30 6724 C 616.61 2.90183 -1.86783 0
M  V30 6725 C 615.723 2.96322 -3.14352 0
M  V30 6726 C 614.858 4.25147 -3.18471 0
M  V30 6727 C 613.897 4.25172 -4.40335 0
M  V30 6728 N 613.034 5.45529 -4.41975 0
M  V30 6729 H 617.874 1.33332 -2.66508 0
M  V30 6730 H 615.411 0.647613 -1.32077 0
M  V30 6731 H 617.369 3.70071 -1.92623 0
M  V30 6732 H 615.999 3.0791 -0.969087 0
M  V30 6733 H 615.051 2.09066 -3.17798 0
M  V30 6734 H 616.363 2.92203 -4.04251 0
M  V30 6735 H 615.517 5.13411 -3.23255 0
M  V30 6736 H 614.256 4.31929 -2.2647 0
M  V30 6737 H 613.261 3.353 -4.35723 0
M  V30 6738 H 614.486 4.20049 -5.33606 0
M  V30 6739 H 612.432 5.53024 -3.52847 0
M  V30 6740 H 612.349 5.43311 -5.25689 0
M  V30 6741 H 613.617 6.35812 -4.50958 0
M  V30 6742 N 617.846 1.41785 0.688094 0
M  V30 6743 C 619.094 1.41264 1.4453 0
M  V30 6744 C 619.415 0.0252946 1.94984 0
M  V30 6745 O 618.685 -0.934081 1.72197 0
M  V30 6746 H 617.265 0.519998 0.536294 0
M  V30 6747 H 619.927 1.7709 0.813941 0
M  V30 6748 H 619.023 2.10439 2.30482 0
M  V30 6749 N 619.324 -0.923095 1.27737 0
M  V30 6750 C 620.271 -2.02432 1.1086 0
M  V30 6751 C 621.241 -1.66098 0.00835195 0
M  V30 6752 O 622.426 -1.90027 0.171542 0
M  V30 6753 C 619.566 -3.36476 0.766671 0
M  V30 6754 C 618.679 -3.85737 1.94501 0
M  V30 6755 C 617.814 -5.08249 1.54455 0
M  V30 6756 C 616.853 -5.49818 2.6901 0
M  V30 6757 N 615.99 -6.63524 2.29521 0
M  V30 6758 H 620.83 -2.16201 2.05089 0
M  V30 6759 H 618.367 -1.05909 1.02087 0
M  V30 6760 H 620.325 -4.13569 0.549223 0
M  V30 6761 H 618.955 -3.22502 -0.13867 0
M  V30 6762 H 618.007 -3.04883 2.27487 0
M  V30 6763 H 619.319 -4.12513 2.80419 0
M  V30 6764 H 618.473 -5.92857 1.28862 0
M  V30 6765 H 617.212 -4.83261 0.656534 0
M  V30 6766 H 616.217 -4.63757 2.95313 0
M  V30 6767 H 617.442 -5.76799 3.5844 0
M  V30 6768 H 615.388 -6.40185 1.43177 0
M  V30 6769 H 615.305 -6.89978 3.08977 0
M  V30 6770 H 616.573 -7.51461 2.07187 0
M  V30 6771 N 620.802 -1.09834 -1.13024 0
M  V30 6772 C 622.05 -0.835297 -1.8403 0
M  V30 6773 C 622.371 0.640944 -1.84165 0
M  V30 6774 O 621.641 1.46517 -1.30037 0
M  V30 6775 H 620.221 -0.306018 -0.681441 0
M  V30 6776 H 622.883 -1.38734 -1.36891 0
M  V30 6777 H 621.979 -1.19258 -2.88416 0
M  V30 6778 N 622.28 1.30327 -0.886154 0
M  V30 6779 C 623.505 2.0079 -0.519425 0
M  V30 6780 C 623.93 1.65979 0.885013 0
M  V30 6781 O 623.288 0.877043 1.58675 0
M  V30 6782 C 623.336 3.53686 -0.702758 0
M  V30 6783 O 622.44 4.11637 0.250828 0
M  V30 6784 H 621.781 0.63171 -0.204544 0
M  V30 6785 H 624.311 1.66145 -1.19402 0
M  V30 6786 H 624.321 4.03531 -0.602207 0
M  V30 6787 H 622.996 3.78361 -1.72673 0
M  V30 6788 H 621.573 3.72755 0.103873 0
M  V30 6789 N 623.758 0.647228 1.43697 0
M  V30 6790 C 624.668 -0.0487997 2.34549 0
M  V30 6791 C 625.684 -0.818586 1.53542 0
M  V30 6792 O 626.86 -0.767195 1.86215 0
M  V30 6793 C 623.925 -1.00734 3.31743 0
M  V30 6794 C 622.986 -0.23515 4.28655 0
M  V30 6795 C 622.219 -1.14803 5.21206 0
M  V30 6796 O 622.442 -2.38717 5.18045 0
M  V30 6797 O 621.376 -0.623667 5.9866 0
M  V30 6798 H 625.202 0.698863 2.9555 0
M  V30 6799 H 622.787 0.407412 1.43738 0
M  V30 6800 H 624.669 -1.55837 3.91526 0
M  V30 6801 H 623.344 -1.73534 2.73254 0
M  V30 6802 H 622.251 0.359319 3.7237 0
M  V30 6803 H 623.584 0.453152 4.9011 0
M  V30 6804 N 625.236 -1.5273 0.388769 0
M  V30 6805 C 626.482 -2.01871 -0.193877 0
M  V30 6806 C 626.815 -1.27475 -1.46505 0
M  V30 6807 O 626.09 -0.375063 -1.90849 0
M  V30 6808 C 626.373 -3.5712 -0.462336 0
M  V30 6809 C 626.226 -4.42186 0.824091 0
M  V30 6810 C 627.545 -4.21881 -1.25319 0
M  V30 6811 H 624.664 -0.733764 -0.0689899 0
M  V30 6812 H 627.306 -1.82796 0.518231 0
M  V30 6813 H 625.456 -3.73504 -1.06896 0
M  V30 6814 H 627.128 -4.37554 1.46096 0
M  V30 6815 H 625.371 -4.09219 1.43952 0
M  V30 6816 H 626.042 -5.48828 0.590905 0
M  V30 6817 H 628.518 -4.0947 -0.73981 0
M  V30 6818 H 627.394 -5.30487 -1.40977 0
M  V30 6819 H 627.655 -3.79478 -2.26824 0
M  V30 6820 N 626.714 -0.118576 -1.57153 0
M  V30 6821 C 627.661 0.831789 -2.1529 0
M  V30 6822 C 628.631 1.26385 -1.07778 0
M  V30 6823 O 629.816 1.34144 -1.35684 0
M  V30 6824 C 626.956 2.07664 -2.75626 0
M  V30 6825 C 626.069 1.69298 -3.97444 0
M  V30 6826 C 625.204 2.88747 -4.45868 0
M  V30 6827 C 624.243 2.46619 -5.60219 0
M  V30 6828 N 623.38 3.5898 -6.03389 0
M  V30 6829 H 628.22 0.329183 -2.96176 0
M  V30 6830 H 625.757 0.150792 -1.46325 0
M  V30 6831 H 627.715 2.80601 -3.08738 0
M  V30 6832 H 626.345 2.55384 -1.97431 0
M  V30 6833 H 625.397 0.862374 -3.70496 0
M  V30 6834 H 626.709 1.34338 -4.80369 0
M  V30 6835 H 625.863 3.69909 -4.80887 0
M  V30 6836 H 624.602 3.26933 -3.61892 0
M  V30 6837 H 623.607 1.63889 -5.24805 0
M  V30 6838 H 624.832 2.0955 -6.45961 0
M  V30 6839 H 622.778 3.9684 -5.22354 0
M  V30 6840 H 622.695 3.27942 -6.81168 0
M  V30 6841 H 623.963 4.40583 -6.43045 0
M  V30 6842 N 628.193 1.56834 0.155195 0
M  V30 6843 C 629.14 1.97646 1.19184 0
M  V30 6844 C 630.11 0.842788 1.4313 0
M  V30 6845 O 631.295 1.1042 1.55602 0
M  V30 6846 C 628.435 2.35527 2.52232 0
M  V30 6847 C 627.548 3.62147 2.35529 0
M  V30 6848 C 626.683 3.89167 3.61555 0
M  V30 6849 C 625.722 5.09084 3.39853 0
M  V30 6850 N 624.859 5.32156 4.5799 0
M  V30 6851 H 629.699 2.8601 0.836802 0
M  V30 6852 H 627.236 1.41507 0.401758 0
M  V30 6853 H 629.194 2.55516 3.29799 0
M  V30 6854 H 627.824 1.50253 2.85699 0
M  V30 6855 H 626.876 3.4998 1.49057 0
M  V30 6856 H 628.188 4.49871 2.15448 0
M  V30 6857 H 627.342 4.09611 4.47553 0
M  V30 6858 H 626.081 2.9985 3.84632 0
M  V30 6859 H 625.086 4.88522 2.52243 0
M  V30 6860 H 626.311 5.99947 3.18183 0
M  V30 6861 H 624.257 4.45791 4.81255 0
M  V30 6862 H 624.174 6.14133 4.40882 0
M  V30 6863 H 625.442 5.57091 5.45225 0
M  V30 6864 N 629.671 -0.424282 1.51781 0
M  V30 6865 C 630.917 -1.17434 1.6534 0
M  V30 6866 C 631.25 -1.90549 0.374806 0
M  V30 6867 O 630.525 -1.84145 -0.626179 0
M  V30 6868 C 630.808 -2.18093 2.86544 0
M  V30 6869 C 630.661 -1.48975 4.24413 0
M  V30 6870 C 631.98 -3.18934 3.03264 0
M  V30 6871 H 629.099 -0.425566 0.601716 0
M  V30 6872 H 631.741 -0.461921 1.84299 0
M  V30 6873 H 629.891 -2.78849 2.7051 0
M  V30 6874 H 631.563 -0.914551 4.52143 0
M  V30 6875 H 629.806 -0.791893 4.26511 0
M  V30 6876 H 630.477 -2.22347 5.05238 0
M  V30 6877 H 632.953 -2.68243 3.18096 0
M  V30 6878 H 631.829 -3.86645 3.89611 0
M  V30 6879 H 632.09 -3.85793 2.15908 0
M  V30 6880 N 631.149 -1.42148 -0.680565 0
M  V30 6881 C 632.398 -1.41604 -1.43636 0
M  V30 6882 C 632.711 -0.0337887 -1.95571 0
M  V30 6883 O 633.917 0.0942588 -2.71336 0
M  V30 6884 C 632.373 -2.49056 -2.59806 0
M  V30 6885 C 631.981 -3.9326 -2.14594 0
M  V30 6886 C 633.725 -2.5767 -3.37352 0
M  V30 6887 C 631.632 -4.92232 -3.27813 0
M  V30 6888 H 630.562 -0.526656 -0.539583 0
M  V30 6889 H 633.213 -1.68033 -0.737369 0
M  V30 6890 H 631.595 -2.15782 -3.32045 0
M  V30 6891 H 632.769 -4.35858 -1.49546 0
M  V30 6892 H 631.084 -3.88443 -1.50002 0
M  V30 6893 H 633.681 -3.28794 -4.21662 0
M  V30 6894 H 634.024 -1.61837 -3.83555 0
M  V30 6895 H 634.557 -2.90109 -2.72179 0
M  V30 6896 H 631.296 -5.89522 -2.86607 0
M  V30 6897 H 630.816 -4.5427 -3.91661 0
M  V30 6898 H 632.495 -5.13684 -3.93367 0
M  V30 6899 N 632.627 0.916307 -1.28225 0
M  V30 6900 C 633.904 1.64429 -1.05936 0
M  V30 6901 C 634.284 2.07234 0.402139 0
M  V30 6902 O 633.632 1.81535 1.3877 0
M  V30 6903 C 633.842 2.83773 -2.03159 0
M  V30 6904 C 635.19 3.54852 -2.33164 0
M  V30 6905 O 636.214 2.93918 -2.01223 0
M  V30 6906 O 635.073 4.64663 -2.87664 0
M  V30 6907 H 632.167 0.721221 -0.404683 0
M  V30 6908 H 634.713 0.965838 -1.39534 0
M  V30 6909 H 633.485 2.49217 -3.01673 0
M  V30 6910 H 633.108 3.59333 -1.70192 0
M  V30 6911 N 634.105 1.10431 1.1244 0
M  V30 6912 C 635.353 0.845045 1.83585 0
M  V30 6913 C 635.674 -0.631168 1.84503 0
M  V30 6914 O 634.944 -1.45825 1.30813 0
M  V30 6915 H 633.524 0.309628 0.679809 0
M  V30 6916 H 636.186 1.39458 1.36153 0
M  V30 6917 H 635.282 1.20786 2.8778 0
M  V30 6918 N 635.583 -1.29855 0.893053 0
M  V30 6919 C 636.808 -2.00512 0.530066 0
M  V30 6920 C 637.233 -1.66446 -0.876199 0
M  V30 6921 O 636.591 -0.885446 -1.58207 0
M  V30 6922 C 636.639 -3.53308 0.721505 0
M  V30 6923 O 635.743 -4.11764 -0.228994 0
M  V30 6924 H 635.084 -0.630617 0.207891 0
M  V30 6925 H 637.614 -1.6551 1.20282 0
M  V30 6926 H 637.624 -4.03206 0.623599 0
M  V30 6927 H 636.299 -3.77439 1.74678 0
M  V30 6928 H 634.876 -3.72805 -0.0841034 0
M  V30 6929 N 637.061 -0.65484 -1.43351 0
M  V30 6930 C 637.991 0.0221809 -2.33489 0
M  V30 6931 C 638.972 0.810272 -1.49561 0
M  V30 6932 O 640.157 0.771426 -1.78221 0
M  V30 6933 C 637.287 0.988117 -3.32947 0
M  V30 6934 C 636.241 0.310026 -4.26876 0
M  V30 6935 C 635.567 1.38752 -5.16384 0
M  V30 6936 C 636.867 -0.798589 -5.16159 0
M  V30 6937 H 638.561 -0.730571 -2.9035 0
M  V30 6938 H 636.107 -0.352773 -1.39612 0
M  V30 6939 H 638.06 1.47067 -3.94904 0
M  V30 6940 H 636.784 1.77205 -2.74346 0
M  V30 6941 H 635.443 -0.152097 -3.66284 0
M  V30 6942 H 635.091 2.16293 -4.54121 0
M  V30 6943 H 634.791 0.939051 -5.80048 0
M  V30 6944 H 636.315 1.87141 -5.81215 0
M  V30 6945 H 637.729 -0.398126 -5.71916 0
M  V30 6946 H 636.126 -1.17163 -5.88552 0
M  V30 6947 H 637.196 -1.65588 -4.55751 0
M  V30 6948 N 638.539 1.52521 -0.396863 0
M  V30 6949 C 639.786 2.01672 0.182898 0
M  V30 6950 C 640.114 1.28302 1.46181 0
M  V30 6951 O 639.369 0.374118 1.92091 0
M  V30 6952 C 639.668 3.5403 0.489677 0
M  V30 6953 C 639.334 4.45456 -0.698581 0
M  V30 6954 C 637.996 4.70166 -1.02454 0
M  V30 6955 C 640.348 4.99354 -1.49316 0
M  V30 6956 C 637.676 5.46024 -2.1465 0
M  V30 6957 C 640.028 5.76439 -2.60579 0
M  V30 6958 C 638.692 5.99426 -2.93675 0
M  V30 6959 H 637.962 0.737971 0.066927 0
M  V30 6960 H 640.609 1.83853 -0.535764 0
M  V30 6961 H 638.914 3.69963 1.28976 0
M  V30 6962 H 640.611 3.8956 0.951018 0
M  V30 6963 H 637.201 4.26392 -0.434525 0
M  V30 6964 H 641.385 4.80182 -1.25457 0
M  V30 6965 H 636.641 5.62046 -2.40654 0
M  V30 6966 H 640.815 6.17202 -3.22544 0
M  V30 6967 H 638.442 6.57988 -3.80731 0
M  V30 6968 N 640.017 0.126909 1.57088 0
M  V30 6969 C 641.294 -0.573152 1.87014 0
M  V30 6970 C 641.674 -1.84297 1.02945 0
M  V30 6971 O 641.022 -2.28232 0.110573 0
M  V30 6972 C 641.232 -0.857984 3.38289 0
M  V30 6973 C 642.58 -1.20759 4.07066 0
M  V30 6974 O 643.604 -0.947992 3.43353 0
M  V30 6975 O 642.463 -1.69516 5.19545 0
M  V30 6976 H 639.557 -0.290082 0.774456 0
M  V30 6977 H 642.103 0.162008 1.68925 0
M  V30 6978 H 640.875 0.0415286 3.91278 0
M  V30 6979 H 640.498 -1.64803 3.61837 0
M  V30 6980 N 641.495 -1.56914 -0.146875 0
M  V30 6981 C 642.725 -1.87243 -0.873126 0
M  V30 6982 C 643.133 -0.713127 -1.75246 0
M  V30 6983 O 642.476 0.326228 -1.8078 0
M  V30 6984 C 642.538 -3.12279 -1.78107 0
M  V30 6985 C 642.202 -4.44082 -1.07889 0
M  V30 6986 C 643.199 -5.18096 -0.432734 0
M  V30 6987 C 640.884 -4.90807 -1.06836 0
M  V30 6988 C 642.878 -6.37039 0.214569 0
M  V30 6989 C 640.565 -6.09674 -0.417243 0
M  V30 6990 C 641.563 -6.82636 0.223093 0
M  V30 6991 O 641.251 -7.99245 0.863884 0
M  V30 6992 H 640.983 -0.624896 -0.257839 0
M  V30 6993 H 643.537 -2.04892 -0.14434 0
M  V30 6994 H 641.767 -2.90639 -2.5508 0
M  V30 6995 H 643.456 -3.28854 -2.37929 0
M  V30 6996 H 644.222 -4.83066 -0.432677 0
M  V30 6997 H 640.101 -4.3394 -1.55618 0
M  V30 6998 H 643.645 -6.93927 0.714965 0
M  V30 6999 H 639.542 -6.44165 -0.414967 0
M  V30 7000 H 640.31 -8.14912 0.765564 0
M  V30 7001 N 642.974 0.416227 -1.52004 0
M  V30 7002 C 644.39 0.754319 -1.40649 0
M  V30 7003 C 644.59 1.95059 -0.505392 0
M  V30 7004 O 643.646 2.5248 0.0315057 0
M  V30 7005 C 644.959 1.0149 -2.83055 0
M  V30 7006 C 646.507 1.11805 -2.9235 0
M  V30 7007 C 646.982 1.41144 -4.35709 0
M  V30 7008 N 648.473 1.48024 -4.38911 0
M  V30 7009 C 649.208 1.72338 -5.46889 0
M  V30 7010 N 648.704 1.94303 -6.64995 0
M  V30 7011 N 650.497 1.74294 -5.34395 0
M  V30 7012 H 642.648 -0.371324 -2.09129 0
M  V30 7013 H 644.911 -0.103811 -0.942299 0
M  V30 7014 H 644.617 0.208345 -3.51082 0
M  V30 7015 H 644.491 1.93697 -3.23668 0
M  V30 7016 H 646.878 1.91521 -2.24508 0
M  V30 7017 H 646.959 0.17451 -2.55204 0
M  V30 7018 H 646.603 0.619484 -5.04108 0
M  V30 7019 H 646.533 2.36739 -4.70385 0
M  V30 7020 H 649.024 1.32868 -3.53772 0
M  V30 7021 H 649.337 2.12286 -7.43071 0
M  V30 7022 H 647.682 1.91582 -6.68073 0
M  V30 7023 H 650.873 1.56667 -4.41104 0
M  V30 7024 H 651.046 1.92904 -6.18621 0
M  V30 7025 N 644.452 1.42507 0.673017 0
M  V30 7026 C 645.682 1.46261 1.45916 0
M  V30 7027 C 646.09 0.0729724 1.89059 0
M  V30 7028 O 645.433 -0.922987 1.58829 0
M  V30 7029 C 645.495 2.32853 2.73898 0
M  V30 7030 C 645.159 3.80699 2.52819 0
M  V30 7031 C 646.156 4.72307 2.17306 0
M  V30 7032 C 643.841 4.24983 2.67758 0
M  V30 7033 C 645.835 6.06192 1.97003 0
M  V30 7034 C 643.522 5.58927 2.4707 0
M  V30 7035 C 644.52 6.49348 2.11746 0
M  V30 7036 O 644.208 7.80817 1.91259 0
M  V30 7037 H 643.94 0.499561 0.455428 0
M  V30 7038 H 646.494 1.87697 0.834196 0
M  V30 7039 H 644.724 1.86268 3.38882 0
M  V30 7040 H 646.413 2.28041 3.35786 0
M  V30 7041 H 647.179 4.39378 2.05359 0
M  V30 7042 H 643.058 3.54893 2.94231 0
M  V30 7043 H 646.602 6.76731 1.69355 0
M  V30 7044 H 642.499 5.91429 2.58615 0
M  V30 7045 H 643.267 7.92194 2.05843 0
M  V30 7046 N 645.93 -0.909495 1.28709 0
M  V30 7047 C 647.155 -1.69801 1.1909 0
M  V30 7048 C 647.58 -1.86479 -0.246388 0
M  V30 7049 O 646.938 -1.37802 -1.17815 0
M  V30 7050 C 646.986 -3.06543 1.89904 0
M  V30 7051 O 646.09 -3.94268 1.2094 0
M  V30 7052 H 645.431 -0.519783 0.413185 0
M  V30 7053 H 647.961 -1.13689 1.70106 0
M  V30 7054 H 647.971 -3.56748 1.97977 0
M  V30 7055 H 646.646 -2.93722 2.94449 0
M  V30 7056 H 645.223 -3.52702 1.2106 0
M  V30 7057 N 647.408 -1.11026 -1.11852 0
M  V30 7058 C 648.656 -0.854769 -1.83134 0
M  V30 7059 C 648.977 0.621375 -1.84835 0
M  V30 7060 O 648.247 1.45129 -1.31584 0
M  V30 7061 H 646.827 -0.313229 -0.678157 0
M  V30 7062 H 649.489 -1.40178 -1.35411 0
M  V30 7063 H 648.585 -1.22311 -2.87135 0
M  V30 7064 N 648.886 1.2938 -0.899927 0
M  V30 7065 C 650.135 1.9483 -0.521937 0
M  V30 7066 C 650.448 1.71725 0.936473 0
M  V30 7067 O 651.654 2.31282 1.42199 0
M  V30 7068 C 650.11 3.48911 -0.88255 0
M  V30 7069 C 649.718 3.80815 -2.35974 0
M  V30 7070 C 651.462 4.20595 -0.57448 0
M  V30 7071 C 649.369 5.28142 -2.66121 0
M  V30 7072 H 648.299 0.729285 -0.191468 0
M  V30 7073 H 650.95 1.47103 -1.09695 0
M  V30 7074 H 649.332 3.95293 -0.236459 0
M  V30 7075 H 650.506 3.45291 -3.05141 0
M  V30 7076 H 648.821 3.22271 -2.63686 0
M  V30 7077 H 651.418 5.29031 -0.776556 0
M  V30 7078 H 651.761 4.13442 0.487005 0
M  V30 7079 H 652.294 3.79945 -1.17842 0
M  V30 7080 H 649.033 5.4036 -3.71068 0
M  V30 7081 H 648.553 5.64913 -2.01578 0
M  V30 7082 H 650.232 5.95738 -2.52399 0
M  V30 7083 N 650.364 0.662433 1.43002 0
M  V30 7084 C 651.327 -0.0142016 2.29196 0
M  V30 7085 C 652.327 -0.741394 1.42688 0
M  V30 7086 O 653.517 -0.581257 1.64216 0
M  V30 7087 C 650.649 -1.03084 3.24941 0
M  V30 7088 H 651.842 0.7443 2.90517 0
M  V30 7089 H 649.395 0.424133 1.50435 0
M  V30 7090 H 650.13 -1.81826 2.68533 0
M  V30 7091 H 649.915 -0.512946 3.8873 0
M  V30 7092 H 651.405 -1.50308 3.89612 0
M  V30 7093 N 651.842 -1.52309 0.404946 0
M  V30 7094 C 653.09 -2.01368 -0.17186 0
M  V30 7095 C 653.411 -1.29261 -1.46002 0
M  V30 7096 O 652.681 -0.41729 -1.91404 0
M  V30 7097 H 651.261 -0.744034 -0.0664993 0
M  V30 7098 H 653.923 -1.87263 0.540228 0
M  V30 7099 H 653.019 -3.09888 -0.370957 0
M  V30 7100 N 653.32 -0.135238 -1.57019 0
M  V30 7101 C 654.566 0.519563 -1.96032 0
M  V30 7102 C 654.899 1.65284 -1.01955 0
M  V30 7103 O 654.174 1.94408 -0.059727 0
M  V30 7104 C 654.457 1.0369 -3.44848 0
M  V30 7105 C 654.31 -0.0940754 -4.49702 0
M  V30 7106 C 655.629 1.92254 -3.95887 0
M  V30 7107 H 652.748 0.18739 -0.712779 0
M  V30 7108 H 655.39 -0.214086 -1.8879 0
M  V30 7109 H 653.54 1.66209 -3.5115 0
M  V30 7110 H 655.212 -0.73 -4.55487 0
M  V30 7111 H 653.455 -0.754924 -4.27181 0
M  V30 7112 H 654.126 0.309419 -5.51132 0
M  V30 7113 H 656.602 1.39581 -3.9199 0
M  V30 7114 H 655.478 2.25364 -5.00502 0
M  V30 7115 H 655.739 2.85513 -3.37543 0
M  V30 7116 N 654.798 1.5699 0.138552 0
M  V30 7117 C 656.023 1.88344 0.86841 0
M  V30 7118 C 656.448 0.725159 1.7356 0
M  V30 7119 O 655.806 -0.324992 1.78363 0
M  V30 7120 C 655.854 3.18334 1.69398 0
M  V30 7121 O 654.958 3.02863 2.79907 0
M  V30 7122 H 654.299 0.618577 0.241367 0
M  V30 7123 H 656.829 2.04207 0.126826 0
M  V30 7124 H 656.839 3.50567 2.08726 0
M  V30 7125 H 655.514 4.02238 1.05725 0
M  V30 7126 H 654.091 2.82056 2.43924 0
M  V30 7127 N 656.276 -0.40816 1.52223 0
M  V30 7128 C 657.224 -1.51788 1.76248 0
M  V30 7129 C 658.218 -1.57264 0.629638 0
M  V30 7130 O 659.424 -1.60659 0.811704 0
M  V30 7131 H 655.799 -0.504823 0.557367 0
M  V30 7132 H 657.77 -1.2871 2.69214 0
M  V30 7133 C 656.519 -2.89145 1.93107 0
M  V30 7134 H 655.842 -2.85674 2.79697 0
M  V30 7135 H 657.282 -3.66082 2.13916 0
M  V30 7136 C 655.741 -3.29581 0.698431 0
M  V30 7137 O 656.271 -4.01479 -0.133238 0
M  V30 7138 N 654.477 -2.85651 0.53405 0
M  V30 7139 H 654.024 -2.2731 1.21194 0
M  V30 7140 H 653.982 -3.13065 -0.289387 0
M  V30 7141 N 657.755 -1.42862 -0.66545 0
M  V30 7142 C 659.004 -1.43119 -1.42126 0
M  V30 7143 C 659.317 -0.0545297 -1.95524 0
M  V30 7144 O 660.523 0.0654747 -2.71421 0
M  V30 7145 C 658.979 -2.51797 -2.5715 0
M  V30 7146 C 658.587 -3.95514 -2.10411 0
M  V30 7147 C 660.331 -2.61233 -3.346 0
M  V30 7148 C 658.238 -4.95682 -3.22573 0
M  V30 7149 H 657.168 -0.532349 -0.533966 0
M  V30 7150 H 659.819 -1.68806 -0.719506 0
M  V30 7151 H 658.201 -2.19292 -3.29738 0
M  V30 7152 H 659.375 -4.3742 -1.44915 0
M  V30 7153 H 657.69 -3.90012 -1.45874 0
M  V30 7154 H 660.287 -3.33248 -4.18151 0
M  V30 7155 H 660.63 -1.65896 -3.81817 0
M  V30 7156 H 661.163 -2.9298 -2.69087 0
M  V30 7157 H 657.902 -5.92529 -2.80338 0
M  V30 7158 H 657.422 -4.58399 -3.86821 0
M  V30 7159 H 659.101 -5.17828 -3.87896 0
M  V30 7160 N 659.233 0.902656 -1.29189 0
M  V30 7161 C 660.481 1.6496 -1.16758 0
M  V30 7162 C 660.802 1.92952 0.28188 0
M  V30 7163 O 660.072 1.55351 1.19344 0
M  V30 7164 H 658.652 0.611447 -0.429118 0
M  V30 7165 H 661.314 1.0825 -1.62074 0
M  V30 7166 H 660.41 2.60728 -1.71544 0
M  V30 7167 N 660.711 1.11618 1.11262 0
M  V30 7168 C 661.936 0.889013 1.8738 0
M  V30 7169 C 662.361 -0.555884 1.79698 0
M  V30 7170 O 661.719 -1.39272 1.16073 0
M  V30 7171 C 661.767 1.35759 3.34069 0
M  V30 7172 O 660.871 0.530499 4.08974 0
M  V30 7173 H 660.212 0.320082 0.581759 0
M  V30 7174 H 662.742 1.48611 1.40627 0
M  V30 7175 H 662.752 1.35291 3.84916 0
M  V30 7176 H 661.427 2.40973 3.38976 0
M  V30 7177 H 660.004 0.601439 3.68018 0
M  V30 7178 N 662.189 -1.289 0.906776 0
M  V30 7179 C 663.466 -1.90221 0.455537 0
M  V30 7180 C 663.846 -1.82251 -1.06527 0
M  V30 7181 O 663.194 -1.25385 -1.91026 0
M  V30 7182 C 663.404 -3.35015 0.97806 0
M  V30 7183 C 664.752 -4.12018 1.02598 0
M  V30 7184 O 665.776 -3.43947 0.926218 0
M  V30 7185 O 664.635 -5.33677 1.17689 0
M  V30 7186 H 661.729 -0.814505 0.143214 0
M  V30 7187 H 664.275 -1.37317 0.997104 0
M  V30 7188 H 663.047 -3.35006 2.02204 0
M  V30 7189 H 662.67 -3.95408 0.416914 0
M  V30 7190 N 663.667 -0.670007 -1.42649 0
M  V30 7191 C 665.078 -0.268118 -1.84765 0
M  V30 7192 C 665.429 1.18877 -1.56086 0
M  V30 7193 O 664.554 1.90947 -1.01825 0
M  V30 7194 C 665.149 -0.47984 -3.35385 0
M  V30 7195 C 663.708 -0.132116 -3.76168 0
M  V30 7196 C 662.855 -0.774611 -2.66261 0
M  V30 7197 H 665.806 -0.872509 -1.32563 0
M  V30 7198 H 665.827 0.269522 -3.79544 0
M  V30 7199 H 665.339 -1.54026 -3.56227 0
M  V30 7200 H 663.44 0.92505 -3.60934 0
M  V30 7201 H 663.553 -0.569294 -4.75706 0
M  V30 7202 H 661.917 -0.206353 -2.53863 0
M  V30 7203 H 662.7 -1.83839 -2.89928 0
M  V30 7204 N 665.145 1.52092 -0.413018 0
M  V30 7205 C 666.093 2.28681 0.425199 0
M  V30 7206 C 667.087 1.3353 1.04241 0
M  V30 7207 O 668.293 1.50973 0.980166 0
M  V30 7208 H 664.668 0.735661 0.155906 0
M  V30 7209 H 666.639 2.97418 -0.241926 0
M  V30 7210 C 665.388 3.1235 1.5275 0
M  V30 7211 H 664.711 3.85439 1.06191 0
M  V30 7212 H 666.151 3.69038 2.08774 0
M  V30 7213 C 664.61 2.26161 2.49706 0
M  V30 7214 O 665.14 1.90452 3.53682 0
M  V30 7215 N 663.346 1.89854 2.20008 0
M  V30 7216 H 662.893 2.19092 1.35486 0
M  V30 7217 H 662.851 1.3248 2.85125 0
M  V30 7218 N 666.623 0.143563 1.56945 0
M  V30 7219 C 667.869 -0.502787 1.97088 0
M  V30 7220 C 668.224 -1.62703 1.02691 0
M  V30 7221 O 667.517 -1.91502 0.0613323 0
M  V30 7222 C 667.711 -1.05885 3.41355 0
M  V30 7223 C 667.54 0.00998209 4.49699 0
M  V30 7224 C 666.31 0.450229 5.0329 0
M  V30 7225 C 668.508 0.800174 5.08037 0
M  V30 7226 N 666.49 1.50227 5.95235 0
M  V30 7227 C 667.861 1.70279 5.96158 0
M  V30 7228 C 669.916 0.848344 4.9062 0
M  V30 7229 C 668.619 2.64945 6.68728 0
M  V30 7230 C 670.645 1.78281 5.63888 0
M  V30 7231 C 670.007 2.67296 6.51715 0
M  V30 7232 H 666.106 -0.152891 0.766908 0
M  V30 7233 H 668.69 0.23737 1.93248 0
M  V30 7234 H 666.861 -1.76863 3.45795 0
M  V30 7235 H 668.593 -1.67154 3.68567 0
M  V30 7236 H 665.348 0.0531355 4.7357 0
M  V30 7237 H 665.772 2.02795 6.45913 0
M  V30 7238 H 670.414 0.174228 4.22441 0
M  V30 7239 H 668.132 3.33358 7.36137 0
M  V30 7240 H 671.718 1.82584 5.52408 0
M  V30 7241 H 670.598 3.38428 7.07415 0
M  V30 7242 N 668.101 -1.57061 -0.130224 0
M  V30 7243 C 669.329 -1.88432 -0.854456 0
M  V30 7244 C 669.744 -0.733608 -1.73964 0
M  V30 7245 O 669.101 0.296029 -1.80083 0
M  V30 7246 C 669.152 -3.1918 -1.69724 0
M  V30 7247 O 668.873 -4.2982 -0.847705 0
M  V30 7248 C 670.374 -3.6418 -2.5276 0
M  V30 7249 H 667.594 -0.624193 -0.246221 0
M  V30 7250 H 670.138 -2.04159 -0.11798 0
M  V30 7251 H 668.293 -3.05156 -2.3866 0
M  V30 7252 H 668.707 -5.04689 -1.42792 0
M  V30 7253 H 670.181 -4.58457 -3.07443 0
M  V30 7254 H 670.658 -2.90285 -3.29592 0
M  V30 7255 H 671.264 -3.80954 -1.89087 0
M  V30 7256 N 669.579 0.400081 -1.52437 0
M  V30 7257 C 670.827 1.14392 -1.6661 0
M  V30 7258 C 671.148 1.90792 -0.402927 0
M  V30 7259 O 670.418 1.87042 0.582425 0
M  V30 7260 H 668.998 0.425275 -0.614125 0
M  V30 7261 H 671.66 0.455076 -1.89513 0
M  V30 7262 H 670.756 1.85298 -2.51139 0
M  V30 7263 N 671.057 1.43213 0.657864 0
M  V30 7264 C 672.007 1.44459 1.76396 0
M  V30 7265 C 672.991 0.313641 1.57814 0
M  V30 7266 O 674.183 0.557094 1.68004 0
M  V30 7267 C 671.312 1.36586 3.14959 0
M  V30 7268 C 670.398 2.54692 3.39106 0
M  V30 7269 N 670.789 3.80059 3.33749 0
M  V30 7270 C 669.087 2.49316 3.69807 0
M  V30 7271 C 669.788 4.58606 3.57849 0
M  V30 7272 N 668.764 3.89267 3.79437 0
M  V30 7273 H 672.566 2.39265 1.70673 0
M  V30 7274 H 670.08 1.378 0.859357 0
M  V30 7275 H 672.077 1.35561 3.94245 0
M  V30 7276 H 670.737 0.427956 3.21867 0
M  V30 7277 H 671.748 4.12414 3.13266 0
M  V30 7278 H 668.425 1.6419 3.83859 0
M  V30 7279 H 669.815 5.67619 3.59525 0
M  V30 7280 N 672.536 -0.895792 1.29666 0
M  V30 7281 C 673.764 -1.68001 1.20761 0
M  V30 7282 C 674.179 -1.87379 -0.231187 0
M  V30 7283 O 673.536 -1.41359 -1.15429 0
M  V30 7284 C 673.587 -3.06236 1.92098 0
M  V30 7285 O 673.308 -2.8774 3.30359 0
M  V30 7286 C 674.809 -4.00652 1.89717 0
M  V30 7287 H 672.029 -0.524591 0.418384 0
M  V30 7288 H 674.573 -1.11995 1.71106 0
M  V30 7289 H 672.728 -3.59007 1.45578 0
M  V30 7290 H 673.142 -3.75359 3.66342 0
M  V30 7291 H 674.616 -4.95051 2.44189 0
M  V30 7292 H 675.093 -4.30424 0.873595 0
M  V30 7293 H 675.699 -3.53815 2.35998 0
M  V30 7294 N 674.014 -1.12206 -1.10668 0
M  V30 7295 C 674.944 -0.810086 -2.18997 0
M  V30 7296 C 675.925 0.225065 -1.68604 0
M  V30 7297 O 677.11 0.086783 -1.94006 0
M  V30 7298 C 674.24 -0.261262 -3.46316 0
M  V30 7299 C 673.194 -1.2292 -4.09969 0
M  V30 7300 C 672.52 -0.540713 -5.31959 0
M  V30 7301 C 673.82 -2.58295 -4.53962 0
M  V30 7302 H 675.514 -1.7159 -2.45352 0
M  V30 7303 H 673.06 -0.82646 -1.17922 0
M  V30 7304 H 675.013 -0.0307522 -4.21389 0
M  V30 7305 H 673.737 0.679879 -3.19445 0
M  V30 7306 H 672.396 -1.44548 -3.369 0
M  V30 7307 H 672.044 0.405492 -5.01363 0
M  V30 7308 H 671.744 -1.18637 -5.75499 0
M  V30 7309 H 673.268 -0.319184 -6.09765 0
M  V30 7310 H 674.682 -2.40709 -5.20319 0
M  V30 7311 H 673.079 -3.18916 -5.08343 0
M  V30 7312 H 674.149 -3.16918 -3.67002 0
M  V30 7313 N 675.492 1.28418 -0.913599 0
M  V30 7314 C 676.455 2.25564 -0.406624 0
M  V30 7315 C 677.455 1.5387 0.466965 0
M  V30 7316 O 678.645 1.72094 0.270042 0
M  V30 7317 C 675.777 3.38339 0.417053 0
M  V30 7318 H 676.97 2.71926 -1.26477 0
M  V30 7319 H 674.523 1.40098 -0.692986 0
M  V30 7320 H 675.258 2.97339 1.29461 0
M  V30 7321 H 675.043 3.91542 -0.209102 0
M  V30 7322 H 676.533 4.10578 0.762602 0
M  V30 7323 N 676.97 0.677563 1.42291 0
M  V30 7324 C 677.902 -0.0380218 2.29168 0
M  V30 7325 C 678.915 -0.762714 1.43828 0
M  V30 7326 O 680.104 -0.616413 1.67519 0
M  V30 7327 C 677.204 -1.07761 3.21311 0
M  V30 7328 C 676.377 -0.42618 4.35319 0
M  V30 7329 C 675.436 -1.36592 5.08162 0
M  V30 7330 O 674.462 -0.865174 5.62586 0
M  V30 7331 N 675.664 -2.69909 5.13935 0
M  V30 7332 H 678.429 0.707766 2.91223 0
M  V30 7333 H 675.99 0.52219 1.53247 0
M  V30 7334 H 677.982 -1.70761 3.6691 0
M  V30 7335 H 676.552 -1.72511 2.60689 0
M  V30 7336 H 675.772 0.383385 3.92331 0
M  V30 7337 H 677.06 0.0275277 5.08793 0
M  V30 7338 H 676.458 -3.13129 4.71134 0
M  V30 7339 H 675.015 -3.2815 5.6317 0
M  V30 7340 N 678.448 -1.51871 0.421078 0
M  V30 7341 C 679.411 -2.25914 -0.386712 0
M  V30 7342 C 680.411 -1.28733 -0.963555 0
M  V30 7343 O 681.601 -1.52579 -0.840556 0
M  V30 7344 C 678.733 -3.03853 -1.54551 0
M  V30 7345 H 679.926 -2.98754 0.261978 0
M  V30 7346 H 677.479 -1.5533 0.173862 0
M  V30 7347 H 678.214 -2.35392 -2.23072 0
M  V30 7348 H 677.999 -3.75215 -1.13824 0
M  V30 7349 H 679.489 -3.59984 -2.11663 0
M  V30 7350 N 679.926 -0.151884 -1.56866 0
M  V30 7351 C 680.874 0.80299 -2.183 0
M  V30 7352 C 681.868 1.25174 -1.14139 0
M  V30 7353 O 683.074 1.21966 -1.3238 0
M  V30 7354 H 679.449 0.277169 -0.699057 0
M  V30 7355 H 681.42 0.260699 -2.97259 0
M  V30 7356 C 680.169 2.03009 -2.82281 0
M  V30 7357 H 679.492 1.69377 -3.62148 0
M  V30 7358 H 680.932 2.67753 -3.28762 0
M  V30 7359 C 679.391 2.84123 -1.81041 0
M  V30 7360 O 679.921 3.8063 -1.28388 0
M  V30 7361 N 678.127 2.48753 -1.50234 0
M  V30 7362 H 677.674 1.70337 -1.93244 0
M  V30 7363 H 677.632 3.03316 -0.827445 0
M  V30 7364 N 681.404 1.57128 0.121893 0
M  V30 7365 C 682.334 2.03165 1.15092 0
M  V30 7366 C 683.315 0.915587 1.43356 0
M  V30 7367 O 684.5 1.1851 1.53847 0
M  V30 7368 C 681.63 2.43352 2.47784 0
M  V30 7369 C 680.584 3.58376 2.33989 0
M  V30 7370 C 679.91 3.84454 3.71617 0
M  V30 7371 C 681.21 4.90199 1.80283 0
M  V30 7372 H 682.904 2.89382 0.768023 0
M  V30 7373 H 680.45 1.39218 0.367998 0
M  V30 7374 H 682.403 2.74163 3.20019 0
M  V30 7375 H 681.127 1.54103 2.87958 0
M  V30 7376 H 679.786 3.2777 1.64202 0
M  V30 7377 H 679.434 2.92414 4.09271 0
M  V30 7378 H 679.134 4.61877 3.6324 0
M  V30 7379 H 680.658 4.17714 4.45362 0
M  V30 7380 H 682.072 5.19565 2.42333 0
M  V30 7381 H 680.469 5.71601 1.82735 0
M  V30 7382 H 681.539 4.78904 0.760184 0
M  V30 7383 N 682.882 -0.391992 1.52647 0
M  V30 7384 C 684.112 -1.15692 1.71169 0
M  V30 7385 C 684.52 -1.84285 0.428444 0
M  V30 7386 O 683.863 -1.73393 -0.606669 0
M  V30 7387 C 683.925 -2.25033 2.80357 0
M  V30 7388 C 683.589 -1.76433 4.21569 0
M  V30 7389 C 684.586 -1.2427 5.0483 0
M  V30 7390 C 682.271 -1.82746 4.67877 0
M  V30 7391 C 684.265 -0.790657 6.32477 0
M  V30 7392 C 681.952 -1.37153 5.9551 0
M  V30 7393 C 682.95 -0.853997 6.7764 0
M  V30 7394 O 682.638 -0.404708 8.02881 0
M  V30 7395 H 682.37 -0.35297 0.576531 0
M  V30 7396 H 684.924 -0.464994 2.00067 0
M  V30 7397 H 683.154 -2.97641 2.46874 0
M  V30 7398 H 684.843 -2.86718 2.87311 0
M  V30 7399 H 685.609 -1.18752 4.70237 0
M  V30 7400 H 681.488 -2.21971 4.04042 0
M  V30 7401 H 685.032 -0.386024 6.96531 0
M  V30 7402 H 680.929 -1.42356 6.29607 0
M  V30 7403 H 681.697 -0.526459 8.16805 0
M  V30 7404 N 684.36 -1.4356 -0.65026 0
M  V30 7405 C 685.608 -1.45046 -1.40734 0
M  V30 7406 C 685.929 -0.0769822 -1.94848 0
M  V30 7407 O 685.199 0.888098 -1.74613 0
M  V30 7408 H 683.779 -0.534034 -0.522318 0
M  V30 7409 H 686.441 -1.79186 -0.766703 0
M  V30 7410 H 685.537 -2.16476 -2.24822 0
M  V30 7411 N 685.838 0.888903 -1.30139 0
M  V30 7412 C 687.085 1.64037 -1.18736 0
M  V30 7413 C 687.413 1.92771 0.258801 0
M  V30 7414 O 686.668 1.54427 1.20212 0
M  V30 7415 C 686.967 2.99041 -1.95728 0
M  V30 7416 C 686.633 2.89874 -3.45375 0
M  V30 7417 C 685.295 2.87082 -3.86183 0
M  V30 7418 C 687.647 2.78289 -4.40687 0
M  V30 7419 C 684.975 2.70536 -5.20603 0
M  V30 7420 C 687.327 2.63282 -5.75209 0
M  V30 7421 C 685.991 2.58861 -6.15262 0
M  V30 7422 H 685.261 0.600253 -0.434485 0
M  V30 7423 H 687.908 1.0338 -1.61198 0
M  V30 7424 H 686.213 3.63626 -1.45888 0
M  V30 7425 H 687.91 3.56139 -1.843 0
M  V30 7426 H 684.5 2.92856 -3.12943 0
M  V30 7427 H 688.684 2.79516 -4.10103 0
M  V30 7428 H 683.94 2.65526 -5.50732 0
M  V30 7429 H 688.114 2.5329 -6.48704 0
M  V30 7430 H 685.741 2.45799 -7.19366 0
M  V30 7431 N 687.317 1.12792 1.10072 0
M  V30 7432 C 688.565 0.883796 1.81751 0
M  V30 7433 C 688.886 -0.591891 1.858 0
M  V30 7434 O 688.156 -1.43017 1.33876 0
M  V30 7435 H 686.736 0.323978 0.673088 0
M  V30 7436 H 689.398 1.42314 1.33164 0
M  V30 7437 H 688.494 1.26863 2.85153 0
M  V30 7438 N 688.795 -1.27931 0.920396 0
M  V30 7439 C 690.211 -1.47085 0.619537 0
M  V30 7440 C 690.411 -1.83463 -0.833291 0
M  V30 7441 O 689.467 -1.94363 -1.61181 0
M  V30 7442 C 690.78 -2.56878 1.56314 0
M  V30 7443 C 692.328 -2.70743 1.57058 0
M  V30 7444 C 692.803 -3.83687 2.50097 0
M  V30 7445 N 694.294 -3.9105 2.48262 0
M  V30 7446 C 695.029 -4.77842 3.16945 0
M  V30 7447 N 694.525 -5.69176 3.94982 0
M  V30 7448 N 696.318 -4.71509 3.06 0
M  V30 7449 H 688.469 -1.02601 1.85975 0
M  V30 7450 H 690.732 -0.511682 0.798051 0
M  V30 7451 H 690.438 -2.36923 2.59923 0
M  V30 7452 H 690.312 -3.54117 1.29928 0
M  V30 7453 H 692.699 -2.90083 0.541832 0
M  V30 7454 H 692.78 -1.74015 1.8749 0
M  V30 7455 H 692.424 -3.65101 3.53077 0
M  V30 7456 H 692.354 -4.79827 2.16964 0
M  V30 7457 H 694.845 -3.25738 1.91581 0
M  V30 7458 H 695.158 -6.32245 4.44394 0
M  V30 7459 H 693.503 -5.68995 3.99086 0
M  V30 7460 H 696.694 -3.99151 2.44533 0
M  V30 7461 H 696.867 -5.38933 3.59799 0
M  V30 7462 N 690.273 -0.685099 -1.4193 0
M  V30 7463 C 691.203 -0.0273506 -2.33484 0
M  V30 7464 C 692.184 0.778366 -1.51246 0
M  V30 7465 O 693.369 0.733449 -1.79817 0
M  V30 7466 C 690.499 0.917272 -3.34968 0
M  V30 7467 C 689.453 0.21941 -4.27437 0
M  V30 7468 C 688.779 1.27768 -5.1921 0
M  V30 7469 C 690.079 -0.907894 -5.14349 0
M  V30 7470 H 691.773 -0.791994 -2.88735 0
M  V30 7471 H 689.319 -0.382308 -1.38832 0
M  V30 7472 H 691.272 1.38657 -3.97935 0
M  V30 7473 H 689.996 1.71346 -2.78043 0
M  V30 7474 H 688.655 -0.229757 -3.65879 0
M  V30 7475 H 688.303 2.06612 -4.58607 0
M  V30 7476 H 688.003 0.815803 -5.81909 0
M  V30 7477 H 689.527 1.7477 -5.85054 0
M  V30 7478 H 690.941 -0.519348 -5.70943 0
M  V30 7479 H 689.338 -1.2962 -5.85934 0
M  V30 7480 H 690.408 -1.75218 -4.52136 0
M  V30 7481 N 691.751 1.51645 -0.429126 0
M  V30 7482 C 692.714 2.26116 0.374726 0
M  V30 7483 C 693.714 1.29242 0.956714 0
M  V30 7484 O 694.904 1.53022 0.832452 0
M  V30 7485 C 692.036 3.04669 1.52937 0
M  V30 7486 H 693.229 2.9861 -0.277818 0
M  V30 7487 H 690.782 1.55236 -0.182097 0
M  V30 7488 H 691.517 2.36571 2.21821 0
M  V30 7489 H 691.302 3.75814 1.11833 0
M  V30 7490 H 692.792 3.61102 2.09751 0
M  V30 7491 N 693.229 0.160201 1.56784 0
M  V30 7492 C 694.475 -0.481855 1.9761 0
M  V30 7493 C 694.83 -1.61605 1.04411 0
M  V30 7494 O 694.123 -1.91426 0.0816402 0
M  V30 7495 C 694.317 -1.02259 3.42459 0
M  V30 7496 C 694.146 0.0576781 4.49663 0
M  V30 7497 C 692.916 0.503585 5.02784 0
M  V30 7498 C 695.114 0.854013 5.0716 0
M  V30 7499 N 693.096 1.56532 5.93608 0
M  V30 7500 C 694.467 1.76593 5.94319 0
M  V30 7501 C 696.522 0.900333 4.89692 0
M  V30 7502 C 695.225 2.72023 6.6588 0
M  V30 7503 C 697.251 1.84252 5.61965 0
M  V30 7504 C 696.613 2.74194 6.48843 0
M  V30 7505 H 692.712 -0.144748 0.768487 0
M  V30 7506 H 695.296 0.257853 1.92985 0
M  V30 7507 H 693.467 -1.73186 3.47651 0
M  V30 7508 H 695.199 -1.63235 3.70319 0
M  V30 7509 H 691.954 0.103361 4.73487 0
M  V30 7510 H 692.378 2.09634 6.43726 0
M  V30 7511 H 697.02 0.219023 4.22232 0
M  V30 7512 H 694.738 3.41147 7.3256 0
M  V30 7513 H 698.324 1.88433 5.5044 0
M  V30 7514 H 697.204 3.45912 7.03786 0
M  V30 7515 N 694.707 -1.5719 -0.113559 0
M  V30 7516 C 695.655 -2.01725 -1.158 0
M  V30 7517 C 696.649 -0.915105 -1.42556 0
M  V30 7518 O 697.855 -1.10031 -1.42454 0
M  V30 7519 H 694.23 -0.64262 -0.390569 0
M  V30 7520 H 696.201 -2.88666 -0.755926 0
M  V30 7521 C 694.95 -2.44203 -2.47507 0
M  V30 7522 H 694.273 -3.28582 -2.27758 0
M  V30 7523 H 695.713 -2.79158 -3.19135 0
M  V30 7524 C 694.172 -1.30785 -3.10478 0
M  V30 7525 O 694.702 -0.626807 -3.9678 0
M  V30 7526 N 692.908 -1.06352 -2.7044 0
M  V30 7527 H 692.455 -1.61913 -2.00355 0
M  V30 7528 H 692.413 -0.306614 -3.12901 0
M  V30 7529 N 696.185 0.383891 -1.52853 0
M  V30 7530 C 697.596 0.961591 -1.60032 0
M  V30 7531 C 697.947 1.90819 -0.456333 0
M  V30 7532 O 697.072 2.12288 0.419873 0
M  V30 7533 C 697.667 1.75078 -2.90057 0
M  V30 7534 C 696.226 2.2781 -2.99632 0
M  V30 7535 C 695.373 1.08512 -2.55187 0
M  V30 7536 H 698.324 0.163269 -1.57858 0
M  V30 7537 H 698.345 2.61046 -2.7683 0
M  V30 7538 H 697.857 1.06157 -3.73299 0
M  V30 7539 H 695.958 3.00028 -2.20939 0
M  V30 7540 H 696.071 2.56947 -4.0437 0
M  V30 7541 H 694.435 1.44667 -2.09627 0
M  V30 7542 H 695.218 0.41118 -3.40829 0
M  V30 7543 N 697.663 1.43903 0.642637 0
M  V30 7544 C 698.94 1.36556 1.40043 0
M  V30 7545 C 699.32 0.0185588 2.11092 0
M  V30 7546 O 698.668 -0.998438 2.05532 0
M  V30 7547 C 698.878 2.55596 2.37638 0
M  V30 7548 C 700.226 2.99153 3.01318 0
M  V30 7549 O 701.25 2.55719 2.47965 0
M  V30 7550 O 700.109 3.74427 3.98078 0
M  V30 7551 H 697.203 0.540189 0.626198 0
M  V30 7552 H 699.749 1.55971 0.668657 0
M  V30 7553 H 698.521 3.45256 1.84158 0
M  V30 7554 H 698.144 2.38334 3.18249 0
M  V30 7555 N 699.141 -0.881989 1.30609 0
M  V30 7556 C 700.071 -2.00413 1.1982 0
M  V30 7557 C 701.052 -1.69871 0.0881538 0
M  V30 7558 O 702.237 -1.92304 0.2707 0
M  V30 7559 C 699.367 -3.35641 0.89233 0
M  V30 7560 C 698.321 -3.80451 1.96064 0
M  V30 7561 C 697.647 -5.13003 1.5077 0
M  V30 7562 C 698.947 -3.98855 3.37213 0
M  V30 7563 H 700.641 -2.09698 2.13699 0
M  V30 7564 H 698.187 -1.00754 1.02882 0
M  V30 7565 H 700.14 -4.13669 0.803497 0
M  V30 7566 H 698.864 -3.26497 -0.0821381 0
M  V30 7567 H 697.523 -3.04654 2.03916 0
M  V30 7568 H 697.171 -5.0029 0.521417 0
M  V30 7569 H 696.871 -5.43956 2.22229 0
M  V30 7570 H 698.395 -5.93554 1.43271 0
M  V30 7571 H 699.809 -4.67312 3.32103 0
M  V30 7572 H 698.206 -4.41188 4.06784 0
M  V30 7573 H 699.276 -3.02614 3.78883 0
M  V30 7574 N 700.619 -1.13374 -1.09472 0
M  V30 7575 C 701.844 -0.918711 -1.85942 0
M  V30 7576 C 702.269 0.527225 -1.8056 0
M  V30 7577 O 701.627 1.37408 -1.18274 0
M  V30 7578 C 701.675 -1.41056 -3.31867 0
M  V30 7579 O 700.779 -0.595496 -4.08078 0
M  V30 7580 H 700.12 -0.329297 -0.576593 0
M  V30 7581 H 702.65 -1.50829 -1.38245 0
M  V30 7582 H 702.66 -1.41398 -3.82715 0
M  V30 7583 H 701.335 -2.46335 -3.35099 0
M  V30 7584 H 699.912 -0.659911 -3.67014 0
M  V30 7585 N 702.098 1.27442 -0.927168 0
M  V30 7586 C 703.061 2.2512 -0.430525 0
M  V30 7587 C 704.061 1.54357 0.450619 0
M  V30 7588 O 705.251 1.72371 0.251774 0
M  V30 7589 C 702.383 3.38763 0.381144 0
M  V30 7590 H 703.576 2.70569 -1.29354 0
M  V30 7591 H 701.129 1.39355 -0.707806 0
M  V30 7592 H 701.864 2.98695 1.263 0
M  V30 7593 H 701.649 3.91298 -0.250618 0
M  V30 7594 H 703.139 4.11364 0.719012 0
M  V30 7595 N 703.576 0.692616 1.41565 0
M  V30 7596 C 704.486 0.0258451 2.34586 0
M  V30 7597 C 705.502 -0.769324 1.56069 0
M  V30 7598 O 706.678 -0.707563 1.88562 0
M  V30 7599 C 703.743 -0.901289 3.3478 0
M  V30 7600 C 702.804 -0.0986579 4.29187 0
M  V30 7601 C 702.037 -0.981634 5.24595 0
M  V30 7602 O 702.26 -2.22115 5.25377 0
M  V30 7603 O 701.194 -0.432892 6.00341 0
M  V30 7604 H 705.02 0.792537 2.93177 0
M  V30 7605 H 702.605 0.452935 1.42369 0
M  V30 7606 H 704.487 -1.43302 3.96286 0
M  V30 7607 H 703.162 -1.64752 2.78637 0
M  V30 7608 H 702.069 0.477604 3.71039 0
M  V30 7609 H 703.402 0.608848 4.8842 0
M  V30 7610 N 705.054 -1.51416 0.437162 0
M  V30 7611 C 705.964 -2.31493 -0.380537 0
M  V30 7612 C 706.98 -1.40399 -1.02782 0
M  V30 7613 O 708.156 -1.73471 -1.02323 0
M  V30 7614 C 705.221 -3.1413 -1.46709 0
M  V30 7615 C 704.282 -4.21003 -0.839953 0
M  V30 7616 C 703.515 -4.9969 -1.87473 0
M  V30 7617 O 703.738 -4.79008 -3.09689 0
M  V30 7618 O 702.672 -5.8379 -1.46536 0
M  V30 7619 H 706.498 -3.02469 0.273183 0
M  V30 7620 H 704.083 -1.48059 0.199706 0
M  V30 7621 H 705.965 -3.65505 -2.09724 0
M  V30 7622 H 704.64 -2.45919 -2.10489 0
M  V30 7623 H 703.547 -3.73706 -0.171752 0
M  V30 7624 H 704.88 -4.91587 -0.245638 0
M  V30 7625 N 706.532 -0.168513 -1.56696 0
M  V30 7626 C 707.781 0.477233 -1.95973 0
M  V30 7627 C 708.094 1.64578 -1.05704 0
M  V30 7628 O 709.3 2.35758 -1.3465 0
M  V30 7629 C 707.756 0.900413 -3.48455 0
M  V30 7630 C 707.364 -0.242382 -4.47344 0
M  V30 7631 C 709.108 1.51474 -3.96555 0
M  V30 7632 C 707.015 0.200272 -5.91061 0
M  V30 7633 H 705.945 0.182061 -0.73169 0
M  V30 7634 H 708.596 -0.256297 -1.81701 0
M  V30 7635 H 706.978 1.68984 -3.58135 0
M  V30 7636 H 708.152 -1.01967 -4.49377 0
M  V30 7637 H 706.467 -0.766484 -4.09285 0
M  V30 7638 H 709.064 1.85792 -5.01384 0
M  V30 7639 H 709.407 2.41163 -3.39332 0
M  V30 7640 H 709.94 0.789802 -3.89881 0
M  V30 7641 H 706.679 -0.661775 -6.52151 0
M  V30 7642 H 706.199 0.942979 -5.92341 0
M  V30 7643 H 707.878 0.645088 -6.43776 0
M  V30 7644 N 708.01 1.57248 0.105221 0
M  V30 7645 C 708.973 2.00388 1.11252 0
M  V30 7646 C 709.973 0.89594 1.33527 0
M  V30 7647 O 711.163 1.16166 1.29811 0
M  V30 7648 C 708.295 2.35589 2.46395 0
M  V30 7649 H 709.488 2.90591 0.741424 0
M  V30 7650 H 707.041 1.52332 0.349956 0
M  V30 7651 H 707.776 1.4831 2.884 0
M  V30 7652 H 707.561 3.16408 2.31578 0
M  V30 7653 H 709.051 2.69658 3.18864 0
M  V30 7654 N 709.488 -0.375779 1.53054 0
M  V30 7655 C 710.436 -1.48015 1.79428 0
M  V30 7656 C 711.43 -1.55893 0.662854 0
M  V30 7657 O 712.636 -1.58901 0.845599 0
M  V30 7658 H 709.011 -0.492887 0.56795 0
M  V30 7659 H 710.982 -1.22971 2.71884 0
M  V30 7660 C 709.731 -2.84984 1.99197 0
M  V30 7661 H 709.054 -2.79677 2.85693 0
M  V30 7662 H 710.494 -3.61462 2.21633 0
M  V30 7663 C 708.953 -3.28025 0.768183 0
M  V30 7664 O 709.483 -4.01671 -0.0480482 0
M  V30 7665 N 707.689 -2.84454 0.594521 0
M  V30 7666 H 707.236 -2.24688 1.25988 0
M  V30 7667 H 707.194 -3.13609 -0.222916 0
M  V30 7668 N 710.966 -1.44241 -0.634997 0
M  V30 7669 C 711.876 -1.53293 -1.77591 0
M  V30 7670 C 712.892 -0.418831 -1.68884 0
M  V30 7671 O 714.068 -0.675619 -1.8973 0
M  V30 7672 C 711.133 -1.47075 -3.13958 0
M  V30 7673 C 710.194 -2.69304 -3.34326 0
M  V30 7674 C 709.427 -2.63374 -4.64187 0
M  V30 7675 O 709.65 -1.69161 -5.44739 0
M  V30 7676 O 708.584 -3.54166 -4.86673 0
M  V30 7677 H 712.41 -2.49673 -1.72908 0
M  V30 7678 H 709.995 -1.26445 -0.795745 0
M  V30 7679 H 711.877 -1.46117 -3.95257 0
M  V30 7680 H 710.552 -0.538373 -3.19192 0
M  V30 7681 H 709.459 -2.75831 -2.52721 0
M  V30 7682 H 710.792 -3.61576 -3.33951 0
M  V30 7683 N 712.444 0.87505 -1.31075 0
M  V30 7684 C 713.69 1.63006 -1.21657 0
M  V30 7685 C 714.045 1.91088 0.224306 0
M  V30 7686 O 713.338 1.52779 1.15625 0
M  V30 7687 C 713.532 2.96948 -1.98888 0
M  V30 7688 C 713.361 2.81944 -3.50339 0
M  V30 7689 C 712.131 2.814 -4.19693 0
M  V30 7690 C 714.329 2.57171 -4.45385 0
M  V30 7691 N 712.311 2.57392 -5.57335 0
M  V30 7692 C 713.682 2.42379 -5.7066 0
M  V30 7693 C 715.737 2.42474 -4.34868 0
M  V30 7694 C 714.44 2.14385 -6.86609 0
M  V30 7695 C 716.466 2.15868 -5.50595 0
M  V30 7696 C 715.828 2.0186 -6.74857 0
M  V30 7697 H 711.927 0.601043 -0.500271 0
M  V30 7698 H 714.511 1.03033 -1.65204 0
M  V30 7699 H 712.682 3.54936 -1.57718 0
M  V30 7700 H 714.414 3.61702 -1.81531 0
M  V30 7701 H 711.169 2.93596 -3.71616 0
M  V30 7702 H 711.593 2.48373 -6.29794 0
M  V30 7703 H 716.235 2.52035 -3.39468 0
M  V30 7704 H 713.953 2.03562 -7.82041 0
M  V30 7705 H 717.539 2.05304 -5.44372 0
M  V30 7706 H 716.419 1.81562 -7.62892 0
M  V30 7707 N 713.922 1.13953 1.08869 0
M  V30 7708 C 715.168 0.906151 1.8143 0
M  V30 7709 C 715.501 -0.566089 1.85766 0
M  V30 7710 O 714.776 -1.41915 1.33006 0
M  V30 7711 C 715.059 1.50183 3.27287 0
M  V30 7712 C 714.912 3.04359 3.31189 0
M  V30 7713 C 716.231 1.17477 4.24131 0
M  V30 7714 H 713.35 0.330624 0.658678 0
M  V30 7715 H 715.992 1.40873 1.27495 0
M  V30 7716 H 714.142 1.07442 3.73348 0
M  V30 7717 H 715.814 3.55896 2.93488 0
M  V30 7718 H 714.057 3.39053 2.70602 0
M  V30 7719 H 714.728 3.41141 4.33966 0
M  V30 7720 H 717.204 1.5442 3.86385 0
M  V30 7721 H 716.08 1.61795 5.24513 0
M  V30 7722 H 716.341 0.0893312 4.4201 0
M  V30 7723 N 715.4 -1.26948 0.933913 0
M  V30 7724 C 716.646 -1.94374 0.57848 0
M  V30 7725 C 716.979 -1.73166 -0.879048 0
M  V30 7726 O 716.254 -1.06438 -1.62792 0
M  V30 7727 C 716.537 -3.4834 0.912739 0
M  V30 7728 C 716.39 -3.78866 2.42448 0
M  V30 7729 C 717.709 -4.38062 0.423003 0
M  V30 7730 H 714.828 -0.705959 0.211639 0
M  V30 7731 H 717.47 -1.49951 1.16682 0
M  V30 7732 H 715.62 -3.86309 0.412058 0
M  V30 7733 H 717.292 -3.50654 2.99733 0
M  V30 7734 H 715.535 -3.25198 2.87104 0
M  V30 7735 H 716.206 -4.86458 2.60887 0
M  V30 7736 H 718.682 -4.0728 0.852191 0
M  V30 7737 H 717.558 -5.44599 0.685776 0
M  V30 7738 H 717.819 -4.36886 -0.676994 0
M  V30 7739 N 716.879 -0.700114 -1.41195 0
M  V30 7740 C 717.811 0.00155823 -2.292 0
M  V30 7741 C 718.824 0.739736 -1.45023 0
M  V30 7742 O 720.013 0.589684 -1.68478 0
M  V30 7743 C 717.113 1.02635 -3.22985 0
M  V30 7744 C 716.286 0.356871 -4.35942 0
M  V30 7745 C 715.345 1.28491 -5.10271 0
M  V30 7746 O 714.371 0.775562 -5.63892 0
M  V30 7747 N 715.573 2.61699 -5.18164 0
M  V30 7748 H 718.338 -0.754008 -2.9006 0
M  V30 7749 H 715.899 -0.546504 -1.52397 0
M  V30 7750 H 717.891 1.64902 -3.6958 0
M  V30 7751 H 716.461 1.68341 -2.63401 0
M  V30 7752 H 715.681 -0.445753 -3.91672 0
M  V30 7753 H 716.969 -0.108469 -5.08684 0
M  V30 7754 H 716.367 3.05594 -4.76056 0
M  V30 7755 H 714.924 3.19149 -5.6832 0
M  V30 7756 N 718.357 1.51182 -0.445186 0
M  V30 7757 C 719.585 2.06568 0.117091 0
M  V30 7758 C 720 1.31182 1.35781 0
M  V30 7759 O 719.357 0.373605 1.78635 0
M  V30 7760 C 719.408 3.58917 0.431408 0
M  V30 7761 O 719.129 4.31456 -0.760078 0
M  V30 7762 C 720.63 4.30843 1.0435 0
M  V30 7763 H 717.85 0.670985 0.00444436 0
M  V30 7764 H 720.394 1.94666 -0.626525 0
M  V30 7765 H 718.549 3.70708 1.12493 0
M  V30 7766 H 718.963 5.22215 -0.489048 0
M  V30 7767 H 720.437 5.38499 1.21337 0
M  V30 7768 H 720.914 3.89644 2.02667 0
M  V30 7769 H 721.52 4.23516 0.38913 0
M  V30 7770 N 719.835 0.176821 1.56605 0
M  V30 7771 C 721.082 -0.466715 1.97048 0
M  V30 7772 C 721.41 -1.6288 1.06302 0
M  V30 7773 O 720.665 -1.95453 0.0982571 0
M  V30 7774 C 720.964 -0.986208 3.43524 0
M  V30 7775 C 720.63 0.0605667 4.50859 0
M  V30 7776 C 719.292 0.348242 4.79938 0
M  V30 7777 C 721.644 0.770794 5.15469 0
M  V30 7778 C 718.972 1.35144 5.70923 0
M  V30 7779 C 721.324 1.76301 6.07537 0
M  V30 7780 C 719.988 2.05808 6.3498 0
M  V30 7781 H 719.258 -0.170783 0.721051 0
M  V30 7782 H 721.905 0.269942 1.89588 0
M  V30 7783 H 720.21 -1.80079 3.47964 0
M  V30 7784 H 721.907 -1.49323 3.72161 0
M  V30 7785 H 718.497 -0.173823 4.28247 0
M  V30 7786 H 722.681 0.56176 4.9311 0
M  V30 7787 H 717.937 1.58616 5.90467 0
M  V30 7788 H 722.111 2.31868 6.56666 0
M  V30 7789 H 719.738 2.8369 7.05283 0
M  V30 7790 N 721.313 -1.57302 -0.09688 0
M  V30 7791 C 722.561 -1.8563 -0.799117 0
M  V30 7792 C 722.882 -0.765263 -1.79356 0
M  V30 7793 O 722.152 0.208657 -1.94786 0
M  V30 7794 H 720.732 -0.684937 -0.298111 0
M  V30 7795 H 723.394 -1.9474 -0.0789341 0
M  V30 7796 H 722.49 -2.82305 -1.3308 0
M  V30 7797 N 722.791 0.367657 -1.53252 0
M  V30 7798 C 724.068 1.12606 -1.59935 0
M  V30 7799 C 724.448 2.07167 -0.405606 0
M  V30 7800 O 723.796 2.20364 0.604323 0
M  V30 7801 C 724.006 1.86699 -2.94863 0
M  V30 7802 C 725.354 2.41306 -3.49366 0
M  V30 7803 O 726.378 1.96828 -2.96879 0
M  V30 7804 O 725.237 3.2261 -4.41118 0
M  V30 7805 H 722.331 0.516438 -0.645926 0
M  V30 7806 H 724.877 0.371088 -1.65593 0
M  V30 7807 H 723.649 1.17674 -3.73187 0
M  V30 7808 H 723.272 2.6911 -2.92687 0
M  V30 7809 N 724.269 1.44576 0.627338 0
M  V30 7810 C 725.546 1.38033 1.38586 0
M  V30 7811 C 725.926 0.0409468 2.1106 0
M  V30 7812 O 725.274 -0.976582 2.0658 0
M  V30 7813 C 725.484 2.58102 2.34913 0
M  V30 7814 C 726.832 3.02332 2.98129 0
M  V30 7815 O 727.856 2.58334 2.45238 0
M  V30 7816 O 726.715 3.78628 3.94085 0
M  V30 7817 H 723.809 0.546801 0.620434 0
M  V30 7818 H 726.355 1.56672 0.652077 0
M  V30 7819 H 725.127 3.4719 1.80485 0
M  V30 7820 H 724.75 2.41696 3.15703 0
M  V30 7821 N 725.747 -0.868086 1.31537 0
M  V30 7822 C 726.972 -1.65926 1.24432 0
M  V30 7823 C 727.397 -1.87169 -0.186936 0
M  V30 7824 O 726.755 -1.4148 -1.13371 0
M  V30 7825 C 726.803 -3.00347 1.9956 0
M  V30 7826 O 725.907 -3.90221 1.33422 0
M  V30 7827 H 725.248 -0.506375 0.429512 0
M  V30 7828 H 727.778 -1.0822 1.73637 0
M  V30 7829 H 727.788 -3.50269 2.09226 0
M  V30 7830 H 726.463 -2.84205 3.03645 0
M  V30 7831 H 725.04 -3.48672 1.32219 0
M  V30 7832 N 727.225 -1.14528 -1.08264 0
M  V30 7833 C 728.157 -0.791325 -2.15106 0
M  V30 7834 C 729.17 0.192449 -1.61659 0
M  V30 7835 O 730.359 -0.0294704 -1.78476 0
M  V30 7836 C 727.459 -0.154183 -3.38549 0
M  V30 7837 C 726.632 -1.17305 -4.21377 0
M  V30 7838 C 725.691 -0.559401 -5.23218 0
M  V30 7839 O 724.717 -1.22277 -5.55911 0
M  V30 7840 N 725.919 0.663159 -5.767 0
M  V30 7841 H 728.684 -1.71076 -2.46075 0
M  V30 7842 H 726.245 -1.0399 -1.24087 0
M  V30 7843 H 728.237 0.268884 -4.03806 0
M  V30 7844 H 726.807 0.668418 -3.0537 0
M  V30 7845 H 726.027 -1.773 -3.52077 0
M  V30 7846 H 727.315 -1.86128 -4.73533 0
M  V30 7847 H 726.713 1.22066 -5.52373 0
M  V30 7848 H 725.27 1.02871 -6.43631 0
M  V30 7849 N 728.703 1.26451 -0.940633 0
M  V30 7850 C 729.949 1.94065 -0.58878 0
M  V30 7851 C 730.282 1.7363 0.869853 0
M  V30 7852 O 729.557 1.073 1.62225 0
M  V30 7853 C 729.84 3.47852 -0.931199 0
M  V30 7854 C 729.693 3.77575 -2.44453 0
M  V30 7855 C 731.012 4.37832 -0.446229 0
M  V30 7856 H 728.131 0.704827 -0.21538 0
M  V30 7857 H 730.773 1.4933 -1.17475 0
M  V30 7858 H 728.923 3.86085 -0.432539 0
M  V30 7859 H 730.595 3.49059 -3.01588 0
M  V30 7860 H 728.838 3.23671 -2.88825 0
M  V30 7861 H 729.509 4.85068 -2.63464 0
M  V30 7862 H 731.985 4.06822 -0.873778 0
M  V30 7863 H 730.861 5.44228 -0.714648 0
M  V30 7864 H 731.122 4.37239 0.653815 0
M  V30 7865 N 730.181 0.707592 1.40822 0
M  V30 7866 C 731.427 0.244031 2.01326 0
M  V30 7867 C 731.76 -1.15722 1.55955 0
M  V30 7868 O 731.035 -1.78347 0.776044 0
M  V30 7869 C 731.318 0.315128 3.58718 0
M  V30 7870 C 731.171 1.75419 4.14184 0
M  V30 7871 C 732.49 -0.318251 4.38948 0
M  V30 7872 H 729.609 0.0901471 0.731466 0
M  V30 7873 H 732.251 0.898584 1.67408 0
M  V30 7874 H 730.401 -0.242176 3.87744 0
M  V30 7875 H 732.073 2.36626 3.95987 0
M  V30 7876 H 730.316 2.28449 3.68773 0
M  V30 7877 H 730.987 1.75538 5.23345 0
M  V30 7878 H 733.463 0.156514 4.15806 0
M  V30 7879 H 732.339 -0.238019 5.48384 0
M  V30 7880 H 732.6 -1.40067 4.19325 0
M  V30 7881 N 731.66 -1.50943 0.453197 0
M  V30 7882 C 732.57 -2.31884 -0.355963 0
M  V30 7883 C 733.586 -1.41481 -1.01287 0
M  V30 7884 O 734.762 -1.74546 -1.00477 0
M  V30 7885 C 731.827 -3.15668 -1.43369 0
M  V30 7886 C 730.888 -4.2187 -0.795253 0
M  V30 7887 C 730.121 -5.0165 -1.82162 0
M  V30 7888 O 730.344 -4.82266 -3.04592 0
M  V30 7889 O 729.278 -5.85311 -1.40336 0
M  V30 7890 H 733.104 -3.02162 0.305248 0
M  V30 7891 H 730.689 -1.47839 0.215398 0
M  V30 7892 H 732.571 -3.67709 -2.05836 0
M  V30 7893 H 731.246 -2.48137 -2.07869 0
M  V30 7894 H 730.153 -3.73867 -0.132106 0
M  V30 7895 H 731.486 -4.9182 -0.193484 0
M  V30 7896 N 733.138 -0.185124 -1.56509 0
M  V30 7897 C 734.366 0.462139 -2.01673 0
M  V30 7898 C 734.781 1.55873 -1.06532 0
M  V30 7899 O 734.138 1.82371 -0.0684805 0
M  V30 7900 C 734.189 1.0277 -3.46584 0
M  V30 7901 O 733.91 -0.0251296 -4.38093 0
M  V30 7902 C 735.411 1.75183 -4.07217 0
M  V30 7903 H 732.631 0.117001 -0.660721 0
M  V30 7904 H 735.175 -0.290905 -2.0242 0
M  V30 7905 H 733.33 1.73118 -3.46568 0
M  V30 7906 H 733.744 0.394387 -5.23015 0
M  V30 7907 H 735.218 2.09999 -5.10494 0
M  V30 7908 H 735.695 2.6519 -3.50101 0
M  V30 7909 H 736.301 1.09445 -4.10977 0
M  V30 7910 N 734.616 1.57351 0.0885366 0
M  V30 7911 C 735.865 1.85604 0.789556 0
M  V30 7912 C 736.178 0.775352 1.79576 0
M  V30 7913 O 737.384 0.945206 2.54515 0
M  V30 7914 C 735.84 3.29175 1.45506 0
M  V30 7915 C 735.448 4.45331 0.488278 0
M  V30 7916 C 737.192 3.66646 2.13942 0
M  V30 7917 C 735.099 5.79937 1.15874 0
M  V30 7918 H 734.029 0.692346 0.298619 0
M  V30 7919 H 736.68 1.83451 0.0425821 0
M  V30 7920 H 735.062 3.25889 2.24972 0
M  V30 7921 H 736.236 4.59977 -0.275359 0
M  V30 7922 H 734.551 4.16301 -0.0907363 0
M  V30 7923 H 737.148 4.64498 2.6485 0
M  V30 7924 H 737.491 2.956 2.93132 0
M  V30 7925 H 738.024 3.71848 1.41328 0
M  V30 7926 H 734.763 6.54232 0.407508 0
M  V30 7927 H 734.283 5.69123 1.89364 0
M  V30 7928 H 735.962 6.24718 1.68336 0
M  V30 7929 N 736.094 -0.359525 1.53444 0
M  V30 7930 C 737.319 -1.12644 1.74144 0
M  V30 7931 C 737.744 -1.82082 0.472007 0
M  V30 7932 O 737.102 -1.71962 -0.57436 0
M  V30 7933 C 737.15 -2.12781 2.9113 0
M  V30 7934 O 736.254 -3.19984 2.60162 0
M  V30 7935 H 735.595 -0.326553 0.578152 0
M  V30 7936 H 738.125 -0.414798 2.00351 0
M  V30 7937 H 738.135 -2.56278 3.17467 0
M  V30 7938 H 736.81 -1.61634 3.83207 0
M  V30 7939 H 735.387 -2.81417 2.44661 0
M  V30 7940 N 737.572 -1.44907 -0.619662 0
M  V30 7941 C 738.818 -1.49504 -1.37914 0
M  V30 7942 C 739.173 -0.130158 -1.91959 0
M  V30 7943 O 738.466 0.856263 -1.71402 0
M  V30 7944 C 738.66 -2.50002 -2.55409 0
M  V30 7945 C 738.489 -3.96128 -2.12867 0
M  V30 7946 C 737.259 -4.64204 -1.99606 0
M  V30 7947 C 739.457 -4.85014 -1.71074 0
M  V30 7948 N 737.439 -5.95104 -1.50748 0
M  V30 7949 C 738.81 -6.05447 -1.33544 0
M  V30 7950 C 740.865 -4.71979 -1.58557 0
M  V30 7951 C 739.568 -7.1429 -0.847484 0
M  V30 7952 C 741.594 -5.80858 -1.11165 0
M  V30 7953 C 740.956 -7.00439 -0.745932 0
M  V30 7954 H 737.055 -0.60207 -0.499034 0
M  V30 7955 H 739.639 -1.81305 -0.70968 0
M  V30 7956 H 737.81 -2.20172 -3.19967 0
M  V30 7957 H 739.542 -2.44823 -3.22248 0
M  V30 7958 H 736.297 -4.19182 -2.20417 0
M  V30 7959 H 736.721 -6.64676 -1.28585 0
M  V30 7960 H 741.363 -3.79953 -1.85461 0
M  V30 7961 H 739.081 -8.06116 -0.565974 0
M  V30 7962 H 742.667 -5.72803 -1.01923 0
M  V30 7963 H 741.547 -7.83255 -0.384848 0
M  V30 7964 N 739.05 0.861098 -1.31996 0
M  V30 7965 C 739.983 1.97266 -1.14724 0
M  V30 7966 C 740.961 1.62528 -0.0483789 0
M  V30 7967 O 742.145 1.87366 -0.206478 0
M  V30 7968 C 739.272 3.30181 -0.754861 0
M  V30 7969 C 738.318 3.839 -1.85804 0
M  V30 7970 S 739.151 4.08274 -3.46515 0
M  V30 7971 C 740.307 5.44174 -3.09235 0
M  V30 7972 H 740.54 2.11614 -2.08822 0
M  V30 7973 H 738.073 1.01232 -1.16582 0
M  V30 7974 H 740.031 4.06996 -0.535232 0
M  V30 7975 H 738.692 3.13655 0.167155 0
M  V30 7976 H 737.885 4.80013 -1.53633 0
M  V30 7977 H 737.487 3.13907 -2.03318 0
M  V30 7978 H 739.779 6.26172 -2.58679 0
M  V30 7979 H 740.722 5.81301 -4.04345 0
M  V30 7980 H 741.13 5.0787 -2.46431 0
M  V30 7981 N 740.528 1.15101 1.07655 0
M  V30 7982 C 741.458 0.867864 2.16773 0
M  V30 7983 C 742.439 -0.180283 1.69142 0
M  V30 7984 O 743.624 -0.0353152 1.94168 0
M  V30 7985 C 740.754 0.35299 3.45501 0
M  V30 7986 C 739.708 1.33746 4.06566 0
M  V30 7987 C 739.034 0.681562 5.30338 0
M  V30 7988 C 740.334 2.7024 4.46954 0
M  V30 7989 H 742.028 1.78034 2.40716 0
M  V30 7990 H 739.574 0.857435 1.15689 0
M  V30 7991 H 741.527 0.142465 4.21159 0
M  V30 7992 H 740.251 -0.594945 3.21135 0
M  V30 7993 H 738.91 1.53429 3.32949 0
M  V30 7994 H 738.558 -0.272422 5.02262 0
M  V30 7995 H 738.258 1.33853 5.72151 0
M  V30 7996 H 739.782 0.48074 6.08705 0
M  V30 7997 H 741.196 2.5442 5.13754 0
M  V30 7998 H 739.593 3.32282 4.99709 0
M  V30 7999 H 740.663 3.26537 3.58471 0
M  V30 8000 N 742.006 -1.2595 0.947325 0
M  V30 8001 C 742.936 -2.28521 0.479604 0
M  V30 8002 C 743.917 -1.63469 -0.470293 0
M  V30 8003 O 745.102 -1.90627 -0.370824 0
M  V30 8004 C 742.232 -3.46397 -0.250289 0
M  V30 8005 C 741.186 -4.23578 0.613643 0
M  V30 8006 C 740.512 -5.34131 -0.246568 0
M  V30 8007 C 741.812 -4.86979 1.88809 0
M  V30 8008 H 743.506 -2.67895 1.33688 0
M  V30 8009 H 741.052 -1.28783 0.644274 0
M  V30 8010 H 743.005 -4.17269 -0.588576 0
M  V30 8011 H 741.729 -3.05993 -1.14175 0
M  V30 8012 H 740.388 -3.54478 0.93491 0
M  V30 8013 H 740.036 -4.89968 -1.13756 0
M  V30 8014 H 739.736 -5.86683 0.328123 0
M  V30 8015 H 741.26 -6.07839 -0.579986 0
M  V30 8016 H 742.674 -5.50034 1.61666 0
M  V30 8017 H 741.071 -5.49675 2.40784 0
M  V30 8018 H 742.141 -4.09575 2.5957 0
M  V30 8019 N 743.484 -0.715051 -1.40445 0
M  V30 8020 C 744.709 -0.26254 -2.05732 0
M  V30 8021 C 745.134 1.08691 -1.53519 0
M  V30 8022 O 744.492 1.68453 -0.670328 0
M  V30 8023 C 744.54 -0.25195 -3.59719 0
M  V30 8024 O 743.644 0.766998 -4.05205 0
M  V30 8025 H 742.985 -0.123398 -0.652433 0
M  V30 8026 H 745.515 -0.975382 -1.79854 0
M  V30 8027 H 745.525 -0.0894537 -4.07902 0
M  V30 8028 H 744.2 -1.23672 -3.97087 0
M  V30 8029 H 742.777 0.572269 -3.68483 0
M  V30 8030 N 744.962 1.50701 -0.461195 0
M  V30 8031 C 746.187 2.07171 0.0974773 0
M  V30 8032 C 746.612 1.32391 1.3362 0
M  V30 8033 O 745.97 0.368676 1.77512 0
M  V30 8034 C 746.018 3.58651 0.374409 0
M  V30 8035 O 745.122 3.85816 1.4567 0
M  V30 8036 H 744.463 0.663944 -0.00862047 0
M  V30 8037 H 746.993 1.94021 -0.649394 0
M  V30 8038 H 747.003 4.03295 0.617843 0
M  V30 8039 H 745.678 4.12498 -0.530829 0
M  V30 8040 H 744.255 3.53018 1.20136 0
M  V30 8041 N 746.441 0.193421 1.56409 0
M  V30 8042 C 747.687 -0.43983 1.98588 0
M  V30 8043 C 748.042 -1.59353 1.07816 0
M  V30 8044 O 747.335 -1.9121 0.122226 0
M  V30 8045 C 747.529 -0.949718 3.44551 0
M  V30 8046 C 747.358 0.153045 4.49439 0
M  V30 8047 C 746.128 0.610119 5.01603 0
M  V30 8048 C 748.326 0.961397 5.05234 0
M  V30 8049 N 746.308 1.69088 5.90155 0
M  V30 8050 C 747.679 1.8916 5.90439 0
M  V30 8051 C 749.734 1.004 4.87672 0
M  V30 8052 C 748.437 2.86086 6.5996 0
M  V30 8053 C 750.463 1.96131 5.57931 0
M  V30 8054 C 749.825 2.87895 6.42881 0
M  V30 8055 H 745.924 -0.128415 0.771384 0
M  V30 8056 H 748.508 0.29873 1.92395 0
M  V30 8057 H 746.679 -1.65772 3.51246 0
M  V30 8058 H 748.411 -1.55344 3.73698 0
M  V30 8059 H 745.166 0.203771 4.73161 0
M  V30 8060 H 745.59 2.23241 6.39134 0
M  V30 8061 H 750.232 0.308536 4.21673 0
M  V30 8062 H 747.95 3.56609 7.25159 0
M  V30 8063 H 751.536 2.00066 5.46319 0
M  V30 8064 H 750.416 3.60763 6.9629 0
M  V30 8065 N 747.919 -1.57396 -0.0801906 0
M  V30 8066 C 749.335 -1.53564 -0.434778 0
M  V30 8067 C 749.535 -0.912372 -1.79661 0
M  V30 8068 O 748.591 -0.511268 -2.4727 0
M  V30 8069 C 749.904 -2.98244 -0.383561 0
M  V30 8070 C 751.452 -3.09536 -0.46435 0
M  V30 8071 C 751.927 -4.55851 -0.443128 0
M  V30 8072 N 753.418 -4.60456 -0.503448 0
M  V30 8073 C 754.153 -5.71135 -0.509106 0
M  V30 8074 N 753.649 -6.91203 -0.47008 0
M  V30 8075 N 755.442 -5.59353 -0.555035 0
M  V30 8076 H 747.593 -1.96281 0.811635 0
M  V30 8077 H 749.856 -0.898041 0.303689 0
M  V30 8078 H 749.562 -3.47369 0.550236 0
M  V30 8079 H 749.436 -3.57705 -1.19694 0
M  V30 8080 H 751.823 -2.6039 -1.38857 0
M  V30 8081 H 751.904 -2.53 0.377445 0
M  V30 8082 H 751.548 -5.05653 0.477207 0
M  V30 8083 H 751.478 -5.10242 -1.30234 0
M  V30 8084 H 753.969 -3.74048 -0.538199 0
M  V30 8085 H 754.282 -7.7132 -0.478091 0
M  V30 8086 H 752.627 -6.93625 -0.436897 0
M  V30 8087 H 755.818 -4.64453 -0.583158 0
M  V30 8088 H 755.991 -6.4561 -0.555976 0
M  V30 8089 N 749.397 0.351382 -1.53633 0
M  V30 8090 C 750.646 1.08988 -1.69719 0
M  V30 8091 C 750.959 1.90043 -0.462948 0
M  V30 8092 O 752.165 2.66769 -0.504613 0
M  V30 8093 C 750.621 1.98691 -3.00083 0
M  V30 8094 C 750.229 1.22881 -4.30818 0
M  V30 8095 C 751.973 2.72446 -3.25536 0
M  V30 8096 C 749.88 2.11568 -5.52262 0
M  V30 8097 H 748.81 0.410588 -0.632403 0
M  V30 8098 H 751.461 0.349886 -1.80133 0
M  V30 8099 H 749.843 2.76478 -2.83506 0
M  V30 8100 H 751.017 0.500582 -4.58073 0
M  V30 8101 H 749.332 0.60928 -4.11918 0
M  V30 8102 H 751.929 3.39055 -4.13456 0
M  V30 8103 H 752.272 3.38588 -2.42206 0
M  V30 8104 H 752.805 2.01735 -3.42852 0
M  V30 8105 H 749.544 1.4998 -6.38111 0
M  V30 8106 H 749.064 2.82201 -5.29266 0
M  V30 8107 H 750.743 2.70802 -5.87601 0
M  V30 8108 N 750.875 1.45233 0.611969 0
M  V30 8109 C 752.105 1.52318 1.39581 0
M  V30 8110 C 752.513 0.153093 1.8858 0
M  V30 8111 O 751.856 -0.854792 1.62601 0
M  V30 8112 C 751.918 2.4426 2.63775 0
M  V30 8113 C 751.582 3.91079 2.36445 0
M  V30 8114 C 752.579 4.81099 1.97079 0
M  V30 8115 C 750.264 4.35958 2.49492 0
M  V30 8116 C 752.258 6.14002 1.71115 0
M  V30 8117 C 749.945 5.68903 2.23142 0
M  V30 8118 C 750.943 6.57744 1.84015 0
M  V30 8119 O 750.631 7.88226 1.5797 0
M  V30 8120 H 750.363 0.518428 0.43383 0
M  V30 8121 H 752.917 1.91067 0.753837 0
M  V30 8122 H 751.147 2.00474 3.30677 0
M  V30 8123 H 752.836 2.42077 3.25812 0
M  V30 8124 H 753.602 4.47692 1.86539 0
M  V30 8125 H 749.481 3.67053 2.78914 0
M  V30 8126 H 753.025 6.83305 1.405 0
M  V30 8127 H 748.922 6.01866 2.33297 0
M  V30 8128 H 749.69 8.00211 1.72058 0
M  V30 8129 N 752.353 -0.854086 1.3245 0
M  V30 8130 C 753.263 -1.99503 1.23434 0
M  V30 8131 C 754.279 -1.73371 0.147828 0
M  V30 8132 O 755.455 -1.97998 0.368609 0
M  V30 8133 C 752.52 -3.33192 0.958328 0
M  V30 8134 C 751.581 -3.72542 2.13333 0
M  V30 8135 C 750.814 -4.99852 1.8704 0
M  V30 8136 O 751.037 -5.64573 0.813239 0
M  V30 8137 O 749.971 -5.36345 2.73161 0
M  V30 8138 H 753.797 -2.10046 2.1935 0
M  V30 8139 H 751.382 -0.984823 1.12346 0
M  V30 8140 H 753.264 -4.13327 0.820918 0
M  V30 8141 H 751.939 -3.23687 0.0293299 0
M  V30 8142 H 750.846 -2.92981 2.32622 0
M  V30 8143 H 752.179 -3.86694 3.04514 0
M  V30 8144 N 753.831 -1.1567 -1.07043 0
M  V30 8145 C 754.779 -0.852204 -2.16426 0
M  V30 8146 C 755.773 0.175661 -1.68487 0
M  V30 8147 O 756.979 0.0303874 -1.79974 0
M  V30 8148 H 753.354 -0.257942 -0.706378 0
M  V30 8149 H 755.325 -1.78231 -2.39324 0
M  V30 8150 C 754.074 -0.361362 -3.45817 0
M  V30 8151 H 753.397 -1.14369 -3.83092 0
M  V30 8152 H 754.837 -0.186997 -4.23587 0
M  V30 8153 C 753.296 0.917703 -3.2416 0
M  V30 8154 O 753.826 1.98858 -3.49025 0
M  V30 8155 N 752.032 0.858456 -2.77631 0
M  V30 8156 H 751.579 -0.0131821 -2.57597 0
M  V30 8157 H 751.537 1.71478 -2.6352 0
M  V30 8158 N 755.309 1.25446 -0.953992 0
M  V30 8159 C 756.539 1.96929 -0.624688 0
M  V30 8160 C 756.947 1.71112 0.807292 0
M  V30 8161 O 756.29 0.983512 1.55154 0
M  V30 8162 C 756.352 3.50425 -0.802676 0
M  V30 8163 C 756.016 3.99916 -2.21169 0
M  V30 8164 C 757.013 4.10662 -3.18831 0
M  V30 8165 C 754.698 4.33598 -2.53571 0
M  V30 8166 C 756.692 4.54401 -4.46988 0
M  V30 8167 C 754.379 4.77024 -3.81958 0
M  V30 8168 C 755.377 4.87388 -4.78478 0
M  V30 8169 O 755.065 5.29851 -6.04577 0
M  V30 8170 H 754.797 0.634511 -0.233179 0
M  V30 8171 H 757.351 1.60591 -1.28061 0
M  V30 8172 H 755.581 3.86596 -0.0896044 0
M  V30 8173 H 757.27 4.03117 -0.47452 0
M  V30 8174 H 758.036 3.84872 -2.95124 0
M  V30 8175 H 753.915 4.24757 -1.79171 0
M  V30 8176 H 757.459 4.62406 -5.22328 0
M  V30 8177 H 753.356 5.02258 -4.05471 0
M  V30 8178 H 754.124 5.48039 -6.07944 0
M  V30 8179 N 756.787 0.722489 1.40064 0
M  V30 8180 C 758.015 0.274838 2.05066 0
M  V30 8181 C 758.43 -1.08586 1.54449 0
M  V30 8182 O 757.787 -1.68375 0.704003 0
M  V30 8183 C 757.838 0.253673 3.60609 0
M  V30 8184 O 757.559 1.56064 4.0936 0
M  V30 8185 C 759.06 -0.211684 4.42794 0
M  V30 8186 H 756.28 0.12226 0.659768 0
M  V30 8187 H 758.824 0.982632 1.79345 0
M  V30 8188 H 756.979 -0.405137 3.85276 0
M  V30 8189 H 757.393 1.46576 5.03603 0
M  V30 8190 H 758.867 -0.175341 5.51721 0
M  V30 8191 H 759.344 -1.25493 4.2089 0
M  V30 8192 H 759.95 0.4171 4.2325 0
M  V30 8193 N 758.265 -1.50454 0.469181 0
M  V30 8194 C 759.49 -2.0722 -0.0864892 0
M  V30 8195 C 759.915 -1.33098 -1.32916 0
M  V30 8196 O 759.273 -0.378084 -1.77314 0
M  V30 8197 C 759.321 -3.58845 -0.355384 0
M  V30 8198 O 758.425 -3.86583 -1.43622 0
M  V30 8199 H 757.766 -0.663889 0.0121414 0
M  V30 8200 H 760.296 -1.93674 0.659674 0
M  V30 8201 H 760.306 -4.03617 -0.596447 0
M  V30 8202 H 758.981 -4.12211 0.552698 0
M  V30 8203 H 757.558 -3.5365 -1.18262 0
M  V30 8204 N 759.743 -0.201713 -1.56304 0
M  V30 8205 C 761.154 0.309711 -1.84113 0
M  V30 8206 C 761.505 1.60912 -1.12258 0
M  V30 8207 O 760.63 2.12937 -0.385587 0
M  V30 8208 C 761.225 0.568706 -3.33993 0
M  V30 8209 C 759.784 1.02448 -3.6219 0
M  V30 8210 C 758.931 0.0766842 -2.77194 0
M  V30 8211 H 761.882 -0.425356 -1.52893 0
M  V30 8212 H 761.903 1.41721 -3.53122 0
M  V30 8213 H 761.415 -0.37719 -3.86263 0
M  V30 8214 H 759.516 1.98443 -3.15359 0
M  V30 8215 H 759.629 0.912619 -4.70328 0
M  V30 8216 H 757.993 0.579809 -2.48013 0
M  V30 8217 H 758.776 -0.863774 -3.32256 0
M  V30 8218 N 761.222 1.57436 0.0718424 0
M  V30 8219 C 762.152 2.06724 1.08571 0
M  V30 8220 C 763.133 0.960731 1.40371 0
M  V30 8221 O 764.318 1.23345 1.49999 0
M  V30 8222 C 761.448 2.51112 2.39916 0
M  V30 8223 C 760.402 3.65639 2.22469 0
M  V30 8224 C 759.728 3.96082 3.59198 0
M  V30 8225 C 761.028 4.95687 1.64596 0
M  V30 8226 H 762.722 2.91679 0.675569 0
M  V30 8227 H 760.268 1.40319 0.32352 0
M  V30 8228 H 762.221 2.84206 3.11135 0
M  V30 8229 H 760.945 1.63186 2.8291 0
M  V30 8230 H 759.604 3.32828 1.53691 0
M  V30 8231 H 759.252 3.05287 3.99761 0
M  V30 8232 H 758.952 4.73199 3.48362 0
M  V30 8233 H 760.476 4.31672 4.31847 0
M  V30 8234 H 761.89 5.27011 2.25681 0
M  V30 8235 H 760.287 5.77126 1.64457 0
M  V30 8236 H 761.357 4.8108 0.60744 0
M  V30 8237 N 762.7 -0.34323 1.53817 0
M  V30 8238 C 763.948 -1.0813 1.70741 0
M  V30 8239 C 764.269 -1.89165 0.473461 0
M  V30 8240 O 763.539 -1.89075 -0.512605 0
M  V30 8241 H 762.119 -0.40219 0.629486 0
M  V30 8242 H 764.781 -0.384426 1.91071 0
M  V30 8243 H 763.877 -1.7585 2.57843 0
M  V30 8244 N 764.178 -1.45556 -0.604258 0
M  V30 8245 C 765.424 -1.49968 -1.36519 0
M  V30 8246 C 765.757 -0.142236 -1.93678 0
M  V30 8247 O 765.032 0.843717 -1.75247 0
M  V30 8248 C 765.315 -2.58146 -2.51063 0
M  V30 8249 C 765.168 -4.03346 -1.99078 0
M  V30 8250 C 766.487 -2.62581 -3.53184 0
M  V30 8251 H 763.606 -0.545993 -0.495036 0
M  V30 8252 H 766.248 -1.77382 -0.680845 0
M  V30 8253 H 764.398 -2.34901 -3.09441 0
M  V30 8254 H 766.07 -4.37811 -1.45323 0
M  V30 8255 H 764.313 -4.13845 -1.30055 0
M  V30 8256 H 764.984 -4.74731 -2.81664 0
M  V30 8257 H 767.46 -2.83419 -3.04652 0
M  V30 8258 H 766.336 -3.40131 -4.30816 0
M  V30 8259 H 766.597 -1.67798 -4.09019 0
M  V30 8260 N 765.656 0.84705 -1.32902 0
M  V30 8261 C 766.904 1.5986 -1.2365 0
M  V30 8262 C 767.225 1.93974 0.199789 0
M  V30 8263 O 766.495 1.60273 1.12648 0
M  V30 8264 H 765.075 0.592696 -0.454665 0
M  V30 8265 H 767.737 1.01278 -1.66519 0
M  V30 8266 H 766.833 2.53218 -1.82448 0
M  V30 8267 N 767.134 1.16236 1.06428 0
M  V30 8268 C 768.38 0.954417 1.79617 0
M  V30 8269 C 768.735 -0.512411 1.85451 0
M  V30 8270 O 768.028 -1.37523 1.33409 0
M  V30 8271 C 768.222 1.51396 3.2375 0
M  V30 8272 C 768.051 3.03367 3.31962 0
M  V30 8273 C 766.821 3.71996 3.41975 0
M  V30 8274 C 769.019 4.01075 3.21937 0
M  V30 8275 N 767.001 5.11688 3.39187 0
M  V30 8276 C 768.372 5.27142 3.26376 0
M  V30 8277 C 770.427 3.92917 3.05812 0
M  V30 8278 C 769.13 6.46 3.16348 0
M  V30 8279 C 771.156 5.11344 2.97121 0
M  V30 8280 C 770.518 6.36291 3.02181 0
M  V30 8281 H 766.617 0.403007 0.670156 0
M  V30 8282 H 769.201 1.47605 1.26968 0
M  V30 8283 H 767.372 1.01883 3.74799 0
M  V30 8284 H 769.104 1.2439 3.85109 0
M  V30 8285 H 765.859 3.22623 3.46715 0
M  V30 8286 H 766.283 5.84676 3.41297 0
M  V30 8287 H 770.925 2.97172 3.00746 0
M  V30 8288 H 768.643 7.41968 3.2017 0
M  V30 8289 H 772.229 5.06801 2.85734 0
M  V30 8290 H 771.109 7.26389 2.95513 0
M  V30 8291 N 768.612 -1.24939 0.960631 0
M  V30 8292 C 769.545 -2.24116 0.429804 0
M  V30 8293 C 770.523 -1.54972 -0.492188 0
M  V30 8294 O 771.707 -1.83642 -0.42519 0
M  V30 8295 C 768.834 -3.36558 -0.380312 0
M  V30 8296 C 767.88 -4.23757 0.482941 0
M  V30 8297 S 768.713 -4.9994 1.91885 0
M  V30 8298 C 769.869 -6.15846 1.11732 0
M  V30 8299 H 770.102 -2.68795 1.27029 0
M  V30 8300 H 767.635 -1.34108 0.765141 0
M  V30 8301 H 769.593 -4.01777 -0.841764 0
M  V30 8302 H 768.254 -2.90451 -1.19569 0
M  V30 8303 H 767.447 -5.03809 -0.138699 0
M  V30 8304 H 767.049 -3.63504 0.879839 0
M  V30 8305 H 769.341 -6.76495 0.368898 0
M  V30 8306 H 770.284 -6.82356 1.89198 0
M  V30 8307 H 770.692 -5.60805 0.644812 0
M  V30 8308 N 770.09 -0.729906 -1.39679 0
M  V30 8309 C 771.336 -0.27603 -2.00913 0
M  V30 8310 C 771.669 1.13227 -1.57776 0
M  V30 8311 O 770.944 1.7709 -0.804319 0
M  V30 8312 C 771.227 -0.372157 -3.58172 0
M  V30 8313 C 771.08 -1.81986 -4.11341 0
M  V30 8314 C 772.399 0.248378 -4.39399 0
M  V30 8315 H 769.518 -0.101773 -0.729939 0
M  V30 8316 H 772.16 -0.925104 -1.65957 0
M  V30 8317 H 770.31 0.180459 -3.88081 0
M  V30 8318 H 771.982 -2.42896 -3.92172 0
M  V30 8319 H 770.225 -2.34287 -3.65092 0
M  V30 8320 H 770.896 -1.83842 -5.20486 0
M  V30 8321 H 773.372 -0.222645 -4.15504 0
M  V30 8322 H 772.248 0.150746 -5.48693 0
M  V30 8323 H 772.509 1.33378 -4.21501 0
M  V30 8324 N 771.568 1.50203 -0.477153 0
M  V30 8325 C 772.516 2.30278 0.327826 0
M  V30 8326 C 773.51 1.37831 0.984839 0
M  V30 8327 O 774.716 1.54994 0.915251 0
M  V30 8328 H 771.091 0.741612 0.124564 0
M  V30 8329 H 773.062 2.96124 -0.367853 0
M  V30 8330 C 771.811 3.18548 1.39365 0
M  V30 8331 H 771.134 3.89596 0.897475 0
M  V30 8332 H 772.574 3.77561 1.92934 0
M  V30 8333 C 771.033 2.36548 2.39889 0
M  V30 8334 O 771.563 2.05282 3.45286 0
M  V30 8335 N 769.769 1.99015 2.11758 0
M  V30 8336 H 769.316 2.24641 1.26071 0
M  V30 8337 H 769.274 1.44454 2.7925 0
M  V30 8338 N 773.046 0.209999 1.56195 0
M  V30 8339 C 774.457 -0.299943 1.84275 0
M  V30 8340 C 774.808 -1.60314 1.1311 0
M  V30 8341 O 773.933 -2.1273 0.396874 0
M  V30 8342 C 774.528 -0.550986 3.3429 0
M  V30 8343 C 773.087 -1.00526 3.62728 0
M  V30 8344 C 772.234 -0.0619828 2.77231 0
M  V30 8345 H 775.185 0.433458 1.52666 0
M  V30 8346 H 775.206 -1.39846 3.53869 0
M  V30 8347 H 774.718 0.397669 3.86057 0
M  V30 8348 H 772.819 -1.96768 3.16407 0
M  V30 8349 H 772.932 -0.887664 4.70805 0
M  V30 8350 H 771.296 -0.566648 2.48317 0
M  V30 8351 H 772.079 0.881383 3.31793 0
M  V30 8352 N 774.524 -1.57472 -0.0634922 0
M  V30 8353 C 775.772 -1.87283 -0.759563 0
M  V30 8354 C 776.093 -0.803135 -1.77693 0
M  V30 8355 O 775.363 0.167293 -1.95184 0
M  V30 8356 H 773.943 -0.691106 -0.283516 0
M  V30 8357 H 776.605 -1.94864 -0.0376091 0
M  V30 8358 H 775.701 -2.85064 -1.27062 0
M  V30 8359 N 776.003 0.335068 -1.53997 0
M  V30 8360 C 776.953 1.4127 -1.7896 0
M  V30 8361 C 777.937 1.474 -0.64513 0
M  V30 8362 O 779.129 1.52127 -0.904785 0
M  V30 8363 C 776.258 2.78292 -2.01018 0
M  V30 8364 C 775.344 2.7652 -3.21555 0
M  V30 8365 N 775.735 2.44374 -4.42849 0
M  V30 8366 C 774.033 3.0766 -3.22895 0
M  V30 8367 C 774.734 2.51049 -5.24737 0
M  V30 8368 N 773.71 2.8702 -4.6165 0
M  V30 8369 H 777.512 1.15327 -2.70327 0
M  V30 8370 H 775.026 0.543483 -1.53036 0
M  V30 8371 H 777.023 3.55949 -2.17039 0
M  V30 8372 H 775.683 3.05175 -1.10898 0
M  V30 8373 H 776.694 2.17422 -4.70051 0
M  V30 8374 H 773.371 3.3966 -2.42771 0
M  V30 8375 H 774.761 2.29283 -6.31569 0
M  V30 8376 N 777.481 1.45874 0.596531 0
M  V30 8377 C 778.431 1.5181 1.70111 0
M  V30 8378 C 779.415 0.380293 1.56341 0
M  V30 8379 O 780.607 0.627849 1.6549 0
M  V30 8380 C 777.736 1.49822 3.08883 0
M  V30 8381 C 776.822 2.68845 3.27998 0
M  V30 8382 N 777.213 3.93873 3.17329 0
M  V30 8383 C 775.511 2.64777 3.589 0
M  V30 8384 C 776.212 4.73371 3.38076 0
M  V30 8385 N 775.188 4.0501 3.62585 0
M  V30 8386 H 778.99 2.46289 1.60372 0
M  V30 8387 H 776.504 1.41321 0.800138 0
M  V30 8388 H 778.501 1.5216 3.8814 0
M  V30 8389 H 777.161 0.564086 3.19763 0
M  V30 8390 H 778.172 4.25329 2.95492 0
M  V30 8391 H 774.849 1.80323 3.7655 0
M  V30 8392 H 776.239 5.82357 3.35127 0
M  V30 8393 N 778.959 -0.83999 1.33349 0
M  V30 8394 C 780.189 -1.62492 1.27593 0
M  V30 8395 C 780.597 -1.88559 -0.155597 0
M  V30 8396 O 779.94 -1.46537 -1.10782 0
M  V30 8397 C 780.002 -2.99984 1.98116 0
M  V30 8398 C 779.666 -2.96892 3.47425 0
M  V30 8399 C 780.663 -2.72688 4.42648 0
M  V30 8400 C 778.348 -3.17063 3.89585 0
M  V30 8401 C 780.342 -2.68681 5.78004 0
M  V30 8402 C 778.029 -3.12682 5.25046 0
M  V30 8403 C 779.027 -2.88522 6.19067 0
M  V30 8404 O 778.715 -2.84042 7.52047 0
M  V30 8405 H 778.447 -0.512358 0.440982 0
M  V30 8406 H 781.001 -1.0545 1.76265 0
M  V30 8407 H 779.231 -3.58875 1.44034 0
M  V30 8408 H 780.92 -3.6084 1.85875 0
M  V30 8409 H 781.686 -2.56856 4.114 0
M  V30 8410 H 777.565 -3.34889 3.16813 0
M  V30 8411 H 781.109 -2.49743 6.51363 0
M  V30 8412 H 777.006 -3.28063 5.55918 0
M  V30 8413 H 777.774 -2.99892 7.61582 0
M  V30 8414 N 780.437 -1.16799 -1.0581 0
M  V30 8415 C 781.685 -0.950642 -1.78346 0
M  V30 8416 C 782.006 0.522524 -1.87869 0
M  V30 8417 O 781.276 1.3795 -1.39092 0
M  V30 8418 H 779.856 -0.348736 -0.6606 0
M  V30 8419 H 782.518 -1.47158 -1.27791 0
M  V30 8420 H 781.614 -1.37359 -2.80248 0
M  V30 8421 N 781.915 1.24427 -0.967243 0
M  V30 8422 C 783.326 1.74349 -0.667785 0
M  V30 8423 C 783.677 1.78403 0.816509 0
M  V30 8424 O 782.802 1.41315 1.63887 0
M  V30 8425 C 783.397 3.16628 -1.20548 0
M  V30 8426 C 781.956 3.64059 -0.955934 0
M  V30 8427 C 781.103 2.42715 -1.34106 0
M  V30 8428 H 784.054 1.10136 -1.14262 0
M  V30 8429 H 784.075 3.76183 -0.571547 0
M  V30 8430 H 783.587 3.13646 -2.28578 0
M  V30 8431 H 781.688 3.72441 0.108858 0
M  V30 8432 H 781.801 4.51549 -1.60126 0
M  V30 8433 H 780.165 2.43114 -0.759452 0
M  V30 8434 H 780.948 2.42414 -2.43085 0
M  V30 8435 N 783.393 0.737304 1.3929 0
M  V30 8436 C 784.341 0.0879867 2.32434 0
M  V30 8437 C 785.335 -0.723324 1.53181 0
M  V30 8438 O 786.541 -0.624251 1.68829 0
M  V30 8439 H 782.916 0.00965277 0.751938 0
M  V30 8440 H 784.887 0.889915 2.84821 0
M  V30 8441 C 783.636 -0.803384 3.38291 0
M  V30 8442 H 782.959 -0.18849 3.99355 0
M  V30 8443 H 784.399 -1.22528 4.0591 0
M  V30 8444 C 782.858 -1.93872 2.75527 0
M  V30 8445 O 783.388 -3.03154 2.63553 0
M  V30 8446 N 781.594 -1.72883 2.3358 0
M  V30 8447 H 781.141 -0.840005 2.43519 0
M  V30 8448 H 781.099 -2.49021 1.91927 0
M  V30 8449 N 784.871 -1.49948 0.485112 0
M  V30 8450 C 786.117 -2.02695 -0.0651022 0
M  V30 8451 C 786.45 -1.36534 -1.38102 0
M  V30 8452 O 785.725 -0.495677 -1.88078 0
M  V30 8453 C 786.008 -3.59337 -0.234285 0
M  V30 8454 C 785.861 -4.3605 1.10364 0
M  V30 8455 C 787.18 -4.28996 -0.982351 0
M  V30 8456 H 784.299 -0.736666 -0.0221856 0
M  V30 8457 H 786.941 -1.7913 0.633433 0
M  V30 8458 H 785.091 -3.79546 -0.829262 0
M  V30 8459 H 786.763 -4.27377 1.73627 0
M  V30 8460 H 785.006 -3.99236 1.69686 0
M  V30 8461 H 785.677 -5.43959 0.938743 0
M  V30 8462 H 788.153 -4.13346 -0.477904 0
M  V30 8463 H 787.029 -5.38379 -1.06955 0
M  V30 8464 H 787.29 -3.93135 -2.02231 0
M  V30 8465 N 786.349 -0.21828 -1.56081 0
M  V30 8466 C 787.626 0.463143 -1.90038 0
M  V30 8467 C 788.006 1.77982 -1.13515 0
M  V30 8468 O 787.354 2.27199 -0.24345 0
M  V30 8469 C 787.564 0.659292 -3.42716 0
M  V30 8470 C 788.912 0.968203 -4.13414 0
M  V30 8471 O 789.936 0.746195 -3.48296 0
M  V30 8472 O 788.795 1.38936 -5.28544 0
M  V30 8473 H 785.889 0.244435 -0.790051 0
M  V30 8474 H 788.435 -0.260221 -1.67693 0
M  V30 8475 H 787.207 -0.269584 -3.9037 0
M  V30 8476 H 786.83 1.43426 -3.7083 0
M  V30 8477 N 787.827 1.57504 0.0551401 0
M  V30 8478 C 789.075 1.87684 0.74962 0
M  V30 8479 C 789.396 0.812547 1.77264 0
M  V30 8480 O 788.666 -0.15694 1.9527 0
M  V30 8481 H 787.246 0.6926 0.279846 0
M  V30 8482 H 789.908 1.94881 0.0272745 0
M  V30 8483 H 789.004 2.85734 1.25548 0
M  V30 8484 N 789.305 -0.326896 1.54172 0
M  V30 8485 C 790.535 -1.08328 1.75922 0
M  V30 8486 C 790.943 -1.82302 0.50622 0
M  V30 8487 O 790.286 -1.7581 -0.532581 0
M  V30 8488 C 790.348 -2.1294 2.8965 0
M  V30 8489 C 790.012 -1.58394 4.28673 0
M  V30 8490 C 791.009 -1.02747 5.09646 0
M  V30 8491 C 788.694 -1.62737 4.75207 0
M  V30 8492 C 790.688 -0.52169 6.35261 0
M  V30 8493 C 788.375 -1.11772 6.00791 0
M  V30 8494 C 789.373 -0.565819 6.80652 0
M  V30 8495 O 789.061 -0.0638146 8.03875 0
M  V30 8496 H 788.793 -0.3282 0.590983 0
M  V30 8497 H 791.347 -0.37972 2.0186 0
M  V30 8498 H 789.577 -2.86903 2.59275 0
M  V30 8499 H 791.266 -2.74274 2.99213 0
M  V30 8500 H 792.032 -0.987007 4.74851 0
M  V30 8501 H 787.911 -2.04635 4.13093 0
M  V30 8502 H 791.455 -0.0902544 6.97542 0
M  V30 8503 H 787.352 -1.15524 6.35078 0
M  V30 8504 H 788.12 -0.17955 8.18303 0
M  V30 8505 N 790.784 -1.46188 -0.588786 0
M  V30 8506 C 791.694 -1.58865 -1.72624 0
M  V30 8507 C 792.71 -0.472348 -1.67466 0
M  V30 8508 O 793.886 -0.735638 -1.87484 0
M  V30 8509 C 790.951 -1.56989 -3.0912 0
M  V30 8510 C 790.012 -2.79804 -3.25589 0
M  V30 8511 C 789.245 -2.78009 -4.55573 0
M  V30 8512 O 789.468 -1.86406 -5.39082 0
M  V30 8513 O 788.402 -3.6947 -4.75159 0
M  V30 8514 H 792.228 -2.55047 -1.64878 0
M  V30 8515 H 789.813 -1.28912 -0.755115 0
M  V30 8516 H 791.695 -1.58618 -3.90408 0
M  V30 8517 H 790.37 -0.639648 -3.17317 0
M  V30 8518 H 789.277 -2.83732 -2.43818 0
M  V30 8519 H 790.61 -3.72017 -3.22279 0
M  V30 8520 N 792.262 0.832906 -1.33792 0
M  V30 8521 C 793.492 1.61813 -1.28453 0
M  V30 8522 C 793.9 1.88639 0.145595 0
M  V30 8523 O 793.243 1.47122 1.10004 0
M  V30 8524 C 793.305 2.98929 -1.99704 0
M  V30 8525 C 792.969 2.95045 -3.48995 0
M  V30 8526 C 793.966 2.70337 -4.44088 0
M  V30 8527 C 791.651 3.14993 -3.91261 0
M  V30 8528 C 793.645 2.65612 -5.79421 0
M  V30 8529 C 791.332 3.09893 -5.26697 0
M  V30 8530 C 792.33 2.85235 -6.20588 0
M  V30 8531 O 792.018 2.8005 -7.53543 0
M  V30 8532 H 791.75 0.510013 -0.443693 0
M  V30 8533 H 794.304 1.04514 -1.76822 0
M  V30 8534 H 792.534 3.58106 -1.45935 0
M  V30 8535 H 794.223 3.59849 -1.87786 0
M  V30 8536 H 794.989 2.54671 -4.12756 0
M  V30 8537 H 790.868 3.33204 -3.18584 0
M  V30 8538 H 794.412 2.46285 -6.52679 0
M  V30 8539 H 790.309 3.2511 -5.5765 0
M  V30 8540 H 791.077 2.95849 -7.63162 0
M  V30 8541 N 793.74 1.17359 1.05189 0
M  V30 8542 C 794.965 0.98709 1.82404 0
M  V30 8543 C 795.39 -0.459848 1.82392 0
M  V30 8544 O 794.748 -1.32924 1.23292 0
M  V30 8545 C 794.796 1.53276 3.26403 0
M  V30 8546 O 793.9 0.746541 4.05587 0
M  V30 8547 H 793.241 0.35047 0.563974 0
M  V30 8548 H 795.771 1.55856 1.32552 0
M  V30 8549 H 795.781 1.55504 3.77203 0
M  V30 8550 H 794.456 2.58603 3.25726 0
M  V30 8551 H 793.033 0.795671 3.64312 0
M  V30 8552 N 795.218 -1.23913 0.973828 0
M  V30 8553 C 796.168 -2.22892 0.479933 0
M  V30 8554 C 797.152 -1.54726 -0.441434 0
M  V30 8555 O 798.344 -1.74908 -0.271358 0
M  V30 8556 C 795.473 -3.42577 -0.222702 0
M  V30 8557 C 794.559 -4.17981 0.717851 0
M  V30 8558 N 794.95 -4.7045 1.8577 0
M  V30 8559 C 793.248 -4.42841 0.529858 0
M  V30 8560 C 793.949 -5.27751 2.44651 0
M  V30 8561 N 792.925 -5.15302 1.73104 0
M  V30 8562 H 796.727 -2.61083 1.34956 0
M  V30 8563 H 794.241 -1.39368 0.83368 0
M  V30 8564 H 796.238 -4.1265 -0.593793 0
M  V30 8565 H 794.898 -3.05904 -1.0887 0
M  V30 8566 H 795.909 -4.66997 2.23908 0
M  V30 8567 H 792.586 -4.1648 -0.291664 0
M  V30 8568 H 793.976 -5.79011 3.40875 0
M  V30 8569 N 796.696 -0.74468 -1.38897 0
M  V30 8570 C 797.942 -0.306249 -2.01081 0
M  V30 8571 C 798.297 1.09724 -1.58046 0
M  V30 8572 O 797.59 1.73923 -0.803834 0
M  V30 8573 C 797.784 -0.357302 -3.55609 0
M  V30 8574 C 797.613 -1.76421 -4.13649 0
M  V30 8575 C 796.383 -2.3787 -4.4581 0
M  V30 8576 C 798.581 -2.71942 -4.36523 0
M  V30 8577 N 796.563 -3.70614 -4.89406 0
M  V30 8578 C 797.934 -3.89437 -4.8243 0
M  V30 8579 C 799.989 -2.69579 -4.18607 0
M  V30 8580 C 798.692 -5.04917 -5.123 0
M  V30 8581 C 800.718 -3.8421 -4.49596 0
M  V30 8582 C 800.08 -5.00442 -4.95719 0
M  V30 8583 H 796.179 -0.158531 -0.765762 0
M  V30 8584 H 798.763 -0.972726 -1.6866 0
M  V30 8585 H 796.934 0.278865 -3.87398 0
M  V30 8586 H 798.666 0.100599 -4.04575 0
M  V30 8587 H 795.421 -1.8971 -4.33943 0
M  V30 8588 H 795.845 -4.38791 -5.1555 0
M  V30 8589 H 800.487 -1.80905 -3.82143 0
M  V30 8590 H 798.205 -5.94213 -5.47665 0
M  V30 8591 H 801.791 -3.83691 -4.37347 0
M  V30 8592 H 800.671 -5.87671 -5.19242 0
M  V30 8593 N 798.174 1.49689 -0.493057 0
M  V30 8594 C 799.422 2.02027 0.0541642 0
M  V30 8595 C 799.743 1.37554 1.38217 0
M  V30 8596 O 799.013 0.528174 1.88646 0
M  V30 8597 H 797.593 0.746646 0.0230069 0
M  V30 8598 H 800.255 1.83795 -0.648489 0
M  V30 8599 H 799.351 3.11523 0.189652 0
M  V30 8600 N 799.652 0.226554 1.55963 0
M  V30 8601 C 800.88 -0.408507 2.02827 0
M  V30 8602 C 801.295 -1.52994 1.10627 0
M  V30 8603 O 800.652 -1.82126 0.116809 0
M  V30 8604 C 800.703 -0.93545 3.49187 0
M  V30 8605 O 800.424 0.141273 4.37872 0
M  V30 8606 C 801.925 -1.64325 4.11719 0
M  V30 8607 H 799.145 -0.099442 0.66359 0
M  V30 8608 H 801.689 0.344471 2.01578 0
M  V30 8609 H 799.844 -1.63868 3.51036 0
M  V30 8610 H 800.258 -0.25558 5.23877 0
M  V30 8611 H 801.732 -1.9639 5.15883 0
M  V30 8612 H 802.209 -2.55815 3.57009 0
M  V30 8613 H 802.815 -0.9851 4.13734 0
M  V30 8614 N 801.13 -1.57531 -0.0467866 0
M  V30 8615 C 802.36 -1.92417 -0.752279 0
M  V30 8616 C 802.768 -0.823134 -1.70356 0
M  V30 8617 O 802.111 0.210598 -1.82489 0
M  V30 8618 C 802.173 -3.22974 -1.57887 0
M  V30 8619 C 801.837 -4.50045 -0.794285 0
M  V30 8620 C 802.834 -5.19799 -0.102368 0
M  V30 8621 C 800.519 -4.96608 -0.754061 0
M  V30 8622 C 802.513 -6.34385 0.619267 0
M  V30 8623 C 800.2 -6.11093 -0.0286682 0
M  V30 8624 C 801.198 -6.79835 0.656772 0
M  V30 8625 O 800.886 -7.92133 1.37042 0
M  V30 8626 H 800.618 -0.640029 -0.217576 0
M  V30 8627 H 803.172 -2.05395 -0.0137438 0
M  V30 8628 H 801.402 -3.06273 -2.3608 0
M  V30 8629 H 803.091 -3.43319 -2.16533 0
M  V30 8630 H 803.857 -4.8484 -0.124589 0
M  V30 8631 H 799.736 -4.42958 -1.27706 0
M  V30 8632 H 803.28 -6.87975 1.15483 0
M  V30 8633 H 799.177 -6.455 -0.00446214 0
M  V30 8634 H 799.945 -8.08394 1.28227 0
M  V30 8635 N 802.608 0.318715 -1.54344 0
M  V30 8636 C 803.558 1.39364 -1.80448 0
M  V30 8637 C 804.542 1.46708 -0.660728 0
M  V30 8638 O 805.734 1.51159 -0.920869 0
M  V30 8639 C 802.863 2.76144 -2.03959 0
M  V30 8640 C 801.949 2.73094 -3.24469 0
M  V30 8641 N 802.34 2.39663 -4.45416 0
M  V30 8642 C 800.638 3.04218 -3.2614 0
M  V30 8643 C 801.339 2.45469 -5.27371 0
M  V30 8644 N 800.315 2.82107 -4.64668 0
M  V30 8645 H 804.117 1.12453 -2.71535 0
M  V30 8646 H 801.631 0.527221 -1.53604 0
M  V30 8647 H 803.628 3.53627 -2.20802 0
M  V30 8648 H 802.288 3.03982 -1.14129 0
M  V30 8649 H 803.299 2.12424 -4.72331 0
M  V30 8650 H 799.976 3.37066 -2.4636 0
M  V30 8651 H 801.366 2.22571 -6.33965 0
M  V30 8652 N 804.086 1.46499 0.581025 0
M  V30 8653 C 805.316 1.55244 1.36319 0
M  V30 8654 C 805.724 0.193059 1.88212 0
M  V30 8655 O 805.067 -0.820109 1.64377 0
M  V30 8656 C 805.129 2.498 2.58535 0
M  V30 8657 C 804.793 3.96007 2.28096 0
M  V30 8658 C 805.79 4.85171 1.8683 0
M  V30 8659 C 803.475 4.41152 2.40189 0
M  V30 8660 C 805.469 6.17493 1.58053 0
M  V30 8661 C 803.156 5.73508 2.11024 0
M  V30 8662 C 804.154 6.615 1.70021 0
M  V30 8663 O 803.842 7.914 1.41215 0
M  V30 8664 H 803.574 0.527513 0.422736 0
M  V30 8665 H 806.128 1.92623 0.713139 0
M  V30 8666 H 804.358 2.07443 3.2635 0
M  V30 8667 H 806.047 2.48934 3.20604 0
M  V30 8668 H 806.813 4.51548 1.77001 0
M  V30 8669 H 802.692 3.72886 2.71066 0
M  V30 8670 H 806.236 6.86131 1.25974 0
M  V30 8671 H 802.133 6.06679 2.20478 0
M  V30 8672 H 802.901 8.03681 1.55046 0
M  V30 8673 N 805.565 -0.825799 1.34232 0
M  V30 8674 C 806.528 -1.91808 1.25468 0
M  V30 8675 C 807.528 -1.59893 0.170567 0
M  V30 8676 O 808.718 -1.68986 0.422996 0
M  V30 8677 C 805.85 -3.27786 0.93644 0
M  V30 8678 H 807.043 -2.01003 2.22571 0
M  V30 8679 H 804.596 -1.01944 1.18479 0
M  V30 8680 H 805.331 -3.24285 -0.0315408 0
M  V30 8681 H 805.116 -3.52333 1.72057 0
M  V30 8682 H 806.606 -4.07782 0.900214 0
M  V30 8683 N 807.043 -1.17915 -1.04565 0
M  V30 8684 C 808.32 -0.881187 -1.74627 0
M  V30 8685 C 808.7 0.617123 -2.01878 0
M  V30 8686 O 808.048 1.57032 -1.65991 0
M  V30 8687 C 808.258 -1.72299 -3.03503 0
M  V30 8688 C 809.606 -1.94688 -3.77335 0
M  V30 8689 O 810.63 -1.6931 -3.13389 0
M  V30 8690 O 809.489 -2.37379 -4.92253 0
M  V30 8691 H 806.583 -0.326864 -0.759664 0
M  V30 8692 H 809.129 -1.28642 -1.10676 0
M  V30 8693 H 807.901 -2.73891 -2.79462 0
M  V30 8694 H 807.524 -1.31593 -3.75192 0
M  V30 8695 N 808.521 1.23394 -0.980386 0
M  V30 8696 C 809.937 1.43961 -0.689008 0
M  V30 8697 C 810.137 1.87229 0.744809 0
M  V30 8698 O 809.193 2.01831 1.51725 0
M  V30 8699 C 810.506 2.49128 -1.68392 0
M  V30 8700 C 812.054 2.62941 -1.69796 0
M  V30 8701 C 812.529 3.71317 -2.68118 0
M  V30 8702 N 814.02 3.7876 -2.66636 0
M  V30 8703 C 814.755 4.62176 -3.39383 0
M  V30 8704 N 814.251 5.49682 -4.21688 0
M  V30 8705 N 816.044 4.56372 -3.28147 0
M  V30 8706 H 808.195 0.936106 -1.90659 0
M  V30 8707 H 810.458 0.473023 -0.821555 0
M  V30 8708 H 810.164 2.24252 -2.70931 0
M  V30 8709 H 810.038 3.47514 -1.46675 0
M  V30 8710 H 812.425 2.87168 -0.679617 0
M  V30 8711 H 812.506 1.64871 -1.95579 0
M  V30 8712 H 812.15 3.4784 -3.70095 0
M  V30 8713 H 812.08 4.68929 -2.3961 0
M  V30 8714 H 814.571 3.16226 -2.06904 0
M  V30 8715 H 814.884 6.10323 -4.74053 0
M  V30 8716 H 813.229 5.49306 -4.25779 0
M  V30 8717 H 816.42 3.87029 -2.63299 0
M  V30 8718 H 816.593 5.21153 -3.85102 0
M  V30 8719 N 809.999 0.752036 1.385 0
M  V30 8720 C 811.276 0.233075 1.94206 0
M  V30 8721 C 811.656 -1.26838 1.68746 0
M  V30 8722 O 811.004 -2.04214 1.02513 0
M  V30 8723 C 811.214 0.58509 3.44061 0
M  V30 8724 C 812.562 0.543871 4.21102 0
M  V30 8725 O 813.586 0.523291 3.52335 0
M  V30 8726 O 812.445 0.553436 5.4369 0
M  V30 8727 H 809.539 0.0483049 0.825588 0
M  V30 8728 H 812.085 0.832053 1.47902 0
M  V30 8729 H 810.857 1.62212 3.56094 0
M  V30 8730 H 810.48 -0.0419738 3.97578 0
M  V30 8731 N 811.477 -1.49425 0.500989 0
M  V30 8732 C 812.725 -2.02053 -0.0434495 0
M  V30 8733 C 813.046 -1.38285 -1.37486 0
M  V30 8734 O 812.316 -0.538171 -1.88363 0
M  V30 8735 H 810.896 -0.746757 -0.0190469 0
M  V30 8736 H 813.558 -1.83449 0.658227 0
M  V30 8737 H 812.654 -3.11619 -0.173129 0
M  V30 8738 N 812.955 -0.234822 -1.55841 0
M  V30 8739 C 814.204 0.393685 -1.97821 0
M  V30 8740 C 814.517 1.59947 -1.1259 0
M  V30 8741 O 815.723 2.29835 -1.44528 0
M  V30 8742 C 814.179 0.751811 -3.5196 0
M  V30 8743 C 813.787 -0.431898 -4.45913 0
M  V30 8744 C 815.531 1.34518 -4.02623 0
M  V30 8745 C 813.438 -0.0505976 -5.91378 0
M  V30 8746 H 812.368 0.150864 -0.738753 0
M  V30 8747 H 815.019 -0.333132 -1.80451 0
M  V30 8748 H 813.401 1.53642 -3.6498 0
M  V30 8749 H 814.575 -1.20935 -4.44647 0
M  V30 8750 H 812.89 -0.939385 -4.05666 0
M  V30 8751 H 815.487 1.64359 -5.08813 0
M  V30 8752 H 815.83 2.26554 -3.49255 0
M  V30 8753 H 816.363 0.623729 -3.9288 0
M  V30 8754 H 813.102 -0.937779 -6.48757 0
M  V30 8755 H 812.622 0.690898 -5.95808 0
M  V30 8756 H 814.301 0.37146 -6.45933 0
M  V30 8757 N 814.433 1.57553 0.0384317 0
M  V30 8758 C 815.681 1.88468 0.729672 0
M  V30 8759 C 816.002 0.831302 1.76393 0
M  V30 8760 O 815.272 -0.13622 1.95426 0
M  V30 8761 H 813.852 0.695529 0.272485 0
M  V30 8762 H 816.514 1.94899 0.0066032 0
M  V30 8763 H 815.61 2.8705 1.22511 0
M  V30 8764 N 815.911 -0.310526 1.54511 0
M  V30 8765 C 817.157 -1.04846 1.73595 0
M  V30 8766 C 817.49 -1.87244 0.515118 0
M  V30 8767 O 816.765 -1.88282 -0.48786 0
M  V30 8768 C 817.048 -1.96237 3.01932 0
M  V30 8769 C 816.901 -1.17082 4.34295 0
M  V30 8770 C 818.22 -2.9556 3.26086 0
M  V30 8771 H 815.339 -0.37976 0.631626 0
M  V30 8772 H 817.981 -0.32394 1.87218 0
M  V30 8773 H 816.131 -2.58015 2.90449 0
M  V30 8774 H 817.803 -0.576643 4.57682 0
M  V30 8775 H 816.046 -0.473336 4.3121 0
M  V30 8776 H 816.717 -1.84257 5.20339 0
M  V30 8777 H 819.193 -2.43908 3.37117 0
M  V30 8778 H 818.069 -3.5668 4.17218 0
M  V30 8779 H 818.33 -3.68715 2.4393 0
M  V30 8780 N 817.389 -1.46805 -0.573248 0
M  V30 8781 C 818.666 -1.43082 -1.33368 0
M  V30 8782 C 819.046 -0.119252 -2.10763 0
M  V30 8783 O 818.394 0.899239 -2.10062 0
M  V30 8784 C 818.604 -2.66643 -2.25172 0
M  V30 8785 C 819.952 -3.13188 -2.86702 0
M  V30 8786 O 820.976 -2.67258 -2.35482 0
M  V30 8787 O 819.835 -3.92994 -3.79761 0
M  V30 8788 H 816.929 -0.569451 -0.599712 0
M  V30 8789 H 819.475 -1.58984 -0.59348 0
M  V30 8790 H 818.247 -3.53649 -1.67475 0
M  V30 8791 H 817.87 -2.53247 -3.06516 0
M  V30 8792 N 818.867 0.818669 -1.34668 0
M  V30 8793 C 820.283 1.11243 -1.14443 0
M  V30 8794 C 820.483 2.01435 0.0512212 0
M  V30 8795 O 819.539 2.41854 0.725471 0
M  V30 8796 C 820.852 1.75504 -2.4417 0
M  V30 8797 C 822.4 1.8798 -2.50265 0
M  V30 8798 C 822.875 2.55657 -3.80004 0
M  V30 8799 N 824.366 2.63153 -3.81189 0
M  V30 8800 C 825.101 3.16258 -4.78298 0
M  V30 8801 N 824.597 3.69893 -5.85791 0
M  V30 8802 N 826.39 3.14698 -4.65748 0
M  V30 8803 H 818.541 0.218848 -2.1127 0
M  V30 8804 H 820.804 0.159655 -0.934459 0
M  V30 8805 H 820.51 1.16697 -3.31775 0
M  V30 8806 H 820.384 2.75329 -2.57825 0
M  V30 8807 H 822.771 2.45934 -1.63096 0
M  V30 8808 H 822.852 0.870447 -2.40535 0
M  V30 8809 H 822.496 1.98356 -4.67565 0
M  V30 8810 H 822.426 3.57105 -3.87019 0
M  V30 8811 H 824.917 2.2514 -3.03513 0
M  V30 8812 H 825.23 4.08678 -6.55898 0
M  V30 8813 H 823.575 3.68125 -5.89499 0
M  V30 8814 H 826.766 2.72066 -3.80917 0
M  V30 8815 H 826.939 3.5578 -5.41594 0
M  V30 8816 N 820.346 1.18468 1.03938 0
M  V30 8817 C 821.574 1.00576 1.80809 0
M  V30 8818 C 821.989 -0.445786 1.83462 0
M  V30 8819 O 821.346 -1.30964 1.27101 0
M  V30 8820 C 821.397 1.55491 3.26351 0
M  V30 8821 O 821.118 2.94963 3.23926 0
M  V30 8822 C 822.619 1.42236 4.19862 0
M  V30 8823 H 819.839 0.35508 0.56935 0
M  V30 8824 H 822.383 1.57046 1.30984 0
M  V30 8825 H 820.538 1.03195 3.73403 0
M  V30 8826 H 820.952 3.20598 4.15111 0
M  V30 8827 H 822.426 1.85455 5.19914 0
M  V30 8828 H 822.903 0.371267 4.37628 0
M  V30 8829 H 823.509 1.9361 3.78675 0
M  V30 8830 N 821.824 -1.22873 0.986916 0
M  V30 8831 C 823.07 -1.91746 0.660401 0
M  V30 8832 C 823.403 -1.76738 -0.804812 0
M  V30 8833 O 822.678 -1.13246 -1.58131 0
M  V30 8834 C 822.961 -3.44156 1.05966 0
M  V30 8835 C 822.814 -3.68242 2.58298 0
M  V30 8836 C 824.133 -4.35874 0.60842 0
M  V30 8837 H 821.252 -0.696347 0.241391 0
M  V30 8838 H 823.894 -1.44867 1.22937 0
M  V30 8839 H 822.044 -3.84213 0.575534 0
M  V30 8840 H 823.716 -3.37626 3.14335 0
M  V30 8841 H 821.959 -3.12728 3.00638 0
M  V30 8842 H 822.63 -4.74956 2.81285 0
M  V30 8843 H 825.106 -4.03299 1.02417 0
M  V30 8844 H 823.982 -5.41201 0.916142 0
M  V30 8845 H 824.243 -4.39364 -0.491086 0
M  V30 8846 N 823.302 -0.75937 -1.38099 0
M  V30 8847 C 824.265 -0.14372 -2.28749 0
M  V30 8848 C 825.265 0.641338 -1.47457 0
M  V30 8849 O 826.455 0.466751 -1.67831 0
M  V30 8850 C 823.587 0.804545 -3.3127 0
M  V30 8851 H 824.78 -0.942663 -2.847 0
M  V30 8852 H 822.333 -0.526757 -1.47156 0
M  V30 8853 H 823.068 1.62895 -2.80421 0
M  V30 8854 H 822.853 0.243939 -3.9134 0
M  V30 8855 H 824.343 1.23111 -3.99041 0
M  V30 8856 N 824.78 1.49157 -0.508906 0
M  V30 8857 C 826.008 2.06879 0.0293734 0
M  V30 8858 C 826.423 1.36823 1.30095 0
M  V30 8859 O 825.78 0.449034 1.7689 0
M  V30 8860 C 825.831 3.60423 0.278791 0
M  V30 8861 O 825.552 4.27844 -0.942389 0
M  V30 8862 C 827.053 4.34881 0.859825 0
M  V30 8863 H 824.273 0.67057 -0.0240184 0
M  V30 8864 H 826.817 1.91834 -0.708526 0
M  V30 8865 H 824.972 3.75145 0.966689 0
M  V30 8866 H 825.386 5.19671 -0.710097 0
M  V30 8867 H 826.86 5.43161 0.983884 0
M  V30 8868 H 827.337 3.9789 1.85958 0
M  V30 8869 H 827.943 4.24785 0.209152 0
M  V30 8870 N 826.258 0.243083 1.55714 0
M  V30 8871 C 827.506 -0.381964 1.98458 0
M  V30 8872 C 827.827 -1.58745 1.13247 0
M  V30 8873 O 827.097 -1.94723 0.214384 0
M  V30 8874 H 825.677 -0.144114 0.732967 0
M  V30 8875 H 828.339 0.340985 1.91894 0
M  V30 8876 H 827.435 -0.693702 3.04293 0
M  V30 8877 N 827.736 -1.57571 -0.0300757 0
M  V30 8878 C 828.964 -1.93485 -0.732891 0
M  V30 8879 C 829.379 -0.842758 -1.68947 0
M  V30 8880 O 828.736 0.180904 -1.81601 0
M  V30 8881 C 828.787 -3.29328 -1.49082 0
M  V30 8882 O 828.508 -4.34341 -0.572639 0
M  V30 8883 C 830.009 -3.79517 -2.29088 0
M  V30 8884 H 827.229 -0.638588 -0.206026 0
M  V30 8885 H 829.773 -2.04496 0.0120966 0
M  V30 8886 H 827.928 -3.19716 -2.1877 0
M  V30 8887 H 828.342 -5.12748 -1.10406 0
M  V30 8888 H 829.816 -4.77081 -2.77665 0
M  V30 8889 H 830.293 -3.10659 -3.10464 0
M  V30 8890 H 830.899 -3.92208 -1.64477 0
M  V30 8891 N 829.214 0.302327 -1.54673 0
M  V30 8892 C 830.462 1.03565 -1.73547 0
M  V30 8893 C 830.783 1.87843 -0.523448 0
M  V30 8894 O 830.053 1.90367 0.462295 0
M  V30 8895 H 828.633 0.385358 -0.639928 0
M  V30 8896 H 831.295 0.333632 -1.92023 0
M  V30 8897 H 830.391 1.68952 -2.62415 0
M  V30 8898 N 830.692 1.47107 0.565454 0
M  V30 8899 C 831.922 1.56681 1.34664 0
M  V30 8900 C 832.33 0.213011 1.87997 0
M  V30 8901 O 831.673 -0.802629 1.65238 0
M  V30 8902 C 831.735 2.52528 2.55871 0
M  V30 8903 C 831.399 3.98403 2.23883 0
M  V30 8904 C 832.396 4.87125 1.81673 0
M  V30 8905 C 830.081 4.43674 2.35496 0
M  V30 8906 C 832.075 6.19135 1.51494 0
M  V30 8907 C 829.762 5.75714 2.0493 0
M  V30 8908 C 830.76 6.63266 1.62996 0
M  V30 8909 O 830.448 7.92853 1.32813 0
M  V30 8910 H 830.18 0.531967 0.417117 0
M  V30 8911 H 832.734 1.93368 0.692669 0
M  V30 8912 H 830.964 2.10893 3.24131 0
M  V30 8913 H 832.653 2.5232 3.17945 0
M  V30 8914 H 833.419 4.534 1.72201 0
M  V30 8915 H 829.298 3.7574 2.67096 0
M  V30 8916 H 832.842 6.87429 1.1869 0
M  V30 8917 H 828.739 6.08983 2.14031 0
M  V30 8918 H 829.507 8.0528 1.46513 0
M  V30 8919 N 832.17 -0.811516 1.35101 0
M  V30 8920 C 833.398 -1.59981 1.31201 0
M  V30 8921 C 833.813 -1.8847 -0.111552 0
M  V30 8922 O 833.17 -1.48414 -1.06205 0
M  V30 8923 C 833.221 -2.934 2.11184 0
M  V30 8924 O 832.942 -2.66148 3.4799 0
M  V30 8925 C 834.443 -3.87776 2.14813 0
M  V30 8926 H 831.663 -0.496921 0.450899 0
M  V30 8927 H 834.207 -1.00886 1.77883 0
M  V30 8928 H 832.362 -3.49022 1.68115 0
M  V30 8929 H 832.776 -3.51301 3.89471 0
M  V30 8930 H 834.25 -4.7852 2.75178 0
M  V30 8931 H 834.727 -4.23997 1.14556 0
M  V30 8932 H 835.333 -3.3809 2.58022 0
M  V30 8933 N 833.648 -1.19017 -1.03309 0
M  V30 8934 C 834.611 -0.926076 -2.09658 0
M  V30 8935 C 835.611 0.0917077 -1.60538 0
M  V30 8936 O 836.801 -0.142574 -1.73616 0
M  V30 8937 C 833.933 -0.390958 -3.38651 0
M  V30 8938 H 835.126 -1.86923 -2.3452 0
M  V30 8939 H 832.679 -1.00325 -1.19853 0
M  V30 8940 H 833.414 0.558446 -3.19456 0
M  V30 8941 H 833.199 -1.12474 -3.75622 0
M  V30 8942 H 834.689 -0.225131 -4.16993 0
M  V30 8943 N 835.127 1.22348 -0.993418 0
M  V30 8944 C 836.059 2.23626 -0.502404 0
M  V30 8945 C 837.072 1.57739 0.402784 0
M  V30 8946 O 838.261 1.77321 0.204835 0
M  V30 8947 C 835.361 3.37647 0.291118 0
M  V30 8948 C 834.534 4.33121 -0.610332 0
M  V30 8949 C 833.593 5.26035 0.131572 0
M  V30 8950 O 832.619 5.67145 -0.483199 0
M  V30 8951 N 833.821 5.63023 1.41371 0
M  V30 8952 H 836.586 2.66385 -1.37329 0
M  V30 8953 H 834.147 1.36653 -0.868196 0
M  V30 8954 H 836.139 3.96792 0.796107 0
M  V30 8955 H 834.709 2.93967 1.0631 0
M  V30 8956 H 833.929 3.72287 -1.29598 0
M  V30 8957 H 835.217 4.93853 -1.22422 0
M  V30 8958 H 834.615 5.31596 1.93449 0
M  V30 8959 H 833.172 6.24582 1.86388 0
M  V30 8960 N 836.605 0.766683 1.37694 0
M  V30 8961 C 837.835 0.339446 2.03792 0
M  V30 8962 C 838.243 -1.04153 1.57952 0
M  V30 8963 O 837.586 -1.67521 0.753826 0
M  V30 8964 C 837.648 0.29822 3.58261 0
M  V30 8965 C 837.312 1.62293 4.27212 0
M  V30 8966 C 838.309 2.57447 4.51682 0
M  V30 8967 C 835.994 1.89597 4.65143 0
M  V30 8968 C 837.988 3.78117 5.13134 0
M  V30 8969 C 835.675 3.10538 5.26317 0
M  V30 8970 C 836.673 4.04617 5.50249 0
M  V30 8971 O 836.361 5.23429 6.10145 0
M  V30 8972 H 836.093 0.140952 0.661142 0
M  V30 8973 H 838.647 1.04022 1.77111 0
M  V30 8974 H 836.877 -0.458897 3.83967 0
M  V30 8975 H 838.566 -0.101263 4.05774 0
M  V30 8976 H 839.332 2.37633 4.22795 0
M  V30 8977 H 835.211 1.17199 4.45854 0
M  V30 8978 H 838.755 4.51563 5.3173 0
M  V30 8979 H 834.652 3.3024 5.54628 0
M  V30 8980 H 835.42 5.24187 6.28626 0
M  V30 8981 N 838.083 -1.48885 0.516809 0
M  V30 8982 C 839.33 -2.02488 -0.0220602 0
M  V30 8983 C 839.658 -1.39513 -1.35523 0
M  V30 8984 O 838.913 -0.52558 -1.8851 0
M  V30 8985 C 839.212 -3.56801 -0.206798 0
M  V30 8986 C 838.878 -4.38496 1.05035 0
M  V30 8987 C 837.54 -4.60538 1.39492 0
M  V30 8988 C 839.892 -4.85909 1.88525 0
M  V30 8989 C 837.22 -5.2724 2.57361 0
M  V30 8990 C 839.572 -5.53909 3.05561 0
M  V30 8991 C 838.236 -5.74193 3.4038 0
M  V30 8992 H 837.506 -0.740956 -0.00807238 0
M  V30 8993 H 840.153 -1.79014 0.680168 0
M  V30 8994 H 838.458 -3.79042 -0.991687 0
M  V30 8995 H 840.155 -3.95885 -0.638447 0
M  V30 8996 H 836.745 -4.2159 0.771984 0
M  V30 8997 H 840.929 -4.68694 1.63218 0
M  V30 8998 H 836.185 -5.41145 2.84556 0
M  V30 8999 H 840.359 -5.89619 3.7057 0
M  V30 9000 H 837.986 -6.25652 4.31814 0
M  V30 9001 N 839.561 -0.251338 -1.55583 0
M  V30 9002 C 840.972 0.25098 -1.85005 0
M  V30 9003 C 841.323 1.57259 -1.17321 0
M  V30 9004 O 840.448 2.11603 -0.453136 0
M  V30 9005 C 841.043 0.462161 -3.35633 0
M  V30 9006 C 839.602 0.908737 -3.65266 0
M  V30 9007 C 838.749 -0.0115418 -2.77298 0
M  V30 9008 H 841.7 -0.473782 -1.51463 0
M  V30 9009 H 841.721 1.30415 -3.57452 0
M  V30 9010 H 841.233 -0.499886 -3.84867 0
M  V30 9011 H 839.334 1.8831 -3.21512 0
M  V30 9012 H 839.447 0.762526 -4.72993 0
M  V30 9013 H 837.811 0.500612 -2.49732 0
M  V30 9014 H 838.594 -0.969042 -3.29339 0
M  V30 9015 N 841.039 1.57585 0.0217189 0
M  V30 9016 C 841.949 2.10444 1.03684 0
M  V30 9017 C 842.965 1.04472 1.39146 0
M  V30 9018 O 844.141 1.36249 1.48317 0
M  V30 9019 C 841.206 2.5794 2.31664 0
M  V30 9020 C 840.267 3.78425 2.02714 0
M  V30 9021 C 839.5 4.23646 3.24592 0
M  V30 9022 O 839.723 3.6834 4.35525 0
M  V30 9023 O 838.657 5.16013 3.09862 0
M  V30 9024 H 842.483 2.97354 0.617584 0
M  V30 9025 H 840.068 1.47473 0.239174 0
M  V30 9026 H 841.95 2.88785 3.06889 0
M  V30 9027 H 840.625 1.74138 2.7287 0
M  V30 9028 H 839.532 3.52587 1.25033 0
M  V30 9029 H 840.865 4.63234 1.66359 0
M  V30 9030 N 842.517 -0.29412 1.54831 0
M  V30 9031 C 843.465 -1.38296 1.87021 0
M  V30 9032 C 844.459 -1.5216 0.744557 0
M  V30 9033 O 845.665 -1.54196 0.92864 0
M  V30 9034 H 842.04 -0.462088 0.593278 0
M  V30 9035 H 844.011 -1.08386 2.7802 0
M  V30 9036 C 842.76 -2.74024 2.14023 0
M  V30 9037 H 842.083 -2.6414 3.00117 0
M  V30 9038 H 843.523 -3.49205 2.40482 0
M  V30 9039 C 841.982 -3.23492 0.940982 0
M  V30 9040 O 842.512 -4.01361 0.164937 0
M  V30 9041 N 840.718 -2.80902 0.744467 0
M  V30 9042 H 840.265 -2.17694 1.37721 0
M  V30 9043 H 840.223 -3.14349 -0.0563652 0
M  V30 9044 N 843.995 -1.47404 -0.557645 0
M  V30 9045 C 844.958 -1.59411 -1.64684 0
M  V30 9046 C 845.958 -0.469244 -1.53801 0
M  V30 9047 O 847.148 -0.734298 -1.57967 0
M  V30 9048 C 844.28 -1.5382 -3.04224 0
M  V30 9049 H 845.473 -2.56504 -1.55389 0
M  V30 9050 H 843.026 -1.35588 -0.777531 0
M  V30 9051 H 843.761 -0.581 -3.19053 0
M  V30 9052 H 843.546 -2.35456 -3.13533 0
M  V30 9053 H 845.036 -1.65358 -3.83466 0
M  V30 9054 N 845.473 0.80434 -1.35529 0
M  V30 9055 C 846.436 1.89788 -1.28503 0
M  V30 9056 C 847.436 1.59601 -0.195983 0
M  V30 9057 O 848.626 1.68292 -0.449827 0
M  V30 9058 C 845.758 3.26255 -0.98847 0
M  V30 9059 H 846.951 1.97436 -2.25741 0
M  V30 9060 H 844.504 1.00046 -1.20086 0
M  V30 9061 H 845.239 3.24294 -0.0200541 0
M  V30 9062 H 845.024 3.49551 -1.77641 0
M  V30 9063 H 846.514 4.06298 -0.964975 0
M  V30 9064 N 846.951 1.19563 1.02676 0
M  V30 9065 C 847.884 0.878638 2.10607 0
M  V30 9066 C 848.862 -0.165176 1.61759 0
M  V30 9067 O 850.046 -0.041014 1.88455 0
M  V30 9068 C 847.173 0.315347 3.37229 0
M  V30 9069 C 846.219 1.33855 4.04951 0
M  V30 9070 S 847.052 2.89982 4.50189 0
M  V30 9071 C 848.208 2.35202 5.80027 0
M  V30 9072 H 848.441 1.79268 2.37171 0
M  V30 9073 H 845.974 1.023 1.15646 0
M  V30 9074 H 847.932 -0.00311911 4.105 0
M  V30 9075 H 846.593 -0.577035 3.08754 0
M  V30 9076 H 845.786 0.893581 4.96015 0
M  V30 9077 H 845.388 1.60397 3.37859 0
M  V30 9078 H 847.68 1.74329 6.54687 0
M  V30 9079 H 848.623 3.24622 6.29306 0
M  V30 9080 H 849.031 1.77702 5.35801 0
M  V30 9081 N 848.429 -1.21819 0.999893 0
M  V30 9082 C 849.659 -1.94475 0.697346 0
M  V30 9083 C 850.067 -1.73991 -0.743228 0
M  V30 9084 O 849.41 -1.04042 -1.51397 0
M  V30 9085 C 849.472 -3.47204 0.932181 0
M  V30 9086 C 849.136 -3.91432 2.3586 0
M  V30 9087 C 850.133 -3.98545 3.33853 0
M  V30 9088 C 847.818 -4.23888 2.69489 0
M  V30 9089 C 849.812 -4.37499 4.63545 0
M  V30 9090 C 847.499 -4.62519 3.99399 0
M  V30 9091 C 848.497 -4.69294 4.96238 0
M  V30 9092 O 848.185 -5.07048 6.23825 0
M  V30 9093 H 847.917 -0.625419 0.256567 0
M  V30 9094 H 850.471 -1.55728 1.33933 0
M  V30 9095 H 848.701 -3.85997 0.233025 0
M  V30 9096 H 850.39 -4.01078 0.623807 0
M  V30 9097 H 851.156 -3.73654 3.09205 0
M  V30 9098 H 847.035 -4.17815 1.94812 0
M  V30 9099 H 850.579 -4.42702 5.3913 0
M  V30 9100 H 846.476 -4.86864 4.23833 0
M  V30 9101 H 847.244 -5.25098 6.27865 0
M  V30 9102 N 849.908 -0.773975 -1.37286 0
M  V30 9103 C 850.818 -0.162571 -2.34036 0
M  V30 9104 C 851.834 0.677022 -1.60289 0
M  V30 9105 O 853.01 0.596423 -1.92366 0
M  V30 9106 C 850.075 0.70457 -3.39465 0
M  V30 9107 C 849.136 -0.151738 -4.29032 0
M  V30 9108 C 848.369 0.674111 -5.29426 0
M  V30 9109 O 848.592 1.91107 -5.37433 0
M  V30 9110 O 847.526 0.0821398 -6.01844 0
M  V30 9111 H 851.352 -0.962119 -2.88057 0
M  V30 9112 H 848.937 -0.53517 -1.39486 0
M  V30 9113 H 850.819 1.19954 -4.03967 0
M  V30 9114 H 849.494 1.48227 -2.87768 0
M  V30 9115 H 848.401 -0.693118 -3.67623 0
M  V30 9116 H 849.734 -0.892575 -4.84039 0
M  V30 9117 N 851.386 1.48609 -0.524698 0
M  V30 9118 C 852.611 2.07398 0.00952139 0
M  V30 9119 C 853.036 1.37939 1.27884 0
M  V30 9120 O 852.394 0.443633 1.75788 0
M  V30 9121 C 852.442 3.59916 0.221956 0
M  V30 9122 O 851.546 3.91647 1.29175 0
M  V30 9123 H 850.887 0.662981 -0.0367729 0
M  V30 9124 H 853.417 1.91092 -0.7311 0
M  V30 9125 H 853.427 4.05552 0.446236 0
M  V30 9126 H 852.102 4.09876 -0.705306 0
M  V30 9127 H 850.679 3.57796 1.05055 0
M  V30 9128 N 852.864 0.259585 1.55447 0
M  V30 9129 C 853.794 -0.62852 2.24882 0
M  V30 9130 C 854.775 -1.17128 1.23349 0
M  V30 9131 O 855.96 -1.20829 1.52033 0
M  V30 9132 C 853.09 -1.81983 2.95803 0
M  V30 9133 C 852.044 -1.40929 4.04132 0
M  V30 9134 C 851.37 -2.68246 4.62545 0
M  V30 9135 C 852.67 -0.570956 5.1917 0
M  V30 9136 H 854.364 -0.0495021 2.99359 0
M  V30 9137 H 851.91 -0.0223688 1.43983 0
M  V30 9138 H 853.863 -2.44689 3.43082 0
M  V30 9139 H 852.587 -2.42444 2.18835 0
M  V30 9140 H 851.246 -0.805519 3.57641 0
M  V30 9141 H 850.894 -3.26931 3.82263 0
M  V30 9142 H 850.594 -2.41495 5.35681 0
M  V30 9143 H 852.118 -3.31827 5.12565 0
M  V30 9144 H 853.532 -1.10262 5.62597 0
M  V30 9145 H 851.929 -0.398979 5.98772 0
M  V30 9146 H 852.999 0.413918 4.8313 0
M  V30 9147 N 854.342 -1.57594 -0.0133615 0
M  V30 9148 C 855.619 -1.81173 -0.737273 0
M  V30 9149 C 855.999 -0.861395 -1.92726 0
M  V30 9150 O 855.347 0.0929324 -2.28311 0
M  V30 9151 C 855.557 -3.29314 -1.15557 0
M  V30 9152 C 856.905 -3.94707 -1.56498 0
M  V30 9153 O 857.929 -3.33557 -1.24973 0
M  V30 9154 O 856.788 -5.02402 -2.15069 0
M  V30 9155 H 853.882 -0.745575 -0.357837 0
M  V30 9156 H 856.428 -1.69696 0.0110674 0
M  V30 9157 H 855.2 -3.90096 -0.30677 0
M  V30 9158 H 854.823 -3.45739 -1.96343 0
M  V30 9159 N 855.82 0.285905 -1.54985 0
M  V30 9160 C 857.048 1.03776 -1.78992 0
M  V30 9161 C 857.463 1.80402 -0.556814 0
M  V30 9162 O 856.82 1.76242 0.473801 0
M  V30 9163 C 856.871 2.0065 -3.00702 0
M  V30 9164 O 856.592 1.27131 -4.19249 0
M  V30 9165 C 858.093 2.87753 -3.37214 0
M  V30 9166 H 855.313 0.307126 -0.596586 0
M  V30 9167 H 857.857 0.3206 -2.01971 0
M  V30 9168 H 856.012 2.67847 -2.79887 0
M  V30 9169 H 856.426 1.92316 -4.8797 0
M  V30 9170 H 857.9 3.51548 -4.2558 0
M  V30 9171 H 858.377 3.56848 -2.56039 0
M  V30 9172 H 858.983 2.26065 -3.60242 0
M  V30 9173 N 857.298 1.47698 0.54982 0
M  V30 9174 C 858.538 1.56286 1.31735 0
M  V30 9175 C 858.902 0.223042 1.907 0
M  V30 9176 O 860.103 0.183798 2.68171 0
M  V30 9177 C 858.374 2.65522 2.39234 0
M  V30 9178 S 859.933 2.93742 3.25977 0
M  V30 9179 H 856.751 0.551795 0.448378 0
M  V30 9180 H 859.353 1.85118 0.628629 0
M  V30 9181 H 858.057 3.61457 1.94362 0
M  V30 9182 H 857.588 2.38528 3.12838 0
M  V30 9183 H 859.603 2.31522 4.38876 0
M  V30 9184 N 858.776 -0.797141 1.35954 0
M  V30 9185 C 860.187 -1.37179 1.26644 0
M  V30 9186 C 860.538 -1.9596 -0.0971046 0
M  V30 9187 O 859.663 -1.91994 -0.998355 0
M  V30 9188 C 860.258 -2.49395 2.2932 0
M  V30 9189 C 858.817 -3.02697 2.23722 0
M  V30 9190 C 857.964 -1.75721 2.14517 0
M  V30 9191 H 860.915 -0.599407 1.46945 0
M  V30 9192 H 860.936 -3.28204 1.92515 0
M  V30 9193 H 860.448 -2.06584 3.2855 0
M  V30 9194 H 858.549 -3.49948 1.27934 0
M  V30 9195 H 858.662 -3.60036 3.16087 0
M  V30 9196 H 857.026 -1.97649 1.60646 0
M  V30 9197 H 857.809 -1.35049 3.15621 0
M  V30 9198 N 860.254 -1.20106 -1.0204 0
M  V30 9199 C 861.531 -0.918029 -1.72718 0
M  V30 9200 C 861.911 0.574163 -2.03142 0
M  V30 9201 O 861.259 1.53476 -1.69285 0
M  V30 9202 C 861.469 -1.78698 -2.9978 0
M  V30 9203 C 862.817 -2.02648 -3.7312 0
M  V30 9204 O 863.841 -1.75919 -3.09727 0
M  V30 9205 O 862.7 -2.47767 -4.87107 0
M  V30 9206 H 859.794 -0.342904 -0.752559 0
M  V30 9207 H 862.34 -1.30961 -1.07923 0
M  V30 9208 H 861.112 -2.79757 -2.7359 0
M  V30 9209 H 860.735 -1.39522 -3.72316 0
M  V30 9210 N 861.732 1.21287 -1.00634 0
M  V30 9211 C 862.642 2.27388 -0.577226 0
M  V30 9212 C 863.658 1.69791 0.380399 0
M  V30 9213 O 864.834 1.99918 0.2439 0
M  V30 9214 C 861.899 3.46588 0.0880532 0
M  V30 9215 C 860.96 4.19453 -0.914222 0
M  V30 9216 C 860.193 5.32962 -0.280596 0
M  V30 9217 O 860.416 5.62895 0.922265 0
M  V30 9218 O 859.35 5.93666 -0.992196 0
M  V30 9219 H 863.176 2.66289 -1.46028 0
M  V30 9220 H 860.761 1.2771 -0.775283 0
M  V30 9221 H 862.643 4.18881 0.460094 0
M  V30 9222 H 861.318 3.09585 0.945461 0
M  V30 9223 H 860.225 3.49376 -1.33744 0
M  V30 9224 H 861.558 4.6037 -1.74126 0
M  V30 9225 N 863.21 0.781244 1.36873 0
M  V30 9226 C 864.14 0.188128 2.32741 0
M  V30 9227 C 865.121 -0.672326 1.56249 0
M  V30 9228 O 866.306 -0.607835 1.84442 0
M  V30 9229 C 863.436 -0.684341 3.40491 0
M  V30 9230 C 862.39 0.0755641 4.27933 0
M  V30 9231 C 861.716 -0.916968 5.26779 0
M  V30 9232 C 863.016 1.26006 5.06873 0
M  V30 9233 H 864.71 0.989016 2.82593 0
M  V30 9234 H 862.256 0.477038 1.35869 0
M  V30 9235 H 864.209 -1.10915 4.06541 0
M  V30 9236 H 862.933 -1.51785 2.89187 0
M  V30 9237 H 861.592 0.481258 3.63427 0
M  V30 9238 H 861.24 -1.74528 4.71751 0
M  V30 9239 H 860.94 -0.413 5.86147 0
M  V30 9240 H 862.464 -1.34052 5.95703 0
M  V30 9241 H 863.878 0.911425 5.66009 0
M  V30 9242 H 862.275 1.69676 5.75613 0
M  V30 9243 H 863.345 2.05948 4.38991 0
M  V30 9244 N 864.689 -1.48329 0.532571 0
M  V30 9245 C 865.619 -2.32485 -0.217511 0
M  V30 9246 C 866.6 -1.42255 -0.932598 0
M  V30 9247 O 867.785 -1.7114 -0.917873 0
M  V30 9248 C 864.915 -3.23509 -1.26329 0
M  V30 9249 C 863.869 -4.22784 -0.666191 0
M  V30 9250 C 863.195 -5.0296 -1.81482 0
M  V30 9251 C 864.495 -5.21031 0.363813 0
M  V30 9252 H 866.189 -2.95445 0.485014 0
M  V30 9253 H 863.735 -1.42075 0.234694 0
M  V30 9254 H 865.688 -3.81211 -1.79601 0
M  V30 9255 H 864.412 -2.58554 -1.99543 0
M  V30 9256 H 863.071 -3.66272 -0.15498 0
M  V30 9257 H 862.719 -4.34427 -2.5354 0
M  V30 9258 H 862.419 -5.70154 -1.4212 0
M  V30 9259 H 863.943 -5.63514 -2.35126 0
M  V30 9260 H 865.357 -5.73241 -0.0819079 0
M  V30 9261 H 863.754 -5.96292 0.674956 0
M  V30 9262 H 864.824 -4.6801 1.26865 0
M  V30 9263 N 866.167 -0.267825 -1.55308 0
M  V30 9264 C 867.097 0.616585 -2.25212 0
M  V30 9265 C 868.078 1.16472 -1.23969 0
M  V30 9266 O 869.263 1.20021 -1.52672 0
M  V30 9267 C 866.393 1.80412 -2.96764 0
M  V30 9268 C 865.347 1.38784 -4.04874 0
M  V30 9269 C 864.673 2.65789 -4.63961 0
M  V30 9270 C 865.973 0.543415 -5.19465 0
M  V30 9271 H 867.667 0.0336257 -2.99381 0
M  V30 9272 H 865.213 0.0147328 -1.43992 0
M  V30 9273 H 867.166 2.42866 -3.44375 0
M  V30 9274 H 865.89 2.4128 -2.20118 0
M  V30 9275 H 864.549 0.786541 -3.58063 0
M  V30 9276 H 864.197 3.24899 -3.83992 0
M  V30 9277 H 863.897 2.38651 -5.36954 0
M  V30 9278 H 865.421 3.29104 -5.14318 0
M  V30 9279 H 866.835 1.07277 -5.63174 0
M  V30 9280 H 865.232 0.367219 -5.98975 0
M  V30 9281 H 866.302 -0.439534 -4.82904 0
M  V30 9282 N 867.645 1.57599 0.00500368 0
M  V30 9283 C 868.892 1.90349 0.690895 0
M  V30 9284 C 869.22 0.868045 1.74055 0
M  V30 9285 O 868.475 -0.127855 1.95282 0
M  V30 9286 C 868.774 3.29855 1.37588 0
M  V30 9287 C 868.44 4.48548 0.459906 0
M  V30 9288 C 867.102 4.80752 0.207693 0
M  V30 9289 C 869.454 5.20919 -0.171054 0
M  V30 9290 C 866.782 5.82701 -0.683855 0
M  V30 9291 C 869.134 6.23818 -1.05045 0
M  V30 9292 C 867.798 6.54481 -1.31189 0
M  V30 9293 H 867.068 0.696538 0.252816 0
M  V30 9294 H 869.715 1.91436 -0.0494495 0
M  V30 9295 H 868.02 3.24869 2.19015 0
M  V30 9296 H 869.717 3.52452 1.91255 0
M  V30 9297 H 866.307 4.23384 0.666648 0
M  V30 9298 H 870.491 4.96299 0.0107942 0
M  V30 9299 H 865.747 6.04822 -0.894467 0
M  V30 9300 H 869.921 6.79029 -1.54574 0
M  V30 9301 H 867.548 7.33299 -2.00442 0
M  V30 9302 N 869.123 -0.277682 1.55134 0
M  V30 9303 C 870.37 -1.0099 1.7552 0
M  V30 9304 C 870.698 -1.86452 0.553712 0
M  V30 9305 O 869.953 -1.90122 -0.463896 0
M  V30 9306 C 870.252 -1.92599 3.01065 0
M  V30 9307 C 869.918 -1.22926 4.3382 0
M  V30 9308 C 868.58 -1.03659 4.69902 0
M  V30 9309 C 870.932 -0.733071 5.16019 0
M  V30 9310 C 868.26 -0.334933 5.85743 0
M  V30 9311 C 870.612 -0.0450319 6.32584 0
M  V30 9312 C 869.276 0.159393 6.6731 0
M  V30 9313 H 868.546 -0.36955 0.642273 0
M  V30 9314 H 871.193 -0.282611 1.89403 0
M  V30 9315 H 869.498 -2.71934 2.82062 0
M  V30 9316 H 871.195 -2.49367 3.14034 0
M  V30 9317 H 867.785 -1.38933 4.05457 0
M  V30 9318 H 871.969 -0.869565 4.88623 0
M  V30 9319 H 867.225 -0.165783 6.11175 0
M  V30 9320 H 871.399 0.34723 6.95534 0
M  V30 9321 H 869.026 0.70507 7.56923 0
M  V30 9322 N 870.601 -1.47988 -0.541979 0
M  V30 9323 C 871.551 -1.58019 -1.64359 0
M  V30 9324 C 872.535 -0.438056 -1.54822 0
M  V30 9325 O 873.727 -0.688837 -1.63046 0
M  V30 9326 C 870.856 -1.61182 -3.03109 0
M  V30 9327 C 869.942 -2.80834 -3.17794 0
M  V30 9328 N 870.333 -4.05379 -3.02492 0
M  V30 9329 C 868.631 -2.77914 -3.48826 0
M  V30 9330 C 869.332 -4.85592 -3.20274 0
M  V30 9331 N 868.308 -4.18188 -3.47304 0
M  V30 9332 H 872.11 -2.52071 -1.5112 0
M  V30 9333 H 869.624 -1.44193 -0.747137 0
M  V30 9334 H 871.621 -1.66461 -3.82226 0
M  V30 9335 H 870.281 -0.682375 -3.17449 0
M  V30 9336 H 871.292 -4.36003 -2.79503 0
M  V30 9337 H 867.969 -1.94174 -3.69598 0
M  V30 9338 H 869.359 -5.94394 -3.13282 0
M  V30 9339 N 872.079 0.78992 -1.36375 0
M  V30 9340 C 873.029 1.89227 -1.27189 0
M  V30 9341 C 874.013 1.60067 -0.163498 0
M  V30 9342 O 875.205 1.72507 -0.396262 0
M  V30 9343 C 872.334 3.26431 -1.06292 0
M  V30 9344 C 871.42 3.61602 -2.21596 0
M  V30 9345 N 871.811 3.68086 -3.4691 0
M  V30 9346 C 870.109 3.9166 -2.1335 0
M  V30 9347 C 870.81 3.99481 -4.22835 0
M  V30 9348 N 869.786 4.14438 -3.5177 0
M  V30 9349 H 873.588 1.92465 -2.22113 0
M  V30 9350 H 871.102 0.985414 -1.29087 0
M  V30 9351 H 873.099 4.05267 -0.97798 0
M  V30 9352 H 871.759 3.24468 -0.122676 0
M  V30 9353 H 872.77 3.50743 -3.81051 0
M  V30 9354 H 869.447 3.97626 -1.27279 0
M  V30 9355 H 870.837 4.11425 -5.31205 0
M  V30 9356 N 873.557 1.20646 1.01402 0
M  V30 9357 C 874.803 1.0197 1.753 0
M  V30 9358 C 875.136 -0.446803 1.8899 0
M  V30 9359 O 874.411 -1.33169 1.41762 0
M  V30 9360 C 874.694 1.70693 3.17074 0
M  V30 9361 C 874.547 3.24805 3.11162 0
M  V30 9362 C 875.866 1.44212 4.15802 0
M  V30 9363 H 872.985 0.371844 0.636318 0
M  V30 9364 H 875.627 1.48696 1.18277 0
M  V30 9365 H 873.777 1.30968 3.65759 0
M  V30 9366 H 875.449 3.73841 2.70261 0
M  V30 9367 H 873.692 3.55576 2.48492 0
M  V30 9368 H 874.363 3.68049 4.11393 0
M  V30 9369 H 876.839 1.7868 3.75783 0
M  V30 9370 H 875.715 1.94825 5.13161 0
M  V30 9371 H 875.976 0.370252 4.40547 0
M  V30 9372 N 875.035 -1.20752 1.01276 0
M  V30 9373 C 876.446 -1.7175 0.732033 0
M  V30 9374 C 876.797 -1.8131 -0.749733 0
M  V30 9375 O 875.922 -1.47301 -1.58529 0
M  V30 9376 C 876.517 -3.11936 1.32217 0
M  V30 9377 C 875.076 -3.6026 1.09039 0
M  V30 9378 C 874.223 -2.37571 1.43022 0
M  V30 9379 H 877.174 -1.0582 1.1827 0
M  V30 9380 H 877.195 -3.73802 0.710771 0
M  V30 9381 H 876.707 -3.04946 2.40061 0
M  V30 9382 H 874.808 -3.72588 0.0294464 0
M  V30 9383 H 874.921 -4.45295 1.76775 0
M  V30 9384 H 873.285 -2.40128 0.849159 0
M  V30 9385 H 874.068 -2.33225 2.51915 0
M  V30 9386 N 876.513 -0.788492 -1.36457 0
M  V30 9387 C 877.743 -0.371825 -2.03227 0
M  V30 9388 C 878.151 1.01627 -1.59589 0
M  V30 9389 O 877.494 1.663 -0.780382 0
M  V30 9390 C 877.556 -0.355179 -3.57741 0
M  V30 9391 C 877.22 -1.69069 -4.24576 0
M  V30 9392 C 878.217 -2.64601 -4.47529 0
M  V30 9393 C 875.902 -1.96973 -4.62068 0
M  V30 9394 C 877.896 -3.86232 -5.07054 0
M  V30 9395 C 875.583 -3.18872 -5.2131 0
M  V30 9396 C 876.581 -4.1332 -5.43742 0
M  V30 9397 O 876.269 -5.3307 -6.0174 0
M  V30 9398 H 876.001 -0.151452 -0.658816 0
M  V30 9399 H 878.555 -1.06827 -1.75434 0
M  V30 9400 H 876.785 0.397753 -3.84649 0
M  V30 9401 H 878.474 0.0366955 -4.05883 0
M  V30 9402 H 879.24 -2.44329 -4.18961 0
M  V30 9403 H 875.119 -1.24277 -4.43933 0
M  V30 9404 H 878.663 -4.59965 -5.24478 0
M  V30 9405 H 874.56 -3.39022 -5.49304 0
M  V30 9406 H 875.328 -5.34121 -6.20207 0
M  V30 9407 N 877.991 1.48044 -0.54043 0
M  V30 9408 C 879.219 2.06895 -0.0145153 0
M  V30 9409 C 879.634 1.39552 1.27164 0
M  V30 9410 O 878.991 0.486454 1.75897 0
M  V30 9411 C 879.042 3.60934 0.202278 0
M  V30 9412 O 878.763 4.25749 -1.03293 0
M  V30 9413 C 880.264 4.36607 0.767387 0
M  V30 9414 H 877.484 0.66991 -0.0382368 0
M  V30 9415 H 880.028 1.90288 -0.749057 0
M  V30 9416 H 878.183 3.77111 0.886897 0
M  V30 9417 H 878.597 5.18048 -0.820167 0
M  V30 9418 H 880.071 5.45126 0.86845 0
M  V30 9419 H 880.548 4.01745 1.77477 0
M  V30 9420 H 881.154 4.25133 0.119002 0
M  V30 9421 N 879.47 0.276058 1.55163 0
M  V30 9422 C 880.42 -0.625549 2.19251 0
M  V30 9423 C 881.404 -1.11769 1.15744 0
M  V30 9424 O 882.596 -1.0626 1.41555 0
M  V30 9425 C 879.725 -1.80879 2.91784 0
M  V30 9426 C 878.811 -1.33379 4.0258 0
M  V30 9427 N 879.202 -0.575002 5.02521 0
M  V30 9428 C 877.5 -1.61666 4.15668 0
M  V30 9429 C 878.201 -0.325164 5.8079 0
M  V30 9430 N 877.177 -0.897851 5.36134 0
M  V30 9431 H 880.979 -0.0379943 2.93875 0
M  V30 9432 H 878.493 0.079661 1.62205 0
M  V30 9433 H 880.49 -2.466 3.36146 0
M  V30 9434 H 879.15 -2.40028 2.1867 0
M  V30 9435 H 880.161 -0.222256 5.17423 0
M  V30 9436 H 876.838 -2.21745 3.53745 0
M  V30 9437 H 878.228 0.282598 6.71305 0
M  V30 9438 N 880.948 -1.576 0.00335426 0
M  V30 9439 C 882.364 -1.55653 -0.352766 0
M  V30 9440 C 882.564 -1.00632 -1.74572 0
M  V30 9441 O 881.62 -0.641621 -2.44212 0
M  V30 9442 C 882.933 -2.99858 -0.224929 0
M  V30 9443 C 884.481 -3.11563 -0.299619 0
M  V30 9444 C 884.956 -4.57559 -0.200868 0
M  V30 9445 N 886.447 -4.62477 -0.258663 0
M  V30 9446 C 887.182 -5.73031 -0.205644 0
M  V30 9447 N 886.678 -6.92723 -0.103027 0
M  V30 9448 N 888.471 -5.61509 -0.257754 0
M  V30 9449 H 880.622 -1.91703 0.914539 0
M  V30 9450 H 882.885 -0.88068 0.350865 0
M  V30 9451 H 882.591 -3.43964 0.733595 0
M  V30 9452 H 882.465 -3.63547 -1.00564 0
M  V30 9453 H 884.852 -2.67384 -1.24859 0
M  V30 9454 H 884.933 -2.50644 0.511025 0
M  V30 9455 H 884.577 -5.02413 0.744572 0
M  V30 9456 H 884.507 -5.16428 -1.03004 0
M  V30 9457 H 886.998 -3.76375 -0.339168 0
M  V30 9458 H 887.311 -7.7277 -0.0685593 0
M  V30 9459 H 885.656 -6.94966 -0.0686069 0
M  V30 9460 H 888.847 -4.66892 -0.336142 0
M  V30 9461 H 889.02 -6.4765 -0.21297 0
M  V30 9462 N 882.426 0.269451 -1.5528 0
M  V30 9463 C 883.356 1.33729 -1.91413 0
M  V30 9464 C 884.337 1.51348 -0.776391 0
M  V30 9465 O 885.522 1.64332 -1.03482 0
M  V30 9466 C 882.652 2.69618 -2.18914 0
M  V30 9467 C 881.606 2.66725 -3.34726 0
M  V30 9468 C 880.932 4.06199 -3.47716 0
M  V30 9469 C 882.232 2.25684 -4.71025 0
M  V30 9470 H 883.926 1.03736 -2.80854 0
M  V30 9471 H 881.472 0.497579 -1.3513 0
M  V30 9472 H 883.425 3.44436 -2.42779 0
M  V30 9473 H 882.149 3.01201 -1.26275 0
M  V30 9474 H 880.808 1.94365 -3.10834 0
M  V30 9475 H 880.456 4.3501 -2.52537 0
M  V30 9476 H 880.156 4.05157 -4.25583 0
M  V30 9477 H 881.68 4.8275 -3.73877 0
M  V30 9478 H 883.094 2.90225 -4.94411 0
M  V30 9479 H 881.491 2.35797 -5.51833 0
M  V30 9480 H 882.561 1.20819 -4.69607 0
M  V30 9481 N 883.904 1.48273 0.534124 0
M  V30 9482 C 884.854 1.58889 1.63519 0
M  V30 9483 C 885.838 0.44626 1.54588 0
M  V30 9484 O 887.03 0.697474 1.62679 0
M  V30 9485 C 884.159 1.62787 3.0225 0
M  V30 9486 C 883.245 2.82515 3.16301 0
M  V30 9487 N 883.636 4.06977 3.00338 0
M  V30 9488 C 881.934 2.7976 3.47347 0
M  V30 9489 C 882.635 4.87283 3.17694 0
M  V30 9490 N 881.611 4.20024 3.45081 0
M  V30 9491 H 885.413 2.52869 1.49781 0
M  V30 9492 H 882.927 1.44587 0.739479 0
M  V30 9493 H 884.924 1.68486 3.81337 0
M  V30 9494 H 883.584 0.699201 3.17082 0
M  V30 9495 H 884.595 4.37479 2.77186 0
M  V30 9496 H 881.272 1.96132 3.68563 0
M  V30 9497 H 882.662 5.96047 3.10126 0
M  V30 9498 N 885.382 -0.782676 1.36792 0
M  V30 9499 C 886.607 -1.57676 1.34733 0
M  V30 9500 C 887.032 -1.87979 -0.0675253 0
M  V30 9501 O 886.39 -1.48404 -1.04144 0
M  V30 9502 C 886.438 -2.87047 2.18257 0
M  V30 9503 O 885.542 -3.80946 1.57969 0
M  V30 9504 H 884.883 -0.478034 0.460846 0
M  V30 9505 H 887.413 -0.969578 1.80168 0
M  V30 9506 H 887.423 -3.36254 2.31079 0
M  V30 9507 H 886.098 -2.64319 3.21104 0
M  V30 9508 H 884.675 -3.39558 1.54126 0
M  V30 9509 N 886.86 -1.21182 -1.00761 0
M  V30 9510 C 888.108 -1.02543 -1.74153 0
M  V30 9511 C 888.429 0.442372 -1.89916 0
M  V30 9512 O 887.699 1.31927 -1.44818 0
M  V30 9513 H 886.279 -0.37644 -0.645214 0
M  V30 9514 H 888.941 -1.52446 -1.21434 0
M  V30 9515 H 888.037 -1.49122 -2.7417 0
M  V30 9516 N 888.338 1.20213 -1.01915 0
M  V30 9517 C 889.248 2.26763 -0.601311 0
M  V30 9518 C 890.264 1.70185 0.362369 0
M  V30 9519 O 891.44 2.00165 0.222682 0
M  V30 9520 C 888.505 3.46662 0.0512879 0
M  V30 9521 C 887.566 4.18459 -0.958659 0
M  V30 9522 C 886.799 5.32634 -0.337107 0
M  V30 9523 O 887.022 5.63841 0.86251 0
M  V30 9524 O 885.956 5.9258 -1.05511 0
M  V30 9525 H 889.782 2.64725 -1.48844 0
M  V30 9526 H 887.367 1.2688 -0.788784 0
M  V30 9527 H 889.249 4.19345 0.41564 0
M  V30 9528 H 887.924 3.1057 0.912572 0
M  V30 9529 H 886.831 3.47937 -1.37442 0
M  V30 9530 H 888.164 4.58498 -1.78999 0
M  V30 9531 N 889.816 0.795718 1.36037 0
M  V30 9532 C 891.044 0.383153 2.03321 0
M  V30 9533 C 891.459 -1.00246 1.59988 0
M  V30 9534 O 890.816 -1.64406 0.792265 0
M  V30 9535 C 890.867 0.444467 3.58757 0
M  V30 9536 O 890.588 1.77544 4.00512 0
M  V30 9537 C 892.089 0.0233291 4.43294 0
M  V30 9538 H 889.309 0.157061 0.652359 0
M  V30 9539 H 891.853 1.07632 1.73884 0
M  V30 9540 H 890.008 -0.200341 3.86882 0
M  V30 9541 H 890.422 1.73065 4.95125 0
M  V30 9542 H 891.896 0.117361 5.51875 0
M  V30 9543 H 892.373 -1.03007 4.2695 0
M  V30 9544 H 892.979 0.64087 4.20444 0
M  V30 9545 N 891.294 -1.47756 0.548274 0
M  V30 9546 C 892.54 -2.02789 0.0209265 0
M  V30 9547 C 892.873 -1.42268 -1.32187 0
M  V30 9548 O 892.148 -0.575001 -1.85806 0
M  V30 9549 C 892.431 -3.60007 -0.0816674 0
M  V30 9550 C 892.284 -4.30977 1.28759 0
M  V30 9551 C 893.603 -4.32777 -0.799515 0
M  V30 9552 H 890.722 -0.736944 0.00907884 0
M  V30 9553 H 893.364 -1.76282 0.708839 0
M  V30 9554 H 891.514 -3.82722 -0.667537 0
M  V30 9555 H 893.186 -4.19629 1.91597 0
M  V30 9556 H 891.429 -3.9168 1.86466 0
M  V30 9557 H 892.1 -5.39488 1.16861 0
M  V30 9558 H 894.576 -4.15001 -0.30216 0
M  V30 9559 H 893.452 -5.42431 -0.840239 0
M  V30 9560 H 893.713 -4.01358 -1.85375 0
M  V30 9561 N 892.772 -0.284283 -1.55015 0
M  V30 9562 C 894.021 0.33055 -1.98973 0
M  V30 9563 C 894.334 1.56284 -1.17621 0
M  V30 9564 O 895.54 2.2512 -1.51767 0
M  V30 9565 C 893.996 0.639457 -3.54174 0
M  V30 9566 C 893.604 -0.573543 -4.44313 0
M  V30 9567 C 895.348 1.21641 -4.06699 0
M  V30 9568 C 893.255 -0.238715 -5.90918 0
M  V30 9569 H 892.185 0.127285 -0.743179 0
M  V30 9570 H 894.836 -0.390372 -1.793 0
M  V30 9571 H 893.218 1.41953 -3.69683 0
M  V30 9572 H 894.392 -1.3502 -4.40575 0
M  V30 9573 H 892.707 -1.06797 -4.02472 0
M  V30 9574 H 895.304 1.48088 -5.13784 0
M  V30 9575 H 895.647 2.15328 -3.56286 0
M  V30 9576 H 896.18 0.498422 -3.94665 0
M  V30 9577 H 892.919 -1.1437 -6.45445 0
M  V30 9578 H 892.439 0.500997 -5.97704 0
M  V30 9579 H 894.118 0.165774 -6.46788 0
M  V30 9580 N 894.251 1.57596 -0.0117121 0
M  V30 9581 C 895.183 2.06025 1.0043 0
M  V30 9582 C 896.196 0.980348 1.29973 0
M  V30 9583 O 897.385 1.25691 1.26744 0
M  V30 9584 C 894.485 2.45514 2.33615 0
M  V30 9585 C 893.658 3.76378 2.22842 0
M  V30 9586 C 892.717 4.02606 3.38814 0
M  V30 9587 O 891.743 4.73108 3.16477 0
M  V30 9588 N 892.945 3.51416 4.62047 0
M  V30 9589 H 895.71 2.93811 0.591206 0
M  V30 9590 H 893.271 1.60947 0.175427 0
M  V30 9591 H 895.263 2.60166 3.09993 0
M  V30 9592 H 893.833 1.63186 2.66625 0
M  V30 9593 H 893.053 3.71691 1.313 0
M  V30 9594 H 894.341 4.62149 2.12829 0
M  V30 9595 H 893.739 2.94346 4.83091 0
M  V30 9596 H 892.296 3.71377 5.35651 0
M  V30 9597 N 895.729 -0.261212 1.5542 0
M  V30 9598 C 896.679 -1.32571 1.85496 0
M  V30 9599 C 897.663 -1.44155 0.714722 0
M  V30 9600 O 898.855 -1.47637 0.976336 0
M  V30 9601 C 895.984 -2.68384 2.14067 0
M  V30 9602 C 895.07 -2.60864 3.34381 0
M  V30 9603 N 895.461 -2.22967 4.54004 0
M  V30 9604 C 893.759 -2.91904 3.37206 0
M  V30 9605 C 894.46 -2.25727 5.36118 0
M  V30 9606 N 893.436 -2.64667 4.74818 0
M  V30 9607 H 897.238 -1.02298 2.75522 0
M  V30 9608 H 894.752 -0.469849 1.55455 0
M  V30 9609 H 896.749 -3.45189 2.33774 0
M  V30 9610 H 895.409 -2.99536 1.25332 0
M  V30 9611 H 896.42 -1.94748 4.79889 0
M  V30 9612 H 893.097 -3.2769 2.587 0
M  V30 9613 H 894.487 -1.98889 6.41789 0
M  V30 9614 N 897.207 -1.48554 -0.526253 0
M  V30 9615 C 898.456 -1.56014 -1.27837 0
M  V30 9616 C 898.769 -0.240643 -1.94114 0
M  V30 9617 O 899.975 -0.193525 -2.70809 0
M  V30 9618 C 898.431 -2.75161 -2.31979 0
M  V30 9619 C 898.039 -4.13768 -1.71755 0
M  V30 9620 C 899.783 -2.91936 -3.08178 0
M  V30 9621 C 897.69 -5.24171 -2.7386 0
M  V30 9622 H 896.62 -0.58082 -0.480795 0
M  V30 9623 H 899.271 -1.74895 -0.555335 0
M  V30 9624 H 897.653 -2.49722 -3.07335 0
M  V30 9625 H 898.827 -4.49241 -1.02563 0
M  V30 9626 H 897.142 -4.02141 -1.08036 0
M  V30 9627 H 899.739 -3.71586 -3.84484 0
M  V30 9628 H 900.082 -2.01533 -3.64267 0
M  V30 9629 H 900.615 -3.17294 -2.39937 0
M  V30 9630 H 897.354 -6.16552 -2.22586 0
M  V30 9631 H 896.874 -4.93181 -3.41368 0
M  V30 9632 H 898.553 -5.52442 -3.36774 0
M  V30 9633 N 898.685 0.775411 -1.37205 0
M  V30 9634 C 899.915 1.56219 -1.352 0
M  V30 9635 C 900.323 1.89087 0.065456 0
M  V30 9636 O 899.666 1.51655 1.03665 0
M  V30 9637 C 899.728 2.9019 -2.12203 0
M  V30 9638 C 899.392 2.79978 -3.61195 0
M  V30 9639 C 900.389 2.51258 -4.55154 0
M  V30 9640 C 898.074 2.98115 -4.04268 0
M  V30 9641 C 900.068 2.40798 -5.90165 0
M  V30 9642 C 897.755 2.87276 -5.39366 0
M  V30 9643 C 898.753 2.58657 -6.32128 0
M  V30 9644 O 898.441 2.47838 -7.64743 0
M  V30 9645 H 898.173 0.490735 -0.464925 0
M  V30 9646 H 900.727 0.969201 -1.81096 0
M  V30 9647 H 898.957 3.51594 -1.60992 0
M  V30 9648 H 900.646 3.51561 -2.02879 0
M  V30 9649 H 901.412 2.36935 -4.23186 0
M  V30 9650 H 897.291 3.19392 -3.3243 0
M  V30 9651 H 900.835 2.18381 -6.62537 0
M  V30 9652 H 896.732 3.01166 -5.70937 0
M  V30 9653 H 897.5 2.63215 -7.75023 0
M  V30 9654 N 900.163 1.21714 1.00117 0
M  V30 9655 C 901.111 0.976937 2.11089 0
M  V30 9656 C 902.105 -0.0771295 1.69224 0
M  V30 9657 O 903.311 0.0745945 1.79845 0
M  V30 9658 H 899.686 0.298687 0.690138 0
M  V30 9659 H 901.657 1.91881 2.28526 0
M  V30 9660 C 900.406 0.562369 3.43122 0
M  V30 9661 H 899.729 1.36509 3.75773 0
M  V30 9662 H 901.169 0.433642 4.21777 0
M  V30 9663 C 899.628 -0.727148 3.28959 0
M  V30 9664 O 900.158 -1.78171 3.60025 0
M  V30 9665 N 898.364 -0.695129 2.82164 0
M  V30 9666 H 897.911 0.163346 2.57082 0
M  V30 9667 H 897.869 -1.55822 2.73069 0
M  V30 9668 N 901.641 -1.19671 1.02551 0
M  V30 9669 C 902.869 -1.93233 0.739513 0
M  V30 9670 C 903.284 -1.75298 -0.701158 0
M  V30 9671 O 902.641 -1.07269 -1.47647 0
M  V30 9672 C 902.692 -3.45085 1.07697 0
M  V30 9673 O 902.413 -3.62441 2.46106 0
M  V30 9674 C 903.914 -4.35776 0.813298 0
M  V30 9675 H 901.134 -0.613905 0.270853 0
M  V30 9676 H 903.678 -1.51909 1.36909 0
M  V30 9677 H 901.833 -3.84255 0.492635 0
M  V30 9678 H 902.247 -4.56337 2.58567 0
M  V30 9679 H 903.721 -5.40941 1.09941 0
M  V30 9680 H 904.198 -4.38474 -0.252359 0
M  V30 9681 H 904.804 -4.02282 1.38021 0
M  V30 9682 N 903.119 -0.802921 -1.35613 0
M  V30 9683 C 904.069 -0.183492 -2.2726 0
M  V30 9684 C 905.053 0.640527 -1.47601 0
M  V30 9685 O 906.245 0.498386 -1.69838 0
M  V30 9686 C 903.374 0.67003 -3.36698 0
M  V30 9687 C 902.46 -0.163517 -4.23785 0
M  V30 9688 N 902.851 -1.22472 -4.90749 0
M  V30 9689 C 901.149 0.0554547 -4.45966 0
M  V30 9690 C 901.85 -1.73329 -5.55276 0
M  V30 9691 N 900.826 -1.04033 -5.33552 0
M  V30 9692 H 904.628 -0.995525 -2.76526 0
M  V30 9693 H 902.142 -0.643714 -1.49098 0
M  V30 9694 H 904.139 1.12981 -4.01299 0
M  V30 9695 H 902.799 1.48045 -2.88986 0
M  V30 9696 H 903.81 -1.60733 -4.92327 0
M  V30 9697 H 900.487 0.835312 -4.09058 0
M  V30 9698 H 901.877 -2.62 -6.18713 0
M  V30 9699 N 904.597 1.47463 -0.556102 0
M  V30 9700 C 905.844 2.02475 -0.0316337 0
M  V30 9701 C 906.172 1.43057 1.31777 0
M  V30 9702 O 905.427 0.575376 1.87051 0
M  V30 9703 C 905.726 3.57224 0.112126 0
M  V30 9704 C 905.392 4.35557 -1.16624 0
M  V30 9705 C 904.054 4.56678 -1.51654 0
M  V30 9706 C 906.406 4.8074 -2.01342 0
M  V30 9707 C 903.734 5.20231 -2.7125 0
M  V30 9708 C 906.086 5.45613 -3.2014 0
M  V30 9709 C 904.75 5.64967 -3.55484 0
M  V30 9710 H 904.02 0.74091 -0.0115756 0
M  V30 9711 H 906.667 1.77148 -0.727392 0
M  V30 9712 H 904.972 3.81538 0.890842 0
M  V30 9713 H 906.669 3.97438 0.533261 0
M  V30 9714 H 903.259 4.19395 -0.883489 0
M  V30 9715 H 907.443 4.64201 -1.75587 0
M  V30 9716 H 902.699 5.3341 -2.98804 0
M  V30 9717 H 906.873 5.79587 -3.86073 0
M  V30 9718 H 904.5 6.13984 -4.4825 0
M  V30 9719 N 906.075 0.2925 1.54862 0
M  V30 9720 C 906.985 -0.597036 2.26876 0
M  V30 9721 C 908.001 -1.15558 1.30086 0
M  V30 9722 O 909.177 -1.18217 1.63054 0
M  V30 9723 C 906.242 -1.75664 2.98903 0
M  V30 9724 C 905.303 -1.23303 4.11212 0
M  V30 9725 C 904.536 -2.33736 4.79795 0
M  V30 9726 O 904.759 -3.53459 4.47686 0
M  V30 9727 O 903.693 -2.00908 5.67379 0
M  V30 9728 H 907.519 -0.0131242 3.03697 0
M  V30 9729 H 905.104 0.0592642 1.49282 0
M  V30 9730 H 906.986 -2.43241 3.4411 0
M  V30 9731 H 905.661 -2.32731 2.24984 0
M  V30 9732 H 904.568 -0.523222 3.70423 0
M  V30 9733 H 905.901 -0.707887 4.87083 0
M  V30 9734 N 907.553 -1.57587 0.0200696 0
M  V30 9735 C 908.801 -1.91046 -0.65922 0
M  V30 9736 C 909.122 -0.896197 -1.73186 0
M  V30 9737 O 908.392 0.0635952 -1.95797 0
M  V30 9738 H 906.972 -0.705163 -0.246483 0
M  V30 9739 H 909.634 -1.94789 0.0657368 0
M  V30 9740 H 908.73 -2.91399 -1.11773 0
M  V30 9741 N 909.032 0.252966 -1.55557 0
M  V30 9742 C 910.278 0.983306 -1.77367 0
M  V30 9743 C 910.611 1.85203 -0.584258 0
M  V30 9744 O 909.886 1.89963 0.417644 0
M  V30 9745 C 910.169 1.84896 -3.09007 0
M  V30 9746 C 910.022 1.00883 -4.38341 0
M  V30 9747 C 911.341 2.83254 -3.36831 0
M  V30 9748 H 908.46 0.356056 -0.645286 0
M  V30 9749 H 911.102 0.254232 -1.88291 0
M  V30 9750 H 909.252 2.47058 -2.99825 0
M  V30 9751 H 910.924 0.40638 -4.59507 0
M  V30 9752 H 909.167 0.31297 -4.3267 0
M  V30 9753 H 909.838 1.64818 -5.2682 0
M  V30 9754 H 912.314 2.31228 -3.45937 0
M  V30 9755 H 911.19 3.40949 -4.30169 0
M  V30 9756 H 911.451 3.59407 -2.57447 0
M  V30 9757 N 910.51 1.48831 0.518367 0
M  V30 9758 C 911.42 1.6692 1.64848 0
M  V30 9759 C 912.436 0.551711 1.65022 0
M  V30 9760 O 913.612 0.824251 1.83761 0
M  V30 9761 C 910.677 1.71559 3.01278 0
M  V30 9762 C 909.738 2.9502 3.11868 0
M  V30 9763 C 908.971 2.99428 4.4179 0
M  V30 9764 O 909.194 2.11914 5.29574 0
M  V30 9765 O 908.128 3.91719 4.5699 0
M  V30 9766 H 911.954 2.62623 1.52521 0
M  V30 9767 H 909.539 1.32368 0.692749 0
M  V30 9768 H 911.421 1.77064 3.82396 0
M  V30 9769 H 910.096 0.790316 3.13904 0
M  V30 9770 H 909.003 2.95042 2.30003 0
M  V30 9771 H 910.336 3.8697 3.04163 0
M  V30 9772 N 911.988 -0.768124 1.37614 0
M  V30 9773 C 912.92 -1.89076 1.29548 0
M  V30 9774 C 913.933 -1.61433 0.21056 0
M  V30 9775 O 915.122 -1.72283 0.466992 0
M  V30 9776 C 912.222 -3.24388 0.981102 0
M  V30 9777 C 911.395 -3.79649 2.17222 0
M  V30 9778 C 910.454 -4.93444 1.82754 0
M  V30 9779 O 909.48 -5.0884 2.5509 0
M  V30 9780 N 910.682 -5.75319 0.773819 0
M  V30 9781 H 913.447 -1.9651 2.26283 0
M  V30 9782 H 911.008 -0.947399 1.31286 0
M  V30 9783 H 913 -3.98038 0.731301 0
M  V30 9784 H 911.57 -3.12433 0.102203 0
M  V30 9785 H 910.79 -2.97735 2.58355 0
M  V30 9786 H 912.078 -4.13302 2.96748 0
M  V30 9787 H 911.476 -5.65433 0.173644 0
M  V30 9788 H 910.033 -6.4918 0.583882 0
M  V30 9789 N 913.466 -1.22244 -0.994698 0
M  V30 9790 C 914.429 -0.992308 -2.06606 0
M  V30 9791 C 915.429 0.0405872 -1.60749 0
M  V30 9792 O 916.619 -0.197737 -1.73074 0
M  V30 9793 C 913.751 -0.498499 -3.37236 0
M  V30 9794 H 914.944 -1.9429 -2.28455 0
M  V30 9795 H 912.497 -1.04087 -1.166 0
M  V30 9796 H 913.232 0.456531 -3.21071 0
M  V30 9797 H 913.017 -1.24367 -3.71854 0
M  V30 9798 H 914.507 -0.35768 -4.16065 0
M  V30 9799 N 914.944 1.19125 -1.03184 0
M  V30 9800 C 915.891 2.2245 -0.6152 0
M  V30 9801 C 916.861 1.61869 0.372502 0
M  V30 9802 O 918.046 1.88901 0.268491 0
M  V30 9803 C 915.186 3.45091 0.0248027 0
M  V30 9804 C 914.299 4.20044 -1.0093 0
M  V30 9805 C 913.434 5.30119 -0.338744 0
M  V30 9806 C 912.473 5.96833 -1.35855 0
M  V30 9807 N 911.61 6.98464 -0.713594 0
M  V30 9808 H 916.45 2.57445 -1.50086 0
M  V30 9809 H 913.987 1.26485 -0.751005 0
M  V30 9810 H 915.945 4.15149 0.413131 0
M  V30 9811 H 914.575 3.10742 0.874028 0
M  V30 9812 H 913.627 3.48901 -1.51566 0
M  V30 9813 H 914.939 4.65796 -1.78425 0
M  V30 9814 H 914.093 6.0661 0.104269 0
M  V30 9815 H 912.832 4.85446 0.468382 0
M  V30 9816 H 911.837 5.1909 -1.81179 0
M  V30 9817 H 913.062 6.4359 -2.16722 0
M  V30 9818 H 911.008 6.55959 0.0733863 0
M  V30 9819 H 910.925 7.42422 -1.42638 0
M  V30 9820 H 912.193 7.78943 -0.294681 0
M  V30 9821 N 916.422 0.810101 1.35185 0
M  V30 9822 C 917.354 0.180581 2.28488 0
M  V30 9823 C 918.367 -0.622154 1.50443 0
M  V30 9824 O 919.556 -0.453938 1.72632 0
M  V30 9825 C 916.656 -0.766447 3.30119 0
M  V30 9826 C 915.829 -0.00932028 4.37399 0
M  V30 9827 C 914.888 -0.875354 5.18868 0
M  V30 9828 O 913.914 -0.325012 5.68271 0
M  V30 9829 N 915.116 -2.19695 5.37321 0
M  V30 9830 H 917.881 0.98212 2.83151 0
M  V30 9831 H 915.442 0.665879 1.47573 0
M  V30 9832 H 917.434 -1.35012 3.81515 0
M  V30 9833 H 916.004 -1.46878 2.75945 0
M  V30 9834 H 915.224 0.755585 3.86891 0
M  V30 9835 H 916.512 0.512352 5.06214 0
M  V30 9836 H 915.91 -2.66797 4.98834 0
M  V30 9837 H 914.467 -2.72978 5.91884 0
M  V30 9838 N 917.9 -1.47166 0.563914 0
M  V30 9839 C 918.83 -2.32894 -0.168148 0
M  V30 9840 C 919.811 -1.44202 -0.902214 0
M  V30 9841 O 920.996 -1.73048 -0.881365 0
M  V30 9842 C 918.126 -3.26116 -1.19439 0
M  V30 9843 C 917.08 -4.24101 -0.576363 0
M  V30 9844 C 916.406 -5.06696 -1.70772 0
M  V30 9845 C 917.706 -5.20142 0.47425 0
M  V30 9846 H 919.4 -2.9435 0.547573 0
M  V30 9847 H 916.946 -1.41545 0.264778 0
M  V30 9848 H 918.899 -3.84935 -1.71474 0
M  V30 9849 H 917.623 -2.62728 -1.94014 0
M  V30 9850 H 916.282 -3.66519 -0.0772534 0
M  V30 9851 H 915.93 -4.39707 -2.44268 0
M  V30 9852 H 915.63 -5.7304 -1.29994 0
M  V30 9853 H 917.154 -5.68375 -2.2312 0
M  V30 9854 H 918.568 -5.73286 0.0397035 0
M  V30 9855 H 916.965 -5.94726 0.801287 0
M  V30 9856 H 918.035 -4.65214 1.36764 0
M  V30 9857 N 919.378 -0.300708 -1.54705 0
M  V30 9858 C 920.794 0.0526874 -1.59513 0
M  V30 9859 C 920.994 1.52444 -1.31769 0
M  V30 9860 O 920.05 2.27716 -1.09096 0
M  V30 9861 C 921.363 -0.344989 -2.98714 0
M  V30 9862 C 922.911 -0.29373 -3.11619 0
M  V30 9863 C 923.386 -0.666225 -4.53129 0
M  V30 9864 N 924.877 -0.618749 -4.59049 0
M  V30 9865 C 925.612 -0.879447 -5.66616 0
M  V30 9866 N 925.108 -1.2061 -6.82221 0
M  V30 9867 N 926.901 -0.806528 -5.56284 0
M  V30 9868 H 919.052 -1.25988 -1.71 0
M  V30 9869 H 921.315 -0.510758 -0.798643 0
M  V30 9870 H 921.021 -1.36953 -3.2394 0
M  V30 9871 H 920.895 0.301507 -3.75993 0
M  V30 9872 H 923.282 0.72156 -2.86142 0
M  V30 9873 H 923.363 -0.974844 -2.36496 0
M  V30 9874 H 923.007 -1.67932 -4.79334 0
M  V30 9875 H 922.937 0.0369575 -5.26587 0
M  V30 9876 H 925.428 -0.377202 -3.76013 0
M  V30 9877 H 925.741 -1.391 -7.60178 0
M  V30 9878 H 924.086 -1.24413 -6.83774 0
M  V30 9879 H 927.277 -0.550993 -4.64846 0
M  V30 9880 H 927.45 -1.01307 -6.40032 0
M  V30 9881 N 920.856 1.57574 -0.0284266 0
M  V30 9882 C 921.803 2.10176 0.953658 0
M  V30 9883 C 922.773 1.00367 1.32347 0
M  V30 9884 O 923.958 1.27783 1.4169 0
M  V30 9885 C 921.098 2.63287 2.231 0
M  V30 9886 C 920.211 3.87102 1.91771 0
M  V30 9887 C 919.346 4.28609 3.13795 0
M  V30 9888 C 918.385 5.45184 2.78282 0
M  V30 9889 N 917.522 5.81851 3.92929 0
M  V30 9890 H 922.362 2.93806 0.498176 0
M  V30 9891 H 919.899 1.45222 0.234302 0
M  V30 9892 H 921.857 2.9217 2.97813 0
M  V30 9893 H 920.487 1.82489 2.66266 0
M  V30 9894 H 919.539 3.64952 1.07303 0
M  V30 9895 H 920.851 4.71892 1.61615 0
M  V30 9896 H 920.005 4.58925 3.96829 0
M  V30 9897 H 918.744 3.42585 3.47112 0
M  V30 9898 H 917.749 5.14563 1.93661 0
M  V30 9899 H 918.974 6.32907 2.46182 0
M  V30 9900 H 916.92 4.98782 4.2609 0
M  V30 9901 H 916.837 6.6128 3.66395 0
M  V30 9902 H 918.105 6.16772 4.76669 0
M  V30 9903 N 922.334 -0.244713 1.55689 0
M  V30 9904 C 923.75 -0.593331 1.48161 0
M  V30 9905 C 923.95 -1.88234 0.719047 0
M  V30 9906 O 923.006 -2.51266 0.249292 0
M  V30 9907 C 924.319 -0.694032 2.92581 0
M  V30 9908 C 925.867 -0.786213 3.02965 0
M  V30 9909 C 926.342 -0.918457 4.48696 0
M  V30 9910 N 927.833 -0.983272 4.52643 0
M  V30 9911 C 928.568 -1.1049 5.62654 0
M  V30 9912 N 928.064 -1.19193 6.8247 0
M  V30 9913 N 929.857 -1.13823 5.50455 0
M  V30 9914 H 922.008 0.601446 2.03707 0
M  V30 9915 H 924.271 0.207894 0.924924 0
M  V30 9916 H 923.977 0.183133 3.51223 0
M  V30 9917 H 923.851 -1.56525 3.4319 0
M  V30 9918 H 926.238 -1.65383 2.44402 0
M  V30 9919 H 926.319 0.110202 2.55563 0
M  V30 9920 H 925.963 -0.0553881 5.0787 0
M  V30 9921 H 925.893 -1.82994 4.93782 0
M  V30 9922 H 928.384 -0.927269 3.66347 0
M  V30 9923 H 928.697 -1.28387 7.62061 0
M  V30 9924 H 927.042 -1.16147 6.85226 0
M  V30 9925 H 930.233 -1.06673 4.55783 0
M  V30 9926 H 930.406 -1.22957 6.36228 0
M  V30 9927 N 923.813 -1.49104 -0.510467 0
M  V30 9928 C 925.059 -1.59322 -1.26444 0
M  V30 9929 C 925.414 -0.27219 -1.90465 0
M  V30 9930 O 924.707 0.726762 -1.77281 0
M  V30 9931 C 924.901 -2.68259 -2.36161 0
M  V30 9932 C 924.73 -4.10827 -1.82897 0
M  V30 9933 C 923.5 -4.77732 -1.64623 0
M  V30 9934 C 925.698 -4.96367 -1.34625 0
M  V30 9935 N 923.68 -6.04646 -1.06189 0
M  V30 9936 C 925.051 -6.13685 -0.882656 0
M  V30 9937 C 927.106 -4.8244 -1.2311 0
M  V30 9938 C 925.809 -7.18609 -0.315306 0
M  V30 9939 C 927.835 -5.87504 -0.677726 0
M  V30 9940 C 927.197 -7.04043 -0.224308 0
M  V30 9941 H 923.296 -0.637429 -0.453 0
M  V30 9942 H 925.88 -1.8607 -0.573237 0
M  V30 9943 H 924.051 -2.433 -3.02753 0
M  V30 9944 H 925.783 -2.68052 -3.032 0
M  V30 9945 H 922.538 -4.34377 -1.88716 0
M  V30 9946 H 922.962 -6.72383 -0.78927 0
M  V30 9947 H 927.604 -3.92663 -1.56766 0
M  V30 9948 H 925.322 -8.08093 0.0335425 0
M  V30 9949 H 928.908 -5.78785 -0.591535 0
M  V30 9950 H 927.788 -7.83952 0.197212 0
M  V30 9951 N 925.291 0.760815 -1.38019 0
M  V30 9952 C 926.201 1.90526 -1.36884 0
M  V30 9953 C 927.217 1.71941 -0.266908 0
M  V30 9954 O 928.393 1.94988 -0.50413 0
M  V30 9955 C 925.458 3.25799 -1.18558 0
M  V30 9956 C 924.519 3.56961 -2.3849 0
M  V30 9957 C 923.752 4.8578 -2.21029 0
M  V30 9958 O 923.975 5.57629 -1.20023 0
M  V30 9959 O 922.909 5.16254 -3.0946 0
M  V30 9960 H 926.735 1.94437 -2.33298 0
M  V30 9961 H 924.32 0.905091 -1.18863 0
M  V30 9962 H 926.202 4.0669 -1.1037 0
M  V30 9963 H 924.877 3.22716 -0.252241 0
M  V30 9964 H 923.784 2.7626 -2.52252 0
M  V30 9965 H 925.117 3.64798 -3.30429 0
M  V30 9966 N 926.769 1.22769 0.988202 0
M  V30 9967 C 927.701 0.959757 2.08138 0
M  V30 9968 C 928.714 -0.0633787 1.62677 0
M  V30 9969 O 929.903 0.171203 1.77677 0
M  V30 9970 C 927.003 0.422724 3.36253 0
M  V30 9971 C 926.176 1.50419 4.10722 0
M  V30 9972 C 925.235 0.973407 5.17118 0
M  V30 9973 O 924.261 1.66066 5.44436 0
M  V30 9974 N 925.463 -0.202787 5.80146 0
M  V30 9975 H 928.228 1.9009 2.31702 0
M  V30 9976 H 925.789 1.13522 1.15431 0
M  V30 9977 H 927.781 0.0528514 4.04665 0
M  V30 9978 H 926.351 -0.423642 3.09716 0
M  V30 9979 H 925.571 2.04718 3.36874 0
M  V30 9980 H 926.859 2.23169 4.57245 0
M  V30 9981 H 926.257 -0.777856 5.60327 0
M  V30 9982 H 924.814 -0.513998 6.4977 0
M  V30 9983 N 928.247 -1.18576 1.03814 0
M  V30 9984 C 929.177 -2.24334 0.647795 0
M  V30 9985 C 930.158 -1.66508 -0.34774 0
M  V30 9986 O 931.343 -1.92852 -0.228401 0
M  V30 9987 C 928.473 -3.47299 0.00734922 0
M  V30 9988 C 927.427 -4.17859 0.926152 0
M  V30 9989 C 926.753 -5.34489 0.150317 0
M  V30 9990 C 928.053 -4.71632 2.24411 0
M  V30 9991 H 929.747 -2.57241 1.53191 0
M  V30 9992 H 927.293 -1.23649 0.738028 0
M  V30 9993 H 929.246 -4.20486 -0.277434 0
M  V30 9994 H 927.97 -3.13619 -0.911626 0
M  V30 9995 H 926.629 -3.46567 1.19528 0
M  V30 9996 H 926.277 -4.97056 -0.770985 0
M  V30 9997 H 925.977 -5.82633 0.762407 0
M  V30 9998 H 927.501 -6.10467 -0.127508 0
M  V30 9999 H 928.915 -5.36526 2.02021 0
M  V30 10000 H 927.312 -5.303 2.80894 0
M  V30 10001 H 928.382 -3.89192 2.89236 0
M  V30 10002 N 929.725 -0.817259 -1.34754 0
M  V30 10003 C 930.672 -0.233108 -2.2962 0
M  V30 10004 C 931.642 0.638902 -1.53321 0
M  V30 10005 O 932.827 0.581739 -1.81715 0
M  V30 10006 C 929.967 0.603659 -3.39779 0
M  V30 10007 C 929.08 -0.289967 -4.31026 0
M  V30 10008 C 928.215 0.555825 -5.28284 0
M  V30 10009 C 927.254 -0.337539 -6.11169 0
M  V30 10010 N 926.391 0.468847 -7.00533 0
M  V30 10011 H 931.231 -1.04747 -2.78984 0
M  V30 10012 H 928.768 -0.528056 -1.37295 0
M  V30 10013 H 930.726 1.10407 -4.02326 0
M  V30 10014 H 929.356 1.38319 -2.91664 0
M  V30 10015 H 928.408 -0.908552 -3.69391 0
M  V30 10016 H 929.72 -0.977136 -4.89135 0
M  V30 10017 H 928.874 1.12094 -5.96255 0
M  V30 10018 H 927.613 1.27652 -4.70698 0
M  V30 10019 H 926.618 -0.914839 -5.42135 0
M  V30 10020 H 927.843 -1.05626 -6.70835 0
M  V30 10021 H 925.789 1.17332 -6.45422 0
M  V30 10022 H 925.706 -0.160052 -7.55831 0
M  V30 10023 H 926.974 1.01689 -7.72839 0
M  V30 10024 N 931.203 1.46865 -0.571711 0
M  V30 10025 C 932.451 2.0203 -0.0530022 0
M  V30 10026 C 932.772 1.44687 1.30731 0
M  V30 10027 O 932.042 0.627429 1.85581 0
M  V30 10028 H 930.622 0.746815 -0.0166035 0
M  V30 10029 H 933.284 1.80099 -0.745003 0
M  V30 10030 H 932.38 3.12091 0.0242538 0
M  V30 10031 N 932.681 0.308908 1.54543 0
M  V30 10032 C 933.628 -0.563659 2.23811 0
M  V30 10033 C 934.598 -1.12332 1.22355 0
M  V30 10034 O 935.783 -1.16638 1.50997 0
M  V30 10035 C 932.923 -1.72585 2.98845 0
M  V30 10036 C 932.036 -1.19682 4.1509 0
M  V30 10037 C 931.171 -2.32351 4.77688 0
M  V30 10038 C 930.21 -1.76623 5.86064 0
M  V30 10039 N 929.347 -2.82896 6.42584 0
M  V30 10040 H 934.187 0.0336288 2.97981 0
M  V30 10041 H 931.724 0.0283666 1.47073 0
M  V30 10042 H 933.682 -2.40951 3.40586 0
M  V30 10043 H 932.312 -2.29464 2.27037 0
M  V30 10044 H 931.364 -0.405173 3.78236 0
M  V30 10045 H 932.676 -0.748923 4.93146 0
M  V30 10046 H 931.83 -3.0865 5.22322 0
M  V30 10047 H 930.569 -2.80472 3.98982 0
M  V30 10048 H 929.574 -0.988171 5.40847 0
M  V30 10049 H 930.799 -1.29398 6.66658 0
M  V30 10050 H 928.745 -3.30336 5.66758 0
M  V30 10051 H 928.662 -2.42626 7.16009 0
M  V30 10052 H 929.93 -3.59068 6.91875 0
M  V30 10053 N 934.159 -1.57557 0.0367827 0
M  V30 10054 C 935.408 -1.91291 -0.639569 0
M  V30 10055 C 935.721 -0.915601 -1.72847 0
M  V30 10056 O 936.927 -1.14447 -2.46199 0
M  V30 10057 C 935.383 -3.39697 -1.18888 0
M  V30 10058 C 934.991 -4.47803 -0.132851 0
M  V30 10059 C 936.735 -3.82487 -1.8413 0
M  V30 10060 C 934.642 -5.87311 -0.694229 0
M  V30 10061 H 933.572 -0.713886 -0.242658 0
M  V30 10062 H 936.223 -1.83209 0.103332 0
M  V30 10063 H 934.605 -3.42736 -1.98363 0
M  V30 10064 H 935.779 -4.56334 0.640009 0
M  V30 10065 H 934.094 -4.14264 0.421264 0
M  V30 10066 H 936.691 -4.84076 -2.27101 0
M  V30 10067 H 937.034 -3.17959 -2.68716 0
M  V30 10068 H 937.567 -3.81903 -1.11332 0
M  V30 10069 H 934.306 -6.55401 0.113667 0
M  V30 10070 H 933.826 -5.82371 -1.4354 0
M  V30 10071 H 935.505 -6.36119 -1.1816 0
M  V30 10072 N 935.637 0.236453 -1.55816 0
M  V30 10073 C 936.914 0.986463 -1.68903 0
M  V30 10074 C 937.294 2.02984 -0.579722 0
M  V30 10075 O 936.642 2.24693 0.415389 0
M  V30 10076 C 936.852 1.61038 -3.09625 0
M  V30 10077 C 938.2 2.10829 -3.6856 0
M  V30 10078 O 939.224 1.7096 -3.12492 0
M  V30 10079 O 938.083 2.84064 -4.66873 0
M  V30 10080 H 935.177 0.459837 -0.687371 0
M  V30 10081 H 937.723 0.229412 -1.68142 0
M  V30 10082 H 936.495 0.856232 -3.81817 0
M  V30 10083 H 936.118 2.43336 -3.14441 0
M  V30 10084 N 937.115 1.49373 0.502552 0
M  V30 10085 C 938.025 1.68659 1.63068 0
M  V30 10086 C 939.041 0.569182 1.64427 0
M  V30 10087 O 940.217 0.843695 1.82876 0
M  V30 10088 C 937.282 1.74745 2.99441 0
M  V30 10089 C 936.343 2.98311 3.08721 0
M  V30 10090 C 935.576 3.04097 4.38589 0
M  V30 10091 O 935.799 2.17519 5.27297 0
M  V30 10092 O 934.733 3.96544 4.52809 0
M  V30 10093 H 938.559 2.64226 1.49727 0
M  V30 10094 H 936.144 1.33096 0.67867 0
M  V30 10095 H 938.026 1.8111 3.80496 0
M  V30 10096 H 936.701 0.823565 3.13048 0
M  V30 10097 H 935.608 2.97465 2.2686 0
M  V30 10098 H 936.941 3.90174 3.00041 0
M  V30 10099 N 938.594 -0.753485 1.38421 0
M  V30 10100 C 939.541 -1.86723 1.35659 0
M  V30 10101 C 940.511 -1.64648 0.219121 0
M  V30 10102 O 941.696 -1.86313 0.411366 0
M  V30 10103 C 938.836 -3.24023 1.18758 0
M  V30 10104 C 937.949 -3.57928 2.41892 0
M  V30 10105 C 937.084 -4.84532 2.17721 0
M  V30 10106 C 936.123 -5.11224 3.36626 0
M  V30 10107 N 935.26 -6.29023 3.11889 0
M  V30 10108 H 940.1 -1.88419 2.30873 0
M  V30 10109 H 937.637 -0.920934 1.14705 0
M  V30 10110 H 939.595 -4.03252 1.06974 0
M  V30 10111 H 938.225 -3.21654 0.27182 0
M  V30 10112 H 937.277 -2.73541 2.64347 0
M  V30 10113 H 938.589 -3.73581 3.30513 0
M  V30 10114 H 937.743 -5.71704 2.03074 0
M  V30 10115 H 936.482 -4.71018 1.26465 0
M  V30 10116 H 935.487 -4.2252 3.51791 0
M  V30 10117 H 936.712 -5.26635 4.28757 0
M  V30 10118 H 934.658 -6.16832 2.2328 0
M  V30 10119 H 934.575 -6.45177 3.9406 0
M  V30 10120 H 935.843 -7.19083 3.00898 0
M  V30 10121 N 940.072 -1.23292 -0.981677 0
M  V30 10122 C 941.488 -0.995295 -1.24764 0
M  V30 10123 C 941.688 0.304379 -1.99188 0
M  V30 10124 O 940.744 1.02414 -2.30798 0
M  V30 10125 C 942.057 -2.20135 -2.04844 0
M  V30 10126 C 943.605 -2.24612 -2.17988 0
M  V30 10127 C 944.08 -3.448 -3.01458 0
M  V30 10128 N 945.571 -3.45031 -3.09044 0
M  V30 10129 C 946.306 -4.34683 -3.7395 0
M  V30 10130 N 945.802 -5.34569 -4.4069 0
M  V30 10131 N 947.595 -4.22429 -3.70823 0
M  V30 10132 H 939.746 -2.06834 -0.483052 0
M  V30 10133 H 942.009 -0.906929 -0.276014 0
M  V30 10134 H 941.715 -3.14446 -1.57532 0
M  V30 10135 H 941.589 -2.21115 -3.05594 0
M  V30 10136 H 943.976 -1.30841 -2.64508 0
M  V30 10137 H 944.057 -2.27664 -1.16631 0
M  V30 10138 H 943.701 -4.38877 -2.55635 0
M  V30 10139 H 943.631 -3.38988 -4.02982 0
M  V30 10140 H 946.122 -2.72759 -2.61555 0
M  V30 10141 H 946.435 -5.99236 -4.87991 0
M  V30 10142 H 944.78 -5.3847 -4.39403 0
M  V30 10143 H 947.971 -3.43639 -3.17851 0
M  V30 10144 H 948.144 -4.92501 -4.21126 0
M  V30 10145 N 941.55 1.18024 -1.04442 0
M  V30 10146 C 942.78 1.91753 -0.769044 0
M  V30 10147 C 943.188 1.76629 0.678141 0
M  V30 10148 O 942.531 1.09589 1.47431 0
M  V30 10149 C 942.593 3.43505 -1.0604 0
M  V30 10150 C 942.257 3.82409 -2.50225 0
M  V30 10151 C 943.254 3.8588 -3.48414 0
M  V30 10152 C 940.939 4.13594 -2.85036 0
M  V30 10153 C 942.933 4.19993 -4.79463 0
M  V30 10154 C 940.62 4.47377 -4.1629 0
M  V30 10155 C 941.618 4.50553 -5.13314 0
M  V30 10156 O 941.306 4.83546 -6.42214 0
M  V30 10157 H 941.038 0.615466 -0.279603 0
M  V30 10158 H 943.592 1.5065 -1.3962 0
M  V30 10159 H 941.822 3.84866 -0.376125 0
M  V30 10160 H 943.511 3.98486 -0.772235 0
M  V30 10161 H 944.277 3.6192 -3.2286 0
M  V30 10162 H 940.156 4.10297 -2.10185 0
M  V30 10163 H 943.7 4.22387 -5.55189 0
M  V30 10164 H 939.597 4.70798 -4.4161 0
M  V30 10165 H 940.365 5.01433 -6.46921 0
M  V30 10166 N 943.028 0.824394 1.34319 0
M  V30 10167 C 943.978 0.219624 2.2694 0
M  V30 10168 C 944.962 -0.616964 1.48601 0
M  V30 10169 O 946.154 -0.471303 1.7061 0
M  V30 10170 C 943.283 -0.616379 3.37721 0
M  V30 10171 C 942.369 0.230917 4.23471 0
M  V30 10172 N 942.76 1.30264 4.88738 0
M  V30 10173 C 941.058 0.0155016 4.45997 0
M  V30 10174 C 941.759 1.82141 5.52449 0
M  V30 10175 N 940.735 1.12508 5.3183 0
M  V30 10176 H 944.537 1.03939 2.74907 0
M  V30 10177 H 942.051 0.667353 1.48055 0
M  V30 10178 H 944.048 -1.06582 4.03046 0
M  V30 10179 H 942.708 -1.43429 2.91304 0
M  V30 10180 H 943.719 1.68545 4.89707 0
M  V30 10181 H 940.396 -0.770128 4.10336 0
M  V30 10182 H 941.786 2.7181 6.14466 0
M  V30 10183 N 944.506 -1.46559 0.579492 0
M  V30 10184 C 945.783 -1.956 -0.00287136 0
M  V30 10185 C 946.163 -1.52215 -1.46266 0
M  V30 10186 O 945.511 -0.771335 -2.15088 0
M  V30 10187 C 945.721 -3.48606 0.165824 0
M  V30 10188 C 947.069 -4.24588 0.0319807 0
M  V30 10189 O 948.093 -3.56075 0.094496 0
M  V30 10190 O 946.952 -5.46396 -0.106386 0
M  V30 10191 H 944.046 -0.825387 -0.0516274 0
M  V30 10192 H 946.592 -1.56858 0.647584 0
M  V30 10193 H 945.364 -3.7306 1.18076 0
M  V30 10194 H 944.987 -3.94169 -0.521212 0
M  V30 10195 N 945.984 -0.3171 -1.54377 0
M  V30 10196 C 947.23 0.287836 -2.00747 0
M  V30 10197 C 947.563 1.52292 -1.20502 0
M  V30 10198 O 946.838 1.92391 -0.285626 0
M  V30 10199 C 947.121 0.628423 -3.54574 0
M  V30 10200 C 946.974 -0.616922 -4.45549 0
M  V30 10201 C 948.293 1.44862 -4.15575 0
M  V30 10202 H 945.412 0.103144 -0.729747 0
M  V30 10203 H 948.054 -0.432396 -1.85014 0
M  V30 10204 H 946.204 1.24203 -3.68111 0
M  V30 10205 H 947.876 -1.25526 -4.43893 0
M  V30 10206 H 946.119 -1.24706 -4.15489 0
M  V30 10207 H 946.79 -0.334243 -5.50987 0
M  V30 10208 H 949.266 0.930015 -4.05574 0
M  V30 10209 H 948.142 1.6557 -5.23333 0
M  V30 10210 H 948.403 2.44279 -3.68484 0
M  V30 10211 N 947.462 1.57535 -0.0451378 0
M  V30 10212 C 948.392 2.14208 0.929372 0
M  V30 10213 C 949.373 1.06221 1.32858 0
M  V30 10214 O 950.558 1.34132 1.40436 0
M  V30 10215 C 947.688 2.68217 2.20629 0
M  V30 10216 C 946.642 3.81134 1.94734 0
M  V30 10217 C 945.968 4.21636 3.28828 0
M  V30 10218 C 947.268 5.06531 1.27374 0
M  V30 10219 H 948.962 2.95886 0.457348 0
M  V30 10220 H 946.508 1.42332 0.218544 0
M  V30 10221 H 948.461 3.06502 2.89196 0
M  V30 10222 H 947.185 1.83722 2.70026 0
M  V30 10223 H 945.844 3.43312 1.28579 0
M  V30 10224 H 945.492 3.34099 3.76014 0
M  V30 10225 H 945.192 4.97736 3.12302 0
M  V30 10226 H 946.716 4.62516 3.98637 0
M  V30 10227 H 948.13 5.423 1.85967 0
M  V30 10228 H 946.527 5.87735 1.21194 0
M  V30 10229 H 947.597 4.84261 0.248913 0
M  V30 10230 N 948.94 -0.228186 1.55939 0
M  V30 10231 C 949.85 -1.30386 1.9503 0
M  V30 10232 C 950.866 -1.51645 0.853218 0
M  V30 10233 O 952.042 -1.64904 1.15623 0
M  V30 10234 C 949.107 -2.63489 2.25332 0
M  V30 10235 C 948.168 -2.5059 3.48573 0
M  V30 10236 C 947.401 -3.77345 3.7742 0
M  V30 10237 O 947.624 -4.80067 3.08045 0
M  V30 10238 O 946.558 -3.74855 4.70922 0
M  V30 10239 H 950.384 -1.0022 2.86687 0
M  V30 10240 H 947.969 -0.430503 1.43063 0
M  V30 10241 H 949.851 -3.4211 2.46046 0
M  V30 10242 H 948.526 -2.93349 1.3685 0
M  V30 10243 H 947.433 -1.70191 3.33145 0
M  V30 10244 H 948.766 -2.2567 4.37417 0
M  V30 10245 N 950.418 -1.49637 -0.494624 0
M  V30 10246 C 951.834 -1.36541 -0.826361 0
M  V30 10247 C 952.034 -0.403386 -1.97421 0
M  V30 10248 O 951.09 0.162614 -2.51976 0
M  V30 10249 C 952.403 -2.77401 -1.16057 0
M  V30 10250 C 953.951 -2.86148 -1.26841 0
M  V30 10251 C 954.426 -4.27789 -1.63587 0
M  V30 10252 N 955.917 -4.3063 -1.70624 0
M  V30 10253 C 956.652 -5.37198 -2.00514 0
M  V30 10254 N 956.148 -6.54004 -2.28584 0
M  V30 10255 N 957.941 -5.2462 -2.01818 0
M  V30 10256 H 950.092 -2.10776 0.26219 0
M  V30 10257 H 952.355 -0.946419 0.0547235 0
M  V30 10258 H 952.061 -3.49526 -0.390434 0
M  V30 10259 H 951.935 -3.1317 -2.10249 0
M  V30 10260 H 954.322 -2.14256 -2.02925 0
M  V30 10261 H 954.403 -2.53953 -0.30684 0
M  V30 10262 H 954.047 -5.00209 -0.880507 0
M  V30 10263 H 953.977 -4.57453 -2.60854 0
M  V30 10264 H 956.468 -3.46393 -1.51065 0
M  V30 10265 H 956.781 -7.31041 -2.50598 0
M  V30 10266 H 955.126 -6.57219 -2.26027 0
M  V30 10267 H 958.317 -4.32371 -1.79369 0
M  V30 10268 H 958.49 -6.07765 -2.24778 0
M  V30 10269 N 951.896 0.746133 -1.38819 0
M  V30 10270 C 952.826 1.87344 -1.39372 0
M  V30 10271 C 953.807 1.68123 -0.258583 0
M  V30 10272 O 954.992 1.88606 -0.462769 0
M  V30 10273 C 952.122 3.24962 -1.22543 0
M  V30 10274 C 951.076 3.58799 -2.33339 0
M  V30 10275 C 950.402 4.95235 -2.01609 0
M  V30 10276 C 951.702 3.62911 -3.75624 0
M  V30 10277 H 953.396 1.87138 -2.33709 0
M  V30 10278 H 950.942 0.898937 -1.12495 0
M  V30 10279 H 952.895 4.03488 -1.21554 0
M  V30 10280 H 951.619 3.25667 -0.246707 0
M  V30 10281 H 950.278 2.82596 -2.33527 0
M  V30 10282 H 949.926 4.92508 -1.02202 0
M  V30 10283 H 949.626 5.18843 -2.75819 0
M  V30 10284 H 951.15 5.76131 -2.02251 0
M  V30 10285 H 952.564 4.31535 -3.77426 0
M  V30 10286 H 950.961 3.98031 -4.491 0
M  V30 10287 H 952.031 2.62967 -4.07402 0
M  V30 10288 N 953.375 1.23811 0.975125 0
M  V30 10289 C 954.603 1.10019 1.75224 0
M  V30 10290 C 955.018 -0.34791 1.85567 0
M  V30 10291 O 954.375 -1.24043 1.33864 0
M  V30 10292 C 954.426 1.72572 3.1765 0
M  V30 10293 O 954.147 3.11719 3.07836 0
M  V30 10294 C 955.648 1.64292 4.11732 0
M  V30 10295 H 952.868 0.38476 0.549728 0
M  V30 10296 H 955.412 1.63768 1.22476 0
M  V30 10297 H 953.567 1.22843 3.67408 0
M  V30 10298 H 953.981 3.42152 3.97533 0
M  V30 10299 H 955.455 2.12754 5.09352 0
M  V30 10300 H 955.932 0.602722 4.35045 0
M  V30 10301 H 956.538 2.13411 3.6788 0
M  V30 10302 N 954.853 -1.17469 1.05066 0
M  V30 10303 C 956.102 -1.87032 0.755114 0
M  V30 10304 C 956.415 -1.81844 -0.720572 0
M  V30 10305 O 957.621 -2.46866 -1.13002 0
M  V30 10306 C 956.077 -3.35581 1.30052 0
M  V30 10307 C 955.685 -3.49274 2.80556 0
M  V30 10308 C 957.429 -4.1048 1.08196 0
M  V30 10309 C 955.336 -4.91838 3.28404 0
M  V30 10310 H 954.266 -0.70057 0.278779 0
M  V30 10311 H 956.917 -1.32663 1.26779 0
M  V30 10312 H 955.299 -3.89479 0.715667 0
M  V30 10313 H 956.473 -3.05598 3.44886 0
M  V30 10314 H 954.788 -2.87793 3.00939 0
M  V30 10315 H 957.385 -5.15652 1.41447 0
M  V30 10316 H 957.728 -4.16295 0.0196603 0
M  V30 10317 H 958.261 -3.62784 1.63195 0
M  V30 10318 H 955 -4.91196 4.34058 0
M  V30 10319 H 954.52 -5.36189 2.68815 0
M  V30 10320 H 956.199 -5.60602 3.23009 0
M  V30 10321 N 956.331 -0.831506 -1.3388 0
M  V30 10322 C 957.263 -0.216908 -2.28171 0
M  V30 10323 C 958.276 0.598141 -1.51414 0
M  V30 10324 O 959.465 0.426416 -1.73332 0
M  V30 10325 C 956.565 0.713831 -3.31297 0
M  V30 10326 C 955.738 -0.0602673 -4.37358 0
M  V30 10327 C 954.797 0.792696 -5.20195 0
M  V30 10328 O 953.823 0.234564 -5.68716 0
M  V30 10329 N 955.025 2.11119 -5.40748 0
M  V30 10330 H 957.79 -1.02704 -2.81553 0
M  V30 10331 H 955.351 -0.689272 -1.46495 0
M  V30 10332 H 957.343 1.28925 -3.83615 0
M  V30 10333 H 955.913 1.42469 -2.78247 0
M  V30 10334 H 955.133 -0.817041 -3.8564 0
M  V30 10335 H 956.421 -0.592822 -5.05335 0
M  V30 10336 H 955.819 2.58828 -5.03016 0
M  V30 10337 H 954.376 2.63527 -5.96151 0
M  V30 10338 N 957.809 1.4625 -0.587256 0
M  V30 10339 C 959.055 2.02662 -0.0746851 0
M  V30 10340 C 959.388 1.45723 1.28368 0
M  V30 10341 O 958.663 0.624062 1.84216 0
M  V30 10342 C 958.946 3.60097 -0.0138109 0
M  V30 10343 C 958.799 4.27412 -1.4014 0
M  V30 10344 C 960.118 4.34744 0.684491 0
M  V30 10345 H 957.237 0.736444 -0.0286144 0
M  V30 10346 H 959.879 1.74341 -0.755328 0
M  V30 10347 H 958.029 3.84357 0.56583 0
M  V30 10348 H 959.701 4.14401 -2.02656 0
M  V30 10349 H 957.944 3.86598 -1.96785 0
M  V30 10350 H 958.615 5.362 -1.31124 0
M  V30 10351 H 961.091 4.15657 0.192023 0
M  V30 10352 H 959.967 5.44468 0.696127 0
M  V30 10353 H 960.228 4.06132 1.74669 0
M  V30 10354 N 959.287 0.325282 1.54207 0
M  V30 10355 C 960.197 -0.548778 2.28091 0
M  V30 10356 C 961.213 -1.12772 1.32508 0
M  V30 10357 O 962.389 -1.14732 1.65525 0
M  V30 10358 C 959.454 -1.69284 3.02562 0
M  V30 10359 C 958.515 -1.14553 4.13734 0
M  V30 10360 C 957.748 -2.23506 4.84645 0
M  V30 10361 O 957.971 -3.43884 4.55082 0
M  V30 10362 O 956.905 -1.88828 5.71513 0
M  V30 10363 H 960.731 0.0512974 3.03657 0
M  V30 10364 H 958.316 0.0909159 1.49123 0
M  V30 10365 H 960.198 -2.35887 3.49192 0
M  V30 10366 H 958.873 -2.27906 2.2987 0
M  V30 10367 H 957.78 -0.444532 3.71449 0
M  V30 10368 H 959.113 -0.60441 4.88475 0
M  V30 10369 N 960.765 -1.57509 0.0534917 0
M  V30 10370 C 961.715 -2.08179 -0.929802 0
M  V30 10371 C 962.699 -0.987451 -1.27036 0
M  V30 10372 O 963.891 -1.25076 -1.2524 0
M  V30 10373 C 961.02 -2.63221 -2.20385 0
M  V30 10374 C 960.106 -3.79629 -1.89058 0
M  V30 10375 N 960.497 -4.8931 -1.28101 0
M  V30 10376 C 958.795 -3.88578 -2.18914 0
M  V30 10377 C 959.496 -5.70329 -1.14455 0
M  V30 10378 N 958.472 -5.18011 -1.64821 0
M  V30 10379 H 962.274 -2.90374 -0.453874 0
M  V30 10380 H 959.788 -1.61697 -0.150899 0
M  V30 10381 H 961.785 -2.97827 -2.91727 0
M  V30 10382 H 960.445 -1.82466 -2.68582 0
M  V30 10383 H 961.456 -5.09058 -0.952924 0
M  V30 10384 H 958.133 -3.18769 -2.69616 0
M  V30 10385 H 959.523 -6.6854 -0.671129 0
M  V30 10386 N 962.243 0.219913 -1.56058 0
M  V30 10387 C 963.206 1.25606 -1.91718 0
M  V30 10388 C 964.206 1.39721 -0.795912 0
M  V30 10389 O 965.396 1.37958 -1.06364 0
M  V30 10390 C 962.528 2.62961 -2.16943 0
M  V30 10391 H 963.721 0.951909 -2.84392 0
M  V30 10392 H 961.274 0.460398 -1.49365 0
M  V30 10393 H 962.009 2.98472 -1.26826 0
M  V30 10394 H 961.794 2.54093 -2.98629 0
M  V30 10395 H 963.284 3.37727 -2.45622 0
M  V30 10396 N 963.721 1.49897 0.486681 0
M  V30 10397 C 964.668 1.67619 1.58658 0
M  V30 10398 C 965.638 0.517537 1.57831 0
M  V30 10399 O 966.823 0.746272 1.756 0
M  V30 10400 C 963.963 1.762 2.96728 0
M  V30 10401 C 963.076 3.03465 3.07462 0
M  V30 10402 C 962.211 3.02937 4.36351 0
M  V30 10403 C 961.25 4.24721 4.4077 0
M  V30 10404 N 960.387 4.22021 5.61108 0
M  V30 10405 H 965.227 2.61528 1.42853 0
M  V30 10406 H 962.764 1.29657 0.694807 0
M  V30 10407 H 964.722 1.79156 3.76774 0
M  V30 10408 H 963.352 0.857452 3.11203 0
M  V30 10409 H 962.404 3.10054 2.20387 0
M  V30 10410 H 963.716 3.93454 3.06586 0
M  V30 10411 H 962.87 3.04536 5.24731 0
M  V30 10412 H 961.609 2.10751 4.39813 0
M  V30 10413 H 960.614 4.23352 3.5079 0
M  V30 10414 H 961.839 5.18116 4.39013 0
M  V30 10415 H 959.785 3.3268 5.65385 0
M  V30 10416 H 959.702 5.05761 5.61909 0
M  V30 10417 H 960.97 4.27743 6.51656 0
M  V30 10418 N 965.199 -0.738761 1.39212 0
M  V30 10419 C 966.109 -1.88324 1.39897 0
M  V30 10420 C 967.125 -1.71494 0.294229 0
M  V30 10421 O 968.301 -1.94162 0.535087 0
M  V30 10422 C 965.366 -3.23871 1.23726 0
M  V30 10423 C 964.427 -3.53121 2.44139 0
M  V30 10424 C 963.66 -4.82202 2.2873 0
M  V30 10425 O 963.883 -5.55649 1.28879 0
M  V30 10426 O 962.817 -5.11265 3.17634 0
M  V30 10427 H 966.643 -1.90701 2.36362 0
M  V30 10428 H 964.228 -0.886067 1.20288 0
M  V30 10429 H 966.11 -4.04882 1.16826 0
M  V30 10430 H 964.785 -3.22274 0.303551 0
M  V30 10431 H 963.692 -2.72212 2.56615 0
M  V30 10432 H 965.025 -3.59495 3.36191 0
M  V30 10433 N 966.677 -1.24326 -0.968545 0
M  V30 10434 C 967.923 -1.09413 -1.71465 0
M  V30 10435 C 968.278 0.363422 -1.88937 0
M  V30 10436 O 967.571 1.26486 -1.43916 0
M  V30 10437 C 967.765 -1.76644 -3.10695 0
M  V30 10438 C 967.594 -3.28787 -3.06805 0
M  V30 10439 C 966.364 -3.97995 -3.11333 0
M  V30 10440 C 968.562 -4.25389 -2.89047 0
M  V30 10441 N 966.544 -5.37024 -2.97453 0
M  V30 10442 C 967.915 -5.51411 -2.83454 0
M  V30 10443 C 969.97 -4.15976 -2.73621 0
M  V30 10444 C 968.673 -6.69096 -2.64013 0
M  V30 10445 C 970.699 -5.33338 -2.55547 0
M  V30 10446 C 970.061 -6.58291 -2.50663 0
M  V30 10447 H 966.16 -0.454986 -0.636012 0
M  V30 10448 H 968.744 -1.57228 -1.14837 0
M  V30 10449 H 966.915 -1.31344 -3.65518 0
M  V30 10450 H 968.647 -1.54599 -3.74007 0
M  V30 10451 H 965.402 -3.49155 -3.19981 0
M  V30 10452 H 965.826 -6.09948 -2.93756 0
M  V30 10453 H 970.468 -3.20131 -2.76181 0
M  V30 10454 H 968.186 -7.65064 -2.60197 0
M  V30 10455 H 971.772 -5.27904 -2.44557 0
M  V30 10456 H 970.652 -7.47575 -2.36856 0
M  V30 10457 N 968.156 1.1691 -1.05688 0
M  V30 10458 C 969.572 1.39288 -0.779167 0
M  V30 10459 C 969.772 1.91587 0.624231 0
M  V30 10460 O 968.828 2.11072 1.38582 0
M  V30 10461 C 970.141 2.37914 -1.83895 0
M  V30 10462 C 971.689 2.51611 -1.86175 0
M  V30 10463 C 972.164 3.53514 -2.9119 0
M  V30 10464 N 973.655 3.61036 -2.90184 0
M  V30 10465 C 974.39 4.39657 -3.68088 0
M  V30 10466 N 973.886 5.21752 -4.55793 0
M  V30 10467 N 975.679 4.3458 -3.56507 0
M  V30 10468 H 967.83 0.81296 -1.96226 0
M  V30 10469 H 970.093 0.419818 -0.849975 0
M  V30 10470 H 969.799 2.06568 -2.84645 0
M  V30 10471 H 969.673 3.37483 -1.68479 0
M  V30 10472 H 972.06 2.82264 -0.86087 0
M  V30 10473 H 972.141 1.52099 -2.05668 0
M  V30 10474 H 971.785 3.23599 -3.91467 0
M  V30 10475 H 971.715 4.52742 -2.68947 0
M  V30 10476 H 974.206 3.02428 -2.26596 0
M  V30 10477 H 974.519 5.78939 -5.11907 0
M  V30 10478 H 972.864 5.21116 -4.59851 0
M  V30 10479 H 976.055 3.69501 -2.87379 0
M  V30 10480 H 976.228 4.95607 -4.17466 0
M  V30 10481 N 969.634 0.838594 1.33437 0
M  V30 10482 C 970.911 0.356112 1.92331 0
M  V30 10483 C 971.291 -1.1585 1.76471 0
M  V30 10484 O 970.639 -1.97281 1.15293 0
M  V30 10485 C 970.849 0.802715 3.39643 0
M  V30 10486 C 972.197 0.810575 4.16791 0
M  V30 10487 O 973.221 0.746304 3.48294 0
M  V30 10488 O 972.08 0.898082 5.3907 0
M  V30 10489 H 969.174 0.100711 0.820845 0
M  V30 10490 H 971.72 0.924428 1.42311 0
M  V30 10491 H 970.492 1.84529 3.45057 0
M  V30 10492 H 970.115 0.210956 3.9704 0
M  V30 10493 N 971.112 -1.45937 0.595003 0
M  V30 10494 C 972.358 -2.0262 0.0854317 0
M  V30 10495 C 972.691 -1.46402 -1.27594 0
M  V30 10496 O 971.966 -0.633823 -1.83883 0
M  V30 10497 C 972.249 -3.60085 0.0329075 0
M  V30 10498 C 972.102 -4.26663 1.42405 0
M  V30 10499 C 973.421 -4.35101 -0.661426 0
M  V30 10500 H 970.54 -0.736282 0.0325196 0
M  V30 10501 H 973.182 -1.73938 0.764563 0
M  V30 10502 H 971.332 -3.84652 -0.545439 0
M  V30 10503 H 973.004 -4.13321 2.04851 0
M  V30 10504 H 971.247 -3.85549 1.98833 0
M  V30 10505 H 971.918 -5.35497 1.33965 0
M  V30 10506 H 974.394 -4.15753 -0.169977 0
M  V30 10507 H 973.27 -5.44829 -0.667243 0
M  V30 10508 H 973.531 -4.07053 -1.72513 0
M  V30 10509 N 972.59 -0.333456 -1.54032 0
M  V30 10510 C 973.839 0.267081 -1.99924 0
M  V30 10511 C 974.152 1.52463 -1.22534 0
M  V30 10512 O 975.358 2.20178 -1.58852 0
M  V30 10513 C 973.814 0.526456 -3.56029 0
M  V30 10514 C 973.422 -0.714607 -4.42264 0
M  V30 10515 C 975.166 1.0864 -4.10363 0
M  V30 10516 C 973.073 -0.42659 -5.89859 0
M  V30 10517 H 972.003 0.103577 -0.746852 0
M  V30 10518 H 974.654 -0.447218 -1.77967 0
M  V30 10519 H 973.036 1.3012 -3.74012 0
M  V30 10520 H 974.21 -1.48968 -4.36056 0
M  V30 10521 H 972.525 -1.19547 -3.9887 0
M  V30 10522 H 975.122 1.31668 -5.18235 0
M  V30 10523 H 975.465 2.03884 -3.62956 0
M  V30 10524 H 975.998 0.37261 -3.96051 0
M  V30 10525 H 972.737 -1.34847 -6.4148 0
M  V30 10526 H 972.257 0.310588 -5.98995 0
M  V30 10527 H 973.936 -0.0400807 -6.46988 0
M  V30 10528 N 974.068 1.57479 -0.061844 0
M  V30 10529 C 975.016 2.13346 0.926629 0
M  V30 10530 C 976.01 1.06787 1.31502 0
M  V30 10531 O 977.216 1.25181 1.29343 0
M  V30 10532 H 973.591 0.682046 0.316729 0
M  V30 10533 H 975.562 2.95279 0.430424 0
M  V30 10534 C 974.311 2.70198 2.18834 0
M  V30 10535 H 973.634 3.51859 1.89829 0
M  V30 10536 H 975.074 3.12897 2.86132 0
M  V30 10537 C 973.533 1.64481 2.9402 0
M  V30 10538 O 974.063 1.0639 3.87355 0
M  V30 10539 N 972.269 1.35749 2.56944 0
M  V30 10540 H 971.816 1.83177 1.81119 0
M  V30 10541 H 971.774 0.652469 3.07555 0
M  V30 10542 N 975.546 -0.211634 1.56173 0
M  V30 10543 C 976.774 -0.951184 1.83739 0
M  V30 10544 C 977.189 -1.7754 0.642252 0
M  V30 10545 O 976.546 -1.78302 -0.389174 0
M  V30 10546 C 976.597 -1.86075 3.09933 0
M  V30 10547 O 976.318 -1.06983 4.24837 0
M  V30 10548 C 977.819 -2.71337 3.50559 0
M  V30 10549 H 975.039 -0.278312 0.61056 0
M  V30 10550 H 977.583 -0.223871 2.03271 0
M  V30 10551 H 975.738 -2.54189 2.92347 0
M  V30 10552 H 976.152 -1.68815 4.9659 0
M  V30 10553 H 977.626 -3.30843 4.41868 0
M  V30 10554 H 978.103 -3.44226 2.72773 0
M  V30 10555 H 978.709 -2.0862 3.70618 0
M  V30 10556 N 977.024 -1.50153 -0.478725 0
M  V30 10557 C 978.254 -1.64266 -1.253 0
M  V30 10558 C 978.662 -0.322256 -1.86435 0
M  V30 10559 O 978.005 0.704925 -1.69636 0
M  V30 10560 C 978.067 -2.67017 -2.40712 0
M  V30 10561 C 977.731 -4.10779 -2.00274 0
M  V30 10562 C 978.728 -4.96889 -1.52963 0
M  V30 10563 C 976.413 -4.5665 -2.09228 0
M  V30 10564 C 978.407 -6.26914 -1.15139 0
M  V30 10565 C 976.094 -5.86683 -1.71015 0
M  V30 10566 C 977.092 -6.71641 -1.24048 0
M  V30 10567 O 976.78 -7.99248 -0.863617 0
M  V30 10568 H 976.512 -0.555382 -0.385392 0
M  V30 10569 H 979.066 -1.97078 -0.578751 0
M  V30 10570 H 977.296 -2.29432 -3.11284 0
M  V30 10571 H 978.985 -2.70428 -3.02694 0
M  V30 10572 H 979.751 -4.62669 -1.45474 0
M  V30 10573 H 975.63 -3.90674 -2.44735 0
M  V30 10574 H 979.174 -6.93179 -0.784089 0
M  V30 10575 H 975.071 -6.20426 -1.78162 0
M  V30 10576 H 975.839 -8.12452 -0.993139 0
M  V30 10577 N 978.502 0.731368 -1.39602 0
M  V30 10578 C 979.749 1.491 -1.37024 0
M  V30 10579 C 980.077 1.94473 0.0326423 0
M  V30 10580 O 979.332 1.6737 1.01418 0
M  V30 10581 C 979.631 2.74224 -2.29208 0
M  V30 10582 C 979.297 2.477 -3.7677 0
M  V30 10583 C 977.959 2.40175 -4.16976 0
M  V30 10584 C 980.311 2.25098 -4.70086 0
M  V30 10585 C 977.639 2.08095 -5.48556 0
M  V30 10586 C 979.991 1.94534 -6.01946 0
M  V30 10587 C 978.655 1.85481 -6.41212 0
M  V30 10588 H 977.925 0.545595 -0.501405 0
M  V30 10589 H 980.572 0.839127 -1.72136 0
M  V30 10590 H 978.877 3.44171 -1.87225 0
M  V30 10591 H 980.574 3.32264 -2.24504 0
M  V30 10592 H 977.164 2.54436 -3.44906 0
M  V30 10593 H 981.348 2.29876 -4.39853 0
M  V30 10594 H 976.604 1.99611 -5.77897 0
M  V30 10595 H 980.778 1.76054 -6.73779 0
M  V30 10596 H 978.405 1.60389 -7.43088 0
M  V30 10597 N 979.98 1.24838 0.961938 0
M  V30 10598 C 981.21 1.11709 1.73795 0
M  V30 10599 C 981.618 -0.33263 1.86253 0
M  V30 10600 O 980.961 -1.24101 1.35443 0
M  V30 10601 C 981.023 1.68959 3.17322 0
M  V30 10602 C 980.687 3.17895 3.28316 0
M  V30 10603 C 981.684 4.14975 3.13196 0
M  V30 10604 C 979.369 3.57966 3.52372 0
M  V30 10605 C 981.363 5.50107 3.21965 0
M  V30 10606 C 979.05 4.93237 3.60778 0
M  V30 10607 C 980.048 5.89116 3.45588 0
M  V30 10608 O 979.736 7.21927 3.53662 0
M  V30 10609 H 979.468 0.390726 0.551642 0
M  V30 10610 H 982.022 1.65541 1.21594 0
M  V30 10611 H 980.252 1.09567 3.70853 0
M  V30 10612 H 981.941 1.51036 3.76753 0
M  V30 10613 H 982.707 3.85359 2.94489 0
M  V30 10614 H 978.586 2.83837 3.63259 0
M  V30 10615 H 982.13 6.24924 3.10025 0
M  V30 10616 H 978.027 5.22522 3.79 0
M  V30 10617 H 978.795 7.29925 3.7034 0
M  V30 10618 N 981.458 -1.16348 1.06306 0
M  V30 10619 C 982.874 -1.38873 0.786543 0
M  V30 10620 C 983.074 -1.91915 -0.614061 0
M  V30 10621 O 982.13 -2.11804 -1.3746 0
M  V30 10622 C 983.443 -2.36936 1.85154 0
M  V30 10623 C 984.991 -2.5062 1.87506 0
M  V30 10624 C 985.466 -3.51965 2.9306 0
M  V30 10625 N 986.957 -3.59492 2.92095 0
M  V30 10626 C 987.692 -4.37699 3.70415 0
M  V30 10627 N 987.188 -5.19327 4.58553 0
M  V30 10628 N 988.981 -4.32683 3.58806 0
M  V30 10629 H 981.132 -0.802542 1.96655 0
M  V30 10630 H 983.395 -0.415304 0.852189 0
M  V30 10631 H 983.101 -2.05056 2.85736 0
M  V30 10632 H 982.975 -3.36585 1.70267 0
M  V30 10633 H 985.362 -2.81804 0.875827 0
M  V30 10634 H 985.443 -1.51006 2.06472 0
M  V30 10635 H 985.087 -3.21518 3.93177 0
M  V30 10636 H 985.017 -4.51309 2.71344 0
M  V30 10637 H 987.508 -3.01222 2.28197 0
M  V30 10638 H 987.821 -5.76216 5.1497 0
M  V30 10639 H 986.166 -5.1867 4.62608 0
M  V30 10640 H 989.357 -3.67971 2.89335 0
M  V30 10641 H 989.53 -4.93386 4.20088 0
M  V30 10642 N 982.937 -0.845659 -1.3299 0
M  V30 10643 C 983.884 -0.281761 -2.29074 0
M  V30 10644 C 984.854 0.606237 -1.54641 0
M  V30 10645 O 986.039 0.543063 -1.82908 0
M  V30 10646 C 983.179 0.531451 -3.40983 0
M  V30 10647 C 982.292 -0.381328 -4.30314 0
M  V30 10648 C 981.427 0.443643 -5.29344 0
M  V30 10649 C 980.466 -0.467101 -6.10315 0
M  V30 10650 N 979.603 0.320148 -7.0137 0
M  V30 10651 H 984.443 -1.10641 -2.76699 0
M  V30 10652 H 981.98 -0.55706 -1.36144 0
M  V30 10653 H 983.938 1.01848 -4.04577 0
M  V30 10654 H 982.568 1.32101 -2.94532 0
M  V30 10655 H 981.62 -0.986701 -3.6738 0
M  V30 10656 H 982.932 -1.08067 -4.86953 0
M  V30 10657 H 982.086 0.994212 -5.98498 0
M  V30 10658 H 980.825 1.17639 -4.73299 0
M  V30 10659 H 979.83 -1.02963 -5.40073 0
M  V30 10660 H 981.055 -1.19832 -6.68444 0
M  V30 10661 H 979.001 1.03615 -6.47765 0
M  V30 10662 H 978.918 -0.320338 -7.55321 0
M  V30 10663 H 980.186 0.852735 -7.74822 0
M  V30 10664 N 984.415 1.45619 -0.602734 0
M  V30 10665 C 985.64 2.07157 -0.100429 0
M  V30 10666 C 986.065 1.44524 1.20393 0
M  V30 10667 O 985.423 0.536191 1.7319 0
M  V30 10668 C 985.471 3.60587 0.0308604 0
M  V30 10669 O 984.575 3.97944 1.08234 0
M  V30 10670 H 983.916 0.6601 -0.0718643 0
M  V30 10671 H 986.446 1.86948 -0.831366 0
M  V30 10672 H 986.456 4.07348 0.230634 0
M  V30 10673 H 985.131 4.05561 -0.921581 0
M  V30 10674 H 983.708 3.62862 0.859414 0
M  V30 10675 N 985.893 0.34162 1.53853 0
M  V30 10676 C 987.141 -0.254979 2.00485 0
M  V30 10677 C 987.462 -1.51222 1.23114 0
M  V30 10678 O 986.732 -1.92966 0.337787 0
M  V30 10679 H 985.312 -0.0972084 0.740648 0
M  V30 10680 H 987.974 0.462332 1.89337 0
M  V30 10681 H 987.07 -0.498778 3.08089 0
M  V30 10682 N 987.371 -1.57444 0.0701946 0
M  V30 10683 C 988.62 -1.92605 -0.598849 0
M  V30 10684 C 988.933 -0.952058 -1.70866 0
M  V30 10685 O 990.139 -1.19643 -2.43716 0
M  V30 10686 C 988.595 -3.42142 -1.11655 0
M  V30 10687 C 988.203 -4.47984 -0.0378355 0
M  V30 10688 C 989.947 -3.86307 -1.75975 0
M  V30 10689 C 987.854 -5.88652 -0.569495 0
M  V30 10690 H 986.784 -0.718873 -0.22746 0
M  V30 10691 H 989.435 -1.82948 0.14217 0
M  V30 10692 H 987.817 -3.46866 -1.91049 0
M  V30 10693 H 988.991 -4.54874 0.736661 0
M  V30 10694 H 987.306 -4.13277 0.50904 0
M  V30 10695 H 989.903 -4.88784 -2.16782 0
M  V30 10696 H 990.246 -3.23587 -2.61911 0
M  V30 10697 H 990.779 -3.84179 -1.03206 0
M  V30 10698 H 987.518 -6.55013 0.252662 0
M  V30 10699 H 987.038 -5.85285 -1.31155 0
M  V30 10700 H 988.717 -6.38482 -1.04641 0
M  V30 10701 N 988.849 0.203349 -1.56283 0
M  V30 10702 C 990.126 0.950415 -1.70958 0
M  V30 10703 C 990.506 2.01708 -0.622647 0
M  V30 10704 O 989.854 2.25523 0.367635 0
M  V30 10705 C 990.064 1.54434 -3.12971 0
M  V30 10706 C 991.412 2.02964 -3.72949 0
M  V30 10707 O 992.436 1.64293 -3.16048 0
M  V30 10708 O 991.295 2.74097 -4.72793 0
M  V30 10709 H 988.389 0.445154 -0.69697 0
M  V30 10710 H 990.935 0.193695 -1.68591 0
M  V30 10711 H 989.707 0.77505 -3.83547 0
M  V30 10712 H 989.33 2.36611 -3.19532 0
M  V30 10713 N 990.327 1.50405 0.470755 0
M  V30 10714 C 991.604 1.51929 1.23195 0
M  V30 10715 C 991.984 0.264159 2.09441 0
M  V30 10716 O 991.332 -0.752395 2.15757 0
M  V30 10717 C 991.542 2.81521 2.06269 0
M  V30 10718 C 992.89 3.32195 2.64446 0
M  V30 10719 O 993.914 2.82845 2.16511 0
M  V30 10720 O 992.773 4.18221 3.51786 0
M  V30 10721 H 989.867 0.609411 0.559059 0
M  V30 10722 H 992.413 1.62695 0.482549 0
M  V30 10723 H 991.185 3.64346 1.42715 0
M  V30 10724 H 990.808 2.7376 2.88342 0
M  V30 10725 N 991.805 -0.723954 1.39988 0
M  V30 10726 C 992.737 -1.84859 1.35498 0
M  V30 10727 C 993.75 -1.60681 0.261812 0
M  V30 10728 O 994.939 -1.7071 0.521566 0
M  V30 10729 C 992.039 -3.21103 1.08381 0
M  V30 10730 C 991.212 -3.72546 2.2919 0
M  V30 10731 C 990.271 -4.8738 1.9836 0
M  V30 10732 O 989.297 -5.00467 2.71149 0
M  V30 10733 N 990.499 -5.72566 0.956461 0
M  V30 10734 H 993.264 -1.89212 2.3242 0
M  V30 10735 H 990.825 -0.905152 1.34233 0
M  V30 10736 H 992.817 -3.9551 0.857564 0
M  V30 10737 H 991.387 -3.1195 0.201549 0
M  V30 10738 H 990.607 -2.89365 2.67697 0
M  V30 10739 H 991.895 -4.03652 3.09746 0
M  V30 10740 H 991.293 -5.64595 0.353444 0
M  V30 10741 H 989.85 -6.46993 0.790118 0
M  V30 10742 N 993.283 -1.25346 -0.955304 0
M  V30 10743 C 994.513 -1.12629 -1.732 0
M  V30 10744 C 994.921 0.322748 -1.86427 0
M  V30 10745 O 994.264 1.23381 -1.36099 0
M  V30 10746 C 994.326 -1.7064 -3.16421 0
M  V30 10747 C 993.99 -3.19632 -3.26626 0
M  V30 10748 C 994.987 -4.1663 -3.10991 0
M  V30 10749 C 992.672 -3.59829 -3.50468 0
M  V30 10750 C 994.666 -5.51806 -3.19043 0
M  V30 10751 C 992.353 -4.95143 -3.58157 0
M  V30 10752 C 993.351 -5.90941 -3.42459 0
M  V30 10753 O 993.039 -7.23792 -3.49828 0
M  V30 10754 H 992.771 -0.393646 -0.549562 0
M  V30 10755 H 995.325 -1.66184 -1.20715 0
M  V30 10756 H 993.555 -1.11532 -3.70267 0
M  V30 10757 H 995.244 -1.53032 -3.75947 0
M  V30 10758 H 996.01 -3.86915 -2.92441 0
M  V30 10759 H 991.889 -2.8576 -3.61749 0
M  V30 10760 H 995.433 -6.26559 -3.06707 0
M  V30 10761 H 991.33 -5.24525 -3.76224 0
M  V30 10762 H 992.098 -7.31879 -3.66463 0
M  V30 10763 N 994.761 1.15782 -1.06922 0
M  V30 10764 C 996.009 1.86097 -0.788192 0
M  V30 10765 C 996.33 1.82475 0.687606 0
M  V30 10766 O 995.6 1.26266 1.49778 0
M  V30 10767 H 994.18 0.689008 -0.288577 0
M  V30 10768 H 996.842 1.40377 -1.35205 0
M  V30 10769 H 995.938 2.91358 -1.1188 0
M  V30 10770 N 996.239 0.8527 1.3254 0
M  V30 10771 C 997.655 0.542298 1.50104 0
M  V30 10772 C 997.855 -0.927465 1.78886 0
M  V30 10773 O 996.911 -1.7106 1.85728 0
M  V30 10774 C 998.224 1.4276 2.64651 0
M  V30 10775 C 999.772 1.42782 2.78536 0
M  V30 10776 C 1000.25 2.29828 3.9616 0
M  V30 10777 N 1001.74 2.27613 4.03418 0
M  V30 10778 C 1002.47 2.91696 4.93661 0
M  V30 10779 N 1001.97 3.64883 5.88925 0
M  V30 10780 N 1003.76 2.81094 4.86768 0
M  V30 10781 H 995.913 1.80395 1.12123 0
M  V30 10782 H 998.176 0.770394 0.552446 0
M  V30 10783 H 997.882 2.47266 2.50105 0
M  V30 10784 H 997.756 1.11358 3.60388 0
M  V30 10785 H 1000.14 0.390417 2.92506 0
M  V30 10786 H 1000.22 1.78198 1.83519 0
M  V30 10787 H 999.868 3.33635 3.82949 0
M  V30 10788 H 999.798 1.91746 4.9045 0
M  V30 10789 H 1002.29 1.74402 3.3525 0
M  V30 10790 H 1002.6 4.10952 6.54476 0
M  V30 10791 H 1000.95 3.68991 5.88957 0
M  V30 10792 H 1004.14 2.23469 4.11314 0
M  V30 10793 H 1004.31 3.31318 5.56895 0
M  V30 10794 N 997.718 -1.45297 0.610449 0
M  V30 10795 C 998.665 -2.30553 -0.106718 0
M  V30 10796 C 999.635 -1.42272 -0.85719 0
M  V30 10797 O 1000.82 -1.71199 -0.842357 0
M  V30 10798 C 997.96 -3.27226 -1.09623 0
M  V30 10799 C 997.073 -4.3061 -0.346329 0
M  V30 10800 C 996.208 -5.14389 -1.32581 0
M  V30 10801 C 995.247 -6.09497 -0.563892 0
M  V30 10802 N 994.384 -6.86047 -1.4928 0
M  V30 10803 H 999.224 -2.91344 0.626296 0
M  V30 10804 H 996.761 -1.43563 0.32065 0
M  V30 10805 H 998.719 -3.81744 -1.68308 0
M  V30 10806 H 997.349 -2.68182 -1.79662 0
M  V30 10807 H 996.401 -3.7873 0.356084 0
M  V30 10808 H 997.713 -4.98183 0.248026 0
M  V30 10809 H 996.867 -5.73321 -1.98464 0
M  V30 10810 H 995.606 -4.4684 -1.9541 0
M  V30 10811 H 994.611 -5.49693 0.108551 0
M  V30 10812 H 995.836 -6.79074 0.0593872 0
M  V30 10813 H 993.782 -6.21185 -2.10868 0
M  V30 10814 H 993.699 -7.49983 -0.951953 0
M  V30 10815 H 994.967 -7.49518 -2.14112 0
M  V30 10816 N 999.196 -0.349774 -1.5367 0
M  V30 10817 C 1000.44 0.245862 -2.00196 0
M  V30 10818 C 1000.76 1.51154 -1.24144 0
M  V30 10819 O 1001.96 2.18481 -1.61178 0
M  V30 10820 C 1000.42 0.488665 -3.56567 0
M  V30 10821 C 1000.03 -0.761475 -4.41481 0
M  V30 10822 C 1001.77 1.04282 -4.11492 0
M  V30 10823 C 999.679 -0.489128 -5.89374 0
M  V30 10824 H 998.609 0.0956493 -0.747909 0
M  V30 10825 H 1001.26 -0.466068 -1.77483 0
M  V30 10826 H 999.642 1.26145 -3.75371 0
M  V30 10827 H 1000.82 -1.53585 -4.34452 0
M  V30 10828 H 999.131 -1.23771 -3.9758 0
M  V30 10829 H 1001.73 1.26164 -5.19603 0
M  V30 10830 H 1002.07 2.00023 -3.65098 0
M  V30 10831 H 1002.6 0.330582 -3.96424 0
M  V30 10832 H 999.343 -1.41643 -6.40014 0
M  V30 10833 H 998.863 0.247039 -5.99291 0
M  V30 10834 H 1000.54 -0.1087 -6.46909 0
M  V30 10835 N 1000.67 1.57404 -0.0785433 0
M  V30 10836 C 1001.9 1.97787 0.596995 0
M  V30 10837 C 1002.31 0.955904 1.63276 0
M  V30 10838 O 1001.65 -0.0649169 1.83585 0
M  V30 10839 C 1001.72 3.34499 1.31723 0
M  V30 10840 C 1001.38 4.54933 0.434144 0
M  V30 10841 C 1002.38 5.18969 -0.311015 0
M  V30 10842 C 1000.06 5.01029 0.357046 0
M  V30 10843 C 1002.06 6.27457 -1.12142 0
M  V30 10844 C 999.744 6.09389 -0.457029 0
M  V30 10845 C 1000.74 6.72466 -1.19493 0
M  V30 10846 O 1000.43 7.78738 -1.99556 0
M  V30 10847 H 1000.16 0.655294 0.166028 0
M  V30 10848 H 1002.72 2.04855 -0.149517 0
M  V30 10849 H 1000.95 3.24064 2.10996 0
M  V30 10850 H 1002.63 3.5944 1.88567 0
M  V30 10851 H 1003.4 4.84297 -0.261084 0
M  V30 10852 H 999.28 4.51706 0.921026 0
M  V30 10853 H 1002.82 6.76622 -1.69788 0
M  V30 10854 H 998.721 6.43494 -0.508499 0
M  V30 10855 H 999.489 7.95648 -1.9206 0
M  V30 10856 N 1002.15 -0.195058 1.56388 0
M  V30 10857 C 1003.57 -0.545894 1.49974 0
M  V30 10858 C 1003.77 -1.85851 0.778568 0
M  V30 10859 O 1002.82 -2.50346 0.329105 0
M  V30 10860 C 1004.14 -0.600599 2.94641 0
M  V30 10861 C 1005.68 -0.689429 3.05313 0
M  V30 10862 C 1006.16 -0.775243 4.51391 0
M  V30 10863 N 1007.65 -0.838769 4.55542 0
M  V30 10864 C 1008.39 -0.925337 5.65884 0
M  V30 10865 N 1007.88 -0.974204 6.85916 0
M  V30 10866 N 1009.67 -0.962528 5.53798 0
M  V30 10867 H 1001.83 0.66595 2.0169 0
M  V30 10868 H 1004.09 0.237215 0.917842 0
M  V30 10869 H 1003.79 0.29478 3.50462 0
M  V30 10870 H 1003.67 -1.45528 3.47996 0
M  V30 10871 H 1006.06 -1.57524 2.4954 0
M  V30 10872 H 1006.14 0.191451 2.55083 0
M  V30 10873 H 1005.78 0.106215 5.07789 0
M  V30 10874 H 1005.71 -1.67193 4.99354 0
M  V30 10875 H 1008.2 -0.810249 3.69112 0
M  V30 10876 H 1008.51 -1.04077 7.6576 0
M  V30 10877 H 1006.86 -0.942881 6.88574 0
M  V30 10878 H 1010.05 -0.921188 4.58946 0
M  V30 10879 H 1010.22 -1.02653 6.39817 0
M  V30 10880 O 1003.67 -1.57874 -0.340278 0
M  V30 10881 H 1004.36 -1.66507 -0.98971 0
M  V30 END ATOM
M  V30 BEGIN BOND
M  V30 END BOND
M  V30 END CTAB
M  END
$$$$
